0:0
     RDKit          3D

 36 38  0  0  0  0  0  0  0  0999 V2000
   -6.4870   25.6400  -29.3580 C   0  0  0  0  0  0  0  0  0  0  0  0
   -5.5770   25.3010  -30.8950 S   0  0  0  0  0  0  0  0  0  0  0  0
   -6.4760   23.7840  -31.2210 C   0  0  0  0  0  0  0  0  0  0  0  0
   -7.8090   23.7430  -31.4400 N   0  0  0  0  0  0  0  0  0  0  0  0
   -8.0790   22.4410  -31.6470 C   0  0  0  0  0  0  0  0  0  0  0  0
   -9.3310   21.8920  -31.9140 C   0  0  0  0  0  0  0  0  0  0  0  0
   -9.4070   20.5030  -32.1030 C   0  0  0  0  0  0  0  0  0  0  0  0
   -8.2430   19.7050  -32.0340 C   0  0  0  0  0  0  0  0  0  0  0  0
   -8.3310   18.2170  -32.1970 C   0  0  0  0  0  0  0  0  0  0  0  0
   -7.0100   20.3170  -31.7440 C   0  0  0  0  0  0  0  0  0  0  0  0
   -6.9830   21.6650  -31.5690 N   0  0  0  0  0  0  0  0  0  0  0  0
   -5.9570   22.4970  -31.3000 C   0  0  0  0  0  0  0  0  0  0  0  0
   -4.2760   21.9950  -31.1220 S   0  0  0  0  0  0  0  0  0  0  0  0
   -4.1760   20.5190  -30.8570 O   0  0  0  0  0  0  0  0  0  0  0  0
   -3.5470   22.3080  -32.3980 O   0  0  0  0  0  0  0  0  0  0  0  0
   -3.5580   22.8610  -29.7690 C   0  0  0  0  0  0  0  0  0  0  0  0
   -2.2710   23.4010  -29.8940 C   0  0  0  0  0  0  0  0  0  0  0  0
   -1.6850   24.0790  -28.8210 C   0  0  0  0  0  0  0  0  0  0  0  0
   -2.3830   24.2220  -27.6170 C   0  0  0  0  0  0  0  0  0  0  0  0
   -3.6690   23.6870  -27.4880 C   0  0  0  0  0  0  0  0  0  0  0  0
   -4.2570   23.0080  -28.5600 C   0  0  0  0  0  0  0  0  0  0  0  0
   -5.8489   25.4023  -28.4941 H   0  0  0  0  0  0  0  0  0  0  0  0
   -6.7678   26.7030  -29.3250 H   0  0  0  0  0  0  0  0  0  0  0  0
   -7.3949   25.0198  -29.3250 H   0  0  0  0  0  0  0  0  0  0  0  0
   -8.4790   24.5450  -31.4450 H   0  0  0  0  0  0  0  0  0  0  0  0
  -10.2288   22.5247  -31.9746 H   0  0  0  0  0  0  0  0  0  0  0  0
  -10.3802   20.0323  -32.3064 H   0  0  0  0  0  0  0  0  0  0  0  0
   -8.3592   17.7406  -31.2059 H   0  0  0  0  0  0  0  0  0  0  0  0
   -9.2458   17.9624  -32.7523 H   0  0  0  0  0  0  0  0  0  0  0  0
   -7.4526   17.8564  -32.7523 H   0  0  0  0  0  0  0  0  0  0  0  0
   -6.0902   19.7195  -31.6609 H   0  0  0  0  0  0  0  0  0  0  0  0
   -1.7199   23.2910  -30.8396 H   0  0  0  0  0  0  0  0  0  0  0  0
   -0.6741   24.5005  -28.9235 H   0  0  0  0  0  0  0  0  0  0  0  0
   -1.9210   24.7546  -26.7727 H   0  0  0  0  0  0  0  0  0  0  0  0
   -4.2187   23.8005  -26.5420 H   0  0  0  0  0  0  0  0  0  0  0  0
   -5.2685   22.5885  -28.4559 H   0  0  0  0  0  0  0  0  0  0  0  0
  1  2  1  0
  2  3  1  0
  3  4  1  0
  4  5  2  0
  5  6  1  0
  6  7  2  0
  7  8  1  0
  8  9  1  0
  8 10  2  0
 10 11  1  0
 11 12  1  0
 12 13  1  0
 13 14  2  0
 13 15  2  0
 13 16  1  0
 16 17  2  0
 17 18  1  0
 18 19  2  0
 19 20  1  0
 20 21  2  0
 12  3  2  0
 21 16  1  0
 11  5  1  0
  1 22  1  0
  1 23  1  0
  1 24  1  0
  4 25  1  0
  6 26  1  0
  7 27  1  0
  9 28  1  0
  9 29  1  0
  9 30  1  0
 10 31  1  0
 17 32  1  0
 18 33  1  0
 19 34  1  0
 20 35  1  0
 21 36  1  0
M  CHG  1   4   1
M  END
>  <UniqueID>  (1) 
1

>  <SMILES>  (1) 
CSc1[nH+]c2ccc(C)cn2c1S(=O)(=O)c1ccccc1

>  <Energy>  (1) 
71.70520848015215

>  <Genealogy>  (1) 
CSc1[nH+]c2ccc(C)cn2c1S(=O)(=O)c1ccccc1 (protonated)
CSc1[nH+]c2ccc(C)cn2c1S(=O)(=O)c1ccccc1 (3D coordinates assigned)
CSc1[nH+]c2ccc(C)cn2c1S(=O)(=O)c1ccccc1 (optimized conformer: 71.70520848015215 kcal/mol)

>  <smiles>  (1) 
CSc1nc2ccc(C)cn2c1S(=O)(=O)c1ccccc1

>  <score_type>  (1) 
oracle

>  <origin>  (1) 
adg

>  <m_score__min__energy>  (1) 
-7.2000000000000002

>  <m_primary>  (1) 
energy

$$$$
1:0
     RDKit          3D

 58 60  0  0  0  0  0  0  0  0999 V2000
   -0.3520   20.3060  -29.9130 C   0  0  0  0  0  0  0  0  0  0  0  0
   -0.3230   21.2600  -31.1010 C   0  0  0  0  0  0  0  0  0  0  0  0
   -1.6920   21.5480  -31.5460 N   0  0  0  0  0  0  0  0  0  0  0  0
   -1.8110   21.5140  -33.0100 C   0  0  0  0  0  0  0  0  0  0  0  0
   -3.2670   21.3780  -33.4690 C   0  0  0  0  0  0  0  0  0  0  0  0
   -4.1930   21.3250  -32.3340 N   0  0  0  0  0  0  0  0  0  0  0  0
   -5.4780   20.6830  -32.4230 C   0  0  0  0  0  0  0  0  0  0  0  0
   -5.5540   19.3410  -32.8480 C   0  0  0  0  0  0  0  0  0  0  0  0
   -4.4250   18.6810  -33.3810 C   0  0  0  0  0  0  0  0  0  0  0  0
   -4.5020   17.3560  -33.8000 C   0  0  0  0  0  0  0  0  0  0  0  0
   -5.7090   16.6720  -33.7230 C   0  0  0  0  0  0  0  0  0  0  0  0
   -6.8450   17.3110  -33.2270 C   0  0  0  0  0  0  0  0  0  0  0  0
   -6.7910   18.6530  -32.7710 C   0  0  0  0  0  0  0  0  0  0  0  0
   -7.9080   19.2990  -32.2910 N   0  0  0  0  0  0  0  0  0  0  0  0
   -9.1110   18.5200  -31.9190 C   0  0  0  0  0  0  0  0  0  0  0  0
   -7.9050   20.6740  -32.1550 C   0  0  0  0  0  0  0  0  0  0  0  0
   -9.1150   21.3940  -32.0280 C   0  0  0  0  0  0  0  0  0  0  0  0
   -9.1160   22.7710  -31.8660 C   0  0  0  0  0  0  0  0  0  0  0  0
   -7.9210   23.4690  -31.8000 C   0  0  0  0  0  0  0  0  0  0  0  0
   -6.6880   22.8020  -31.9040 C   0  0  0  0  0  0  0  0  0  0  0  0
   -5.4770   23.5100  -31.7810 O   0  0  0  0  0  0  0  0  0  0  0  0
   -5.1720   24.5410  -30.8380 C   0  0  0  0  0  0  0  0  0  0  0  0
   -4.6000   23.9660  -29.5310 C   0  0  0  0  0  0  0  0  0  0  0  0
   -3.4000   23.1390  -29.7810 N   0  0  0  0  0  0  0  0  0  0  0  0
   -3.4970   21.8450  -29.0810 C   0  0  0  0  0  0  0  0  0  0  0  0
   -2.1830   23.8410  -29.3440 C   0  0  0  0  0  0  0  0  0  0  0  0
   -6.6740   21.3960  -32.1550 C   0  0  0  0  0  0  0  0  0  0  0  0
   -0.3344   20.8846  -28.9776 H   0  0  0  0  0  0  0  0  0  0  0  0
   -1.2690   19.6997  -29.9519 H   0  0  0  0  0  0  0  0  0  0  0  0
    0.5265   19.6451  -29.9519 H   0  0  0  0  0  0  0  0  0  0  0  0
    0.1684   22.1980  -30.8032 H   0  0  0  0  0  0  0  0  0  0  0  0
    0.2346   20.7929  -31.9262 H   0  0  0  0  0  0  0  0  0  0  0  0
   -1.9210   22.5230  -31.2410 H   0  0  0  0  0  0  0  0  0  0  0  0
   -1.3955   22.4459  -33.4210 H   0  0  0  0  0  0  0  0  0  0  0  0
   -1.2586   20.6350  -33.3736 H   0  0  0  0  0  0  0  0  0  0  0  0
   -3.5242   22.2428  -34.0982 H   0  0  0  0  0  0  0  0  0  0  0  0
   -3.3616   20.4375  -34.0316 H   0  0  0  0  0  0  0  0  0  0  0  0
   -3.9770   21.8890  -31.4810 H   0  0  0  0  0  0  0  0  0  0  0  0
   -3.4710   19.2219  -33.4662 H   0  0  0  0  0  0  0  0  0  0  0  0
   -3.6073   16.8503  -34.1921 H   0  0  0  0  0  0  0  0  0  0  0  0
   -5.7686   15.6246  -34.0539 H   0  0  0  0  0  0  0  0  0  0  0  0
   -7.7991   16.7650  -33.1888 H   0  0  0  0  0  0  0  0  0  0  0  0
   -9.1902   18.4687  -30.8231 H   0  0  0  0  0  0  0  0  0  0  0  0
  -10.0064   19.0102  -32.3288 H   0  0  0  0  0  0  0  0  0  0  0  0
   -9.0301   17.5024  -32.3288 H   0  0  0  0  0  0  0  0  0  0  0  0
  -10.0720   20.8525  -32.0582 H   0  0  0  0  0  0  0  0  0  0  0  0
  -10.0706   23.3122  -31.7895 H   0  0  0  0  0  0  0  0  0  0  0  0
   -7.9373   24.5605  -31.6643 H   0  0  0  0  0  0  0  0  0  0  0  0
   -4.4312   25.2223  -31.2819 H   0  0  0  0  0  0  0  0  0  0  0  0
   -6.1043   25.0737  -30.5990 H   0  0  0  0  0  0  0  0  0  0  0  0
   -4.3283   24.7973  -28.8638 H   0  0  0  0  0  0  0  0  0  0  0  0
   -5.3683   23.3280  -29.0698 H   0  0  0  0  0  0  0  0  0  0  0  0
   -3.4843   22.0142  -27.9942 H   0  0  0  0  0  0  0  0  0  0  0  0
   -4.4352   21.3448  -29.3633 H   0  0  0  0  0  0  0  0  0  0  0  0
   -2.6439   21.2106  -29.3633 H   0  0  0  0  0  0  0  0  0  0  0  0
   -2.1465   23.8620  -28.2448 H   0  0  0  0  0  0  0  0  0  0  0  0
   -1.2975   23.3149  -29.7302 H   0  0  0  0  0  0  0  0  0  0  0  0
   -2.1951   24.8709  -29.7302 H   0  0  0  0  0  0  0  0  0  0  0  0
  1  2  1  0
  2  3  1  0
  3  4  1  0
  4  5  1  0
  5  6  1  0
  6  7  1  0
  7  8  2  0
  8  9  1  0
  9 10  2  0
 10 11  1  0
 11 12  2  0
 12 13  1  0
 13 14  2  0
 14 15  1  0
 14 16  1  0
 16 17  2  0
 17 18  1  0
 18 19  2  0
 19 20  1  0
 20 21  1  0
 21 22  1  0
 22 23  1  0
 23 24  1  0
 24 25  1  0
 24 26  1  0
 20 27  2  0
 27  7  1  0
 13  8  1  0
 27 16  1  0
  1 28  1  0
  1 29  1  0
  1 30  1  0
  2 31  1  0
  2 32  1  0
  3 33  1  0
  4 34  1  0
  4 35  1  0
  5 36  1  0
  5 37  1  0
  6 38  1  0
  9 39  1  0
 10 40  1  0
 11 41  1  0
 12 42  1  0
 15 43  1  0
 15 44  1  0
 15 45  1  0
 17 46  1  0
 18 47  1  0
 19 48  1  0
 22 49  1  0
 22 50  1  0
 23 51  1  0
 23 52  1  0
 25 53  1  0
 25 54  1  0
 25 55  1  0
 26 56  1  0
 26 57  1  0
 26 58  1  0
M  CHG  1  14   1
M  END
>  <UniqueID>  (2) 
2

>  <SMILES>  (2) 
CCNCCNc1c2ccccc2[n+](C)c2cccc(OCCN(C)C)c12

>  <Energy>  (2) 
81.27733172253522

>  <Genealogy>  (2) 
CCNCCNc1c2ccccc2[n+](C)c2cccc(OCCN(C)C)c12 (3D coordinates assigned)
CCNCCNc1c2ccccc2[n+](C)c2cccc(OCCN(C)C)c12 (optimized conformer: 81.27733172253522 kcal/mol)

>  <smiles>  (2) 
CCNCCNc1c2ccccc2[n+](C)c2cccc(OCCN(C)C)c12

>  <score_type>  (2) 
oracle

>  <origin>  (2) 
adg

>  <m_score__min__energy>  (2) 
-7.0300000000000002

>  <m_primary>  (2) 
energy

$$$$
2:0
     RDKit          3D

 28 29  0  0  0  0  0  0  0  0999 V2000
   -6.4940   25.2920  -29.7180 C   0  0  0  0  0  0  0  0  0  0  0  0
   -5.0370   24.8760  -29.8910 C   0  0  0  0  0  0  0  0  0  0  0  0
   -4.8130   24.4030  -31.2080 O   0  0  0  0  0  0  0  0  0  0  0  0
   -4.2910   23.0870  -31.2020 C   0  0  0  0  0  0  0  0  0  0  0  0
   -4.8560   22.2890  -32.3780 C   0  0  0  0  0  0  0  0  0  0  0  0
   -6.3100   22.1960  -32.2700 N   0  0  0  0  0  0  0  0  0  0  0  0
   -7.1280   23.2250  -32.0730 N   0  0  0  0  0  0  0  0  0  0  0  0
   -8.3940   22.8350  -31.9380 N   0  0  0  0  0  0  0  0  0  0  0  0
   -8.3630   21.4940  -32.0510 C   0  0  0  0  0  0  0  0  0  0  0  0
   -9.4150   20.5870  -31.9660 C   0  0  0  0  0  0  0  0  0  0  0  0
   -9.1030   19.2190  -32.0930 C   0  0  0  0  0  0  0  0  0  0  0  0
   -7.7640   18.8020  -32.2930 C   0  0  0  0  0  0  0  0  0  0  0  0
   -6.7240   19.7480  -32.3720 C   0  0  0  0  0  0  0  0  0  0  0  0
   -7.0750   21.0920  -32.2490 C   0  0  0  0  0  0  0  0  0  0  0  0
   -6.7312   25.3597  -28.6460 H   0  0  0  0  0  0  0  0  0  0  0  0
   -6.6543   26.2718  -30.1916 H   0  0  0  0  0  0  0  0  0  0  0  0
   -7.1474   24.5445  -30.1916 H   0  0  0  0  0  0  0  0  0  0  0  0
   -4.3872   25.7431  -29.7016 H   0  0  0  0  0  0  0  0  0  0  0  0
   -4.8081   24.0703  -29.1780 H   0  0  0  0  0  0  0  0  0  0  0  0
   -3.1950   23.1305  -31.2856 H   0  0  0  0  0  0  0  0  0  0  0  0
   -4.5767   22.5919  -30.2622 H   0  0  0  0  0  0  0  0  0  0  0  0
   -4.5927   22.7931  -33.3196 H   0  0  0  0  0  0  0  0  0  0  0  0
   -4.4286   21.2755  -32.3635 H   0  0  0  0  0  0  0  0  0  0  0  0
   -6.8200   24.2210  -32.0160 H   0  0  0  0  0  0  0  0  0  0  0  0
  -10.4495   20.9249  -31.8059 H   0  0  0  0  0  0  0  0  0  0  0  0
   -9.9055   18.4688  -32.0364 H   0  0  0  0  0  0  0  0  0  0  0  0
   -7.5348   17.7303  -32.3874 H   0  0  0  0  0  0  0  0  0  0  0  0
   -5.6791   19.4399  -32.5243 H   0  0  0  0  0  0  0  0  0  0  0  0
  1  2  1  0
  2  3  1  0
  3  4  1  0
  4  5  1  0
  5  6  1  0
  6  7  1  0
  7  8  2  0
  8  9  1  0
  9 10  2  0
 10 11  1  0
 11 12  2  0
 12 13  1  0
 13 14  2  0
 14  6  1  0
 14  9  1  0
  1 15  1  0
  1 16  1  0
  1 17  1  0
  2 18  1  0
  2 19  1  0
  4 20  1  0
  4 21  1  0
  5 22  1  0
  5 23  1  0
  7 24  1  0
 10 25  1  0
 11 26  1  0
 12 27  1  0
 13 28  1  0
M  CHG  1   7   1
M  END
>  <UniqueID>  (3) 
3

>  <SMILES>  (3) 
CCOCCn1[nH+]nc2ccccc21

>  <Energy>  (3) 
70.18630470864888

>  <Genealogy>  (3) 
CCOCCn1[nH+]nc2ccccc21 (protonated)
CCOCCn1[nH+]nc2ccccc21 (3D coordinates assigned)
CCOCCn1[nH+]nc2ccccc21 (optimized conformer: 70.18630470864888 kcal/mol)

>  <smiles>  (3) 
CCOCCn1nnc2ccccc21

>  <score_type>  (3) 
oracle

>  <origin>  (3) 
adg

>  <m_score__min__energy>  (3) 
-5.71

>  <m_primary>  (3) 
energy

$$$$
3:0
     RDKit          3D

108114  0  0  0  0  0  0  0  0999 V2000
    0.8330   16.9970  -27.9490 C   0  0  0  0  0  0  0  0  0  0  0  0
    0.0850   18.1330  -28.5110 N   0  0  0  0  0  0  0  0  0  0  0  0
   -0.9890   18.5720  -27.6050 C   0  0  0  0  0  0  0  0  0  0  0  0
    0.9570   19.2470  -28.9440 C   0  0  0  0  0  0  0  0  0  0  0  0
    1.2630   19.2640  -30.4620 C   0  0  0  0  0  0  0  0  0  0  0  0
    1.2000   17.9050  -31.0230 N   0  0  0  0  0  0  0  0  0  0  0  0
    1.0130   17.9590  -32.4660 C   0  0  0  0  0  0  0  0  0  0  0  0
    1.9890   18.5680  -33.3000 C   0  0  0  0  0  0  0  0  0  0  0  0
    3.2220   19.0450  -32.7840 C   0  0  0  0  0  0  0  0  0  0  0  0
    4.1240   19.7290  -33.5960 C   0  0  0  0  0  0  0  0  0  0  0  0
    3.8280   19.9500  -34.9330 C   0  0  0  0  0  0  0  0  0  0  0  0
    2.6540   19.4460  -35.4790 C   0  0  0  0  0  0  0  0  0  0  0  0
    1.7390   18.6930  -34.6960 C   0  0  0  0  0  0  0  0  0  0  0  0
    0.6340   18.0930  -35.2650 N   0  0  0  0  0  0  0  0  0  0  0  0
    0.5500   17.9510  -36.7370 C   0  0  0  0  0  0  0  0  0  0  0  0
   -0.3630   17.5690  -34.4650 C   0  0  0  0  0  0  0  0  0  0  0  0
   -1.6110   17.1690  -35.0120 C   0  0  0  0  0  0  0  0  0  0  0  0
   -2.5780   16.5130  -34.2430 C   0  0  0  0  0  0  0  0  0  0  0  0
   -3.7900   16.0580  -34.8770 N   0  0  0  0  0  0  0  0  0  0  0  0
   -5.0290   16.8350  -34.9570 C   0  0  0  0  0  0  0  0  0  0  0  0
   -5.3050   17.6130  -33.6560 C   0  0  0  0  0  0  0  0  0  0  0  0
   -6.1200   18.7590  -33.8500 O   0  0  0  0  0  0  0  0  0  0  0  0
   -6.9430   19.0210  -32.7250 C   0  0  0  0  0  0  0  0  0  0  0  0
   -7.1460   20.5290  -32.5010 C   0  0  0  0  0  0  0  0  0  0  0  0
   -8.5050   20.9430  -32.5300 O   0  0  0  0  0  0  0  0  0  0  0  0
   -8.7710   22.0410  -31.6710 C   0  0  0  0  0  0  0  0  0  0  0  0
   -8.5340   23.4070  -32.3390 C   0  0  0  0  0  0  0  0  0  0  0  0
   -7.1000   23.6700  -32.4840 N   0  0  0  0  0  0  0  0  0  0  0  0
   -6.2180   23.8780  -31.3650 C   0  0  0  0  0  0  0  0  0  0  0  0
   -6.4940   24.8330  -30.3800 C   0  0  0  0  0  0  0  0  0  0  0  0
   -5.6630   24.9660  -29.2690 C   0  0  0  0  0  0  0  0  0  0  0  0
   -4.5320   24.1330  -29.0940 C   0  0  0  0  0  0  0  0  0  0  0  0
   -4.1990   23.2340  -30.1390 C   0  0  0  0  0  0  0  0  0  0  0  0
   -5.0570   23.1060  -31.2530 C   0  0  0  0  0  0  0  0  0  0  0  0
   -3.0150   22.4840  -30.0550 C   0  0  0  0  0  0  0  0  0  0  0  0
   -2.6470   21.5870  -31.1170 N   0  0  0  0  0  0  0  0  0  0  0  0
   -1.3610   21.7650  -31.8030 C   0  0  0  0  0  0  0  0  0  0  0  0
   -1.5070   21.5320  -33.3160 C   0  0  0  0  0  0  0  0  0  0  0  0
   -2.4850   20.3910  -33.6840 C   0  0  0  0  0  0  0  0  0  0  0  0
   -2.8880   19.5350  -32.4800 C   0  0  0  0  0  0  0  0  0  0  0  0
   -3.4960   20.4200  -31.3890 C   0  0  0  0  0  0  0  0  0  0  0  0
   -2.1550   22.6640  -28.9590 C   0  0  0  0  0  0  0  0  0  0  0  0
   -0.9280   21.9710  -28.8840 C   0  0  0  0  0  0  0  0  0  0  0  0
   -0.0590   22.1790  -27.8150 C   0  0  0  0  0  0  0  0  0  0  0  0
   -0.3880   23.0910  -26.8190 C   0  0  0  0  0  0  0  0  0  0  0  0
   -1.6030   23.7730  -26.8640 C   0  0  0  0  0  0  0  0  0  0  0  0
   -2.5300   23.5490  -27.9140 C   0  0  0  0  0  0  0  0  0  0  0  0
   -3.7580   24.1850  -27.9480 N   0  0  0  0  0  0  0  0  0  0  0  0
   -4.2560   24.8970  -26.7490 C   0  0  0  0  0  0  0  0  0  0  0  0
   -2.3280   16.2950  -32.8870 C   0  0  0  0  0  0  0  0  0  0  0  0
   -1.1450   16.7410  -32.3060 C   0  0  0  0  0  0  0  0  0  0  0  0
   -0.1620   17.4250  -33.0660 C   0  0  0  0  0  0  0  0  0  0  0  0
    0.8016   17.0447  -26.8505 H   0  0  0  0  0  0  0  0  0  0  0  0
    0.3781   16.0547  -28.2882 H   0  0  0  0  0  0  0  0  0  0  0  0
    1.8784   17.0425  -28.2882 H   0  0  0  0  0  0  0  0  0  0  0  0
   -0.6657   18.4398  -26.5619 H   0  0  0  0  0  0  0  0  0  0  0  0
   -1.2121   19.6335  -27.7880 H   0  0  0  0  0  0  0  0  0  0  0  0
   -1.8918   17.9707  -27.7880 H   0  0  0  0  0  0  0  0  0  0  0  0
    0.4622   20.1938  -28.6817 H   0  0  0  0  0  0  0  0  0  0  0  0
    1.9200   19.1112  -28.4301 H   0  0  0  0  0  0  0  0  0  0  0  0
    0.5237   19.8992  -30.9718 H   0  0  0  0  0  0  0  0  0  0  0  0
    2.2777   19.6610  -30.6127 H   0  0  0  0  0  0  0  0  0  0  0  0
    0.4430   17.3530  -30.5630 H   0  0  0  0  0  0  0  0  0  0  0  0
    2.0560   17.3660  -30.7760 H   0  0  0  0  0  0  0  0  0  0  0  0
    3.4694   18.8719  -31.7262 H   0  0  0  0  0  0  0  0  0  0  0  0
    5.0727   20.0945  -33.1761 H   0  0  0  0  0  0  0  0  0  0  0  0
    4.5236   20.5250  -35.5618 H   0  0  0  0  0  0  0  0  0  0  0  0
    2.4286   19.6340  -36.5391 H   0  0  0  0  0  0  0  0  0  0  0  0
    0.0045   17.0288  -36.9859 H   0  0  0  0  0  0  0  0  0  0  0  0
    0.0186   18.8167  -37.1591 H   0  0  0  0  0  0  0  0  0  0  0  0
    1.5646   17.9021  -37.1591 H   0  0  0  0  0  0  0  0  0  0  0  0
   -1.8233   17.3810  -36.0703 H   0  0  0  0  0  0  0  0  0  0  0  0
   -3.8460   15.0560  -35.1740 H   0  0  0  0  0  0  0  0  0  0  0  0
   -4.9469   17.5505  -35.7885 H   0  0  0  0  0  0  0  0  0  0  0  0
   -5.8611   16.1337  -35.1176 H   0  0  0  0  0  0  0  0  0  0  0  0
   -5.8108   16.9405  -32.9475 H   0  0  0  0  0  0  0  0  0  0  0  0
   -4.3350   17.9636  -33.2736 H   0  0  0  0  0  0  0  0  0  0  0  0
   -7.9242   18.5501  -32.8849 H   0  0  0  0  0  0  0  0  0  0  0  0
   -6.4451   18.6084  -31.8352 H   0  0  0  0  0  0  0  0  0  0  0  0
   -6.7259   20.7918  -31.5189 H   0  0  0  0  0  0  0  0  0  0  0  0
   -6.6404   21.0435  -33.3314 H   0  0  0  0  0  0  0  0  0  0  0  0
   -9.8217   21.9868  -31.3500 H   0  0  0  0  0  0  0  0  0  0  0  0
   -8.0745   21.9676  -30.8228 H   0  0  0  0  0  0  0  0  0  0  0  0
   -9.0040   23.4091  -33.3335 H   0  0  0  0  0  0  0  0  0  0  0  0
   -8.9756   24.1915  -31.7069 H   0  0  0  0  0  0  0  0  0  0  0  0
   -6.6720   23.5970  -33.4340 H   0  0  0  0  0  0  0  0  0  0  0  0
   -7.3744   25.4843  -30.4835 H   0  0  0  0  0  0  0  0  0  0  0  0
   -5.8904   25.7328  -28.5138 H   0  0  0  0  0  0  0  0  0  0  0  0
   -4.8080   22.3864  -32.0469 H   0  0  0  0  0  0  0  0  0  0  0  0
   -0.9997   22.7895  -31.6300 H   0  0  0  0  0  0  0  0  0  0  0  0
   -0.6456   21.0315  -31.4027 H   0  0  0  0  0  0  0  0  0  0  0  0
   -1.8717   22.4623  -33.7759 H   0  0  0  0  0  0  0  0  0  0  0  0
   -0.5159   21.2356  -33.6901 H   0  0  0  0  0  0  0  0  0  0  0  0
   -3.3932   20.8345  -34.1182 H   0  0  0  0  0  0  0  0  0  0  0  0
   -1.9677   19.7322  -34.3970 H   0  0  0  0  0  0  0  0  0  0  0  0
   -3.6290   18.7864  -32.7969 H   0  0  0  0  0  0  0  0  0  0  0  0
   -1.9958   19.0306  -32.0805 H   0  0  0  0  0  0  0  0  0  0  0  0
   -4.4867   20.7661  -31.7186 H   0  0  0  0  0  0  0  0  0  0  0  0
   -3.5793   19.8273  -30.4661 H   0  0  0  0  0  0  0  0  0  0  0  0
   -0.6550   21.2596  -29.6773 H   0  0  0  0  0  0  0  0  0  0  0  0
    0.8876   21.6214  -27.7592 H   0  0  0  0  0  0  0  0  0  0  0  0
    0.3133   23.2754  -25.9918 H   0  0  0  0  0  0  0  0  0  0  0  0
   -1.8468   24.4967  -26.0723 H   0  0  0  0  0  0  0  0  0  0  0  0
   -3.8980   24.3852  -25.8435 H   0  0  0  0  0  0  0  0  0  0  0  0
   -3.8840   25.9322  -26.7564 H   0  0  0  0  0  0  0  0  0  0  0  0
   -5.3560   24.9026  -26.7564 H   0  0  0  0  0  0  0  0  0  0  0  0
   -3.0721   15.7665  -32.2730 H   0  0  0  0  0  0  0  0  0  0  0  0
   -0.9685   16.5594  -31.2355 H   0  0  0  0  0  0  0  0  0  0  0  0
  1  2  1  0
  2  3  1  0
  2  4  1  0
  4  5  1  0
  5  6  1  0
  6  7  1  0
  7  8  2  0
  8  9  1  0
  9 10  2  0
 10 11  1  0
 11 12  2  0
 12 13  1  0
 13 14  2  0
 14 15  1  0
 14 16  1  0
 16 17  2  0
 17 18  1  0
 18 19  1  0
 19 20  1  0
 20 21  1  0
 21 22  1  0
 22 23  1  0
 23 24  1  0
 24 25  1  0
 25 26  1  0
 26 27  1  0
 27 28  1  0
 28 29  1  0
 29 30  2  0
 30 31  1  0
 31 32  2  0
 32 33  1  0
 33 34  2  0
 33 35  1  0
 35 36  1  0
 36 37  1  0
 37 38  1  0
 38 39  1  0
 39 40  1  0
 40 41  1  0
 35 42  2  0
 42 43  1  0
 43 44  2  0
 44 45  1  0
 45 46  2  0
 46 47  1  0
 47 48  2  0
 48 49  1  0
 18 50  2  0
 50 51  1  0
 51 52  2  0
 52  7  1  0
 13  8  1  0
 52 16  1  0
 34 29  1  0
 41 36  1  0
 47 42  1  0
 48 32  1  0
  1 53  1  0
  1 54  1  0
  1 55  1  0
  3 56  1  0
  3 57  1  0
  3 58  1  0
  4 59  1  0
  4 60  1  0
  5 61  1  0
  5 62  1  0
  6 63  1  0
  6 64  1  0
  9 65  1  0
 10 66  1  0
 11 67  1  0
 12 68  1  0
 15 69  1  0
 15 70  1  0
 15 71  1  0
 17 72  1  0
 19 73  1  0
 20 74  1  0
 20 75  1  0
 21 76  1  0
 21 77  1  0
 23 78  1  0
 23 79  1  0
 24 80  1  0
 24 81  1  0
 26 82  1  0
 26 83  1  0
 27 84  1  0
 27 85  1  0
 28 86  1  0
 30 87  1  0
 31 88  1  0
 34 89  1  0
 37 90  1  0
 37 91  1  0
 38 92  1  0
 38 93  1  0
 39 94  1  0
 39 95  1  0
 40 96  1  0
 40 97  1  0
 41 98  1  0
 41 99  1  0
 43100  1  0
 44101  1  0
 45102  1  0
 46103  1  0
 49104  1  0
 49105  1  0
 49106  1  0
 50107  1  0
 51108  1  0
M  CHG  3   6   1  14   1  48   1
M  END
>  <UniqueID>  (4) 
4

>  <SMILES>  (4) 
CN(C)CC[NH2+]c1c2ccccc2[n+](C)c2cc(NCCOCCOCCNc3ccc4c(c3)c(N3CCCCC3)c3ccccc3[n+]4C)ccc12

>  <Energy>  (4) 
180.21410717827186

>  <Genealogy>  (4) 
CN(C)CC[NH2+]c1c2ccccc2[n+](C)c2cc(NCCOCCOCCNc3ccc4c(c3)c(N3CCCCC3)c3ccccc3[n+]4C)ccc12 (protonated)
CN(C)CC[NH2+]c1c2ccccc2[n+](C)c2cc(NCCOCCOCCNc3ccc4c(c3)c(N3CCCCC3)c3ccccc3[n+]4C)ccc12 (3D coordinates assigned)
CN(C)CC[NH2+]c1c2ccccc2[n+](C)c2cc(NCCOCCOCCNc3ccc4c(c3)c(N3CCCCC3)c3ccccc3[n+]4C)ccc12 (nonaromatic ring conformer: 180.21410717827186 kcal/mol)

>  <smiles>  (4) 
CN(C)CCNc1c2ccccc2[n+](C)c2cc(NCCOCCOCCNc3ccc4c(c3)c(N3CCCCC3)c3ccccc3[n+]4C)ccc12

>  <score_type>  (4) 
oracle

>  <origin>  (4) 
adg

>  <m_score__min__energy>  (4) 
-9.6999999999999993

>  <m_primary>  (4) 
energy

$$$$
4:0
     RDKit          3D

 59 61  0  0  0  0  0  0  0  0999 V2000
   -1.0550   26.0420  -27.2390 C   0  0  0  0  0  0  0  0  0  0  0  0
   -1.3060   25.2890  -28.5430 C   0  0  0  0  0  0  0  0  0  0  0  0
   -2.1150   24.0730  -28.3040 N   0  0  0  0  0  0  0  0  0  0  0  0
   -3.5850   24.2420  -28.1920 C   0  0  0  0  0  0  0  0  0  0  0  0
   -4.0960   24.4980  -26.7700 C   0  0  0  0  0  0  0  0  0  0  0  0
   -1.6690   22.8800  -29.0550 C   0  0  0  0  0  0  0  0  0  0  0  0
   -2.7780   22.1820  -29.8580 C   0  0  0  0  0  0  0  0  0  0  0  0
   -2.4260   22.1400  -31.2280 O   0  0  0  0  0  0  0  0  0  0  0  0
   -1.8630   20.8870  -31.5810 C   0  0  0  0  0  0  0  0  0  0  0  0
   -2.5230   20.2980  -32.8430 C   0  0  0  0  0  0  0  0  0  0  0  0
   -3.5000   21.2270  -33.4330 N   0  0  0  0  0  0  0  0  0  0  0  0
   -4.8520   20.8910  -33.0090 C   0  0  0  0  0  0  0  0  0  0  0  0
   -5.4320   19.6440  -33.3680 C   0  0  0  0  0  0  0  0  0  0  0  0
   -4.7850   18.7500  -34.2560 C   0  0  0  0  0  0  0  0  0  0  0  0
   -5.3100   17.4890  -34.5220 C   0  0  0  0  0  0  0  0  0  0  0  0
   -6.4840   17.0820  -33.9070 C   0  0  0  0  0  0  0  0  0  0  0  0
   -7.1690   17.9540  -33.0660 C   0  0  0  0  0  0  0  0  0  0  0  0
   -6.6930   19.2710  -32.8240 C   0  0  0  0  0  0  0  0  0  0  0  0
   -7.4220   20.1700  -32.0720 N   0  0  0  0  0  0  0  0  0  0  0  0
   -8.8450   19.8910  -31.7650 C   0  0  0  0  0  0  0  0  0  0  0  0
   -6.8480   21.3550  -31.6540 C   0  0  0  0  0  0  0  0  0  0  0  0
   -7.4850   22.1810  -30.6950 C   0  0  0  0  0  0  0  0  0  0  0  0
   -6.9650   23.4230  -30.3460 C   0  0  0  0  0  0  0  0  0  0  0  0
   -5.7880   23.8890  -30.9320 C   0  0  0  0  0  0  0  0  0  0  0  0
   -5.2790   25.1960  -30.6000 N   0  0  0  0  0  0  0  0  0  0  0  0
   -6.0270   26.0700  -30.1150 O   0  0  0  0  0  0  0  0  0  0  0  0
   -3.9520   25.5020  -30.8040 O   0  0  0  0  0  0  0  0  0  0  0  0
   -5.1060   23.0610  -31.8350 C   0  0  0  0  0  0  0  0  0  0  0  0
   -5.5900   21.7690  -32.1700 C   0  0  0  0  0  0  0  0  0  0  0  0
   -1.2749   25.3824  -26.3866 H   0  0  0  0  0  0  0  0  0  0  0  0
   -0.0026   26.3591  -27.1954 H   0  0  0  0  0  0  0  0  0  0  0  0
   -1.7067   26.9271  -27.1954 H   0  0  0  0  0  0  0  0  0  0  0  0
   -1.8434   25.9475  -29.2413 H   0  0  0  0  0  0  0  0  0  0  0  0
   -0.3366   24.9882  -28.9670 H   0  0  0  0  0  0  0  0  0  0  0  0
   -3.8802   25.0951  -28.8205 H   0  0  0  0  0  0  0  0  0  0  0  0
   -4.0316   23.2900  -28.5148 H   0  0  0  0  0  0  0  0  0  0  0  0
   -3.3579   24.1282  -26.0430 H   0  0  0  0  0  0  0  0  0  0  0  0
   -4.2461   25.5778  -26.6232 H   0  0  0  0  0  0  0  0  0  0  0  0
   -5.0507   23.9717  -26.6232 H   0  0  0  0  0  0  0  0  0  0  0  0
   -0.8803   23.1903  -29.7562 H   0  0  0  0  0  0  0  0  0  0  0  0
   -1.3182   22.1528  -28.3080 H   0  0  0  0  0  0  0  0  0  0  0  0
   -2.9092   21.1561  -29.4834 H   0  0  0  0  0  0  0  0  0  0  0  0
   -3.7172   22.7428  -29.7421 H   0  0  0  0  0  0  0  0  0  0  0  0
   -0.7878   21.0206  -31.7709 H   0  0  0  0  0  0  0  0  0  0  0  0
   -2.0337   20.1888  -30.7484 H   0  0  0  0  0  0  0  0  0  0  0  0
   -1.7413   20.0838  -33.5867 H   0  0  0  0  0  0  0  0  0  0  0  0
   -3.0556   19.3801  -32.5536 H   0  0  0  0  0  0  0  0  0  0  0  0
   -3.4230   21.2230  -34.4750 H   0  0  0  0  0  0  0  0  0  0  0  0
   -3.2670   22.2140  -33.1940 H   0  0  0  0  0  0  0  0  0  0  0  0
   -3.8492   19.0586  -34.7449 H   0  0  0  0  0  0  0  0  0  0  0  0
   -4.7932   16.8147  -35.2207 H   0  0  0  0  0  0  0  0  0  0  0  0
   -6.8744   16.0689  -34.0839 H   0  0  0  0  0  0  0  0  0  0  0  0
   -8.0964   17.6175  -32.5794 H   0  0  0  0  0  0  0  0  0  0  0  0
   -8.9862   19.8633  -30.6745 H   0  0  0  0  0  0  0  0  0  0  0  0
   -9.4752   20.6827  -32.1964 H   0  0  0  0  0  0  0  0  0  0  0  0
   -9.1296   18.9200  -32.1964 H   0  0  0  0  0  0  0  0  0  0  0  0
   -8.4116   21.8322  -30.2157 H   0  0  0  0  0  0  0  0  0  0  0  0
   -7.4863   24.0429  -29.6017 H   0  0  0  0  0  0  0  0  0  0  0  0
   -4.1738   23.4210  -32.2948 H   0  0  0  0  0  0  0  0  0  0  0  0
  1  2  1  0
  2  3  1  0
  3  4  1  0
  4  5  1  0
  3  6  1  0
  6  7  1  0
  7  8  1  0
  8  9  1  0
  9 10  1  0
 10 11  1  0
 11 12  1  0
 12 13  2  0
 13 14  1  0
 14 15  2  0
 15 16  1  0
 16 17  2  0
 17 18  1  0
 18 19  2  0
 19 20  1  0
 19 21  1  0
 21 22  2  0
 22 23  1  0
 23 24  2  0
 24 25  1  0
 25 26  2  0
 25 27  1  0
 24 28  1  0
 28 29  2  0
 29 12  1  0
 18 13  1  0
 29 21  1  0
  1 30  1  0
  1 31  1  0
  1 32  1  0
  2 33  1  0
  2 34  1  0
  4 35  1  0
  4 36  1  0
  5 37  1  0
  5 38  1  0
  5 39  1  0
  6 40  1  0
  6 41  1  0
  7 42  1  0
  7 43  1  0
  9 44  1  0
  9 45  1  0
 10 46  1  0
 10 47  1  0
 11 48  1  0
 11 49  1  0
 14 50  1  0
 15 51  1  0
 16 52  1  0
 17 53  1  0
 20 54  1  0
 20 55  1  0
 20 56  1  0
 22 57  1  0
 23 58  1  0
 28 59  1  0
M  CHG  4  11   1  19   1  25   1  27  -1
M  END
>  <UniqueID>  (5) 
5

>  <SMILES>  (5) 
CCN(CC)CCOCC[NH2+]c1c2ccccc2[n+](C)c2ccc([N+](=O)[O-])cc12

>  <Energy>  (5) 
97.40775313529586

>  <Genealogy>  (5) 
CCN(CC)CCOCC[NH2+]c1c2ccccc2[n+](C)c2ccc([N+](=O)[O-])cc12 (protonated)
CCN(CC)CCOCC[NH2+]c1c2ccccc2[n+](C)c2ccc([N+](=O)[O-])cc12 (3D coordinates assigned)
CCN(CC)CCOCC[NH2+]c1c2ccccc2[n+](C)c2ccc([N+](=O)[O-])cc12 (optimized conformer: 97.40775313529586 kcal/mol)

>  <smiles>  (5) 
CCN(CC)CCOCCNc1c2ccccc2[n+](C)c2ccc([N+](=O)[O-])cc12

>  <score_type>  (5) 
oracle

>  <origin>  (5) 
adg

>  <m_score__min__energy>  (5) 
-8.5700000000000003

>  <m_primary>  (5) 
energy

$$$$
5:0
     RDKit          3D

 60 62  0  0  0  0  0  0  0  0999 V2000
   -9.4930   20.8120  -32.0570 C   0  0  0  0  0  0  0  0  0  0  0  0
   -9.2700   22.1780  -31.7230 O   0  0  0  0  0  0  0  0  0  0  0  0
   -8.0230   22.7150  -31.3650 C   0  0  0  0  0  0  0  0  0  0  0  0
   -7.5080   22.6200  -30.0600 C   0  0  0  0  0  0  0  0  0  0  0  0
   -6.2630   23.1810  -29.7500 C   0  0  0  0  0  0  0  0  0  0  0  0
   -5.5110   23.8360  -30.7400 C   0  0  0  0  0  0  0  0  0  0  0  0
   -4.2570   24.4150  -30.4870 O   0  0  0  0  0  0  0  0  0  0  0  0
   -3.0420   23.7020  -30.2520 C   0  0  0  0  0  0  0  0  0  0  0  0
   -2.7970   22.6530  -31.3360 C   0  0  0  0  0  0  0  0  0  0  0  0
   -1.6810   21.3400  -30.7150 S   0  0  0  0  0  0  0  0  0  0  0  0
   -2.0680   20.1790  -32.0270 C   0  0  0  0  0  0  0  0  0  0  0  0
   -2.9880   20.4200  -32.9820 N   0  0  0  0  0  0  0  0  0  0  0  0
   -3.0010   19.3490  -33.7590 N   0  0  0  0  0  0  0  0  0  0  0  0
   -2.0980   18.4730  -33.2820 C   0  0  0  0  0  0  0  0  0  0  0  0
   -1.8340   17.1260  -33.8980 C   0  0  0  0  0  0  0  0  0  0  0  0
   -2.5670   16.9760  -35.1630 N   0  0  0  0  0  0  0  0  0  0  0  0
   -3.9030   16.3770  -34.9970 C   0  0  0  0  0  0  0  0  0  0  0  0
   -5.0460   17.4050  -35.1940 C   0  0  0  0  0  0  0  0  0  0  0  0
   -5.3970   18.1610  -33.9710 N   0  0  0  0  0  0  0  0  0  0  0  0
   -6.1760   19.3860  -34.2250 C   0  0  0  0  0  0  0  0  0  0  0  0
   -6.1340   20.3070  -32.9930 C   0  0  0  0  0  0  0  0  0  0  0  0
   -5.9030   19.5340  -31.6840 C   0  0  0  0  0  0  0  0  0  0  0  0
   -6.5500   18.1470  -31.7400 C   0  0  0  0  0  0  0  0  0  0  0  0
   -6.0020   17.3120  -32.9190 C   0  0  0  0  0  0  0  0  0  0  0  0
   -1.5010   18.9620  -32.1750 N   0  0  0  0  0  0  0  0  0  0  0  0
   -0.4250   18.3670  -31.3830 C   0  0  0  0  0  0  0  0  0  0  0  0
   -6.0260   23.9230  -32.0390 C   0  0  0  0  0  0  0  0  0  0  0  0
   -7.2690   23.3660  -32.3490 C   0  0  0  0  0  0  0  0  0  0  0  0
   -9.5896   20.2201  -31.1349 H   0  0  0  0  0  0  0  0  0  0  0  0
  -10.4172   20.7250  -32.6471 H   0  0  0  0  0  0  0  0  0  0  0  0
   -8.6444   20.4356  -32.6471 H   0  0  0  0  0  0  0  0  0  0  0  0
   -8.0855   22.1029  -29.2795 H   0  0  0  0  0  0  0  0  0  0  0  0
   -5.8711   23.1085  -28.7248 H   0  0  0  0  0  0  0  0  0  0  0  0
   -2.2037   24.4142  -30.2461 H   0  0  0  0  0  0  0  0  0  0  0  0
   -3.1220   23.1883  -29.2826 H   0  0  0  0  0  0  0  0  0  0  0  0
   -3.7573   22.2036  -31.6289 H   0  0  0  0  0  0  0  0  0  0  0  0
   -2.3268   23.1397  -32.2032 H   0  0  0  0  0  0  0  0  0  0  0  0
   -3.6170   19.2260  -34.5920 H   0  0  0  0  0  0  0  0  0  0  0  0
   -0.7561   17.0235  -34.0918 H   0  0  0  0  0  0  0  0  0  0  0  0
   -2.1742   16.3471  -33.1998 H   0  0  0  0  0  0  0  0  0  0  0  0
   -1.9980   16.3830  -35.8110 H   0  0  0  0  0  0  0  0  0  0  0  0
   -4.0223   15.5716  -35.7366 H   0  0  0  0  0  0  0  0  0  0  0  0
   -3.9716   15.9959  -33.9674 H   0  0  0  0  0  0  0  0  0  0  0  0
   -4.7349   18.1234  -35.9667 H   0  0  0  0  0  0  0  0  0  0  0  0
   -5.9408   16.8330  -35.4808 H   0  0  0  0  0  0  0  0  0  0  0  0
   -5.7489   19.9156  -35.0894 H   0  0  0  0  0  0  0  0  0  0  0  0
   -7.2207   19.1107  -34.4321 H   0  0  0  0  0  0  0  0  0  0  0  0
   -5.3169   21.0319  -33.1229 H   0  0  0  0  0  0  0  0  0  0  0  0
   -7.1113   20.8062  -32.9169 H   0  0  0  0  0  0  0  0  0  0  0  0
   -4.8212   19.4193  -31.5209 H   0  0  0  0  0  0  0  0  0  0  0  0
   -6.3611   20.0997  -30.8592 H   0  0  0  0  0  0  0  0  0  0  0  0
   -6.3405   17.6169  -30.7992 H   0  0  0  0  0  0  0  0  0  0  0  0
   -7.6327   18.2775  -31.8842 H   0  0  0  0  0  0  0  0  0  0  0  0
   -5.2363   16.6204  -32.5378 H   0  0  0  0  0  0  0  0  0  0  0  0
   -6.8453   16.7668  -33.3680 H   0  0  0  0  0  0  0  0  0  0  0  0
   -0.6467   18.4896  -30.3126 H   0  0  0  0  0  0  0  0  0  0  0  0
   -0.3441   17.2960  -31.6204 H   0  0  0  0  0  0  0  0  0  0  0  0
    0.5251   18.8679  -31.6204 H   0  0  0  0  0  0  0  0  0  0  0  0
   -5.4469   24.4343  -32.8221 H   0  0  0  0  0  0  0  0  0  0  0  0
   -7.6588   23.4395  -33.3750 H   0  0  0  0  0  0  0  0  0  0  0  0
  1  2  1  0
  2  3  1  0
  3  4  2  0
  4  5  1  0
  5  6  2  0
  6  7  1  0
  7  8  1  0
  8  9  1  0
  9 10  1  0
 10 11  1  0
 11 12  2  0
 12 13  1  0
 13 14  2  0
 14 15  1  0
 15 16  1  0
 16 17  1  0
 17 18  1  0
 18 19  1  0
 19 20  1  0
 20 21  1  0
 21 22  1  0
 22 23  1  0
 23 24  1  0
 14 25  1  0
 25 26  1  0
  6 27  1  0
 27 28  2  0
 28  3  1  0
 25 11  1  0
 24 19  1  0
  1 29  1  0
  1 30  1  0
  1 31  1  0
  4 32  1  0
  5 33  1  0
  8 34  1  0
  8 35  1  0
  9 36  1  0
  9 37  1  0
 13 38  1  0
 15 39  1  0
 15 40  1  0
 16 41  1  0
 17 42  1  0
 17 43  1  0
 18 44  1  0
 18 45  1  0
 20 46  1  0
 20 47  1  0
 21 48  1  0
 21 49  1  0
 22 50  1  0
 22 51  1  0
 23 52  1  0
 23 53  1  0
 24 54  1  0
 24 55  1  0
 26 56  1  0
 26 57  1  0
 26 58  1  0
 27 59  1  0
 28 60  1  0
M  CHG  1  13   1
M  END
>  <UniqueID>  (6) 
6

>  <SMILES>  (6) 
COc1ccc(OCCSc2n[nH+]c(CNCCN3CCCCC3)n2C)cc1

>  <Energy>  (6) 
95.80852679572392

>  <Genealogy>  (6) 
COc1ccc(OCCSc2n[nH+]c(CNCCN3CCCCC3)n2C)cc1 (protonated)
COc1ccc(OCCSc2n[nH+]c(CNCCN3CCCCC3)n2C)cc1 (3D coordinates assigned)
COc1ccc(OCCSc2n[nH+]c(CNCCN3CCCCC3)n2C)cc1 (nonaromatic ring conformer: 95.80852679572392 kcal/mol)

>  <smiles>  (6) 
COc1ccc(OCCSc2nnc(CNCCN3CCCCC3)n2C)cc1

>  <score_type>  (6) 
oracle

>  <origin>  (6) 
adg

>  <m_score__min__energy>  (6) 
-7.1299999999999999

>  <m_primary>  (6) 
energy

$$$$
6:0
     RDKit          3D

 34 36  0  0  0  0  0  0  0  0999 V2000
   -5.3520   15.2990  -32.8590 C   0  0  0  0  0  0  0  0  0  0  0  0
   -5.5040   16.6050  -33.4910 N   0  0  0  0  0  0  0  0  0  0  0  0
   -4.9990   16.9850  -34.6890 C   0  0  0  0  0  0  0  0  0  0  0  0
   -5.3530   18.3000  -34.9710 C   0  0  0  0  0  0  0  0  0  0  0  0
   -6.1020   18.7170  -33.8910 C   0  0  0  0  0  0  0  0  0  0  0  0
   -6.7170   19.9390  -33.6370 C   0  0  0  0  0  0  0  0  0  0  0  0
   -7.4390   20.0820  -32.4320 C   0  0  0  0  0  0  0  0  0  0  0  0
   -8.1440   21.3730  -32.1140 C   0  0  0  0  0  0  0  0  0  0  0  0
   -7.2990   22.5170  -32.4640 N   0  0  0  0  0  0  0  0  0  0  0  0
   -6.5530   23.2890  -31.5010 C   0  0  0  0  0  0  0  0  0  0  0  0
   -7.2040   24.2020  -30.6480 C   0  0  0  0  0  0  0  0  0  0  0  0
   -6.4760   24.9490  -29.7180 C   0  0  0  0  0  0  0  0  0  0  0  0
   -5.0930   24.8000  -29.6290 C   0  0  0  0  0  0  0  0  0  0  0  0
   -4.4320   23.9040  -30.4690 C   0  0  0  0  0  0  0  0  0  0  0  0
   -5.1500   23.1480  -31.4050 C   0  0  0  0  0  0  0  0  0  0  0  0
   -4.1730   21.9060  -32.4910 Br  0  0  0  0  0  0  0  0  0  0  0  0
   -7.5110   18.9970  -31.5220 C   0  0  0  0  0  0  0  0  0  0  0  0
   -6.8780   17.7750  -31.8080 C   0  0  0  0  0  0  0  0  0  0  0  0
   -6.1770   17.6690  -33.0110 C   0  0  0  0  0  0  0  0  0  0  0  0
   -5.3657   15.4170  -31.7654 H   0  0  0  0  0  0  0  0  0  0  0  0
   -6.1799   14.6438  -33.1675 H   0  0  0  0  0  0  0  0  0  0  0  0
   -4.3957   14.8514  -33.1675 H   0  0  0  0  0  0  0  0  0  0  0  0
   -4.3939   16.3436  -35.3465 H   0  0  0  0  0  0  0  0  0  0  0  0
   -5.0910   18.8837  -35.8658 H   0  0  0  0  0  0  0  0  0  0  0  0
   -6.6429   20.7697  -34.3542 H   0  0  0  0  0  0  0  0  0  0  0  0
   -9.0806   21.4253  -32.6884 H   0  0  0  0  0  0  0  0  0  0  0  0
   -8.3590   21.4054  -31.0357 H   0  0  0  0  0  0  0  0  0  0  0  0
   -7.1920   22.7260  -33.4820 H   0  0  0  0  0  0  0  0  0  0  0  0
   -8.2947   24.3279  -30.7146 H   0  0  0  0  0  0  0  0  0  0  0  0
   -6.9956   25.6562  -29.0547 H   0  0  0  0  0  0  0  0  0  0  0  0
   -4.5226   25.3893  -28.8960 H   0  0  0  0  0  0  0  0  0  0  0  0
   -3.3403   23.7902  -30.3962 H   0  0  0  0  0  0  0  0  0  0  0  0
   -8.0688   19.1130  -30.5811 H   0  0  0  0  0  0  0  0  0  0  0  0
   -6.9331   16.9294  -31.1067 H   0  0  0  0  0  0  0  0  0  0  0  0
  1  2  1  0
  2  3  1  0
  3  4  2  0
  4  5  1  0
  5  6  2  0
  6  7  1  0
  7  8  1  0
  8  9  1  0
  9 10  1  0
 10 11  2  0
 11 12  1  0
 12 13  2  0
 13 14  1  0
 14 15  2  0
 15 16  1  0
  7 17  2  0
 17 18  1  0
 18 19  2  0
 19  2  1  0
 19  5  1  0
 15 10  1  0
  1 20  1  0
  1 21  1  0
  1 22  1  0
  3 23  1  0
  4 24  1  0
  6 25  1  0
  8 26  1  0
  8 27  1  0
  9 28  1  0
 11 29  1  0
 12 30  1  0
 13 31  1  0
 14 32  1  0
 17 33  1  0
 18 34  1  0
M  END
>  <UniqueID>  (7) 
7

>  <SMILES>  (7) 
Cn1ccc2cc(CNc3ccccc3Br)ccc21

>  <Energy>  (7) 
69.66004130044742

>  <Genealogy>  (7) 
Cn1ccc2cc(CNc3ccccc3Br)ccc21 (3D coordinates assigned)
Cn1ccc2cc(CNc3ccccc3Br)ccc21 (optimized conformer: 69.66004130044742 kcal/mol)

>  <smiles>  (7) 
Cn1ccc2cc(CNc3ccccc3Br)ccc21

>  <score_type>  (7) 
oracle

>  <origin>  (7) 
adg

>  <m_score__min__energy>  (7) 
-7.8300000000000001

>  <m_primary>  (7) 
energy

$$$$
7:0
     RDKit          3D

 56 58  0  0  0  0  0  0  0  0999 V2000
   -6.1370   25.6350  -29.7230 C   0  0  0  0  0  0  0  0  0  0  0  0
   -5.0370   25.0720  -30.6240 C   0  0  0  0  0  0  0  0  0  0  0  0
   -3.9030   24.5160  -29.8480 N   0  0  0  0  0  0  0  0  0  0  0  0
   -4.2360   24.2030  -28.4310 C   0  0  0  0  0  0  0  0  0  0  0  0
   -3.0660   24.3410  -27.4470 C   0  0  0  0  0  0  0  0  0  0  0  0
   -3.2770   23.3840  -30.5720 C   0  0  0  0  0  0  0  0  0  0  0  0
   -3.8700   22.0230  -30.1490 C   0  0  0  0  0  0  0  0  0  0  0  0
   -3.6650   20.9430  -31.2280 C   0  0  0  0  0  0  0  0  0  0  0  0
   -3.2670   21.5340  -32.5890 C   0  0  0  0  0  0  0  0  0  0  0  0
   -4.4280   21.7050  -33.4790 N   0  0  0  0  0  0  0  0  0  0  0  0
   -5.5070   20.8100  -33.0840 C   0  0  0  0  0  0  0  0  0  0  0  0
   -6.6560   21.3130  -32.4180 C   0  0  0  0  0  0  0  0  0  0  0  0
   -6.8600   22.7030  -32.2290 C   0  0  0  0  0  0  0  0  0  0  0  0
   -7.9370   23.1790  -31.4880 C   0  0  0  0  0  0  0  0  0  0  0  0
   -8.8340   22.2890  -30.9140 C   0  0  0  0  0  0  0  0  0  0  0  0
   -8.6890   20.9200  -31.1250 C   0  0  0  0  0  0  0  0  0  0  0  0
   -7.6360   20.4050  -31.9250 C   0  0  0  0  0  0  0  0  0  0  0  0
   -7.5500   19.0590  -32.2170 N   0  0  0  0  0  0  0  0  0  0  0  0
   -8.7140   18.1750  -31.9700 C   0  0  0  0  0  0  0  0  0  0  0  0
   -6.4070   18.5420  -32.7930 C   0  0  0  0  0  0  0  0  0  0  0  0
   -6.1950   17.1410  -32.8830 C   0  0  0  0  0  0  0  0  0  0  0  0
   -5.0930   16.6170  -33.5560 C   0  0  0  0  0  0  0  0  0  0  0  0
   -4.8520   14.7260  -33.6740 Br  0  0  0  0  0  0  0  0  0  0  0  0
   -4.1750   17.4710  -34.1510 C   0  0  0  0  0  0  0  0  0  0  0  0
   -4.3210   18.8490  -34.0280 C   0  0  0  0  0  0  0  0  0  0  0  0
   -5.4030   19.4110  -33.3040 C   0  0  0  0  0  0  0  0  0  0  0  0
   -5.8568   25.4916  -28.6690 H   0  0  0  0  0  0  0  0  0  0  0  0
   -6.2635   26.7087  -29.9260 H   0  0  0  0  0  0  0  0  0  0  0  0
   -7.0819   25.1097  -29.9260 H   0  0  0  0  0  0  0  0  0  0  0  0
   -5.4648   24.2727  -31.2470 H   0  0  0  0  0  0  0  0  0  0  0  0
   -4.6506   25.8980  -31.2391 H   0  0  0  0  0  0  0  0  0  0  0  0
   -5.0358   24.8861  -28.1090 H   0  0  0  0  0  0  0  0  0  0  0  0
   -4.5335   23.1442  -28.4104 H   0  0  0  0  0  0  0  0  0  0  0  0
   -3.4468   24.2961  -26.4160 H   0  0  0  0  0  0  0  0  0  0  0  0
   -2.3512   23.5209  -27.6099 H   0  0  0  0  0  0  0  0  0  0  0  0
   -2.5616   25.3049  -27.6099 H   0  0  0  0  0  0  0  0  0  0  0  0
   -3.4386   23.5209  -31.6514 H   0  0  0  0  0  0  0  0  0  0  0  0
   -2.2049   23.3768  -30.3259 H   0  0  0  0  0  0  0  0  0  0  0  0
   -3.3793   21.6951  -29.2207 H   0  0  0  0  0  0  0  0  0  0  0  0
   -4.9521   22.1551  -30.0022 H   0  0  0  0  0  0  0  0  0  0  0  0
   -2.8703   20.2592  -30.8951 H   0  0  0  0  0  0  0  0  0  0  0  0
   -4.6230   20.4189  -31.3603 H   0  0  0  0  0  0  0  0  0  0  0  0
   -2.7973   22.5152  -32.4260 H   0  0  0  0  0  0  0  0  0  0  0  0
   -2.5699   20.8334  -33.0720 H   0  0  0  0  0  0  0  0  0  0  0  0
   -4.7450   22.6990  -33.4840 H   0  0  0  0  0  0  0  0  0  0  0  0
   -4.1620   21.5430  -34.4730 H   0  0  0  0  0  0  0  0  0  0  0  0
   -6.1540   23.4182  -32.6763 H   0  0  0  0  0  0  0  0  0  0  0  0
   -8.0778   24.2621  -31.3569 H   0  0  0  0  0  0  0  0  0  0  0  0
   -9.6598   22.6650  -30.2922 H   0  0  0  0  0  0  0  0  0  0  0  0
   -9.4047   20.2243  -30.6625 H   0  0  0  0  0  0  0  0  0  0  0  0
   -8.8643   18.0609  -30.8863 H   0  0  0  0  0  0  0  0  0  0  0  0
   -9.6139   18.6193  -32.4202 H   0  0  0  0  0  0  0  0  0  0  0  0
   -8.5275   17.1888  -32.4202 H   0  0  0  0  0  0  0  0  0  0  0  0
   -6.9150   16.4555  -32.4121 H   0  0  0  0  0  0  0  0  0  0  0  0
   -3.3301   17.0574  -34.7211 H   0  0  0  0  0  0  0  0  0  0  0  0
   -3.5839   19.5146  -34.5009 H   0  0  0  0  0  0  0  0  0  0  0  0
  1  2  1  0
  2  3  1  0
  3  4  1  0
  4  5  1  0
  3  6  1  0
  6  7  1  0
  7  8  1  0
  8  9  1  0
  9 10  1  0
 10 11  1  0
 11 12  2  0
 12 13  1  0
 13 14  2  0
 14 15  1  0
 15 16  2  0
 16 17  1  0
 17 18  2  0
 18 19  1  0
 18 20  1  0
 20 21  2  0
 21 22  1  0
 22 23  1  0
 22 24  2  0
 24 25  1  0
 25 26  2  0
 26 11  1  0
 17 12  1  0
 26 20  1  0
  1 27  1  0
  1 28  1  0
  1 29  1  0
  2 30  1  0
  2 31  1  0
  4 32  1  0
  4 33  1  0
  5 34  1  0
  5 35  1  0
  5 36  1  0
  6 37  1  0
  6 38  1  0
  7 39  1  0
  7 40  1  0
  8 41  1  0
  8 42  1  0
  9 43  1  0
  9 44  1  0
 10 45  1  0
 10 46  1  0
 13 47  1  0
 14 48  1  0
 15 49  1  0
 16 50  1  0
 19 51  1  0
 19 52  1  0
 19 53  1  0
 21 54  1  0
 24 55  1  0
 25 56  1  0
M  CHG  2  10   1  18   1
M  END
>  <UniqueID>  (8) 
8

>  <SMILES>  (8) 
CCN(CC)CCCC[NH2+]c1c2ccccc2[n+](C)c2cc(Br)ccc12

>  <Energy>  (8) 
86.59878329434481

>  <Genealogy>  (8) 
CCN(CC)CCCC[NH2+]c1c2ccccc2[n+](C)c2cc(Br)ccc12 (protonated)
CCN(CC)CCCC[NH2+]c1c2ccccc2[n+](C)c2cc(Br)ccc12 (3D coordinates assigned)
CCN(CC)CCCC[NH2+]c1c2ccccc2[n+](C)c2cc(Br)ccc12 (optimized conformer: 86.59878329434481 kcal/mol)

>  <smiles>  (8) 
CCN(CC)CCCCNc1c2ccccc2[n+](C)c2cc(Br)ccc12

>  <score_type>  (8) 
oracle

>  <origin>  (8) 
adg

>  <m_score__min__energy>  (8) 
-8.2300000000000004

>  <m_primary>  (8) 
energy

$$$$
8:0
     RDKit          3D

 57 59  0  0  0  0  0  0  0  0999 V2000
   -9.0710   21.9830  -31.4930 C   0  0  0  0  0  0  0  0  0  0  0  0
   -7.9060   22.3110  -30.5620 C   0  0  0  0  0  0  0  0  0  0  0  0
   -6.9690   23.2630  -31.1940 N   0  0  0  0  0  0  0  0  0  0  0  0
   -7.2280   23.4430  -32.6360 C   0  0  0  0  0  0  0  0  0  0  0  0
   -6.8610   24.5470  -30.4610 C   0  0  0  0  0  0  0  0  0  0  0  0
   -5.4170   25.0400  -30.2040 C   0  0  0  0  0  0  0  0  0  0  0  0
   -4.4560   24.2710  -30.9000 O   0  0  0  0  0  0  0  0  0  0  0  0
   -3.7820   23.3680  -30.0440 C   0  0  0  0  0  0  0  0  0  0  0  0
   -4.0130   21.9180  -30.4910 C   0  0  0  0  0  0  0  0  0  0  0  0
   -4.8030   21.8040  -31.7360 N   0  0  0  0  0  0  0  0  0  0  0  0
   -4.4850   20.5990  -32.4970 C   0  0  0  0  0  0  0  0  0  0  0  0
   -3.1770   20.4200  -33.0360 C   0  0  0  0  0  0  0  0  0  0  0  0
   -2.1510   21.3830  -32.8440 C   0  0  0  0  0  0  0  0  0  0  0  0
   -0.8600   21.1670  -33.3210 C   0  0  0  0  0  0  0  0  0  0  0  0
   -0.5520   19.9940  -33.9920 C   0  0  0  0  0  0  0  0  0  0  0  0
   -1.5400   19.0410  -34.2210 C   0  0  0  0  0  0  0  0  0  0  0  0
   -2.8770   19.2490  -33.7880 C   0  0  0  0  0  0  0  0  0  0  0  0
   -3.8660   18.3320  -34.0730 N   0  0  0  0  0  0  0  0  0  0  0  0
   -3.6380   17.3010  -35.1140 C   0  0  0  0  0  0  0  0  0  0  0  0
   -5.0780   18.3920  -33.4160 C   0  0  0  0  0  0  0  0  0  0  0  0
   -5.9830   17.3010  -33.4600 C   0  0  0  0  0  0  0  0  0  0  0  0
   -7.2410   17.3790  -32.8740 C   0  0  0  0  0  0  0  0  0  0  0  0
   -7.6390   18.5380  -32.2180 C   0  0  0  0  0  0  0  0  0  0  0  0
   -9.0180   18.6170  -31.6260 C   0  0  0  0  0  0  0  0  0  0  0  0
   -6.7470   19.6120  -32.1170 C   0  0  0  0  0  0  0  0  0  0  0  0
   -5.4400   19.5510  -32.6690 C   0  0  0  0  0  0  0  0  0  0  0  0
   -9.9594   21.7329  -30.8945 H   0  0  0  0  0  0  0  0  0  0  0  0
   -9.2898   22.8545  -32.1276 H   0  0  0  0  0  0  0  0  0  0  0  0
   -8.8030   21.1254  -32.1276 H   0  0  0  0  0  0  0  0  0  0  0  0
   -8.3004   22.7564  -29.6368 H   0  0  0  0  0  0  0  0  0  0  0  0
   -7.3622   21.3802  -30.3430 H   0  0  0  0  0  0  0  0  0  0  0  0
   -8.1243   24.0659  -32.7726 H   0  0  0  0  0  0  0  0  0  0  0  0
   -6.3638   23.9361  -33.1050 H   0  0  0  0  0  0  0  0  0  0  0  0
   -7.3889   22.4611  -33.1050 H   0  0  0  0  0  0  0  0  0  0  0  0
   -7.3846   25.3177  -31.0458 H   0  0  0  0  0  0  0  0  0  0  0  0
   -7.3041   24.3706  -29.4698 H   0  0  0  0  0  0  0  0  0  0  0  0
   -5.3370   26.0870  -30.5316 H   0  0  0  0  0  0  0  0  0  0  0  0
   -5.2134   24.9394  -29.1277 H   0  0  0  0  0  0  0  0  0  0  0  0
   -2.7039   23.5852  -30.0675 H   0  0  0  0  0  0  0  0  0  0  0  0
   -4.1748   23.4893  -29.0237 H   0  0  0  0  0  0  0  0  0  0  0  0
   -3.0341   21.4439  -30.6550 H   0  0  0  0  0  0  0  0  0  0  0  0
   -4.5884   21.4217  -29.6957 H   0  0  0  0  0  0  0  0  0  0  0  0
   -5.8160   21.9110  -31.5300 H   0  0  0  0  0  0  0  0  0  0  0  0
   -4.6200   22.6420  -32.3280 H   0  0  0  0  0  0  0  0  0  0  0  0
   -2.3798   22.3164  -32.3089 H   0  0  0  0  0  0  0  0  0  0  0  0
   -0.0828   21.9296  -33.1646 H   0  0  0  0  0  0  0  0  0  0  0  0
    0.4748   19.8161  -34.3440 H   0  0  0  0  0  0  0  0  0  0  0  0
   -1.2811   18.1101  -34.7467 H   0  0  0  0  0  0  0  0  0  0  0  0
   -3.4244   16.3351  -34.6329 H   0  0  0  0  0  0  0  0  0  0  0  0
   -4.5372   17.2076  -35.7407 H   0  0  0  0  0  0  0  0  0  0  0  0
   -2.7833   17.5954  -35.7407 H   0  0  0  0  0  0  0  0  0  0  0  0
   -5.6829   16.3731  -33.9688 H   0  0  0  0  0  0  0  0  0  0  0  0
   -7.9250   16.5193  -32.9297 H   0  0  0  0  0  0  0  0  0  0  0  0
   -8.9466   18.6129  -30.5283 H   0  0  0  0  0  0  0  0  0  0  0  0
   -9.5070   19.5446  -31.9582 H   0  0  0  0  0  0  0  0  0  0  0  0
   -9.6098   17.7513  -31.9582 H   0  0  0  0  0  0  0  0  0  0  0  0
   -7.0667   20.5269  -31.5966 H   0  0  0  0  0  0  0  0  0  0  0  0
  1  2  1  0
  2  3  1  0
  3  4  1  0
  3  5  1  0
  5  6  1  0
  6  7  1  0
  7  8  1  0
  8  9  1  0
  9 10  1  0
 10 11  1  0
 11 12  2  0
 12 13  1  0
 13 14  2  0
 14 15  1  0
 15 16  2  0
 16 17  1  0
 17 18  2  0
 18 19  1  0
 18 20  1  0
 20 21  2  0
 21 22  1  0
 22 23  2  0
 23 24  1  0
 23 25  1  0
 25 26  2  0
 26 11  1  0
 17 12  1  0
 26 20  1  0
  1 27  1  0
  1 28  1  0
  1 29  1  0
  2 30  1  0
  2 31  1  0
  4 32  1  0
  4 33  1  0
  4 34  1  0
  5 35  1  0
  5 36  1  0
  6 37  1  0
  6 38  1  0
  8 39  1  0
  8 40  1  0
  9 41  1  0
  9 42  1  0
 10 43  1  0
 10 44  1  0
 13 45  1  0
 14 46  1  0
 15 47  1  0
 16 48  1  0
 19 49  1  0
 19 50  1  0
 19 51  1  0
 21 52  1  0
 22 53  1  0
 24 54  1  0
 24 55  1  0
 24 56  1  0
 25 57  1  0
M  CHG  2  10   1  18   1
M  END
>  <UniqueID>  (9) 
9

>  <SMILES>  (9) 
CCN(C)CCOCC[NH2+]c1c2ccccc2[n+](C)c2ccc(C)cc12

>  <Energy>  (9) 
90.166048927909

>  <Genealogy>  (9) 
CCN(C)CCOCC[NH2+]c1c2ccccc2[n+](C)c2ccc(C)cc12 (protonated)
CCN(C)CCOCC[NH2+]c1c2ccccc2[n+](C)c2ccc(C)cc12 (3D coordinates assigned)
CCN(C)CCOCC[NH2+]c1c2ccccc2[n+](C)c2ccc(C)cc12 (optimized conformer: 90.166048927909 kcal/mol)

>  <smiles>  (9) 
CCN(C)CCOCCNc1c2ccccc2[n+](C)c2ccc(C)cc12

>  <score_type>  (9) 
oracle

>  <origin>  (9) 
adg

>  <m_score__min__energy>  (9) 
-8.0500000000000007

>  <m_primary>  (9) 
energy

$$$$
9:0
     RDKit          3D

 57 59  0  0  0  0  0  0  0  0999 V2000
   -6.1100   17.1700  -31.8880 C   0  0  0  0  0  0  0  0  0  0  0  0
   -6.4330   18.6420  -31.5970 C   0  0  0  0  0  0  0  0  0  0  0  0
   -6.8800   19.4350  -32.7710 N   0  0  0  0  0  0  0  0  0  0  0  0
   -6.0290   19.2810  -33.9730 C   0  0  0  0  0  0  0  0  0  0  0  0
   -4.5540   19.6140  -33.7320 C   0  0  0  0  0  0  0  0  0  0  0  0
   -8.3300   19.4380  -33.0660 C   0  0  0  0  0  0  0  0  0  0  0  0
   -9.1540   19.7120  -31.8060 C   0  0  0  0  0  0  0  0  0  0  0  0
   -8.5680   20.7940  -31.1150 O   0  0  0  0  0  0  0  0  0  0  0  0
   -9.2230   21.9990  -31.4480 C   0  0  0  0  0  0  0  0  0  0  0  0
   -8.1740   23.1010  -31.6720 C   0  0  0  0  0  0  0  0  0  0  0  0
   -6.9100   22.5850  -32.2340 N   0  0  0  0  0  0  0  0  0  0  0  0
   -5.7680   22.9450  -31.4270 C   0  0  0  0  0  0  0  0  0  0  0  0
   -5.4540   24.2930  -31.1980 C   0  0  0  0  0  0  0  0  0  0  0  0
   -4.3060   24.6450  -30.4830 C   0  0  0  0  0  0  0  0  0  0  0  0
   -3.4240   23.6600  -29.9820 C   0  0  0  0  0  0  0  0  0  0  0  0
   -2.2320   24.0590  -29.2930 C   0  0  0  0  0  0  0  0  0  0  0  0
   -2.0270   25.3000  -29.1830 O   0  0  0  0  0  0  0  0  0  0  0  0
   -1.2650   23.1580  -28.7220 C   0  0  0  0  0  0  0  0  0  0  0  0
   -0.0970   23.6510  -28.0570 C   0  0  0  0  0  0  0  0  0  0  0  0
    0.1550   25.0340  -28.0060 O   0  0  0  0  0  0  0  0  0  0  0  0
   -0.0500   25.8640  -26.8670 C   0  0  0  0  0  0  0  0  0  0  0  0
    0.8100   22.7450  -27.4670 C   0  0  0  0  0  0  0  0  0  0  0  0
    0.6000   21.3730  -27.5390 C   0  0  0  0  0  0  0  0  0  0  0  0
   -0.5130   20.8750  -28.2010 C   0  0  0  0  0  0  0  0  0  0  0  0
   -1.4300   21.7500  -28.7840 C   0  0  0  0  0  0  0  0  0  0  0  0
   -2.7680   21.1150  -29.5830 S   0  0  0  0  0  0  0  0  0  0  0  0
   -3.7720   22.3090  -30.1980 C   0  0  0  0  0  0  0  0  0  0  0  0
   -4.9240   21.9540  -30.9060 C   0  0  0  0  0  0  0  0  0  0  0  0
   -5.9907   16.6263  -30.9392 H   0  0  0  0  0  0  0  0  0  0  0  0
   -6.9312   16.7219  -32.4667 H   0  0  0  0  0  0  0  0  0  0  0  0
   -5.1766   17.1069  -32.4667 H   0  0  0  0  0  0  0  0  0  0  0  0
   -7.2320   18.6723  -30.8416 H   0  0  0  0  0  0  0  0  0  0  0  0
   -5.4918   19.1003  -31.2592 H   0  0  0  0  0  0  0  0  0  0  0  0
   -6.0977   18.2379  -34.3154 H   0  0  0  0  0  0  0  0  0  0  0  0
   -6.4006   19.9952  -34.7226 H   0  0  0  0  0  0  0  0  0  0  0  0
   -4.3600   19.6578  -32.6501 H   0  0  0  0  0  0  0  0  0  0  0  0
   -3.9234   18.8356  -34.1864 H   0  0  0  0  0  0  0  0  0  0  0  0
   -4.3190   20.5878  -34.1864 H   0  0  0  0  0  0  0  0  0  0  0  0
   -8.5425   20.2199  -33.8100 H   0  0  0  0  0  0  0  0  0  0  0  0
   -8.6073   18.4463  -33.4529 H   0  0  0  0  0  0  0  0  0  0  0  0
  -10.1870   19.9661  -32.0860 H   0  0  0  0  0  0  0  0  0  0  0  0
   -9.1700   18.8188  -31.1642 H   0  0  0  0  0  0  0  0  0  0  0  0
   -9.8091   21.8568  -32.3679 H   0  0  0  0  0  0  0  0  0  0  0  0
   -9.8964   22.2915  -30.6289 H   0  0  0  0  0  0  0  0  0  0  0  0
   -8.5895   23.8450  -32.3675 H   0  0  0  0  0  0  0  0  0  0  0  0
   -7.9435   23.5418  -30.6909 H   0  0  0  0  0  0  0  0  0  0  0  0
   -6.9750   21.5460  -32.3430 H   0  0  0  0  0  0  0  0  0  0  0  0
   -6.7840   22.9860  -33.1930 H   0  0  0  0  0  0  0  0  0  0  0  0
   -6.1177   25.0803  -31.5849 H   0  0  0  0  0  0  0  0  0  0  0  0
   -4.0845   25.7080  -30.3067 H   0  0  0  0  0  0  0  0  0  0  0  0
    0.0961   25.2725  -25.9512 H   0  0  0  0  0  0  0  0  0  0  0  0
    0.6697   26.6957  -26.8850 H   0  0  0  0  0  0  0  0  0  0  0  0
   -1.0742   26.2650  -26.8850 H   0  0  0  0  0  0  0  0  0  0  0  0
    1.6966   23.1305  -26.9422 H   0  0  0  0  0  0  0  0  0  0  0  0
    1.3164   20.6818  -27.0710 H   0  0  0  0  0  0  0  0  0  0  0  0
   -0.6726   19.7886  -28.2663 H   0  0  0  0  0  0  0  0  0  0  0  0
   -5.1695   20.8921  -31.0550 H   0  0  0  0  0  0  0  0  0  0  0  0
  1  2  1  0
  2  3  1  0
  3  4  1  0
  4  5  1  0
  3  6  1  0
  6  7  1  0
  7  8  1  0
  8  9  1  0
  9 10  1  0
 10 11  1  0
 11 12  1  0
 12 13  2  0
 13 14  1  0
 14 15  2  0
 15 16  1  0
 16 17  2  0
 16 18  1  0
 18 19  2  0
 19 20  1  0
 20 21  1  0
 19 22  1  0
 22 23  2  0
 23 24  1  0
 24 25  2  0
 25 26  1  0
 26 27  1  0
 27 28  2  0
 28 12  1  0
 27 15  1  0
 25 18  1  0
  1 29  1  0
  1 30  1  0
  1 31  1  0
  2 32  1  0
  2 33  1  0
  4 34  1  0
  4 35  1  0
  5 36  1  0
  5 37  1  0
  5 38  1  0
  6 39  1  0
  6 40  1  0
  7 41  1  0
  7 42  1  0
  9 43  1  0
  9 44  1  0
 10 45  1  0
 10 46  1  0
 11 47  1  0
 11 48  1  0
 13 49  1  0
 14 50  1  0
 21 51  1  0
 21 52  1  0
 21 53  1  0
 22 54  1  0
 23 55  1  0
 24 56  1  0
 28 57  1  0
M  CHG  1  11   1
M  END
>  <UniqueID>  (10) 
10

>  <SMILES>  (10) 
CCN(CC)CCOCC[NH2+]c1ccc2c(=O)c3c(OC)cccc3sc2c1

>  <Energy>  (10) 
75.17128711833328

>  <Genealogy>  (10) 
CCN(CC)CCOCC[NH2+]c1ccc2c(=O)c3c(OC)cccc3sc2c1 (protonated)
CCN(CC)CCOCC[NH2+]c1ccc2c(=O)c3c(OC)cccc3sc2c1 (3D coordinates assigned)
CCN(CC)CCOCC[NH2+]c1ccc2c(=O)c3c(OC)cccc3sc2c1 (optimized conformer: 75.17128711833328 kcal/mol)

>  <smiles>  (10) 
CCN(CC)CCOCCNc1ccc2c(=O)c3c(OC)cccc3sc2c1

>  <score_type>  (10) 
oracle

>  <origin>  (10) 
adg

>  <m_score__min__energy>  (10) 
-7.5499999999999998

>  <m_primary>  (10) 
energy

$$$$
10:0
     RDKit          3D

 46 48  0  0  0  0  0  0  0  0999 V2000
   -9.4510   23.3820  -32.3280 C   0  0  0  0  0  0  0  0  0  0  0  0
   -9.6500   22.0200  -31.6620 C   0  0  0  0  0  0  0  0  0  0  0  0
   -8.4240   21.5640  -30.8480 C   0  0  0  0  0  0  0  0  0  0  0  0
   -7.1680   21.1490  -31.6180 C   0  0  0  0  0  0  0  0  0  0  0  0
   -7.0460   19.8600  -32.0920 N   0  0  0  0  0  0  0  0  0  0  0  0
   -5.9420   19.5190  -32.7880 C   0  0  0  0  0  0  0  0  0  0  0  0
   -4.9550   20.4070  -33.0750 C   0  0  0  0  0  0  0  0  0  0  0  0
   -3.9660   19.8360  -33.8000 N   0  0  0  0  0  0  0  0  0  0  0  0
   -4.3620   18.5520  -33.9590 C   0  0  0  0  0  0  0  0  0  0  0  0
   -3.6880   17.5400  -34.6380 C   0  0  0  0  0  0  0  0  0  0  0  0
   -4.2850   16.2650  -34.6850 C   0  0  0  0  0  0  0  0  0  0  0  0
   -5.5320   16.0330  -34.0600 C   0  0  0  0  0  0  0  0  0  0  0  0
   -6.1960   17.0700  -33.3790 C   0  0  0  0  0  0  0  0  0  0  0  0
   -5.5800   18.3180  -33.3500 C   0  0  0  0  0  0  0  0  0  0  0  0
   -5.0620   21.7160  -32.6410 C   0  0  0  0  0  0  0  0  0  0  0  0
   -4.1590   22.5460  -32.9350 O   0  0  0  0  0  0  0  0  0  0  0  0
   -6.1650   22.0840  -31.8940 N   0  0  0  0  0  0  0  0  0  0  0  0
   -6.2370   23.4860  -31.4100 C   0  0  0  0  0  0  0  0  0  0  0  0
   -5.4510   23.6960  -30.1040 C   0  0  0  0  0  0  0  0  0  0  0  0
   -4.2090   24.5040  -30.3070 C   0  0  0  0  0  0  0  0  0  0  0  0
   -4.2790   25.6400  -30.8490 O   0  0  0  0  0  0  0  0  0  0  0  0
   -2.9820   23.9860  -29.8740 O   0  0  0  0  0  0  0  0  0  0  0  0
   -2.4770   22.7150  -30.2740 C   0  0  0  0  0  0  0  0  0  0  0  0
   -2.9330   21.6300  -29.3090 C   0  0  0  0  0  0  0  0  0  0  0  0
   -9.3380   24.1555  -31.5541 H   0  0  0  0  0  0  0  0  0  0  0  0
   -8.5472   23.3553  -32.9545 H   0  0  0  0  0  0  0  0  0  0  0  0
  -10.3246   23.6150  -32.9545 H   0  0  0  0  0  0  0  0  0  0  0  0
  -10.5158   22.0831  -30.9864 H   0  0  0  0  0  0  0  0  0  0  0  0
   -9.8072   21.2818  -32.4623 H   0  0  0  0  0  0  0  0  0  0  0  0
   -8.1425   22.3959  -30.1857 H   0  0  0  0  0  0  0  0  0  0  0  0
   -8.7545   20.6446  -30.3426 H   0  0  0  0  0  0  0  0  0  0  0  0
   -7.7730   19.1300  -31.9440 H   0  0  0  0  0  0  0  0  0  0  0  0
   -3.0930   20.2840  -34.1570 H   0  0  0  0  0  0  0  0  0  0  0  0
   -2.7191   17.7305  -35.1228 H   0  0  0  0  0  0  0  0  0  0  0  0
   -3.7773   15.4436  -35.2119 H   0  0  0  0  0  0  0  0  0  0  0  0
   -5.9872   15.0327  -34.1066 H   0  0  0  0  0  0  0  0  0  0  0  0
   -7.1656   16.9008  -32.8879 H   0  0  0  0  0  0  0  0  0  0  0  0
   -5.8210   24.1486  -32.1833 H   0  0  0  0  0  0  0  0  0  0  0  0
   -7.2931   23.7173  -31.2071 H   0  0  0  0  0  0  0  0  0  0  0  0
   -6.0975   24.2179  -29.3831 H   0  0  0  0  0  0  0  0  0  0  0  0
   -5.1487   22.7057  -29.7328 H   0  0  0  0  0  0  0  0  0  0  0  0
   -2.8468   22.4802  -31.2830 H   0  0  0  0  0  0  0  0  0  0  0  0
   -1.3777   22.7531  -30.2712 H   0  0  0  0  0  0  0  0  0  0  0  0
   -2.7881   21.9748  -28.2745 H   0  0  0  0  0  0  0  0  0  0  0  0
   -3.9982   21.4135  -29.4775 H   0  0  0  0  0  0  0  0  0  0  0  0
   -2.3423   20.7175  -29.4775 H   0  0  0  0  0  0  0  0  0  0  0  0
  1  2  1  0
  2  3  1  0
  3  4  1  0
  4  5  2  0
  5  6  1  0
  6  7  2  0
  7  8  1  0
  8  9  1  0
  9 10  2  0
 10 11  1  0
 11 12  2  0
 12 13  1  0
 13 14  2  0
  7 15  1  0
 15 16  2  0
 15 17  1  0
 17 18  1  0
 18 19  1  0
 19 20  1  0
 20 21  2  0
 20 22  1  0
 22 23  1  0
 23 24  1  0
 17  4  1  0
 14  6  1  0
 14  9  1  0
  1 25  1  0
  1 26  1  0
  1 27  1  0
  2 28  1  0
  2 29  1  0
  3 30  1  0
  3 31  1  0
  5 32  1  0
  8 33  1  0
 10 34  1  0
 11 35  1  0
 12 36  1  0
 13 37  1  0
 18 38  1  0
 18 39  1  0
 19 40  1  0
 19 41  1  0
 23 42  1  0
 23 43  1  0
 24 44  1  0
 24 45  1  0
 24 46  1  0
M  CHG  1   5   1
M  END
>  <UniqueID>  (11) 
11

>  <SMILES>  (11) 
CCCc1[nH+]c2c([nH]c3ccccc32)c(=O)n1CCC(=O)OCC

>  <Energy>  (11) 
87.9441617452208

>  <Genealogy>  (11) 
CCCc1[nH+]c2c([nH]c3ccccc32)c(=O)n1CCC(=O)OCC (protonated)
CCCc1[nH+]c2c([nH]c3ccccc32)c(=O)n1CCC(=O)OCC (3D coordinates assigned)
CCCc1[nH+]c2c([nH]c3ccccc32)c(=O)n1CCC(=O)OCC (optimized conformer: 87.9441617452208 kcal/mol)

>  <smiles>  (11) 
CCCc1nc2c([nH]c3ccccc32)c(=O)n1CCC(=O)OCC

>  <score_type>  (11) 
oracle

>  <origin>  (11) 
adg

>  <m_score__min__energy>  (11) 
-7.7000000000000002

>  <m_primary>  (11) 
energy

$$$$
11:0
     RDKit          3D

 64 66  0  0  0  0  0  0  0  0999 V2000
   -8.2430   23.3560  -31.9910 C   0  0  0  0  0  0  0  0  0  0  0  0
   -9.2430   22.2240  -31.7680 C   0  0  0  0  0  0  0  0  0  0  0  0
   -8.5970   20.9960  -31.1030 C   0  0  0  0  0  0  0  0  0  0  0  0
   -9.1060   19.6660  -31.6720 C   0  0  0  0  0  0  0  0  0  0  0  0
   -8.4840   19.3890  -32.9690 N   0  0  0  0  0  0  0  0  0  0  0  0
   -7.1370   18.9100  -33.1510 C   0  0  0  0  0  0  0  0  0  0  0  0
   -6.8530   17.5520  -33.3010 C   0  0  0  0  0  0  0  0  0  0  0  0
   -5.5400   17.1210  -33.4290 C   0  0  0  0  0  0  0  0  0  0  0  0
   -4.4570   18.0350  -33.4250 C   0  0  0  0  0  0  0  0  0  0  0  0
   -4.7390   19.4290  -33.3940 C   0  0  0  0  0  0  0  0  0  0  0  0
   -6.0890   19.8340  -33.2230 C   0  0  0  0  0  0  0  0  0  0  0  0
   -3.6680   20.3610  -33.5290 C   0  0  0  0  0  0  0  0  0  0  0  0
   -3.8960   21.8010  -33.4570 N   0  0  0  0  0  0  0  0  0  0  0  0
   -3.8490   22.3090  -32.0720 C   0  0  0  0  0  0  0  0  0  0  0  0
   -5.0340   23.2310  -31.7210 C   0  0  0  0  0  0  0  0  0  0  0  0
   -4.6130   24.3760  -30.8790 N   0  0  0  0  0  0  0  0  0  0  0  0
   -5.6710   25.4230  -30.8140 C   0  0  0  0  0  0  0  0  0  0  0  0
   -6.4210   25.3250  -29.4890 C   0  0  0  0  0  0  0  0  0  0  0  0
   -4.2440   23.8960  -29.5250 C   0  0  0  0  0  0  0  0  0  0  0  0
   -2.7920   24.2340  -29.1850 C   0  0  0  0  0  0  0  0  0  0  0  0
   -2.3570   19.8600  -33.7720 C   0  0  0  0  0  0  0  0  0  0  0  0
   -1.2550   20.7230  -34.0020 C   0  0  0  0  0  0  0  0  0  0  0  0
    0.0120   20.2190  -34.2770 C   0  0  0  0  0  0  0  0  0  0  0  0
    0.2170   18.8500  -34.3430 C   0  0  0  0  0  0  0  0  0  0  0  0
   -0.8360   17.9760  -34.1000 C   0  0  0  0  0  0  0  0  0  0  0  0
   -2.1310   18.4560  -33.7720 C   0  0  0  0  0  0  0  0  0  0  0  0
   -3.1540   17.5870  -33.4620 N   0  0  0  0  0  0  0  0  0  0  0  0
   -2.8480   16.1770  -33.1230 C   0  0  0  0  0  0  0  0  0  0  0  0
   -7.9026   23.7414  -31.0186 H   0  0  0  0  0  0  0  0  0  0  0  0
   -7.3799   22.9765  -32.5575 H   0  0  0  0  0  0  0  0  0  0  0  0
   -8.7261   24.1657  -32.5575 H   0  0  0  0  0  0  0  0  0  0  0  0
  -10.0539   22.5907  -31.1214 H   0  0  0  0  0  0  0  0  0  0  0  0
   -9.6232   21.9125  -32.7521 H   0  0  0  0  0  0  0  0  0  0  0  0
   -7.5087   21.0479  -31.2545 H   0  0  0  0  0  0  0  0  0  0  0  0
   -8.8662   21.0209  -30.0368 H   0  0  0  0  0  0  0  0  0  0  0  0
   -8.8585   18.8547  -30.9716 H   0  0  0  0  0  0  0  0  0  0  0  0
  -10.1956   19.7319  -31.8078 H   0  0  0  0  0  0  0  0  0  0  0  0
   -9.0180   19.6990  -33.8160 H   0  0  0  0  0  0  0  0  0  0  0  0
   -7.6737   16.8197  -33.3179 H   0  0  0  0  0  0  0  0  0  0  0  0
   -5.3353   16.0455  -33.5360 H   0  0  0  0  0  0  0  0  0  0  0  0
   -6.3179   20.9071  -33.1447 H   0  0  0  0  0  0  0  0  0  0  0  0
   -4.7710   22.1160  -33.9210 H   0  0  0  0  0  0  0  0  0  0  0  0
   -3.1770   22.2960  -34.0280 H   0  0  0  0  0  0  0  0  0  0  0  0
   -3.8589   21.4504  -31.3845 H   0  0  0  0  0  0  0  0  0  0  0  0
   -2.9307   22.9067  -31.9748 H   0  0  0  0  0  0  0  0  0  0  0  0
   -5.4723   23.6172  -32.6531 H   0  0  0  0  0  0  0  0  0  0  0  0
   -5.7679   22.6413  -31.1522 H   0  0  0  0  0  0  0  0  0  0  0  0
   -5.2060   26.4164  -30.8968 H   0  0  0  0  0  0  0  0  0  0  0  0
   -6.3794   25.2726  -31.6420 H   0  0  0  0  0  0  0  0  0  0  0  0
   -5.7082   25.4181  -28.6564 H   0  0  0  0  0  0  0  0  0  0  0  0
   -7.1642   26.1337  -29.4276 H   0  0  0  0  0  0  0  0  0  0  0  0
   -6.9314   24.3525  -29.4276 H   0  0  0  0  0  0  0  0  0  0  0  0
   -4.9042   24.3722  -28.7851 H   0  0  0  0  0  0  0  0  0  0  0  0
   -4.3566   22.8020  -29.5050 H   0  0  0  0  0  0  0  0  0  0  0  0
   -2.6684   24.2628  -28.0923 H   0  0  0  0  0  0  0  0  0  0  0  0
   -2.1279   23.4664  -29.6090 H   0  0  0  0  0  0  0  0  0  0  0  0
   -2.5351   25.2159  -29.6090 H   0  0  0  0  0  0  0  0  0  0  0  0
   -1.4053   21.8120  -33.9621 H   0  0  0  0  0  0  0  0  0  0  0  0
    0.8530   20.9085  -34.4424 H   0  0  0  0  0  0  0  0  0  0  0  0
    1.2139   18.4548  -34.5879 H   0  0  0  0  0  0  0  0  0  0  0  0
   -0.6626   16.8916  -34.1631 H   0  0  0  0  0  0  0  0  0  0  0  0
   -2.8226   16.0600  -32.0295 H   0  0  0  0  0  0  0  0  0  0  0  0
   -3.6249   15.5218  -33.5439 H   0  0  0  0  0  0  0  0  0  0  0  0
   -1.8694   15.9027  -33.5439 H   0  0  0  0  0  0  0  0  0  0  0  0
  1  2  1  0
  2  3  1  0
  3  4  1  0
  4  5  1  0
  5  6  1  0
  6  7  2  0
  7  8  1  0
  8  9  2  0
  9 10  1  0
 10 11  2  0
 10 12  1  0
 12 13  1  0
 13 14  1  0
 14 15  1  0
 15 16  1  0
 16 17  1  0
 17 18  1  0
 16 19  1  0
 19 20  1  0
 12 21  2  0
 21 22  1  0
 22 23  2  0
 23 24  1  0
 24 25  2  0
 25 26  1  0
 26 27  2  0
 27 28  1  0
 11  6  1  0
 26 21  1  0
 27  9  1  0
  1 29  1  0
  1 30  1  0
  1 31  1  0
  2 32  1  0
  2 33  1  0
  3 34  1  0
  3 35  1  0
  4 36  1  0
  4 37  1  0
  5 38  1  0
  7 39  1  0
  8 40  1  0
 11 41  1  0
 13 42  1  0
 13 43  1  0
 14 44  1  0
 14 45  1  0
 15 46  1  0
 15 47  1  0
 17 48  1  0
 17 49  1  0
 18 50  1  0
 18 51  1  0
 18 52  1  0
 19 53  1  0
 19 54  1  0
 20 55  1  0
 20 56  1  0
 20 57  1  0
 22 58  1  0
 23 59  1  0
 24 60  1  0
 25 61  1  0
 28 62  1  0
 28 63  1  0
 28 64  1  0
M  CHG  2  13   1  27   1
M  END
>  <UniqueID>  (12) 
12

>  <SMILES>  (12) 
CCCCNc1ccc2c(c1)c([NH2+]CCN(CC)CC)c1ccccc1[n+]2C

>  <Energy>  (12) 
86.01949053983888

>  <Genealogy>  (12) 
CCCCNc1ccc2c(c1)c([NH2+]CCN(CC)CC)c1ccccc1[n+]2C (protonated)
CCCCNc1ccc2c(c1)c([NH2+]CCN(CC)CC)c1ccccc1[n+]2C (3D coordinates assigned)
CCCCNc1ccc2c(c1)c([NH2+]CCN(CC)CC)c1ccccc1[n+]2C (optimized conformer: 86.01949053983888 kcal/mol)

>  <smiles>  (12) 
CCCCNc1ccc2c(c1)c(NCCN(CC)CC)c1ccccc1[n+]2C

>  <score_type>  (12) 
oracle

>  <origin>  (12) 
adg

>  <m_score__min__energy>  (12) 
-8.5500000000000007

>  <m_primary>  (12) 
energy

$$$$
12:0
     RDKit          3D

 30 33  0  0  0  0  0  0  0  0999 V2000
   -4.3370   19.2050  -33.8050 C   0  0  0  0  0  0  0  0  0  0  0  0
   -5.5020   19.9290  -33.2060 C   0  0  0  0  0  0  0  0  0  0  0  0
   -6.7590   19.4200  -33.4210 N   0  0  0  0  0  0  0  0  0  0  0  0
   -7.8460   20.0490  -32.8950 C   0  0  0  0  0  0  0  0  0  0  0  0
   -9.1230   19.6660  -33.0280 N   0  0  0  0  0  0  0  0  0  0  0  0
   -9.8630   20.5520  -32.3680 N   0  0  0  0  0  0  0  0  0  0  0  0
   -9.0110   21.4670  -31.8420 C   0  0  0  0  0  0  0  0  0  0  0  0
   -7.7380   21.1640  -32.1640 N   0  0  0  0  0  0  0  0  0  0  0  0
   -6.5220   21.7070  -31.9190 C   0  0  0  0  0  0  0  0  0  0  0  0
   -6.1390   22.8360  -31.2260 C   0  0  0  0  0  0  0  0  0  0  0  0
   -6.8590   23.8130  -30.5360 C   0  0  0  0  0  0  0  0  0  0  0  0
   -6.1410   24.8640  -29.9440 C   0  0  0  0  0  0  0  0  0  0  0  0
   -4.7380   24.9230  -30.0520 C   0  0  0  0  0  0  0  0  0  0  0  0
   -4.0320   23.9310  -30.7520 C   0  0  0  0  0  0  0  0  0  0  0  0
   -4.7570   22.8810  -31.3350 C   0  0  0  0  0  0  0  0  0  0  0  0
   -4.2760   21.8270  -32.0550 N   0  0  0  0  0  0  0  0  0  0  0  0
   -2.8760   21.5590  -32.3910 C   0  0  0  0  0  0  0  0  0  0  0  0
   -5.3790   21.1120  -32.4200 C   0  0  0  0  0  0  0  0  0  0  0  0
   -3.6991   18.8086  -33.0013 H   0  0  0  0  0  0  0  0  0  0  0  0
   -4.7019   18.3743  -34.4270 H   0  0  0  0  0  0  0  0  0  0  0  0
   -3.7538   19.9000  -34.4270 H   0  0  0  0  0  0  0  0  0  0  0  0
   -9.4920   18.8380  -33.5440 H   0  0  0  0  0  0  0  0  0  0  0  0
   -9.3161   22.3341  -31.2378 H   0  0  0  0  0  0  0  0  0  0  0  0
   -7.9550   23.7608  -30.4586 H   0  0  0  0  0  0  0  0  0  0  0  0
   -6.6788   25.6482  -29.3910 H   0  0  0  0  0  0  0  0  0  0  0  0
   -4.1900   25.7539  -29.5837 H   0  0  0  0  0  0  0  0  0  0  0  0
   -2.9365   23.9763  -30.8410 H   0  0  0  0  0  0  0  0  0  0  0  0
   -2.2918   21.4472  -31.4657 H   0  0  0  0  0  0  0  0  0  0  0  0
   -2.8112   20.6321  -32.9798 H   0  0  0  0  0  0  0  0  0  0  0  0
   -2.4735   22.3964  -32.9798 H   0  0  0  0  0  0  0  0  0  0  0  0
  1  2  1  0
  2  3  2  0
  3  4  1  0
  4  5  2  0
  5  6  1  0
  6  7  2  0
  7  8  1  0
  8  9  1  0
  9 10  1  0
 10 11  2  0
 11 12  1  0
 12 13  2  0
 13 14  1  0
 14 15  2  0
 15 16  1  0
 16 17  1  0
 16 18  1  0
 18  2  1  0
  8  4  1  0
 18  9  2  0
 15 10  1  0
  1 19  1  0
  1 20  1  0
  1 21  1  0
  5 22  1  0
  7 23  1  0
 11 24  1  0
 12 25  1  0
 13 26  1  0
 14 27  1  0
 17 28  1  0
 17 29  1  0
 17 30  1  0
M  CHG  1   5   1
M  END
>  <UniqueID>  (13) 
13

>  <SMILES>  (13) 
Cc1nc2[nH+]ncn2c2c3ccccc3n(C)c12

>  <Energy>  (13) 
127.64388186826189

>  <Genealogy>  (13) 
Cc1nc2[nH+]ncn2c2c3ccccc3n(C)c12 (protonated)
Cc1nc2[nH+]ncn2c2c3ccccc3n(C)c12 (3D coordinates assigned)
Cc1nc2[nH+]ncn2c2c3ccccc3n(C)c12 (optimized conformer: 127.64388186826189 kcal/mol)

>  <smiles>  (13) 
Cc1nc2nncn2c2c3ccccc3n(C)c12

>  <score_type>  (13) 
oracle

>  <origin>  (13) 
adg

>  <m_score__min__energy>  (13) 
-7.1500000000000004

>  <m_primary>  (13) 
energy

$$$$
13:0
     RDKit          3D

 57 61  0  0  0  0  0  0  0  0999 V2000
   -6.1180   25.5450  -30.0950 C   0  0  0  0  0  0  0  0  0  0  0  0
   -4.7250   25.0840  -30.5150 C   0  0  0  0  0  0  0  0  0  0  0  0
   -4.6270   23.6070  -30.4640 N   0  0  0  0  0  0  0  0  0  0  0  0
   -5.0190   23.0820  -29.1330 C   0  0  0  0  0  0  0  0  0  0  0  0
   -4.0860   23.6240  -28.0540 C   0  0  0  0  0  0  0  0  0  0  0  0
   -3.2850   23.1230  -30.8810 C   0  0  0  0  0  0  0  0  0  0  0  0
   -3.4060   22.2960  -32.1680 C   0  0  0  0  0  0  0  0  0  0  0  0
   -4.6870   22.5360  -32.8500 N   0  0  0  0  0  0  0  0  0  0  0  0
   -5.4700   21.3170  -32.8960 C   0  0  0  0  0  0  0  0  0  0  0  0
   -4.8560   20.1530  -33.3510 C   0  0  0  0  0  0  0  0  0  0  0  0
   -5.5490   18.9420  -33.4000 C   0  0  0  0  0  0  0  0  0  0  0  0
   -4.9010   17.7790  -33.8580 C   0  0  0  0  0  0  0  0  0  0  0  0
   -3.6240   17.6390  -34.3010 N   0  0  0  0  0  0  0  0  0  0  0  0
   -3.5000   16.3260  -34.6000 C   0  0  0  0  0  0  0  0  0  0  0  0
   -2.3650   15.6760  -35.0840 C   0  0  0  0  0  0  0  0  0  0  0  0
   -2.4480   14.2890  -35.3150 C   0  0  0  0  0  0  0  0  0  0  0  0
   -3.6520   13.5910  -35.0600 C   0  0  0  0  0  0  0  0  0  0  0  0
   -4.7830   14.2690  -34.5720 C   0  0  0  0  0  0  0  0  0  0  0  0
   -4.6700   15.6430  -34.3550 C   0  0  0  0  0  0  0  0  0  0  0  0
   -5.5620   16.5780  -33.8830 C   0  0  0  0  0  0  0  0  0  0  0  0
   -6.8670   16.4610  -33.4580 C   0  0  0  0  0  0  0  0  0  0  0  0
   -7.5080   17.6220  -33.0040 C   0  0  0  0  0  0  0  0  0  0  0  0
   -6.8770   18.8620  -32.9880 N   0  0  0  0  0  0  0  0  0  0  0  0
   -7.5290   20.0130  -32.5520 C   0  0  0  0  0  0  0  0  0  0  0  0
   -8.9060   20.0210  -32.1840 C   0  0  0  0  0  0  0  0  0  0  0  0
   -9.5250   21.1720  -31.7030 C   0  0  0  0  0  0  0  0  0  0  0  0
   -8.8110   22.3530  -31.5840 C   0  0  0  0  0  0  0  0  0  0  0  0
   -7.4760   22.4020  -31.9660 C   0  0  0  0  0  0  0  0  0  0  0  0
   -6.8190   21.2560  -32.4700 C   0  0  0  0  0  0  0  0  0  0  0  0
   -6.1817   25.5661  -28.9970 H   0  0  0  0  0  0  0  0  0  0  0  0
   -6.3060   26.5533  -30.4926 H   0  0  0  0  0  0  0  0  0  0  0  0
   -6.8703   24.8479  -30.4926 H   0  0  0  0  0  0  0  0  0  0  0  0
   -4.5260   25.4242  -31.5420 H   0  0  0  0  0  0  0  0  0  0  0  0
   -3.9859   25.5125  -29.8221 H   0  0  0  0  0  0  0  0  0  0  0  0
   -6.0505   23.3922  -28.9100 H   0  0  0  0  0  0  0  0  0  0  0  0
   -4.9502   21.9842  -29.1470 H   0  0  0  0  0  0  0  0  0  0  0  0
   -4.4959   23.3859  -27.0614 H   0  0  0  0  0  0  0  0  0  0  0  0
   -3.0936   23.1618  -28.1614 H   0  0  0  0  0  0  0  0  0  0  0  0
   -3.9959   24.7150  -28.1614 H   0  0  0  0  0  0  0  0  0  0  0  0
   -2.6261   23.9851  -31.0617 H   0  0  0  0  0  0  0  0  0  0  0  0
   -2.8627   22.4936  -30.0838 H   0  0  0  0  0  0  0  0  0  0  0  0
   -2.5843   22.5695  -32.8462 H   0  0  0  0  0  0  0  0  0  0  0  0
   -3.3556   21.2310  -31.8975 H   0  0  0  0  0  0  0  0  0  0  0  0
   -4.4960   22.8630  -33.8250 H   0  0  0  0  0  0  0  0  0  0  0  0
   -5.2200   23.3110  -32.3930 H   0  0  0  0  0  0  0  0  0  0  0  0
   -3.8062   20.1882  -33.6777 H   0  0  0  0  0  0  0  0  0  0  0  0
   -2.8790   18.3630  -34.3940 H   0  0  0  0  0  0  0  0  0  0  0  0
   -1.4344   16.2290  -35.2792 H   0  0  0  0  0  0  0  0  0  0  0  0
   -1.5712   13.7450  -35.6961 H   0  0  0  0  0  0  0  0  0  0  0  0
   -3.7037   12.5079  -35.2452 H   0  0  0  0  0  0  0  0  0  0  0  0
   -5.7232   13.7355  -34.3685 H   0  0  0  0  0  0  0  0  0  0  0  0
   -7.3871   15.4919  -33.4743 H   0  0  0  0  0  0  0  0  0  0  0  0
   -8.5463   17.5503  -32.6479 H   0  0  0  0  0  0  0  0  0  0  0  0
   -9.4936   19.0963  -32.2822 H   0  0  0  0  0  0  0  0  0  0  0  0
  -10.5865   21.1432  -31.4161 H   0  0  0  0  0  0  0  0  0  0  0  0
   -9.3017   23.2536  -31.1864 H   0  0  0  0  0  0  0  0  0  0  0  0
   -6.9214   23.3476  -31.8748 H   0  0  0  0  0  0  0  0  0  0  0  0
  1  2  1  0
  2  3  1  0
  3  4  1  0
  4  5  1  0
  3  6  1  0
  6  7  1  0
  7  8  1  0
  8  9  1  0
  9 10  2  0
 10 11  1  0
 11 12  2  0
 12 13  1  0
 13 14  1  0
 14 15  2  0
 15 16  1  0
 16 17  2  0
 17 18  1  0
 18 19  2  0
 19 20  1  0
 20 21  2  0
 21 22  1  0
 22 23  2  0
 23 24  1  0
 24 25  2  0
 25 26  1  0
 26 27  2  0
 27 28  1  0
 28 29  2  0
 29  9  1  0
 23 11  1  0
 29 24  1  0
 20 12  1  0
 19 14  1  0
  1 30  1  0
  1 31  1  0
  1 32  1  0
  2 33  1  0
  2 34  1  0
  4 35  1  0
  4 36  1  0
  5 37  1  0
  5 38  1  0
  5 39  1  0
  6 40  1  0
  6 41  1  0
  7 42  1  0
  7 43  1  0
  8 44  1  0
  8 45  1  0
 10 46  1  0
 13 47  1  0
 15 48  1  0
 16 49  1  0
 17 50  1  0
 18 51  1  0
 21 52  1  0
 22 53  1  0
 25 54  1  0
 26 55  1  0
 27 56  1  0
 28 57  1  0
M  CHG  2   8   1  23   1
M  END
>  <UniqueID>  (14) 
14

>  <SMILES>  (14) 
CCN(CC)CC[NH2+]c1cc2c3[nH]c4ccccc4c3cc[n+]2c2ccccc12

>  <Energy>  (14) 
123.02593621876021

>  <Genealogy>  (14) 
CCN(CC)CC[NH2+]c1cc2c3[nH]c4ccccc4c3cc[n+]2c2ccccc12 (protonated)
CCN(CC)CC[NH2+]c1cc2c3[nH]c4ccccc4c3cc[n+]2c2ccccc12 (3D coordinates assigned)
CCN(CC)CC[NH2+]c1cc2c3[nH]c4ccccc4c3cc[n+]2c2ccccc12 (optimized conformer: 123.02593621876021 kcal/mol)

>  <smiles>  (14) 
CCN(CC)CCNc1cc2c3[nH]c4ccccc4c3cc[n+]2c2ccccc12

>  <score_type>  (14) 
oracle

>  <origin>  (14) 
adg

>  <m_score__min__energy>  (14) 
-8.4199999999999999

>  <m_primary>  (14) 
energy

$$$$
14:0
     RDKit          3D

 56 59  0  0  0  0  0  0  0  0999 V2000
   -3.9070   24.1620  -27.3290 C   0  0  0  0  0  0  0  0  0  0  0  0
   -4.5660   23.3840  -28.4650 C   0  0  0  0  0  0  0  0  0  0  0  0
   -3.5700   23.0660  -29.5130 N   0  0  0  0  0  0  0  0  0  0  0  0
   -3.4830   21.6040  -29.7440 C   0  0  0  0  0  0  0  0  0  0  0  0
   -2.0740   21.2230  -30.1890 C   0  0  0  0  0  0  0  0  0  0  0  0
   -3.8700   23.7870  -30.7720 C   0  0  0  0  0  0  0  0  0  0  0  0
   -5.3670   23.7010  -31.0840 C   0  0  0  0  0  0  0  0  0  0  0  0
   -5.5720   23.1280  -32.4120 N   0  0  0  0  0  0  0  0  0  0  0  0
   -5.7390   21.7120  -32.5930 C   0  0  0  0  0  0  0  0  0  0  0  0
   -6.9880   21.0940  -32.3970 C   0  0  0  0  0  0  0  0  0  0  0  0
   -8.1100   21.8440  -31.9830 C   0  0  0  0  0  0  0  0  0  0  0  0
   -9.3430   21.2300  -31.7830 C   0  0  0  0  0  0  0  0  0  0  0  0
   -9.4810   19.8620  -31.9880 C   0  0  0  0  0  0  0  0  0  0  0  0
   -8.3870   19.0960  -32.3870 C   0  0  0  0  0  0  0  0  0  0  0  0
   -7.1160   19.6890  -32.5960 C   0  0  0  0  0  0  0  0  0  0  0  0
   -6.0190   18.9370  -32.9800 N   0  0  0  0  0  0  0  0  0  0  0  0
   -6.1510   17.4770  -33.1780 C   0  0  0  0  0  0  0  0  0  0  0  0
   -4.8010   19.5460  -33.1810 C   0  0  0  0  0  0  0  0  0  0  0  0
   -3.7120   18.8250  -33.5750 N   0  0  0  0  0  0  0  0  0  0  0  0
   -2.4990   19.3990  -33.7950 C   0  0  0  0  0  0  0  0  0  0  0  0
   -1.3930   18.6270  -34.2000 C   0  0  0  0  0  0  0  0  0  0  0  0
   -1.5240   17.1420  -34.3960 C   0  0  0  0  0  0  0  0  0  0  0  0
   -0.1590   19.2640  -34.4220 C   0  0  0  0  0  0  0  0  0  0  0  0
   -0.0310   20.6460  -34.2430 C   0  0  0  0  0  0  0  0  0  0  0  0
   -1.1310   21.4080  -33.8400 C   0  0  0  0  0  0  0  0  0  0  0  0
   -2.3630   20.7870  -33.6170 C   0  0  0  0  0  0  0  0  0  0  0  0
   -3.4400   21.5150  -33.2250 N   0  0  0  0  0  0  0  0  0  0  0  0
   -4.6490   20.9350  -32.9930 C   0  0  0  0  0  0  0  0  0  0  0  0
   -4.2476   23.7599  -26.3634 H   0  0  0  0  0  0  0  0  0  0  0  0
   -2.8139   24.0628  -27.4025 H   0  0  0  0  0  0  0  0  0  0  0  0
   -4.1846   25.2239  -27.4025 H   0  0  0  0  0  0  0  0  0  0  0  0
   -4.9869   22.4484  -28.0681 H   0  0  0  0  0  0  0  0  0  0  0  0
   -5.3651   23.9991  -28.9045 H   0  0  0  0  0  0  0  0  0  0  0  0
   -3.7251   21.0738  -28.8111 H   0  0  0  0  0  0  0  0  0  0  0  0
   -4.1965   21.3224  -30.5324 H   0  0  0  0  0  0  0  0  0  0  0  0
   -1.4435   21.0525  -29.3039 H   0  0  0  0  0  0  0  0  0  0  0  0
   -2.1158   20.3039  -30.7919 H   0  0  0  0  0  0  0  0  0  0  0  0
   -1.6470   22.0379  -30.7919 H   0  0  0  0  0  0  0  0  0  0  0  0
   -3.5809   24.8429  -30.6643 H   0  0  0  0  0  0  0  0  0  0  0  0
   -3.3038   23.3259  -31.5946 H   0  0  0  0  0  0  0  0  0  0  0  0
   -5.8589   23.0647  -30.3335 H   0  0  0  0  0  0  0  0  0  0  0  0
   -5.7983   24.7126  -31.0584 H   0  0  0  0  0  0  0  0  0  0  0  0
   -5.8700   23.7720  -33.1800 H   0  0  0  0  0  0  0  0  0  0  0  0
   -8.0086   22.9266  -31.8165 H   0  0  0  0  0  0  0  0  0  0  0  0
  -10.2090   21.8277  -31.4625 H   0  0  0  0  0  0  0  0  0  0  0  0
  -10.4586   19.3816  -31.8345 H   0  0  0  0  0  0  0  0  0  0  0  0
   -8.5116   18.0142  -32.5422 H   0  0  0  0  0  0  0  0  0  0  0  0
   -6.1962   16.9769  -32.1993 H   0  0  0  0  0  0  0  0  0  0  0  0
   -7.0720   17.2651  -33.7410 H   0  0  0  0  0  0  0  0  0  0  0  0
   -5.2830   17.1034  -33.7410 H   0  0  0  0  0  0  0  0  0  0  0  0
   -1.5678   16.6452  -33.4156 H   0  0  0  0  0  0  0  0  0  0  0  0
   -2.4447   16.9261  -34.9579 H   0  0  0  0  0  0  0  0  0  0  0  0
   -0.6553   16.7683  -34.9579 H   0  0  0  0  0  0  0  0  0  0  0  0
    0.7120   18.6715  -34.7387 H   0  0  0  0  0  0  0  0  0  0  0  0
    0.9387   21.1342  -34.4201 H   0  0  0  0  0  0  0  0  0  0  0  0
   -1.0274   22.4939  -33.6987 H   0  0  0  0  0  0  0  0  0  0  0  0
  1  2  1  0
  2  3  1  0
  3  4  1  0
  4  5  1  0
  3  6  1  0
  6  7  1  0
  7  8  1  0
  8  9  1  0
  9 10  2  0
 10 11  1  0
 11 12  2  0
 12 13  1  0
 13 14  2  0
 14 15  1  0
 15 16  2  0
 16 17  1  0
 16 18  1  0
 18 19  2  0
 19 20  1  0
 20 21  2  0
 21 22  1  0
 21 23  1  0
 23 24  2  0
 24 25  1  0
 25 26  2  0
 26 27  1  0
 27 28  2  0
 28  9  1  0
 15 10  1  0
 28 18  1  0
 26 20  1  0
  1 29  1  0
  1 30  1  0
  1 31  1  0
  2 32  1  0
  2 33  1  0
  4 34  1  0
  4 35  1  0
  5 36  1  0
  5 37  1  0
  5 38  1  0
  6 39  1  0
  6 40  1  0
  7 41  1  0
  7 42  1  0
  8 43  1  0
 11 44  1  0
 12 45  1  0
 13 46  1  0
 14 47  1  0
 17 48  1  0
 17 49  1  0
 17 50  1  0
 22 51  1  0
 22 52  1  0
 22 53  1  0
 23 54  1  0
 24 55  1  0
 25 56  1  0
M  CHG  1  16   1
M  END
>  <UniqueID>  (15) 
15

>  <SMILES>  (15) 
CCN(CC)CCNc1c2ccccc2[n+](C)c2nc3c(C)cccc3nc12

>  <Energy>  (15) 
77.5318969118935

>  <Genealogy>  (15) 
CCN(CC)CCNc1c2ccccc2[n+](C)c2nc3c(C)cccc3nc12 (3D coordinates assigned)
CCN(CC)CCNc1c2ccccc2[n+](C)c2nc3c(C)cccc3nc12 (optimized conformer: 77.5318969118935 kcal/mol)

>  <smiles>  (15) 
CCN(CC)CCNc1c2ccccc2[n+](C)c2nc3c(C)cccc3nc12

>  <score_type>  (15) 
oracle

>  <origin>  (15) 
adg

>  <m_score__min__energy>  (15) 
-9.2799999999999994

>  <m_primary>  (15) 
energy

$$$$
15:0
     RDKit          3D

 51 53  0  0  0  0  0  0  0  0999 V2000
   -2.8460   21.0600  -32.4460 C   0  0  0  0  0  0  0  0  0  0  0  0
   -1.6520   21.5740  -31.6430 C   0  0  0  0  0  0  0  0  0  0  0  0
   -1.9970   21.8350  -30.1690 C   0  0  0  0  0  0  0  0  0  0  0  0
   -1.6090   23.2450  -29.7150 C   0  0  0  0  0  0  0  0  0  0  0  0
   -2.8120   23.9940  -29.3750 N   0  0  0  0  0  0  0  0  0  0  0  0
   -3.8750   24.2110  -30.3040 C   0  0  0  0  0  0  0  0  0  0  0  0
   -4.0150   25.3360  -30.8570 O   0  0  0  0  0  0  0  0  0  0  0  0
   -4.8390   23.0940  -30.6070 C   0  0  0  0  0  0  0  0  0  0  0  0
   -5.4450   23.2380  -32.0260 C   0  0  0  0  0  0  0  0  0  0  0  0
   -6.8290   23.9040  -31.9860 C   0  0  0  0  0  0  0  0  0  0  0  0
   -7.8080   23.1560  -31.1480 N   0  0  0  0  0  0  0  0  0  0  0  0
   -8.7170   22.3250  -31.9630 C   0  0  0  0  0  0  0  0  0  0  0  0
   -8.1320   20.9530  -32.1710 C   0  0  0  0  0  0  0  0  0  0  0  0
   -8.6640   19.8510  -31.4780 C   0  0  0  0  0  0  0  0  0  0  0  0
   -8.1360   18.5710  -31.6730 C   0  0  0  0  0  0  0  0  0  0  0  0
   -7.0750   18.3840  -32.5620 C   0  0  0  0  0  0  0  0  0  0  0  0
   -6.5200   19.4810  -33.2340 C   0  0  0  0  0  0  0  0  0  0  0  0
   -7.0550   20.7600  -33.0530 C   0  0  0  0  0  0  0  0  0  0  0  0
   -5.4290   19.2760  -34.0850 O   0  0  0  0  0  0  0  0  0  0  0  0
   -4.7030   18.0430  -34.0690 C   0  0  0  0  0  0  0  0  0  0  0  0
   -5.6650   16.8620  -33.8900 C   0  0  0  0  0  0  0  0  0  0  0  0
   -6.5530   17.1080  -32.7950 O   0  0  0  0  0  0  0  0  0  0  0  0
   -7.1920   22.3470  -30.0670 C   0  0  0  0  0  0  0  0  0  0  0  0
   -5.9260   23.0090  -29.5130 C   0  0  0  0  0  0  0  0  0  0  0  0
   -3.6331   20.7211  -31.7564 H   0  0  0  0  0  0  0  0  0  0  0  0
   -3.2374   21.8694  -33.0799 H   0  0  0  0  0  0  0  0  0  0  0  0
   -2.5271   20.2195  -33.0799 H   0  0  0  0  0  0  0  0  0  0  0  0
   -0.8482   20.8245  -31.6889 H   0  0  0  0  0  0  0  0  0  0  0  0
   -1.3411   22.5316  -32.0861 H   0  0  0  0  0  0  0  0  0  0  0  0
   -3.0809   21.7066  -30.0327 H   0  0  0  0  0  0  0  0  0  0  0  0
   -1.4244   21.1194  -29.5607 H   0  0  0  0  0  0  0  0  0  0  0  0
   -0.9562   23.1793  -28.8321 H   0  0  0  0  0  0  0  0  0  0  0  0
   -1.0751   23.7582  -30.5284 H   0  0  0  0  0  0  0  0  0  0  0  0
   -4.2846   22.1439  -30.5994 H   0  0  0  0  0  0  0  0  0  0  0  0
   -4.7711   23.8523  -32.6412 H   0  0  0  0  0  0  0  0  0  0  0  0
   -5.5603   22.2314  -32.4543 H   0  0  0  0  0  0  0  0  0  0  0  0
   -6.7186   24.9186  -31.5756 H   0  0  0  0  0  0  0  0  0  0  0  0
   -7.2182   23.9188  -33.0147 H   0  0  0  0  0  0  0  0  0  0  0  0
   -9.6836   22.2320  -31.4463 H   0  0  0  0  0  0  0  0  0  0  0  0
   -8.8559   22.8052  -32.9429 H   0  0  0  0  0  0  0  0  0  0  0  0
   -9.5003   19.9968  -30.7785 H   0  0  0  0  0  0  0  0  0  0  0  0
   -8.5554   17.7129  -31.1273 H   0  0  0  0  0  0  0  0  0  0  0  0
   -6.6329   21.6153  -33.6010 H   0  0  0  0  0  0  0  0  0  0  0  0
   -4.1607   17.9287  -35.0192 H   0  0  0  0  0  0  0  0  0  0  0  0
   -3.9925   18.0566  -33.2293 H   0  0  0  0  0  0  0  0  0  0  0  0
   -6.2520   16.7290  -34.8107 H   0  0  0  0  0  0  0  0  0  0  0  0
   -5.0817   15.9531  -33.6812 H   0  0  0  0  0  0  0  0  0  0  0  0
   -7.9197   22.2307  -29.2503 H   0  0  0  0  0  0  0  0  0  0  0  0
   -6.9113   21.3703  -30.4880 H   0  0  0  0  0  0  0  0  0  0  0  0
   -6.1702   24.0236  -29.1653 H   0  0  0  0  0  0  0  0  0  0  0  0
   -5.5441   22.4043  -28.6773 H   0  0  0  0  0  0  0  0  0  0  0  0
  1  2  1  0
  2  3  1  0
  3  4  1  0
  4  5  1  0
  5  6  1  0
  6  7  2  0
  6  8  1  0
  8  9  1  0
  9 10  1  0
 10 11  1  0
 11 12  1  0
 12 13  1  0
 13 14  2  0
 14 15  1  0
 15 16  2  0
 16 17  1  0
 17 18  2  0
 17 19  1  0
 19 20  1  0
 20 21  1  0
 21 22  1  0
 11 23  1  0
 23 24  1  0
 24  8  1  0
 18 13  1  0
 22 16  1  0
  1 25  1  0
  1 26  1  0
  1 27  1  0
  2 28  1  0
  2 29  1  0
  3 30  1  0
  3 31  1  0
  4 32  1  0
  4 33  1  0
  8 34  1  0
  9 35  1  0
  9 36  1  0
 10 37  1  0
 10 38  1  0
 12 39  1  0
 12 40  1  0
 14 41  1  0
 15 42  1  0
 18 43  1  0
 20 44  1  0
 20 45  1  0
 21 46  1  0
 21 47  1  0
 23 48  1  0
 23 49  1  0
 24 50  1  0
 24 51  1  0
M  CHG  1   5  -1
M  END
>  <UniqueID>  (16) 
16

>  <SMILES>  (16) 
CCCC[N-]C(=O)C1CCN(Cc2ccc3c(c2)OCCO3)CC1

>  <Energy>  (16) 
51.156032208440045

>  <Genealogy>  (16) 
CCCC[N-]C(=O)C1CCN(Cc2ccc3c(c2)OCCO3)CC1 (protonated)
CCCC[N-]C(=O)C1CCN(Cc2ccc3c(c2)OCCO3)CC1 (3D coordinates assigned)
CCCC[N-]C(=O)C1CCN(Cc2ccc3c(c2)OCCO3)CC1 (nonaromatic ring conformer: 51.156032208440045 kcal/mol)

>  <smiles>  (16) 
CCCCNC(=O)C1CCN(Cc2ccc3c(c2)OCCO3)CC1

>  <score_type>  (16) 
oracle

>  <origin>  (16) 
adg

>  <m_score__min__energy>  (16) 
-10.130000000000001

>  <m_primary>  (16) 
energy

$$$$
16:0
     RDKit          3D

 68 69  0  0  0  0  0  0  0  0999 V2000
   -5.8000   17.5550  -34.5570 C   0  0  0  0  0  0  0  0  0  0  0  0
   -5.4250   19.0050  -34.2090 C   0  0  0  0  0  0  0  0  0  0  0  0
   -6.0000   19.4990  -32.9310 N   0  0  0  0  0  0  0  0  0  0  0  0
   -5.0140   20.2510  -32.1230 C   0  0  0  0  0  0  0  0  0  0  0  0
   -4.1150   21.0740  -33.0400 C   0  0  0  0  0  0  0  0  0  0  0  0
   -6.7180   18.4780  -32.1300 C   0  0  0  0  0  0  0  0  0  0  0  0
   -8.2370   18.7220  -32.0800 C   0  0  0  0  0  0  0  0  0  0  0  0
   -8.6320   19.8810  -32.9030 N   0  0  0  0  0  0  0  0  0  0  0  0
   -9.7190   20.6710  -32.2950 C   0  0  0  0  0  0  0  0  0  0  0  0
   -9.4610   22.1940  -32.3100 C   0  0  0  0  0  0  0  0  0  0  0  0
   -8.1680   22.5820  -31.6330 C   0  0  0  0  0  0  0  0  0  0  0  0
   -7.1490   23.2230  -32.3530 C   0  0  0  0  0  0  0  0  0  0  0  0
   -5.9450   23.5600  -31.7280 C   0  0  0  0  0  0  0  0  0  0  0  0
   -5.7430   23.2780  -30.3650 C   0  0  0  0  0  0  0  0  0  0  0  0
   -4.4530   23.6060  -29.7050 C   0  0  0  0  0  0  0  0  0  0  0  0
   -3.2320   23.3040  -30.3360 C   0  0  0  0  0  0  0  0  0  0  0  0
   -2.0190   23.6210  -29.7210 C   0  0  0  0  0  0  0  0  0  0  0  0
   -2.0010   24.2510  -28.4700 C   0  0  0  0  0  0  0  0  0  0  0  0
   -0.4650   24.6670  -27.7020 S   0  0  0  0  0  0  0  0  0  0  0  0
   -0.3370   26.1620  -27.6240 O   0  0  0  0  0  0  0  0  0  0  0  0
    0.6550   24.1660  -28.5730 O   0  0  0  0  0  0  0  0  0  0  0  0
   -0.3220   23.9790  -26.0900 N   0  0  0  0  0  0  0  0  0  0  0  0
   -0.9730   24.8320  -25.0730 C   0  0  0  0  0  0  0  0  0  0  0  0
    0.0270   25.7700  -24.4010 C   0  0  0  0  0  0  0  0  0  0  0  0
   -0.8570   22.6000  -26.0650 C   0  0  0  0  0  0  0  0  0  0  0  0
   -0.1020   21.7350  -27.0690 C   0  0  0  0  0  0  0  0  0  0  0  0
   -3.2130   24.5470  -27.8330 C   0  0  0  0  0  0  0  0  0  0  0  0
   -4.4290   24.2290  -28.4450 C   0  0  0  0  0  0  0  0  0  0  0  0
   -6.7820   22.6680  -29.6380 C   0  0  0  0  0  0  0  0  0  0  0  0
   -7.9830   22.3300  -30.2640 C   0  0  0  0  0  0  0  0  0  0  0  0
   -5.9482   16.9820  -33.6298 H   0  0  0  0  0  0  0  0  0  0  0  0
   -6.7296   17.5477  -35.1451 H   0  0  0  0  0  0  0  0  0  0  0  0
   -4.9905   17.0980  -35.1451 H   0  0  0  0  0  0  0  0  0  0  0  0
   -4.3290   19.0698  -34.1407 H   0  0  0  0  0  0  0  0  0  0  0  0
   -5.8437   19.6370  -35.0061 H   0  0  0  0  0  0  0  0  0  0  0  0
   -5.5444   20.9231  -31.4323 H   0  0  0  0  0  0  0  0  0  0  0  0
   -4.3976   19.5424  -31.5503 H   0  0  0  0  0  0  0  0  0  0  0  0
   -3.4390   21.6929  -32.4317 H   0  0  0  0  0  0  0  0  0  0  0  0
   -3.5224   20.3989  -33.6748 H   0  0  0  0  0  0  0  0  0  0  0  0
   -4.7353   21.7238  -33.6748 H   0  0  0  0  0  0  0  0  0  0  0  0
   -6.5350   17.4889  -32.5752 H   0  0  0  0  0  0  0  0  0  0  0  0
   -6.3381   18.5370  -31.0994 H   0  0  0  0  0  0  0  0  0  0  0  0
   -8.7542   17.8263  -32.4545 H   0  0  0  0  0  0  0  0  0  0  0  0
   -8.5159   18.9318  -31.0368 H   0  0  0  0  0  0  0  0  0  0  0  0
   -8.9770   19.5490  -33.8340 H   0  0  0  0  0  0  0  0  0  0  0  0
   -7.7980   20.4920  -33.0730 H   0  0  0  0  0  0  0  0  0  0  0  0
  -10.6471   20.4702  -32.8503 H   0  0  0  0  0  0  0  0  0  0  0  0
   -9.7876   20.3663  -31.2403 H   0  0  0  0  0  0  0  0  0  0  0  0
   -9.4240   22.5326  -33.3559 H   0  0  0  0  0  0  0  0  0  0  0  0
  -10.2799   22.6711  -31.7516 H   0  0  0  0  0  0  0  0  0  0  0  0
   -7.2984   23.4620  -33.4163 H   0  0  0  0  0  0  0  0  0  0  0  0
   -5.1485   24.0500  -32.3072 H   0  0  0  0  0  0  0  0  0  0  0  0
   -3.2331   22.8145  -31.3211 H   0  0  0  0  0  0  0  0  0  0  0  0
   -1.0714   23.3744  -30.2222 H   0  0  0  0  0  0  0  0  0  0  0  0
   -1.7551   25.4335  -25.5594 H   0  0  0  0  0  0  0  0  0  0  0  0
   -1.4033   24.1779  -24.3004 H   0  0  0  0  0  0  0  0  0  0  0  0
   -0.0658   25.6830  -23.3084 H   0  0  0  0  0  0  0  0  0  0  0  0
    1.0480   25.4963  -24.7053 H   0  0  0  0  0  0  0  0  0  0  0  0
   -0.1809   26.8064  -24.7053 H   0  0  0  0  0  0  0  0  0  0  0  0
   -0.7352   22.1792  -25.0560 H   0  0  0  0  0  0  0  0  0  0  0  0
   -1.9239   22.6193  -26.3320 H   0  0  0  0  0  0  0  0  0  0  0  0
    0.5284   21.0127  -26.5297 H   0  0  0  0  0  0  0  0  0  0  0  0
   -0.8216   21.1936  -27.7007 H   0  0  0  0  0  0  0  0  0  0  0  0
    0.5317   22.3748  -27.7007 H   0  0  0  0  0  0  0  0  0  0  0  0
   -3.2079   25.0323  -26.8459 H   0  0  0  0  0  0  0  0  0  0  0  0
   -5.3747   24.4682  -27.9365 H   0  0  0  0  0  0  0  0  0  0  0  0
   -6.6466   22.4557  -28.5672 H   0  0  0  0  0  0  0  0  0  0  0  0
   -8.7903   21.8629  -29.6808 H   0  0  0  0  0  0  0  0  0  0  0  0
  1  2  1  0
  2  3  1  0
  3  4  1  0
  4  5  1  0
  3  6  1  0
  6  7  1  0
  7  8  1  0
  8  9  1  0
  9 10  1  0
 10 11  1  0
 11 12  2  0
 12 13  1  0
 13 14  2  0
 14 15  1  0
 15 16  2  0
 16 17  1  0
 17 18  2  0
 18 19  1  0
 19 20  2  0
 19 21  2  0
 19 22  1  0
 22 23  1  0
 23 24  1  0
 22 25  1  0
 25 26  1  0
 18 27  1  0
 27 28  2  0
 14 29  1  0
 29 30  2  0
 30 11  1  0
 28 15  1  0
  1 31  1  0
  1 32  1  0
  1 33  1  0
  2 34  1  0
  2 35  1  0
  4 36  1  0
  4 37  1  0
  5 38  1  0
  5 39  1  0
  5 40  1  0
  6 41  1  0
  6 42  1  0
  7 43  1  0
  7 44  1  0
  8 45  1  0
  8 46  1  0
  9 47  1  0
  9 48  1  0
 10 49  1  0
 10 50  1  0
 12 51  1  0
 13 52  1  0
 16 53  1  0
 17 54  1  0
 23 55  1  0
 23 56  1  0
 24 57  1  0
 24 58  1  0
 24 59  1  0
 25 60  1  0
 25 61  1  0
 26 62  1  0
 26 63  1  0
 26 64  1  0
 27 65  1  0
 28 66  1  0
 29 67  1  0
 30 68  1  0
M  CHG  1   8   1
M  END
>  <UniqueID>  (17) 
17

>  <SMILES>  (17) 
CCN(CC)CC[NH2+]CCc1ccc(-c2ccc(S(=O)(=O)N(CC)CC)cc2)cc1

>  <Energy>  (17) 
72.18696451672928

>  <Genealogy>  (17) 
CCN(CC)CC[NH2+]CCc1ccc(-c2ccc(S(=O)(=O)N(CC)CC)cc2)cc1 (protonated)
CCN(CC)CC[NH2+]CCc1ccc(-c2ccc(S(=O)(=O)N(CC)CC)cc2)cc1 (3D coordinates assigned)
CCN(CC)CC[NH2+]CCc1ccc(-c2ccc(S(=O)(=O)N(CC)CC)cc2)cc1 (optimized conformer: 72.18696451672928 kcal/mol)

>  <smiles>  (17) 
CCN(CC)CCNCCc1ccc(-c2ccc(S(=O)(=O)N(CC)CC)cc2)cc1

>  <score_type>  (17) 
oracle

>  <origin>  (17) 
adg

>  <m_score__min__energy>  (17) 
-8.3000000000000007

>  <m_primary>  (17) 
energy

$$$$
17:0
     RDKit          3D

 58 60  0  0  0  0  0  0  0  0999 V2000
   -5.4960   19.1520  -32.1010 O   0  0  0  0  0  0  0  0  0  0  0  0
   -6.2940   19.6500  -32.9410 C   0  0  0  0  0  0  0  0  0  0  0  0
   -6.2970   19.1550  -34.2920 N   0  0  0  0  0  0  0  0  0  0  0  0
   -5.3440   18.1540  -34.7720 C   0  0  0  0  0  0  0  0  0  0  0  0
   -5.7670   16.7490  -34.3340 C   0  0  0  0  0  0  0  0  0  0  0  0
   -4.6060   15.9610  -33.7060 C   0  0  0  0  0  0  0  0  0  0  0  0
   -3.8810   16.7770  -32.7210 N   0  0  0  0  0  0  0  0  0  0  0  0
   -2.4280   16.8260  -32.9690 C   0  0  0  0  0  0  0  0  0  0  0  0
   -2.0520   18.1500  -33.6340 C   0  0  0  0  0  0  0  0  0  0  0  0
   -2.7120   19.2680  -32.9460 N   0  0  0  0  0  0  0  0  0  0  0  0
   -2.9160   20.4120  -33.8490 C   0  0  0  0  0  0  0  0  0  0  0  0
   -3.6410   21.5480  -33.1220 C   0  0  0  0  0  0  0  0  0  0  0  0
   -3.6590   21.3010  -31.6800 N   0  0  0  0  0  0  0  0  0  0  0  0
   -3.0180   22.1930  -30.7510 C   0  0  0  0  0  0  0  0  0  0  0  0
   -3.8560   23.0690  -30.0370 C   0  0  0  0  0  0  0  0  0  0  0  0
   -3.5400   24.0170  -29.0690 C   0  0  0  0  0  0  0  0  0  0  0  0
   -2.2770   24.3310  -28.6040 C   0  0  0  0  0  0  0  0  0  0  0  0
   -2.0020   25.2910  -27.6530 C   0  0  0  0  0  0  0  0  0  0  0  0
   -0.6310   25.3160  -27.4870 C   0  0  0  0  0  0  0  0  0  0  0  0
   -0.0170   24.4160  -28.2820 N   0  0  0  0  0  0  0  0  0  0  0  0
   -0.9870   23.7920  -28.9780 C   0  0  0  0  0  0  0  0  0  0  0  0
   -0.7060   22.7830  -29.8810 C   0  0  0  0  0  0  0  0  0  0  0  0
   -1.6210   22.0680  -30.6500 C   0  0  0  0  0  0  0  0  0  0  0  0
   -7.2290   20.7190  -32.5030 C   0  0  0  0  0  0  0  0  0  0  0  0
   -6.7960   22.0440  -32.2970 C   0  0  0  0  0  0  0  0  0  0  0  0
   -7.7050   23.0340  -31.9070 C   0  0  0  0  0  0  0  0  0  0  0  0
   -9.0500   22.7150  -31.7080 C   0  0  0  0  0  0  0  0  0  0  0  0
   -9.4900   21.4020  -31.8910 C   0  0  0  0  0  0  0  0  0  0  0  0
   -8.5870   20.4090  -32.2810 C   0  0  0  0  0  0  0  0  0  0  0  0
   -7.0540   19.4370  -34.9510 H   0  0  0  0  0  0  0  0  0  0  0  0
   -5.3027   18.1925  -35.8706 H   0  0  0  0  0  0  0  0  0  0  0  0
   -4.3547   18.3745  -34.3446 H   0  0  0  0  0  0  0  0  0  0  0  0
   -6.5760   16.8374  -33.5940 H   0  0  0  0  0  0  0  0  0  0  0  0
   -6.1001   16.2029  -35.2289 H   0  0  0  0  0  0  0  0  0  0  0  0
   -5.0079   15.0676  -33.2057 H   0  0  0  0  0  0  0  0  0  0  0  0
   -3.9059   15.6760  -34.5052 H   0  0  0  0  0  0  0  0  0  0  0  0
   -4.2560   17.7540  -32.7950 H   0  0  0  0  0  0  0  0  0  0  0  0
   -1.8925   16.7345  -32.0125 H   0  0  0  0  0  0  0  0  0  0  0  0
   -2.1488   15.9967  -33.6356 H   0  0  0  0  0  0  0  0  0  0  0  0
   -0.9615   18.2852  -33.5838 H   0  0  0  0  0  0  0  0  0  0  0  0
   -2.3797   18.1305  -34.6839 H   0  0  0  0  0  0  0  0  0  0  0  0
   -3.6510   18.9350  -32.6270 H   0  0  0  0  0  0  0  0  0  0  0  0
   -1.9387   20.7736  -34.2013 H   0  0  0  0  0  0  0  0  0  0  0  0
   -3.5304   20.0866  -34.7014 H   0  0  0  0  0  0  0  0  0  0  0  0
   -3.1201   22.4962  -33.3209 H   0  0  0  0  0  0  0  0  0  0  0  0
   -4.6770   21.6019  -33.4878 H   0  0  0  0  0  0  0  0  0  0  0  0
   -3.8300   20.3140  -31.3770 H   0  0  0  0  0  0  0  0  0  0  0  0
   -4.9257   22.9926  -30.2818 H   0  0  0  0  0  0  0  0  0  0  0  0
   -4.3809   24.5732  -28.6290 H   0  0  0  0  0  0  0  0  0  0  0  0
   -2.7359   25.9184  -27.1261 H   0  0  0  0  0  0  0  0  0  0  0  0
   -0.1049   25.9871  -26.7922 H   0  0  0  0  0  0  0  0  0  0  0  0
    0.3540   22.5165  -30.0053 H   0  0  0  0  0  0  0  0  0  0  0  0
   -1.1807   21.2799  -31.2785 H   0  0  0  0  0  0  0  0  0  0  0  0
   -5.7368   22.3018  -32.4437 H   0  0  0  0  0  0  0  0  0  0  0  0
   -7.3588   24.0672  -31.7566 H   0  0  0  0  0  0  0  0  0  0  0  0
   -9.7625   23.4973  -31.4073 H   0  0  0  0  0  0  0  0  0  0  0  0
  -10.5481   21.1493  -31.7280 H   0  0  0  0  0  0  0  0  0  0  0  0
   -8.9388   19.3756  -32.4161 H   0  0  0  0  0  0  0  0  0  0  0  0
  1  2  2  0
  2  3  1  0
  3  4  1  0
  4  5  1  0
  5  6  1  0
  6  7  1  0
  7  8  1  0
  8  9  1  0
  9 10  1  0
 10 11  1  0
 11 12  1  0
 12 13  1  0
 13 14  1  0
 14 15  2  0
 15 16  1  0
 16 17  2  0
 17 18  1  0
 18 19  2  0
 19 20  1  0
 20 21  2  0
 21 22  1  0
 22 23  2  0
  2 24  1  0
 24 25  2  0
 25 26  1  0
 26 27  2  0
 27 28  1  0
 28 29  2  0
 23 14  1  0
 29 24  1  0
 21 17  1  0
  3 30  1  0
  4 31  1  0
  4 32  1  0
  5 33  1  0
  5 34  1  0
  6 35  1  0
  6 36  1  0
  7 37  1  0
  8 38  1  0
  8 39  1  0
  9 40  1  0
  9 41  1  0
 10 42  1  0
 11 43  1  0
 11 44  1  0
 12 45  1  0
 12 46  1  0
 13 47  1  0
 15 48  1  0
 16 49  1  0
 18 50  1  0
 19 51  1  0
 22 52  1  0
 23 53  1  0
 25 54  1  0
 26 55  1  0
 27 56  1  0
 28 57  1  0
 29 58  1  0
M  END
>  <UniqueID>  (18) 
18

>  <SMILES>  (18) 
O=C(NCCCNCCNCCNc1ccc2ccnc-2cc1)c1ccccc1

>  <Energy>  (18) 
87.07525327893579

>  <Genealogy>  (18) 
O=C(NCCCNCCNCCNc1ccc2ccnc-2cc1)c1ccccc1 (3D coordinates assigned)
O=C(NCCCNCCNCCNc1ccc2ccnc-2cc1)c1ccccc1 (optimized conformer: 87.07525327893579 kcal/mol)

>  <smiles>  (18) 
O=C(NCCCNCCNCCNc1ccc2ccnc-2cc1)c1ccccc1

>  <score_type>  (18) 
oracle

>  <origin>  (18) 
adg

>  <m_score__min__energy>  (18) 
-8.1500000000000004

>  <m_primary>  (18) 
energy

$$$$
18:0
     RDKit          3D

 67 69  0  0  0  0  0  0  0  0999 V2000
   -6.5000   24.9200  -30.1480 C   0  0  0  0  0  0  0  0  0  0  0  0
   -5.1530   25.5640  -30.4630 C   0  0  0  0  0  0  0  0  0  0  0  0
   -4.1080   24.5180  -30.5080 N   0  0  0  0  0  0  0  0  0  0  0  0
   -3.1820   24.5800  -29.3490 C   0  0  0  0  0  0  0  0  0  0  0  0
   -3.8080   24.1200  -28.0260 C   0  0  0  0  0  0  0  0  0  0  0  0
   -4.6750   23.1780  -30.7850 C   0  0  0  0  0  0  0  0  0  0  0  0
   -3.9110   22.4590  -31.9070 C   0  0  0  0  0  0  0  0  0  0  0  0
   -4.7730   22.2610  -33.0830 N   0  0  0  0  0  0  0  0  0  0  0  0
   -5.4010   20.9480  -33.0360 C   0  0  0  0  0  0  0  0  0  0  0  0
   -6.7650   20.8130  -32.6600 C   0  0  0  0  0  0  0  0  0  0  0  0
   -7.5270   21.9210  -32.2100 C   0  0  0  0  0  0  0  0  0  0  0  0
   -8.8840   21.7940  -31.9300 C   0  0  0  0  0  0  0  0  0  0  0  0
   -9.5180   20.5730  -32.0920 C   0  0  0  0  0  0  0  0  0  0  0  0
   -8.7880   19.4550  -32.4850 C   0  0  0  0  0  0  0  0  0  0  0  0
   -7.3900   19.5360  -32.7270 C   0  0  0  0  0  0  0  0  0  0  0  0
   -6.6490   18.4120  -33.0330 N   0  0  0  0  0  0  0  0  0  0  0  0
   -7.2290   17.0680  -32.8060 C   0  0  0  0  0  0  0  0  0  0  0  0
   -5.3520   18.5350  -33.4890 C   0  0  0  0  0  0  0  0  0  0  0  0
   -4.6590   17.4290  -34.0430 C   0  0  0  0  0  0  0  0  0  0  0  0
   -3.3170   17.5200  -34.4000 C   0  0  0  0  0  0  0  0  0  0  0  0
   -2.6210   18.7120  -34.2190 C   0  0  0  0  0  0  0  0  0  0  0  0
   -1.1470   18.7790  -34.5400 C   0  0  0  0  0  0  0  0  0  0  0  0
   -0.6330   20.1590  -34.3890 N   0  0  0  0  0  0  0  0  0  0  0  0
    0.2170   20.5570  -35.5430 C   0  0  0  0  0  0  0  0  0  0  0  0
    0.2850   22.0760  -35.6320 C   0  0  0  0  0  0  0  0  0  0  0  0
    0.0910   20.2950  -33.1070 C   0  0  0  0  0  0  0  0  0  0  0  0
   -0.6800   21.1920  -32.1370 C   0  0  0  0  0  0  0  0  0  0  0  0
   -3.2980   19.8350  -33.7310 C   0  0  0  0  0  0  0  0  0  0  0  0
   -4.6800   19.7860  -33.4180 C   0  0  0  0  0  0  0  0  0  0  0  0
   -6.6305   24.8576  -29.0576 H   0  0  0  0  0  0  0  0  0  0  0  0
   -7.3077   25.5294  -30.5797 H   0  0  0  0  0  0  0  0  0  0  0  0
   -6.5329   23.9088  -30.5797 H   0  0  0  0  0  0  0  0  0  0  0  0
   -5.2073   26.0709  -31.4377 H   0  0  0  0  0  0  0  0  0  0  0  0
   -4.9049   26.2985  -29.6826 H   0  0  0  0  0  0  0  0  0  0  0  0
   -2.3154   23.9374  -29.5637 H   0  0  0  0  0  0  0  0  0  0  0  0
   -2.9037   25.6363  -29.2196 H   0  0  0  0  0  0  0  0  0  0  0  0
   -3.2369   24.5396  -27.1847 H   0  0  0  0  0  0  0  0  0  0  0  0
   -4.8498   24.4690  -27.9724 H   0  0  0  0  0  0  0  0  0  0  0  0
   -3.7861   23.0215  -27.9724 H   0  0  0  0  0  0  0  0  0  0  0  0
   -4.6187   22.5708  -29.8695 H   0  0  0  0  0  0  0  0  0  0  0  0
   -5.7183   23.3072  -31.1086 H   0  0  0  0  0  0  0  0  0  0  0  0
   -3.0401   23.0655  -32.1963 H   0  0  0  0  0  0  0  0  0  0  0  0
   -3.5868   21.4748  -31.5380 H   0  0  0  0  0  0  0  0  0  0  0  0
   -5.4870   23.0200  -33.1420 H   0  0  0  0  0  0  0  0  0  0  0  0
   -4.2290   22.3870  -33.9640 H   0  0  0  0  0  0  0  0  0  0  0  0
   -7.0371   22.8973  -32.0801 H   0  0  0  0  0  0  0  0  0  0  0  0
   -9.4552   22.6660  -31.5789 H   0  0  0  0  0  0  0  0  0  0  0  0
  -10.5994   20.4869  -31.9099 H   0  0  0  0  0  0  0  0  0  0  0  0
   -9.3027   18.4910  -32.6106 H   0  0  0  0  0  0  0  0  0  0  0  0
   -7.3096   16.8812  -31.7250 H   0  0  0  0  0  0  0  0  0  0  0  0
   -8.2287   17.0182  -33.2622 H   0  0  0  0  0  0  0  0  0  0  0  0
   -6.5794   16.3065  -33.2622 H   0  0  0  0  0  0  0  0  0  0  0  0
   -5.1932   16.4793  -34.1937 H   0  0  0  0  0  0  0  0  0  0  0  0
   -2.8037   16.6459  -34.8272 H   0  0  0  0  0  0  0  0  0  0  0  0
   -0.5993   18.1143  -33.8557 H   0  0  0  0  0  0  0  0  0  0  0  0
   -1.0010   18.4630  -35.5835 H   0  0  0  0  0  0  0  0  0  0  0  0
    1.2310   20.1531  -35.4065 H   0  0  0  0  0  0  0  0  0  0  0  0
   -0.2185   20.1573  -36.4707 H   0  0  0  0  0  0  0  0  0  0  0  0
    0.3041   22.5022  -34.6181 H   0  0  0  0  0  0  0  0  0  0  0  0
    1.1973   22.3712  -36.1711 H   0  0  0  0  0  0  0  0  0  0  0  0
   -0.5972   22.4516  -36.1711 H   0  0  0  0  0  0  0  0  0  0  0  0
    0.2147   19.2994  -32.6559 H   0  0  0  0  0  0  0  0  0  0  0  0
    1.0719   20.7521  -33.3042 H   0  0  0  0  0  0  0  0  0  0  0  0
   -0.4361   20.9083  -31.1026 H   0  0  0  0  0  0  0  0  0  0  0  0
   -0.3980   22.2418  -32.3055 H   0  0  0  0  0  0  0  0  0  0  0  0
   -1.7603   21.0709  -32.3055 H   0  0  0  0  0  0  0  0  0  0  0  0
   -2.7464   20.7758  -33.5871 H   0  0  0  0  0  0  0  0  0  0  0  0
  1  2  1  0
  2  3  1  0
  3  4  1  0
  4  5  1  0
  3  6  1  0
  6  7  1  0
  7  8  1  0
  8  9  1  0
  9 10  2  0
 10 11  1  0
 11 12  2  0
 12 13  1  0
 13 14  2  0
 14 15  1  0
 15 16  2  0
 16 17  1  0
 16 18  1  0
 18 19  2  0
 19 20  1  0
 20 21  2  0
 21 22  1  0
 22 23  1  0
 23 24  1  0
 24 25  1  0
 23 26  1  0
 26 27  1  0
 21 28  1  0
 28 29  2  0
 29  9  1  0
 15 10  1  0
 29 18  1  0
  1 30  1  0
  1 31  1  0
  1 32  1  0
  2 33  1  0
  2 34  1  0
  4 35  1  0
  4 36  1  0
  5 37  1  0
  5 38  1  0
  5 39  1  0
  6 40  1  0
  6 41  1  0
  7 42  1  0
  7 43  1  0
  8 44  1  0
  8 45  1  0
 11 46  1  0
 12 47  1  0
 13 48  1  0
 14 49  1  0
 17 50  1  0
 17 51  1  0
 17 52  1  0
 19 53  1  0
 20 54  1  0
 22 55  1  0
 22 56  1  0
 24 57  1  0
 24 58  1  0
 25 59  1  0
 25 60  1  0
 25 61  1  0
 26 62  1  0
 26 63  1  0
 27 64  1  0
 27 65  1  0
 27 66  1  0
 28 67  1  0
M  CHG  2   8   1  16   1
M  END
>  <UniqueID>  (19) 
19

>  <SMILES>  (19) 
CCN(CC)CC[NH2+]c1c2ccccc2[n+](C)c2ccc(CN(CC)CC)cc12

>  <Energy>  (19) 
95.08373242410099

>  <Genealogy>  (19) 
CCN(CC)CC[NH2+]c1c2ccccc2[n+](C)c2ccc(CN(CC)CC)cc12 (protonated)
CCN(CC)CC[NH2+]c1c2ccccc2[n+](C)c2ccc(CN(CC)CC)cc12 (3D coordinates assigned)
CCN(CC)CC[NH2+]c1c2ccccc2[n+](C)c2ccc(CN(CC)CC)cc12 (optimized conformer: 95.08373242410099 kcal/mol)

>  <smiles>  (19) 
CCN(CC)CCNc1c2ccccc2[n+](C)c2ccc(CN(CC)CC)cc12

>  <score_type>  (19) 
oracle

>  <origin>  (19) 
adg

>  <m_score__min__energy>  (19) 
-8.3699999999999992

>  <m_primary>  (19) 
energy

$$$$
19:0
     RDKit          3D

 42 43  0  0  0  0  0  0  0  0999 V2000
   -1.8550   25.2540  -27.3940 C   0  0  0  0  0  0  0  0  0  0  0  0
   -3.0620   24.3710  -27.1920 C   0  0  0  0  0  0  0  0  0  0  0  0
   -4.2340   24.9270  -26.4270 C   0  0  0  0  0  0  0  0  0  0  0  0
   -3.1190   23.1200  -27.6990 C   0  0  0  0  0  0  0  0  0  0  0  0
   -4.2100   22.6610  -28.6330 C   0  0  0  0  0  0  0  0  0  0  0  0
   -3.9800   23.1780  -29.9910 N   0  0  0  0  0  0  0  0  0  0  0  0
   -2.9550   22.5530  -30.8350 C   0  0  0  0  0  0  0  0  0  0  0  0
   -4.7160   24.3090  -30.5200 C   0  0  0  0  0  0  0  0  0  0  0  0
   -4.0950   25.3660  -30.8190 O   0  0  0  0  0  0  0  0  0  0  0  0
   -6.2030   24.2740  -30.7750 C   0  0  0  0  0  0  0  0  0  0  0  0
   -6.5260   23.6080  -32.1180 C   0  0  0  0  0  0  0  0  0  0  0  0
   -7.5180   22.5430  -31.9570 N   0  0  0  0  0  0  0  0  0  0  0  0
   -8.8210   22.7140  -31.6240 C   0  0  0  0  0  0  0  0  0  0  0  0
   -9.4960   21.4980  -31.6490 C   0  0  0  0  0  0  0  0  0  0  0  0
   -8.5510   20.5660  -32.0220 C   0  0  0  0  0  0  0  0  0  0  0  0
   -8.6800   19.1980  -32.2570 C   0  0  0  0  0  0  0  0  0  0  0  0
   -7.5390   18.4970  -32.6870 C   0  0  0  0  0  0  0  0  0  0  0  0
   -6.3130   19.1730  -32.8780 C   0  0  0  0  0  0  0  0  0  0  0  0
   -6.2150   20.5550  -32.6390 C   0  0  0  0  0  0  0  0  0  0  0  0
   -7.3620   21.2250  -32.2020 C   0  0  0  0  0  0  0  0  0  0  0  0
   -1.4497   25.5505  -26.4153 H   0  0  0  0  0  0  0  0  0  0  0  0
   -1.0875   24.7027  -27.9570 H   0  0  0  0  0  0  0  0  0  0  0  0
   -2.1480   26.1524  -27.9570 H   0  0  0  0  0  0  0  0  0  0  0  0
   -4.0434   24.8366  -25.3474 H   0  0  0  0  0  0  0  0  0  0  0  0
   -4.3724   25.9867  -26.6874 H   0  0  0  0  0  0  0  0  0  0  0  0
   -5.1423   24.3638  -26.6874 H   0  0  0  0  0  0  0  0  0  0  0  0
   -2.3334   22.4034  -27.4174 H   0  0  0  0  0  0  0  0  0  0  0  0
   -4.2223   21.5614  -28.6620 H   0  0  0  0  0  0  0  0  0  0  0  0
   -5.1745   23.0426  -28.2667 H   0  0  0  0  0  0  0  0  0  0  0  0
   -2.1896   22.0863  -30.1975 H   0  0  0  0  0  0  0  0  0  0  0  0
   -3.4211   21.7853  -31.4701 H   0  0  0  0  0  0  0  0  0  0  0  0
   -2.4859   23.3189  -31.4701 H   0  0  0  0  0  0  0  0  0  0  0  0
   -6.6910   23.7074  -29.9683 H   0  0  0  0  0  0  0  0  0  0  0  0
   -6.5731   25.3094  -30.8047 H   0  0  0  0  0  0  0  0  0  0  0  0
   -6.9233   24.3668  -32.8082 H   0  0  0  0  0  0  0  0  0  0  0  0
   -5.6019   23.1651  -32.5179 H   0  0  0  0  0  0  0  0  0  0  0  0
   -9.2807   23.6803  -31.3694 H   0  0  0  0  0  0  0  0  0  0  0  0
  -10.5568   21.3184  -31.4201 H   0  0  0  0  0  0  0  0  0  0  0  0
   -9.6416   18.6842  -32.1111 H   0  0  0  0  0  0  0  0  0  0  0  0
   -7.6015   17.4151  -32.8759 H   0  0  0  0  0  0  0  0  0  0  0  0
   -5.4283   18.6136  -33.2163 H   0  0  0  0  0  0  0  0  0  0  0  0
   -5.2669   21.0918  -32.7908 H   0  0  0  0  0  0  0  0  0  0  0  0
  1  2  1  0
  2  3  1  0
  2  4  2  3
  4  5  1  0
  5  6  1  0
  6  7  1  0
  6  8  1  0
  8  9  2  0
  8 10  1  0
 10 11  1  0
 11 12  1  0
 12 13  1  0
 13 14  2  0
 14 15  1  0
 15 16  2  0
 16 17  1  0
 17 18  2  0
 18 19  1  0
 19 20  2  0
 20 12  1  0
 20 15  1  0
  1 21  1  0
  1 22  1  0
  1 23  1  0
  3 24  1  0
  3 25  1  0
  3 26  1  0
  4 27  1  0
  5 28  1  0
  5 29  1  0
  7 30  1  0
  7 31  1  0
  7 32  1  0
 10 33  1  0
 10 34  1  0
 11 35  1  0
 11 36  1  0
 13 37  1  0
 14 38  1  0
 16 39  1  0
 17 40  1  0
 18 41  1  0
 19 42  1  0
M  END
>  <UniqueID>  (20) 
20

>  <SMILES>  (20) 
CC(C)=CCN(C)C(=O)CCn1ccc2ccccc21

>  <Energy>  (20) 
63.44266864987387

>  <Genealogy>  (20) 
CC(C)=CCN(C)C(=O)CCn1ccc2ccccc21 (3D coordinates assigned)
CC(C)=CCN(C)C(=O)CCn1ccc2ccccc21 (optimized conformer: 63.44266864987387 kcal/mol)

>  <smiles>  (20) 
CC(C)=CCN(C)C(=O)CCn1ccc2ccccc21

>  <score_type>  (20) 
oracle

>  <origin>  (20) 
adg

>  <m_score__min__energy>  (20) 
-7.8300000000000001

>  <m_primary>  (20) 
energy

$$$$
20:0
     RDKit          3D

 57 59  0  0  0  0  0  0  0  0999 V2000
    1.7650   20.1800  -27.8670 C   0  0  0  0  0  0  0  0  0  0  0  0
    2.6890   19.0190  -28.2210 C   0  0  0  0  0  0  0  0  0  0  0  0
    1.9180   17.7900  -28.5200 N   0  0  0  0  0  0  0  0  0  0  0  0
    2.2420   16.6860  -27.5870 C   0  0  0  0  0  0  0  0  0  0  0  0
    1.0190   15.8590  -27.1610 C   0  0  0  0  0  0  0  0  0  0  0  0
    1.9960   17.3800  -29.9450 C   0  0  0  0  0  0  0  0  0  0  0  0
    0.6660   17.6580  -30.6510 C   0  0  0  0  0  0  0  0  0  0  0  0
   -0.2450   18.4050  -29.7830 N   0  0  0  0  0  0  0  0  0  0  0  0
   -0.6210   19.7440  -30.1330 C   0  0  0  0  0  0  0  0  0  0  0  0
   -0.1430   20.2780  -31.3330 C   0  0  0  0  0  0  0  0  0  0  0  0
   -0.5640   21.5280  -31.7700 C   0  0  0  0  0  0  0  0  0  0  0  0
   -1.4660   22.2690  -31.0130 C   0  0  0  0  0  0  0  0  0  0  0  0
   -1.9380   21.7870  -29.7750 C   0  0  0  0  0  0  0  0  0  0  0  0
   -2.8340   22.5410  -28.9690 C   0  0  0  0  0  0  0  0  0  0  0  0
   -3.4170   24.1500  -29.4470 S   0  0  0  0  0  0  0  0  0  0  0  0
   -2.3260   25.1780  -29.3420 O   0  0  0  0  0  0  0  0  0  0  0  0
   -4.5410   24.5450  -28.5360 O   0  0  0  0  0  0  0  0  0  0  0  0
   -3.9910   24.0930  -31.0820 N   0  0  0  0  0  0  0  0  0  0  0  0
   -4.8260   23.0490  -31.6010 C   0  0  0  0  0  0  0  0  0  0  0  0
   -4.2730   21.9950  -32.3480 C   0  0  0  0  0  0  0  0  0  0  0  0
   -5.0840   20.9660  -32.8250 C   0  0  0  0  0  0  0  0  0  0  0  0
   -6.4490   20.9660  -32.5520 C   0  0  0  0  0  0  0  0  0  0  0  0
   -7.0250   22.0080  -31.8150 C   0  0  0  0  0  0  0  0  0  0  0  0
   -8.9040   21.9050  -31.4390 Br  0  0  0  0  0  0  0  0  0  0  0  0
   -6.2190   23.0780  -31.3570 C   0  0  0  0  0  0  0  0  0  0  0  0
   -6.8320   24.1830  -30.5310 C   0  0  0  0  0  0  0  0  0  0  0  0
   -3.2510   22.0260  -27.7330 C   0  0  0  0  0  0  0  0  0  0  0  0
   -2.7840   20.7940  -27.2820 C   0  0  0  0  0  0  0  0  0  0  0  0
   -1.9080   20.0440  -28.0630 C   0  0  0  0  0  0  0  0  0  0  0  0
   -1.4920   20.5110  -29.3220 C   0  0  0  0  0  0  0  0  0  0  0  0
    1.6928   20.2708  -26.7731 H   0  0  0  0  0  0  0  0  0  0  0  0
    2.1707   21.1125  -28.2863 H   0  0  0  0  0  0  0  0  0  0  0  0
    0.7652   19.9939  -28.2863 H   0  0  0  0  0  0  0  0  0  0  0  0
    3.2852   19.2919  -29.1042 H   0  0  0  0  0  0  0  0  0  0  0  0
    3.3413   18.8186  -27.3582 H   0  0  0  0  0  0  0  0  0  0  0  0
    2.9609   16.0147  -28.0795 H   0  0  0  0  0  0  0  0  0  0  0  0
    2.6531   17.1451  -26.6758 H   0  0  0  0  0  0  0  0  0  0  0  0
    0.9653   15.8227  -26.0629 H   0  0  0  0  0  0  0  0  0  0  0  0
    0.1050   16.3251  -27.5576 H   0  0  0  0  0  0  0  0  0  0  0  0
    1.1112   14.8371  -27.5576 H   0  0  0  0  0  0  0  0  0  0  0  0
    2.7965   17.9471  -30.4426 H   0  0  0  0  0  0  0  0  0  0  0  0
    2.2101   16.3023  -29.9963 H   0  0  0  0  0  0  0  0  0  0  0  0
    0.8581   18.2457  -31.5608 H   0  0  0  0  0  0  0  0  0  0  0  0
    0.1970   16.6958  -30.9042 H   0  0  0  0  0  0  0  0  0  0  0  0
   -0.2150   18.1810  -28.7610 H   0  0  0  0  0  0  0  0  0  0  0  0
    0.5737   19.7029  -31.9376 H   0  0  0  0  0  0  0  0  0  0  0  0
   -0.1824   21.9335  -32.7187 H   0  0  0  0  0  0  0  0  0  0  0  0
   -1.8154   23.2434  -31.3852 H   0  0  0  0  0  0  0  0  0  0  0  0
   -3.1933   21.9817  -32.5578 H   0  0  0  0  0  0  0  0  0  0  0  0
   -4.6437   20.1515  -33.4190 H   0  0  0  0  0  0  0  0  0  0  0  0
   -7.0793   20.1420  -32.9177 H   0  0  0  0  0  0  0  0  0  0  0  0
   -6.7056   23.9552  -29.4623 H   0  0  0  0  0  0  0  0  0  0  0  0
   -6.3331   25.1352  -30.7644 H   0  0  0  0  0  0  0  0  0  0  0  0
   -7.9039   24.2638  -30.7644 H   0  0  0  0  0  0  0  0  0  0  0  0
   -3.9544   22.6013  -27.1132 H   0  0  0  0  0  0  0  0  0  0  0  0
   -3.1088   20.4110  -26.3033 H   0  0  0  0  0  0  0  0  0  0  0  0
   -1.5382   19.0771  -27.6912 H   0  0  0  0  0  0  0  0  0  0  0  0
  1  2  1  0
  2  3  1  0
  3  4  1  0
  4  5  1  0
  3  6  1  0
  6  7  1  0
  7  8  1  0
  8  9  1  0
  9 10  2  0
 10 11  1  0
 11 12  2  0
 12 13  1  0
 13 14  2  0
 14 15  1  0
 15 16  2  0
 15 17  2  0
 15 18  1  0
 18 19  1  0
 19 20  2  0
 20 21  1  0
 21 22  2  0
 22 23  1  0
 23 24  1  0
 23 25  2  0
 25 26  1  0
 14 27  1  0
 27 28  2  0
 28 29  1  0
 29 30  2  0
 30  9  1  0
 30 13  1  0
 25 19  1  0
  1 31  1  0
  1 32  1  0
  1 33  1  0
  2 34  1  0
  2 35  1  0
  4 36  1  0
  4 37  1  0
  5 38  1  0
  5 39  1  0
  5 40  1  0
  6 41  1  0
  6 42  1  0
  7 43  1  0
  7 44  1  0
  8 45  1  0
 10 46  1  0
 11 47  1  0
 12 48  1  0
 20 49  1  0
 21 50  1  0
 22 51  1  0
 26 52  1  0
 26 53  1  0
 26 54  1  0
 27 55  1  0
 28 56  1  0
 29 57  1  0
M  CHG  1  18  -1
M  END
>  <UniqueID>  (21) 
21

>  <SMILES>  (21) 
CCN(CC)CCNc1cccc2c(S(=O)(=O)[N-]c3cccc(Br)c3C)cccc12

>  <Energy>  (21) 
75.69037300385124

>  <Genealogy>  (21) 
CCN(CC)CCNc1cccc2c(S(=O)(=O)[N-]c3cccc(Br)c3C)cccc12 (protonated)
CCN(CC)CCNc1cccc2c(S(=O)(=O)[N-]c3cccc(Br)c3C)cccc12 (3D coordinates assigned)
CCN(CC)CCNc1cccc2c(S(=O)(=O)[N-]c3cccc(Br)c3C)cccc12 (optimized conformer: 75.69037300385124 kcal/mol)

>  <smiles>  (21) 
CCN(CC)CCNc1cccc2c(S(=O)(=O)Nc3cccc(Br)c3C)cccc12

>  <score_type>  (21) 
oracle

>  <origin>  (21) 
adg

>  <m_score__min__energy>  (21) 
-11.52

>  <m_primary>  (21) 
energy

$$$$
21:0
     RDKit          3D

 79 82  0  0  0  0  0  0  0  0999 V2000
   -2.2690   18.6980  -34.2180 C   0  0  0  0  0  0  0  0  0  0  0  0
   -0.8870   19.2690  -34.5560 C   0  0  0  0  0  0  0  0  0  0  0  0
   -0.8560   20.7550  -34.4790 N   0  0  0  0  0  0  0  0  0  0  0  0
   -0.0610   21.4370  -35.5450 C   0  0  0  0  0  0  0  0  0  0  0  0
    1.3190   21.9700  -35.1210 C   0  0  0  0  0  0  0  0  0  0  0  0
   -0.5480   21.2450  -33.1090 C   0  0  0  0  0  0  0  0  0  0  0  0
   -1.7630   21.3290  -32.1710 C   0  0  0  0  0  0  0  0  0  0  0  0
   -2.9680   21.6830  -32.9170 N   0  0  0  0  0  0  0  0  0  0  0  0
   -4.2310   21.7490  -32.2400 C   0  0  0  0  0  0  0  0  0  0  0  0
   -5.2520   20.8440  -32.5610 C   0  0  0  0  0  0  0  0  0  0  0  0
   -5.0280   19.8030  -33.4840 C   0  0  0  0  0  0  0  0  0  0  0  0
   -6.0270   18.8740  -33.7610 C   0  0  0  0  0  0  0  0  0  0  0  0
   -7.2580   18.9610  -33.1190 C   0  0  0  0  0  0  0  0  0  0  0  0
   -7.5050   19.9900  -32.2120 C   0  0  0  0  0  0  0  0  0  0  0  0
   -6.5230   20.9760  -31.9370 C   0  0  0  0  0  0  0  0  0  0  0  0
   -6.7660   22.0330  -31.0790 N   0  0  0  0  0  0  0  0  0  0  0  0
   -8.1520   22.3450  -30.6610 C   0  0  0  0  0  0  0  0  0  0  0  0
   -5.7170   22.8150  -30.6290 C   0  0  0  0  0  0  0  0  0  0  0  0
   -5.8720   23.7330  -29.5620 C   0  0  0  0  0  0  0  0  0  0  0  0
   -4.8140   24.5430  -29.1460 C   0  0  0  0  0  0  0  0  0  0  0  0
   -3.5610   24.4490  -29.7690 C   0  0  0  0  0  0  0  0  0  0  0  0
   -2.4590   25.2310  -29.3900 O   0  0  0  0  0  0  0  0  0  0  0  0
   -1.2160   24.7430  -28.8860 C   0  0  0  0  0  0  0  0  0  0  0  0
   -1.3230   24.2350  -27.4230 C   0  0  0  0  0  0  0  0  0  0  0  0
   -1.3040   25.2630  -26.3180 N   0  0  0  0  0  0  0  0  0  0  0  0
   -2.7060   25.6720  -26.0220 C   0  0  0  0  0  0  0  0  0  0  0  0
   -0.4910   26.4440  -26.7580 C   0  0  0  0  0  0  0  0  0  0  0  0
   -0.8690   27.8120  -26.1470 C   0  0  0  0  0  0  0  0  0  0  0  0
   -0.7670   27.8190  -24.6170 C   0  0  0  0  0  0  0  0  0  0  0  0
    0.1570   26.7320  -24.0510 C   0  0  0  0  0  0  0  0  0  0  0  0
   -0.5060   25.3660  -23.8360 C   0  0  0  0  0  0  0  0  0  0  0  0
   -0.6940   24.5530  -25.1400 C   0  0  0  0  0  0  0  0  0  0  0  0
   -3.3830   23.5290  -30.8010 C   0  0  0  0  0  0  0  0  0  0  0  0
   -4.4370   22.6990  -31.2290 C   0  0  0  0  0  0  0  0  0  0  0  0
   -2.3882   18.6487  -33.1256 H   0  0  0  0  0  0  0  0  0  0  0  0
   -3.0482   19.3479  -34.6429 H   0  0  0  0  0  0  0  0  0  0  0  0
   -2.3622   17.6877  -34.6429 H   0  0  0  0  0  0  0  0  0  0  0  0
   -0.1527   18.8625  -33.8450 H   0  0  0  0  0  0  0  0  0  0  0  0
   -0.6471   18.9804  -35.5900 H   0  0  0  0  0  0  0  0  0  0  0  0
   -1.8450   21.0690  -34.6310 H   0  0  0  0  0  0  0  0  0  0  0  0
    0.0929   20.7172  -36.3625 H   0  0  0  0  0  0  0  0  0  0  0  0
   -0.6464   22.3236  -35.8300 H   0  0  0  0  0  0  0  0  0  0  0  0
    1.3813   21.9940  -34.0230 H   0  0  0  0  0  0  0  0  0  0  0  0
    2.1047   21.3106  -35.5185 H   0  0  0  0  0  0  0  0  0  0  0  0
    1.4575   22.9863  -35.5185 H   0  0  0  0  0  0  0  0  0  0  0  0
    0.1872   20.5625  -32.6578 H   0  0  0  0  0  0  0  0  0  0  0  0
   -0.1705   22.2719  -33.2228 H   0  0  0  0  0  0  0  0  0  0  0  0
   -1.9125   20.3533  -31.6856 H   0  0  0  0  0  0  0  0  0  0  0  0
   -1.5736   22.1061  -31.4159 H   0  0  0  0  0  0  0  0  0  0  0  0
   -2.9500   21.7960  -33.9560 H   0  0  0  0  0  0  0  0  0  0  0  0
   -4.0547   19.7238  -33.9903 H   0  0  0  0  0  0  0  0  0  0  0  0
   -5.8427   18.0699  -34.4886 H   0  0  0  0  0  0  0  0  0  0  0  0
   -8.0391   18.2152  -33.3279 H   0  0  0  0  0  0  0  0  0  0  0  0
   -8.4778   20.0383  -31.7008 H   0  0  0  0  0  0  0  0  0  0  0  0
   -8.2096   22.3580  -29.5626 H   0  0  0  0  0  0  0  0  0  0  0  0
   -8.4407   23.3306  -31.0550 H   0  0  0  0  0  0  0  0  0  0  0  0
   -8.8352   21.5782  -31.0550 H   0  0  0  0  0  0  0  0  0  0  0  0
   -6.8436   23.8092  -29.0518 H   0  0  0  0  0  0  0  0  0  0  0  0
   -4.9639   25.2592  -28.3247 H   0  0  0  0  0  0  0  0  0  0  0  0
   -0.8791   23.9124  -29.5236 H   0  0  0  0  0  0  0  0  0  0  0  0
   -0.5009   25.5788  -28.8969 H   0  0  0  0  0  0  0  0  0  0  0  0
   -2.2680   23.6785  -27.3372 H   0  0  0  0  0  0  0  0  0  0  0  0
   -0.4084   23.6440  -27.2673 H   0  0  0  0  0  0  0  0  0  0  0  0
   -2.8532   25.7149  -24.9327 H   0  0  0  0  0  0  0  0  0  0  0  0
   -2.8983   26.6637  -26.4574 H   0  0  0  0  0  0  0  0  0  0  0  0
   -3.4014   24.9393  -26.4574 H   0  0  0  0  0  0  0  0  0  0  0  0
    0.5586   26.2415  -26.4987 H   0  0  0  0  0  0  0  0  0  0  0  0
   -0.6863   26.5445  -27.8359 H   0  0  0  0  0  0  0  0  0  0  0  0
   -0.1899   28.5781  -26.5495 H   0  0  0  0  0  0  0  0  0  0  0  0
   -1.9158   28.0198  -26.4136 H   0  0  0  0  0  0  0  0  0  0  0  0
   -0.3830   28.7998  -24.2998 H   0  0  0  0  0  0  0  0  0  0  0  0
   -1.7757   27.6151  -24.2285 H   0  0  0  0  0  0  0  0  0  0  0  0
    0.9952   26.5982  -24.7507 H   0  0  0  0  0  0  0  0  0  0  0  0
    0.4703   27.0819  -23.0563 H   0  0  0  0  0  0  0  0  0  0  0  0
    0.1217   24.7797  -23.1487 H   0  0  0  0  0  0  0  0  0  0  0  0
   -1.5098   25.5566  -23.4286 H   0  0  0  0  0  0  0  0  0  0  0  0
    0.2980   24.1926  -25.4498 H   0  0  0  0  0  0  0  0  0  0  0  0
   -1.4188   23.7677  -24.8793 H   0  0  0  0  0  0  0  0  0  0  0  0
   -2.4009   23.4499  -31.2902 H   0  0  0  0  0  0  0  0  0  0  0  0
  1  2  1  0
  2  3  1  0
  3  4  1  0
  4  5  1  0
  3  6  1  0
  6  7  1  0
  7  8  1  0
  8  9  1  0
  9 10  2  0
 10 11  1  0
 11 12  2  0
 12 13  1  0
 13 14  2  0
 14 15  1  0
 15 16  2  0
 16 17  1  0
 16 18  1  0
 18 19  2  0
 19 20  1  0
 20 21  2  0
 21 22  1  0
 22 23  1  0
 23 24  1  0
 24 25  1  0
 25 26  1  0
 25 27  1  0
 27 28  1  0
 28 29  1  0
 29 30  1  0
 30 31  1  0
 31 32  1  0
 21 33  1  0
 33 34  2  0
 34  9  1  0
 15 10  1  0
 34 18  1  0
 32 25  1  0
  1 35  1  0
  1 36  1  0
  1 37  1  0
  2 38  1  0
  2 39  1  0
  3 40  1  0
  4 41  1  0
  4 42  1  0
  5 43  1  0
  5 44  1  0
  5 45  1  0
  6 46  1  0
  6 47  1  0
  7 48  1  0
  7 49  1  0
  8 50  1  0
 11 51  1  0
 12 52  1  0
 13 53  1  0
 14 54  1  0
 17 55  1  0
 17 56  1  0
 17 57  1  0
 19 58  1  0
 20 59  1  0
 23 60  1  0
 23 61  1  0
 24 62  1  0
 24 63  1  0
 26 64  1  0
 26 65  1  0
 26 66  1  0
 27 67  1  0
 27 68  1  0
 28 69  1  0
 28 70  1  0
 29 71  1  0
 29 72  1  0
 30 73  1  0
 30 74  1  0
 31 75  1  0
 31 76  1  0
 32 77  1  0
 32 78  1  0
 33 79  1  0
M  CHG  3   3   1  16   1  25   1
M  END
>  <UniqueID>  (22) 
22

>  <SMILES>  (22) 
CC[NH+](CC)CCNc1c2ccccc2[n+](C)c2ccc(OCC[N+]3(C)CCCCCC3)cc12

>  <Energy>  (22) 
136.49720900455142

>  <Genealogy>  (22) 
CC[NH+](CC)CCNc1c2ccccc2[n+](C)c2ccc(OCC[N+]3(C)CCCCCC3)cc12 (protonated)
CC[NH+](CC)CCNc1c2ccccc2[n+](C)c2ccc(OCC[N+]3(C)CCCCCC3)cc12 (3D coordinates assigned)
CC[NH+](CC)CCNc1c2ccccc2[n+](C)c2ccc(OCC[N+]3(C)CCCCCC3)cc12 (nonaromatic ring conformer: 136.49720900455142 kcal/mol)

>  <smiles>  (22) 
CCN(CC)CCNc1c2ccccc2[n+](C)c2ccc(OCC[N+]3(C)CCCCCC3)cc12

>  <score_type>  (22) 
oracle

>  <origin>  (22) 
adg

>  <m_score__min__energy>  (22) 
-6.2699999999999996

>  <m_primary>  (22) 
energy

$$$$
22:0
     RDKit          3D

 40 42  0  0  0  0  0  0  0  0999 V2000
   -6.6320   24.9180  -29.6440 C   0  0  0  0  0  0  0  0  0  0  0  0
   -5.7060   25.8280  -30.4570 C   0  0  0  0  0  0  0  0  0  0  0  0
   -4.4130   25.1930  -30.7600 N   0  0  0  0  0  0  0  0  0  0  0  0
   -4.5500   23.7570  -31.0420 C   0  0  0  0  0  0  0  0  0  0  0  0
   -5.4820   23.5330  -32.2360 C   0  0  0  0  0  0  0  0  0  0  0  0
   -5.7980   22.1110  -32.4030 N   0  0  0  0  0  0  0  0  0  0  0  0
   -7.0110   21.5180  -32.2360 C   0  0  0  0  0  0  0  0  0  0  0  0
   -6.9520   20.1770  -32.5800 C   0  0  0  0  0  0  0  0  0  0  0  0
   -5.6450   19.9310  -32.9360 C   0  0  0  0  0  0  0  0  0  0  0  0
   -5.0180   18.7600  -33.3550 C   0  0  0  0  0  0  0  0  0  0  0  0
   -3.6520   18.8270  -33.6810 C   0  0  0  0  0  0  0  0  0  0  0  0
   -2.9530   20.0510  -33.5860 C   0  0  0  0  0  0  0  0  0  0  0  0
   -1.1020   20.1230  -34.0460 Br  0  0  0  0  0  0  0  0  0  0  0  0
   -3.6120   21.2180  -33.1570 C   0  0  0  0  0  0  0  0  0  0  0  0
   -4.9700   21.1270  -32.8300 C   0  0  0  0  0  0  0  0  0  0  0  0
   -8.1020   19.2210  -32.4710 C   0  0  0  0  0  0  0  0  0  0  0  0
   -9.4340   19.9900  -32.4120 C   0  0  0  0  0  0  0  0  0  0  0  0
   -9.3610   21.1780  -31.4320 C   0  0  0  0  0  0  0  0  0  0  0  0
   -8.2940   22.2060  -31.8600 C   0  0  0  0  0  0  0  0  0  0  0  0
   -6.4611   25.0860  -28.5704 H   0  0  0  0  0  0  0  0  0  0  0  0
   -7.6795   25.1479  -29.8889 H   0  0  0  0  0  0  0  0  0  0  0  0
   -6.4204   23.8667  -29.8889 H   0  0  0  0  0  0  0  0  0  0  0  0
   -6.2043   26.0823  -31.4041 H   0  0  0  0  0  0  0  0  0  0  0  0
   -5.5038   26.7242  -29.8521 H   0  0  0  0  0  0  0  0  0  0  0  0
   -3.9920   25.6670  -31.5930 H   0  0  0  0  0  0  0  0  0  0  0  0
   -3.5597   23.3368  -31.2716 H   0  0  0  0  0  0  0  0  0  0  0  0
   -4.9767   23.2595  -30.1586 H   0  0  0  0  0  0  0  0  0  0  0  0
   -6.4156   24.0911  -32.0720 H   0  0  0  0  0  0  0  0  0  0  0  0
   -4.9736   23.8858  -33.1455 H   0  0  0  0  0  0  0  0  0  0  0  0
   -5.5735   17.8134  -33.4285 H   0  0  0  0  0  0  0  0  0  0  0  0
   -3.1241   17.9205  -34.0122 H   0  0  0  0  0  0  0  0  0  0  0  0
   -3.0750   22.1750  -33.0808 H   0  0  0  0  0  0  0  0  0  0  0  0
   -8.1055   18.5565  -33.3476 H   0  0  0  0  0  0  0  0  0  0  0  0
   -7.9894   18.6303  -31.5499 H   0  0  0  0  0  0  0  0  0  0  0  0
   -9.6715   20.3701  -33.4166 H   0  0  0  0  0  0  0  0  0  0  0  0
  -10.2141   19.2999  -32.0583 H   0  0  0  0  0  0  0  0  0  0  0  0
  -10.3420   21.6747  -31.4002 H   0  0  0  0  0  0  0  0  0  0  0  0
   -9.0839   20.7886  -30.4412 H   0  0  0  0  0  0  0  0  0  0  0  0
   -8.6664   22.7732  -32.7258 H   0  0  0  0  0  0  0  0  0  0  0  0
   -8.0971   22.8826  -31.0153 H   0  0  0  0  0  0  0  0  0  0  0  0
  1  2  1  0
  2  3  1  0
  3  4  1  0
  4  5  1  0
  5  6  1  0
  6  7  1  0
  7  8  2  0
  8  9  1  0
  9 10  2  0
 10 11  1  0
 11 12  2  0
 12 13  1  0
 12 14  1  0
 14 15  2  0
  8 16  1  0
 16 17  1  0
 17 18  1  0
 18 19  1  0
 15  6  1  0
 19  7  1  0
 15  9  1  0
  1 20  1  0
  1 21  1  0
  1 22  1  0
  2 23  1  0
  2 24  1  0
  3 25  1  0
  4 26  1  0
  4 27  1  0
  5 28  1  0
  5 29  1  0
 10 30  1  0
 11 31  1  0
 14 32  1  0
 16 33  1  0
 16 34  1  0
 17 35  1  0
 17 36  1  0
 18 37  1  0
 18 38  1  0
 19 39  1  0
 19 40  1  0
M  END
>  <UniqueID>  (23) 
23

>  <SMILES>  (23) 
CCNCCn1c2c(c3ccc(Br)cc31)CCCC2

>  <Energy>  (23) 
68.94940146657238

>  <Genealogy>  (23) 
CCNCCn1c2c(c3ccc(Br)cc31)CCCC2 (3D coordinates assigned)
CCNCCn1c2c(c3ccc(Br)cc31)CCCC2 (nonaromatic ring conformer: 68.94940146657238 kcal/mol)

>  <smiles>  (23) 
CCNCCn1c2c(c3ccc(Br)cc31)CCCC2

>  <score_type>  (23) 
oracle

>  <origin>  (23) 
adg

>  <m_score__min__energy>  (23) 
-9.1699999999999999

>  <m_primary>  (23) 
energy

$$$$
23:0
     RDKit          3D

 39 40  0  0  0  0  0  0  0  0999 V2000
   -6.5090   25.6660  -29.3450 C   0  0  0  0  0  0  0  0  0  0  0  0
   -5.7280   25.6190  -30.6520 C   0  0  0  0  0  0  0  0  0  0  0  0
   -5.1940   24.2770  -30.8770 N   0  0  0  0  0  0  0  0  0  0  0  0
   -3.8970   24.0070  -30.8460 N   0  0  0  0  0  0  0  0  0  0  0  0
   -3.7470   22.6880  -31.0750 C   0  0  0  0  0  0  0  0  0  0  0  0
   -2.4180   22.0170  -31.1970 C   0  0  0  0  0  0  0  0  0  0  0  0
   -4.9870   22.1030  -31.2700 C   0  0  0  0  0  0  0  0  0  0  0  0
   -5.2620   20.6720  -31.6480 C   0  0  0  0  0  0  0  0  0  0  0  0
   -4.7690   20.4020  -33.0130 N   0  0  0  0  0  0  0  0  0  0  0  0
   -3.5690   19.5510  -32.9570 C   0  0  0  0  0  0  0  0  0  0  0  0
   -5.8170   19.7670  -33.8410 C   0  0  0  0  0  0  0  0  0  0  0  0
   -7.0210   19.4660  -33.0040 C   0  0  0  0  0  0  0  0  0  0  0  0
   -8.1410   20.2760  -32.8780 C   0  0  0  0  0  0  0  0  0  0  0  0
   -9.1260   19.7240  -32.0490 C   0  0  0  0  0  0  0  0  0  0  0  0
   -8.7850   18.4830  -31.5270 C   0  0  0  0  0  0  0  0  0  0  0  0
   -7.2570   18.0700  -32.0980 S   0  0  0  0  0  0  0  0  0  0  0  0
   -5.8920   23.1410  -31.1110 C   0  0  0  0  0  0  0  0  0  0  0  0
   -7.3810   23.0540  -31.2850 C   0  0  0  0  0  0  0  0  0  0  0  0
   -5.8088   25.6239  -28.4977 H   0  0  0  0  0  0  0  0  0  0  0  0
   -7.0872   26.6006  -29.2967 H   0  0  0  0  0  0  0  0  0  0  0  0
   -7.1951   24.8075  -29.2967 H   0  0  0  0  0  0  0  0  0  0  0  0
   -6.3961   25.8877  -31.4836 H   0  0  0  0  0  0  0  0  0  0  0  0
   -4.8918   26.3314  -30.5945 H   0  0  0  0  0  0  0  0  0  0  0  0
   -2.0162   21.8141  -30.1933 H   0  0  0  0  0  0  0  0  0  0  0  0
   -2.5344   21.0696  -31.7438 H   0  0  0  0  0  0  0  0  0  0  0  0
   -1.7248   22.6731  -31.7438 H   0  0  0  0  0  0  0  0  0  0  0  0
   -4.7515   20.0042  -30.9385 H   0  0  0  0  0  0  0  0  0  0  0  0
   -6.3471   20.4944  -31.6164 H   0  0  0  0  0  0  0  0  0  0  0  0
   -3.3023   19.3619  -31.9067 H   0  0  0  0  0  0  0  0  0  0  0  0
   -3.7736   18.5950  -33.4612 H   0  0  0  0  0  0  0  0  0  0  0  0
   -2.7345   20.0603  -33.4612 H   0  0  0  0  0  0  0  0  0  0  0  0
   -6.1012   20.4500  -34.6551 H   0  0  0  0  0  0  0  0  0  0  0  0
   -5.4256   18.8282  -34.2599 H   0  0  0  0  0  0  0  0  0  0  0  0
   -8.2444   21.2506  -33.3775 H   0  0  0  0  0  0  0  0  0  0  0  0
  -10.0802   20.2264  -31.8318 H   0  0  0  0  0  0  0  0  0  0  0  0
   -9.4075   17.8740  -30.8550 H   0  0  0  0  0  0  0  0  0  0  0  0
   -7.8645   23.0257  -30.2974 H   0  0  0  0  0  0  0  0  0  0  0  0
   -7.7370   23.9329  -31.8425 H   0  0  0  0  0  0  0  0  0  0  0  0
   -7.6322   22.1396  -31.8425 H   0  0  0  0  0  0  0  0  0  0  0  0
  1  2  1  0
  2  3  1  0
  3  4  1  0
  4  5  2  0
  5  6  1  0
  5  7  1  0
  7  8  1  0
  8  9  1  0
  9 10  1  0
  9 11  1  0
 11 12  1  0
 12 13  2  0
 13 14  1  0
 14 15  2  0
 15 16  1  0
  7 17  2  0
 17 18  1  0
 17  3  1  0
 16 12  1  0
  1 19  1  0
  1 20  1  0
  1 21  1  0
  2 22  1  0
  2 23  1  0
  6 24  1  0
  6 25  1  0
  6 26  1  0
  8 27  1  0
  8 28  1  0
 10 29  1  0
 10 30  1  0
 10 31  1  0
 11 32  1  0
 11 33  1  0
 13 34  1  0
 14 35  1  0
 15 36  1  0
 18 37  1  0
 18 38  1  0
 18 39  1  0
M  END
>  <UniqueID>  (24) 
24

>  <SMILES>  (24) 
CCn1nc(C)c(CN(C)Cc2cccs2)c1C

>  <Energy>  (24) 
87.73762180640793

>  <Genealogy>  (24) 
CCn1nc(C)c(CN(C)Cc2cccs2)c1C (3D coordinates assigned)
CCn1nc(C)c(CN(C)Cc2cccs2)c1C (optimized conformer: 87.73762180640793 kcal/mol)

>  <smiles>  (24) 
CCn1nc(C)c(CN(C)Cc2cccs2)c1C

>  <score_type>  (24) 
oracle

>  <origin>  (24) 
adg

>  <m_score__min__energy>  (24) 
-7.1900000000000004

>  <m_primary>  (24) 
energy

$$$$
24:0
     RDKit          3D

 43 45  0  0  0  0  0  0  0  0999 V2000
   -3.5020   18.5580  -25.6660 C   0  0  0  0  0  0  0  0  0  0  0  0
   -2.5830   19.1350  -26.6390 N   0  0  0  0  0  0  0  0  0  0  0  0
   -1.4890   18.5370  -27.1520 C   0  0  0  0  0  0  0  0  0  0  0  0
   -0.8180   19.4170  -27.9760 C   0  0  0  0  0  0  0  0  0  0  0  0
   -1.5330   20.6010  -27.9410 C   0  0  0  0  0  0  0  0  0  0  0  0
   -1.1860   21.8810  -28.6600 C   0  0  0  0  0  0  0  0  0  0  0  0
   -2.1170   22.2240  -29.7640 N   0  0  1  0  0  0  0  0  0  0  0  0
   -3.0050   21.0970  -30.1190 C   0  0  0  0  0  0  0  0  0  0  0  0
   -3.7400   21.3870  -31.4340 C   0  0  0  0  0  0  0  0  0  0  0  0
   -4.3900   22.7040  -31.4080 N   0  0  0  0  0  0  0  0  0  0  0  0
   -5.4910   22.9770  -32.3380 C   0  0  0  0  0  0  0  0  0  0  0  0
   -6.6260   22.0200  -32.0890 C   0  0  0  0  0  0  0  0  0  0  0  0
   -6.6570   20.7660  -32.7220 C   0  0  0  0  0  0  0  0  0  0  0  0
   -7.7310   19.8950  -32.5080 C   0  0  0  0  0  0  0  0  0  0  0  0
   -8.7800   20.2720  -31.6650 C   0  0  0  0  0  0  0  0  0  0  0  0
   -8.7590   21.5190  -31.0360 C   0  0  0  0  0  0  0  0  0  0  0  0
   -7.6870   22.3920  -31.2480 C   0  0  0  0  0  0  0  0  0  0  0  0
   -3.8430   23.7620  -30.5960 C   0  0  0  0  0  0  0  0  0  0  0  0
   -4.2020   24.9570  -30.7750 O   0  0  0  0  0  0  0  0  0  0  0  0
   -2.9060   23.4390  -29.4670 C   0  0  0  0  0  0  0  0  0  0  0  0
   -2.6140   20.3970  -27.1040 C   0  0  0  0  0  0  0  0  0  0  0  0
   -3.1468   18.7810  -24.6491 H   0  0  0  0  0  0  0  0  0  0  0  0
   -4.5040   18.9894  -25.8073 H   0  0  0  0  0  0  0  0  0  0  0  0
   -3.5488   17.4681  -25.8073 H   0  0  0  0  0  0  0  0  0  0  0  0
   -1.1780   17.5025  -26.9447 H   0  0  0  0  0  0  0  0  0  0  0  0
    0.1011   19.2173  -28.5464 H   0  0  0  0  0  0  0  0  0  0  0  0
   -1.1984   22.7028  -27.9289 H   0  0  0  0  0  0  0  0  0  0  0  0
   -0.1948   21.7330  -29.1135 H   0  0  0  0  0  0  0  0  0  0  0  0
   -1.5130   22.4350  -30.5950 H   0  0  0  0  0  0  0  0  0  0  0  0
   -2.4027   20.1838  -30.2345 H   0  0  0  0  0  0  0  0  0  0  0  0
   -3.7472   20.9624  -29.3183 H   0  0  0  0  0  0  0  0  0  0  0  0
   -3.0156   21.3621  -32.2614 H   0  0  0  0  0  0  0  0  0  0  0  0
   -4.5174   20.6210  -31.5712 H   0  0  0  0  0  0  0  0  0  0  0  0
   -5.8450   24.0080  -32.1905 H   0  0  0  0  0  0  0  0  0  0  0  0
   -5.1315   22.8495  -33.3698 H   0  0  0  0  0  0  0  0  0  0  0  0
   -5.8340   20.4679  -33.3882 H   0  0  0  0  0  0  0  0  0  0  0  0
   -7.7497   18.9131  -33.0035 H   0  0  0  0  0  0  0  0  0  0  0  0
   -9.6232   19.5859  -31.4966 H   0  0  0  0  0  0  0  0  0  0  0  0
   -9.5860   21.8146  -30.3736 H   0  0  0  0  0  0  0  0  0  0  0  0
   -7.6751   23.3746  -30.7536 H   0  0  0  0  0  0  0  0  0  0  0  0
   -2.2199   24.2854  -29.3157 H   0  0  0  0  0  0  0  0  0  0  0  0
   -3.5004   23.2576  -28.5594 H   0  0  0  0  0  0  0  0  0  0  0  0
   -3.3789   21.1480  -26.8571 H   0  0  0  0  0  0  0  0  0  0  0  0
  1  2  1  0
  2  3  1  0
  3  4  2  0
  4  5  1  0
  5  6  1  0
  6  7  1  0
  7  8  1  0
  8  9  1  0
  9 10  1  0
 10 11  1  0
 11 12  1  0
 12 13  2  0
 13 14  1  0
 14 15  2  0
 15 16  1  0
 16 17  2  0
 10 18  1  0
 18 19  2  0
 18 20  1  0
  5 21  2  0
 21  2  1  0
 20  7  1  0
 17 12  1  0
  1 22  1  0
  1 23  1  0
  1 24  1  0
  3 25  1  0
  4 26  1  0
  6 27  1  0
  6 28  1  0
  7 29  1  6
  8 30  1  0
  8 31  1  0
  9 32  1  0
  9 33  1  0
 11 34  1  0
 11 35  1  0
 13 36  1  0
 14 37  1  0
 15 38  1  0
 16 39  1  0
 17 40  1  0
 20 41  1  0
 20 42  1  0
 21 43  1  0
M  CHG  1   7   1
M  END
>  <UniqueID>  (25) 
25

>  <SMILES>  (25) 
Cn1ccc(C[N@H+]2CCN(Cc3ccccc3)C(=O)C2)c1

>  <Energy>  (25) 
70.28788960668669

>  <Genealogy>  (25) 
Cn1ccc(C[NH+]2CCN(Cc3ccccc3)C(=O)C2)c1 (protonated)
Cn1ccc(C[N@H+]2CCN(Cc3ccccc3)C(=O)C2)c1 (chirality)
Cn1ccc(C[N@H+]2CCN(Cc3ccccc3)C(=O)C2)c1 (3D coordinates assigned)
Cn1ccc(C[N@H+]2CCN(Cc3ccccc3)C(=O)C2)c1 (nonaromatic ring conformer: 70.28788960668669 kcal/mol)

>  <smiles>  (25) 
Cn1ccc(CN2CCN(Cc3ccccc3)C(=O)C2)c1

>  <score_type>  (25) 
oracle

>  <origin>  (25) 
adg

>  <m_score__min__energy>  (25) 
-6.8200000000000003

>  <m_primary>  (25) 
energy

$$$$
25:0
     RDKit          3D

 43 45  0  0  0  0  0  0  0  0999 V2000
   -3.7310   24.3800  -29.9170 C   0  0  0  0  0  0  0  0  0  0  0  0
   -4.7350   24.9160  -30.8500 N   0  0  0  0  0  0  0  0  0  0  0  0
   -5.7380   25.6910  -30.1000 C   0  0  0  0  0  0  0  0  0  0  0  0
   -5.3630   23.8130  -31.6120 C   0  0  0  0  0  0  0  0  0  0  0  0
   -4.3970   22.6370  -31.8260 C   0  0  0  0  0  0  0  0  0  0  0  0
   -4.6810   21.9270  -33.0740 N   0  0  0  0  0  0  0  0  0  0  0  0
   -5.1510   20.5670  -33.0910 C   0  0  0  0  0  0  0  0  0  0  0  0
   -6.4820   20.2660  -32.7550 C   0  0  0  0  0  0  0  0  0  0  0  0
   -7.3360   21.2560  -32.2260 C   0  0  0  0  0  0  0  0  0  0  0  0
   -8.6440   20.9480  -31.8640 C   0  0  0  0  0  0  0  0  0  0  0  0
   -9.1150   19.6470  -31.9970 C   0  0  0  0  0  0  0  0  0  0  0  0
   -8.2850   18.6480  -32.5060 C   0  0  0  0  0  0  0  0  0  0  0  0
   -6.9590   18.9380  -32.9170 C   0  0  0  0  0  0  0  0  0  0  0  0
   -6.1300   17.9640  -33.4440 N   0  0  0  0  0  0  0  0  0  0  0  0
   -6.6990   16.6720  -33.8900 C   0  0  0  0  0  0  0  0  0  0  0  0
   -4.7760   18.2050  -33.5720 C   0  0  0  0  0  0  0  0  0  0  0  0
   -3.8530   17.1630  -33.8460 C   0  0  0  0  0  0  0  0  0  0  0  0
   -2.4960   17.4320  -34.0380 C   0  0  0  0  0  0  0  0  0  0  0  0
   -1.3820   16.1240  -34.3860 Cl  0  0  0  0  0  0  0  0  0  0  0  0
   -2.0250   18.7380  -33.9470 C   0  0  0  0  0  0  0  0  0  0  0  0
   -2.8990   19.7760  -33.6370 C   0  0  0  0  0  0  0  0  0  0  0  0
   -4.2710   19.5240  -33.4260 C   0  0  0  0  0  0  0  0  0  0  0  0
   -4.0609   24.5561  -28.8825 H   0  0  0  0  0  0  0  0  0  0  0  0
   -3.6138   23.2993  -30.0856 H   0  0  0  0  0  0  0  0  0  0  0  0
   -2.7679   24.8839  -30.0856 H   0  0  0  0  0  0  0  0  0  0  0  0
   -5.5698   25.5610  -29.0207 H   0  0  0  0  0  0  0  0  0  0  0  0
   -5.6475   26.7561  -30.3596 H   0  0  0  0  0  0  0  0  0  0  0  0
   -6.7458   25.3347  -30.3596 H   0  0  0  0  0  0  0  0  0  0  0  0
   -6.2422   23.4537  -31.0570 H   0  0  0  0  0  0  0  0  0  0  0  0
   -5.6478   24.2025  -32.6005 H   0  0  0  0  0  0  0  0  0  0  0  0
   -3.3674   23.0226  -31.8609 H   0  0  0  0  0  0  0  0  0  0  0  0
   -4.5240   21.9312  -30.9919 H   0  0  0  0  0  0  0  0  0  0  0  0
   -4.5920   22.4390  -33.9810 H   0  0  0  0  0  0  0  0  0  0  0  0
   -6.9640   22.2832  -32.0981 H   0  0  0  0  0  0  0  0  0  0  0  0
   -9.3056   21.7347  -31.4723 H   0  0  0  0  0  0  0  0  0  0  0  0
  -10.1459   19.4043  -31.6998 H   0  0  0  0  0  0  0  0  0  0  0  0
   -8.6650   17.6191  -32.5899 H   0  0  0  0  0  0  0  0  0  0  0  0
   -6.9658   16.0661  -33.0115 H   0  0  0  0  0  0  0  0  0  0  0  0
   -7.5989   16.8570  -34.4949 H   0  0  0  0  0  0  0  0  0  0  0  0
   -5.9550   16.1330  -34.4949 H   0  0  0  0  0  0  0  0  0  0  0  0
   -4.2124   16.1252  -33.9083 H   0  0  0  0  0  0  0  0  0  0  0  0
   -0.9598   18.9507  -34.1204 H   0  0  0  0  0  0  0  0  0  0  0  0
   -2.5158   20.8039  -33.5557 H   0  0  0  0  0  0  0  0  0  0  0  0
  1  2  1  0
  2  3  1  0
  2  4  1  0
  4  5  1  0
  5  6  1  0
  6  7  1  0
  7  8  2  0
  8  9  1  0
  9 10  2  0
 10 11  1  0
 11 12  2  0
 12 13  1  0
 13 14  2  0
 14 15  1  0
 14 16  1  0
 16 17  2  0
 17 18  1  0
 18 19  1  0
 18 20  2  0
 20 21  1  0
 21 22  2  0
 22  7  1  0
 13  8  1  0
 22 16  1  0
  1 23  1  0
  1 24  1  0
  1 25  1  0
  3 26  1  0
  3 27  1  0
  3 28  1  0
  4 29  1  0
  4 30  1  0
  5 31  1  0
  5 32  1  0
  6 33  1  0
  9 34  1  0
 10 35  1  0
 11 36  1  0
 12 37  1  0
 15 38  1  0
 15 39  1  0
 15 40  1  0
 17 41  1  0
 20 42  1  0
 21 43  1  0
M  CHG  1  14   1
M  END
>  <UniqueID>  (26) 
26

>  <SMILES>  (26) 
CN(C)CCNc1c2ccccc2[n+](C)c2cc(Cl)ccc12

>  <Energy>  (26) 
67.6090683908417

>  <Genealogy>  (26) 
CN(C)CCNc1c2ccccc2[n+](C)c2cc(Cl)ccc12 (3D coordinates assigned)
CN(C)CCNc1c2ccccc2[n+](C)c2cc(Cl)ccc12 (optimized conformer: 67.6090683908417 kcal/mol)

>  <smiles>  (26) 
CN(C)CCNc1c2ccccc2[n+](C)c2cc(Cl)ccc12

>  <score_type>  (26) 
oracle

>  <origin>  (26) 
adg

>  <m_score__min__energy>  (26) 
-8.0399999999999991

>  <m_primary>  (26) 
energy

$$$$
26:0
     RDKit          3D

 28 29  0  0  0  0  0  0  0  0999 V2000
   -3.6267   21.2219  -28.8440 H   0  0  0  0  0  0  0  0  0  0  0  0
   -3.4520   22.3060  -28.9090 C   0  0  0  0  0  0  0  0  0  0  0  0
   -2.3690   22.8400  -28.3190 C   0  0  0  0  0  0  0  0  0  0  0  0
   -1.3810   21.9790  -27.6340 C   0  0  0  0  0  0  0  0  0  0  0  0
   -0.6947   22.4582  -26.9203 H   0  0  0  0  0  0  0  0  0  0  0  0
   -1.2610   20.6550  -27.8200 C   0  0  0  0  0  0  0  0  0  0  0  0
   -1.1794   20.2911  -28.8549 H   0  0  0  0  0  0  0  0  0  0  0  0
   -1.2300   19.6350  -26.7200 C   0  0  0  0  0  0  0  0  0  0  0  0
   -0.5488   18.8178  -26.9996 H   0  0  0  0  0  0  0  0  0  0  0  0
   -0.8781   20.1124  -25.7936 H   0  0  0  0  0  0  0  0  0  0  0  0
   -3.0060   18.9200  -26.4330 Br  0  0  0  0  0  0  0  0  0  0  0  0
   -2.1420   24.3420  -28.3210 C   0  0  2  0  0  0  0  0  0  0  0  0
   -1.0723   24.5050  -28.5186 H   0  0  0  0  0  0  0  0  0  0  0  0
   -2.5330   24.9290  -26.9650 C   0  0  0  0  0  0  0  0  0  0  0  0
   -2.1167   24.3041  -26.1611 H   0  0  0  0  0  0  0  0  0  0  0  0
   -2.1343   25.9506  -26.8790 H   0  0  0  0  0  0  0  0  0  0  0  0
   -3.6293   24.9548  -26.8790 H   0  0  0  0  0  0  0  0  0  0  0  0
   -2.8870   25.0070  -29.3500 O   0  0  0  0  0  0  0  0  0  0  0  0
   -4.0820   24.4950  -29.8630 C   0  0  0  0  0  0  0  0  0  0  0  0
   -4.9370   25.3100  -30.6110 C   0  0  0  0  0  0  0  0  0  0  0  0
   -4.6741   26.3622  -30.7945 H   0  0  0  0  0  0  0  0  0  0  0  0
   -6.1280   24.7850  -31.1260 C   0  0  0  0  0  0  0  0  0  0  0  0
   -6.8053   25.4273  -31.7080 H   0  0  0  0  0  0  0  0  0  0  0  0
   -6.4580   23.4430  -30.9010 C   0  0  0  0  0  0  0  0  0  0  0  0
   -8.0800   22.7280  -31.6110 Br  0  0  0  0  0  0  0  0  0  0  0  0
   -5.5960   22.6240  -30.1630 C   0  0  0  0  0  0  0  0  0  0  0  0
   -5.8511   21.5676  -29.9932 H   0  0  0  0  0  0  0  0  0  0  0  0
   -4.4060   23.1520  -29.6400 C   0  0  0  0  0  0  0  0  0  0  0  0
  1  2  1  0
  2  3  2  0
  3  4  1  0
  4  5  1  0
  4  6  2  0
  6  7  1  0
  6  8  1  0
  8  9  1  0
  8 10  1  0
  8 11  1  0
  3 12  1  0
 12 13  1  6
 12 14  1  0
 14 15  1  0
 14 16  1  0
 14 17  1  0
 12 18  1  0
 18 19  1  0
 19 20  2  0
 20 21  1  0
 20 22  1  0
 22 23  1  0
 22 24  2  0
 24 25  1  0
 24 26  1  0
 26 27  1  0
 26 28  2  0
 28  2  1  0
 28 19  1  0
M  END
>  <UniqueID>  (27) 
27

>  <SMILES>  (27) 
C[C@@H]1Oc2ccc(Br)cc2C=C1/C=C\CBr

>  <Energy>  (27) 
32.83132857535172

>  <Genealogy>  (27) 
C[C@@H]1Oc2ccc(Br)cc2C=C1C=CCBr (chirality)
C[C@@H]1Oc2ccc(Br)cc2C=C1/C=C\CBr (cis-trans isomerization)
C[C@@H]1Oc2ccc(Br)cc2C=C1/C=C\CBr (3D coordinates assigned)
C[C@@H]1Oc2ccc(Br)cc2C=C1/C=C\CBr (nonaromatic ring conformer: 32.83132857535172 kcal/mol)

>  <smiles>  (27) 
CC1Oc2ccc(Br)cc2C=C1C=CCBr

>  <score_type>  (27) 
oracle

>  <origin>  (27) 
adg

>  <m_score__min__energy>  (27) 
-7.4199999999999999

>  <m_primary>  (27) 
energy

$$$$
27:0
     RDKit          3D

 57 60  0  0  0  0  0  0  0  0999 V2000
   -1.9370   23.7790  -29.1410 C   0  0  0  0  0  0  0  0  0  0  0  0
   -3.2360   24.5680  -29.3100 C   0  0  0  0  0  0  0  0  0  0  0  0
   -3.8650   24.2830  -30.6200 N   0  0  0  0  0  0  0  0  0  0  0  0
   -5.0600   25.1350  -30.8200 C   0  0  0  0  0  0  0  0  0  0  0  0
   -6.0900   24.9010  -29.7140 C   0  0  0  0  0  0  0  0  0  0  0  0
   -4.1830   22.8400  -30.7780 C   0  0  0  0  0  0  0  0  0  0  0  0
   -3.5600   22.3240  -32.0740 C   0  0  0  0  0  0  0  0  0  0  0  0
   -4.5850   22.0980  -33.0910 N   0  0  0  0  0  0  0  0  0  0  0  0
   -5.6060   21.1120  -32.8820 C   0  0  0  0  0  0  0  0  0  0  0  0
   -6.8870   21.5000  -32.4570 C   0  0  0  0  0  0  0  0  0  0  0  0
   -7.1830   22.8580  -32.2160 C   0  0  0  0  0  0  0  0  0  0  0  0
   -8.4540   23.2440  -31.7980 C   0  0  0  0  0  0  0  0  0  0  0  0
   -9.4470   22.2900  -31.6150 C   0  0  0  0  0  0  0  0  0  0  0  0
   -9.1780   20.9410  -31.8480 C   0  0  0  0  0  0  0  0  0  0  0  0
   -7.8940   20.5130  -32.2760 C   0  0  0  0  0  0  0  0  0  0  0  0
   -7.6150   19.1800  -32.5160 N   0  0  0  0  0  0  0  0  0  0  0  0
   -8.6710   18.1590  -32.3380 C   0  0  0  0  0  0  0  0  0  0  0  0
   -6.3530   18.7970  -32.9170 C   0  0  0  0  0  0  0  0  0  0  0  0
   -6.0700   17.4810  -33.1410 N   0  0  0  0  0  0  0  0  0  0  0  0
   -4.8470   17.0370  -33.5330 C   0  0  0  0  0  0  0  0  0  0  0  0
   -4.6190   15.6640  -33.7510 C   0  0  0  0  0  0  0  0  0  0  0  0
   -5.7260   14.6640  -33.5550 C   0  0  0  0  0  0  0  0  0  0  0  0
   -3.3430   15.2330  -34.1520 C   0  0  0  0  0  0  0  0  0  0  0  0
   -2.3090   16.1550  -34.3350 C   0  0  0  0  0  0  0  0  0  0  0  0
   -2.5340   17.5160  -34.1190 C   0  0  0  0  0  0  0  0  0  0  0  0
   -3.8010   17.9630  -33.7180 C   0  0  0  0  0  0  0  0  0  0  0  0
   -4.0490   19.3210  -33.4950 C   0  0  0  0  0  0  0  0  0  0  0  0
   -5.3300   19.7550  -33.1010 C   0  0  0  0  0  0  0  0  0  0  0  0
   -1.7235   23.6493  -28.0697 H   0  0  0  0  0  0  0  0  0  0  0  0
   -2.0428   22.7924  -29.6158 H   0  0  0  0  0  0  0  0  0  0  0  0
   -1.1103   24.3277  -29.6158 H   0  0  0  0  0  0  0  0  0  0  0  0
   -3.9340   24.2874  -28.5075 H   0  0  0  0  0  0  0  0  0  0  0  0
   -3.0022   25.6417  -29.2604 H   0  0  0  0  0  0  0  0  0  0  0  0
   -4.7545   26.1917  -30.8096 H   0  0  0  0  0  0  0  0  0  0  0  0
   -5.5177   24.8762  -31.7862 H   0  0  0  0  0  0  0  0  0  0  0  0
   -5.6056   25.0111  -28.7326 H   0  0  0  0  0  0  0  0  0  0  0  0
   -6.9016   25.6376  -29.8070 H   0  0  0  0  0  0  0  0  0  0  0  0
   -6.5037   23.8860  -29.8070 H   0  0  0  0  0  0  0  0  0  0  0  0
   -3.7745   22.2783  -29.9250 H   0  0  0  0  0  0  0  0  0  0  0  0
   -5.2741   22.7053  -30.8148 H   0  0  0  0  0  0  0  0  0  0  0  0
   -2.8392   23.0662  -32.4477 H   0  0  0  0  0  0  0  0  0  0  0  0
   -3.0549   21.3693  -31.8656 H   0  0  0  0  0  0  0  0  0  0  0  0
   -4.5660   22.6100  -34.0010 H   0  0  0  0  0  0  0  0  0  0  0  0
   -6.4022   23.6194  -32.3596 H   0  0  0  0  0  0  0  0  0  0  0  0
   -8.6720   24.3061  -31.6124 H   0  0  0  0  0  0  0  0  0  0  0  0
  -10.4497   22.5995  -31.2850 H   0  0  0  0  0  0  0  0  0  0  0  0
   -9.9740   20.1968  -31.6976 H   0  0  0  0  0  0  0  0  0  0  0  0
   -8.8430   17.9927  -31.2643 H   0  0  0  0  0  0  0  0  0  0  0  0
   -9.6018   18.5083  -32.8087 H   0  0  0  0  0  0  0  0  0  0  0  0
   -8.3532   17.2169  -32.8087 H   0  0  0  0  0  0  0  0  0  0  0  0
   -5.8955   14.5109  -32.4790 H   0  0  0  0  0  0  0  0  0  0  0  0
   -6.6480   15.0415  -34.0214 H   0  0  0  0  0  0  0  0  0  0  0  0
   -5.4438   13.7085  -34.0214 H   0  0  0  0  0  0  0  0  0  0  0  0
   -3.1568   14.1624  -34.3230 H   0  0  0  0  0  0  0  0  0  0  0  0
   -1.3142   15.8073  -34.6504 H   0  0  0  0  0  0  0  0  0  0  0  0
   -1.7168   18.2380  -34.2635 H   0  0  0  0  0  0  0  0  0  0  0  0
   -3.2397   20.0541  -33.6279 H   0  0  0  0  0  0  0  0  0  0  0  0
  1  2  1  0
  2  3  1  0
  3  4  1  0
  4  5  1  0
  3  6  1  0
  6  7  1  0
  7  8  1  0
  8  9  1  0
  9 10  2  0
 10 11  1  0
 11 12  2  0
 12 13  1  0
 13 14  2  0
 14 15  1  0
 15 16  2  0
 16 17  1  0
 16 18  1  0
 18 19  2  0
 19 20  1  0
 20 21  2  0
 21 22  1  0
 21 23  1  0
 23 24  2  0
 24 25  1  0
 25 26  2  0
 26 27  1  0
 27 28  2  0
 28  9  1  0
 15 10  1  0
 28 18  1  0
 26 20  1  0
  1 29  1  0
  1 30  1  0
  1 31  1  0
  2 32  1  0
  2 33  1  0
  4 34  1  0
  4 35  1  0
  5 36  1  0
  5 37  1  0
  5 38  1  0
  6 39  1  0
  6 40  1  0
  7 41  1  0
  7 42  1  0
  8 43  1  0
 11 44  1  0
 12 45  1  0
 13 46  1  0
 14 47  1  0
 17 48  1  0
 17 49  1  0
 17 50  1  0
 22 51  1  0
 22 52  1  0
 22 53  1  0
 23 54  1  0
 24 55  1  0
 25 56  1  0
 27 57  1  0
M  CHG  1  16   1
M  END
>  <UniqueID>  (28) 
28

>  <SMILES>  (28) 
CCN(CC)CCNc1c2ccccc2[n+](C)c2nc3c(C)cccc3cc12

>  <Energy>  (28) 
81.30496709888591

>  <Genealogy>  (28) 
CCN(CC)CCNc1c2ccccc2[n+](C)c2nc3c(C)cccc3cc12 (3D coordinates assigned)
CCN(CC)CCNc1c2ccccc2[n+](C)c2nc3c(C)cccc3cc12 (optimized conformer: 81.30496709888591 kcal/mol)

>  <smiles>  (28) 
CCN(CC)CCNc1c2ccccc2[n+](C)c2nc3c(C)cccc3cc12

>  <score_type>  (28) 
oracle

>  <origin>  (28) 
adg

>  <m_score__min__energy>  (28) 
-9.4299999999999997

>  <m_primary>  (28) 
energy

$$$$
28:0
     RDKit          3D

 61 64  0  0  0  0  0  0  0  0999 V2000
   -5.8310   25.2840  -30.0760 C   0  0  0  0  0  0  0  0  0  0  0  0
   -4.4110   24.8420  -30.4610 C   0  0  0  0  0  0  0  0  0  0  0  0
   -3.5380   24.5680  -29.2970 N   0  0  0  0  0  0  0  0  0  0  0  0
   -4.3020   24.1230  -28.1100 C   0  0  0  0  0  0  0  0  0  0  0  0
   -3.6330   24.5800  -26.8160 C   0  0  0  0  0  0  0  0  0  0  0  0
   -2.3960   23.6830  -29.6290 C   0  0  0  0  0  0  0  0  0  0  0  0
   -2.7510   22.8290  -30.8480 C   0  0  0  0  0  0  0  0  0  0  0  0
   -2.2430   21.5140  -30.7120 O   0  0  0  0  0  0  0  0  0  0  0  0
   -1.7150   21.0320  -31.9350 C   0  0  0  0  0  0  0  0  0  0  0  0
   -2.6320   21.3830  -33.1220 C   0  0  0  0  0  0  0  0  0  0  0  0
   -3.8520   20.5530  -33.1530 N   0  0  0  0  0  0  0  0  0  0  0  0
   -5.0840   21.0100  -32.8030 C   0  0  0  0  0  0  0  0  0  0  0  0
   -5.4300   22.3110  -32.4010 C   0  0  0  0  0  0  0  0  0  0  0  0
   -6.7510   22.5660  -32.0020 C   0  0  0  0  0  0  0  0  0  0  0  0
   -7.6960   21.5260  -31.9700 C   0  0  0  0  0  0  0  0  0  0  0  0
   -9.4740   21.8790  -31.3690 Br  0  0  0  0  0  0  0  0  0  0  0  0
   -7.3320   20.2240  -32.3480 C   0  0  0  0  0  0  0  0  0  0  0  0
   -6.0210   19.9980  -32.7930 C   0  0  0  0  0  0  0  0  0  0  0  0
   -5.3460   18.8400  -33.1460 C   0  0  0  0  0  0  0  0  0  0  0  0
   -5.7710   17.5090  -33.2510 C   0  0  0  0  0  0  0  0  0  0  0  0
   -7.2400   17.1630  -33.3190 C   0  0  0  0  0  0  0  0  0  0  0  0
   -4.7610   16.5180  -33.2930 C   0  0  0  0  0  0  0  0  0  0  0  0
   -5.0700   15.1470  -33.1360 C   0  0  0  0  0  0  0  0  0  0  0  0
   -4.0660   14.1820  -33.1530 C   0  0  0  0  0  0  0  0  0  0  0  0
   -2.7380   14.5560  -33.3030 C   0  0  0  0  0  0  0  0  0  0  0  0
   -2.4000   15.9000  -33.4470 C   0  0  0  0  0  0  0  0  0  0  0  0
   -3.3940   16.9110  -33.4670 C   0  0  0  0  0  0  0  0  0  0  0  0
   -3.0620   18.2480  -33.6350 N   0  0  0  0  0  0  0  0  0  0  0  0
   -1.7390   18.5990  -34.1790 C   0  0  0  0  0  0  0  0  0  0  0  0
   -4.0210   19.2010  -33.3510 C   0  0  0  0  0  0  0  0  0  0  0  0
   -5.9218   25.3123  -28.9801 H   0  0  0  0  0  0  0  0  0  0  0  0
   -6.0271   26.2857  -30.4861 H   0  0  0  0  0  0  0  0  0  0  0  0
   -6.5609   24.5706  -30.4861 H   0  0  0  0  0  0  0  0  0  0  0  0
   -4.4840   23.9250  -31.0641 H   0  0  0  0  0  0  0  0  0  0  0  0
   -3.9545   25.6741  -31.0171 H   0  0  0  0  0  0  0  0  0  0  0  0
   -5.3164   24.5459  -28.1576 H   0  0  0  0  0  0  0  0  0  0  0  0
   -4.3380   23.0236  -28.1126 H   0  0  0  0  0  0  0  0  0  0  0  0
   -4.1982   24.1939  -25.9549 H   0  0  0  0  0  0  0  0  0  0  0  0
   -2.6028   24.1960  -26.7804 H   0  0  0  0  0  0  0  0  0  0  0  0
   -3.6160   25.6793  -26.7804 H   0  0  0  0  0  0  0  0  0  0  0  0
   -1.5109   24.2957  -29.8556 H   0  0  0  0  0  0  0  0  0  0  0  0
   -2.1785   23.0277  -28.7727 H   0  0  0  0  0  0  0  0  0  0  0  0
   -3.8454   22.7832  -30.9487 H   0  0  0  0  0  0  0  0  0  0  0  0
   -2.3007   23.2880  -31.7405 H   0  0  0  0  0  0  0  0  0  0  0  0
   -0.7263   21.4847  -32.1008 H   0  0  0  0  0  0  0  0  0  0  0  0
   -1.6377   19.9366  -31.8702 H   0  0  0  0  0  0  0  0  0  0  0  0
   -2.9255   22.4401  -33.0416 H   0  0  0  0  0  0  0  0  0  0  0  0
   -2.0710   21.1907  -34.0485 H   0  0  0  0  0  0  0  0  0  0  0  0
   -4.6792   23.1149  -32.3991 H   0  0  0  0  0  0  0  0  0  0  0  0
   -7.0484   23.5848  -31.7129 H   0  0  0  0  0  0  0  0  0  0  0  0
   -8.0584   19.3996  -32.2964 H   0  0  0  0  0  0  0  0  0  0  0  0
   -7.6420   17.0683  -32.2995 H   0  0  0  0  0  0  0  0  0  0  0  0
   -7.7797   17.9586  -33.8535 H   0  0  0  0  0  0  0  0  0  0  0  0
   -7.3679   16.2102  -33.8535 H   0  0  0  0  0  0  0  0  0  0  0  0
   -6.1170   14.8388  -32.9987 H   0  0  0  0  0  0  0  0  0  0  0  0
   -4.3268   13.1186  -33.0471 H   0  0  0  0  0  0  0  0  0  0  0  0
   -1.9497   13.7889  -33.3082 H   0  0  0  0  0  0  0  0  0  0  0  0
   -1.3415   16.1822  -33.5471 H   0  0  0  0  0  0  0  0  0  0  0  0
   -1.0394   18.7846  -33.3507 H   0  0  0  0  0  0  0  0  0  0  0  0
   -1.3644   17.7692  -34.7963 H   0  0  0  0  0  0  0  0  0  0  0  0
   -1.8251   19.5054  -34.7963 H   0  0  0  0  0  0  0  0  0  0  0  0
  1  2  1  0
  2  3  1  0
  3  4  1  0
  4  5  1  0
  3  6  1  0
  6  7  1  0
  7  8  1  0
  8  9  1  0
  9 10  1  0
 10 11  1  0
 11 12  1  0
 12 13  2  0
 13 14  1  0
 14 15  2  0
 15 16  1  0
 15 17  1  0
 17 18  2  0
 18 19  1  0
 19 20  2  0
 20 21  1  0
 20 22  1  0
 22 23  2  0
 23 24  1  0
 24 25  2  0
 25 26  1  0
 26 27  2  0
 27 28  1  0
 28 29  1  0
 28 30  2  0
 30 11  1  0
 18 12  1  0
 30 19  1  0
 27 22  1  0
  1 31  1  0
  1 32  1  0
  1 33  1  0
  2 34  1  0
  2 35  1  0
  4 36  1  0
  4 37  1  0
  5 38  1  0
  5 39  1  0
  5 40  1  0
  6 41  1  0
  6 42  1  0
  7 43  1  0
  7 44  1  0
  9 45  1  0
  9 46  1  0
 10 47  1  0
 10 48  1  0
 13 49  1  0
 14 50  1  0
 17 51  1  0
 21 52  1  0
 21 53  1  0
 21 54  1  0
 23 55  1  0
 24 56  1  0
 25 57  1  0
 26 58  1  0
 29 59  1  0
 29 60  1  0
 29 61  1  0
M  CHG  1  28   1
M  END
>  <UniqueID>  (29) 
29

>  <SMILES>  (29) 
CCN(CC)CCOCCn1c2ccc(Br)cc2c2c(C)c3ccccc3[n+](C)c21

>  <Energy>  (29) 
133.28111960833493

>  <Genealogy>  (29) 
CCN(CC)CCOCCn1c2ccc(Br)cc2c2c(C)c3ccccc3[n+](C)c21 (3D coordinates assigned)
CCN(CC)CCOCCn1c2ccc(Br)cc2c2c(C)c3ccccc3[n+](C)c21 (optimized conformer: 133.28111960833493 kcal/mol)

>  <smiles>  (29) 
CCN(CC)CCOCCn1c2ccc(Br)cc2c2c(C)c3ccccc3[n+](C)c21

>  <score_type>  (29) 
oracle

>  <origin>  (29) 
adg

>  <m_score__min__energy>  (29) 
-8.8499999999999996

>  <m_primary>  (29) 
energy

$$$$
29:0
     RDKit          3D

 47 47  0  0  0  0  0  0  0  0999 V2000
   -1.9970   25.6510  -25.8950 C   0  0  0  0  0  0  0  0  0  0  0  0
   -1.9640   24.9840  -27.2750 C   0  0  0  0  0  0  0  0  0  0  0  0
   -3.3150   24.6340  -27.7750 N   0  0  2  0  0  0  0  0  0  0  0  0
   -4.2650   24.5270  -26.6490 C   0  0  0  0  0  0  0  0  0  0  0  0
   -3.3590   23.4320  -28.6510 C   0  0  0  0  0  0  0  0  0  0  0  0
   -3.3470   23.7180  -30.1720 C   0  0  0  0  0  0  0  0  0  0  0  0
   -3.9260   24.9760  -30.4670 O   0  0  0  0  0  0  0  0  0  0  0  0
   -5.3040   25.0050  -30.1430 C   0  0  0  0  0  0  0  0  0  0  0  0
   -6.1370   24.5390  -31.3380 C   0  0  0  0  0  0  0  0  0  0  0  0
   -5.9950   23.1320  -31.5320 O   0  0  0  0  0  0  0  0  0  0  0  0
   -7.0400   22.2180  -31.7600 C   0  0  0  0  0  0  0  0  0  0  0  0
   -8.3500   22.4640  -31.3000 C   0  0  0  0  0  0  0  0  0  0  0  0
   -9.3720   21.5450  -31.5420 C   0  0  0  0  0  0  0  0  0  0  0  0
   -9.1070   20.3730  -32.2440 C   0  0  0  0  0  0  0  0  0  0  0  0
   -7.8180   20.1130  -32.7090 C   0  0  0  0  0  0  0  0  0  0  0  0
   -6.7690   21.0240  -32.4780 C   0  0  0  0  0  0  0  0  0  0  0  0
   -5.3780   20.6840  -32.9990 C   0  0  0  0  0  0  0  0  0  0  0  0
   -4.3350   20.6610  -31.8740 C   0  0  0  0  0  0  0  0  0  0  0  0
   -5.3720   19.3770  -33.8020 C   0  0  0  0  0  0  0  0  0  0  0  0
   -1.9588   24.8781  -25.1132 H   0  0  0  0  0  0  0  0  0  0  0  0
   -1.1309   26.3211  -25.7908 H   0  0  0  0  0  0  0  0  0  0  0  0
   -2.9250   26.2323  -25.7908 H   0  0  0  0  0  0  0  0  0  0  0  0
   -1.4931   25.6759  -27.9889 H   0  0  0  0  0  0  0  0  0  0  0  0
   -1.3936   24.0485  -27.1777 H   0  0  0  0  0  0  0  0  0  0  0  0
   -3.6520   25.4380  -28.3580 H   0  0  0  0  0  0  0  0  0  0  0  0
   -3.7152   24.5889  -25.6983 H   0  0  0  0  0  0  0  0  0  0  0  0
   -4.9942   25.3487  -26.7051 H   0  0  0  0  0  0  0  0  0  0  0  0
   -4.7931   23.5637  -26.7051 H   0  0  0  0  0  0  0  0  0  0  0  0
   -2.4837   22.8086  -28.4160 H   0  0  0  0  0  0  0  0  0  0  0  0
   -4.3207   22.9403  -28.4427 H   0  0  0  0  0  0  0  0  0  0  0  0
   -2.3066   23.7106  -30.5291 H   0  0  0  0  0  0  0  0  0  0  0  0
   -3.9386   22.9388  -30.6749 H   0  0  0  0  0  0  0  0  0  0  0  0
   -5.4904   24.3385  -29.2880 H   0  0  0  0  0  0  0  0  0  0  0  0
   -5.5907   26.0352  -29.8853 H   0  0  0  0  0  0  0  0  0  0  0  0
   -7.1958   24.7734  -31.1538 H   0  0  0  0  0  0  0  0  0  0  0  0
   -5.7834   25.0587  -32.2407 H   0  0  0  0  0  0  0  0  0  0  0  0
   -8.5684   23.3885  -30.7454 H   0  0  0  0  0  0  0  0  0  0  0  0
  -10.3897   21.7476  -31.1769 H   0  0  0  0  0  0  0  0  0  0  0  0
   -9.9151   19.6508  -32.4324 H   0  0  0  0  0  0  0  0  0  0  0  0
   -7.6181   19.1842  -33.2634 H   0  0  0  0  0  0  0  0  0  0  0  0
   -5.0910   21.4904  -33.6899 H   0  0  0  0  0  0  0  0  0  0  0  0
   -4.8460   20.6723  -30.9000 H   0  0  0  0  0  0  0  0  0  0  0  0
   -3.7254   19.7492  -31.9577 H   0  0  0  0  0  0  0  0  0  0  0  0
   -3.6858   21.5450  -31.9577 H   0  0  0  0  0  0  0  0  0  0  0  0
   -5.3681   18.5217  -33.1103 H   0  0  0  0  0  0  0  0  0  0  0  0
   -6.2699   19.3319  -34.4358 H   0  0  0  0  0  0  0  0  0  0  0  0
   -4.4737   19.3402  -34.4358 H   0  0  0  0  0  0  0  0  0  0  0  0
  1  2  1  0
  2  3  1  0
  3  4  1  0
  3  5  1  0
  5  6  1  0
  6  7  1  0
  7  8  1  0
  8  9  1  0
  9 10  1  0
 10 11  1  0
 11 12  2  0
 12 13  1  0
 13 14  2  0
 14 15  1  0
 15 16  2  0
 16 17  1  0
 17 18  1  0
 17 19  1  0
 16 11  1  0
  1 20  1  0
  1 21  1  0
  1 22  1  0
  2 23  1  0
  2 24  1  0
  3 25  1  6
  4 26  1  0
  4 27  1  0
  4 28  1  0
  5 29  1  0
  5 30  1  0
  6 31  1  0
  6 32  1  0
  8 33  1  0
  8 34  1  0
  9 35  1  0
  9 36  1  0
 12 37  1  0
 13 38  1  0
 14 39  1  0
 15 40  1  0
 17 41  1  0
 18 42  1  0
 18 43  1  0
 18 44  1  0
 19 45  1  0
 19 46  1  0
 19 47  1  0
M  CHG  1   3   1
M  END
>  <UniqueID>  (30) 
30

>  <SMILES>  (30) 
CC[N@H+](C)CCOCCOc1ccccc1C(C)C

>  <Energy>  (30) 
47.06173313869128

>  <Genealogy>  (30) 
CC[NH+](C)CCOCCOc1ccccc1C(C)C (protonated)
CC[N@H+](C)CCOCCOc1ccccc1C(C)C (chirality)
CC[N@H+](C)CCOCCOc1ccccc1C(C)C (3D coordinates assigned)
CC[N@H+](C)CCOCCOc1ccccc1C(C)C (optimized conformer: 47.06173313869128 kcal/mol)

>  <smiles>  (30) 
CCN(C)CCOCCOc1ccccc1C(C)C

>  <score_type>  (30) 
oracle

>  <origin>  (30) 
adg

>  <m_score__min__energy>  (30) 
-5.7199999999999998

>  <m_primary>  (30) 
energy

$$$$
30:0
     RDKit          3D

 38 40  0  0  0  0  0  0  0  0999 V2000
    0.7450   22.3930  -35.7200 C   0  0  0  0  0  0  0  0  0  0  0  0
    0.4430   21.3200  -34.6800 C   0  0  0  0  0  0  0  0  0  0  0  0
   -0.9990   21.1730  -34.4960 N   0  0  0  0  0  0  0  0  0  0  0  0
   -1.6180   21.2050  -33.1990 C   0  0  0  0  0  0  0  0  0  0  0  0
   -0.9190   21.4670  -32.1810 O   0  0  0  0  0  0  0  0  0  0  0  0
   -3.0690   20.9510  -33.0330 C   0  0  0  0  0  0  0  0  0  0  0  0
   -3.6290   19.6800  -33.3360 C   0  0  0  0  0  0  0  0  0  0  0  0
   -5.0050   19.4430  -33.1800 C   0  0  0  0  0  0  0  0  0  0  0  0
   -5.7960   20.4840  -32.7070 C   0  0  0  0  0  0  0  0  0  0  0  0
   -7.1510   20.5650  -32.4780 C   0  0  0  0  0  0  0  0  0  0  0  0
   -8.1730   19.6340  -32.6480 C   0  0  0  0  0  0  0  0  0  0  0  0
   -9.4850   20.0410  -32.3490 C   0  0  0  0  0  0  0  0  0  0  0  0
   -9.7430   21.3530  -31.8970 C   0  0  0  0  0  0  0  0  0  0  0  0
   -8.6930   22.2750  -31.7350 C   0  0  0  0  0  0  0  0  0  0  0  0
   -7.3930   21.8500  -32.0300 C   0  0  0  0  0  0  0  0  0  0  0  0
   -6.2410   22.5660  -31.9560 N   0  0  0  0  0  0  0  0  0  0  0  0
   -6.0930   23.9770  -31.5880 C   0  0  0  0  0  0  0  0  0  0  0  0
   -6.1590   24.1380  -30.0740 C   0  0  0  0  0  0  0  0  0  0  0  0
   -5.2720   21.7190  -32.3890 C   0  0  0  0  0  0  0  0  0  0  0  0
   -3.9070   21.9820  -32.5450 C   0  0  0  0  0  0  0  0  0  0  0  0
    1.0093   23.3321  -35.2118 H   0  0  0  0  0  0  0  0  0  0  0  0
    1.5864   22.0672  -36.3493 H   0  0  0  0  0  0  0  0  0  0  0  0
   -0.1428   22.5539  -36.3493 H   0  0  0  0  0  0  0  0  0  0  0  0
    0.8639   20.3613  -35.0171 H   0  0  0  0  0  0  0  0  0  0  0  0
    0.8940   21.6180  -33.7220 H   0  0  0  0  0  0  0  0  0  0  0  0
   -1.5860   21.0560  -35.3520 H   0  0  0  0  0  0  0  0  0  0  0  0
   -2.9765   18.8715  -33.6973 H   0  0  0  0  0  0  0  0  0  0  0  0
   -5.4430   18.4640  -33.4245 H   0  0  0  0  0  0  0  0  0  0  0  0
   -7.9608   18.6151  -33.0041 H   0  0  0  0  0  0  0  0  0  0  0  0
  -10.3170   19.3314  -32.4682 H   0  0  0  0  0  0  0  0  0  0  0  0
  -10.7752   21.6575  -31.6692 H   0  0  0  0  0  0  0  0  0  0  0  0
   -8.8882   23.3000  -31.3866 H   0  0  0  0  0  0  0  0  0  0  0  0
   -5.1224   24.3467  -31.9504 H   0  0  0  0  0  0  0  0  0  0  0  0
   -6.9103   24.5539  -32.0453 H   0  0  0  0  0  0  0  0  0  0  0  0
   -5.7841   23.2234  -29.5913 H   0  0  0  0  0  0  0  0  0  0  0  0
   -5.5392   24.9941  -29.7689 H   0  0  0  0  0  0  0  0  0  0  0  0
   -7.2013   24.3127  -29.7689 H   0  0  0  0  0  0  0  0  0  0  0  0
   -3.4934   22.9698  -32.2936 H   0  0  0  0  0  0  0  0  0  0  0  0
  1  2  1  0
  2  3  1  0
  3  4  1  0
  4  5  2  0
  4  6  1  0
  6  7  2  0
  7  8  1  0
  8  9  2  0
  9 10  1  0
 10 11  2  0
 11 12  1  0
 12 13  2  0
 13 14  1  0
 14 15  2  0
 15 16  1  0
 16 17  1  0
 17 18  1  0
 16 19  1  0
 19 20  2  0
 20  6  1  0
 19  9  1  0
 15 10  1  0
  1 21  1  0
  1 22  1  0
  1 23  1  0
  2 24  1  0
  2 25  1  0
  3 26  1  0
  7 27  1  0
  8 28  1  0
 11 29  1  0
 12 30  1  0
 13 31  1  0
 14 32  1  0
 17 33  1  0
 17 34  1  0
 18 35  1  0
 18 36  1  0
 18 37  1  0
 20 38  1  0
M  END
>  <UniqueID>  (31) 
31

>  <SMILES>  (31) 
CCNC(=O)c1ccc2c3ccccc3n(CC)c2c1

>  <Energy>  (31) 
76.38747403210445

>  <Genealogy>  (31) 
CCNC(=O)c1ccc2c3ccccc3n(CC)c2c1 (3D coordinates assigned)
CCNC(=O)c1ccc2c3ccccc3n(CC)c2c1 (optimized conformer: 76.38747403210445 kcal/mol)

>  <smiles>  (31) 
CCNC(=O)c1ccc2c3ccccc3n(CC)c2c1

>  <score_type>  (31) 
oracle

>  <origin>  (31) 
adg

>  <m_score__min__energy>  (31) 
-7.8099999999999996

>  <m_primary>  (31) 
energy

$$$$
