0:0
     RDKit          3D

 50 53  0  0  0  0  0  0  0  0999 V2000
   -5.2520   25.6710  -30.4480 C   0  0  0  0  0  0  0  0  0  0  0  0
   -3.8970   25.2860  -30.5440 O   0  0  0  0  0  0  0  0  0  0  0  0
   -3.5610   24.3910  -29.5000 C   0  0  0  0  0  0  0  0  0  0  0  0
   -3.6180   22.9210  -29.9890 C   0  0  1  0  0  0  0  0  0  0  0  0
   -4.5030   22.8250  -31.2610 C   0  0  0  0  0  0  0  0  0  0  0  0
   -4.3580   21.5060  -31.9300 N   0  0  0  0  0  0  0  0  0  0  0  0
   -5.3530   21.3540  -33.0110 C   0  0  0  0  0  0  0  0  0  0  0  0
   -6.7480   21.2330  -32.4350 C   0  0  0  0  0  0  0  0  0  0  0  0
   -7.4520   22.4170  -32.1550 C   0  0  0  0  0  0  0  0  0  0  0  0
   -8.7660   22.3730  -31.6880 C   0  0  0  0  0  0  0  0  0  0  0  0
   -9.4020   21.1460  -31.5040 C   0  0  0  0  0  0  0  0  0  0  0  0
   -8.7220   19.9570  -31.7800 C   0  0  0  0  0  0  0  0  0  0  0  0
   -7.3940   19.9830  -32.2380 C   0  0  0  0  0  0  0  0  0  0  0  0
   -6.7240   18.6950  -32.5090 C   0  0  0  0  0  0  0  0  0  0  0  0
   -6.4570   18.2960  -33.8260 C   0  0  0  0  0  0  0  0  0  0  0  0
   -5.8340   17.0720  -34.0710 C   0  0  0  0  0  0  0  0  0  0  0  0
   -5.4970   16.2490  -32.9930 C   0  0  0  0  0  0  0  0  0  0  0  0
   -5.7780   16.6410  -31.7220 N   0  0  0  0  0  0  0  0  0  0  0  0
   -6.3820   17.8310  -31.4590 C   0  0  0  0  0  0  0  0  0  0  0  0
   -2.9910   21.3500  -32.4800 C   0  0  0  0  0  0  0  0  0  0  0  0
   -1.9890   21.6050  -31.4040 C   0  0  0  0  0  0  0  0  0  0  0  0
   -0.6960   21.1520  -31.2710 C   0  0  0  0  0  0  0  0  0  0  0  0
   -0.2140   21.5750  -30.0840 N   0  0  0  0  0  0  0  0  0  0  0  0
   -1.1610   22.2860  -29.4840 N   0  0  0  0  0  0  0  0  0  0  0  0
   -1.0070   22.8390  -28.1450 C   0  0  0  0  0  0  0  0  0  0  0  0
   -2.2480   22.3500  -30.2860 C   0  0  0  0  0  0  0  0  0  0  0  0
   -5.5361   25.7517  -29.3884 H   0  0  0  0  0  0  0  0  0  0  0  0
   -5.3923   26.6446  -30.9404 H   0  0  0  0  0  0  0  0  0  0  0  0
   -5.8833   24.9167  -30.9404 H   0  0  0  0  0  0  0  0  0  0  0  0
   -2.5428   24.6141  -29.1487 H   0  0  0  0  0  0  0  0  0  0  0  0
   -4.2867   24.5171  -28.6830 H   0  0  0  0  0  0  0  0  0  0  0  0
   -4.0521   22.3265  -29.1716 H   0  0  0  0  0  0  0  0  0  0  0  0
   -5.5557   22.9664  -30.9750 H   0  0  0  0  0  0  0  0  0  0  0  0
   -4.1791   23.6054  -31.9652 H   0  0  0  0  0  0  0  0  0  0  0  0
   -5.3086   22.2336  -33.6701 H   0  0  0  0  0  0  0  0  0  0  0  0
   -5.1229   20.4413  -33.5803 H   0  0  0  0  0  0  0  0  0  0  0  0
   -6.9611   23.3898  -32.3059 H   0  0  0  0  0  0  0  0  0  0  0  0
   -9.3010   23.3078  -31.4646 H   0  0  0  0  0  0  0  0  0  0  0  0
  -10.4400   21.1140  -31.1412 H   0  0  0  0  0  0  0  0  0  0  0  0
   -9.2308   18.9922  -31.6375 H   0  0  0  0  0  0  0  0  0  0  0  0
   -6.7386   18.9478  -34.6661 H   0  0  0  0  0  0  0  0  0  0  0  0
   -5.6105   16.7582  -35.1013 H   0  0  0  0  0  0  0  0  0  0  0  0
   -5.0036   15.2825  -33.1732 H   0  0  0  0  0  0  0  0  0  0  0  0
   -6.6027   18.1163  -30.4198 H   0  0  0  0  0  0  0  0  0  0  0  0
   -2.8647   20.3267  -32.8634 H   0  0  0  0  0  0  0  0  0  0  0  0
   -2.8410   22.0697  -33.2983 H   0  0  0  0  0  0  0  0  0  0  0  0
   -0.1480   20.5470  -32.0083 H   0  0  0  0  0  0  0  0  0  0  0  0
   -1.2240   22.0599  -27.3994 H   0  0  0  0  0  0  0  0  0  0  0  0
    0.0248   23.1964  -28.0123 H   0  0  0  0  0  0  0  0  0  0  0  0
   -1.7056   23.6783  -28.0123 H   0  0  0  0  0  0  0  0  0  0  0  0
  1  2  1  0
  2  3  1  0
  3  4  1  0
  4  5  1  0
  5  6  1  0
  6  7  1  0
  7  8  1  0
  8  9  2  0
  9 10  1  0
 10 11  2  0
 11 12  1  0
 12 13  2  0
 13 14  1  0
 14 15  2  0
 15 16  1  0
 16 17  2  0
 17 18  1  0
 18 19  2  0
  6 20  1  0
 20 21  1  0
 21 22  1  0
 22 23  2  0
 23 24  1  0
 24 25  1  0
 24 26  1  0
 26  4  1  0
 13  8  1  0
 19 14  1  0
 26 21  2  0
  1 27  1  0
  1 28  1  0
  1 29  1  0
  3 30  1  0
  3 31  1  0
  4 32  1  1
  5 33  1  0
  5 34  1  0
  7 35  1  0
  7 36  1  0
  9 37  1  0
 10 38  1  0
 11 39  1  0
 12 40  1  0
 15 41  1  0
 16 42  1  0
 17 43  1  0
 19 44  1  0
 20 45  1  0
 20 46  1  0
 22 47  1  0
 25 48  1  0
 25 49  1  0
 25 50  1  0
M  END
>  <UniqueID>  (1) 
1

>  <SMILES>  (1) 
COC[C@H]1CN(Cc2ccccc2-c2cccnc2)Cc2cnn(C)c21

>  <Energy>  (1) 
101.5069609001911

>  <Genealogy>  (1) 
COC[C@H]1CN(Cc2ccccc2-c2cccnc2)Cc2cnn(C)c21 (chirality)
COC[C@H]1CN(Cc2ccccc2-c2cccnc2)Cc2cnn(C)c21 (3D coordinates assigned)
COC[C@H]1CN(Cc2ccccc2-c2cccnc2)Cc2cnn(C)c21 (nonaromatic ring conformer: 101.5069609001911 kcal/mol)

>  <smiles>  (1) 
COCC1CN(Cc2ccccc2-c2cccnc2)Cc2cnn(C)c21

>  <score_type>  (1) 
oracle

>  <origin>  (1) 
adg

>  <m_score__min__energy>  (1) 
-9.4900000000000002

>  <m_primary>  (1) 
energy

$$$$
1:0
     RDKit          3D

 64 66  0  0  0  0  0  0  0  0999 V2000
    0.8240   26.3160  -35.7520 C   0  0  0  0  0  0  0  0  0  0  0  0
    0.2640   25.3130  -36.7500 C   0  0  0  0  0  0  0  0  0  0  0  0
    1.2840   24.4130  -37.1280 O   0  0  0  0  0  0  0  0  0  0  0  0
    2.2690   24.3190  -36.1150 C   0  0  0  0  0  0  0  0  0  0  0  0
    2.0920   23.0110  -35.3430 C   0  0  0  0  0  0  0  0  0  0  0  0
    0.7330   22.6130  -35.3280 O   0  0  0  0  0  0  0  0  0  0  0  0
    0.6100   21.2090  -35.1900 C   0  0  0  0  0  0  0  0  0  0  0  0
   -0.8600   20.8130  -34.9830 C   0  0  0  0  0  0  0  0  0  0  0  0
   -1.3010   21.1710  -33.6860 O   0  0  0  0  0  0  0  0  0  0  0  0
   -0.4400   20.6450  -32.6860 C   0  0  0  0  0  0  0  0  0  0  0  0
   -1.2530   19.9940  -31.5620 C   0  0  0  0  0  0  0  0  0  0  0  0
   -2.6270   20.3250  -31.6460 O   0  0  0  0  0  0  0  0  0  0  0  0
   -2.9080   21.5660  -31.0210 C   0  0  0  0  0  0  0  0  0  0  0  0
   -3.9410   22.3540  -31.8350 C   0  0  0  0  0  0  0  0  0  0  0  0
   -4.2530   21.6860  -33.1100 N   0  0  0  0  0  0  0  0  0  0  0  0
   -5.4350   20.8490  -32.9740 C   0  0  0  0  0  0  0  0  0  0  0  0
   -6.6680   21.3930  -32.5240 C   0  0  0  0  0  0  0  0  0  0  0  0
   -6.8440   22.7880  -32.3370 C   0  0  0  0  0  0  0  0  0  0  0  0
   -8.0660   23.3090  -31.9150 C   0  0  0  0  0  0  0  0  0  0  0  0
   -9.1430   22.4630  -31.6920 C   0  0  0  0  0  0  0  0  0  0  0  0
   -9.0020   21.0890  -31.8720 C   0  0  0  0  0  0  0  0  0  0  0  0
   -7.7620   20.5210  -32.2620 C   0  0  0  0  0  0  0  0  0  0  0  0
   -7.6150   19.1560  -32.4060 N   0  0  0  0  0  0  0  0  0  0  0  0
   -8.6290   18.2360  -31.8400 C   0  0  0  0  0  0  0  0  0  0  0  0
   -6.5180   18.6460  -33.0710 C   0  0  0  0  0  0  0  0  0  0  0  0
   -6.4870   17.2990  -33.5150 C   0  0  0  0  0  0  0  0  0  0  0  0
   -5.3640   16.7740  -34.1500 C   0  0  0  0  0  0  0  0  0  0  0  0
   -4.2540   17.5750  -34.3780 C   0  0  0  0  0  0  0  0  0  0  0  0
   -4.2670   18.9140  -33.9910 C   0  0  0  0  0  0  0  0  0  0  0  0
   -5.3950   19.4770  -33.3420 C   0  0  0  0  0  0  0  0  0  0  0  0
    0.6274   25.9638  -34.7286 H   0  0  0  0  0  0  0  0  0  0  0  0
    1.9089   26.4168  -35.9030 H   0  0  0  0  0  0  0  0  0  0  0  0
    0.3405   27.2925  -35.9030 H   0  0  0  0  0  0  0  0  0  0  0  0
   -0.5641   24.7566  -36.2867 H   0  0  0  0  0  0  0  0  0  0  0  0
   -0.1068   25.8447  -37.6387 H   0  0  0  0  0  0  0  0  0  0  0  0
    3.2685   24.3402  -36.5739 H   0  0  0  0  0  0  0  0  0  0  0  0
    2.1618   25.1674  -35.4231 H   0  0  0  0  0  0  0  0  0  0  0  0
    2.6922   22.2248  -35.8242 H   0  0  0  0  0  0  0  0  0  0  0  0
    2.4239   23.1673  -34.3060 H   0  0  0  0  0  0  0  0  0  0  0  0
    0.9912   20.7215  -36.0995 H   0  0  0  0  0  0  0  0  0  0  0  0
    1.1911   20.8864  -34.3135 H   0  0  0  0  0  0  0  0  0  0  0  0
   -1.4809   21.3293  -35.7300 H   0  0  0  0  0  0  0  0  0  0  0  0
   -0.9500   19.7226  -35.0967 H   0  0  0  0  0  0  0  0  0  0  0  0
    0.2205   19.8904  -33.1381 H   0  0  0  0  0  0  0  0  0  0  0  0
    0.1554   21.4673  -32.2625 H   0  0  0  0  0  0  0  0  0  0  0  0
   -1.1452   18.9015  -31.6317 H   0  0  0  0  0  0  0  0  0  0  0  0
   -0.8695   20.3692  -30.6017 H   0  0  0  0  0  0  0  0  0  0  0  0
   -3.3060   21.3816  -30.0122 H   0  0  0  0  0  0  0  0  0  0  0  0
   -1.9795   22.1527  -30.9603 H   0  0  0  0  0  0  0  0  0  0  0  0
   -4.8649   22.4461  -31.2452 H   0  0  0  0  0  0  0  0  0  0  0  0
   -3.5176   23.3439  -32.0606 H   0  0  0  0  0  0  0  0  0  0  0  0
   -3.4340   21.1270  -33.4340 H   0  0  0  0  0  0  0  0  0  0  0  0
   -4.3900   22.3850  -33.8760 H   0  0  0  0  0  0  0  0  0  0  0  0
   -6.0023   23.4699  -32.5282 H   0  0  0  0  0  0  0  0  0  0  0  0
   -8.1767   24.3922  -31.7586 H   0  0  0  0  0  0  0  0  0  0  0  0
  -10.1102   22.8783  -31.3724 H   0  0  0  0  0  0  0  0  0  0  0  0
   -9.8688   20.4318  -31.7086 H   0  0  0  0  0  0  0  0  0  0  0  0
   -8.5865   18.2745  -30.7415 H   0  0  0  0  0  0  0  0  0  0  0  0
   -9.6302   18.5404  -32.1791 H   0  0  0  0  0  0  0  0  0  0  0  0
   -8.4232   17.2100  -32.1791 H   0  0  0  0  0  0  0  0  0  0  0  0
   -7.3660   16.6574  -33.3548 H   0  0  0  0  0  0  0  0  0  0  0  0
   -5.3570   15.7221  -34.4715 H   0  0  0  0  0  0  0  0  0  0  0  0
   -3.3626   17.1526  -34.8648 H   0  0  0  0  0  0  0  0  0  0  0  0
   -3.3881   19.5441  -34.1923 H   0  0  0  0  0  0  0  0  0  0  0  0
  1  2  1  0
  2  3  1  0
  3  4  1  0
  4  5  1  0
  5  6  1  0
  6  7  1  0
  7  8  1  0
  8  9  1  0
  9 10  1  0
 10 11  1  0
 11 12  1  0
 12 13  1  0
 13 14  1  0
 14 15  1  0
 15 16  1  0
 16 17  2  0
 17 18  1  0
 18 19  2  0
 19 20  1  0
 20 21  2  0
 21 22  1  0
 22 23  2  0
 23 24  1  0
 23 25  1  0
 25 26  2  0
 26 27  1  0
 27 28  2  0
 28 29  1  0
 29 30  2  0
 30 16  1  0
 22 17  1  0
 30 25  1  0
  1 31  1  0
  1 32  1  0
  1 33  1  0
  2 34  1  0
  2 35  1  0
  4 36  1  0
  4 37  1  0
  5 38  1  0
  5 39  1  0
  7 40  1  0
  7 41  1  0
  8 42  1  0
  8 43  1  0
 10 44  1  0
 10 45  1  0
 11 46  1  0
 11 47  1  0
 13 48  1  0
 13 49  1  0
 14 50  1  0
 14 51  1  0
 15 52  1  0
 15 53  1  0
 18 54  1  0
 19 55  1  0
 20 56  1  0
 21 57  1  0
 24 58  1  0
 24 59  1  0
 24 60  1  0
 26 61  1  0
 27 62  1  0
 28 63  1  0
 29 64  1  0
M  CHG  2  15   1  23   1
M  END
>  <UniqueID>  (2) 
2

>  <SMILES>  (2) 
CCOCCOCCOCCOCC[NH2+]c1c2ccccc2[n+](C)c2ccccc12

>  <Energy>  (2) 
95.35669727407753

>  <Genealogy>  (2) 
CCOCCOCCOCCOCC[NH2+]c1c2ccccc2[n+](C)c2ccccc12 (protonated)
CCOCCOCCOCCOCC[NH2+]c1c2ccccc2[n+](C)c2ccccc12 (3D coordinates assigned)
CCOCCOCCOCCOCC[NH2+]c1c2ccccc2[n+](C)c2ccccc12 (optimized conformer: 95.35669727407753 kcal/mol)

>  <smiles>  (2) 
CCOCCOCCOCCOCCNc1c2ccccc2[n+](C)c2ccccc12

>  <score_type>  (2) 
oracle

>  <origin>  (2) 
adg

>  <m_score__min__energy>  (2) 
-8.25

>  <m_primary>  (2) 
energy

$$$$
2:0
     RDKit          3D

 41 43  0  0  0  0  0  0  0  0999 V2000
   -4.7490   15.0540  -32.3890 C   0  0  0  0  0  0  0  0  0  0  0  0
   -4.0740   14.9290  -33.7560 C   0  0  0  0  0  0  0  0  0  0  0  0
   -3.2200   16.0980  -34.0070 N   0  0  0  0  0  0  0  0  0  0  0  0
   -3.5840   16.7390  -35.2810 C   0  0  0  0  0  0  0  0  0  0  0  0
   -4.6710   17.7890  -35.0510 C   0  0  0  0  0  0  0  0  0  0  0  0
   -4.8920   17.9550  -33.6480 O   0  0  0  0  0  0  0  0  0  0  0  0
   -5.7220   18.9380  -33.0920 C   0  0  0  0  0  0  0  0  0  0  0  0
   -7.0850   18.6230  -32.8800 C   0  0  0  0  0  0  0  0  0  0  0  0
   -7.9720   19.5670  -32.3360 C   0  0  0  0  0  0  0  0  0  0  0  0
   -7.4660   20.8260  -31.9950 C   0  0  0  0  0  0  0  0  0  0  0  0
   -6.1310   21.1260  -32.1790 C   0  0  0  0  0  0  0  0  0  0  0  0
   -5.2320   20.2150  -32.7270 C   0  0  0  0  0  0  0  0  0  0  0  0
   -5.9460   22.3990  -31.6830 C   0  0  0  0  0  0  0  0  0  0  0  0
   -4.7990   23.1830  -31.5620 C   0  0  0  0  0  0  0  0  0  0  0  0
   -4.9290   24.4470  -30.9510 C   0  0  0  0  0  0  0  0  0  0  0  0
   -3.8160   25.2710  -30.7960 O   0  0  0  0  0  0  0  0  0  0  0  0
   -6.1900   24.8840  -30.4820 C   0  0  0  0  0  0  0  0  0  0  0  0
   -7.3290   24.0700  -30.6140 C   0  0  0  0  0  0  0  0  0  0  0  0
   -7.1790   22.8220  -31.2280 C   0  0  0  0  0  0  0  0  0  0  0  0
   -8.1290   21.8710  -31.4350 N   0  0  0  0  0  0  0  0  0  0  0  0
   -9.5300   21.9050  -31.0090 C   0  0  0  0  0  0  0  0  0  0  0  0
   -3.9995   14.9152  -31.5959 H   0  0  0  0  0  0  0  0  0  0  0  0
   -5.2029   16.0515  -32.2940 H   0  0  0  0  0  0  0  0  0  0  0  0
   -5.5300   14.2852  -32.2940 H   0  0  0  0  0  0  0  0  0  0  0  0
   -3.4581   14.0178  -33.7755 H   0  0  0  0  0  0  0  0  0  0  0  0
   -4.8480   14.8749  -34.5358 H   0  0  0  0  0  0  0  0  0  0  0  0
   -3.3890   16.7890  -33.2340 H   0  0  0  0  0  0  0  0  0  0  0  0
   -2.6952   17.2240  -35.7109 H   0  0  0  0  0  0  0  0  0  0  0  0
   -3.9648   15.9731  -35.9727 H   0  0  0  0  0  0  0  0  0  0  0  0
   -4.3517   18.7472  -35.4867 H   0  0  0  0  0  0  0  0  0  0  0  0
   -5.6043   17.4580  -35.5300 H   0  0  0  0  0  0  0  0  0  0  0  0
   -7.4564   17.6222  -33.1456 H   0  0  0  0  0  0  0  0  0  0  0  0
   -9.0336   19.3233  -32.1826 H   0  0  0  0  0  0  0  0  0  0  0  0
   -4.1741   20.4792  -32.8718 H   0  0  0  0  0  0  0  0  0  0  0  0
   -3.8257   22.8272  -31.9308 H   0  0  0  0  0  0  0  0  0  0  0  0
   -3.2490   25.5460  -31.5900 H   0  0  0  0  0  0  0  0  0  0  0  0
   -6.2807   25.8726  -30.0083 H   0  0  0  0  0  0  0  0  0  0  0  0
   -8.3097   24.4049  -30.2451 H   0  0  0  0  0  0  0  0  0  0  0  0
   -9.5792   21.9062  -29.9101 H   0  0  0  0  0  0  0  0  0  0  0  0
  -10.0097   22.8151  -31.3985 H   0  0  0  0  0  0  0  0  0  0  0  0
  -10.0533   21.0193  -31.3985 H   0  0  0  0  0  0  0  0  0  0  0  0
  1  2  1  0
  2  3  1  0
  3  4  1  0
  4  5  1  0
  5  6  1  0
  6  7  1  0
  7  8  2  0
  8  9  1  0
  9 10  2  0
 10 11  1  0
 11 12  2  0
 11 13  1  0
 13 14  2  0
 14 15  1  0
 15 16  1  0
 15 17  2  0
 17 18  1  0
 18 19  2  0
 19 20  1  0
 20 21  1  0
 12  7  1  0
 19 13  1  0
 20 10  1  0
  1 22  1  0
  1 23  1  0
  1 24  1  0
  2 25  1  0
  2 26  1  0
  3 27  1  0
  4 28  1  0
  4 29  1  0
  5 30  1  0
  5 31  1  0
  8 32  1  0
  9 33  1  0
 12 34  1  0
 14 35  1  0
 16 36  1  0
 17 37  1  0
 18 38  1  0
 21 39  1  0
 21 40  1  0
 21 41  1  0
M  END
>  <UniqueID>  (3) 
3

>  <SMILES>  (3) 
CCNCCOc1ccc2c(c1)c1cc(O)ccc1n2C

>  <Energy>  (3) 
79.90673440436943

>  <Genealogy>  (3) 
CCNCCOc1ccc2c(c1)c1cc(O)ccc1n2C (3D coordinates assigned)
CCNCCOc1ccc2c(c1)c1cc(O)ccc1n2C (optimized conformer: 79.90673440436943 kcal/mol)

>  <smiles>  (3) 
CCNCCOc1ccc2c(c1)c1cc(O)ccc1n2C

>  <score_type>  (3) 
oracle

>  <origin>  (3) 
adg

>  <m_score__min__energy>  (3) 
-7.9299999999999997

>  <m_primary>  (3) 
energy

$$$$
3:0
     RDKit          3D

 44 47  0  0  0  0  0  0  0  0999 V2000
   -8.1290   17.7670  -32.3840 O   0  0  0  0  0  0  0  0  0  0  0  0
   -7.3690   18.7760  -32.3380 C   0  0  0  0  0  0  0  0  0  0  0  0
   -7.9130   20.0560  -32.1750 C   0  0  0  0  0  0  0  0  0  0  0  0
   -9.3050   20.2320  -32.0550 C   0  0  0  0  0  0  0  0  0  0  0  0
   -9.8450   21.5060  -31.9050 C   0  0  0  0  0  0  0  0  0  0  0  0
   -9.0080   22.6140  -31.8760 C   0  0  0  0  0  0  0  0  0  0  0  0
   -7.6250   22.4600  -31.9940 C   0  0  0  0  0  0  0  0  0  0  0  0
   -7.0390   21.1740  -32.1440 C   0  0  0  0  0  0  0  0  0  0  0  0
   -5.6710   20.9740  -32.2510 N   0  0  0  0  0  0  0  0  0  0  0  0
   -4.6800   22.0810  -32.2570 C   0  0  0  0  0  0  0  0  0  0  0  0
   -4.5450   22.6960  -30.8800 C   0  0  0  0  0  0  0  0  0  0  0  0
   -3.8810   21.9900  -29.8590 C   0  0  0  0  0  0  0  0  0  0  0  0
   -3.7250   22.5570  -28.5920 C   0  0  0  0  0  0  0  0  0  0  0  0
   -4.2290   23.8320  -28.3280 C   0  0  0  0  0  0  0  0  0  0  0  0
   -4.8940   24.5400  -29.3300 C   0  0  0  0  0  0  0  0  0  0  0  0
   -5.0540   23.9790  -30.6020 C   0  0  0  0  0  0  0  0  0  0  0  0
   -5.7080   24.6910  -31.5520 F   0  0  0  0  0  0  0  0  0  0  0  0
   -5.1810   19.6930  -32.3790 C   0  0  0  0  0  0  0  0  0  0  0  0
   -3.9310   19.4990  -32.4270 O   0  0  0  0  0  0  0  0  0  0  0  0
   -6.0210   18.6180  -32.4560 N   0  0  0  0  0  0  0  0  0  0  0  0
   -5.4730   17.2960  -32.6350 C   0  0  0  0  0  0  0  0  0  0  0  0
   -5.5350   16.3870  -31.5680 C   0  0  0  0  0  0  0  0  0  0  0  0
   -4.9890   15.1090  -31.6940 C   0  0  0  0  0  0  0  0  0  0  0  0
   -4.3720   14.7290  -32.8850 C   0  0  0  0  0  0  0  0  0  0  0  0
   -4.3060   15.6210  -33.9580 C   0  0  0  0  0  0  0  0  0  0  0  0
   -4.8700   16.9080  -33.8600 C   0  0  0  0  0  0  0  0  0  0  0  0
   -4.7730   17.8690  -35.0290 C   0  0  0  0  0  0  0  0  0  0  0  0
   -5.9770   18.5230  -35.2180 F   0  0  0  0  0  0  0  0  0  0  0  0
   -3.7840   18.8020  -34.7790 F   0  0  0  0  0  0  0  0  0  0  0  0
   -4.4630   17.2050  -36.2040 F   0  0  0  0  0  0  0  0  0  0  0  0
   -9.9703   19.3564  -32.0800 H   0  0  0  0  0  0  0  0  0  0  0  0
  -10.9332   21.6352  -31.8095 H   0  0  0  0  0  0  0  0  0  0  0  0
   -9.4375   23.6199  -31.7593 H   0  0  0  0  0  0  0  0  0  0  0  0
   -6.9781   23.3494  -31.9704 H   0  0  0  0  0  0  0  0  0  0  0  0
   -3.7026   21.6871  -32.5724 H   0  0  0  0  0  0  0  0  0  0  0  0
   -5.0261   22.8574  -32.9551 H   0  0  0  0  0  0  0  0  0  0  0  0
   -3.4822   20.9848  -30.0604 H   0  0  0  0  0  0  0  0  0  0  0  0
   -3.2041   21.9979  -27.8007 H   0  0  0  0  0  0  0  0  0  0  0  0
   -4.1020   24.2783  -27.3306 H   0  0  0  0  0  0  0  0  0  0  0  0
   -5.2939   25.5428  -29.1192 H   0  0  0  0  0  0  0  0  0  0  0  0
   -6.0176   16.6840  -30.6252 H   0  0  0  0  0  0  0  0  0  0  0  0
   -5.0454   14.4015  -30.8536 H   0  0  0  0  0  0  0  0  0  0  0  0
   -3.9358   13.7237  -32.9801 H   0  0  0  0  0  0  0  0  0  0  0  0
   -3.8080   15.3149  -34.8899 H   0  0  0  0  0  0  0  0  0  0  0  0
  1  2  2  0
  2  3  1  0
  3  4  2  0
  4  5  1  0
  5  6  2  0
  6  7  1  0
  7  8  2  0
  8  9  1  0
  9 10  1  0
 10 11  1  0
 11 12  2  0
 12 13  1  0
 13 14  2  0
 14 15  1  0
 15 16  2  0
 16 17  1  0
  9 18  1  0
 18 19  2  0
 18 20  1  0
 20 21  1  0
 21 22  2  0
 22 23  1  0
 23 24  2  0
 24 25  1  0
 25 26  2  0
 26 27  1  0
 27 28  1  0
 27 29  1  0
 27 30  1  0
 20  2  1  0
 26 21  1  0
  8  3  1  0
 16 11  1  0
  4 31  1  0
  5 32  1  0
  6 33  1  0
  7 34  1  0
 10 35  1  0
 10 36  1  0
 12 37  1  0
 13 38  1  0
 14 39  1  0
 15 40  1  0
 22 41  1  0
 23 42  1  0
 24 43  1  0
 25 44  1  0
M  END
>  <UniqueID>  (4) 
4

>  <SMILES>  (4) 
O=c1c2ccccc2n(Cc2ccccc2F)c(=O)n1-c1ccccc1C(F)(F)F

>  <Energy>  (4) 
75.62489034953164

>  <Genealogy>  (4) 
O=c1c2ccccc2n(Cc2ccccc2F)c(=O)n1-c1ccccc1C(F)(F)F (3D coordinates assigned)
O=c1c2ccccc2n(Cc2ccccc2F)c(=O)n1-c1ccccc1C(F)(F)F (optimized conformer: 75.62489034953164 kcal/mol)

>  <smiles>  (4) 
O=c1c2ccccc2n(Cc2ccccc2F)c(=O)n1-c1ccccc1C(F)(F)F

>  <score_type>  (4) 
oracle

>  <origin>  (4) 
adg

>  <m_score__min__energy>  (4) 
-8.2899999999999991

>  <m_primary>  (4) 
energy

$$$$
4:0
     RDKit          3D

 49 51  0  0  0  0  0  0  0  0999 V2000
   -1.3910   19.0070  -34.0830 C   0  0  0  0  0  0  0  0  0  0  0  0
   -1.3820   17.6760  -33.3500 C   0  0  0  0  0  0  0  0  0  0  0  0
   -2.7150   17.1880  -33.2290 O   0  0  0  0  0  0  0  0  0  0  0  0
   -3.7390   17.5620  -34.1080 C   0  0  0  0  0  0  0  0  0  0  0  0
   -3.5290   17.5620  -35.3530 O   0  0  0  0  0  0  0  0  0  0  0  0
   -5.1130   17.9610  -33.5780 C   0  0  1  0  0  0  0  0  0  0  0  0
   -6.0850   17.6440  -34.7450 C   0  0  0  0  0  0  0  0  0  0  0  0
   -5.4700   17.0800  -32.3540 C   0  0  0  0  0  0  0  0  0  0  0  0
   -6.7800   17.4980  -31.6870 C   0  0  0  0  0  0  0  0  0  0  0  0
   -6.7630   18.9660  -31.2570 C   0  0  0  0  0  0  0  0  0  0  0  0
   -6.4440   19.9860  -32.4010 C   0  0  1  0  0  0  0  0  0  0  0  0
   -7.6000   20.0880  -33.4520 C   0  0  0  0  0  0  0  0  0  0  0  0
   -6.2830   21.4020  -31.7400 C   0  0  0  0  0  0  0  0  0  0  0  0
   -7.3790   22.1120  -31.1180 C   0  0  0  0  0  0  0  0  0  0  0  0
   -8.7360   21.5190  -30.7970 C   0  0  0  0  0  0  0  0  0  0  0  0
   -7.1840   23.4250  -30.6540 C   0  0  0  0  0  0  0  0  0  0  0  0
   -5.9590   24.0600  -30.7720 C   0  0  0  0  0  0  0  0  0  0  0  0
   -5.7600   25.7060  -30.1980 Cl  0  0  0  0  0  0  0  0  0  0  0  0
   -4.8760   23.3730  -31.2960 C   0  0  0  0  0  0  0  0  0  0  0  0
   -5.0130   22.0490  -31.7440 C   0  0  0  0  0  0  0  0  0  0  0  0
   -3.8020   21.3240  -32.1510 C   0  0  0  0  0  0  0  0  0  0  0  0
   -2.7010   21.9250  -32.2970 O   0  0  0  0  0  0  0  0  0  0  0  0
   -3.8650   19.8560  -32.3310 C   0  0  0  0  0  0  0  0  0  0  0  0
   -5.1230   19.4970  -33.1590 C   0  0  1  0  0  0  0  0  0  0  0  0
   -1.3966   19.8284  -33.3514 H   0  0  0  0  0  0  0  0  0  0  0  0
   -0.4934   19.0841  -34.7141 H   0  0  0  0  0  0  0  0  0  0  0  0
   -2.2896   19.0720  -34.7141 H   0  0  0  0  0  0  0  0  0  0  0  0
   -0.7767   16.9514  -33.9144 H   0  0  0  0  0  0  0  0  0  0  0  0
   -0.9511   17.8140  -32.3474 H   0  0  0  0  0  0  0  0  0  0  0  0
   -7.0563   17.3272  -34.3374 H   0  0  0  0  0  0  0  0  0  0  0  0
   -6.2224   18.5439  -35.3625 H   0  0  0  0  0  0  0  0  0  0  0  0
   -5.6654   16.8361  -35.3625 H   0  0  0  0  0  0  0  0  0  0  0  0
   -5.5626   16.0358  -32.6873 H   0  0  0  0  0  0  0  0  0  0  0  0
   -4.6667   17.2012  -31.6124 H   0  0  0  0  0  0  0  0  0  0  0  0
   -7.6048   17.3463  -32.3988 H   0  0  0  0  0  0  0  0  0  0  0  0
   -6.9131   16.8821  -30.7854 H   0  0  0  0  0  0  0  0  0  0  0  0
   -7.7530   19.2128  -30.8458 H   0  0  0  0  0  0  0  0  0  0  0  0
   -5.9493   19.0623  -30.5230 H   0  0  0  0  0  0  0  0  0  0  0  0
   -8.5642   20.1731  -32.9294 H   0  0  0  0  0  0  0  0  0  0  0  0
   -7.4450   20.9760  -34.0825 H   0  0  0  0  0  0  0  0  0  0  0  0
   -7.6029   19.1866  -34.0825 H   0  0  0  0  0  0  0  0  0  0  0  0
   -8.8630   21.4635  -29.7058 H   0  0  0  0  0  0  0  0  0  0  0  0
   -9.5247   22.1545  -31.2261 H   0  0  0  0  0  0  0  0  0  0  0  0
   -8.8054   20.5085  -31.2261 H   0  0  0  0  0  0  0  0  0  0  0  0
   -8.0238   23.9600  -30.1866 H   0  0  0  0  0  0  0  0  0  0  0  0
   -3.8971   23.8705  -31.3619 H   0  0  0  0  0  0  0  0  0  0  0  0
   -2.9650   19.5116  -32.8615 H   0  0  0  0  0  0  0  0  0  0  0  0
   -3.9179   19.3655  -31.3478 H   0  0  0  0  0  0  0  0  0  0  0  0
   -5.1140   20.0438  -34.1134 H   0  0  0  0  0  0  0  0  0  0  0  0
  1  2  1  0
  2  3  1  0
  3  4  1  0
  4  5  2  0
  4  6  1  0
  6  7  1  6
  6  8  1  0
  8  9  1  0
  9 10  1  0
 10 11  1  0
 11 12  1  6
 11 13  1  0
 13 14  2  0
 14 15  1  0
 14 16  1  0
 16 17  2  0
 17 18  1  0
 17 19  1  0
 19 20  2  0
 20 21  1  0
 21 22  2  0
 21 23  1  0
 23 24  1  0
 24  6  1  0
 24 11  1  0
 20 13  1  0
  1 25  1  0
  1 26  1  0
  1 27  1  0
  2 28  1  0
  2 29  1  0
  7 30  1  0
  7 31  1  0
  7 32  1  0
  8 33  1  0
  8 34  1  0
  9 35  1  0
  9 36  1  0
 10 37  1  0
 10 38  1  0
 12 39  1  0
 12 40  1  0
 12 41  1  0
 15 42  1  0
 15 43  1  0
 15 44  1  0
 16 45  1  0
 19 46  1  0
 23 47  1  0
 23 48  1  0
 24 49  1  6
M  END
>  <UniqueID>  (5) 
5

>  <SMILES>  (5) 
CCOC(=O)[C@@]1(C)CCC[C@@]2(C)c3c(C)cc(Cl)cc3C(=O)CC21

>  <Energy>  (5) 
73.38861991661071

>  <Genealogy>  (5) 
CCOC(=O)[C@@]1(C)CCC[C@@]2(C)c3c(C)cc(Cl)cc3C(=O)CC21 (chirality)
CCOC(=O)[C@@]1(C)CCC[C@@]2(C)c3c(C)cc(Cl)cc3C(=O)CC21 (3D coordinates assigned)
CCOC(=O)[C@@]1(C)CCC[C@@]2(C)c3c(C)cc(Cl)cc3C(=O)CC21 (nonaromatic ring conformer: 73.38861991661071 kcal/mol)

>  <smiles>  (5) 
CCOC(=O)C1(C)CCCC2(C)c3c(C)cc(Cl)cc3C(=O)CC12

>  <score_type>  (5) 
oracle

>  <origin>  (5) 
adg

>  <m_score__min__energy>  (5) 
-8.9700000000000006

>  <m_primary>  (5) 
energy

$$$$
5:0
     RDKit          3D

 59 61  0  0  0  0  0  0  0  0999 V2000
   -2.3310   21.3480  -27.2300 C   0  0  0  0  0  0  0  0  0  0  0  0
   -3.4970   22.0160  -27.9520 C   0  0  0  0  0  0  0  0  0  0  0  0
   -3.7280   23.3120  -27.4280 O   0  0  0  0  0  0  0  0  0  0  0  0
   -4.3350   24.1570  -28.3870 C   0  0  0  0  0  0  0  0  0  0  0  0
   -3.3630   24.4590  -29.5250 C   0  0  0  0  0  0  0  0  0  0  0  0
   -4.0760   25.0520  -30.5900 O   0  0  0  0  0  0  0  0  0  0  0  0
   -5.3700   25.4400  -30.1720 C   0  0  0  0  0  0  0  0  0  0  0  0
   -6.4340   24.5290  -30.8040 C   0  0  0  0  0  0  0  0  0  0  0  0
   -5.9150   23.8020  -32.0560 C   0  0  0  0  0  0  0  0  0  0  0  0
   -4.9920   22.7150  -31.7110 N   0  0  0  0  0  0  0  0  0  0  0  0
   -5.1810   21.3740  -32.1900 C   0  0  0  0  0  0  0  0  0  0  0  0
   -6.4540   20.7870  -32.0990 C   0  0  0  0  0  0  0  0  0  0  0  0
   -7.4790   21.3900  -31.3390 C   0  0  0  0  0  0  0  0  0  0  0  0
   -8.7320   20.7930  -31.2330 C   0  0  0  0  0  0  0  0  0  0  0  0
   -8.9820   19.5840  -31.8690 C   0  0  0  0  0  0  0  0  0  0  0  0
   -7.9890   18.9770  -32.6370 C   0  0  0  0  0  0  0  0  0  0  0  0
   -6.7150   19.5810  -32.7950 C   0  0  0  0  0  0  0  0  0  0  0  0
   -5.7440   19.0300  -33.6070 N   0  0  0  0  0  0  0  0  0  0  0  0
   -6.1090   17.9850  -34.5900 C   0  0  0  0  0  0  0  0  0  0  0  0
   -4.4350   19.4650  -33.5110 C   0  0  0  0  0  0  0  0  0  0  0  0
   -3.3740   18.7360  -34.0990 C   0  0  0  0  0  0  0  0  0  0  0  0
   -2.0630   19.1840  -34.0230 C   0  0  0  0  0  0  0  0  0  0  0  0
   -1.7580   20.3420  -33.3280 C   0  0  0  0  0  0  0  0  0  0  0  0
   -2.7660   21.0800  -32.6830 C   0  0  0  0  0  0  0  0  0  0  0  0
   -2.4440   22.1950  -31.8880 O   0  0  0  0  0  0  0  0  0  0  0  0
   -1.4600   22.2430  -30.8520 C   0  0  0  0  0  0  0  0  0  0  0  0
   -1.2310   20.8570  -30.2570 C   0  0  0  0  0  0  0  0  0  0  0  0
   -4.1230   20.6570  -32.7950 C   0  0  0  0  0  0  0  0  0  0  0  0
   -2.4766   21.4314  -26.1429 H   0  0  0  0  0  0  0  0  0  0  0  0
   -2.2843   20.2861  -27.5132 H   0  0  0  0  0  0  0  0  0  0  0  0
   -1.3913   21.8447  -27.5132 H   0  0  0  0  0  0  0  0  0  0  0  0
   -3.2616   22.0954  -29.0236 H   0  0  0  0  0  0  0  0  0  0  0  0
   -4.4014   21.4070  -27.8066 H   0  0  0  0  0  0  0  0  0  0  0  0
   -5.2269   23.6592  -28.7952 H   0  0  0  0  0  0  0  0  0  0  0  0
   -4.6177   25.1021  -27.9003 H   0  0  0  0  0  0  0  0  0  0  0  0
   -2.5841   25.1507  -29.1716 H   0  0  0  0  0  0  0  0  0  0  0  0
   -2.8885   23.5274  -29.8671 H   0  0  0  0  0  0  0  0  0  0  0  0
   -5.4342   25.3659  -29.0764 H   0  0  0  0  0  0  0  0  0  0  0  0
   -5.5522   26.4763  -30.4926 H   0  0  0  0  0  0  0  0  0  0  0  0
   -6.7420   23.7779  -30.0617 H   0  0  0  0  0  0  0  0  0  0  0  0
   -7.2790   25.1630  -31.1106 H   0  0  0  0  0  0  0  0  0  0  0  0
   -6.7710   23.3818  -32.6043 H   0  0  0  0  0  0  0  0  0  0  0  0
   -5.3696   24.5309  -32.6734 H   0  0  0  0  0  0  0  0  0  0  0  0
   -4.2080   22.9080  -31.0480 H   0  0  0  0  0  0  0  0  0  0  0  0
   -7.2855   22.3428  -30.8245 H   0  0  0  0  0  0  0  0  0  0  0  0
   -9.5246   21.2791  -30.6452 H   0  0  0  0  0  0  0  0  0  0  0  0
   -9.9663   19.1038  -31.7666 H   0  0  0  0  0  0  0  0  0  0  0  0
   -8.1967   18.0148  -33.1280 H   0  0  0  0  0  0  0  0  0  0  0  0
   -6.4265   17.0760  -34.0580 H   0  0  0  0  0  0  0  0  0  0  0  0
   -6.9338   18.3474  -35.2212 H   0  0  0  0  0  0  0  0  0  0  0  0
   -5.2380   17.7551  -35.2212 H   0  0  0  0  0  0  0  0  0  0  0  0
   -3.5929   17.7959  -34.6265 H   0  0  0  0  0  0  0  0  0  0  0  0
   -1.2614   18.6159  -34.5177 H   0  0  0  0  0  0  0  0  0  0  0  0
   -0.7151   20.6886  -33.2799 H   0  0  0  0  0  0  0  0  0  0  0  0
   -0.5138   22.6165  -31.2705 H   0  0  0  0  0  0  0  0  0  0  0  0
   -1.8182   22.9131  -30.0566 H   0  0  0  0  0  0  0  0  0  0  0  0
   -1.2419   20.9230  -29.1590 H   0  0  0  0  0  0  0  0  0  0  0  0
   -2.0291   20.1779  -30.5915 H   0  0  0  0  0  0  0  0  0  0  0  0
   -0.2569   20.4708  -30.5915 H   0  0  0  0  0  0  0  0  0  0  0  0
  1  2  1  0
  2  3  1  0
  3  4  1  0
  4  5  1  0
  5  6  1  0
  6  7  1  0
  7  8  1  0
  8  9  1  0
  9 10  1  0
 10 11  1  0
 11 12  2  0
 12 13  1  0
 13 14  2  0
 14 15  1  0
 15 16  2  0
 16 17  1  0
 17 18  2  0
 18 19  1  0
 18 20  1  0
 20 21  2  0
 21 22  1  0
 22 23  2  0
 23 24  1  0
 24 25  1  0
 25 26  1  0
 26 27  1  0
 24 28  2  0
 28 11  1  0
 17 12  1  0
 28 20  1  0
  1 29  1  0
  1 30  1  0
  1 31  1  0
  2 32  1  0
  2 33  1  0
  4 34  1  0
  4 35  1  0
  5 36  1  0
  5 37  1  0
  7 38  1  0
  7 39  1  0
  8 40  1  0
  8 41  1  0
  9 42  1  0
  9 43  1  0
 10 44  1  0
 13 45  1  0
 14 46  1  0
 15 47  1  0
 16 48  1  0
 19 49  1  0
 19 50  1  0
 19 51  1  0
 21 52  1  0
 22 53  1  0
 23 54  1  0
 26 55  1  0
 26 56  1  0
 27 57  1  0
 27 58  1  0
 27 59  1  0
M  CHG  1  18   1
M  END
>  <UniqueID>  (6) 
6

>  <SMILES>  (6) 
CCOCCOCCCNc1c2ccccc2[n+](C)c2cccc(OCC)c12

>  <Energy>  (6) 
85.35212657370705

>  <Genealogy>  (6) 
CCOCCOCCCNc1c2ccccc2[n+](C)c2cccc(OCC)c12 (3D coordinates assigned)
CCOCCOCCCNc1c2ccccc2[n+](C)c2cccc(OCC)c12 (optimized conformer: 85.35212657370705 kcal/mol)

>  <smiles>  (6) 
CCOCCOCCCNc1c2ccccc2[n+](C)c2cccc(OCC)c12

>  <score_type>  (6) 
oracle

>  <origin>  (6) 
adg

>  <m_score__min__energy>  (6) 
-9.0899999999999999

>  <m_primary>  (6) 
energy

$$$$
6:0
     RDKit          3D

 65 68  0  0  0  0  0  0  0  0999 V2000
    0.7090   19.7330  -36.4010 C   0  0  0  0  0  0  0  0  0  0  0  0
    0.4670   21.0230  -36.1460 C   0  0  0  0  0  0  0  0  0  0  0  0
    0.4420   21.5530  -34.7380 C   0  0  0  0  0  0  0  0  0  0  0  0
   -0.9120   21.4750  -34.1680 N   0  0  0  0  0  0  0  0  0  0  0  0
   -0.9140   21.5500  -32.6940 C   0  0  0  0  0  0  0  0  0  0  0  0
   -2.3460   21.5220  -32.1510 C   0  0  0  0  0  0  0  0  0  0  0  0
   -3.3240   21.5180  -33.2380 N   0  0  0  0  0  0  0  0  0  0  0  0
   -4.6080   20.9050  -33.0470 C   0  0  0  0  0  0  0  0  0  0  0  0
   -5.6530   21.6690  -32.4910 C   0  0  0  0  0  0  0  0  0  0  0  0
   -5.4370   23.0070  -32.0900 C   0  0  0  0  0  0  0  0  0  0  0  0
   -6.4870   23.7900  -31.6190 C   0  0  0  0  0  0  0  0  0  0  0  0
   -7.7690   23.2610  -31.5440 C   0  0  0  0  0  0  0  0  0  0  0  0
   -8.0010   21.9340  -31.9050 C   0  0  0  0  0  0  0  0  0  0  0  0
   -6.9410   21.0970  -32.3430 C   0  0  0  0  0  0  0  0  0  0  0  0
   -7.1450   19.7650  -32.6400 N   0  0  0  0  0  0  0  0  0  0  0  0
   -8.3940   19.0940  -32.2070 C   0  0  0  0  0  0  0  0  0  0  0  0
   -6.1710   19.0400  -33.3010 C   0  0  0  0  0  0  0  0  0  0  0  0
   -6.4550   17.7610  -33.8400 C   0  0  0  0  0  0  0  0  0  0  0  0
   -5.4620   16.9880  -34.4270 C   0  0  0  0  0  0  0  0  0  0  0  0
   -4.1630   17.4600  -34.4950 C   0  0  0  0  0  0  0  0  0  0  0  0
   -3.8360   18.7320  -34.0100 C   0  0  0  0  0  0  0  0  0  0  0  0
   -2.4680   19.1450  -34.1120 N   0  0  0  0  0  0  0  0  0  0  0  0
   -1.3630   18.2240  -33.8370 C   0  0  0  0  0  0  0  0  0  0  0  0
   -1.2530   17.9040  -32.3410 C   0  0  0  0  0  0  0  0  0  0  0  0
    0.0530   18.3910  -31.6880 C   0  0  0  0  0  0  0  0  0  0  0  0
   -0.1020   18.6110  -30.2410 N   0  0  0  0  0  0  0  0  0  0  0  0
   -0.7810   19.7110  -29.7930 C   0  0  0  0  0  0  0  0  0  0  0  0
   -0.9270   19.9470  -28.4220 C   0  0  0  0  0  0  0  0  0  0  0  0
   -0.3890   19.0420  -27.5100 C   0  0  0  0  0  0  0  0  0  0  0  0
    0.2850   17.9150  -27.9730 C   0  0  0  0  0  0  0  0  0  0  0  0
    0.4150   17.7100  -29.3490 C   0  0  0  0  0  0  0  0  0  0  0  0
   -4.8540   19.5720  -33.4620 C   0  0  0  0  0  0  0  0  0  0  0  0
    0.7218   19.3706  -37.4395 H   0  0  0  0  0  0  0  0  0  0  0  0
    0.8953   19.0341  -35.5723 H   0  0  0  0  0  0  0  0  0  0  0  0
    0.2822   21.7117  -36.9836 H   0  0  0  0  0  0  0  0  0  0  0  0
    1.1281   20.9577  -34.1176 H   0  0  0  0  0  0  0  0  0  0  0  0
    0.7541   22.6077  -34.7555 H   0  0  0  0  0  0  0  0  0  0  0  0
   -1.4490   22.2970  -34.5330 H   0  0  0  0  0  0  0  0  0  0  0  0
   -0.3574   20.6923  -32.2883 H   0  0  0  0  0  0  0  0  0  0  0  0
   -0.4387   22.4936  -32.3879 H   0  0  0  0  0  0  0  0  0  0  0  0
   -2.4815   20.6153  -31.5431 H   0  0  0  0  0  0  0  0  0  0  0  0
   -2.5054   22.4244  -31.5425 H   0  0  0  0  0  0  0  0  0  0  0  0
   -2.9760   21.5800  -34.2230 H   0  0  0  0  0  0  0  0  0  0  0  0
   -4.4256   23.4352  -32.1509 H   0  0  0  0  0  0  0  0  0  0  0  0
   -6.3014   24.8281  -31.3061 H   0  0  0  0  0  0  0  0  0  0  0  0
   -8.6030   23.8899  -31.1992 H   0  0  0  0  0  0  0  0  0  0  0  0
   -9.0222   21.5290  -31.8495 H   0  0  0  0  0  0  0  0  0  0  0  0
   -8.4361   19.0714  -31.1080 H   0  0  0  0  0  0  0  0  0  0  0  0
   -9.2614   19.6476  -32.5958 H   0  0  0  0  0  0  0  0  0  0  0  0
   -8.4113   18.0652  -32.5958 H   0  0  0  0  0  0  0  0  0  0  0  0
   -7.4830   17.3724  -33.7925 H   0  0  0  0  0  0  0  0  0  0  0  0
   -5.7085   15.9983  -34.8389 H   0  0  0  0  0  0  0  0  0  0  0  0
   -3.3777   16.8281  -34.9355 H   0  0  0  0  0  0  0  0  0  0  0  0
   -2.2730   19.9300  -34.7720 H   0  0  0  0  0  0  0  0  0  0  0  0
   -1.5319   17.2886  -34.3906 H   0  0  0  0  0  0  0  0  0  0  0  0
   -0.4267   18.7056  -34.1553 H   0  0  0  0  0  0  0  0  0  0  0  0
   -2.0974   18.3818  -31.8226 H   0  0  0  0  0  0  0  0  0  0  0  0
   -1.2634   16.8078  -32.2497 H   0  0  0  0  0  0  0  0  0  0  0  0
    0.8347   17.6343  -31.8503 H   0  0  0  0  0  0  0  0  0  0  0  0
    0.3261   19.3512  -32.1500 H   0  0  0  0  0  0  0  0  0  0  0  0
   -1.2158   20.4158  -30.5170 H   0  0  0  0  0  0  0  0  0  0  0  0
   -1.4623   20.8400  -28.0670 H   0  0  0  0  0  0  0  0  0  0  0  0
   -0.4961   19.2168  -26.4293 H   0  0  0  0  0  0  0  0  0  0  0  0
    0.7114   17.1924  -27.2617 H   0  0  0  0  0  0  0  0  0  0  0  0
    0.9379   16.8159  -29.7193 H   0  0  0  0  0  0  0  0  0  0  0  0
  1  2  2  0
  2  3  1  0
  3  4  1  0
  4  5  1  0
  5  6  1  0
  6  7  1  0
  7  8  1  0
  8  9  2  0
  9 10  1  0
 10 11  2  0
 11 12  1  0
 12 13  2  0
 13 14  1  0
 14 15  2  0
 15 16  1  0
 15 17  1  0
 17 18  2  0
 18 19  1  0
 19 20  2  0
 20 21  1  0
 21 22  1  0
 22 23  1  0
 23 24  1  0
 24 25  1  0
 25 26  1  0
 26 27  2  0
 27 28  1  0
 28 29  2  0
 29 30  1  0
 30 31  2  0
 21 32  2  0
 32  8  1  0
 14  9  1  0
 32 17  1  0
 31 26  1  0
  1 33  1  0
  1 34  1  0
  2 35  1  0
  3 36  1  0
  3 37  1  0
  4 38  1  0
  5 39  1  0
  5 40  1  0
  6 41  1  0
  6 42  1  0
  7 43  1  0
 10 44  1  0
 11 45  1  0
 12 46  1  0
 13 47  1  0
 16 48  1  0
 16 49  1  0
 16 50  1  0
 18 51  1  0
 19 52  1  0
 20 53  1  0
 22 54  1  0
 23 55  1  0
 23 56  1  0
 24 57  1  0
 24 58  1  0
 25 59  1  0
 25 60  1  0
 27 61  1  0
 28 62  1  0
 29 63  1  0
 30 64  1  0
 31 65  1  0
M  CHG  2  15   1  26   1
M  END
>  <UniqueID>  (7) 
7

>  <SMILES>  (7) 
C=CCNCCNc1c2ccccc2[n+](C)c2cccc(NCCC[n+]3ccccc3)c12

>  <Energy>  (7) 
94.7977477528102

>  <Genealogy>  (7) 
C=CCNCCNc1c2ccccc2[n+](C)c2cccc(NCCC[n+]3ccccc3)c12 (3D coordinates assigned)
C=CCNCCNc1c2ccccc2[n+](C)c2cccc(NCCC[n+]3ccccc3)c12 (optimized conformer: 94.7977477528102 kcal/mol)

>  <smiles>  (7) 
C=CCNCCNc1c2ccccc2[n+](C)c2cccc(NCCC[n+]3ccccc3)c12

>  <score_type>  (7) 
oracle

>  <origin>  (7) 
adg

>  <m_score__min__energy>  (7) 
-9.6099999999999994

>  <m_primary>  (7) 
energy

$$$$
7:0
     RDKit          3D

 67 70  0  0  0  0  0  0  0  0999 V2000
   -0.5840   26.8280  -23.2750 C   0  0  0  0  0  0  0  0  0  0  0  0
   -0.3930   25.7100  -24.3050 C   0  0  0  0  0  0  0  0  0  0  0  0
   -1.0420   26.0260  -25.6040 N   0  0  2  0  0  0  0  0  0  0  0  0
   -0.8510   27.4590  -25.9110 C   0  0  0  0  0  0  0  0  0  0  0  0
   -2.4930   25.6930  -25.5760 C   0  0  0  0  0  0  0  0  0  0  0  0
   -2.9180   24.8510  -26.7860 C   0  0  0  0  0  0  0  0  0  0  0  0
   -1.8960   24.8970  -27.7590 O   0  0  0  0  0  0  0  0  0  0  0  0
   -1.9220   23.7120  -28.5280 C   0  0  0  0  0  0  0  0  0  0  0  0
   -2.8040   23.9180  -29.7540 C   0  0  0  0  0  0  0  0  0  0  0  0
   -3.7970   24.9000  -29.4980 O   0  0  0  0  0  0  0  0  0  0  0  0
   -4.2450   25.4530  -30.6740 N   0  0  0  0  0  0  0  0  0  0  0  0
   -5.7120   25.4610  -30.6920 C   0  0  0  0  0  0  0  0  0  0  0  0
   -6.2540   24.2730  -31.4920 C   0  0  0  0  0  0  0  0  0  0  0  0
   -5.3190   23.1510  -31.4210 N   0  0  0  0  0  0  0  0  0  0  0  0
   -5.6940   21.8590  -31.9210 C   0  0  0  0  0  0  0  0  0  0  0  0
   -4.7310   20.9900  -32.4270 C   0  0  0  0  0  0  0  0  0  0  0  0
   -5.0720   19.7390  -32.9140 C   0  0  0  0  0  0  0  0  0  0  0  0
   -6.3510   19.2500  -32.8110 N   0  0  0  0  0  0  0  0  0  0  0  0
   -6.6120   17.8200  -33.0370 C   0  0  0  0  0  0  0  0  0  0  0  0
   -7.3610   20.1200  -32.4260 C   0  0  0  0  0  0  0  0  0  0  0  0
   -8.7270   19.7550  -32.5110 C   0  0  0  0  0  0  0  0  0  0  0  0
   -9.7320   20.6310  -32.1040 C   0  0  0  0  0  0  0  0  0  0  0  0
   -9.4110   21.8940  -31.6170 C   0  0  0  0  0  0  0  0  0  0  0  0
   -8.0790   22.3000  -31.5470 C   0  0  0  0  0  0  0  0  0  0  0  0
   -7.0430   21.4350  -31.9510 C   0  0  0  0  0  0  0  0  0  0  0  0
   -3.8380   19.0960  -33.4300 C   0  0  0  0  0  0  0  0  0  0  0  0
   -3.6410   17.9450  -34.2090 C   0  0  0  0  0  0  0  0  0  0  0  0
   -2.3370   17.6290  -34.6270 C   0  0  0  0  0  0  0  0  0  0  0  0
   -1.2580   18.4760  -34.3090 C   0  0  0  0  0  0  0  0  0  0  0  0
   -1.4750   19.6570  -33.5870 C   0  0  0  0  0  0  0  0  0  0  0  0
   -2.7740   19.9450  -33.1680 C   0  0  0  0  0  0  0  0  0  0  0  0
   -3.2820   21.1460  -32.5280 C   0  0  0  0  0  0  0  0  0  0  0  0
   -2.5930   22.1220  -32.1290 O   0  0  0  0  0  0  0  0  0  0  0  0
   -0.5123   26.4083  -22.2607 H   0  0  0  0  0  0  0  0  0  0  0  0
    0.1969   27.5904  -23.4124 H   0  0  0  0  0  0  0  0  0  0  0  0
   -1.5737   27.2879  -23.4124 H   0  0  0  0  0  0  0  0  0  0  0  0
    0.6842   25.5639  -24.4735 H   0  0  0  0  0  0  0  0  0  0  0  0
   -0.8631   24.7992  -23.9056 H   0  0  0  0  0  0  0  0  0  0  0  0
   -0.5620   25.4830  -26.3610 H   0  0  0  0  0  0  0  0  0  0  0  0
   -0.7752   28.0281  -24.9727 H   0  0  0  0  0  0  0  0  0  0  0  0
    0.0724   27.5891  -26.4944 H   0  0  0  0  0  0  0  0  0  0  0  0
   -1.7081   27.8264  -26.4944 H   0  0  0  0  0  0  0  0  0  0  0  0
   -2.7090   25.1275  -24.6575 H   0  0  0  0  0  0  0  0  0  0  0  0
   -3.0567   26.6371  -25.6069 H   0  0  0  0  0  0  0  0  0  0  0  0
   -3.0815   23.8096  -26.4717 H   0  0  0  0  0  0  0  0  0  0  0  0
   -3.8516   25.2512  -27.2081 H   0  0  0  0  0  0  0  0  0  0  0  0
   -0.9003   23.4618  -28.8498 H   0  0  0  0  0  0  0  0  0  0  0  0
   -2.3278   22.8903  -27.9197 H   0  0  0  0  0  0  0  0  0  0  0  0
   -2.1792   24.2475  -30.5972 H   0  0  0  0  0  0  0  0  0  0  0  0
   -3.3009   22.9670  -29.9962 H   0  0  0  0  0  0  0  0  0  0  0  0
   -3.8700   26.4180  -30.8480 H   0  0  0  0  0  0  0  0  0  0  0  0
   -6.0854   25.4003  -29.6591 H   0  0  0  0  0  0  0  0  0  0  0  0
   -6.0530   26.3916  -31.1692 H   0  0  0  0  0  0  0  0  0  0  0  0
   -7.2240   23.9653  -31.0743 H   0  0  0  0  0  0  0  0  0  0  0  0
   -6.3773   24.5730  -32.5431 H   0  0  0  0  0  0  0  0  0  0  0  0
   -4.5590   23.1970  -30.7070 H   0  0  0  0  0  0  0  0  0  0  0  0
   -6.7057   17.3068  -32.0685 H   0  0  0  0  0  0  0  0  0  0  0  0
   -7.5463   17.7032  -33.6057 H   0  0  0  0  0  0  0  0  0  0  0  0
   -5.7792   17.3807  -33.6057 H   0  0  0  0  0  0  0  0  0  0  0  0
   -8.9991   18.7645  -32.9045 H   0  0  0  0  0  0  0  0  0  0  0  0
  -10.7856   20.3217  -32.1683 H   0  0  0  0  0  0  0  0  0  0  0  0
  -10.2100   22.5740  -31.2864 H   0  0  0  0  0  0  0  0  0  0  0  0
   -7.8347   23.3051  -31.1728 H   0  0  0  0  0  0  0  0  0  0  0  0
   -4.4902   17.3033  -34.4867 H   0  0  0  0  0  0  0  0  0  0  0  0
   -2.1577   16.7121  -35.2076 H   0  0  0  0  0  0  0  0  0  0  0  0
   -0.2399   18.2092  -34.6289 H   0  0  0  0  0  0  0  0  0  0  0  0
   -0.6432   20.3389  -33.3567 H   0  0  0  0  0  0  0  0  0  0  0  0
  1  2  1  0
  2  3  1  0
  3  4  1  0
  3  5  1  0
  5  6  1  0
  6  7  1  0
  7  8  1  0
  8  9  1  0
  9 10  1  0
 10 11  1  0
 11 12  1  0
 12 13  1  0
 13 14  1  0
 14 15  1  0
 15 16  2  0
 16 17  1  0
 17 18  2  0
 18 19  1  0
 18 20  1  0
 20 21  2  0
 21 22  1  0
 22 23  2  0
 23 24  1  0
 24 25  2  0
 17 26  1  0
 26 27  2  0
 27 28  1  0
 28 29  2  0
 29 30  1  0
 30 31  2  0
 31 32  1  0
 32 33  2  0
 25 15  1  0
 31 26  1  0
 32 16  1  0
 25 20  1  0
  1 34  1  0
  1 35  1  0
  1 36  1  0
  2 37  1  0
  2 38  1  0
  3 39  1  6
  4 40  1  0
  4 41  1  0
  4 42  1  0
  5 43  1  0
  5 44  1  0
  6 45  1  0
  6 46  1  0
  8 47  1  0
  8 48  1  0
  9 49  1  0
  9 50  1  0
 11 51  1  0
 12 52  1  0
 12 53  1  0
 13 54  1  0
 13 55  1  0
 14 56  1  0
 19 57  1  0
 19 58  1  0
 19 59  1  0
 21 60  1  0
 22 61  1  0
 23 62  1  0
 24 63  1  0
 27 64  1  0
 28 65  1  0
 29 66  1  0
 30 67  1  0
M  CHG  2   3   1  18   1
M  END
>  <UniqueID>  (8) 
8

>  <SMILES>  (8) 
CC[N@H+](C)CCOCCONCCNc1c2c([n+](C)c3ccccc13)-c1ccccc1C2=O

>  <Energy>  (8) 
126.88222297805899

>  <Genealogy>  (8) 
CC[NH+](C)CCOCCONCCNc1c2c([n+](C)c3ccccc13)-c1ccccc1C2=O (protonated)
CC[N@H+](C)CCOCCONCCNc1c2c([n+](C)c3ccccc13)-c1ccccc1C2=O (chirality)
CC[N@H+](C)CCOCCONCCNc1c2c([n+](C)c3ccccc13)-c1ccccc1C2=O (3D coordinates assigned)
CC[N@H+](C)CCOCCONCCNc1c2c([n+](C)c3ccccc13)-c1ccccc1C2=O (nonaromatic ring conformer: 126.88222297805899 kcal/mol)

>  <smiles>  (8) 
CCN(C)CCOCCONCCNc1c2c([n+](C)c3ccccc13)-c1ccccc1C2=O

>  <score_type>  (8) 
oracle

>  <origin>  (8) 
adg

>  <m_score__min__energy>  (8) 
-9.8300000000000001

>  <m_primary>  (8) 
energy

$$$$
8:0
     RDKit          3D

 46 47  0  0  0  0  0  0  0  0999 V2000
   -0.8910   26.4390  -27.6340 C   0  0  0  0  0  0  0  0  0  0  0  0
   -1.2630   25.0950  -28.2540 C   0  0  0  0  0  0  0  0  0  0  0  0
   -2.1560   25.2810  -29.3360 O   0  0  0  0  0  0  0  0  0  0  0  0
   -3.1430   24.2690  -29.3410 C   0  0  0  0  0  0  0  0  0  0  0  0
   -4.4800   24.8680  -29.7760 C   0  0  0  0  0  0  0  0  0  0  0  0
   -4.7440   24.5780  -31.1820 N   0  0  0  0  0  0  0  0  0  0  0  0
   -5.2790   23.3360  -31.6540 C   0  0  0  0  0  0  0  0  0  0  0  0
   -4.5810   22.5780  -32.3810 O   0  0  0  0  0  0  0  0  0  0  0  0
   -6.6880   22.9380  -31.3060 C   0  0  1  0  0  0  0  0  0  0  0  0
   -7.6820   23.4250  -32.3700 C   0  0  0  0  0  0  0  0  0  0  0  0
   -9.1310   23.0660  -31.9970 C   0  0  0  0  0  0  0  0  0  0  0  0
   -9.2200   21.9070  -30.9850 C   0  0  0  0  0  0  0  0  0  0  0  0
   -8.1850   20.8770  -31.2160 N   0  0  0  0  0  0  0  0  0  0  0  0
   -8.4250   20.1130  -32.4590 C   0  0  0  0  0  0  0  0  0  0  0  0
   -7.1750   19.3730  -32.8580 C   0  0  0  0  0  0  0  0  0  0  0  0
   -6.3160   19.9220  -33.8240 C   0  0  0  0  0  0  0  0  0  0  0  0
   -5.1660   19.2320  -34.2150 C   0  0  0  0  0  0  0  0  0  0  0  0
   -4.8670   17.9880  -33.6500 C   0  0  0  0  0  0  0  0  0  0  0  0
   -5.7180   17.4330  -32.6870 C   0  0  0  0  0  0  0  0  0  0  0  0
   -5.3430   15.8700  -31.9840 Cl  0  0  0  0  0  0  0  0  0  0  0  0
   -6.8700   18.1240  -32.2900 C   0  0  0  0  0  0  0  0  0  0  0  0
   -6.7960   21.4030  -31.1150 C   0  0  0  0  0  0  0  0  0  0  0  0
   -0.9140   26.3558  -26.5374 H   0  0  0  0  0  0  0  0  0  0  0  0
    0.1202   26.7253  -27.9589 H   0  0  0  0  0  0  0  0  0  0  0  0
   -1.6110   27.2045  -27.9589 H   0  0  0  0  0  0  0  0  0  0  0  0
   -0.3511   24.5989  -28.6178 H   0  0  0  0  0  0  0  0  0  0  0  0
   -1.7526   24.4730  -27.4902 H   0  0  0  0  0  0  0  0  0  0  0  0
   -2.8507   23.4744  -30.0433 H   0  0  0  0  0  0  0  0  0  0  0  0
   -3.2409   23.8454  -28.3306 H   0  0  0  0  0  0  0  0  0  0  0  0
   -5.2849   24.4382  -29.1616 H   0  0  0  0  0  0  0  0  0  0  0  0
   -4.4381   25.9591  -29.6425 H   0  0  0  0  0  0  0  0  0  0  0  0
   -6.9485   23.4233  -30.3538 H   0  0  0  0  0  0  0  0  0  0  0  0
   -7.5977   24.5177  -32.4639 H   0  0  0  0  0  0  0  0  0  0  0  0
   -7.4384   22.9293  -33.3213 H   0  0  0  0  0  0  0  0  0  0  0  0
   -9.6105   23.9532  -31.5577 H   0  0  0  0  0  0  0  0  0  0  0  0
   -9.6379   22.7404  -32.9174 H   0  0  0  0  0  0  0  0  0  0  0  0
   -9.0940   22.3132  -29.9706 H   0  0  0  0  0  0  0  0  0  0  0  0
  -10.2029   21.4287  -31.1082 H   0  0  0  0  0  0  0  0  0  0  0  0
   -9.2380   19.3912  -32.2918 H   0  0  0  0  0  0  0  0  0  0  0  0
   -8.7045   20.8098  -33.2630 H   0  0  0  0  0  0  0  0  0  0  0  0
   -6.5494   20.8982  -34.2740 H   0  0  0  0  0  0  0  0  0  0  0  0
   -4.4941   19.6680  -34.9689 H   0  0  0  0  0  0  0  0  0  0  0  0
   -3.9626   17.4454  -33.9625 H   0  0  0  0  0  0  0  0  0  0  0  0
   -7.5375   17.6882  -31.5320 H   0  0  0  0  0  0  0  0  0  0  0  0
   -6.4016   21.1496  -30.1199 H   0  0  0  0  0  0  0  0  0  0  0  0
   -6.2199   20.9394  -31.9294 H   0  0  0  0  0  0  0  0  0  0  0  0
  1  2  1  0
  2  3  1  0
  3  4  1  0
  4  5  1  0
  5  6  1  0
  6  7  1  0
  7  8  2  0
  7  9  1  0
  9 10  1  0
 10 11  1  0
 11 12  1  0
 12 13  1  0
 13 14  1  0
 14 15  1  0
 15 16  2  0
 16 17  1  0
 17 18  2  0
 18 19  1  0
 19 20  1  0
 19 21  2  0
 13 22  1  0
 22  9  1  0
 21 15  1  0
  1 23  1  0
  1 24  1  0
  1 25  1  0
  2 26  1  0
  2 27  1  0
  4 28  1  0
  4 29  1  0
  5 30  1  0
  5 31  1  0
  9 32  1  1
 10 33  1  0
 10 34  1  0
 11 35  1  0
 11 36  1  0
 12 37  1  0
 12 38  1  0
 14 39  1  0
 14 40  1  0
 16 41  1  0
 17 42  1  0
 18 43  1  0
 21 44  1  0
 22 45  1  0
 22 46  1  0
M  CHG  1   6  -1
M  END
>  <UniqueID>  (9) 
9

>  <SMILES>  (9) 
CCOCC[N-]C(=O)[C@H]1CCCN(Cc2cccc(Cl)c2)C1

>  <Energy>  (9) 
47.08321541814476

>  <Genealogy>  (9) 
CCOCC[N-]C(=O)C1CCCN(Cc2cccc(Cl)c2)C1 (protonated)
CCOCC[N-]C(=O)[C@H]1CCCN(Cc2cccc(Cl)c2)C1 (chirality)
CCOCC[N-]C(=O)[C@H]1CCCN(Cc2cccc(Cl)c2)C1 (3D coordinates assigned)
CCOCC[N-]C(=O)[C@H]1CCCN(Cc2cccc(Cl)c2)C1 (nonaromatic ring conformer: 47.08321541814476 kcal/mol)

>  <smiles>  (9) 
CCOCCNC(=O)C1CCCN(Cc2cccc(Cl)c2)C1

>  <score_type>  (9) 
oracle

>  <origin>  (9) 
adg

>  <m_score__min__energy>  (9) 
-10

>  <m_primary>  (9) 
energy

$$$$
9:0
     RDKit          3D

 70 73  0  0  0  0  0  0  0  0999 V2000
   -0.8180   26.6770  -27.6110 C   0  0  0  0  0  0  0  0  0  0  0  0
   -0.5360   25.1760  -27.6690 C   0  0  0  0  0  0  0  0  0  0  0  0
   -0.7480   24.6220  -29.0200 N   0  0  0  0  0  0  0  0  0  0  0  0
   -1.9100   23.7180  -29.1540 C   0  0  0  0  0  0  0  0  0  0  0  0
   -3.1880   24.1830  -28.4220 C   0  0  0  0  0  0  0  0  0  0  0  0
   -4.4280   23.3630  -28.8130 C   0  0  0  0  0  0  0  0  0  0  0  0
   -4.7960   23.5100  -30.3020 C   0  0  0  0  0  0  0  0  0  0  0  0
   -6.0760   24.3190  -30.5890 C   0  0  0  0  0  0  0  0  0  0  0  0
   -6.8430   23.9070  -31.8590 C   0  0  0  0  0  0  0  0  0  0  0  0
   -7.8470   22.7690  -31.6360 C   0  0  0  0  0  0  0  0  0  0  0  0
   -7.2740   21.5200  -31.9860 O   0  0  0  0  0  0  0  0  0  0  0  0
   -8.1790   20.4510  -31.7660 C   0  0  0  0  0  0  0  0  0  0  0  0
   -7.8830   19.2610  -32.6970 C   0  0  0  0  0  0  0  0  0  0  0  0
   -6.8360   19.5580  -33.6990 N   0  0  0  0  0  0  0  0  0  0  0  0
   -5.6640   18.7230  -33.5230 C   0  0  0  0  0  0  0  0  0  0  0  0
   -4.4480   19.3020  -33.1280 C   0  0  0  0  0  0  0  0  0  0  0  0
   -3.2880   18.5530  -33.0130 C   0  0  0  0  0  0  0  0  0  0  0  0
   -3.2430   17.2360  -33.3860 N   0  0  0  0  0  0  0  0  0  0  0  0
   -1.9460   16.5780  -33.6130 C   0  0  0  0  0  0  0  0  0  0  0  0
   -4.4360   16.5760  -33.6290 C   0  0  0  0  0  0  0  0  0  0  0  0
   -4.4720   15.1680  -33.7780 C   0  0  0  0  0  0  0  0  0  0  0  0
   -5.6630   14.5050  -34.0540 C   0  0  0  0  0  0  0  0  0  0  0  0
   -6.8460   15.2180  -34.1900 C   0  0  0  0  0  0  0  0  0  0  0  0
   -6.8590   16.6010  -34.0240 C   0  0  0  0  0  0  0  0  0  0  0  0
   -5.6710   17.3090  -33.7250 C   0  0  0  0  0  0  0  0  0  0  0  0
   -2.1990   19.4480  -32.5460 C   0  0  0  0  0  0  0  0  0  0  0  0
   -0.9000   19.1780  -32.0870 C   0  0  0  0  0  0  0  0  0  0  0  0
   -0.1080   20.2490  -31.6370 C   0  0  0  0  0  0  0  0  0  0  0  0
   -0.6280   21.5570  -31.5980 C   0  0  0  0  0  0  0  0  0  0  0  0
   -1.9530   21.8040  -31.9880 C   0  0  0  0  0  0  0  0  0  0  0  0
   -2.7140   20.7310  -32.4510 C   0  0  0  0  0  0  0  0  0  0  0  0
   -4.1230   20.6960  -32.8040 C   0  0  0  0  0  0  0  0  0  0  0  0
   -4.9070   21.6830  -32.8000 O   0  0  0  0  0  0  0  0  0  0  0  0
   -0.8784   26.9984  -26.5607 H   0  0  0  0  0  0  0  0  0  0  0  0
   -0.0066   27.2223  -28.1153 H   0  0  0  0  0  0  0  0  0  0  0  0
   -1.7720   26.8906  -28.1153 H   0  0  0  0  0  0  0  0  0  0  0  0
    0.5089   25.0000  -27.3737 H   0  0  0  0  0  0  0  0  0  0  0  0
   -1.2350   24.6738  -26.9840 H   0  0  0  0  0  0  0  0  0  0  0  0
   -0.8360   25.4100  -29.7020 H   0  0  0  0  0  0  0  0  0  0  0  0
   -2.1458   23.6220  -30.2241 H   0  0  0  0  0  0  0  0  0  0  0  0
   -1.6156   22.7680  -28.6841 H   0  0  0  0  0  0  0  0  0  0  0  0
   -3.0283   24.0842  -27.3382 H   0  0  0  0  0  0  0  0  0  0  0  0
   -3.3755   25.2273  -28.7123 H   0  0  0  0  0  0  0  0  0  0  0  0
   -4.2280   22.3018  -28.6035 H   0  0  0  0  0  0  0  0  0  0  0  0
   -5.2755   23.7427  -28.2234 H   0  0  0  0  0  0  0  0  0  0  0  0
   -3.9580   24.0084  -30.8112 H   0  0  0  0  0  0  0  0  0  0  0  0
   -4.9923   22.4914  -30.6680 H   0  0  0  0  0  0  0  0  0  0  0  0
   -6.7527   24.2009  -29.7298 H   0  0  0  0  0  0  0  0  0  0  0  0
   -5.7500   25.3566  -30.7533 H   0  0  0  0  0  0  0  0  0  0  0  0
   -7.3912   24.7844  -32.2327 H   0  0  0  0  0  0  0  0  0  0  0  0
   -6.0964   23.5383  -32.5778 H   0  0  0  0  0  0  0  0  0  0  0  0
   -8.1394   22.7478  -30.5758 H   0  0  0  0  0  0  0  0  0  0  0  0
   -8.7278   22.9447  -32.2711 H   0  0  0  0  0  0  0  0  0  0  0  0
   -8.0917   20.1179  -30.7213 H   0  0  0  0  0  0  0  0  0  0  0  0
   -9.1966   20.8108  -31.9784 H   0  0  0  0  0  0  0  0  0  0  0  0
   -7.5503   18.4105  -32.0839 H   0  0  0  0  0  0  0  0  0  0  0  0
   -8.8089   19.0341  -33.2458 H   0  0  0  0  0  0  0  0  0  0  0  0
   -6.5440   20.5550  -33.5880 H   0  0  0  0  0  0  0  0  0  0  0  0
   -7.2080   19.5290  -34.6710 H   0  0  0  0  0  0  0  0  0  0  0  0
   -1.4803   16.3417  -32.6449 H   0  0  0  0  0  0  0  0  0  0  0  0
   -2.1006   15.6493  -34.1819 H   0  0  0  0  0  0  0  0  0  0  0  0
   -1.2879   17.2512  -34.1819 H   0  0  0  0  0  0  0  0  0  0  0  0
   -3.5424   14.5892  -33.6737 H   0  0  0  0  0  0  0  0  0  0  0  0
   -5.6674   13.4106  -34.1650 H   0  0  0  0  0  0  0  0  0  0  0  0
   -7.7792   14.6876  -34.4304 H   0  0  0  0  0  0  0  0  0  0  0  0
   -7.8063   17.1505  -34.1268 H   0  0  0  0  0  0  0  0  0  0  0  0
   -0.5098   18.1496  -32.0796 H   0  0  0  0  0  0  0  0  0  0  0  0
    0.9266   20.0636  -31.3127 H   0  0  0  0  0  0  0  0  0  0  0  0
    0.0074   22.3889  -31.2602 H   0  0  0  0  0  0  0  0  0  0  0  0
   -2.3798   22.8162  -31.9301 H   0  0  0  0  0  0  0  0  0  0  0  0
  1  2  1  0
  2  3  1  0
  3  4  1  0
  4  5  1  0
  5  6  1  0
  6  7  1  0
  7  8  1  0
  8  9  1  0
  9 10  1  0
 10 11  1  0
 11 12  1  0
 12 13  1  0
 13 14  1  0
 14 15  1  0
 15 16  2  0
 16 17  1  0
 17 18  2  0
 18 19  1  0
 18 20  1  0
 20 21  2  0
 21 22  1  0
 22 23  2  0
 23 24  1  0
 24 25  2  0
 17 26  1  0
 26 27  2  0
 27 28  1  0
 28 29  2  0
 29 30  1  0
 30 31  2  0
 31 32  1  0
 32 33  2  0
 25 15  1  0
 31 26  1  0
 32 16  1  0
 25 20  1  0
  1 34  1  0
  1 35  1  0
  1 36  1  0
  2 37  1  0
  2 38  1  0
  3 39  1  0
  4 40  1  0
  4 41  1  0
  5 42  1  0
  5 43  1  0
  6 44  1  0
  6 45  1  0
  7 46  1  0
  7 47  1  0
  8 48  1  0
  8 49  1  0
  9 50  1  0
  9 51  1  0
 10 52  1  0
 10 53  1  0
 12 54  1  0
 12 55  1  0
 13 56  1  0
 13 57  1  0
 14 58  1  0
 14 59  1  0
 19 60  1  0
 19 61  1  0
 19 62  1  0
 21 63  1  0
 22 64  1  0
 23 65  1  0
 24 66  1  0
 27 67  1  0
 28 68  1  0
 29 69  1  0
 30 70  1  0
M  CHG  2  14   1  18   1
M  END
>  <UniqueID>  (10) 
10

>  <SMILES>  (10) 
CCNCCCCCCCOCC[NH2+]c1c2c([n+](C)c3ccccc13)-c1ccccc1C2=O

>  <Energy>  (10) 
124.03336840673292

>  <Genealogy>  (10) 
CCNCCCCCCCOCC[NH2+]c1c2c([n+](C)c3ccccc13)-c1ccccc1C2=O (protonated)
CCNCCCCCCCOCC[NH2+]c1c2c([n+](C)c3ccccc13)-c1ccccc1C2=O (3D coordinates assigned)
CCNCCCCCCCOCC[NH2+]c1c2c([n+](C)c3ccccc13)-c1ccccc1C2=O (nonaromatic ring conformer: 124.03336840673292 kcal/mol)

>  <smiles>  (10) 
CCNCCCCCCCOCCNc1c2c([n+](C)c3ccccc13)-c1ccccc1C2=O

>  <score_type>  (10) 
oracle

>  <origin>  (10) 
adg

>  <m_score__min__energy>  (10) 
-8.8699999999999992

>  <m_primary>  (10) 
energy

$$$$
10:0
     RDKit          3D

 40 40  0  0  0  0  0  0  0  0999 V2000
   -9.1220   21.5200  -30.8930 C   0  0  0  0  0  0  0  0  0  0  0  0
   -9.6590   21.1890  -32.2800 C   0  0  0  0  0  0  0  0  0  0  0  0
   -9.0090   19.9770  -32.7920 N   0  0  0  0  0  0  0  0  0  0  0  0
   -9.1100   18.8860  -31.8160 C   0  0  0  0  0  0  0  0  0  0  0  0
   -7.7630   18.1750  -31.6640 C   0  0  0  0  0  0  0  0  0  0  0  0
   -6.7310   18.8770  -32.4660 N   0  0  0  0  0  0  0  0  0  0  0  0
   -6.0090   17.9600  -33.3750 C   0  0  0  0  0  0  0  0  0  0  0  0
   -5.7420   18.6400  -34.7150 C   0  0  0  0  0  0  0  0  0  0  0  0
   -5.7890   19.6270  -31.6080 C   0  0  0  0  0  0  0  0  0  0  0  0
   -5.9840   21.0970  -31.8040 C   0  0  0  0  0  0  0  0  0  0  0  0
   -5.7020   22.0910  -30.8880 C   0  0  0  0  0  0  0  0  0  0  0  0
   -6.0000   23.2510  -31.4960 N   0  0  0  0  0  0  0  0  0  0  0  0
   -5.8000   24.5950  -30.9620 C   0  0  0  0  0  0  0  0  0  0  0  0
   -4.6690   24.5910  -29.9380 C   0  0  0  0  0  0  0  0  0  0  0  0
   -3.5830   25.2830  -30.4420 F   0  0  0  0  0  0  0  0  0  0  0  0
   -6.4170   22.9760  -32.7210 N   0  0  0  0  0  0  0  0  0  0  0  0
   -6.4220   21.6700  -32.9450 N   0  0  0  0  0  0  0  0  0  0  0  0
   -9.7964   21.1043  -30.1299 H   0  0  0  0  0  0  0  0  0  0  0  0
   -8.1197   21.0828  -30.7739 H   0  0  0  0  0  0  0  0  0  0  0  0
   -9.0622   22.6119  -30.7739 H   0  0  0  0  0  0  0  0  0  0  0  0
  -10.7448   21.0230  -32.2205 H   0  0  0  0  0  0  0  0  0  0  0  0
   -9.4473   22.0277  -32.9596 H   0  0  0  0  0  0  0  0  0  0  0  0
   -7.9920   20.1900  -32.9280 H   0  0  0  0  0  0  0  0  0  0  0  0
   -9.4133   19.2984  -30.8424 H   0  0  0  0  0  0  0  0  0  0  0  0
   -9.8569   18.1603  -32.1703 H   0  0  0  0  0  0  0  0  0  0  0  0
   -7.4663   18.1772  -30.6048 H   0  0  0  0  0  0  0  0  0  0  0  0
   -7.8571   17.1386  -32.0203 H   0  0  0  0  0  0  0  0  0  0  0  0
   -5.0509   17.6748  -32.9161 H   0  0  0  0  0  0  0  0  0  0  0  0
   -6.6274   17.0664  -33.5454 H   0  0  0  0  0  0  0  0  0  0  0  0
   -5.3451   19.6509  -34.5405 H   0  0  0  0  0  0  0  0  0  0  0  0
   -5.0082   18.0513  -35.2851 H   0  0  0  0  0  0  0  0  0  0  0  0
   -6.6803   18.7078  -35.2851 H   0  0  0  0  0  0  0  0  0  0  0  0
   -5.9730   19.3717  -30.5540 H   0  0  0  0  0  0  0  0  0  0  0  0
   -4.7577   19.3584  -31.8804 H   0  0  0  0  0  0  0  0  0  0  0  0
   -5.3125   21.9596  -29.8677 H   0  0  0  0  0  0  0  0  0  0  0  0
   -5.5432   25.2786  -31.7847 H   0  0  0  0  0  0  0  0  0  0  0  0
   -6.7268   24.9288  -30.4725 H   0  0  0  0  0  0  0  0  0  0  0  0
   -5.0127   25.0741  -29.0114 H   0  0  0  0  0  0  0  0  0  0  0  0
   -4.3733   23.5531  -29.7251 H   0  0  0  0  0  0  0  0  0  0  0  0
   -6.6950   23.6900  -33.4310 H   0  0  0  0  0  0  0  0  0  0  0  0
  1  2  1  0
  2  3  1  0
  3  4  1  0
  4  5  1  0
  5  6  1  0
  6  7  1  0
  7  8  1  0
  6  9  1  0
  9 10  1  0
 10 11  2  0
 11 12  1  0
 12 13  1  0
 13 14  1  0
 14 15  1  0
 12 16  1  0
 16 17  2  0
 17 10  1  0
  1 18  1  0
  1 19  1  0
  1 20  1  0
  2 21  1  0
  2 22  1  0
  3 23  1  0
  4 24  1  0
  4 25  1  0
  5 26  1  0
  5 27  1  0
  7 28  1  0
  7 29  1  0
  8 30  1  0
  8 31  1  0
  8 32  1  0
  9 33  1  0
  9 34  1  0
 11 35  1  0
 13 36  1  0
 13 37  1  0
 14 38  1  0
 14 39  1  0
 16 40  1  0
M  CHG  1  16   1
M  END
>  <UniqueID>  (11) 
11

>  <SMILES>  (11) 
CCNCCN(CC)Cc1cn(CCF)[nH+]n1

>  <Energy>  (11) 
61.7140274221093

>  <Genealogy>  (11) 
CCNCCN(CC)Cc1cn(CCF)[nH+]n1 (protonated)
CCNCCN(CC)Cc1cn(CCF)[nH+]n1 (3D coordinates assigned)
CCNCCN(CC)Cc1cn(CCF)[nH+]n1 (optimized conformer: 61.7140274221093 kcal/mol)

>  <smiles>  (11) 
CCNCCN(CC)Cc1cn(CCF)nn1

>  <score_type>  (11) 
oracle

>  <origin>  (11) 
adg

>  <m_score__min__energy>  (11) 
-5.8700000000000001

>  <m_primary>  (11) 
energy

$$$$
11:0
     RDKit          3D

 49 51  0  0  0  0  0  0  0  0999 V2000
   -7.0230   22.7330  -29.8530 C   0  0  0  0  0  0  0  0  0  0  0  0
   -6.8990   23.7380  -30.9960 C   0  0  0  0  0  0  0  0  0  0  0  0
   -5.4760   24.0320  -31.2770 N   0  0  0  0  0  0  0  0  0  0  0  0
   -5.0890   25.3690  -30.7690 C   0  0  0  0  0  0  0  0  0  0  0  0
   -6.1000   25.8610  -29.7370 C   0  0  0  0  0  0  0  0  0  0  0  0
   -4.5780   22.9650  -30.7630 C   0  0  0  0  0  0  0  0  0  0  0  0
   -3.8390   22.2960  -31.9280 C   0  0  0  0  0  0  0  0  0  0  0  0
   -4.7400   22.0280  -33.0650 N   0  0  0  0  0  0  0  0  0  0  0  0
   -5.1070   20.6200  -33.1230 C   0  0  0  0  0  0  0  0  0  0  0  0
   -6.4450   20.2230  -32.8350 C   0  0  0  0  0  0  0  0  0  0  0  0
   -7.4730   21.1710  -32.5970 C   0  0  0  0  0  0  0  0  0  0  0  0
   -8.7480   20.7730  -32.3710 N   0  0  0  0  0  0  0  0  0  0  0  0
   -9.0950   19.4670  -32.3590 C   0  0  0  0  0  0  0  0  0  0  0  0
   -8.1320   18.4880  -32.5710 C   0  0  0  0  0  0  0  0  0  0  0  0
   -6.7790   18.8460  -32.7920 C   0  0  0  0  0  0  0  0  0  0  0  0
   -5.7520   17.8790  -32.9460 C   0  0  0  0  0  0  0  0  0  0  0  0
   -5.9880   16.4890  -32.7800 C   0  0  0  0  0  0  0  0  0  0  0  0
   -4.9580   15.5630  -32.9010 C   0  0  0  0  0  0  0  0  0  0  0  0
   -3.6670   15.9870  -33.1690 C   0  0  0  0  0  0  0  0  0  0  0  0
   -3.4000   17.3420  -33.3340 C   0  0  0  0  0  0  0  0  0  0  0  0
   -4.4310   18.3170  -33.2530 C   0  0  0  0  0  0  0  0  0  0  0  0
   -4.1620   19.6600  -33.4450 N   0  0  0  0  0  0  0  0  0  0  0  0
   -2.8330   20.0610  -33.9660 C   0  0  0  0  0  0  0  0  0  0  0  0
   -6.9577   23.2621  -28.8908 H   0  0  0  0  0  0  0  0  0  0  0  0
   -7.9917   22.2164  -29.9224 H   0  0  0  0  0  0  0  0  0  0  0  0
   -6.2089   21.9965  -29.9224 H   0  0  0  0  0  0  0  0  0  0  0  0
   -7.3669   23.3186  -31.8989 H   0  0  0  0  0  0  0  0  0  0  0  0
   -7.4038   24.6710  -30.7051 H   0  0  0  0  0  0  0  0  0  0  0  0
   -4.0957   25.3049  -30.3009 H   0  0  0  0  0  0  0  0  0  0  0  0
   -5.0662   26.0768  -31.6107 H   0  0  0  0  0  0  0  0  0  0  0  0
   -5.7123   25.6723  -28.7250 H   0  0  0  0  0  0  0  0  0  0  0  0
   -6.2652   26.9402  -29.8711 H   0  0  0  0  0  0  0  0  0  0  0  0
   -7.0512   25.3250  -29.8711 H   0  0  0  0  0  0  0  0  0  0  0  0
   -3.8449   23.4072  -30.0723 H   0  0  0  0  0  0  0  0  0  0  0  0
   -5.1792   22.2100  -30.2353 H   0  0  0  0  0  0  0  0  0  0  0  0
   -3.0288   22.9598  -32.2642 H   0  0  0  0  0  0  0  0  0  0  0  0
   -3.4398   21.3343  -31.5733 H   0  0  0  0  0  0  0  0  0  0  0  0
   -5.5870   22.6370  -33.0110 H   0  0  0  0  0  0  0  0  0  0  0  0
   -4.2970   22.3150  -33.9640 H   0  0  0  0  0  0  0  0  0  0  0  0
   -7.2315   22.2442  -32.5959 H   0  0  0  0  0  0  0  0  0  0  0  0
  -10.1415   19.1785  -32.1811 H   0  0  0  0  0  0  0  0  0  0  0  0
   -8.4222   17.4270  -32.5672 H   0  0  0  0  0  0  0  0  0  0  0  0
   -7.0051   16.1379  -32.5513 H   0  0  0  0  0  0  0  0  0  0  0  0
   -5.1692   14.4899  -32.7835 H   0  0  0  0  0  0  0  0  0  0  0  0
   -2.8527   15.2520  -33.2514 H   0  0  0  0  0  0  0  0  0  0  0  0
   -2.3677   17.6664  -33.5316 H   0  0  0  0  0  0  0  0  0  0  0  0
   -2.1555   20.2654  -33.1239 H   0  0  0  0  0  0  0  0  0  0  0  0
   -2.4193   19.2477  -34.5803 H   0  0  0  0  0  0  0  0  0  0  0  0
   -2.9382   20.9674  -34.5803 H   0  0  0  0  0  0  0  0  0  0  0  0
  1  2  1  0
  2  3  1  0
  3  4  1  0
  4  5  1  0
  3  6  1  0
  6  7  1  0
  7  8  1  0
  8  9  1  0
  9 10  2  0
 10 11  1  0
 11 12  2  0
 12 13  1  0
 13 14  2  0
 14 15  1  0
 15 16  2  0
 16 17  1  0
 17 18  2  0
 18 19  1  0
 19 20  2  0
 20 21  1  0
 21 22  2  0
 22 23  1  0
 22  9  1  0
 15 10  1  0
 21 16  1  0
  1 24  1  0
  1 25  1  0
  1 26  1  0
  2 27  1  0
  2 28  1  0
  4 29  1  0
  4 30  1  0
  5 31  1  0
  5 32  1  0
  5 33  1  0
  6 34  1  0
  6 35  1  0
  7 36  1  0
  7 37  1  0
  8 38  1  0
  8 39  1  0
 11 40  1  0
 13 41  1  0
 14 42  1  0
 17 43  1  0
 18 44  1  0
 19 45  1  0
 20 46  1  0
 23 47  1  0
 23 48  1  0
 23 49  1  0
M  CHG  2   8   1  22   1
M  END
>  <UniqueID>  (12) 
12

>  <SMILES>  (12) 
CCN(CC)CC[NH2+]c1c2cnccc2c2ccccc2[n+]1C

>  <Energy>  (12) 
77.65635257983817

>  <Genealogy>  (12) 
CCN(CC)CC[NH2+]c1c2cnccc2c2ccccc2[n+]1C (protonated)
CCN(CC)CC[NH2+]c1c2cnccc2c2ccccc2[n+]1C (3D coordinates assigned)
CCN(CC)CC[NH2+]c1c2cnccc2c2ccccc2[n+]1C (optimized conformer: 77.65635257983817 kcal/mol)

>  <smiles>  (12) 
CCN(CC)CCNc1c2cnccc2c2ccccc2[n+]1C

>  <score_type>  (12) 
oracle

>  <origin>  (12) 
adg

>  <m_score__min__energy>  (12) 
-6.8899999999999997

>  <m_primary>  (12) 
energy

$$$$
12:0
     RDKit          3D

 65 67  0  0  0  0  0  0  0  0999 V2000
   -3.0980   21.1910  -28.0210 C   0  0  0  0  0  0  0  0  0  0  0  0
   -3.8700   22.1130  -28.9530 C   0  0  0  0  0  0  0  0  0  0  0  0
   -3.0840   22.3820  -30.0950 O   0  0  0  0  0  0  0  0  0  0  0  0
   -1.9070   23.0640  -29.7100 C   0  0  0  0  0  0  0  0  0  0  0  0
   -0.6770   22.2690  -30.1620 C   0  0  0  0  0  0  0  0  0  0  0  0
   -1.0510   21.0630  -30.9170 N   0  0  0  0  0  0  0  0  0  0  0  0
    0.0430   20.5460  -31.7590 C   0  0  0  0  0  0  0  0  0  0  0  0
   -0.4960   19.4460  -32.6690 C   0  0  0  0  0  0  0  0  0  0  0  0
   -1.8820   19.6480  -32.8770 O   0  0  0  0  0  0  0  0  0  0  0  0
   -2.1140   20.6550  -33.8470 C   0  0  0  0  0  0  0  0  0  0  0  0
   -3.3040   21.5530  -33.4640 C   0  0  0  0  0  0  0  0  0  0  0  0
   -3.8510   21.2470  -32.1250 N   0  0  0  0  0  0  0  0  0  0  0  0
   -5.2110   20.7160  -32.1820 C   0  0  0  0  0  0  0  0  0  0  0  0
   -5.3910   19.3310  -32.4910 C   0  0  0  0  0  0  0  0  0  0  0  0
   -4.2920   18.4680  -32.7640 C   0  0  0  0  0  0  0  0  0  0  0  0
   -4.4840   17.1370  -33.1260 C   0  0  0  0  0  0  0  0  0  0  0  0
   -5.7650   16.6250  -33.2370 C   0  0  0  0  0  0  0  0  0  0  0  0
   -6.8600   17.4300  -32.9490 C   0  0  0  0  0  0  0  0  0  0  0  0
   -6.6980   18.7790  -32.5340 C   0  0  0  0  0  0  0  0  0  0  0  0
   -7.7830   19.5470  -32.1930 N   0  0  0  0  0  0  0  0  0  0  0  0
   -9.0800   18.8910  -31.8940 C   0  0  0  0  0  0  0  0  0  0  0  0
   -7.6690   20.9170  -32.1030 C   0  0  0  0  0  0  0  0  0  0  0  0
   -8.8320   21.7220  -32.1250 C   0  0  0  0  0  0  0  0  0  0  0  0
   -8.7690   23.0890  -31.9530 C   0  0  0  0  0  0  0  0  0  0  0  0
   -7.5530   23.7010  -31.7410 C   0  0  0  0  0  0  0  0  0  0  0  0
   -6.3530   22.9660  -31.7470 C   0  0  0  0  0  0  0  0  0  0  0  0
   -5.1580   23.6490  -31.4770 O   0  0  0  0  0  0  0  0  0  0  0  0
   -5.0490   24.9280  -30.8490 C   0  0  0  0  0  0  0  0  0  0  0  0
   -5.6990   24.8810  -29.4750 C   0  0  0  0  0  0  0  0  0  0  0  0
   -6.3810   21.5440  -32.0040 C   0  0  0  0  0  0  0  0  0  0  0  0
   -3.3198   21.4559  -26.9767 H   0  0  0  0  0  0  0  0  0  0  0  0
   -3.3966   20.1486  -28.2062 H   0  0  0  0  0  0  0  0  0  0  0  0
   -2.0194   21.3018  -28.2062 H   0  0  0  0  0  0  0  0  0  0  0  0
   -4.8081   21.6263  -29.2582 H   0  0  0  0  0  0  0  0  0  0  0  0
   -4.1017   23.0544  -28.4334 H   0  0  0  0  0  0  0  0  0  0  0  0
   -1.8914   24.0591  -30.1784 H   0  0  0  0  0  0  0  0  0  0  0  0
   -1.8895   23.1703  -28.6153 H   0  0  0  0  0  0  0  0  0  0  0  0
   -0.0543   22.9108  -30.8025 H   0  0  0  0  0  0  0  0  0  0  0  0
   -0.1266   21.9522  -29.2638 H   0  0  0  0  0  0  0  0  0  0  0  0
   -1.8510   21.3220  -31.5400 H   0  0  0  0  0  0  0  0  0  0  0  0
    0.4517   21.3626  -32.3723 H   0  0  0  0  0  0  0  0  0  0  0  0
    0.8384   20.1370  -31.1186 H   0  0  0  0  0  0  0  0  0  0  0  0
    0.0291   19.4782  -33.6351 H   0  0  0  0  0  0  0  0  0  0  0  0
   -0.3331   18.4654  -32.1980 H   0  0  0  0  0  0  0  0  0  0  0  0
   -1.2119   21.2780  -33.9365 H   0  0  0  0  0  0  0  0  0  0  0  0
   -2.3501   20.1626  -34.8019 H   0  0  0  0  0  0  0  0  0  0  0  0
   -2.9701   22.6010  -33.4752 H   0  0  0  0  0  0  0  0  0  0  0  0
   -4.1041   21.3692  -34.1962 H   0  0  0  0  0  0  0  0  0  0  0  0
   -3.1820   20.6930  -31.5650 H   0  0  0  0  0  0  0  0  0  0  0  0
   -3.8500   22.1210  -31.5550 H   0  0  0  0  0  0  0  0  0  0  0  0
   -3.2677   18.8616  -32.6872 H   0  0  0  0  0  0  0  0  0  0  0  0
   -3.6158   16.4913  -33.3241 H   0  0  0  0  0  0  0  0  0  0  0  0
   -5.9159   15.5822  -33.5528 H   0  0  0  0  0  0  0  0  0  0  0  0
   -7.8739   17.0141  -33.0443 H   0  0  0  0  0  0  0  0  0  0  0  0
   -9.2140   18.8232  -30.8043 H   0  0  0  0  0  0  0  0  0  0  0  0
   -9.8991   19.4832  -32.3280 H   0  0  0  0  0  0  0  0  0  0  0  0
   -9.0884   17.8803  -32.3280 H   0  0  0  0  0  0  0  0  0  0  0  0
   -9.8109   21.2459  -32.2832 H   0  0  0  0  0  0  0  0  0  0  0  0
   -9.6894   23.6905  -31.9851 H   0  0  0  0  0  0  0  0  0  0  0  0
   -7.5195   24.7861  -31.5635 H   0  0  0  0  0  0  0  0  0  0  0  0
   -3.9869   25.1937  -30.7422 H   0  0  0  0  0  0  0  0  0  0  0  0
   -5.5579   25.6821  -31.4673 H   0  0  0  0  0  0  0  0  0  0  0  0
   -4.9211   24.9372  -28.6993 H   0  0  0  0  0  0  0  0  0  0  0  0
   -6.3878   25.7317  -29.3659 H   0  0  0  0  0  0  0  0  0  0  0  0
   -6.2582   23.9401  -29.3659 H   0  0  0  0  0  0  0  0  0  0  0  0
  1  2  1  0
  2  3  1  0
  3  4  1  0
  4  5  1  0
  5  6  1  0
  6  7  1  0
  7  8  1  0
  8  9  1  0
  9 10  1  0
 10 11  1  0
 11 12  1  0
 12 13  1  0
 13 14  2  0
 14 15  1  0
 15 16  2  0
 16 17  1  0
 17 18  2  0
 18 19  1  0
 19 20  2  0
 20 21  1  0
 20 22  1  0
 22 23  2  0
 23 24  1  0
 24 25  2  0
 25 26  1  0
 26 27  1  0
 27 28  1  0
 28 29  1  0
 26 30  2  0
 30 13  1  0
 19 14  1  0
 30 22  1  0
  1 31  1  0
  1 32  1  0
  1 33  1  0
  2 34  1  0
  2 35  1  0
  4 36  1  0
  4 37  1  0
  5 38  1  0
  5 39  1  0
  6 40  1  0
  7 41  1  0
  7 42  1  0
  8 43  1  0
  8 44  1  0
 10 45  1  0
 10 46  1  0
 11 47  1  0
 11 48  1  0
 12 49  1  0
 12 50  1  0
 15 51  1  0
 16 52  1  0
 17 53  1  0
 18 54  1  0
 21 55  1  0
 21 56  1  0
 21 57  1  0
 23 58  1  0
 24 59  1  0
 25 60  1  0
 28 61  1  0
 28 62  1  0
 29 63  1  0
 29 64  1  0
 29 65  1  0
M  CHG  2  12   1  20   1
M  END
>  <UniqueID>  (13) 
13

>  <SMILES>  (13) 
CCOCCNCCOCC[NH2+]c1c2ccccc2[n+](C)c2cccc(OCC)c12

>  <Energy>  (13) 
98.2377235651569

>  <Genealogy>  (13) 
CCOCCNCCOCC[NH2+]c1c2ccccc2[n+](C)c2cccc(OCC)c12 (protonated)
CCOCCNCCOCC[NH2+]c1c2ccccc2[n+](C)c2cccc(OCC)c12 (3D coordinates assigned)
CCOCCNCCOCC[NH2+]c1c2ccccc2[n+](C)c2cccc(OCC)c12 (optimized conformer: 98.2377235651569 kcal/mol)

>  <smiles>  (13) 
CCOCCNCCOCCNc1c2ccccc2[n+](C)c2cccc(OCC)c12

>  <score_type>  (13) 
oracle

>  <origin>  (13) 
adg

>  <m_score__min__energy>  (13) 
-7.9699999999999998

>  <m_primary>  (13) 
energy

$$$$
13:0
     RDKit          3D

 59 61  0  0  0  0  0  0  0  0999 V2000
   -2.3550   20.4700  -27.6220 C   0  0  0  0  0  0  0  0  0  0  0  0
   -2.7320   20.4910  -29.1140 C   0  0  0  0  0  0  0  0  0  0  0  0
   -2.5740   21.8110  -29.7710 N   0  0  0  0  0  0  0  0  0  0  0  0
   -1.2060   22.0510  -30.2570 C   0  0  0  0  0  0  0  0  0  0  0  0
   -3.0800   22.9420  -28.9600 C   0  0  0  0  0  0  0  0  0  0  0  0
   -2.5230   24.2730  -29.4800 C   0  0  0  0  0  0  0  0  0  0  0  0
   -3.4770   24.9360  -30.2900 O   0  0  0  0  0  0  0  0  0  0  0  0
   -4.7840   24.7160  -29.8030 C   0  0  0  0  0  0  0  0  0  0  0  0
   -5.7770   24.9030  -30.9520 C   0  0  0  0  0  0  0  0  0  0  0  0
   -6.5930   23.6360  -31.2320 C   0  0  0  0  0  0  0  0  0  0  0  0
   -6.1620   22.9960  -32.4770 N   0  0  0  0  0  0  0  0  0  0  0  0
   -5.9760   21.5710  -32.5580 C   0  0  0  0  0  0  0  0  0  0  0  0
   -7.0780   20.7040  -32.4470 C   0  0  0  0  0  0  0  0  0  0  0  0
   -8.3890   21.2090  -32.3110 C   0  0  0  0  0  0  0  0  0  0  0  0
   -9.4810   20.3460  -32.2450 C   0  0  0  0  0  0  0  0  0  0  0  0
   -9.2880   18.9720  -32.3250 C   0  0  0  0  0  0  0  0  0  0  0  0
   -8.0010   18.4490  -32.4400 C   0  0  0  0  0  0  0  0  0  0  0  0
   -6.8650   19.2990  -32.4650 C   0  0  0  0  0  0  0  0  0  0  0  0
   -5.5800   18.7930  -32.5170 N   0  0  0  0  0  0  0  0  0  0  0  0
   -5.3360   17.3620  -32.2260 C   0  0  0  0  0  0  0  0  0  0  0  0
   -4.5180   19.6280  -32.8120 C   0  0  0  0  0  0  0  0  0  0  0  0
   -3.2380   19.1180  -33.1490 C   0  0  0  0  0  0  0  0  0  0  0  0
   -2.1580   19.9720  -33.4040 C   0  0  0  0  0  0  0  0  0  0  0  0
   -0.8220   19.4060  -33.7890 C   0  0  0  0  0  0  0  0  0  0  0  0
   -2.3520   21.3530  -33.3820 C   0  0  0  0  0  0  0  0  0  0  0  0
   -3.6070   21.8820  -33.0950 C   0  0  0  0  0  0  0  0  0  0  0  0
   -4.6990   21.0370  -32.8080 C   0  0  0  0  0  0  0  0  0  0  0  0
   -3.2690   20.5209  -27.0121 H   0  0  0  0  0  0  0  0  0  0  0  0
   -1.8132   19.5403  -27.3938 H   0  0  0  0  0  0  0  0  0  0  0  0
   -1.7133   21.3338  -27.3938 H   0  0  0  0  0  0  0  0  0  0  0  0
   -2.0923   19.7670  -29.6400 H   0  0  0  0  0  0  0  0  0  0  0  0
   -3.8017   20.2407  -29.1693 H   0  0  0  0  0  0  0  0  0  0  0  0
   -0.5277   22.1700  -29.3992 H   0  0  0  0  0  0  0  0  0  0  0  0
   -0.8786   21.1966  -30.8676 H   0  0  0  0  0  0  0  0  0  0  0  0
   -1.1890   22.9658  -30.8676 H   0  0  0  0  0  0  0  0  0  0  0  0
   -4.1784   22.9636  -29.0159 H   0  0  0  0  0  0  0  0  0  0  0  0
   -2.7538   22.8045  -27.9185 H   0  0  0  0  0  0  0  0  0  0  0  0
   -2.2675   24.9157  -28.6246 H   0  0  0  0  0  0  0  0  0  0  0  0
   -1.6282   24.0677  -30.0859 H   0  0  0  0  0  0  0  0  0  0  0  0
   -4.8639   23.6923  -29.4083 H   0  0  0  0  0  0  0  0  0  0  0  0
   -5.0072   25.4300  -28.9965 H   0  0  0  0  0  0  0  0  0  0  0  0
   -6.4684   25.7181  -30.6921 H   0  0  0  0  0  0  0  0  0  0  0  0
   -5.2000   25.1372  -31.8588 H   0  0  0  0  0  0  0  0  0  0  0  0
   -6.4574   22.9300  -30.3994 H   0  0  0  0  0  0  0  0  0  0  0  0
   -7.6518   23.9171  -31.3318 H   0  0  0  0  0  0  0  0  0  0  0  0
   -6.1690   23.5560  -33.3590 H   0  0  0  0  0  0  0  0  0  0  0  0
   -8.5504   22.2957  -32.2565 H   0  0  0  0  0  0  0  0  0  0  0  0
  -10.4966   20.7525  -32.1295 H   0  0  0  0  0  0  0  0  0  0  0  0
  -10.1542   18.2946  -32.2975 H   0  0  0  0  0  0  0  0  0  0  0  0
   -7.8638   17.3600  -32.5125 H   0  0  0  0  0  0  0  0  0  0  0  0
   -5.3098   17.2085  -31.1371 H   0  0  0  0  0  0  0  0  0  0  0  0
   -6.1438   16.7562  -32.6624 H   0  0  0  0  0  0  0  0  0  0  0  0
   -4.3731   17.0581  -32.6624 H   0  0  0  0  0  0  0  0  0  0  0  0
   -3.0908   18.0297  -33.2113 H   0  0  0  0  0  0  0  0  0  0  0  0
   -0.2508   19.1640  -32.8806 H   0  0  0  0  0  0  0  0  0  0  0  0
   -0.9685   18.4926  -34.3842 H   0  0  0  0  0  0  0  0  0  0  0  0
   -0.2678   20.1466  -34.3842 H   0  0  0  0  0  0  0  0  0  0  0  0
   -1.5089   22.0275  -33.5925 H   0  0  0  0  0  0  0  0  0  0  0  0
   -3.7489   22.9728  -33.0920 H   0  0  0  0  0  0  0  0  0  0  0  0
  1  2  1  0
  2  3  1  0
  3  4  1  0
  3  5  1  0
  5  6  1  0
  6  7  1  0
  7  8  1  0
  8  9  1  0
  9 10  1  0
 10 11  1  0
 11 12  1  0
 12 13  2  0
 13 14  1  0
 14 15  2  0
 15 16  1  0
 16 17  2  0
 17 18  1  0
 18 19  2  0
 19 20  1  0
 19 21  1  0
 21 22  2  0
 22 23  1  0
 23 24  1  0
 23 25  2  0
 25 26  1  0
 26 27  2  0
 27 12  1  0
 18 13  1  0
 27 21  1  0
  1 28  1  0
  1 29  1  0
  1 30  1  0
  2 31  1  0
  2 32  1  0
  4 33  1  0
  4 34  1  0
  4 35  1  0
  5 36  1  0
  5 37  1  0
  6 38  1  0
  6 39  1  0
  8 40  1  0
  8 41  1  0
  9 42  1  0
  9 43  1  0
 10 44  1  0
 10 45  1  0
 11 46  1  0
 14 47  1  0
 15 48  1  0
 16 49  1  0
 17 50  1  0
 20 51  1  0
 20 52  1  0
 20 53  1  0
 22 54  1  0
 24 55  1  0
 24 56  1  0
 24 57  1  0
 25 58  1  0
 26 59  1  0
M  CHG  1  19   1
M  END
>  <UniqueID>  (14) 
14

>  <SMILES>  (14) 
CCN(C)CCOCCCNc1c2ccccc2[n+](C)c2cc(C)ccc12

>  <Energy>  (14) 
84.91314373375972

>  <Genealogy>  (14) 
CCN(C)CCOCCCNc1c2ccccc2[n+](C)c2cc(C)ccc12 (3D coordinates assigned)
CCN(C)CCOCCCNc1c2ccccc2[n+](C)c2cc(C)ccc12 (optimized conformer: 84.91314373375972 kcal/mol)

>  <smiles>  (14) 
CCN(C)CCOCCCNc1c2ccccc2[n+](C)c2cc(C)ccc12

>  <score_type>  (14) 
oracle

>  <origin>  (14) 
adg

>  <m_score__min__energy>  (14) 
-9.0999999999999996

>  <m_primary>  (14) 
energy

$$$$
14:0
     RDKit          3D

 57 59  0  0  0  0  0  0  0  0999 V2000
   -2.7320   19.6050  -27.0960 C   0  0  0  0  0  0  0  0  0  0  0  0
   -2.7110   20.4580  -28.3590 C   0  0  0  0  0  0  0  0  0  0  0  0
   -1.6320   20.0400  -29.1780 O   0  0  0  0  0  0  0  0  0  0  0  0
   -0.5290   19.6420  -28.3820 C   0  0  0  0  0  0  0  0  0  0  0  0
    0.2060   18.4610  -29.0210 C   0  0  0  0  0  0  0  0  0  0  0  0
   -0.4530   18.0970  -30.2140 O   0  0  0  0  0  0  0  0  0  0  0  0
    0.4580   18.1230  -31.2920 C   0  0  0  0  0  0  0  0  0  0  0  0
    0.0990   19.2830  -32.2290 C   0  0  0  0  0  0  0  0  0  0  0  0
   -1.0200   20.0920  -31.6860 N   0  0  0  0  0  0  0  0  0  0  0  0
   -1.6190   21.0100  -32.6730 C   0  0  0  0  0  0  0  0  0  0  0  0
   -3.0410   21.4260  -32.2970 C   0  0  0  0  0  0  0  0  0  0  0  0
   -3.1780   22.6130  -31.5730 C   0  0  0  0  0  0  0  0  0  0  0  0
   -4.4320   23.1200  -31.2090 C   0  0  0  0  0  0  0  0  0  0  0  0
   -4.5090   24.3030  -30.4350 C   0  0  0  0  0  0  0  0  0  0  0  0
   -3.3220   24.9420  -30.0350 O   0  0  0  0  0  0  0  0  0  0  0  0
   -2.4900   24.5240  -28.9540 C   0  0  0  0  0  0  0  0  0  0  0  0
   -3.3580   23.9550  -27.8440 C   0  0  0  0  0  0  0  0  0  0  0  0
   -5.7670   24.8120  -30.0720 C   0  0  0  0  0  0  0  0  0  0  0  0
   -6.9300   24.1650  -30.4750 C   0  0  0  0  0  0  0  0  0  0  0  0
   -6.8630   23.0010  -31.2370 C   0  0  0  0  0  0  0  0  0  0  0  0
   -5.6150   22.4450  -31.6190 C   0  0  0  0  0  0  0  0  0  0  0  0
   -5.5030   21.2310  -32.3670 C   0  0  0  0  0  0  0  0  0  0  0  0
   -6.6440   20.5160  -32.8190 C   0  0  0  0  0  0  0  0  0  0  0  0
   -6.5190   19.2930  -33.4710 C   0  0  0  0  0  0  0  0  0  0  0  0
   -5.2640   18.7480  -33.6940 C   0  0  0  0  0  0  0  0  0  0  0  0
   -4.1210   19.4360  -33.3000 C   0  0  0  0  0  0  0  0  0  0  0  0
   -4.2070   20.6960  -32.6620 C   0  0  0  0  0  0  0  0  0  0  0  0
   -2.7159   20.2589  -26.2116 H   0  0  0  0  0  0  0  0  0  0  0  0
   -3.6455   18.9924  -27.0825 H   0  0  0  0  0  0  0  0  0  0  0  0
   -1.8498   18.9481  -27.0825 H   0  0  0  0  0  0  0  0  0  0  0  0
   -3.6582   20.3336  -28.9043 H   0  0  0  0  0  0  0  0  0  0  0  0
   -2.5865   21.5175  -28.0909 H   0  0  0  0  0  0  0  0  0  0  0  0
    0.1669   20.4880  -28.2816 H   0  0  0  0  0  0  0  0  0  0  0  0
   -0.9012   19.3323  -27.3943 H   0  0  0  0  0  0  0  0  0  0  0  0
    1.2427   18.7512  -29.2468 H   0  0  0  0  0  0  0  0  0  0  0  0
    0.2113   17.6084  -28.3260 H   0  0  0  0  0  0  0  0  0  0  0  0
    1.4790   18.2634  -30.9074 H   0  0  0  0  0  0  0  0  0  0  0  0
    0.4045   17.1728  -31.8436 H   0  0  0  0  0  0  0  0  0  0  0  0
    0.9806   19.9292  -32.3525 H   0  0  0  0  0  0  0  0  0  0  0  0
   -0.2155   18.8623  -33.1955 H   0  0  0  0  0  0  0  0  0  0  0  0
   -1.7750   19.4910  -31.2810 H   0  0  0  0  0  0  0  0  0  0  0  0
   -0.6540   20.6710  -30.8910 H   0  0  0  0  0  0  0  0  0  0  0  0
   -0.9936   21.9124  -32.7406 H   0  0  0  0  0  0  0  0  0  0  0  0
   -1.6690   20.4799  -33.6355 H   0  0  0  0  0  0  0  0  0  0  0  0
   -2.2736   23.1663  -31.2799 H   0  0  0  0  0  0  0  0  0  0  0  0
   -1.7903   23.7516  -29.3060 H   0  0  0  0  0  0  0  0  0  0  0  0
   -1.9208   25.3846  -28.5726 H   0  0  0  0  0  0  0  0  0  0  0  0
   -2.9339   24.2330  -26.8679 H   0  0  0  0  0  0  0  0  0  0  0  0
   -4.3766   24.3612  -27.9303 H   0  0  0  0  0  0  0  0  0  0  0  0
   -3.3918   22.8589  -27.9303 H   0  0  0  0  0  0  0  0  0  0  0  0
   -5.8324   25.7274  -29.4656 H   0  0  0  0  0  0  0  0  0  0  0  0
   -7.9100   24.5754  -30.1900 H   0  0  0  0  0  0  0  0  0  0  0  0
   -7.7939   22.5042  -31.5480 H   0  0  0  0  0  0  0  0  0  0  0  0
   -7.6461   20.9373  -32.6504 H   0  0  0  0  0  0  0  0  0  0  0  0
   -7.4180   18.7575  -33.8102 H   0  0  0  0  0  0  0  0  0  0  0  0
   -5.1717   17.7677  -34.1844 H   0  0  0  0  0  0  0  0  0  0  0  0
   -3.1321   18.9923  -33.4879 H   0  0  0  0  0  0  0  0  0  0  0  0
  1  2  1  0
  2  3  1  0
  3  4  1  0
  4  5  1  0
  5  6  1  0
  6  7  1  0
  7  8  1  0
  8  9  1  0
  9 10  1  0
 10 11  1  0
 11 12  2  0
 12 13  1  0
 13 14  2  0
 14 15  1  0
 15 16  1  0
 16 17  1  0
 14 18  1  0
 18 19  2  0
 19 20  1  0
 20 21  2  0
 21 22  1  0
 22 23  2  0
 23 24  1  0
 24 25  2  0
 25 26  1  0
 26 27  2  0
 27 11  1  0
 21 13  1  0
 27 22  1  0
  1 28  1  0
  1 29  1  0
  1 30  1  0
  2 31  1  0
  2 32  1  0
  4 33  1  0
  4 34  1  0
  5 35  1  0
  5 36  1  0
  7 37  1  0
  7 38  1  0
  8 39  1  0
  8 40  1  0
  9 41  1  0
  9 42  1  0
 10 43  1  0
 10 44  1  0
 12 45  1  0
 16 46  1  0
 16 47  1  0
 17 48  1  0
 17 49  1  0
 17 50  1  0
 18 51  1  0
 19 52  1  0
 20 53  1  0
 23 54  1  0
 24 55  1  0
 25 56  1  0
 26 57  1  0
M  CHG  1   9   1
M  END
>  <UniqueID>  (15) 
15

>  <SMILES>  (15) 
CCOCCOCC[NH2+]Cc1cc2c(OCC)cccc2c2ccccc12

>  <Energy>  (15) 
68.81589684914964

>  <Genealogy>  (15) 
CCOCCOCC[NH2+]Cc1cc2c(OCC)cccc2c2ccccc12 (protonated)
CCOCCOCC[NH2+]Cc1cc2c(OCC)cccc2c2ccccc12 (3D coordinates assigned)
CCOCCOCC[NH2+]Cc1cc2c(OCC)cccc2c2ccccc12 (optimized conformer: 68.81589684914964 kcal/mol)

>  <smiles>  (15) 
CCOCCOCCNCc1cc2c(OCC)cccc2c2ccccc12

>  <score_type>  (15) 
oracle

>  <origin>  (15) 
adg

>  <m_score__min__energy>  (15) 
-9.25

>  <m_primary>  (15) 
energy

$$$$
15:0
     RDKit          3D

 53 56  0  0  0  0  0  0  0  0999 V2000
   -9.2390   24.0284  -31.9325 H   0  0  0  0  0  0  0  0  0  0  0  0
   -8.9900   22.9570  -31.9360 C   0  0  0  0  0  0  0  0  0  0  0  0
   -9.8270   21.9670  -32.3380 N   0  0  0  0  0  0  0  0  0  0  0  0
   -9.0930   20.8490  -32.1700 C   0  0  0  0  0  0  0  0  0  0  0  0
   -9.4830   19.5500  -32.4720 C   0  0  0  0  0  0  0  0  0  0  0  0
  -10.4879   19.3304  -32.8617 H   0  0  0  0  0  0  0  0  0  0  0  0
   -8.5440   18.5300  -32.2600 C   0  0  0  0  0  0  0  0  0  0  0  0
   -8.8081   17.4846  -32.4778 H   0  0  0  0  0  0  0  0  0  0  0  0
   -7.2600   18.8460  -31.7670 C   0  0  0  0  0  0  0  0  0  0  0  0
   -6.3900   17.8980  -31.5800 N   0  0  0  0  0  0  0  0  0  0  0  0
   -5.2320   17.6420  -32.4400 C   0  0  0  0  0  0  0  0  0  0  0  0
   -4.3128   17.8160  -31.8614 H   0  0  0  0  0  0  0  0  0  0  0  0
   -5.2870   16.6000  -32.7883 H   0  0  0  0  0  0  0  0  0  0  0  0
   -5.2260   18.5600  -33.6730 C   0  0  0  0  0  0  0  0  0  0  0  0
   -5.4068   17.9466  -34.5680 H   0  0  0  0  0  0  0  0  0  0  0  0
   -6.0138   19.3137  -33.5268 H   0  0  0  0  0  0  0  0  0  0  0  0
   -3.8960   19.3120  -33.8540 C   0  0  0  0  0  0  0  0  0  0  0  0
   -3.0642   18.6295  -33.6250 H   0  0  0  0  0  0  0  0  0  0  0  0
   -3.8346   19.6642  -34.8943 H   0  0  0  0  0  0  0  0  0  0  0  0
   -3.8170   20.4880  -32.9560 N   0  0  0  0  0  0  0  0  0  0  0  0
   -2.8760   21.4990  -33.4650 C   0  0  0  0  0  0  0  0  0  0  0  0
   -2.7679   21.3911  -34.5543 H   0  0  0  0  0  0  0  0  0  0  0  0
   -3.2510   22.5095  -33.2456 H   0  0  0  0  0  0  0  0  0  0  0  0
   -1.5260   21.2820  -32.7890 C   0  0  0  0  0  0  0  0  0  0  0  0
   -0.7955   20.8843  -33.5089 H   0  0  0  0  0  0  0  0  0  0  0  0
   -1.1114   22.2222  -32.3965 H   0  0  0  0  0  0  0  0  0  0  0  0
   -1.7810   20.2760  -31.6830 C   0  0  0  0  0  0  0  0  0  0  0  0
   -1.2987   19.3151  -31.9156 H   0  0  0  0  0  0  0  0  0  0  0  0
   -1.3702   20.6092  -30.7185 H   0  0  0  0  0  0  0  0  0  0  0  0
   -3.2900   20.1180  -31.6360 C   0  0  0  0  0  0  0  0  0  0  0  0
   -3.5508   19.0741  -31.4072 H   0  0  0  0  0  0  0  0  0  0  0  0
   -3.7213   20.7604  -30.8541 H   0  0  0  0  0  0  0  0  0  0  0  0
   -6.9520   20.1480  -31.4940 N   0  0  0  0  0  0  0  0  0  0  0  0
   -7.8690   21.0930  -31.6880 N   0  0  0  0  0  0  0  0  0  0  0  0
   -7.7720   22.4220  -31.5290 C   0  0  0  0  0  0  0  0  0  0  0  0
   -6.5830   23.1670  -31.0510 C   0  0  0  0  0  0  0  0  0  0  0  0
   -5.2960   22.6410  -31.2470 C   0  0  0  0  0  0  0  0  0  0  0  0
   -5.1735   21.6761  -31.7607 H   0  0  0  0  0  0  0  0  0  0  0  0
   -4.1700   23.3330  -30.7950 C   0  0  0  0  0  0  0  0  0  0  0  0
   -3.1690   22.9038  -30.9495 H   0  0  0  0  0  0  0  0  0  0  0  0
   -4.3020   24.5660  -30.1480 C   0  0  0  0  0  0  0  0  0  0  0  0
   -3.1340   25.2140  -29.7130 O   0  0  0  0  0  0  0  0  0  0  0  0
   -2.3230   24.8130  -28.6080 C   0  0  0  0  0  0  0  0  0  0  0  0
   -1.8250   25.6984  -28.1860 H   0  0  0  0  0  0  0  0  0  0  0  0
   -1.5767   24.0871  -28.9632 H   0  0  0  0  0  0  0  0  0  0  0  0
   -3.1710   24.1530  -27.5260 C   0  0  0  0  0  0  0  0  0  0  0  0
   -2.7942   24.4463  -26.5350 H   0  0  0  0  0  0  0  0  0  0  0  0
   -4.2169   24.4771  -27.6312 H   0  0  0  0  0  0  0  0  0  0  0  0
   -3.1136   23.0596  -27.6312 H   0  0  0  0  0  0  0  0  0  0  0  0
   -5.5900   25.1010  -29.9550 C   0  0  0  0  0  0  0  0  0  0  0  0
   -5.7096   26.0685  -29.4455 H   0  0  0  0  0  0  0  0  0  0  0  0
   -6.7170   24.4100  -30.4070 C   0  0  0  0  0  0  0  0  0  0  0  0
   -7.7176   24.8419  -30.2579 H   0  0  0  0  0  0  0  0  0  0  0  0
  1  2  1  0
  2  3  1  0
  3  4  2  0
  4  5  1  0
  5  6  1  0
  5  7  2  0
  7  8  1  0
  7  9  1  0
  9 10  2  0
 10 11  1  0
 11 12  1  0
 11 13  1  0
 11 14  1  0
 14 15  1  0
 14 16  1  0
 14 17  1  0
 17 18  1  0
 17 19  1  0
 17 20  1  0
 20 21  1  0
 21 22  1  0
 21 23  1  0
 21 24  1  0
 24 25  1  0
 24 26  1  0
 24 27  1  0
 27 28  1  0
 27 29  1  0
 27 30  1  0
 30 31  1  0
 30 32  1  0
  9 33  1  0
 33 34  1  0
 34 35  1  0
 35 36  1  0
 36 37  2  0
 37 38  1  0
 37 39  1  0
 39 40  1  0
 39 41  2  0
 41 42  1  0
 42 43  1  0
 43 44  1  0
 43 45  1  0
 43 46  1  0
 46 47  1  0
 46 48  1  0
 46 49  1  0
 41 50  1  0
 50 51  1  0
 50 52  2  0
 52 53  1  0
 35  2  2  0
 52 36  1  0
 34  4  1  0
 30 20  1  0
M  CHG  1  33  -1
M  END
>  <UniqueID>  (16) 
16

>  <SMILES>  (16) 
CCOc1ccc(-c2cnc3cc/c(=N/CCCN4CCCC4)[n-]n23)cc1

>  <Energy>  (16) 
93.32147883010926

>  <Genealogy>  (16) 
CCOc1ccc(-c2cnc3ccc(=NCCCN4CCCC4)[n-]n23)cc1 (protonated)
CCOc1ccc(-c2cnc3cc/c(=N/CCCN4CCCC4)[n-]n23)cc1 (cis-trans isomerization)
CCOc1ccc(-c2cnc3cc/c(=N/CCCN4CCCC4)[n-]n23)cc1 (3D coordinates assigned)
CCOc1ccc(-c2cnc3cc/c(=N/CCCN4CCCC4)[n-]n23)cc1 (nonaromatic ring conformer: 93.32147883010926 kcal/mol)

>  <smiles>  (16) 
CCOc1ccc(-c2cnc3ccc(=NCCCN4CCCC4)[nH]n23)cc1

>  <score_type>  (16) 
oracle

>  <origin>  (16) 
adg

>  <m_score__min__energy>  (16) 
-9.1300000000000008

>  <m_primary>  (16) 
energy

$$$$
16:0
     RDKit          3D

 34 36  0  0  0  0  0  0  0  0999 V2000
   -8.7980   23.2530  -31.9830 C   0  0  0  0  0  0  0  0  0  0  0  0
   -7.4950   22.5970  -32.1120 N   0  0  0  0  0  0  0  0  0  0  0  0
   -6.2660   23.1560  -31.9330 C   0  0  0  0  0  0  0  0  0  0  0  0
   -5.9930   24.5930  -31.5780 C   0  0  0  0  0  0  0  0  0  0  0  0
   -4.5820   24.7620  -31.2000 N   0  0  0  0  0  0  0  0  0  0  0  0
   -4.3850   24.7420  -29.7420 C   0  0  0  0  0  0  0  0  0  0  0  0
   -3.6730   23.4980  -29.2890 C   0  0  0  0  0  0  0  0  0  0  0  0
   -3.9250   22.7880  -28.1230 C   0  0  0  0  0  0  0  0  0  0  0  0
   -3.0770   21.6870  -27.9540 C   0  0  0  0  0  0  0  0  0  0  0  0
   -2.1540   21.5310  -28.9810 C   0  0  0  0  0  0  0  0  0  0  0  0
   -2.3940   22.7630  -30.0990 S   0  0  0  0  0  0  0  0  0  0  0  0
   -5.2640   22.1970  -32.0630 C   0  0  0  0  0  0  0  0  0  0  0  0
   -5.9240   21.0150  -32.3070 C   0  0  0  0  0  0  0  0  0  0  0  0
   -5.4200   19.7280  -32.4860 C   0  0  0  0  0  0  0  0  0  0  0  0
   -6.3410   18.6840  -32.6860 C   0  0  0  0  0  0  0  0  0  0  0  0
   -5.7630   17.0440  -32.9180 Cl  0  0  0  0  0  0  0  0  0  0  0  0
   -7.7290   18.9480  -32.6960 C   0  0  0  0  0  0  0  0  0  0  0  0
   -8.2070   20.2580  -32.5070 C   0  0  0  0  0  0  0  0  0  0  0  0
   -7.2700   21.2810  -32.3210 C   0  0  0  0  0  0  0  0  0  0  0  0
   -9.0426   23.3762  -30.9176 H   0  0  0  0  0  0  0  0  0  0  0  0
   -8.7612   24.2400  -32.4672 H   0  0  0  0  0  0  0  0  0  0  0  0
   -9.5689   22.6356  -32.4672 H   0  0  0  0  0  0  0  0  0  0  0  0
   -6.2157   25.2307  -32.4462 H   0  0  0  0  0  0  0  0  0  0  0  0
   -6.6298   24.8807  -30.7284 H   0  0  0  0  0  0  0  0  0  0  0  0
   -4.2340   25.6710  -31.5880 H   0  0  0  0  0  0  0  0  0  0  0  0
   -3.7878   25.6190  -29.4519 H   0  0  0  0  0  0  0  0  0  0  0  0
   -5.3756   24.7607  -29.2641 H   0  0  0  0  0  0  0  0  0  0  0  0
   -4.7114   23.0627  -27.4046 H   0  0  0  0  0  0  0  0  0  0  0  0
   -3.1358   21.0092  -27.0896 H   0  0  0  0  0  0  0  0  0  0  0  0
   -1.3959   20.7370  -29.0505 H   0  0  0  0  0  0  0  0  0  0  0  0
   -4.1776   22.3518  -31.9868 H   0  0  0  0  0  0  0  0  0  0  0  0
   -4.3372   19.5350  -32.4713 H   0  0  0  0  0  0  0  0  0  0  0  0
   -8.4407   18.1240  -32.8526 H   0  0  0  0  0  0  0  0  0  0  0  0
   -9.2860   20.4719  -32.5055 H   0  0  0  0  0  0  0  0  0  0  0  0
  1  2  1  0
  2  3  1  0
  3  4  1  0
  4  5  1  0
  5  6  1  0
  6  7  1  0
  7  8  2  0
  8  9  1  0
  9 10  2  0
 10 11  1  0
  3 12  2  0
 12 13  1  0
 13 14  2  0
 14 15  1  0
 15 16  1  0
 15 17  2  0
 17 18  1  0
 18 19  2  0
 19  2  1  0
 11  7  1  0
 19 13  1  0
  1 20  1  0
  1 21  1  0
  1 22  1  0
  4 23  1  0
  4 24  1  0
  5 25  1  0
  6 26  1  0
  6 27  1  0
  8 28  1  0
  9 29  1  0
 10 30  1  0
 12 31  1  0
 14 32  1  0
 17 33  1  0
 18 34  1  0
M  END
>  <UniqueID>  (17) 
17

>  <SMILES>  (17) 
Cn1c(CNCc2cccs2)cc2cc(Cl)ccc21

>  <Energy>  (17) 
94.65737115557823

>  <Genealogy>  (17) 
Cn1c(CNCc2cccs2)cc2cc(Cl)ccc21 (3D coordinates assigned)
Cn1c(CNCc2cccs2)cc2cc(Cl)ccc21 (optimized conformer: 94.65737115557823 kcal/mol)

>  <smiles>  (17) 
Cn1c(CNCc2cccs2)cc2cc(Cl)ccc21

>  <score_type>  (17) 
oracle

>  <origin>  (17) 
adg

>  <m_score__min__energy>  (17) 
-8.0099999999999998

>  <m_primary>  (17) 
energy

$$$$
17:0
     RDKit          3D

 33 34  0  0  0  0  0  0  0  0999 V2000
   -3.4460   24.8650  -26.6970 C   0  0  0  0  0  0  0  0  0  0  0  0
   -3.8980   24.1210  -27.9470 C   0  0  0  0  0  0  0  0  0  0  0  0
   -2.8790   24.5510  -29.3520 S   0  0  0  0  0  0  0  0  0  0  0  0
   -2.1020   23.3450  -29.8020 O   0  0  0  0  0  0  0  0  0  0  0  0
   -1.9150   25.6320  -28.9520 O   0  0  0  0  0  0  0  0  0  0  0  0
   -3.8630   25.1410  -30.6570 N   0  0  0  0  0  0  0  0  0  0  0  0
   -5.1690   24.4900  -30.6370 C   0  0  0  0  0  0  0  0  0  0  0  0
   -5.1200   23.2680  -31.4930 C   0  0  0  0  0  0  0  0  0  0  0  0
   -3.9940   22.6570  -32.0440 C   0  0  0  0  0  0  0  0  0  0  0  0
   -4.3700   21.5200  -32.6750 N   0  0  0  0  0  0  0  0  0  0  0  0
   -5.6780   21.3890  -32.5280 N   0  0  0  0  0  0  0  0  0  0  0  0
   -6.4930   20.3990  -32.9730 C   0  0  0  0  0  0  0  0  0  0  0  0
   -5.9680   19.2480  -33.7700 C   0  0  0  0  0  0  0  0  0  0  0  0
   -7.8190   20.4810  -32.6690 N   0  0  0  0  0  0  0  0  0  0  0  0
   -8.3040   21.5250  -31.9290 C   0  0  0  0  0  0  0  0  0  0  0  0
   -9.7640   21.6150  -31.6360 C   0  0  0  0  0  0  0  0  0  0  0  0
   -7.4640   22.5150  -31.5030 N   0  0  0  0  0  0  0  0  0  0  0  0
   -6.1520   22.4160  -31.8190 C   0  0  0  0  0  0  0  0  0  0  0  0
   -3.7791   24.3168  -25.8034 H   0  0  0  0  0  0  0  0  0  0  0  0
   -2.3487   24.9414  -26.6925 H   0  0  0  0  0  0  0  0  0  0  0  0
   -3.8839   25.8741  -26.6925 H   0  0  0  0  0  0  0  0  0  0  0  0
   -3.8248   23.0382  -27.7674 H   0  0  0  0  0  0  0  0  0  0  0  0
   -4.9374   24.4055  -28.1677 H   0  0  0  0  0  0  0  0  0  0  0  0
   -5.4233   24.2066  -29.6050 H   0  0  0  0  0  0  0  0  0  0  0  0
   -5.9331   25.1813  -31.0221 H   0  0  0  0  0  0  0  0  0  0  0  0
   -2.9644   23.0383  -31.9766 H   0  0  0  0  0  0  0  0  0  0  0  0
   -3.7430   20.8520  -33.1750 H   0  0  0  0  0  0  0  0  0  0  0  0
   -5.6098   18.4628  -33.0880 H   0  0  0  0  0  0  0  0  0  0  0  0
   -6.7711   18.8445  -34.4042 H   0  0  0  0  0  0  0  0  0  0  0  0
   -5.1368   19.5899  -34.4042 H   0  0  0  0  0  0  0  0  0  0  0  0
   -9.9195   21.6246  -30.5471 H   0  0  0  0  0  0  0  0  0  0  0  0
  -10.1692   22.5398  -32.0724 H   0  0  0  0  0  0  0  0  0  0  0  0
  -10.2798   20.7469  -32.0724 H   0  0  0  0  0  0  0  0  0  0  0  0
  1  2  1  0
  2  3  1  0
  3  4  2  0
  3  5  2  0
  3  6  1  0
  6  7  1  0
  7  8  1  0
  8  9  1  0
  9 10  2  0
 10 11  1  0
 11 12  1  0
 12 13  1  0
 12 14  2  0
 14 15  1  0
 15 16  1  0
 15 17  2  0
 17 18  1  0
 18  8  2  0
 18 11  1  0
  1 19  1  0
  1 20  1  0
  1 21  1  0
  2 22  1  0
  2 23  1  0
  7 24  1  0
  7 25  1  0
  9 26  1  0
 10 27  1  0
 13 28  1  0
 13 29  1  0
 13 30  1  0
 16 31  1  0
 16 32  1  0
 16 33  1  0
M  CHG  2   6  -1  10   1
M  END
>  <UniqueID>  (18) 
18

>  <SMILES>  (18) 
CCS(=O)(=O)[N-]Cc1c[nH+]n2c(C)nc(C)nc12

>  <Energy>  (18) 
59.201695957041004

>  <Genealogy>  (18) 
CCS(=O)(=O)[N-]Cc1c[nH+]n2c(C)nc(C)nc12 (protonated)
CCS(=O)(=O)[N-]Cc1c[nH+]n2c(C)nc(C)nc12 (3D coordinates assigned)
CCS(=O)(=O)[N-]Cc1c[nH+]n2c(C)nc(C)nc12 (optimized conformer: 59.201695957041004 kcal/mol)

>  <smiles>  (18) 
CCS(=O)(=O)NCc1cnn2c(C)nc(C)nc12

>  <score_type>  (18) 
oracle

>  <origin>  (18) 
adg

>  <m_score__min__energy>  (18) 
-8.2300000000000004

>  <m_primary>  (18) 
energy

$$$$
18:0
     RDKit          3D

 41 43  0  0  0  0  0  0  0  0999 V2000
   -2.4040   24.5400  -28.6290 C   0  0  0  0  0  0  0  0  0  0  0  0
   -3.1110   25.1520  -29.7030 O   0  0  0  0  0  0  0  0  0  0  0  0
   -4.2490   24.6080  -30.3140 C   0  0  0  0  0  0  0  0  0  0  0  0
   -4.1070   23.4300  -31.0580 C   0  0  0  0  0  0  0  0  0  0  0  0
   -5.2110   22.8500  -31.6860 C   0  0  0  0  0  0  0  0  0  0  0  0
   -6.4780   23.4340  -31.5790 C   0  0  0  0  0  0  0  0  0  0  0  0
   -7.5540   22.8100  -32.2240 O   0  0  0  0  0  0  0  0  0  0  0  0
   -8.7900   22.4730  -31.6000 C   0  0  0  0  0  0  0  0  0  0  0  0
   -8.7400   21.0320  -31.0920 C   0  0  0  0  0  0  0  0  0  0  0  0
   -9.0930   19.8140  -32.4130 S   0  0  0  0  0  0  0  0  0  0  0  0
   -7.4080   19.7160  -33.0280 C   0  0  0  0  0  0  0  0  0  0  0  0
   -6.7010   20.7890  -33.4200 N   0  0  0  0  0  0  0  0  0  0  0  0
   -5.5200   20.3700  -33.8410 N   0  0  0  0  0  0  0  0  0  0  0  0
   -5.5140   19.0280  -33.6950 C   0  0  0  0  0  0  0  0  0  0  0  0
   -4.3580   18.1980  -34.0960 C   0  0  0  0  0  0  0  0  0  0  0  0
   -3.0260   18.5230  -33.8500 C   0  0  0  0  0  0  0  0  0  0  0  0
   -2.1170   17.5780  -34.3430 C   0  0  0  0  0  0  0  0  0  0  0  0
   -2.7190   16.5030  -34.9800 C   0  0  0  0  0  0  0  0  0  0  0  0
   -4.3830   16.7340  -34.9290 S   0  0  0  0  0  0  0  0  0  0  0  0
   -6.6870   18.5850  -33.1740 N   0  0  0  0  0  0  0  0  0  0  0  0
   -7.1040   17.2180  -32.8650 C   0  0  0  0  0  0  0  0  0  0  0  0
   -6.6270   24.6190  -30.8350 C   0  0  0  0  0  0  0  0  0  0  0  0
   -5.5220   25.2010  -30.2060 C   0  0  0  0  0  0  0  0  0  0  0  0
   -2.8133   24.8943  -27.6715 H   0  0  0  0  0  0  0  0  0  0  0  0
   -2.5141   23.4474  -28.6930 H   0  0  0  0  0  0  0  0  0  0  0  0
   -1.3384   24.8055  -28.6930 H   0  0  0  0  0  0  0  0  0  0  0  0
   -3.1176   22.9578  -31.1484 H   0  0  0  0  0  0  0  0  0  0  0  0
   -5.0836   21.9264  -32.2697 H   0  0  0  0  0  0  0  0  0  0  0  0
   -8.9684   23.1523  -30.7534 H   0  0  0  0  0  0  0  0  0  0  0  0
   -9.6044   22.5708  -32.3329 H   0  0  0  0  0  0  0  0  0  0  0  0
   -7.7361   20.8343  -30.6882 H   0  0  0  0  0  0  0  0  0  0  0  0
   -9.5142   20.9219  -30.3184 H   0  0  0  0  0  0  0  0  0  0  0  0
   -7.0160   21.7840  -33.4190 H   0  0  0  0  0  0  0  0  0  0  0  0
   -2.7171   19.4354  -33.3188 H   0  0  0  0  0  0  0  0  0  0  0  0
   -1.0270   17.6791  -34.2350 H   0  0  0  0  0  0  0  0  0  0  0  0
   -2.1986   15.6490  -35.4382 H   0  0  0  0  0  0  0  0  0  0  0  0
   -7.1446   17.0848  -31.7738 H   0  0  0  0  0  0  0  0  0  0  0  0
   -8.0996   17.0325  -33.2944 H   0  0  0  0  0  0  0  0  0  0  0  0
   -6.3815   16.5083  -33.2944 H   0  0  0  0  0  0  0  0  0  0  0  0
   -7.6173   25.0897  -30.7478 H   0  0  0  0  0  0  0  0  0  0  0  0
   -5.6475   26.1261  -29.6242 H   0  0  0  0  0  0  0  0  0  0  0  0
  1  2  1  0
  2  3  1  0
  3  4  2  0
  4  5  1  0
  5  6  2  0
  6  7  1  0
  7  8  1  0
  8  9  1  0
  9 10  1  0
 10 11  1  0
 11 12  2  0
 12 13  1  0
 13 14  2  0
 14 15  1  0
 15 16  2  0
 16 17  1  0
 17 18  2  0
 18 19  1  0
 14 20  1  0
 20 21  1  0
  6 22  1  0
 22 23  2  0
 23  3  1  0
 20 11  1  0
 19 15  1  0
  1 24  1  0
  1 25  1  0
  1 26  1  0
  4 27  1  0
  5 28  1  0
  8 29  1  0
  8 30  1  0
  9 31  1  0
  9 32  1  0
 12 33  1  0
 16 34  1  0
 17 35  1  0
 18 36  1  0
 21 37  1  0
 21 38  1  0
 21 39  1  0
 22 40  1  0
 23 41  1  0
M  CHG  1  12   1
M  END
>  <UniqueID>  (19) 
19

>  <SMILES>  (19) 
COc1ccc(OCCSc2[nH+]nc(-c3cccs3)n2C)cc1

>  <Energy>  (19) 
98.50142433010436

>  <Genealogy>  (19) 
COc1ccc(OCCSc2[nH+]nc(-c3cccs3)n2C)cc1 (protonated)
COc1ccc(OCCSc2[nH+]nc(-c3cccs3)n2C)cc1 (3D coordinates assigned)
COc1ccc(OCCSc2[nH+]nc(-c3cccs3)n2C)cc1 (optimized conformer: 98.50142433010436 kcal/mol)

>  <smiles>  (19) 
COc1ccc(OCCSc2nnc(-c3cccs3)n2C)cc1

>  <score_type>  (19) 
oracle

>  <origin>  (19) 
adg

>  <m_score__min__energy>  (19) 
-7.4500000000000002

>  <m_primary>  (19) 
energy

$$$$
19:0
     RDKit          3D

 42 43  0  0  0  0  0  0  0  0999 V2000
   -2.4153   23.8701  -29.1255 H   0  0  0  0  0  0  0  0  0  0  0  0
   -2.6420   23.4440  -30.1140 C   0  0  0  0  0  0  0  0  0  0  0  0
   -3.4920   24.0590  -30.8780 N   0  0  0  0  0  0  0  0  0  0  0  0
   -3.9740   25.3170  -30.5830 O   0  0  0  0  0  0  0  0  0  0  0  0
   -5.3500   25.6260  -30.7410 C   0  0  0  0  0  0  0  0  0  0  0  0
   -5.7633   25.0261  -31.5652 H   0  0  0  0  0  0  0  0  0  0  0  0
   -5.4501   26.6984  -30.9647 H   0  0  0  0  0  0  0  0  0  0  0  0
   -6.1180   25.3160  -29.4610 C   0  0  0  0  0  0  0  0  0  0  0  0
   -5.4953   25.5674  -28.5898 H   0  0  0  0  0  0  0  0  0  0  0  0
   -7.0426   25.9113  -29.4348 H   0  0  0  0  0  0  0  0  0  0  0  0
   -6.3702   24.2456  -29.4348 H   0  0  0  0  0  0  0  0  0  0  0  0
   -1.9670   22.1940  -30.5200 C   0  0  0  0  0  0  0  0  0  0  0  0
   -0.8780   21.7340  -29.7700 C   0  0  0  0  0  0  0  0  0  0  0  0
   -0.5278   22.3093  -28.9003 H   0  0  0  0  0  0  0  0  0  0  0  0
   -0.2370   20.5480  -30.1240 C   0  0  0  0  0  0  0  0  0  0  0  0
    0.6079   20.1740  -29.5272 H   0  0  0  0  0  0  0  0  0  0  0  0
   -0.6770   19.8400  -31.2420 C   0  0  0  0  0  0  0  0  0  0  0  0
   -0.1825   18.8989  -31.5244 H   0  0  0  0  0  0  0  0  0  0  0  0
   -1.7150   20.3090  -31.9840 N   0  0  0  0  0  0  0  0  0  0  0  0
   -1.9870   19.7810  -32.8430 H   0  0  0  0  0  0  0  0  0  0  0  0
   -2.3670   21.4650  -31.6570 C   0  0  0  0  0  0  0  0  0  0  0  0
   -3.3850   21.9660  -32.4800 O   0  0  0  0  0  0  0  0  0  0  0  0
   -4.7170   21.5310  -32.4640 C   0  0  0  0  0  0  0  0  0  0  0  0
   -5.7370   22.2820  -31.8550 C   0  0  0  0  0  0  0  0  0  0  0  0
   -5.4925   23.2261  -31.3461 H   0  0  0  0  0  0  0  0  0  0  0  0
   -7.0600   21.8350  -31.8930 C   0  0  0  0  0  0  0  0  0  0  0  0
   -7.8503   22.4280  -31.4095 H   0  0  0  0  0  0  0  0  0  0  0  0
   -7.3900   20.6320  -32.5450 C   0  0  0  0  0  0  0  0  0  0  0  0
   -8.8230   20.1390  -32.6010 C   0  0  0  0  0  0  0  0  0  0  0  0
   -9.0927   20.0099  -33.6596 H   0  0  0  0  0  0  0  0  0  0  0  0
   -8.9660   18.7760  -31.9130 C   0  0  0  0  0  0  0  0  0  0  0  0
   -8.9516   18.9129  -30.8216 H   0  0  0  0  0  0  0  0  0  0  0  0
   -9.9177   18.3124  -32.2119 H   0  0  0  0  0  0  0  0  0  0  0  0
   -8.1312   18.1250  -32.2119 H   0  0  0  0  0  0  0  0  0  0  0  0
   -9.7840   21.1670  -31.9960 C   0  0  0  0  0  0  0  0  0  0  0  0
   -9.7343   21.1138  -30.8984 H   0  0  0  0  0  0  0  0  0  0  0  0
   -9.4978   22.1760  -32.3276 H   0  0  0  0  0  0  0  0  0  0  0  0
  -10.8100   20.9493  -32.3276 H   0  0  0  0  0  0  0  0  0  0  0  0
   -6.3660   19.8930  -33.1630 C   0  0  0  0  0  0  0  0  0  0  0  0
   -6.6080   18.9535  -33.6815 H   0  0  0  0  0  0  0  0  0  0  0  0
   -5.0440   20.3420  -33.1240 C   0  0  0  0  0  0  0  0  0  0  0  0
   -4.2539   19.7559  -33.6162 H   0  0  0  0  0  0  0  0  0  0  0  0
  1  2  1  0
  2  3  2  0
  3  4  1  0
  4  5  1  0
  5  6  1  0
  5  7  1  0
  5  8  1  0
  8  9  1  0
  8 10  1  0
  8 11  1  0
  2 12  1  0
 12 13  2  0
 13 14  1  0
 13 15  1  0
 15 16  1  0
 15 17  2  0
 17 18  1  0
 17 19  1  0
 19 20  1  0
 19 21  2  0
 21 22  1  0
 22 23  1  0
 23 24  2  0
 24 25  1  0
 24 26  1  0
 26 27  1  0
 26 28  2  0
 28 29  1  0
 29 30  1  0
 29 31  1  0
 31 32  1  0
 31 33  1  0
 31 34  1  0
 29 35  1  0
 35 36  1  0
 35 37  1  0
 35 38  1  0
 28 39  1  0
 39 40  1  0
 39 41  2  0
 41 42  1  0
 21 12  1  0
 41 23  1  0
M  CHG  1  19   1
M  END
>  <UniqueID>  (20) 
20

>  <SMILES>  (20) 
CCO/N=C\c1ccc[nH+]c1Oc1ccc(C(C)C)cc1

>  <Energy>  (20) 
42.099923862390874

>  <Genealogy>  (20) 
CCON=Cc1ccc[nH+]c1Oc1ccc(C(C)C)cc1 (protonated)
CCO/N=C\c1ccc[nH+]c1Oc1ccc(C(C)C)cc1 (cis-trans isomerization)
CCO/N=C\c1ccc[nH+]c1Oc1ccc(C(C)C)cc1 (3D coordinates assigned)
CCO/N=C\c1ccc[nH+]c1Oc1ccc(C(C)C)cc1 (optimized conformer: 42.099923862390874 kcal/mol)

>  <smiles>  (20) 
CCON=Cc1cccnc1Oc1ccc(C(C)C)cc1

>  <score_type>  (20) 
oracle

>  <origin>  (20) 
adg

>  <m_score__min__energy>  (20) 
-7.3600000000000003

>  <m_primary>  (20) 
energy

$$$$
20:0
     RDKit          3D

 49 51  0  0  0  0  0  0  0  0999 V2000
   -7.6770   19.5920  -32.6160 C   0  0  0  0  0  0  0  0  0  0  0  0
   -9.1100   20.0390  -32.3470 C   0  0  0  0  0  0  0  0  0  0  0  0
   -9.1840   21.4600  -32.2270 O   0  0  0  0  0  0  0  0  0  0  0  0
   -8.2100   22.2830  -31.6360 C   0  0  0  0  0  0  0  0  0  0  0  0
   -7.9410   22.2750  -30.2540 C   0  0  0  0  0  0  0  0  0  0  0  0
   -6.9590   23.1150  -29.7220 C   0  0  0  0  0  0  0  0  0  0  0  0
   -6.2310   23.9740  -30.5590 C   0  0  0  0  0  0  0  0  0  0  0  0
   -5.1600   24.8610  -29.9810 C   0  0  0  0  0  0  0  0  0  0  0  0
   -3.8180   24.4030  -30.4050 N   0  0  0  0  0  0  0  0  0  0  0  0
   -2.7900   24.5240  -29.3450 C   0  0  0  0  0  0  0  0  0  0  0  0
   -2.9520   23.4750  -28.2350 C   0  0  0  0  0  0  0  0  0  0  0  0
   -3.1090   22.1450  -28.8230 N   0  0  0  0  0  0  0  0  0  0  0  0
   -2.4490   21.0070  -28.2500 C   0  0  0  0  0  0  0  0  0  0  0  0
   -3.0580   20.3380  -27.1790 C   0  0  0  0  0  0  0  0  0  0  0  0
   -2.4550   19.2140  -26.6110 C   0  0  0  0  0  0  0  0  0  0  0  0
   -1.2370   18.7490  -27.1080 C   0  0  0  0  0  0  0  0  0  0  0  0
   -0.6130   19.4120  -28.1680 C   0  0  0  0  0  0  0  0  0  0  0  0
   -1.2000   20.5540  -28.7380 C   0  0  0  0  0  0  0  0  0  0  0  0
   -0.5030   21.2540  -29.8710 C   0  0  0  0  0  0  0  0  0  0  0  0
   -4.0670   21.9650  -29.9140 C   0  0  0  0  0  0  0  0  0  0  0  0
   -3.8430   23.0420  -30.9810 C   0  0  0  0  0  0  0  0  0  0  0  0
   -6.4920   23.9740  -31.9370 C   0  0  0  0  0  0  0  0  0  0  0  0
   -7.4750   23.1350  -32.4680 C   0  0  0  0  0  0  0  0  0  0  0  0
   -7.1578   19.4301  -31.6598 H   0  0  0  0  0  0  0  0  0  0  0  0
   -7.6872   18.6544  -33.1911 H   0  0  0  0  0  0  0  0  0  0  0  0
   -7.1523   20.3692  -33.1911 H   0  0  0  0  0  0  0  0  0  0  0  0
   -9.7515   19.7135  -33.1792 H   0  0  0  0  0  0  0  0  0  0  0  0
   -9.4488   19.5874  -31.4029 H   0  0  0  0  0  0  0  0  0  0  0  0
   -8.5064   21.6045  -29.5900 H   0  0  0  0  0  0  0  0  0  0  0  0
   -6.7557   23.1026  -28.6410 H   0  0  0  0  0  0  0  0  0  0  0  0
   -5.3171   25.8920  -30.3307 H   0  0  0  0  0  0  0  0  0  0  0  0
   -5.2186   24.8178  -28.8834 H   0  0  0  0  0  0  0  0  0  0  0  0
   -1.7973   24.4007  -29.8026 H   0  0  0  0  0  0  0  0  0  0  0  0
   -2.9065   25.5154  -28.8828 H   0  0  0  0  0  0  0  0  0  0  0  0
   -2.0604   23.4856  -27.5908 H   0  0  0  0  0  0  0  0  0  0  0  0
   -3.8453   23.7144  -27.6394 H   0  0  0  0  0  0  0  0  0  0  0  0
   -4.0179   20.7012  -26.7833 H   0  0  0  0  0  0  0  0  0  0  0  0
   -2.9404   18.6949  -25.7714 H   0  0  0  0  0  0  0  0  0  0  0  0
   -0.7671   17.8588  -26.6645 H   0  0  0  0  0  0  0  0  0  0  0  0
    0.3445   19.0371  -28.5588 H   0  0  0  0  0  0  0  0  0  0  0  0
    0.2186   21.9787  -29.4658 H   0  0  0  0  0  0  0  0  0  0  0  0
    0.0277   20.5141  -30.4881 H   0  0  0  0  0  0  0  0  0  0  0  0
   -1.2452   21.7815  -30.4881 H   0  0  0  0  0  0  0  0  0  0  0  0
   -3.9271   20.9707  -30.3631 H   0  0  0  0  0  0  0  0  0  0  0  0
   -5.0898   22.0511  -29.5186 H   0  0  0  0  0  0  0  0  0  0  0  0
   -2.8817   22.8511  -31.4804 H   0  0  0  0  0  0  0  0  0  0  0  0
   -4.6809   22.9919  -31.6920 H   0  0  0  0  0  0  0  0  0  0  0  0
   -5.9203   24.6374  -32.6026 H   0  0  0  0  0  0  0  0  0  0  0  0
   -7.6730   23.1443  -33.5500 H   0  0  0  0  0  0  0  0  0  0  0  0
  1  2  1  0
  2  3  1  0
  3  4  1  0
  4  5  2  0
  5  6  1  0
  6  7  2  0
  7  8  1  0
  8  9  1  0
  9 10  1  0
 10 11  1  0
 11 12  1  0
 12 13  1  0
 13 14  2  0
 14 15  1  0
 15 16  2  0
 16 17  1  0
 17 18  2  0
 18 19  1  0
 12 20  1  0
 20 21  1  0
  7 22  1  0
 22 23  2  0
 23  4  1  0
 21  9  1  0
 18 13  1  0
  1 24  1  0
  1 25  1  0
  1 26  1  0
  2 27  1  0
  2 28  1  0
  5 29  1  0
  6 30  1  0
  8 31  1  0
  8 32  1  0
 10 33  1  0
 10 34  1  0
 11 35  1  0
 11 36  1  0
 14 37  1  0
 15 38  1  0
 16 39  1  0
 17 40  1  0
 19 41  1  0
 19 42  1  0
 19 43  1  0
 20 44  1  0
 20 45  1  0
 21 46  1  0
 21 47  1  0
 22 48  1  0
 23 49  1  0
M  END
>  <UniqueID>  (21) 
21

>  <SMILES>  (21) 
CCOc1ccc(CN2CCN(c3ccccc3C)CC2)cc1

>  <Energy>  (21) 
55.97190655191964

>  <Genealogy>  (21) 
CCOc1ccc(CN2CCN(c3ccccc3C)CC2)cc1 (3D coordinates assigned)
CCOc1ccc(CN2CCN(c3ccccc3C)CC2)cc1 (nonaromatic ring conformer: 55.97190655191964 kcal/mol)

>  <smiles>  (21) 
CCOc1ccc(CN2CCN(c3ccccc3C)CC2)cc1

>  <score_type>  (21) 
oracle

>  <origin>  (21) 
adg

>  <m_score__min__energy>  (21) 
-8.7400000000000002

>  <m_primary>  (21) 
energy

$$$$
21:0
     RDKit          3D

 49 51  0  0  0  0  0  0  0  0999 V2000
   -1.5760   26.0540  -26.0350 C   0  0  0  0  0  0  0  0  0  0  0  0
   -1.8650   25.2980  -27.2960 C   0  0  0  0  0  0  0  0  0  0  0  0
   -1.0040   25.1470  -28.3600 C   0  0  0  0  0  0  0  0  0  0  0  0
   -1.6020   24.4100  -29.3170 N   0  0  0  0  0  0  0  0  0  0  0  0
   -2.8220   24.1260  -28.8100 C   0  0  0  0  0  0  0  0  0  0  0  0
   -3.8350   23.3050  -29.5630 C   0  0  0  0  0  0  0  0  0  0  0  0
   -4.2390   23.9930  -30.8070 N   0  0  0  0  0  0  0  0  0  0  0  0
   -5.1070   25.1560  -30.5270 C   0  0  0  0  0  0  0  0  0  0  0  0
   -6.5590   24.7330  -30.2360 C   0  0  0  0  0  0  0  0  0  0  0  0
   -7.1230   23.7940  -31.2450 N   0  0  0  0  0  0  0  0  0  0  0  0
   -7.6660   22.5620  -30.6300 C   0  0  0  0  0  0  0  0  0  0  0  0
   -8.9700   22.1450  -31.3210 C   0  0  0  0  0  0  0  0  0  0  0  0
   -9.0780   20.7230  -31.3780 O   0  0  0  0  0  0  0  0  0  0  0  0
   -8.1960   19.8620  -32.0530 C   0  0  0  0  0  0  0  0  0  0  0  0
   -8.0940   18.4870  -31.7580 C   0  0  0  0  0  0  0  0  0  0  0  0
   -7.1960   17.6800  -32.4640 C   0  0  0  0  0  0  0  0  0  0  0  0
   -6.3920   18.2340  -33.4640 C   0  0  0  0  0  0  0  0  0  0  0  0
   -6.4840   19.5960  -33.7580 C   0  0  0  0  0  0  0  0  0  0  0  0
   -7.3810   20.4060  -33.0550 C   0  0  0  0  0  0  0  0  0  0  0  0
   -6.1860   23.4910  -32.3460 C   0  0  0  0  0  0  0  0  0  0  0  0
   -4.8110   23.0560  -31.8130 C   0  0  0  0  0  0  0  0  0  0  0  0
   -3.0160   24.6580  -27.5810 N   0  0  0  0  0  0  0  0  0  0  0  0
   -4.2150   24.5530  -26.7470 C   0  0  0  0  0  0  0  0  0  0  0  0
   -1.8169   25.4238  -25.1662 H   0  0  0  0  0  0  0  0  0  0  0  0
   -0.5105   26.3259  -26.0065 H   0  0  0  0  0  0  0  0  0  0  0  0
   -2.1884   26.9673  -26.0065 H   0  0  0  0  0  0  0  0  0  0  0  0
    0.0127   25.5628  -28.4196 H   0  0  0  0  0  0  0  0  0  0  0  0
   -3.3941   22.3295  -29.8159 H   0  0  0  0  0  0  0  0  0  0  0  0
   -4.7231   23.1674  -28.9286 H   0  0  0  0  0  0  0  0  0  0  0  0
   -4.7110   25.6927  -29.6523 H   0  0  0  0  0  0  0  0  0  0  0  0
   -5.1120   25.7998  -31.4189 H   0  0  0  0  0  0  0  0  0  0  0  0
   -6.5872   24.2429  -29.2516 H   0  0  0  0  0  0  0  0  0  0  0  0
   -7.1722   25.6457  -30.2684 H   0  0  0  0  0  0  0  0  0  0  0  0
   -6.9284   21.7522  -30.7304 H   0  0  0  0  0  0  0  0  0  0  0  0
   -7.8736   22.7571  -29.5675 H   0  0  0  0  0  0  0  0  0  0  0  0
   -9.8231   22.5497  -30.7567 H   0  0  0  0  0  0  0  0  0  0  0  0
   -8.9690   22.5411  -32.3472 H   0  0  0  0  0  0  0  0  0  0  0  0
   -8.7229   18.0474  -30.9698 H   0  0  0  0  0  0  0  0  0  0  0  0
   -7.1224   16.6073  -32.2318 H   0  0  0  0  0  0  0  0  0  0  0  0
   -5.6872   17.5975  -34.0191 H   0  0  0  0  0  0  0  0  0  0  0  0
   -5.8498   20.0323  -34.5438 H   0  0  0  0  0  0  0  0  0  0  0  0
   -7.4475   21.4785  -33.2902 H   0  0  0  0  0  0  0  0  0  0  0  0
   -6.6050   22.6790  -32.9585 H   0  0  0  0  0  0  0  0  0  0  0  0
   -6.0507   24.4038  -32.9447 H   0  0  0  0  0  0  0  0  0  0  0  0
   -4.9163   22.0657  -31.3458 H   0  0  0  0  0  0  0  0  0  0  0  0
   -4.1218   23.0424  -32.6702 H   0  0  0  0  0  0  0  0  0  0  0  0
   -3.9268   24.5782  -25.6857 H   0  0  0  0  0  0  0  0  0  0  0  0
   -4.8878   25.3957  -26.9644 H   0  0  0  0  0  0  0  0  0  0  0  0
   -4.7311   23.6062  -26.9644 H   0  0  0  0  0  0  0  0  0  0  0  0
  1  2  1  0
  2  3  2  0
  3  4  1  0
  4  5  2  0
  5  6  1  0
  6  7  1  0
  7  8  1  0
  8  9  1  0
  9 10  1  0
 10 11  1  0
 11 12  1  0
 12 13  1  0
 13 14  1  0
 14 15  2  0
 15 16  1  0
 16 17  2  0
 17 18  1  0
 18 19  2  0
 10 20  1  0
 20 21  1  0
  5 22  1  0
 22 23  1  0
 22  2  1  0
 21  7  1  0
 19 14  1  0
  1 24  1  0
  1 25  1  0
  1 26  1  0
  3 27  1  0
  6 28  1  0
  6 29  1  0
  8 30  1  0
  8 31  1  0
  9 32  1  0
  9 33  1  0
 11 34  1  0
 11 35  1  0
 12 36  1  0
 12 37  1  0
 15 38  1  0
 16 39  1  0
 17 40  1  0
 18 41  1  0
 19 42  1  0
 20 43  1  0
 20 44  1  0
 21 45  1  0
 21 46  1  0
 23 47  1  0
 23 48  1  0
 23 49  1  0
M  END
>  <UniqueID>  (22) 
22

>  <SMILES>  (22) 
Cc1cnc(CN2CCN(CCOc3ccccc3)CC2)n1C

>  <Energy>  (22) 
91.99045035720528

>  <Genealogy>  (22) 
Cc1cnc(CN2CCN(CCOc3ccccc3)CC2)n1C (3D coordinates assigned)
Cc1cnc(CN2CCN(CCOc3ccccc3)CC2)n1C (nonaromatic ring conformer: 91.99045035720528 kcal/mol)

>  <smiles>  (22) 
Cc1cnc(CN2CCN(CCOc3ccccc3)CC2)n1C

>  <score_type>  (22) 
oracle

>  <origin>  (22) 
adg

>  <m_score__min__energy>  (22) 
-8.3499999999999996

>  <m_primary>  (22) 
energy

$$$$
22:0
     RDKit          3D

 55 57  0  0  0  0  0  0  0  0999 V2000
   -6.6050   24.9240  -29.7000 C   0  0  0  0  0  0  0  0  0  0  0  0
   -5.7030   25.2800  -30.8700 C   0  0  0  0  0  0  0  0  0  0  0  0
   -4.5790   24.4210  -30.8710 O   0  0  0  0  0  0  0  0  0  0  0  0
   -3.5990   24.9340  -30.0580 N   0  0  0  0  0  0  0  0  0  0  0  0
   -2.6880   23.8580  -29.6600 C   0  0  0  0  0  0  0  0  0  0  0  0
   -3.4470   22.7500  -28.9190 C   0  0  0  0  0  0  0  0  0  0  0  0
   -3.8450   21.5570  -29.8150 C   0  0  0  0  0  0  0  0  0  0  0  0
   -4.3770   21.9630  -31.1390 N   0  0  0  0  0  0  0  0  0  0  0  0
   -4.3920   20.8750  -32.1150 C   0  0  0  0  0  0  0  0  0  0  0  0
   -3.2280   20.5690  -32.8680 C   0  0  0  0  0  0  0  0  0  0  0  0
   -2.2060   21.5230  -33.0920 C   0  0  0  0  0  0  0  0  0  0  0  0
   -1.0570   21.1900  -33.8060 C   0  0  0  0  0  0  0  0  0  0  0  0
   -0.9110   19.9140  -34.3340 C   0  0  0  0  0  0  0  0  0  0  0  0
   -1.9190   18.9690  -34.1660 C   0  0  0  0  0  0  0  0  0  0  0  0
   -3.0930   19.2720  -33.4300 C   0  0  0  0  0  0  0  0  0  0  0  0
   -4.0970   18.3430  -33.2650 N   0  0  0  0  0  0  0  0  0  0  0  0
   -3.8310   16.9110  -33.5190 C   0  0  0  0  0  0  0  0  0  0  0  0
   -5.3570   18.7620  -32.8910 C   0  0  0  0  0  0  0  0  0  0  0  0
   -6.4830   17.9260  -33.0740 C   0  0  0  0  0  0  0  0  0  0  0  0
   -7.7530   18.3380  -32.7000 C   0  0  0  0  0  0  0  0  0  0  0  0
   -7.9500   19.6020  -32.1710 C   0  0  0  0  0  0  0  0  0  0  0  0
   -6.8720   20.4890  -32.0010 C   0  0  0  0  0  0  0  0  0  0  0  0
   -7.0950   21.7990  -31.5400 O   0  0  0  0  0  0  0  0  0  0  0  0
   -8.2950   22.3030  -30.9530 C   0  0  0  0  0  0  0  0  0  0  0  0
   -9.1150   23.0790  -31.9790 C   0  0  0  0  0  0  0  0  0  0  0  0
   -5.5460   20.0590  -32.3230 C   0  0  0  0  0  0  0  0  0  0  0  0
   -6.0799   25.1312  -28.7559 H   0  0  0  0  0  0  0  0  0  0  0  0
   -7.5237   25.5270  -29.7486 H   0  0  0  0  0  0  0  0  0  0  0  0
   -6.8643   23.8561  -29.7486 H   0  0  0  0  0  0  0  0  0  0  0  0
   -6.2582   25.1600  -31.8120 H   0  0  0  0  0  0  0  0  0  0  0  0
   -5.3694   26.3238  -30.7743 H   0  0  0  0  0  0  0  0  0  0  0  0
   -3.9670   25.4400  -29.2130 H   0  0  0  0  0  0  0  0  0  0  0  0
   -2.2163   23.4336  -30.5586 H   0  0  0  0  0  0  0  0  0  0  0  0
   -1.9234   24.2733  -28.9870 H   0  0  0  0  0  0  0  0  0  0  0  0
   -2.8066   22.3748  -28.1071 H   0  0  0  0  0  0  0  0  0  0  0  0
   -4.3814   23.1963  -28.5480 H   0  0  0  0  0  0  0  0  0  0  0  0
   -2.9557   20.9295  -29.9746 H   0  0  0  0  0  0  0  0  0  0  0  0
   -4.6494   21.0161  -29.2951 H   0  0  0  0  0  0  0  0  0  0  0  0
   -3.7940   22.7660  -31.4520 H   0  0  0  0  0  0  0  0  0  0  0  0
   -5.3370   22.3640  -31.0500 H   0  0  0  0  0  0  0  0  0  0  0  0
   -2.3210   22.5428  -32.6961 H   0  0  0  0  0  0  0  0  0  0  0  0
   -0.2645   21.9388  -33.9517 H   0  0  0  0  0  0  0  0  0  0  0  0
    0.0030   19.6496  -34.8860 H   0  0  0  0  0  0  0  0  0  0  0  0
   -1.8032   17.9700  -34.6117 H   0  0  0  0  0  0  0  0  0  0  0  0
   -3.7325   16.3807  -32.5603 H   0  0  0  0  0  0  0  0  0  0  0  0
   -4.6643   16.4794  -34.0928 H   0  0  0  0  0  0  0  0  0  0  0  0
   -2.8983   16.8075  -34.0928 H   0  0  0  0  0  0  0  0  0  0  0  0
   -6.3487   16.9301  -33.5215 H   0  0  0  0  0  0  0  0  0  0  0  0
   -8.6081   17.6572  -32.8242 H   0  0  0  0  0  0  0  0  0  0  0  0
   -8.9630   19.9167  -31.8798 H   0  0  0  0  0  0  0  0  0  0  0  0
   -8.8933   21.4607  -30.5756 H   0  0  0  0  0  0  0  0  0  0  0  0
   -8.0270   22.9814  -30.1296 H   0  0  0  0  0  0  0  0  0  0  0  0
   -9.8187   23.7449  -31.4581 H   0  0  0  0  0  0  0  0  0  0  0  0
   -8.4414   23.6781  -32.6094 H   0  0  0  0  0  0  0  0  0  0  0  0
   -9.6761   22.3735  -32.6094 H   0  0  0  0  0  0  0  0  0  0  0  0
  1  2  1  0
  2  3  1  0
  3  4  1  0
  4  5  1  0
  5  6  1  0
  6  7  1  0
  7  8  1  0
  8  9  1  0
  9 10  2  0
 10 11  1  0
 11 12  2  0
 12 13  1  0
 13 14  2  0
 14 15  1  0
 15 16  2  0
 16 17  1  0
 16 18  1  0
 18 19  2  0
 19 20  1  0
 20 21  2  0
 21 22  1  0
 22 23  1  0
 23 24  1  0
 24 25  1  0
 22 26  2  0
 26  9  1  0
 15 10  1  0
 26 18  1  0
  1 27  1  0
  1 28  1  0
  1 29  1  0
  2 30  1  0
  2 31  1  0
  4 32  1  0
  5 33  1  0
  5 34  1  0
  6 35  1  0
  6 36  1  0
  7 37  1  0
  7 38  1  0
  8 39  1  0
  8 40  1  0
 11 41  1  0
 12 42  1  0
 13 43  1  0
 14 44  1  0
 17 45  1  0
 17 46  1  0
 17 47  1  0
 19 48  1  0
 20 49  1  0
 21 50  1  0
 24 51  1  0
 24 52  1  0
 25 53  1  0
 25 54  1  0
 25 55  1  0
M  CHG  2   8   1  16   1
M  END
>  <UniqueID>  (23) 
23

>  <SMILES>  (23) 
CCONCCC[NH2+]c1c2ccccc2[n+](C)c2cccc(OCC)c12

>  <Energy>  (23) 
89.72750298299484

>  <Genealogy>  (23) 
CCONCCC[NH2+]c1c2ccccc2[n+](C)c2cccc(OCC)c12 (protonated)
CCONCCC[NH2+]c1c2ccccc2[n+](C)c2cccc(OCC)c12 (3D coordinates assigned)
CCONCCC[NH2+]c1c2ccccc2[n+](C)c2cccc(OCC)c12 (optimized conformer: 89.72750298299484 kcal/mol)

>  <smiles>  (23) 
CCONCCCNc1c2ccccc2[n+](C)c2cccc(OCC)c12

>  <score_type>  (23) 
oracle

>  <origin>  (23) 
adg

>  <m_score__min__energy>  (23) 
-6.96

>  <m_primary>  (23) 
energy

$$$$
23:0
     RDKit          3D

 33 34  0  0  0  0  0  0  0  0999 V2000
   -2.6440   23.6600  -29.6820 C   0  0  0  0  0  0  0  0  0  0  0  0
   -3.7810   22.7270  -29.2480 C   0  0  0  0  0  0  0  0  0  0  0  0
   -3.3710   21.9380  -28.0000 C   0  0  0  0  0  0  0  0  0  0  0  0
   -5.0050   23.4970  -28.9830 N   0  0  0  0  0  0  0  0  0  0  0  0
   -5.6410   24.3430  -29.9570 C   0  0  0  0  0  0  0  0  0  0  0  0
   -6.4850   25.6510  -29.4460 S   0  0  0  0  0  0  0  0  0  0  0  0
   -5.4990   24.1130  -31.3670 N   0  0  0  0  0  0  0  0  0  0  0  0
   -5.5620   22.8060  -31.9610 C   0  0  0  0  0  0  0  0  0  0  0  0
   -4.3950   22.2290  -32.4930 C   0  0  0  0  0  0  0  0  0  0  0  0
   -4.4230   20.9490  -33.0480 C   0  0  0  0  0  0  0  0  0  0  0  0
   -5.6110   20.2210  -33.0780 C   0  0  0  0  0  0  0  0  0  0  0  0
   -6.7900   20.7720  -32.5580 C   0  0  0  0  0  0  0  0  0  0  0  0
   -7.9870   20.0400  -32.6000 C   0  0  0  0  0  0  0  0  0  0  0  0
   -9.1670   20.5940  -32.1010 C   0  0  0  0  0  0  0  0  0  0  0  0
   -9.1650   21.8800  -31.5610 C   0  0  0  0  0  0  0  0  0  0  0  0
   -7.9820   22.6210  -31.5080 C   0  0  0  0  0  0  0  0  0  0  0  0
   -6.7750   22.0760  -31.9940 C   0  0  0  0  0  0  0  0  0  0  0  0
   -2.1452   24.0693  -28.7911 H   0  0  0  0  0  0  0  0  0  0  0  0
   -1.9158   23.0957  -30.2831 H   0  0  0  0  0  0  0  0  0  0  0  0
   -3.0553   24.4843  -30.2831 H   0  0  0  0  0  0  0  0  0  0  0  0
   -3.9835   22.0186  -30.0648 H   0  0  0  0  0  0  0  0  0  0  0  0
   -3.6624   22.4987  -27.0996 H   0  0  0  0  0  0  0  0  0  0  0  0
   -3.8751   20.9603  -28.0023 H   0  0  0  0  0  0  0  0  0  0  0  0
   -2.2812   21.7886  -28.0023 H   0  0  0  0  0  0  0  0  0  0  0  0
   -5.3680   23.5390  -28.0030 H   0  0  0  0  0  0  0  0  0  0  0  0
   -5.5270   24.9430  -32.0010 H   0  0  0  0  0  0  0  0  0  0  0  0
   -3.4505   22.7925  -32.4714 H   0  0  0  0  0  0  0  0  0  0  0  0
   -3.5029   20.5125  -33.4638 H   0  0  0  0  0  0  0  0  0  0  0  0
   -5.6233   19.2101  -33.5115 H   0  0  0  0  0  0  0  0  0  0  0  0
   -7.9951   19.0265  -33.0275 H   0  0  0  0  0  0  0  0  0  0  0  0
  -10.1014   20.0146  -32.1337 H   0  0  0  0  0  0  0  0  0  0  0  0
  -10.0996   22.3129  -31.1749 H   0  0  0  0  0  0  0  0  0  0  0  0
   -7.9917   23.6362  -31.0845 H   0  0  0  0  0  0  0  0  0  0  0  0
  1  2  1  0
  2  3  1  0
  2  4  1  0
  4  5  1  0
  5  6  2  0
  5  7  1  0
  7  8  1  0
  8  9  2  0
  9 10  1  0
 10 11  2  0
 11 12  1  0
 12 13  2  0
 13 14  1  0
 14 15  2  0
 15 16  1  0
 16 17  2  0
 17  8  1  0
 17 12  1  0
  1 18  1  0
  1 19  1  0
  1 20  1  0
  2 21  1  0
  3 22  1  0
  3 23  1  0
  3 24  1  0
  4 25  1  0
  7 26  1  0
  9 27  1  0
 10 28  1  0
 11 29  1  0
 13 30  1  0
 14 31  1  0
 15 32  1  0
 16 33  1  0
M  END
>  <UniqueID>  (24) 
24

>  <SMILES>  (24) 
CC(C)NC(=S)Nc1cccc2ccccc12

>  <Energy>  (24) 
37.68349969231279

>  <Genealogy>  (24) 
CC(C)NC(=S)Nc1cccc2ccccc12 (3D coordinates assigned)
CC(C)NC(=S)Nc1cccc2ccccc12 (optimized conformer: 37.68349969231279 kcal/mol)

>  <smiles>  (24) 
CC(C)NC(=S)Nc1cccc2ccccc12

>  <score_type>  (24) 
oracle

>  <origin>  (24) 
adg

>  <m_score__min__energy>  (24) 
-7.2300000000000004

>  <m_primary>  (24) 
energy

$$$$
24:0
     RDKit          3D

 87 90  0  0  0  0  0  0  0  0999 V2000
   -4.2140   24.8620  -26.6750 C   0  0  0  0  0  0  0  0  0  0  0  0
   -3.7800   23.8610  -27.7450 C   0  0  0  0  0  0  0  0  0  0  0  0
   -3.3380   24.5500  -29.0440 C   0  0  0  0  0  0  0  0  0  0  0  0
   -3.7910   23.8470  -30.2750 N   0  0  0  0  0  0  0  0  0  0  0  0
   -4.0850   22.4120  -30.0060 C   0  0  0  0  0  0  0  0  0  0  0  0
   -2.8050   21.5600  -29.9310 C   0  0  0  0  0  0  0  0  0  0  0  0
   -1.5820   22.2810  -30.4910 C   0  0  0  0  0  0  0  0  0  0  0  0
   -4.9920   24.5490  -30.8090 C   0  0  0  0  0  0  0  0  0  0  0  0
   -6.1430   23.5830  -31.1470 C   0  0  0  0  0  0  0  0  0  0  0  0
   -5.9880   22.9820  -32.4770 N   0  0  0  0  0  0  0  0  0  0  0  0
   -5.9390   21.5550  -32.6730 C   0  0  0  0  0  0  0  0  0  0  0  0
   -7.0990   20.7760  -32.4910 C   0  0  0  0  0  0  0  0  0  0  0  0
   -8.3170   21.3700  -32.0980 C   0  0  0  0  0  0  0  0  0  0  0  0
   -9.4800   20.6140  -31.9880 C   0  0  0  0  0  0  0  0  0  0  0  0
   -9.4560   19.2580  -32.2840 C   0  0  0  0  0  0  0  0  0  0  0  0
   -8.2590   18.6430  -32.6520 C   0  0  0  0  0  0  0  0  0  0  0  0
   -7.0460   19.3750  -32.7170 C   0  0  0  0  0  0  0  0  0  0  0  0
   -5.8380   18.7590  -32.9930 N   0  0  0  0  0  0  0  0  0  0  0  0
   -5.7350   17.2820  -32.9320 C   0  0  0  0  0  0  0  0  0  0  0  0
   -4.7160   19.5200  -33.2630 C   0  0  0  0  0  0  0  0  0  0  0  0
   -3.5160   18.9340  -33.7360 C   0  0  0  0  0  0  0  0  0  0  0  0
   -2.3300   19.6810  -33.8460 C   0  0  0  0  0  0  0  0  0  0  0  0
   -1.0990   19.0980  -34.1940 O   0  0  0  0  0  0  0  0  0  0  0  0
    0.1230   19.8070  -34.4100 C   0  0  0  0  0  0  0  0  0  0  0  0
    0.7980   20.1410  -33.0540 C   0  0  0  0  0  0  0  0  0  0  0  0
    1.0200   18.9880  -32.1200 N   0  0  0  0  0  0  0  0  0  0  0  0
    1.3140   17.8080  -32.9820 C   0  0  0  0  0  0  0  0  0  0  0  0
   -0.2080   18.6780  -31.3150 C   0  0  0  0  0  0  0  0  0  0  0  0
   -0.1440   19.2380  -29.8780 C   0  0  0  0  0  0  0  0  0  0  0  0
    1.0090   18.6880  -29.0980 N   0  0  0  0  0  0  0  0  0  0  0  0
    0.5890   17.4450  -28.4030 C   0  0  0  0  0  0  0  0  0  0  0  0
    1.3980   19.6770  -28.0610 C   0  0  0  0  0  0  0  0  0  0  0  0
    2.1930   18.3860  -29.9680 C   0  0  0  0  0  0  0  0  0  0  0  0
    2.2150   19.2410  -31.2510 C   0  0  0  0  0  0  0  0  0  0  0  0
   -2.3600   21.0460  -33.5760 C   0  0  0  0  0  0  0  0  0  0  0  0
   -3.5450   21.6640  -33.1880 C   0  0  0  0  0  0  0  0  0  0  0  0
   -4.7380   20.9250  -33.0510 C   0  0  0  0  0  0  0  0  0  0  0  0
   -4.0293   24.4359  -25.6778 H   0  0  0  0  0  0  0  0  0  0  0  0
   -3.6385   25.7926  -26.7885 H   0  0  0  0  0  0  0  0  0  0  0  0
   -5.2866   25.0780  -26.7885 H   0  0  0  0  0  0  0  0  0  0  0  0
   -2.9389   23.2690  -27.3549 H   0  0  0  0  0  0  0  0  0  0  0  0
   -4.6455   23.2240  -27.9801 H   0  0  0  0  0  0  0  0  0  0  0  0
   -3.7500   25.5699  -29.0543 H   0  0  0  0  0  0  0  0  0  0  0  0
   -2.2381   24.5431  -29.0548 H   0  0  0  0  0  0  0  0  0  0  0  0
   -4.6194   22.3335  -29.0477 H   0  0  0  0  0  0  0  0  0  0  0  0
   -4.6959   22.0309  -30.8376 H   0  0  0  0  0  0  0  0  0  0  0  0
   -2.6124   21.3068  -28.8780 H   0  0  0  0  0  0  0  0  0  0  0  0
   -2.9689   20.6608  -30.5431 H   0  0  0  0  0  0  0  0  0  0  0  0
   -0.9604   22.6475  -29.6608 H   0  0  0  0  0  0  0  0  0  0  0  0
   -0.9960   21.5839  -31.1079 H   0  0  0  0  0  0  0  0  0  0  0  0
   -1.9082   23.1313  -31.1079 H   0  0  0  0  0  0  0  0  0  0  0  0
   -5.3450   25.2667  -30.0538 H   0  0  0  0  0  0  0  0  0  0  0  0
   -4.6959   25.0525  -31.7411 H   0  0  0  0  0  0  0  0  0  0  0  0
   -6.1642   22.7801  -30.3954 H   0  0  0  0  0  0  0  0  0  0  0  0
   -7.0802   24.1589  -31.1431 H   0  0  0  0  0  0  0  0  0  0  0  0
   -5.7920   23.5990  -33.2950 H   0  0  0  0  0  0  0  0  0  0  0  0
   -8.3476   22.4468  -31.8752 H   0  0  0  0  0  0  0  0  0  0  0  0
  -10.4179   21.0906  -31.6667 H   0  0  0  0  0  0  0  0  0  0  0  0
  -10.3823   18.6674  -32.2283 H   0  0  0  0  0  0  0  0  0  0  0  0
   -8.2560   17.5705  -32.8963 H   0  0  0  0  0  0  0  0  0  0  0  0
   -5.7125   16.9591  -31.8807 H   0  0  0  0  0  0  0  0  0  0  0  0
   -6.6040   16.8328  -33.4350 H   0  0  0  0  0  0  0  0  0  0  0  0
   -4.8121   16.9577  -33.4350 H   0  0  0  0  0  0  0  0  0  0  0  0
   -3.5121   17.8722  -34.0232 H   0  0  0  0  0  0  0  0  0  0  0  0
    0.8027   19.1843  -35.0101 H   0  0  0  0  0  0  0  0  0  0  0  0
   -0.0964   20.7449  -34.9413 H   0  0  0  0  0  0  0  0  0  0  0  0
    1.7782   20.5912  -33.2695 H   0  0  0  0  0  0  0  0  0  0  0  0
    0.0959   20.8090  -32.5336 H   0  0  0  0  0  0  0  0  0  0  0  0
    1.5313   16.9358  -32.3479 H   0  0  0  0  0  0  0  0  0  0  0  0
    0.4423   17.5916  -33.6171 H   0  0  0  0  0  0  0  0  0  0  0  0
    2.1853   18.0258  -33.6171 H   0  0  0  0  0  0  0  0  0  0  0  0
   -1.0800   19.1154  -31.8232 H   0  0  0  0  0  0  0  0  0  0  0  0
   -0.2839   17.5833  -31.2386 H   0  0  0  0  0  0  0  0  0  0  0  0
   -0.0444   20.3322  -29.9302 H   0  0  0  0  0  0  0  0  0  0  0  0
   -1.0685   18.9396  -29.3621 H   0  0  0  0  0  0  0  0  0  0  0  0
    0.6407   17.5979  -27.3149 H   0  0  0  0  0  0  0  0  0  0  0  0
   -0.4433   17.1956  -28.6896 H   0  0  0  0  0  0  0  0  0  0  0  0
    1.2585   16.6206  -28.6896 H   0  0  0  0  0  0  0  0  0  0  0  0
    1.2289   19.2472  -27.0627 H   0  0  0  0  0  0  0  0  0  0  0  0
    2.4624   19.9295  -28.1761 H   0  0  0  0  0  0  0  0  0  0  0  0
    0.7908   20.5870  -28.1761 H   0  0  0  0  0  0  0  0  0  0  0  0
    3.1112   18.5845  -29.3958 H   0  0  0  0  0  0  0  0  0  0  0  0
    2.1257   17.3305  -30.2703 H   0  0  0  0  0  0  0  0  0  0  0  0
    2.2289   20.3040  -30.9683 H   0  0  0  0  0  0  0  0  0  0  0  0
    3.1134   18.9677  -31.8239 H   0  0  0  0  0  0  0  0  0  0  0  0
   -1.4397   21.6411  -33.6700 H   0  0  0  0  0  0  0  0  0  0  0  0
   -3.5510   22.7451  -32.9852 H   0  0  0  0  0  0  0  0  0  0  0  0
  1  2  1  0
  2  3  1  0
  3  4  1  0
  4  5  1  0
  5  6  1  0
  6  7  1  0
  4  8  1  0
  8  9  1  0
  9 10  1  0
 10 11  1  0
 11 12  2  0
 12 13  1  0
 13 14  2  0
 14 15  1  0
 15 16  2  0
 16 17  1  0
 17 18  2  0
 18 19  1  0
 18 20  1  0
 20 21  2  0
 21 22  1  0
 22 23  1  0
 23 24  1  0
 24 25  1  0
 25 26  1  0
 26 27  1  0
 26 28  1  0
 28 29  1  0
 29 30  1  0
 30 31  1  0
 30 32  1  0
 30 33  1  0
 33 34  1  0
 22 35  2  0
 35 36  1  0
 36 37  2  0
 37 11  1  0
 17 12  1  0
 37 20  1  0
 34 26  1  0
  1 38  1  0
  1 39  1  0
  1 40  1  0
  2 41  1  0
  2 42  1  0
  3 43  1  0
  3 44  1  0
  5 45  1  0
  5 46  1  0
  6 47  1  0
  6 48  1  0
  7 49  1  0
  7 50  1  0
  7 51  1  0
  8 52  1  0
  8 53  1  0
  9 54  1  0
  9 55  1  0
 10 56  1  0
 13 57  1  0
 14 58  1  0
 15 59  1  0
 16 60  1  0
 19 61  1  0
 19 62  1  0
 19 63  1  0
 21 64  1  0
 24 65  1  0
 24 66  1  0
 25 67  1  0
 25 68  1  0
 27 69  1  0
 27 70  1  0
 27 71  1  0
 28 72  1  0
 28 73  1  0
 29 74  1  0
 29 75  1  0
 31 76  1  0
 31 77  1  0
 31 78  1  0
 32 79  1  0
 32 80  1  0
 32 81  1  0
 33 82  1  0
 33 83  1  0
 34 84  1  0
 34 85  1  0
 35 86  1  0
 36 87  1  0
M  CHG  3  18   1  26   1  30   1
M  END
>  <UniqueID>  (25) 
25

>  <SMILES>  (25) 
CCCN(CCC)CCNc1c2ccccc2[n+](C)c2cc(OCC[N+]3(C)CC[N+](C)(C)CC3)ccc12

>  <Energy>  (25) 
140.94120120356294

>  <Genealogy>  (25) 
CCCN(CCC)CCNc1c2ccccc2[n+](C)c2cc(OCC[N+]3(C)CC[N+](C)(C)CC3)ccc12 (3D coordinates assigned)
CCCN(CCC)CCNc1c2ccccc2[n+](C)c2cc(OCC[N+]3(C)CC[N+](C)(C)CC3)ccc12 (nonaromatic ring conformer: 140.94120120356294 kcal/mol)

>  <smiles>  (25) 
CCCN(CCC)CCNc1c2ccccc2[n+](C)c2cc(OCC[N+]3(C)CC[N+](C)(C)CC3)ccc12

>  <score_type>  (25) 
oracle

>  <origin>  (25) 
adg

>  <m_score__min__energy>  (25) 
-7.9199999999999999

>  <m_primary>  (25) 
energy

$$$$
25:0
     RDKit          3D

 45 46  0  0  0  0  0  0  0  0999 V2000
   -6.7430   25.0020  -29.7160 C   0  0  0  0  0  0  0  0  0  0  0  0
   -5.8260   25.3940  -30.8640 C   0  0  0  0  0  0  0  0  0  0  0  0
   -5.0490   24.2740  -31.2440 O   0  0  0  0  0  0  0  0  0  0  0  0
   -3.7550   24.4350  -30.8140 N   0  0  0  0  0  0  0  0  0  0  0  0
   -3.4270   23.3560  -29.8790 C   0  0  0  0  0  0  0  0  0  0  0  0
   -2.3280   22.4510  -30.4520 C   0  0  0  0  0  0  0  0  0  0  0  0
   -2.8600   21.2870  -31.3070 C   0  0  0  0  0  0  0  0  0  0  0  0
   -3.1910   21.7130  -32.7510 C   0  0  0  0  0  0  0  0  0  0  0  0
   -4.5670   22.2290  -32.8760 N   0  0  0  0  0  0  0  0  0  0  0  0
   -5.5430   21.1610  -32.9020 C   0  0  0  0  0  0  0  0  0  0  0  0
   -5.1760   19.8860  -33.3700 C   0  0  0  0  0  0  0  0  0  0  0  0
   -6.1010   18.8380  -33.4230 C   0  0  0  0  0  0  0  0  0  0  0  0
   -5.6660   17.5940  -33.9060 O   0  0  0  0  0  0  0  0  0  0  0  0
   -4.7030   17.4240  -34.9400 C   0  0  0  0  0  0  0  0  0  0  0  0
   -7.4230   19.0600  -32.9970 C   0  0  0  0  0  0  0  0  0  0  0  0
   -7.8100   20.3220  -32.5240 C   0  0  0  0  0  0  0  0  0  0  0  0
   -9.1230   20.5580  -32.0960 C   0  0  0  0  0  0  0  0  0  0  0  0
   -9.4850   21.8220  -31.6280 C   0  0  0  0  0  0  0  0  0  0  0  0
   -8.5300   22.8390  -31.5920 C   0  0  0  0  0  0  0  0  0  0  0  0
   -7.2590   22.5980  -32.0100 N   0  0  0  0  0  0  0  0  0  0  0  0
   -6.8710   21.3770  -32.4740 C   0  0  0  0  0  0  0  0  0  0  0  0
   -6.2442   25.2152  -28.7591 H   0  0  0  0  0  0  0  0  0  0  0  0
   -7.6771   25.5795  -29.7793 H   0  0  0  0  0  0  0  0  0  0  0  0
   -6.9710   23.9278  -29.7793 H   0  0  0  0  0  0  0  0  0  0  0  0
   -6.4307   25.7293  -31.7195 H   0  0  0  0  0  0  0  0  0  0  0  0
   -5.1631   26.2115  -30.5441 H   0  0  0  0  0  0  0  0  0  0  0  0
   -3.0470   24.4770  -31.5880 H   0  0  0  0  0  0  0  0  0  0  0  0
   -3.0764   23.7935  -28.9326 H   0  0  0  0  0  0  0  0  0  0  0  0
   -4.3294   22.7500  -29.7107 H   0  0  0  0  0  0  0  0  0  0  0  0
   -1.6650   23.0658  -31.0784 H   0  0  0  0  0  0  0  0  0  0  0  0
   -1.8043   22.0034  -29.5945 H   0  0  0  0  0  0  0  0  0  0  0  0
   -2.0960   20.4963  -31.3396 H   0  0  0  0  0  0  0  0  0  0  0  0
   -3.7922   20.9326  -30.8430 H   0  0  0  0  0  0  0  0  0  0  0  0
   -2.4875   22.5008  -33.0584 H   0  0  0  0  0  0  0  0  0  0  0  0
   -3.1025   20.8253  -33.3946 H   0  0  0  0  0  0  0  0  0  0  0  0
   -4.7680   22.8950  -32.0930 H   0  0  0  0  0  0  0  0  0  0  0  0
   -4.6410   22.7830  -33.7620 H   0  0  0  0  0  0  0  0  0  0  0  0
   -4.1418   19.7098  -33.7006 H   0  0  0  0  0  0  0  0  0  0  0  0
   -3.7129   17.2492  -34.4938 H   0  0  0  0  0  0  0  0  0  0  0  0
   -4.9820   16.5612  -35.5627 H   0  0  0  0  0  0  0  0  0  0  0  0
   -4.6698   18.3302  -35.5627 H   0  0  0  0  0  0  0  0  0  0  0  0
   -8.1559   18.2406  -33.0351 H   0  0  0  0  0  0  0  0  0  0  0  0
   -9.8672   19.7486  -32.1288 H   0  0  0  0  0  0  0  0  0  0  0  0
  -10.5140   22.0150  -31.2905 H   0  0  0  0  0  0  0  0  0  0  0  0
   -8.8064   23.8383  -31.2244 H   0  0  0  0  0  0  0  0  0  0  0  0
  1  2  1  0
  2  3  1  0
  3  4  1  0
  4  5  1  0
  5  6  1  0
  6  7  1  0
  7  8  1  0
  8  9  1  0
  9 10  1  0
 10 11  2  0
 11 12  1  0
 12 13  1  0
 13 14  1  0
 12 15  2  0
 15 16  1  0
 16 17  2  0
 17 18  1  0
 18 19  2  0
 19 20  1  0
 20 21  2  0
 21 10  1  0
 21 16  1  0
  1 22  1  0
  1 23  1  0
  1 24  1  0
  2 25  1  0
  2 26  1  0
  4 27  1  0
  5 28  1  0
  5 29  1  0
  6 30  1  0
  6 31  1  0
  7 32  1  0
  7 33  1  0
  8 34  1  0
  8 35  1  0
  9 36  1  0
  9 37  1  0
 11 38  1  0
 14 39  1  0
 14 40  1  0
 14 41  1  0
 15 42  1  0
 17 43  1  0
 18 44  1  0
 19 45  1  0
M  CHG  1   9   1
M  END
>  <UniqueID>  (26) 
26

>  <SMILES>  (26) 
CCONCCCC[NH2+]c1cc(OC)cc2cccnc12

>  <Energy>  (26) 
46.302303294494656

>  <Genealogy>  (26) 
CCONCCCC[NH2+]c1cc(OC)cc2cccnc12 (protonated)
CCONCCCC[NH2+]c1cc(OC)cc2cccnc12 (3D coordinates assigned)
CCONCCCC[NH2+]c1cc(OC)cc2cccnc12 (optimized conformer: 46.302303294494656 kcal/mol)

>  <smiles>  (26) 
CCONCCCCNc1cc(OC)cc2cccnc12

>  <score_type>  (26) 
oracle

>  <origin>  (26) 
adg

>  <m_score__min__energy>  (26) 
-7.0700000000000003

>  <m_primary>  (26) 
energy

$$$$
26:0
     RDKit          3D

 58 60  0  0  0  0  0  0  0  0999 V2000
   -2.5280   23.9120  -27.3170 C   0  0  0  0  0  0  0  0  0  0  0  0
   -3.8170   23.1730  -27.6340 C   0  0  0  0  0  0  0  0  0  0  0  0
   -4.4000   23.7350  -28.7930 O   0  0  0  0  0  0  0  0  0  0  0  0
   -5.1910   24.7890  -28.4190 N   0  0  0  0  0  0  0  0  0  0  0  0
   -6.2130   24.9860  -29.4530 C   0  0  0  0  0  0  0  0  0  0  0  0
   -5.6010   25.5020  -30.7650 C   0  0  0  0  0  0  0  0  0  0  0  0
   -5.8360   24.5060  -31.9100 C   0  0  0  0  0  0  0  0  0  0  0  0
   -6.4900   23.2030  -31.4280 C   0  0  0  0  0  0  0  0  0  0  0  0
   -5.4880   22.1740  -31.1390 N   0  0  0  0  0  0  0  0  0  0  0  0
   -5.3890   20.9620  -31.9050 C   0  0  0  0  0  0  0  0  0  0  0  0
   -6.5090   20.1180  -32.0010 C   0  0  0  0  0  0  0  0  0  0  0  0
   -7.6630   20.3550  -31.2220 C   0  0  0  0  0  0  0  0  0  0  0  0
   -8.7640   19.5080  -31.3040 C   0  0  0  0  0  0  0  0  0  0  0  0
   -8.7310   18.4040  -32.1470 C   0  0  0  0  0  0  0  0  0  0  0  0
   -7.6070   18.1540  -32.9310 C   0  0  0  0  0  0  0  0  0  0  0  0
   -6.4860   19.0240  -32.9030 C   0  0  0  0  0  0  0  0  0  0  0  0
   -5.3910   18.8290  -33.7210 N   0  0  0  0  0  0  0  0  0  0  0  0
   -5.4800   17.8960  -34.8680 C   0  0  0  0  0  0  0  0  0  0  0  0
   -4.2110   19.5080  -33.4730 C   0  0  0  0  0  0  0  0  0  0  0  0
   -3.0010   19.1260  -34.1000 C   0  0  0  0  0  0  0  0  0  0  0  0
   -1.8220   19.8200  -33.8710 C   0  0  0  0  0  0  0  0  0  0  0  0
   -1.7950   20.8860  -32.9860 C   0  0  0  0  0  0  0  0  0  0  0  0
   -2.9550   21.2730  -32.2940 C   0  0  0  0  0  0  0  0  0  0  0  0
   -2.9050   22.2950  -31.3250 O   0  0  0  0  0  0  0  0  0  0  0  0
   -1.8700   22.5070  -30.3650 C   0  0  0  0  0  0  0  0  0  0  0  0
   -1.6060   21.2350  -29.5650 C   0  0  0  0  0  0  0  0  0  0  0  0
   -4.1860   20.6030  -32.5570 C   0  0  0  0  0  0  0  0  0  0  0  0
   -2.4046   23.9827  -26.2262 H   0  0  0  0  0  0  0  0  0  0  0  0
   -1.6763   23.3650  -27.7476 H   0  0  0  0  0  0  0  0  0  0  0  0
   -2.5697   24.9233  -27.7476 H   0  0  0  0  0  0  0  0  0  0  0  0
   -3.5979   22.1096  -27.8106 H   0  0  0  0  0  0  0  0  0  0  0  0
   -4.5137   23.2638  -26.7877 H   0  0  0  0  0  0  0  0  0  0  0  0
   -5.6630   24.5910  -27.5040 H   0  0  0  0  0  0  0  0  0  0  0  0
   -4.6240   25.6690  -28.3600 H   0  0  0  0  0  0  0  0  0  0  0  0
   -6.7142   24.0261  -29.6465 H   0  0  0  0  0  0  0  0  0  0  0  0
   -6.9289   25.7377  -29.0892 H   0  0  0  0  0  0  0  0  0  0  0  0
   -6.0654   26.4648  -31.0245 H   0  0  0  0  0  0  0  0  0  0  0  0
   -4.5170   25.6234  -30.6226 H   0  0  0  0  0  0  0  0  0  0  0  0
   -6.4927   24.9754  -32.6572 H   0  0  0  0  0  0  0  0  0  0  0  0
   -4.8556   24.2505  -32.3385 H   0  0  0  0  0  0  0  0  0  0  0  0
   -7.0650   23.4089  -30.5131 H   0  0  0  0  0  0  0  0  0  0  0  0
   -7.1467   22.8301  -32.2278 H   0  0  0  0  0  0  0  0  0  0  0  0
   -4.8300   22.3180  -30.3400 H   0  0  0  0  0  0  0  0  0  0  0  0
   -7.6918   21.2194  -30.5424 H   0  0  0  0  0  0  0  0  0  0  0  0
   -9.6610   19.7126  -30.7011 H   0  0  0  0  0  0  0  0  0  0  0  0
   -9.5952   17.7252  -32.1955 H   0  0  0  0  0  0  0  0  0  0  0  0
   -7.5880   17.2678  -33.5824 H   0  0  0  0  0  0  0  0  0  0  0  0
   -5.5783   16.8656  -34.4957 H   0  0  0  0  0  0  0  0  0  0  0  0
   -6.3580   18.1501  -35.4800 H   0  0  0  0  0  0  0  0  0  0  0  0
   -4.5698   17.9795  -35.4800 H   0  0  0  0  0  0  0  0  0  0  0  0
   -2.9954   18.2627  -34.7816 H   0  0  0  0  0  0  0  0  0  0  0  0
   -0.9021   19.5221  -34.3955 H   0  0  0  0  0  0  0  0  0  0  0  0
   -0.8557   21.4349  -32.8236 H   0  0  0  0  0  0  0  0  0  0  0  0
   -0.9482   22.8025  -30.8875 H   0  0  0  0  0  0  0  0  0  0  0  0
   -2.1879   23.3002  -29.6723 H   0  0  0  0  0  0  0  0  0  0  0  0
   -1.6531   21.4618  -28.4897 H   0  0  0  0  0  0  0  0  0  0  0  0
   -2.3667   20.4805  -29.8143 H   0  0  0  0  0  0  0  0  0  0  0  0
   -0.6079   20.8456  -29.8143 H   0  0  0  0  0  0  0  0  0  0  0  0
  1  2  1  0
  2  3  1  0
  3  4  1  0
  4  5  1  0
  5  6  1  0
  6  7  1  0
  7  8  1  0
  8  9  1  0
  9 10  1  0
 10 11  2  0
 11 12  1  0
 12 13  2  0
 13 14  1  0
 14 15  2  0
 15 16  1  0
 16 17  2  0
 17 18  1  0
 17 19  1  0
 19 20  2  0
 20 21  1  0
 21 22  2  0
 22 23  1  0
 23 24  1  0
 24 25  1  0
 25 26  1  0
 23 27  2  0
 27 10  1  0
 16 11  1  0
 27 19  1  0
  1 28  1  0
  1 29  1  0
  1 30  1  0
  2 31  1  0
  2 32  1  0
  4 33  1  0
  4 34  1  0
  5 35  1  0
  5 36  1  0
  6 37  1  0
  6 38  1  0
  7 39  1  0
  7 40  1  0
  8 41  1  0
  8 42  1  0
  9 43  1  0
 12 44  1  0
 13 45  1  0
 14 46  1  0
 15 47  1  0
 18 48  1  0
 18 49  1  0
 18 50  1  0
 20 51  1  0
 21 52  1  0
 22 53  1  0
 25 54  1  0
 25 55  1  0
 26 56  1  0
 26 57  1  0
 26 58  1  0
M  CHG  2   4   1  17   1
M  END
>  <UniqueID>  (27) 
27

>  <SMILES>  (27) 
CCO[NH2+]CCCCNc1c2ccccc2[n+](C)c2cccc(OCC)c12

>  <Energy>  (27) 
78.13219672656953

>  <Genealogy>  (27) 
CCO[NH2+]CCCCNc1c2ccccc2[n+](C)c2cccc(OCC)c12 (protonated)
CCO[NH2+]CCCCNc1c2ccccc2[n+](C)c2cccc(OCC)c12 (3D coordinates assigned)
CCO[NH2+]CCCCNc1c2ccccc2[n+](C)c2cccc(OCC)c12 (optimized conformer: 78.13219672656953 kcal/mol)

>  <smiles>  (27) 
CCONCCCCNc1c2ccccc2[n+](C)c2cccc(OCC)c12

>  <score_type>  (27) 
oracle

>  <origin>  (27) 
adg

>  <m_score__min__energy>  (27) 
-7.9500000000000002

>  <m_primary>  (27) 
energy

$$$$
27:0
     RDKit          3D

 61 63  0  0  0  0  0  0  0  0999 V2000
   -5.7450   18.5340  -34.8570 C   0  0  0  0  0  0  0  0  0  0  0  0
   -4.5080   17.6840  -34.5880 C   0  0  0  0  0  0  0  0  0  0  0  0
   -3.6120   18.3770  -33.6280 N   0  0  0  0  0  0  0  0  0  0  0  0
   -2.5000   17.4970  -33.2290 C   0  0  0  0  0  0  0  0  0  0  0  0
   -3.0860   19.6580  -34.1560 C   0  0  0  0  0  0  0  0  0  0  0  0
   -3.6330   20.8640  -33.3610 C   0  0  0  0  0  0  0  0  0  0  0  0
   -3.8520   20.5350  -31.9390 N   0  0  0  0  0  0  0  0  0  0  0  0
   -5.1080   21.1000  -31.4690 C   0  0  0  0  0  0  0  0  0  0  0  0
   -6.3130   20.3700  -31.5950 C   0  0  0  0  0  0  0  0  0  0  0  0
   -6.3210   18.9560  -31.6260 C   0  0  0  0  0  0  0  0  0  0  0  0
   -7.5190   18.2520  -31.7230 C   0  0  0  0  0  0  0  0  0  0  0  0
   -8.7270   18.9370  -31.7810 C   0  0  0  0  0  0  0  0  0  0  0  0
   -8.7440   20.3300  -31.7660 C   0  0  0  0  0  0  0  0  0  0  0  0
   -7.5400   21.0740  -31.7010 C   0  0  0  0  0  0  0  0  0  0  0  0
   -7.5340   22.4530  -31.7580 N   0  0  0  0  0  0  0  0  0  0  0  0
   -8.7220   23.1770  -32.2590 C   0  0  0  0  0  0  0  0  0  0  0  0
   -6.4210   23.1490  -31.3290 C   0  0  0  0  0  0  0  0  0  0  0  0
   -6.4690   24.5450  -31.0990 C   0  0  0  0  0  0  0  0  0  0  0  0
   -5.3550   25.2350  -30.6370 C   0  0  0  0  0  0  0  0  0  0  0  0
   -4.2000   24.5470  -30.2960 C   0  0  0  0  0  0  0  0  0  0  0  0
   -4.1210   23.1560  -30.4490 C   0  0  0  0  0  0  0  0  0  0  0  0
   -3.0600   22.4530  -29.7590 N   0  0  0  0  0  0  0  0  0  0  0  0
   -1.6850   22.5200  -30.2870 C   0  0  0  0  0  0  0  0  0  0  0  0
   -0.9540   21.1800  -30.1650 C   0  0  0  0  0  0  0  0  0  0  0  0
   -3.3230   21.9650  -28.3910 C   0  0  0  0  0  0  0  0  0  0  0  0
   -3.8520   23.0640  -27.4670 C   0  0  0  0  0  0  0  0  0  0  0  0
   -5.1970   22.4620  -31.0820 C   0  0  0  0  0  0  0  0  0  0  0  0
   -6.1932   18.8420  -33.9009 H   0  0  0  0  0  0  0  0  0  0  0  0
   -5.4584   19.4268  -35.4321 H   0  0  0  0  0  0  0  0  0  0  0  0
   -6.4757   17.9464  -35.4321 H   0  0  0  0  0  0  0  0  0  0  0  0
   -4.8162   16.7166  -34.1648 H   0  0  0  0  0  0  0  0  0  0  0  0
   -3.9685   17.5240  -35.5331 H   0  0  0  0  0  0  0  0  0  0  0  0
   -2.4435   17.4523  -32.1314 H   0  0  0  0  0  0  0  0  0  0  0  0
   -2.6704   16.4865  -33.6289 H   0  0  0  0  0  0  0  0  0  0  0  0
   -1.5557   17.8951  -33.6289 H   0  0  0  0  0  0  0  0  0  0  0  0
   -1.9884   19.6506  -34.0843 H   0  0  0  0  0  0  0  0  0  0  0  0
   -3.4089   19.7590  -35.2027 H   0  0  0  0  0  0  0  0  0  0  0  0
   -2.9100   21.6904  -33.4271 H   0  0  0  0  0  0  0  0  0  0  0  0
   -4.6021   21.1475  -33.7974 H   0  0  0  0  0  0  0  0  0  0  0  0
   -3.8440   19.5000  -31.8090 H   0  0  0  0  0  0  0  0  0  0  0  0
   -3.0440   20.9180  -31.4130 H   0  0  0  0  0  0  0  0  0  0  0  0
   -5.3700   18.4058  -31.5729 H   0  0  0  0  0  0  0  0  0  0  0  0
   -7.5090   17.1525  -31.7537 H   0  0  0  0  0  0  0  0  0  0  0  0
   -9.6724   18.3776  -31.8389 H   0  0  0  0  0  0  0  0  0  0  0  0
   -9.7069   20.8603  -31.8052 H   0  0  0  0  0  0  0  0  0  0  0  0
   -9.3166   23.5394  -31.4075 H   0  0  0  0  0  0  0  0  0  0  0  0
   -8.3992   24.0320  -32.8711 H   0  0  0  0  0  0  0  0  0  0  0  0
   -9.3340   22.4982  -32.8711 H   0  0  0  0  0  0  0  0  0  0  0  0
   -7.4038   25.0926  -31.2892 H   0  0  0  0  0  0  0  0  0  0  0  0
   -5.3892   26.3303  -30.5414 H   0  0  0  0  0  0  0  0  0  0  0  0
   -3.3352   25.0999  -29.9005 H   0  0  0  0  0  0  0  0  0  0  0  0
   -1.7264   22.8059  -31.3484 H   0  0  0  0  0  0  0  0  0  0  0  0
   -1.1309   23.2628  -29.6943 H   0  0  0  0  0  0  0  0  0  0  0  0
   -0.8185   20.9317  -29.1020 H   0  0  0  0  0  0  0  0  0  0  0  0
   -1.5476   20.3927  -30.6527 H   0  0  0  0  0  0  0  0  0  0  0  0
    0.0293   21.2530  -30.6527 H   0  0  0  0  0  0  0  0  0  0  0  0
   -4.0688   21.1580  -28.4419 H   0  0  0  0  0  0  0  0  0  0  0  0
   -2.3691   21.6094  -27.9744 H   0  0  0  0  0  0  0  0  0  0  0  0
   -3.7071   22.7631  -26.4189 H   0  0  0  0  0  0  0  0  0  0  0  0
   -3.3053   23.9990  -27.6589 H   0  0  0  0  0  0  0  0  0  0  0  0
   -4.9238   23.2199  -27.6589 H   0  0  0  0  0  0  0  0  0  0  0  0
  1  2  1  0
  2  3  1  0
  3  4  1  0
  3  5  1  0
  5  6  1  0
  6  7  1  0
  7  8  1  0
  8  9  2  0
  9 10  1  0
 10 11  2  0
 11 12  1  0
 12 13  2  0
 13 14  1  0
 14 15  2  0
 15 16  1  0
 15 17  1  0
 17 18  2  0
 18 19  1  0
 19 20  2  0
 20 21  1  0
 21 22  1  0
 22 23  1  0
 23 24  1  0
 22 25  1  0
 25 26  1  0
 21 27  2  0
 27  8  1  0
 14  9  1  0
 27 17  1  0
  1 28  1  0
  1 29  1  0
  1 30  1  0
  2 31  1  0
  2 32  1  0
  4 33  1  0
  4 34  1  0
  4 35  1  0
  5 36  1  0
  5 37  1  0
  6 38  1  0
  6 39  1  0
  7 40  1  0
  7 41  1  0
 10 42  1  0
 11 43  1  0
 12 44  1  0
 13 45  1  0
 16 46  1  0
 16 47  1  0
 16 48  1  0
 18 49  1  0
 19 50  1  0
 20 51  1  0
 23 52  1  0
 23 53  1  0
 24 54  1  0
 24 55  1  0
 24 56  1  0
 25 57  1  0
 25 58  1  0
 26 59  1  0
 26 60  1  0
 26 61  1  0
M  CHG  2   7   1  15   1
M  END
>  <UniqueID>  (28) 
28

>  <SMILES>  (28) 
CCN(C)CC[NH2+]c1c2ccccc2[n+](C)c2cccc(N(CC)CC)c12

>  <Energy>  (28) 
102.00097681749556

>  <Genealogy>  (28) 
CCN(C)CC[NH2+]c1c2ccccc2[n+](C)c2cccc(N(CC)CC)c12 (protonated)
CCN(C)CC[NH2+]c1c2ccccc2[n+](C)c2cccc(N(CC)CC)c12 (3D coordinates assigned)
CCN(C)CC[NH2+]c1c2ccccc2[n+](C)c2cccc(N(CC)CC)c12 (optimized conformer: 102.00097681749556 kcal/mol)

>  <smiles>  (28) 
CCN(C)CCNc1c2ccccc2[n+](C)c2cccc(N(CC)CC)c12

>  <score_type>  (28) 
oracle

>  <origin>  (28) 
adg

>  <m_score__min__energy>  (28) 
-6.2300000000000004

>  <m_primary>  (28) 
energy

$$$$
28:0
     RDKit          3D

 73 76  0  0  0  0  0  0  0  0999 V2000
   -5.1460   25.1700  -30.4730 C   0  0  0  0  0  0  0  0  0  0  0  0
   -4.1190   24.1300  -30.3200 N   0  0  0  0  0  0  0  0  0  0  0  0
   -3.0410   24.5470  -29.4070 C   0  0  0  0  0  0  0  0  0  0  0  0
   -4.6530   22.7730  -30.0520 C   0  0  0  0  0  0  0  0  0  0  0  0
   -4.1180   21.6340  -30.9510 C   0  0  0  0  0  0  0  0  0  0  0  0
   -3.4670   22.1170  -32.2570 C   0  0  0  0  0  0  0  0  0  0  0  0
   -4.2790   21.8000  -33.4520 N   0  0  0  0  0  0  0  0  0  0  0  0
   -5.3650   20.8710  -33.1560 C   0  0  0  0  0  0  0  0  0  0  0  0
   -6.5910   21.3920  -32.6330 C   0  0  0  0  0  0  0  0  0  0  0  0
   -6.7920   22.7870  -32.4290 C   0  0  0  0  0  0  0  0  0  0  0  0
   -7.9980   23.2840  -31.9460 C   0  0  0  0  0  0  0  0  0  0  0  0
   -9.0420   22.4200  -31.6600 C   0  0  0  0  0  0  0  0  0  0  0  0
   -8.8760   21.0520  -31.8370 C   0  0  0  0  0  0  0  0  0  0  0  0
   -7.6490   20.5080  -32.2970 C   0  0  0  0  0  0  0  0  0  0  0  0
   -7.4860   19.1520  -32.4370 N   0  0  0  0  0  0  0  0  0  0  0  0
   -8.4400   18.2250  -31.7820 C   0  0  0  0  0  0  0  0  0  0  0  0
   -6.4290   18.6500  -33.1640 C   0  0  0  0  0  0  0  0  0  0  0  0
   -6.4750   17.3230  -33.6480 C   0  0  0  0  0  0  0  0  0  0  0  0
   -5.3930   16.7500  -34.2860 C   0  0  0  0  0  0  0  0  0  0  0  0
   -4.2280   17.4680  -34.4470 C   0  0  0  0  0  0  0  0  0  0  0  0
   -4.1340   18.8060  -34.0270 C   0  0  0  0  0  0  0  0  0  0  0  0
   -2.8740   19.4170  -34.1020 O   0  0  0  0  0  0  0  0  0  0  0  0
   -1.6600   18.8390  -33.6090 C   0  0  0  0  0  0  0  0  0  0  0  0
   -1.4380   19.1980  -32.1240 C   0  0  0  0  0  0  0  0  0  0  0  0
   -0.2070   20.0040  -31.8040 N   0  0  0  0  0  0  0  0  0  0  0  0
    0.4800   20.3920  -33.0640 C   0  0  0  0  0  0  0  0  0  0  0  0
    0.7510   19.1590  -31.0220 C   0  0  0  0  0  0  0  0  0  0  0  0
    0.2660   18.8360  -29.5940 C   0  0  0  0  0  0  0  0  0  0  0  0
   -0.0870   20.1100  -28.8260 C   0  0  0  0  0  0  0  0  0  0  0  0
   -1.0540   20.9830  -29.6240 C   0  0  0  0  0  0  0  0  0  0  0  0
   -0.5020   21.2520  -31.0350 C   0  0  0  0  0  0  0  0  0  0  0  0
   -5.2820   19.4620  -33.4480 C   0  0  0  0  0  0  0  0  0  0  0  0
   -5.4781   25.5063  -29.4797 H   0  0  0  0  0  0  0  0  0  0  0  0
   -4.7252   26.0221  -31.0269 H   0  0  0  0  0  0  0  0  0  0  0  0
   -6.0034   24.7600  -31.0269 H   0  0  0  0  0  0  0  0  0  0  0  0
   -3.3722   24.4189  -28.3659 H   0  0  0  0  0  0  0  0  0  0  0  0
   -2.1488   23.9291  -29.5866 H   0  0  0  0  0  0  0  0  0  0  0  0
   -2.7969   25.6044  -29.5866 H   0  0  0  0  0  0  0  0  0  0  0  0
   -4.4115   22.5181  -29.0095 H   0  0  0  0  0  0  0  0  0  0  0  0
   -5.7298   22.8346  -30.2680 H   0  0  0  0  0  0  0  0  0  0  0  0
   -3.3677   21.0672  -30.3803 H   0  0  0  0  0  0  0  0  0  0  0  0
   -4.9861   21.0221  -31.2373 H   0  0  0  0  0  0  0  0  0  0  0  0
   -3.3340   23.2075  -32.2013 H   0  0  0  0  0  0  0  0  0  0  0  0
   -2.5049   21.5941  -32.3613 H   0  0  0  0  0  0  0  0  0  0  0  0
   -4.6790   22.6860  -33.8310 H   0  0  0  0  0  0  0  0  0  0  0  0
   -3.6750   21.5260  -34.2460 H   0  0  0  0  0  0  0  0  0  0  0  0
   -5.9752   23.4872  -32.6585 H   0  0  0  0  0  0  0  0  0  0  0  0
   -8.1229   24.3658  -31.7908 H   0  0  0  0  0  0  0  0  0  0  0  0
  -10.0006   22.8160  -31.2935 H   0  0  0  0  0  0  0  0  0  0  0  0
   -9.7146   20.3755  -31.6155 H   0  0  0  0  0  0  0  0  0  0  0  0
   -8.3473   18.3150  -30.6896 H   0  0  0  0  0  0  0  0  0  0  0  0
   -9.4661   18.4803  -32.0852 H   0  0  0  0  0  0  0  0  0  0  0  0
   -8.2143   17.1920  -32.0852 H   0  0  0  0  0  0  0  0  0  0  0  0
   -7.3937   16.7333  -33.5133 H   0  0  0  0  0  0  0  0  0  0  0  0
   -5.4610   15.7199  -34.6659 H   0  0  0  0  0  0  0  0  0  0  0  0
   -3.3560   16.9854  -34.9125 H   0  0  0  0  0  0  0  0  0  0  0  0
   -1.7158   17.7451  -33.7099 H   0  0  0  0  0  0  0  0  0  0  0  0
   -0.8191   19.2383  -34.1950 H   0  0  0  0  0  0  0  0  0  0  0  0
   -2.3118   19.7739  -31.7852 H   0  0  0  0  0  0  0  0  0  0  0  0
   -1.2975   18.2357  -31.6099 H   0  0  0  0  0  0  0  0  0  0  0  0
    1.4148   20.9199  -32.8244 H   0  0  0  0  0  0  0  0  0  0  0  0
    0.7084   19.4895  -33.6500 H   0  0  0  0  0  0  0  0  0  0  0  0
   -0.1749   21.0536  -33.6500 H   0  0  0  0  0  0  0  0  0  0  0  0
    0.8995   18.2119  -31.5614 H   0  0  0  0  0  0  0  0  0  0  0  0
    1.6829   19.7350  -30.9235 H   0  0  0  0  0  0  0  0  0  0  0  0
   -0.6262   18.1954  -29.6549 H   0  0  0  0  0  0  0  0  0  0  0  0
    1.0783   18.3220  -29.0593 H   0  0  0  0  0  0  0  0  0  0  0  0
   -0.5566   19.8348  -27.8701 H   0  0  0  0  0  0  0  0  0  0  0  0
    0.8372   20.6808  -28.6525 H   0  0  0  0  0  0  0  0  0  0  0  0
   -2.0222   20.4676  -29.7067 H   0  0  0  0  0  0  0  0  0  0  0  0
   -1.1777   21.9435  -29.1024 H   0  0  0  0  0  0  0  0  0  0  0  0
   -1.2453   21.8390  -31.5944 H   0  0  0  0  0  0  0  0  0  0  0  0
    0.4486   21.7923  -30.9148 H   0  0  0  0  0  0  0  0  0  0  0  0
  1  2  1  0
  2  3  1  0
  2  4  1  0
  4  5  1  0
  5  6  1  0
  6  7  1  0
  7  8  1  0
  8  9  2  0
  9 10  1  0
 10 11  2  0
 11 12  1  0
 12 13  2  0
 13 14  1  0
 14 15  2  0
 15 16  1  0
 15 17  1  0
 17 18  2  0
 18 19  1  0
 19 20  2  0
 20 21  1  0
 21 22  1  0
 22 23  1  0
 23 24  1  0
 24 25  1  0
 25 26  1  0
 25 27  1  0
 27 28  1  0
 28 29  1  0
 29 30  1  0
 30 31  1  0
 21 32  2  0
 32  8  1  0
 14  9  1  0
 32 17  1  0
 31 25  1  0
  1 33  1  0
  1 34  1  0
  1 35  1  0
  3 36  1  0
  3 37  1  0
  3 38  1  0
  4 39  1  0
  4 40  1  0
  5 41  1  0
  5 42  1  0
  6 43  1  0
  6 44  1  0
  7 45  1  0
  7 46  1  0
 10 47  1  0
 11 48  1  0
 12 49  1  0
 13 50  1  0
 16 51  1  0
 16 52  1  0
 16 53  1  0
 18 54  1  0
 19 55  1  0
 20 56  1  0
 23 57  1  0
 23 58  1  0
 24 59  1  0
 24 60  1  0
 26 61  1  0
 26 62  1  0
 26 63  1  0
 27 64  1  0
 27 65  1  0
 28 66  1  0
 28 67  1  0
 29 68  1  0
 29 69  1  0
 30 70  1  0
 30 71  1  0
 31 72  1  0
 31 73  1  0
M  CHG  3   7   1  15   1  25   1
M  END
>  <UniqueID>  (29) 
29

>  <SMILES>  (29) 
CN(C)CCC[NH2+]c1c2ccccc2[n+](C)c2cccc(OCC[N+]3(C)CCCCC3)c12

>  <Energy>  (29) 
129.32464017100153

>  <Genealogy>  (29) 
CN(C)CCC[NH2+]c1c2ccccc2[n+](C)c2cccc(OCC[N+]3(C)CCCCC3)c12 (protonated)
CN(C)CCC[NH2+]c1c2ccccc2[n+](C)c2cccc(OCC[N+]3(C)CCCCC3)c12 (3D coordinates assigned)
CN(C)CCC[NH2+]c1c2ccccc2[n+](C)c2cccc(OCC[N+]3(C)CCCCC3)c12 (nonaromatic ring conformer: 129.32464017100153 kcal/mol)

>  <smiles>  (29) 
CN(C)CCCNc1c2ccccc2[n+](C)c2cccc(OCC[N+]3(C)CCCCC3)c12

>  <score_type>  (29) 
oracle

>  <origin>  (29) 
adg

>  <m_score__min__energy>  (29) 
-7.7599999999999998

>  <m_primary>  (29) 
energy

$$$$
