0:0
     RDKit          3D

 55 57  0  0  0  0  0  0  0  0999 V2000
   -2.6720   25.2810  -26.3210 C   0  0  0  0  0  0  0  0  0  0  0  0
   -4.1590   24.9320  -26.3600 C   0  0  0  0  0  0  0  0  0  0  0  0
   -4.5980   24.6600  -27.7390 N   0  0  0  0  0  0  0  0  0  0  0  0
   -3.7490   23.6510  -28.4070 C   0  0  0  0  0  0  0  0  0  0  0  0
   -3.0830   24.1850  -29.6860 C   0  0  0  0  0  0  0  0  0  0  0  0
   -3.8820   25.1690  -30.3150 O   0  0  0  0  0  0  0  0  0  0  0  0
   -5.0270   24.5980  -30.9220 C   0  0  0  0  0  0  0  0  0  0  0  0
   -4.7970   23.1130  -31.2120 C   0  0  0  0  0  0  0  0  0  0  0  0
   -5.4450   22.7120  -32.4620 N   0  0  0  0  0  0  0  0  0  0  0  0
   -5.8380   21.3490  -32.6610 C   0  0  0  0  0  0  0  0  0  0  0  0
   -7.1550   20.9740  -32.4200 C   0  0  0  0  0  0  0  0  0  0  0  0
   -7.5560   19.6720  -32.5560 C   0  0  0  0  0  0  0  0  0  0  0  0
   -6.6860   18.6810  -32.9400 N   0  0  0  0  0  0  0  0  0  0  0  0
   -7.1570   17.2880  -33.0620 C   0  0  0  0  0  0  0  0  0  0  0  0
   -5.3690   19.0100  -33.2150 C   0  0  0  0  0  0  0  0  0  0  0  0
   -4.4310   18.0380  -33.6400 C   0  0  0  0  0  0  0  0  0  0  0  0
   -3.1120   18.3890  -33.9250 C   0  0  0  0  0  0  0  0  0  0  0  0
   -2.6810   19.7110  -33.7920 C   0  0  0  0  0  0  0  0  0  0  0  0
   -1.2730   20.0820  -34.1510 C   0  0  0  0  0  0  0  0  0  0  0  0
   -3.5920   20.6960  -33.3930 C   0  0  0  0  0  0  0  0  0  0  0  0
   -4.9240   20.3620  -33.0820 C   0  0  0  0  0  0  0  0  0  0  0  0
   -8.9980   19.5150  -32.2120 C   0  0  0  0  0  0  0  0  0  0  0  0
   -9.4740   20.9370  -31.8730 C   0  0  0  0  0  0  0  0  0  0  0  0
   -8.2510   21.8620  -31.9560 C   0  0  0  0  0  0  0  0  0  0  0  0
   -2.3409   25.3587  -25.2749 H   0  0  0  0  0  0  0  0  0  0  0  0
   -2.0970   24.4934  -26.8300 H   0  0  0  0  0  0  0  0  0  0  0  0
   -2.5075   26.2422  -26.8300 H   0  0  0  0  0  0  0  0  0  0  0  0
   -4.3358   24.0388  -25.7428 H   0  0  0  0  0  0  0  0  0  0  0  0
   -4.7314   25.7869  -25.9707 H   0  0  0  0  0  0  0  0  0  0  0  0
   -5.5760   24.2870  -27.7040 H   0  0  0  0  0  0  0  0  0  0  0  0
   -4.6150   25.5500  -28.2910 H   0  0  0  0  0  0  0  0  0  0  0  0
   -2.9619   23.3348  -27.7067 H   0  0  0  0  0  0  0  0  0  0  0  0
   -4.3982   22.8118  -28.6973 H   0  0  0  0  0  0  0  0  0  0  0  0
   -2.1106   24.6278  -29.4245 H   0  0  0  0  0  0  0  0  0  0  0  0
   -2.9557   23.3453  -30.3851 H   0  0  0  0  0  0  0  0  0  0  0  0
   -5.8871   24.7054  -30.2447 H   0  0  0  0  0  0  0  0  0  0  0  0
   -5.2233   25.1190  -31.8707 H   0  0  0  0  0  0  0  0  0  0  0  0
   -3.7160   22.9261  -31.2921 H   0  0  0  0  0  0  0  0  0  0  0  0
   -5.2318   22.5257  -30.3898 H   0  0  0  0  0  0  0  0  0  0  0  0
   -5.8740   23.4350  -33.0820 H   0  0  0  0  0  0  0  0  0  0  0  0
   -7.3015   16.8606  -32.0588 H   0  0  0  0  0  0  0  0  0  0  0  0
   -8.1111   17.2701  -33.6091 H   0  0  0  0  0  0  0  0  0  0  0  0
   -6.4095   16.6948  -33.6091 H   0  0  0  0  0  0  0  0  0  0  0  0
   -4.7478   16.9900  -33.7469 H   0  0  0  0  0  0  0  0  0  0  0  0
   -2.4032   17.6165  -34.2581 H   0  0  0  0  0  0  0  0  0  0  0  0
   -0.6887   20.2360  -33.2318 H   0  0  0  0  0  0  0  0  0  0  0  0
   -0.8199   19.2726  -34.7422 H   0  0  0  0  0  0  0  0  0  0  0  0
   -1.2776   21.0096  -34.7422 H   0  0  0  0  0  0  0  0  0  0  0  0
   -3.2634   21.7433  -33.3216 H   0  0  0  0  0  0  0  0  0  0  0  0
   -9.5594   19.1114  -33.0675 H   0  0  0  0  0  0  0  0  0  0  0  0
   -9.1537   18.8137  -31.3790 H   0  0  0  0  0  0  0  0  0  0  0  0
  -10.2391   21.2595  -32.5945 H   0  0  0  0  0  0  0  0  0  0  0  0
   -9.9178   20.9688  -30.8670 H   0  0  0  0  0  0  0  0  0  0  0  0
   -8.4251   22.6757  -32.6754 H   0  0  0  0  0  0  0  0  0  0  0  0
   -8.0229   22.3469  -30.9954 H   0  0  0  0  0  0  0  0  0  0  0  0
  1  2  1  0
  2  3  1  0
  3  4  1  0
  4  5  1  0
  5  6  1  0
  6  7  1  0
  7  8  1  0
  8  9  1  0
  9 10  1  0
 10 11  2  0
 11 12  1  0
 12 13  2  0
 13 14  1  0
 13 15  1  0
 15 16  2  0
 16 17  1  0
 17 18  2  0
 18 19  1  0
 18 20  1  0
 20 21  2  0
 12 22  1  0
 22 23  1  0
 23 24  1  0
 21 10  1  0
 24 11  1  0
 21 15  1  0
  1 25  1  0
  1 26  1  0
  1 27  1  0
  2 28  1  0
  2 29  1  0
  3 30  1  0
  3 31  1  0
  4 32  1  0
  4 33  1  0
  5 34  1  0
  5 35  1  0
  7 36  1  0
  7 37  1  0
  8 38  1  0
  8 39  1  0
  9 40  1  0
 14 41  1  0
 14 42  1  0
 14 43  1  0
 16 44  1  0
 17 45  1  0
 19 46  1  0
 19 47  1  0
 19 48  1  0
 20 49  1  0
 22 50  1  0
 22 51  1  0
 23 52  1  0
 23 53  1  0
 24 54  1  0
 24 55  1  0
M  CHG  2   3   1  13   1
M  END
>  <UniqueID>  (1) 
1

>  <SMILES>  (1) 
CC[NH2+]CCOCCNc1c2c([n+](C)c3ccc(C)cc13)CCC2

>  <Energy>  (1) 
74.67094319929963

>  <Genealogy>  (1) 
CC[NH2+]CCOCCNc1c2c([n+](C)c3ccc(C)cc13)CCC2 (protonated)
CC[NH2+]CCOCCNc1c2c([n+](C)c3ccc(C)cc13)CCC2 (3D coordinates assigned)
CC[NH2+]CCOCCNc1c2c([n+](C)c3ccc(C)cc13)CCC2 (nonaromatic ring conformer: 74.67094319929963 kcal/mol)

>  <smiles>  (1) 
CCNCCOCCNc1c2c([n+](C)c3ccc(C)cc13)CCC2

>  <score_type>  (1) 
oracle

>  <origin>  (1) 
adg

>  <m_score__min__energy>  (1) 
-8.4800000000000004

>  <m_primary>  (1) 
energy

$$$$
1:0
     RDKit          3D

 56 60  0  0  0  0  0  0  0  0999 V2000
   -1.8190   21.9150  -29.6800 C   0  0  0  0  0  0  0  0  0  0  0  0
   -2.9020   22.8980  -29.7370 N   0  0  0  0  0  0  0  0  0  0  0  0
   -4.1540   22.6940  -30.2080 C   0  0  0  0  0  0  0  0  0  0  0  0
   -4.6790   21.2520  -31.1420 S   0  0  0  0  0  0  0  0  0  0  0  0
   -4.1150   21.8550  -32.7780 C   0  0  0  0  0  0  0  0  0  0  0  0
   -3.1780   20.8570  -33.4720 C   0  0  0  0  0  0  0  0  0  0  0  0
   -3.2590   19.4260  -32.9190 C   0  0  0  0  0  0  0  0  0  0  0  0
   -3.8170   18.5010  -33.9410 N   0  0  0  0  0  0  0  0  0  0  0  0
   -4.0540   17.1500  -33.3950 C   0  0  0  0  0  0  0  0  0  0  0  0
   -5.5180   17.0470  -32.9950 C   0  0  2  0  0  0  0  0  0  0  0  0
   -6.5220   16.7630  -34.1020 C   0  0  0  0  0  0  0  0  0  0  0  0
   -6.2090   18.1990  -33.6950 C   0  0  1  0  0  0  0  0  0  0  0  0
   -7.1990   18.9500  -32.8420 C   0  0  0  0  0  0  0  0  0  0  0  0
   -8.1850   18.2510  -32.1320 C   0  0  0  0  0  0  0  0  0  0  0  0
   -9.1090   18.9430  -31.3460 C   0  0  0  0  0  0  0  0  0  0  0  0
   -9.0690   20.3370  -31.2790 C   0  0  0  0  0  0  0  0  0  0  0  0
   -8.1190   21.0590  -32.0220 C   0  0  0  0  0  0  0  0  0  0  0  0
   -8.0520   22.5610  -31.9210 C   0  0  0  0  0  0  0  0  0  0  0  0
   -9.2690   23.0990  -32.2940 F   0  0  0  0  0  0  0  0  0  0  0  0
   -7.7660   22.9520  -30.6230 F   0  0  0  0  0  0  0  0  0  0  0  0
   -7.0620   23.0630  -32.7500 F   0  0  0  0  0  0  0  0  0  0  0  0
   -7.1770   20.3540  -32.7900 C   0  0  0  0  0  0  0  0  0  0  0  0
   -5.1230   18.9490  -34.4550 C   0  0  0  0  0  0  0  0  0  0  0  0
   -5.0040   23.6630  -29.8170 N   0  0  0  0  0  0  0  0  0  0  0  0
   -4.2890   24.5030  -29.0870 N   0  0  0  0  0  0  0  0  0  0  0  0
   -3.0250   24.0470  -29.0330 C   0  0  0  0  0  0  0  0  0  0  0  0
   -1.9750   24.6820  -28.2170 C   0  0  0  0  0  0  0  0  0  0  0  0
   -0.6280   24.6630  -28.6040 C   0  0  0  0  0  0  0  0  0  0  0  0
    0.3000   25.2930  -27.8360 N   0  0  0  0  0  0  0  0  0  0  0  0
   -0.0540   25.9510  -26.7010 C   0  0  0  0  0  0  0  0  0  0  0  0
   -1.3970   25.9950  -26.3260 C   0  0  0  0  0  0  0  0  0  0  0  0
   -2.3260   25.3670  -27.0930 N   0  0  0  0  0  0  0  0  0  0  0  0
   -1.5776   21.6959  -28.6294 H   0  0  0  0  0  0  0  0  0  0  0  0
   -2.1364   20.9901  -30.1839 H   0  0  0  0  0  0  0  0  0  0  0  0
   -0.9291   22.3202  -30.1839 H   0  0  0  0  0  0  0  0  0  0  0  0
   -4.9947   22.0188  -33.4178 H   0  0  0  0  0  0  0  0  0  0  0  0
   -3.5560   22.7890  -32.6194 H   0  0  0  0  0  0  0  0  0  0  0  0
   -3.4355   20.8285  -34.5411 H   0  0  0  0  0  0  0  0  0  0  0  0
   -2.1517   21.2083  -33.2893 H   0  0  0  0  0  0  0  0  0  0  0  0
   -2.2501   19.0890  -32.6388 H   0  0  0  0  0  0  0  0  0  0  0  0
   -3.9193   19.4225  -32.0392 H   0  0  0  0  0  0  0  0  0  0  0  0
   -3.8232   16.3939  -34.1599 H   0  0  0  0  0  0  0  0  0  0  0  0
   -3.4090   16.9757  -32.5212 H   0  0  0  0  0  0  0  0  0  0  0  0
   -5.4120   16.6047  -31.9934 H   0  0  0  0  0  0  0  0  0  0  0  0
   -6.1773   16.3779  -35.0730 H   0  0  0  0  0  0  0  0  0  0  0  0
   -7.4371   16.1588  -34.1888 H   0  0  0  0  0  0  0  0  0  0  0  0
   -8.2311   17.1537  -32.1941 H   0  0  0  0  0  0  0  0  0  0  0  0
   -9.8704   18.3882  -30.7781 H   0  0  0  0  0  0  0  0  0  0  0  0
   -9.7858   20.8740  -30.6404 H   0  0  0  0  0  0  0  0  0  0  0  0
   -6.4138   20.9073  -33.3569 H   0  0  0  0  0  0  0  0  0  0  0  0
   -5.1977   18.7266  -35.5297 H   0  0  0  0  0  0  0  0  0  0  0  0
   -5.2376   20.0340  -34.3148 H   0  0  0  0  0  0  0  0  0  0  0  0
   -4.6710   25.3560  -28.6230 H   0  0  0  0  0  0  0  0  0  0  0  0
   -0.3237   24.1415  -29.5235 H   0  0  0  0  0  0  0  0  0  0  0  0
    0.7112   26.4443  -26.0837 H   0  0  0  0  0  0  0  0  0  0  0  0
   -1.7013   26.5338  -25.4166 H   0  0  0  0  0  0  0  0  0  0  0  0
  1  2  1  0
  2  3  1  0
  3  4  1  0
  4  5  1  0
  5  6  1  0
  6  7  1  0
  7  8  1  0
  8  9  1  0
  9 10  1  0
 10 11  1  0
 11 12  1  0
 12 13  1  1
 13 14  2  0
 14 15  1  0
 15 16  2  0
 16 17  1  0
 17 18  1  0
 18 19  1  0
 18 20  1  0
 18 21  1  0
 17 22  2  0
 12 23  1  0
  3 24  2  0
 24 25  1  0
 25 26  2  0
 26 27  1  0
 27 28  2  0
 28 29  1  0
 29 30  2  0
 30 31  1  0
 31 32  2  0
 26  2  1  0
 32 27  1  0
 23  8  1  0
 12 10  1  0
 22 13  1  0
  1 33  1  0
  1 34  1  0
  1 35  1  0
  5 36  1  0
  5 37  1  0
  6 38  1  0
  6 39  1  0
  7 40  1  0
  7 41  1  0
  9 42  1  0
  9 43  1  0
 10 44  1  1
 11 45  1  0
 11 46  1  0
 14 47  1  0
 15 48  1  0
 16 49  1  0
 22 50  1  0
 23 51  1  0
 23 52  1  0
 25 53  1  0
 28 54  1  0
 30 55  1  0
 31 56  1  0
M  CHG  1  25   1
M  END
>  <UniqueID>  (2) 
2

>  <SMILES>  (2) 
Cn1c(SCCCN2C[C@@H]3C[C@]3(c3cccc(C(F)(F)F)c3)C2)n[nH+]c1-c1cnccn1

>  <Energy>  (2) 
369.7525531998869

>  <Genealogy>  (2) 
Cn1c(SCCCN2CC3CC3(c3cccc(C(F)(F)F)c3)C2)n[nH+]c1-c1cnccn1 (protonated)
Cn1c(SCCCN2C[C@@H]3C[C@]3(c3cccc(C(F)(F)F)c3)C2)n[nH+]c1-c1cnccn1 (chirality)
Cn1c(SCCCN2C[C@@H]3C[C@]3(c3cccc(C(F)(F)F)c3)C2)n[nH+]c1-c1cnccn1 (3D coordinates assigned)
Cn1c(SCCCN2C[C@@H]3C[C@]3(c3cccc(C(F)(F)F)c3)C2)n[nH+]c1-c1cnccn1 (nonaromatic ring conformer: 369.7525531998869 kcal/mol)

>  <smiles>  (2) 
Cn1c(SCCCN2CC3CC3(c3cccc(C(F)(F)F)c3)C2)nnc1-c1cnccn1

>  <score_type>  (2) 
oracle

>  <origin>  (2) 
adg

>  <m_score__min__energy>  (2) 
-9

>  <m_primary>  (2) 
energy

$$$$
2:0
     RDKit          3D

 55 58  0  0  0  0  0  0  0  0999 V2000
   -6.1080   24.5120  -29.9170 C   0  0  0  0  0  0  0  0  0  0  0  0
   -5.2030   25.5120  -30.6160 C   0  0  0  0  0  0  0  0  0  0  0  0
   -3.8440   25.1310  -30.4350 O   0  0  0  0  0  0  0  0  0  0  0  0
   -3.4280   24.2510  -29.4300 C   0  0  0  0  0  0  0  0  0  0  0  0
   -3.5750   24.5870  -28.1170 N   0  0  0  0  0  0  0  0  0  0  0  0
   -3.1670   23.7670  -27.1140 C   0  0  0  0  0  0  0  0  0  0  0  0
   -2.5720   22.5410  -27.4110 C   0  0  0  0  0  0  0  0  0  0  0  0
   -2.4070   22.1680  -28.7450 C   0  0  0  0  0  0  0  0  0  0  0  0
   -2.8450   23.0160  -29.7740 C   0  0  0  0  0  0  0  0  0  0  0  0
   -2.6350   22.6130  -31.2130 C   0  0  0  0  0  0  0  0  0  0  0  0
   -3.7390   21.7490  -31.6790 N   0  0  0  0  0  0  0  0  0  0  0  0
   -3.2170   20.6240  -32.5000 C   0  0  0  0  0  0  0  0  0  0  0  0
   -4.3500   19.8650  -33.1110 C   0  0  0  0  0  0  0  0  0  0  0  0
   -4.3750   18.6320  -33.7290 C   0  0  0  0  0  0  0  0  0  0  0  0
   -5.6210   18.4480  -34.2180 N   0  0  0  0  0  0  0  0  0  0  0  0
   -6.1120   17.2440  -34.8770 C   0  0  0  0  0  0  0  0  0  0  0  0
   -6.3720   19.5040  -33.9340 N   0  0  0  0  0  0  0  0  0  0  0  0
   -5.6030   20.3900  -33.2780 C   0  0  0  0  0  0  0  0  0  0  0  0
   -6.0160   21.7200  -32.7200 C   0  0  1  0  0  0  0  0  0  0  0  0
   -6.8460   21.5300  -31.4400 C   0  0  0  0  0  0  0  0  0  0  0  0
   -8.2050   21.8140  -31.7100 O   0  0  0  0  0  0  0  0  0  0  0  0
   -9.0270   20.7480  -31.2790 C   0  0  0  0  0  0  0  0  0  0  0  0
   -8.8090   19.5150  -32.1660 C   0  0  0  0  0  0  0  0  0  0  0  0
   -9.3700   18.2020  -31.6400 C   0  0  0  0  0  0  0  0  0  0  0  0
   -7.8760   18.4710  -31.5720 C   0  0  0  0  0  0  0  0  0  0  0  0
   -4.7380   22.5500  -32.4350 C   0  0  0  0  0  0  0  0  0  0  0  0
   -6.0062   24.6245  -28.8275 H   0  0  0  0  0  0  0  0  0  0  0  0
   -7.1525   24.6964  -30.2087 H   0  0  0  0  0  0  0  0  0  0  0  0
   -5.8206   23.4910  -30.2087 H   0  0  0  0  0  0  0  0  0  0  0  0
   -5.4384   25.5307  -31.6904 H   0  0  0  0  0  0  0  0  0  0  0  0
   -5.3629   26.5124  -30.1875 H   0  0  0  0  0  0  0  0  0  0  0  0
   -3.3061   24.0703  -26.0658 H   0  0  0  0  0  0  0  0  0  0  0  0
   -2.2365   21.8754  -26.6020 H   0  0  0  0  0  0  0  0  0  0  0  0
   -1.9323   21.2067  -28.9911 H   0  0  0  0  0  0  0  0  0  0  0  0
   -2.5946   23.5166  -31.8390 H   0  0  0  0  0  0  0  0  0  0  0  0
   -1.6911   22.0535  -31.2897 H   0  0  0  0  0  0  0  0  0  0  0  0
   -2.5745   21.0238  -33.2983 H   0  0  0  0  0  0  0  0  0  0  0  0
   -2.6364   19.9474  -31.8557 H   0  0  0  0  0  0  0  0  0  0  0  0
   -3.5341   17.9273  -33.8091 H   0  0  0  0  0  0  0  0  0  0  0  0
   -6.4125   16.5070  -34.1177 H   0  0  0  0  0  0  0  0  0  0  0  0
   -6.9786   17.4974  -35.5053 H   0  0  0  0  0  0  0  0  0  0  0  0
   -5.3153   16.8191  -35.5053 H   0  0  0  0  0  0  0  0  0  0  0  0
   -7.3820   19.6100  -34.1790 H   0  0  0  0  0  0  0  0  0  0  0  0
   -6.6464   22.2546  -33.4458 H   0  0  0  0  0  0  0  0  0  0  0  0
   -6.7511   20.4905  -31.0929 H   0  0  0  0  0  0  0  0  0  0  0  0
   -6.4776   22.2132  -30.6606 H   0  0  0  0  0  0  0  0  0  0  0  0
   -8.7770   20.4950  -30.2381 H   0  0  0  0  0  0  0  0  0  0  0  0
  -10.0802   21.0574  -31.3491 H   0  0  0  0  0  0  0  0  0  0  0  0
   -8.8836   20.0566  -33.1205 H   0  0  0  0  0  0  0  0  0  0  0  0
   -9.9692   18.1902  -30.7176 H   0  0  0  0  0  0  0  0  0  0  0  0
   -9.9978   17.4014  -32.0582 H   0  0  0  0  0  0  0  0  0  0  0  0
   -7.3939   18.6537  -30.6003 H   0  0  0  0  0  0  0  0  0  0  0  0
   -6.9747   17.9454  -31.9206 H   0  0  0  0  0  0  0  0  0  0  0  0
   -4.2952   22.8679  -33.3904 H   0  0  0  0  0  0  0  0  0  0  0  0
   -5.0165   23.4247  -31.8289 H   0  0  0  0  0  0  0  0  0  0  0  0
  1  2  1  0
  2  3  1  0
  3  4  1  0
  4  5  2  0
  5  6  1  0
  6  7  2  0
  7  8  1  0
  8  9  2  0
  9 10  1  0
 10 11  1  0
 11 12  1  0
 12 13  1  0
 13 14  2  0
 14 15  1  0
 15 16  1  0
 15 17  1  0
 17 18  2  0
 18 19  1  0
 19 20  1  0
 20 21  1  0
 21 22  1  0
 22 23  1  0
 23 24  1  0
 24 25  1  0
 19 26  1  0
  9  4  1  0
 26 11  1  0
 18 13  1  0
 25 23  1  0
  1 27  1  0
  1 28  1  0
  1 29  1  0
  2 30  1  0
  2 31  1  0
  6 32  1  0
  7 33  1  0
  8 34  1  0
 10 35  1  0
 10 36  1  0
 12 37  1  0
 12 38  1  0
 14 39  1  0
 16 40  1  0
 16 41  1  0
 16 42  1  0
 17 43  1  0
 19 44  1  6
 20 45  1  0
 20 46  1  0
 22 47  1  0
 22 48  1  0
 23 49  1  0
 24 50  1  0
 24 51  1  0
 25 52  1  0
 25 53  1  0
 26 54  1  0
 26 55  1  0
M  CHG  1  17   1
M  END
>  <UniqueID>  (3) 
3

>  <SMILES>  (3) 
CCOc1ncccc1CN1Cc2cn(C)[nH+]c2[C@@H](COCC2CC2)C1

>  <Energy>  (3) 
350.41426104254407

>  <Genealogy>  (3) 
CCOc1ncccc1CN1Cc2cn(C)[nH+]c2C(COCC2CC2)C1 (protonated)
CCOc1ncccc1CN1Cc2cn(C)[nH+]c2[C@@H](COCC2CC2)C1 (chirality)
CCOc1ncccc1CN1Cc2cn(C)[nH+]c2[C@@H](COCC2CC2)C1 (3D coordinates assigned)
CCOc1ncccc1CN1Cc2cn(C)[nH+]c2[C@@H](COCC2CC2)C1 (nonaromatic ring conformer: 350.41426104254407 kcal/mol)

>  <smiles>  (3) 
CCOc1ncccc1CN1Cc2cn(C)nc2C(COCC2CC2)C1

>  <score_type>  (3) 
oracle

>  <origin>  (3) 
adg

>  <m_score__min__energy>  (3) 
-8.2300000000000004

>  <m_primary>  (3) 
energy

$$$$
3:0
     RDKit          3D

 29 30  0  0  0  0  0  0  0  0999 V2000
   -4.7540   23.4910  -28.9990 C   0  0  0  0  0  0  0  0  0  0  0  0
   -5.3360   24.8980  -29.0540 C   0  0  0  0  0  0  0  0  0  0  0  0
   -6.8800   24.9290  -30.0300 S   0  0  0  0  0  0  0  0  0  0  0  0
   -6.3670   23.6370  -31.1680 C   0  0  0  0  0  0  0  0  0  0  0  0
   -5.3910   23.8020  -32.0830 N   0  0  0  0  0  0  0  0  0  0  0  0
   -5.2960   22.6510  -32.7280 N   0  0  0  0  0  0  0  0  0  0  0  0
   -6.1960   21.7960  -32.2060 C   0  0  0  0  0  0  0  0  0  0  0  0
   -6.3600   20.4000  -32.6650 C   0  0  0  0  0  0  0  0  0  0  0  0
   -7.4650   19.6300  -32.2630 C   0  0  0  0  0  0  0  0  0  0  0  0
   -7.5960   18.3060  -32.6920 C   0  0  0  0  0  0  0  0  0  0  0  0
   -6.6230   17.7350  -33.5170 C   0  0  0  0  0  0  0  0  0  0  0  0
   -6.8040   15.9260  -34.0990 Br  0  0  0  0  0  0  0  0  0  0  0  0
   -5.5110   18.4880  -33.9060 C   0  0  0  0  0  0  0  0  0  0  0  0
   -5.3760   19.8130  -33.4790 C   0  0  0  0  0  0  0  0  0  0  0  0
   -6.9060   22.4010  -31.2270 N   0  0  0  0  0  0  0  0  0  0  0  0
   -7.9970   21.8660  -30.4130 C   0  0  0  0  0  0  0  0  0  0  0  0
   -4.6283   23.1870  -27.9493 H   0  0  0  0  0  0  0  0  0  0  0  0
   -5.4367   22.7918  -29.5040 H   0  0  0  0  0  0  0  0  0  0  0  0
   -3.7768   23.4784  -29.5040 H   0  0  0  0  0  0  0  0  0  0  0  0
   -5.5504   25.2390  -28.0304 H   0  0  0  0  0  0  0  0  0  0  0  0
   -4.6032   25.5622  -29.5355 H   0  0  0  0  0  0  0  0  0  0  0  0
   -4.6130   22.4580  -33.4940 H   0  0  0  0  0  0  0  0  0  0  0  0
   -8.2304   20.0713  -31.6077 H   0  0  0  0  0  0  0  0  0  0  0  0
   -8.4674   17.7119  -32.3794 H   0  0  0  0  0  0  0  0  0  0  0  0
   -4.7407   18.0374  -34.5492 H   0  0  0  0  0  0  0  0  0  0  0  0
   -4.4954   20.3986  -33.7817 H   0  0  0  0  0  0  0  0  0  0  0  0
   -7.7523   21.9860  -29.3473 H   0  0  0  0  0  0  0  0  0  0  0  0
   -8.9251   22.4112  -30.6397 H   0  0  0  0  0  0  0  0  0  0  0  0
   -8.1342   20.7984  -30.6397 H   0  0  0  0  0  0  0  0  0  0  0  0
  1  2  1  0
  2  3  1  0
  3  4  1  0
  4  5  2  0
  5  6  1  0
  6  7  2  0
  7  8  1  0
  8  9  2  0
  9 10  1  0
 10 11  2  0
 11 12  1  0
 11 13  1  0
 13 14  2  0
  7 15  1  0
 15 16  1  0
 15  4  1  0
 14  8  1  0
  1 17  1  0
  1 18  1  0
  1 19  1  0
  2 20  1  0
  2 21  1  0
  6 22  1  0
  9 23  1  0
 10 24  1  0
 13 25  1  0
 14 26  1  0
 16 27  1  0
 16 28  1  0
 16 29  1  0
M  CHG  1   6   1
M  END
>  <UniqueID>  (4) 
4

>  <SMILES>  (4) 
CCSc1n[nH+]c(-c2ccc(Br)cc2)n1C

>  <Energy>  (4) 
62.45591245070166

>  <Genealogy>  (4) 
CCSc1n[nH+]c(-c2ccc(Br)cc2)n1C (protonated)
CCSc1n[nH+]c(-c2ccc(Br)cc2)n1C (3D coordinates assigned)
CCSc1n[nH+]c(-c2ccc(Br)cc2)n1C (optimized conformer: 62.45591245070166 kcal/mol)

>  <smiles>  (4) 
CCSc1nnc(-c2ccc(Br)cc2)n1C

>  <score_type>  (4) 
oracle

>  <origin>  (4) 
adg

>  <m_score__min__energy>  (4) 
-6.4100000000000001

>  <m_primary>  (4) 
energy

$$$$
4:0
     RDKit          3D

 70 72  0  0  0  0  0  0  0  0999 V2000
   -2.1340   19.6800  -26.6530 C   0  0  0  0  0  0  0  0  0  0  0  0
   -1.0920   20.3510  -27.5420 C   0  0  0  0  0  0  0  0  0  0  0  0
   -0.6560   21.5580  -26.9440 O   0  0  0  0  0  0  0  0  0  0  0  0
    0.2650   22.2280  -27.7840 C   0  0  0  0  0  0  0  0  0  0  0  0
    0.3540   23.7040  -27.3730 C   0  0  0  0  0  0  0  0  0  0  0  0
   -0.1100   24.5710  -28.3900 O   0  0  0  0  0  0  0  0  0  0  0  0
   -1.2430   25.3100  -27.9710 C   0  0  0  0  0  0  0  0  0  0  0  0
   -2.5070   24.5720  -28.3930 C   0  0  0  0  0  0  0  0  0  0  0  0
   -2.8130   24.9180  -29.7250 O   0  0  0  0  0  0  0  0  0  0  0  0
   -3.4790   23.8440  -30.3540 C   0  0  0  0  0  0  0  0  0  0  0  0
   -3.3130   22.5710  -29.5200 C   0  0  0  0  0  0  0  0  0  0  0  0
   -2.4700   21.5740  -30.2280 N   0  0  0  0  0  0  0  0  0  0  0  0
   -1.2450   22.2130  -30.7670 C   0  0  0  0  0  0  0  0  0  0  0  0
   -0.1960   21.1480  -31.0760 C   0  0  0  0  0  0  0  0  0  0  0  0
   -3.2370   20.8740  -31.2860 C   0  0  0  0  0  0  0  0  0  0  0  0
   -3.0320   21.5030  -32.6770 C   0  0  0  0  0  0  0  0  0  0  0  0
   -4.2740   21.5150  -33.4570 N   0  0  0  0  0  0  0  0  0  0  0  0
   -5.4140   20.7270  -33.0740 C   0  0  0  0  0  0  0  0  0  0  0  0
   -5.5110   19.3690  -33.4390 C   0  0  0  0  0  0  0  0  0  0  0  0
   -4.4380   18.7120  -34.0780 C   0  0  0  0  0  0  0  0  0  0  0  0
   -4.5260   17.3630  -34.4120 C   0  0  0  0  0  0  0  0  0  0  0  0
   -5.6690   16.6400  -34.0950 C   0  0  0  0  0  0  0  0  0  0  0  0
   -6.7360   17.2610  -33.4480 C   0  0  0  0  0  0  0  0  0  0  0  0
   -6.6890   18.6410  -33.1180 C   0  0  0  0  0  0  0  0  0  0  0  0
   -7.7360   19.2660  -32.4670 N   0  0  0  0  0  0  0  0  0  0  0  0
   -9.0520   18.5940  -32.3660 C   0  0  0  0  0  0  0  0  0  0  0  0
   -7.5520   20.5180  -31.9110 C   0  0  0  0  0  0  0  0  0  0  0  0
   -8.4740   21.0640  -30.9810 C   0  0  0  0  0  0  0  0  0  0  0  0
   -8.2960   22.3460  -30.4590 C   0  0  0  0  0  0  0  0  0  0  0  0
   -7.2010   23.1110  -30.8410 C   0  0  0  0  0  0  0  0  0  0  0  0
   -6.2600   22.5910  -31.7300 C   0  0  0  0  0  0  0  0  0  0  0  0
   -6.4030   21.2860  -32.2460 C   0  0  0  0  0  0  0  0  0  0  0  0
   -1.8763   19.8460  -25.5966 H   0  0  0  0  0  0  0  0  0  0  0  0
   -3.1249   20.1102  -26.8606 H   0  0  0  0  0  0  0  0  0  0  0  0
   -2.1523   18.5999  -26.8606 H   0  0  0  0  0  0  0  0  0  0  0  0
   -0.2329   19.6762  -27.6706 H   0  0  0  0  0  0  0  0  0  0  0  0
   -1.5397   20.5726  -28.5220 H   0  0  0  0  0  0  0  0  0  0  0  0
    1.2560   21.7604  -27.6878 H   0  0  0  0  0  0  0  0  0  0  0  0
   -0.0741   22.1584  -28.8281 H   0  0  0  0  0  0  0  0  0  0  0  0
   -0.2561   23.8579  -26.4708 H   0  0  0  0  0  0  0  0  0  0  0  0
    1.4121   23.9391  -27.1857 H   0  0  0  0  0  0  0  0  0  0  0  0
   -1.2279   25.4174  -26.8764 H   0  0  0  0  0  0  0  0  0  0  0  0
   -1.2255   26.3074  -28.4345 H   0  0  0  0  0  0  0  0  0  0  0  0
   -2.3425   23.4867  -28.3216 H   0  0  0  0  0  0  0  0  0  0  0  0
   -3.3412   24.8529  -27.7333 H   0  0  0  0  0  0  0  0  0  0  0  0
   -4.5488   24.0823  -30.4477 H   0  0  0  0  0  0  0  0  0  0  0  0
   -3.0463   23.6831  -31.3524 H   0  0  0  0  0  0  0  0  0  0  0  0
   -2.8371   22.8285  -28.5623 H   0  0  0  0  0  0  0  0  0  0  0  0
   -4.3072   22.1314  -29.3519 H   0  0  0  0  0  0  0  0  0  0  0  0
   -1.4938   22.7583  -31.6894 H   0  0  0  0  0  0  0  0  0  0  0  0
   -0.8421   22.9117  -30.0190 H   0  0  0  0  0  0  0  0  0  0  0  0
    0.2033   20.7426  -30.1346 H   0  0  0  0  0  0  0  0  0  0  0  0
   -0.6576   20.3367  -31.6580 H   0  0  0  0  0  0  0  0  0  0  0  0
    0.6222   21.5972  -31.6580 H   0  0  0  0  0  0  0  0  0  0  0  0
   -2.9109   19.8241  -31.3221 H   0  0  0  0  0  0  0  0  0  0  0  0
   -4.3048   20.9574  -31.0355 H   0  0  0  0  0  0  0  0  0  0  0  0
   -2.6801   22.5376  -32.5517 H   0  0  0  0  0  0  0  0  0  0  0  0
   -2.2922   20.8972  -33.2208 H   0  0  0  0  0  0  0  0  0  0  0  0
   -4.3820   22.1790  -34.2580 H   0  0  0  0  0  0  0  0  0  0  0  0
   -3.5214   19.2720  -34.3150 H   0  0  0  0  0  0  0  0  0  0  0  0
   -3.6892   16.8692  -34.9276 H   0  0  0  0  0  0  0  0  0  0  0  0
   -5.7323   15.5732  -34.3556 H   0  0  0  0  0  0  0  0  0  0  0  0
   -7.6286   16.6726  -33.1890 H   0  0  0  0  0  0  0  0  0  0  0  0
   -9.3148   18.4598  -31.3063 H   0  0  0  0  0  0  0  0  0  0  0  0
   -9.8177   19.2114  -32.8583 H   0  0  0  0  0  0  0  0  0  0  0  0
   -9.0008   17.6117  -32.8583 H   0  0  0  0  0  0  0  0  0  0  0  0
   -9.3429   20.4673  -30.6664 H   0  0  0  0  0  0  0  0  0  0  0  0
   -9.0252   22.7522  -29.7426 H   0  0  0  0  0  0  0  0  0  0  0  0
   -7.0758   24.1283  -30.4418 H   0  0  0  0  0  0  0  0  0  0  0  0
   -5.3982   23.2046  -32.0315 H   0  0  0  0  0  0  0  0  0  0  0  0
  1  2  1  0
  2  3  1  0
  3  4  1  0
  4  5  1  0
  5  6  1  0
  6  7  1  0
  7  8  1  0
  8  9  1  0
  9 10  1  0
 10 11  1  0
 11 12  1  0
 12 13  1  0
 13 14  1  0
 12 15  1  0
 15 16  1  0
 16 17  1  0
 17 18  1  0
 18 19  2  0
 19 20  1  0
 20 21  2  0
 21 22  1  0
 22 23  2  0
 23 24  1  0
 24 25  2  0
 25 26  1  0
 25 27  1  0
 27 28  2  0
 28 29  1  0
 29 30  2  0
 30 31  1  0
 31 32  2  0
 32 18  1  0
 24 19  1  0
 32 27  1  0
  1 33  1  0
  1 34  1  0
  1 35  1  0
  2 36  1  0
  2 37  1  0
  4 38  1  0
  4 39  1  0
  5 40  1  0
  5 41  1  0
  7 42  1  0
  7 43  1  0
  8 44  1  0
  8 45  1  0
 10 46  1  0
 10 47  1  0
 11 48  1  0
 11 49  1  0
 13 50  1  0
 13 51  1  0
 14 52  1  0
 14 53  1  0
 14 54  1  0
 15 55  1  0
 15 56  1  0
 16 57  1  0
 16 58  1  0
 17 59  1  0
 20 60  1  0
 21 61  1  0
 22 62  1  0
 23 63  1  0
 26 64  1  0
 26 65  1  0
 26 66  1  0
 28 67  1  0
 29 68  1  0
 30 69  1  0
 31 70  1  0
M  CHG  1  25   1
M  END
>  <UniqueID>  (5) 
5

>  <SMILES>  (5) 
CCOCCOCCOCCN(CC)CCNc1c2ccccc2[n+](C)c2ccccc12

>  <Energy>  (5) 
94.33822752228458

>  <Genealogy>  (5) 
CCOCCOCCOCCN(CC)CCNc1c2ccccc2[n+](C)c2ccccc12 (3D coordinates assigned)
CCOCCOCCOCCN(CC)CCNc1c2ccccc2[n+](C)c2ccccc12 (optimized conformer: 94.33822752228458 kcal/mol)

>  <smiles>  (5) 
CCOCCOCCOCCN(CC)CCNc1c2ccccc2[n+](C)c2ccccc12

>  <score_type>  (5) 
oracle

>  <origin>  (5) 
adg

>  <m_score__min__energy>  (5) 
-9.9100000000000001

>  <m_primary>  (5) 
energy

$$$$
5:0
     RDKit          3D

 37 39  0  0  0  0  0  0  0  0999 V2000
   -5.5180   16.1380  -32.7770 C   0  0  0  0  0  0  0  0  0  0  0  0
   -6.2380   16.4120  -34.0930 C   0  0  0  0  0  0  0  0  0  0  0  0
   -6.0120   17.7530  -34.5250 O   0  0  0  0  0  0  0  0  0  0  0  0
   -6.1410   18.9030  -33.7280 C   0  0  0  0  0  0  0  0  0  0  0  0
   -5.1060   19.8450  -33.5750 C   0  0  0  0  0  0  0  0  0  0  0  0
   -5.2870   20.9730  -32.7700 C   0  0  0  0  0  0  0  0  0  0  0  0
   -6.5080   21.1820  -32.1060 C   0  0  0  0  0  0  0  0  0  0  0  0
   -6.7440   22.3020  -31.2840 C   0  0  0  0  0  0  0  0  0  0  0  0
   -5.7450   23.3070  -31.0660 N   0  0  0  0  0  0  0  0  0  0  0  0
   -6.0020   24.6900  -31.4690 C   0  0  0  0  0  0  0  0  0  0  0  0
   -5.2340   25.6430  -30.5480 C   0  0  0  0  0  0  0  0  0  0  0  0
   -3.8690   25.2760  -30.4720 O   0  0  0  0  0  0  0  0  0  0  0  0
   -3.7450   24.0120  -29.8460 C   0  0  0  0  0  0  0  0  0  0  0  0
   -4.3820   22.9150  -30.7040 C   0  0  0  0  0  0  0  0  0  0  0  0
   -7.9870   22.4370  -30.6610 C   0  0  0  0  0  0  0  0  0  0  0  0
   -8.9650   21.4610  -30.8680 C   0  0  0  0  0  0  0  0  0  0  0  0
  -10.0890   21.5710  -30.3130 O   0  0  0  0  0  0  0  0  0  0  0  0
   -8.7160   20.4150  -31.6490 O   0  0  0  0  0  0  0  0  0  0  0  0
   -7.5500   20.2400  -32.2640 C   0  0  0  0  0  0  0  0  0  0  0  0
   -7.3590   19.1140  -33.0710 C   0  0  0  0  0  0  0  0  0  0  0  0
   -6.1814   16.3904  -31.9366 H   0  0  0  0  0  0  0  0  0  0  0  0
   -5.2461   15.0735  -32.7225 H   0  0  0  0  0  0  0  0  0  0  0  0
   -4.6072   16.7524  -32.7225 H   0  0  0  0  0  0  0  0  0  0  0  0
   -5.8636   15.7181  -34.8601 H   0  0  0  0  0  0  0  0  0  0  0  0
   -7.3178   16.2681  -33.9405 H   0  0  0  0  0  0  0  0  0  0  0  0
   -4.1477   19.6920  -34.0929 H   0  0  0  0  0  0  0  0  0  0  0  0
   -4.4700   21.7007  -32.6555 H   0  0  0  0  0  0  0  0  0  0  0  0
   -5.6698   24.8368  -32.5073 H   0  0  0  0  0  0  0  0  0  0  0  0
   -7.0795   24.8986  -31.3950 H   0  0  0  0  0  0  0  0  0  0  0  0
   -5.3109   26.6667  -30.9431 H   0  0  0  0  0  0  0  0  0  0  0  0
   -5.6709   25.5883  -29.5400 H   0  0  0  0  0  0  0  0  0  0  0  0
   -2.6786   23.7838  -29.7024 H   0  0  0  0  0  0  0  0  0  0  0  0
   -4.2633   24.0466  -28.8764 H   0  0  0  0  0  0  0  0  0  0  0  0
   -3.7867   22.7725  -31.6179 H   0  0  0  0  0  0  0  0  0  0  0  0
   -4.4106   21.9746  -30.1341 H   0  0  0  0  0  0  0  0  0  0  0  0
   -8.1936   23.3025  -30.0143 H   0  0  0  0  0  0  0  0  0  0  0  0
   -8.1749   18.3860  -33.1909 H   0  0  0  0  0  0  0  0  0  0  0  0
  1  2  1  0
  2  3  1  0
  3  4  1  0
  4  5  2  0
  5  6  1  0
  6  7  2  0
  7  8  1  0
  8  9  1  0
  9 10  1  0
 10 11  1  0
 11 12  1  0
 12 13  1  0
 13 14  1  0
  8 15  2  0
 15 16  1  0
 16 17  2  0
 16 18  1  0
 18 19  1  0
 19 20  2  0
 20  4  1  0
 19  7  1  0
 14  9  1  0
  1 21  1  0
  1 22  1  0
  1 23  1  0
  2 24  1  0
  2 25  1  0
  5 26  1  0
  6 27  1  0
 10 28  1  0
 10 29  1  0
 11 30  1  0
 11 31  1  0
 13 32  1  0
 13 33  1  0
 14 34  1  0
 14 35  1  0
 15 36  1  0
 20 37  1  0
M  END
>  <UniqueID>  (6) 
6

>  <SMILES>  (6) 
CCOc1ccc2c(N3CCOCC3)cc(=O)oc2c1

>  <Energy>  (6) 
47.99436981221883

>  <Genealogy>  (6) 
CCOc1ccc2c(N3CCOCC3)cc(=O)oc2c1 (3D coordinates assigned)
CCOc1ccc2c(N3CCOCC3)cc(=O)oc2c1 (nonaromatic ring conformer: 47.99436981221883 kcal/mol)

>  <smiles>  (6) 
CCOc1ccc2c(N3CCOCC3)cc(=O)oc2c1

>  <score_type>  (6) 
oracle

>  <origin>  (6) 
adg

>  <m_score__min__energy>  (6) 
-7.4000000000000004

>  <m_primary>  (6) 
energy

$$$$
6:0
     RDKit          3D

 41 43  0  0  0  0  0  0  0  0999 V2000
   -6.4640   17.3710  -34.1640 C   0  0  0  0  0  0  0  0  0  0  0  0
   -5.4260   18.4760  -34.3780 C   0  0  0  0  0  0  0  0  0  0  0  0
   -4.4390   18.5600  -33.2710 N   0  0  1  0  0  0  0  0  0  0  0  0
   -3.9680   17.1990  -32.9510 C   0  0  0  0  0  0  0  0  0  0  0  0
   -3.2810   19.4400  -33.6070 C   0  0  0  0  0  0  0  0  0  0  0  0
   -3.4660   20.8880  -33.1080 C   0  0  0  0  0  0  0  0  0  0  0  0
   -4.1820   20.9480  -31.8290 N   0  0  0  0  0  0  0  0  0  0  0  0
   -5.2010   21.9230  -31.5360 C   0  0  0  0  0  0  0  0  0  0  0  0
   -6.5810   21.6330  -31.7340 C   0  0  0  0  0  0  0  0  0  0  0  0
   -7.0100   20.3960  -32.2540 C   0  0  0  0  0  0  0  0  0  0  0  0
   -8.3710   20.1250  -32.4150 C   0  0  0  0  0  0  0  0  0  0  0  0
   -9.3270   21.0780  -32.0650 C   0  0  0  0  0  0  0  0  0  0  0  0
   -8.9340   22.3130  -31.5490 C   0  0  0  0  0  0  0  0  0  0  0  0
   -7.5720   22.6070  -31.3760 C   0  0  0  0  0  0  0  0  0  0  0  0
   -7.1860   23.8560  -30.8530 C   0  0  0  0  0  0  0  0  0  0  0  0
   -5.8300   24.1120  -30.7100 C   0  0  0  0  0  0  0  0  0  0  0  0
   -5.1800   25.2480  -30.2900 C   0  0  0  0  0  0  0  0  0  0  0  0
   -3.8810   25.0400  -30.3770 O   0  0  0  0  0  0  0  0  0  0  0  0
   -3.6580   23.8220  -30.8340 C   0  0  0  0  0  0  0  0  0  0  0  0
   -4.8710   23.1940  -31.0410 C   0  0  0  0  0  0  0  0  0  0  0  0
   -6.6133   17.2120  -33.0858 H   0  0  0  0  0  0  0  0  0  0  0  0
   -7.4168   17.6685  -34.6262 H   0  0  0  0  0  0  0  0  0  0  0  0
   -6.1076   16.4386  -34.6262 H   0  0  0  0  0  0  0  0  0  0  0  0
   -4.8867   18.2750  -35.3154 H   0  0  0  0  0  0  0  0  0  0  0  0
   -5.9648   19.4343  -34.4151 H   0  0  0  0  0  0  0  0  0  0  0  0
   -4.9350   18.9140  -32.4200 H   0  0  0  0  0  0  0  0  0  0  0  0
   -3.9245   17.0733  -31.8591 H   0  0  0  0  0  0  0  0  0  0  0  0
   -4.6629   16.4607  -33.3777 H   0  0  0  0  0  0  0  0  0  0  0  0
   -2.9654   17.0482  -33.3777 H   0  0  0  0  0  0  0  0  0  0  0  0
   -2.3754   19.0215  -33.1435 H   0  0  0  0  0  0  0  0  0  0  0  0
   -3.1991   19.4754  -34.7034 H   0  0  0  0  0  0  0  0  0  0  0  0
   -2.4749   21.3478  -32.9806 H   0  0  0  0  0  0  0  0  0  0  0  0
   -4.0658   21.4279  -33.8555 H   0  0  0  0  0  0  0  0  0  0  0  0
   -3.8410   20.3360  -31.0540 H   0  0  0  0  0  0  0  0  0  0  0  0
   -6.2662   19.6362  -32.5360 H   0  0  0  0  0  0  0  0  0  0  0  0
   -8.6906   19.1537  -32.8204 H   0  0  0  0  0  0  0  0  0  0  0  0
  -10.3961   20.8548  -32.1964 H   0  0  0  0  0  0  0  0  0  0  0  0
   -9.6944   23.0597  -31.2765 H   0  0  0  0  0  0  0  0  0  0  0  0
   -7.9373   24.6065  -30.5663 H   0  0  0  0  0  0  0  0  0  0  0  0
   -5.6617   26.1732  -29.9407 H   0  0  0  0  0  0  0  0  0  0  0  0
   -2.6683   23.3794  -31.0197 H   0  0  0  0  0  0  0  0  0  0  0  0
  1  2  1  0
  2  3  1  0
  3  4  1  0
  3  5  1  0
  5  6  1  0
  6  7  1  0
  7  8  1  0
  8  9  2  0
  9 10  1  0
 10 11  2  0
 11 12  1  0
 12 13  2  0
 13 14  1  0
 14 15  2  0
 15 16  1  0
 16 17  2  0
 17 18  1  0
 18 19  1  0
 19 20  2  0
 20  8  1  0
 14  9  1  0
 20 16  1  0
  1 21  1  0
  1 22  1  0
  1 23  1  0
  2 24  1  0
  2 25  1  0
  3 26  1  1
  4 27  1  0
  4 28  1  0
  4 29  1  0
  5 30  1  0
  5 31  1  0
  6 32  1  0
  6 33  1  0
  7 34  1  0
 10 35  1  0
 11 36  1  0
 12 37  1  0
 13 38  1  0
 15 39  1  0
 17 40  1  0
 19 41  1  0
M  CHG  1   3   1
M  END
>  <UniqueID>  (7) 
7

>  <SMILES>  (7) 
CC[N@@H+](C)CCNc1c2ccccc2cc2cocc12

>  <Energy>  (7) 
85.63171242239177

>  <Genealogy>  (7) 
CC[NH+](C)CCNc1c2ccccc2cc2cocc12 (protonated)
CC[N@@H+](C)CCNc1c2ccccc2cc2cocc12 (chirality)
CC[N@@H+](C)CCNc1c2ccccc2cc2cocc12 (3D coordinates assigned)
CC[N@@H+](C)CCNc1c2ccccc2cc2cocc12 (optimized conformer: 85.63171242239177 kcal/mol)

>  <smiles>  (7) 
CCN(C)CCNc1c2ccccc2cc2cocc12

>  <score_type>  (7) 
oracle

>  <origin>  (7) 
adg

>  <m_score__min__energy>  (7) 
-7.1200000000000001

>  <m_primary>  (7) 
energy

$$$$
7:0
     RDKit          3D

 64 66  0  0  0  0  0  0  0  0999 V2000
    0.4970   17.4800  -27.7920 C   0  0  0  0  0  0  0  0  0  0  0  0
   -0.4680   18.6170  -27.4590 C   0  0  0  0  0  0  0  0  0  0  0  0
   -1.6500   18.0950  -26.7540 N   0  0  0  0  0  0  0  0  0  0  0  0
   -2.4690   19.1780  -26.1850 C   0  0  0  0  0  0  0  0  0  0  0  0
   -2.0710   20.5340  -26.7850 C   0  0  0  0  0  0  0  0  0  0  0  0
   -3.0630   21.0880  -27.8260 C   0  0  0  0  0  0  0  0  0  0  0  0
   -3.1360   22.6230  -27.8940 C   0  0  0  0  0  0  0  0  0  0  0  0
   -4.0700   23.1310  -29.0100 C   0  0  0  0  0  0  0  0  0  0  0  0
   -3.3210   23.4130  -30.3200 C   0  0  0  0  0  0  0  0  0  0  0  0
   -2.3510   22.2810  -30.7010 C   0  0  0  0  0  0  0  0  0  0  0  0
   -3.0530   21.1000  -31.3990 C   0  0  0  0  0  0  0  0  0  0  0  0
   -2.8920   21.1020  -32.9270 C   0  0  0  0  0  0  0  0  0  0  0  0
   -4.1650   21.3420  -33.6040 N   0  0  0  0  0  0  0  0  0  0  0  0
   -5.3600   20.6840  -33.1550 C   0  0  0  0  0  0  0  0  0  0  0  0
   -6.2860   21.3660  -32.3480 C   0  0  0  0  0  0  0  0  0  0  0  0
   -6.0660   22.7090  -31.9720 C   0  0  0  0  0  0  0  0  0  0  0  0
   -6.9510   23.3660  -31.1220 C   0  0  0  0  0  0  0  0  0  0  0  0
   -8.0590   22.6960  -30.6200 C   0  0  0  0  0  0  0  0  0  0  0  0
   -8.3050   21.3710  -30.9850 C   0  0  0  0  0  0  0  0  0  0  0  0
   -7.4440   20.6860  -31.8810 C   0  0  0  0  0  0  0  0  0  0  0  0
   -7.6970   19.3870  -32.2830 N   0  0  0  0  0  0  0  0  0  0  0  0
   -9.0230   18.7800  -32.0320 C   0  0  0  0  0  0  0  0  0  0  0  0
   -6.7210   18.6660  -32.9480 C   0  0  0  0  0  0  0  0  0  0  0  0
   -6.8390   17.2690  -33.1620 C   0  0  0  0  0  0  0  0  0  0  0  0
   -5.8840   16.5690  -33.9040 C   0  0  0  0  0  0  0  0  0  0  0  0
   -6.0760   14.8460  -34.1860 Cl  0  0  0  0  0  0  0  0  0  0  0  0
   -4.7840   17.2360  -34.4320 C   0  0  0  0  0  0  0  0  0  0  0  0
   -4.6130   18.5960  -34.1920 C   0  0  0  0  0  0  0  0  0  0  0  0
   -5.5560   19.3200  -33.4310 C   0  0  0  0  0  0  0  0  0  0  0  0
    0.8748   17.0349  -26.8597 H   0  0  0  0  0  0  0  0  0  0  0  0
   -0.0293   16.7121  -28.3780 H   0  0  0  0  0  0  0  0  0  0  0  0
    1.3402   17.8745  -28.3780 H   0  0  0  0  0  0  0  0  0  0  0  0
    0.0428   19.3500  -26.8172 H   0  0  0  0  0  0  0  0  0  0  0  0
   -0.7924   19.0960  -28.3946 H   0  0  0  0  0  0  0  0  0  0  0  0
   -1.3090   17.5000  -25.9590 H   0  0  0  0  0  0  0  0  0  0  0  0
   -3.5288   18.9829  -26.4056 H   0  0  0  0  0  0  0  0  0  0  0  0
   -2.3045   19.2111  -25.0979 H   0  0  0  0  0  0  0  0  0  0  0  0
   -1.9912   21.2625  -25.9647 H   0  0  0  0  0  0  0  0  0  0  0  0
   -1.1193   20.3752  -27.3133 H   0  0  0  0  0  0  0  0  0  0  0  0
   -2.7632   20.7154  -28.8166 H   0  0  0  0  0  0  0  0  0  0  0  0
   -4.0610   20.7438  -27.5168 H   0  0  0  0  0  0  0  0  0  0  0  0
   -3.5054   22.9998  -26.9288 H   0  0  0  0  0  0  0  0  0  0  0  0
   -2.1240   22.9917  -28.1176 H   0  0  0  0  0  0  0  0  0  0  0  0
   -4.8393   22.3683  -29.2006 H   0  0  0  0  0  0  0  0  0  0  0  0
   -4.5148   24.0774  -28.6688 H   0  0  0  0  0  0  0  0  0  0  0  0
   -4.0574   23.5332  -31.1283 H   0  0  0  0  0  0  0  0  0  0  0  0
   -2.7265   24.3270  -30.1744 H   0  0  0  0  0  0  0  0  0  0  0  0
   -1.5874   22.6869  -31.3807 H   0  0  0  0  0  0  0  0  0  0  0  0
   -1.9079   21.8983  -29.7698 H   0  0  0  0  0  0  0  0  0  0  0  0
   -2.6303   20.1634  -31.0064 H   0  0  0  0  0  0  0  0  0  0  0  0
   -4.1285   21.1954  -31.1888 H   0  0  0  0  0  0  0  0  0  0  0  0
   -2.1829   21.8940  -33.2098 H   0  0  0  0  0  0  0  0  0  0  0  0
   -2.5211   20.1130  -33.2342 H   0  0  0  0  0  0  0  0  0  0  0  0
   -4.2800   22.2190  -34.1590 H   0  0  0  0  0  0  0  0  0  0  0  0
   -5.1841   23.2428  -32.3556 H   0  0  0  0  0  0  0  0  0  0  0  0
   -6.7727   24.4162  -30.8478 H   0  0  0  0  0  0  0  0  0  0  0  0
   -8.7455   23.2112  -29.9321 H   0  0  0  0  0  0  0  0  0  0  0  0
   -9.1807   20.8496  -30.5712 H   0  0  0  0  0  0  0  0  0  0  0  0
   -9.1916   18.7028  -30.9477 H   0  0  0  0  0  0  0  0  0  0  0  0
   -9.8054   19.4096  -32.4808 H   0  0  0  0  0  0  0  0  0  0  0  0
   -9.0577   17.7763  -32.4808 H   0  0  0  0  0  0  0  0  0  0  0  0
   -7.6968   16.7274  -32.7367 H   0  0  0  0  0  0  0  0  0  0  0  0
   -4.0487   16.6883  -35.0397 H   0  0  0  0  0  0  0  0  0  0  0  0
   -3.7322   19.1132  -34.6003 H   0  0  0  0  0  0  0  0  0  0  0  0
  1  2  1  0
  2  3  1  0
  3  4  1  0
  4  5  1  0
  5  6  1  0
  6  7  1  0
  7  8  1  0
  8  9  1  0
  9 10  1  0
 10 11  1  0
 11 12  1  0
 12 13  1  0
 13 14  1  0
 14 15  2  0
 15 16  1  0
 16 17  2  0
 17 18  1  0
 18 19  2  0
 19 20  1  0
 20 21  2  0
 21 22  1  0
 21 23  1  0
 23 24  2  0
 24 25  1  0
 25 26  1  0
 25 27  2  0
 27 28  1  0
 28 29  2  0
 29 14  1  0
 20 15  1  0
 29 23  1  0
  1 30  1  0
  1 31  1  0
  1 32  1  0
  2 33  1  0
  2 34  1  0
  3 35  1  0
  4 36  1  0
  4 37  1  0
  5 38  1  0
  5 39  1  0
  6 40  1  0
  6 41  1  0
  7 42  1  0
  7 43  1  0
  8 44  1  0
  8 45  1  0
  9 46  1  0
  9 47  1  0
 10 48  1  0
 10 49  1  0
 11 50  1  0
 11 51  1  0
 12 52  1  0
 12 53  1  0
 13 54  1  0
 16 55  1  0
 17 56  1  0
 18 57  1  0
 19 58  1  0
 22 59  1  0
 22 60  1  0
 22 61  1  0
 24 62  1  0
 27 63  1  0
 28 64  1  0
M  CHG  1  21   1
M  END
>  <UniqueID>  (8) 
8

>  <SMILES>  (8) 
CCNCCCCCCCCCNc1c2ccccc2[n+](C)c2cc(Cl)ccc12

>  <Energy>  (8) 
76.47724453696124

>  <Genealogy>  (8) 
CCNCCCCCCCCCNc1c2ccccc2[n+](C)c2cc(Cl)ccc12 (3D coordinates assigned)
CCNCCCCCCCCCNc1c2ccccc2[n+](C)c2cc(Cl)ccc12 (optimized conformer: 76.47724453696124 kcal/mol)

>  <smiles>  (8) 
CCNCCCCCCCCCNc1c2ccccc2[n+](C)c2cc(Cl)ccc12

>  <score_type>  (8) 
oracle

>  <origin>  (8) 
adg

>  <m_score__min__energy>  (8) 
-8.7400000000000002

>  <m_primary>  (8) 
energy

$$$$
8:0
     RDKit          3D

 50 52  0  0  0  0  0  0  0  0999 V2000
   -8.6330   19.1050  -32.2730 C   0  0  0  0  0  0  0  0  0  0  0  0
   -8.7630   20.5770  -31.8740 C   0  0  0  0  0  0  0  0  0  0  0  0
   -7.8540   21.3880  -32.6250 O   0  0  0  0  0  0  0  0  0  0  0  0
   -6.5080   21.6370  -32.2890 C   0  0  0  0  0  0  0  0  0  0  0  0
   -5.4680   20.8040  -32.7370 C   0  0  0  0  0  0  0  0  0  0  0  0
   -4.1490   21.0740  -32.3870 C   0  0  0  0  0  0  0  0  0  0  0  0
   -3.8430   22.1700  -31.5850 C   0  0  0  0  0  0  0  0  0  0  0  0
   -4.8580   23.0380  -31.1410 C   0  0  0  0  0  0  0  0  0  0  0  0
   -6.2050   22.7610  -31.4910 C   0  0  0  0  0  0  0  0  0  0  0  0
   -7.3460   23.6790  -31.0860 C   0  0  0  0  0  0  0  0  0  0  0  0
   -6.9460   24.8280  -30.1420 C   0  0  0  0  0  0  0  0  0  0  0  0
   -5.5340   25.3340  -30.4150 C   0  0  0  0  0  0  0  0  0  0  0  0
   -4.5330   24.1840  -30.1980 C   0  0  2  0  0  0  0  0  0  0  0  0
   -3.1370   24.6350  -30.3740 N   0  0  0  0  0  0  0  0  0  0  0  0
   -2.2470   24.2530  -29.2730 C   0  0  0  0  0  0  0  0  0  0  0  0
   -3.0060   23.8100  -28.0160 C   0  0  0  0  0  0  0  0  0  0  0  0
   -3.1760   24.9140  -26.9620 C   0  0  0  0  0  0  0  0  0  0  0  0
   -2.0650   24.8900  -25.9430 C   0  0  0  0  0  0  0  0  0  0  0  0
   -1.8630   26.0000  -25.1100 C   0  0  0  0  0  0  0  0  0  0  0  0
   -0.7900   25.9990  -24.2220 C   0  0  0  0  0  0  0  0  0  0  0  0
    0.0600   24.9260  -24.1660 N   0  0  0  0  0  0  0  0  0  0  0  0
   -0.1280   23.8280  -24.9470 C   0  0  0  0  0  0  0  0  0  0  0  0
   -1.1840   23.7920  -25.8550 C   0  0  0  0  0  0  0  0  0  0  0  0
   -8.5781   18.4831  -31.3673 H   0  0  0  0  0  0  0  0  0  0  0  0
   -9.5084   18.8080  -32.8692 H   0  0  0  0  0  0  0  0  0  0  0  0
   -7.7191   18.9660  -32.8692 H   0  0  0  0  0  0  0  0  0  0  0  0
   -9.7920   20.9139  -32.0680 H   0  0  0  0  0  0  0  0  0  0  0  0
   -8.5236   20.6756  -30.8049 H   0  0  0  0  0  0  0  0  0  0  0  0
   -5.6987   19.9332  -33.3683 H   0  0  0  0  0  0  0  0  0  0  0  0
   -3.3428   20.4174  -32.7462 H   0  0  0  0  0  0  0  0  0  0  0  0
   -2.7987   22.3593  -31.2958 H   0  0  0  0  0  0  0  0  0  0  0  0
   -7.7719   24.1192  -31.9997 H   0  0  0  0  0  0  0  0  0  0  0  0
   -8.0622   23.0562  -30.5299 H   0  0  0  0  0  0  0  0  0  0  0  0
   -7.6527   25.6600  -30.2777 H   0  0  0  0  0  0  0  0  0  0  0  0
   -6.9730   24.4430  -29.1119 H   0  0  0  0  0  0  0  0  0  0  0  0
   -5.4653   25.6905  -31.4534 H   0  0  0  0  0  0  0  0  0  0  0  0
   -5.2994   26.1622  -29.7301 H   0  0  0  0  0  0  0  0  0  0  0  0
   -4.6283   23.8331  -29.1598 H   0  0  0  0  0  0  0  0  0  0  0  0
   -3.1120   25.6720  -30.4830 H   0  0  0  0  0  0  0  0  0  0  0  0
   -1.6101   23.4216  -29.6093 H   0  0  0  0  0  0  0  0  0  0  0  0
   -1.6552   25.1406  -29.0047 H   0  0  0  0  0  0  0  0  0  0  0  0
   -4.0057   23.4661  -28.3198 H   0  0  0  0  0  0  0  0  0  0  0  0
   -2.4063   23.0155  -27.5479 H   0  0  0  0  0  0  0  0  0  0  0  0
   -3.1754   25.8914  -27.4667 H   0  0  0  0  0  0  0  0  0  0  0  0
   -4.1266   24.7416  -26.4360 H   0  0  0  0  0  0  0  0  0  0  0  0
   -2.5446   26.8621  -25.1574 H   0  0  0  0  0  0  0  0  0  0  0  0
   -0.6243   26.8637  -23.5626 H   0  0  0  0  0  0  0  0  0  0  0  0
    0.8610   24.9330  -23.4890 H   0  0  0  0  0  0  0  0  0  0  0  0
    0.5536   22.9689  -24.8616 H   0  0  0  0  0  0  0  0  0  0  0  0
   -1.3299   22.9126  -26.4994 H   0  0  0  0  0  0  0  0  0  0  0  0
  1  2  1  0
  2  3  1  0
  3  4  1  0
  4  5  2  0
  5  6  1  0
  6  7  2  0
  7  8  1  0
  8  9  2  0
  9 10  1  0
 10 11  1  0
 11 12  1  0
 12 13  1  0
 13 14  1  0
 14 15  1  0
 15 16  1  0
 16 17  1  0
 17 18  1  0
 18 19  2  0
 19 20  1  0
 20 21  2  0
 21 22  1  0
 22 23  2  0
  9  4  1  0
 23 18  1  0
 13  8  1  0
  1 24  1  0
  1 25  1  0
  1 26  1  0
  2 27  1  0
  2 28  1  0
  5 29  1  0
  6 30  1  0
  7 31  1  0
 10 32  1  0
 10 33  1  0
 11 34  1  0
 11 35  1  0
 12 36  1  0
 12 37  1  0
 13 38  1  1
 14 39  1  0
 15 40  1  0
 15 41  1  0
 16 42  1  0
 16 43  1  0
 17 44  1  0
 17 45  1  0
 19 46  1  0
 20 47  1  0
 21 48  1  0
 22 49  1  0
 23 50  1  0
M  CHG  1  21   1
M  END
>  <UniqueID>  (9) 
9

>  <SMILES>  (9) 
CCOc1cccc2c1CCC[C@@H]2NCCCc1cc[nH+]cc1

>  <Energy>  (9) 
51.47390597910746

>  <Genealogy>  (9) 
CCOc1cccc2c1CCCC2NCCCc1cc[nH+]cc1 (protonated)
CCOc1cccc2c1CCC[C@@H]2NCCCc1cc[nH+]cc1 (chirality)
CCOc1cccc2c1CCC[C@@H]2NCCCc1cc[nH+]cc1 (3D coordinates assigned)
CCOc1cccc2c1CCC[C@@H]2NCCCc1cc[nH+]cc1 (nonaromatic ring conformer: 51.47390597910746 kcal/mol)

>  <smiles>  (9) 
CCOc1cccc2c1CCCC2NCCCc1ccncc1

>  <score_type>  (9) 
oracle

>  <origin>  (9) 
adg

>  <m_score__min__energy>  (9) 
-8.9100000000000001

>  <m_primary>  (9) 
energy

$$$$
9:0
     RDKit          3D

 54 56  0  0  0  0  0  0  0  0999 V2000
   -3.8060   22.3800  -29.1800 C   0  0  0  0  0  0  0  0  0  0  0  0
   -3.0220   23.5330  -29.7870 C   0  0  0  0  0  0  0  0  0  0  0  0
   -3.7700   24.0940  -30.8360 O   0  0  0  0  0  0  0  0  0  0  0  0
   -4.2140   25.3000  -30.3880 N   0  0  0  0  0  0  0  0  0  0  0  0
   -5.6160   25.4450  -30.7830 C   0  0  0  0  0  0  0  0  0  0  0  0
   -6.5240   24.4530  -30.0390 C   0  0  0  0  0  0  0  0  0  0  0  0
   -7.4970   23.7650  -31.0030 C   0  0  0  0  0  0  0  0  0  0  0  0
   -7.0940   22.3120  -31.2820 C   0  0  0  0  0  0  0  0  0  0  0  0
   -5.8400   22.2440  -32.0330 N   0  0  0  0  0  0  0  0  0  0  0  0
   -5.5060   21.0500  -32.7540 C   0  0  0  0  0  0  0  0  0  0  0  0
   -6.5340   20.2340  -33.2100 C   0  0  0  0  0  0  0  0  0  0  0  0
   -6.2450   19.0860  -33.9410 C   0  0  0  0  0  0  0  0  0  0  0  0
   -4.9550   18.7330  -34.2300 N   0  0  0  0  0  0  0  0  0  0  0  0
   -4.7450   17.4860  -34.9970 C   0  0  0  0  0  0  0  0  0  0  0  0
   -4.3950   16.3290  -34.0870 C   0  0  0  0  0  0  0  0  0  0  0  0
   -3.0900   15.8070  -34.0850 C   0  0  0  0  0  0  0  0  0  0  0  0
   -2.7440   14.7660  -33.2210 C   0  0  0  0  0  0  0  0  0  0  0  0
   -3.6920   14.2410  -32.3450 C   0  0  0  0  0  0  0  0  0  0  0  0
   -4.9890   14.7610  -32.3250 C   0  0  0  0  0  0  0  0  0  0  0  0
   -5.3390   15.8080  -33.1820 C   0  0  0  0  0  0  0  0  0  0  0  0
   -6.5920   16.3240  -33.1100 F   0  0  0  0  0  0  0  0  0  0  0  0
   -3.9040   19.5150  -33.7800 C   0  0  0  0  0  0  0  0  0  0  0  0
   -2.5550   19.1820  -34.0510 C   0  0  0  0  0  0  0  0  0  0  0  0
   -1.5120   19.9680  -33.5650 C   0  0  0  0  0  0  0  0  0  0  0  0
   -1.7830   21.0940  -32.7960 C   0  0  0  0  0  0  0  0  0  0  0  0
   -3.1000   21.4550  -32.5220 C   0  0  0  0  0  0  0  0  0  0  0  0
   -4.1710   20.6890  -33.0180 C   0  0  0  0  0  0  0  0  0  0  0  0
   -3.7623   22.4443  -28.0828 H   0  0  0  0  0  0  0  0  0  0  0  0
   -4.8541   22.4358  -29.5091 H   0  0  0  0  0  0  0  0  0  0  0  0
   -3.3687   21.4258  -29.5091 H   0  0  0  0  0  0  0  0  0  0  0  0
   -2.8351   24.2969  -29.0179 H   0  0  0  0  0  0  0  0  0  0  0  0
   -2.0597   23.1652  -30.1726 H   0  0  0  0  0  0  0  0  0  0  0  0
   -4.1520   25.2940  -29.3430 H   0  0  0  0  0  0  0  0  0  0  0  0
   -5.9459   26.4694  -30.5554 H   0  0  0  0  0  0  0  0  0  0  0  0
   -5.6912   25.2356  -31.8603 H   0  0  0  0  0  0  0  0  0  0  0  0
   -5.8992   23.6890  -29.5532 H   0  0  0  0  0  0  0  0  0  0  0  0
   -7.1082   25.0082  -29.2904 H   0  0  0  0  0  0  0  0  0  0  0  0
   -8.5038   23.7760  -30.5601 H   0  0  0  0  0  0  0  0  0  0  0  0
   -7.4772   24.3133  -31.9564 H   0  0  0  0  0  0  0  0  0  0  0  0
   -6.9677   21.7849  -30.3248 H   0  0  0  0  0  0  0  0  0  0  0  0
   -7.8855   21.8411  -31.8835 H   0  0  0  0  0  0  0  0  0  0  0  0
   -5.0380   22.8080  -31.6680 H   0  0  0  0  0  0  0  0  0  0  0  0
   -7.5798   20.4965  -32.9923 H   0  0  0  0  0  0  0  0  0  0  0  0
   -7.0700   18.4495  -34.2936 H   0  0  0  0  0  0  0  0  0  0  0  0
   -5.6674   17.2436  -35.5451 H   0  0  0  0  0  0  0  0  0  0  0  0
   -3.9074   17.6447  -35.6921 H   0  0  0  0  0  0  0  0  0  0  0  0
   -2.3353   16.2218  -34.7694 H   0  0  0  0  0  0  0  0  0  0  0  0
   -1.7218   14.3599  -33.2319 H   0  0  0  0  0  0  0  0  0  0  0  0
   -3.4194   13.4171  -31.6691 H   0  0  0  0  0  0  0  0  0  0  0  0
   -5.7362   14.3452  -31.6331 H   0  0  0  0  0  0  0  0  0  0  0  0
   -2.3270   18.2904  -34.6536 H   0  0  0  0  0  0  0  0  0  0  0  0
   -0.4702   19.6965  -33.7907 H   0  0  0  0  0  0  0  0  0  0  0  0
   -0.9547   21.7017  -32.4027 H   0  0  0  0  0  0  0  0  0  0  0  0
   -3.3048   22.3473  -31.9121 H   0  0  0  0  0  0  0  0  0  0  0  0
  1  2  1  0
  2  3  1  0
  3  4  1  0
  4  5  1  0
  5  6  1  0
  6  7  1  0
  7  8  1  0
  8  9  1  0
  9 10  1  0
 10 11  2  0
 11 12  1  0
 12 13  2  0
 13 14  1  0
 14 15  1  0
 15 16  2  0
 16 17  1  0
 17 18  2  0
 18 19  1  0
 19 20  2  0
 20 21  1  0
 13 22  1  0
 22 23  2  0
 23 24  1  0
 24 25  2  0
 25 26  1  0
 26 27  2  0
 27 10  1  0
 20 15  1  0
 27 22  1  0
  1 28  1  0
  1 29  1  0
  1 30  1  0
  2 31  1  0
  2 32  1  0
  4 33  1  0
  5 34  1  0
  5 35  1  0
  6 36  1  0
  6 37  1  0
  7 38  1  0
  7 39  1  0
  8 40  1  0
  8 41  1  0
  9 42  1  0
 11 43  1  0
 12 44  1  0
 14 45  1  0
 14 46  1  0
 16 47  1  0
 17 48  1  0
 18 49  1  0
 19 50  1  0
 23 51  1  0
 24 52  1  0
 25 53  1  0
 26 54  1  0
M  CHG  1  13   1
M  END
>  <UniqueID>  (10) 
10

>  <SMILES>  (10) 
CCONCCCCNc1cc[n+](Cc2ccccc2F)c2ccccc12

>  <Energy>  (10) 
58.86696414795608

>  <Genealogy>  (10) 
CCONCCCCNc1cc[n+](Cc2ccccc2F)c2ccccc12 (3D coordinates assigned)
CCONCCCCNc1cc[n+](Cc2ccccc2F)c2ccccc12 (optimized conformer: 58.86696414795608 kcal/mol)

>  <smiles>  (10) 
CCONCCCCNc1cc[n+](Cc2ccccc2F)c2ccccc12

>  <score_type>  (10) 
oracle

>  <origin>  (10) 
adg

>  <m_score__min__energy>  (10) 
-8.0199999999999996

>  <m_primary>  (10) 
energy

$$$$
10:0
     RDKit          3D

 55 58  0  0  0  0  0  0  0  0999 V2000
   -2.6310   24.7230  -26.9300 C   0  0  0  0  0  0  0  0  0  0  0  0
   -1.6400   25.3510  -27.8980 C   0  0  0  0  0  0  0  0  0  0  0  0
   -2.1700   25.2990  -29.2190 O   0  0  0  0  0  0  0  0  0  0  0  0
   -2.7770   24.1660  -29.7840 C   0  0  0  0  0  0  0  0  0  0  0  0
   -1.9570   23.0620  -30.1100 C   0  0  0  0  0  0  0  0  0  0  0  0
   -2.5010   21.8970  -30.6790 C   0  0  0  0  0  0  0  0  0  0  0  0
   -3.8780   21.8560  -30.9070 C   0  0  0  0  0  0  0  0  0  0  0  0
   -4.6800   22.9360  -30.5960 C   0  0  0  0  0  0  0  0  0  0  0  0
   -4.1700   24.1040  -30.0350 C   0  0  0  0  0  0  0  0  0  0  0  0
   -5.9570   22.5920  -30.9780 C   0  0  0  0  0  0  0  0  0  0  0  0
   -7.1540   23.3000  -30.9290 C   0  0  0  0  0  0  0  0  0  0  0  0
   -8.3070   22.6780  -31.4390 C   0  0  0  0  0  0  0  0  0  0  0  0
   -8.2410   21.3710  -31.9930 C   0  0  0  0  0  0  0  0  0  0  0  0
   -9.3700   20.7230  -32.5180 O   0  0  0  0  0  0  0  0  0  0  0  0
   -9.4720   19.3160  -32.7080 C   0  0  0  0  0  0  0  0  0  0  0  0
   -7.0090   20.6870  -32.0280 C   0  0  0  0  0  0  0  0  0  0  0  0
   -5.8780   21.3210  -31.5050 C   0  0  0  0  0  0  0  0  0  0  0  0
   -4.6070   20.8490  -31.4530 N   0  0  0  0  0  0  0  0  0  0  0  0
   -4.1100   19.5730  -31.9780 C   0  0  0  0  0  0  0  0  0  0  0  0
   -3.8050   19.7050  -33.4810 C   0  0  0  0  0  0  0  0  0  0  0  0
   -4.2530   18.5240  -34.2610 N   0  0  0  0  0  0  0  0  0  0  0  0
   -5.7160   18.6100  -34.5440 C   0  0  0  0  0  0  0  0  0  0  0  0
   -6.5610   17.8470  -33.5140 C   0  0  0  0  0  0  0  0  0  0  0  0
   -6.2140   16.3490  -33.5190 C   0  0  0  0  0  0  0  0  0  0  0  0
   -4.7670   16.0800  -33.9670 C   0  0  0  0  0  0  0  0  0  0  0  0
   -3.8520   17.2530  -33.5910 C   0  0  0  0  0  0  0  0  0  0  0  0
   -2.3124   24.9249  -25.8967 H   0  0  0  0  0  0  0  0  0  0  0  0
   -3.6294   25.1536  -27.0966 H   0  0  0  0  0  0  0  0  0  0  0  0
   -2.6679   23.6363  -27.0966 H   0  0  0  0  0  0  0  0  0  0  0  0
   -1.4641   26.3991  -27.6143 H   0  0  0  0  0  0  0  0  0  0  0  0
   -0.6902   24.7974  -27.8615 H   0  0  0  0  0  0  0  0  0  0  0  0
   -0.8756   23.1150  -29.9154 H   0  0  0  0  0  0  0  0  0  0  0  0
   -1.8596   21.0415  -30.9374 H   0  0  0  0  0  0  0  0  0  0  0  0
   -4.8280   24.9520  -29.7943 H   0  0  0  0  0  0  0  0  0  0  0  0
   -7.1967   24.3140  -30.5048 H   0  0  0  0  0  0  0  0  0  0  0  0
   -9.2702   23.2085  -31.4089 H   0  0  0  0  0  0  0  0  0  0  0  0
   -9.5083   18.8155  -31.7291 H   0  0  0  0  0  0  0  0  0  0  0  0
  -10.3891   19.0875  -33.2708 H   0  0  0  0  0  0  0  0  0  0  0  0
   -8.5975   18.9577  -33.2708 H   0  0  0  0  0  0  0  0  0  0  0  0
   -6.9390   19.6767  -32.4573 H   0  0  0  0  0  0  0  0  0  0  0  0
   -3.1907   19.2923  -31.4431 H   0  0  0  0  0  0  0  0  0  0  0  0
   -4.8778   18.7989  -31.8320 H   0  0  0  0  0  0  0  0  0  0  0  0
   -4.3185   20.5977  -33.8675 H   0  0  0  0  0  0  0  0  0  0  0  0
   -2.7136   19.7837  -33.5935 H   0  0  0  0  0  0  0  0  0  0  0  0
   -3.7670   18.5620  -35.1890 H   0  0  0  0  0  0  0  0  0  0  0  0
   -6.0159   19.6683  -34.5316 H   0  0  0  0  0  0  0  0  0  0  0  0
   -5.8933   18.1503  -35.5275 H   0  0  0  0  0  0  0  0  0  0  0  0
   -6.3657   18.2583  -32.5127 H   0  0  0  0  0  0  0  0  0  0  0  0
   -7.6229   17.9620  -33.7770 H   0  0  0  0  0  0  0  0  0  0  0  0
   -6.3475   15.9527  -32.5016 H   0  0  0  0  0  0  0  0  0  0  0  0
   -6.8835   15.8536  -34.2376 H   0  0  0  0  0  0  0  0  0  0  0  0
   -4.4016   15.1661  -33.4758 H   0  0  0  0  0  0  0  0  0  0  0  0
   -4.7536   15.9594  -35.0603 H   0  0  0  0  0  0  0  0  0  0  0  0
   -3.8946   17.3992  -32.5016 H   0  0  0  0  0  0  0  0  0  0  0  0
   -2.8337   17.0046  -33.9247 H   0  0  0  0  0  0  0  0  0  0  0  0
  1  2  1  0
  2  3  1  0
  3  4  1  0
  4  5  2  0
  5  6  1  0
  6  7  2  0
  7  8  1  0
  8  9  2  0
  8 10  1  0
 10 11  2  0
 11 12  1  0
 12 13  2  0
 13 14  1  0
 14 15  1  0
 13 16  1  0
 16 17  2  0
 17 18  1  0
 18 19  1  0
 19 20  1  0
 20 21  1  0
 21 22  1  0
 22 23  1  0
 23 24  1  0
 24 25  1  0
 25 26  1  0
  9  4  1  0
 17 10  1  0
 26 21  1  0
 18  7  1  0
  1 27  1  0
  1 28  1  0
  1 29  1  0
  2 30  1  0
  2 31  1  0
  5 32  1  0
  6 33  1  0
  9 34  1  0
 11 35  1  0
 12 36  1  0
 15 37  1  0
 15 38  1  0
 15 39  1  0
 16 40  1  0
 19 41  1  0
 19 42  1  0
 20 43  1  0
 20 44  1  0
 21 45  1  0
 22 46  1  0
 22 47  1  0
 23 48  1  0
 23 49  1  0
 24 50  1  0
 24 51  1  0
 25 52  1  0
 25 53  1  0
 26 54  1  0
 26 55  1  0
M  CHG  1  21   1
M  END
>  <UniqueID>  (11) 
11

>  <SMILES>  (11) 
CCOc1ccc2c(c1)c1ccc(OC)cc1n2CC[NH+]1CCCCC1

>  <Energy>  (11) 
100.85281123954317

>  <Genealogy>  (11) 
CCOc1ccc2c(c1)c1ccc(OC)cc1n2CC[NH+]1CCCCC1 (protonated)
CCOc1ccc2c(c1)c1ccc(OC)cc1n2CC[NH+]1CCCCC1 (3D coordinates assigned)
CCOc1ccc2c(c1)c1ccc(OC)cc1n2CC[NH+]1CCCCC1 (nonaromatic ring conformer: 100.85281123954317 kcal/mol)

>  <smiles>  (11) 
CCOc1ccc2c(c1)c1ccc(OC)cc1n2CCN1CCCCC1

>  <score_type>  (11) 
oracle

>  <origin>  (11) 
adg

>  <m_score__min__energy>  (11) 
-7.7699999999999996

>  <m_primary>  (11) 
energy

$$$$
11:0
     RDKit          3D

 43 45  0  0  0  0  0  0  0  0999 V2000
   -3.7980   21.9480  -33.0090 C   0  0  0  0  0  0  0  0  0  0  0  0
   -4.0320   22.7520  -31.7340 C   0  0  0  0  0  0  0  0  0  0  0  0
   -5.4550   23.0630  -31.5730 N   0  0  0  0  0  0  0  0  0  0  0  0
   -6.0280   24.2310  -31.1710 C   0  0  0  0  0  0  0  0  0  0  0  0
   -5.2670   25.4820  -30.8350 C   0  0  0  0  0  0  0  0  0  0  0  0
   -3.9690   25.1500  -30.2380 N   0  0  0  0  0  0  0  0  0  0  0  0
   -4.1320   24.3630  -29.0090 C   0  0  0  0  0  0  0  0  0  0  0  0
   -2.8550   23.6210  -28.7130 C   0  0  0  0  0  0  0  0  0  0  0  0
   -2.8960   22.2340  -28.4990 C   0  0  0  0  0  0  0  0  0  0  0  0
   -1.7210   21.5180  -28.2620 C   0  0  0  0  0  0  0  0  0  0  0  0
   -0.4930   22.1790  -28.2450 C   0  0  0  0  0  0  0  0  0  0  0  0
   -0.4340   23.5560  -28.4720 C   0  0  0  0  0  0  0  0  0  0  0  0
   -1.6120   24.2910  -28.7150 C   0  0  0  0  0  0  0  0  0  0  0  0
   -1.5830   25.6740  -28.9620 O   0  0  0  0  0  0  0  0  0  0  0  0
   -0.8730   26.6210  -28.1720 C   0  0  0  0  0  0  0  0  0  0  0  0
   -7.3820   24.1600  -31.0670 N   0  0  0  0  0  0  0  0  0  0  0  0
   -7.6480   22.8910  -31.4190 C   0  0  0  0  0  0  0  0  0  0  0  0
   -8.8940   22.2700  -31.4760 C   0  0  0  0  0  0  0  0  0  0  0  0
   -8.9350   20.9160  -31.8590 C   0  0  0  0  0  0  0  0  0  0  0  0
   -7.7410   20.2240  -32.1700 C   0  0  0  0  0  0  0  0  0  0  0  0
   -6.4990   20.8800  -32.1000 C   0  0  0  0  0  0  0  0  0  0  0  0
   -6.4950   22.2240  -31.7190 C   0  0  0  0  0  0  0  0  0  0  0  0
   -3.4995   20.9224  -32.7462 H   0  0  0  0  0  0  0  0  0  0  0  0
   -4.7252   21.9199  -33.6001 H   0  0  0  0  0  0  0  0  0  0  0  0
   -3.0005   22.4219  -33.6001 H   0  0  0  0  0  0  0  0  0  0  0  0
   -3.6903   22.1649  -30.8688 H   0  0  0  0  0  0  0  0  0  0  0  0
   -3.4689   23.6945  -31.8013 H   0  0  0  0  0  0  0  0  0  0  0  0
   -5.1043   26.0644  -31.7539 H   0  0  0  0  0  0  0  0  0  0  0  0
   -5.8510   26.0697  -30.1115 H   0  0  0  0  0  0  0  0  0  0  0  0
   -3.4990   26.0500  -29.9810 H   0  0  0  0  0  0  0  0  0  0  0  0
   -4.3672   25.0361  -28.1714 H   0  0  0  0  0  0  0  0  0  0  0  0
   -4.9519   23.6418  -29.1422 H   0  0  0  0  0  0  0  0  0  0  0  0
   -3.8615   21.7072  -28.5182 H   0  0  0  0  0  0  0  0  0  0  0  0
   -1.7638   20.4326  -28.0887 H   0  0  0  0  0  0  0  0  0  0  0  0
    0.4313   21.6146  -28.0524 H   0  0  0  0  0  0  0  0  0  0  0  0
    0.5383   24.0703  -28.4611 H   0  0  0  0  0  0  0  0  0  0  0  0
   -1.0354   26.4044  -27.1058 H   0  0  0  0  0  0  0  0  0  0  0  0
    0.2012   26.5566  -28.3997 H   0  0  0  0  0  0  0  0  0  0  0  0
   -1.2360   27.6341  -28.3997 H   0  0  0  0  0  0  0  0  0  0  0  0
   -9.8147   22.8193  -31.2300 H   0  0  0  0  0  0  0  0  0  0  0  0
   -9.9010   20.3931  -31.9168 H   0  0  0  0  0  0  0  0  0  0  0  0
   -7.7843   19.1662  -32.4685 H   0  0  0  0  0  0  0  0  0  0  0  0
   -5.5630   20.3530  -32.3371 H   0  0  0  0  0  0  0  0  0  0  0  0
  1  2  1  0
  2  3  1  0
  3  4  1  0
  4  5  1  0
  5  6  1  0
  6  7  1  0
  7  8  1  0
  8  9  2  0
  9 10  1  0
 10 11  2  0
 11 12  1  0
 12 13  2  0
 13 14  1  0
 14 15  1  0
  4 16  2  0
 16 17  1  0
 17 18  2  0
 18 19  1  0
 19 20  2  0
 20 21  1  0
 21 22  2  0
 22  3  1  0
 13  8  1  0
 22 17  1  0
  1 23  1  0
  1 24  1  0
  1 25  1  0
  2 26  1  0
  2 27  1  0
  5 28  1  0
  5 29  1  0
  6 30  1  0
  7 31  1  0
  7 32  1  0
  9 33  1  0
 10 34  1  0
 11 35  1  0
 12 36  1  0
 15 37  1  0
 15 38  1  0
 15 39  1  0
 18 40  1  0
 19 41  1  0
 20 42  1  0
 21 43  1  0
M  END
>  <UniqueID>  (12) 
12

>  <SMILES>  (12) 
CCn1c(CNCc2ccccc2OC)nc2ccccc21

>  <Energy>  (12) 
75.7243474167301

>  <Genealogy>  (12) 
CCn1c(CNCc2ccccc2OC)nc2ccccc21 (3D coordinates assigned)
CCn1c(CNCc2ccccc2OC)nc2ccccc21 (optimized conformer: 75.7243474167301 kcal/mol)

>  <smiles>  (12) 
CCn1c(CNCc2ccccc2OC)nc2ccccc21

>  <score_type>  (12) 
oracle

>  <origin>  (12) 
adg

>  <m_score__min__energy>  (12) 
-8.6199999999999992

>  <m_primary>  (12) 
energy

$$$$
12:0
     RDKit          3D

 46 48  0  0  0  0  0  0  0  0999 V2000
   -6.8340   24.6040  -30.1430 C   0  0  0  0  0  0  0  0  0  0  0  0
   -5.6320   25.5350  -30.0660 C   0  0  0  0  0  0  0  0  0  0  0  0
   -4.4910   24.9330  -30.7650 N   0  0  0  0  0  0  0  0  0  0  0  0
   -4.7440   23.5470  -31.1950 C   0  0  0  0  0  0  0  0  0  0  0  0
   -3.4770   22.7540  -31.6320 C   0  0  0  0  0  0  0  0  0  0  0  0
   -3.6170   22.2950  -33.1170 C   0  0  0  0  0  0  0  0  0  0  0  0
   -3.7430   20.7730  -33.2980 C   0  0  0  0  0  0  0  0  0  0  0  0
   -4.5360   20.1830  -32.2150 N   0  0  0  0  0  0  0  0  0  0  0  0
   -5.6900   19.3890  -32.5220 C   0  0  0  0  0  0  0  0  0  0  0  0
   -6.9570   19.9320  -32.2820 C   0  0  0  0  0  0  0  0  0  0  0  0
   -8.1030   19.1870  -32.5710 C   0  0  0  0  0  0  0  0  0  0  0  0
   -9.4600   19.7620  -32.3200 C   0  0  0  0  0  0  0  0  0  0  0  0
   -7.9830   17.9370  -33.0890 N   0  0  0  0  0  0  0  0  0  0  0  0
   -6.7730   17.3720  -33.3400 C   0  0  0  0  0  0  0  0  0  0  0  0
   -6.7150   16.0810  -33.8750 C   0  0  0  0  0  0  0  0  0  0  0  0
   -5.4810   15.4850  -34.1400 C   0  0  0  0  0  0  0  0  0  0  0  0
   -4.2990   16.1770  -33.8730 C   0  0  0  0  0  0  0  0  0  0  0  0
   -4.3370   17.4680  -33.3380 C   0  0  0  0  0  0  0  0  0  0  0  0
   -3.1580   18.0950  -33.0980 F   0  0  0  0  0  0  0  0  0  0  0  0
   -5.5780   18.0860  -33.0630 C   0  0  0  0  0  0  0  0  0  0  0  0
   -4.2130   20.4640  -30.8100 C   0  0  0  0  0  0  0  0  0  0  0  0
   -3.1480   21.5610  -30.7020 C   0  0  0  0  0  0  0  0  0  0  0  0
   -7.1650   24.3476  -29.1258 H   0  0  0  0  0  0  0  0  0  0  0  0
   -7.6528   25.1059  -30.6794 H   0  0  0  0  0  0  0  0  0  0  0  0
   -6.5528   23.6858  -30.6794 H   0  0  0  0  0  0  0  0  0  0  0  0
   -5.8837   26.4961  -30.5382 H   0  0  0  0  0  0  0  0  0  0  0  0
   -5.3664   25.6984  -29.0111 H   0  0  0  0  0  0  0  0  0  0  0  0
   -4.2110   25.5260  -31.5790 H   0  0  0  0  0  0  0  0  0  0  0  0
   -5.2114   23.0092  -30.3569 H   0  0  0  0  0  0  0  0  0  0  0  0
   -5.3884   23.6128  -32.0840 H   0  0  0  0  0  0  0  0  0  0  0  0
   -2.6225   23.4412  -31.5452 H   0  0  0  0  0  0  0  0  0  0  0  0
   -4.5150   22.7682  -33.5410 H   0  0  0  0  0  0  0  0  0  0  0  0
   -2.6924   22.5985  -33.6298 H   0  0  0  0  0  0  0  0  0  0  0  0
   -4.2342   20.5638  -34.2597 H   0  0  0  0  0  0  0  0  0  0  0  0
   -2.7358   20.3313  -33.2780 H   0  0  0  0  0  0  0  0  0  0  0  0
   -7.0508   20.9458  -31.8656 H   0  0  0  0  0  0  0  0  0  0  0  0
   -9.6325   19.8351  -31.2361 H   0  0  0  0  0  0  0  0  0  0  0  0
   -9.5226   20.7640  -32.7696 H   0  0  0  0  0  0  0  0  0  0  0  0
  -10.2234   19.1100  -32.7696 H   0  0  0  0  0  0  0  0  0  0  0  0
   -7.6451   15.5335  -34.0876 H   0  0  0  0  0  0  0  0  0  0  0  0
   -5.4402   14.4690  -34.5596 H   0  0  0  0  0  0  0  0  0  0  0  0
   -3.3294   15.7028  -34.0852 H   0  0  0  0  0  0  0  0  0  0  0  0
   -5.1243   20.7945  -30.2902 H   0  0  0  0  0  0  0  0  0  0  0  0
   -3.8194   19.5458  -30.3496 H   0  0  0  0  0  0  0  0  0  0  0  0
   -3.1045   21.9178  -29.6624 H   0  0  0  0  0  0  0  0  0  0  0  0
   -2.1797   21.1378  -31.0076 H   0  0  0  0  0  0  0  0  0  0  0  0
  1  2  1  0
  2  3  1  0
  3  4  1  0
  4  5  1  0
  5  6  1  0
  6  7  1  0
  7  8  1  0
  8  9  1  0
  9 10  2  0
 10 11  1  0
 11 12  1  0
 11 13  2  0
 13 14  1  0
 14 15  2  0
 15 16  1  0
 16 17  2  0
 17 18  1  0
 18 19  1  0
 18 20  2  0
  8 21  1  0
 21 22  1  0
 22  5  1  0
 20  9  1  0
 20 14  1  0
  1 23  1  0
  1 24  1  0
  1 25  1  0
  2 26  1  0
  2 27  1  0
  3 28  1  0
  4 29  1  0
  4 30  1  0
  5 31  1  0
  6 32  1  0
  6 33  1  0
  7 34  1  0
  7 35  1  0
 10 36  1  0
 12 37  1  0
 12 38  1  0
 12 39  1  0
 15 40  1  0
 16 41  1  0
 17 42  1  0
 21 43  1  0
 21 44  1  0
 22 45  1  0
 22 46  1  0
M  END
>  <UniqueID>  (13) 
13

>  <SMILES>  (13) 
CCNCC1CCN(c2cc(C)nc3cccc(F)c23)CC1

>  <Energy>  (13) 
57.63934104975465

>  <Genealogy>  (13) 
CCNCC1CCN(c2cc(C)nc3cccc(F)c23)CC1 (3D coordinates assigned)
CCNCC1CCN(c2cc(C)nc3cccc(F)c23)CC1 (nonaromatic ring conformer: 57.63934104975465 kcal/mol)

>  <smiles>  (13) 
CCNCC1CCN(c2cc(C)nc3cccc(F)c23)CC1

>  <score_type>  (13) 
oracle

>  <origin>  (13) 
adg

>  <m_score__min__energy>  (13) 
-7.6399999999999997

>  <m_primary>  (13) 
energy

$$$$
13:0
     RDKit          3D

 67 71  0  0  0  0  0  0  0  0999 V2000
   -0.0030   23.4210  -25.0640 C   0  0  0  0  0  0  0  0  0  0  0  0
   -0.3990   24.1650  -26.2590 N   0  0  0  0  0  0  0  0  0  0  0  0
    0.1290   25.3180  -26.7520 C   0  0  0  0  0  0  0  0  0  0  0  0
    1.3380   26.0080  -26.1870 C   0  0  0  0  0  0  0  0  0  0  0  0
    0.9390   27.2190  -25.4380 N   0  0  0  0  0  0  0  0  0  0  0  0
   -0.5050   27.4760  -25.5580 C   0  0  0  0  0  0  0  0  0  0  0  0
   -1.2040   26.8200  -24.3730 C   0  0  0  0  0  0  0  0  0  0  0  0
   -0.1020   26.4780  -23.3900 C   0  0  0  0  0  0  0  0  0  0  0  0
    1.1700   27.0470  -23.9980 C   0  0  0  0  0  0  0  0  0  0  0  0
   -0.5350   25.7930  -27.8390 N   0  0  0  0  0  0  0  0  0  0  0  0
   -1.5240   24.8970  -28.0060 C   0  0  0  0  0  0  0  0  0  0  0  0
   -2.5190   24.9060  -28.9800 C   0  0  0  0  0  0  0  0  0  0  0  0
   -3.4710   23.8640  -28.9600 C   0  0  0  0  0  0  0  0  0  0  0  0
   -4.7410   23.8060  -30.1820 S   0  0  0  0  0  0  0  0  0  0  0  0
   -6.0820   23.8720  -29.5050 O   0  0  0  0  0  0  0  0  0  0  0  0
   -4.6130   24.9940  -31.0930 O   0  0  0  0  0  0  0  0  0  0  0  0
   -4.6400   22.3010  -31.1530 C   0  0  0  0  0  0  0  0  0  0  0  0
   -4.6400   22.6100  -32.6650 C   0  0  0  0  0  0  0  0  0  0  0  0
   -4.0960   21.4340  -33.4980 C   0  0  0  0  0  0  0  0  0  0  0  0
   -4.2350   20.1650  -32.7540 N   0  0  0  0  0  0  0  0  0  0  0  0
   -3.9790   18.9940  -33.6190 C   0  0  0  0  0  0  0  0  0  0  0  0
   -5.2950   18.3640  -34.0930 C   0  0  0  0  0  0  0  0  0  0  0  0
   -6.4550   18.8050  -33.2340 C   0  0  0  0  0  0  0  0  0  0  0  0
   -7.0790   20.0400  -33.4830 C   0  0  0  0  0  0  0  0  0  0  0  0
   -8.1800   20.4410  -32.7220 C   0  0  0  0  0  0  0  0  0  0  0  0
   -8.6750   19.6100  -31.7140 C   0  0  0  0  0  0  0  0  0  0  0  0
   -8.0700   18.3770  -31.4650 C   0  0  0  0  0  0  0  0  0  0  0  0
   -6.9660   17.9700  -32.2220 C   0  0  0  0  0  0  0  0  0  0  0  0
   -6.4000   16.7630  -31.9680 F   0  0  0  0  0  0  0  0  0  0  0  0
   -3.3400   20.1550  -31.5740 C   0  0  0  0  0  0  0  0  0  0  0  0
   -3.4010   21.4770  -30.7740 C   0  0  0  0  0  0  0  0  0  0  0  0
   -3.4000   22.8590  -27.9640 C   0  0  0  0  0  0  0  0  0  0  0  0
   -2.3820   22.8820  -26.9950 C   0  0  0  0  0  0  0  0  0  0  0  0
   -1.4530   23.9220  -27.0550 C   0  0  0  0  0  0  0  0  0  0  0  0
   -0.3019   23.9826  -24.1666 H   0  0  0  0  0  0  0  0  0  0  0  0
   -0.4974   22.4384  -25.0632 H   0  0  0  0  0  0  0  0  0  0  0  0
    1.0882   23.2824  -25.0632 H   0  0  0  0  0  0  0  0  0  0  0  0
    1.8641   25.3198  -25.5091 H   0  0  0  0  0  0  0  0  0  0  0  0
    1.9993   26.3030  -27.0151 H   0  0  0  0  0  0  0  0  0  0  0  0
   -0.6927   28.5598  -25.5480 H   0  0  0  0  0  0  0  0  0  0  0  0
   -0.8880   27.0623  -26.5025 H   0  0  0  0  0  0  0  0  0  0  0  0
   -1.9229   27.5167  -23.9172 H   0  0  0  0  0  0  0  0  0  0  0  0
   -1.7706   25.9275  -24.6770 H   0  0  0  0  0  0  0  0  0  0  0  0
   -0.3014   26.9400  -22.4118 H   0  0  0  0  0  0  0  0  0  0  0  0
   -0.0258   25.3938  -23.2208 H   0  0  0  0  0  0  0  0  0  0  0  0
    1.4033   28.0183  -23.5374 H   0  0  0  0  0  0  0  0  0  0  0  0
    2.0177   26.3684  -23.8224 H   0  0  0  0  0  0  0  0  0  0  0  0
   -2.5618   25.6996  -29.7405 H   0  0  0  0  0  0  0  0  0  0  0  0
   -5.5341   21.7024  -30.9247 H   0  0  0  0  0  0  0  0  0  0  0  0
   -5.6712   22.8227  -32.9833 H   0  0  0  0  0  0  0  0  0  0  0  0
   -3.9830   23.4761  -32.8332 H   0  0  0  0  0  0  0  0  0  0  0  0
   -4.6608   21.3654  -34.4394 H   0  0  0  0  0  0  0  0  0  0  0  0
   -3.0303   21.6090  -33.7070 H   0  0  0  0  0  0  0  0  0  0  0  0
   -3.3971   19.3145  -34.4957 H   0  0  0  0  0  0  0  0  0  0  0  0
   -3.4201   18.2448  -33.0391 H   0  0  0  0  0  0  0  0  0  0  0  0
   -5.4835   18.6680  -35.1332 H   0  0  0  0  0  0  0  0  0  0  0  0
   -5.2033   17.2704  -34.0176 H   0  0  0  0  0  0  0  0  0  0  0  0
   -6.6983   20.6941  -34.2813 H   0  0  0  0  0  0  0  0  0  0  0  0
   -8.6578   21.4125  -32.9168 H   0  0  0  0  0  0  0  0  0  0  0  0
   -9.5421   19.9276  -31.1162 H   0  0  0  0  0  0  0  0  0  0  0  0
   -8.4622   17.7237  -30.6717 H   0  0  0  0  0  0  0  0  0  0  0  0
   -3.6376   19.3281  -30.9124 H   0  0  0  0  0  0  0  0  0  0  0  0
   -2.3091   20.0310  -31.9371 H   0  0  0  0  0  0  0  0  0  0  0  0
   -3.4402   21.2443  -29.6996 H   0  0  0  0  0  0  0  0  0  0  0  0
   -2.5044   22.0685  -31.0113 H   0  0  0  0  0  0  0  0  0  0  0  0
   -4.1485   22.0531  -27.9488 H   0  0  0  0  0  0  0  0  0  0  0  0
   -2.3196   22.1074  -26.2165 H   0  0  0  0  0  0  0  0  0  0  0  0
  1  2  1  0
  2  3  1  0
  3  4  1  0
  4  5  1  0
  5  6  1  0
  6  7  1  0
  7  8  1  0
  8  9  1  0
  3 10  2  0
 10 11  1  0
 11 12  2  0
 12 13  1  0
 13 14  1  0
 14 15  2  0
 14 16  2  0
 14 17  1  0
 17 18  1  0
 18 19  1  0
 19 20  1  0
 20 21  1  0
 21 22  1  0
 22 23  1  0
 23 24  2  0
 24 25  1  0
 25 26  2  0
 26 27  1  0
 27 28  2  0
 28 29  1  0
 20 30  1  0
 30 31  1  0
 13 32  2  0
 32 33  1  0
 33 34  2  0
 34  2  1  0
  9  5  1  0
 34 11  1  0
 31 17  1  0
 28 23  1  0
  1 35  1  0
  1 36  1  0
  1 37  1  0
  4 38  1  0
  4 39  1  0
  6 40  1  0
  6 41  1  0
  7 42  1  0
  7 43  1  0
  8 44  1  0
  8 45  1  0
  9 46  1  0
  9 47  1  0
 12 48  1  0
 17 49  1  0
 18 50  1  0
 18 51  1  0
 19 52  1  0
 19 53  1  0
 21 54  1  0
 21 55  1  0
 22 56  1  0
 22 57  1  0
 24 58  1  0
 25 59  1  0
 26 60  1  0
 27 61  1  0
 30 62  1  0
 30 63  1  0
 31 64  1  0
 31 65  1  0
 32 66  1  0
 33 67  1  0
M  END
>  <UniqueID>  (14) 
14

>  <SMILES>  (14) 
Cn1c(CN2CCCC2)nc2cc(S(=O)(=O)C3CCN(CCc4ccccc4F)CC3)ccc21

>  <Energy>  (14) 
109.54839382869403

>  <Genealogy>  (14) 
Cn1c(CN2CCCC2)nc2cc(S(=O)(=O)C3CCN(CCc4ccccc4F)CC3)ccc21 (3D coordinates assigned)
Cn1c(CN2CCCC2)nc2cc(S(=O)(=O)C3CCN(CCc4ccccc4F)CC3)ccc21 (nonaromatic ring conformer: 109.54839382869403 kcal/mol)

>  <smiles>  (14) 
Cn1c(CN2CCCC2)nc2cc(S(=O)(=O)C3CCN(CCc4ccccc4F)CC3)ccc21

>  <score_type>  (14) 
oracle

>  <origin>  (14) 
adg

>  <m_score__min__energy>  (14) 
-11.109999999999999

>  <m_primary>  (14) 
energy

$$$$
14:0
     RDKit          3D

 49 52  0  0  0  0  0  0  0  0999 V2000
   -2.0530   24.7060  -28.4870 C   0  0  0  0  0  0  0  0  0  0  0  0
   -2.7340   24.9070  -29.7200 O   0  0  0  0  0  0  0  0  0  0  0  0
   -3.6030   23.9750  -30.3070 C   0  0  0  0  0  0  0  0  0  0  0  0
   -3.1670   22.6810  -30.6860 C   0  0  0  0  0  0  0  0  0  0  0  0
   -4.0930   21.8200  -31.2610 C   0  0  0  0  0  0  0  0  0  0  0  0
   -3.8850   20.5590  -31.6800 N   0  0  0  0  0  0  0  0  0  0  0  0
   -5.1050   20.1780  -32.1410 C   0  0  0  0  0  0  0  0  0  0  0  0
   -5.3440   18.8260  -32.6870 C   0  0  0  0  0  0  0  0  0  0  0  0
   -6.5060   18.1070  -32.3730 C   0  0  0  0  0  0  0  0  0  0  0  0
   -6.6920   16.8210  -32.8820 C   0  0  0  0  0  0  0  0  0  0  0  0
   -5.7070   16.2490  -33.7010 C   0  0  0  0  0  0  0  0  0  0  0  0
   -5.8800   14.9230  -34.2350 N   0  0  0  0  0  0  0  0  0  0  0  0
   -7.2200   14.4380  -34.5870 C   0  0  0  0  0  0  0  0  0  0  0  0
   -7.1920   12.9270  -34.8220 C   0  0  0  0  0  0  0  0  0  0  0  0
   -6.3240   12.3230  -33.8870 O   0  0  0  0  0  0  0  0  0  0  0  0
   -4.9740   12.6050  -34.2180 C   0  0  0  0  0  0  0  0  0  0  0  0
   -4.7100   14.0940  -34.5500 C   0  0  0  0  0  0  0  0  0  0  0  0
   -4.5690   16.9540  -33.9720 N   0  0  0  0  0  0  0  0  0  0  0  0
   -4.3700   18.2080  -33.4830 C   0  0  0  0  0  0  0  0  0  0  0  0
   -6.0450   21.1620  -32.0440 N   0  0  0  0  0  0  0  0  0  0  0  0
   -7.4410   21.1430  -32.4790 C   0  0  0  0  0  0  0  0  0  0  0  0
   -5.3880   22.1850  -31.4690 C   0  0  0  0  0  0  0  0  0  0  0  0
   -5.8640   23.4470  -31.1110 C   0  0  0  0  0  0  0  0  0  0  0  0
   -4.9530   24.3580  -30.5190 C   0  0  0  0  0  0  0  0  0  0  0  0
   -5.3460   25.6480  -30.1300 O   0  0  0  0  0  0  0  0  0  0  0  0
   -6.4590   25.9310  -29.2880 C   0  0  0  0  0  0  0  0  0  0  0  0
   -2.7395   24.9086  -27.6517 H   0  0  0  0  0  0  0  0  0  0  0  0
   -1.7008   23.6656  -28.4280 H   0  0  0  0  0  0  0  0  0  0  0  0
   -1.1923   25.3884  -28.4280 H   0  0  0  0  0  0  0  0  0  0  0  0
   -2.1244   22.3672  -30.5292 H   0  0  0  0  0  0  0  0  0  0  0  0
   -7.2721   18.5572  -31.7246 H   0  0  0  0  0  0  0  0  0  0  0  0
   -7.6064   16.2586  -32.6422 H   0  0  0  0  0  0  0  0  0  0  0  0
   -7.9155   14.6648  -33.7655 H   0  0  0  0  0  0  0  0  0  0  0  0
   -7.5509   14.9378  -35.5093 H   0  0  0  0  0  0  0  0  0  0  0  0
   -8.2056   12.5177  -34.6994 H   0  0  0  0  0  0  0  0  0  0  0  0
   -6.8348   12.7203  -35.8417 H   0  0  0  0  0  0  0  0  0  0  0  0
   -4.3412   12.3227  -33.3637 H   0  0  0  0  0  0  0  0  0  0  0  0
   -4.7392   12.0281  -35.1247 H   0  0  0  0  0  0  0  0  0  0  0  0
   -3.8511   14.4465  -33.9601 H   0  0  0  0  0  0  0  0  0  0  0  0
   -4.5019   14.1795  -35.6267 H   0  0  0  0  0  0  0  0  0  0  0  0
   -3.8130   16.5200  -34.5450 H   0  0  0  0  0  0  0  0  0  0  0  0
   -3.4363   18.7415  -33.7145 H   0  0  0  0  0  0  0  0  0  0  0  0
   -8.0995   21.1340  -31.5979 H   0  0  0  0  0  0  0  0  0  0  0  0
   -7.6490   22.0384  -33.0831 H   0  0  0  0  0  0  0  0  0  0  0  0
   -7.6246   20.2423  -33.0831 H   0  0  0  0  0  0  0  0  0  0  0  0
   -6.9139   23.7265  -31.2828 H   0  0  0  0  0  0  0  0  0  0  0  0
   -6.1513   25.8528  -28.2348 H   0  0  0  0  0  0  0  0  0  0  0  0
   -6.8214   26.9499  -29.4894 H   0  0  0  0  0  0  0  0  0  0  0  0
   -7.2641   25.2090  -29.4894 H   0  0  0  0  0  0  0  0  0  0  0  0
  1  2  1  0
  2  3  1  0
  3  4  2  0
  4  5  1  0
  5  6  1  0
  6  7  2  0
  7  8  1  0
  8  9  2  0
  9 10  1  0
 10 11  2  0
 11 12  1  0
 12 13  1  0
 13 14  1  0
 14 15  1  0
 15 16  1  0
 16 17  1  0
 11 18  1  0
 18 19  2  0
  7 20  1  0
 20 21  1  0
 20 22  1  0
 22 23  1  0
 23 24  2  0
 24 25  1  0
 25 26  1  0
 24  3  1  0
 22  5  2  0
 19  8  1  0
 17 12  1  0
  1 27  1  0
  1 28  1  0
  1 29  1  0
  4 30  1  0
  9 31  1  0
 10 32  1  0
 13 33  1  0
 13 34  1  0
 14 35  1  0
 14 36  1  0
 16 37  1  0
 16 38  1  0
 17 39  1  0
 17 40  1  0
 18 41  1  0
 19 42  1  0
 21 43  1  0
 21 44  1  0
 21 45  1  0
 23 46  1  0
 26 47  1  0
 26 48  1  0
 26 49  1  0
M  CHG  1  18   1
M  END
>  <UniqueID>  (15) 
15

>  <SMILES>  (15) 
COc1cc2nc(-c3ccc(N4CCOCC4)[nH+]c3)n(C)c2cc1OC

>  <Energy>  (15) 
103.42459088058197

>  <Genealogy>  (15) 
COc1cc2nc(-c3ccc(N4CCOCC4)[nH+]c3)n(C)c2cc1OC (protonated)
COc1cc2nc(-c3ccc(N4CCOCC4)[nH+]c3)n(C)c2cc1OC (3D coordinates assigned)
COc1cc2nc(-c3ccc(N4CCOCC4)[nH+]c3)n(C)c2cc1OC (nonaromatic ring conformer: 103.42459088058197 kcal/mol)

>  <smiles>  (15) 
COc1cc2nc(-c3ccc(N4CCOCC4)nc3)n(C)c2cc1OC

>  <score_type>  (15) 
oracle

>  <origin>  (15) 
adg

>  <m_score__min__energy>  (15) 
-6.6200000000000001

>  <m_primary>  (15) 
energy

$$$$
15:0
     RDKit          3D

 23 23  0  0  0  0  0  0  0  0999 V2000
   -6.4610   25.6500  -29.5290 C   0  0  0  0  0  0  0  0  0  0  0  0
   -6.4470   24.5610  -30.5040 N   0  0  0  0  0  0  0  0  0  0  0  0
   -7.5970   23.9420  -30.7900 N   0  0  0  0  0  0  0  0  0  0  0  0
   -7.6670   22.9230  -31.6890 C   0  0  0  0  0  0  0  0  0  0  0  0
   -8.9810   22.2440  -31.9430 C   0  0  0  0  0  0  0  0  0  0  0  0
   -8.9900   20.8420  -31.3200 C   0  0  0  0  0  0  0  0  0  0  0  0
   -9.1110   19.7430  -32.3780 C   0  0  0  0  0  0  0  0  0  0  0  0
   -7.5930   18.5340  -32.3270 Br  0  0  0  0  0  0  0  0  0  0  0  0
   -6.4990   22.4910  -32.3190 C   0  0  0  0  0  0  0  0  0  0  0  0
   -5.2950   23.1270  -32.0290 C   0  0  0  0  0  0  0  0  0  0  0  0
   -5.2810   24.1740  -31.1090 C   0  0  0  0  0  0  0  0  0  0  0  0
   -4.1930   24.7540  -30.8410 O   0  0  0  0  0  0  0  0  0  0  0  0
   -6.4556   25.2315  -28.5117 H   0  0  0  0  0  0  0  0  0  0  0  0
   -5.5709   26.2806  -29.6708 H   0  0  0  0  0  0  0  0  0  0  0  0
   -7.3670   26.2575  -29.6708 H   0  0  0  0  0  0  0  0  0  0  0  0
   -9.7898   22.8428  -31.4989 H   0  0  0  0  0  0  0  0  0  0  0  0
   -9.1301   22.1520  -33.0290 H   0  0  0  0  0  0  0  0  0  0  0  0
   -8.0533   20.6957  -30.7621 H   0  0  0  0  0  0  0  0  0  0  0  0
   -9.8647   20.7716  -30.6567 H   0  0  0  0  0  0  0  0  0  0  0  0
  -10.0311   19.1691  -32.1933 H   0  0  0  0  0  0  0  0  0  0  0  0
   -9.1385   20.2200  -33.3688 H   0  0  0  0  0  0  0  0  0  0  0  0
   -6.5294   21.6577  -33.0364 H   0  0  0  0  0  0  0  0  0  0  0  0
   -4.3646   22.8066  -32.5207 H   0  0  0  0  0  0  0  0  0  0  0  0
  1  2  1  0
  2  3  1  0
  3  4  2  0
  4  5  1  0
  5  6  1  0
  6  7  1  0
  7  8  1  0
  4  9  1  0
  9 10  2  0
 10 11  1  0
 11 12  2  0
 11  2  1  0
  1 13  1  0
  1 14  1  0
  1 15  1  0
  5 16  1  0
  5 17  1  0
  6 18  1  0
  6 19  1  0
  7 20  1  0
  7 21  1  0
  9 22  1  0
 10 23  1  0
M  END
>  <UniqueID>  (16) 
16

>  <SMILES>  (16) 
Cn1nc(CCCBr)ccc1=O

>  <Energy>  (16) 
16.73764259831929

>  <Genealogy>  (16) 
Cn1nc(CCCBr)ccc1=O (3D coordinates assigned)
Cn1nc(CCCBr)ccc1=O (optimized conformer: 16.73764259831929 kcal/mol)

>  <smiles>  (16) 
Cn1nc(CCCBr)ccc1=O

>  <score_type>  (16) 
oracle

>  <origin>  (16) 
adg

>  <m_score__min__energy>  (16) 
-6.1399999999999997

>  <m_primary>  (16) 
energy

$$$$
16:0
     RDKit          3D

 70 74  0  0  0  0  0  0  0  0999 V2000
   -9.2040   21.5170  -31.6750 C   0  0  0  0  0  0  0  0  0  0  0  0
   -8.3100   22.7270  -31.9410 C   0  0  0  0  0  0  0  0  0  0  0  0
   -7.2350   22.9220  -30.8590 C   0  0  0  0  0  0  0  0  0  0  0  0
   -5.8980   23.0950  -31.4570 N   0  0  0  0  0  0  0  0  0  0  0  0
   -5.5760   22.0220  -32.4130 C   0  0  0  0  0  0  0  0  0  0  0  0
   -4.0810   22.0220  -32.7710 C   0  0  0  0  0  0  0  0  0  0  0  0
   -3.2060   22.4760  -31.6680 N   0  0  0  0  0  0  0  0  0  0  0  0
   -2.2880   21.4330  -31.2260 C   0  0  0  0  0  0  0  0  0  0  0  0
   -1.3960   20.8200  -32.1580 C   0  0  0  0  0  0  0  0  0  0  0  0
   -1.3880   21.1590  -33.5380 C   0  0  0  0  0  0  0  0  0  0  0  0
   -0.4740   20.5930  -34.4220 C   0  0  0  0  0  0  0  0  0  0  0  0
    0.4630   19.6840  -33.9660 C   0  0  0  0  0  0  0  0  0  0  0  0
    0.4730   19.3120  -32.6270 C   0  0  0  0  0  0  0  0  0  0  0  0
   -0.4710   19.8390  -31.7070 C   0  0  0  0  0  0  0  0  0  0  0  0
   -0.4770   19.4310  -30.3920 N   0  0  0  0  0  0  0  0  0  0  0  0
    0.2500   18.2000  -30.0010 C   0  0  0  0  0  0  0  0  0  0  0  0
   -1.1810   20.1420  -29.4450 C   0  0  0  0  0  0  0  0  0  0  0  0
   -0.9040   19.9620  -28.0690 C   0  0  0  0  0  0  0  0  0  0  0  0
   -1.6510   20.5950  -27.0940 C   0  0  0  0  0  0  0  0  0  0  0  0
   -2.7140   21.4010  -27.4500 C   0  0  0  0  0  0  0  0  0  0  0  0
   -3.0200   21.6430  -28.8020 C   0  0  0  0  0  0  0  0  0  0  0  0
   -4.1620   22.4020  -29.1150 O   0  0  0  0  0  0  0  0  0  0  0  0
   -4.3800   23.7640  -28.7530 C   0  0  0  0  0  0  0  0  0  0  0  0
   -3.5840   24.6620  -29.6560 C   0  0  0  0  0  0  0  0  0  0  0  0
   -3.9630   24.8210  -30.8460 O   0  0  0  0  0  0  0  0  0  0  0  0
   -2.3610   25.2820  -29.2330 N   0  0  0  0  0  0  0  0  0  0  0  0
   -1.3670   24.6640  -28.4050 C   0  0  0  0  0  0  0  0  0  0  0  0
   -0.5030   23.7300  -28.9900 C   0  0  0  0  0  0  0  0  0  0  0  0
    0.4570   23.0710  -28.2220 C   0  0  0  0  0  0  0  0  0  0  0  0
    0.5890   23.3590  -26.8630 C   0  0  0  0  0  0  0  0  0  0  0  0
   -0.2250   24.3340  -26.2670 C   0  0  0  0  0  0  0  0  0  0  0  0
   -0.0630   24.6540  -24.9090 C   0  0  0  0  0  0  0  0  0  0  0  0
   -0.8440   25.6510  -24.3230 C   0  0  0  0  0  0  0  0  0  0  0  0
   -1.7860   26.3420  -25.0860 C   0  0  0  0  0  0  0  0  0  0  0  0
   -1.9630   26.0340  -26.4390 C   0  0  0  0  0  0  0  0  0  0  0  0
   -1.2020   25.0130  -27.0420 C   0  0  0  0  0  0  0  0  0  0  0  0
   -2.1840   21.0840  -29.8340 C   0  0  0  0  0  0  0  0  0  0  0  0
   -9.3113   21.3718  -30.5899 H   0  0  0  0  0  0  0  0  0  0  0  0
  -10.1946   21.6877  -32.1218 H   0  0  0  0  0  0  0  0  0  0  0  0
   -8.7498   20.6203  -32.1218 H   0  0  0  0  0  0  0  0  0  0  0  0
   -7.8110   22.5889  -32.9115 H   0  0  0  0  0  0  0  0  0  0  0  0
   -8.9514   23.6206  -31.9359 H   0  0  0  0  0  0  0  0  0  0  0  0
   -7.4809   23.8156  -30.2665 H   0  0  0  0  0  0  0  0  0  0  0  0
   -7.2170   22.0255  -30.2219 H   0  0  0  0  0  0  0  0  0  0  0  0
   -5.1960   23.0470  -30.6810 H   0  0  0  0  0  0  0  0  0  0  0  0
   -5.8368   21.0522  -31.9642 H   0  0  0  0  0  0  0  0  0  0  0  0
   -6.1532   22.1930  -33.3337 H   0  0  0  0  0  0  0  0  0  0  0  0
   -3.7897   20.9976  -33.0463 H   0  0  0  0  0  0  0  0  0  0  0  0
   -3.9487   22.7328  -33.6000 H   0  0  0  0  0  0  0  0  0  0  0  0
   -3.7740   22.7920  -30.8550 H   0  0  0  0  0  0  0  0  0  0  0  0
   -2.7350   23.3710  -31.9070 H   0  0  0  0  0  0  0  0  0  0  0  0
   -2.1216   21.8860  -33.9166 H   0  0  0  0  0  0  0  0  0  0  0  0
   -0.4971   20.8696  -35.4864 H   0  0  0  0  0  0  0  0  0  0  0  0
    1.1994   19.2560  -34.6621 H   0  0  0  0  0  0  0  0  0  0  0  0
    1.2278   18.5945  -32.2728 H   0  0  0  0  0  0  0  0  0  0  0  0
    0.2907   18.1310  -28.9039 H   0  0  0  0  0  0  0  0  0  0  0  0
   -0.2739   17.3210  -30.4044 H   0  0  0  0  0  0  0  0  0  0  0  0
    1.2728   18.2344  -30.4044 H   0  0  0  0  0  0  0  0  0  0  0  0
   -0.0756   19.3035  -27.7689 H   0  0  0  0  0  0  0  0  0  0  0  0
   -1.3983   20.4565  -26.0324 H   0  0  0  0  0  0  0  0  0  0  0  0
   -3.3314   21.8612  -26.6644 H   0  0  0  0  0  0  0  0  0  0  0  0
   -5.4495   24.0017  -28.8514 H   0  0  0  0  0  0  0  0  0  0  0  0
   -4.0610   23.9195  -27.7118 H   0  0  0  0  0  0  0  0  0  0  0  0
   -0.5822   23.5139  -30.0657 H   0  0  0  0  0  0  0  0  0  0  0  0
    1.1125   22.3214  -28.6894 H   0  0  0  0  0  0  0  0  0  0  0  0
    1.3329   22.8204  -26.2576 H   0  0  0  0  0  0  0  0  0  0  0  0
    0.6827   24.1164  -24.3048 H   0  0  0  0  0  0  0  0  0  0  0  0
   -0.7168   25.8926  -23.2574 H   0  0  0  0  0  0  0  0  0  0  0  0
   -2.3926   27.1331  -24.6211 H   0  0  0  0  0  0  0  0  0  0  0  0
   -2.7001   26.5918  -27.0352 H   0  0  0  0  0  0  0  0  0  0  0  0
  1  2  1  0
  2  3  1  0
  3  4  1  0
  4  5  1  0
  5  6  1  0
  6  7  1  0
  7  8  1  0
  8  9  2  0
  9 10  1  0
 10 11  2  0
 11 12  1  0
 12 13  2  0
 13 14  1  0
 14 15  2  0
 15 16  1  0
 15 17  1  0
 17 18  2  0
 18 19  1  0
 19 20  2  0
 20 21  1  0
 21 22  1  0
 22 23  1  0
 23 24  1  0
 24 25  2  0
 24 26  1  0
 26 27  1  0
 27 28  2  0
 28 29  1  0
 29 30  2  0
 30 31  1  0
 31 32  2  0
 32 33  1  0
 33 34  2  0
 34 35  1  0
 35 36  2  0
 21 37  2  0
 37  8  1  0
 14  9  1  0
 37 17  1  0
 36 27  1  0
 36 31  1  0
  1 38  1  0
  1 39  1  0
  1 40  1  0
  2 41  1  0
  2 42  1  0
  3 43  1  0
  3 44  1  0
  4 45  1  0
  5 46  1  0
  5 47  1  0
  6 48  1  0
  6 49  1  0
  7 50  1  0
  7 51  1  0
 10 52  1  0
 11 53  1  0
 12 54  1  0
 13 55  1  0
 16 56  1  0
 16 57  1  0
 16 58  1  0
 18 59  1  0
 19 60  1  0
 20 61  1  0
 23 62  1  0
 23 63  1  0
 28 64  1  0
 29 65  1  0
 30 66  1  0
 32 67  1  0
 33 68  1  0
 34 69  1  0
 35 70  1  0
M  CHG  3   7   1  15   1  26  -1
M  END
>  <UniqueID>  (17) 
17

>  <SMILES>  (17) 
CCCNCC[NH2+]c1c2ccccc2[n+](C)c2cccc(OCC(=O)[N-]c3cccc4ccccc34)c12

>  <Energy>  (17) 
116.5945987977808

>  <Genealogy>  (17) 
CCCNCC[NH2+]c1c2ccccc2[n+](C)c2cccc(OCC(=O)[N-]c3cccc4ccccc34)c12 (protonated)
CCCNCC[NH2+]c1c2ccccc2[n+](C)c2cccc(OCC(=O)[N-]c3cccc4ccccc34)c12 (3D coordinates assigned)
CCCNCC[NH2+]c1c2ccccc2[n+](C)c2cccc(OCC(=O)[N-]c3cccc4ccccc34)c12 (optimized conformer: 116.5945987977808 kcal/mol)

>  <smiles>  (17) 
CCCNCCNc1c2ccccc2[n+](C)c2cccc(OCC(=O)Nc3cccc4ccccc34)c12

>  <score_type>  (17) 
oracle

>  <origin>  (17) 
adg

>  <m_score__min__energy>  (17) 
-10.92

>  <m_primary>  (17) 
energy

$$$$
17:0
     RDKit          3D

 78 81  0  0  0  0  0  0  0  0999 V2000
   -2.0640   20.1630  -28.2900 C   0  0  0  0  0  0  0  0  0  0  0  0
   -0.9680   20.0610  -29.3530 C   0  0  0  0  0  0  0  0  0  0  0  0
   -1.3420   20.8180  -30.5600 N   0  0  0  0  0  0  0  0  0  0  0  0
   -0.5530   20.3950  -31.7260 C   0  0  0  0  0  0  0  0  0  0  0  0
   -0.9220   21.2220  -32.9680 C   0  0  0  0  0  0  0  0  0  0  0  0
   -1.9270   20.5270  -33.9020 C   0  0  0  0  0  0  0  0  0  0  0  0
   -3.3920   20.7130  -33.4510 C   0  0  0  0  0  0  0  0  0  0  0  0
   -3.5060   20.8290  -31.9830 N   0  0  0  0  0  0  0  0  0  0  0  0
   -4.8830   21.0490  -31.5460 C   0  0  0  0  0  0  0  0  0  0  0  0
   -5.8670   20.0570  -31.7950 C   0  0  0  0  0  0  0  0  0  0  0  0
   -5.5070   18.7130  -32.0620 C   0  0  0  0  0  0  0  0  0  0  0  0
   -6.4710   17.7610  -32.3870 C   0  0  0  0  0  0  0  0  0  0  0  0
   -7.8050   18.1270  -32.4770 C   0  0  0  0  0  0  0  0  0  0  0  0
   -8.1910   19.4360  -32.2020 C   0  0  0  0  0  0  0  0  0  0  0  0
   -7.2440   20.4150  -31.7980 C   0  0  0  0  0  0  0  0  0  0  0  0
   -7.6340   21.6970  -31.4620 N   0  0  0  0  0  0  0  0  0  0  0  0
   -9.0720   22.0050  -31.2670 C   0  0  0  0  0  0  0  0  0  0  0  0
   -6.6860   22.6740  -31.2320 C   0  0  0  0  0  0  0  0  0  0  0  0
   -7.0460   24.0390  -31.1350 C   0  0  0  0  0  0  0  0  0  0  0  0
   -6.1220   24.9990  -30.7440 C   0  0  0  0  0  0  0  0  0  0  0  0
   -4.8390   24.6190  -30.3780 C   0  0  0  0  0  0  0  0  0  0  0  0
   -4.4220   23.2870  -30.5160 C   0  0  0  0  0  0  0  0  0  0  0  0
   -3.2270   22.8650  -29.8320 N   0  0  0  0  0  0  0  0  0  0  0  0
   -2.3130   23.7790  -29.1420 C   0  0  0  0  0  0  0  0  0  0  0  0
   -2.2160   23.4660  -27.6400 C   0  0  0  0  0  0  0  0  0  0  0  0
   -1.0050   24.1570  -26.9650 C   0  0  0  0  0  0  0  0  0  0  0  0
   -1.3440   25.2630  -26.0120 N   0  0  0  0  0  0  0  0  0  0  0  0
   -2.8220   25.4350  -25.9410 C   0  0  0  0  0  0  0  0  0  0  0  0
   -0.8260   24.8670  -24.6620 C   0  0  0  0  0  0  0  0  0  0  0  0
   -0.5060   26.0720  -23.7490 C   0  0  0  0  0  0  0  0  0  0  0  0
   -1.2500   27.2080  -24.1210 O   0  0  0  0  0  0  0  0  0  0  0  0
   -0.8280   27.6650  -25.3910 C   0  0  0  0  0  0  0  0  0  0  0  0
   -0.6890   26.5310  -26.4430 C   0  0  0  0  0  0  0  0  0  0  0  0
   -5.3120   22.3300  -31.0940 C   0  0  0  0  0  0  0  0  0  0  0  0
   -1.6093   20.1207  -27.2893 H   0  0  0  0  0  0  0  0  0  0  0  0
   -2.6021   21.1151  -28.4083 H   0  0  0  0  0  0  0  0  0  0  0  0
   -2.7685   19.3265  -28.4083 H   0  0  0  0  0  0  0  0  0  0  0  0
   -0.0312   20.4696  -28.9462 H   0  0  0  0  0  0  0  0  0  0  0  0
   -0.8364   19.0034  -29.6252 H   0  0  0  0  0  0  0  0  0  0  0  0
   -1.1260   21.8300  -30.3850 H   0  0  0  0  0  0  0  0  0  0  0  0
    0.5160   20.5326  -31.5064 H   0  0  0  0  0  0  0  0  0  0  0  0
   -0.7702   19.3365  -31.9317 H   0  0  0  0  0  0  0  0  0  0  0  0
   -1.3609   22.1734  -32.6330 H   0  0  0  0  0  0  0  0  0  0  0  0
    0.0042   21.3645  -33.5441 H   0  0  0  0  0  0  0  0  0  0  0  0
   -1.8148   20.9459  -34.9129 H   0  0  0  0  0  0  0  0  0  0  0  0
   -1.7084   19.4492  -33.8798 H   0  0  0  0  0  0  0  0  0  0  0  0
   -3.7926   21.6278  -33.9122 H   0  0  0  0  0  0  0  0  0  0  0  0
   -3.9614   19.8268  -33.7681 H   0  0  0  0  0  0  0  0  0  0  0  0
   -3.1180   19.9750  -31.5230 H   0  0  0  0  0  0  0  0  0  0  0  0
   -2.8670   21.5980  -31.7150 H   0  0  0  0  0  0  0  0  0  0  0  0
   -4.4490   18.4162  -32.0119 H   0  0  0  0  0  0  0  0  0  0  0  0
   -6.1734   16.7184  -32.5723 H   0  0  0  0  0  0  0  0  0  0  0  0
   -8.5603   17.3815  -32.7664 H   0  0  0  0  0  0  0  0  0  0  0  0
   -9.2498   19.7178  -32.2994 H   0  0  0  0  0  0  0  0  0  0  0  0
   -9.2941   22.0526  -30.1907 H   0  0  0  0  0  0  0  0  0  0  0  0
   -9.3060   22.9736  -31.7328 H   0  0  0  0  0  0  0  0  0  0  0  0
   -9.6822   21.2172  -31.7328 H   0  0  0  0  0  0  0  0  0  0  0  0
   -8.0754   24.3449  -31.3734 H   0  0  0  0  0  0  0  0  0  0  0  0
   -6.4075   26.0611  -30.7245 H   0  0  0  0  0  0  0  0  0  0  0  0
   -4.1423   25.3693  -29.9759 H   0  0  0  0  0  0  0  0  0  0  0  0
   -3.0760   21.8370  -29.7310 H   0  0  0  0  0  0  0  0  0  0  0  0
   -1.3125   23.6870  -29.5899 H   0  0  0  0  0  0  0  0  0  0  0  0
   -2.7043   24.8010  -29.2530 H   0  0  0  0  0  0  0  0  0  0  0  0
   -3.1376   23.8105  -27.1480 H   0  0  0  0  0  0  0  0  0  0  0  0
   -2.0816   22.3794  -27.5339 H   0  0  0  0  0  0  0  0  0  0  0  0
   -0.4435   23.3911  -26.4099 H   0  0  0  0  0  0  0  0  0  0  0  0
   -0.4306   24.6239  -27.7787 H   0  0  0  0  0  0  0  0  0  0  0  0
   -3.1367   25.4716  -24.8876 H   0  0  0  0  0  0  0  0  0  0  0  0
   -3.1065   26.3723  -26.4415 H   0  0  0  0  0  0  0  0  0  0  0  0
   -3.3142   24.5881  -26.4415 H   0  0  0  0  0  0  0  0  0  0  0  0
   -1.5860   24.2457  -24.1656 H   0  0  0  0  0  0  0  0  0  0  0  0
    0.1162   24.3227  -24.8229 H   0  0  0  0  0  0  0  0  0  0  0  0
   -0.7502   25.8085  -22.7093 H   0  0  0  0  0  0  0  0  0  0  0  0
    0.5634   26.3093  -23.8497 H   0  0  0  0  0  0  0  0  0  0  0  0
   -1.5637   28.3945  -25.7606 H   0  0  0  0  0  0  0  0  0  0  0  0
    0.1700   28.1086  -25.2599 H   0  0  0  0  0  0  0  0  0  0  0  0
   -1.1523   26.8645  -27.3833 H   0  0  0  0  0  0  0  0  0  0  0  0
    0.3841   26.3245  -26.5691 H   0  0  0  0  0  0  0  0  0  0  0  0
  1  2  1  0
  2  3  1  0
  3  4  1  0
  4  5  1  0
  5  6  1  0
  6  7  1  0
  7  8  1  0
  8  9  1  0
  9 10  2  0
 10 11  1  0
 11 12  2  0
 12 13  1  0
 13 14  2  0
 14 15  1  0
 15 16  2  0
 16 17  1  0
 16 18  1  0
 18 19  2  0
 19 20  1  0
 20 21  2  0
 21 22  1  0
 22 23  1  0
 23 24  1  0
 24 25  1  0
 25 26  1  0
 26 27  1  0
 27 28  1  0
 27 29  1  0
 29 30  1  0
 30 31  1  0
 31 32  1  0
 32 33  1  0
 22 34  2  0
 34  9  1  0
 15 10  1  0
 34 18  1  0
 33 27  1  0
  1 35  1  0
  1 36  1  0
  1 37  1  0
  2 38  1  0
  2 39  1  0
  3 40  1  0
  4 41  1  0
  4 42  1  0
  5 43  1  0
  5 44  1  0
  6 45  1  0
  6 46  1  0
  7 47  1  0
  7 48  1  0
  8 49  1  0
  8 50  1  0
 11 51  1  0
 12 52  1  0
 13 53  1  0
 14 54  1  0
 17 55  1  0
 17 56  1  0
 17 57  1  0
 19 58  1  0
 20 59  1  0
 21 60  1  0
 23 61  1  0
 24 62  1  0
 24 63  1  0
 25 64  1  0
 25 65  1  0
 26 66  1  0
 26 67  1  0
 28 68  1  0
 28 69  1  0
 28 70  1  0
 29 71  1  0
 29 72  1  0
 30 73  1  0
 30 74  1  0
 32 75  1  0
 32 76  1  0
 33 77  1  0
 33 78  1  0
M  CHG  3   8   1  16   1  27   1
M  END
>  <UniqueID>  (18) 
18

>  <SMILES>  (18) 
CCNCCCC[NH2+]c1c2ccccc2[n+](C)c2cccc(NCCC[N+]3(C)CCOCC3)c12

>  <Energy>  (18) 
131.96315506749957

>  <Genealogy>  (18) 
CCNCCCC[NH2+]c1c2ccccc2[n+](C)c2cccc(NCCC[N+]3(C)CCOCC3)c12 (protonated)
CCNCCCC[NH2+]c1c2ccccc2[n+](C)c2cccc(NCCC[N+]3(C)CCOCC3)c12 (3D coordinates assigned)
CCNCCCC[NH2+]c1c2ccccc2[n+](C)c2cccc(NCCC[N+]3(C)CCOCC3)c12 (nonaromatic ring conformer: 131.96315506749957 kcal/mol)

>  <smiles>  (18) 
CCNCCCCNc1c2ccccc2[n+](C)c2cccc(NCCC[N+]3(C)CCOCC3)c12

>  <score_type>  (18) 
oracle

>  <origin>  (18) 
adg

>  <m_score__min__energy>  (18) 
-8.6300000000000008

>  <m_primary>  (18) 
energy

$$$$
18:0
     RDKit          3D

 35 36  0  0  0  0  0  0  0  0999 V2000
   -8.7130   18.5490  -31.4970 C   0  0  0  0  0  0  0  0  0  0  0  0
   -7.3600   17.8470  -31.6110 C   0  0  0  0  0  0  0  0  0  0  0  0
   -7.1830   17.1060  -32.9480 C   0  0  0  0  0  0  0  0  0  0  0  0
   -5.7290   17.0470  -33.4360 C   0  0  0  0  0  0  0  0  0  0  0  0
   -5.3780   18.2510  -34.7710 S   0  0  0  0  0  0  0  0  0  0  0  0
   -5.9200   19.6880  -33.8390 C   0  0  0  0  0  0  0  0  0  0  0  0
   -7.2040   20.0680  -33.7380 N   0  0  0  0  0  0  0  0  0  0  0  0
   -7.2530   21.1540  -32.9830 N   0  0  0  0  0  0  0  0  0  0  0  0
   -5.9810   21.4170  -32.6120 C   0  0  0  0  0  0  0  0  0  0  0  0
   -5.6210   22.5640  -31.7500 C   0  0  0  0  0  0  0  0  0  0  0  0
   -4.5320   22.4990  -30.8650 C   0  0  0  0  0  0  0  0  0  0  0  0
   -4.2230   23.5890  -30.0460 C   0  0  0  0  0  0  0  0  0  0  0  0
   -5.0040   24.7470  -30.0930 C   0  0  0  0  0  0  0  0  0  0  0  0
   -6.1020   24.8120  -30.9550 C   0  0  0  0  0  0  0  0  0  0  0  0
   -6.4150   23.7240  -31.7750 C   0  0  0  0  0  0  0  0  0  0  0  0
   -5.1150   20.5210  -33.1470 N   0  0  0  0  0  0  0  0  0  0  0  0
   -3.6660   20.4280  -32.9800 C   0  0  0  0  0  0  0  0  0  0  0  0
   -8.9689   18.6818  -30.4355 H   0  0  0  0  0  0  0  0  0  0  0  0
   -8.6583   19.5324  -31.9868 H   0  0  0  0  0  0  0  0  0  0  0  0
   -9.4855   17.9380  -31.9868 H   0  0  0  0  0  0  0  0  0  0  0  0
   -6.5642   18.6008  -31.5190 H   0  0  0  0  0  0  0  0  0  0  0  0
   -7.3072   17.0975  -30.8076 H   0  0  0  0  0  0  0  0  0  0  0  0
   -7.5495   16.0762  -32.8249 H   0  0  0  0  0  0  0  0  0  0  0  0
   -7.7518   17.6680  -33.7034 H   0  0  0  0  0  0  0  0  0  0  0  0
   -5.0642   17.2611  -32.5861 H   0  0  0  0  0  0  0  0  0  0  0  0
   -5.5579   16.0403  -33.8450 H   0  0  0  0  0  0  0  0  0  0  0  0
   -8.0330   19.6090  -34.1750 H   0  0  0  0  0  0  0  0  0  0  0  0
   -3.9197   21.5865  -30.8162 H   0  0  0  0  0  0  0  0  0  0  0  0
   -3.3627   23.5351  -29.3626 H   0  0  0  0  0  0  0  0  0  0  0  0
   -4.7548   25.6059  -29.4525 H   0  0  0  0  0  0  0  0  0  0  0  0
   -6.7210   25.7207  -30.9883 H   0  0  0  0  0  0  0  0  0  0  0  0
   -7.2871   23.7757  -32.4434 H   0  0  0  0  0  0  0  0  0  0  0  0
   -3.4207   20.4123  -31.9078 H   0  0  0  0  0  0  0  0  0  0  0  0
   -3.3009   19.5046  -33.4533 H   0  0  0  0  0  0  0  0  0  0  0  0
   -3.1858   21.2972  -33.4533 H   0  0  0  0  0  0  0  0  0  0  0  0
  1  2  1  0
  2  3  1  0
  3  4  1  0
  4  5  1  0
  5  6  1  0
  6  7  2  0
  7  8  1  0
  8  9  2  0
  9 10  1  0
 10 11  2  0
 11 12  1  0
 12 13  2  0
 13 14  1  0
 14 15  2  0
  9 16  1  0
 16 17  1  0
 16  6  1  0
 15 10  1  0
  1 18  1  0
  1 19  1  0
  1 20  1  0
  2 21  1  0
  2 22  1  0
  3 23  1  0
  3 24  1  0
  4 25  1  0
  4 26  1  0
  7 27  1  0
 11 28  1  0
 12 29  1  0
 13 30  1  0
 14 31  1  0
 15 32  1  0
 17 33  1  0
 17 34  1  0
 17 35  1  0
M  CHG  1   7   1
M  END
>  <UniqueID>  (19) 
19

>  <SMILES>  (19) 
CCCCSc1[nH+]nc(-c2ccccc2)n1C

>  <Energy>  (19) 
66.04829884423108

>  <Genealogy>  (19) 
CCCCSc1[nH+]nc(-c2ccccc2)n1C (protonated)
CCCCSc1[nH+]nc(-c2ccccc2)n1C (3D coordinates assigned)
CCCCSc1[nH+]nc(-c2ccccc2)n1C (optimized conformer: 66.04829884423108 kcal/mol)

>  <smiles>  (19) 
CCCCSc1nnc(-c2ccccc2)n1C

>  <score_type>  (19) 
oracle

>  <origin>  (19) 
adg

>  <m_score__min__energy>  (19) 
-6.5

>  <m_primary>  (19) 
energy

$$$$
19:0
     RDKit          3D

 69 70  0  0  0  0  0  0  0  0999 V2000
   -3.4700   18.5780  -26.0130 C   0  0  0  0  0  0  0  0  0  0  0  0
   -2.3100   19.2560  -26.7390 C   0  0  0  0  0  0  0  0  0  0  0  0
   -2.7560   20.4260  -27.3970 O   0  0  0  0  0  0  0  0  0  0  0  0
   -1.7520   21.4260  -27.4150 C   0  0  0  0  0  0  0  0  0  0  0  0
   -1.1280   21.5180  -28.8110 C   0  0  0  0  0  0  0  0  0  0  0  0
   -1.5220   22.7280  -29.4590 O   0  0  0  0  0  0  0  0  0  0  0  0
   -2.7980   22.9840  -29.9920 C   0  0  0  0  0  0  0  0  0  0  0  0
   -3.5940   21.9610  -30.5540 C   0  0  0  0  0  0  0  0  0  0  0  0
   -4.8110   22.2930  -31.1670 C   0  0  0  0  0  0  0  0  0  0  0  0
   -5.2750   23.5860  -31.1170 C   0  0  0  0  0  0  0  0  0  0  0  0
   -4.5440   24.6050  -30.5090 C   0  0  0  0  0  0  0  0  0  0  0  0
   -3.2840   24.3080  -29.9470 C   0  0  0  0  0  0  0  0  0  0  0  0
   -2.4880   25.2830  -29.3260 O   0  0  0  0  0  0  0  0  0  0  0  0
   -1.9880   25.2230  -27.9880 C   0  0  0  0  0  0  0  0  0  0  0  0
   -3.0130   24.5900  -27.0490 C   0  0  0  0  0  0  0  0  0  0  0  0
   -6.6340   23.7130  -31.6750 C   0  0  0  0  0  0  0  0  0  0  0  0
   -7.0950   22.2600  -31.8380 C   0  0  0  0  0  0  0  0  0  0  0  0
   -5.8310   21.3480  -31.7520 C   0  0  1  0  0  0  0  0  0  0  0  0
   -5.4440   20.8010  -33.0970 N   0  0  1  0  0  0  0  0  0  0  0  0
   -4.1890   19.9930  -33.1090 C   0  0  0  0  0  0  0  0  0  0  0  0
   -2.9230   20.7720  -33.4980 C   0  0  0  0  0  0  0  0  0  0  0  0
   -6.5460   20.0910  -33.8310 C   0  0  0  0  0  0  0  0  0  0  0  0
   -6.8620   18.6490  -33.3480 C   0  0  0  0  0  0  0  0  0  0  0  0
   -7.1760   18.6200  -31.9000 N   0  0  0  0  0  0  0  0  0  0  0  0
   -8.6420   18.5520  -31.6930 C   0  0  0  0  0  0  0  0  0  0  0  0
   -9.3400   19.7370  -32.3560 C   0  0  0  0  0  0  0  0  0  0  0  0
   -6.4740   17.5130  -31.1940 C   0  0  0  0  0  0  0  0  0  0  0  0
   -5.6780   16.6860  -32.2030 C   0  0  0  0  0  0  0  0  0  0  0  0
   -3.3229   18.6640  -24.9263 H   0  0  0  0  0  0  0  0  0  0  0  0
   -4.4145   19.0662  -26.2949 H   0  0  0  0  0  0  0  0  0  0  0  0
   -3.5081   17.5154  -26.2949 H   0  0  0  0  0  0  0  0  0  0  0  0
   -1.5329   19.5250  -26.0084 H   0  0  0  0  0  0  0  0  0  0  0  0
   -1.9016   18.5601  -27.4866 H   0  0  0  0  0  0  0  0  0  0  0  0
   -2.1992   22.3958  -27.1514 H   0  0  0  0  0  0  0  0  0  0  0  0
   -0.9699   21.1651  -26.6868 H   0  0  0  0  0  0  0  0  0  0  0  0
   -0.0320   21.4974  -28.7191 H   0  0  0  0  0  0  0  0  0  0  0  0
   -1.4756   20.6646  -29.4117 H   0  0  0  0  0  0  0  0  0  0  0  0
   -3.2621   20.9131  -30.5112 H   0  0  0  0  0  0  0  0  0  0  0  0
   -4.9444   25.6287  -30.4677 H   0  0  0  0  0  0  0  0  0  0  0  0
   -1.0676   24.6208  -27.9745 H   0  0  0  0  0  0  0  0  0  0  0  0
   -1.7830   26.2475  -27.6440 H   0  0  0  0  0  0  0  0  0  0  0  0
   -2.7166   24.7730  -26.0056 H   0  0  0  0  0  0  0  0  0  0  0  0
   -4.0022   25.0347  -27.2326 H   0  0  0  0  0  0  0  0  0  0  0  0
   -3.0584   23.5064  -27.2326 H   0  0  0  0  0  0  0  0  0  0  0  0
   -7.2929   24.2587  -30.9836 H   0  0  0  0  0  0  0  0  0  0  0  0
   -6.6570   24.2768  -32.6192 H   0  0  0  0  0  0  0  0  0  0  0  0
   -7.8007   21.9987  -31.0357 H   0  0  0  0  0  0  0  0  0  0  0  0
   -7.6034   22.1234  -32.8039 H   0  0  0  0  0  0  0  0  0  0  0  0
   -5.9642   20.4385  -31.1479 H   0  0  0  0  0  0  0  0  0  0  0  0
   -5.2090   21.6360  -33.6860 H   0  0  0  0  0  0  0  0  0  0  0  0
   -4.0394   19.5788  -32.1010 H   0  0  0  0  0  0  0  0  0  0  0  0
   -4.3260   19.2209  -33.8805 H   0  0  0  0  0  0  0  0  0  0  0  0
   -2.3973   21.0955  -32.5875 H   0  0  0  0  0  0  0  0  0  0  0  0
   -2.2620   20.1242  -34.0925 H   0  0  0  0  0  0  0  0  0  0  0  0
   -3.2034   21.6540  -34.0925 H   0  0  0  0  0  0  0  0  0  0  0  0
   -7.4623   20.6904  -33.7254 H   0  0  0  0  0  0  0  0  0  0  0  0
   -6.1950   19.9878  -34.8684 H   0  0  0  0  0  0  0  0  0  0  0  0
   -7.7265   18.2650  -33.9094 H   0  0  0  0  0  0  0  0  0  0  0  0
   -5.9741   18.0234  -33.5221 H   0  0  0  0  0  0  0  0  0  0  0  0
   -9.0247   17.6178  -32.1299 H   0  0  0  0  0  0  0  0  0  0  0  0
   -8.8468   18.5823  -30.6127 H   0  0  0  0  0  0  0  0  0  0  0  0
   -9.7362   20.4096  -31.5810 H   0  0  0  0  0  0  0  0  0  0  0  0
   -8.6195   20.2834  -32.9823 H   0  0  0  0  0  0  0  0  0  0  0  0
  -10.1672   19.3717  -32.9823 H   0  0  0  0  0  0  0  0  0  0  0  0
   -5.7887   17.9337  -30.4434 H   0  0  0  0  0  0  0  0  0  0  0  0
   -7.2142   16.8692  -30.6963 H   0  0  0  0  0  0  0  0  0  0  0  0
   -5.0122   15.9943  -31.6661 H   0  0  0  0  0  0  0  0  0  0  0  0
   -6.3715   16.1114  -32.8345 H   0  0  0  0  0  0  0  0  0  0  0  0
   -5.0773   17.3571  -32.8345 H   0  0  0  0  0  0  0  0  0  0  0  0
  1  2  1  0
  2  3  1  0
  3  4  1  0
  4  5  1  0
  5  6  1  0
  6  7  1  0
  7  8  2  0
  8  9  1  0
  9 10  2  0
 10 11  1  0
 11 12  2  0
 12 13  1  0
 13 14  1  0
 14 15  1  0
 10 16  1  0
 16 17  1  0
 17 18  1  0
 18 19  1  0
 19 20  1  0
 20 21  1  0
 19 22  1  0
 22 23  1  0
 23 24  1  0
 24 25  1  0
 25 26  1  0
 24 27  1  0
 27 28  1  0
 12  7  1  0
 18  9  1  0
  1 29  1  0
  1 30  1  0
  1 31  1  0
  2 32  1  0
  2 33  1  0
  4 34  1  0
  4 35  1  0
  5 36  1  0
  5 37  1  0
  8 38  1  0
 11 39  1  0
 14 40  1  0
 14 41  1  0
 15 42  1  0
 15 43  1  0
 15 44  1  0
 16 45  1  0
 16 46  1  0
 17 47  1  0
 17 48  1  0
 18 49  1  1
 19 50  1  6
 20 51  1  0
 20 52  1  0
 21 53  1  0
 21 54  1  0
 21 55  1  0
 22 56  1  0
 22 57  1  0
 23 58  1  0
 23 59  1  0
 25 60  1  0
 25 61  1  0
 26 62  1  0
 26 63  1  0
 26 64  1  0
 27 65  1  0
 27 66  1  0
 28 67  1  0
 28 68  1  0
 28 69  1  0
M  CHG  1  19   1
M  END
>  <UniqueID>  (20) 
20

>  <SMILES>  (20) 
CCOCCOc1cc2c(cc1OCC)CC[C@H]2[N@@H+](CC)CCN(CC)CC

>  <Energy>  (20) 
86.70613238496962

>  <Genealogy>  (20) 
CCOCCOc1cc2c(cc1OCC)CCC2[NH+](CC)CCN(CC)CC (protonated)
CCOCCOc1cc2c(cc1OCC)CC[C@H]2[N@@H+](CC)CCN(CC)CC (chirality)
CCOCCOc1cc2c(cc1OCC)CC[C@H]2[N@@H+](CC)CCN(CC)CC (3D coordinates assigned)
CCOCCOc1cc2c(cc1OCC)CC[C@H]2[N@@H+](CC)CCN(CC)CC (nonaromatic ring conformer: 86.70613238496962 kcal/mol)

>  <smiles>  (20) 
CCOCCOc1cc2c(cc1OCC)CCC2N(CC)CCN(CC)CC

>  <score_type>  (20) 
oracle

>  <origin>  (20) 
adg

>  <m_score__min__energy>  (20) 
-7.4699999999999998

>  <m_primary>  (20) 
energy

$$$$
