0:0
     RDKit          3D

 62 65  0  0  0  0  0  0  0  0999 V2000
   -3.1110   21.4870  -33.0920 C   0  0  0  0  0  0  0  0  0  0  0  0
   -4.0420   20.4290  -32.5220 C   0  0  0  0  0  0  0  0  0  0  0  0
   -5.3920   20.7970  -32.7870 O   0  0  0  0  0  0  0  0  0  0  0  0
   -6.5160   20.0180  -32.4600 C   0  0  0  0  0  0  0  0  0  0  0  0
   -6.5870   18.6480  -32.7770 C   0  0  0  0  0  0  0  0  0  0  0  0
   -7.6980   17.8910  -32.3980 C   0  0  0  0  0  0  0  0  0  0  0  0
   -8.7460   18.4880  -31.7000 C   0  0  0  0  0  0  0  0  0  0  0  0
   -8.6920   19.8470  -31.3860 C   0  0  0  0  0  0  0  0  0  0  0  0
   -7.5870   20.6240  -31.7690 C   0  0  0  0  0  0  0  0  0  0  0  0
   -7.5370   22.0220  -31.4250 N   0  0  0  0  0  0  0  0  0  0  0  0
   -7.5460   22.4330  -30.0180 C   0  0  0  0  0  0  0  0  0  0  0  0
   -7.0770   23.8900  -29.8800 C   0  0  0  0  0  0  0  0  0  0  0  0
   -5.9800   24.1950  -30.8240 N   0  0  0  0  0  0  0  0  0  0  0  0
   -4.7490   23.4310  -30.5130 C   0  0  0  0  0  0  0  0  0  0  0  0
   -3.5320   24.3740  -30.3950 C   0  0  1  0  0  0  0  0  0  0  0  0
   -3.8690   25.6630  -30.8450 O   0  0  0  0  0  0  0  0  0  0  0  0
   -2.9840   24.4550  -28.9530 C   0  0  0  0  0  0  0  0  0  0  0  0
   -1.5670   24.8230  -28.9180 N   0  0  0  0  0  0  0  0  0  0  0  0
   -0.4760   24.0880  -28.3450 C   0  0  0  0  0  0  0  0  0  0  0  0
    0.6220   24.6820  -28.1790 O   0  0  0  0  0  0  0  0  0  0  0  0
   -0.5780   22.6670  -27.9550 C   0  0  0  0  0  0  0  0  0  0  0  0
   -1.6450   22.1980  -27.1670 C   0  0  0  0  0  0  0  0  0  0  0  0
   -1.7430   20.8390  -26.8470 C   0  0  0  0  0  0  0  0  0  0  0  0
   -0.7620   19.9470  -27.2880 C   0  0  0  0  0  0  0  0  0  0  0  0
    0.3470   20.4210  -27.9990 C   0  0  0  0  0  0  0  0  0  0  0  0
    0.4400   21.7730  -28.3310 C   0  0  0  0  0  0  0  0  0  0  0  0
    1.3500   19.5220  -28.3760 O   0  0  0  0  0  0  0  0  0  0  0  0
    1.3960   18.1970  -27.8420 C   0  0  0  0  0  0  0  0  0  0  0  0
   -0.0240   17.6330  -27.6950 C   0  0  0  0  0  0  0  0  0  0  0  0
   -0.8640   18.5770  -27.0220 O   0  0  0  0  0  0  0  0  0  0  0  0
   -6.3970   24.0580  -32.2450 C   0  0  0  0  0  0  0  0  0  0  0  0
   -7.5510   23.0580  -32.4630 C   0  0  0  0  0  0  0  0  0  0  0  0
   -2.6296   22.0341  -32.2680 H   0  0  0  0  0  0  0  0  0  0  0  0
   -2.3406   21.0029  -33.7102 H   0  0  0  0  0  0  0  0  0  0  0  0
   -3.6891   22.1895  -33.7102 H   0  0  0  0  0  0  0  0  0  0  0  0
   -3.8267   19.4583  -32.9925 H   0  0  0  0  0  0  0  0  0  0  0  0
   -3.8884   20.3500  -31.4357 H   0  0  0  0  0  0  0  0  0  0  0  0
   -5.7623   18.1708  -33.3266 H   0  0  0  0  0  0  0  0  0  0  0  0
   -7.7458   16.8216  -32.6510 H   0  0  0  0  0  0  0  0  0  0  0  0
   -9.6164   17.8879  -31.3963 H   0  0  0  0  0  0  0  0  0  0  0  0
   -9.5217   20.3129  -30.8341 H   0  0  0  0  0  0  0  0  0  0  0  0
   -8.5678   22.3425  -29.6209 H   0  0  0  0  0  0  0  0  0  0  0  0
   -6.8609   21.7837  -29.4532 H   0  0  0  0  0  0  0  0  0  0  0  0
   -7.9244   24.5600  -30.0874 H   0  0  0  0  0  0  0  0  0  0  0  0
   -6.7040   24.0383  -28.8559 H   0  0  0  0  0  0  0  0  0  0  0  0
   -4.8862   22.8987  -29.5602 H   0  0  0  0  0  0  0  0  0  0  0  0
   -4.5628   22.7163  -31.3282 H   0  0  0  0  0  0  0  0  0  0  0  0
   -2.7382   23.9514  -31.0284 H   0  0  0  0  0  0  0  0  0  0  0  0
   -4.4270   25.5600  -31.6590 H   0  0  0  0  0  0  0  0  0  0  0  0
   -3.5596   25.2100  -28.3975 H   0  0  0  0  0  0  0  0  0  0  0  0
   -3.0848   23.4587  -28.4977 H   0  0  0  0  0  0  0  0  0  0  0  0
   -2.4059   22.9028  -26.8006 H   0  0  0  0  0  0  0  0  0  0  0  0
   -2.5910   20.4736  -26.2492 H   0  0  0  0  0  0  0  0  0  0  0  0
    1.3134   22.1410  -28.8893 H   0  0  0  0  0  0  0  0  0  0  0  0
    1.9743   17.5522  -28.5201 H   0  0  0  0  0  0  0  0  0  0  0  0
    1.8739   18.2264  -26.8517 H   0  0  0  0  0  0  0  0  0  0  0  0
   -0.4376   17.4255  -28.6929 H   0  0  0  0  0  0  0  0  0  0  0  0
    0.0176   16.7054  -27.1052 H   0  0  0  0  0  0  0  0  0  0  0  0
   -6.7203   25.0448  -32.6079 H   0  0  0  0  0  0  0  0  0  0  0  0
   -5.5285   23.6693  -32.7970 H   0  0  0  0  0  0  0  0  0  0  0  0
   -8.5091   23.5969  -32.4234 H   0  0  0  0  0  0  0  0  0  0  0  0
   -7.4252   22.5788  -33.4451 H   0  0  0  0  0  0  0  0  0  0  0  0
  1  2  1  0
  2  3  1  0
  3  4  1  0
  4  5  2  0
  5  6  1  0
  6  7  2  0
  7  8  1  0
  8  9  2  0
  9 10  1  0
 10 11  1  0
 11 12  1  0
 12 13  1  0
 13 14  1  0
 14 15  1  0
 15 16  1  0
 15 17  1  0
 17 18  1  0
 18 19  1  0
 19 20  2  0
 19 21  1  0
 21 22  2  0
 22 23  1  0
 23 24  2  0
 24 25  1  0
 25 26  2  0
 25 27  1  0
 27 28  1  0
 28 29  1  0
 29 30  1  0
 13 31  1  0
 31 32  1  0
  9  4  1  0
 32 10  1  0
 26 21  1  0
 30 24  1  0
  1 33  1  0
  1 34  1  0
  1 35  1  0
  2 36  1  0
  2 37  1  0
  5 38  1  0
  6 39  1  0
  7 40  1  0
  8 41  1  0
 11 42  1  0
 11 43  1  0
 12 44  1  0
 12 45  1  0
 14 46  1  0
 14 47  1  0
 15 48  1  6
 16 49  1  0
 17 50  1  0
 17 51  1  0
 22 52  1  0
 23 53  1  0
 26 54  1  0
 28 55  1  0
 28 56  1  0
 29 57  1  0
 29 58  1  0
 31 59  1  0
 31 60  1  0
 32 61  1  0
 32 62  1  0
M  CHG  1  18  -1
M  END
>  <UniqueID>  (1) 
1

>  <SMILES>  (1) 
CCOc1ccccc1N1CCN(C[C@@H](O)C[N-]C(=O)c2ccc3c(c2)OCCO3)CC1

>  <Energy>  (1) 
68.99560840543661

>  <Genealogy>  (1) 
CCOc1ccccc1N1CCN(CC(O)C[N-]C(=O)c2ccc3c(c2)OCCO3)CC1 (protonated)
CCOc1ccccc1N1CCN(C[C@@H](O)C[N-]C(=O)c2ccc3c(c2)OCCO3)CC1 (chirality)
CCOc1ccccc1N1CCN(C[C@@H](O)C[N-]C(=O)c2ccc3c(c2)OCCO3)CC1 (3D coordinates assigned)
CCOc1ccccc1N1CCN(C[C@@H](O)C[N-]C(=O)c2ccc3c(c2)OCCO3)CC1 (nonaromatic ring conformer: 68.99560840543661 kcal/mol)

>  <smiles>  (1) 
CCOc1ccccc1N1CCN(CC(O)CNC(=O)c2ccc3c(c2)OCCO3)CC1

>  <score_type>  (1) 
oracle

>  <origin>  (1) 
adg

>  <m_score__min__energy>  (1) 
-10.56

>  <m_primary>  (1) 
energy

$$$$
1:0
     RDKit          3D

 56 58  0  0  0  0  0  0  0  0999 V2000
   -3.4870   22.1250  -28.3780 C   0  0  0  0  0  0  0  0  0  0  0  0
   -2.6700   23.0280  -29.2940 C   0  0  0  0  0  0  0  0  0  0  0  0
   -1.8620   22.2220  -30.2160 N   0  0  0  0  0  0  0  0  0  0  0  0
   -1.6220   20.8620  -29.6920 C   0  0  0  0  0  0  0  0  0  0  0  0
   -0.3870   20.1820  -30.3140 C   0  0  0  0  0  0  0  0  0  0  0  0
   -0.4840   19.9850  -31.8360 C   0  0  0  0  0  0  0  0  0  0  0  0
   -0.7580   21.2600  -32.5180 N   0  0  0  0  0  0  0  0  0  0  0  0
   -1.2780   21.0430  -33.8780 C   0  0  0  0  0  0  0  0  0  0  0  0
   -2.6890   20.4440  -33.8500 C   0  0  0  0  0  0  0  0  0  0  0  0
   -3.3510   20.6690  -32.5620 N   0  0  0  0  0  0  0  0  0  0  0  0
   -4.7730   20.5240  -32.3980 C   0  0  0  0  0  0  0  0  0  0  0  0
   -5.3800   19.2750  -32.6110 C   0  0  0  0  0  0  0  0  0  0  0  0
   -4.6010   18.1240  -32.8500 C   0  0  0  0  0  0  0  0  0  0  0  0
   -5.2030   16.8840  -33.0380 C   0  0  0  0  0  0  0  0  0  0  0  0
   -6.5860   16.7640  -32.9740 C   0  0  0  0  0  0  0  0  0  0  0  0
   -7.3780   17.8890  -32.7450 C   0  0  0  0  0  0  0  0  0  0  0  0
   -6.7970   19.1740  -32.5880 C   0  0  0  0  0  0  0  0  0  0  0  0
   -7.5680   20.3070  -32.4070 N   0  0  0  0  0  0  0  0  0  0  0  0
   -9.0220   20.2630  -32.6790 C   0  0  0  0  0  0  0  0  0  0  0  0
   -6.9770   21.4820  -31.9830 C   0  0  0  0  0  0  0  0  0  0  0  0
   -7.7460   22.5730  -31.5070 C   0  0  0  0  0  0  0  0  0  0  0  0
   -7.1400   23.7590  -31.0980 C   0  0  0  0  0  0  0  0  0  0  0  0
   -5.7490   23.8970  -31.1210 C   0  0  0  0  0  0  0  0  0  0  0  0
   -5.1240   25.1190  -30.6840 N   0  0  0  0  0  0  0  0  0  0  0  0
   -3.8970   25.2970  -30.8350 O   0  0  0  0  0  0  0  0  0  0  0  0
   -5.8660   26.1090  -30.0810 O   0  0  0  0  0  0  0  0  0  0  0  0
   -4.9690   22.8160  -31.5540 C   0  0  0  0  0  0  0  0  0  0  0  0
   -5.5640   21.6130  -31.9910 C   0  0  0  0  0  0  0  0  0  0  0  0
   -3.2653   22.3700  -27.3288 H   0  0  0  0  0  0  0  0  0  0  0  0
   -4.5587   22.2791  -28.5720 H   0  0  0  0  0  0  0  0  0  0  0  0
   -3.2267   21.0740  -28.5720 H   0  0  0  0  0  0  0  0  0  0  0  0
   -3.3511   23.6685  -29.8735 H   0  0  0  0  0  0  0  0  0  0  0  0
   -2.0002   23.6480  -28.6801 H   0  0  0  0  0  0  0  0  0  0  0  0
   -2.3380   22.1840  -31.1480 H   0  0  0  0  0  0  0  0  0  0  0  0
   -1.4744   20.9274  -28.6039 H   0  0  0  0  0  0  0  0  0  0  0  0
   -2.4985   20.2511  -29.9536 H   0  0  0  0  0  0  0  0  0  0  0  0
    0.4949   20.8040  -30.1009 H   0  0  0  0  0  0  0  0  0  0  0  0
   -0.3153   19.1797  -29.8664 H   0  0  0  0  0  0  0  0  0  0  0  0
    0.4675   19.5762  -32.2069 H   0  0  0  0  0  0  0  0  0  0  0  0
   -1.3108   19.2908  -32.0468 H   0  0  0  0  0  0  0  0  0  0  0  0
   -1.5050   21.7550  -31.9750 H   0  0  0  0  0  0  0  0  0  0  0  0
   -1.3091   22.0069  -34.4070 H   0  0  0  0  0  0  0  0  0  0  0  0
   -0.6123   20.3352  -34.3937 H   0  0  0  0  0  0  0  0  0  0  0  0
   -3.2894   20.9102  -34.6451 H   0  0  0  0  0  0  0  0  0  0  0  0
   -2.6024   19.3584  -34.0046 H   0  0  0  0  0  0  0  0  0  0  0  0
   -2.7710   20.8900  -31.7230 H   0  0  0  0  0  0  0  0  0  0  0  0
   -3.5048   18.2076  -32.8882 H   0  0  0  0  0  0  0  0  0  0  0  0
   -4.5834   15.9973  -33.2376 H   0  0  0  0  0  0  0  0  0  0  0  0
   -7.0575   15.7788  -33.1043 H   0  0  0  0  0  0  0  0  0  0  0  0
   -8.4708   17.7783  -32.6851 H   0  0  0  0  0  0  0  0  0  0  0  0
   -9.5728   20.2463  -31.7270 H   0  0  0  0  0  0  0  0  0  0  0  0
   -9.3142   21.1527  -33.2561 H   0  0  0  0  0  0  0  0  0  0  0  0
   -9.2598   19.3572  -33.2561 H   0  0  0  0  0  0  0  0  0  0  0  0
   -8.8412   22.4818  -31.4596 H   0  0  0  0  0  0  0  0  0  0  0  0
   -7.7635   24.5969  -30.7528 H   0  0  0  0  0  0  0  0  0  0  0  0
   -3.8728   22.9068  -31.5532 H   0  0  0  0  0  0  0  0  0  0  0  0
  1  2  1  0
  2  3  1  0
  3  4  1  0
  4  5  1  0
  5  6  1  0
  6  7  1  0
  7  8  1  0
  8  9  1  0
  9 10  1  0
 10 11  1  0
 11 12  2  0
 12 13  1  0
 13 14  2  0
 14 15  1  0
 15 16  2  0
 16 17  1  0
 17 18  2  0
 18 19  1  0
 18 20  1  0
 20 21  2  0
 21 22  1  0
 22 23  2  0
 23 24  1  0
 24 25  2  0
 24 26  1  0
 23 27  1  0
 27 28  2  0
 28 11  1  0
 17 12  1  0
 28 20  1  0
  1 29  1  0
  1 30  1  0
  1 31  1  0
  2 32  1  0
  2 33  1  0
  3 34  1  0
  4 35  1  0
  4 36  1  0
  5 37  1  0
  5 38  1  0
  6 39  1  0
  6 40  1  0
  7 41  1  0
  8 42  1  0
  8 43  1  0
  9 44  1  0
  9 45  1  0
 10 46  1  0
 13 47  1  0
 14 48  1  0
 15 49  1  0
 16 50  1  0
 19 51  1  0
 19 52  1  0
 19 53  1  0
 21 54  1  0
 22 55  1  0
 27 56  1  0
M  CHG  3  18   1  24   1  26  -1
M  END
>  <UniqueID>  (2) 
2

>  <SMILES>  (2) 
CCNCCCNCCNc1c2ccccc2[n+](C)c2ccc([N+](=O)[O-])cc12

>  <Energy>  (2) 
76.23128279089674

>  <Genealogy>  (2) 
CCNCCCNCCNc1c2ccccc2[n+](C)c2ccc([N+](=O)[O-])cc12 (3D coordinates assigned)
CCNCCCNCCNc1c2ccccc2[n+](C)c2ccc([N+](=O)[O-])cc12 (optimized conformer: 76.23128279089674 kcal/mol)

>  <smiles>  (2) 
CCNCCCNCCNc1c2ccccc2[n+](C)c2ccc([N+](=O)[O-])cc12

>  <score_type>  (2) 
oracle

>  <origin>  (2) 
adg

>  <m_score__min__energy>  (2) 
-10.07

>  <m_primary>  (2) 
energy

$$$$
2:0
     RDKit          3D

 55 57  0  0  0  0  0  0  0  0999 V2000
   -0.8554   20.8027  -28.9419 H   0  0  0  0  0  0  0  0  0  0  0  0
   -1.5850   21.0270  -29.7340 C   0  0  0  0  0  0  0  0  0  0  0  0
   -2.9450   20.7970  -29.5160 C   0  0  0  0  0  0  0  0  0  0  0  0
   -3.2858   20.3903  -28.5524 H   0  0  0  0  0  0  0  0  0  0  0  0
   -3.8740   21.0830  -30.5210 C   0  0  0  0  0  0  0  0  0  0  0  0
   -4.9441   20.8996  -30.3441 H   0  0  0  0  0  0  0  0  0  0  0  0
   -3.4500   21.6030  -31.7550 C   0  0  0  0  0  0  0  0  0  0  0  0
   -4.4450   21.9000  -32.8520 C   0  0  0  0  0  0  0  0  0  0  0  0
   -4.3520   21.1368  -33.6387 H   0  0  0  0  0  0  0  0  0  0  0  0
   -4.2314   22.8995  -33.2587 H   0  0  0  0  0  0  0  0  0  0  0  0
   -5.8360   21.8890  -32.3250 N   0  0  0  0  0  0  0  0  0  0  0  0
   -6.3360   23.0730  -31.8090 C   0  0  0  0  0  0  0  0  0  0  0  0
   -5.5920   24.1510  -31.8330 N   0  0  0  0  0  0  0  0  0  0  0  0
   -5.4770   25.2020  -30.8220 C   0  0  0  0  0  0  0  0  0  0  0  0
   -6.4759   25.6106  -30.6094 H   0  0  0  0  0  0  0  0  0  0  0  0
   -4.8171   25.9941  -31.2056 H   0  0  0  0  0  0  0  0  0  0  0  0
   -4.8760   24.6390  -29.5280 C   0  0  0  0  0  0  0  0  0  0  0  0
   -5.4179   23.7236  -29.2481 H   0  0  0  0  0  0  0  0  0  0  0  0
   -4.9699   25.3988  -28.7382 H   0  0  0  0  0  0  0  0  0  0  0  0
   -3.3900   24.3060  -29.7120 C   0  0  0  0  0  0  0  0  0  0  0  0
   -2.9762   24.9365  -30.5128 H   0  0  0  0  0  0  0  0  0  0  0  0
   -3.2986   23.2417  -29.9745 H   0  0  0  0  0  0  0  0  0  0  0  0
   -2.6350   24.5510  -28.4640 N   0  0  0  0  0  0  0  0  0  0  0  0
   -1.2220   24.9340  -28.6790 C   0  0  0  0  0  0  0  0  0  0  0  0
   -1.0888   25.1887  -29.7408 H   0  0  0  0  0  0  0  0  0  0  0  0
   -0.6059   24.0756  -28.3732 H   0  0  0  0  0  0  0  0  0  0  0  0
   -0.7740   26.1300  -27.8350 C   0  0  0  0  0  0  0  0  0  0  0  0
   -0.8673   25.8810  -26.7676 H   0  0  0  0  0  0  0  0  0  0  0  0
    0.2747   26.3691  -28.0655 H   0  0  0  0  0  0  0  0  0  0  0  0
   -1.4075   26.9992  -28.0655 H   0  0  0  0  0  0  0  0  0  0  0  0
   -2.8540   23.5970  -27.3450 C   0  0  0  0  0  0  0  0  0  0  0  0
   -3.2802   24.1558  -26.4988 H   0  0  0  0  0  0  0  0  0  0  0  0
   -3.5232   22.8155  -27.7342 H   0  0  0  0  0  0  0  0  0  0  0  0
   -1.5920   22.8740  -26.8510 C   0  0  0  0  0  0  0  0  0  0  0  0
   -1.5802   22.8672  -25.7511 H   0  0  0  0  0  0  0  0  0  0  0  0
   -1.5925   21.8392  -27.2241 H   0  0  0  0  0  0  0  0  0  0  0  0
   -0.6996   23.3978  -27.2241 H   0  0  0  0  0  0  0  0  0  0  0  0
   -7.6340   23.1110  -31.2650 C   0  0  0  0  0  0  0  0  0  0  0  0
   -8.0236   24.0497  -30.8441 H   0  0  0  0  0  0  0  0  0  0  0  0
   -8.4220   21.9740  -31.2570 C   0  0  0  0  0  0  0  0  0  0  0  0
   -9.4292   22.0066  -30.8160 H   0  0  0  0  0  0  0  0  0  0  0  0
   -7.9420   20.7900  -31.8060 C   0  0  0  0  0  0  0  0  0  0  0  0
   -8.7620   19.6510  -31.8130 C   0  0  0  0  0  0  0  0  0  0  0  0
   -9.7696   19.6996  -31.3744 H   0  0  0  0  0  0  0  0  0  0  0  0
   -8.3070   18.4600  -32.3720 C   0  0  0  0  0  0  0  0  0  0  0  0
   -8.9519   17.5688  -32.3693 H   0  0  0  0  0  0  0  0  0  0  0  0
   -7.0360   18.3980  -32.9340 C   0  0  0  0  0  0  0  0  0  0  0  0
   -6.6818   17.4573  -33.3808 H   0  0  0  0  0  0  0  0  0  0  0  0
   -6.2060   19.5220  -32.9350 C   0  0  0  0  0  0  0  0  0  0  0  0
   -5.2059   19.4558  -33.3883 H   0  0  0  0  0  0  0  0  0  0  0  0
   -6.6330   20.7490  -32.3600 C   0  0  0  0  0  0  0  0  0  0  0  0
   -2.0770   21.8310  -31.9640 C   0  0  0  0  0  0  0  0  0  0  0  0
   -1.7307   22.2391  -32.9250 H   0  0  0  0  0  0  0  0  0  0  0  0
   -1.1510   21.5420  -30.9580 C   0  0  0  0  0  0  0  0  0  0  0  0
   -0.0793   21.7202  -31.1301 H   0  0  0  0  0  0  0  0  0  0  0  0
  1  2  1  0
  2  3  2  0
  3  4  1  0
  3  5  1  0
  5  6  1  0
  5  7  2  0
  7  8  1  0
  8  9  1  0
  8 10  1  0
  8 11  1  0
 11 12  1  0
 12 13  2  0
 13 14  1  0
 14 15  1  0
 14 16  1  0
 14 17  1  0
 17 18  1  0
 17 19  1  0
 17 20  1  0
 20 21  1  0
 20 22  1  0
 20 23  1  0
 23 24  1  0
 24 25  1  0
 24 26  1  0
 24 27  1  0
 27 28  1  0
 27 29  1  0
 27 30  1  0
 23 31  1  0
 31 32  1  0
 31 33  1  0
 31 34  1  0
 34 35  1  0
 34 36  1  0
 34 37  1  0
 12 38  1  0
 38 39  1  0
 38 40  2  0
 40 41  1  0
 40 42  1  0
 42 43  2  0
 43 44  1  0
 43 45  1  0
 45 46  1  0
 45 47  2  0
 47 48  1  0
 47 49  1  0
 49 50  1  0
 49 51  2  0
  7 52  1  0
 52 53  1  0
 52 54  2  0
 54 55  1  0
 54  2  1  0
 51 11  1  0
 51 42  1  0
M  END
>  <UniqueID>  (3) 
3

>  <SMILES>  (3) 
CCN(CC)CCC/N=c1\ccc2ccccc2n1Cc1ccccc1

>  <Energy>  (3) 
73.33977851352769

>  <Genealogy>  (3) 
CCN(CC)CCC/N=c1\ccc2ccccc2n1Cc1ccccc1 (cis-trans isomerization)
CCN(CC)CCC/N=c1\ccc2ccccc2n1Cc1ccccc1 (3D coordinates assigned)
CCN(CC)CCC/N=c1\ccc2ccccc2n1Cc1ccccc1 (optimized conformer: 73.33977851352769 kcal/mol)

>  <smiles>  (3) 
CCN(CC)CCCN=c1ccc2ccccc2n1Cc1ccccc1

>  <score_type>  (3) 
oracle

>  <origin>  (3) 
adg

>  <m_score__min__energy>  (3) 
-8.1199999999999992

>  <m_primary>  (3) 
energy

$$$$
3:0
     RDKit          3D

 35 37  0  0  0  0  0  0  0  0999 V2000
   -2.4670   24.5500  -29.3110 C   0  0  0  0  0  0  0  0  0  0  0  0
   -3.4960   24.9700  -30.2010 O   0  0  0  0  0  0  0  0  0  0  0  0
   -4.6620   24.2360  -30.4660 C   0  0  0  0  0  0  0  0  0  0  0  0
   -4.6510   22.8400  -30.6500 C   0  0  0  0  0  0  0  0  0  0  0  0
   -5.8420   22.1550  -30.9120 C   0  0  0  0  0  0  0  0  0  0  0  0
   -7.0530   22.8520  -30.9980 C   0  0  0  0  0  0  0  0  0  0  0  0
   -8.5530   21.9810  -31.2980 S   0  0  0  0  0  0  0  0  0  0  0  0
   -9.3730   21.9020  -30.0410 O   0  0  0  0  0  0  0  0  0  0  0  0
   -9.3510   22.7090  -32.3440 O   0  0  0  0  0  0  0  0  0  0  0  0
   -8.1870   20.3860  -31.8520 N   0  0  0  0  0  0  0  0  0  0  0  0
   -7.0970   20.0340  -32.5540 C   0  0  0  0  0  0  0  0  0  0  0  0
   -7.1760   18.6780  -32.8180 C   0  0  0  0  0  0  0  0  0  0  0  0
   -6.2030   17.8400  -33.5680 C   0  0  0  0  0  0  0  0  0  0  0  0
   -5.1770   18.4210  -34.3310 C   0  0  0  0  0  0  0  0  0  0  0  0
   -4.3000   17.6380  -35.0080 N   0  0  0  0  0  0  0  0  0  0  0  0
   -4.3920   16.2850  -34.9640 C   0  0  0  0  0  0  0  0  0  0  0  0
   -5.3730   15.6930  -34.2350 N   0  0  0  0  0  0  0  0  0  0  0  0
   -6.2730   16.4390  -33.5410 C   0  0  0  0  0  0  0  0  0  0  0  0
   -8.3690   18.2760  -32.2310 C   0  0  0  0  0  0  0  0  0  0  0  0
   -8.9650   19.3360  -31.6510 N   0  0  0  0  0  0  0  0  0  0  0  0
   -7.0680   24.2380  -30.8060 C   0  0  0  0  0  0  0  0  0  0  0  0
   -5.8780   24.9250  -30.5450 C   0  0  0  0  0  0  0  0  0  0  0  0
   -2.8022   24.6868  -28.2723 H   0  0  0  0  0  0  0  0  0  0  0  0
   -2.2413   23.4878  -29.4866 H   0  0  0  0  0  0  0  0  0  0  0  0
   -1.5625   25.1509  -29.4866 H   0  0  0  0  0  0  0  0  0  0  0  0
   -3.7026   22.2863  -30.5875 H   0  0  0  0  0  0  0  0  0  0  0  0
   -5.8270   21.0639  -31.0511 H   0  0  0  0  0  0  0  0  0  0  0  0
   -6.2837   20.7063  -32.8647 H   0  0  0  0  0  0  0  0  0  0  0  0
   -5.0840   19.5160  -34.3799 H   0  0  0  0  0  0  0  0  0  0  0  0
   -3.6712   15.6670  -35.5194 H   0  0  0  0  0  0  0  0  0  0  0  0
   -5.4350   14.6500  -34.2070 H   0  0  0  0  0  0  0  0  0  0  0  0
   -7.0601   15.9416  -32.9553 H   0  0  0  0  0  0  0  0  0  0  0  0
   -8.7660   17.2502  -32.2385 H   0  0  0  0  0  0  0  0  0  0  0  0
   -8.0186   24.7889  -30.8605 H   0  0  0  0  0  0  0  0  0  0  0  0
   -5.8978   26.0153  -30.4007 H   0  0  0  0  0  0  0  0  0  0  0  0
  1  2  1  0
  2  3  1  0
  3  4  2  0
  4  5  1  0
  5  6  2  0
  6  7  1  0
  7  8  2  0
  7  9  2  0
  7 10  1  0
 10 11  1  0
 11 12  2  0
 12 13  1  0
 13 14  2  0
 14 15  1  0
 15 16  2  0
 16 17  1  0
 17 18  2  0
 12 19  1  0
 19 20  2  0
  6 21  1  0
 21 22  2  0
 22  3  1  0
 20 10  1  0
 18 13  1  0
  1 23  1  0
  1 24  1  0
  1 25  1  0
  4 26  1  0
  5 27  1  0
 11 28  1  0
 14 29  1  0
 16 30  1  0
 17 31  1  0
 18 32  1  0
 19 33  1  0
 21 34  1  0
 22 35  1  0
M  CHG  1  17   1
M  END
>  <UniqueID>  (4) 
4

>  <SMILES>  (4) 
COc1ccc(S(=O)(=O)n2cc(-c3cnc[nH+]c3)cn2)cc1

>  <Energy>  (4) 
71.20645841205923

>  <Genealogy>  (4) 
COc1ccc(S(=O)(=O)n2cc(-c3cnc[nH+]c3)cn2)cc1 (protonated)
COc1ccc(S(=O)(=O)n2cc(-c3cnc[nH+]c3)cn2)cc1 (3D coordinates assigned)
COc1ccc(S(=O)(=O)n2cc(-c3cnc[nH+]c3)cn2)cc1 (optimized conformer: 71.20645841205923 kcal/mol)

>  <smiles>  (4) 
COc1ccc(S(=O)(=O)n2cc(-c3cncnc3)cn2)cc1

>  <score_type>  (4) 
oracle

>  <origin>  (4) 
adg

>  <m_score__min__energy>  (4) 
-8.0500000000000007

>  <m_primary>  (4) 
energy

$$$$
4:0
     RDKit          3D

 47 48  0  0  0  0  0  0  0  0999 V2000
   -2.4280   18.2930  -33.7050 C   0  0  0  0  0  0  0  0  0  0  0  0
   -3.1580   17.2190  -34.5200 C   0  0  0  0  0  0  0  0  0  0  0  0
   -4.5630   17.5890  -34.8230 N   0  0  0  0  0  0  0  0  0  0  0  0
   -4.9350   18.8750  -34.1670 C   0  0  0  0  0  0  0  0  0  0  0  0
   -6.4450   18.9770  -33.9010 C   0  0  0  0  0  0  0  0  0  0  0  0
   -6.9260   17.8790  -33.0300 N   0  0  0  0  0  0  0  0  0  0  0  0
   -7.2760   18.2860  -31.6520 C   0  0  0  0  0  0  0  0  0  0  0  0
   -8.7800   18.5470  -31.4290 C   0  0  0  0  0  0  0  0  0  0  0  0
   -9.3620   19.1110  -32.6540 N   0  0  0  0  0  0  0  0  0  0  0  0
   -9.2620   20.5790  -32.6840 C   0  0  0  0  0  0  0  0  0  0  0  0
   -9.1230   21.1730  -31.2730 C   0  0  0  0  0  0  0  0  0  0  0  0
   -7.8060   21.8840  -31.0930 C   0  0  0  0  0  0  0  0  0  0  0  0
   -7.6050   22.7330  -29.9960 C   0  0  0  0  0  0  0  0  0  0  0  0
   -6.3690   23.3570  -29.8050 C   0  0  0  0  0  0  0  0  0  0  0  0
   -5.3180   23.1320  -30.7020 C   0  0  0  0  0  0  0  0  0  0  0  0
   -3.7760   23.9290  -30.4250 Cl  0  0  0  0  0  0  0  0  0  0  0  0
   -5.5090   22.2720  -31.7970 C   0  0  0  0  0  0  0  0  0  0  0  0
   -4.2110   21.9470  -32.9390 Cl  0  0  0  0  0  0  0  0  0  0  0  0
   -6.7490   21.6530  -31.9880 C   0  0  0  0  0  0  0  0  0  0  0  0
   -6.1150   16.6440  -33.0890 C   0  0  0  0  0  0  0  0  0  0  0  0
   -5.4860   16.4700  -34.4770 C   0  0  0  0  0  0  0  0  0  0  0  0
   -2.5633   18.0939  -32.6317 H   0  0  0  0  0  0  0  0  0  0  0  0
   -1.3557   18.2729  -33.9493 H   0  0  0  0  0  0  0  0  0  0  0  0
   -2.8413   19.2827  -33.9493 H   0  0  0  0  0  0  0  0  0  0  0  0
   -2.6205   17.0703  -35.4682 H   0  0  0  0  0  0  0  0  0  0  0  0
   -3.1784   16.2995  -33.9166 H   0  0  0  0  0  0  0  0  0  0  0  0
   -4.6340   17.7290  -35.8600 H   0  0  0  0  0  0  0  0  0  0  0  0
   -4.4008   18.9509  -33.2084 H   0  0  0  0  0  0  0  0  0  0  0  0
   -4.6565   19.6934  -34.8473 H   0  0  0  0  0  0  0  0  0  0  0  0
   -6.6559   19.9388  -33.4107 H   0  0  0  0  0  0  0  0  0  0  0  0
   -6.9679   18.9019  -34.8659 H   0  0  0  0  0  0  0  0  0  0  0  0
   -6.9598   17.4864  -30.9660 H   0  0  0  0  0  0  0  0  0  0  0  0
   -6.7600   19.2393  -31.4648 H   0  0  0  0  0  0  0  0  0  0  0  0
   -9.2848   17.6008  -31.1843 H   0  0  0  0  0  0  0  0  0  0  0  0
   -8.9116   19.2560  -30.5984 H   0  0  0  0  0  0  0  0  0  0  0  0
   -8.8150   18.7390  -33.4660 H   0  0  0  0  0  0  0  0  0  0  0  0
   -8.3809   20.8634  -33.2780 H   0  0  0  0  0  0  0  0  0  0  0  0
  -10.1860   20.9746  -33.1309 H   0  0  0  0  0  0  0  0  0  0  0  0
   -9.9405   21.8898  -31.1062 H   0  0  0  0  0  0  0  0  0  0  0  0
   -9.1679   20.3470  -30.5480 H   0  0  0  0  0  0  0  0  0  0  0  0
   -8.4234   22.9089  -29.2824 H   0  0  0  0  0  0  0  0  0  0  0  0
   -6.2214   24.0280  -28.9459 H   0  0  0  0  0  0  0  0  0  0  0  0
   -6.8970   20.9803  -32.8457 H   0  0  0  0  0  0  0  0  0  0  0  0
   -5.3156   16.7014  -32.3356 H   0  0  0  0  0  0  0  0  0  0  0  0
   -6.7696   15.7830  -32.8886 H   0  0  0  0  0  0  0  0  0  0  0  0
   -4.9205   15.5267  -34.4936 H   0  0  0  0  0  0  0  0  0  0  0  0
   -6.2996   16.4630  -35.2173 H   0  0  0  0  0  0  0  0  0  0  0  0
  1  2  1  0
  2  3  1  0
  3  4  1  0
  4  5  1  0
  5  6  1  0
  6  7  1  0
  7  8  1  0
  8  9  1  0
  9 10  1  0
 10 11  1  0
 11 12  1  0
 12 13  2  0
 13 14  1  0
 14 15  2  0
 15 16  1  0
 15 17  1  0
 17 18  1  0
 17 19  2  0
  6 20  1  0
 20 21  1  0
 21  3  1  0
 19 12  1  0
  1 22  1  0
  1 23  1  0
  1 24  1  0
  2 25  1  0
  2 26  1  0
  3 27  1  0
  4 28  1  0
  4 29  1  0
  5 30  1  0
  5 31  1  0
  7 32  1  0
  7 33  1  0
  8 34  1  0
  8 35  1  0
  9 36  1  0
 10 37  1  0
 10 38  1  0
 11 39  1  0
 11 40  1  0
 13 41  1  0
 14 42  1  0
 19 43  1  0
 20 44  1  0
 20 45  1  0
 21 46  1  0
 21 47  1  0
M  CHG  1   3   1
M  END
>  <UniqueID>  (5) 
5

>  <SMILES>  (5) 
CC[NH+]1CCN(CCNCCc2ccc(Cl)c(Cl)c2)CC1

>  <Energy>  (5) 
55.96578349434261

>  <Genealogy>  (5) 
CC[NH+]1CCN(CCNCCc2ccc(Cl)c(Cl)c2)CC1 (protonated)
CC[NH+]1CCN(CCNCCc2ccc(Cl)c(Cl)c2)CC1 (3D coordinates assigned)
CC[NH+]1CCN(CCNCCc2ccc(Cl)c(Cl)c2)CC1 (nonaromatic ring conformer: 55.96578349434261 kcal/mol)

>  <smiles>  (5) 
CCN1CCN(CCNCCc2ccc(Cl)c(Cl)c2)CC1

>  <score_type>  (5) 
oracle

>  <origin>  (5) 
adg

>  <m_score__min__energy>  (5) 
-7.9199999999999999

>  <m_primary>  (5) 
energy

$$$$
5:0
     RDKit          3D

 51 54  0  0  0  0  0  0  0  0999 V2000
   -6.1160   25.6440  -29.6220 C   0  0  0  0  0  0  0  0  0  0  0  0
   -5.3300   25.2930  -30.8770 C   0  0  0  0  0  0  0  0  0  0  0  0
   -3.9600   24.9110  -30.5110 N   0  0  0  0  0  0  0  0  0  0  0  0
   -3.9130   23.9440  -29.3990 C   0  0  0  0  0  0  0  0  0  0  0  0
   -2.5180   23.2940  -29.2060 C   0  0  0  0  0  0  0  0  0  0  0  0
   -1.7580   23.1880  -30.4660 N   0  0  0  0  0  0  0  0  0  0  0  0
   -1.3250   21.8060  -30.7400 C   0  0  0  0  0  0  0  0  0  0  0  0
   -1.5220   21.4300  -32.2190 C   0  0  0  0  0  0  0  0  0  0  0  0
   -2.7820   20.6980  -32.4270 N   0  0  0  0  0  0  0  0  0  0  0  0
   -2.7750   19.3380  -32.8950 C   0  0  0  0  0  0  0  0  0  0  0  0
   -1.6890   18.6980  -32.9750 O   0  0  0  0  0  0  0  0  0  0  0  0
   -4.0410   18.6970  -33.3020 C   0  0  0  0  0  0  0  0  0  0  0  0
   -4.0260   17.4450  -33.9420 C   0  0  0  0  0  0  0  0  0  0  0  0
   -5.2170   16.8250  -34.3130 C   0  0  0  0  0  0  0  0  0  0  0  0
   -6.4390   17.4340  -34.0360 C   0  0  0  0  0  0  0  0  0  0  0  0
   -6.4810   18.6760  -33.3870 C   0  0  0  0  0  0  0  0  0  0  0  0
   -7.7130   19.2650  -33.0960 C   0  0  0  0  0  0  0  0  0  0  0  0
   -7.7770   20.4650  -32.3830 C   0  0  0  0  0  0  0  0  0  0  0  0
   -9.0320   20.9950  -32.0360 C   0  0  0  0  0  0  0  0  0  0  0  0
   -9.1180   22.1520  -31.2650 C   0  0  0  0  0  0  0  0  0  0  0  0
   -7.9590   22.7740  -30.8100 C   0  0  0  0  0  0  0  0  0  0  0  0
   -6.7040   22.2650  -31.1540 C   0  0  0  0  0  0  0  0  0  0  0  0
   -6.5850   21.1290  -31.9890 C   0  0  0  0  0  0  0  0  0  0  0  0
   -5.3230   20.6050  -32.4030 C   0  0  0  0  0  0  0  0  0  0  0  0
   -5.2770   19.3330  -33.0290 C   0  0  0  0  0  0  0  0  0  0  0  0
   -4.0460   21.3730  -32.2870 C   0  0  0  0  0  0  0  0  0  0  0  0
   -4.0650   22.6280  -32.1670 O   0  0  0  0  0  0  0  0  0  0  0  0
   -5.5245   25.3798  -28.7330 H   0  0  0  0  0  0  0  0  0  0  0  0
   -6.3296   26.7230  -29.6129 H   0  0  0  0  0  0  0  0  0  0  0  0
   -7.0621   25.0828  -29.6129 H   0  0  0  0  0  0  0  0  0  0  0  0
   -5.8189   24.4528  -31.3919 H   0  0  0  0  0  0  0  0  0  0  0  0
   -5.2991   26.1669  -31.5444 H   0  0  0  0  0  0  0  0  0  0  0  0
   -3.4710   24.5160  -31.3480 H   0  0  0  0  0  0  0  0  0  0  0  0
   -4.1854   24.4670  -28.4704 H   0  0  0  0  0  0  0  0  0  0  0  0
   -4.6172   23.1348  -29.6425 H   0  0  0  0  0  0  0  0  0  0  0  0
   -1.9402   23.9055  -28.4973 H   0  0  0  0  0  0  0  0  0  0  0  0
   -2.6774   22.2733  -28.8282 H   0  0  0  0  0  0  0  0  0  0  0  0
   -2.3350   23.5430  -31.2550 H   0  0  0  0  0  0  0  0  0  0  0  0
   -0.9060   23.7930  -30.3900 H   0  0  0  0  0  0  0  0  0  0  0  0
   -0.2589   21.7097  -30.4868 H   0  0  0  0  0  0  0  0  0  0  0  0
   -1.9384   21.1272  -30.1292 H   0  0  0  0  0  0  0  0  0  0  0  0
   -1.5393   22.3497  -32.8222 H   0  0  0  0  0  0  0  0  0  0  0  0
   -0.6900   20.7776  -32.5227 H   0  0  0  0  0  0  0  0  0  0  0  0
   -3.0657   16.9510  -34.1515 H   0  0  0  0  0  0  0  0  0  0  0  0
   -5.1926   15.8522  -34.8259 H   0  0  0  0  0  0  0  0  0  0  0  0
   -7.3761   16.9376  -34.3281 H   0  0  0  0  0  0  0  0  0  0  0  0
   -8.6417   18.7800  -33.4311 H   0  0  0  0  0  0  0  0  0  0  0  0
   -9.9506   20.4936  -32.3750 H   0  0  0  0  0  0  0  0  0  0  0  0
  -10.1026   22.5743  -31.0156 H   0  0  0  0  0  0  0  0  0  0  0  0
   -8.0313   23.6705  -30.1766 H   0  0  0  0  0  0  0  0  0  0  0  0
   -5.7964   22.7540  -30.7705 H   0  0  0  0  0  0  0  0  0  0  0  0
  1  2  1  0
  2  3  1  0
  3  4  1  0
  4  5  1  0
  5  6  1  0
  6  7  1  0
  7  8  1  0
  8  9  1  0
  9 10  1  0
 10 11  2  0
 10 12  1  0
 12 13  1  0
 13 14  2  0
 14 15  1  0
 15 16  2  0
 16 17  1  0
 17 18  2  0
 18 19  1  0
 19 20  2  0
 20 21  1  0
 21 22  2  0
 22 23  1  0
 23 24  2  0
 24 25  1  0
 24 26  1  0
 26 27  2  0
 26  9  1  0
 25 12  2  0
 25 16  1  0
 23 18  1  0
  1 28  1  0
  1 29  1  0
  1 30  1  0
  2 31  1  0
  2 32  1  0
  3 33  1  0
  4 34  1  0
  4 35  1  0
  5 36  1  0
  5 37  1  0
  6 38  1  0
  6 39  1  0
  7 40  1  0
  7 41  1  0
  8 42  1  0
  8 43  1  0
 13 44  1  0
 14 45  1  0
 15 46  1  0
 17 47  1  0
 19 48  1  0
 20 49  1  0
 21 50  1  0
 22 51  1  0
M  CHG  1   6   1
M  END
>  <UniqueID>  (6) 
6

>  <SMILES>  (6) 
CCNCC[NH2+]CCN1C(=O)c2cccc3cc4ccccc4c(c23)C1=O

>  <Energy>  (6) 
68.95745224454251

>  <Genealogy>  (6) 
CCNCC[NH2+]CCN1C(=O)c2cccc3cc4ccccc4c(c23)C1=O (protonated)
CCNCC[NH2+]CCN1C(=O)c2cccc3cc4ccccc4c(c23)C1=O (3D coordinates assigned)
CCNCC[NH2+]CCN1C(=O)c2cccc3cc4ccccc4c(c23)C1=O (nonaromatic ring conformer: 68.95745224454251 kcal/mol)

>  <smiles>  (6) 
CCNCCNCCN1C(=O)c2cccc3cc4ccccc4c(c23)C1=O

>  <score_type>  (6) 
oracle

>  <origin>  (6) 
adg

>  <m_score__min__energy>  (6) 
-8.8699999999999992

>  <m_primary>  (6) 
energy

$$$$
6:0
     RDKit          3D

 54 56  0  0  0  0  0  0  0  0999 V2000
   -8.0980   22.9410  -31.7080 C   0  0  0  0  0  0  0  0  0  0  0  0
   -8.7420   21.6550  -31.1950 C   0  0  0  0  0  0  0  0  0  0  0  0
   -9.0550   20.6730  -32.3310 C   0  0  0  0  0  0  0  0  0  0  0  0
   -8.3660   19.3860  -32.1340 N   0  0  0  0  0  0  0  0  0  0  0  0
   -9.1060   18.2580  -31.5570 C   0  0  0  0  0  0  0  0  0  0  0  0
   -6.9900   19.2290  -32.5640 C   0  0  0  0  0  0  0  0  0  0  0  0
   -6.5230   17.9920  -32.8690 N   0  0  0  0  0  0  0  0  0  0  0  0
   -5.2510   17.7930  -33.2850 C   0  0  0  0  0  0  0  0  0  0  0  0
   -4.3700   18.8720  -33.4210 C   0  0  0  0  0  0  0  0  0  0  0  0
   -4.8470   20.1610  -33.0610 C   0  0  0  0  0  0  0  0  0  0  0  0
   -6.1500   20.3000  -32.6680 N   0  0  0  0  0  0  0  0  0  0  0  0
   -4.0160   21.4260  -33.1850 C   0  0  0  0  0  0  0  0  0  0  0  0
   -2.7310   21.4220  -32.3500 C   0  0  0  0  0  0  0  0  0  0  0  0
   -1.6860   20.5900  -32.9800 N   0  0  0  0  0  0  0  0  0  0  0  0
   -0.3090   21.0490  -32.6890 C   0  0  0  0  0  0  0  0  0  0  0  0
    0.6270   20.9500  -33.8730 C   0  0  0  0  0  0  0  0  0  0  0  0
    1.8220   20.2200  -33.7740 C   0  0  0  0  0  0  0  0  0  0  0  0
    2.6790   20.1140  -34.8740 C   0  0  0  0  0  0  0  0  0  0  0  0
    2.3640   20.7400  -36.0850 C   0  0  0  0  0  0  0  0  0  0  0  0
    3.2540   20.6000  -37.1590 O   0  0  0  0  0  0  0  0  0  0  0  0
    3.1370   19.6100  -38.1760 C   0  0  0  0  0  0  0  0  0  0  0  0
    1.1730   21.4850  -36.1820 C   0  0  0  0  0  0  0  0  0  0  0  0
    0.3160   21.5930  -35.0820 C   0  0  0  0  0  0  0  0  0  0  0  0
   -1.8830   19.1260  -32.8740 C   0  0  0  0  0  0  0  0  0  0  0  0
   -2.9430   18.5680  -33.8400 C   0  0  0  0  0  0  0  0  0  0  0  0
   -7.7874   23.5613  -30.8544 H   0  0  0  0  0  0  0  0  0  0  0  0
   -7.2183   22.6919  -32.3196 H   0  0  0  0  0  0  0  0  0  0  0  0
   -8.8244   23.4962  -32.3196 H   0  0  0  0  0  0  0  0  0  0  0  0
   -8.0526   21.1709  -30.4876 H   0  0  0  0  0  0  0  0  0  0  0  0
   -9.6912   21.9227  -30.7077 H   0  0  0  0  0  0  0  0  0  0  0  0
  -10.1403   20.4967  -32.3628 H   0  0  0  0  0  0  0  0  0  0  0  0
   -8.7031   21.1130  -33.2758 H   0  0  0  0  0  0  0  0  0  0  0  0
   -9.0672   18.3171  -30.4593 H   0  0  0  0  0  0  0  0  0  0  0  0
  -10.1537   18.2983  -31.8896 H   0  0  0  0  0  0  0  0  0  0  0  0
   -8.6518   17.3130  -31.8896 H   0  0  0  0  0  0  0  0  0  0  0  0
   -4.9064   16.7747  -33.5183 H   0  0  0  0  0  0  0  0  0  0  0  0
   -6.5020   21.2580  -32.4520 H   0  0  0  0  0  0  0  0  0  0  0  0
   -3.7394   21.5540  -34.2419 H   0  0  0  0  0  0  0  0  0  0  0  0
   -4.6372   22.2492  -32.8023 H   0  0  0  0  0  0  0  0  0  0  0  0
   -2.3605   22.4536  -32.2571 H   0  0  0  0  0  0  0  0  0  0  0  0
   -2.9608   21.0012  -31.3600 H   0  0  0  0  0  0  0  0  0  0  0  0
   -0.3537   22.1003  -32.3684 H   0  0  0  0  0  0  0  0  0  0  0  0
    0.0917   20.3885  -31.9059 H   0  0  0  0  0  0  0  0  0  0  0  0
    2.0858   19.7286  -32.8259 H   0  0  0  0  0  0  0  0  0  0  0  0
    3.6091   19.5333  -34.7864 H   0  0  0  0  0  0  0  0  0  0  0  0
    3.0200   18.6196  -37.7119 H   0  0  0  0  0  0  0  0  0  0  0  0
    2.2584   19.8283  -38.8008 H   0  0  0  0  0  0  0  0  0  0  0  0
    4.0423   19.6174  -38.8008 H   0  0  0  0  0  0  0  0  0  0  0  0
    0.9154   21.9845  -37.1276 H   0  0  0  0  0  0  0  0  0  0  0  0
   -0.6073   22.1852  -35.1644 H   0  0  0  0  0  0  0  0  0  0  0  0
   -0.9243   18.6311  -33.0884 H   0  0  0  0  0  0  0  0  0  0  0  0
   -2.2431   18.9253  -31.8542 H   0  0  0  0  0  0  0  0  0  0  0  0
   -2.7720   19.0064  -34.8343 H   0  0  0  0  0  0  0  0  0  0  0  0
   -2.8339   17.4734  -33.8399 H   0  0  0  0  0  0  0  0  0  0  0  0
  1  2  1  0
  2  3  1  0
  3  4  1  0
  4  5  1  0
  4  6  1  0
  6  7  2  0
  7  8  1  0
  8  9  2  0
  9 10  1  0
 10 11  2  0
 10 12  1  0
 12 13  1  0
 13 14  1  0
 14 15  1  0
 15 16  1  0
 16 17  2  0
 17 18  1  0
 18 19  2  0
 19 20  1  0
 20 21  1  0
 19 22  1  0
 22 23  2  0
 14 24  1  0
 24 25  1  0
 11  6  1  0
 23 16  1  0
 25  9  1  0
  1 26  1  0
  1 27  1  0
  1 28  1  0
  2 29  1  0
  2 30  1  0
  3 31  1  0
  3 32  1  0
  5 33  1  0
  5 34  1  0
  5 35  1  0
  8 36  1  0
 11 37  1  0
 12 38  1  0
 12 39  1  0
 13 40  1  0
 13 41  1  0
 15 42  1  0
 15 43  1  0
 17 44  1  0
 18 45  1  0
 21 46  1  0
 21 47  1  0
 21 48  1  0
 22 49  1  0
 23 50  1  0
 24 51  1  0
 24 52  1  0
 25 53  1  0
 25 54  1  0
M  CHG  1  11   1
M  END
>  <UniqueID>  (7) 
7

>  <SMILES>  (7) 
CCCN(C)c1ncc2c([nH+]1)CCN(Cc1ccc(OC)cc1)CC2

>  <Energy>  (7) 
64.06061432755521

>  <Genealogy>  (7) 
CCCN(C)c1ncc2c([nH+]1)CCN(Cc1ccc(OC)cc1)CC2 (protonated)
CCCN(C)c1ncc2c([nH+]1)CCN(Cc1ccc(OC)cc1)CC2 (3D coordinates assigned)
CCCN(C)c1ncc2c([nH+]1)CCN(Cc1ccc(OC)cc1)CC2 (nonaromatic ring conformer: 64.06061432755521 kcal/mol)

>  <smiles>  (7) 
CCCN(C)c1ncc2c(n1)CCN(Cc1ccc(OC)cc1)CC2

>  <score_type>  (7) 
oracle

>  <origin>  (7) 
adg

>  <m_score__min__energy>  (7) 
-5.6399999999999997

>  <m_primary>  (7) 
energy

$$$$
7:0
     RDKit          3D

 76 79  0  0  0  0  0  0  0  0999 V2000
   -7.2680   18.2620  -31.6250 C   0  0  0  0  0  0  0  0  0  0  0  0
   -8.5760   18.5630  -32.3460 C   0  0  0  0  0  0  0  0  0  0  0  0
   -8.5870   19.9570  -32.8040 N   0  0  0  0  0  0  0  0  0  0  0  0
   -9.8060   20.6390  -32.3480 C   0  0  0  0  0  0  0  0  0  0  0  0
   -9.4690   21.7820  -31.3780 C   0  0  0  0  0  0  0  0  0  0  0  0
   -8.5140   22.8380  -31.9640 C   0  0  0  0  0  0  0  0  0  0  0  0
   -7.1230   22.8180  -31.3110 C   0  0  0  0  0  0  0  0  0  0  0  0
   -6.0710   22.9860  -32.3260 N   0  0  0  0  0  0  0  0  0  0  0  0
   -4.8840   22.2240  -31.9620 C   0  0  0  0  0  0  0  0  0  0  0  0
   -3.9410   22.7440  -31.0390 C   0  0  0  0  0  0  0  0  0  0  0  0
   -4.1780   23.9490  -30.3310 C   0  0  0  0  0  0  0  0  0  0  0  0
   -3.2010   24.5070  -29.5130 C   0  0  0  0  0  0  0  0  0  0  0  0
   -1.9680   23.8840  -29.3780 C   0  0  0  0  0  0  0  0  0  0  0  0
   -1.7260   22.6700  -30.0150 C   0  0  0  0  0  0  0  0  0  0  0  0
   -2.7230   22.0430  -30.8080 C   0  0  0  0  0  0  0  0  0  0  0  0
   -2.5230   20.7910  -31.3560 N   0  0  0  0  0  0  0  0  0  0  0  0
   -1.4010   19.9480  -30.8790 C   0  0  0  0  0  0  0  0  0  0  0  0
   -3.3950   20.2990  -32.3070 C   0  0  0  0  0  0  0  0  0  0  0  0
   -3.0920   19.1280  -33.0510 C   0  0  0  0  0  0  0  0  0  0  0  0
   -4.0030   18.5730  -33.9510 C   0  0  0  0  0  0  0  0  0  0  0  0
   -3.6290   17.4180  -34.6530 O   0  0  0  0  0  0  0  0  0  0  0  0
   -4.5130   16.3450  -34.9680 C   0  0  0  0  0  0  0  0  0  0  0  0
   -5.0480   15.6760  -33.6820 C   0  0  0  0  0  0  0  0  0  0  0  0
   -4.3830   14.3980  -33.2490 N   0  0  0  0  0  0  0  0  0  0  0  0
   -4.9530   13.2510  -34.0100 C   0  0  0  0  0  0  0  0  0  0  0  0
   -2.9120   14.5250  -33.5790 C   0  0  0  0  0  0  0  0  0  0  0  0
   -1.9470   14.0720  -32.4650 C   0  0  0  0  0  0  0  0  0  0  0  0
   -2.4330   12.7880  -31.8060 C   0  0  0  0  0  0  0  0  0  0  0  0
   -3.8400   12.9610  -31.2200 C   0  0  0  0  0  0  0  0  0  0  0  0
   -4.5980   14.1840  -31.7840 C   0  0  0  0  0  0  0  0  0  0  0  0
   -5.2490   19.1820  -34.1230 C   0  0  0  0  0  0  0  0  0  0  0  0
   -5.5530   20.3600  -33.4480 C   0  0  0  0  0  0  0  0  0  0  0  0
   -4.6200   20.9700  -32.5740 C   0  0  0  0  0  0  0  0  0  0  0  0
   -7.4315   18.2996  -30.5379 H   0  0  0  0  0  0  0  0  0  0  0  0
   -6.9155   17.2593  -31.9083 H   0  0  0  0  0  0  0  0  0  0  0  0
   -6.5127   19.0098  -31.9083 H   0  0  0  0  0  0  0  0  0  0  0  0
   -8.6763   17.8938  -33.2132 H   0  0  0  0  0  0  0  0  0  0  0  0
   -9.4153   18.4038  -31.6530 H   0  0  0  0  0  0  0  0  0  0  0  0
   -8.5920   19.9560  -33.8520 H   0  0  0  0  0  0  0  0  0  0  0  0
  -10.3346   21.0516  -33.2200 H   0  0  0  0  0  0  0  0  0  0  0  0
  -10.4394   19.9093  -31.8223 H   0  0  0  0  0  0  0  0  0  0  0  0
  -10.4064   22.2827  -31.0940 H   0  0  0  0  0  0  0  0  0  0  0  0
   -8.9542   21.3289  -30.5180 H   0  0  0  0  0  0  0  0  0  0  0  0
   -8.3984   22.6468  -33.0411 H   0  0  0  0  0  0  0  0  0  0  0  0
   -8.9556   23.8261  -31.7674 H   0  0  0  0  0  0  0  0  0  0  0  0
   -7.0548   23.6378  -30.5808 H   0  0  0  0  0  0  0  0  0  0  0  0
   -6.9806   21.8490  -30.8103 H   0  0  0  0  0  0  0  0  0  0  0  0
   -5.8510   23.9980  -32.4560 H   0  0  0  0  0  0  0  0  0  0  0  0
   -6.4190   22.7030  -33.2690 H   0  0  0  0  0  0  0  0  0  0  0  0
   -5.1514   24.4516  -30.4302 H   0  0  0  0  0  0  0  0  0  0  0  0
   -3.4058   25.4430  -28.9726 H   0  0  0  0  0  0  0  0  0  0  0  0
   -1.1810   24.3501  -28.7669 H   0  0  0  0  0  0  0  0  0  0  0  0
   -0.7440   22.1875  -29.9018 H   0  0  0  0  0  0  0  0  0  0  0  0
   -1.3903   19.9399  -29.7791 H   0  0  0  0  0  0  0  0  0  0  0  0
   -1.5295   18.9212  -31.2520 H   0  0  0  0  0  0  0  0  0  0  0  0
   -0.4505   20.3573  -31.2520 H   0  0  0  0  0  0  0  0  0  0  0  0
   -2.1130   18.6454  -32.9143 H   0  0  0  0  0  0  0  0  0  0  0  0
   -5.3606   16.7357  -35.5501 H   0  0  0  0  0  0  0  0  0  0  0  0
   -3.9602   15.5938  -35.5512 H   0  0  0  0  0  0  0  0  0  0  0  0
   -4.9400   16.4007  -32.8615 H   0  0  0  0  0  0  0  0  0  0  0  0
   -6.0845   15.3928  -33.9176 H   0  0  0  0  0  0  0  0  0  0  0  0
   -5.3290   12.4943  -33.3057 H   0  0  0  0  0  0  0  0  0  0  0  0
   -5.7797   13.6056  -34.6431 H   0  0  0  0  0  0  0  0  0  0  0  0
   -4.1711   12.8062  -34.6431 H   0  0  0  0  0  0  0  0  0  0  0  0
   -2.7100   13.9159  -34.4724 H   0  0  0  0  0  0  0  0  0  0  0  0
   -2.7243   15.5987  -33.7270 H   0  0  0  0  0  0  0  0  0  0  0  0
   -0.9521   13.8977  -32.9007 H   0  0  0  0  0  0  0  0  0  0  0  0
   -1.9018   14.8613  -31.7002 H   0  0  0  0  0  0  0  0  0  0  0  0
   -2.4540   11.9851  -32.5576 H   0  0  0  0  0  0  0  0  0  0  0  0
   -1.7439   12.5357  -30.9865 H   0  0  0  0  0  0  0  0  0  0  0  0
   -4.4239   12.0561  -31.4441 H   0  0  0  0  0  0  0  0  0  0  0  0
   -3.7216   13.1248  -30.1387 H   0  0  0  0  0  0  0  0  0  0  0  0
   -5.6740   14.0378  -31.6081 H   0  0  0  0  0  0  0  0  0  0  0  0
   -4.2067   15.0727  -31.2672 H   0  0  0  0  0  0  0  0  0  0  0  0
   -5.9924   18.7281  -34.7948 H   0  0  0  0  0  0  0  0  0  0  0  0
   -6.5378   20.8271  -33.5960 H   0  0  0  0  0  0  0  0  0  0  0  0
  1  2  1  0
  2  3  1  0
  3  4  1  0
  4  5  1  0
  5  6  1  0
  6  7  1  0
  7  8  1  0
  8  9  1  0
  9 10  2  0
 10 11  1  0
 11 12  2  0
 12 13  1  0
 13 14  2  0
 14 15  1  0
 15 16  2  0
 16 17  1  0
 16 18  1  0
 18 19  2  0
 19 20  1  0
 20 21  1  0
 21 22  1  0
 22 23  1  0
 23 24  1  0
 24 25  1  0
 24 26  1  0
 26 27  1  0
 27 28  1  0
 28 29  1  0
 29 30  1  0
 20 31  2  0
 31 32  1  0
 32 33  2  0
 33  9  1  0
 15 10  1  0
 33 18  1  0
 30 24  1  0
  1 34  1  0
  1 35  1  0
  1 36  1  0
  2 37  1  0
  2 38  1  0
  3 39  1  0
  4 40  1  0
  4 41  1  0
  5 42  1  0
  5 43  1  0
  6 44  1  0
  6 45  1  0
  7 46  1  0
  7 47  1  0
  8 48  1  0
  8 49  1  0
 11 50  1  0
 12 51  1  0
 13 52  1  0
 14 53  1  0
 17 54  1  0
 17 55  1  0
 17 56  1  0
 19 57  1  0
 22 58  1  0
 22 59  1  0
 23 60  1  0
 23 61  1  0
 25 62  1  0
 25 63  1  0
 25 64  1  0
 26 65  1  0
 26 66  1  0
 27 67  1  0
 27 68  1  0
 28 69  1  0
 28 70  1  0
 29 71  1  0
 29 72  1  0
 30 73  1  0
 30 74  1  0
 31 75  1  0
 32 76  1  0
M  CHG  3   8   1  16   1  24   1
M  END
>  <UniqueID>  (8) 
8

>  <SMILES>  (8) 
CCNCCCC[NH2+]c1c2ccccc2[n+](C)c2cc(OCC[N+]3(C)CCCCC3)ccc12

>  <Energy>  (8) 
114.40294918787713

>  <Genealogy>  (8) 
CCNCCCC[NH2+]c1c2ccccc2[n+](C)c2cc(OCC[N+]3(C)CCCCC3)ccc12 (protonated)
CCNCCCC[NH2+]c1c2ccccc2[n+](C)c2cc(OCC[N+]3(C)CCCCC3)ccc12 (3D coordinates assigned)
CCNCCCC[NH2+]c1c2ccccc2[n+](C)c2cc(OCC[N+]3(C)CCCCC3)ccc12 (nonaromatic ring conformer: 114.40294918787713 kcal/mol)

>  <smiles>  (8) 
CCNCCCCNc1c2ccccc2[n+](C)c2cc(OCC[N+]3(C)CCCCC3)ccc12

>  <score_type>  (8) 
oracle

>  <origin>  (8) 
adg

>  <m_score__min__energy>  (8) 
-8.0500000000000007

>  <m_primary>  (8) 
energy

$$$$
8:0
     RDKit          3D

 48 50  0  0  0  0  0  0  0  0999 V2000
   -3.4150   22.5150  -31.8630 C   0  0  0  0  0  0  0  0  0  0  0  0
   -4.8670   22.6570  -31.8250 N   0  0  0  0  0  0  0  0  0  0  0  0
   -5.7550   21.6760  -32.0720 C   0  0  0  0  0  0  0  0  0  0  0  0
   -7.0260   22.1310  -31.7900 C   0  0  0  0  0  0  0  0  0  0  0  0
   -8.5070   21.1930  -31.8890 S   0  0  0  0  0  0  0  0  0  0  0  0
   -9.6260   22.0930  -32.3370 O   0  0  0  0  0  0  0  0  0  0  0  0
   -8.8450   20.6710  -30.5210 O   0  0  0  0  0  0  0  0  0  0  0  0
   -8.3530   19.8540  -33.0060 N   0  0  0  0  0  0  0  0  0  0  0  0
   -6.9570   19.6540  -33.4170 C   0  0  0  0  0  0  0  0  0  0  0  0
   -6.3720   18.5340  -32.5680 C   0  0  0  0  0  0  0  0  0  0  0  0
   -7.5580   17.8340  -31.9310 C   0  0  0  0  0  0  0  0  0  0  0  0
   -8.7940   18.5900  -32.3970 C   0  0  0  0  0  0  0  0  0  0  0  0
   -6.9160   23.4310  -31.3420 C   0  0  0  0  0  0  0  0  0  0  0  0
   -5.5680   23.7290  -31.3910 C   0  0  0  0  0  0  0  0  0  0  0  0
   -4.9630   24.9600  -30.8630 C   0  0  0  0  0  0  0  0  0  0  0  0
   -5.6520   26.0130  -30.8670 O   0  0  0  0  0  0  0  0  0  0  0  0
   -3.6320   25.0080  -30.3240 N   0  0  0  0  0  0  0  0  0  0  0  0
   -3.1060   24.4510  -29.0740 C   0  0  0  0  0  0  0  0  0  0  0  0
   -3.6040   23.0190  -28.8150 C   0  0  0  0  0  0  0  0  0  0  0  0
   -3.0870   22.5080  -27.4620 C   0  0  0  0  0  0  0  0  0  0  0  0
   -1.5550   22.5840  -27.3940 C   0  0  0  0  0  0  0  0  0  0  0  0
   -1.0580   24.0130  -27.6630 C   0  0  0  0  0  0  0  0  0  0  0  0
   -1.5700   24.5310  -29.0130 C   0  0  0  0  0  0  0  0  0  0  0  0
   -3.0233   22.4767  -30.8358 H   0  0  0  0  0  0  0  0  0  0  0  0
   -3.1511   21.5868  -32.3909 H   0  0  0  0  0  0  0  0  0  0  0  0
   -2.9762   23.3745  -32.3909 H   0  0  0  0  0  0  0  0  0  0  0  0
   -5.5061   20.6699  -32.4407 H   0  0  0  0  0  0  0  0  0  0  0  0
   -8.9430   20.0690  -33.8440 H   0  0  0  0  0  0  0  0  0  0  0  0
   -6.9173   19.3758  -34.4805 H   0  0  0  0  0  0  0  0  0  0  0  0
   -6.3810   20.5805  -33.2764 H   0  0  0  0  0  0  0  0  0  0  0  0
   -5.8060   17.8318  -33.1978 H   0  0  0  0  0  0  0  0  0  0  0  0
   -5.6765   18.9226  -31.8095 H   0  0  0  0  0  0  0  0  0  0  0  0
   -7.6048   16.7856  -32.2607 H   0  0  0  0  0  0  0  0  0  0  0  0
   -7.4799   17.8287  -30.8338 H   0  0  0  0  0  0  0  0  0  0  0  0
   -9.3409   17.9895  -33.1388 H   0  0  0  0  0  0  0  0  0  0  0  0
   -9.4625   18.7893  -31.5464 H   0  0  0  0  0  0  0  0  0  0  0  0
   -7.7315   24.0924  -31.0141 H   0  0  0  0  0  0  0  0  0  0  0  0
   -3.5028   25.0791  -28.2628 H   0  0  0  0  0  0  0  0  0  0  0  0
   -4.7040   23.0137  -28.8080 H   0  0  0  0  0  0  0  0  0  0  0  0
   -3.2275   22.3610  -29.6121 H   0  0  0  0  0  0  0  0  0  0  0  0
   -3.5138   23.1250  -26.6575 H   0  0  0  0  0  0  0  0  0  0  0  0
   -3.3913   21.4575  -27.3447 H   0  0  0  0  0  0  0  0  0  0  0  0
   -1.2242   22.2714  -26.3926 H   0  0  0  0  0  0  0  0  0  0  0  0
   -1.1383   21.9190  -28.1648 H   0  0  0  0  0  0  0  0  0  0  0  0
   -1.4201   24.6758  -26.8632 H   0  0  0  0  0  0  0  0  0  0  0  0
    0.0417   24.0015  -27.6876 H   0  0  0  0  0  0  0  0  0  0  0  0
   -1.2567   25.5776  -29.1415 H   0  0  0  0  0  0  0  0  0  0  0  0
   -1.1492   23.9078  -29.8158 H   0  0  0  0  0  0  0  0  0  0  0  0
  1  2  1  0
  2  3  1  0
  3  4  2  0
  4  5  1  0
  5  6  2  0
  5  7  2  0
  5  8  1  0
  8  9  1  0
  9 10  1  0
 10 11  1  0
 11 12  1  0
  4 13  1  0
 13 14  2  0
 14 15  1  0
 15 16  2  0
 15 17  1  0
 17 18  1  0
 18 19  1  0
 19 20  1  0
 20 21  1  0
 21 22  1  0
 22 23  1  0
 14  2  1  0
 23 18  1  0
 12  8  1  0
  1 24  1  0
  1 25  1  0
  1 26  1  0
  3 27  1  0
  8 28  1  0
  9 29  1  0
  9 30  1  0
 10 31  1  0
 10 32  1  0
 11 33  1  0
 11 34  1  0
 12 35  1  0
 12 36  1  0
 13 37  1  0
 18 38  1  0
 19 39  1  0
 19 40  1  0
 20 41  1  0
 20 42  1  0
 21 43  1  0
 21 44  1  0
 22 45  1  0
 22 46  1  0
 23 47  1  0
 23 48  1  0
M  CHG  2   8   1  17  -1
M  END
>  <UniqueID>  (9) 
9

>  <SMILES>  (9) 
Cn1cc(S(=O)(=O)[NH+]2CCCC2)cc1C(=O)[N-]C1CCCCC1

>  <Energy>  (9) 
73.54653858885683

>  <Genealogy>  (9) 
Cn1cc(S(=O)(=O)[NH+]2CCCC2)cc1C(=O)[N-]C1CCCCC1 (protonated)
Cn1cc(S(=O)(=O)[NH+]2CCCC2)cc1C(=O)[N-]C1CCCCC1 (3D coordinates assigned)
Cn1cc(S(=O)(=O)[NH+]2CCCC2)cc1C(=O)[N-]C1CCCCC1 (nonaromatic ring conformer: 73.54653858885683 kcal/mol)

>  <smiles>  (9) 
Cn1cc(S(=O)(=O)N2CCCC2)cc1C(=O)NC1CCCCC1

>  <score_type>  (9) 
oracle

>  <origin>  (9) 
adg

>  <m_score__min__energy>  (9) 
-10.33

>  <m_primary>  (9) 
energy

$$$$
9:0
     RDKit          3D

 76 79  0  0  0  0  0  0  0  0999 V2000
   -6.4430   24.1780  -30.3960 C   0  0  0  0  0  0  0  0  0  0  0  0
   -6.9230   22.7270  -30.2690 C   0  0  0  0  0  0  0  0  0  0  0  0
   -7.7580   22.2500  -31.4010 N   0  0  0  0  0  0  0  0  0  0  0  0
   -8.0730   23.3360  -32.3460 C   0  0  0  0  0  0  0  0  0  0  0  0
   -8.9910   21.5270  -31.0110 C   0  0  0  0  0  0  0  0  0  0  0  0
   -9.3750   20.4170  -32.0040 C   0  0  0  0  0  0  0  0  0  0  0  0
   -8.1930   19.4810  -32.3160 C   0  0  0  0  0  0  0  0  0  0  0  0
   -7.2720   20.0550  -33.3150 N   0  0  0  0  0  0  0  0  0  0  0  0
   -5.9440   19.4520  -33.2400 C   0  0  0  0  0  0  0  0  0  0  0  0
   -5.7720   18.0690  -33.5310 C   0  0  0  0  0  0  0  0  0  0  0  0
   -6.8700   17.2260  -33.8450 C   0  0  0  0  0  0  0  0  0  0  0  0
   -6.6960   15.8640  -34.0680 C   0  0  0  0  0  0  0  0  0  0  0  0
   -5.4340   15.2990  -33.9750 C   0  0  0  0  0  0  0  0  0  0  0  0
   -4.3320   16.1000  -33.6960 C   0  0  0  0  0  0  0  0  0  0  0  0
   -4.4660   17.5010  -33.5080 C   0  0  0  0  0  0  0  0  0  0  0  0
   -3.3640   18.3000  -33.2950 N   0  0  0  0  0  0  0  0  0  0  0  0
   -2.0100   17.7840  -33.6020 C   0  0  0  0  0  0  0  0  0  0  0  0
   -3.5210   19.5910  -32.8340 C   0  0  0  0  0  0  0  0  0  0  0  0
   -2.4180   20.3200  -32.3190 C   0  0  0  0  0  0  0  0  0  0  0  0
   -2.5380   21.6470  -31.9190 C   0  0  0  0  0  0  0  0  0  0  0  0
   -1.4050   22.2930  -31.4030 O   0  0  0  0  0  0  0  0  0  0  0  0
   -0.4600   21.6840  -30.5260 C   0  0  0  0  0  0  0  0  0  0  0  0
   -1.1600   21.0250  -29.3160 C   0  0  0  0  0  0  0  0  0  0  0  0
   -1.9030   21.9270  -28.3720 N   0  0  0  0  0  0  0  0  0  0  0  0
   -1.6670   21.4890  -26.9670 C   0  0  0  0  0  0  0  0  0  0  0  0
   -1.3450   23.3210  -28.5530 C   0  0  0  0  0  0  0  0  0  0  0  0
   -2.3960   24.4480  -28.6220 C   0  0  0  0  0  0  0  0  0  0  0  0
   -3.5130   24.2270  -27.6130 C   0  0  0  0  0  0  0  0  0  0  0  0
   -4.2000   22.8710  -27.8220 C   0  0  0  0  0  0  0  0  0  0  0  0
   -3.3690   21.8850  -28.6730 C   0  0  0  0  0  0  0  0  0  0  0  0
   -3.7730   22.2860  -32.0430 C   0  0  0  0  0  0  0  0  0  0  0  0
   -4.8830   21.5860  -32.5060 C   0  0  0  0  0  0  0  0  0  0  0  0
   -4.8000   20.2140  -32.8580 C   0  0  0  0  0  0  0  0  0  0  0  0
   -6.3013   24.6065  -29.3928 H   0  0  0  0  0  0  0  0  0  0  0  0
   -5.4890   24.2021  -30.9431 H   0  0  0  0  0  0  0  0  0  0  0  0
   -7.1944   24.7662  -30.9431 H   0  0  0  0  0  0  0  0  0  0  0  0
   -6.0378   22.0778  -30.1984 H   0  0  0  0  0  0  0  0  0  0  0  0
   -7.5603   22.6870  -29.3733 H   0  0  0  0  0  0  0  0  0  0  0  0
   -8.3366   24.2449  -31.7853 H   0  0  0  0  0  0  0  0  0  0  0  0
   -7.1962   23.5371  -32.9790 H   0  0  0  0  0  0  0  0  0  0  0  0
   -8.9213   23.0367  -32.9790 H   0  0  0  0  0  0  0  0  0  0  0  0
   -8.8334   21.0732  -30.0214 H   0  0  0  0  0  0  0  0  0  0  0  0
   -9.8125   22.2584  -31.0005 H   0  0  0  0  0  0  0  0  0  0  0  0
  -10.1931   19.8223  -31.5715 H   0  0  0  0  0  0  0  0  0  0  0  0
   -9.6828   20.8972  -32.9446 H   0  0  0  0  0  0  0  0  0  0  0  0
   -7.6349   19.2943  -31.3867 H   0  0  0  0  0  0  0  0  0  0  0  0
   -8.6030   18.5493  -32.7329 H   0  0  0  0  0  0  0  0  0  0  0  0
   -7.2030   21.0860  -33.1680 H   0  0  0  0  0  0  0  0  0  0  0  0
   -7.7030   20.0080  -34.2590 H   0  0  0  0  0  0  0  0  0  0  0  0
   -7.8791   17.6586  -33.9134 H   0  0  0  0  0  0  0  0  0  0  0  0
   -7.5621   15.2340  -34.3187 H   0  0  0  0  0  0  0  0  0  0  0  0
   -5.3039   14.2166  -34.1219 H   0  0  0  0  0  0  0  0  0  0  0  0
   -3.3363   15.6389  -33.6194 H   0  0  0  0  0  0  0  0  0  0  0  0
   -1.4739   17.5797  -32.6634 H   0  0  0  0  0  0  0  0  0  0  0  0
   -2.0951   16.8553  -34.1853 H   0  0  0  0  0  0  0  0  0  0  0  0
   -1.4554   18.5338  -34.1853 H   0  0  0  0  0  0  0  0  0  0  0  0
   -1.4409   19.8221  -32.2337 H   0  0  0  0  0  0  0  0  0  0  0  0
    0.0985   20.9147  -31.0795 H   0  0  0  0  0  0  0  0  0  0  0  0
    0.2190   22.4642  -30.1516 H   0  0  0  0  0  0  0  0  0  0  0  0
   -1.8811   20.2937  -29.7100 H   0  0  0  0  0  0  0  0  0  0  0  0
   -0.3425   20.6005  -28.7148 H   0  0  0  0  0  0  0  0  0  0  0  0
   -2.0727   22.2419  -26.2752 H   0  0  0  0  0  0  0  0  0  0  0  0
   -2.1678   20.5249  -26.7945 H   0  0  0  0  0  0  0  0  0  0  0  0
   -0.5864   21.3770  -26.7945 H   0  0  0  0  0  0  0  0  0  0  0  0
   -0.6758   23.5318  -27.7058 H   0  0  0  0  0  0  0  0  0  0  0  0
   -0.8353   23.3204  -29.5278 H   0  0  0  0  0  0  0  0  0  0  0  0
   -1.9052   25.4089  -28.4080 H   0  0  0  0  0  0  0  0  0  0  0  0
   -2.8355   24.4506  -29.6304 H   0  0  0  0  0  0  0  0  0  0  0  0
   -3.0897   24.2605  -26.5983 H   0  0  0  0  0  0  0  0  0  0  0  0
   -4.2639   25.0190  -27.7507 H   0  0  0  0  0  0  0  0  0  0  0  0
   -4.3791   22.4157  -26.8368 H   0  0  0  0  0  0  0  0  0  0  0  0
   -5.1351   23.0624  -28.3687 H   0  0  0  0  0  0  0  0  0  0  0  0
   -3.7349   20.8655  -28.4816 H   0  0  0  0  0  0  0  0  0  0  0  0
   -3.4925   22.1812  -29.7252 H   0  0  0  0  0  0  0  0  0  0  0  0
   -3.8692   23.3481  -31.7734 H   0  0  0  0  0  0  0  0  0  0  0  0
   -5.8465   22.1081  -32.6012 H   0  0  0  0  0  0  0  0  0  0  0  0
  1  2  1  0
  2  3  1  0
  3  4  1  0
  3  5  1  0
  5  6  1  0
  6  7  1  0
  7  8  1  0
  8  9  1  0
  9 10  2  0
 10 11  1  0
 11 12  2  0
 12 13  1  0
 13 14  2  0
 14 15  1  0
 15 16  2  0
 16 17  1  0
 16 18  1  0
 18 19  2  0
 19 20  1  0
 20 21  1  0
 21 22  1  0
 22 23  1  0
 23 24  1  0
 24 25  1  0
 24 26  1  0
 26 27  1  0
 27 28  1  0
 28 29  1  0
 29 30  1  0
 20 31  2  0
 31 32  1  0
 32 33  2  0
 33  9  1  0
 15 10  1  0
 33 18  1  0
 30 24  1  0
  1 34  1  0
  1 35  1  0
  1 36  1  0
  2 37  1  0
  2 38  1  0
  4 39  1  0
  4 40  1  0
  4 41  1  0
  5 42  1  0
  5 43  1  0
  6 44  1  0
  6 45  1  0
  7 46  1  0
  7 47  1  0
  8 48  1  0
  8 49  1  0
 11 50  1  0
 12 51  1  0
 13 52  1  0
 14 53  1  0
 17 54  1  0
 17 55  1  0
 17 56  1  0
 19 57  1  0
 22 58  1  0
 22 59  1  0
 23 60  1  0
 23 61  1  0
 25 62  1  0
 25 63  1  0
 25 64  1  0
 26 65  1  0
 26 66  1  0
 27 67  1  0
 27 68  1  0
 28 69  1  0
 28 70  1  0
 29 71  1  0
 29 72  1  0
 30 73  1  0
 30 74  1  0
 31 75  1  0
 32 76  1  0
M  CHG  3   8   1  16   1  24   1
M  END
>  <UniqueID>  (10) 
10

>  <SMILES>  (10) 
CCN(C)CCC[NH2+]c1c2ccccc2[n+](C)c2cc(OCC[N+]3(C)CCCCC3)ccc12

>  <Energy>  (10) 
124.89003631543878

>  <Genealogy>  (10) 
CCN(C)CCC[NH2+]c1c2ccccc2[n+](C)c2cc(OCC[N+]3(C)CCCCC3)ccc12 (protonated)
CCN(C)CCC[NH2+]c1c2ccccc2[n+](C)c2cc(OCC[N+]3(C)CCCCC3)ccc12 (3D coordinates assigned)
CCN(C)CCC[NH2+]c1c2ccccc2[n+](C)c2cc(OCC[N+]3(C)CCCCC3)ccc12 (nonaromatic ring conformer: 124.89003631543878 kcal/mol)

>  <smiles>  (10) 
CCN(C)CCCNc1c2ccccc2[n+](C)c2cc(OCC[N+]3(C)CCCCC3)ccc12

>  <score_type>  (10) 
oracle

>  <origin>  (10) 
adg

>  <m_score__min__energy>  (10) 
-7.7699999999999996

>  <m_primary>  (10) 
energy

$$$$
10:0
     RDKit          3D

 53 55  0  0  0  0  0  0  0  0999 V2000
   -3.0260   16.7810  -34.4700 C   0  0  0  0  0  0  0  0  0  0  0  0
   -4.2560   17.3520  -33.8110 C   0  0  0  0  0  0  0  0  0  0  0  0
   -4.4430   18.7400  -33.7920 C   0  0  0  0  0  0  0  0  0  0  0  0
   -5.5700   19.3310  -33.1740 C   0  0  0  0  0  0  0  0  0  0  0  0
   -5.7090   20.7410  -33.0650 C   0  0  0  0  0  0  0  0  0  0  0  0
   -4.6180   21.6260  -33.4530 N   0  0  0  0  0  0  0  0  0  0  0  0
   -3.3900   21.2850  -32.7160 C   0  0  0  0  0  0  0  0  0  0  0  0
   -3.1040   22.3210  -31.6220 C   0  0  0  0  0  0  0  0  0  0  0  0
   -4.4020   22.9590  -31.1090 C   0  0  0  0  0  0  0  0  0  0  0  0
   -4.1870   24.3840  -30.7760 N   0  0  0  0  0  0  0  0  0  0  0  0
   -5.4620   25.1230  -30.7590 C   0  0  0  0  0  0  0  0  0  0  0  0
   -3.5350   24.5090  -29.4620 C   0  0  0  0  0  0  0  0  0  0  0  0
   -6.9050   21.2690  -32.5110 C   0  0  0  0  0  0  0  0  0  0  0  0
   -7.1400   22.6660  -32.4370 C   0  0  0  0  0  0  0  0  0  0  0  0
   -8.2720   23.1730  -31.8060 C   0  0  0  0  0  0  0  0  0  0  0  0
   -9.1930   22.3100  -31.2300 C   0  0  0  0  0  0  0  0  0  0  0  0
   -9.0150   20.9330  -31.3290 C   0  0  0  0  0  0  0  0  0  0  0  0
   -7.9010   20.3820  -32.0190 C   0  0  0  0  0  0  0  0  0  0  0  0
   -7.7760   19.0200  -32.2010 N   0  0  0  0  0  0  0  0  0  0  0  0
   -8.9420   18.1350  -31.9720 C   0  0  0  0  0  0  0  0  0  0  0  0
   -6.5870   18.4860  -32.6590 C   0  0  0  0  0  0  0  0  0  0  0  0
   -6.3420   17.0900  -32.6120 C   0  0  0  0  0  0  0  0  0  0  0  0
   -5.1880   16.5230  -33.1640 C   0  0  0  0  0  0  0  0  0  0  0  0
   -4.9970   15.0280  -33.1020 C   0  0  0  0  0  0  0  0  0  0  0  0
   -2.3157   16.4513  -33.6975 H   0  0  0  0  0  0  0  0  0  0  0  0
   -3.3106   15.9229  -35.0967 H   0  0  0  0  0  0  0  0  0  0  0  0
   -2.5543   17.5522  -35.0967 H   0  0  0  0  0  0  0  0  0  0  0  0
   -3.6936   19.3878  -34.2703 H   0  0  0  0  0  0  0  0  0  0  0  0
   -4.4480   21.5870  -34.4820 H   0  0  0  0  0  0  0  0  0  0  0  0
   -4.8720   22.6270  -33.3010 H   0  0  0  0  0  0  0  0  0  0  0  0
   -3.5114   20.2951  -32.2520 H   0  0  0  0  0  0  0  0  0  0  0  0
   -2.5466   21.2769  -33.4221 H   0  0  0  0  0  0  0  0  0  0  0  0
   -2.5920   21.8257  -30.7838 H   0  0  0  0  0  0  0  0  0  0  0  0
   -2.4716   23.1132  -32.0492 H   0  0  0  0  0  0  0  0  0  0  0  0
   -5.1746   22.8827  -31.8883 H   0  0  0  0  0  0  0  0  0  0  0  0
   -4.7228   22.4277  -30.2008 H   0  0  0  0  0  0  0  0  0  0  0  0
   -5.7689   25.3009  -29.7177 H   0  0  0  0  0  0  0  0  0  0  0  0
   -5.3340   26.0869  -31.2733 H   0  0  0  0  0  0  0  0  0  0  0  0
   -6.2348   24.5328  -31.2733 H   0  0  0  0  0  0  0  0  0  0  0  0
   -4.2817   24.3658  -28.6671 H   0  0  0  0  0  0  0  0  0  0  0  0
   -2.7489   23.7452  -29.3686 H   0  0  0  0  0  0  0  0  0  0  0  0
   -3.0872   25.5094  -29.3686 H   0  0  0  0  0  0  0  0  0  0  0  0
   -6.4149   23.3606  -32.8862 H   0  0  0  0  0  0  0  0  0  0  0  0
   -8.4368   24.2598  -31.7639 H   0  0  0  0  0  0  0  0  0  0  0  0
  -10.0647   22.7143  -30.6946 H   0  0  0  0  0  0  0  0  0  0  0  0
   -9.7499   20.2588  -30.8648 H   0  0  0  0  0  0  0  0  0  0  0  0
   -9.1029   18.0129  -30.8907 H   0  0  0  0  0  0  0  0  0  0  0  0
   -9.8374   18.5829  -32.4276 H   0  0  0  0  0  0  0  0  0  0  0  0
   -8.7514   17.1521  -32.4276 H   0  0  0  0  0  0  0  0  0  0  0  0
   -7.0804   16.4341  -32.1277 H   0  0  0  0  0  0  0  0  0  0  0  0
   -4.9560   14.7069  -32.0507 H   0  0  0  0  0  0  0  0  0  0  0  0
   -5.8388   14.5296  -33.6050 H   0  0  0  0  0  0  0  0  0  0  0  0
   -4.0570   14.7573  -33.6050 H   0  0  0  0  0  0  0  0  0  0  0  0
  1  2  1  0
  2  3  2  0
  3  4  1  0
  4  5  2  0
  5  6  1  0
  6  7  1  0
  7  8  1  0
  8  9  1  0
  9 10  1  0
 10 11  1  0
 10 12  1  0
  5 13  1  0
 13 14  2  0
 14 15  1  0
 15 16  2  0
 16 17  1  0
 17 18  2  0
 18 19  1  0
 19 20  1  0
 19 21  2  0
 21 22  1  0
 22 23  2  0
 23 24  1  0
 23  2  1  0
 21  4  1  0
 18 13  1  0
  1 25  1  0
  1 26  1  0
  1 27  1  0
  3 28  1  0
  6 29  1  0
  6 30  1  0
  7 31  1  0
  7 32  1  0
  8 33  1  0
  8 34  1  0
  9 35  1  0
  9 36  1  0
 11 37  1  0
 11 38  1  0
 11 39  1  0
 12 40  1  0
 12 41  1  0
 12 42  1  0
 14 43  1  0
 15 44  1  0
 16 45  1  0
 17 46  1  0
 20 47  1  0
 20 48  1  0
 20 49  1  0
 22 50  1  0
 24 51  1  0
 24 52  1  0
 24 53  1  0
M  CHG  2   6   1  19   1
M  END
>  <UniqueID>  (11) 
11

>  <SMILES>  (11) 
Cc1cc2c([NH2+]CCCN(C)C)c3ccccc3[n+](C)c2cc1C

>  <Energy>  (11) 
80.1649656290366

>  <Genealogy>  (11) 
Cc1cc2c([NH2+]CCCN(C)C)c3ccccc3[n+](C)c2cc1C (protonated)
Cc1cc2c([NH2+]CCCN(C)C)c3ccccc3[n+](C)c2cc1C (3D coordinates assigned)
Cc1cc2c([NH2+]CCCN(C)C)c3ccccc3[n+](C)c2cc1C (optimized conformer: 80.1649656290366 kcal/mol)

>  <smiles>  (11) 
Cc1cc2c(NCCCN(C)C)c3ccccc3[n+](C)c2cc1C

>  <score_type>  (11) 
oracle

>  <origin>  (11) 
adg

>  <m_score__min__energy>  (11) 
-8.0999999999999996

>  <m_primary>  (11) 
energy

$$$$
11:0
     RDKit          3D

 29 30  0  0  0  0  0  0  0  0999 V2000
   -2.6900   24.3410  -28.2250 C   0  0  0  0  0  0  0  0  0  0  0  0
   -2.9540   23.8490  -29.6420 C   0  0  0  0  0  0  0  0  0  0  0  0
   -3.4960   24.9340  -30.4630 N   0  0  0  0  0  0  0  0  0  0  0  0
   -5.2340   24.9610  -30.4020 S   0  0  0  0  0  0  0  0  0  0  0  0
   -5.7370   26.1500  -31.1720 O   0  0  0  0  0  0  0  0  0  0  0  0
   -5.6920   25.0850  -28.9750 O   0  0  0  0  0  0  0  0  0  0  0  0
   -5.8810   23.4940  -31.1300 C   0  0  0  0  0  0  0  0  0  0  0  0
   -5.0660   22.6490  -31.8930 C   0  0  0  0  0  0  0  0  0  0  0  0
   -5.5940   21.4940  -32.4760 C   0  0  0  0  0  0  0  0  0  0  0  0
   -6.9580   21.1640  -32.3040 C   0  0  0  0  0  0  0  0  0  0  0  0
   -7.6090   19.9300  -32.9040 C   0  0  0  0  0  0  0  0  0  0  0  0
   -9.0890   19.7120  -32.6170 C   0  0  0  0  0  0  0  0  0  0  0  0
   -8.0440   18.8330  -31.9410 C   0  0  0  0  0  0  0  0  0  0  0  0
   -7.7650   22.0220  -31.5390 C   0  0  0  0  0  0  0  0  0  0  0  0
   -7.2330   23.1750  -30.9580 C   0  0  0  0  0  0  0  0  0  0  0  0
   -3.0827   23.6092  -27.5037 H   0  0  0  0  0  0  0  0  0  0  0  0
   -1.6069   24.4599  -28.0740 H   0  0  0  0  0  0  0  0  0  0  0  0
   -3.1897   25.3092  -28.0740 H   0  0  0  0  0  0  0  0  0  0  0  0
   -2.0115   23.4947  -30.0848 H   0  0  0  0  0  0  0  0  0  0  0  0
   -3.6849   23.0277  -29.6057 H   0  0  0  0  0  0  0  0  0  0  0  0
   -4.0034   22.8959  -32.0344 H   0  0  0  0  0  0  0  0  0  0  0  0
   -4.9441   20.8371  -33.0728 H   0  0  0  0  0  0  0  0  0  0  0  0
   -6.9899   19.9680  -33.8124 H   0  0  0  0  0  0  0  0  0  0  0  0
   -9.6498   20.4522  -32.0274 H   0  0  0  0  0  0  0  0  0  0  0  0
   -9.9816   19.5260  -33.2324 H   0  0  0  0  0  0  0  0  0  0  0  0
   -7.8504   18.9386  -30.8633 H   0  0  0  0  0  0  0  0  0  0  0  0
   -7.8696   17.7495  -31.8662 H   0  0  0  0  0  0  0  0  0  0  0  0
   -8.8291   21.7828  -31.3958 H   0  0  0  0  0  0  0  0  0  0  0  0
   -7.8797   23.8359  -30.3622 H   0  0  0  0  0  0  0  0  0  0  0  0
  1  2  1  0
  2  3  1  0
  3  4  1  0
  4  5  2  0
  4  6  2  0
  4  7  1  0
  7  8  2  0
  8  9  1  0
  9 10  2  0
 10 11  1  0
 11 12  1  0
 12 13  1  0
 10 14  1  0
 14 15  2  0
 15  7  1  0
 13 11  1  0
  1 16  1  0
  1 17  1  0
  1 18  1  0
  2 19  1  0
  2 20  1  0
  8 21  1  0
  9 22  1  0
 11 23  1  0
 12 24  1  0
 12 25  1  0
 13 26  1  0
 13 27  1  0
 14 28  1  0
 15 29  1  0
M  CHG  1   3  -1
M  END
>  <UniqueID>  (12) 
12

>  <SMILES>  (12) 
CC[N-]S(=O)(=O)c1ccc(C2CC2)cc1

>  <Energy>  (12) 
292.87789225385524

>  <Genealogy>  (12) 
CC[N-]S(=O)(=O)c1ccc(C2CC2)cc1 (protonated)
CC[N-]S(=O)(=O)c1ccc(C2CC2)cc1 (3D coordinates assigned)
CC[N-]S(=O)(=O)c1ccc(C2CC2)cc1 (nonaromatic ring conformer: 292.87789225385524 kcal/mol)

>  <smiles>  (12) 
CCNS(=O)(=O)c1ccc(C2CC2)cc1

>  <score_type>  (12) 
oracle

>  <origin>  (12) 
adg

>  <m_score__min__energy>  (12) 
-8.3300000000000001

>  <m_primary>  (12) 
energy

$$$$
12:0
     RDKit          3D

 50 49  0  0  0  0  0  0  0  0999 V2000
   -6.1080   19.0190  -34.1970 C   0  0  0  0  0  0  0  0  0  0  0  0
   -6.6470   19.3630  -32.8100 C   0  0  0  0  0  0  0  0  0  0  0  0
   -7.3190   20.6810  -32.8250 N   0  0  0  0  0  0  0  0  0  0  0  0
   -8.6310   20.6210  -32.1390 C   0  0  0  0  0  0  0  0  0  0  0  0
   -9.0750   19.1700  -31.9800 C   0  0  0  0  0  0  0  0  0  0  0  0
   -6.4560   21.7520  -32.2690 C   0  0  0  0  0  0  0  0  0  0  0  0
   -7.2770   23.0250  -32.0760 C   0  0  0  0  0  0  0  0  0  0  0  0
   -6.4090   24.1300  -31.9310 O   0  0  0  0  0  0  0  0  0  0  0  0
   -6.3150   24.4960  -30.5710 C   0  0  0  0  0  0  0  0  0  0  0  0
   -5.3510   25.6790  -30.4300 C   0  0  0  0  0  0  0  0  0  0  0  0
   -4.0150   25.2950  -30.6990 O   0  0  0  0  0  0  0  0  0  0  0  0
   -3.8090   23.9140  -30.4660 C   0  0  0  0  0  0  0  0  0  0  0  0
   -2.5830   23.6810  -29.5660 C   0  0  0  0  0  0  0  0  0  0  0  0
   -2.4210   24.7570  -28.5610 N   0  0  0  0  0  0  0  0  0  0  0  0
   -3.2620   24.5350  -27.3630 C   0  0  0  0  0  0  0  0  0  0  0  0
   -2.6940   25.3060  -26.1760 C   0  0  0  0  0  0  0  0  0  0  0  0
   -1.0120   25.0900  -28.2190 C   0  0  0  0  0  0  0  0  0  0  0  0
   -0.0480   23.8920  -28.2390 C   0  0  0  0  0  0  0  0  0  0  0  0
   -5.1847   18.4297  -34.0958 H   0  0  0  0  0  0  0  0  0  0  0  0
   -6.8587   18.4327  -34.7471 H   0  0  0  0  0  0  0  0  0  0  0  0
   -5.8924   19.9469  -34.7471 H   0  0  0  0  0  0  0  0  0  0  0  0
   -7.3689   18.5926  -32.5013 H   0  0  0  0  0  0  0  0  0  0  0  0
   -5.8060   19.4016  -32.1021 H   0  0  0  0  0  0  0  0  0  0  0  0
   -8.5435   21.0854  -31.1457 H   0  0  0  0  0  0  0  0  0  0  0  0
   -9.3765   21.1612  -32.7410 H   0  0  0  0  0  0  0  0  0  0  0  0
   -9.1501   18.9246  -30.9103 H   0  0  0  0  0  0  0  0  0  0  0  0
  -10.0564   19.0324  -32.4575 H   0  0  0  0  0  0  0  0  0  0  0  0
   -8.3387   18.5068  -32.4575 H   0  0  0  0  0  0  0  0  0  0  0  0
   -6.0499   21.4281  -31.2994 H   0  0  0  0  0  0  0  0  0  0  0  0
   -5.6296   21.9533  -32.9665 H   0  0  0  0  0  0  0  0  0  0  0  0
   -7.9240   23.1799  -32.9520 H   0  0  0  0  0  0  0  0  0  0  0  0
   -7.8978   22.9266  -31.1732 H   0  0  0  0  0  0  0  0  0  0  0  0
   -7.3088   24.7856  -30.1989 H   0  0  0  0  0  0  0  0  0  0  0  0
   -5.9403   23.6437  -29.9852 H   0  0  0  0  0  0  0  0  0  0  0  0
   -5.6460   26.4668  -31.1387 H   0  0  0  0  0  0  0  0  0  0  0  0
   -5.4029   26.0447  -29.3939 H   0  0  0  0  0  0  0  0  0  0  0  0
   -4.6999   23.4957  -29.9748 H   0  0  0  0  0  0  0  0  0  0  0  0
   -3.6321   23.4192  -31.4324 H   0  0  0  0  0  0  0  0  0  0  0  0
   -2.7038   22.7211  -29.0425 H   0  0  0  0  0  0  0  0  0  0  0  0
   -1.6879   23.6751  -30.2053 H   0  0  0  0  0  0  0  0  0  0  0  0
   -4.2855   24.8827  -27.5670 H   0  0  0  0  0  0  0  0  0  0  0  0
   -3.2731   23.4614  -27.1239 H   0  0  0  0  0  0  0  0  0  0  0  0
   -3.0362   24.8415  -25.2394 H   0  0  0  0  0  0  0  0  0  0  0  0
   -1.5950   25.2836  -26.2162 H   0  0  0  0  0  0  0  0  0  0  0  0
   -3.0412   26.3490  -26.2162 H   0  0  0  0  0  0  0  0  0  0  0  0
   -0.6497   25.8340  -28.9437 H   0  0  0  0  0  0  0  0  0  0  0  0
   -1.0224   25.4645  -27.1848 H   0  0  0  0  0  0  0  0  0  0  0  0
    0.1903   23.5959  -27.2068 H   0  0  0  0  0  0  0  0  0  0  0  0
   -0.5221   23.0486  -28.7623 H   0  0  0  0  0  0  0  0  0  0  0  0
    0.8774   24.1747  -28.7623 H   0  0  0  0  0  0  0  0  0  0  0  0
  1  2  1  0
  2  3  1  0
  3  4  1  0
  4  5  1  0
  3  6  1  0
  6  7  1  0
  7  8  1  0
  8  9  1  0
  9 10  1  0
 10 11  1  0
 11 12  1  0
 12 13  1  0
 13 14  1  0
 14 15  1  0
 15 16  1  0
 14 17  1  0
 17 18  1  0
  1 19  1  0
  1 20  1  0
  1 21  1  0
  2 22  1  0
  2 23  1  0
  4 24  1  0
  4 25  1  0
  5 26  1  0
  5 27  1  0
  5 28  1  0
  6 29  1  0
  6 30  1  0
  7 31  1  0
  7 32  1  0
  9 33  1  0
  9 34  1  0
 10 35  1  0
 10 36  1  0
 12 37  1  0
 12 38  1  0
 13 39  1  0
 13 40  1  0
 15 41  1  0
 15 42  1  0
 16 43  1  0
 16 44  1  0
 16 45  1  0
 17 46  1  0
 17 47  1  0
 18 48  1  0
 18 49  1  0
 18 50  1  0
M  END
>  <UniqueID>  (13) 
13

>  <SMILES>  (13) 
CCN(CC)CCOCCOCCN(CC)CC

>  <Energy>  (13) 
46.086927617756906

>  <Genealogy>  (13) 
CCN(CC)CCOCCOCCN(CC)CC (3D coordinates assigned)
CCN(CC)CCOCCOCCN(CC)CC (optimized conformer: 46.086927617756906 kcal/mol)

>  <smiles>  (13) 
CCN(CC)CCOCCOCCN(CC)CC

>  <score_type>  (13) 
oracle

>  <origin>  (13) 
adg

>  <m_score__min__energy>  (13) 
-5.6500000000000004

>  <m_primary>  (13) 
energy

$$$$
13:0
     RDKit          3D

 54 57  0  0  0  0  0  0  0  0999 V2000
   -6.4320   25.6440  -29.5950 C   0  0  0  0  0  0  0  0  0  0  0  0
   -5.7410   25.5870  -30.9540 C   0  0  0  0  0  0  0  0  0  0  0  0
   -4.2930   25.3920  -30.7930 N   0  0  0  0  0  0  0  0  0  0  0  0
   -3.9800   24.7660  -29.5030 C   0  0  0  0  0  0  0  0  0  0  0  0
   -3.4500   23.3460  -29.7190 C   0  0  0  0  0  0  0  0  0  0  0  0
   -2.7100   23.2550  -30.9210 O   0  0  0  0  0  0  0  0  0  0  0  0
   -1.7320   22.2290  -30.8840 C   0  0  0  0  0  0  0  0  0  0  0  0
   -2.2170   20.9730  -31.6170 C   0  0  0  0  0  0  0  0  0  0  0  0
   -3.4630   21.2170  -32.3490 N   0  0  0  0  0  0  0  0  0  0  0  0
   -4.2190   20.1470  -32.9360 C   0  0  0  0  0  0  0  0  0  0  0  0
   -3.5950   19.0730  -33.6140 C   0  0  0  0  0  0  0  0  0  0  0  0
   -2.2100   19.0930  -33.8730 C   0  0  0  0  0  0  0  0  0  0  0  0
   -1.5980   18.0370  -34.5450 C   0  0  0  0  0  0  0  0  0  0  0  0
   -2.3540   16.9580  -34.9910 C   0  0  0  0  0  0  0  0  0  0  0  0
   -3.7300   16.9220  -34.7710 C   0  0  0  0  0  0  0  0  0  0  0  0
   -4.3860   17.9640  -34.0720 C   0  0  0  0  0  0  0  0  0  0  0  0
   -5.7530   17.9360  -33.8420 N   0  0  0  0  0  0  0  0  0  0  0  0
   -6.5690   16.7600  -34.1990 C   0  0  0  0  0  0  0  0  0  0  0  0
   -6.3420   19.0430  -33.2870 C   0  0  0  0  0  0  0  0  0  0  0  0
   -7.6700   19.2370  -33.0830 N   0  0  0  0  0  0  0  0  0  0  0  0
   -7.7610   20.4430  -32.4890 C   0  0  0  0  0  0  0  0  0  0  0  0
   -8.9300   21.0850  -32.0800 C   0  0  0  0  0  0  0  0  0  0  0  0
   -8.8130   22.3480  -31.4770 C   0  0  0  0  0  0  0  0  0  0  0  0
   -7.5450   22.9410  -31.2980 C   0  0  0  0  0  0  0  0  0  0  0  0
   -6.3800   22.2780  -31.7220 C   0  0  0  0  0  0  0  0  0  0  0  0
   -6.5220   21.0200  -32.3160 C   0  0  0  0  0  0  0  0  0  0  0  0
   -5.6070   20.1220  -32.8390 C   0  0  0  0  0  0  0  0  0  0  0  0
   -5.6774   25.5818  -28.7971 H   0  0  0  0  0  0  0  0  0  0  0  0
   -6.9846   26.5908  -29.5040 H   0  0  0  0  0  0  0  0  0  0  0  0
   -7.1322   24.8006  -29.5040 H   0  0  0  0  0  0  0  0  0  0  0  0
   -6.1556   24.7501  -31.5351 H   0  0  0  0  0  0  0  0  0  0  0  0
   -5.9135   26.5384  -31.4786 H   0  0  0  0  0  0  0  0  0  0  0  0
   -3.8410   26.3370  -30.8020 H   0  0  0  0  0  0  0  0  0  0  0  0
   -3.2159   25.3641  -28.9848 H   0  0  0  0  0  0  0  0  0  0  0  0
   -4.8958   24.7187  -28.8955 H   0  0  0  0  0  0  0  0  0  0  0  0
   -2.7992   23.0734  -28.8751 H   0  0  0  0  0  0  0  0  0  0  0  0
   -4.3072   22.6598  -29.7842 H   0  0  0  0  0  0  0  0  0  0  0  0
   -0.8123   22.5927  -31.3656 H   0  0  0  0  0  0  0  0  0  0  0  0
   -1.5423   21.9669  -29.8327 H   0  0  0  0  0  0  0  0  0  0  0  0
   -1.4418   20.6550  -32.3297 H   0  0  0  0  0  0  0  0  0  0  0  0
   -2.4086   20.1918  -30.8667 H   0  0  0  0  0  0  0  0  0  0  0  0
   -3.7830   22.2000  -32.5010 H   0  0  0  0  0  0  0  0  0  0  0  0
   -1.6062   19.9506  -33.5414 H   0  0  0  0  0  0  0  0  0  0  0  0
   -0.5128   18.0567  -34.7235 H   0  0  0  0  0  0  0  0  0  0  0  0
   -1.8631   16.1281  -35.5205 H   0  0  0  0  0  0  0  0  0  0  0  0
   -4.3158   16.0701  -35.1466 H   0  0  0  0  0  0  0  0  0  0  0  0
   -6.9149   16.2615  -33.2815 H   0  0  0  0  0  0  0  0  0  0  0  0
   -7.4382   17.0828  -34.7909 H   0  0  0  0  0  0  0  0  0  0  0  0
   -5.9624   16.0588  -34.7909 H   0  0  0  0  0  0  0  0  0  0  0  0
   -8.4730   18.6250  -33.3420 H   0  0  0  0  0  0  0  0  0  0  0  0
   -9.9143   20.6159  -32.2255 H   0  0  0  0  0  0  0  0  0  0  0  0
   -9.7163   22.8788  -31.1418 H   0  0  0  0  0  0  0  0  0  0  0  0
   -7.4675   23.9301  -30.8228 H   0  0  0  0  0  0  0  0  0  0  0  0
   -5.3879   22.7345  -31.5906 H   0  0  0  0  0  0  0  0  0  0  0  0
  1  2  1  0
  2  3  1  0
  3  4  1  0
  4  5  1  0
  5  6  1  0
  6  7  1  0
  7  8  1  0
  8  9  1  0
  9 10  1  0
 10 11  2  0
 11 12  1  0
 12 13  2  0
 13 14  1  0
 14 15  2  0
 15 16  1  0
 16 17  2  0
 17 18  1  0
 17 19  1  0
 19 20  1  0
 20 21  1  0
 21 22  2  0
 22 23  1  0
 23 24  2  0
 24 25  1  0
 25 26  2  0
 26 27  1  0
 27 10  1  0
 16 11  1  0
 27 19  2  0
 26 21  1  0
  1 28  1  0
  1 29  1  0
  1 30  1  0
  2 31  1  0
  2 32  1  0
  3 33  1  0
  4 34  1  0
  4 35  1  0
  5 36  1  0
  5 37  1  0
  7 38  1  0
  7 39  1  0
  8 40  1  0
  8 41  1  0
  9 42  1  0
 12 43  1  0
 13 44  1  0
 14 45  1  0
 15 46  1  0
 18 47  1  0
 18 48  1  0
 18 49  1  0
 20 50  1  0
 22 51  1  0
 23 52  1  0
 24 53  1  0
 25 54  1  0
M  CHG  1  17   1
M  END
>  <UniqueID>  (14) 
14

>  <SMILES>  (14) 
CCNCCOCCNc1c2ccccc2[n+](C)c2[nH]c3ccccc3c12

>  <Energy>  (14) 
108.50395796691059

>  <Genealogy>  (14) 
CCNCCOCCNc1c2ccccc2[n+](C)c2[nH]c3ccccc3c12 (3D coordinates assigned)
CCNCCOCCNc1c2ccccc2[n+](C)c2[nH]c3ccccc3c12 (optimized conformer: 108.50395796691059 kcal/mol)

>  <smiles>  (14) 
CCNCCOCCNc1c2ccccc2[n+](C)c2[nH]c3ccccc3c12

>  <score_type>  (14) 
oracle

>  <origin>  (14) 
adg

>  <m_score__min__energy>  (14) 
-8.7400000000000002

>  <m_primary>  (14) 
energy

$$$$
14:0
     RDKit          3D

 40 42  0  0  0  0  0  0  0  0999 V2000
   -9.8720   20.9070  -32.2370 C   0  0  0  0  0  0  0  0  0  0  0  0
   -8.3840   21.0680  -32.3400 C   0  0  0  0  0  0  0  0  0  0  0  0
   -7.7680   22.2080  -31.8090 C   0  0  0  0  0  0  0  0  0  0  0  0
   -6.3710   22.3500  -31.8760 C   0  0  0  0  0  0  0  0  0  0  0  0
   -5.7090   23.4810  -31.3620 O   0  0  0  0  0  0  0  0  0  0  0  0
   -6.2730   24.4550  -30.4840 C   0  0  0  0  0  0  0  0  0  0  0  0
   -5.2540   25.5490  -30.1340 C   0  0  0  0  0  0  0  0  0  0  0  0
   -3.9250   25.2410  -30.6590 N   0  0  0  0  0  0  0  0  0  0  0  0
   -5.6100   21.3210  -32.4630 C   0  0  0  0  0  0  0  0  0  0  0  0
   -4.2120   21.4080  -32.5570 C   0  0  0  0  0  0  0  0  0  0  0  0
   -3.4750   20.3770  -33.1430 C   0  0  0  0  0  0  0  0  0  0  0  0
   -4.1160   19.2330  -33.6490 C   0  0  0  0  0  0  0  0  0  0  0  0
   -3.3280   18.1370  -34.2700 C   0  0  0  0  0  0  0  0  0  0  0  0
   -1.9500   17.9600  -34.2420 C   0  0  0  0  0  0  0  0  0  0  0  0
   -1.6290   16.8380  -34.9130 N   0  0  0  0  0  0  0  0  0  0  0  0
   -2.7510   16.3110  -35.3730 N   0  0  0  0  0  0  0  0  0  0  0  0
   -2.8200   15.0480  -36.0940 C   0  0  0  0  0  0  0  0  0  0  0  0
   -3.8040   17.0600  -34.9960 C   0  0  0  0  0  0  0  0  0  0  0  0
   -5.5170   19.1440  -33.5560 C   0  0  0  0  0  0  0  0  0  0  0  0
   -6.2680   20.1770  -32.9710 C   0  0  0  0  0  0  0  0  0  0  0  0
   -7.6250   20.0790  -32.8920 N   0  0  0  0  0  0  0  0  0  0  0  0
  -10.1649   20.8753  -31.1772 H   0  0  0  0  0  0  0  0  0  0  0  0
  -10.3677   21.7568  -32.7291 H   0  0  0  0  0  0  0  0  0  0  0  0
  -10.1745   19.9709  -32.7291 H   0  0  0  0  0  0  0  0  0  0  0  0
   -8.3780   22.9934  -31.3389 H   0  0  0  0  0  0  0  0  0  0  0  0
   -7.1419   24.9185  -30.9741 H   0  0  0  0  0  0  0  0  0  0  0  0
   -6.5734   23.9506  -29.5538 H   0  0  0  0  0  0  0  0  0  0  0  0
   -5.5941   26.5029  -30.5633 H   0  0  0  0  0  0  0  0  0  0  0  0
   -5.1826   25.6118  -29.0381 H   0  0  0  0  0  0  0  0  0  0  0  0
   -3.8350   24.2050  -30.7710 H   0  0  0  0  0  0  0  0  0  0  0  0
   -3.8250   25.6750  -31.6060 H   0  0  0  0  0  0  0  0  0  0  0  0
   -3.6931   22.2955  -32.1659 H   0  0  0  0  0  0  0  0  0  0  0  0
   -2.3802   20.4610  -33.2094 H   0  0  0  0  0  0  0  0  0  0  0  0
   -1.2329   18.6323  -33.7482 H   0  0  0  0  0  0  0  0  0  0  0  0
   -2.8654   14.2171  -35.3746 H   0  0  0  0  0  0  0  0  0  0  0  0
   -3.7202   15.0353  -36.7261 H   0  0  0  0  0  0  0  0  0  0  0  0
   -1.9266   14.9373  -36.7261 H   0  0  0  0  0  0  0  0  0  0  0  0
   -4.8595   16.8518  -35.2253 H   0  0  0  0  0  0  0  0  0  0  0  0
   -6.0312   18.2535  -33.9466 H   0  0  0  0  0  0  0  0  0  0  0  0
   -8.1030   19.2240  -33.2620 H   0  0  0  0  0  0  0  0  0  0  0  0
  1  2  1  0
  2  3  2  0
  3  4  1  0
  4  5  1  0
  5  6  1  0
  6  7  1  0
  7  8  1  0
  4  9  2  0
  9 10  1  0
 10 11  2  0
 11 12  1  0
 12 13  1  0
 13 14  1  0
 14 15  2  0
 15 16  1  0
 16 17  1  0
 16 18  1  0
 12 19  2  0
 19 20  1  0
 20 21  2  0
 21  2  1  0
 20  9  1  0
 18 13  2  0
  1 22  1  0
  1 23  1  0
  1 24  1  0
  3 25  1  0
  6 26  1  0
  6 27  1  0
  7 28  1  0
  7 29  1  0
  8 30  1  0
  8 31  1  0
 10 32  1  0
 11 33  1  0
 14 34  1  0
 17 35  1  0
 17 36  1  0
 17 37  1  0
 18 38  1  0
 19 39  1  0
 21 40  1  0
M  CHG  1  21   1
M  END
>  <UniqueID>  (15) 
15

>  <SMILES>  (15) 
Cc1cc(OCCN)c2ccc(-c3cnn(C)c3)cc2[nH+]1

>  <Energy>  (15) 
73.83250264951373

>  <Genealogy>  (15) 
Cc1cc(OCCN)c2ccc(-c3cnn(C)c3)cc2[nH+]1 (protonated)
Cc1cc(OCCN)c2ccc(-c3cnn(C)c3)cc2[nH+]1 (3D coordinates assigned)
Cc1cc(OCCN)c2ccc(-c3cnn(C)c3)cc2[nH+]1 (optimized conformer: 73.83250264951373 kcal/mol)

>  <smiles>  (15) 
Cc1cc(OCCN)c2ccc(-c3cnn(C)c3)cc2n1

>  <score_type>  (15) 
oracle

>  <origin>  (15) 
adg

>  <m_score__min__energy>  (15) 
-6.8499999999999996

>  <m_primary>  (15) 
energy

$$$$
15:0
     RDKit          3D

 45 47  0  0  0  0  0  0  0  0999 V2000
   -4.8360   18.4930  -34.1490 C   0  0  0  0  0  0  0  0  0  0  0  0
   -5.0850   19.6300  -33.3310 O   0  0  0  0  0  0  0  0  0  0  0  0
   -6.3140   19.9120  -32.7110 C   0  0  0  0  0  0  0  0  0  0  0  0
   -7.5110   19.2840  -33.1090 C   0  0  0  0  0  0  0  0  0  0  0  0
   -8.7120   19.5760  -32.4580 C   0  0  0  0  0  0  0  0  0  0  0  0
   -9.8590   18.9660  -32.8470 F   0  0  0  0  0  0  0  0  0  0  0  0
   -8.7340   20.4910  -31.4040 C   0  0  0  0  0  0  0  0  0  0  0  0
   -7.5550   21.1220  -31.0020 C   0  0  0  0  0  0  0  0  0  0  0  0
   -6.3450   20.8460  -31.6550 C   0  0  0  0  0  0  0  0  0  0  0  0
   -5.1050   21.5210  -31.2070 C   0  0  0  0  0  0  0  0  0  0  0  0
   -3.9540   20.7420  -31.0310 C   0  0  0  0  0  0  0  0  0  0  0  0
   -2.7330   21.3240  -30.6510 C   0  0  0  0  0  0  0  0  0  0  0  0
   -1.5730   20.5480  -30.4780 O   0  0  0  0  0  0  0  0  0  0  0  0
   -1.0070   19.7000  -31.4710 C   0  0  0  0  0  0  0  0  0  0  0  0
   -2.6550   22.7170  -30.4370 C   0  0  0  0  0  0  0  0  0  0  0  0
   -1.3870   23.3210  -30.0770 N   0  0  0  0  0  0  0  0  0  0  0  0
   -1.2170   23.4250  -28.6150 C   0  0  0  0  0  0  0  0  0  0  0  0
   -1.4320   24.8530  -28.0850 C   0  0  0  0  0  0  0  0  0  0  0  0
   -1.2630   25.8030  -29.1030 O   0  0  0  0  0  0  0  0  0  0  0  0
   -3.8180   23.5080  -30.5890 C   0  0  0  0  0  0  0  0  0  0  0  0
   -3.7630   24.8520  -30.3720 N   0  0  0  0  0  0  0  0  0  0  0  0
   -4.8490   25.6550  -30.4990 C   0  0  0  0  0  0  0  0  0  0  0  0
   -6.0800   25.1110  -30.8540 C   0  0  0  0  0  0  0  0  0  0  0  0
   -6.1820   23.7410  -31.0860 C   0  0  0  0  0  0  0  0  0  0  0  0
   -5.0470   22.9130  -30.9710 C   0  0  0  0  0  0  0  0  0  0  0  0
   -4.6443   17.6174  -33.5113 H   0  0  0  0  0  0  0  0  0  0  0  0
   -5.7130   18.2991  -34.7841 H   0  0  0  0  0  0  0  0  0  0  0  0
   -3.9583   18.6833  -34.7841 H   0  0  0  0  0  0  0  0  0  0  0  0
   -7.4997   18.5598  -33.9369 H   0  0  0  0  0  0  0  0  0  0  0  0
   -9.6804   20.7150  -30.8900 H   0  0  0  0  0  0  0  0  0  0  0  0
   -7.5754   21.8395  -30.1685 H   0  0  0  0  0  0  0  0  0  0  0  0
   -4.0072   19.6553  -31.1932 H   0  0  0  0  0  0  0  0  0  0  0  0
   -0.4595   18.8797  -30.9839 H   0  0  0  0  0  0  0  0  0  0  0  0
   -1.8091   19.2838  -32.0983 H   0  0  0  0  0  0  0  0  0  0  0  0
   -0.3150   20.2811  -32.0983 H   0  0  0  0  0  0  0  0  0  0  0  0
   -0.5780   22.8070  -30.4920 H   0  0  0  0  0  0  0  0  0  0  0  0
   -1.3470   24.2850  -30.4820 H   0  0  0  0  0  0  0  0  0  0  0  0
   -1.9441   22.7576  -28.1292 H   0  0  0  0  0  0  0  0  0  0  0  0
   -0.1800   23.1407  -28.3833 H   0  0  0  0  0  0  0  0  0  0  0  0
   -2.4522   24.9364  -27.6823 H   0  0  0  0  0  0  0  0  0  0  0  0
   -0.6875   25.0485  -27.2992 H   0  0  0  0  0  0  0  0  0  0  0  0
   -2.0140   25.6750  -29.7400 H   0  0  0  0  0  0  0  0  0  0  0  0
   -4.7567   26.7366  -30.3213 H   0  0  0  0  0  0  0  0  0  0  0  0
   -6.9649   25.7573  -30.9506 H   0  0  0  0  0  0  0  0  0  0  0  0
   -7.1532   23.3033  -31.3603 H   0  0  0  0  0  0  0  0  0  0  0  0
  1  2  1  0
  2  3  1  0
  3  4  2  0
  4  5  1  0
  5  6  1  0
  5  7  2  0
  7  8  1  0
  8  9  2  0
  9 10  1  0
 10 11  2  0
 11 12  1  0
 12 13  1  0
 13 14  1  0
 12 15  2  0
 15 16  1  0
 16 17  1  0
 17 18  1  0
 18 19  1  0
 15 20  1  0
 20 21  2  0
 21 22  1  0
 22 23  2  0
 23 24  1  0
 24 25  2  0
  9  3  1  0
 25 10  1  0
 25 20  1  0
  1 26  1  0
  1 27  1  0
  1 28  1  0
  4 29  1  0
  7 30  1  0
  8 31  1  0
 11 32  1  0
 14 33  1  0
 14 34  1  0
 14 35  1  0
 16 36  1  0
 16 37  1  0
 17 38  1  0
 17 39  1  0
 18 40  1  0
 18 41  1  0
 19 42  1  0
 22 43  1  0
 23 44  1  0
 24 45  1  0
M  CHG  1  16   1
M  END
>  <UniqueID>  (16) 
16

>  <SMILES>  (16) 
COc1cc(F)ccc1-c1cc(OC)c([NH2+]CCO)c2ncccc12

>  <Energy>  (16) 
59.77681125572964

>  <Genealogy>  (16) 
COc1cc(F)ccc1-c1cc(OC)c([NH2+]CCO)c2ncccc12 (protonated)
COc1cc(F)ccc1-c1cc(OC)c([NH2+]CCO)c2ncccc12 (3D coordinates assigned)
COc1cc(F)ccc1-c1cc(OC)c([NH2+]CCO)c2ncccc12 (optimized conformer: 59.77681125572964 kcal/mol)

>  <smiles>  (16) 
COc1cc(F)ccc1-c1cc(OC)c(NCCO)c2ncccc12

>  <score_type>  (16) 
oracle

>  <origin>  (16) 
adg

>  <m_score__min__energy>  (16) 
-7.0599999999999996

>  <m_primary>  (16) 
energy

$$$$
16:0
     RDKit          3D

 51 52  0  0  0  0  0  0  0  0999 V2000
   -5.6860   18.5520  -34.5860 C   0  0  0  0  0  0  0  0  0  0  0  0
   -6.1720   19.7630  -33.7940 C   0  0  0  0  0  0  0  0  0  0  0  0
   -6.4480   19.3750  -32.4070 N   0  0  0  0  0  0  0  0  0  0  0  0
   -7.3980   18.2560  -32.3580 C   0  0  0  0  0  0  0  0  0  0  0  0
   -8.7040   18.6760  -31.6690 C   0  0  0  0  0  0  0  0  0  0  0  0
   -9.3860   19.8840  -32.3460 C   0  0  0  0  0  0  0  0  0  0  0  0
   -9.2380   21.1760  -31.5340 C   0  0  0  0  0  0  0  0  0  0  0  0
   -7.8550   21.6710  -31.6240 N   0  0  0  0  0  0  0  0  0  0  0  0
   -7.7730   23.1380  -31.5720 C   0  0  0  0  0  0  0  0  0  0  0  0
   -6.4730   23.6780  -32.1910 C   0  0  0  0  0  0  0  0  0  0  0  0
   -5.4090   23.8100  -31.1390 C   0  0  0  0  0  0  0  0  0  0  0  0
   -5.3800   24.7020  -30.0660 C   0  0  0  0  0  0  0  0  0  0  0  0
   -6.4570   25.6770  -29.7160 C   0  0  0  0  0  0  0  0  0  0  0  0
   -4.2210   24.5850  -29.3770 N   0  0  0  0  0  0  0  0  0  0  0  0
   -3.5070   23.6430  -30.0170 C   0  0  0  0  0  0  0  0  0  0  0  0
   -2.2240   23.2020  -29.7030 C   0  0  0  0  0  0  0  0  0  0  0  0
   -1.6380   22.2340  -30.5380 C   0  0  0  0  0  0  0  0  0  0  0  0
   -2.3310   21.7320  -31.6640 C   0  0  0  0  0  0  0  0  0  0  0  0
   -1.6860   20.7820  -32.4710 O   0  0  0  0  0  0  0  0  0  0  0  0
   -2.1510   20.3700  -33.7510 C   0  0  0  0  0  0  0  0  0  0  0  0
   -3.6390   22.1990  -31.9490 C   0  0  0  0  0  0  0  0  0  0  0  0
   -4.1930   23.1540  -31.0980 C   0  0  0  0  0  0  0  0  0  0  0  0
   -5.3688   17.7617  -33.8897 H   0  0  0  0  0  0  0  0  0  0  0  0
   -6.5030   18.1763  -35.2195 H   0  0  0  0  0  0  0  0  0  0  0  0
   -4.8359   18.8453  -35.2195 H   0  0  0  0  0  0  0  0  0  0  0  0
   -5.3960   20.5425  -33.8070 H   0  0  0  0  0  0  0  0  0  0  0  0
   -7.0946   20.1486  -34.2523 H   0  0  0  0  0  0  0  0  0  0  0  0
   -6.8910   20.1960  -31.9300 H   0  0  0  0  0  0  0  0  0  0  0  0
   -7.6214   17.9280  -33.3839 H   0  0  0  0  0  0  0  0  0  0  0  0
   -6.9451   17.4354  -31.7823 H   0  0  0  0  0  0  0  0  0  0  0  0
   -9.4000   17.8244  -31.6897 H   0  0  0  0  0  0  0  0  0  0  0  0
   -8.4503   18.9766  -30.6417 H   0  0  0  0  0  0  0  0  0  0  0  0
   -8.9313   20.0361  -33.3360 H   0  0  0  0  0  0  0  0  0  0  0  0
  -10.4602   19.6601  -32.4230 H   0  0  0  0  0  0  0  0  0  0  0  0
   -9.9242   21.9376  -31.9328 H   0  0  0  0  0  0  0  0  0  0  0  0
   -9.4803   20.9705  -30.4809 H   0  0  0  0  0  0  0  0  0  0  0  0
   -7.4260   21.3320  -32.5200 H   0  0  0  0  0  0  0  0  0  0  0  0
   -8.6272   23.5587  -32.1228 H   0  0  0  0  0  0  0  0  0  0  0  0
   -7.7877   23.4360  -30.5132 H   0  0  0  0  0  0  0  0  0  0  0  0
   -6.1273   22.9841  -32.9714 H   0  0  0  0  0  0  0  0  0  0  0  0
   -6.6694   24.6687  -32.6269 H   0  0  0  0  0  0  0  0  0  0  0  0
   -6.5412   25.7532  -28.6219 H   0  0  0  0  0  0  0  0  0  0  0  0
   -6.2085   26.6636  -30.1342 H   0  0  0  0  0  0  0  0  0  0  0  0
   -7.4141   25.3319  -30.1342 H   0  0  0  0  0  0  0  0  0  0  0  0
   -3.9280   25.1320  -28.5360 H   0  0  0  0  0  0  0  0  0  0  0  0
   -1.6858   23.5983  -28.8293 H   0  0  0  0  0  0  0  0  0  0  0  0
   -0.6275   21.8625  -30.3124 H   0  0  0  0  0  0  0  0  0  0  0  0
   -2.9692   19.6451  -33.6280 H   0  0  0  0  0  0  0  0  0  0  0  0
   -2.5173   21.2454  -34.3073 H   0  0  0  0  0  0  0  0  0  0  0  0
   -1.3261   19.9010  -34.3073 H   0  0  0  0  0  0  0  0  0  0  0  0
   -4.1998   21.8191  -32.8157 H   0  0  0  0  0  0  0  0  0  0  0  0
  1  2  1  0
  2  3  1  0
  3  4  1  0
  4  5  1  0
  5  6  1  0
  6  7  1  0
  7  8  1  0
  8  9  1  0
  9 10  1  0
 10 11  1  0
 11 12  2  0
 12 13  1  0
 12 14  1  0
 14 15  1  0
 15 16  2  0
 16 17  1  0
 17 18  2  0
 18 19  1  0
 19 20  1  0
 18 21  1  0
 21 22  2  0
 22 11  1  0
 22 15  1  0
  1 23  1  0
  1 24  1  0
  1 25  1  0
  2 26  1  0
  2 27  1  0
  3 28  1  0
  4 29  1  0
  4 30  1  0
  5 31  1  0
  5 32  1  0
  6 33  1  0
  6 34  1  0
  7 35  1  0
  7 36  1  0
  8 37  1  0
  9 38  1  0
  9 39  1  0
 10 40  1  0
 10 41  1  0
 13 42  1  0
 13 43  1  0
 13 44  1  0
 14 45  1  0
 16 46  1  0
 17 47  1  0
 20 48  1  0
 20 49  1  0
 20 50  1  0
 21 51  1  0
M  END
>  <UniqueID>  (17) 
17

>  <SMILES>  (17) 
CCNCCCCNCCc1c(C)[nH]c2ccc(OC)cc12

>  <Energy>  (17) 
69.79225257883377

>  <Genealogy>  (17) 
CCNCCCCNCCc1c(C)[nH]c2ccc(OC)cc12 (3D coordinates assigned)
CCNCCCCNCCc1c(C)[nH]c2ccc(OC)cc12 (optimized conformer: 69.79225257883377 kcal/mol)

>  <smiles>  (17) 
CCNCCCCNCCc1c(C)[nH]c2ccc(OC)cc12

>  <score_type>  (17) 
oracle

>  <origin>  (17) 
adg

>  <m_score__min__energy>  (17) 
-7.4400000000000004

>  <m_primary>  (17) 
energy

$$$$
17:0
     RDKit          3D

 52 54  0  0  0  0  0  0  0  0999 V2000
   -6.9820   24.8350  -30.0610 C   0  0  0  0  0  0  0  0  0  0  0  0
   -5.6000   25.4910  -30.0580 C   0  0  0  0  0  0  0  0  0  0  0  0
   -4.6080   24.6970  -30.8200 N   0  0  0  0  0  0  0  0  0  0  0  0
   -3.5830   24.0880  -29.9320 C   0  0  0  0  0  0  0  0  0  0  0  0
   -4.2310   23.5940  -28.6440 C   0  0  0  0  0  0  0  0  0  0  0  0
   -5.3000   23.6640  -31.6290 C   0  0  0  0  0  0  0  0  0  0  0  0
   -4.3020   22.6570  -32.2150 C   0  0  0  0  0  0  0  0  0  0  0  0
   -4.5080   21.3120  -31.6680 N   0  0  0  0  0  0  0  0  0  0  0  0
   -5.2180   20.3050  -32.4080 C   0  0  0  0  0  0  0  0  0  0  0  0
   -6.6200   20.2530  -32.3190 C   0  0  0  0  0  0  0  0  0  0  0  0
   -7.3540   21.3410  -31.8000 C   0  0  0  0  0  0  0  0  0  0  0  0
   -8.7440   21.2950  -31.7380 C   0  0  0  0  0  0  0  0  0  0  0  0
   -9.4260   20.1750  -32.2010 C   0  0  0  0  0  0  0  0  0  0  0  0
   -8.7180   19.0850  -32.7090 C   0  0  0  0  0  0  0  0  0  0  0  0
   -7.3010   19.0910  -32.7530 C   0  0  0  0  0  0  0  0  0  0  0  0
   -6.5820   17.9970  -33.1850 N   0  0  0  0  0  0  0  0  0  0  0  0
   -7.2360   16.6720  -33.2700 C   0  0  0  0  0  0  0  0  0  0  0  0
   -5.2480   18.1390  -33.5230 C   0  0  0  0  0  0  0  0  0  0  0  0
   -4.5700   17.1240  -34.2410 C   0  0  0  0  0  0  0  0  0  0  0  0
   -3.2240   17.2430  -34.5540 C   0  0  0  0  0  0  0  0  0  0  0  0
   -2.5300   18.3960  -34.2290 C   0  0  0  0  0  0  0  0  0  0  0  0
   -3.1700   19.4640  -33.5830 C   0  0  0  0  0  0  0  0  0  0  0  0
   -2.3980   20.7580  -33.4880 C   0  0  0  0  0  0  0  0  0  0  0  0
   -4.5320   19.3210  -33.1630 C   0  0  0  0  0  0  0  0  0  0  0  0
   -7.3151   24.6769  -29.0246 H   0  0  0  0  0  0  0  0  0  0  0  0
   -7.6975   25.4896  -30.5803 H   0  0  0  0  0  0  0  0  0  0  0  0
   -6.9272   23.8668  -30.5803 H   0  0  0  0  0  0  0  0  0  0  0  0
   -5.6798   26.4898  -30.5119 H   0  0  0  0  0  0  0  0  0  0  0  0
   -5.2560   25.5547  -29.0151 H   0  0  0  0  0  0  0  0  0  0  0  0
   -3.1108   23.2402  -30.4498 H   0  0  0  0  0  0  0  0  0  0  0  0
   -2.8249   24.8460  -29.6853 H   0  0  0  0  0  0  0  0  0  0  0  0
   -3.6899   24.0065  -27.7797 H   0  0  0  0  0  0  0  0  0  0  0  0
   -5.2799   23.9237  -28.6114 H   0  0  0  0  0  0  0  0  0  0  0  0
   -4.1909   22.4952  -28.6114 H   0  0  0  0  0  0  0  0  0  0  0  0
   -6.0166   23.1280  -30.9893 H   0  0  0  0  0  0  0  0  0  0  0  0
   -5.8195   24.1631  -32.4602 H   0  0  0  0  0  0  0  0  0  0  0  0
   -4.4300   22.6217  -33.3070 H   0  0  0  0  0  0  0  0  0  0  0  0
   -3.2862   22.9847  -31.9489 H   0  0  0  0  0  0  0  0  0  0  0  0
   -3.8680   20.9980  -30.9050 H   0  0  0  0  0  0  0  0  0  0  0  0
   -6.8223   22.2345  -31.4408 H   0  0  0  0  0  0  0  0  0  0  0  0
   -9.3037   22.1458  -31.3222 H   0  0  0  0  0  0  0  0  0  0  0  0
  -10.5251   20.1482  -32.1668 H   0  0  0  0  0  0  0  0  0  0  0  0
   -9.2677   18.2078  -33.0809 H   0  0  0  0  0  0  0  0  0  0  0  0
   -7.4244   16.2903  -32.2557 H   0  0  0  0  0  0  0  0  0  0  0  0
   -8.1902   16.7680  -33.8087 H   0  0  0  0  0  0  0  0  0  0  0  0
   -6.5795   15.9729  -33.8087 H   0  0  0  0  0  0  0  0  0  0  0  0
   -5.1206   16.2253  -34.5561 H   0  0  0  0  0  0  0  0  0  0  0  0
   -2.7054   16.4172  -35.0630 H   0  0  0  0  0  0  0  0  0  0  0  0
   -1.4622   18.4757  -34.4808 H   0  0  0  0  0  0  0  0  0  0  0  0
   -2.2439   21.0162  -32.4299 H   0  0  0  0  0  0  0  0  0  0  0  0
   -1.4225   20.6401  -33.9824 H   0  0  0  0  0  0  0  0  0  0  0  0
   -2.9651   21.5604  -33.9824 H   0  0  0  0  0  0  0  0  0  0  0  0
  1  2  1  0
  2  3  1  0
  3  4  1  0
  4  5  1  0
  3  6  1  0
  6  7  1  0
  7  8  1  0
  8  9  1  0
  9 10  2  0
 10 11  1  0
 11 12  2  0
 12 13  1  0
 13 14  2  0
 14 15  1  0
 15 16  2  0
 16 17  1  0
 16 18  1  0
 18 19  2  0
 19 20  1  0
 20 21  2  0
 21 22  1  0
 22 23  1  0
 22 24  2  0
 24  9  1  0
 15 10  1  0
 24 18  1  0
  1 25  1  0
  1 26  1  0
  1 27  1  0
  2 28  1  0
  2 29  1  0
  4 30  1  0
  4 31  1  0
  5 32  1  0
  5 33  1  0
  5 34  1  0
  6 35  1  0
  6 36  1  0
  7 37  1  0
  7 38  1  0
  8 39  1  0
 11 40  1  0
 12 41  1  0
 13 42  1  0
 14 43  1  0
 17 44  1  0
 17 45  1  0
 17 46  1  0
 19 47  1  0
 20 48  1  0
 21 49  1  0
 23 50  1  0
 23 51  1  0
 23 52  1  0
M  CHG  1  16   1
M  END
>  <UniqueID>  (18) 
18

>  <SMILES>  (18) 
CCN(CC)CCNc1c2ccccc2[n+](C)c2cccc(C)c12

>  <Energy>  (18) 
81.80429469633222

>  <Genealogy>  (18) 
CCN(CC)CCNc1c2ccccc2[n+](C)c2cccc(C)c12 (3D coordinates assigned)
CCN(CC)CCNc1c2ccccc2[n+](C)c2cccc(C)c12 (optimized conformer: 81.80429469633222 kcal/mol)

>  <smiles>  (18) 
CCN(CC)CCNc1c2ccccc2[n+](C)c2cccc(C)c12

>  <score_type>  (18) 
oracle

>  <origin>  (18) 
adg

>  <m_score__min__energy>  (18) 
-8.3300000000000001

>  <m_primary>  (18) 
energy

$$$$
18:0
     RDKit          3D

 60 62  0  0  0  0  0  0  0  0999 V2000
   -0.3950   22.7120  -25.5760 C   0  0  0  0  0  0  0  0  0  0  0  0
   -0.4860   23.5010  -24.2650 C   0  0  0  0  0  0  0  0  0  0  0  0
    0.1160   24.8590  -24.3890 N   0  0  0  0  0  0  0  0  0  0  0  0
   -0.8650   25.9370  -24.1040 C   0  0  0  0  0  0  0  0  0  0  0  0
   -0.2420   27.1110  -23.3370 C   0  0  0  0  0  0  0  0  0  0  0  0
    0.8070   25.0460  -25.6990 C   0  0  0  0  0  0  0  0  0  0  0  0
    0.0570   25.9010  -26.7510 C   0  0  0  0  0  0  0  0  0  0  0  0
   -0.2480   25.1630  -27.9190 O   0  0  0  0  0  0  0  0  0  0  0  0
   -1.6360   24.9050  -28.0220 C   0  0  0  0  0  0  0  0  0  0  0  0
   -1.9770   24.2210  -29.3530 C   0  0  0  0  0  0  0  0  0  0  0  0
   -3.4760   23.8950  -29.5240 C   0  0  0  0  0  0  0  0  0  0  0  0
   -4.2380   24.9230  -30.2500 N   0  0  0  0  0  0  0  0  0  0  0  0
   -5.6200   24.5160  -30.5270 C   0  0  0  0  0  0  0  0  0  0  0  0
   -5.6990   23.8640  -31.9080 C   0  0  0  0  0  0  0  0  0  0  0  0
   -6.7210   22.7570  -31.9190 C   0  0  0  0  0  0  0  0  0  0  0  0
   -8.0080   22.9720  -31.3920 C   0  0  0  0  0  0  0  0  0  0  0  0
   -8.9560   21.9340  -31.3670 C   0  0  0  0  0  0  0  0  0  0  0  0
   -8.6330   20.6610  -31.8590 C   0  0  0  0  0  0  0  0  0  0  0  0
   -7.3490   20.4350  -32.3710 C   0  0  0  0  0  0  0  0  0  0  0  0
   -6.4160   21.4730  -32.3940 C   0  0  0  0  0  0  0  0  0  0  0  0
   -4.9590   20.9160  -33.0500 S   0  0  0  0  0  0  0  0  0  0  0  0
   -5.5170   19.3480  -33.3060 C   0  0  0  0  0  0  0  0  0  0  0  0
   -4.8170   18.2730  -33.8470 C   0  0  0  0  0  0  0  0  0  0  0  0
   -5.4780   17.0410  -33.9670 C   0  0  0  0  0  0  0  0  0  0  0  0
   -6.8130   16.9070  -33.5490 C   0  0  0  0  0  0  0  0  0  0  0  0
   -7.5040   18.0040  -33.0060 C   0  0  0  0  0  0  0  0  0  0  0  0
   -6.8400   19.2320  -32.8870 C   0  0  0  0  0  0  0  0  0  0  0  0
   -0.2716   21.6421  -25.3522 H   0  0  0  0  0  0  0  0  0  0  0  0
   -1.3163   22.8609  -26.1583 H   0  0  0  0  0  0  0  0  0  0  0  0
    0.4682   23.0668  -26.1583 H   0  0  0  0  0  0  0  0  0  0  0  0
   -1.5449   23.6058  -23.9861 H   0  0  0  0  0  0  0  0  0  0  0  0
    0.0746   22.9492  -23.4961 H   0  0  0  0  0  0  0  0  0  0  0  0
    0.8700   24.9470  -23.6650 H   0  0  0  0  0  0  0  0  0  0  0  0
   -1.2648   26.3114  -25.0580 H   0  0  0  0  0  0  0  0  0  0  0  0
   -1.6580   25.5089  -23.4732 H   0  0  0  0  0  0  0  0  0  0  0  0
   -0.3361   26.9336  -22.2555 H   0  0  0  0  0  0  0  0  0  0  0  0
    0.8217   27.1995  -23.6028 H   0  0  0  0  0  0  0  0  0  0  0  0
   -0.7650   28.0415  -23.6028 H   0  0  0  0  0  0  0  0  0  0  0  0
    1.7752   25.5294  -25.5019 H   0  0  0  0  0  0  0  0  0  0  0  0
    0.8845   24.0402  -26.1376 H   0  0  0  0  0  0  0  0  0  0  0  0
   -0.8810   26.2662  -26.3074 H   0  0  0  0  0  0  0  0  0  0  0  0
    0.7139   26.7347  -27.0397 H   0  0  0  0  0  0  0  0  0  0  0  0
   -1.9414   24.2493  -27.1932 H   0  0  0  0  0  0  0  0  0  0  0  0
   -2.1725   25.8642  -27.9762 H   0  0  0  0  0  0  0  0  0  0  0  0
   -1.6721   24.8879  -30.1729 H   0  0  0  0  0  0  0  0  0  0  0  0
   -1.4387   23.2618  -29.3656 H   0  0  0  0  0  0  0  0  0  0  0  0
   -3.5621   22.9476  -30.0762 H   0  0  0  0  0  0  0  0  0  0  0  0
   -3.9047   23.8394  -28.5125 H   0  0  0  0  0  0  0  0  0  0  0  0
   -4.2380   25.8160  -29.7080 H   0  0  0  0  0  0  0  0  0  0  0  0
   -5.9490   23.7958  -29.7634 H   0  0  0  0  0  0  0  0  0  0  0  0
   -6.2717   25.4019  -30.5049 H   0  0  0  0  0  0  0  0  0  0  0  0
   -5.9831   24.6245  -32.6502 H   0  0  0  0  0  0  0  0  0  0  0  0
   -4.7150   23.4381  -32.1538 H   0  0  0  0  0  0  0  0  0  0  0  0
   -8.2751   23.9626  -30.9954 H   0  0  0  0  0  0  0  0  0  0  0  0
   -9.9597   22.1220  -30.9580 H   0  0  0  0  0  0  0  0  0  0  0  0
   -9.3775   19.8514  -31.8430 H   0  0  0  0  0  0  0  0  0  0  0  0
   -3.7723   18.3865  -34.1721 H   0  0  0  0  0  0  0  0  0  0  0  0
   -4.9481   16.1751  -34.3907 H   0  0  0  0  0  0  0  0  0  0  0  0
   -7.3210   15.9363  -33.6475 H   0  0  0  0  0  0  0  0  0  0  0  0
   -8.5493   17.9000  -32.6797 H   0  0  0  0  0  0  0  0  0  0  0  0
  1  2  1  0
  2  3  1  0
  3  4  1  0
  4  5  1  0
  3  6  1  0
  6  7  1  0
  7  8  1  0
  8  9  1  0
  9 10  1  0
 10 11  1  0
 11 12  1  0
 12 13  1  0
 13 14  1  0
 14 15  1  0
 15 16  2  0
 16 17  1  0
 17 18  2  0
 18 19  1  0
 19 20  2  0
 20 21  1  0
 21 22  1  0
 22 23  2  0
 23 24  1  0
 24 25  2  0
 25 26  1  0
 26 27  2  0
 20 15  1  0
 27 22  1  0
 27 19  1  0
  1 28  1  0
  1 29  1  0
  1 30  1  0
  2 31  1  0
  2 32  1  0
  3 33  1  0
  4 34  1  0
  4 35  1  0
  5 36  1  0
  5 37  1  0
  5 38  1  0
  6 39  1  0
  6 40  1  0
  7 41  1  0
  7 42  1  0
  9 43  1  0
  9 44  1  0
 10 45  1  0
 10 46  1  0
 11 47  1  0
 11 48  1  0
 12 49  1  0
 13 50  1  0
 13 51  1  0
 14 52  1  0
 14 53  1  0
 16 54  1  0
 17 55  1  0
 18 56  1  0
 23 57  1  0
 24 58  1  0
 25 59  1  0
 26 60  1  0
M  CHG  1   3   1
M  END
>  <UniqueID>  (19) 
19

>  <SMILES>  (19) 
CC[NH+](CC)CCOCCCNCCc1cccc2c1sc1ccccc12

>  <Energy>  (19) 
101.16737244301135

>  <Genealogy>  (19) 
CC[NH+](CC)CCOCCCNCCc1cccc2c1sc1ccccc12 (protonated)
CC[NH+](CC)CCOCCCNCCc1cccc2c1sc1ccccc12 (3D coordinates assigned)
CC[NH+](CC)CCOCCCNCCc1cccc2c1sc1ccccc12 (optimized conformer: 101.16737244301135 kcal/mol)

>  <smiles>  (19) 
CCN(CC)CCOCCCNCCc1cccc2c1sc1ccccc12

>  <score_type>  (19) 
oracle

>  <origin>  (19) 
adg

>  <m_score__min__energy>  (19) 
-9.4600000000000009

>  <m_primary>  (19) 
energy

$$$$
19:0
     RDKit          3D

 49 51  0  0  0  0  0  0  0  0999 V2000
   -9.1850   21.2660  -31.6010 C   0  0  0  0  0  0  0  0  0  0  0  0
   -9.1100   19.8840  -32.2560 C   0  0  0  0  0  0  0  0  0  0  0  0
   -7.8550   19.6820  -33.0190 N   0  0  2  0  0  0  0  0  0  0  0  0
   -7.2210   18.3810  -32.7210 C   0  0  0  0  0  0  0  0  0  0  0  0
   -6.9120   20.8170  -32.8400 C   0  0  0  0  0  0  0  0  0  0  0  0
   -5.4190   20.4680  -33.0690 C   0  0  0  0  0  0  0  0  0  0  0  0
   -4.6000   21.6780  -33.1420 N   0  0  0  0  0  0  0  0  0  0  0  0
   -3.9760   22.2320  -31.9700 C   0  0  0  0  0  0  0  0  0  0  0  0
   -4.6950   23.1290  -31.1570 C   0  0  0  0  0  0  0  0  0  0  0  0
   -5.8820   23.7420  -31.6140 C   0  0  0  0  0  0  0  0  0  0  0  0
   -6.5690   24.6480  -30.8090 C   0  0  0  0  0  0  0  0  0  0  0  0
   -6.0870   24.9620  -29.5440 C   0  0  0  0  0  0  0  0  0  0  0  0
   -4.9340   24.3440  -29.0610 C   0  0  0  0  0  0  0  0  0  0  0  0
   -4.2390   23.3860  -29.8390 C   0  0  0  0  0  0  0  0  0  0  0  0
   -3.1600   22.6890  -29.3360 N   0  0  0  0  0  0  0  0  0  0  0  0
   -2.9190   22.6540  -27.8740 C   0  0  0  0  0  0  0  0  0  0  0  0
   -2.3220   21.9990  -30.1930 C   0  0  0  0  0  0  0  0  0  0  0  0
   -1.0760   21.4920  -29.7510 C   0  0  0  0  0  0  0  0  0  0  0  0
   -0.2520   20.7630  -30.6010 C   0  0  0  0  0  0  0  0  0  0  0  0
   -0.6080   20.5770  -31.9290 C   0  0  0  0  0  0  0  0  0  0  0  0
   -1.7930   21.1240  -32.4330 C   0  0  0  0  0  0  0  0  0  0  0  0
   -1.9870   21.0880  -33.8550 N   0  0  0  0  0  0  0  0  0  0  0  0
   -2.7000   21.7880  -31.5520 C   0  0  0  0  0  0  0  0  0  0  0  0
   -9.1789   21.1540  -30.5067 H   0  0  0  0  0  0  0  0  0  0  0  0
   -8.3182   21.8671  -31.9129 H   0  0  0  0  0  0  0  0  0  0  0  0
  -10.1118   21.7698  -31.9129 H   0  0  0  0  0  0  0  0  0  0  0  0
   -9.1713   19.1175  -31.4694 H   0  0  0  0  0  0  0  0  0  0  0  0
   -9.9473   19.8055  -32.9651 H   0  0  0  0  0  0  0  0  0  0  0  0
   -8.1020   19.6760  -34.0380 H   0  0  0  0  0  0  0  0  0  0  0  0
   -7.1553   18.2462  -31.6313 H   0  0  0  0  0  0  0  0  0  0  0  0
   -7.8252   17.5707  -33.1549 H   0  0  0  0  0  0  0  0  0  0  0  0
   -6.2105   18.3576  -33.1549 H   0  0  0  0  0  0  0  0  0  0  0  0
   -7.1909   21.6083  -33.5514 H   0  0  0  0  0  0  0  0  0  0  0  0
   -6.9984   21.1267  -31.7880 H   0  0  0  0  0  0  0  0  0  0  0  0
   -5.0641   19.8438  -32.2356 H   0  0  0  0  0  0  0  0  0  0  0  0
   -5.3291   19.9274  -34.0228 H   0  0  0  0  0  0  0  0  0  0  0  0
   -4.6120   22.2290  -34.0290 H   0  0  0  0  0  0  0  0  0  0  0  0
   -6.2681   23.5018  -32.6156 H   0  0  0  0  0  0  0  0  0  0  0  0
   -7.4947   25.1157  -31.1754 H   0  0  0  0  0  0  0  0  0  0  0  0
   -6.6160   25.6995  -28.9225 H   0  0  0  0  0  0  0  0  0  0  0  0
   -4.5585   24.6045  -28.0604 H   0  0  0  0  0  0  0  0  0  0  0  0
   -3.8718   22.7924  -27.3419 H   0  0  0  0  0  0  0  0  0  0  0  0
   -2.4823   21.6830  -27.5975 H   0  0  0  0  0  0  0  0  0  0  0  0
   -2.2241   23.4606  -27.5975 H   0  0  0  0  0  0  0  0  0  0  0  0
   -0.7540   21.6784  -28.7158 H   0  0  0  0  0  0  0  0  0  0  0  0
    0.6854   20.3322  -30.2193 H   0  0  0  0  0  0  0  0  0  0  0  0
    0.0478   19.9938  -32.5921 H   0  0  0  0  0  0  0  0  0  0  0  0
   -1.9930   21.9740  -34.4090 H   0  0  0  0  0  0  0  0  0  0  0  0
   -2.3360   20.2300  -34.3350 H   0  0  0  0  0  0  0  0  0  0  0  0
  1  2  1  0
  2  3  1  0
  3  4  1  0
  3  5  1  0
  5  6  1  0
  6  7  1  0
  7  8  1  0
  8  9  2  0
  9 10  1  0
 10 11  2  0
 11 12  1  0
 12 13  2  0
 13 14  1  0
 14 15  2  0
 15 16  1  0
 15 17  1  0
 17 18  2  0
 18 19  1  0
 19 20  2  0
 20 21  1  0
 21 22  1  0
 21 23  2  0
 23  8  1  0
 14  9  1  0
 23 17  1  0
  1 24  1  0
  1 25  1  0
  1 26  1  0
  2 27  1  0
  2 28  1  0
  3 29  1  6
  4 30  1  0
  4 31  1  0
  4 32  1  0
  5 33  1  0
  5 34  1  0
  6 35  1  0
  6 36  1  0
  7 37  1  0
 10 38  1  0
 11 39  1  0
 12 40  1  0
 13 41  1  0
 16 42  1  0
 16 43  1  0
 16 44  1  0
 18 45  1  0
 19 46  1  0
 20 47  1  0
 22 48  1  0
 22 49  1  0
M  CHG  2   3   1  15   1
M  END
>  <UniqueID>  (20) 
20

>  <SMILES>  (20) 
CC[N@H+](C)CCNc1c2ccccc2[n+](C)c2cccc(N)c12

>  <Energy>  (20) 
86.47659519218367

>  <Genealogy>  (20) 
CC[NH+](C)CCNc1c2ccccc2[n+](C)c2cccc(N)c12 (protonated)
CC[N@H+](C)CCNc1c2ccccc2[n+](C)c2cccc(N)c12 (chirality)
CC[N@H+](C)CCNc1c2ccccc2[n+](C)c2cccc(N)c12 (3D coordinates assigned)
CC[N@H+](C)CCNc1c2ccccc2[n+](C)c2cccc(N)c12 (optimized conformer: 86.47659519218367 kcal/mol)

>  <smiles>  (20) 
CCN(C)CCNc1c2ccccc2[n+](C)c2cccc(N)c12

>  <score_type>  (20) 
oracle

>  <origin>  (20) 
adg

>  <m_score__min__energy>  (20) 
-6.71

>  <m_primary>  (20) 
energy

$$$$
20:0
     RDKit          3D

 53 54  0  0  0  0  0  0  0  0999 V2000
   -6.0481   24.5866  -28.6101 H   0  0  0  0  0  0  0  0  0  0  0  0
   -5.8200   24.6070  -29.6860 C   0  0  0  0  0  0  0  0  0  0  0  0
   -4.4070   24.6940  -30.1100 C   0  0  0  0  0  0  0  0  0  0  0  0
   -4.0710   25.6430  -30.8670 O   0  0  0  0  0  0  0  0  0  0  0  0
   -3.3850   23.6950  -29.7100 C   0  0  0  0  0  0  0  0  0  0  0  0
   -3.6380   22.3240  -29.8980 C   0  0  0  0  0  0  0  0  0  0  0  0
   -4.5978   22.0002  -30.3270 H   0  0  0  0  0  0  0  0  0  0  0  0
   -2.6820   21.3720  -29.5450 C   0  0  0  0  0  0  0  0  0  0  0  0
   -2.8933   20.3021  -29.6889 H   0  0  0  0  0  0  0  0  0  0  0  0
   -1.4590   21.7740  -29.0100 C   0  0  0  0  0  0  0  0  0  0  0  0
   -0.7064   21.0210  -28.7332 H   0  0  0  0  0  0  0  0  0  0  0  0
   -1.1880   23.1320  -28.8250 C   0  0  0  0  0  0  0  0  0  0  0  0
   -0.2203   23.4435  -28.4048 H   0  0  0  0  0  0  0  0  0  0  0  0
   -2.1460   24.1060  -29.1730 C   0  0  0  0  0  0  0  0  0  0  0  0
   -1.9050   25.4770  -28.9830 O   0  0  0  0  0  0  0  0  0  0  0  0
   -1.1990   26.0280  -27.8760 C   0  0  0  0  0  0  0  0  0  0  0  0
   -1.6528   25.6738  -26.9387 H   0  0  0  0  0  0  0  0  0  0  0  0
   -0.1468   25.7099  -27.9171 H   0  0  0  0  0  0  0  0  0  0  0  0
   -1.2520   27.1260  -27.9171 H   0  0  0  0  0  0  0  0  0  0  0  0
   -6.8350   24.5520  -30.5600 C   0  0  0  0  0  0  0  0  0  0  0  0
   -7.2502   25.4987  -30.9360 H   0  0  0  0  0  0  0  0  0  0  0  0
   -7.4280   23.2830  -31.0470 C   0  0  0  0  0  0  0  0  0  0  0  0
   -8.5780   23.2520  -31.8600 C   0  0  0  0  0  0  0  0  0  0  0  0
   -9.0766   24.1922  -32.1383 H   0  0  0  0  0  0  0  0  0  0  0  0
   -9.0890   22.0330  -32.3150 C   0  0  0  0  0  0  0  0  0  0  0  0
   -9.9966   22.0173  -32.9363 H   0  0  0  0  0  0  0  0  0  0  0  0
   -8.4520   20.8350  -31.9840 C   0  0  0  0  0  0  0  0  0  0  0  0
   -9.1140   19.2750  -32.5770 S   0  0  0  0  0  0  0  0  0  0  0  0
   -7.8750   18.2280  -31.7290 C   0  0  0  0  0  0  0  0  0  0  0  0
   -8.3841   17.3430  -31.3197 H   0  0  0  0  0  0  0  0  0  0  0  0
   -7.4139   18.8368  -30.9373 H   0  0  0  0  0  0  0  0  0  0  0  0
   -6.7500   17.7580  -32.6650 C   0  0  0  0  0  0  0  0  0  0  0  0
   -7.1805   17.0787  -33.4155 H   0  0  0  0  0  0  0  0  0  0  0  0
   -5.9933   17.2590  -32.0418 H   0  0  0  0  0  0  0  0  0  0  0  0
   -6.0730   18.8740  -33.3720 N   0  0  0  0  0  0  0  0  0  0  0  0
   -4.9020   19.3610  -32.6060 C   0  0  0  0  0  0  0  0  0  0  0  0
   -4.0506   18.6865  -32.7799 H   0  0  0  0  0  0  0  0  0  0  0  0
   -5.1612   19.3800  -31.5371 H   0  0  0  0  0  0  0  0  0  0  0  0
   -4.5210   20.7720  -33.0440 C   0  0  0  0  0  0  0  0  0  0  0  0
   -4.3518   21.3985  -32.1558 H   0  0  0  0  0  0  0  0  0  0  0  0
   -3.6012   20.7332  -33.6460 H   0  0  0  0  0  0  0  0  0  0  0  0
   -5.3353   21.2015  -33.6460 H   0  0  0  0  0  0  0  0  0  0  0  0
   -5.7200   18.5700  -34.7810 C   0  0  0  0  0  0  0  0  0  0  0  0
   -6.6374   18.2727  -35.3101 H   0  0  0  0  0  0  0  0  0  0  0  0
   -5.2647   19.4810  -35.1966 H   0  0  0  0  0  0  0  0  0  0  0  0
   -4.6860   17.4470  -34.9420 C   0  0  0  0  0  0  0  0  0  0  0  0
   -4.3653   17.0987  -33.9491 H   0  0  0  0  0  0  0  0  0  0  0  0
   -5.1366   16.6104  -35.4961 H   0  0  0  0  0  0  0  0  0  0  0  0
   -3.8151   17.8271  -35.4961 H   0  0  0  0  0  0  0  0  0  0  0  0
   -7.3120   20.8550  -31.1740 C   0  0  0  0  0  0  0  0  0  0  0  0
   -6.8203   19.9114  -30.8951 H   0  0  0  0  0  0  0  0  0  0  0  0
   -6.7960   22.0720  -30.7180 C   0  0  0  0  0  0  0  0  0  0  0  0
   -5.8882   22.0814  -30.0969 H   0  0  0  0  0  0  0  0  0  0  0  0
  1  2  1  0
  2  3  1  0
  3  4  2  0
  3  5  1  0
  5  6  2  0
  6  7  1  0
  6  8  1  0
  8  9  1  0
  8 10  2  0
 10 11  1  0
 10 12  1  0
 12 13  1  0
 12 14  2  0
 14 15  1  0
 15 16  1  0
 16 17  1  0
 16 18  1  0
 16 19  1  0
  2 20  2  0
 20 21  1  0
 20 22  1  0
 22 23  2  0
 23 24  1  0
 23 25  1  0
 25 26  1  0
 25 27  2  0
 27 28  1  0
 28 29  1  0
 29 30  1  0
 29 31  1  0
 29 32  1  0
 32 33  1  0
 32 34  1  0
 32 35  1  0
 35 36  1  0
 36 37  1  0
 36 38  1  0
 36 39  1  0
 39 40  1  0
 39 41  1  0
 39 42  1  0
 35 43  1  0
 43 44  1  0
 43 45  1  0
 43 46  1  0
 46 47  1  0
 46 48  1  0
 46 49  1  0
 27 50  1  0
 50 51  1  0
 50 52  2  0
 52 53  1  0
 14  5  1  0
 52 22  1  0
M  END
>  <UniqueID>  (21) 
21

>  <SMILES>  (21) 
CCN(CC)CCSc1ccc(/C=C/C(=O)c2ccccc2OC)cc1

>  <Energy>  (21) 
55.86507444213095

>  <Genealogy>  (21) 
CCN(CC)CCSc1ccc(/C=C/C(=O)c2ccccc2OC)cc1 (cis-trans isomerization)
CCN(CC)CCSc1ccc(/C=C/C(=O)c2ccccc2OC)cc1 (3D coordinates assigned)
CCN(CC)CCSc1ccc(/C=C/C(=O)c2ccccc2OC)cc1 (optimized conformer: 55.86507444213095 kcal/mol)

>  <smiles>  (21) 
CCN(CC)CCSc1ccc(C=CC(=O)c2ccccc2OC)cc1

>  <score_type>  (21) 
oracle

>  <origin>  (21) 
adg

>  <m_score__min__energy>  (21) 
-9.4700000000000006

>  <m_primary>  (21) 
energy

$$$$
21:0
     RDKit          3D

 44 47  0  0  0  0  0  0  0  0999 V2000
   -3.1920   15.9570  -32.8750 C   0  0  0  0  0  0  0  0  0  0  0  0
   -3.2160   16.3520  -34.2940 N   0  0  0  0  0  0  0  0  0  0  0  0
   -4.6030   16.4130  -34.8280 C   0  0  0  0  0  0  0  0  0  0  0  0
   -5.1080   17.8410  -35.1030 C   0  0  0  0  0  0  0  0  0  0  0  0
   -4.5700   18.7770  -34.1080 N   0  0  0  0  0  0  0  0  0  0  0  0
   -5.4460   19.6360  -33.3430 C   0  0  0  0  0  0  0  0  0  0  0  0
   -4.9160   20.6230  -32.5740 N   0  0  0  0  0  0  0  0  0  0  0  0
   -5.6830   21.4730  -31.8430 C   0  0  0  0  0  0  0  0  0  0  0  0
   -4.9970   22.5340  -31.0760 C   0  0  0  0  0  0  0  0  0  0  0  0
   -5.4120   23.8730  -31.1710 C   0  0  0  0  0  0  0  0  0  0  0  0
   -4.7300   24.8730  -30.4710 C   0  0  0  0  0  0  0  0  0  0  0  0
   -3.6200   24.5460  -29.6870 C   0  0  0  0  0  0  0  0  0  0  0  0
   -3.1870   23.2200  -29.6070 C   0  0  0  0  0  0  0  0  0  0  0  0
   -3.8670   22.2160  -30.3060 C   0  0  0  0  0  0  0  0  0  0  0  0
   -7.0860   21.3150  -31.8580 C   0  0  0  0  0  0  0  0  0  0  0  0
   -7.9550   22.1000  -31.0720 C   0  0  0  0  0  0  0  0  0  0  0  0
   -9.3360   21.8980  -31.1300 C   0  0  0  0  0  0  0  0  0  0  0  0
   -9.8670   20.9070  -31.9570 C   0  0  0  0  0  0  0  0  0  0  0  0
   -9.0190   20.1050  -32.7230 C   0  0  0  0  0  0  0  0  0  0  0  0
   -7.6280   20.2940  -32.6740 C   0  0  0  0  0  0  0  0  0  0  0  0
   -6.8020   19.4860  -33.3970 N   0  0  0  0  0  0  0  0  0  0  0  0
   -3.1150   18.8190  -33.9120 C   0  0  0  0  0  0  0  0  0  0  0  0
   -2.4380   17.5850  -34.5330 C   0  0  0  0  0  0  0  0  0  0  0  0
   -3.2466   16.8558  -32.2432 H   0  0  0  0  0  0  0  0  0  0  0  0
   -4.0522   15.3056  -32.6611 H   0  0  0  0  0  0  0  0  0  0  0  0
   -2.2592   15.4146  -32.6611 H   0  0  0  0  0  0  0  0  0  0  0  0
   -4.6354   15.8475  -35.7709 H   0  0  0  0  0  0  0  0  0  0  0  0
   -5.2597   15.9875  -34.0549 H   0  0  0  0  0  0  0  0  0  0  0  0
   -4.7829   18.1530  -36.1065 H   0  0  0  0  0  0  0  0  0  0  0  0
   -6.2062   17.8482  -35.0410 H   0  0  0  0  0  0  0  0  0  0  0  0
   -6.2766   24.1356  -31.7983 H   0  0  0  0  0  0  0  0  0  0  0  0
   -5.0673   25.9179  -30.5374 H   0  0  0  0  0  0  0  0  0  0  0  0
   -3.0872   25.3328  -29.1328 H   0  0  0  0  0  0  0  0  0  0  0  0
   -2.3103   22.9647  -28.9937 H   0  0  0  0  0  0  0  0  0  0  0  0
   -3.5152   21.1752  -30.2519 H   0  0  0  0  0  0  0  0  0  0  0  0
   -7.5430   22.8756  -30.4096 H   0  0  0  0  0  0  0  0  0  0  0  0
  -10.0073   22.5221  -30.5218 H   0  0  0  0  0  0  0  0  0  0  0  0
  -10.9557   20.7576  -32.0053 H   0  0  0  0  0  0  0  0  0  0  0  0
   -9.4423   19.3211  -33.3682 H   0  0  0  0  0  0  0  0  0  0  0  0
   -7.2210   18.7260  -33.9780 H   0  0  0  0  0  0  0  0  0  0  0  0
   -2.7142   19.7263  -34.3875 H   0  0  0  0  0  0  0  0  0  0  0  0
   -2.9075   18.8255  -32.8318 H   0  0  0  0  0  0  0  0  0  0  0  0
   -2.3416   17.7402  -35.6177 H   0  0  0  0  0  0  0  0  0  0  0  0
   -1.4519   17.4631  -34.0611 H   0  0  0  0  0  0  0  0  0  0  0  0
  1  2  1  0
  2  3  1  0
  3  4  1  0
  4  5  1  0
  5  6  1  0
  6  7  2  0
  7  8  1  0
  8  9  1  0
  9 10  2  0
 10 11  1  0
 11 12  2  0
 12 13  1  0
 13 14  2  0
  8 15  2  0
 15 16  1  0
 16 17  2  0
 17 18  1  0
 18 19  2  0
 19 20  1  0
 20 21  2  0
  5 22  1  0
 22 23  1  0
 23  2  1  0
 21  6  1  0
 14  9  1  0
 20 15  1  0
  1 24  1  0
  1 25  1  0
  1 26  1  0
  3 27  1  0
  3 28  1  0
  4 29  1  0
  4 30  1  0
 10 31  1  0
 11 32  1  0
 12 33  1  0
 13 34  1  0
 14 35  1  0
 16 36  1  0
 17 37  1  0
 18 38  1  0
 19 39  1  0
 21 40  1  0
 22 41  1  0
 22 42  1  0
 23 43  1  0
 23 44  1  0
M  CHG  1  21   1
M  END
>  <UniqueID>  (22) 
22

>  <SMILES>  (22) 
CN1CCN(c2nc(-c3ccccc3)c3ccccc3[nH+]2)CC1

>  <Energy>  (22) 
68.2358732305572

>  <Genealogy>  (22) 
CN1CCN(c2nc(-c3ccccc3)c3ccccc3[nH+]2)CC1 (protonated)
CN1CCN(c2nc(-c3ccccc3)c3ccccc3[nH+]2)CC1 (3D coordinates assigned)
CN1CCN(c2nc(-c3ccccc3)c3ccccc3[nH+]2)CC1 (nonaromatic ring conformer: 68.2358732305572 kcal/mol)

>  <smiles>  (22) 
CN1CCN(c2nc(-c3ccccc3)c3ccccc3n2)CC1

>  <score_type>  (22) 
oracle

>  <origin>  (22) 
adg

>  <m_score__min__energy>  (22) 
-7.6100000000000003

>  <m_primary>  (22) 
energy

$$$$
22:0
     RDKit          3D

 47 49  0  0  0  0  0  0  0  0999 V2000
   -6.5420   25.8220  -29.1130 C   0  0  0  0  0  0  0  0  0  0  0  0
   -5.5720   25.6800  -30.1470 O   0  0  0  0  0  0  0  0  0  0  0  0
   -5.1340   24.4530  -30.6690 C   0  0  0  0  0  0  0  0  0  0  0  0
   -5.9730   23.6220  -31.4300 C   0  0  0  0  0  0  0  0  0  0  0  0
   -5.5170   22.3980  -31.9550 C   0  0  0  0  0  0  0  0  0  0  0  0
   -4.1890   21.9750  -31.6580 C   0  0  0  0  0  0  0  0  0  0  0  0
   -3.3550   22.8290  -30.9110 C   0  0  0  0  0  0  0  0  0  0  0  0
   -3.8190   24.0570  -30.4130 C   0  0  0  0  0  0  0  0  0  0  0  0
   -3.0020   24.9140  -29.6590 O   0  0  0  0  0  0  0  0  0  0  0  0
   -2.3780   24.5630  -28.4280 C   0  0  0  0  0  0  0  0  0  0  0  0
   -3.5620   20.6980  -32.1910 C   0  0  0  0  0  0  0  0  0  0  0  0
   -4.3080   19.4160  -31.8070 C   0  0  0  0  0  0  0  0  0  0  0  0
   -5.5790   19.2940  -32.5340 N   0  0  0  0  0  0  0  0  0  0  0  0
   -5.7160   18.3430  -33.6120 C   0  0  0  0  0  0  0  0  0  0  0  0
   -6.4450   18.6350  -34.6010 O   0  0  0  0  0  0  0  0  0  0  0  0
   -5.0250   17.0700  -33.5720 N   0  0  0  0  0  0  0  0  0  0  0  0
   -5.9430   15.9300  -33.6770 C   0  0  0  0  0  0  0  0  0  0  0  0
   -5.1350   14.7770  -34.2520 C   0  0  0  0  0  0  0  0  0  0  0  0
   -3.9550   15.4250  -34.9610 C   0  0  0  0  0  0  0  0  0  0  0  0
   -4.0800   16.9200  -34.6850 C   0  0  0  0  0  0  0  0  0  0  0  0
   -6.7230   20.1430  -32.1750 C   0  0  0  0  0  0  0  0  0  0  0  0
   -6.5330   21.5620  -32.7130 C   0  0  0  0  0  0  0  0  0  0  0  0
   -6.0469   25.7495  -28.1334 H   0  0  0  0  0  0  0  0  0  0  0  0
   -7.0339   26.8017  -29.2037 H   0  0  0  0  0  0  0  0  0  0  0  0
   -7.2940   25.0244  -29.2037 H   0  0  0  0  0  0  0  0  0  0  0  0
   -7.0103   23.9350  -31.6200 H   0  0  0  0  0  0  0  0  0  0  0  0
   -2.3159   22.5270  -30.7131 H   0  0  0  0  0  0  0  0  0  0  0  0
   -2.9987   24.9121  -27.5896 H   0  0  0  0  0  0  0  0  0  0  0  0
   -2.2670   23.4701  -28.3717 H   0  0  0  0  0  0  0  0  0  0  0  0
   -1.3863   25.0357  -28.3717 H   0  0  0  0  0  0  0  0  0  0  0  0
   -3.5317   20.7622  -33.2887 H   0  0  0  0  0  0  0  0  0  0  0  0
   -2.5627   20.6267  -31.7367 H   0  0  0  0  0  0  0  0  0  0  0  0
   -3.6749   18.5488  -32.0461 H   0  0  0  0  0  0  0  0  0  0  0  0
   -4.5288   19.4547  -30.7301 H   0  0  0  0  0  0  0  0  0  0  0  0
   -4.5010   16.9700  -32.6710 H   0  0  0  0  0  0  0  0  0  0  0  0
   -6.3325   15.6629  -32.6836 H   0  0  0  0  0  0  0  0  0  0  0  0
   -6.8045   16.1705  -34.3173 H   0  0  0  0  0  0  0  0  0  0  0  0
   -4.7839   14.1141  -33.4474 H   0  0  0  0  0  0  0  0  0  0  0  0
   -5.7343   14.1586  -34.9364 H   0  0  0  0  0  0  0  0  0  0  0  0
   -3.0066   15.0386  -34.5595 H   0  0  0  0  0  0  0  0  0  0  0  0
   -3.9600   15.2088  -36.0395 H   0  0  0  0  0  0  0  0  0  0  0  0
   -3.1004   17.3369  -34.4084 H   0  0  0  0  0  0  0  0  0  0  0  0
   -4.4339   17.4571  -35.5774 H   0  0  0  0  0  0  0  0  0  0  0  0
   -7.6401   19.7137  -32.6046 H   0  0  0  0  0  0  0  0  0  0  0  0
   -6.7998   20.1878  -31.0786 H   0  0  0  0  0  0  0  0  0  0  0  0
   -6.2043   21.4901  -33.7603 H   0  0  0  0  0  0  0  0  0  0  0  0
   -7.5016   22.0702  -32.5969 H   0  0  0  0  0  0  0  0  0  0  0  0
  1  2  1  0
  2  3  1  0
  3  4  2  0
  4  5  1  0
  5  6  2  0
  6  7  1  0
  7  8  2  0
  8  9  1  0
  9 10  1  0
  6 11  1  0
 11 12  1  0
 12 13  1  0
 13 14  1  0
 14 15  2  0
 14 16  1  0
 16 17  1  0
 17 18  1  0
 18 19  1  0
 19 20  1  0
 13 21  1  0
 21 22  1  0
  8  3  1  0
 20 16  1  0
 22  5  1  0
  1 23  1  0
  1 24  1  0
  1 25  1  0
  4 26  1  0
  7 27  1  0
 10 28  1  0
 10 29  1  0
 10 30  1  0
 11 31  1  0
 11 32  1  0
 12 33  1  0
 12 34  1  0
 16 35  1  0
 17 36  1  0
 17 37  1  0
 18 38  1  0
 18 39  1  0
 19 40  1  0
 19 41  1  0
 20 42  1  0
 20 43  1  0
 21 44  1  0
 21 45  1  0
 22 46  1  0
 22 47  1  0
M  CHG  1  16   1
M  END
>  <UniqueID>  (23) 
23

>  <SMILES>  (23) 
COc1cc2c(cc1OC)CCN(C(=O)[NH+]1CCCC1)CC2

>  <Energy>  (23) 
60.9390331889469

>  <Genealogy>  (23) 
COc1cc2c(cc1OC)CCN(C(=O)[NH+]1CCCC1)CC2 (protonated)
COc1cc2c(cc1OC)CCN(C(=O)[NH+]1CCCC1)CC2 (3D coordinates assigned)
COc1cc2c(cc1OC)CCN(C(=O)[NH+]1CCCC1)CC2 (nonaromatic ring conformer: 60.9390331889469 kcal/mol)

>  <smiles>  (23) 
COc1cc2c(cc1OC)CCN(C(=O)N1CCCC1)CC2

>  <score_type>  (23) 
oracle

>  <origin>  (23) 
adg

>  <m_score__min__energy>  (23) 
-4.9699999999999998

>  <m_primary>  (23) 
energy

$$$$
23:0
     RDKit          3D

 52 54  0  0  0  0  0  0  0  0999 V2000
    1.3950   25.2030  -25.0160 C   0  0  0  0  0  0  0  0  0  0  0  0
    0.0880   24.8030  -24.4870 N   0  0  0  0  0  0  0  0  0  0  0  0
   -0.8510   25.9360  -24.5060 C   0  0  0  0  0  0  0  0  0  0  0  0
   -1.4230   26.1630  -25.9150 C   0  0  0  0  0  0  0  0  0  0  0  0
   -1.4840   24.8960  -26.6740 N   0  0  0  0  0  0  0  0  0  0  0  0
   -2.8570   24.3320  -26.7300 C   0  0  0  0  0  0  0  0  0  0  0  0
   -3.5290   24.5450  -28.0990 C   0  0  0  0  0  0  0  0  0  0  0  0
   -2.7590   23.9340  -29.2190 N   0  0  0  0  0  0  0  0  0  0  0  0
   -3.3010   22.5960  -29.6000 C   0  0  2  0  0  0  0  0  0  0  0  0
   -2.6080   21.9560  -30.8400 C   0  0  0  0  0  0  0  0  0  0  0  0
   -3.4730   22.2960  -32.0610 C   0  0  0  0  0  0  0  0  0  0  0  0
   -4.7880   22.5810  -31.5230 N   0  0  0  0  0  0  0  0  0  0  0  0
   -5.9650   22.8870  -32.3340 C   0  0  0  0  0  0  0  0  0  0  0  0
   -6.9670   21.7660  -32.2420 C   0  0  0  0  0  0  0  0  0  0  0  0
   -8.1790   21.9550  -31.5570 C   0  0  0  0  0  0  0  0  0  0  0  0
   -9.1000   20.9090  -31.4500 C   0  0  0  0  0  0  0  0  0  0  0  0
   -8.8170   19.6660  -32.0200 C   0  0  0  0  0  0  0  0  0  0  0  0
   -7.6100   19.4650  -32.6960 C   0  0  0  0  0  0  0  0  0  0  0  0
   -6.6850   20.5080  -32.8070 C   0  0  0  0  0  0  0  0  0  0  0  0
   -5.5170   20.2920  -33.4640 F   0  0  0  0  0  0  0  0  0  0  0  0
   -4.6970   22.7310  -30.1180 C   0  0  0  0  0  0  0  0  0  0  0  0
   -5.7110   22.9140  -29.3910 O   0  0  0  0  0  0  0  0  0  0  0  0
   -1.2960   23.9180  -28.9470 C   0  0  0  0  0  0  0  0  0  0  0  0
   -0.8680   25.0530  -28.0090 C   0  0  0  0  0  0  0  0  0  0  0  0
    2.0799   25.4126  -24.1812 H   0  0  0  0  0  0  0  0  0  0  0  0
    1.8059   24.3895  -25.6319 H   0  0  0  0  0  0  0  0  0  0  0  0
    1.2802   26.1071  -25.6319 H   0  0  0  0  0  0  0  0  0  0  0  0
    0.2180   24.4650  -23.5050 H   0  0  0  0  0  0  0  0  0  0  0  0
   -0.2860   24.0220  -25.0750 H   0  0  0  0  0  0  0  0  0  0  0  0
   -1.6788   25.7271  -23.8124 H   0  0  0  0  0  0  0  0  0  0  0  0
   -0.3078   26.8427  -24.2012 H   0  0  0  0  0  0  0  0  0  0  0  0
   -2.4375   26.5793  -25.8283 H   0  0  0  0  0  0  0  0  0  0  0  0
   -0.7638   26.8610  -26.4519 H   0  0  0  0  0  0  0  0  0  0  0  0
   -2.8028   23.2520  -26.5283 H   0  0  0  0  0  0  0  0  0  0  0  0
   -3.4633   24.8554  -25.9761 H   0  0  0  0  0  0  0  0  0  0  0  0
   -4.5314   24.0927  -28.0732 H   0  0  0  0  0  0  0  0  0  0  0  0
   -3.5763   25.6288  -28.2808 H   0  0  0  0  0  0  0  0  0  0  0  0
   -3.1710   22.0014  -28.6837 H   0  0  0  0  0  0  0  0  0  0  0  0
   -1.5975   22.3722  -30.9650 H   0  0  0  0  0  0  0  0  0  0  0  0
   -2.5112   20.8671  -30.7178 H   0  0  0  0  0  0  0  0  0  0  0  0
   -3.0715   23.1752  -32.5862 H   0  0  0  0  0  0  0  0  0  0  0  0
   -3.4955   21.4746  -32.7924 H   0  0  0  0  0  0  0  0  0  0  0  0
   -6.4257   23.8168  -31.9691 H   0  0  0  0  0  0  0  0  0  0  0  0
   -5.6563   23.0068  -33.3830 H   0  0  0  0  0  0  0  0  0  0  0  0
   -8.4043   22.9311  -31.1026 H   0  0  0  0  0  0  0  0  0  0  0  0
  -10.0490   21.0652  -30.9161 H   0  0  0  0  0  0  0  0  0  0  0  0
   -9.5441   18.8447  -31.9370 H   0  0  0  0  0  0  0  0  0  0  0  0
   -7.3873   18.4843  -33.1416 H   0  0  0  0  0  0  0  0  0  0  0  0
   -1.0327   22.9563  -28.4824 H   0  0  0  0  0  0  0  0  0  0  0  0
   -0.7732   24.0567  -29.9049 H   0  0  0  0  0  0  0  0  0  0  0  0
    0.2269   25.0397  -27.9041 H   0  0  0  0  0  0  0  0  0  0  0  0
   -1.2016   26.0088  -28.4394 H   0  0  0  0  0  0  0  0  0  0  0  0
  1  2  1  0
  2  3  1  0
  3  4  1  0
  4  5  1  0
  5  6  1  0
  6  7  1  0
  7  8  1  0
  8  9  1  0
  9 10  1  0
 10 11  1  0
 11 12  1  0
 12 13  1  0
 13 14  1  0
 14 15  2  0
 15 16  1  0
 16 17  2  0
 17 18  1  0
 18 19  2  0
 19 20  1  0
 12 21  1  0
 21 22  2  0
  8 23  1  0
 23 24  1  0
 24  5  1  0
 21  9  1  0
 19 14  1  0
  1 25  1  0
  1 26  1  0
  1 27  1  0
  2 28  1  0
  2 29  1  0
  3 30  1  0
  3 31  1  0
  4 32  1  0
  4 33  1  0
  6 34  1  0
  6 35  1  0
  7 36  1  0
  7 37  1  0
  9 38  1  1
 10 39  1  0
 10 40  1  0
 11 41  1  0
 11 42  1  0
 13 43  1  0
 13 44  1  0
 15 45  1  0
 16 46  1  0
 17 47  1  0
 18 48  1  0
 23 49  1  0
 23 50  1  0
 24 51  1  0
 24 52  1  0
M  CHG  1   2   1
M  END
>  <UniqueID>  (24) 
24

>  <SMILES>  (24) 
C[NH2+]CCN1CCN([C@@H]2CCN(Cc3ccccc3F)C2=O)CC1

>  <Energy>  (24) 
74.1510296527577

>  <Genealogy>  (24) 
C[NH2+]CCN1CCN(C2CCN(Cc3ccccc3F)C2=O)CC1 (protonated)
C[NH2+]CCN1CCN([C@@H]2CCN(Cc3ccccc3F)C2=O)CC1 (chirality)
C[NH2+]CCN1CCN([C@@H]2CCN(Cc3ccccc3F)C2=O)CC1 (3D coordinates assigned)
C[NH2+]CCN1CCN([C@@H]2CCN(Cc3ccccc3F)C2=O)CC1 (nonaromatic ring conformer: 74.1510296527577 kcal/mol)

>  <smiles>  (24) 
CNCCN1CCN(C2CCN(Cc3ccccc3F)C2=O)CC1

>  <score_type>  (24) 
oracle

>  <origin>  (24) 
adg

>  <m_score__min__energy>  (24) 
-8.3499999999999996

>  <m_primary>  (24) 
energy

$$$$
24:0
     RDKit          3D

 57 60  0  0  0  0  0  0  0  0999 V2000
   -8.0050   18.3400  -31.7310 C   0  0  0  0  0  0  0  0  0  0  0  0
   -6.7010   17.8140  -31.2190 C   0  0  0  0  0  0  0  0  0  0  0  0
   -5.9360   17.1720  -32.2700 N   0  0  0  0  0  0  0  0  0  0  0  0
   -5.3300   15.9410  -31.7920 C   0  0  0  0  0  0  0  0  0  0  0  0
   -6.9070   16.7750  -33.2960 C   0  0  0  0  0  0  0  0  0  0  0  0
   -6.1680   16.6290  -34.5860 C   0  0  0  0  0  0  0  0  0  0  0  0
   -5.2130   17.7470  -34.6820 N   0  0  0  0  0  0  0  0  0  0  0  0
   -6.0220   18.9420  -34.5550 C   0  0  0  0  0  0  0  0  0  0  0  0
   -5.4540   19.9120  -33.5880 C   0  0  0  0  0  0  0  0  0  0  0  0
   -4.0800   19.8920  -33.3960 C   0  0  0  0  0  0  0  0  0  0  0  0
   -3.4600   20.7560  -32.5160 C   0  0  0  0  0  0  0  0  0  0  0  0
   -4.2320   21.6770  -31.7970 C   0  0  0  0  0  0  0  0  0  0  0  0
   -3.5440   22.5740  -30.8730 C   0  0  0  0  0  0  0  0  0  0  0  0
   -2.2220   22.4730  -30.5450 C   0  0  0  0  0  0  0  0  0  0  0  0
   -1.6710   23.3780  -29.6560 C   0  0  0  0  0  0  0  0  0  0  0  0
   -2.3910   24.3960  -29.0710 C   0  0  0  0  0  0  0  0  0  0  0  0
   -1.8140   25.3470  -28.1370 C   0  0  0  0  0  0  0  0  0  0  0  0
   -1.9780   25.3440  -26.8110 N   0  0  0  0  0  0  0  0  0  0  0  0
   -1.3230   26.3430  -26.2370 C   0  0  0  0  0  0  0  0  0  0  0  0
   -1.2210   26.7070  -24.9050 C   0  0  0  0  0  0  0  0  0  0  0  0
   -0.4550   27.8210  -24.5640 C   0  0  0  0  0  0  0  0  0  0  0  0
    0.1850   28.5350  -25.5810 C   0  0  0  0  0  0  0  0  0  0  0  0
    0.0510   28.1280  -26.9100 C   0  0  0  0  0  0  0  0  0  0  0  0
   -0.6990   27.0360  -27.2550 C   0  0  0  0  0  0  0  0  0  0  0  0
   -1.0220   26.3970  -28.4080 N   0  0  0  0  0  0  0  0  0  0  0  0
   -3.7290   24.4830  -29.4130 C   0  0  0  0  0  0  0  0  0  0  0  0
   -4.2900   23.5870  -30.2980 C   0  0  0  0  0  0  0  0  0  0  0  0
   -5.6090   21.7080  -31.9790 C   0  0  0  0  0  0  0  0  0  0  0  0
   -6.2080   20.8190  -32.8790 C   0  0  0  0  0  0  0  0  0  0  0  0
   -8.6536   18.6016  -30.8820 H   0  0  0  0  0  0  0  0  0  0  0  0
   -7.8240   19.2354  -32.3437 H   0  0  0  0  0  0  0  0  0  0  0  0
   -8.4960   17.5696  -32.3437 H   0  0  0  0  0  0  0  0  0  0  0  0
   -6.1145   18.6499  -30.8100 H   0  0  0  0  0  0  0  0  0  0  0  0
   -6.9129   17.0658  -30.4410 H   0  0  0  0  0  0  0  0  0  0  0  0
   -5.3278   15.9365  -30.6920 H   0  0  0  0  0  0  0  0  0  0  0  0
   -5.9075   15.0806  -32.1611 H   0  0  0  0  0  0  0  0  0  0  0  0
   -4.2959   15.8740  -32.1611 H   0  0  0  0  0  0  0  0  0  0  0  0
   -7.3732   15.8175  -33.0205 H   0  0  0  0  0  0  0  0  0  0  0  0
   -7.7007   17.5308  -33.3893 H   0  0  0  0  0  0  0  0  0  0  0  0
   -5.6271   15.6713  -34.6020 H   0  0  0  0  0  0  0  0  0  0  0  0
   -6.8670   16.6443  -35.4352 H   0  0  0  0  0  0  0  0  0  0  0  0
   -4.5940   17.6230  -33.8510 H   0  0  0  0  0  0  0  0  0  0  0  0
   -6.0930   19.4263  -35.5401 H   0  0  0  0  0  0  0  0  0  0  0  0
   -7.0110   18.6380  -34.1817 H   0  0  0  0  0  0  0  0  0  0  0  0
   -3.4700   19.1701  -33.9587 H   0  0  0  0  0  0  0  0  0  0  0  0
   -2.3689   20.7214  -32.3806 H   0  0  0  0  0  0  0  0  0  0  0  0
   -1.6007   21.6786  -30.9842 H   0  0  0  0  0  0  0  0  0  0  0  0
   -0.6048   23.2799  -29.4037 H   0  0  0  0  0  0  0  0  0  0  0  0
   -1.7370   26.1255  -24.1268 H   0  0  0  0  0  0  0  0  0  0  0  0
   -0.3561   28.1323  -23.5136 H   0  0  0  0  0  0  0  0  0  0  0  0
    0.7940   29.4172  -25.3345 H   0  0  0  0  0  0  0  0  0  0  0  0
    0.5610   28.6993  -27.6997 H   0  0  0  0  0  0  0  0  0  0  0  0
   -0.7080   26.6740  -29.3410 H   0  0  0  0  0  0  0  0  0  0  0  0
   -4.3521   25.2760  -28.9738 H   0  0  0  0  0  0  0  0  0  0  0  0
   -5.3560   23.6799  -30.5529 H   0  0  0  0  0  0  0  0  0  0  0  0
   -6.2249   22.4271  -31.4190 H   0  0  0  0  0  0  0  0  0  0  0  0
   -7.2984   20.8457  -33.0218 H   0  0  0  0  0  0  0  0  0  0  0  0
  1  2  1  0
  2  3  1  0
  3  4  1  0
  3  5  1  0
  5  6  1  0
  6  7  1  0
  7  8  1  0
  8  9  1  0
  9 10  2  0
 10 11  1  0
 11 12  2  0
 12 13  1  0
 13 14  2  0
 14 15  1  0
 15 16  2  0
 16 17  1  0
 17 18  2  0
 18 19  1  0
 19 20  2  0
 20 21  1  0
 21 22  2  0
 22 23  1  0
 23 24  2  0
 24 25  1  0
 16 26  1  0
 26 27  2  0
 12 28  1  0
 28 29  2  0
 29  9  1  0
 27 13  1  0
 25 17  1  0
 24 19  1  0
  1 30  1  0
  1 31  1  0
  1 32  1  0
  2 33  1  0
  2 34  1  0
  4 35  1  0
  4 36  1  0
  4 37  1  0
  5 38  1  0
  5 39  1  0
  6 40  1  0
  6 41  1  0
  7 42  1  0
  8 43  1  0
  8 44  1  0
 10 45  1  0
 11 46  1  0
 14 47  1  0
 15 48  1  0
 20 49  1  0
 21 50  1  0
 22 51  1  0
 23 52  1  0
 25 53  1  0
 26 54  1  0
 27 55  1  0
 28 56  1  0
 29 57  1  0
M  END
>  <smiles>  (25) 
CCN(C)CCNCc1ccc(-c2ccc(-c3nc4ccccc4[nH]3)cc2)cc1

>  <score_type>  (25) 
oracle

>  <origin>  (25) 
adg

>  <m_score__min__energy>  (25) 
-8.5399999999999991

>  <m_primary>  (25) 
energy

$$$$
25:0
     RDKit          3D

 27 27  0  0  0  0  0  0  0  0999 V2000
   -6.1410   25.6650  -29.6480 C   0  0  0  0  0  0  0  0  0  0  0  0
   -5.2630   25.3640  -30.8580 C   0  0  0  0  0  0  0  0  0  0  0  0
   -3.8590   25.3000  -30.4650 N   0  0  0  0  0  0  0  0  0  0  0  0
   -3.3080   24.4040  -29.4900 C   0  0  0  0  0  0  0  0  0  0  0  0
   -4.0930   23.7450  -28.7600 O   0  0  0  0  0  0  0  0  0  0  0  0
   -1.8300   24.1840  -29.3600 C   0  0  0  0  0  0  0  0  0  0  0  0
   -1.2470   25.2930  -28.6870 O   0  0  0  0  0  0  0  0  0  0  0  0
   -0.1650   25.1640  -27.8100 C   0  0  0  0  0  0  0  0  0  0  0  0
    0.8110   24.4250  -28.1160 O   0  0  0  0  0  0  0  0  0  0  0  0
   -0.1720   25.8920  -26.5230 C   0  0  0  0  0  0  0  0  0  0  0  0
    0.1000   25.2200  -25.3190 C   0  0  0  0  0  0  0  0  0  0  0  0
    0.0940   25.8940  -24.1370 N   0  0  0  0  0  0  0  0  0  0  0  0
   -0.1730   27.2270  -24.0780 C   0  0  0  0  0  0  0  0  0  0  0  0
   -0.4490   27.9380  -25.2470 C   0  0  0  0  0  0  0  0  0  0  0  0
   -0.8240   29.8100  -25.1710 Br  0  0  0  0  0  0  0  0  0  0  0  0
   -0.4480   27.2690  -26.4720 C   0  0  0  0  0  0  0  0  0  0  0  0
   -5.5737   25.4705  -28.7259 H   0  0  0  0  0  0  0  0  0  0  0  0
   -6.4500   26.7204  -29.6727 H   0  0  0  0  0  0  0  0  0  0  0  0
   -7.0326   25.0212  -29.6727 H   0  0  0  0  0  0  0  0  0  0  0  0
   -5.5623   24.3984  -31.2917 H   0  0  0  0  0  0  0  0  0  0  0  0
   -5.3896   26.1669  -31.5991 H   0  0  0  0  0  0  0  0  0  0  0  0
   -1.6445   23.2656  -28.7837 H   0  0  0  0  0  0  0  0  0  0  0  0
   -1.3831   24.0835  -30.3601 H   0  0  0  0  0  0  0  0  0  0  0  0
    0.3192   24.1421  -25.3323 H   0  0  0  0  0  0  0  0  0  0  0  0
    0.2980   25.3760  -23.2530 H   0  0  0  0  0  0  0  0  0  0  0  0
   -0.1713   27.7450  -23.1076 H   0  0  0  0  0  0  0  0  0  0  0  0
   -0.6636   27.8205  -27.3990 H   0  0  0  0  0  0  0  0  0  0  0  0
  1  2  1  0
  2  3  1  0
  3  4  1  0
  4  5  2  0
  4  6  1  0
  6  7  1  0
  7  8  1  0
  8  9  2  0
  8 10  1  0
 10 11  2  0
 11 12  1  0
 12 13  2  0
 13 14  1  0
 14 15  1  0
 14 16  2  0
 16 10  1  0
  1 17  1  0
  1 18  1  0
  1 19  1  0
  2 20  1  0
  2 21  1  0
  6 22  1  0
  6 23  1  0
 11 24  1  0
 12 25  1  0
 13 26  1  0
 16 27  1  0
M  CHG  2   3  -1  12   1
M  END
>  <UniqueID>  (26) 
25

>  <SMILES>  (26) 
CC[N-]C(=O)COC(=O)c1c[nH+]cc(Br)c1

>  <Energy>  (26) 
18.439215793194375

>  <Genealogy>  (26) 
CC[N-]C(=O)COC(=O)c1c[nH+]cc(Br)c1 (protonated)
CC[N-]C(=O)COC(=O)c1c[nH+]cc(Br)c1 (3D coordinates assigned)
CC[N-]C(=O)COC(=O)c1c[nH+]cc(Br)c1 (optimized conformer: 18.439215793194375 kcal/mol)

>  <smiles>  (26) 
CCNC(=O)COC(=O)c1cncc(Br)c1

>  <score_type>  (26) 
oracle

>  <origin>  (26) 
adg

>  <m_score__min__energy>  (26) 
-7.9400000000000004

>  <m_primary>  (26) 
energy

$$$$
26:0
     RDKit          3D

 54 53  0  0  0  0  0  0  0  0999 V2000
   -5.3770   25.6760  -30.5030 C   0  0  0  0  0  0  0  0  0  0  0  0
   -6.4770   24.8200  -29.8710 C   0  0  0  0  0  0  0  0  0  0  0  0
   -6.0880   23.3340  -29.7570 C   0  0  0  0  0  0  0  0  0  0  0  0
   -7.0540   22.3750  -30.4740 C   0  0  0  0  0  0  0  0  0  0  0  0
   -7.6290   22.9720  -31.7730 C   0  0  0  0  0  0  0  0  0  0  0  0
   -9.1160   22.6210  -31.9650 C   0  0  0  0  0  0  0  0  0  0  0  0
   -9.4800   21.2000  -31.4910 C   0  0  0  0  0  0  0  0  0  0  0  0
   -9.1100   20.0970  -32.4990 C   0  0  0  0  0  0  0  0  0  0  0  0
   -8.8630   18.7390  -31.8180 C   0  0  0  0  0  0  0  0  0  0  0  0
   -7.3750   18.3540  -31.8090 C   0  0  0  0  0  0  0  0  0  0  0  0
   -6.6970   18.6080  -33.1590 C   0  0  0  0  0  0  0  0  0  0  0  0
   -5.8550   19.8050  -33.0850 C   0  0  0  0  0  0  0  0  0  0  0  0
   -5.1590   20.7880  -33.0230 C   0  0  0  0  0  0  0  0  0  0  0  0
   -4.3090   21.9890  -32.9530 C   0  0  0  0  0  0  0  0  0  0  0  0
   -3.0040   21.7390  -32.2980 N   0  0  0  0  0  0  0  0  0  0  0  0
   -3.0800   21.6930  -30.8210 C   0  0  0  0  0  0  0  0  0  0  0  0
   -2.7050   23.0350  -30.1930 C   0  0  0  0  0  0  0  0  0  0  0  0
   -2.1920   20.6780  -32.9390 C   0  0  0  0  0  0  0  0  0  0  0  0
   -0.9890   21.1870  -33.7410 C   0  0  0  0  0  0  0  0  0  0  0  0
   -4.7755   26.1441  -29.7099 H   0  0  0  0  0  0  0  0  0  0  0  0
   -4.7309   25.0408  -31.1267 H   0  0  0  0  0  0  0  0  0  0  0  0
   -5.8340   26.4584  -31.1267 H   0  0  0  0  0  0  0  0  0  0  0  0
   -6.6869   25.2064  -28.8627 H   0  0  0  0  0  0  0  0  0  0  0  0
   -7.3598   24.8813  -30.5244 H   0  0  0  0  0  0  0  0  0  0  0  0
   -5.0862   23.2048  -30.1926 H   0  0  0  0  0  0  0  0  0  0  0  0
   -6.1226   23.0782  -28.6877 H   0  0  0  0  0  0  0  0  0  0  0  0
   -6.5127   21.4499  -30.7213 H   0  0  0  0  0  0  0  0  0  0  0  0
   -7.8975   22.1833  -29.7944 H   0  0  0  0  0  0  0  0  0  0  0  0
   -7.5250   24.0665  -31.7364 H   0  0  0  0  0  0  0  0  0  0  0  0
   -7.0690   22.5451  -32.6181 H   0  0  0  0  0  0  0  0  0  0  0  0
   -9.7202   23.3430  -31.3960 H   0  0  0  0  0  0  0  0  0  0  0  0
   -9.3211   22.6637  -33.0449 H   0  0  0  0  0  0  0  0  0  0  0  0
   -8.9484   21.0016  -30.5486 H   0  0  0  0  0  0  0  0  0  0  0  0
  -10.5730   21.1717  -31.3707 H   0  0  0  0  0  0  0  0  0  0  0  0
   -9.9336   19.9862  -33.2197 H   0  0  0  0  0  0  0  0  0  0  0  0
   -8.1764   20.3972  -32.9972 H   0  0  0  0  0  0  0  0  0  0  0  0
   -9.2207   18.7938  -30.7792 H   0  0  0  0  0  0  0  0  0  0  0  0
   -9.4060   17.9718  -32.3895 H   0  0  0  0  0  0  0  0  0  0  0  0
   -6.8613   18.9478  -31.0386 H   0  0  0  0  0  0  0  0  0  0  0  0
   -7.3091   17.2763  -31.5985 H   0  0  0  0  0  0  0  0  0  0  0  0
   -6.0733   17.7407  -33.4213 H   0  0  0  0  0  0  0  0  0  0  0  0
   -7.4705   18.7601  -33.9262 H   0  0  0  0  0  0  0  0  0  0  0  0
   -4.1242   22.3475  -33.9764 H   0  0  0  0  0  0  0  0  0  0  0  0
   -4.8435   22.7346  -32.3461 H   0  0  0  0  0  0  0  0  0  0  0  0
   -4.1077   21.4357  -30.5249 H   0  0  0  0  0  0  0  0  0  0  0  0
   -2.3656   20.9363  -30.4645 H   0  0  0  0  0  0  0  0  0  0  0  0
   -2.7297   22.9465  -29.0968 H   0  0  0  0  0  0  0  0  0  0  0  0
   -1.6927   23.3204  -30.5151 H   0  0  0  0  0  0  0  0  0  0  0  0
   -3.4227   23.8039  -30.5151 H   0  0  0  0  0  0  0  0  0  0  0  0
   -1.8190   20.0085  -32.1499 H   0  0  0  0  0  0  0  0  0  0  0  0
   -2.8534   20.1734  -33.6586 H   0  0  0  0  0  0  0  0  0  0  0  0
   -0.2015   21.5202  -33.0490 H   0  0  0  0  0  0  0  0  0  0  0  0
   -0.6011   20.3759  -34.3748 H   0  0  0  0  0  0  0  0  0  0  0  0
   -1.3011   22.0302  -34.3748 H   0  0  0  0  0  0  0  0  0  0  0  0
  1  2  1  0
  2  3  1  0
  3  4  1  0
  4  5  1  0
  5  6  1  0
  6  7  1  0
  7  8  1  0
  8  9  1  0
  9 10  1  0
 10 11  1  0
 11 12  1  0
 12 13  3  0
 13 14  1  0
 14 15  1  0
 15 16  1  0
 16 17  1  0
 15 18  1  0
 18 19  1  0
  1 20  1  0
  1 21  1  0
  1 22  1  0
  2 23  1  0
  2 24  1  0
  3 25  1  0
  3 26  1  0
  4 27  1  0
  4 28  1  0
  5 29  1  0
  5 30  1  0
  6 31  1  0
  6 32  1  0
  7 33  1  0
  7 34  1  0
  8 35  1  0
  8 36  1  0
  9 37  1  0
  9 38  1  0
 10 39  1  0
 10 40  1  0
 11 41  1  0
 11 42  1  0
 14 43  1  0
 14 44  1  0
 16 45  1  0
 16 46  1  0
 17 47  1  0
 17 48  1  0
 17 49  1  0
 18 50  1  0
 18 51  1  0
 19 52  1  0
 19 53  1  0
 19 54  1  0
M  END
>  <UniqueID>  (27) 
26

>  <SMILES>  (27) 
CCCCCCCCCCCC#CCN(CC)CC

>  <Energy>  (27) 
33.48830267085763

>  <Genealogy>  (27) 
CCCCCCCCCCCC#CCN(CC)CC (3D coordinates assigned)
CCCCCCCCCCCC#CCN(CC)CC (optimized conformer: 33.48830267085763 kcal/mol)

>  <smiles>  (27) 
CCCCCCCCCCCC#CCN(CC)CC

>  <score_type>  (27) 
oracle

>  <origin>  (27) 
adg

>  <m_score__min__energy>  (27) 
-6.1699999999999999

>  <m_primary>  (27) 
energy

$$$$
27:0
     RDKit          3D

 58 60  0  0  0  0  0  0  0  0999 V2000
   -5.6290   18.1430  -34.7580 C   0  0  0  0  0  0  0  0  0  0  0  0
   -6.5140   17.2610  -33.8810 C   0  0  0  0  0  0  0  0  0  0  0  0
   -6.7680   17.9220  -32.5810 N   0  0  0  0  0  0  0  0  0  0  0  0
   -6.1020   17.2070  -31.4670 C   0  0  0  0  0  0  0  0  0  0  0  0
   -5.2540   16.0360  -31.9650 C   0  0  0  0  0  0  0  0  0  0  0  0
   -8.2130   18.1820  -32.3570 C   0  0  0  0  0  0  0  0  0  0  0  0
   -8.6180   19.6590  -32.5190 C   0  0  0  0  0  0  0  0  0  0  0  0
   -7.4460   20.5140  -32.3590 N   0  0  0  0  0  0  0  0  0  0  0  0
   -7.0180   21.0860  -31.2230 C   0  0  0  0  0  0  0  0  0  0  0  0
   -5.8360   21.7290  -31.5360 C   0  0  0  0  0  0  0  0  0  0  0  0
   -4.9890   22.5380  -30.6210 C   0  0  0  0  0  0  0  0  0  0  0  0
   -3.8290   21.9520  -30.0830 C   0  0  0  0  0  0  0  0  0  0  0  0
   -2.9970   22.6540  -29.1980 C   0  0  0  0  0  0  0  0  0  0  0  0
   -1.7590   21.9740  -28.6710 C   0  0  0  0  0  0  0  0  0  0  0  0
   -3.3520   23.9630  -28.8060 C   0  0  0  0  0  0  0  0  0  0  0  0
   -2.5490   24.7360  -27.8310 C   0  0  0  0  0  0  0  0  0  0  0  0
   -1.3340   25.3170  -28.2220 C   0  0  0  0  0  0  0  0  0  0  0  0
   -0.5780   26.0580  -27.3080 C   0  0  0  0  0  0  0  0  0  0  0  0
   -1.0340   26.2340  -25.9870 C   0  0  0  0  0  0  0  0  0  0  0  0
   -0.3130   26.9660  -25.0320 O   0  0  0  0  0  0  0  0  0  0  0  0
   -0.3920   26.7520  -23.6270 C   0  0  0  0  0  0  0  0  0  0  0  0
   -2.2530   25.6610  -25.6040 C   0  0  0  0  0  0  0  0  0  0  0  0
   -3.0080   24.9210  -26.5170 C   0  0  0  0  0  0  0  0  0  0  0  0
   -4.4940   24.5610  -29.3560 C   0  0  0  0  0  0  0  0  0  0  0  0
   -5.3090   23.8740  -30.2700 C   0  0  0  0  0  0  0  0  0  0  0  0
   -6.5070   24.5870  -30.8440 C   0  0  0  0  0  0  0  0  0  0  0  0
   -5.5880   21.5260  -32.8480 N   0  0  0  0  0  0  0  0  0  0  0  0
   -6.5750   20.7770  -33.3190 N   0  0  0  0  0  0  0  0  0  0  0  0
   -4.9944   18.7754  -34.1198 H   0  0  0  0  0  0  0  0  0  0  0  0
   -4.9934   17.5084  -35.3931 H   0  0  0  0  0  0  0  0  0  0  0  0
   -6.2614   18.7807  -35.3931 H   0  0  0  0  0  0  0  0  0  0  0  0
   -7.4719   17.0852  -34.3923 H   0  0  0  0  0  0  0  0  0  0  0  0
   -6.0018   16.3040  -33.7026 H   0  0  0  0  0  0  0  0  0  0  0  0
   -5.4520   17.9132  -30.9297 H   0  0  0  0  0  0  0  0  0  0  0  0
   -6.8834   16.8042  -30.8058 H   0  0  0  0  0  0  0  0  0  0  0  0
   -4.8526   15.4817  -31.1039 H   0  0  0  0  0  0  0  0  0  0  0  0
   -5.8771   15.3652  -32.5747 H   0  0  0  0  0  0  0  0  0  0  0  0
   -4.4223   16.4188  -32.5747 H   0  0  0  0  0  0  0  0  0  0  0  0
   -8.7877   17.5848  -33.0802 H   0  0  0  0  0  0  0  0  0  0  0  0
   -8.4271   17.9067  -31.3138 H   0  0  0  0  0  0  0  0  0  0  0  0
   -9.0476   19.8121  -33.5200 H   0  0  0  0  0  0  0  0  0  0  0  0
   -9.3631   19.9173  -31.7521 H   0  0  0  0  0  0  0  0  0  0  0  0
   -7.5098   21.0501  -30.2397 H   0  0  0  0  0  0  0  0  0  0  0  0
   -3.5684   20.9205  -30.3623 H   0  0  0  0  0  0  0  0  0  0  0  0
   -1.7757   21.9832  -27.5712 H   0  0  0  0  0  0  0  0  0  0  0  0
   -1.7314   20.9341  -29.0287 H   0  0  0  0  0  0  0  0  0  0  0  0
   -0.8666   22.5086  -29.0287 H   0  0  0  0  0  0  0  0  0  0  0  0
   -0.9736   25.1892  -29.2534 H   0  0  0  0  0  0  0  0  0  0  0  0
    0.3767   26.5052  -27.6221 H   0  0  0  0  0  0  0  0  0  0  0  0
   -0.0578   27.6572  -23.0989 H   0  0  0  0  0  0  0  0  0  0  0  0
   -1.4322   26.5277  -23.3482 H   0  0  0  0  0  0  0  0  0  0  0  0
    0.2530   25.9057  -23.3482 H   0  0  0  0  0  0  0  0  0  0  0  0
   -2.6191   25.7948  -24.5754 H   0  0  0  0  0  0  0  0  0  0  0  0
   -3.9667   24.4811  -26.2051 H   0  0  0  0  0  0  0  0  0  0  0  0
   -4.7571   25.5889  -29.0659 H   0  0  0  0  0  0  0  0  0  0  0  0
   -7.1377   24.9623  -30.0246 H   0  0  0  0  0  0  0  0  0  0  0  0
   -6.1694   25.4312  -31.4631 H   0  0  0  0  0  0  0  0  0  0  0  0
   -7.0880   23.8876  -31.4631 H   0  0  0  0  0  0  0  0  0  0  0  0
  1  2  1  0
  2  3  1  0
  3  4  1  0
  4  5  1  0
  3  6  1  0
  6  7  1  0
  7  8  1  0
  8  9  1  0
  9 10  2  0
 10 11  1  0
 11 12  2  0
 12 13  1  0
 13 14  1  0
 13 15  2  0
 15 16  1  0
 16 17  2  0
 17 18  1  0
 18 19  2  0
 19 20  1  0
 20 21  1  0
 19 22  1  0
 22 23  2  0
 15 24  1  0
 24 25  2  0
 25 26  1  0
 10 27  1  0
 27 28  2  0
 28  8  1  0
 25 11  1  0
 23 16  1  0
  1 29  1  0
  1 30  1  0
  1 31  1  0
  2 32  1  0
  2 33  1  0
  4 34  1  0
  4 35  1  0
  5 36  1  0
  5 37  1  0
  5 38  1  0
  6 39  1  0
  6 40  1  0
  7 41  1  0
  7 42  1  0
  9 43  1  0
 12 44  1  0
 14 45  1  0
 14 46  1  0
 14 47  1  0
 17 48  1  0
 18 49  1  0
 21 50  1  0
 21 51  1  0
 21 52  1  0
 22 53  1  0
 23 54  1  0
 24 55  1  0
 26 56  1  0
 26 57  1  0
 26 58  1  0
M  END
>  <UniqueID>  (28) 
27

>  <SMILES>  (28) 
CCN(CC)CCn1cc(-c2cc(C)c(-c3ccc(OC)cc3)cc2C)nn1

>  <Energy>  (28) 
104.45152131119234

>  <Genealogy>  (28) 
CCN(CC)CCn1cc(-c2cc(C)c(-c3ccc(OC)cc3)cc2C)nn1 (3D coordinates assigned)
CCN(CC)CCn1cc(-c2cc(C)c(-c3ccc(OC)cc3)cc2C)nn1 (optimized conformer: 104.45152131119234 kcal/mol)

>  <smiles>  (28) 
CCN(CC)CCn1cc(-c2cc(C)c(-c3ccc(OC)cc3)cc2C)nn1

>  <score_type>  (28) 
oracle

>  <origin>  (28) 
adg

>  <m_score__min__energy>  (28) 
-8.0899999999999999

>  <m_primary>  (28) 
energy

$$$$
28:0
     RDKit          3D

 64 67  0  0  0  0  0  0  0  0999 V2000
   -9.0800   18.6620  -31.6620 C   0  0  0  0  0  0  0  0  0  0  0  0
   -8.7380   20.0840  -31.2190 C   0  0  0  0  0  0  0  0  0  0  0  0
   -8.2290   20.8870  -32.3520 N   0  0  0  0  0  0  0  0  0  0  0  0
   -7.4580   22.0900  -31.9390 C   0  0  0  0  0  0  0  0  0  0  0  0
   -7.5940   22.4500  -30.4490 C   0  0  0  0  0  0  0  0  0  0  0  0
   -7.5160   20.0680  -33.3610 C   0  0  0  0  0  0  0  0  0  0  0  0
   -6.2050   19.5140  -32.7700 C   0  0  0  0  0  0  0  0  0  0  0  0
   -5.0080   19.8960  -33.5400 N   0  0  0  0  0  0  0  0  0  0  0  0
   -4.0290   20.5790  -32.7300 C   0  0  0  0  0  0  0  0  0  0  0  0
   -2.6500   20.5050  -33.0460 C   0  0  0  0  0  0  0  0  0  0  0  0
   -1.7130   21.2080  -32.2760 C   0  0  0  0  0  0  0  0  0  0  0  0
   -2.2010   21.9770  -31.2290 C   0  0  0  0  0  0  0  0  0  0  0  0
   -1.4780   22.7500  -30.3950 N   0  0  0  0  0  0  0  0  0  0  0  0
   -2.4200   23.3110  -29.5880 C   0  0  0  0  0  0  0  0  0  0  0  0
   -2.0970   24.2850  -28.5150 C   0  0  0  0  0  0  0  0  0  0  0  0
   -2.9220   24.3770  -27.3800 C   0  0  0  0  0  0  0  0  0  0  0  0
   -2.6180   25.2720  -26.3510 C   0  0  0  0  0  0  0  0  0  0  0  0
   -1.4810   26.0920  -26.4310 C   0  0  0  0  0  0  0  0  0  0  0  0
   -1.1770   27.0240  -25.3740 N   0  0  0  0  0  0  0  0  0  0  0  0
   -0.8060   28.4070  -25.6960 C   0  0  0  0  0  0  0  0  0  0  0  0
   -0.1180   29.0830  -24.4960 C   0  0  0  0  0  0  0  0  0  0  0  0
    0.7960   28.1570  -23.7940 N   0  0  0  0  0  0  0  0  0  0  0  0
    1.9770   27.8260  -24.6120 C   0  0  0  0  0  0  0  0  0  0  0  0
    0.1230   26.9380  -23.2720 C   0  0  0  0  0  0  0  0  0  0  0  0
   -1.2180   26.6200  -23.9620 C   0  0  0  0  0  0  0  0  0  0  0  0
   -0.6660   26.0150  -27.5730 C   0  0  0  0  0  0  0  0  0  0  0  0
   -0.9670   25.1190  -28.6020 C   0  0  0  0  0  0  0  0  0  0  0  0
   -3.6900   22.8640  -29.9530 C   0  0  0  0  0  0  0  0  0  0  0  0
   -3.5130   22.0300  -30.9840 N   0  0  0  0  0  0  0  0  0  0  0  0
   -4.4280   21.3760  -31.6920 N   0  0  0  0  0  0  0  0  0  0  0  0
   -9.2324   18.0285  -30.7757 H   0  0  0  0  0  0  0  0  0  0  0  0
  -10.0002   18.6770  -32.2646 H   0  0  0  0  0  0  0  0  0  0  0  0
   -8.2537   18.2569  -32.2646 H   0  0  0  0  0  0  0  0  0  0  0  0
   -9.6433   20.5627  -30.8175 H   0  0  0  0  0  0  0  0  0  0  0  0
   -7.9546   20.0310  -30.4487 H   0  0  0  0  0  0  0  0  0  0  0  0
   -6.3946   21.9078  -32.1535 H   0  0  0  0  0  0  0  0  0  0  0  0
   -7.8700   22.9376  -32.5062 H   0  0  0  0  0  0  0  0  0  0  0  0
   -7.2715   21.5964  -29.8346 H   0  0  0  0  0  0  0  0  0  0  0  0
   -6.9636   23.3229  -30.2237 H   0  0  0  0  0  0  0  0  0  0  0  0
   -8.6440   22.6880  -30.2237 H   0  0  0  0  0  0  0  0  0  0  0  0
   -8.1586   19.2296  -33.6678 H   0  0  0  0  0  0  0  0  0  0  0  0
   -7.2784   20.6983  -34.2307 H   0  0  0  0  0  0  0  0  0  0  0  0
   -6.0962   19.8960  -31.7442 H   0  0  0  0  0  0  0  0  0  0  0  0
   -6.2737   18.4166  -32.8001 H   0  0  0  0  0  0  0  0  0  0  0  0
   -5.3010   20.5510  -34.2990 H   0  0  0  0  0  0  0  0  0  0  0  0
   -4.5980   19.0510  -33.9960 H   0  0  0  0  0  0  0  0  0  0  0  0
   -2.3139   19.8947  -33.8972 H   0  0  0  0  0  0  0  0  0  0  0  0
   -0.6360   21.1524  -32.4927 H   0  0  0  0  0  0  0  0  0  0  0  0
   -3.8145   23.7388  -27.3015 H   0  0  0  0  0  0  0  0  0  0  0  0
   -3.2749   25.3347  -25.4709 H   0  0  0  0  0  0  0  0  0  0  0  0
   -0.1162   28.4050  -26.5528 H   0  0  0  0  0  0  0  0  0  0  0  0
   -1.7195   28.9688  -25.9406 H   0  0  0  0  0  0  0  0  0  0  0  0
    0.4589   29.9473  -24.8568 H   0  0  0  0  0  0  0  0  0  0  0  0
   -0.8981   29.3966  -23.7867 H   0  0  0  0  0  0  0  0  0  0  0  0
    2.8248   27.5884  -23.9526 H   0  0  0  0  0  0  0  0  0  0  0  0
    1.7513   26.9565  -25.2468 H   0  0  0  0  0  0  0  0  0  0  0  0
    2.2361   28.6861  -25.2468 H   0  0  0  0  0  0  0  0  0  0  0  0
    0.7980   26.0814  -23.4158 H   0  0  0  0  0  0  0  0  0  0  0  0
   -0.1008   27.1266  -22.2116 H   0  0  0  0  0  0  0  0  0  0  0  0
   -1.4098   25.5386  -23.9000 H   0  0  0  0  0  0  0  0  0  0  0  0
   -2.0203   27.1764  -23.4553 H   0  0  0  0  0  0  0  0  0  0  0  0
    0.2168   26.6658  -27.6577 H   0  0  0  0  0  0  0  0  0  0  0  0
   -0.3157   25.0652  -29.4868 H   0  0  0  0  0  0  0  0  0  0  0  0
   -4.6465   23.1419  -29.4861 H   0  0  0  0  0  0  0  0  0  0  0  0
  1  2  1  0
  2  3  1  0
  3  4  1  0
  4  5  1  0
  3  6  1  0
  6  7  1  0
  7  8  1  0
  8  9  1  0
  9 10  1  0
 10 11  2  0
 11 12  1  0
 12 13  2  0
 13 14  1  0
 14 15  1  0
 15 16  2  0
 16 17  1  0
 17 18  2  0
 18 19  1  0
 19 20  1  0
 20 21  1  0
 21 22  1  0
 22 23  1  0
 22 24  1  0
 24 25  1  0
 18 26  1  0
 26 27  2  0
 14 28  2  0
 28 29  1  0
 29 30  1  0
 30  9  2  0
 29 12  1  0
 27 15  1  0
 25 19  1  0
  1 31  1  0
  1 32  1  0
  1 33  1  0
  2 34  1  0
  2 35  1  0
  4 36  1  0
  4 37  1  0
  5 38  1  0
  5 39  1  0
  5 40  1  0
  6 41  1  0
  6 42  1  0
  7 43  1  0
  7 44  1  0
  8 45  1  0
  8 46  1  0
 10 47  1  0
 11 48  1  0
 16 49  1  0
 17 50  1  0
 20 51  1  0
 20 52  1  0
 21 53  1  0
 21 54  1  0
 23 55  1  0
 23 56  1  0
 23 57  1  0
 24 58  1  0
 24 59  1  0
 25 60  1  0
 25 61  1  0
 26 62  1  0
 27 63  1  0
 28 64  1  0
M  CHG  1   8   1
M  END
>  <UniqueID>  (29) 
28

>  <SMILES>  (29) 
CCN(CC)CC[NH2+]c1ccc2nc(-c3ccc(N4CCN(C)CC4)cc3)cn2n1

>  <Energy>  (29) 
119.27205565102793

>  <Genealogy>  (29) 
CCN(CC)CC[NH2+]c1ccc2nc(-c3ccc(N4CCN(C)CC4)cc3)cn2n1 (protonated)
CCN(CC)CC[NH2+]c1ccc2nc(-c3ccc(N4CCN(C)CC4)cc3)cn2n1 (3D coordinates assigned)
CCN(CC)CC[NH2+]c1ccc2nc(-c3ccc(N4CCN(C)CC4)cc3)cn2n1 (nonaromatic ring conformer: 119.27205565102793 kcal/mol)

>  <smiles>  (29) 
CCN(CC)CCNc1ccc2nc(-c3ccc(N4CCN(C)CC4)cc3)cn2n1

>  <score_type>  (29) 
oracle

>  <origin>  (29) 
adg

>  <m_score__min__energy>  (29) 
-8.2599999999999998

>  <m_primary>  (29) 
energy

$$$$
