0:0
     RDKit          3D

 53 55  0  0  0  0  0  0  0  0999 V2000
   -3.8500   18.5620  -26.3570 C   0  0  0  0  0  0  0  0  0  0  0  0
   -2.5210   19.3040  -26.2530 C   0  0  0  0  0  0  0  0  0  0  0  0
   -1.9390   19.5260  -27.5970 N   0  0  0  0  0  0  0  0  0  0  0  0
   -0.8480   18.5630  -27.8530 C   0  0  0  0  0  0  0  0  0  0  0  0
   -1.4420   20.9140  -27.7200 C   0  0  0  0  0  0  0  0  0  0  0  0
   -2.4000   21.7690  -28.5030 C   0  0  0  0  0  0  0  0  0  0  0  0
   -2.0520   22.2700  -29.7650 C   0  0  0  0  0  0  0  0  0  0  0  0
   -2.9700   23.0460  -30.4730 C   0  0  0  0  0  0  0  0  0  0  0  0
   -4.2240   23.3240  -29.9180 C   0  0  0  0  0  0  0  0  0  0  0  0
   -5.4470   24.2070  -30.8270 S   0  0  0  0  0  0  0  0  0  0  0  0
   -6.6670   24.3720  -29.9640 O   0  0  0  0  0  0  0  0  0  0  0  0
   -4.9430   25.5670  -31.2230 O   0  0  0  0  0  0  0  0  0  0  0  0
   -5.8640   23.3120  -32.2540 N   0  0  0  0  0  0  0  0  0  0  0  0
   -6.6630   22.1190  -32.2130 C   0  0  0  0  0  0  0  0  0  0  0  0
   -7.9900   22.1930  -31.7730 C   0  0  0  0  0  0  0  0  0  0  0  0
   -8.7660   21.0370  -31.6670 C   0  0  0  0  0  0  0  0  0  0  0  0
   -8.2320   19.7820  -31.9980 C   0  0  0  0  0  0  0  0  0  0  0  0
   -9.0890   18.5560  -31.8220 C   0  0  0  0  0  0  0  0  0  0  0  0
   -6.9110   19.7060  -32.5030 C   0  0  0  0  0  0  0  0  0  0  0  0
   -6.2970   18.4210  -32.9080 C   0  0  0  0  0  0  0  0  0  0  0  0
   -6.0460   17.4360  -31.9390 C   0  0  0  0  0  0  0  0  0  0  0  0
   -5.4650   16.2190  -32.3050 C   0  0  0  0  0  0  0  0  0  0  0  0
   -5.1200   15.9810  -33.6380 C   0  0  0  0  0  0  0  0  0  0  0  0
   -5.3490   16.9640  -34.6060 C   0  0  0  0  0  0  0  0  0  0  0  0
   -5.9310   18.1840  -34.2440 C   0  0  0  0  0  0  0  0  0  0  0  0
   -6.1100   19.1410  -35.1910 F   0  0  0  0  0  0  0  0  0  0  0  0
   -6.1410   20.8750  -32.6010 C   0  0  0  0  0  0  0  0  0  0  0  0
   -4.5270   22.8270  -28.6450 C   0  0  0  0  0  0  0  0  0  0  0  0
   -3.6180   22.0720  -27.9730 N   0  0  0  0  0  0  0  0  0  0  0  0
   -4.2311   18.3492  -25.3473 H   0  0  0  0  0  0  0  0  0  0  0  0
   -4.5764   19.1851  -26.8993 H   0  0  0  0  0  0  0  0  0  0  0  0
   -3.7007   17.6167  -26.8993 H   0  0  0  0  0  0  0  0  0  0  0  0
   -2.6874   20.2764  -25.7664 H   0  0  0  0  0  0  0  0  0  0  0  0
   -1.8216   18.6957  -25.6607 H   0  0  0  0  0  0  0  0  0  0  0  0
   -0.4426   18.2051  -26.8951 H   0  0  0  0  0  0  0  0  0  0  0  0
   -1.2390   17.7101  -28.4272 H   0  0  0  0  0  0  0  0  0  0  0  0
   -0.0503   19.0568  -28.4272 H   0  0  0  0  0  0  0  0  0  0  0  0
   -1.3199   21.3416  -26.7139 H   0  0  0  0  0  0  0  0  0  0  0  0
   -0.4798   20.8928  -28.2527 H   0  0  0  0  0  0  0  0  0  0  0  0
   -1.0626   22.0529  -30.1939 H   0  0  0  0  0  0  0  0  0  0  0  0
   -2.7083   23.4389  -31.4665 H   0  0  0  0  0  0  0  0  0  0  0  0
   -5.6860   23.7730  -33.1750 H   0  0  0  0  0  0  0  0  0  0  0  0
   -8.4243   23.1685  -31.5090 H   0  0  0  0  0  0  0  0  0  0  0  0
   -9.8073   21.1108  -31.3203 H   0  0  0  0  0  0  0  0  0  0  0  0
   -9.2282   18.3569  -30.7492 H   0  0  0  0  0  0  0  0  0  0  0  0
  -10.0685   18.7224  -32.2941 H   0  0  0  0  0  0  0  0  0  0  0  0
   -8.5962   17.6933  -32.2941 H   0  0  0  0  0  0  0  0  0  0  0  0
   -6.3079   17.6233  -30.8872 H   0  0  0  0  0  0  0  0  0  0  0  0
   -5.2791   15.4477  -31.5431 H   0  0  0  0  0  0  0  0  0  0  0  0
   -4.6682   15.0203  -33.9260 H   0  0  0  0  0  0  0  0  0  0  0  0
   -5.0711   16.7778  -35.6539 H   0  0  0  0  0  0  0  0  0  0  0  0
   -5.1129   20.8157  -32.9877 H   0  0  0  0  0  0  0  0  0  0  0  0
   -5.5027   23.0478  -28.1875 H   0  0  0  0  0  0  0  0  0  0  0  0
  1  2  1  0
  2  3  1  0
  3  4  1  0
  3  5  1  0
  5  6  1  0
  6  7  2  0
  7  8  1  0
  8  9  2  0
  9 10  1  0
 10 11  2  0
 10 12  2  0
 10 13  1  0
 13 14  1  0
 14 15  2  0
 15 16  1  0
 16 17  2  0
 17 18  1  0
 17 19  1  0
 19 20  1  0
 20 21  2  0
 21 22  1  0
 22 23  2  0
 23 24  1  0
 24 25  2  0
 25 26  1  0
 19 27  2  0
  9 28  1  0
 28 29  2  0
 29  6  1  0
 27 14  1  0
 25 20  1  0
  1 30  1  0
  1 31  1  0
  1 32  1  0
  2 33  1  0
  2 34  1  0
  4 35  1  0
  4 36  1  0
  4 37  1  0
  5 38  1  0
  5 39  1  0
  7 40  1  0
  8 41  1  0
 13 42  1  0
 15 43  1  0
 16 44  1  0
 18 45  1  0
 18 46  1  0
 18 47  1  0
 21 48  1  0
 22 49  1  0
 23 50  1  0
 24 51  1  0
 27 52  1  0
 28 53  1  0
M  END
>  <UniqueID>  (1) 
1

>  <SMILES>  (1) 
CCN(C)Cc1ccc(S(=O)(=O)Nc2ccc(C)c(-c3ccccc3F)c2)cn1

>  <Energy>  (1) 
63.44862801358966

>  <Genealogy>  (1) 
CCN(C)Cc1ccc(S(=O)(=O)Nc2ccc(C)c(-c3ccccc3F)c2)cn1 (3D coordinates assigned)
CCN(C)Cc1ccc(S(=O)(=O)Nc2ccc(C)c(-c3ccccc3F)c2)cn1 (optimized conformer: 63.44862801358966 kcal/mol)

>  <smiles>  (1) 
CCN(C)Cc1ccc(S(=O)(=O)Nc2ccc(C)c(-c3ccccc3F)c2)cn1

>  <score_type>  (1) 
oracle

>  <origin>  (1) 
adg

>  <m_score__min__energy>  (1) 
-10.49

>  <m_primary>  (1) 
energy

$$$$
1:0
     RDKit          3D

 61 64  0  0  0  0  0  0  0  0999 V2000
   -4.7540   16.7700  -34.5660 C   0  0  0  0  0  0  0  0  0  0  0  0
   -5.1600   18.0750  -33.9360 C   0  0  0  0  0  0  0  0  0  0  0  0
   -6.5130   18.2740  -33.5770 C   0  0  0  0  0  0  0  0  0  0  0  0
   -6.8670   19.4820  -32.9870 C   0  0  0  0  0  0  0  0  0  0  0  0
   -8.0900   19.8590  -32.5760 N   0  0  0  0  0  0  0  0  0  0  0  0
   -7.8770   21.1050  -32.0710 C   0  0  0  0  0  0  0  0  0  0  0  0
   -8.9940   21.9490  -31.5260 C   0  0  0  0  0  0  0  0  0  0  0  0
   -8.8830   23.2440  -31.9920 F   0  0  0  0  0  0  0  0  0  0  0  0
   -8.9450   21.9680  -30.1440 F   0  0  0  0  0  0  0  0  0  0  0  0
  -10.2090   21.4200  -31.9200 F   0  0  0  0  0  0  0  0  0  0  0  0
   -6.5790   21.5070  -32.1680 N   0  0  0  0  0  0  0  0  0  0  0  0
   -5.9710   22.7550  -31.6890 C   0  0  0  0  0  0  0  0  0  0  0  0
   -5.9200   22.7980  -30.1590 C   0  0  0  0  0  0  0  0  0  0  0  0
   -4.7370   22.0520  -29.6680 N   0  0  0  0  0  0  0  0  0  0  0  0
   -4.3330   22.3970  -28.2820 C   0  0  0  0  0  0  0  0  0  0  0  0
   -3.2150   23.4620  -28.2070 C   0  0  0  0  0  0  0  0  0  0  0  0
   -3.1550   24.3260  -29.4710 C   0  0  0  0  0  0  0  0  0  0  0  0
   -2.0710   25.2970  -29.3420 N   0  0  0  0  0  0  0  0  0  0  0  0
   -0.8290   25.0120  -28.6940 C   0  0  0  0  0  0  0  0  0  0  0  0
   -0.3440   25.8540  -27.8920 O   0  0  0  0  0  0  0  0  0  0  0  0
   -0.1450   23.7800  -28.9510 N   0  0  0  0  0  0  0  0  0  0  0  0
    0.5310   23.0010  -27.9210 C   0  0  0  0  0  0  0  0  0  0  0  0
   -0.2880   21.7930  -27.5590 C   0  0  0  0  0  0  0  0  0  0  0  0
   -0.5320   20.7780  -28.4970 C   0  0  0  0  0  0  0  0  0  0  0  0
   -1.3180   19.6780  -28.1500 C   0  0  0  0  0  0  0  0  0  0  0  0
   -1.8620   19.6050  -26.8650 C   0  0  0  0  0  0  0  0  0  0  0  0
   -1.6210   20.5970  -25.9660 N   0  0  0  0  0  0  0  0  0  0  0  0
   -0.8540   21.6770  -26.2800 C   0  0  0  0  0  0  0  0  0  0  0  0
   -2.9400   23.4500  -30.7240 C   0  0  0  0  0  0  0  0  0  0  0  0
   -3.6010   22.0610  -30.6090 C   0  0  0  0  0  0  0  0  0  0  0  0
   -5.9570   20.4640  -32.7500 C   0  0  0  0  0  0  0  0  0  0  0  0
   -4.6100   20.3170  -33.0860 C   0  0  0  0  0  0  0  0  0  0  0  0
   -4.1970   19.1000  -33.6720 C   0  0  0  0  0  0  0  0  0  0  0  0
   -2.7470   18.9230  -34.0390 C   0  0  0  0  0  0  0  0  0  0  0  0
   -4.5261   16.0375  -33.7777 H   0  0  0  0  0  0  0  0  0  0  0  0
   -5.5772   16.3925  -35.1904 H   0  0  0  0  0  0  0  0  0  0  0  0
   -3.8620   16.9261  -35.1904 H   0  0  0  0  0  0  0  0  0  0  0  0
   -7.2660   17.4932  -33.7598 H   0  0  0  0  0  0  0  0  0  0  0  0
   -4.9470   22.8292  -32.0838 H   0  0  0  0  0  0  0  0  0  0  0  0
   -6.5855   23.5973  -32.0396 H   0  0  0  0  0  0  0  0  0  0  0  0
   -5.8541   23.8444  -29.8264 H   0  0  0  0  0  0  0  0  0  0  0  0
   -6.8317   22.3337  -29.7550 H   0  0  0  0  0  0  0  0  0  0  0  0
   -5.2150   22.7814  -27.7488 H   0  0  0  0  0  0  0  0  0  0  0  0
   -3.9335   21.4792  -27.8259 H   0  0  0  0  0  0  0  0  0  0  0  0
   -3.4034   24.1134  -27.3409 H   0  0  0  0  0  0  0  0  0  0  0  0
   -2.2533   22.9368  -28.1102 H   0  0  0  0  0  0  0  0  0  0  0  0
   -4.1118   24.8563  -29.5865 H   0  0  0  0  0  0  0  0  0  0  0  0
    1.5117   22.6750  -28.2976 H   0  0  0  0  0  0  0  0  0  0  0  0
    0.6604   23.6271  -27.0259 H   0  0  0  0  0  0  0  0  0  0  0  0
   -0.1031   20.8495  -29.5074 H   0  0  0  0  0  0  0  0  0  0  0  0
   -1.5071   18.8773  -28.8801 H   0  0  0  0  0  0  0  0  0  0  0  0
   -2.4856   18.7447  -26.5802 H   0  0  0  0  0  0  0  0  0  0  0  0
   -0.6773   22.4611  -25.5290 H   0  0  0  0  0  0  0  0  0  0  0  0
   -3.3677   23.9708  -31.5934 H   0  0  0  0  0  0  0  0  0  0  0  0
   -1.8570   23.2910  -30.8324 H   0  0  0  0  0  0  0  0  0  0  0  0
   -3.9638   21.7596  -31.6028 H   0  0  0  0  0  0  0  0  0  0  0  0
   -2.8438   21.3613  -30.2254 H   0  0  0  0  0  0  0  0  0  0  0  0
   -3.8897   21.1271  -32.8994 H   0  0  0  0  0  0  0  0  0  0  0  0
   -2.1432   18.8493  -33.1225 H   0  0  0  0  0  0  0  0  0  0  0  0
   -2.6283   18.0037  -34.6313 H   0  0  0  0  0  0  0  0  0  0  0  0
   -2.4106   19.7867  -34.6313 H   0  0  0  0  0  0  0  0  0  0  0  0
  1  2  1  0
  2  3  2  0
  3  4  1  0
  4  5  1  0
  5  6  2  0
  6  7  1  0
  7  8  1  0
  7  9  1  0
  7 10  1  0
  6 11  1  0
 11 12  1  0
 12 13  1  0
 13 14  1  0
 14 15  1  0
 15 16  1  0
 16 17  1  0
 17 18  1  0
 18 19  1  0
 19 20  2  0
 19 21  1  0
 21 22  1  0
 22 23  1  0
 23 24  2  0
 24 25  1  0
 25 26  2  0
 26 27  1  0
 27 28  2  0
 17 29  1  0
 29 30  1  0
 11 31  1  0
 31 32  1  0
 32 33  2  0
 33 34  1  0
 33  2  1  0
 31  4  2  0
 30 14  1  0
 28 23  1  0
  1 35  1  0
  1 36  1  0
  1 37  1  0
  3 38  1  0
 12 39  1  0
 12 40  1  0
 13 41  1  0
 13 42  1  0
 15 43  1  0
 15 44  1  0
 16 45  1  0
 16 46  1  0
 17 47  1  0
 22 48  1  0
 22 49  1  0
 24 50  1  0
 25 51  1  0
 26 52  1  0
 28 53  1  0
 29 54  1  0
 29 55  1  0
 30 56  1  0
 30 57  1  0
 32 58  1  0
 34 59  1  0
 34 60  1  0
 34 61  1  0
M  CHG  2  18  -1  21  -1
M  END
>  <UniqueID>  (2) 
2

>  <SMILES>  (2) 
Cc1cc2nc(C(F)(F)F)n(CCN3CCC([N-]C(=O)[N-]Cc4cccnc4)CC3)c2cc1C

>  <Energy>  (2) 
103.21032137564438

>  <Genealogy>  (2) 
Cc1cc2nc(C(F)(F)F)n(CCN3CCC([N-]C(=O)[N-]Cc4cccnc4)CC3)c2cc1C (protonated)
Cc1cc2nc(C(F)(F)F)n(CCN3CCC([N-]C(=O)[N-]Cc4cccnc4)CC3)c2cc1C (3D coordinates assigned)
Cc1cc2nc(C(F)(F)F)n(CCN3CCC([N-]C(=O)[N-]Cc4cccnc4)CC3)c2cc1C (nonaromatic ring conformer: 103.21032137564438 kcal/mol)

>  <smiles>  (2) 
Cc1cc2nc(C(F)(F)F)n(CCN3CCC(NC(=O)NCc4cccnc4)CC3)c2cc1C

>  <score_type>  (2) 
oracle

>  <origin>  (2) 
adg

>  <m_score__min__energy>  (2) 
-12.43

>  <m_primary>  (2) 
energy

$$$$
2:0
     RDKit          3D

 47 49  0  0  0  0  0  0  0  0999 V2000
   -7.7404   22.5941  -33.4301 H   0  0  0  0  0  0  0  0  0  0  0  0
   -7.4690   22.8090  -32.3860 C   0  0  0  0  0  0  0  0  0  0  0  0
   -6.5590   23.8310  -32.1000 C   0  0  0  0  0  0  0  0  0  0  0  0
   -6.1249   24.4209  -32.9207 H   0  0  0  0  0  0  0  0  0  0  0  0
   -6.1950   24.1100  -30.7730 C   0  0  0  0  0  0  0  0  0  0  0  0
   -5.2440   25.2470  -30.4810 C   0  0  0  0  0  0  0  0  0  0  0  0
   -5.4555   25.6370  -29.4745 H   0  0  0  0  0  0  0  0  0  0  0  0
   -5.3948   26.0209  -31.2480 H   0  0  0  0  0  0  0  0  0  0  0  0
   -3.8470   24.8220  -30.5380 N   0  0  0  0  0  0  0  0  0  0  0  0
   -3.0000   24.4580  -29.6130 C   0  0  0  0  0  0  0  0  0  0  0  0
   -1.9910   25.2970  -29.2650 N   0  0  0  0  0  0  0  0  0  0  0  0
   -1.3720   24.6490  -28.2690 C   0  0  0  0  0  0  0  0  0  0  0  0
   -0.2550   25.0720  -27.5550 C   0  0  0  0  0  0  0  0  0  0  0  0
    0.2224   26.0400  -27.7676 H   0  0  0  0  0  0  0  0  0  0  0  0
    0.2430   24.2210  -26.5530 C   0  0  0  0  0  0  0  0  0  0  0  0
    1.1229   24.5232  -25.9661 H   0  0  0  0  0  0  0  0  0  0  0  0
   -0.3800   22.9810  -26.2960 C   0  0  0  0  0  0  0  0  0  0  0  0
    0.0179   22.3215  -25.5107 H   0  0  0  0  0  0  0  0  0  0  0  0
   -1.5080   22.5830  -27.0390 C   0  0  0  0  0  0  0  0  0  0  0  0
   -2.0012   21.6182  -26.8498 H   0  0  0  0  0  0  0  0  0  0  0  0
   -1.9810   23.4550  -28.0260 C   0  0  0  0  0  0  0  0  0  0  0  0
   -3.0230   23.2960  -28.8740 N   0  0  0  0  0  0  0  0  0  0  0  0
   -3.7830   22.0430  -29.0140 C   0  0  0  0  0  0  0  0  0  0  0  0
   -4.8552   22.2603  -28.8988 H   0  0  0  0  0  0  0  0  0  0  0  0
   -3.4404   21.3425  -28.2382 H   0  0  0  0  0  0  0  0  0  0  0  0
   -3.5490   21.3930  -30.3900 C   0  0  0  0  0  0  0  0  0  0  0  0
   -4.3397   20.6502  -30.5714 H   0  0  0  0  0  0  0  0  0  0  0  0
   -2.5557   20.9206  -30.3791 H   0  0  0  0  0  0  0  0  0  0  0  0
   -3.5700   22.3860  -31.4780 N   0  0  0  0  0  0  0  0  0  0  0  0
   -4.4710   22.9150  -31.4190 H   0  0  0  0  0  0  0  0  0  0  0  0
   -2.7810   23.0660  -31.3730 H   0  0  0  0  0  0  0  0  0  0  0  0
   -3.5090   21.7500  -32.8070 C   0  0  0  0  0  0  0  0  0  0  0  0
   -2.5796   21.1659  -32.8775 H   0  0  0  0  0  0  0  0  0  0  0  0
   -3.5400   22.5475  -33.5640 H   0  0  0  0  0  0  0  0  0  0  0  0
   -4.6980   20.8170  -33.0590 C   0  0  0  0  0  0  0  0  0  0  0  0
   -5.1167   20.4884  -32.0963 H   0  0  0  0  0  0  0  0  0  0  0  0
   -5.4699   21.3530  -33.6308 H   0  0  0  0  0  0  0  0  0  0  0  0
   -4.3610   19.9398  -33.6308 H   0  0  0  0  0  0  0  0  0  0  0  0
   -6.8060   23.3880  -29.7320 C   0  0  0  0  0  0  0  0  0  0  0  0
   -6.5665   23.6288  -28.6858 H   0  0  0  0  0  0  0  0  0  0  0  0
   -7.7160   22.3660  -30.0190 C   0  0  0  0  0  0  0  0  0  0  0  0
   -8.1823   21.8017  -29.1980 H   0  0  0  0  0  0  0  0  0  0  0  0
   -8.0370   22.0570  -31.3490 C   0  0  0  0  0  0  0  0  0  0  0  0
   -9.0430   20.9880  -31.6520 C   0  0  0  0  0  0  0  0  0  0  0  0
   -9.4328   20.5738  -30.7104 H   0  0  0  0  0  0  0  0  0  0  0  0
   -9.8713   21.4183  -32.2340 H   0  0  0  0  0  0  0  0  0  0  0  0
   -8.5632   20.1873  -32.2340 H   0  0  0  0  0  0  0  0  0  0  0  0
  1  2  1  0
  2  3  2  0
  3  4  1  0
  3  5  1  0
  5  6  1  0
  6  7  1  0
  6  8  1  0
  6  9  1  0
  9 10  2  0
 10 11  1  0
 11 12  1  0
 12 13  2  0
 13 14  1  0
 13 15  1  0
 15 16  1  0
 15 17  2  0
 17 18  1  0
 17 19  1  0
 19 20  1  0
 19 21  2  0
 21 22  1  0
 22 23  1  0
 23 24  1  0
 23 25  1  0
 23 26  1  0
 26 27  1  0
 26 28  1  0
 26 29  1  0
 29 30  1  0
 29 31  1  0
 29 32  1  0
 32 33  1  0
 32 34  1  0
 32 35  1  0
 35 36  1  0
 35 37  1  0
 35 38  1  0
  5 39  2  0
 39 40  1  0
 39 41  1  0
 41 42  1  0
 41 43  2  0
 43 44  1  0
 44 45  1  0
 44 46  1  0
 44 47  1  0
 43  2  1  0
 22 10  1  0
 21 12  1  0
M  CHG  2  11  -1  29   1
M  END
>  <UniqueID>  (3) 
3

>  <SMILES>  (3) 
CC[NH2+]CCn1/c(=N\Cc2ccc(C)cc2)[n-]c2ccccc21

>  <Energy>  (3) 
91.80440682261906

>  <Genealogy>  (3) 
CC[NH2+]CCn1c(=NCc2ccc(C)cc2)[n-]c2ccccc21 (protonated)
CC[NH2+]CCn1/c(=N\Cc2ccc(C)cc2)[n-]c2ccccc21 (cis-trans isomerization)
CC[NH2+]CCn1/c(=N\Cc2ccc(C)cc2)[n-]c2ccccc21 (3D coordinates assigned)
CC[NH2+]CCn1/c(=N\Cc2ccc(C)cc2)[n-]c2ccccc21 (optimized conformer: 91.80440682261906 kcal/mol)

>  <smiles>  (3) 
CCNCCn1c(=NCc2ccc(C)cc2)[nH]c2ccccc21

>  <score_type>  (3) 
oracle

>  <origin>  (3) 
adg

>  <m_score__min__energy>  (3) 
-7.5999999999999996

>  <m_primary>  (3) 
energy

$$$$
3:0
     RDKit          3D

 74 76  0  0  0  0  0  0  0  0999 V2000
   -1.2520   23.7640  -29.2820 C   0  0  0  0  0  0  0  0  0  0  0  0
   -2.5880   24.4730  -29.0530 C   0  0  0  0  0  0  0  0  0  0  0  0
   -3.6740   23.5110  -28.7560 N   0  0  0  0  0  0  0  0  0  0  0  0
   -3.4180   22.1350  -29.2550 C   0  0  0  0  0  0  0  0  0  0  0  0
   -3.0550   21.1220  -28.1610 C   0  0  0  0  0  0  0  0  0  0  0  0
   -5.0010   24.0260  -29.1730 C   0  0  0  0  0  0  0  0  0  0  0  0
   -4.8390   25.1120  -30.2360 C   0  0  0  0  0  0  0  0  0  0  0  0
   -5.0630   24.5550  -31.5300 O   0  0  0  0  0  0  0  0  0  0  0  0
   -5.7120   23.3340  -31.7730 C   0  0  0  0  0  0  0  0  0  0  0  0
   -7.0710   23.1410  -31.5110 C   0  0  0  0  0  0  0  0  0  0  0  0
   -7.6880   21.9030  -31.7550 C   0  0  0  0  0  0  0  0  0  0  0  0
   -9.1980   21.8830  -31.7110 C   0  0  0  0  0  0  0  0  0  0  0  0
   -6.8920   20.7820  -32.1620 C   0  0  0  0  0  0  0  0  0  0  0  0
   -5.5600   21.0380  -32.5880 C   0  0  0  0  0  0  0  0  0  0  0  0
   -4.9730   22.2940  -32.3310 C   0  0  0  0  0  0  0  0  0  0  0  0
   -4.8350   20.0280  -33.2550 C   0  0  0  0  0  0  0  0  0  0  0  0
   -3.4960   20.2880  -33.7180 N   0  0  0  0  0  0  0  0  0  0  0  0
   -2.3520   19.4040  -33.4590 C   0  0  0  0  0  0  0  0  0  0  0  0
   -1.0980   19.8120  -34.2590 C   0  0  0  0  0  0  0  0  0  0  0  0
   -0.6710   21.2060  -33.9470 N   0  0  0  0  0  0  0  0  0  0  0  0
    0.7540   21.4360  -34.3160 C   0  0  0  0  0  0  0  0  0  0  0  0
    0.9570   21.9940  -35.7290 C   0  0  0  0  0  0  0  0  0  0  0  0
   -0.9840   21.5440  -32.5340 C   0  0  0  0  0  0  0  0  0  0  0  0
   -0.0670   20.8420  -31.5260 C   0  0  0  0  0  0  0  0  0  0  0  0
   -5.4610   18.7930  -33.5160 C   0  0  0  0  0  0  0  0  0  0  0  0
   -4.8490   17.8230  -34.3400 C   0  0  0  0  0  0  0  0  0  0  0  0
   -5.4540   16.5890  -34.5570 C   0  0  0  0  0  0  0  0  0  0  0  0
   -6.6830   16.3050  -33.9740 C   0  0  0  0  0  0  0  0  0  0  0  0
   -7.3200   17.2570  -33.1810 C   0  0  0  0  0  0  0  0  0  0  0  0
   -6.7250   18.5200  -32.9320 C   0  0  0  0  0  0  0  0  0  0  0  0
   -7.3550   19.4780  -32.1610 N   0  0  0  0  0  0  0  0  0  0  0  0
   -8.4120   19.0580  -31.2140 C   0  0  0  0  0  0  0  0  0  0  0  0
   -0.7946   23.5213  -28.3115 H   0  0  0  0  0  0  0  0  0  0  0  0
   -1.4214   22.8371  -29.8496 H   0  0  0  0  0  0  0  0  0  0  0  0
   -0.5793   24.4238  -29.8496 H   0  0  0  0  0  0  0  0  0  0  0  0
   -2.4834   25.1657  -28.2049 H   0  0  0  0  0  0  0  0  0  0  0  0
   -2.8514   25.0145  -29.9736 H   0  0  0  0  0  0  0  0  0  0  0  0
   -4.3252   21.7798  -29.7657 H   0  0  0  0  0  0  0  0  0  0  0  0
   -2.5474   22.2003  -29.9242 H   0  0  0  0  0  0  0  0  0  0  0  0
   -3.2177   21.5760  -27.1723 H   0  0  0  0  0  0  0  0  0  0  0  0
   -3.6891   20.2290  -28.2632 H   0  0  0  0  0  0  0  0  0  0  0  0
   -1.9981   20.8349  -28.2632 H   0  0  0  0  0  0  0  0  0  0  0  0
   -5.5972   23.1994  -29.5868 H   0  0  0  0  0  0  0  0  0  0  0  0
   -5.5091   24.4559  -28.2972 H   0  0  0  0  0  0  0  0  0  0  0  0
   -5.5679   25.9151  -30.0524 H   0  0  0  0  0  0  0  0  0  0  0  0
   -3.8190   25.5208  -30.1868 H   0  0  0  0  0  0  0  0  0  0  0  0
   -7.6674   23.9723  -31.1070 H   0  0  0  0  0  0  0  0  0  0  0  0
   -9.5343   21.8785  -30.6637 H   0  0  0  0  0  0  0  0  0  0  0  0
   -9.5915   22.7760  -32.2186 H   0  0  0  0  0  0  0  0  0  0  0  0
   -9.5677   20.9799  -32.2186 H   0  0  0  0  0  0  0  0  0  0  0  0
   -3.9127   22.4551  -32.5756 H   0  0  0  0  0  0  0  0  0  0  0  0
   -3.2830   21.2440  -34.0910 H   0  0  0  0  0  0  0  0  0  0  0  0
   -2.1134   19.4409  -32.3858 H   0  0  0  0  0  0  0  0  0  0  0  0
   -2.6351   18.3892  -33.7754 H   0  0  0  0  0  0  0  0  0  0  0  0
   -0.2770   19.1239  -34.0093 H   0  0  0  0  0  0  0  0  0  0  0  0
   -1.3445   19.7617  -35.3299 H   0  0  0  0  0  0  0  0  0  0  0  0
   -1.2240   21.8580  -34.5540 H   0  0  0  0  0  0  0  0  0  0  0  0
    1.1849   22.1498  -33.5985 H   0  0  0  0  0  0  0  0  0  0  0  0
    1.2486   20.4538  -34.2909 H   0  0  0  0  0  0  0  0  0  0  0  0
    1.3324   23.0260  -35.6653 H   0  0  0  0  0  0  0  0  0  0  0  0
    1.6862   21.3712  -36.2679 H   0  0  0  0  0  0  0  0  0  0  0  0
   -0.0019   21.9853  -36.2679 H   0  0  0  0  0  0  0  0  0  0  0  0
   -0.8791   22.6312  -32.4034 H   0  0  0  0  0  0  0  0  0  0  0  0
   -2.0100   21.2002  -32.3360 H   0  0  0  0  0  0  0  0  0  0  0  0
   -0.3892   21.0886  -30.5036 H   0  0  0  0  0  0  0  0  0  0  0  0
   -0.1229   19.7536  -31.6755 H   0  0  0  0  0  0  0  0  0  0  0  0
    0.9691   21.1800  -31.6755 H   0  0  0  0  0  0  0  0  0  0  0  0
   -3.8826   18.0457  -34.8159 H   0  0  0  0  0  0  0  0  0  0  0  0
   -4.9592   15.8379  -35.1903 H   0  0  0  0  0  0  0  0  0  0  0  0
   -7.1546   15.3250  -34.1392 H   0  0  0  0  0  0  0  0  0  0  0  0
   -8.3010   17.0251  -32.7406 H   0  0  0  0  0  0  0  0  0  0  0  0
   -8.0572   19.1990  -30.1824 H   0  0  0  0  0  0  0  0  0  0  0  0
   -9.3139   19.6661  -31.3779 H   0  0  0  0  0  0  0  0  0  0  0  0
   -8.6506   17.9968  -31.3779 H   0  0  0  0  0  0  0  0  0  0  0  0
  1  2  1  0
  2  3  1  0
  3  4  1  0
  4  5  1  0
  3  6  1  0
  6  7  1  0
  7  8  1  0
  8  9  1  0
  9 10  2  0
 10 11  1  0
 11 12  1  0
 11 13  2  0
 13 14  1  0
 14 15  2  0
 14 16  1  0
 16 17  1  0
 17 18  1  0
 18 19  1  0
 19 20  1  0
 20 21  1  0
 21 22  1  0
 20 23  1  0
 23 24  1  0
 16 25  2  0
 25 26  1  0
 26 27  2  0
 27 28  1  0
 28 29  2  0
 29 30  1  0
 30 31  2  0
 31 32  1  0
 15  9  1  0
 30 25  1  0
 31 13  1  0
  1 33  1  0
  1 34  1  0
  1 35  1  0
  2 36  1  0
  2 37  1  0
  4 38  1  0
  4 39  1  0
  5 40  1  0
  5 41  1  0
  5 42  1  0
  6 43  1  0
  6 44  1  0
  7 45  1  0
  7 46  1  0
 10 47  1  0
 12 48  1  0
 12 49  1  0
 12 50  1  0
 15 51  1  0
 17 52  1  0
 18 53  1  0
 18 54  1  0
 19 55  1  0
 19 56  1  0
 20 57  1  0
 21 58  1  0
 21 59  1  0
 22 60  1  0
 22 61  1  0
 22 62  1  0
 23 63  1  0
 23 64  1  0
 24 65  1  0
 24 66  1  0
 24 67  1  0
 26 68  1  0
 27 69  1  0
 28 70  1  0
 29 71  1  0
 32 72  1  0
 32 73  1  0
 32 74  1  0
M  CHG  2  20   1  31   1
M  END
>  <UniqueID>  (4) 
4

>  <SMILES>  (4) 
CCN(CC)CCOc1cc(C)c2c(c1)c(NCC[NH+](CC)CC)c1ccccc1[n+]2C

>  <Energy>  (4) 
112.81007163264488

>  <Genealogy>  (4) 
CCN(CC)CCOc1cc(C)c2c(c1)c(NCC[NH+](CC)CC)c1ccccc1[n+]2C (protonated)
CCN(CC)CCOc1cc(C)c2c(c1)c(NCC[NH+](CC)CC)c1ccccc1[n+]2C (3D coordinates assigned)
CCN(CC)CCOc1cc(C)c2c(c1)c(NCC[NH+](CC)CC)c1ccccc1[n+]2C (optimized conformer: 112.81007163264488 kcal/mol)

>  <smiles>  (4) 
CCN(CC)CCNc1c2ccccc2[n+](C)c2c(C)cc(OCCN(CC)CC)cc12

>  <score_type>  (4) 
oracle

>  <origin>  (4) 
adg

>  <m_score__min__energy>  (4) 
-8.8499999999999996

>  <m_primary>  (4) 
energy

$$$$
4:0
     RDKit          3D

 49 51  0  0  0  0  0  0  0  0999 V2000
   -3.8330   22.2510  -31.1290 C   0  0  0  0  0  0  0  0  0  0  0  0
   -4.2870   22.2840  -32.5870 C   0  0  0  0  0  0  0  0  0  0  0  0
   -5.5880   22.9610  -32.7160 N   0  0  0  0  0  0  0  0  0  0  0  0
   -6.1410   23.3750  -31.4130 C   0  0  0  0  0  0  0  0  0  0  0  0
   -7.4970   22.7310  -31.0770 C   0  0  0  0  0  0  0  0  0  0  0  0
   -8.2490   22.4250  -32.3040 N   0  0  0  0  0  0  0  0  0  0  0  0
   -9.0450   21.1970  -32.1700 C   0  0  0  0  0  0  0  0  0  0  0  0
   -8.2700   20.0790  -31.4420 C   0  0  0  0  0  0  0  0  0  0  0  0
   -7.1760   19.3130  -32.2560 C   0  0  1  0  0  0  0  0  0  0  0  0
   -7.0440   19.8490  -33.7110 C   0  0  0  0  0  0  0  0  0  0  0  0
   -6.0050   19.0170  -34.4970 C   0  0  2  0  0  0  0  0  0  0  0  0
   -6.4520   17.5410  -34.5470 C   0  0  0  0  0  0  0  0  0  0  0  0
   -6.5620   16.9870  -33.1100 C   0  0  1  0  0  0  0  0  0  0  0  0
   -5.1920   17.0830  -32.4090 C   0  0  0  0  0  0  0  0  0  0  0  0
   -4.7450   18.5580  -32.3580 C   0  0  1  0  0  0  0  0  0  0  0  0
   -4.6320   19.1130  -33.7940 C   0  0  0  0  0  0  0  0  0  0  0  0
   -5.7800   19.3890  -31.5660 C   0  0  0  0  0  0  0  0  0  0  0  0
   -7.5990   17.8140  -32.3230 C   0  0  0  0  0  0  0  0  0  0  0  0
   -4.7114   22.3148  -30.4699 H   0  0  0  0  0  0  0  0  0  0  0  0
   -3.2954   21.3114  -30.9335 H   0  0  0  0  0  0  0  0  0  0  0  0
   -3.1652   23.1030  -30.9335 H   0  0  0  0  0  0  0  0  0  0  0  0
   -3.5387   22.8245  -33.1853 H   0  0  0  0  0  0  0  0  0  0  0  0
   -4.3914   21.2497  -32.9465 H   0  0  0  0  0  0  0  0  0  0  0  0
   -5.5050   23.7850  -33.3540 H   0  0  0  0  0  0  0  0  0  0  0  0
   -6.2720   22.2950  -33.1470 H   0  0  0  0  0  0  0  0  0  0  0  0
   -5.4221   23.0976  -30.6280 H   0  0  0  0  0  0  0  0  0  0  0  0
   -6.3088   24.4607  -31.4684 H   0  0  0  0  0  0  0  0  0  0  0  0
   -7.3250   21.7995  -30.5178 H   0  0  0  0  0  0  0  0  0  0  0  0
   -8.0828   23.4386  -30.4719 H   0  0  0  0  0  0  0  0  0  0  0  0
   -8.9160   23.2130  -32.4730 H   0  0  0  0  0  0  0  0  0  0  0  0
   -9.9569   21.4260  -31.5990 H   0  0  0  0  0  0  0  0  0  0  0  0
   -9.2867   20.8381  -33.1813 H   0  0  0  0  0  0  0  0  0  0  0  0
   -7.7751   20.5339  -30.5713 H   0  0  0  0  0  0  0  0  0  0  0  0
   -9.0290   19.3184  -31.2065 H   0  0  0  0  0  0  0  0  0  0  0  0
   -6.7208   20.9001  -33.6826 H   0  0  0  0  0  0  0  0  0  0  0  0
   -8.0200   19.7683  -34.2120 H   0  0  0  0  0  0  0  0  0  0  0  0
   -5.9242   19.4091  -35.5216 H   0  0  0  0  0  0  0  0  0  0  0  0
   -5.7129   16.9531  -35.1110 H   0  0  0  0  0  0  0  0  0  0  0  0
   -7.4316   17.4714  -35.0425 H   0  0  0  0  0  0  0  0  0  0  0  0
   -6.8781   15.9341  -33.1476 H   0  0  0  0  0  0  0  0  0  0  0  0
   -4.4509   16.4941  -32.9694 H   0  0  0  0  0  0  0  0  0  0  0  0
   -5.2745   16.6885  -31.3855 H   0  0  0  0  0  0  0  0  0  0  0  0
   -3.7663   18.6235  -31.8601 H   0  0  0  0  0  0  0  0  0  0  0  0
   -3.8911   18.5256  -34.3562 H   0  0  0  0  0  0  0  0  0  0  0  0
   -4.3147   20.1655  -33.7547 H   0  0  0  0  0  0  0  0  0  0  0  0
   -5.4506   20.4378  -31.5277 H   0  0  0  0  0  0  0  0  0  0  0  0
   -5.8615   18.9825  -30.5471 H   0  0  0  0  0  0  0  0  0  0  0  0
   -8.5760   17.7369  -32.8226 H   0  0  0  0  0  0  0  0  0  0  0  0
   -7.6608   17.4189  -31.2983 H   0  0  0  0  0  0  0  0  0  0  0  0
  1  2  1  0
  2  3  1  0
  3  4  1  0
  4  5  1  0
  5  6  1  0
  6  7  1  0
  7  8  1  0
  9  8  1  1
  9 10  1  0
 10 11  1  0
 11 12  1  0
 12 13  1  0
 13 14  1  0
 14 15  1  0
 15 16  1  0
 15 17  1  0
 13 18  1  0
 17  9  1  0
 18  9  1  0
 16 11  1  0
  1 19  1  0
  1 20  1  0
  1 21  1  0
  2 22  1  0
  2 23  1  0
  3 24  1  0
  3 25  1  0
  4 26  1  0
  4 27  1  0
  5 28  1  0
  5 29  1  0
  6 30  1  0
  7 31  1  0
  7 32  1  0
  8 33  1  0
  8 34  1  0
 10 35  1  0
 10 36  1  0
 11 37  1  6
 12 38  1  0
 12 39  1  0
 13 40  1  6
 14 41  1  0
 14 42  1  0
 15 43  1  1
 16 44  1  0
 16 45  1  0
 17 46  1  0
 17 47  1  0
 18 48  1  0
 18 49  1  0
M  CHG  1   3   1
M  END
>  <UniqueID>  (5) 
5

>  <SMILES>  (5) 
CC[NH2+]CCNCCC12CC3CC(CC(C3)C1)C2

>  <Energy>  (5) 
42.79929610773073

>  <Genealogy>  (5) 
CC[NH2+]CCNCCC12CC3CC(CC(C3)C1)C2 (protonated)
CC[NH2+]CCNCCC12CC3CC(CC(C3)C1)C2 (3D coordinates assigned)
CC[NH2+]CCNCCC12CC3CC(CC(C3)C1)C2 (nonaromatic ring conformer: 42.79929610773073 kcal/mol)

>  <smiles>  (5) 
CCNCCNCCC12CC3CC(CC(C3)C1)C2

>  <score_type>  (5) 
oracle

>  <origin>  (5) 
adg

>  <m_score__min__energy>  (5) 
-7.0499999999999998

>  <m_primary>  (5) 
energy

$$$$
5:0
     RDKit          3D

 52 55  0  0  0  0  0  0  0  0999 V2000
   -4.0020   16.3310  -34.8230 C   0  0  0  0  0  0  0  0  0  0  0  0
   -4.8670   17.4200  -34.2620 C   0  0  0  0  0  0  0  0  0  0  0  0
   -4.4890   18.7570  -34.1660 C   0  0  0  0  0  0  0  0  0  0  0  0
   -5.5620   19.3920  -33.5810 C   0  0  0  0  0  0  0  0  0  0  0  0
   -5.7330   20.7280  -33.2280 C   0  0  0  0  0  0  0  0  0  0  0  0
   -6.9460   21.1050  -32.6130 C   0  0  0  0  0  0  0  0  0  0  0  0
   -7.1760   22.5410  -32.2350 C   0  0  0  0  0  0  0  0  0  0  0  0
   -6.7330   22.7730  -30.8440 N   0  0  0  0  0  0  0  0  0  0  0  0
   -5.4520   22.1180  -30.5020 C   0  0  0  0  0  0  0  0  0  0  0  0
   -4.2560   22.5740  -31.3610 C   0  0  0  0  0  0  0  0  0  0  0  0
   -3.5060   23.7600  -30.7300 C   0  0  0  0  0  0  0  0  0  0  0  0
   -4.3910   24.7670  -30.0920 N   0  0  0  0  0  0  0  0  0  0  0  0
   -4.6470   24.4330  -28.6730 C   0  0  0  0  0  0  0  0  0  0  0  0
   -3.4360   23.8060  -28.0420 C   0  0  0  0  0  0  0  0  0  0  0  0
   -3.3020   22.4250  -27.8330 C   0  0  0  0  0  0  0  0  0  0  0  0
   -2.0840   22.0650  -27.2740 C   0  0  0  0  0  0  0  0  0  0  0  0
   -1.1800   23.4640  -27.0500 S   0  0  0  0  0  0  0  0  0  0  0  0
   -2.3190   24.5390  -27.6570 C   0  0  0  0  0  0  0  0  0  0  0  0
   -5.6510   25.0570  -30.8180 C   0  0  0  0  0  0  0  0  0  0  0  0
   -6.8470   24.1750  -30.3910 C   0  0  0  0  0  0  0  0  0  0  0  0
   -7.9470   20.1280  -32.3750 C   0  0  0  0  0  0  0  0  0  0  0  0
   -7.7420   18.7860  -32.7410 C   0  0  0  0  0  0  0  0  0  0  0  0
   -6.5320   18.4490  -33.3500 C   0  0  0  0  0  0  0  0  0  0  0  0
   -6.1230   17.2370  -33.7780 N   0  0  0  0  0  0  0  0  0  0  0  0
   -6.8510   15.9740  -33.6470 C   0  0  0  0  0  0  0  0  0  0  0  0
   -3.5492   15.7609  -33.9984 H   0  0  0  0  0  0  0  0  0  0  0  0
   -4.6144   15.6580  -35.4411 H   0  0  0  0  0  0  0  0  0  0  0  0
   -3.2079   16.7753  -35.4411 H   0  0  0  0  0  0  0  0  0  0  0  0
   -3.5389   19.2083  -34.4878 H   0  0  0  0  0  0  0  0  0  0  0  0
   -4.9442   21.4694  -33.4232 H   0  0  0  0  0  0  0  0  0  0  0  0
   -6.6050   23.1924  -32.9129 H   0  0  0  0  0  0  0  0  0  0  0  0
   -8.2491   22.7690  -32.3158 H   0  0  0  0  0  0  0  0  0  0  0  0
   -5.2232   22.3380  -29.4488 H   0  0  0  0  0  0  0  0  0  0  0  0
   -5.5866   21.0435  -30.6954 H   0  0  0  0  0  0  0  0  0  0  0  0
   -3.5575   21.7315  -31.4714 H   0  0  0  0  0  0  0  0  0  0  0  0
   -4.6459   22.9012  -32.3362 H   0  0  0  0  0  0  0  0  0  0  0  0
   -2.8211   23.3674  -29.9640 H   0  0  0  0  0  0  0  0  0  0  0  0
   -2.9795   24.2735  -31.5480 H   0  0  0  0  0  0  0  0  0  0  0  0
   -4.9018   25.3532  -28.1269 H   0  0  0  0  0  0  0  0  0  0  0  0
   -5.4790   23.7149  -28.6259 H   0  0  0  0  0  0  0  0  0  0  0  0
   -4.0869   21.6977  -28.0878 H   0  0  0  0  0  0  0  0  0  0  0  0
   -1.7658   21.0427  -27.0216 H   0  0  0  0  0  0  0  0  0  0  0  0
   -2.2019   25.6299  -27.7360 H   0  0  0  0  0  0  0  0  0  0  0  0
   -5.9175   26.1092  -30.6395 H   0  0  0  0  0  0  0  0  0  0  0  0
   -5.4611   24.8391  -31.8794 H   0  0  0  0  0  0  0  0  0  0  0  0
   -6.9114   24.1826  -29.2929 H   0  0  0  0  0  0  0  0  0  0  0  0
   -7.7466   24.5968  -30.8630 H   0  0  0  0  0  0  0  0  0  0  0  0
   -8.8936   20.4236  -31.8990 H   0  0  0  0  0  0  0  0  0  0  0  0
   -8.5126   18.0239  -32.5529 H   0  0  0  0  0  0  0  0  0  0  0  0
   -6.9870   15.7380  -32.5813 H   0  0  0  0  0  0  0  0  0  0  0  0
   -7.8347   16.0659  -34.1306 H   0  0  0  0  0  0  0  0  0  0  0  0
   -6.2784   15.1689  -34.1306 H   0  0  0  0  0  0  0  0  0  0  0  0
  1  2  1  0
  2  3  2  0
  3  4  1  0
  4  5  2  0
  5  6  1  0
  6  7  1  0
  7  8  1  0
  8  9  1  0
  9 10  1  0
 10 11  1  0
 11 12  1  0
 12 13  1  0
 13 14  1  0
 14 15  1  0
 15 16  2  0
 16 17  1  0
 17 18  1  0
 12 19  1  0
 19 20  1  0
  6 21  2  0
 21 22  1  0
 22 23  2  0
 23 24  1  0
 24 25  1  0
 24  2  1  0
 23  4  1  0
 20  8  1  0
 18 14  2  0
  1 26  1  0
  1 27  1  0
  1 28  1  0
  3 29  1  0
  5 30  1  0
  7 31  1  0
  7 32  1  0
  9 33  1  0
  9 34  1  0
 10 35  1  0
 10 36  1  0
 11 37  1  0
 11 38  1  0
 13 39  1  0
 13 40  1  0
 15 41  1  0
 16 42  1  0
 18 43  1  0
 19 44  1  0
 19 45  1  0
 20 46  1  0
 20 47  1  0
 21 48  1  0
 22 49  1  0
 25 50  1  0
 25 51  1  0
 25 52  1  0
M  END
>  <UniqueID>  (6) 
6

>  <SMILES>  (6) 
Cc1cc2cc(CN3CCCN(Cc4ccsc4)CC3)ccc2n1C

>  <Energy>  (6) 
129.20723030434044

>  <Genealogy>  (6) 
Cc1cc2cc(CN3CCCN(Cc4ccsc4)CC3)ccc2n1C (3D coordinates assigned)
Cc1cc2cc(CN3CCCN(Cc4ccsc4)CC3)ccc2n1C (nonaromatic ring conformer: 129.20723030434044 kcal/mol)

>  <smiles>  (6) 
Cc1cc2cc(CN3CCCN(Cc4ccsc4)CC3)ccc2n1C

>  <score_type>  (6) 
oracle

>  <origin>  (6) 
adg

>  <m_score__min__energy>  (6) 
-6.8700000000000001

>  <m_primary>  (6) 
energy

$$$$
6:0
     RDKit          3D

 43 46  0  0  0  0  0  0  0  0999 V2000
   -2.9450   20.8770  -32.5570 C   0  0  0  0  0  0  0  0  0  0  0  0
   -4.4000   20.5520  -32.8110 C   0  0  0  0  0  0  0  0  0  0  0  0
   -5.4030   21.3760  -32.2790 C   0  0  0  0  0  0  0  0  0  0  0  0
   -5.3750   22.5540  -31.5600 C   0  0  0  0  0  0  0  0  0  0  0  0
   -4.3220   23.3080  -31.1620 N   0  0  0  0  0  0  0  0  0  0  0  0
   -4.5530   24.4830  -30.4980 C   0  0  0  0  0  0  0  0  0  0  0  0
   -3.4870   25.2770  -30.0660 O   0  0  0  0  0  0  0  0  0  0  0  0
   -2.6600   24.9220  -28.9640 C   0  0  0  0  0  0  0  0  0  0  0  0
   -2.5190   23.4330  -28.9110 C   0  0  0  0  0  0  0  0  0  0  0  0
   -3.2680   22.6790  -27.9950 C   0  0  0  0  0  0  0  0  0  0  0  0
   -3.0930   21.2950  -27.9450 C   0  0  0  0  0  0  0  0  0  0  0  0
   -2.1730   20.6790  -28.7960 C   0  0  0  0  0  0  0  0  0  0  0  0
   -1.4360   21.4620  -29.6870 C   0  0  0  0  0  0  0  0  0  0  0  0
   -1.6190   22.8090  -29.7210 N   0  0  0  0  0  0  0  0  0  0  0  0
   -5.8770   24.9080  -30.2450 C   0  0  0  0  0  0  0  0  0  0  0  0
   -6.9630   24.1250  -30.6770 C   0  0  0  0  0  0  0  0  0  0  0  0
   -6.6760   22.9310  -31.3380 C   0  0  0  0  0  0  0  0  0  0  0  0
   -7.5340   22.0290  -31.8730 N   0  0  0  0  0  0  0  0  0  0  0  0
   -8.9930   22.1170  -31.9310 C   0  0  0  0  0  0  0  0  0  0  0  0
   -6.7390   21.0980  -32.4650 C   0  0  0  0  0  0  0  0  0  0  0  0
   -7.1340   19.9940  -33.2090 C   0  0  0  0  0  0  0  0  0  0  0  0
   -6.1350   19.1850  -33.7720 C   0  0  0  0  0  0  0  0  0  0  0  0
   -6.4920   18.1790  -34.4430 O   0  0  0  0  0  0  0  0  0  0  0  0
   -4.7910   19.4810  -33.6010 N   0  0  0  0  0  0  0  0  0  0  0  0
   -3.7740   18.6280  -34.2450 C   0  0  0  0  0  0  0  0  0  0  0  0
   -2.7622   20.9178  -31.4731 H   0  0  0  0  0  0  0  0  0  0  0  0
   -2.3114   20.0982  -33.0066 H   0  0  0  0  0  0  0  0  0  0  0  0
   -2.7030   21.8513  -33.0066 H   0  0  0  0  0  0  0  0  0  0  0  0
   -1.6678   25.3809  -29.0863 H   0  0  0  0  0  0  0  0  0  0  0  0
   -3.1158   25.2825  -28.0300 H   0  0  0  0  0  0  0  0  0  0  0  0
   -3.9855   23.1732  -27.3234 H   0  0  0  0  0  0  0  0  0  0  0  0
   -3.6787   20.6908  -27.2366 H   0  0  0  0  0  0  0  0  0  0  0  0
   -2.0304   19.5887  -28.7648 H   0  0  0  0  0  0  0  0  0  0  0  0
   -0.7072   20.9890  -30.3616 H   0  0  0  0  0  0  0  0  0  0  0  0
   -6.0584   25.8518  -29.7099 H   0  0  0  0  0  0  0  0  0  0  0  0
   -8.0010   24.4430  -30.4998 H   0  0  0  0  0  0  0  0  0  0  0  0
   -9.3998   22.1415  -30.9093 H   0  0  0  0  0  0  0  0  0  0  0  0
   -9.2841   23.0343  -32.4637 H   0  0  0  0  0  0  0  0  0  0  0  0
   -9.3923   21.2413  -32.4637 H   0  0  0  0  0  0  0  0  0  0  0  0
   -8.1992   19.7603  -33.3529 H   0  0  0  0  0  0  0  0  0  0  0  0
   -3.1744   18.1251  -33.4720 H   0  0  0  0  0  0  0  0  0  0  0  0
   -4.2718   17.8733  -34.8716 H   0  0  0  0  0  0  0  0  0  0  0  0
   -3.1175   19.2496  -34.8716 H   0  0  0  0  0  0  0  0  0  0  0  0
  1  2  1  0
  2  3  2  0
  3  4  1  0
  4  5  2  0
  5  6  1  0
  6  7  1  0
  7  8  1  0
  8  9  1  0
  9 10  2  0
 10 11  1  0
 11 12  2  0
 12 13  1  0
 13 14  2  0
  6 15  2  0
 15 16  1  0
 16 17  2  0
 17 18  1  0
 18 19  1  0
 18 20  1  0
 20 21  2  0
 21 22  1  0
 22 23  2  0
 22 24  1  0
 24 25  1  0
 24  2  1  0
 20  3  1  0
 17  4  1  0
 14  9  1  0
  1 26  1  0
  1 27  1  0
  1 28  1  0
  8 29  1  0
  8 30  1  0
 10 31  1  0
 11 32  1  0
 12 33  1  0
 13 34  1  0
 15 35  1  0
 16 36  1  0
 19 37  1  0
 19 38  1  0
 19 39  1  0
 21 40  1  0
 25 41  1  0
 25 42  1  0
 25 43  1  0
M  END
>  <UniqueID>  (7) 
7

>  <SMILES>  (7) 
Cc1c2c3nc(OCc4ccccn4)ccc3n(C)c2cc(=O)n1C

>  <Energy>  (7) 
95.9857802926116

>  <Genealogy>  (7) 
Cc1c2c3nc(OCc4ccccn4)ccc3n(C)c2cc(=O)n1C (3D coordinates assigned)
Cc1c2c3nc(OCc4ccccn4)ccc3n(C)c2cc(=O)n1C (optimized conformer: 95.9857802926116 kcal/mol)

>  <smiles>  (7) 
Cc1c2c3nc(OCc4ccccn4)ccc3n(C)c2cc(=O)n1C

>  <score_type>  (7) 
oracle

>  <origin>  (7) 
adg

>  <m_score__min__energy>  (7) 
-8.7300000000000004

>  <m_primary>  (7) 
energy

$$$$
7:0
     RDKit          3D

 36 37  0  0  0  0  0  0  0  0999 V2000
   -5.7410   17.7490  -34.9610 C   0  0  0  0  0  0  0  0  0  0  0  0
   -6.4840   17.1690  -33.7540 C   0  0  0  0  0  0  0  0  0  0  0  0
   -6.2310   17.9330  -32.5210 N   0  0  0  0  0  0  0  0  0  0  0  0
   -7.3870   17.9470  -31.6120 C   0  0  0  0  0  0  0  0  0  0  0  0
   -8.5020   18.8280  -32.1900 C   0  0  0  0  0  0  0  0  0  0  0  0
   -7.9640   19.7630  -33.1860 N   0  0  0  0  0  0  0  0  0  0  0  0
   -7.4650   20.9390  -32.5300 C   0  0  0  0  0  0  0  0  0  0  0  0
   -8.4350   22.1230  -31.8070 S   0  0  0  0  0  0  0  0  0  0  0  0
   -7.1380   23.0360  -31.2450 C   0  0  0  0  0  0  0  0  0  0  0  0
   -7.1800   24.2150  -30.5030 C   0  0  0  0  0  0  0  0  0  0  0  0
   -5.9670   24.7920  -30.1030 C   0  0  0  0  0  0  0  0  0  0  0  0
   -4.7430   24.1790  -30.4390 C   0  0  0  0  0  0  0  0  0  0  0  0
   -4.7230   22.9890  -31.1850 C   0  0  0  0  0  0  0  0  0  0  0  0
   -5.9380   22.4290  -31.5990 C   0  0  0  0  0  0  0  0  0  0  0  0
   -6.1180   21.2460  -32.3300 C   0  0  0  0  0  0  0  0  0  0  0  0
   -5.0790   20.4390  -32.8000 O   0  0  0  0  0  0  0  0  0  0  0  0
   -3.9380   20.9920  -33.4430 C   0  0  0  0  0  0  0  0  0  0  0  0
   -4.9188   18.3908  -34.6117 H   0  0  0  0  0  0  0  0  0  0  0  0
   -5.3326   16.9284  -35.5691 H   0  0  0  0  0  0  0  0  0  0  0  0
   -6.4379   18.3444  -35.5691 H   0  0  0  0  0  0  0  0  0  0  0  0
   -7.5638   17.1830  -33.9634 H   0  0  0  0  0  0  0  0  0  0  0  0
   -6.1184   16.1438  -33.5951 H   0  0  0  0  0  0  0  0  0  0  0  0
   -5.9730   18.9190  -32.7650 H   0  0  0  0  0  0  0  0  0  0  0  0
   -7.7628   16.9209  -31.4856 H   0  0  0  0  0  0  0  0  0  0  0  0
   -7.0747   18.3540  -30.6389 H   0  0  0  0  0  0  0  0  0  0  0  0
   -9.2570   18.1867  -32.6682 H   0  0  0  0  0  0  0  0  0  0  0  0
   -8.9544   19.4067  -31.3712 H   0  0  0  0  0  0  0  0  0  0  0  0
   -7.1860   19.3110  -33.7210 H   0  0  0  0  0  0  0  0  0  0  0  0
   -8.7170   20.0430  -33.8540 H   0  0  0  0  0  0  0  0  0  0  0  0
   -8.1406   24.6808  -30.2381 H   0  0  0  0  0  0  0  0  0  0  0  0
   -5.9702   25.7274  -29.5243 H   0  0  0  0  0  0  0  0  0  0  0  0
   -3.7964   24.6359  -30.1146 H   0  0  0  0  0  0  0  0  0  0  0  0
   -3.7687   22.5049  -31.4398 H   0  0  0  0  0  0  0  0  0  0  0  0
   -3.2216   21.3392  -32.6839 H   0  0  0  0  0  0  0  0  0  0  0  0
   -3.4631   20.2241  -34.0713 H   0  0  0  0  0  0  0  0  0  0  0  0
   -4.2465   21.8406  -34.0713 H   0  0  0  0  0  0  0  0  0  0  0  0
  1  2  1  0
  2  3  1  0
  3  4  1  0
  4  5  1  0
  5  6  1  0
  6  7  1  0
  7  8  1  0
  8  9  1  0
  9 10  2  0
 10 11  1  0
 11 12  2  0
 12 13  1  0
 13 14  2  0
 14 15  1  0
 15 16  1  0
 16 17  1  0
 15  7  2  0
 14  9  1  0
  1 18  1  0
  1 19  1  0
  1 20  1  0
  2 21  1  0
  2 22  1  0
  3 23  1  0
  4 24  1  0
  4 25  1  0
  5 26  1  0
  5 27  1  0
  6 28  1  0
  6 29  1  0
 10 30  1  0
 11 31  1  0
 12 32  1  0
 13 33  1  0
 17 34  1  0
 17 35  1  0
 17 36  1  0
M  CHG  1   6   1
M  END
>  <UniqueID>  (8) 
8

>  <SMILES>  (8) 
CCNCC[NH2+]c1sc2ccccc2c1OC

>  <Energy>  (8) 
69.5176790184301

>  <Genealogy>  (8) 
CCNCC[NH2+]c1sc2ccccc2c1OC (protonated)
CCNCC[NH2+]c1sc2ccccc2c1OC (3D coordinates assigned)
CCNCC[NH2+]c1sc2ccccc2c1OC (optimized conformer: 69.5176790184301 kcal/mol)

>  <smiles>  (8) 
CCNCCNc1sc2ccccc2c1OC

>  <score_type>  (8) 
oracle

>  <origin>  (8) 
adg

>  <m_score__min__energy>  (8) 
-5.9699999999999998

>  <m_primary>  (8) 
energy

$$$$
8:0
     RDKit          3D

 40 41  0  0  0  0  0  0  0  0999 V2000
   -6.2270   25.3970  -29.5500 C   0  0  0  0  0  0  0  0  0  0  0  0
   -5.3650   25.5190  -30.8000 C   0  0  0  0  0  0  0  0  0  0  0  0
   -3.9530   25.2990  -30.4600 N   0  0  0  0  0  0  0  0  0  0  0  0
   -3.8070   24.3030  -29.3880 C   0  0  0  0  0  0  0  0  0  0  0  0
   -3.9620   22.8900  -29.9450 C   0  0  0  0  0  0  0  0  0  0  0  0
   -3.7530   22.9180  -31.3420 O   0  0  0  0  0  0  0  0  0  0  0  0
   -3.5740   21.6080  -31.8490 C   0  0  0  0  0  0  0  0  0  0  0  0
   -4.2300   21.4760  -33.2260 C   0  0  0  0  0  0  0  0  0  0  0  0
   -5.5810   20.9190  -33.1180 N   0  0  0  0  0  0  0  0  0  0  0  0
   -6.0370   19.7180  -33.5730 C   0  0  0  0  0  0  0  0  0  0  0  0
   -5.0240   18.5070  -34.4270 S   0  0  0  0  0  0  0  0  0  0  0  0
   -6.1460   17.1220  -34.0590 C   0  0  0  0  0  0  0  0  0  0  0  0
   -7.3500   19.5160  -33.3000 N   0  0  0  0  0  0  0  0  0  0  0  0
   -7.7220   20.6390  -32.6720 C   0  0  0  0  0  0  0  0  0  0  0  0
   -8.9610   20.9430  -32.2120 N   0  0  0  0  0  0  0  0  0  0  0  0
   -9.1570   22.1520  -31.6040 C   0  0  0  0  0  0  0  0  0  0  0  0
   -8.0870   23.0680  -31.4590 C   0  0  0  0  0  0  0  0  0  0  0  0
   -6.8100   22.7330  -31.9430 C   0  0  0  0  0  0  0  0  0  0  0  0
   -6.6660   21.4900  -32.5550 C   0  0  0  0  0  0  0  0  0  0  0  0
   -5.5919   25.4869  -28.6564 H   0  0  0  0  0  0  0  0  0  0  0  0
   -6.9817   26.1973  -29.5455 H   0  0  0  0  0  0  0  0  0  0  0  0
   -6.7299   24.4187  -29.5455 H   0  0  0  0  0  0  0  0  0  0  0  0
   -5.6836   24.7672  -31.5370 H   0  0  0  0  0  0  0  0  0  0  0  0
   -5.4818   26.5281  -31.2221 H   0  0  0  0  0  0  0  0  0  0  0  0
   -3.4790   24.9190  -31.3130 H   0  0  0  0  0  0  0  0  0  0  0  0
   -2.8110   24.4051  -28.9324 H   0  0  0  0  0  0  0  0  0  0  0  0
   -4.5889   24.4754  -28.6338 H   0  0  0  0  0  0  0  0  0  0  0  0
   -3.2218   22.2256  -29.4751 H   0  0  0  0  0  0  0  0  0  0  0  0
   -4.9736   22.5156  -29.7292 H   0  0  0  0  0  0  0  0  0  0  0  0
   -2.4980   21.3974  -31.9381 H   0  0  0  0  0  0  0  0  0  0  0  0
   -4.0429   20.8907  -31.1594 H   0  0  0  0  0  0  0  0  0  0  0  0
   -4.2881   22.4704  -33.6926 H   0  0  0  0  0  0  0  0  0  0  0  0
   -3.6205   20.7953  -33.8385 H   0  0  0  0  0  0  0  0  0  0  0  0
   -6.2400   17.0059  -32.9692 H   0  0  0  0  0  0  0  0  0  0  0  0
   -7.1359   17.3269  -34.4927 H   0  0  0  0  0  0  0  0  0  0  0  0
   -5.7402   16.1961  -34.4927 H   0  0  0  0  0  0  0  0  0  0  0  0
   -7.9380   18.6850  -33.5400 H   0  0  0  0  0  0  0  0  0  0  0  0
  -10.1551   22.4154  -31.2240 H   0  0  0  0  0  0  0  0  0  0  0  0
   -8.2542   24.0387  -30.9692 H   0  0  0  0  0  0  0  0  0  0  0  0
   -5.9600   23.4239  -31.8425 H   0  0  0  0  0  0  0  0  0  0  0  0
  1  2  1  0
  2  3  1  0
  3  4  1  0
  4  5  1  0
  5  6  1  0
  6  7  1  0
  7  8  1  0
  8  9  1  0
  9 10  1  0
 10 11  1  0
 11 12  1  0
 10 13  2  0
 13 14  1  0
 14 15  2  0
 15 16  1  0
 16 17  2  0
 17 18  1  0
 18 19  2  0
 19  9  1  0
 19 14  1  0
  1 20  1  0
  1 21  1  0
  1 22  1  0
  2 23  1  0
  2 24  1  0
  3 25  1  0
  4 26  1  0
  4 27  1  0
  5 28  1  0
  5 29  1  0
  7 30  1  0
  7 31  1  0
  8 32  1  0
  8 33  1  0
 12 34  1  0
 12 35  1  0
 12 36  1  0
 13 37  1  0
 16 38  1  0
 17 39  1  0
 18 40  1  0
M  CHG  1  13   1
M  END
>  <UniqueID>  (9) 
9

>  <SMILES>  (9) 
CCNCCOCCn1c(SC)[nH+]c2ncccc21

>  <Energy>  (9) 
69.3261838637435

>  <Genealogy>  (9) 
CCNCCOCCn1c(SC)[nH+]c2ncccc21 (protonated)
CCNCCOCCn1c(SC)[nH+]c2ncccc21 (3D coordinates assigned)
CCNCCOCCn1c(SC)[nH+]c2ncccc21 (optimized conformer: 69.3261838637435 kcal/mol)

>  <smiles>  (9) 
CCNCCOCCn1c(SC)nc2ncccc21

>  <score_type>  (9) 
oracle

>  <origin>  (9) 
adg

>  <m_score__min__energy>  (9) 
-6.7699999999999996

>  <m_primary>  (9) 
energy

$$$$
9:0
     RDKit          3D

 60 62  0  0  0  0  0  0  0  0999 V2000
    0.5760   24.9770  -36.0720 C   0  0  0  0  0  0  0  0  0  0  0  0
    1.0710   23.5260  -36.1690 C   0  0  0  0  0  0  0  0  0  0  0  0
    2.5250   23.4510  -35.6870 C   0  0  0  0  0  0  0  0  0  0  0  0
    0.2200   22.6360  -35.3520 N   0  0  0  0  0  0  0  0  0  0  0  0
    0.2750   21.2460  -35.8280 C   0  0  0  0  0  0  0  0  0  0  0  0
    0.2560   20.2860  -34.6370 C   0  0  0  0  0  0  0  0  0  0  0  0
   -0.6660   20.7930  -33.5590 C   0  0  0  0  0  0  0  0  0  0  0  0
   -0.1540   21.1430  -32.3010 C   0  0  0  0  0  0  0  0  0  0  0  0
   -0.9990   21.6470  -31.3080 C   0  0  0  0  0  0  0  0  0  0  0  0
   -2.3670   21.8160  -31.5680 C   0  0  0  0  0  0  0  0  0  0  0  0
   -3.2270   22.3200  -30.5860 C   0  0  0  0  0  0  0  0  0  0  0  0
   -4.5870   22.4850  -30.8680 C   0  0  0  0  0  0  0  0  0  0  0  0
   -5.4660   22.9910  -29.9020 C   0  0  0  0  0  0  0  0  0  0  0  0
   -6.8210   23.1480  -30.1990 C   0  0  0  0  0  0  0  0  0  0  0  0
   -7.3240   22.7980  -31.4620 C   0  0  0  0  0  0  0  0  0  0  0  0
   -8.7290   22.9750  -31.7270 N   0  0  0  0  0  0  0  0  0  0  0  0
   -9.7420   21.9240  -31.5940 C   0  0  0  0  0  0  0  0  0  0  0  0
   -9.1120   20.5340  -31.4200 C   0  0  0  0  0  0  0  0  0  0  0  0
   -8.5150   19.9050  -32.7050 C   0  0  0  0  0  0  0  0  0  0  0  0
   -7.1620   19.3110  -32.5850 N   0  0  0  0  0  0  0  0  0  0  0  0
   -7.1060   18.0950  -31.7600 C   0  0  0  0  0  0  0  0  0  0  0  0
   -6.4510   19.1440  -33.8610 C   0  0  0  0  0  0  0  0  0  0  0  0
   -6.4390   22.3010  -32.4380 C   0  0  0  0  0  0  0  0  0  0  0  0
   -5.0750   22.1380  -32.1480 C   0  0  0  0  0  0  0  0  0  0  0  0
   -4.2200   21.6490  -33.0940 N   0  0  0  0  0  0  0  0  0  0  0  0
   -2.8900   21.4790  -32.8360 C   0  0  0  0  0  0  0  0  0  0  0  0
   -2.0320   20.9740  -33.8270 C   0  0  0  0  0  0  0  0  0  0  0  0
    0.4790   25.2614  -35.0138 H   0  0  0  0  0  0  0  0  0  0  0  0
    1.2973   25.6443  -36.5664 H   0  0  0  0  0  0  0  0  0  0  0  0
   -0.4028   25.0643  -36.5664 H   0  0  0  0  0  0  0  0  0  0  0  0
    1.0147   23.1956  -37.2167 H   0  0  0  0  0  0  0  0  0  0  0  0
    2.5471   23.4499  -34.5872 H   0  0  0  0  0  0  0  0  0  0  0  0
    2.9891   22.5277  -36.0640 H   0  0  0  0  0  0  0  0  0  0  0  0
    3.0816   24.3216  -36.0640 H   0  0  0  0  0  0  0  0  0  0  0  0
   -0.7780   22.9420  -35.4350 H   0  0  0  0  0  0  0  0  0  0  0  0
   -0.5946   21.0462  -36.4713 H   0  0  0  0  0  0  0  0  0  0  0  0
    1.2029   21.0956  -36.3993 H   0  0  0  0  0  0  0  0  0  0  0  0
   -0.0918   19.2986  -34.9747 H   0  0  0  0  0  0  0  0  0  0  0  0
    1.2737   20.2122  -34.2260 H   0  0  0  0  0  0  0  0  0  0  0  0
    0.9194   21.0201  -32.0944 H   0  0  0  0  0  0  0  0  0  0  0  0
   -0.5906   21.9114  -30.3214 H   0  0  0  0  0  0  0  0  0  0  0  0
   -2.8341   22.5861  -29.5936 H   0  0  0  0  0  0  0  0  0  0  0  0
   -5.0875   23.2655  -28.9063 H   0  0  0  0  0  0  0  0  0  0  0  0
   -7.5022   23.5505  -29.4348 H   0  0  0  0  0  0  0  0  0  0  0  0
   -9.0620   23.9240  -32.0120 H   0  0  0  0  0  0  0  0  0  0  0  0
  -10.3671   22.1427  -30.7157 H   0  0  0  0  0  0  0  0  0  0  0  0
  -10.3410   21.9117  -32.5166 H   0  0  0  0  0  0  0  0  0  0  0  0
   -8.3046   20.6186  -30.6777 H   0  0  0  0  0  0  0  0  0  0  0  0
   -9.9313   19.8682  -31.1110 H   0  0  0  0  0  0  0  0  0  0  0  0
   -9.2000   19.1111  -33.0375 H   0  0  0  0  0  0  0  0  0  0  0  0
   -8.4041   20.7398  -33.4127 H   0  0  0  0  0  0  0  0  0  0  0  0
   -7.1188   18.3730  -30.6958 H   0  0  0  0  0  0  0  0  0  0  0  0
   -7.9758   17.4599  -31.9835 H   0  0  0  0  0  0  0  0  0  0  0  0
   -6.1815   17.5425  -31.9835 H   0  0  0  0  0  0  0  0  0  0  0  0
   -5.3974   18.8965  -33.6640 H   0  0  0  0  0  0  0  0  0  0  0  0
   -6.9172   18.3309  -34.4368 H   0  0  0  0  0  0  0  0  0  0  0  0
   -6.5064   20.0796  -34.4368 H   0  0  0  0  0  0  0  0  0  0  0  0
   -6.8195   22.0382  -33.4361 H   0  0  0  0  0  0  0  0  0  0  0  0
   -4.5930   21.3960  -34.0380 H   0  0  0  0  0  0  0  0  0  0  0  0
   -2.4330   20.7188  -34.8190 H   0  0  0  0  0  0  0  0  0  0  0  0
  1  2  1  0
  2  3  1  0
  2  4  1  0
  4  5  1  0
  5  6  1  0
  6  7  1  0
  7  8  2  0
  8  9  1  0
  9 10  2  0
 10 11  1  0
 11 12  2  0
 12 13  1  0
 13 14  2  0
 14 15  1  0
 15 16  1  0
 16 17  1  0
 17 18  1  0
 18 19  1  0
 19 20  1  0
 20 21  1  0
 20 22  1  0
 15 23  2  0
 23 24  1  0
 24 25  2  0
 25 26  1  0
 26 27  2  0
 27  7  1  0
 26 10  1  0
 24 12  1  0
  1 28  1  0
  1 29  1  0
  1 30  1  0
  2 31  1  0
  3 32  1  0
  3 33  1  0
  3 34  1  0
  4 35  1  0
  5 36  1  0
  5 37  1  0
  6 38  1  0
  6 39  1  0
  8 40  1  0
  9 41  1  0
 11 42  1  0
 13 43  1  0
 14 44  1  0
 16 45  1  0
 17 46  1  0
 17 47  1  0
 18 48  1  0
 18 49  1  0
 19 50  1  0
 19 51  1  0
 21 52  1  0
 21 53  1  0
 21 54  1  0
 22 55  1  0
 22 56  1  0
 22 57  1  0
 23 58  1  0
 25 59  1  0
 27 60  1  0
M  CHG  1  25   1
M  END
>  <UniqueID>  (10) 
10

>  <SMILES>  (10) 
CC(C)NCCc1ccc2cc3ccc(NCCCN(C)C)cc3[nH+]c2c1

>  <Energy>  (10) 
64.41742904640275

>  <Genealogy>  (10) 
CC(C)NCCc1ccc2cc3ccc(NCCCN(C)C)cc3[nH+]c2c1 (protonated)
CC(C)NCCc1ccc2cc3ccc(NCCCN(C)C)cc3[nH+]c2c1 (3D coordinates assigned)
CC(C)NCCc1ccc2cc3ccc(NCCCN(C)C)cc3[nH+]c2c1 (optimized conformer: 64.41742904640275 kcal/mol)

>  <smiles>  (10) 
CC(C)NCCc1ccc2cc3ccc(NCCCN(C)C)cc3nc2c1

>  <score_type>  (10) 
oracle

>  <origin>  (10) 
adg

>  <m_score__min__energy>  (10) 
-8.4299999999999997

>  <m_primary>  (10) 
energy

$$$$
10:0
     RDKit          3D

 51 52  0  0  0  0  0  0  0  0999 V2000
   -6.4520   25.5500  -29.4860 C   0  0  0  0  0  0  0  0  0  0  0  0
   -5.3260   25.6620  -30.5110 C   0  0  0  0  0  0  0  0  0  0  0  0
   -5.0020   24.3270  -31.0650 N   0  0  0  0  0  0  0  0  0  0  0  0
   -3.7620   23.7770  -30.4710 C   0  0  0  0  0  0  0  0  0  0  0  0
   -4.0620   22.4620  -29.7550 C   0  0  0  0  0  0  0  0  0  0  0  0
   -6.1390   23.3900  -30.9140 C   0  0  0  0  0  0  0  0  0  0  0  0
   -6.9270   23.3320  -32.2250 C   0  0  0  0  0  0  0  0  0  0  0  0
   -8.6560   22.8000  -31.9610 S   0  0  0  0  0  0  0  0  0  0  0  0
   -8.3030   21.2990  -30.9690 C   0  0  0  0  0  0  0  0  0  0  0  0
   -8.4020   20.0380  -31.8410 C   0  0  0  0  0  0  0  0  0  0  0  0
   -7.7530   20.2100  -33.1560 N   0  0  0  0  0  0  0  0  0  0  0  0
   -6.6120   19.3290  -33.3030 C   0  0  0  0  0  0  0  0  0  0  0  0
   -6.8240   17.9430  -33.4390 C   0  0  0  0  0  0  0  0  0  0  0  0
   -5.7420   17.0500  -33.5420 C   0  0  0  0  0  0  0  0  0  0  0  0
   -5.9220   15.6640  -33.6740 O   0  0  0  0  0  0  0  0  0  0  0  0
   -4.9530   14.6870  -33.3090 C   0  0  0  0  0  0  0  0  0  0  0  0
   -4.4360   17.5450  -33.5120 C   0  0  0  0  0  0  0  0  0  0  0  0
   -4.2000   18.9200  -33.3870 C   0  0  0  0  0  0  0  0  0  0  0  0
   -2.8920   19.4240  -33.3560 C   0  0  0  0  0  0  0  0  0  0  0  0
   -2.6800   20.7980  -33.2370 C   0  0  0  0  0  0  0  0  0  0  0  0
   -3.7760   21.6560  -33.1570 C   0  0  0  0  0  0  0  0  0  0  0  0
   -5.0380   21.1540  -33.1870 N   0  0  0  0  0  0  0  0  0  0  0  0
   -5.2870   19.8190  -33.2910 C   0  0  0  0  0  0  0  0  0  0  0  0
   -6.0296   25.5920  -28.4712 H   0  0  0  0  0  0  0  0  0  0  0  0
   -7.1577   26.3824  -29.6242 H   0  0  0  0  0  0  0  0  0  0  0  0
   -6.9799   24.5949  -29.6242 H   0  0  0  0  0  0  0  0  0  0  0  0
   -5.6434   26.3268  -31.3279 H   0  0  0  0  0  0  0  0  0  0  0  0
   -4.4322   26.0719  -30.0180 H   0  0  0  0  0  0  0  0  0  0  0  0
   -3.0253   23.5976  -31.2679 H   0  0  0  0  0  0  0  0  0  0  0  0
   -3.3595   24.4987  -29.7450 H   0  0  0  0  0  0  0  0  0  0  0  0
   -4.0259   22.6203  -28.6671 H   0  0  0  0  0  0  0  0  0  0  0  0
   -5.0638   22.1090  -30.0411 H   0  0  0  0  0  0  0  0  0  0  0  0
   -3.3125   21.7094  -30.0411 H   0  0  0  0  0  0  0  0  0  0  0  0
   -5.7584   22.3873  -30.6698 H   0  0  0  0  0  0  0  0  0  0  0  0
   -6.7973   23.7382  -30.1045 H   0  0  0  0  0  0  0  0  0  0  0  0
   -6.9290   24.3322  -32.6828 H   0  0  0  0  0  0  0  0  0  0  0  0
   -6.4410   22.5952  -32.8815 H   0  0  0  0  0  0  0  0  0  0  0  0
   -7.2874   21.3716  -30.5526 H   0  0  0  0  0  0  0  0  0  0  0  0
   -9.0429   21.2281  -30.1582 H   0  0  0  0  0  0  0  0  0  0  0  0
   -7.9153   19.2046  -31.3133 H   0  0  0  0  0  0  0  0  0  0  0  0
   -9.4687   19.8356  -32.0176 H   0  0  0  0  0  0  0  0  0  0  0  0
   -8.4490   19.9740  -33.9010 H   0  0  0  0  0  0  0  0  0  0  0  0
   -7.4890   21.2120  -33.3090 H   0  0  0  0  0  0  0  0  0  0  0  0
   -7.8521   17.5528  -33.4651 H   0  0  0  0  0  0  0  0  0  0  0  0
   -4.8907   14.6242  -32.2126 H   0  0  0  0  0  0  0  0  0  0  0  0
   -5.2475   13.7085  -33.7162 H   0  0  0  0  0  0  0  0  0  0  0  0
   -3.9721   14.9734  -33.7162 H   0  0  0  0  0  0  0  0  0  0  0  0
   -3.5868   16.8499  -33.5871 H   0  0  0  0  0  0  0  0  0  0  0  0
   -2.0350   18.7379  -33.4253 H   0  0  0  0  0  0  0  0  0  0  0  0
   -1.6569   21.2008  -33.2066 H   0  0  0  0  0  0  0  0  0  0  0  0
   -3.6186   22.7412  -33.0695 H   0  0  0  0  0  0  0  0  0  0  0  0
  1  2  1  0
  2  3  1  0
  3  4  1  0
  4  5  1  0
  3  6  1  0
  6  7  1  0
  7  8  1  0
  8  9  1  0
  9 10  1  0
 10 11  1  0
 11 12  1  0
 12 13  2  0
 13 14  1  0
 14 15  1  0
 15 16  1  0
 14 17  2  0
 17 18  1  0
 18 19  2  0
 19 20  1  0
 20 21  2  0
 21 22  1  0
 22 23  2  0
 23 12  1  0
 23 18  1  0
  1 24  1  0
  1 25  1  0
  1 26  1  0
  2 27  1  0
  2 28  1  0
  4 29  1  0
  4 30  1  0
  5 31  1  0
  5 32  1  0
  5 33  1  0
  6 34  1  0
  6 35  1  0
  7 36  1  0
  7 37  1  0
  9 38  1  0
  9 39  1  0
 10 40  1  0
 10 41  1  0
 11 42  1  0
 11 43  1  0
 13 44  1  0
 16 45  1  0
 16 46  1  0
 16 47  1  0
 17 48  1  0
 19 49  1  0
 20 50  1  0
 21 51  1  0
M  CHG  1  11   1
M  END
>  <UniqueID>  (11) 
11

>  <SMILES>  (11) 
CCN(CC)CCSCC[NH2+]c1cc(OC)cc2cccnc12

>  <Energy>  (11) 
48.2145816674438

>  <Genealogy>  (11) 
CCN(CC)CCSCC[NH2+]c1cc(OC)cc2cccnc12 (protonated)
CCN(CC)CCSCC[NH2+]c1cc(OC)cc2cccnc12 (3D coordinates assigned)
CCN(CC)CCSCC[NH2+]c1cc(OC)cc2cccnc12 (optimized conformer: 48.2145816674438 kcal/mol)

>  <smiles>  (11) 
CCN(CC)CCSCCNc1cc(OC)cc2cccnc12

>  <score_type>  (11) 
oracle

>  <origin>  (11) 
adg

>  <m_score__min__energy>  (11) 
-6.9199999999999999

>  <m_primary>  (11) 
energy

$$$$
11:0
     RDKit          3D

 53 54  0  0  0  0  0  0  0  0999 V2000
   -3.1020   19.2940  -26.8760 C   0  0  0  0  0  0  0  0  0  0  0  0
   -2.2610   20.4110  -27.4820 C   0  0  0  0  0  0  0  0  0  0  0  0
   -3.1260   21.3130  -28.2860 N   0  0  0  0  0  0  0  0  0  0  0  0
   -2.7430   22.7340  -28.1320 C   0  0  0  0  0  0  0  0  0  0  0  0
   -3.8550   23.5410  -27.4630 C   0  0  0  0  0  0  0  0  0  0  0  0
   -3.1330   20.9280  -29.7170 C   0  0  0  0  0  0  0  0  0  0  0  0
   -2.9720   22.1620  -30.6130 C   0  0  0  0  0  0  0  0  0  0  0  0
   -4.2420   22.7380  -30.9120 O   0  0  0  0  0  0  0  0  0  0  0  0
   -4.5290   24.1000  -30.7540 C   0  0  0  0  0  0  0  0  0  0  0  0
   -3.6130   24.9140  -30.4560 O   0  0  0  0  0  0  0  0  0  0  0  0
   -5.9360   24.6070  -30.9480 C   0  0  0  0  0  0  0  0  0  0  0  0
   -6.8450   24.1830  -29.7780 C   0  0  0  0  0  0  0  0  0  0  0  0
   -7.2240   22.6830  -29.8090 C   0  0  0  0  0  0  0  0  0  0  0  0
   -7.0170   22.0660  -31.1390 N   0  0  0  0  0  0  0  0  0  0  0  0
   -7.6950   20.7560  -31.2110 C   0  0  0  0  0  0  0  0  0  0  0  0
   -6.9300   19.8070  -32.1010 C   0  0  0  0  0  0  0  0  0  0  0  0
   -7.5500   18.6570  -32.6150 C   0  0  0  0  0  0  0  0  0  0  0  0
   -6.8320   17.7770  -33.4330 C   0  0  0  0  0  0  0  0  0  0  0  0
   -5.4930   18.0360  -33.7380 C   0  0  0  0  0  0  0  0  0  0  0  0
   -4.8670   19.1770  -33.2240 C   0  0  0  0  0  0  0  0  0  0  0  0
   -3.0380   19.5350  -33.6400 Br  0  0  0  0  0  0  0  0  0  0  0  0
   -5.5820   20.0580  -32.4060 C   0  0  0  0  0  0  0  0  0  0  0  0
   -7.4700   22.9690  -32.2110 C   0  0  0  0  0  0  0  0  0  0  0  0
   -6.5180   24.1720  -32.3160 C   0  0  0  0  0  0  0  0  0  0  0  0
   -3.0563   19.3547  -25.7786 H   0  0  0  0  0  0  0  0  0  0  0  0
   -4.1459   19.4007  -27.2060 H   0  0  0  0  0  0  0  0  0  0  0  0
   -2.7109   18.3203  -27.2060 H   0  0  0  0  0  0  0  0  0  0  0  0
   -1.7829   20.9866  -26.6757 H   0  0  0  0  0  0  0  0  0  0  0  0
   -1.4896   19.9728  -28.1324 H   0  0  0  0  0  0  0  0  0  0  0  0
   -1.8349   22.7951  -27.5142 H   0  0  0  0  0  0  0  0  0  0  0  0
   -2.5632   23.1548  -29.1323 H   0  0  0  0  0  0  0  0  0  0  0  0
   -3.7544   23.4680  -26.3701 H   0  0  0  0  0  0  0  0  0  0  0  0
   -3.7780   24.5949  -27.7687 H   0  0  0  0  0  0  0  0  0  0  0  0
   -4.8331   23.1411  -27.7687 H   0  0  0  0  0  0  0  0  0  0  0  0
   -2.3021   20.2329  -29.9076 H   0  0  0  0  0  0  0  0  0  0  0  0
   -4.0949   20.4470  -29.9483 H   0  0  0  0  0  0  0  0  0  0  0  0
   -2.3512   22.9068  -30.0935 H   0  0  0  0  0  0  0  0  0  0  0  0
   -2.4929   21.8550  -31.5544 H   0  0  0  0  0  0  0  0  0  0  0  0
   -5.8958   25.7063  -30.9538 H   0  0  0  0  0  0  0  0  0  0  0  0
   -6.3191   24.3907  -28.8344 H   0  0  0  0  0  0  0  0  0  0  0  0
   -7.7793   24.7567  -29.8672 H   0  0  0  0  0  0  0  0  0  0  0  0
   -6.6046   22.1488  -29.0735 H   0  0  0  0  0  0  0  0  0  0  0  0
   -8.2955   22.6073  -29.5721 H   0  0  0  0  0  0  0  0  0  0  0  0
   -7.7618   20.3280  -30.1999 H   0  0  0  0  0  0  0  0  0  0  0  0
   -8.7011   20.9014  -31.6314 H   0  0  0  0  0  0  0  0  0  0  0  0
   -8.6026   18.4471  -32.3743 H   0  0  0  0  0  0  0  0  0  0  0  0
   -7.3229   16.8793  -33.8368 H   0  0  0  0  0  0  0  0  0  0  0  0
   -4.9314   17.3432  -34.3819 H   0  0  0  0  0  0  0  0  0  0  0  0
   -5.0862   20.9518  -31.9995 H   0  0  0  0  0  0  0  0  0  0  0  0
   -7.4782   22.4253  -33.1672 H   0  0  0  0  0  0  0  0  0  0  0  0
   -8.4839   23.3274  -31.9796 H   0  0  0  0  0  0  0  0  0  0  0  0
   -5.6846   23.9020  -32.9812 H   0  0  0  0  0  0  0  0  0  0  0  0
   -7.1007   25.0183  -32.7088 H   0  0  0  0  0  0  0  0  0  0  0  0
  1  2  1  0
  2  3  1  0
  3  4  1  0
  4  5  1  0
  3  6  1  0
  6  7  1  0
  7  8  1  0
  8  9  1  0
  9 10  2  0
  9 11  1  0
 11 12  1  0
 12 13  1  0
 13 14  1  0
 14 15  1  0
 15 16  1  0
 16 17  2  0
 17 18  1  0
 18 19  2  0
 19 20  1  0
 20 21  1  0
 20 22  2  0
 14 23  1  0
 23 24  1  0
 24 11  1  0
 22 16  1  0
  1 25  1  0
  1 26  1  0
  1 27  1  0
  2 28  1  0
  2 29  1  0
  4 30  1  0
  4 31  1  0
  5 32  1  0
  5 33  1  0
  5 34  1  0
  6 35  1  0
  6 36  1  0
  7 37  1  0
  7 38  1  0
 11 39  1  0
 12 40  1  0
 12 41  1  0
 13 42  1  0
 13 43  1  0
 15 44  1  0
 15 45  1  0
 17 46  1  0
 18 47  1  0
 19 48  1  0
 22 49  1  0
 23 50  1  0
 23 51  1  0
 24 52  1  0
 24 53  1  0
M  END
>  <UniqueID>  (12) 
12

>  <SMILES>  (12) 
CCN(CC)CCOC(=O)C1CCN(Cc2cccc(Br)c2)CC1

>  <Energy>  (12) 
49.67572950073287

>  <Genealogy>  (12) 
CCN(CC)CCOC(=O)C1CCN(Cc2cccc(Br)c2)CC1 (3D coordinates assigned)
CCN(CC)CCOC(=O)C1CCN(Cc2cccc(Br)c2)CC1 (nonaromatic ring conformer: 49.67572950073287 kcal/mol)

>  <smiles>  (12) 
CCN(CC)CCOC(=O)C1CCN(Cc2cccc(Br)c2)CC1

>  <score_type>  (12) 
oracle

>  <origin>  (12) 
adg

>  <m_score__min__energy>  (12) 
-8.7300000000000004

>  <m_primary>  (12) 
energy

$$$$
12:0
     RDKit          3D

 29 30  0  0  0  0  0  0  0  0999 V2000
   -6.2070   25.6950  -29.6540 C   0  0  0  0  0  0  0  0  0  0  0  0
   -5.4810   25.2040  -30.9000 C   0  0  0  0  0  0  0  0  0  0  0  0
   -4.0290   25.2910  -30.7000 N   0  0  0  0  0  0  0  0  0  0  0  0
   -3.4430   23.9750  -30.3930 C   0  0  0  0  0  0  0  0  0  0  0  0
   -4.5500   22.9520  -30.1300 C   0  0  0  0  0  0  0  0  0  0  0  0
   -4.6260   21.9710  -31.2140 N   0  0  0  0  0  0  0  0  0  0  0  0
   -3.5870   21.3430  -31.8170 C   0  0  0  0  0  0  0  0  0  0  0  0
   -3.9790   20.4260  -32.7400 N   0  0  0  0  0  0  0  0  0  0  0  0
   -5.3240   20.4980  -32.6910 C   0  0  0  0  0  0  0  0  0  0  0  0
   -6.2460   19.7530  -33.4240 C   0  0  0  0  0  0  0  0  0  0  0  0
   -5.7290   18.5590  -34.6020 Cl  0  0  0  0  0  0  0  0  0  0  0  0
   -7.6150   19.9840  -33.1840 C   0  0  0  0  0  0  0  0  0  0  0  0
   -8.0230   20.9430  -32.2260 C   0  0  0  0  0  0  0  0  0  0  0  0
   -9.7300   21.2140  -31.9360 Cl  0  0  0  0  0  0  0  0  0  0  0  0
   -7.0640   21.6770  -31.5020 C   0  0  0  0  0  0  0  0  0  0  0  0
   -5.7180   21.4240  -31.7700 C   0  0  0  0  0  0  0  0  0  0  0  0
   -5.6791   25.3380  -28.7574 H   0  0  0  0  0  0  0  0  0  0  0  0
   -6.2299   26.7948  -29.6524 H   0  0  0  0  0  0  0  0  0  0  0  0
   -7.2362   25.3068  -29.6524 H   0  0  0  0  0  0  0  0  0  0  0  0
   -5.7600   24.1582  -31.0963 H   0  0  0  0  0  0  0  0  0  0  0  0
   -5.7666   25.8324  -31.7565 H   0  0  0  0  0  0  0  0  0  0  0  0
   -3.6050   25.6420  -31.5910 H   0  0  0  0  0  0  0  0  0  0  0  0
   -2.8342   23.6404  -31.2459 H   0  0  0  0  0  0  0  0  0  0  0  0
   -2.8145   24.0627  -29.4945 H   0  0  0  0  0  0  0  0  0  0  0  0
   -4.3394   22.4289  -29.1855 H   0  0  0  0  0  0  0  0  0  0  0  0
   -5.5113   23.4834  -30.0701 H   0  0  0  0  0  0  0  0  0  0  0  0
   -2.5332   21.5543  -31.5828 H   0  0  0  0  0  0  0  0  0  0  0  0
   -8.3716   19.4155  -33.7446 H   0  0  0  0  0  0  0  0  0  0  0  0
   -7.3650   22.4232  -30.7519 H   0  0  0  0  0  0  0  0  0  0  0  0
  1  2  1  0
  2  3  1  0
  3  4  1  0
  4  5  1  0
  5  6  1  0
  6  7  1  0
  7  8  2  0
  8  9  1  0
  9 10  2  0
 10 11  1  0
 10 12  1  0
 12 13  2  0
 13 14  1  0
 13 15  1  0
 15 16  2  0
 16  6  1  0
 16  9  1  0
  1 17  1  0
  1 18  1  0
  1 19  1  0
  2 20  1  0
  2 21  1  0
  3 22  1  0
  4 23  1  0
  4 24  1  0
  5 25  1  0
  5 26  1  0
  7 27  1  0
 12 28  1  0
 15 29  1  0
M  END
>  <UniqueID>  (13) 
13

>  <SMILES>  (13) 
CCNCCn1cnc2c(Cl)cc(Cl)cc21

>  <Energy>  (13) 
59.83915690892043

>  <Genealogy>  (13) 
CCNCCn1cnc2c(Cl)cc(Cl)cc21 (3D coordinates assigned)
CCNCCn1cnc2c(Cl)cc(Cl)cc21 (optimized conformer: 59.83915690892043 kcal/mol)

>  <smiles>  (13) 
CCNCCn1cnc2c(Cl)cc(Cl)cc21

>  <score_type>  (13) 
oracle

>  <origin>  (13) 
adg

>  <m_score__min__energy>  (13) 
-7.3399999999999999

>  <m_primary>  (13) 
energy

$$$$
13:0
     RDKit          3D

 38 39  0  0  0  0  0  0  0  0999 V2000
   -1.0710   21.1750  -33.8700 C   0  0  0  0  0  0  0  0  0  0  0  0
   -2.2000   20.8150  -33.0180 N   0  0  0  0  0  0  0  0  0  0  0  0
   -2.7730   21.5930  -32.0850 C   0  0  0  0  0  0  0  0  0  0  0  0
   -3.8300   20.8990  -31.5390 C   0  0  0  0  0  0  0  0  0  0  0  0
   -3.9290   19.6910  -32.1280 N   0  0  0  0  0  0  0  0  0  0  0  0
   -2.9230   19.6720  -33.0280 C   0  0  0  0  0  0  0  0  0  0  0  0
   -2.6570   18.4900  -33.9250 C   0  0  0  0  0  0  0  0  0  0  0  0
   -3.5740   17.3590  -33.6340 N   0  0  2  0  0  0  0  0  0  0  0  0
   -2.8090   16.2050  -33.1200 C   0  0  0  0  0  0  0  0  0  0  0  0
   -4.3360   16.9680  -34.8530 C   0  0  0  0  0  0  0  0  0  0  0  0
   -5.8400   16.7690  -34.5890 C   0  0  0  0  0  0  0  0  0  0  0  0
   -6.1970   17.1160  -33.2490 O   0  0  0  0  0  0  0  0  0  0  0  0
   -6.9590   18.2250  -32.8400 C   0  0  0  0  0  0  0  0  0  0  0  0
   -8.0290   18.1350  -31.9240 C   0  0  0  0  0  0  0  0  0  0  0  0
   -8.7330   19.2830  -31.5480 C   0  0  0  0  0  0  0  0  0  0  0  0
   -8.3860   20.5270  -32.0810 C   0  0  0  0  0  0  0  0  0  0  0  0
   -9.2610   21.9670  -31.5940 Cl  0  0  0  0  0  0  0  0  0  0  0  0
   -7.3370   20.6230  -32.9990 C   0  0  0  0  0  0  0  0  0  0  0  0
   -6.6320   19.4780  -33.3810 C   0  0  0  0  0  0  0  0  0  0  0  0
   -5.6120   19.5870  -34.2680 F   0  0  0  0  0  0  0  0  0  0  0  0
   -0.2106   21.4494  -33.2420 H   0  0  0  0  0  0  0  0  0  0  0  0
   -0.8029   20.3178  -34.5051 H   0  0  0  0  0  0  0  0  0  0  0  0
   -1.3486   22.0292  -34.5051 H   0  0  0  0  0  0  0  0  0  0  0  0
   -2.4536   22.6079  -31.8056 H   0  0  0  0  0  0  0  0  0  0  0  0
   -4.4918   21.2734  -30.7441 H   0  0  0  0  0  0  0  0  0  0  0  0
   -2.7943   18.7994  -34.9716 H   0  0  0  0  0  0  0  0  0  0  0  0
   -1.6266   18.1495  -33.7451 H   0  0  0  0  0  0  0  0  0  0  0  0
   -4.2430   17.6370  -32.8780 H   0  0  0  0  0  0  0  0  0  0  0  0
   -2.8185   16.2193  -32.0201 H   0  0  0  0  0  0  0  0  0  0  0  0
   -3.2680   15.2718  -33.4785 H   0  0  0  0  0  0  0  0  0  0  0  0
   -1.7708   16.2643  -33.4785 H   0  0  0  0  0  0  0  0  0  0  0  0
   -4.2151   17.7575  -35.6094 H   0  0  0  0  0  0  0  0  0  0  0  0
   -3.9333   16.0034  -35.1954 H   0  0  0  0  0  0  0  0  0  0  0  0
   -6.4099   17.4029  -35.2843 H   0  0  0  0  0  0  0  0  0  0  0  0
   -6.0744   15.7048  -34.7393 H   0  0  0  0  0  0  0  0  0  0  0  0
   -8.3102   17.1579  -31.5043 H   0  0  0  0  0  0  0  0  0  0  0  0
   -9.5629   19.2065  -30.8301 H   0  0  0  0  0  0  0  0  0  0  0  0
   -7.0654   21.6015  -33.4219 H   0  0  0  0  0  0  0  0  0  0  0  0
  1  2  1  0
  2  3  1  0
  3  4  2  0
  4  5  1  0
  5  6  2  0
  6  7  1  0
  7  8  1  0
  8  9  1  0
  8 10  1  0
 10 11  1  0
 11 12  1  0
 12 13  1  0
 13 14  2  0
 14 15  1  0
 15 16  2  0
 16 17  1  0
 16 18  1  0
 18 19  2  0
 19 20  1  0
  6  2  1  0
 19 13  1  0
  1 21  1  0
  1 22  1  0
  1 23  1  0
  3 24  1  0
  4 25  1  0
  7 26  1  0
  7 27  1  0
  8 28  1  1
  9 29  1  0
  9 30  1  0
  9 31  1  0
 10 32  1  0
 10 33  1  0
 11 34  1  0
 11 35  1  0
 14 36  1  0
 15 37  1  0
 18 38  1  0
M  CHG  1   8   1
M  END
>  <UniqueID>  (14) 
14

>  <SMILES>  (14) 
Cn1ccnc1C[N@H+](C)CCOc1ccc(Cl)cc1F

>  <Energy>  (14) 
69.78534513496874

>  <Genealogy>  (14) 
Cn1ccnc1C[NH+](C)CCOc1ccc(Cl)cc1F (protonated)
Cn1ccnc1C[N@H+](C)CCOc1ccc(Cl)cc1F (chirality)
Cn1ccnc1C[N@H+](C)CCOc1ccc(Cl)cc1F (3D coordinates assigned)
Cn1ccnc1C[N@H+](C)CCOc1ccc(Cl)cc1F (optimized conformer: 69.78534513496874 kcal/mol)

>  <smiles>  (14) 
CN(CCOc1ccc(Cl)cc1F)Cc1nccn1C

>  <score_type>  (14) 
oracle

>  <origin>  (14) 
adg

>  <m_score__min__energy>  (14) 
-5.2599999999999998

>  <m_primary>  (14) 
energy

$$$$
14:0
     RDKit          3D

 57 59  0  0  0  0  0  0  0  0999 V2000
   -2.9180   18.8190  -26.1350 C   0  0  0  0  0  0  0  0  0  0  0  0
   -2.7680   19.8430  -27.2580 C   0  0  0  0  0  0  0  0  0  0  0  0
   -1.5070   20.7110  -27.1090 C   0  0  0  0  0  0  0  0  0  0  0  0
   -1.7410   22.1950  -27.4360 C   0  0  0  0  0  0  0  0  0  0  0  0
   -1.3870   22.4990  -28.7860 O   0  0  0  0  0  0  0  0  0  0  0  0
   -1.9850   21.9620  -29.9400 C   0  0  0  0  0  0  0  0  0  0  0  0
   -1.4960   20.7840  -30.5410 C   0  0  0  0  0  0  0  0  0  0  0  0
   -2.1050   20.2590  -31.6800 C   0  0  0  0  0  0  0  0  0  0  0  0
   -3.2110   20.8970  -32.2460 C   0  0  0  0  0  0  0  0  0  0  0  0
   -3.8840   20.3050  -33.4600 C   0  0  0  0  0  0  0  0  0  0  0  0
   -4.8790   19.2800  -33.0740 N   0  0  0  0  0  0  0  0  0  0  0  0
   -6.0230   19.2640  -34.0220 C   0  0  0  0  0  0  0  0  0  0  0  0
   -7.1940   20.1210  -33.5210 C   0  0  0  0  0  0  0  0  0  0  0  0
   -7.7120   19.6190  -32.2290 N   0  0  0  0  0  0  0  0  0  0  0  0
   -8.5290   20.6130  -31.4920 C   0  0  0  0  0  0  0  0  0  0  0  0
   -7.8210   21.9310  -31.2420 C   0  0  0  0  0  0  0  0  0  0  0  0
   -7.5470   22.8110  -32.3000 C   0  0  0  0  0  0  0  0  0  0  0  0
   -6.8700   24.0070  -32.0590 C   0  0  0  0  0  0  0  0  0  0  0  0
   -6.4900   24.3280  -30.7560 C   0  0  0  0  0  0  0  0  0  0  0  0
   -6.7930   23.4880  -29.7310 N   0  0  0  0  0  0  0  0  0  0  0  0
   -7.4510   22.3150  -29.9410 C   0  0  0  0  0  0  0  0  0  0  0  0
   -6.7130   18.9050  -31.4030 C   0  0  0  0  0  0  0  0  0  0  0  0
   -5.2920   19.4310  -31.6540 C   0  0  0  0  0  0  0  0  0  0  0  0
   -3.7150   22.0620  -31.6500 C   0  0  0  0  0  0  0  0  0  0  0  0
   -3.1150   22.6080  -30.5010 C   0  0  0  0  0  0  0  0  0  0  0  0
   -3.6650   23.8130  -29.9250 N   0  0  0  0  0  0  0  0  0  0  0  0
   -3.5550   24.9160  -30.5000 O   0  0  0  0  0  0  0  0  0  0  0  0
   -4.3450   23.7640  -28.7300 O   0  0  0  0  0  0  0  0  0  0  0  0
   -2.8435   19.3277  -25.1626 H   0  0  0  0  0  0  0  0  0  0  0  0
   -3.8979   18.3260  -26.2168 H   0  0  0  0  0  0  0  0  0  0  0  0
   -2.1206   18.0657  -26.2168 H   0  0  0  0  0  0  0  0  0  0  0  0
   -2.7145   19.3073  -28.2172 H   0  0  0  0  0  0  0  0  0  0  0  0
   -3.6388   20.5136  -27.2130 H   0  0  0  0  0  0  0  0  0  0  0  0
   -1.1530   20.6351  -26.0703 H   0  0  0  0  0  0  0  0  0  0  0  0
   -0.7676   20.3336  -27.8308 H   0  0  0  0  0  0  0  0  0  0  0  0
   -2.8048   22.4303  -27.2844 H   0  0  0  0  0  0  0  0  0  0  0  0
   -1.1061   22.7979  -26.7701 H   0  0  0  0  0  0  0  0  0  0  0  0
   -0.6241   20.2734  -30.1063 H   0  0  0  0  0  0  0  0  0  0  0  0
   -1.7124   19.3377  -32.1351 H   0  0  0  0  0  0  0  0  0  0  0  0
   -4.3922   21.1071  -34.0154 H   0  0  0  0  0  0  0  0  0  0  0  0
   -3.1159   19.8266  -34.0854 H   0  0  0  0  0  0  0  0  0  0  0  0
   -5.6857   19.6556  -34.9930 H   0  0  0  0  0  0  0  0  0  0  0  0
   -6.3752   18.2259  -34.1136 H   0  0  0  0  0  0  0  0  0  0  0  0
   -6.8497   21.1576  -33.3908 H   0  0  0  0  0  0  0  0  0  0  0  0
   -8.0041   20.0709  -34.2635 H   0  0  0  0  0  0  0  0  0  0  0  0
   -9.4387   20.8146  -32.0767 H   0  0  0  0  0  0  0  0  0  0  0  0
   -8.7468   20.1771  -30.5058 H   0  0  0  0  0  0  0  0  0  0  0  0
   -7.8666   22.5575  -33.3216 H   0  0  0  0  0  0  0  0  0  0  0  0
   -6.6381   24.6905  -32.8891 H   0  0  0  0  0  0  0  0  0  0  0  0
   -5.9443   25.2622  -30.5574 H   0  0  0  0  0  0  0  0  0  0  0  0
   -6.5160   23.7500  -28.7580 H   0  0  0  0  0  0  0  0  0  0  0  0
   -7.6945   21.6641  -29.0884 H   0  0  0  0  0  0  0  0  0  0  0  0
   -6.9628   19.0444  -30.3408 H   0  0  0  0  0  0  0  0  0  0  0  0
   -6.7388   17.8398  -31.6762 H   0  0  0  0  0  0  0  0  0  0  0  0
   -5.2568   20.4974  -31.3865 H   0  0  0  0  0  0  0  0  0  0  0  0
   -4.5996   18.8398  -31.0367 H   0  0  0  0  0  0  0  0  0  0  0  0
   -4.5941   22.5570  -32.0883 H   0  0  0  0  0  0  0  0  0  0  0  0
  1  2  1  0
  2  3  1  0
  3  4  1  0
  4  5  1  0
  5  6  1  0
  6  7  2  0
  7  8  1  0
  8  9  2  0
  9 10  1  0
 10 11  1  0
 11 12  1  0
 12 13  1  0
 13 14  1  0
 14 15  1  0
 15 16  1  0
 16 17  2  0
 17 18  1  0
 18 19  2  0
 19 20  1  0
 20 21  2  0
 14 22  1  0
 22 23  1  0
  9 24  1  0
 24 25  2  0
 25 26  1  0
 26 27  2  0
 26 28  1  0
 25  6  1  0
 23 11  1  0
 21 16  1  0
  1 29  1  0
  1 30  1  0
  1 31  1  0
  2 32  1  0
  2 33  1  0
  3 34  1  0
  3 35  1  0
  4 36  1  0
  4 37  1  0
  7 38  1  0
  8 39  1  0
 10 40  1  0
 10 41  1  0
 12 42  1  0
 12 43  1  0
 13 44  1  0
 13 45  1  0
 15 46  1  0
 15 47  1  0
 17 48  1  0
 18 49  1  0
 19 50  1  0
 20 51  1  0
 21 52  1  0
 22 53  1  0
 22 54  1  0
 23 55  1  0
 23 56  1  0
 24 57  1  0
M  CHG  3  20   1  26   1  28  -1
M  END
>  <UniqueID>  (15) 
15

>  <SMILES>  (15) 
CCCCOc1ccc(CN2CCN(Cc3ccc[nH+]c3)CC2)cc1[N+](=O)[O-]

>  <Energy>  (15) 
70.52274847530269

>  <Genealogy>  (15) 
CCCCOc1ccc(CN2CCN(Cc3ccc[nH+]c3)CC2)cc1[N+](=O)[O-] (protonated)
CCCCOc1ccc(CN2CCN(Cc3ccc[nH+]c3)CC2)cc1[N+](=O)[O-] (3D coordinates assigned)
CCCCOc1ccc(CN2CCN(Cc3ccc[nH+]c3)CC2)cc1[N+](=O)[O-] (nonaromatic ring conformer: 70.52274847530269 kcal/mol)

>  <smiles>  (15) 
CCCCOc1ccc(CN2CCN(Cc3cccnc3)CC2)cc1[N+](=O)[O-]

>  <score_type>  (15) 
oracle

>  <origin>  (15) 
adg

>  <m_score__min__energy>  (15) 
-8.3499999999999996

>  <m_primary>  (15) 
energy

$$$$
15:0
     RDKit          3D

 37 39  0  0  0  0  0  0  0  0999 V2000
   -6.5680   24.9820  -29.6300 C   0  0  0  0  0  0  0  0  0  0  0  0
   -5.6600   24.1800  -30.4520 N   0  0  0  0  0  0  0  0  0  0  0  0
   -5.9440   23.5150  -31.5900 C   0  0  0  0  0  0  0  0  0  0  0  0
   -7.5510   23.4740  -32.3930 S   0  0  0  0  0  0  0  0  0  0  0  0
   -8.2860   22.2560  -31.2390 C   0  0  0  0  0  0  0  0  0  0  0  0
   -8.9750   21.1080  -31.9830 C   0  0  0  0  0  0  0  0  0  0  0  0
   -8.0010   20.0390  -32.4110 C   0  0  0  0  0  0  0  0  0  0  0  0
   -6.8830   20.3750  -33.1950 C   0  0  0  0  0  0  0  0  0  0  0  0
   -5.9650   19.3910  -33.5740 C   0  0  0  0  0  0  0  0  0  0  0  0
   -6.1520   18.0650  -33.1720 C   0  0  0  0  0  0  0  0  0  0  0  0
   -7.2610   17.7220  -32.3940 C   0  0  0  0  0  0  0  0  0  0  0  0
   -8.1850   18.7000  -32.0130 C   0  0  0  0  0  0  0  0  0  0  0  0
   -9.2550   18.3430  -31.2590 F   0  0  0  0  0  0  0  0  0  0  0  0
   -4.8650   22.8710  -32.0670 N   0  0  0  0  0  0  0  0  0  0  0  0
   -3.8700   23.1070  -31.2270 N   0  0  0  0  0  0  0  0  0  0  0  0
   -4.3520   23.8970  -30.2460 C   0  0  0  0  0  0  0  0  0  0  0  0
   -3.5260   24.3630  -29.1060 C   0  0  0  0  0  0  0  0  0  0  0  0
   -3.9930   24.2250  -27.7870 C   0  0  0  0  0  0  0  0  0  0  0  0
   -3.2010   24.6730  -26.7260 C   0  0  0  0  0  0  0  0  0  0  0  0
   -1.9590   25.2520  -26.9820 C   0  0  0  0  0  0  0  0  0  0  0  0
   -1.5240   25.3750  -28.3020 C   0  0  0  0  0  0  0  0  0  0  0  0
   -2.3090   24.9340  -29.3210 N   0  0  0  0  0  0  0  0  0  0  0  0
   -6.3590   24.7974  -28.5659 H   0  0  0  0  0  0  0  0  0  0  0  0
   -6.4191   26.0488  -29.8532 H   0  0  0  0  0  0  0  0  0  0  0  0
   -7.6082   24.7024  -29.8532 H   0  0  0  0  0  0  0  0  0  0  0  0
   -7.4888   21.8410  -30.6047 H   0  0  0  0  0  0  0  0  0  0  0  0
   -9.0447   22.7742  -30.6341 H   0  0  0  0  0  0  0  0  0  0  0  0
   -9.7268   20.6566  -31.3190 H   0  0  0  0  0  0  0  0  0  0  0  0
   -9.4388   21.5240  -32.8895 H   0  0  0  0  0  0  0  0  0  0  0  0
   -6.7300   21.4173  -33.5117 H   0  0  0  0  0  0  0  0  0  0  0  0
   -5.0941   19.6605  -34.1895 H   0  0  0  0  0  0  0  0  0  0  0  0
   -5.4269   17.2925  -33.4678 H   0  0  0  0  0  0  0  0  0  0  0  0
   -7.4078   16.6781  -32.0799 H   0  0  0  0  0  0  0  0  0  0  0  0
   -4.9743   23.7679  -27.5915 H   0  0  0  0  0  0  0  0  0  0  0  0
   -3.5572   24.5688  -25.6905 H   0  0  0  0  0  0  0  0  0  0  0  0
   -1.3294   25.6077  -26.1531 H   0  0  0  0  0  0  0  0  0  0  0  0
   -0.5457   25.8289  -28.5184 H   0  0  0  0  0  0  0  0  0  0  0  0
  1  2  1  0
  2  3  1  0
  3  4  1  0
  4  5  1  0
  5  6  1  0
  6  7  1  0
  7  8  2  0
  8  9  1  0
  9 10  2  0
 10 11  1  0
 11 12  2  0
 12 13  1  0
  3 14  2  0
 14 15  1  0
 15 16  2  0
 16 17  1  0
 17 18  2  0
 18 19  1  0
 19 20  2  0
 20 21  1  0
 21 22  2  0
 16  2  1  0
 22 17  1  0
 12  7  1  0
  1 23  1  0
  1 24  1  0
  1 25  1  0
  5 26  1  0
  5 27  1  0
  6 28  1  0
  6 29  1  0
  8 30  1  0
  9 31  1  0
 10 32  1  0
 11 33  1  0
 18 34  1  0
 19 35  1  0
 20 36  1  0
 21 37  1  0
M  END
>  <UniqueID>  (16) 
16

>  <SMILES>  (16) 
Cn1c(SCCc2ccccc2F)nnc1-c1ccccn1

>  <Energy>  (16) 
70.54588184728041

>  <Genealogy>  (16) 
Cn1c(SCCc2ccccc2F)nnc1-c1ccccn1 (3D coordinates assigned)
Cn1c(SCCc2ccccc2F)nnc1-c1ccccn1 (optimized conformer: 70.54588184728041 kcal/mol)

>  <smiles>  (16) 
Cn1c(SCCc2ccccc2F)nnc1-c1ccccn1

>  <score_type>  (16) 
oracle

>  <origin>  (16) 
adg

>  <m_score__min__energy>  (16) 
-8.4800000000000004

>  <m_primary>  (16) 
energy

$$$$
16:0
     RDKit          3D

 59 62  0  0  0  0  0  0  0  0999 V2000
   -4.1740   13.8230  -32.0350 C   0  0  0  0  0  0  0  0  0  0  0  0
   -4.6140   15.2630  -32.3290 C   0  0  0  0  0  0  0  0  0  0  0  0
   -3.9950   15.8670  -33.5360 N   0  0  0  0  0  0  0  0  0  0  0  0
   -2.5720   16.1820  -33.3290 C   0  0  0  0  0  0  0  0  0  0  0  0
   -4.7180   17.0370  -34.0840 C   0  0  0  0  0  0  0  0  0  0  0  0
   -6.1450   17.1590  -33.5290 C   0  0  0  0  0  0  0  0  0  0  0  0
   -6.6050   18.6210  -33.4480 C   0  0  0  0  0  0  0  0  0  0  0  0
   -6.2570   19.1910  -32.1860 O   0  0  0  0  0  0  0  0  0  0  0  0
   -6.1420   20.5680  -31.9220 C   0  0  0  0  0  0  0  0  0  0  0  0
   -4.9820   21.1290  -31.3570 C   0  0  0  0  0  0  0  0  0  0  0  0
   -4.8570   22.5180  -31.1870 C   0  0  0  0  0  0  0  0  0  0  0  0
   -5.9780   23.3350  -31.4460 C   0  0  0  0  0  0  0  0  0  0  0  0
   -7.1410   22.7790  -31.9970 C   0  0  0  0  0  0  0  0  0  0  0  0
   -7.2240   21.3970  -32.2470 C   0  0  0  0  0  0  0  0  0  0  0  0
   -8.3680   20.8100  -32.8100 O   0  0  0  0  0  0  0  0  0  0  0  0
   -9.2770   19.9700  -32.1040 C   0  0  0  0  0  0  0  0  0  0  0  0
   -5.9130   24.8090  -31.1380 C   0  0  0  0  0  0  0  0  0  0  0  0
   -5.1100   25.0520  -29.8530 C   0  0  0  0  0  0  0  0  0  0  0  0
   -3.7680   24.3760  -29.9300 C   0  0  0  0  0  0  0  0  0  0  0  0
   -2.7080   24.9310  -29.2910 N   0  0  0  0  0  0  0  0  0  0  0  0
   -1.4810   24.3600  -29.3430 C   0  0  0  0  0  0  0  0  0  0  0  0
   -0.5160   24.8870  -28.7300 O   0  0  0  0  0  0  0  0  0  0  0  0
   -1.2870   23.2360  -30.0730 N   0  0  0  0  0  0  0  0  0  0  0  0
   -2.3060   22.6260  -30.7370 C   0  0  0  0  0  0  0  0  0  0  0  0
   -1.9550   21.4950  -31.6210 C   0  0  0  0  0  0  0  0  0  0  0  0
   -1.3300   20.3460  -31.1070 C   0  0  0  0  0  0  0  0  0  0  0  0
   -0.9900   19.2890  -31.9580 C   0  0  0  0  0  0  0  0  0  0  0  0
   -1.2870   19.3640  -33.3210 C   0  0  0  0  0  0  0  0  0  0  0  0
   -1.9340   20.4910  -33.8340 C   0  0  0  0  0  0  0  0  0  0  0  0
   -2.2720   21.5510  -32.9880 C   0  0  0  0  0  0  0  0  0  0  0  0
   -3.6220   23.1530  -30.6200 C   0  0  0  0  0  0  0  0  0  0  0  0
   -4.1269   13.6689  -30.9469 H   0  0  0  0  0  0  0  0  0  0  0  0
   -4.8987   13.1213  -32.4737 H   0  0  0  0  0  0  0  0  0  0  0  0
   -3.1809   13.6463  -32.4737 H   0  0  0  0  0  0  0  0  0  0  0  0
   -5.7055   15.2666  -32.4655 H   0  0  0  0  0  0  0  0  0  0  0  0
   -4.2827   15.8698  -31.4734 H   0  0  0  0  0  0  0  0  0  0  0  0
   -2.3599   16.2289  -32.2507 H   0  0  0  0  0  0  0  0  0  0  0  0
   -1.9522   15.3993  -33.7908 H   0  0  0  0  0  0  0  0  0  0  0  0
   -2.3405   17.1531  -33.7908 H   0  0  0  0  0  0  0  0  0  0  0  0
   -4.1599   17.9491  -33.8260 H   0  0  0  0  0  0  0  0  0  0  0  0
   -4.7931   16.9035  -35.1733 H   0  0  0  0  0  0  0  0  0  0  0  0
   -6.8311   16.6064  -34.1877 H   0  0  0  0  0  0  0  0  0  0  0  0
   -6.1513   16.7429  -32.5107 H   0  0  0  0  0  0  0  0  0  0  0  0
   -6.1203   19.1969  -34.2502 H   0  0  0  0  0  0  0  0  0  0  0  0
   -7.6987   18.6541  -33.5612 H   0  0  0  0  0  0  0  0  0  0  0  0
   -4.1596   20.4693  -31.0433 H   0  0  0  0  0  0  0  0  0  0  0  0
   -7.9958   23.4287  -32.2359 H   0  0  0  0  0  0  0  0  0  0  0  0
   -9.1335   20.1026  -31.0215 H   0  0  0  0  0  0  0  0  0  0  0  0
  -10.3092   20.2391  -32.3727 H   0  0  0  0  0  0  0  0  0  0  0  0
   -9.0901   18.9198  -32.3727 H   0  0  0  0  0  0  0  0  0  0  0  0
   -5.4265   25.3329  -31.9740 H   0  0  0  0  0  0  0  0  0  0  0  0
   -6.9354   25.1896  -30.9972 H   0  0  0  0  0  0  0  0  0  0  0  0
   -4.9625   26.1337  -29.7183 H   0  0  0  0  0  0  0  0  0  0  0  0
   -5.6685   24.6347  -29.0022 H   0  0  0  0  0  0  0  0  0  0  0  0
   -1.1074   20.2776  -30.0319 H   0  0  0  0  0  0  0  0  0  0  0  0
   -0.4882   18.3977  -31.5534 H   0  0  0  0  0  0  0  0  0  0  0  0
   -1.0114   18.5357  -33.9903 H   0  0  0  0  0  0  0  0  0  0  0  0
   -2.1778   20.5442  -34.9053 H   0  0  0  0  0  0  0  0  0  0  0  0
   -2.7885   22.4329  -33.3947 H   0  0  0  0  0  0  0  0  0  0  0  0
  1  2  1  0
  2  3  1  0
  3  4  1  0
  3  5  1  0
  5  6  1  0
  6  7  1  0
  7  8  1  0
  8  9  1  0
  9 10  2  0
 10 11  1  0
 11 12  2  0
 12 13  1  0
 13 14  2  0
 14 15  1  0
 15 16  1  0
 12 17  1  0
 17 18  1  0
 18 19  1  0
 19 20  1  0
 20 21  1  0
 21 22  2  0
 21 23  1  0
 23 24  2  0
 24 25  1  0
 25 26  2  0
 26 27  1  0
 27 28  2  0
 28 29  1  0
 29 30  2  0
 24 31  1  0
 14  9  1  0
 31 19  2  0
 31 11  1  0
 30 25  1  0
  1 32  1  0
  1 33  1  0
  1 34  1  0
  2 35  1  0
  2 36  1  0
  4 37  1  0
  4 38  1  0
  4 39  1  0
  5 40  1  0
  5 41  1  0
  6 42  1  0
  6 43  1  0
  7 44  1  0
  7 45  1  0
 10 46  1  0
 13 47  1  0
 16 48  1  0
 16 49  1  0
 16 50  1  0
 17 51  1  0
 17 52  1  0
 18 53  1  0
 18 54  1  0
 26 55  1  0
 27 56  1  0
 28 57  1  0
 29 58  1  0
 30 59  1  0
M  CHG  1  20  -1
M  END
>  <UniqueID>  (17) 
17

>  <SMILES>  (17) 
CCN(C)CCCOc1cc2c(cc1OC)CCc1[n-]c(=O)nc(-c3ccccc3)c1-2

>  <Energy>  (17) 
75.47683920771549

>  <Genealogy>  (17) 
CCN(C)CCCOc1cc2c(cc1OC)CCc1[n-]c(=O)nc(-c3ccccc3)c1-2 (protonated)
CCN(C)CCCOc1cc2c(cc1OC)CCc1[n-]c(=O)nc(-c3ccccc3)c1-2 (3D coordinates assigned)
CCN(C)CCCOc1cc2c(cc1OC)CCc1[n-]c(=O)nc(-c3ccccc3)c1-2 (nonaromatic ring conformer: 75.47683920771549 kcal/mol)

>  <smiles>  (17) 
CCN(C)CCCOc1cc2c(cc1OC)CCc1[nH]c(=O)nc(-c3ccccc3)c1-2

>  <score_type>  (17) 
oracle

>  <origin>  (17) 
adg

>  <m_score__min__energy>  (17) 
-9.4399999999999995

>  <m_primary>  (17) 
energy

$$$$
17:0
     RDKit          3D

 48 50  0  0  0  0  0  0  0  0999 V2000
   -6.0880   25.2530  -30.1190 C   0  0  0  0  0  0  0  0  0  0  0  0
   -4.6960   24.6470  -29.9870 C   0  0  0  0  0  0  0  0  0  0  0  0
   -4.3380   23.9410  -31.2230 N   0  0  0  0  0  0  0  0  0  0  0  0
   -3.7450   22.6210  -30.9430 C   0  0  0  0  0  0  0  0  0  0  0  0
   -3.4720   21.8770  -32.2540 C   0  0  0  0  0  0  0  0  0  0  0  0
   -4.5900   22.0240  -33.2010 N   0  0  0  0  0  0  0  0  0  0  0  0
   -5.6400   21.0660  -32.9010 C   0  0  0  0  0  0  0  0  0  0  0  0
   -5.4230   19.6790  -33.0860 C   0  0  0  0  0  0  0  0  0  0  0  0
   -6.4920   18.7750  -32.9440 C   0  0  0  0  0  0  0  0  0  0  0  0
   -7.6940   19.1880  -32.4150 N   0  0  0  0  0  0  0  0  0  0  0  0
   -8.6880   18.1800  -31.9860 C   0  0  0  0  0  0  0  0  0  0  0  0
   -7.9540   20.5350  -32.2570 C   0  0  0  0  0  0  0  0  0  0  0  0
   -9.2500   20.9990  -31.9140 C   0  0  0  0  0  0  0  0  0  0  0  0
   -9.4960   22.3510  -31.6870 C   0  0  0  0  0  0  0  0  0  0  0  0
   -8.4660   23.2740  -31.7980 C   0  0  0  0  0  0  0  0  0  0  0  0
   -7.1930   22.8580  -32.1740 C   0  0  0  0  0  0  0  0  0  0  0  0
   -6.9190   21.4960  -32.4530 C   0  0  0  0  0  0  0  0  0  0  0  0
   -6.2470   17.3350  -33.3760 C   0  0  0  0  0  0  0  0  0  0  0  0
   -5.3870   17.2860  -34.6490 C   0  0  0  0  0  0  0  0  0  0  0  0
   -4.0880   18.1160  -34.5500 C   0  0  0  0  0  0  0  0  0  0  0  0
   -4.0540   19.0690  -33.3480 C   0  0  0  0  0  0  0  0  0  0  0  0
   -6.5053   25.4347  -29.1176 H   0  0  0  0  0  0  0  0  0  0  0  0
   -6.0232   26.2044  -30.6674 H   0  0  0  0  0  0  0  0  0  0  0  0
   -6.7402   24.5574  -30.6674 H   0  0  0  0  0  0  0  0  0  0  0  0
   -3.9658   25.4482  -29.8003 H   0  0  0  0  0  0  0  0  0  0  0  0
   -4.6897   23.9347  -29.1488 H   0  0  0  0  0  0  0  0  0  0  0  0
   -5.2150   23.7990  -31.7800 H   0  0  0  0  0  0  0  0  0  0  0  0
   -2.7994   22.7554  -30.3974 H   0  0  0  0  0  0  0  0  0  0  0  0
   -4.4479   22.0325  -30.3350 H   0  0  0  0  0  0  0  0  0  0  0  0
   -2.5591   22.2845  -32.7128 H   0  0  0  0  0  0  0  0  0  0  0  0
   -3.3518   20.8078  -32.0254 H   0  0  0  0  0  0  0  0  0  0  0  0
   -4.2560   21.9140  -34.1840 H   0  0  0  0  0  0  0  0  0  0  0  0
   -4.9630   22.9970  -33.1860 H   0  0  0  0  0  0  0  0  0  0  0  0
   -8.7232   18.1443  -30.8871 H   0  0  0  0  0  0  0  0  0  0  0  0
   -9.6795   18.4537  -32.3759 H   0  0  0  0  0  0  0  0  0  0  0  0
   -8.4005   17.1924  -32.3759 H   0  0  0  0  0  0  0  0  0  0  0  0
  -10.0758   20.2777  -31.8257 H   0  0  0  0  0  0  0  0  0  0  0  0
  -10.5085   22.6875  -31.4193 H   0  0  0  0  0  0  0  0  0  0  0  0
   -8.6565   24.3369  -31.5882 H   0  0  0  0  0  0  0  0  0  0  0  0
   -6.3847   23.5995  -32.2562 H   0  0  0  0  0  0  0  0  0  0  0  0
   -5.7264   16.7997  -32.5682 H   0  0  0  0  0  0  0  0  0  0  0  0
   -7.2166   16.8603  -33.5870 H   0  0  0  0  0  0  0  0  0  0  0  0
   -5.1160   16.2382  -34.8455 H   0  0  0  0  0  0  0  0  0  0  0  0
   -5.9874   17.7222  -35.4609 H   0  0  0  0  0  0  0  0  0  0  0  0
   -3.2383   17.4223  -34.4671 H   0  0  0  0  0  0  0  0  0  0  0  0
   -4.0352   18.7388  -35.4551 H   0  0  0  0  0  0  0  0  0  0  0  0
   -3.7346   18.5096  -32.4564 H   0  0  0  0  0  0  0  0  0  0  0  0
   -3.3485   19.8830  -33.5707 H   0  0  0  0  0  0  0  0  0  0  0  0
  1  2  1  0
  2  3  1  0
  3  4  1  0
  4  5  1  0
  5  6  1  0
  6  7  1  0
  7  8  2  0
  8  9  1  0
  9 10  2  0
 10 11  1  0
 10 12  1  0
 12 13  2  0
 13 14  1  0
 14 15  2  0
 15 16  1  0
 16 17  2  0
  9 18  1  0
 18 19  1  0
 19 20  1  0
 20 21  1  0
 17  7  1  0
 21  8  1  0
 17 12  1  0
  1 22  1  0
  1 23  1  0
  1 24  1  0
  2 25  1  0
  2 26  1  0
  3 27  1  0
  4 28  1  0
  4 29  1  0
  5 30  1  0
  5 31  1  0
  6 32  1  0
  6 33  1  0
 11 34  1  0
 11 35  1  0
 11 36  1  0
 13 37  1  0
 14 38  1  0
 15 39  1  0
 16 40  1  0
 18 41  1  0
 18 42  1  0
 19 43  1  0
 19 44  1  0
 20 45  1  0
 20 46  1  0
 21 47  1  0
 21 48  1  0
M  CHG  2   6   1  10   1
M  END
>  <UniqueID>  (18) 
18

>  <SMILES>  (18) 
CCNCC[NH2+]c1c2c([n+](C)c3ccccc13)CCCC2

>  <Energy>  (18) 
71.67929651516266

>  <Genealogy>  (18) 
CCNCC[NH2+]c1c2c([n+](C)c3ccccc13)CCCC2 (protonated)
CCNCC[NH2+]c1c2c([n+](C)c3ccccc13)CCCC2 (3D coordinates assigned)
CCNCC[NH2+]c1c2c([n+](C)c3ccccc13)CCCC2 (nonaromatic ring conformer: 71.67929651516266 kcal/mol)

>  <smiles>  (18) 
CCNCCNc1c2c([n+](C)c3ccccc13)CCCC2

>  <score_type>  (18) 
oracle

>  <origin>  (18) 
adg

>  <m_score__min__energy>  (18) 
-7.7599999999999998

>  <m_primary>  (18) 
energy

$$$$
18:0
     RDKit          3D

 34 36  0  0  0  0  0  0  0  0999 V2000
   -3.7260   24.1860  -28.2710 C   0  0  0  0  0  0  0  0  0  0  0  0
   -2.8370   24.4860  -29.4680 C   0  0  0  0  0  0  0  0  0  0  0  0
   -3.5730   25.3000  -30.4280 N   0  0  0  0  0  0  0  0  0  0  0  0
   -4.9910   25.2860  -30.6510 C   0  0  0  0  0  0  0  0  0  0  0  0
   -5.6320   26.3530  -30.4650 O   0  0  0  0  0  0  0  0  0  0  0  0
   -5.7330   24.1020  -31.1280 C   0  0  0  0  0  0  0  0  0  0  0  0
   -7.1000   23.8850  -31.0960 C   0  0  0  0  0  0  0  0  0  0  0  0
   -7.3020   22.6570  -31.6870 C   0  0  0  0  0  0  0  0  0  0  0  0
   -6.0490   22.1980  -32.0530 C   0  0  0  0  0  0  0  0  0  0  0  0
   -5.7270   20.9210  -32.7340 C   0  0  0  0  0  0  0  0  0  0  0  0
   -6.7720   20.0710  -33.1310 C   0  0  0  0  0  0  0  0  0  0  0  0
   -6.4840   18.8650  -33.7690 C   0  0  0  0  0  0  0  0  0  0  0  0
   -5.1560   18.5050  -34.0110 C   0  0  0  0  0  0  0  0  0  0  0  0
   -4.8400   17.2960  -34.6480 C   0  0  0  0  0  0  0  0  0  0  0  0
   -3.5020   16.9550  -34.8790 C   0  0  0  0  0  0  0  0  0  0  0  0
   -3.1090   15.4420  -35.6770 Cl  0  0  0  0  0  0  0  0  0  0  0  0
   -2.4790   17.8190  -34.4760 C   0  0  0  0  0  0  0  0  0  0  0  0
   -2.7850   19.0260  -33.8400 C   0  0  0  0  0  0  0  0  0  0  0  0
   -4.1240   19.3790  -33.6020 C   0  0  0  0  0  0  0  0  0  0  0  0
   -4.4310   20.5550  -32.9790 N   0  0  0  0  0  0  0  0  0  0  0  0
   -5.1410   23.0840  -31.7100 O   0  0  0  0  0  0  0  0  0  0  0  0
   -3.1669   24.3747  -27.3426 H   0  0  0  0  0  0  0  0  0  0  0  0
   -4.6142   24.8342  -28.3023 H   0  0  0  0  0  0  0  0  0  0  0  0
   -4.0398   23.1322  -28.3023 H   0  0  0  0  0  0  0  0  0  0  0  0
   -1.9431   25.0325  -29.1330 H   0  0  0  0  0  0  0  0  0  0  0  0
   -2.5327   23.5424  -29.9444 H   0  0  0  0  0  0  0  0  0  0  0  0
   -7.8678   24.5559  -30.6831 H   0  0  0  0  0  0  0  0  0  0  0  0
   -8.2641   22.1453  -31.8374 H   0  0  0  0  0  0  0  0  0  0  0  0
   -7.8168   20.3563  -32.9388 H   0  0  0  0  0  0  0  0  0  0  0  0
   -7.3012   18.1981  -34.0813 H   0  0  0  0  0  0  0  0  0  0  0  0
   -5.6437   16.6156  -34.9661 H   0  0  0  0  0  0  0  0  0  0  0  0
   -1.4290   17.5479  -34.6601 H   0  0  0  0  0  0  0  0  0  0  0  0
   -1.9754   19.7009  -33.5252 H   0  0  0  0  0  0  0  0  0  0  0  0
   -3.6500   21.1830  -32.6860 H   0  0  0  0  0  0  0  0  0  0  0  0
  1  2  1  0
  2  3  1  0
  3  4  1  0
  4  5  2  0
  4  6  1  0
  6  7  2  0
  7  8  1  0
  8  9  2  0
  9 10  1  0
 10 11  2  0
 11 12  1  0
 12 13  2  0
 13 14  1  0
 14 15  2  0
 15 16  1  0
 15 17  1  0
 17 18  2  0
 18 19  1  0
 19 20  2  0
  9 21  1  0
 21  6  1  0
 20 10  1  0
 19 13  1  0
  1 22  1  0
  1 23  1  0
  1 24  1  0
  2 25  1  0
  2 26  1  0
  7 27  1  0
  8 28  1  0
 11 29  1  0
 12 30  1  0
 14 31  1  0
 17 32  1  0
 18 33  1  0
 20 34  1  0
M  CHG  2   3  -1  20   1
M  END
>  <UniqueID>  (19) 
19

>  <SMILES>  (19) 
CC[N-]C(=O)c1ccc(-c2ccc3cc(Cl)ccc3[nH+]2)o1

>  <Energy>  (19) 
65.36227601285309

>  <Genealogy>  (19) 
CC[N-]C(=O)c1ccc(-c2ccc3cc(Cl)ccc3[nH+]2)o1 (protonated)
CC[N-]C(=O)c1ccc(-c2ccc3cc(Cl)ccc3[nH+]2)o1 (3D coordinates assigned)
CC[N-]C(=O)c1ccc(-c2ccc3cc(Cl)ccc3[nH+]2)o1 (optimized conformer: 65.36227601285309 kcal/mol)

>  <smiles>  (19) 
CCNC(=O)c1ccc(-c2ccc3cc(Cl)ccc3n2)o1

>  <score_type>  (19) 
oracle

>  <origin>  (19) 
adg

>  <m_score__min__energy>  (19) 
-8.8000000000000007

>  <m_primary>  (19) 
energy

$$$$
19:0
     RDKit          3D

 46 48  0  0  0  0  0  0  0  0999 V2000
    0.8285   18.7868  -32.2526 H   0  0  0  0  0  0  0  0  0  0  0  0
    0.4120   19.2320  -31.3370 C   0  0  0  0  0  0  0  0  0  0  0  0
   -0.1360   20.5150  -31.3740 C   0  0  0  0  0  0  0  0  0  0  0  0
   -0.1543   21.0781  -32.3188 H   0  0  0  0  0  0  0  0  0  0  0  0
   -0.6610   21.0840  -30.2120 C   0  0  0  0  0  0  0  0  0  0  0  0
   -1.0935   22.0949  -30.2440 H   0  0  0  0  0  0  0  0  0  0  0  0
   -0.6390   20.3720  -29.0050 C   0  0  0  0  0  0  0  0  0  0  0  0
   -1.1820   20.9740  -27.8220 N   0  0  0  0  0  0  0  0  0  0  0  0
   -0.2760   21.7540  -26.9580 C   0  0  0  0  0  0  0  0  0  0  0  0
    0.7514   21.6231  -27.3287 H   0  0  0  0  0  0  0  0  0  0  0  0
   -0.4122   21.3749  -25.9344 H   0  0  0  0  0  0  0  0  0  0  0  0
   -0.5860   23.2670  -26.9150 C   0  0  0  0  0  0  0  0  0  0  0  0
    0.2842   23.8063  -27.3175 H   0  0  0  0  0  0  0  0  0  0  0  0
   -0.7985   23.5100  -25.8634 H   0  0  0  0  0  0  0  0  0  0  0  0
   -1.7780   23.6770  -27.6860 N   0  0  0  0  0  0  0  0  0  0  0  0
   -1.5770   24.4080  -28.9140 C   0  0  0  0  0  0  0  0  0  0  0  0
   -0.4050   24.5890  -29.3490 O   0  0  0  0  0  0  0  0  0  0  0  0
   -2.7060   24.9170  -29.6430 N   0  0  0  0  0  0  0  0  0  0  0  0
   -3.4960   24.2290  -30.4140 C   0  0  0  0  0  0  0  0  0  0  0  0
   -4.6900   24.6540  -30.8710 N   0  0  0  0  0  0  0  0  0  0  0  0
   -5.1810   23.6750  -31.6120 N   0  0  0  0  0  0  0  0  0  0  0  0
   -6.4370   23.7600  -32.3450 C   0  0  0  0  0  0  0  0  0  0  0  0
   -7.2738   23.8166  -31.6333 H   0  0  0  0  0  0  0  0  0  0  0  0
   -6.4322   24.6599  -32.9776 H   0  0  0  0  0  0  0  0  0  0  0  0
   -6.5535   22.8677  -32.9776 H   0  0  0  0  0  0  0  0  0  0  0  0
   -4.3140   22.6440  -31.6540 C   0  0  0  0  0  0  0  0  0  0  0  0
   -4.4588   21.7057  -32.2096 H   0  0  0  0  0  0  0  0  0  0  0  0
   -3.2150   22.9620  -30.8840 C   0  0  0  0  0  0  0  0  0  0  0  0
   -2.3226   22.3489  -30.6897 H   0  0  0  0  0  0  0  0  0  0  0  0
   -3.1310   23.2380  -27.3060 C   0  0  0  0  0  0  0  0  0  0  0  0
   -3.8589   23.9974  -27.6275 H   0  0  0  0  0  0  0  0  0  0  0  0
   -3.1637   23.1101  -26.2140 H   0  0  0  0  0  0  0  0  0  0  0  0
   -3.4810   21.8960  -27.9660 C   0  0  0  0  0  0  0  0  0  0  0  0
   -3.3665   22.0027  -29.0548 H   0  0  0  0  0  0  0  0  0  0  0  0
   -4.5144   21.6526  -27.6780 H   0  0  0  0  0  0  0  0  0  0  0  0
   -2.5940   20.7340  -27.4950 C   0  0  0  0  0  0  0  0  0  0  0  0
   -2.9239   19.8082  -27.9891 H   0  0  0  0  0  0  0  0  0  0  0  0
   -2.6874   20.6465  -26.4025 H   0  0  0  0  0  0  0  0  0  0  0  0
   -0.0970   19.0750  -28.9610 C   0  0  0  0  0  0  0  0  0  0  0  0
   -0.1110   18.3770  -27.7430 O   0  0  0  0  0  0  0  0  0  0  0  0
    0.5500   17.1370  -27.5140 C   0  0  0  0  0  0  0  0  0  0  0  0
    0.6418   16.9649  -26.4314 H   0  0  0  0  0  0  0  0  0  0  0  0
   -0.0331   16.3216  -27.9668 H   0  0  0  0  0  0  0  0  0  0  0  0
    1.5520   17.1665  -27.9668 H   0  0  0  0  0  0  0  0  0  0  0  0
    0.4330   18.5110  -30.1390 C   0  0  0  0  0  0  0  0  0  0  0  0
    0.8649   17.4996  -30.1159 H   0  0  0  0  0  0  0  0  0  0  0  0
  1  2  1  0
  2  3  2  0
  3  4  1  0
  3  5  1  0
  5  6  1  0
  5  7  2  0
  7  8  1  0
  8  9  1  0
  9 10  1  0
  9 11  1  0
  9 12  1  0
 12 13  1  0
 12 14  1  0
 12 15  1  0
 15 16  1  0
 16 17  2  0
 16 18  1  0
 18 19  2  0
 19 20  1  0
 20 21  1  0
 21 22  1  0
 22 23  1  0
 22 24  1  0
 22 25  1  0
 21 26  1  0
 26 27  1  0
 26 28  2  0
 28 29  1  0
 15 30  1  0
 30 31  1  0
 30 32  1  0
 30 33  1  0
 33 34  1  0
 33 35  1  0
 33 36  1  0
 36 37  1  0
 36 38  1  0
  7 39  1  0
 39 40  1  0
 40 41  1  0
 41 42  1  0
 41 43  1  0
 41 44  1  0
 39 45  2  0
 45 46  1  0
 45  2  1  0
 36  8  1  0
 28 19  1  0
M  CHG  1  20  -1
M  END
>  <UniqueID>  (20) 
20

>  <SMILES>  (20) 
COc1ccccc1N1CCCN(C(=O)/N=c2/ccn(C)[n-]2)CC1

>  <Energy>  (20) 
86.18740947363064

>  <Genealogy>  (20) 
COc1ccccc1N1CCCN(C(=O)N=c2ccn(C)[n-]2)CC1 (protonated)
COc1ccccc1N1CCCN(C(=O)/N=c2/ccn(C)[n-]2)CC1 (cis-trans isomerization)
COc1ccccc1N1CCCN(C(=O)/N=c2/ccn(C)[n-]2)CC1 (3D coordinates assigned)
COc1ccccc1N1CCCN(C(=O)/N=c2/ccn(C)[n-]2)CC1 (nonaromatic ring conformer: 86.18740947363064 kcal/mol)

>  <smiles>  (20) 
COc1ccccc1N1CCCN(C(=O)N=c2ccn(C)[nH]2)CC1

>  <score_type>  (20) 
oracle

>  <origin>  (20) 
adg

>  <m_score__min__energy>  (20) 
-7.8099999999999996

>  <m_primary>  (20) 
energy

$$$$
20:0
     RDKit          3D

 31 32  0  0  0  0  0  0  0  0999 V2000
   -9.4830   20.5090  -31.9960 C   0  0  0  0  0  0  0  0  0  0  0  0
   -9.0620   19.0990  -31.6050 C   0  0  0  0  0  0  0  0  0  0  0  0
   -8.3160   18.4800  -32.7080 N   0  0  0  0  0  0  0  0  0  0  0  0
   -6.9750   18.0280  -32.3030 C   0  0  0  0  0  0  0  0  0  0  0  0
   -5.8750   19.0520  -32.6170 C   0  0  0  0  0  0  0  0  0  0  0  0
   -6.4560   20.3050  -32.9710 O   0  0  0  0  0  0  0  0  0  0  0  0
   -6.0910   21.5360  -32.4070 C   0  0  0  0  0  0  0  0  0  0  0  0
   -7.0730   22.5480  -32.3250 C   0  0  0  0  0  0  0  0  0  0  0  0
   -6.7670   23.8020  -31.7710 C   0  0  0  0  0  0  0  0  0  0  0  0
   -5.4700   24.0130  -31.3090 C   0  0  0  0  0  0  0  0  0  0  0  0
   -4.5030   23.0410  -31.3790 C   0  0  0  0  0  0  0  0  0  0  0  0
   -4.7850   21.7890  -31.9250 C   0  0  0  0  0  0  0  0  0  0  0  0
   -3.2060   23.5370  -30.8100 C   0  0  0  0  0  0  0  0  0  0  0  0
   -3.5010   24.9120  -30.3920 N   0  0  0  0  0  0  0  0  0  0  0  0
   -4.8660   25.1690  -30.7020 C   0  0  0  0  0  0  0  0  0  0  0  0
   -5.4420   26.2630  -30.4700 O   0  0  0  0  0  0  0  0  0  0  0  0
   -9.6606   21.1037  -31.0878 H   0  0  0  0  0  0  0  0  0  0  0  0
   -8.6857   20.9779  -32.5913 H   0  0  0  0  0  0  0  0  0  0  0  0
  -10.4069   20.4640  -32.5913 H   0  0  0  0  0  0  0  0  0  0  0  0
   -8.4227   19.1432  -30.7110 H   0  0  0  0  0  0  0  0  0  0  0  0
   -9.9581   18.4984  -31.3898 H   0  0  0  0  0  0  0  0  0  0  0  0
   -8.2320   19.1670  -33.4940 H   0  0  0  0  0  0  0  0  0  0  0  0
   -6.9808   17.8415  -31.2189 H   0  0  0  0  0  0  0  0  0  0  0  0
   -6.7486   17.1167  -32.8760 H   0  0  0  0  0  0  0  0  0  0  0  0
   -5.2378   19.1844  -31.7302 H   0  0  0  0  0  0  0  0  0  0  0  0
   -5.2723   18.6844  -33.4606 H   0  0  0  0  0  0  0  0  0  0  0  0
   -8.0887   22.3519  -32.6991 H   0  0  0  0  0  0  0  0  0  0  0  0
   -7.5283   24.5932  -31.7041 H   0  0  0  0  0  0  0  0  0  0  0  0
   -4.0071   21.0132  -31.9799 H   0  0  0  0  0  0  0  0  0  0  0  0
   -2.8977   22.9250  -29.9496 H   0  0  0  0  0  0  0  0  0  0  0  0
   -2.3797   23.4840  -31.5341 H   0  0  0  0  0  0  0  0  0  0  0  0
  1  2  1  0
  2  3  1  0
  3  4  1  0
  4  5  1  0
  5  6  1  0
  6  7  1  0
  7  8  2  0
  8  9  1  0
  9 10  2  0
 10 11  1  0
 11 12  2  0
 11 13  1  0
 13 14  1  0
 14 15  1  0
 15 16  2  0
 12  7  1  0
 15 10  1  0
  1 17  1  0
  1 18  1  0
  1 19  1  0
  2 20  1  0
  2 21  1  0
  3 22  1  0
  4 23  1  0
  4 24  1  0
  5 25  1  0
  5 26  1  0
  8 27  1  0
  9 28  1  0
 12 29  1  0
 13 30  1  0
 13 31  1  0
M  CHG  1  14  -1
M  END
>  <UniqueID>  (21) 
21

>  <SMILES>  (21) 
CCNCCOc1ccc2c(c1)C[N-]C2=O

>  <Energy>  (21) 
48.404105174034456

>  <Genealogy>  (21) 
CCNCCOc1ccc2c(c1)C[N-]C2=O (protonated)
CCNCCOc1ccc2c(c1)C[N-]C2=O (3D coordinates assigned)
CCNCCOc1ccc2c(c1)C[N-]C2=O (nonaromatic ring conformer: 48.404105174034456 kcal/mol)

>  <smiles>  (21) 
CCNCCOc1ccc2c(c1)CNC2=O

>  <score_type>  (21) 
oracle

>  <origin>  (21) 
adg

>  <m_score__min__energy>  (21) 
-7.7300000000000004

>  <m_primary>  (21) 
energy

$$$$
21:0
     RDKit          3D

 57 60  0  0  0  0  0  0  0  0999 V2000
   -4.6270   25.9830  -30.4970 O   0  0  0  0  0  0  0  0  0  0  0  0
   -4.3020   24.8990  -29.9450 C   0  0  0  0  0  0  0  0  0  0  0  0
   -4.8960   24.5190  -28.6200 C   0  0  0  0  0  0  0  0  0  0  0  0
   -3.9000   23.6980  -27.7900 C   0  0  0  0  0  0  0  0  0  0  0  0
   -3.2710   22.5880  -28.5970 C   0  0  0  0  0  0  0  0  0  0  0  0
   -2.8450   21.4100  -27.9700 C   0  0  0  0  0  0  0  0  0  0  0  0
   -2.1870   20.4170  -28.7010 C   0  0  0  0  0  0  0  0  0  0  0  0
   -1.9300   20.5970  -30.0740 C   0  0  0  0  0  0  0  0  0  0  0  0
   -1.2750   19.6340  -30.8580 O   0  0  0  0  0  0  0  0  0  0  0  0
   -1.3070   19.5620  -32.2850 C   0  0  0  0  0  0  0  0  0  0  0  0
   -0.8940   18.1710  -32.7830 C   0  0  0  0  0  0  0  0  0  0  0  0
   -1.6430   17.7840  -34.0660 C   0  0  0  0  0  0  0  0  0  0  0  0
   -3.0310   18.4310  -34.1630 C   0  0  0  0  0  0  0  0  0  0  0  0
   -4.0990   17.4080  -34.0400 N   0  0  0  0  0  0  0  0  0  0  0  0
   -4.5630   17.2110  -32.6400 C   0  0  0  0  0  0  0  0  0  0  0  0
   -5.9270   17.8590  -32.3240 C   0  0  0  0  0  0  0  0  0  0  0  0
   -6.1590   19.0250  -33.1780 N   0  0  0  0  0  0  0  0  0  0  0  0
   -6.5110   20.2860  -32.5930 C   0  0  0  0  0  0  0  0  0  0  0  0
   -5.5400   21.2940  -32.4950 C   0  0  0  0  0  0  0  0  0  0  0  0
   -5.8640   22.5320  -31.9340 C   0  0  0  0  0  0  0  0  0  0  0  0
   -7.1570   22.7690  -31.4620 C   0  0  0  0  0  0  0  0  0  0  0  0
   -8.1280   21.7680  -31.5480 C   0  0  0  0  0  0  0  0  0  0  0  0
   -7.8110   20.5240  -32.1090 C   0  0  0  0  0  0  0  0  0  0  0  0
   -9.0450   19.2720  -32.1500 Cl  0  0  0  0  0  0  0  0  0  0  0  0
   -5.9910   18.9130  -34.6280 C   0  0  0  0  0  0  0  0  0  0  0  0
   -5.2140   17.6360  -34.9830 C   0  0  0  0  0  0  0  0  0  0  0  0
   -2.3340   21.7870  -30.6930 C   0  0  0  0  0  0  0  0  0  0  0  0
   -3.0020   22.7810  -29.9670 C   0  0  0  0  0  0  0  0  0  0  0  0
   -3.4250   23.9890  -30.6150 N   0  0  0  0  0  0  0  0  0  0  0  0
   -5.1584   25.4331  -28.0672 H   0  0  0  0  0  0  0  0  0  0  0  0
   -5.7931   23.9080  -28.7987 H   0  0  0  0  0  0  0  0  0  0  0  0
   -3.1058   24.3661  -27.4256 H   0  0  0  0  0  0  0  0  0  0  0  0
   -4.4499   23.2408  -26.9542 H   0  0  0  0  0  0  0  0  0  0  0  0
   -3.0296   21.2656  -26.8953 H   0  0  0  0  0  0  0  0  0  0  0  0
   -1.8683   19.4902  -28.2015 H   0  0  0  0  0  0  0  0  0  0  0  0
   -2.3283   19.7779  -32.6317 H   0  0  0  0  0  0  0  0  0  0  0  0
   -0.5956   20.2992  -32.6856 H   0  0  0  0  0  0  0  0  0  0  0  0
    0.1869   18.1714  -32.9871 H   0  0  0  0  0  0  0  0  0  0  0  0
   -1.1465   17.4376  -32.0030 H   0  0  0  0  0  0  0  0  0  0  0  0
   -1.0450   18.1039  -34.9320 H   0  0  0  0  0  0  0  0  0  0  0  0
   -1.7866   16.6935  -34.0493 H   0  0  0  0  0  0  0  0  0  0  0  0
   -3.1427   19.1680  -33.3541 H   0  0  0  0  0  0  0  0  0  0  0  0
   -3.1237   18.9214  -35.1433 H   0  0  0  0  0  0  0  0  0  0  0  0
   -4.6440   16.1300  -32.4532 H   0  0  0  0  0  0  0  0  0  0  0  0
   -3.8234   17.7037  -31.9917 H   0  0  0  0  0  0  0  0  0  0  0  0
   -6.7250   17.1216  -32.4959 H   0  0  0  0  0  0  0  0  0  0  0  0
   -5.9272   18.1857  -31.2736 H   0  0  0  0  0  0  0  0  0  0  0  0
   -4.5194   21.1089  -32.8613 H   0  0  0  0  0  0  0  0  0  0  0  0
   -5.1002   23.3205  -31.8640 H   0  0  0  0  0  0  0  0  0  0  0  0
   -7.4111   23.7447  -31.0221 H   0  0  0  0  0  0  0  0  0  0  0  0
   -9.1450   21.9574  -31.1739 H   0  0  0  0  0  0  0  0  0  0  0  0
   -6.9814   18.8786  -35.1055 H   0  0  0  0  0  0  0  0  0  0  0  0
   -5.4259   19.7850  -34.9889 H   0  0  0  0  0  0  0  0  0  0  0  0
   -5.8992   16.7764  -34.9427 H   0  0  0  0  0  0  0  0  0  0  0  0
   -4.7963   17.7527  -35.9939 H   0  0  0  0  0  0  0  0  0  0  0  0
   -2.1241   21.9425  -31.7615 H   0  0  0  0  0  0  0  0  0  0  0  0
   -3.1150   24.1990  -31.5910 H   0  0  0  0  0  0  0  0  0  0  0  0
  1  2  2  0
  2  3  1  0
  3  4  1  0
  4  5  1  0
  5  6  2  0
  6  7  1  0
  7  8  2  0
  8  9  1  0
  9 10  1  0
 10 11  1  0
 11 12  1  0
 12 13  1  0
 13 14  1  0
 14 15  1  0
 15 16  1  0
 16 17  1  0
 17 18  1  0
 18 19  2  0
 19 20  1  0
 20 21  2  0
 21 22  1  0
 22 23  2  0
 23 24  1  0
 17 25  1  0
 25 26  1  0
  8 27  1  0
 27 28  2  0
 28 29  1  0
 29  2  1  0
 28  5  1  0
 26 14  1  0
 23 18  1  0
  3 30  1  0
  3 31  1  0
  4 32  1  0
  4 33  1  0
  6 34  1  0
  7 35  1  0
 10 36  1  0
 10 37  1  0
 11 38  1  0
 11 39  1  0
 12 40  1  0
 12 41  1  0
 13 42  1  0
 13 43  1  0
 15 44  1  0
 15 45  1  0
 16 46  1  0
 16 47  1  0
 19 48  1  0
 20 49  1  0
 21 50  1  0
 22 51  1  0
 25 52  1  0
 25 53  1  0
 26 54  1  0
 26 55  1  0
 27 56  1  0
 29 57  1  0
M  END
>  <UniqueID>  (22) 
22

>  <SMILES>  (22) 
O=C1CCc2ccc(OCCCCN3CCN(c4ccccc4Cl)CC3)cc2N1

>  <Energy>  (22) 
70.03657327298029

>  <Genealogy>  (22) 
O=C1CCc2ccc(OCCCCN3CCN(c4ccccc4Cl)CC3)cc2N1 (3D coordinates assigned)
O=C1CCc2ccc(OCCCCN3CCN(c4ccccc4Cl)CC3)cc2N1 (nonaromatic ring conformer: 70.03657327298029 kcal/mol)

>  <smiles>  (22) 
O=C1CCc2ccc(OCCCCN3CCN(c4ccccc4Cl)CC3)cc2N1

>  <score_type>  (22) 
oracle

>  <origin>  (22) 
adg

>  <m_score__min__energy>  (22) 
-9.4499999999999993

>  <m_primary>  (22) 
energy

$$$$
22:0
     RDKit          3D

 44 47  0  0  0  0  0  0  0  0999 V2000
   -4.0720   22.2700  -33.4980 O   0  0  0  0  0  0  0  0  0  0  0  0
   -5.0330   21.7350  -32.8800 C   0  0  0  0  0  0  0  0  0  0  0  0
   -5.2990   20.3010  -33.0900 C   0  0  0  0  0  0  0  0  0  0  0  0
   -6.5540   19.6920  -33.0580 C   0  0  0  0  0  0  0  0  0  0  0  0
   -6.3140   18.3690  -33.3550 C   0  0  0  0  0  0  0  0  0  0  0  0
   -7.1910   17.2920  -33.4730 C   0  0  0  0  0  0  0  0  0  0  0  0
   -6.6490   16.0380  -33.8050 C   0  0  0  0  0  0  0  0  0  0  0  0
   -5.2580   15.8900  -34.0140 C   0  0  0  0  0  0  0  0  0  0  0  0
   -4.5410   14.1790  -34.4670 Br  0  0  0  0  0  0  0  0  0  0  0  0
   -4.3990   17.0000  -33.8920 C   0  0  0  0  0  0  0  0  0  0  0  0
   -4.9670   18.2290  -33.5600 C   0  0  0  0  0  0  0  0  0  0  0  0
   -4.3350   19.4040  -33.4080 N   0  0  0  0  0  0  0  0  0  0  0  0
   -5.8280   22.5280  -31.9790 N   0  0  0  0  0  0  0  0  0  0  0  0
   -6.1710   22.0000  -30.6500 C   0  0  0  0  0  0  0  0  0  0  0  0
   -6.5340   23.1240  -29.6660 C   0  0  0  0  0  0  0  0  0  0  0  0
   -5.5820   24.3610  -29.7470 C   0  0  0  0  0  0  0  0  0  0  0  0
   -6.1910   25.4530  -29.0840 O   0  0  0  0  0  0  0  0  0  0  0  0
   -4.2420   24.0260  -29.0580 C   0  0  0  0  0  0  0  0  0  0  0  0
   -4.1880   23.1430  -27.9550 C   0  0  0  0  0  0  0  0  0  0  0  0
   -2.9660   22.8100  -27.3630 C   0  0  0  0  0  0  0  0  0  0  0  0
   -1.7760   23.3360  -27.8620 C   0  0  0  0  0  0  0  0  0  0  0  0
   -0.5930   23.0080  -27.2870 F   0  0  0  0  0  0  0  0  0  0  0  0
   -1.8030   24.1950  -28.9600 C   0  0  0  0  0  0  0  0  0  0  0  0
   -3.0200   24.5330  -29.5580 C   0  0  0  0  0  0  0  0  0  0  0  0
   -5.3590   24.8230  -31.2300 C   0  0  0  0  0  0  0  0  0  0  0  0
   -6.0690   23.9450  -32.2680 C   0  0  0  0  0  0  0  0  0  0  0  0
   -7.5233   20.1653  -32.8426 H   0  0  0  0  0  0  0  0  0  0  0  0
   -8.2717   17.4191  -33.3117 H   0  0  0  0  0  0  0  0  0  0  0  0
   -7.3117   15.1655  -33.9029 H   0  0  0  0  0  0  0  0  0  0  0  0
   -3.3155   16.9001  -34.0534 H   0  0  0  0  0  0  0  0  0  0  0  0
   -3.3120   19.5860  -33.5150 H   0  0  0  0  0  0  0  0  0  0  0  0
   -7.0307   21.3207  -30.7476 H   0  0  0  0  0  0  0  0  0  0  0  0
   -5.2917   21.4702  -30.2549 H   0  0  0  0  0  0  0  0  0  0  0  0
   -7.5586   23.4593  -29.8843 H   0  0  0  0  0  0  0  0  0  0  0  0
   -6.4358   22.7083  -28.6523 H   0  0  0  0  0  0  0  0  0  0  0  0
   -5.5220   25.9000  -28.5020 H   0  0  0  0  0  0  0  0  0  0  0  0
   -5.1191   22.7127  -27.5577 H   0  0  0  0  0  0  0  0  0  0  0  0
   -2.9438   22.1294  -26.4991 H   0  0  0  0  0  0  0  0  0  0  0  0
   -0.8637   24.6078  -29.3566 H   0  0  0  0  0  0  0  0  0  0  0  0
   -3.0276   25.2031  -30.4303 H   0  0  0  0  0  0  0  0  0  0  0  0
   -5.7339   25.8521  -31.3323 H   0  0  0  0  0  0  0  0  0  0  0  0
   -4.2802   24.7447  -31.4300 H   0  0  0  0  0  0  0  0  0  0  0  0
   -7.1503   24.1443  -32.2345 H   0  0  0  0  0  0  0  0  0  0  0  0
   -5.6757   24.1804  -33.2680 H   0  0  0  0  0  0  0  0  0  0  0  0
  1  2  2  0
  2  3  1  0
  3  4  2  0
  4  5  1  0
  5  6  2  0
  6  7  1  0
  7  8  2  0
  8  9  1  0
  8 10  1  0
 10 11  2  0
 11 12  1  0
  2 13  1  0
 13 14  1  0
 14 15  1  0
 15 16  1  0
 16 17  1  0
 16 18  1  0
 18 19  2  0
 19 20  1  0
 20 21  2  0
 21 22  1  0
 21 23  1  0
 23 24  2  0
 16 25  1  0
 25 26  1  0
 12  3  1  0
 26 13  1  0
 11  5  1  0
 24 18  1  0
  4 27  1  0
  6 28  1  0
  7 29  1  0
 10 30  1  0
 12 31  1  0
 14 32  1  0
 14 33  1  0
 15 34  1  0
 15 35  1  0
 17 36  1  0
 19 37  1  0
 20 38  1  0
 23 39  1  0
 24 40  1  0
 25 41  1  0
 25 42  1  0
 26 43  1  0
 26 44  1  0
M  END
>  <UniqueID>  (23) 
23

>  <SMILES>  (23) 
O=C(c1cc2ccc(Br)cc2[nH]1)N1CCC(O)(c2ccc(F)cc2)CC1

>  <Energy>  (23) 
95.0363635097487

>  <Genealogy>  (23) 
O=C(c1cc2ccc(Br)cc2[nH]1)N1CCC(O)(c2ccc(F)cc2)CC1 (3D coordinates assigned)
O=C(c1cc2ccc(Br)cc2[nH]1)N1CCC(O)(c2ccc(F)cc2)CC1 (nonaromatic ring conformer: 95.0363635097487 kcal/mol)

>  <smiles>  (23) 
O=C(c1cc2ccc(Br)cc2[nH]1)N1CCC(O)(c2ccc(F)cc2)CC1

>  <score_type>  (23) 
oracle

>  <origin>  (23) 
adg

>  <m_score__min__energy>  (23) 
-8.3499999999999996

>  <m_primary>  (23) 
energy

$$$$
23:0
     RDKit          3D

 54 57  0  0  0  0  0  0  0  0999 V2000
   -2.9990   21.3610  -28.9960 C   0  0  0  0  0  0  0  0  0  0  0  0
   -3.8980   21.9140  -30.0990 C   0  0  0  0  0  0  0  0  0  0  0  0
   -4.1740   23.3430  -29.8870 N   0  0  0  0  0  0  0  0  0  0  0  0
   -5.0900   24.0360  -30.8080 C   0  0  0  0  0  0  0  0  0  0  0  0
   -6.1950   23.0870  -31.2880 C   0  0  0  0  0  0  0  0  0  0  0  0
   -5.9800   22.6960  -32.6890 N   0  0  0  0  0  0  0  0  0  0  0  0
   -5.8400   21.2510  -32.7950 C   0  0  0  0  0  0  0  0  0  0  0  0
   -4.5770   20.6650  -33.0830 C   0  0  0  0  0  0  0  0  0  0  0  0
   -3.4450   21.4570  -33.4030 C   0  0  0  0  0  0  0  0  0  0  0  0
   -2.1910   20.8790  -33.5820 C   0  0  0  0  0  0  0  0  0  0  0  0
   -2.0310   19.5080  -33.4450 C   0  0  0  0  0  0  0  0  0  0  0  0
   -3.1340   18.7010  -33.1830 C   0  0  0  0  0  0  0  0  0  0  0  0
   -4.4370   19.2500  -33.0550 C   0  0  0  0  0  0  0  0  0  0  0  0
   -5.5440   18.4400  -32.8980 N   0  0  0  0  0  0  0  0  0  0  0  0
   -5.4400   16.9880  -33.1710 C   0  0  0  0  0  0  0  0  0  0  0  0
   -6.7610   18.9860  -32.5450 C   0  0  0  0  0  0  0  0  0  0  0  0
   -7.8510   18.1660  -32.1490 C   0  0  0  0  0  0  0  0  0  0  0  0
   -9.1070   18.7080  -31.8930 C   0  0  0  0  0  0  0  0  0  0  0  0
   -9.3150   20.0730  -32.0180 C   0  0  0  0  0  0  0  0  0  0  0  0
   -8.2540   20.9130  -32.3460 C   0  0  0  0  0  0  0  0  0  0  0  0
   -6.9500   20.3970  -32.5610 C   0  0  0  0  0  0  0  0  0  0  0  0
   -3.5380   24.0580  -28.7990 C   0  0  0  0  0  0  0  0  0  0  0  0
   -4.2050   24.2370  -27.5720 C   0  0  0  0  0  0  0  0  0  0  0  0
   -3.5840   24.9080  -26.5160 C   0  0  0  0  0  0  0  0  0  0  0  0
   -2.2900   25.4110  -26.6680 C   0  0  0  0  0  0  0  0  0  0  0  0
   -1.4420   26.3260  -25.2220 Br  0  0  0  0  0  0  0  0  0  0  0  0
   -1.6170   25.2440  -27.8800 C   0  0  0  0  0  0  0  0  0  0  0  0
   -2.2340   24.5730  -28.9400 C   0  0  0  0  0  0  0  0  0  0  0  0
   -3.4213   21.6208  -28.0141 H   0  0  0  0  0  0  0  0  0  0  0  0
   -2.9345   20.2669  -29.0896 H   0  0  0  0  0  0  0  0  0  0  0  0
   -1.9934   21.7969  -29.0896 H   0  0  0  0  0  0  0  0  0  0  0  0
   -3.3974   21.7845  -31.0699 H   0  0  0  0  0  0  0  0  0  0  0  0
   -4.8518   21.3664  -30.0812 H   0  0  0  0  0  0  0  0  0  0  0  0
   -5.5481   24.8899  -30.2874 H   0  0  0  0  0  0  0  0  0  0  0  0
   -4.5182   24.3839  -31.6809 H   0  0  0  0  0  0  0  0  0  0  0  0
   -6.1936   22.1851  -30.6583 H   0  0  0  0  0  0  0  0  0  0  0  0
   -7.1614   23.6070  -31.2130 H   0  0  0  0  0  0  0  0  0  0  0  0
   -6.7570   23.0450  -33.2900 H   0  0  0  0  0  0  0  0  0  0  0  0
   -5.1450   23.1840  -33.0810 H   0  0  0  0  0  0  0  0  0  0  0  0
   -3.5595   22.5456  -33.5116 H   0  0  0  0  0  0  0  0  0  0  0  0
   -1.3259   21.5106  -33.8324 H   0  0  0  0  0  0  0  0  0  0  0  0
   -1.0319   19.0585  -33.5435 H   0  0  0  0  0  0  0  0  0  0  0  0
   -2.9935   17.6156  -33.0728 H   0  0  0  0  0  0  0  0  0  0  0  0
   -5.4006   16.4379  -32.2193 H   0  0  0  0  0  0  0  0  0  0  0  0
   -6.3169   16.6597  -33.7482 H   0  0  0  0  0  0  0  0  0  0  0  0
   -4.5252   16.7880  -33.7482 H   0  0  0  0  0  0  0  0  0  0  0  0
   -7.6995   17.0817  -32.0426 H   0  0  0  0  0  0  0  0  0  0  0  0
   -9.9366   18.0519  -31.5908 H   0  0  0  0  0  0  0  0  0  0  0  0
  -10.3191   20.4928  -31.8579 H   0  0  0  0  0  0  0  0  0  0  0  0
   -8.4298   21.9948  -32.4400 H   0  0  0  0  0  0  0  0  0  0  0  0
   -5.2247   23.8448  -27.4438 H   0  0  0  0  0  0  0  0  0  0  0  0
   -4.1155   25.0406  -25.5621 H   0  0  0  0  0  0  0  0  0  0  0  0
   -0.5985   25.6415  -28.0011 H   0  0  0  0  0  0  0  0  0  0  0  0
   -1.6972   24.4461  -29.8917 H   0  0  0  0  0  0  0  0  0  0  0  0
  1  2  1  0
  2  3  1  0
  3  4  1  0
  4  5  1  0
  5  6  1  0
  6  7  1  0
  7  8  1  0
  8  9  2  0
  9 10  1  0
 10 11  2  0
 11 12  1  0
 12 13  2  0
 13 14  1  0
 14 15  1  0
 14 16  2  0
 16 17  1  0
 17 18  2  0
 18 19  1  0
 19 20  2  0
 20 21  1  0
  3 22  1  0
 22 23  2  0
 23 24  1  0
 24 25  2  0
 25 26  1  0
 25 27  1  0
 27 28  2  0
 21  7  2  0
 28 22  1  0
 13  8  1  0
 21 16  1  0
  1 29  1  0
  1 30  1  0
  1 31  1  0
  2 32  1  0
  2 33  1  0
  4 34  1  0
  4 35  1  0
  5 36  1  0
  5 37  1  0
  6 38  1  0
  6 39  1  0
  9 40  1  0
 10 41  1  0
 11 42  1  0
 12 43  1  0
 15 44  1  0
 15 45  1  0
 15 46  1  0
 17 47  1  0
 18 48  1  0
 19 49  1  0
 20 50  1  0
 23 51  1  0
 24 52  1  0
 27 53  1  0
 28 54  1  0
M  CHG  2   6   1  14   1
M  END
>  <UniqueID>  (24) 
24

>  <SMILES>  (24) 
CCN(CC[NH2+]c1c2ccccc2[n+](C)c2ccccc12)c1ccc(Br)cc1

>  <Energy>  (24) 
83.73720176334457

>  <Genealogy>  (24) 
CCN(CC[NH2+]c1c2ccccc2[n+](C)c2ccccc12)c1ccc(Br)cc1 (protonated)
CCN(CC[NH2+]c1c2ccccc2[n+](C)c2ccccc12)c1ccc(Br)cc1 (3D coordinates assigned)
CCN(CC[NH2+]c1c2ccccc2[n+](C)c2ccccc12)c1ccc(Br)cc1 (optimized conformer: 83.73720176334457 kcal/mol)

>  <smiles>  (24) 
CCN(CCNc1c2ccccc2[n+](C)c2ccccc12)c1ccc(Br)cc1

>  <score_type>  (24) 
oracle

>  <origin>  (24) 
adg

>  <m_score__min__energy>  (24) 
-9.2799999999999994

>  <m_primary>  (24) 
energy

$$$$
24:0
     RDKit          3D

 82 82  0  0  0  0  0  0  0  0999 V2000
    0.2750   21.2340  -35.6280 C   0  0  0  0  0  0  0  0  0  0  0  0
   -0.3190   21.1760  -34.2250 C   0  0  0  0  0  0  0  0  0  0  0  0
   -0.7910   19.8170  -33.9180 N   0  0  0  0  0  0  0  0  0  0  0  0
    0.2500   18.7840  -34.0610 C   0  0  0  0  0  0  0  0  0  0  0  0
   -0.0180   17.4880  -33.2620 C   0  0  0  0  0  0  0  0  0  0  0  0
   -0.8590   17.7180  -32.0730 N   0  0  0  0  0  0  0  0  0  0  0  0
   -0.0640   17.5660  -30.8450 C   0  0  0  0  0  0  0  0  0  0  0  0
    0.6670   18.8700  -30.4700 C   0  0  0  0  0  0  0  0  0  0  0  0
    0.2070   20.0380  -31.2490 N   0  0  0  0  0  0  0  0  0  0  0  0
   -0.1450   21.1890  -30.4040 C   0  0  0  0  0  0  0  0  0  0  0  0
   -1.6600   21.4280  -30.3960 C   0  0  0  0  0  0  0  0  0  0  0  0
   -2.3560   20.3780  -31.1550 N   0  0  0  0  0  0  0  0  0  0  0  0
   -3.7700   20.6980  -31.4150 C   0  0  0  0  0  0  0  0  0  0  0  0
   -4.0120   21.1070  -32.8780 C   0  0  0  0  0  0  0  0  0  0  0  0
   -3.8080   19.9230  -33.8270 C   0  0  0  0  0  0  0  0  0  0  0  0
   -3.2030   18.8020  -33.0950 N   0  0  0  0  0  0  0  0  0  0  0  0
   -3.1990   17.5690  -33.8990 C   0  0  0  0  0  0  0  0  0  0  0  0
   -4.3610   17.5600  -34.9010 C   0  0  0  0  0  0  0  0  0  0  0  0
   -5.6490   16.9830  -34.2820 C   0  0  0  0  0  0  0  0  0  0  0  0
   -5.8230   17.3790  -32.8760 N   0  0  0  0  0  0  0  0  0  0  0  0
   -7.2330   17.6070  -32.5200 C   0  0  0  0  0  0  0  0  0  0  0  0
   -7.4510   19.0680  -32.0780 C   0  0  0  0  0  0  0  0  0  0  0  0
   -8.9190   19.2870  -31.6250 C   0  0  0  0  0  0  0  0  0  0  0  0
   -9.4710   20.6930  -31.9400 C   0  0  0  0  0  0  0  0  0  0  0  0
   -8.4120   21.8190  -31.8050 C   0  0  0  0  0  0  0  0  0  0  0  0
   -9.0520   23.1490  -32.2620 C   0  0  0  0  0  0  0  0  0  0  0  0
   -8.0040   21.9760  -30.3210 C   0  0  0  0  0  0  0  0  0  0  0  0
   -7.1550   21.5190  -32.6890 C   0  0  0  0  0  0  0  0  0  0  0  0
   -7.0580   20.0640  -33.1840 C   0  0  0  0  0  0  0  0  0  0  0  0
    1.3677   21.3407  -35.5594 H   0  0  0  0  0  0  0  0  0  0  0  0
    0.0302   20.3077  -36.1684 H   0  0  0  0  0  0  0  0  0  0  0  0
   -0.1443   22.0955  -36.1684 H   0  0  0  0  0  0  0  0  0  0  0  0
    0.4508   21.4649  -33.4943 H   0  0  0  0  0  0  0  0  0  0  0  0
   -1.1725   21.8680  -34.1725 H   0  0  0  0  0  0  0  0  0  0  0  0
   -1.2050   19.7930  -32.9590 H   0  0  0  0  0  0  0  0  0  0  0  0
    0.3286   18.5208  -35.1261 H   0  0  0  0  0  0  0  0  0  0  0  0
    1.1766   19.2157  -33.6548 H   0  0  0  0  0  0  0  0  0  0  0  0
   -0.5270   16.7678  -33.9195 H   0  0  0  0  0  0  0  0  0  0  0  0
    0.9526   17.1046  -32.9142 H   0  0  0  0  0  0  0  0  0  0  0  0
   -1.2370   18.6920  -32.1090 H   0  0  0  0  0  0  0  0  0  0  0  0
   -1.6480   17.0300  -32.0590 H   0  0  0  0  0  0  0  0  0  0  0  0
   -0.7343   17.2839  -30.0197 H   0  0  0  0  0  0  0  0  0  0  0  0
    0.6938   16.7888  -31.0229 H   0  0  0  0  0  0  0  0  0  0  0  0
    0.4962   19.0723  -29.4023 H   0  0  0  0  0  0  0  0  0  0  0  0
    1.7335   18.7245  -30.6967 H   0  0  0  0  0  0  0  0  0  0  0  0
   -0.6200   19.7900  -31.8400 H   0  0  0  0  0  0  0  0  0  0  0  0
    0.1933   20.9958  -29.3753 H   0  0  0  0  0  0  0  0  0  0  0  0
    0.3469   22.0843  -30.8121 H   0  0  0  0  0  0  0  0  0  0  0  0
   -2.0210   21.4220  -29.3569 H   0  0  0  0  0  0  0  0  0  0  0  0
   -1.8671   22.4006  -30.8664 H   0  0  0  0  0  0  0  0  0  0  0  0
   -1.8560   20.2150  -32.0600 H   0  0  0  0  0  0  0  0  0  0  0  0
   -4.3814   19.8120  -31.1888 H   0  0  0  0  0  0  0  0  0  0  0  0
   -4.0475   21.5488  -30.7754 H   0  0  0  0  0  0  0  0  0  0  0  0
   -5.0433   21.4756  -32.9812 H   0  0  0  0  0  0  0  0  0  0  0  0
   -3.2897   21.8932  -33.1430 H   0  0  0  0  0  0  0  0  0  0  0  0
   -4.7800   19.6106  -34.2365 H   0  0  0  0  0  0  0  0  0  0  0  0
   -3.1415   20.2245  -34.6485 H   0  0  0  0  0  0  0  0  0  0  0  0
   -2.2080   19.0580  -32.8950 H   0  0  0  0  0  0  0  0  0  0  0  0
   -2.2491   17.5021  -34.4496 H   0  0  0  0  0  0  0  0  0  0  0  0
   -3.3144   16.7097  -33.2220 H   0  0  0  0  0  0  0  0  0  0  0  0
   -4.5555   18.5917  -35.2294 H   0  0  0  0  0  0  0  0  0  0  0  0
   -4.0746   16.9212  -35.7495 H   0  0  0  0  0  0  0  0  0  0  0  0
   -6.5117   17.3455  -34.8602 H   0  0  0  0  0  0  0  0  0  0  0  0
   -5.5737   15.8860  -34.3141 H   0  0  0  0  0  0  0  0  0  0  0  0
   -5.2780   18.2580  -32.7030 H   0  0  0  0  0  0  0  0  0  0  0  0
   -7.8656   17.3956  -33.3947 H   0  0  0  0  0  0  0  0  0  0  0  0
   -7.5010   16.9404  -31.6870 H   0  0  0  0  0  0  0  0  0  0  0  0
   -6.7901   19.2598  -31.2199 H   0  0  0  0  0  0  0  0  0  0  0  0
   -9.5521   18.5451  -32.1337 H   0  0  0  0  0  0  0  0  0  0  0  0
   -8.9335   19.1778  -30.5305 H   0  0  0  0  0  0  0  0  0  0  0  0
   -9.8510   20.6945  -32.9723 H   0  0  0  0  0  0  0  0  0  0  0  0
  -10.2611   20.9024  -31.2039 H   0  0  0  0  0  0  0  0  0  0  0  0
   -9.3369   23.7410  -31.3798 H   0  0  0  0  0  0  0  0  0  0  0  0
   -8.3281   23.7159  -32.8658 H   0  0  0  0  0  0  0  0  0  0  0  0
   -9.9467   22.9370  -32.8658 H   0  0  0  0  0  0  0  0  0  0  0  0
   -8.8358   21.6559  -29.6762 H   0  0  0  0  0  0  0  0  0  0  0  0
   -7.1205   21.3536  -30.1158 H   0  0  0  0  0  0  0  0  0  0  0  0
   -7.7656   23.0301  -30.1158 H   0  0  0  0  0  0  0  0  0  0  0  0
   -7.1867   22.1800  -33.5677 H   0  0  0  0  0  0  0  0  0  0  0  0
   -6.2748   21.6935  -32.0527 H   0  0  0  0  0  0  0  0  0  0  0  0
   -7.7340   19.9318  -34.0416 H   0  0  0  0  0  0  0  0  0  0  0  0
   -6.0158   19.8656  -33.4747 H   0  0  0  0  0  0  0  0  0  0  0  0
  1  2  1  0
  2  3  1  0
  3  4  1  0
  4  5  1  0
  5  6  1  0
  6  7  1  0
  7  8  1  0
  8  9  1  0
  9 10  1  0
 10 11  1  0
 11 12  1  0
 12 13  1  0
 13 14  1  0
 14 15  1  0
 15 16  1  0
 16 17  1  0
 17 18  1  0
 18 19  1  0
 19 20  1  0
 20 21  1  0
 21 22  1  0
 22 23  1  0
 23 24  1  0
 24 25  1  0
 25 26  1  0
 25 27  1  0
 25 28  1  0
 28 29  1  0
 29 22  1  0
  1 30  1  0
  1 31  1  0
  1 32  1  0
  2 33  1  0
  2 34  1  0
  3 35  1  0
  4 36  1  0
  4 37  1  0
  5 38  1  0
  5 39  1  0
  6 40  1  0
  6 41  1  0
  7 42  1  0
  7 43  1  0
  8 44  1  0
  8 45  1  0
  9 46  1  0
 10 47  1  0
 10 48  1  0
 11 49  1  0
 11 50  1  0
 12 51  1  0
 13 52  1  0
 13 53  1  0
 14 54  1  0
 14 55  1  0
 15 56  1  0
 15 57  1  0
 16 58  1  0
 17 59  1  0
 17 60  1  0
 18 61  1  0
 18 62  1  0
 19 63  1  0
 19 64  1  0
 20 65  1  0
 21 66  1  0
 21 67  1  0
 22 68  1  0
 23 69  1  0
 23 70  1  0
 24 71  1  0
 24 72  1  0
 26 73  1  0
 26 74  1  0
 26 75  1  0
 27 76  1  0
 27 77  1  0
 27 78  1  0
 28 79  1  0
 28 80  1  0
 29 81  1  0
 29 82  1  0
M  CHG  1   6   1
M  END
>  <UniqueID>  (25) 
25

>  <SMILES>  (25) 
CCNCC[NH2+]CCNCCNCCCNCCCNCC1CCC(C)(C)CC1

>  <Energy>  (25) 
70.83699878209742

>  <Genealogy>  (25) 
CCNCC[NH2+]CCNCCNCCCNCCCNCC1CCC(C)(C)CC1 (protonated)
CCNCC[NH2+]CCNCCNCCCNCCCNCC1CCC(C)(C)CC1 (3D coordinates assigned)
CCNCC[NH2+]CCNCCNCCCNCCCNCC1CCC(C)(C)CC1 (nonaromatic ring conformer: 70.83699878209742 kcal/mol)

>  <smiles>  (25) 
CCNCCNCCNCCNCCCNCCCNCC1CCC(C)(C)CC1

>  <score_type>  (25) 
oracle

>  <origin>  (25) 
adg

>  <m_score__min__energy>  (25) 
-7.9699999999999998

>  <m_primary>  (25) 
energy

$$$$
25:0
     RDKit          3D

 38 40  0  0  0  0  0  0  0  0999 V2000
   -2.2870   22.8030  -29.3950 C   0  0  0  0  0  0  0  0  0  0  0  0
   -3.5120   23.5310  -29.8340 C   0  0  0  0  0  0  0  0  0  0  0  0
   -3.4970   24.5530  -30.7110 N   0  0  0  0  0  0  0  0  0  0  0  0
   -4.7450   24.8740  -30.8650 O   0  0  0  0  0  0  0  0  0  0  0  0
   -5.4960   24.0880  -30.1330 C   0  0  0  0  0  0  0  0  0  0  0  0
   -6.9940   24.1890  -30.0500 C   0  0  0  0  0  0  0  0  0  0  0  0
   -7.6840   23.3410  -31.0460 N   0  0  0  0  0  0  0  0  0  0  0  0
   -8.0540   22.0140  -30.4990 C   0  0  0  0  0  0  0  0  0  0  0  0
   -8.5490   21.0670  -31.5990 C   0  0  0  0  0  0  0  0  0  0  0  0
   -7.4980   20.8690  -32.7240 C   0  0  0  0  0  0  0  0  0  0  0  0
   -6.8810   19.4810  -32.6970 C   0  0  0  0  0  0  0  0  0  0  0  0
   -7.0590   18.6250  -31.5960 C   0  0  0  0  0  0  0  0  0  0  0  0
   -6.4720   17.3580  -31.6010 C   0  0  0  0  0  0  0  0  0  0  0  0
   -5.7300   16.9510  -32.6660 N   0  0  0  0  0  0  0  0  0  0  0  0
   -5.5360   17.7580  -33.7430 C   0  0  0  0  0  0  0  0  0  0  0  0
   -6.1060   19.0330  -33.7790 C   0  0  0  0  0  0  0  0  0  0  0  0
   -6.4040   21.9570  -32.7090 C   0  0  0  0  0  0  0  0  0  0  0  0
   -7.0170   23.3220  -32.3730 C   0  0  0  0  0  0  0  0  0  0  0  0
   -4.7590   23.1920  -29.4480 N   0  0  0  0  0  0  0  0  0  0  0  0
   -2.2483   22.7800  -28.2959 H   0  0  0  0  0  0  0  0  0  0  0  0
   -2.3134   21.7739  -29.7826 H   0  0  0  0  0  0  0  0  0  0  0  0
   -1.3957   23.3181  -29.7826 H   0  0  0  0  0  0  0  0  0  0  0  0
   -7.3116   23.8778  -29.0439 H   0  0  0  0  0  0  0  0  0  0  0  0
   -7.2666   25.2337  -30.2604 H   0  0  0  0  0  0  0  0  0  0  0  0
   -7.1720   21.5689  -30.0153 H   0  0  0  0  0  0  0  0  0  0  0  0
   -8.8699   22.1561  -29.7750 H   0  0  0  0  0  0  0  0  0  0  0  0
   -8.7735   20.0888  -31.1488 H   0  0  0  0  0  0  0  0  0  0  0  0
   -9.4451   21.5167  -32.0515 H   0  0  0  0  0  0  0  0  0  0  0  0
   -8.0492   20.9709  -33.6705 H   0  0  0  0  0  0  0  0  0  0  0  0
   -7.6585   18.9522  -30.7337 H   0  0  0  0  0  0  0  0  0  0  0  0
   -6.6101   16.6866  -30.7407 H   0  0  0  0  0  0  0  0  0  0  0  0
   -5.2960   16.0010  -32.6540 H   0  0  0  0  0  0  0  0  0  0  0  0
   -4.9279   17.4056  -34.5892 H   0  0  0  0  0  0  0  0  0  0  0  0
   -5.9483   19.6837  -34.6518 H   0  0  0  0  0  0  0  0  0  0  0  0
   -5.6485   21.7018  -31.9513 H   0  0  0  0  0  0  0  0  0  0  0  0
   -5.9368   22.0091  -33.7035 H   0  0  0  0  0  0  0  0  0  0  0  0
   -6.2170   24.0770  -32.3754 H   0  0  0  0  0  0  0  0  0  0  0  0
   -7.7830   23.5377  -33.1325 H   0  0  0  0  0  0  0  0  0  0  0  0
  1  2  1  0
  2  3  2  0
  3  4  1  0
  4  5  1  0
  5  6  1  0
  6  7  1  0
  7  8  1  0
  8  9  1  0
  9 10  1  0
 10 11  1  0
 11 12  2  0
 12 13  1  0
 13 14  2  0
 14 15  1  0
 15 16  2  0
 10 17  1  0
 17 18  1  0
  5 19  2  0
 19  2  1  0
 18  7  1  0
 16 11  1  0
  1 20  1  0
  1 21  1  0
  1 22  1  0
  6 23  1  0
  6 24  1  0
  8 25  1  0
  8 26  1  0
  9 27  1  0
  9 28  1  0
 10 29  1  0
 12 30  1  0
 13 31  1  0
 14 32  1  0
 15 33  1  0
 16 34  1  0
 17 35  1  0
 17 36  1  0
 18 37  1  0
 18 38  1  0
M  CHG  1  14   1
M  END
>  <UniqueID>  (26) 
26

>  <SMILES>  (26) 
Cc1noc(CN2CCC(c3cc[nH+]cc3)CC2)n1

>  <Energy>  (26) 
80.07338882412967

>  <Genealogy>  (26) 
Cc1noc(CN2CCC(c3cc[nH+]cc3)CC2)n1 (protonated)
Cc1noc(CN2CCC(c3cc[nH+]cc3)CC2)n1 (3D coordinates assigned)
Cc1noc(CN2CCC(c3cc[nH+]cc3)CC2)n1 (nonaromatic ring conformer: 80.07338882412967 kcal/mol)

>  <smiles>  (26) 
Cc1noc(CN2CCC(c3ccncc3)CC2)n1

>  <score_type>  (26) 
oracle

>  <origin>  (26) 
adg

>  <m_score__min__energy>  (26) 
-7.5899999999999999

>  <m_primary>  (26) 
energy

$$$$
26:0
     RDKit          3D

 51 54  0  0  0  0  0  0  0  0999 V2000
   -1.1470   18.2610  -31.9440 C   0  0  0  0  0  0  0  0  0  0  0  0
   -1.9900   19.4090  -32.2810 N   0  0  0  0  0  0  0  0  0  0  0  0
   -2.9240   19.4960  -33.2700 C   0  0  0  0  0  0  0  0  0  0  0  0
   -3.2570   18.3870  -34.2270 C   0  0  0  0  0  0  0  0  0  0  0  0
   -4.6770   18.4340  -34.5760 N   0  0  0  0  0  0  0  0  0  0  0  0
   -5.7570   18.4610  -33.6190 C   0  0  0  0  0  0  0  0  0  0  0  0
   -6.8130   19.3920  -33.7080 C   0  0  0  0  0  0  0  0  0  0  0  0
   -7.8550   19.3720  -32.7760 C   0  0  0  0  0  0  0  0  0  0  0  0
   -7.8580   18.4270  -31.7480 C   0  0  0  0  0  0  0  0  0  0  0  0
   -8.8790   18.3940  -30.8590 F   0  0  0  0  0  0  0  0  0  0  0  0
   -6.8130   17.5040  -31.6460 C   0  0  0  0  0  0  0  0  0  0  0  0
   -5.7690   17.5210  -32.5760 C   0  0  0  0  0  0  0  0  0  0  0  0
   -3.6200   20.6630  -33.2490 N   0  0  0  0  0  0  0  0  0  0  0  0
   -3.0900   21.3180  -32.2020 C   0  0  0  0  0  0  0  0  0  0  0  0
   -3.4770   22.5570  -31.6970 C   0  0  0  0  0  0  0  0  0  0  0  0
   -2.8180   23.0370  -30.5470 C   0  0  0  0  0  0  0  0  0  0  0  0
   -3.3240   24.5650  -29.8270 S   0  0  0  0  0  0  0  0  0  0  0  0
   -2.1430   25.2560  -29.2040 O   0  0  0  0  0  0  0  0  0  0  0  0
   -3.8700   25.4520  -30.9100 O   0  0  0  0  0  0  0  0  0  0  0  0
   -4.5600   24.3090  -28.6270 N   0  0  0  0  0  0  0  0  0  0  0  0
   -5.8520   24.8550  -29.0570 C   0  0  0  0  0  0  0  0  0  0  0  0
   -6.4940   23.9760  -30.0990 C   0  0  0  0  0  0  0  0  0  0  0  0
   -7.1980   22.8230  -29.7150 C   0  0  0  0  0  0  0  0  0  0  0  0
   -7.7640   21.9870  -30.6820 C   0  0  0  0  0  0  0  0  0  0  0  0
   -7.6330   22.2960  -32.0380 C   0  0  0  0  0  0  0  0  0  0  0  0
   -6.9560   23.4560  -32.4280 C   0  0  0  0  0  0  0  0  0  0  0  0
   -6.3890   24.2930  -31.4640 C   0  0  0  0  0  0  0  0  0  0  0  0
   -1.7950   22.2650  -29.9440 C   0  0  0  0  0  0  0  0  0  0  0  0
   -1.4390   21.0110  -30.4710 C   0  0  0  0  0  0  0  0  0  0  0  0
   -2.1140   20.5700  -31.6120 C   0  0  0  0  0  0  0  0  0  0  0  0
   -1.0771   18.1659  -30.8503 H   0  0  0  0  0  0  0  0  0  0  0  0
   -1.5891   17.3456  -32.3642 H   0  0  0  0  0  0  0  0  0  0  0  0
   -0.1412   18.4088  -32.3642 H   0  0  0  0  0  0  0  0  0  0  0  0
   -2.6540   18.5008  -35.1399 H   0  0  0  0  0  0  0  0  0  0  0  0
   -3.0351   17.4209  -33.7501 H   0  0  0  0  0  0  0  0  0  0  0  0
   -4.9160   18.3410  -35.5890 H   0  0  0  0  0  0  0  0  0  0  0  0
   -6.8167   20.1385  -34.5159 H   0  0  0  0  0  0  0  0  0  0  0  0
   -8.6741   20.1022  -32.8527 H   0  0  0  0  0  0  0  0  0  0  0  0
   -6.8121   16.7632  -30.8328 H   0  0  0  0  0  0  0  0  0  0  0  0
   -4.9500   16.7917  -32.4898 H   0  0  0  0  0  0  0  0  0  0  0  0
   -4.2724   23.1430  -32.1807 H   0  0  0  0  0  0  0  0  0  0  0  0
   -4.2610   24.8350  -27.7730 H   0  0  0  0  0  0  0  0  0  0  0  0
   -6.5198   24.9255  -28.1858 H   0  0  0  0  0  0  0  0  0  0  0  0
   -5.6819   25.8492  -29.4960 H   0  0  0  0  0  0  0  0  0  0  0  0
   -7.3045   22.5766  -28.6483 H   0  0  0  0  0  0  0  0  0  0  0  0
   -8.3132   21.0848  -30.3747 H   0  0  0  0  0  0  0  0  0  0  0  0
   -8.0621   21.6273  -32.7987 H   0  0  0  0  0  0  0  0  0  0  0  0
   -6.8699   23.7095  -33.4949 H   0  0  0  0  0  0  0  0  0  0  0  0
   -5.8577   25.2047  -31.7749 H   0  0  0  0  0  0  0  0  0  0  0  0
   -1.2741   22.6501  -29.0550 H   0  0  0  0  0  0  0  0  0  0  0  0
   -0.6558   20.3981  -30.0010 H   0  0  0  0  0  0  0  0  0  0  0  0
  1  2  1  0
  2  3  1  0
  3  4  1  0
  4  5  1  0
  5  6  1  0
  6  7  2  0
  7  8  1  0
  8  9  2  0
  9 10  1  0
  9 11  1  0
 11 12  2  0
  3 13  2  0
 13 14  1  0
 14 15  2  0
 15 16  1  0
 16 17  1  0
 17 18  2  0
 17 19  2  0
 17 20  1  0
 20 21  1  0
 21 22  1  0
 22 23  2  0
 23 24  1  0
 24 25  2  0
 25 26  1  0
 26 27  2  0
 16 28  2  0
 28 29  1  0
 29 30  2  0
 30  2  1  0
 12  6  1  0
 30 14  1  0
 27 22  1  0
  1 31  1  0
  1 32  1  0
  1 33  1  0
  4 34  1  0
  4 35  1  0
  5 36  1  0
  7 37  1  0
  8 38  1  0
 11 39  1  0
 12 40  1  0
 15 41  1  0
 20 42  1  0
 21 43  1  0
 21 44  1  0
 23 45  1  0
 24 46  1  0
 25 47  1  0
 26 48  1  0
 27 49  1  0
 28 50  1  0
 29 51  1  0
M  END
>  <UniqueID>  (27) 
27

>  <SMILES>  (27) 
Cn1c(CNc2ccc(F)cc2)nc2cc(S(=O)(=O)NCc3ccccc3)ccc21

>  <Energy>  (27) 
90.28032644828022

>  <Genealogy>  (27) 
Cn1c(CNc2ccc(F)cc2)nc2cc(S(=O)(=O)NCc3ccccc3)ccc21 (3D coordinates assigned)
Cn1c(CNc2ccc(F)cc2)nc2cc(S(=O)(=O)NCc3ccccc3)ccc21 (optimized conformer: 90.28032644828022 kcal/mol)

>  <smiles>  (27) 
Cn1c(CNc2ccc(F)cc2)nc2cc(S(=O)(=O)NCc3ccccc3)ccc21

>  <score_type>  (27) 
oracle

>  <origin>  (27) 
adg

>  <m_score__min__energy>  (27) 
-9.7699999999999996

>  <m_primary>  (27) 
energy

$$$$
