0:0
     RDKit          3D

 60 62  0  0  0  0  0  0  0  0999 V2000
   -1.7420   25.9040  -26.2250 C   0  0  0  0  0  0  0  0  0  0  0  0
   -0.9020   26.3830  -27.3980 C   0  0  0  0  0  0  0  0  0  0  0  0
   -1.5820   26.0950  -28.6030 O   0  0  0  0  0  0  0  0  0  0  0  0
   -2.3900   24.9430  -28.4460 C   0  0  0  0  0  0  0  0  0  0  0  0
   -2.9480   24.5010  -29.7650 C   0  0  0  0  0  0  0  0  0  0  0  0
   -3.7700   25.2350  -30.3770 O   0  0  0  0  0  0  0  0  0  0  0  0
   -2.5800   23.2230  -30.2950 N   0  0  0  0  0  0  0  0  0  0  0  0
   -2.4450   22.0240  -29.4770 C   0  0  0  0  0  0  0  0  0  0  0  0
   -2.0670   20.8290  -30.3450 C   0  0  0  0  0  0  0  0  0  0  0  0
   -2.5030   21.0600  -31.6820 O   0  0  0  0  0  0  0  0  0  0  0  0
   -3.3880   20.2320  -32.3910 C   0  0  0  0  0  0  0  0  0  0  0  0
   -3.2400   18.8310  -32.4060 C   0  0  0  0  0  0  0  0  0  0  0  0
   -4.1450   18.0260  -33.1110 C   0  0  0  0  0  0  0  0  0  0  0  0
   -4.0040   16.6280  -33.1180 C   0  0  0  0  0  0  0  0  0  0  0  0
   -4.9160   15.8350  -33.8210 C   0  0  0  0  0  0  0  0  0  0  0  0
   -5.9690   16.4280  -34.5230 C   0  0  0  0  0  0  0  0  0  0  0  0
   -6.1180   17.8170  -34.5250 C   0  0  0  0  0  0  0  0  0  0  0  0
   -5.2110   18.6250  -33.8210 C   0  0  0  0  0  0  0  0  0  0  0  0
   -5.3540   20.0170  -33.8130 C   0  0  0  0  0  0  0  0  0  0  0  0
   -4.4510   20.8250  -33.1020 C   0  0  0  0  0  0  0  0  0  0  0  0
   -4.6440   22.3270  -33.0930 C   0  0  0  0  0  0  0  0  0  0  0  0
   -4.6230   22.8910  -31.7300 N   0  0  0  0  0  0  0  0  0  0  0  0
   -5.9330   23.3800  -31.2510 C   0  0  0  0  0  0  0  0  0  0  0  0
   -6.6720   22.3900  -30.3300 C   0  0  0  0  0  0  0  0  0  0  0  0
   -7.6290   21.5040  -31.0860 C   0  0  0  0  0  0  0  0  0  0  0  0
   -7.3060   20.1610  -31.3450 C   0  0  0  0  0  0  0  0  0  0  0  0
   -8.1890   19.3500  -32.0640 C   0  0  0  0  0  0  0  0  0  0  0  0
   -9.3970   19.8720  -32.5320 C   0  0  0  0  0  0  0  0  0  0  0  0
   -9.7230   21.2080  -32.2840 C   0  0  0  0  0  0  0  0  0  0  0  0
   -8.8430   22.0230  -31.5660 C   0  0  0  0  0  0  0  0  0  0  0  0
   -1.2494   26.1849  -25.2824 H   0  0  0  0  0  0  0  0  0  0  0  0
   -2.7371   26.3705  -26.2719 H   0  0  0  0  0  0  0  0  0  0  0  0
   -1.8473   24.8101  -26.2719 H   0  0  0  0  0  0  0  0  0  0  0  0
   -0.7407   27.4681  -27.3165 H   0  0  0  0  0  0  0  0  0  0  0  0
    0.0711   25.8701  -27.3904 H   0  0  0  0  0  0  0  0  0  0  0  0
   -1.7817   24.1309  -28.0213 H   0  0  0  0  0  0  0  0  0  0  0  0
   -3.2255   25.1871  -27.7735 H   0  0  0  0  0  0  0  0  0  0  0  0
   -1.6613   22.1863  -28.7223 H   0  0  0  0  0  0  0  0  0  0  0  0
   -3.4067   21.8176  -28.9845 H   0  0  0  0  0  0  0  0  0  0  0  0
   -0.9750   20.6968  -30.3325 H   0  0  0  0  0  0  0  0  0  0  0  0
   -2.5492   19.9217  -29.9522 H   0  0  0  0  0  0  0  0  0  0  0  0
   -2.4068   18.3649  -31.8596 H   0  0  0  0  0  0  0  0  0  0  0  0
   -3.1750   16.1568  -32.5696 H   0  0  0  0  0  0  0  0  0  0  0  0
   -4.8044   14.7407  -33.8216 H   0  0  0  0  0  0  0  0  0  0  0  0
   -6.6826   15.7991  -35.0756 H   0  0  0  0  0  0  0  0  0  0  0  0
   -6.9481   18.2789  -35.0796 H   0  0  0  0  0  0  0  0  0  0  0  0
   -6.1812   20.4829  -34.3686 H   0  0  0  0  0  0  0  0  0  0  0  0
   -3.8363   22.7900  -33.6789 H   0  0  0  0  0  0  0  0  0  0  0  0
   -5.6319   22.5397  -33.5276 H   0  0  0  0  0  0  0  0  0  0  0  0
   -4.2860   22.1570  -31.0650 H   0  0  0  0  0  0  0  0  0  0  0  0
   -3.9240   23.6670  -31.6970 H   0  0  0  0  0  0  0  0  0  0  0  0
   -5.7710   24.3151  -30.6948 H   0  0  0  0  0  0  0  0  0  0  0  0
   -6.5651   23.5206  -32.1402 H   0  0  0  0  0  0  0  0  0  0  0  0
   -5.9286   21.7561  -29.8244 H   0  0  0  0  0  0  0  0  0  0  0  0
   -7.2588   22.9780  -29.6089 H   0  0  0  0  0  0  0  0  0  0  0  0
   -6.3546   19.7463  -30.9805 H   0  0  0  0  0  0  0  0  0  0  0  0
   -7.9319   18.2989  -32.2615 H   0  0  0  0  0  0  0  0  0  0  0  0
  -10.0915   19.2317  -33.0956 H   0  0  0  0  0  0  0  0  0  0  0  0
  -10.6737   21.6191  -32.6544 H   0  0  0  0  0  0  0  0  0  0  0  0
   -9.1022   23.0750  -31.3761 H   0  0  0  0  0  0  0  0  0  0  0  0
  1  2  1  0
  2  3  1  0
  3  4  1  0
  4  5  1  0
  5  6  2  0
  5  7  1  0
  7  8  1  0
  8  9  1  0
  9 10  1  0
 10 11  1  0
 11 12  2  0
 12 13  1  0
 13 14  2  0
 14 15  1  0
 15 16  2  0
 16 17  1  0
 17 18  2  0
 18 19  1  0
 19 20  2  0
 20 21  1  0
 21 22  1  0
 22 23  1  0
 23 24  1  0
 24 25  1  0
 25 26  2  0
 26 27  1  0
 27 28  2  0
 28 29  1  0
 29 30  2  0
 20 11  1  0
 30 25  1  0
 18 13  1  0
  1 31  1  0
  1 32  1  0
  1 33  1  0
  2 34  1  0
  2 35  1  0
  4 36  1  0
  4 37  1  0
  8 38  1  0
  8 39  1  0
  9 40  1  0
  9 41  1  0
 12 42  1  0
 14 43  1  0
 15 44  1  0
 16 45  1  0
 17 46  1  0
 19 47  1  0
 21 48  1  0
 21 49  1  0
 22 50  1  0
 22 51  1  0
 23 52  1  0
 23 53  1  0
 24 54  1  0
 24 55  1  0
 26 56  1  0
 27 57  1  0
 28 58  1  0
 29 59  1  0
 30 60  1  0
M  CHG  2   7  -1  22   1
M  END
>  <UniqueID>  (1) 
1

>  <SMILES>  (1) 
CCOCC(=O)[N-]CCOc1cc2ccccc2cc1C[NH2+]CCc1ccccc1

>  <Energy>  (1) 
57.411796267878486

>  <Genealogy>  (1) 
CCOCC(=O)[N-]CCOc1cc2ccccc2cc1C[NH2+]CCc1ccccc1 (protonated)
CCOCC(=O)[N-]CCOc1cc2ccccc2cc1C[NH2+]CCc1ccccc1 (3D coordinates assigned)
CCOCC(=O)[N-]CCOc1cc2ccccc2cc1C[NH2+]CCc1ccccc1 (optimized conformer: 57.411796267878486 kcal/mol)

>  <smiles>  (1) 
CCOCC(=O)NCCOc1cc2ccccc2cc1CNCCc1ccccc1

>  <score_type>  (1) 
oracle

>  <origin>  (1) 
adg

>  <m_score__min__energy>  (1) 
-9.5

>  <m_primary>  (1) 
energy

$$$$
1:0
     RDKit          3D

 51 54  0  0  0  0  0  0  0  0999 V2000
   -9.4810   23.0230  -32.0130 C   0  0  0  0  0  0  0  0  0  0  0  0
   -8.6560   21.8200  -31.9410 N   0  0  0  0  0  0  0  0  0  0  0  0
   -9.0640   20.5860  -32.2940 C   0  0  0  0  0  0  0  0  0  0  0  0
   -8.0430   19.6770  -32.0830 C   0  0  0  0  0  0  0  0  0  0  0  0
   -8.0920   18.1920  -32.3440 C   0  0  0  0  0  0  0  0  0  0  0  0
   -6.8660   17.6490  -32.9830 N   0  0  0  0  0  0  0  0  0  0  0  0
   -5.7580   17.4820  -32.0040 C   0  0  0  0  0  0  0  0  0  0  0  0
   -4.4010   17.3160  -32.6960 C   0  0  0  0  0  0  0  0  0  0  0  0
   -4.1270   18.4780  -33.5500 N   0  0  0  0  0  0  0  0  0  0  0  0
   -2.7700   18.8120  -33.9100 C   0  0  0  0  0  0  0  0  0  0  0  0
   -1.8840   17.8030  -34.3330 C   0  0  0  0  0  0  0  0  0  0  0  0
   -0.5690   18.1160  -34.6880 C   0  0  0  0  0  0  0  0  0  0  0  0
   -0.1210   19.4360  -34.6200 C   0  0  0  0  0  0  0  0  0  0  0  0
   -0.9860   20.4460  -34.1940 C   0  0  0  0  0  0  0  0  0  0  0  0
   -2.3040   20.1410  -33.8390 C   0  0  0  0  0  0  0  0  0  0  0  0
   -3.1090   21.1390  -33.3940 F   0  0  0  0  0  0  0  0  0  0  0  0
   -5.2540   19.2760  -34.0500 C   0  0  0  0  0  0  0  0  0  0  0  0
   -6.4890   18.3800  -34.2290 C   0  0  0  0  0  0  0  0  0  0  0  0
   -6.9730   20.3860  -31.5690 C   0  0  0  0  0  0  0  0  0  0  0  0
   -7.3740   21.7100  -31.5170 C   0  0  0  0  0  0  0  0  0  0  0  0
   -6.5190   22.8250  -31.0510 C   0  0  0  0  0  0  0  0  0  0  0  0
   -5.1260   22.7920  -31.2380 C   0  0  0  0  0  0  0  0  0  0  0  0
   -4.3280   23.8440  -30.7760 C   0  0  0  0  0  0  0  0  0  0  0  0
   -4.9090   24.9290  -30.1170 C   0  0  0  0  0  0  0  0  0  0  0  0
   -6.2910   24.9610  -29.9110 C   0  0  0  0  0  0  0  0  0  0  0  0
   -7.0930   23.9120  -30.3700 C   0  0  0  0  0  0  0  0  0  0  0  0
   -9.7170   23.3672  -30.9952 H   0  0  0  0  0  0  0  0  0  0  0  0
   -8.9330   23.8119  -32.5490 H   0  0  0  0  0  0  0  0  0  0  0  0
  -10.4144   22.7960  -32.5490 H   0  0  0  0  0  0  0  0  0  0  0  0
  -10.0597   20.3382  -32.6906 H   0  0  0  0  0  0  0  0  0  0  0  0
   -8.2382   17.6768  -31.3832 H   0  0  0  0  0  0  0  0  0  0  0  0
   -8.9198   18.0202  -33.0477 H   0  0  0  0  0  0  0  0  0  0  0  0
   -7.1230   16.6780  -33.2860 H   0  0  0  0  0  0  0  0  0  0  0  0
   -5.7199   18.3699  -31.3558 H   0  0  0  0  0  0  0  0  0  0  0  0
   -5.9552   16.5711  -31.4197 H   0  0  0  0  0  0  0  0  0  0  0  0
   -3.6120   17.2296  -31.9344 H   0  0  0  0  0  0  0  0  0  0  0  0
   -4.4213   16.4084  -33.3171 H   0  0  0  0  0  0  0  0  0  0  0  0
   -2.2295   16.7599  -34.3845 H   0  0  0  0  0  0  0  0  0  0  0  0
    0.1139   17.3208  -35.0215 H   0  0  0  0  0  0  0  0  0  0  0  0
    0.9137   19.6808  -34.9020 H   0  0  0  0  0  0  0  0  0  0  0  0
   -0.6296   21.4851  -34.1374 H   0  0  0  0  0  0  0  0  0  0  0  0
   -5.4839   20.0746  -33.3293 H   0  0  0  0  0  0  0  0  0  0  0  0
   -4.9831   19.7181  -35.0201 H   0  0  0  0  0  0  0  0  0  0  0  0
   -7.3371   19.0096  -34.5360 H   0  0  0  0  0  0  0  0  0  0  0  0
   -6.2403   17.6257  -34.9900 H   0  0  0  0  0  0  0  0  0  0  0  0
   -5.9980   19.9793  -31.2626 H   0  0  0  0  0  0  0  0  0  0  0  0
   -4.6619   21.9358  -31.7495 H   0  0  0  0  0  0  0  0  0  0  0  0
   -3.2395   23.8162  -30.9324 H   0  0  0  0  0  0  0  0  0  0  0  0
   -4.2798   25.7578  -29.7603 H   0  0  0  0  0  0  0  0  0  0  0  0
   -6.7484   25.8131  -29.3868 H   0  0  0  0  0  0  0  0  0  0  0  0
   -8.1790   23.9376  -30.1972 H   0  0  0  0  0  0  0  0  0  0  0  0
  1  2  1  0
  2  3  1  0
  3  4  2  0
  4  5  1  0
  5  6  1  0
  6  7  1  0
  7  8  1  0
  8  9  1  0
  9 10  1  0
 10 11  2  0
 11 12  1  0
 12 13  2  0
 13 14  1  0
 14 15  2  0
 15 16  1  0
  9 17  1  0
 17 18  1  0
  4 19  1  0
 19 20  2  0
 20 21  1  0
 21 22  2  0
 22 23  1  0
 23 24  2  0
 24 25  1  0
 25 26  2  0
 20  2  1  0
 26 21  1  0
 18  6  1  0
 15 10  1  0
  1 27  1  0
  1 28  1  0
  1 29  1  0
  3 30  1  0
  5 31  1  0
  5 32  1  0
  6 33  1  0
  7 34  1  0
  7 35  1  0
  8 36  1  0
  8 37  1  0
 11 38  1  0
 12 39  1  0
 13 40  1  0
 14 41  1  0
 17 42  1  0
 17 43  1  0
 18 44  1  0
 18 45  1  0
 19 46  1  0
 22 47  1  0
 23 48  1  0
 24 49  1  0
 25 50  1  0
 26 51  1  0
M  CHG  1   6   1
M  END
>  <UniqueID>  (2) 
2

>  <SMILES>  (2) 
Cn1cc(C[NH+]2CCN(c3ccccc3F)CC2)cc1-c1ccccc1

>  <Energy>  (2) 
97.66983704070968

>  <Genealogy>  (2) 
Cn1cc(C[NH+]2CCN(c3ccccc3F)CC2)cc1-c1ccccc1 (protonated)
Cn1cc(C[NH+]2CCN(c3ccccc3F)CC2)cc1-c1ccccc1 (3D coordinates assigned)
Cn1cc(C[NH+]2CCN(c3ccccc3F)CC2)cc1-c1ccccc1 (nonaromatic ring conformer: 97.66983704070968 kcal/mol)

>  <smiles>  (2) 
Cn1cc(CN2CCN(c3ccccc3F)CC2)cc1-c1ccccc1

>  <score_type>  (2) 
oracle

>  <origin>  (2) 
adg

>  <m_score__min__energy>  (2) 
-7.8899999999999997

>  <m_primary>  (2) 
energy

$$$$
2:0
     RDKit          3D

 44 47  0  0  0  0  0  0  0  0999 V2000
   -6.1860   18.1710  -31.6220 C   0  0  0  0  0  0  0  0  0  0  0  0
   -7.5740   18.3860  -32.2350 C   0  0  0  0  0  0  0  0  0  0  0  0
   -7.7420   19.7370  -32.7930 N   0  0  0  0  0  0  0  0  0  0  0  0
   -8.9390   20.4100  -32.2690 C   0  0  0  0  0  0  0  0  0  0  0  0
   -8.5350   21.6220  -31.4250 C   0  0  0  0  0  0  0  0  0  0  0  0
   -7.0910   21.6480  -31.1840 N   0  0  0  0  0  0  0  0  0  0  0  0
   -6.3500   22.8680  -30.9970 C   0  0  0  0  0  0  0  0  0  0  0  0
   -6.8460   24.1300  -31.4070 C   0  0  0  0  0  0  0  0  0  0  0  0
   -6.0860   25.3030  -31.2050 C   0  0  0  0  0  0  0  0  0  0  0  0
   -4.8230   25.2430  -30.5940 C   0  0  0  0  0  0  0  0  0  0  0  0
   -4.3540   23.9930  -30.1970 C   0  0  0  0  0  0  0  0  0  0  0  0
   -5.0900   22.8420  -30.3910 C   0  0  0  0  0  0  0  0  0  0  0  0
   -4.4430   21.7870  -29.9350 O   0  0  0  0  0  0  0  0  0  0  0  0
   -3.2980   22.2230  -29.4480 C   0  0  0  0  0  0  0  0  0  0  0  0
   -2.2890   21.4600  -28.8590 C   0  0  0  0  0  0  0  0  0  0  0  0
   -2.4240   20.0770  -28.7310 O   0  0  0  0  0  0  0  0  0  0  0  0
   -1.1300   22.1310  -28.3980 C   0  0  0  0  0  0  0  0  0  0  0  0
   -0.0800   21.4160  -27.7960 C   0  0  0  0  0  0  0  0  0  0  0  0
    1.0610   22.0820  -27.3430 C   0  0  0  0  0  0  0  0  0  0  0  0
    1.1720   23.4660  -27.4830 C   0  0  0  0  0  0  0  0  0  0  0  0
    0.1420   24.1990  -28.0770 C   0  0  0  0  0  0  0  0  0  0  0  0
   -1.0170   23.5520  -28.5420 C   0  0  0  0  0  0  0  0  0  0  0  0
   -2.0640   24.2900  -29.1440 C   0  0  0  0  0  0  0  0  0  0  0  0
   -1.9820   25.6710  -29.2970 O   0  0  0  0  0  0  0  0  0  0  0  0
   -3.1860   23.5900  -29.5840 C   0  0  0  0  0  0  0  0  0  0  0  0
   -6.2639   18.1831  -30.5248 H   0  0  0  0  0  0  0  0  0  0  0  0
   -5.7864   17.2002  -31.9506 H   0  0  0  0  0  0  0  0  0  0  0  0
   -5.5114   18.9754  -31.9506 H   0  0  0  0  0  0  0  0  0  0  0  0
   -7.7214   17.6512  -33.0402 H   0  0  0  0  0  0  0  0  0  0  0  0
   -8.3160   18.2619  -31.4324 H   0  0  0  0  0  0  0  0  0  0  0  0
   -7.8130   19.6740  -33.8350 H   0  0  0  0  0  0  0  0  0  0  0  0
   -9.5654   20.7444  -33.1091 H   0  0  0  0  0  0  0  0  0  0  0  0
   -9.5017   19.7048  -31.6396 H   0  0  0  0  0  0  0  0  0  0  0  0
   -8.8258   22.5406  -31.9557 H   0  0  0  0  0  0  0  0  0  0  0  0
   -9.0468   21.5535  -30.4537 H   0  0  0  0  0  0  0  0  0  0  0  0
   -6.5690   20.7430  -31.1430 H   0  0  0  0  0  0  0  0  0  0  0  0
   -7.8332   24.1970  -31.8876 H   0  0  0  0  0  0  0  0  0  0  0  0
   -6.4877   26.2742  -31.5298 H   0  0  0  0  0  0  0  0  0  0  0  0
   -4.2246   26.1521  -30.4344 H   0  0  0  0  0  0  0  0  0  0  0  0
   -3.3120   19.6140  -28.8760 H   0  0  0  0  0  0  0  0  0  0  0  0
   -0.1575   20.3248  -27.6810 H   0  0  0  0  0  0  0  0  0  0  0  0
    1.8765   21.5125  -26.8733 H   0  0  0  0  0  0  0  0  0  0  0  0
    2.0747   23.9820  -27.1240 H   0  0  0  0  0  0  0  0  0  0  0  0
    0.2380   25.2898  -28.1818 H   0  0  0  0  0  0  0  0  0  0  0  0
  1  2  1  0
  2  3  1  0
  3  4  1  0
  4  5  1  0
  5  6  1  0
  6  7  1  0
  7  8  2  0
  8  9  1  0
  9 10  2  0
 10 11  1  0
 11 12  2  0
 12 13  1  0
 13 14  1  0
 14 15  2  0
 15 16  1  0
 15 17  1  0
 17 18  2  0
 18 19  1  0
 19 20  2  0
 20 21  1  0
 21 22  2  0
 22 23  1  0
 23 24  1  0
 23 25  2  0
 12  7  1  0
 25 14  1  0
 25 11  1  0
 22 17  1  0
  1 26  1  0
  1 27  1  0
  1 28  1  0
  2 29  1  0
  2 30  1  0
  3 31  1  0
  4 32  1  0
  4 33  1  0
  5 34  1  0
  5 35  1  0
  6 36  1  0
  8 37  1  0
  9 38  1  0
 10 39  1  0
 16 40  1  0
 18 41  1  0
 19 42  1  0
 20 43  1  0
 21 44  1  0
M  CHG  1  24  -1
M  END
>  <UniqueID>  (3) 
3

>  <SMILES>  (3) 
CCNCCNc1cccc2c1oc1c(O)c3ccccc3c([O-])c12

>  <Energy>  (3) 
89.21924342823723

>  <Genealogy>  (3) 
CCNCCNc1cccc2c1oc1c(O)c3ccccc3c([O-])c12 (protonated)
CCNCCNc1cccc2c1oc1c(O)c3ccccc3c([O-])c12 (3D coordinates assigned)
CCNCCNc1cccc2c1oc1c(O)c3ccccc3c([O-])c12 (optimized conformer: 89.21924342823723 kcal/mol)

>  <smiles>  (3) 
CCNCCNc1cccc2c1oc1c(O)c3ccccc3c(O)c12

>  <score_type>  (3) 
oracle

>  <origin>  (3) 
adg

>  <m_score__min__energy>  (3) 
-9.9900000000000002

>  <m_primary>  (3) 
energy

$$$$
3:0
     RDKit          3D

 51 53  0  0  0  0  0  0  0  0999 V2000
   -4.1520   22.5880  -27.8580 C   0  0  0  0  0  0  0  0  0  0  0  0
   -3.1160   21.8990  -28.7550 C   0  0  0  0  0  0  0  0  0  0  0  0
   -2.1990   21.0080  -27.9030 C   0  0  0  0  0  0  0  0  0  0  0  0
   -2.3170   22.9590  -29.5490 C   0  0  0  0  0  0  0  0  0  0  0  0
   -3.1290   24.2180  -29.8920 C   0  0  0  0  0  0  0  0  0  0  0  0
   -4.1340   23.9350  -30.8490 O   0  0  0  0  0  0  0  0  0  0  0  0
   -5.3500   24.5620  -30.4980 C   0  0  0  0  0  0  0  0  0  0  0  0
   -6.4650   24.0490  -31.4050 C   0  0  0  0  0  0  0  0  0  0  0  0
   -5.9220   23.3200  -32.5550 N   0  0  0  0  0  0  0  0  0  0  0  0
   -5.8840   21.8830  -32.5920 C   0  0  0  0  0  0  0  0  0  0  0  0
   -4.6610   21.2140  -32.7610 C   0  0  0  0  0  0  0  0  0  0  0  0
   -3.4420   21.9250  -32.7680 C   0  0  0  0  0  0  0  0  0  0  0  0
   -2.2290   21.2580  -32.9120 C   0  0  0  0  0  0  0  0  0  0  0  0
   -2.2070   19.8730  -33.0340 C   0  0  0  0  0  0  0  0  0  0  0  0
   -3.3990   19.1490  -33.0330 C   0  0  0  0  0  0  0  0  0  0  0  0
   -4.6530   19.8030  -32.9290 C   0  0  0  0  0  0  0  0  0  0  0  0
   -5.8460   19.1050  -32.9770 N   0  0  0  0  0  0  0  0  0  0  0  0
   -5.8630   17.7010  -33.4420 C   0  0  0  0  0  0  0  0  0  0  0  0
   -7.0230   19.7240  -32.6010 C   0  0  0  0  0  0  0  0  0  0  0  0
   -8.2100   18.9860  -32.3580 C   0  0  0  0  0  0  0  0  0  0  0  0
   -9.3950   19.6280  -32.0000 C   0  0  0  0  0  0  0  0  0  0  0  0
   -9.4270   21.0110  -31.8550 C   0  0  0  0  0  0  0  0  0  0  0  0
   -8.2710   21.7600  -32.0540 C   0  0  0  0  0  0  0  0  0  0  0  0
   -7.0620   21.1340  -32.4270 C   0  0  0  0  0  0  0  0  0  0  0  0
   -3.8946   22.4168  -26.8023 H   0  0  0  0  0  0  0  0  0  0  0  0
   -4.1548   23.6685  -28.0642 H   0  0  0  0  0  0  0  0  0  0  0  0
   -5.1495   22.1728  -28.0642 H   0  0  0  0  0  0  0  0  0  0  0  0
   -3.6263   21.2528  -29.4844 H   0  0  0  0  0  0  0  0  0  0  0  0
   -2.3926   21.1961  -26.8366 H   0  0  0  0  0  0  0  0  0  0  0  0
   -2.3998   19.9508  -28.1312 H   0  0  0  0  0  0  0  0  0  0  0  0
   -1.1480   21.2391  -28.1312 H   0  0  0  0  0  0  0  0  0  0  0  0
   -1.4471   23.2605  -28.9470 H   0  0  0  0  0  0  0  0  0  0  0  0
   -2.0275   22.4942  -30.5030 H   0  0  0  0  0  0  0  0  0  0  0  0
   -3.6034   24.5995  -28.9758 H   0  0  0  0  0  0  0  0  0  0  0  0
   -2.4455   24.9681  -30.3165 H   0  0  0  0  0  0  0  0  0  0  0  0
   -5.5933   24.3306  -29.4505 H   0  0  0  0  0  0  0  0  0  0  0  0
   -5.2501   25.6508  -30.6183 H   0  0  0  0  0  0  0  0  0  0  0  0
   -7.1151   23.3751  -30.8278 H   0  0  0  0  0  0  0  0  0  0  0  0
   -7.0344   24.9129  -31.7785 H   0  0  0  0  0  0  0  0  0  0  0  0
   -5.6200   23.8570  -33.3980 H   0  0  0  0  0  0  0  0  0  0  0  0
   -3.4506   23.0195  -32.6583 H   0  0  0  0  0  0  0  0  0  0  0  0
   -1.2875   21.8266  -32.9293 H   0  0  0  0  0  0  0  0  0  0  0  0
   -1.2461   19.3466  -33.1316 H   0  0  0  0  0  0  0  0  0  0  0  0
   -3.3659   18.0525  -33.1142 H   0  0  0  0  0  0  0  0  0  0  0  0
   -5.8712   17.0269  -32.5728 H   0  0  0  0  0  0  0  0  0  0  0  0
   -6.7633   17.5268  -34.0495 H   0  0  0  0  0  0  0  0  0  0  0  0
   -4.9672   17.5051  -34.0495 H   0  0  0  0  0  0  0  0  0  0  0  0
   -8.1954   17.8902  -32.4535 H   0  0  0  0  0  0  0  0  0  0  0  0
  -10.3082   19.0383  -31.8316 H   0  0  0  0  0  0  0  0  0  0  0  0
  -10.3670   21.5133  -31.5827 H   0  0  0  0  0  0  0  0  0  0  0  0
   -8.2997   22.8513  -31.9192 H   0  0  0  0  0  0  0  0  0  0  0  0
  1  2  1  0
  2  3  1  0
  2  4  1  0
  4  5  1  0
  5  6  1  0
  6  7  1  0
  7  8  1  0
  8  9  1  0
  9 10  1  0
 10 11  2  0
 11 12  1  0
 12 13  2  0
 13 14  1  0
 14 15  2  0
 15 16  1  0
 16 17  2  0
 17 18  1  0
 17 19  1  0
 19 20  2  0
 20 21  1  0
 21 22  2  0
 22 23  1  0
 23 24  2  0
 24 10  1  0
 16 11  1  0
 24 19  1  0
  1 25  1  0
  1 26  1  0
  1 27  1  0
  2 28  1  0
  3 29  1  0
  3 30  1  0
  3 31  1  0
  4 32  1  0
  4 33  1  0
  5 34  1  0
  5 35  1  0
  7 36  1  0
  7 37  1  0
  8 38  1  0
  8 39  1  0
  9 40  1  0
 12 41  1  0
 13 42  1  0
 14 43  1  0
 15 44  1  0
 18 45  1  0
 18 46  1  0
 18 47  1  0
 20 48  1  0
 21 49  1  0
 22 50  1  0
 23 51  1  0
M  CHG  1  17   1
M  END
>  <UniqueID>  (4) 
4

>  <SMILES>  (4) 
CC(C)CCOCCNc1c2ccccc2[n+](C)c2ccccc12

>  <Energy>  (4) 
71.06257382395117

>  <Genealogy>  (4) 
CC(C)CCOCCNc1c2ccccc2[n+](C)c2ccccc12 (3D coordinates assigned)
CC(C)CCOCCNc1c2ccccc2[n+](C)c2ccccc12 (optimized conformer: 71.06257382395117 kcal/mol)

>  <smiles>  (4) 
CC(C)CCOCCNc1c2ccccc2[n+](C)c2ccccc12

>  <score_type>  (4) 
oracle

>  <origin>  (4) 
adg

>  <m_score__min__energy>  (4) 
-8.7899999999999991

>  <m_primary>  (4) 
energy

$$$$
4:0
     RDKit          3D

 69 71  0  0  0  0  0  0  0  0999 V2000
   -5.4670   16.8420  -34.2040 C   0  0  0  0  0  0  0  0  0  0  0  0
   -6.8650   17.1280  -33.6320 C   0  0  0  0  0  0  0  0  0  0  0  0
   -7.1380   18.5560  -33.3030 N   0  0  0  0  0  0  0  0  0  0  0  0
   -7.9880   18.7410  -32.0980 C   0  0  0  0  0  0  0  0  0  0  0  0
   -9.1780   19.6740  -32.3500 C   0  0  0  0  0  0  0  0  0  0  0  0
   -5.8830   19.3530  -33.1950 C   0  0  0  0  0  0  0  0  0  0  0  0
   -6.1340   20.8190  -32.7800 C   0  0  0  0  0  0  0  0  0  0  0  0
   -4.9900   21.6800  -33.1020 N   0  0  0  0  0  0  0  0  0  0  0  0
   -3.9800   22.0260  -32.1350 C   0  0  0  0  0  0  0  0  0  0  0  0
   -2.7450   21.3500  -32.1400 C   0  0  0  0  0  0  0  0  0  0  0  0
   -2.4570   20.3590  -33.1010 C   0  0  0  0  0  0  0  0  0  0  0  0
   -1.2510   19.6630  -33.0680 C   0  0  0  0  0  0  0  0  0  0  0  0
   -0.3120   19.9410  -32.0820 C   0  0  0  0  0  0  0  0  0  0  0  0
   -0.5650   20.9330  -31.1360 C   0  0  0  0  0  0  0  0  0  0  0  0
   -1.7760   21.6660  -31.1550 C   0  0  0  0  0  0  0  0  0  0  0  0
   -2.0200   22.6700  -30.2400 N   0  0  0  0  0  0  0  0  0  0  0  0
   -0.8690   23.3700  -29.6370 C   0  0  0  0  0  0  0  0  0  0  0  0
   -3.3010   23.1600  -30.0750 C   0  0  0  0  0  0  0  0  0  0  0  0
   -3.7260   23.8670  -28.9010 C   0  0  0  0  0  0  0  0  0  0  0  0
   -3.0270   23.7620  -27.5550 C   0  0  0  0  0  0  0  0  0  0  0  0
   -2.6950   22.3640  -27.2430 N   0  0  0  0  0  0  0  0  0  0  0  0
   -1.3820   22.2580  -26.5900 C   0  0  0  0  0  0  0  0  0  0  0  0
   -0.9050   20.8000  -26.5930 C   0  0  0  0  0  0  0  0  0  0  0  0
   -1.7010   19.9940  -27.5450 N   0  0  0  0  0  0  0  0  0  0  0  0
   -2.7440   19.2420  -26.8290 C   0  0  0  0  0  0  0  0  0  0  0  0
   -0.8490   19.0530  -28.2910 C   0  0  0  0  0  0  0  0  0  0  0  0
   -4.9410   24.5720  -28.9280 C   0  0  0  0  0  0  0  0  0  0  0  0
   -5.7700   24.5210  -30.0400 C   0  0  0  0  0  0  0  0  0  0  0  0
   -5.4470   23.7020  -31.1130 C   0  0  0  0  0  0  0  0  0  0  0  0
   -4.2520   22.9560  -31.1120 C   0  0  0  0  0  0  0  0  0  0  0  0
   -4.7555   16.6964  -33.3778 H   0  0  0  0  0  0  0  0  0  0  0  0
   -5.5026   15.9325  -34.8217 H   0  0  0  0  0  0  0  0  0  0  0  0
   -5.1426   17.6924  -34.8217 H   0  0  0  0  0  0  0  0  0  0  0  0
   -7.6090   16.8017  -34.3736 H   0  0  0  0  0  0  0  0  0  0  0  0
   -6.9225   16.5799  -32.6800 H   0  0  0  0  0  0  0  0  0  0  0  0
   -7.6910   18.9330  -34.1050 H   0  0  0  0  0  0  0  0  0  0  0  0
   -8.3713   17.7590  -31.7838 H   0  0  0  0  0  0  0  0  0  0  0  0
   -7.3635   19.2026  -31.3190 H   0  0  0  0  0  0  0  0  0  0  0  0
   -9.5968   20.0023  -31.3873 H   0  0  0  0  0  0  0  0  0  0  0  0
   -8.8414   20.5514  -32.9218 H   0  0  0  0  0  0  0  0  0  0  0  0
   -9.9497   19.1378  -32.9218 H   0  0  0  0  0  0  0  0  0  0  0  0
   -5.2322   18.8823  -32.4434 H   0  0  0  0  0  0  0  0  0  0  0  0
   -5.4156   19.3680  -34.1907 H   0  0  0  0  0  0  0  0  0  0  0  0
   -7.0216   21.1926  -33.3116 H   0  0  0  0  0  0  0  0  0  0  0  0
   -6.2856   20.8449  -31.6908 H   0  0  0  0  0  0  0  0  0  0  0  0
   -4.8170   21.9110  -34.1070 H   0  0  0  0  0  0  0  0  0  0  0  0
   -3.1936   20.1329  -33.8861 H   0  0  0  0  0  0  0  0  0  0  0  0
   -1.0414   18.8918  -33.8239 H   0  0  0  0  0  0  0  0  0  0  0  0
    0.6321   19.3775  -32.0480 H   0  0  0  0  0  0  0  0  0  0  0  0
    0.1874   21.1495  -30.3633 H   0  0  0  0  0  0  0  0  0  0  0  0
   -0.9451   23.3237  -28.5406 H   0  0  0  0  0  0  0  0  0  0  0  0
    0.0646   22.8866  -29.9605 H   0  0  0  0  0  0  0  0  0  0  0  0
   -0.8687   24.4214  -29.9605 H   0  0  0  0  0  0  0  0  0  0  0  0
   -2.1005   24.3543  -27.5833 H   0  0  0  0  0  0  0  0  0  0  0  0
   -3.7042   24.1441  -26.7769 H   0  0  0  0  0  0  0  0  0  0  0  0
   -2.6390   21.8470  -28.1520 H   0  0  0  0  0  0  0  0  0  0  0  0
   -0.6548   22.8793  -27.1333 H   0  0  0  0  0  0  0  0  0  0  0  0
   -1.4694   22.6049  -25.5498 H   0  0  0  0  0  0  0  0  0  0  0  0
    0.1541   20.7667  -26.8883 H   0  0  0  0  0  0  0  0  0  0  0  0
   -1.0315   20.3832  -25.5829 H   0  0  0  0  0  0  0  0  0  0  0  0
   -2.5946   19.3497  -25.7445 H   0  0  0  0  0  0  0  0  0  0  0  0
   -3.7338   19.6356  -27.1037 H   0  0  0  0  0  0  0  0  0  0  0  0
   -2.6832   18.1786  -27.1037 H   0  0  0  0  0  0  0  0  0  0  0  0
   -0.2842   18.4291  -27.5827 H   0  0  0  0  0  0  0  0  0  0  0  0
   -1.4790   18.4106  -28.9238 H   0  0  0  0  0  0  0  0  0  0  0  0
   -0.1474   19.6162  -28.9238 H   0  0  0  0  0  0  0  0  0  0  0  0
   -5.2393   25.1725  -28.0560 H   0  0  0  0  0  0  0  0  0  0  0  0
   -6.6849   25.1309  -30.0710 H   0  0  0  0  0  0  0  0  0  0  0  0
   -6.1305   23.6348  -31.9722 H   0  0  0  0  0  0  0  0  0  0  0  0
  1  2  1  0
  2  3  1  0
  3  4  1  0
  4  5  1  0
  3  6  1  0
  6  7  1  0
  7  8  1  0
  8  9  1  0
  9 10  2  0
 10 11  1  0
 11 12  2  0
 12 13  1  0
 13 14  2  0
 14 15  1  0
 15 16  2  0
 16 17  1  0
 16 18  1  0
 18 19  2  0
 19 20  1  0
 20 21  1  0
 21 22  1  0
 22 23  1  0
 23 24  1  0
 24 25  1  0
 24 26  1  0
 19 27  1  0
 27 28  2  0
 28 29  1  0
 29 30  2  0
 30  9  1  0
 15 10  1  0
 30 18  1  0
  1 31  1  0
  1 32  1  0
  1 33  1  0
  2 34  1  0
  2 35  1  0
  3 36  1  0
  4 37  1  0
  4 38  1  0
  5 39  1  0
  5 40  1  0
  5 41  1  0
  6 42  1  0
  6 43  1  0
  7 44  1  0
  7 45  1  0
  8 46  1  0
 11 47  1  0
 12 48  1  0
 13 49  1  0
 14 50  1  0
 17 51  1  0
 17 52  1  0
 17 53  1  0
 20 54  1  0
 20 55  1  0
 21 56  1  0
 22 57  1  0
 22 58  1  0
 23 59  1  0
 23 60  1  0
 25 61  1  0
 25 62  1  0
 25 63  1  0
 26 64  1  0
 26 65  1  0
 26 66  1  0
 27 67  1  0
 28 68  1  0
 29 69  1  0
M  CHG  2   3   1  16   1
M  END
>  <UniqueID>  (5) 
5

>  <SMILES>  (5) 
CC[NH+](CC)CCNc1c2ccccc2[n+](C)c2c(CNCCN(C)C)cccc12

>  <Energy>  (5) 
104.85180807033417

>  <Genealogy>  (5) 
CC[NH+](CC)CCNc1c2ccccc2[n+](C)c2c(CNCCN(C)C)cccc12 (protonated)
CC[NH+](CC)CCNc1c2ccccc2[n+](C)c2c(CNCCN(C)C)cccc12 (3D coordinates assigned)
CC[NH+](CC)CCNc1c2ccccc2[n+](C)c2c(CNCCN(C)C)cccc12 (optimized conformer: 104.85180807033417 kcal/mol)

>  <smiles>  (5) 
CCN(CC)CCNc1c2ccccc2[n+](C)c2c(CNCCN(C)C)cccc12

>  <score_type>  (5) 
oracle

>  <origin>  (5) 
adg

>  <m_score__min__energy>  (5) 
-7.25

>  <m_primary>  (5) 
energy

$$$$
5:0
     RDKit          3D

 57 59  0  0  0  0  0  0  0  0999 V2000
   -9.0940   18.6690  -31.9780 C   0  0  0  0  0  0  0  0  0  0  0  0
   -8.9030   20.0660  -32.5770 C   0  0  0  0  0  0  0  0  0  0  0  0
   -7.4740   20.3670  -32.7350 N   0  0  0  0  0  0  0  0  0  0  0  0
   -6.5990   19.6460  -33.4580 C   0  0  0  0  0  0  0  0  0  0  0  0
   -5.3610   20.2410  -33.3530 C   0  0  0  0  0  0  0  0  0  0  0  0
   -5.4490   21.3370  -32.5720 N   0  0  0  0  0  0  0  0  0  0  0  0
   -6.7500   21.3860  -32.2100 C   0  0  0  0  0  0  0  0  0  0  0  0
   -7.2970   22.4960  -31.3480 C   0  0  0  0  0  0  0  0  0  0  0  0
   -6.2440   23.2910  -30.6990 N   0  0  0  0  0  0  0  0  0  0  0  0
   -6.1560   24.6570  -31.2400 C   0  0  0  0  0  0  0  0  0  0  0  0
   -5.2300   25.5230  -30.3820 C   0  0  0  0  0  0  0  0  0  0  0  0
   -3.8510   25.0440  -30.4460 N   0  0  0  0  0  0  0  0  0  0  0  0
   -3.4950   23.6570  -30.5230 C   0  0  0  0  0  0  0  0  0  0  0  0
   -3.3200   23.1080  -31.6460 O   0  0  0  0  0  0  0  0  0  0  0  0
   -3.2570   22.8610  -29.2570 C   0  0  0  0  0  0  0  0  0  0  0  0
   -3.7640   21.5830  -29.4540 F   0  0  0  0  0  0  0  0  0  0  0  0
   -4.0210   23.4710  -28.0550 C   0  0  0  0  0  0  0  0  0  0  0  0
   -3.2430   24.5750  -27.3100 C   0  0  0  0  0  0  0  0  0  0  0  0
   -1.8010   24.2800  -27.0860 N   0  0  0  0  0  0  0  0  0  0  0  0
   -1.3880   24.5510  -25.6910 C   0  0  0  0  0  0  0  0  0  0  0  0
   -1.0120   26.0020  -25.5290 C   0  0  0  0  0  0  0  0  0  0  0  0
   -0.8220   26.5570  -24.2510 C   0  0  0  0  0  0  0  0  0  0  0  0
   -0.4730   27.9060  -24.1080 C   0  0  0  0  0  0  0  0  0  0  0  0
   -0.3100   28.7050  -25.2400 C   0  0  0  0  0  0  0  0  0  0  0  0
   -0.4840   28.1560  -26.5160 C   0  0  0  0  0  0  0  0  0  0  0  0
   -0.8290   26.8100  -26.6620 C   0  0  0  0  0  0  0  0  0  0  0  0
   -1.3940   22.9250  -27.5130 C   0  0  0  0  0  0  0  0  0  0  0  0
   -1.7350   22.7360  -28.9890 C   0  0  0  0  0  0  0  0  0  0  0  0
   -9.0848   18.7364  -30.8801 H   0  0  0  0  0  0  0  0  0  0  0  0
  -10.0570   18.2554  -32.3119 H   0  0  0  0  0  0  0  0  0  0  0  0
   -8.2773   18.0121  -32.3119 H   0  0  0  0  0  0  0  0  0  0  0  0
   -9.3927   20.1080  -33.5611 H   0  0  0  0  0  0  0  0  0  0  0  0
   -9.3500   20.8080  -31.8990 H   0  0  0  0  0  0  0  0  0  0  0  0
   -6.8316   18.7380  -34.0338 H   0  0  0  0  0  0  0  0  0  0  0  0
   -4.4405   19.8774  -33.8332 H   0  0  0  0  0  0  0  0  0  0  0  0
   -7.9021   23.1639  -31.9787 H   0  0  0  0  0  0  0  0  0  0  0  0
   -7.8956   22.0298  -30.5515 H   0  0  0  0  0  0  0  0  0  0  0  0
   -5.3240   22.8140  -30.8470 H   0  0  0  0  0  0  0  0  0  0  0  0
   -5.7613   24.6139  -32.2658 H   0  0  0  0  0  0  0  0  0  0  0  0
   -7.1612   25.1036  -31.2349 H   0  0  0  0  0  0  0  0  0  0  0  0
   -5.2673   26.5598  -30.7477 H   0  0  0  0  0  0  0  0  0  0  0  0
   -5.5701   25.4683  -29.3373 H   0  0  0  0  0  0  0  0  0  0  0  0
   -4.9622   23.9022  -28.4266 H   0  0  0  0  0  0  0  0  0  0  0  0
   -4.1830   22.6555  -27.3348 H   0  0  0  0  0  0  0  0  0  0  0  0
   -3.3153   25.5014  -27.8988 H   0  0  0  0  0  0  0  0  0  0  0  0
   -3.7007   24.6574  -26.3131 H   0  0  0  0  0  0  0  0  0  0  0  0
   -2.2215   24.3143  -25.0133 H   0  0  0  0  0  0  0  0  0  0  0  0
   -0.5158   23.9262  -25.4483 H   0  0  0  0  0  0  0  0  0  0  0  0
   -0.9483   25.9276  -23.3577 H   0  0  0  0  0  0  0  0  0  0  0  0
   -0.3278   28.3345  -23.1053 H   0  0  0  0  0  0  0  0  0  0  0  0
   -0.0446   29.7668  -25.1299 H   0  0  0  0  0  0  0  0  0  0  0  0
   -0.3486   28.7867  -27.4070 H   0  0  0  0  0  0  0  0  0  0  0  0
   -0.9575   26.3825  -27.6673 H   0  0  0  0  0  0  0  0  0  0  0  0
   -0.3103   22.8044  -27.3681 H   0  0  0  0  0  0  0  0  0  0  0  0
   -1.9285   22.1740  -26.9128 H   0  0  0  0  0  0  0  0  0  0  0  0
   -1.2075   23.5024  -29.5758 H   0  0  0  0  0  0  0  0  0  0  0  0
   -1.4217   21.7230  -29.2819 H   0  0  0  0  0  0  0  0  0  0  0  0
  1  2  1  0
  2  3  1  0
  3  4  1  0
  4  5  2  0
  5  6  1  0
  6  7  2  0
  7  8  1  0
  8  9  1  0
  9 10  1  0
 10 11  1  0
 11 12  1  0
 12 13  1  0
 13 14  2  0
 13 15  1  0
 15 16  1  0
 15 17  1  0
 17 18  1  0
 18 19  1  0
 19 20  1  0
 20 21  1  0
 21 22  2  0
 22 23  1  0
 23 24  2  0
 24 25  1  0
 25 26  2  0
 19 27  1  0
 27 28  1  0
  7  3  1  0
 28 15  1  0
 26 21  1  0
  1 29  1  0
  1 30  1  0
  1 31  1  0
  2 32  1  0
  2 33  1  0
  4 34  1  0
  5 35  1  0
  8 36  1  0
  8 37  1  0
  9 38  1  0
 10 39  1  0
 10 40  1  0
 11 41  1  0
 11 42  1  0
 17 43  1  0
 17 44  1  0
 18 45  1  0
 18 46  1  0
 20 47  1  0
 20 48  1  0
 22 49  1  0
 23 50  1  0
 24 51  1  0
 25 52  1  0
 26 53  1  0
 27 54  1  0
 27 55  1  0
 28 56  1  0
 28 57  1  0
M  CHG  1  12  -1
M  END
>  <UniqueID>  (6) 
6

>  <SMILES>  (6) 
CCn1ccnc1CNCC[N-]C(=O)C1(F)CCN(Cc2ccccc2)CC1

>  <Energy>  (6) 
87.58231365009172

>  <Genealogy>  (6) 
CCn1ccnc1CNCC[N-]C(=O)C1(F)CCN(Cc2ccccc2)CC1 (protonated)
CCn1ccnc1CNCC[N-]C(=O)C1(F)CCN(Cc2ccccc2)CC1 (3D coordinates assigned)
CCn1ccnc1CNCC[N-]C(=O)C1(F)CCN(Cc2ccccc2)CC1 (nonaromatic ring conformer: 87.58231365009172 kcal/mol)

>  <smiles>  (6) 
CCn1ccnc1CNCCNC(=O)C1(F)CCN(Cc2ccccc2)CC1

>  <score_type>  (6) 
oracle

>  <origin>  (6) 
adg

>  <m_score__min__energy>  (6) 
-9.9600000000000009

>  <m_primary>  (6) 
energy

$$$$
6:0
     RDKit          3D

 43 44  0  0  0  0  0  0  0  0999 V2000
   -6.5250   17.4220  -33.8170 C   0  0  0  0  0  0  0  0  0  0  0  0
   -5.6390   18.5980  -34.2270 C   0  0  0  0  0  0  0  0  0  0  0  0
   -4.5030   18.8660  -33.2280 C   0  0  0  0  0  0  0  0  0  0  0  0
   -3.3380   19.6580  -33.8560 C   0  0  0  0  0  0  0  0  0  0  0  0
   -3.5530   21.1150  -33.7810 N   0  0  0  0  0  0  0  0  0  0  0  0
   -3.5580   21.6060  -32.3930 C   0  0  0  0  0  0  0  0  0  0  0  0
   -4.9240   22.1030  -32.0200 C   0  0  0  0  0  0  0  0  0  0  0  0
   -6.1260   21.4290  -32.2060 C   0  0  0  0  0  0  0  0  0  0  0  0
   -7.1470   22.1310  -31.6580 N   0  0  0  0  0  0  0  0  0  0  0  0
   -8.5480   21.7100  -31.6090 C   0  0  0  0  0  0  0  0  0  0  0  0
   -8.7790   20.4450  -32.4470 C   0  0  0  0  0  0  0  0  0  0  0  0
   -8.7510   19.1750  -31.6000 C   0  0  0  0  0  0  0  0  0  0  0  0
   -6.5970   23.2350  -31.1090 C   0  0  0  0  0  0  0  0  0  0  0  0
   -7.2350   24.2560  -30.3980 C   0  0  0  0  0  0  0  0  0  0  0  0
   -6.4430   25.3000  -29.8880 C   0  0  0  0  0  0  0  0  0  0  0  0
   -5.0460   25.3040  -30.0910 C   0  0  0  0  0  0  0  0  0  0  0  0
   -4.4270   24.2640  -30.8070 C   0  0  0  0  0  0  0  0  0  0  0  0
   -5.2380   23.2450  -31.3070 C   0  0  0  0  0  0  0  0  0  0  0  0
   -6.5701   17.3621  -32.7196 H   0  0  0  0  0  0  0  0  0  0  0  0
   -7.5386   17.5692  -34.2182 H   0  0  0  0  0  0  0  0  0  0  0  0
   -6.1039   16.4883  -34.2182 H   0  0  0  0  0  0  0  0  0  0  0  0
   -5.1975   18.3789  -35.2104 H   0  0  0  0  0  0  0  0  0  0  0  0
   -6.2736   19.4961  -34.2547 H   0  0  0  0  0  0  0  0  0  0  0  0
   -4.9059   19.4425  -32.3822 H   0  0  0  0  0  0  0  0  0  0  0  0
   -4.1078   17.8924  -32.9026 H   0  0  0  0  0  0  0  0  0  0  0  0
   -2.4102   19.4084  -33.3204 H   0  0  0  0  0  0  0  0  0  0  0  0
   -3.2732   19.3796  -34.9182 H   0  0  0  0  0  0  0  0  0  0  0  0
   -4.4840   21.3260  -34.2110 H   0  0  0  0  0  0  0  0  0  0  0  0
   -2.8200   21.6170  -34.3360 H   0  0  0  0  0  0  0  0  0  0  0  0
   -3.2734   20.7860  -31.7172 H   0  0  0  0  0  0  0  0  0  0  0  0
   -2.8399   22.4345  -32.3045 H   0  0  0  0  0  0  0  0  0  0  0  0
   -6.2326   20.4643  -32.7238 H   0  0  0  0  0  0  0  0  0  0  0  0
   -8.8239   21.5033  -30.5644 H   0  0  0  0  0  0  0  0  0  0  0  0
   -9.1686   22.5188  -32.0223 H   0  0  0  0  0  0  0  0  0  0  0  0
   -9.7602   20.5207  -32.9385 H   0  0  0  0  0  0  0  0  0  0  0  0
   -7.9647   20.3761  -33.1833 H   0  0  0  0  0  0  0  0  0  0  0  0
   -8.7570   19.4452  -30.5337 H   0  0  0  0  0  0  0  0  0  0  0  0
   -9.6359   18.5626  -31.8280 H   0  0  0  0  0  0  0  0  0  0  0  0
   -7.8400   18.6022  -31.8280 H   0  0  0  0  0  0  0  0  0  0  0  0
   -8.3238   24.2429  -30.2423 H   0  0  0  0  0  0  0  0  0  0  0  0
   -6.9155   26.1196  -29.3267 H   0  0  0  0  0  0  0  0  0  0  0  0
   -4.4375   26.1262  -29.6864 H   0  0  0  0  0  0  0  0  0  0  0  0
   -3.3388   24.2543  -30.9676 H   0  0  0  0  0  0  0  0  0  0  0  0
  1  2  1  0
  2  3  1  0
  3  4  1  0
  4  5  1  0
  5  6  1  0
  6  7  1  0
  7  8  2  0
  8  9  1  0
  9 10  1  0
 10 11  1  0
 11 12  1  0
  9 13  1  0
 13 14  2  0
 14 15  1  0
 15 16  2  0
 16 17  1  0
 17 18  2  0
 18  7  1  0
 18 13  1  0
  1 19  1  0
  1 20  1  0
  1 21  1  0
  2 22  1  0
  2 23  1  0
  3 24  1  0
  3 25  1  0
  4 26  1  0
  4 27  1  0
  5 28  1  0
  5 29  1  0
  6 30  1  0
  6 31  1  0
  8 32  1  0
 10 33  1  0
 10 34  1  0
 11 35  1  0
 11 36  1  0
 12 37  1  0
 12 38  1  0
 12 39  1  0
 14 40  1  0
 15 41  1  0
 16 42  1  0
 17 43  1  0
M  CHG  1   5   1
M  END
>  <UniqueID>  (7) 
7

>  <SMILES>  (7) 
CCCC[NH2+]Cc1cn(CCC)c2ccccc12

>  <Energy>  (7) 
64.25719112527419

>  <Genealogy>  (7) 
CCCC[NH2+]Cc1cn(CCC)c2ccccc12 (protonated)
CCCC[NH2+]Cc1cn(CCC)c2ccccc12 (3D coordinates assigned)
CCCC[NH2+]Cc1cn(CCC)c2ccccc12 (optimized conformer: 64.25719112527419 kcal/mol)

>  <smiles>  (7) 
CCCCNCc1cn(CCC)c2ccccc12

>  <score_type>  (7) 
oracle

>  <origin>  (7) 
adg

>  <m_score__min__energy>  (7) 
-6.1699999999999999

>  <m_primary>  (7) 
energy

$$$$
7:0
     RDKit          3D

 56 58  0  0  0  0  0  0  0  0999 V2000
   -1.7040   19.7680  -27.4970 C   0  0  0  0  0  0  0  0  0  0  0  0
   -3.0840   20.4340  -27.5050 C   0  0  0  0  0  0  0  0  0  0  0  0
   -3.1340   21.6050  -28.4020 N   0  0  0  0  0  0  0  0  0  0  0  0
   -3.5820   22.8380  -27.7230 C   0  0  0  0  0  0  0  0  0  0  0  0
   -3.5500   24.0680  -28.6450 C   0  0  0  0  0  0  0  0  0  0  0  0
   -4.9140   24.5560  -28.8930 N   0  0  0  0  0  0  0  0  0  0  0  0
   -5.0810   25.0920  -30.2520 C   0  0  0  0  0  0  0  0  0  0  0  0
   -5.4720   24.0080  -31.2680 C   0  0  0  0  0  0  0  0  0  0  0  0
   -5.0060   22.6900  -30.8310 N   0  0  0  0  0  0  0  0  0  0  0  0
   -5.3630   21.4870  -31.5330 C   0  0  0  0  0  0  0  0  0  0  0  0
   -6.7230   21.1690  -31.6980 C   0  0  0  0  0  0  0  0  0  0  0  0
   -7.7240   21.9500  -31.0790 C   0  0  0  0  0  0  0  0  0  0  0  0
   -9.0730   21.6860  -31.2990 C   0  0  0  0  0  0  0  0  0  0  0  0
   -9.4480   20.6510  -32.1460 C   0  0  0  0  0  0  0  0  0  0  0  0
   -8.4780   19.8540  -32.7520 C   0  0  0  0  0  0  0  0  0  0  0  0
   -7.0960   20.0690  -32.5110 C   0  0  0  0  0  0  0  0  0  0  0  0
   -6.1270   19.2580  -33.0670 N   0  0  0  0  0  0  0  0  0  0  0  0
   -6.5110   17.9690  -33.6880 C   0  0  0  0  0  0  0  0  0  0  0  0
   -4.7930   19.6220  -33.0040 C   0  0  0  0  0  0  0  0  0  0  0  0
   -3.8140   18.9600  -33.7830 C   0  0  0  0  0  0  0  0  0  0  0  0
   -2.4630   19.2560  -33.6430 C   0  0  0  0  0  0  0  0  0  0  0  0
   -2.0460   20.2000  -32.7170 C   0  0  0  0  0  0  0  0  0  0  0  0
   -2.9820   20.9130  -31.9520 C   0  0  0  0  0  0  0  0  0  0  0  0
   -2.5520   21.8200  -30.9660 O   0  0  0  0  0  0  0  0  0  0  0  0
   -1.2190   22.2980  -30.8170 C   0  0  0  0  0  0  0  0  0  0  0  0
   -4.3750   20.6880  -32.1560 C   0  0  0  0  0  0  0  0  0  0  0  0
   -1.3787   19.6110  -26.4580 H   0  0  0  0  0  0  0  0  0  0  0  0
   -1.7617   18.7986  -28.0136 H   0  0  0  0  0  0  0  0  0  0  0  0
   -0.9810   20.4163  -28.0136 H   0  0  0  0  0  0  0  0  0  0  0  0
   -3.8300   19.6987  -27.8408 H   0  0  0  0  0  0  0  0  0  0  0  0
   -3.2961   20.7825  -26.4835 H   0  0  0  0  0  0  0  0  0  0  0  0
   -3.7800   21.4060  -29.2020 H   0  0  0  0  0  0  0  0  0  0  0  0
   -2.1840   21.7510  -28.8170 H   0  0  0  0  0  0  0  0  0  0  0  0
   -4.6130   22.6902  -27.3691 H   0  0  0  0  0  0  0  0  0  0  0  0
   -2.8895   23.0290  -26.8900 H   0  0  0  0  0  0  0  0  0  0  0  0
   -2.9611   24.8646  -28.1668 H   0  0  0  0  0  0  0  0  0  0  0  0
   -3.0919   23.7842  -29.6040 H   0  0  0  0  0  0  0  0  0  0  0  0
   -5.1450   25.3010  -28.1940 H   0  0  0  0  0  0  0  0  0  0  0  0
   -5.8689   25.8594  -30.2342 H   0  0  0  0  0  0  0  0  0  0  0  0
   -4.1143   25.5120  -30.5668 H   0  0  0  0  0  0  0  0  0  0  0  0
   -6.5671   23.9875  -31.3693 H   0  0  0  0  0  0  0  0  0  0  0  0
   -5.0013   24.2450  -32.2336 H   0  0  0  0  0  0  0  0  0  0  0  0
   -4.4420   22.6130  -29.9560 H   0  0  0  0  0  0  0  0  0  0  0  0
   -7.4339   22.7773  -30.4147 H   0  0  0  0  0  0  0  0  0  0  0  0
   -9.8414   22.2966  -30.8024 H   0  0  0  0  0  0  0  0  0  0  0  0
  -10.5138   20.4596  -32.3392 H   0  0  0  0  0  0  0  0  0  0  0  0
   -8.7891   19.0445  -33.4287 H   0  0  0  0  0  0  0  0  0  0  0  0
   -6.7302   17.2333  -32.9001 H   0  0  0  0  0  0  0  0  0  0  0  0
   -7.4047   18.1147  -34.3125 H   0  0  0  0  0  0  0  0  0  0  0  0
   -5.6832   17.6019  -34.3125 H   0  0  0  0  0  0  0  0  0  0  0  0
   -4.1277   18.1981  -34.5118 H   0  0  0  0  0  0  0  0  0  0  0  0
   -1.7214   18.7390  -34.2697 H   0  0  0  0  0  0  0  0  0  0  0  0
   -0.9715   20.3919  -32.5807 H   0  0  0  0  0  0  0  0  0  0  0  0
   -0.9779   22.3845  -29.7472 H   0  0  0  0  0  0  0  0  0  0  0  0
   -0.5215   21.5940  -31.2943 H   0  0  0  0  0  0  0  0  0  0  0  0
   -1.1278   23.2848  -31.2943 H   0  0  0  0  0  0  0  0  0  0  0  0
  1  2  1  0
  2  3  1  0
  3  4  1  0
  4  5  1  0
  5  6  1  0
  6  7  1  0
  7  8  1  0
  8  9  1  0
  9 10  1  0
 10 11  2  0
 11 12  1  0
 12 13  2  0
 13 14  1  0
 14 15  2  0
 15 16  1  0
 16 17  2  0
 17 18  1  0
 17 19  1  0
 19 20  2  0
 20 21  1  0
 21 22  2  0
 22 23  1  0
 23 24  1  0
 24 25  1  0
 23 26  2  0
 26 10  1  0
 16 11  1  0
 26 19  1  0
  1 27  1  0
  1 28  1  0
  1 29  1  0
  2 30  1  0
  2 31  1  0
  3 32  1  0
  3 33  1  0
  4 34  1  0
  4 35  1  0
  5 36  1  0
  5 37  1  0
  6 38  1  0
  7 39  1  0
  7 40  1  0
  8 41  1  0
  8 42  1  0
  9 43  1  0
 12 44  1  0
 13 45  1  0
 14 46  1  0
 15 47  1  0
 18 48  1  0
 18 49  1  0
 18 50  1  0
 20 51  1  0
 21 52  1  0
 22 53  1  0
 25 54  1  0
 25 55  1  0
 25 56  1  0
M  CHG  2   3   1  17   1
M  END
>  <UniqueID>  (8) 
8

>  <SMILES>  (8) 
CC[NH2+]CCNCCNc1c2ccccc2[n+](C)c2cccc(OC)c12

>  <Energy>  (8) 
83.76822454425545

>  <Genealogy>  (8) 
CC[NH2+]CCNCCNc1c2ccccc2[n+](C)c2cccc(OC)c12 (protonated)
CC[NH2+]CCNCCNc1c2ccccc2[n+](C)c2cccc(OC)c12 (3D coordinates assigned)
CC[NH2+]CCNCCNc1c2ccccc2[n+](C)c2cccc(OC)c12 (optimized conformer: 83.76822454425545 kcal/mol)

>  <smiles>  (8) 
CCNCCNCCNc1c2ccccc2[n+](C)c2cccc(OC)c12

>  <score_type>  (8) 
oracle

>  <origin>  (8) 
adg

>  <m_score__min__energy>  (8) 
-8.1099999999999994

>  <m_primary>  (8) 
energy

$$$$
8:0
     RDKit          3D

 44 45  0  0  0  0  0  0  0  0999 V2000
   -8.6990   18.6090  -31.6790 C   0  0  0  0  0  0  0  0  0  0  0  0
   -7.5190   18.9340  -32.5890 C   0  0  0  0  0  0  0  0  0  0  0  0
   -7.5600   20.2990  -33.0060 O   0  0  0  0  0  0  0  0  0  0  0  0
   -6.9960   21.3880  -32.3170 C   0  0  0  0  0  0  0  0  0  0  0  0
   -5.6130   21.6590  -32.3450 C   0  0  0  0  0  0  0  0  0  0  0  0
   -5.0920   22.7530  -31.6510 C   0  0  0  0  0  0  0  0  0  0  0  0
   -5.9390   23.5940  -30.9210 C   0  0  0  0  0  0  0  0  0  0  0  0
   -5.2850   24.9620  -30.0220 S   0  0  0  0  0  0  0  0  0  0  0  0
   -6.3930   25.9380  -29.7400 O   0  0  0  0  0  0  0  0  0  0  0  0
   -4.2320   25.6620  -30.8350 O   0  0  0  0  0  0  0  0  0  0  0  0
   -4.6030   24.4220  -28.5190 N   0  0  0  0  0  0  0  0  0  0  0  0
   -3.6430   23.3420  -28.7690 C   0  0  0  0  0  0  0  0  0  0  0  0
   -2.3630   23.8840  -29.4100 C   0  0  0  0  0  0  0  0  0  0  0  0
   -2.1320   25.2470  -29.0450 O   0  0  0  0  0  0  0  0  0  0  0  0
   -1.6260   25.7030  -27.8160 C   0  0  0  0  0  0  0  0  0  0  0  0
   -0.4940   26.5380  -27.7100 C   0  0  0  0  0  0  0  0  0  0  0  0
   -0.0440   26.9570  -26.4520 C   0  0  0  0  0  0  0  0  0  0  0  0
   -0.7090   26.5450  -25.2950 C   0  0  0  0  0  0  0  0  0  0  0  0
   -1.8260   25.7130  -25.3930 C   0  0  0  0  0  0  0  0  0  0  0  0
   -2.2800   25.2940  -26.6460 C   0  0  0  0  0  0  0  0  0  0  0  0
   -7.3110   23.3250  -30.8780 C   0  0  0  0  0  0  0  0  0  0  0  0
   -7.8450   22.2250  -31.5670 C   0  0  0  0  0  0  0  0  0  0  0  0
   -9.3240   21.9570  -31.5240 C   0  0  0  0  0  0  0  0  0  0  0  0
   -8.3861   18.6952  -30.6280 H   0  0  0  0  0  0  0  0  0  0  0  0
   -9.5195   19.3146  -31.8764 H   0  0  0  0  0  0  0  0  0  0  0  0
   -9.0425   17.5828  -31.8764 H   0  0  0  0  0  0  0  0  0  0  0  0
   -6.5817   18.7520  -32.0428 H   0  0  0  0  0  0  0  0  0  0  0  0
   -7.5743   18.2917  -33.4803 H   0  0  0  0  0  0  0  0  0  0  0  0
   -4.9395   21.0042  -32.9175 H   0  0  0  0  0  0  0  0  0  0  0  0
   -4.0110   22.9545  -31.6783 H   0  0  0  0  0  0  0  0  0  0  0  0
   -5.3980   24.0260  -27.9670 H   0  0  0  0  0  0  0  0  0  0  0  0
   -3.3900   22.8573  -27.8145 H   0  0  0  0  0  0  0  0  0  0  0  0
   -4.1013   22.6181  -29.4589 H   0  0  0  0  0  0  0  0  0  0  0  0
   -1.5101   23.2748  -29.0760 H   0  0  0  0  0  0  0  0  0  0  0  0
   -2.4756   23.8332  -30.5030 H   0  0  0  0  0  0  0  0  0  0  0  0
    0.0366   26.8608  -28.6179 H   0  0  0  0  0  0  0  0  0  0  0  0
    0.8359   27.6126  -26.3748 H   0  0  0  0  0  0  0  0  0  0  0  0
   -0.3533   26.8755  -24.3080 H   0  0  0  0  0  0  0  0  0  0  0  0
   -2.3494   25.3869  -24.4821 H   0  0  0  0  0  0  0  0  0  0  0  0
   -3.1593   24.6367  -26.7149 H   0  0  0  0  0  0  0  0  0  0  0  0
   -7.9773   23.9814  -30.2991 H   0  0  0  0  0  0  0  0  0  0  0  0
   -9.6555   21.8969  -30.4768 H   0  0  0  0  0  0  0  0  0  0  0  0
   -9.8594   22.7728  -32.0318 H   0  0  0  0  0  0  0  0  0  0  0  0
   -9.5391   21.0053  -32.0318 H   0  0  0  0  0  0  0  0  0  0  0  0
  1  2  1  0
  2  3  1  0
  3  4  1  0
  4  5  2  0
  5  6  1  0
  6  7  2  0
  7  8  1  0
  8  9  2  0
  8 10  2  0
  8 11  1  0
 11 12  1  0
 12 13  1  0
 13 14  1  0
 14 15  1  0
 15 16  2  0
 16 17  1  0
 17 18  2  0
 18 19  1  0
 19 20  2  0
  7 21  1  0
 21 22  2  0
 22 23  1  0
 22  4  1  0
 20 15  1  0
  1 24  1  0
  1 25  1  0
  1 26  1  0
  2 27  1  0
  2 28  1  0
  5 29  1  0
  6 30  1  0
 11 31  1  0
 12 32  1  0
 12 33  1  0
 13 34  1  0
 13 35  1  0
 16 36  1  0
 17 37  1  0
 18 38  1  0
 19 39  1  0
 20 40  1  0
 21 41  1  0
 23 42  1  0
 23 43  1  0
 23 44  1  0
M  END
>  <UniqueID>  (9) 
9

>  <SMILES>  (9) 
CCOc1ccc(S(=O)(=O)NCCOc2ccccc2)cc1C

>  <Energy>  (9) 
38.87711338819998

>  <Genealogy>  (9) 
CCOc1ccc(S(=O)(=O)NCCOc2ccccc2)cc1C (3D coordinates assigned)
CCOc1ccc(S(=O)(=O)NCCOc2ccccc2)cc1C (optimized conformer: 38.87711338819998 kcal/mol)

>  <smiles>  (9) 
CCOc1ccc(S(=O)(=O)NCCOc2ccccc2)cc1C

>  <score_type>  (9) 
oracle

>  <origin>  (9) 
adg

>  <m_score__min__energy>  (9) 
-9.25

>  <m_primary>  (9) 
energy

$$$$
9:0
     RDKit          3D

 73 76  0  0  0  0  0  0  0  0999 V2000
   -0.1910   21.4100  -28.8010 C   0  0  0  0  0  0  0  0  0  0  0  0
   -1.1590   22.4880  -29.0100 C   0  0  0  0  0  0  0  0  0  0  0  0
   -1.9570   23.3760  -29.1840 C   0  0  0  0  0  0  0  0  0  0  0  0
   -2.9390   24.4530  -29.4000 C   0  0  0  0  0  0  0  0  0  0  0  0
   -3.8480   24.1960  -30.5380 N   0  0  0  0  0  0  0  0  0  0  0  0
   -5.0870   24.9920  -30.5270 C   0  0  0  0  0  0  0  0  0  0  0  0
   -4.0320   22.7740  -30.8980 C   0  0  0  0  0  0  0  0  0  0  0  0
   -3.3020   22.3500  -32.2060 C   0  0  0  0  0  0  0  0  0  0  0  0
   -4.1800   21.9320  -33.3360 N   0  0  0  0  0  0  0  0  0  0  0  0
   -5.2190   20.9570  -33.0280 C   0  0  0  0  0  0  0  0  0  0  0  0
   -6.5000   21.4180  -32.6070 C   0  0  0  0  0  0  0  0  0  0  0  0
   -6.7420   22.7900  -32.3350 C   0  0  0  0  0  0  0  0  0  0  0  0
   -7.9980   23.2390  -31.9400 C   0  0  0  0  0  0  0  0  0  0  0  0
   -9.0490   22.3450  -31.8190 C   0  0  0  0  0  0  0  0  0  0  0  0
   -8.8450   20.9930  -32.0780 C   0  0  0  0  0  0  0  0  0  0  0  0
   -7.5690   20.4960  -32.4500 C   0  0  0  0  0  0  0  0  0  0  0  0
   -7.3690   19.1560  -32.6990 N   0  0  0  0  0  0  0  0  0  0  0  0
   -8.3990   18.1720  -32.2960 C   0  0  0  0  0  0  0  0  0  0  0  0
   -6.2010   18.7260  -33.2910 C   0  0  0  0  0  0  0  0  0  0  0  0
   -6.1360   17.4540  -33.9050 C   0  0  0  0  0  0  0  0  0  0  0  0
   -4.9480   16.9660  -34.4240 C   0  0  0  0  0  0  0  0  0  0  0  0
   -3.7810   17.6940  -34.2830 C   0  0  0  0  0  0  0  0  0  0  0  0
   -3.7910   18.9690  -33.6920 C   0  0  0  0  0  0  0  0  0  0  0  0
   -2.5240   19.5550  -33.3250 N   0  0  0  0  0  0  0  0  0  0  0  0
   -1.9870   19.5900  -31.9620 C   0  0  0  0  0  0  0  0  0  0  0  0
   -0.4940   19.9430  -31.9680 C   0  0  0  0  0  0  0  0  0  0  0  0
   -0.1700   21.0290  -33.0010 C   0  0  0  0  0  0  0  0  0  0  0  0
    0.1490   20.4220  -34.3150 N   0  0  0  0  0  0  0  0  0  0  0  0
   -0.4730   21.1500  -35.4470 C   0  0  0  0  0  0  0  0  0  0  0  0
    0.4600   22.2250  -36.0410 C   0  0  0  0  0  0  0  0  0  0  0  0
    1.3820   22.6750  -35.0730 O   0  0  0  0  0  0  0  0  0  0  0  0
    2.2920   21.6390  -34.7480 C   0  0  0  0  0  0  0  0  0  0  0  0
    1.6030   20.2730  -34.5210 C   0  0  0  0  0  0  0  0  0  0  0  0
   -5.0460   19.5640  -33.3160 C   0  0  0  0  0  0  0  0  0  0  0  0
   -0.0475   21.2502  -27.7222 H   0  0  0  0  0  0  0  0  0  0  0  0
   -0.5673   20.4848  -29.2619 H   0  0  0  0  0  0  0  0  0  0  0  0
    0.7692   21.6850  -29.2619 H   0  0  0  0  0  0  0  0  0  0  0  0
   -3.5438   24.5622  -28.4877 H   0  0  0  0  0  0  0  0  0  0  0  0
   -2.3738   25.3671  -29.6343 H   0  0  0  0  0  0  0  0  0  0  0  0
   -5.3890   25.1860  -29.4872 H   0  0  0  0  0  0  0  0  0  0  0  0
   -4.9133   25.9479  -31.0428 H   0  0  0  0  0  0  0  0  0  0  0  0
   -5.8842   24.4366  -31.0428 H   0  0  0  0  0  0  0  0  0  0  0  0
   -3.6485   22.1563  -30.0726 H   0  0  0  0  0  0  0  0  0  0  0  0
   -5.1080   22.6279  -31.0736 H   0  0  0  0  0  0  0  0  0  0  0  0
   -2.6979   23.2038  -32.5467 H   0  0  0  0  0  0  0  0  0  0  0  0
   -2.7124   21.4596  -31.9423 H   0  0  0  0  0  0  0  0  0  0  0  0
   -4.6310   22.7810  -33.7470 H   0  0  0  0  0  0  0  0  0  0  0  0
   -3.6020   21.6230  -34.1430 H   0  0  0  0  0  0  0  0  0  0  0  0
   -5.9195   23.5130  -32.4387 H   0  0  0  0  0  0  0  0  0  0  0  0
   -8.1567   24.3057  -31.7234 H   0  0  0  0  0  0  0  0  0  0  0  0
  -10.0445   22.7035  -31.5183 H   0  0  0  0  0  0  0  0  0  0  0  0
   -9.6907   20.2949  -31.9925 H   0  0  0  0  0  0  0  0  0  0  0  0
   -8.4500   18.1233  -31.1983 H   0  0  0  0  0  0  0  0  0  0  0  0
   -9.3766   18.4802  -32.6951 H   0  0  0  0  0  0  0  0  0  0  0  0
   -8.1358   17.1813  -32.6951 H   0  0  0  0  0  0  0  0  0  0  0  0
   -7.0463   16.8401  -33.9718 H   0  0  0  0  0  0  0  0  0  0  0  0
   -4.9330   15.9992  -34.9484 H   0  0  0  0  0  0  0  0  0  0  0  0
   -2.8308   17.2690  -34.6386 H   0  0  0  0  0  0  0  0  0  0  0  0
   -1.9980   20.0880  -34.0450 H   0  0  0  0  0  0  0  0  0  0  0  0
   -2.5332   20.3466  -31.3795 H   0  0  0  0  0  0  0  0  0  0  0  0
   -2.1098   18.5941  -31.5114 H   0  0  0  0  0  0  0  0  0  0  0  0
   -0.2098   20.3055  -30.9691 H   0  0  0  0  0  0  0  0  0  0  0  0
    0.0705   19.0375  -32.2352 H   0  0  0  0  0  0  0  0  0  0  0  0
   -1.0396   21.6935  -33.1115 H   0  0  0  0  0  0  0  0  0  0  0  0
    0.7037   21.5995  -32.6529 H   0  0  0  0  0  0  0  0  0  0  0  0
   -0.7250   20.4263  -36.2362 H   0  0  0  0  0  0  0  0  0  0  0  0
   -1.3698   21.6596  -35.0647 H   0  0  0  0  0  0  0  0  0  0  0  0
    1.0100   21.7958  -36.8915 H   0  0  0  0  0  0  0  0  0  0  0  0
   -0.1497   23.0785  -36.3724 H   0  0  0  0  0  0  0  0  0  0  0  0
    3.0123   21.5347  -35.5728 H   0  0  0  0  0  0  0  0  0  0  0  0
    2.7829   21.9188  -33.8042 H   0  0  0  0  0  0  0  0  0  0  0  0
    1.7748   19.6365  -35.4015 H   0  0  0  0  0  0  0  0  0  0  0  0
    2.0326   19.8187  -33.6160 H   0  0  0  0  0  0  0  0  0  0  0  0
  1  2  1  0
  2  3  3  0
  3  4  1  0
  4  5  1  0
  5  6  1  0
  5  7  1  0
  7  8  1  0
  8  9  1  0
  9 10  1  0
 10 11  2  0
 11 12  1  0
 12 13  2  0
 13 14  1  0
 14 15  2  0
 15 16  1  0
 16 17  2  0
 17 18  1  0
 17 19  1  0
 19 20  2  0
 20 21  1  0
 21 22  2  0
 22 23  1  0
 23 24  1  0
 24 25  1  0
 25 26  1  0
 26 27  1  0
 27 28  1  0
 28 29  1  0
 29 30  1  0
 30 31  1  0
 31 32  1  0
 32 33  1  0
 23 34  2  0
 34 10  1  0
 16 11  1  0
 34 19  1  0
 33 28  1  0
  1 35  1  0
  1 36  1  0
  1 37  1  0
  4 38  1  0
  4 39  1  0
  6 40  1  0
  6 41  1  0
  6 42  1  0
  7 43  1  0
  7 44  1  0
  8 45  1  0
  8 46  1  0
  9 47  1  0
  9 48  1  0
 12 49  1  0
 13 50  1  0
 14 51  1  0
 15 52  1  0
 18 53  1  0
 18 54  1  0
 18 55  1  0
 20 56  1  0
 21 57  1  0
 22 58  1  0
 24 59  1  0
 25 60  1  0
 25 61  1  0
 26 62  1  0
 26 63  1  0
 27 64  1  0
 27 65  1  0
 29 66  1  0
 29 67  1  0
 30 68  1  0
 30 69  1  0
 32 70  1  0
 32 71  1  0
 33 72  1  0
 33 73  1  0
M  CHG  2   9   1  17   1
M  END
>  <UniqueID>  (10) 
10

>  <SMILES>  (10) 
CC#CCN(C)CC[NH2+]c1c2ccccc2[n+](C)c2cccc(NCCCN3CCOCC3)c12

>  <Energy>  (10) 
130.5298111088997

>  <Genealogy>  (10) 
CC#CCN(C)CC[NH2+]c1c2ccccc2[n+](C)c2cccc(NCCCN3CCOCC3)c12 (protonated)
CC#CCN(C)CC[NH2+]c1c2ccccc2[n+](C)c2cccc(NCCCN3CCOCC3)c12 (3D coordinates assigned)
CC#CCN(C)CC[NH2+]c1c2ccccc2[n+](C)c2cccc(NCCCN3CCOCC3)c12 (nonaromatic ring conformer: 130.5298111088997 kcal/mol)

>  <smiles>  (10) 
CC#CCN(C)CCNc1c2ccccc2[n+](C)c2cccc(NCCCN3CCOCC3)c12

>  <score_type>  (10) 
oracle

>  <origin>  (10) 
adg

>  <m_score__min__energy>  (10) 
-8.4299999999999997

>  <m_primary>  (10) 
energy

$$$$
10:0
     RDKit          3D

 45 47  0  0  0  0  0  0  0  0999 V2000
   -8.7330   18.5400  -31.2220 C   0  0  0  0  0  0  0  0  0  0  0  0
   -8.5510   19.0780  -32.6390 C   0  0  0  0  0  0  0  0  0  0  0  0
   -7.3490   19.9130  -32.7280 N   0  0  0  0  0  0  0  0  0  0  0  0
   -7.2440   21.2370  -32.4700 C   0  0  0  0  0  0  0  0  0  0  0  0
   -8.6030   22.3010  -31.9670 S   0  0  0  0  0  0  0  0  0  0  0  0
   -7.5500   23.4920  -31.0640 C   0  0  0  0  0  0  0  0  0  0  0  0
   -7.0140   22.8940  -29.7570 C   0  0  0  0  0  0  0  0  0  0  0  0
   -5.7600   23.5560  -29.3340 N   0  0  0  0  0  0  0  0  0  0  0  0
   -4.5920   23.0520  -30.1000 C   0  0  0  0  0  0  0  0  0  0  0  0
   -3.4730   24.1030  -30.1700 C   0  0  0  0  0  0  0  0  0  0  0  0
   -3.8650   25.3040  -30.8210 O   0  0  0  0  0  0  0  0  0  0  0  0
   -5.2480   25.6020  -30.6830 C   0  0  0  0  0  0  0  0  0  0  0  0
   -5.8810   25.0330  -29.4000 C   0  0  0  0  0  0  0  0  0  0  0  0
   -5.9930   21.6930  -32.6770 N   0  0  0  0  0  0  0  0  0  0  0  0
   -5.2880   20.6510  -33.0870 N   0  0  0  0  0  0  0  0  0  0  0  0
   -6.0960   19.5750  -33.1150 C   0  0  0  0  0  0  0  0  0  0  0  0
   -5.6570   18.2470  -33.5940 C   0  0  0  0  0  0  0  0  0  0  0  0
   -6.1500   17.0650  -33.0150 C   0  0  0  0  0  0  0  0  0  0  0  0
   -5.7090   15.8190  -33.4700 C   0  0  0  0  0  0  0  0  0  0  0  0
   -4.7640   15.7420  -34.4960 C   0  0  0  0  0  0  0  0  0  0  0  0
   -4.2540   16.9120  -35.0640 C   0  0  0  0  0  0  0  0  0  0  0  0
   -4.6940   18.1600  -34.6110 C   0  0  0  0  0  0  0  0  0  0  0  0
   -8.4682   19.3227  -30.4958 H   0  0  0  0  0  0  0  0  0  0  0  0
   -9.7817   18.2427  -31.0746 H   0  0  0  0  0  0  0  0  0  0  0  0
   -8.0802   17.6670  -31.0746 H   0  0  0  0  0  0  0  0  0  0  0  0
   -8.4554   18.2326  -33.3363 H   0  0  0  0  0  0  0  0  0  0  0  0
   -9.4265   19.6912  -32.8987 H   0  0  0  0  0  0  0  0  0  0  0  0
   -6.6999   23.7729  -31.7031 H   0  0  0  0  0  0  0  0  0  0  0  0
   -8.1615   24.3717  -30.8145 H   0  0  0  0  0  0  0  0  0  0  0  0
   -7.7700   23.0224  -28.9683 H   0  0  0  0  0  0  0  0  0  0  0  0
   -6.8025   21.8278  -29.9256 H   0  0  0  0  0  0  0  0  0  0  0  0
   -4.2040   22.1480  -29.6078 H   0  0  0  0  0  0  0  0  0  0  0  0
   -4.9208   22.8269  -31.1253 H   0  0  0  0  0  0  0  0  0  0  0  0
   -3.1609   24.3486  -29.1442 H   0  0  0  0  0  0  0  0  0  0  0  0
   -2.6545   23.6662  -30.7610 H   0  0  0  0  0  0  0  0  0  0  0  0
   -5.3680   26.6954  -30.6735 H   0  0  0  0  0  0  0  0  0  0  0  0
   -5.7639   25.1293  -31.5318 H   0  0  0  0  0  0  0  0  0  0  0  0
   -5.3734   25.4711  -28.5280 H   0  0  0  0  0  0  0  0  0  0  0  0
   -6.9509   25.2885  -29.4044 H   0  0  0  0  0  0  0  0  0  0  0  0
   -4.2760   20.6860  -33.3420 H   0  0  0  0  0  0  0  0  0  0  0  0
   -6.8865   17.1207  -32.1998 H   0  0  0  0  0  0  0  0  0  0  0  0
   -6.1067   14.8977  -33.0195 H   0  0  0  0  0  0  0  0  0  0  0  0
   -4.4217   14.7607  -34.8564 H   0  0  0  0  0  0  0  0  0  0  0  0
   -3.5058   16.8517  -35.8681 H   0  0  0  0  0  0  0  0  0  0  0  0
   -4.2827   19.0788  -35.0546 H   0  0  0  0  0  0  0  0  0  0  0  0
  1  2  1  0
  2  3  1  0
  3  4  1  0
  4  5  1  0
  5  6  1  0
  6  7  1  0
  7  8  1  0
  8  9  1  0
  9 10  1  0
 10 11  1  0
 11 12  1  0
 12 13  1  0
  4 14  2  0
 14 15  1  0
 15 16  2  0
 16 17  1  0
 17 18  2  0
 18 19  1  0
 19 20  2  0
 20 21  1  0
 21 22  2  0
 16  3  1  0
 22 17  1  0
 13  8  1  0
  1 23  1  0
  1 24  1  0
  1 25  1  0
  2 26  1  0
  2 27  1  0
  6 28  1  0
  6 29  1  0
  7 30  1  0
  7 31  1  0
  9 32  1  0
  9 33  1  0
 10 34  1  0
 10 35  1  0
 12 36  1  0
 12 37  1  0
 13 38  1  0
 13 39  1  0
 15 40  1  0
 18 41  1  0
 19 42  1  0
 20 43  1  0
 21 44  1  0
 22 45  1  0
M  CHG  1  15   1
M  END
>  <UniqueID>  (11) 
11

>  <SMILES>  (11) 
CCn1c(SCCN2CCOCC2)n[nH+]c1-c1ccccc1

>  <Energy>  (11) 
92.9631268368029

>  <Genealogy>  (11) 
CCn1c(SCCN2CCOCC2)n[nH+]c1-c1ccccc1 (protonated)
CCn1c(SCCN2CCOCC2)n[nH+]c1-c1ccccc1 (3D coordinates assigned)
CCn1c(SCCN2CCOCC2)n[nH+]c1-c1ccccc1 (nonaromatic ring conformer: 92.9631268368029 kcal/mol)

>  <smiles>  (11) 
CCn1c(SCCN2CCOCC2)nnc1-c1ccccc1

>  <score_type>  (11) 
oracle

>  <origin>  (11) 
adg

>  <m_score__min__energy>  (11) 
-8.2599999999999998

>  <m_primary>  (11) 
energy

$$$$
11:0
     RDKit          3D

 66 69  0  0  0  0  0  0  0  0999 V2000
   -6.1310   25.0510  -29.7200 C   0  0  0  0  0  0  0  0  0  0  0  0
   -5.1040   25.3110  -30.8170 C   0  0  0  0  0  0  0  0  0  0  0  0
   -3.9610   24.3810  -30.6810 N   0  0  0  0  0  0  0  0  0  0  0  0
   -3.2810   24.5570  -29.3780 C   0  0  0  0  0  0  0  0  0  0  0  0
   -3.4210   23.2980  -28.5270 C   0  0  0  0  0  0  0  0  0  0  0  0
   -4.3930   22.9760  -30.8690 C   0  0  0  0  0  0  0  0  0  0  0  0
   -3.6680   22.3470  -32.0660 C   0  0  0  0  0  0  0  0  0  0  0  0
   -4.6200   21.8980  -33.0830 N   0  0  0  0  0  0  0  0  0  0  0  0
   -5.6660   20.9820  -32.7280 C   0  0  0  0  0  0  0  0  0  0  0  0
   -6.9310   21.4970  -32.3970 C   0  0  0  0  0  0  0  0  0  0  0  0
   -7.1250   22.8890  -32.2500 C   0  0  0  0  0  0  0  0  0  0  0  0
   -8.3880   23.4070  -31.9760 C   0  0  0  0  0  0  0  0  0  0  0  0
   -9.4790   22.5560  -31.8610 C   0  0  0  0  0  0  0  0  0  0  0  0
   -9.3100   21.1780  -31.9950 C   0  0  0  0  0  0  0  0  0  0  0  0
   -8.0300   20.6150  -32.2370 C   0  0  0  0  0  0  0  0  0  0  0  0
   -7.8470   19.2520  -32.3590 N   0  0  0  0  0  0  0  0  0  0  0  0
   -8.9280   18.3240  -31.9540 C   0  0  0  0  0  0  0  0  0  0  0  0
   -6.6440   18.7500  -32.8220 C   0  0  0  0  0  0  0  0  0  0  0  0
   -6.5290   17.4080  -33.2520 C   0  0  0  0  0  0  0  0  0  0  0  0
   -5.3030   16.8780  -33.6320 C   0  0  0  0  0  0  0  0  0  0  0  0
   -4.1550   17.6520  -33.5590 C   0  0  0  0  0  0  0  0  0  0  0  0
   -4.2200   19.0000  -33.1710 C   0  0  0  0  0  0  0  0  0  0  0  0
   -2.9940   19.7180  -32.9190 N   0  0  0  0  0  0  0  0  0  0  0  0
   -1.8510   19.7320  -33.8400 C   0  0  0  0  0  0  0  0  0  0  0  0
   -0.7720   18.7270  -33.3690 C   0  0  0  0  0  0  0  0  0  0  0  0
    0.3470   19.4250  -32.5840 C   0  0  0  0  0  0  0  0  0  0  0  0
    1.0360   20.4590  -33.3820 N   0  0  0  0  0  0  0  0  0  0  0  0
    0.1840   21.1370  -34.3790 C   0  0  0  0  0  0  0  0  0  0  0  0
   -1.2900   21.1650  -33.9630 C   0  0  0  0  0  0  0  0  0  0  0  0
   -5.4930   19.5870  -32.8980 C   0  0  0  0  0  0  0  0  0  0  0  0
   -5.6547   25.1716  -28.7358 H   0  0  0  0  0  0  0  0  0  0  0  0
   -6.9599   25.7676  -29.8165 H   0  0  0  0  0  0  0  0  0  0  0  0
   -6.5191   24.0263  -29.8165 H   0  0  0  0  0  0  0  0  0  0  0  0
   -5.5769   25.1636  -31.7992 H   0  0  0  0  0  0  0  0  0  0  0  0
   -4.7375   26.3442  -30.7266 H   0  0  0  0  0  0  0  0  0  0  0  0
   -2.2138   24.7599  -29.5512 H   0  0  0  0  0  0  0  0  0  0  0  0
   -3.7459   25.3997  -28.8453 H   0  0  0  0  0  0  0  0  0  0  0  0
   -3.3907   23.5703  -27.4617 H   0  0  0  0  0  0  0  0  0  0  0  0
   -4.3792   22.8074  -28.7530 H   0  0  0  0  0  0  0  0  0  0  0  0
   -2.5940   22.6088  -28.7530 H   0  0  0  0  0  0  0  0  0  0  0  0
   -4.1592   22.4007  -29.9610 H   0  0  0  0  0  0  0  0  0  0  0  0
   -5.4762   22.9592  -31.0599 H   0  0  0  0  0  0  0  0  0  0  0  0
   -2.9935   23.0938  -32.5102 H   0  0  0  0  0  0  0  0  0  0  0  0
   -3.0995   21.4749  -31.7108 H   0  0  0  0  0  0  0  0  0  0  0  0
   -4.4220   22.0510  -34.0990 H   0  0  0  0  0  0  0  0  0  0  0  0
   -6.2683   23.5712  -32.3532 H   0  0  0  0  0  0  0  0  0  0  0  0
   -8.5216   24.4916  -31.8505 H   0  0  0  0  0  0  0  0  0  0  0  0
  -10.4790   22.9695  -31.6637 H   0  0  0  0  0  0  0  0  0  0  0  0
  -10.1844   20.5159  -31.9116 H   0  0  0  0  0  0  0  0  0  0  0  0
   -8.9804   18.2790  -30.8562 H   0  0  0  0  0  0  0  0  0  0  0  0
   -9.8882   18.6834  -32.3525 H   0  0  0  0  0  0  0  0  0  0  0  0
   -8.7182   17.3204  -32.3525 H   0  0  0  0  0  0  0  0  0  0  0  0
   -7.4263   16.7727  -33.2861 H   0  0  0  0  0  0  0  0  0  0  0  0
   -5.2424   15.8404  -33.9922 H   0  0  0  0  0  0  0  0  0  0  0  0
   -3.1814   17.2047  -33.8081 H   0  0  0  0  0  0  0  0  0  0  0  0
   -2.8390   20.0860  -31.9520 H   0  0  0  0  0  0  0  0  0  0  0  0
   -2.1818   19.4157  -34.8402 H   0  0  0  0  0  0  0  0  0  0  0  0
   -1.2446   17.9729  -32.7225 H   0  0  0  0  0  0  0  0  0  0  0  0
   -0.3268   18.2584  -34.2591 H   0  0  0  0  0  0  0  0  0  0  0  0
   -0.0900   19.8997  -31.6931 H   0  0  0  0  0  0  0  0  0  0  0  0
    1.0908   18.6618  -32.3113 H   0  0  0  0  0  0  0  0  0  0  0  0
    1.8360   20.0130  -33.8900 H   0  0  0  0  0  0  0  0  0  0  0  0
    0.5368   22.1718  -34.5003 H   0  0  0  0  0  0  0  0  0  0  0  0
    0.2565   20.5741  -35.3213 H   0  0  0  0  0  0  0  0  0  0  0  0
   -1.3812   21.6728  -32.9915 H   0  0  0  0  0  0  0  0  0  0  0  0
   -1.8636   21.7040  -34.7315 H   0  0  0  0  0  0  0  0  0  0  0  0
  1  2  1  0
  2  3  1  0
  3  4  1  0
  4  5  1  0
  3  6  1  0
  6  7  1  0
  7  8  1  0
  8  9  1  0
  9 10  2  0
 10 11  1  0
 11 12  2  0
 12 13  1  0
 13 14  2  0
 14 15  1  0
 15 16  2  0
 16 17  1  0
 16 18  1  0
 18 19  2  0
 19 20  1  0
 20 21  2  0
 21 22  1  0
 22 23  1  0
 23 24  1  0
 24 25  1  0
 25 26  1  0
 26 27  1  0
 27 28  1  0
 28 29  1  0
 22 30  2  0
 30  9  1  0
 15 10  1  0
 30 18  1  0
 29 24  1  0
  1 31  1  0
  1 32  1  0
  1 33  1  0
  2 34  1  0
  2 35  1  0
  4 36  1  0
  4 37  1  0
  5 38  1  0
  5 39  1  0
  5 40  1  0
  6 41  1  0
  6 42  1  0
  7 43  1  0
  7 44  1  0
  8 45  1  0
 11 46  1  0
 12 47  1  0
 13 48  1  0
 14 49  1  0
 17 50  1  0
 17 51  1  0
 17 52  1  0
 19 53  1  0
 20 54  1  0
 21 55  1  0
 23 56  1  0
 24 57  1  0
 25 58  1  0
 25 59  1  0
 26 60  1  0
 26 61  1  0
 27 62  1  0
 28 63  1  0
 28 64  1  0
 29 65  1  0
 29 66  1  0
M  CHG  1  16   1
M  END
>  <UniqueID>  (12) 
12

>  <SMILES>  (12) 
CCN(CC)CCNc1c2ccccc2[n+](C)c2cccc(NC3CCNCC3)c12

>  <Energy>  (12) 
102.12718973500957

>  <Genealogy>  (12) 
CCN(CC)CCNc1c2ccccc2[n+](C)c2cccc(NC3CCNCC3)c12 (3D coordinates assigned)
CCN(CC)CCNc1c2ccccc2[n+](C)c2cccc(NC3CCNCC3)c12 (nonaromatic ring conformer: 102.12718973500957 kcal/mol)

>  <smiles>  (12) 
CCN(CC)CCNc1c2ccccc2[n+](C)c2cccc(NC3CCNCC3)c12

>  <score_type>  (12) 
oracle

>  <origin>  (12) 
adg

>  <m_score__min__energy>  (12) 
-9.4000000000000004

>  <m_primary>  (12) 
energy

$$$$
12:0
     RDKit          3D

 49 51  0  0  0  0  0  0  0  0999 V2000
   -3.5420   22.1070  -30.0530 C   0  0  0  0  0  0  0  0  0  0  0  0
   -3.8540   23.0550  -31.2100 C   0  0  0  0  0  0  0  0  0  0  0  0
   -5.1940   23.6650  -31.0410 N   0  0  0  0  0  0  0  0  0  0  0  0
   -5.1140   24.9420  -30.2950 C   0  0  0  0  0  0  0  0  0  0  0  0
   -6.4810   25.3170  -29.7260 C   0  0  0  0  0  0  0  0  0  0  0  0
   -5.8900   23.8330  -32.3430 C   0  0  0  0  0  0  0  0  0  0  0  0
   -7.2900   23.2200  -32.2700 C   0  0  0  0  0  0  0  0  0  0  0  0
   -7.3480   22.1560  -31.2700 N   0  0  0  0  0  0  0  0  0  0  0  0
   -7.5940   20.8010  -31.6750 C   0  0  0  0  0  0  0  0  0  0  0  0
   -8.8440   20.2410  -31.3960 C   0  0  0  0  0  0  0  0  0  0  0  0
   -9.1060   18.9140  -31.7130 C   0  0  0  0  0  0  0  0  0  0  0  0
   -8.1400   18.1360  -32.3460 C   0  0  0  0  0  0  0  0  0  0  0  0
   -6.8840   18.6820  -32.7110 C   0  0  0  0  0  0  0  0  0  0  0  0
   -6.6070   20.0250  -32.3340 C   0  0  0  0  0  0  0  0  0  0  0  0
   -5.3550   20.5670  -32.6380 C   0  0  0  0  0  0  0  0  0  0  0  0
   -4.3650   19.7760  -33.2110 C   0  0  0  0  0  0  0  0  0  0  0  0
   -3.0860   20.3120  -33.4330 C   0  0  0  0  0  0  0  0  0  0  0  0
   -2.0680   19.5120  -33.9480 C   0  0  0  0  0  0  0  0  0  0  0  0
   -2.3140   18.1710  -34.2340 C   0  0  0  0  0  0  0  0  0  0  0  0
   -3.5870   17.6310  -34.0360 C   0  0  0  0  0  0  0  0  0  0  0  0
   -4.6530   18.4330  -33.5550 C   0  0  0  0  0  0  0  0  0  0  0  0
   -5.9390   17.9430  -33.4030 N   0  0  0  0  0  0  0  0  0  0  0  0
   -6.3100   16.6470  -34.0120 C   0  0  0  0  0  0  0  0  0  0  0  0
   -3.7126   22.6255  -29.0980 H   0  0  0  0  0  0  0  0  0  0  0  0
   -4.1975   21.2258  -30.1141 H   0  0  0  0  0  0  0  0  0  0  0  0
   -2.4913   21.7873  -30.1141 H   0  0  0  0  0  0  0  0  0  0  0  0
   -3.0958   23.8514  -31.2387 H   0  0  0  0  0  0  0  0  0  0  0  0
   -3.8421   22.4825  -32.1492 H   0  0  0  0  0  0  0  0  0  0  0  0
   -4.3956   24.8341  -29.4690 H   0  0  0  0  0  0  0  0  0  0  0  0
   -4.7857   25.7352  -30.9827 H   0  0  0  0  0  0  0  0  0  0  0  0
   -6.4366   25.3048  -28.6270 H   0  0  0  0  0  0  0  0  0  0  0  0
   -6.7578   26.3243  -30.0706 H   0  0  0  0  0  0  0  0  0  0  0  0
   -7.2330   24.5920  -30.0706 H   0  0  0  0  0  0  0  0  0  0  0  0
   -5.9732   24.9048  -32.5761 H   0  0  0  0  0  0  0  0  0  0  0  0
   -5.3132   23.3242  -33.1294 H   0  0  0  0  0  0  0  0  0  0  0  0
   -8.0122   24.0050  -32.0013 H   0  0  0  0  0  0  0  0  0  0  0  0
   -7.5340   22.7893  -33.2523 H   0  0  0  0  0  0  0  0  0  0  0  0
   -6.7630   22.2870  -30.4130 H   0  0  0  0  0  0  0  0  0  0  0  0
   -9.6247   20.8546  -30.9227 H   0  0  0  0  0  0  0  0  0  0  0  0
  -10.0829   18.4750  -31.4623 H   0  0  0  0  0  0  0  0  0  0  0  0
   -8.3553   17.0800  -32.5664 H   0  0  0  0  0  0  0  0  0  0  0  0
   -5.1514   21.6263  -32.4226 H   0  0  0  0  0  0  0  0  0  0  0  0
   -2.8870   21.3683  -33.1992 H   0  0  0  0  0  0  0  0  0  0  0  0
   -1.0706   19.9392  -34.1286 H   0  0  0  0  0  0  0  0  0  0  0  0
   -1.5026   17.5348  -34.6173 H   0  0  0  0  0  0  0  0  0  0  0  0
   -3.7651   16.5681  -34.2564 H   0  0  0  0  0  0  0  0  0  0  0  0
   -6.5195   15.9153  -33.2178 H   0  0  0  0  0  0  0  0  0  0  0  0
   -7.2067   16.7782  -34.6355 H   0  0  0  0  0  0  0  0  0  0  0  0
   -5.4797   16.2838  -34.6355 H   0  0  0  0  0  0  0  0  0  0  0  0
  1  2  1  0
  2  3  1  0
  3  4  1  0
  4  5  1  0
  3  6  1  0
  6  7  1  0
  7  8  1  0
  8  9  1  0
  9 10  2  0
 10 11  1  0
 11 12  2  0
 12 13  1  0
 13 14  2  0
 14 15  1  0
 15 16  2  0
 16 17  1  0
 17 18  2  0
 18 19  1  0
 19 20  2  0
 20 21  1  0
 21 22  2  0
 22 23  1  0
 14  9  1  0
 21 16  1  0
 22 13  1  0
  1 24  1  0
  1 25  1  0
  1 26  1  0
  2 27  1  0
  2 28  1  0
  4 29  1  0
  4 30  1  0
  5 31  1  0
  5 32  1  0
  5 33  1  0
  6 34  1  0
  6 35  1  0
  7 36  1  0
  7 37  1  0
  8 38  1  0
 10 39  1  0
 11 40  1  0
 12 41  1  0
 15 42  1  0
 17 43  1  0
 18 44  1  0
 19 45  1  0
 20 46  1  0
 23 47  1  0
 23 48  1  0
 23 49  1  0
M  CHG  1  22   1
M  END
>  <UniqueID>  (13) 
13

>  <SMILES>  (13) 
CCN(CC)CCNc1cccc2c1cc1ccccc1[n+]2C

>  <Energy>  (13) 
71.07620206678455

>  <Genealogy>  (13) 
CCN(CC)CCNc1cccc2c1cc1ccccc1[n+]2C (3D coordinates assigned)
CCN(CC)CCNc1cccc2c1cc1ccccc1[n+]2C (optimized conformer: 71.07620206678455 kcal/mol)

>  <smiles>  (13) 
CCN(CC)CCNc1cccc2c1cc1ccccc1[n+]2C

>  <score_type>  (13) 
oracle

>  <origin>  (13) 
adg

>  <m_score__min__energy>  (13) 
-7.7699999999999996

>  <m_primary>  (13) 
energy

$$$$
13:0
     RDKit          3D

 22 23  0  0  0  0  0  0  0  0999 V2000
   -6.2030   25.6410  -29.6940 C   0  0  0  0  0  0  0  0  0  0  0  0
   -4.9920   24.9170  -30.8430 S   0  0  0  0  0  0  0  0  0  0  0  0
   -6.0960   23.5940  -31.3440 C   0  0  0  0  0  0  0  0  0  0  0  0
   -7.4230   23.6060  -31.0510 N   0  0  0  0  0  0  0  0  0  0  0  0
   -7.8550   22.4420  -31.5710 C   0  0  0  0  0  0  0  0  0  0  0  0
   -9.1490   21.9280  -31.5380 C   0  0  0  0  0  0  0  0  0  0  0  0
   -9.3680   20.6670  -32.1240 C   0  0  0  0  0  0  0  0  0  0  0  0
   -8.2970   19.9570  -32.7150 C   0  0  0  0  0  0  0  0  0  0  0  0
   -7.0010   20.5040  -32.7300 C   0  0  0  0  0  0  0  0  0  0  0  0
   -6.8230   21.7600  -32.1470 C   0  0  0  0  0  0  0  0  0  0  0  0
   -5.7000   22.4870  -32.0250 N   0  0  0  0  0  0  0  0  0  0  0  0
   -4.3440   22.1060  -32.4130 C   0  0  0  0  0  0  0  0  0  0  0  0
   -5.8849   25.4508  -28.6583 H   0  0  0  0  0  0  0  0  0  0  0  0
   -6.2672   26.7258  -29.8645 H   0  0  0  0  0  0  0  0  0  0  0  0
   -7.1890   25.1840  -29.8645 H   0  0  0  0  0  0  0  0  0  0  0  0
   -9.9718   22.4883  -31.0700 H   0  0  0  0  0  0  0  0  0  0  0  0
  -10.3780   20.2312  -32.1223 H   0  0  0  0  0  0  0  0  0  0  0  0
   -8.4787   18.9703  -33.1660 H   0  0  0  0  0  0  0  0  0  0  0  0
   -6.1586   19.9619  -33.1845 H   0  0  0  0  0  0  0  0  0  0  0  0
   -3.7385   21.9359  -31.5105 H   0  0  0  0  0  0  0  0  0  0  0  0
   -4.3792   21.1830  -33.0103 H   0  0  0  0  0  0  0  0  0  0  0  0
   -3.8933   22.9123  -33.0103 H   0  0  0  0  0  0  0  0  0  0  0  0
  1  2  1  0
  2  3  1  0
  3  4  2  0
  4  5  1  0
  5  6  2  0
  6  7  1  0
  7  8  2  0
  8  9  1  0
  9 10  2  0
 10 11  1  0
 11 12  1  0
 11  3  1  0
 10  5  1  0
  1 13  1  0
  1 14  1  0
  1 15  1  0
  6 16  1  0
  7 17  1  0
  8 18  1  0
  9 19  1  0
 12 20  1  0
 12 21  1  0
 12 22  1  0
M  END
>  <UniqueID>  (14) 
14

>  <SMILES>  (14) 
CSc1nc2ccccc2n1C

>  <Energy>  (14) 
55.38356808155048

>  <Genealogy>  (14) 
CSc1nc2ccccc2n1C (3D coordinates assigned)
CSc1nc2ccccc2n1C (optimized conformer: 55.38356808155048 kcal/mol)

>  <smiles>  (14) 
CSc1nc2ccccc2n1C

>  <score_type>  (14) 
oracle

>  <origin>  (14) 
adg

>  <m_score__min__energy>  (14) 
-5.6200000000000001

>  <m_primary>  (14) 
energy

$$$$
14:0
     RDKit          3D

 56 58  0  0  0  0  0  0  0  0999 V2000
   -4.2470   24.8970  -26.3770 C   0  0  0  0  0  0  0  0  0  0  0  0
   -2.7840   25.2980  -26.1840 C   0  0  0  0  0  0  0  0  0  0  0  0
   -1.8360   24.5600  -27.1430 C   0  0  0  0  0  0  0  0  0  0  0  0
   -1.5230   25.3240  -28.4390 C   0  0  0  0  0  0  0  0  0  0  0  0
   -2.6310   25.2810  -29.3440 O   0  0  0  0  0  0  0  0  0  0  0  0
   -3.0990   24.1540  -30.0380 C   0  0  0  0  0  0  0  0  0  0  0  0
   -2.2370   23.0590  -30.1660 C   0  0  0  0  0  0  0  0  0  0  0  0
   -2.6350   21.9150  -30.8630 C   0  0  0  0  0  0  0  0  0  0  0  0
   -3.9060   21.8540  -31.4510 C   0  0  0  0  0  0  0  0  0  0  0  0
   -4.3210   20.6410  -32.1820 C   0  0  0  0  0  0  0  0  0  0  0  0
   -3.4610   19.6280  -32.4600 N   0  0  0  0  0  0  0  0  0  0  0  0
   -4.2040   18.7340  -33.1300 C   0  0  0  0  0  0  0  0  0  0  0  0
   -3.8050   17.5100  -33.6620 C   0  0  0  0  0  0  0  0  0  0  0  0
   -4.7710   16.7520  -34.3510 C   0  0  0  0  0  0  0  0  0  0  0  0
   -6.0920   17.2330  -34.4910 C   0  0  0  0  0  0  0  0  0  0  0  0
   -6.4610   18.4770  -33.9420 C   0  0  0  0  0  0  0  0  0  0  0  0
   -5.4810   19.2010  -33.2600 C   0  0  0  0  0  0  0  0  0  0  0  0
   -5.5740   20.4110  -32.6710 N   0  0  0  0  0  0  0  0  0  0  0  0
   -6.7310   21.3150  -32.7070 C   0  0  0  0  0  0  0  0  0  0  0  0
   -7.7170   20.9230  -31.6760 N   0  0  0  0  0  0  0  0  0  0  0  0
   -8.7730   20.0640  -32.2570 C   0  0  0  0  0  0  0  0  0  0  0  0
   -8.7520   18.6870  -31.6000 C   0  0  0  0  0  0  0  0  0  0  0  0
   -8.3000   22.1200  -31.0250 C   0  0  0  0  0  0  0  0  0  0  0  0
   -8.1770   23.3360  -31.9400 C   0  0  0  0  0  0  0  0  0  0  0  0
   -4.7890   22.9300  -31.2910 C   0  0  0  0  0  0  0  0  0  0  0  0
   -4.3920   24.0740  -30.5930 C   0  0  0  0  0  0  0  0  0  0  0  0
   -4.7240   24.7662  -25.3945 H   0  0  0  0  0  0  0  0  0  0  0  0
   -4.7721   25.6843  -26.9377 H   0  0  0  0  0  0  0  0  0  0  0  0
   -4.2973   23.9520  -26.9377 H   0  0  0  0  0  0  0  0  0  0  0  0
   -2.6895   26.3799  -26.3588 H   0  0  0  0  0  0  0  0  0  0  0  0
   -2.4971   25.0256  -25.1576 H   0  0  0  0  0  0  0  0  0  0  0  0
   -0.8887   24.3748  -26.6155 H   0  0  0  0  0  0  0  0  0  0  0  0
   -2.3492   23.6337  -27.4408 H   0  0  0  0  0  0  0  0  0  0  0  0
   -1.3009   26.3728  -28.1928 H   0  0  0  0  0  0  0  0  0  0  0  0
   -0.6577   24.8486  -28.9240 H   0  0  0  0  0  0  0  0  0  0  0  0
   -1.2354   23.0992  -29.7131 H   0  0  0  0  0  0  0  0  0  0  0  0
   -1.9488   21.0598  -30.9505 H   0  0  0  0  0  0  0  0  0  0  0  0
   -2.4500   19.5580  -32.2080 H   0  0  0  0  0  0  0  0  0  0  0  0
   -2.7723   17.1486  -33.5479 H   0  0  0  0  0  0  0  0  0  0  0  0
   -4.4953   15.7788  -34.7832 H   0  0  0  0  0  0  0  0  0  0  0  0
   -6.8376   16.6321  -35.0324 H   0  0  0  0  0  0  0  0  0  0  0  0
   -7.4852   18.8643  -34.0470 H   0  0  0  0  0  0  0  0  0  0  0  0
   -6.3941   22.3444  -32.5150 H   0  0  0  0  0  0  0  0  0  0  0  0
   -7.2040   21.2538  -33.6982 H   0  0  0  0  0  0  0  0  0  0  0  0
   -9.7546   20.5315  -32.0900 H   0  0  0  0  0  0  0  0  0  0  0  0
   -8.5903   19.9501  -33.3357 H   0  0  0  0  0  0  0  0  0  0  0  0
   -8.7538   18.8026  -30.5061 H   0  0  0  0  0  0  0  0  0  0  0  0
   -9.6416   18.1192  -31.9101 H   0  0  0  0  0  0  0  0  0  0  0  0
   -7.8455   18.1465  -31.9101 H   0  0  0  0  0  0  0  0  0  0  0  0
   -9.3626   21.9343  -30.8098 H   0  0  0  0  0  0  0  0  0  0  0  0
   -7.7546   22.3196  -30.0908 H   0  0  0  0  0  0  0  0  0  0  0  0
   -8.0849   24.2464  -31.3295 H   0  0  0  0  0  0  0  0  0  0  0  0
   -7.2852   23.2285  -32.5749 H   0  0  0  0  0  0  0  0  0  0  0  0
   -9.0723   23.4092  -32.5749 H   0  0  0  0  0  0  0  0  0  0  0  0
   -5.8014   22.8741  -31.7175 H   0  0  0  0  0  0  0  0  0  0  0  0
   -5.0913   24.9150  -30.4764 H   0  0  0  0  0  0  0  0  0  0  0  0
  1  2  1  0
  2  3  1  0
  3  4  1  0
  4  5  1  0
  5  6  1  0
  6  7  2  0
  7  8  1  0
  8  9  2  0
  9 10  1  0
 10 11  2  0
 11 12  1  0
 12 13  2  0
 13 14  1  0
 14 15  2  0
 15 16  1  0
 16 17  2  0
 17 18  1  0
 18 19  1  0
 19 20  1  0
 20 21  1  0
 21 22  1  0
 20 23  1  0
 23 24  1  0
  9 25  1  0
 25 26  2  0
 26  6  1  0
 18 10  1  0
 17 12  1  0
  1 27  1  0
  1 28  1  0
  1 29  1  0
  2 30  1  0
  2 31  1  0
  3 32  1  0
  3 33  1  0
  4 34  1  0
  4 35  1  0
  7 36  1  0
  8 37  1  0
 11 38  1  0
 13 39  1  0
 14 40  1  0
 15 41  1  0
 16 42  1  0
 19 43  1  0
 19 44  1  0
 21 45  1  0
 21 46  1  0
 22 47  1  0
 22 48  1  0
 22 49  1  0
 23 50  1  0
 23 51  1  0
 24 52  1  0
 24 53  1  0
 24 54  1  0
 25 55  1  0
 26 56  1  0
M  CHG  1  11   1
M  END
>  <UniqueID>  (15) 
15

>  <SMILES>  (15) 
CCCCOc1ccc(-c2[nH+]c3ccccc3n2CN(CC)CC)cc1

>  <Energy>  (15) 
95.35187301491071

>  <Genealogy>  (15) 
CCCCOc1ccc(-c2[nH+]c3ccccc3n2CN(CC)CC)cc1 (protonated)
CCCCOc1ccc(-c2[nH+]c3ccccc3n2CN(CC)CC)cc1 (3D coordinates assigned)
CCCCOc1ccc(-c2[nH+]c3ccccc3n2CN(CC)CC)cc1 (optimized conformer: 95.35187301491071 kcal/mol)

>  <smiles>  (15) 
CCCCOc1ccc(-c2nc3ccccc3n2CN(CC)CC)cc1

>  <score_type>  (15) 
oracle

>  <origin>  (15) 
adg

>  <m_score__min__energy>  (15) 
-7.7300000000000004

>  <m_primary>  (15) 
energy

$$$$
