0:0
     RDKit          3D

 61 65  0  0  0  0  0  0  0  0999 V2000
   -9.1790   18.5920  -31.9890 C   0  0  0  0  0  0  0  0  0  0  0  0
   -8.0080   17.8350  -31.6940 O   0  0  0  0  0  0  0  0  0  0  0  0
   -6.9070   17.7060  -32.5560 C   0  0  0  0  0  0  0  0  0  0  0  0
   -6.5810   16.4830  -33.1730 C   0  0  0  0  0  0  0  0  0  0  0  0
   -5.4810   16.3940  -34.0280 C   0  0  0  0  0  0  0  0  0  0  0  0
   -4.6920   17.5220  -34.2850 C   0  0  0  0  0  0  0  0  0  0  0  0
   -3.5000   17.4170  -35.2090 C   0  0  0  0  0  0  0  0  0  0  0  0
   -2.3130   16.8830  -34.5190 N   0  0  0  0  0  0  0  0  0  0  0  0
   -1.2790   17.9130  -34.3250 C   0  0  0  0  0  0  0  0  0  0  0  0
   -1.8440   19.0900  -33.5710 C   0  0  0  0  0  0  0  0  0  0  0  0
   -2.0990   20.3010  -34.2310 C   0  0  0  0  0  0  0  0  0  0  0  0
   -2.6510   21.3820  -33.5360 C   0  0  0  0  0  0  0  0  0  0  0  0
   -2.9710   21.2660  -32.1710 C   0  0  0  0  0  0  0  0  0  0  0  0
   -3.5580   22.4120  -31.4290 C   0  0  0  0  0  0  0  0  0  0  0  0
   -4.8570   22.8620  -31.7240 C   0  0  0  0  0  0  0  0  0  0  0  0
   -5.4060   23.9460  -31.0350 C   0  0  0  0  0  0  0  0  0  0  0  0
   -4.6690   24.5930  -30.0410 C   0  0  0  0  0  0  0  0  0  0  0  0
   -3.3720   24.1570  -29.7220 C   0  0  0  0  0  0  0  0  0  0  0  0
   -2.5980   24.8340  -28.6570 C   0  0  0  0  0  0  0  0  0  0  0  0
   -1.5800   25.7000  -28.9180 N   0  0  0  0  0  0  0  0  0  0  0  0
   -1.1680   26.0500  -27.6920 C   0  0  0  0  0  0  0  0  0  0  0  0
   -0.1320   26.9180  -27.3550 C   0  0  0  0  0  0  0  0  0  0  0  0
    0.1230   27.1280  -25.9850 C   0  0  0  0  0  0  0  0  0  0  0  0
   -0.6570   26.4750  -25.0040 C   0  0  0  0  0  0  0  0  0  0  0  0
   -1.6940   25.6010  -25.3850 C   0  0  0  0  0  0  0  0  0  0  0  0
   -1.9160   25.4170  -26.7470 C   0  0  0  0  0  0  0  0  0  0  0  0
   -2.8330   24.6330  -27.3310 N   0  0  0  0  0  0  0  0  0  0  0  0
   -2.8230   23.0670  -30.4210 C   0  0  0  0  0  0  0  0  0  0  0  0
   -2.7290   20.0420  -31.5190 C   0  0  0  0  0  0  0  0  0  0  0  0
   -2.1720   18.9640  -32.2140 C   0  0  0  0  0  0  0  0  0  0  0  0
   -5.0060   18.7410  -33.6630 C   0  0  0  0  0  0  0  0  0  0  0  0
   -6.1140   18.8390  -32.7980 C   0  0  0  0  0  0  0  0  0  0  0  0
   -6.4590   20.0430  -32.1640 O   0  0  0  0  0  0  0  0  0  0  0  0
   -7.2970   21.0450  -32.7330 C   0  0  0  0  0  0  0  0  0  0  0  0
   -9.6605   18.9033  -31.0503 H   0  0  0  0  0  0  0  0  0  0  0  0
   -8.9025   19.4827  -32.5722 H   0  0  0  0  0  0  0  0  0  0  0  0
   -9.8777   17.9742  -32.5722 H   0  0  0  0  0  0  0  0  0  0  0  0
   -7.1969   15.5922  -32.9801 H   0  0  0  0  0  0  0  0  0  0  0  0
   -5.2328   15.4330  -34.5022 H   0  0  0  0  0  0  0  0  0  0  0  0
   -3.7559   16.7487  -36.0444 H   0  0  0  0  0  0  0  0  0  0  0  0
   -3.2582   18.4281  -35.5684 H   0  0  0  0  0  0  0  0  0  0  0  0
   -2.5890   16.4760  -33.5940 H   0  0  0  0  0  0  0  0  0  0  0  0
   -1.9180   16.1140  -35.1110 H   0  0  0  0  0  0  0  0  0  0  0  0
   -0.4429   17.4839  -33.7533 H   0  0  0  0  0  0  0  0  0  0  0  0
   -0.9276   18.2555  -35.3095 H   0  0  0  0  0  0  0  0  0  0  0  0
   -1.8636   20.4011  -35.3008 H   0  0  0  0  0  0  0  0  0  0  0  0
   -2.8364   22.3307  -34.0610 H   0  0  0  0  0  0  0  0  0  0  0  0
   -5.4457   22.3564  -32.5036 H   0  0  0  0  0  0  0  0  0  0  0  0
   -6.4222   24.2911  -31.2762 H   0  0  0  0  0  0  0  0  0  0  0  0
   -5.1061   25.4484  -29.5050 H   0  0  0  0  0  0  0  0  0  0  0  0
    0.4652   27.4211  -28.1298 H   0  0  0  0  0  0  0  0  0  0  0  0
    0.9341   27.8043  -25.6773 H   0  0  0  0  0  0  0  0  0  0  0  0
   -0.4533   26.6501  -23.9373 H   0  0  0  0  0  0  0  0  0  0  0  0
   -2.3067   25.0823  -24.6330 H   0  0  0  0  0  0  0  0  0  0  0  0
   -1.8073   22.7216  -30.1778 H   0  0  0  0  0  0  0  0  0  0  0  0
   -2.9802   19.9327  -30.4537 H   0  0  0  0  0  0  0  0  0  0  0  0
   -1.9903   18.0123  -31.6932 H   0  0  0  0  0  0  0  0  0  0  0  0
   -4.3819   19.6268  -33.8525 H   0  0  0  0  0  0  0  0  0  0  0  0
   -7.7784   21.6206  -31.9286 H   0  0  0  0  0  0  0  0  0  0  0  0
   -6.6908   21.7202  -33.3548 H   0  0  0  0  0  0  0  0  0  0  0  0
   -8.0688   20.5678  -33.3548 H   0  0  0  0  0  0  0  0  0  0  0  0
  1  2  1  0
  2  3  1  0
  3  4  2  0
  4  5  1  0
  5  6  2  0
  6  7  1  0
  7  8  1  0
  8  9  1  0
  9 10  1  0
 10 11  2  0
 11 12  1  0
 12 13  2  0
 13 14  1  0
 14 15  2  0
 15 16  1  0
 16 17  2  0
 17 18  1  0
 18 19  1  0
 19 20  2  0
 20 21  1  0
 21 22  2  0
 22 23  1  0
 23 24  2  0
 24 25  1  0
 25 26  2  0
 26 27  1  0
 18 28  2  0
 13 29  1  0
 29 30  2  0
  6 31  1  0
 31 32  2  0
 32 33  1  0
 33 34  1  0
 32  3  1  0
 30 10  1  0
 28 14  1  0
 27 19  1  0
 26 21  1  0
  1 35  1  0
  1 36  1  0
  1 37  1  0
  4 38  1  0
  5 39  1  0
  7 40  1  0
  7 41  1  0
  8 42  1  0
  8 43  1  0
  9 44  1  0
  9 45  1  0
 11 46  1  0
 12 47  1  0
 15 48  1  0
 16 49  1  0
 17 50  1  0
 22 51  1  0
 23 52  1  0
 24 53  1  0
 25 54  1  0
 28 55  1  0
 29 56  1  0
 30 57  1  0
 31 58  1  0
 34 59  1  0
 34 60  1  0
 34 61  1  0
M  CHG  2   8   1  27  -1
M  END
>  <UniqueID>  (1) 
1

>  <SMILES>  (1) 
COc1ccc(C[NH2+]Cc2ccc(-c3cccc(-c4nc5ccccc5[n-]4)c3)cc2)cc1OC

>  <Energy>  (1) 
106.11028968782077

>  <Genealogy>  (1) 
COc1ccc(C[NH2+]Cc2ccc(-c3cccc(-c4nc5ccccc5[n-]4)c3)cc2)cc1OC (protonated)
COc1ccc(C[NH2+]Cc2ccc(-c3cccc(-c4nc5ccccc5[n-]4)c3)cc2)cc1OC (3D coordinates assigned)
COc1ccc(C[NH2+]Cc2ccc(-c3cccc(-c4nc5ccccc5[n-]4)c3)cc2)cc1OC (optimized conformer: 106.11028968782077 kcal/mol)

>  <smiles>  (1) 
COc1ccc(CNCc2ccc(-c3cccc(-c4nc5ccccc5[nH]4)c3)cc2)cc1OC

>  <score_type>  (1) 
oracle

>  <origin>  (1) 
adg

>  <m_score__min__energy>  (1) 
-9.3000000000000007

>  <m_primary>  (1) 
energy

$$$$
1:0
     RDKit          3D

 50 53  0  0  0  0  0  0  0  0999 V2000
   -9.3150   19.9810  -32.3430 C   0  0  0  0  0  0  0  0  0  0  0  0
   -9.5710   21.4460  -31.9900 C   0  0  0  0  0  0  0  0  0  0  0  0
   -8.7230   21.9400  -30.8000 C   0  0  0  0  0  0  0  0  0  0  0  0
   -7.7460   22.9860  -31.1560 N   0  0  0  0  0  0  0  0  0  0  0  0
   -6.4540   22.4310  -31.4780 C   0  0  0  0  0  0  0  0  0  0  0  0
   -6.3040   21.2490  -32.2220 C   0  0  0  0  0  0  0  0  0  0  0  0
   -4.9760   20.8880  -32.4140 C   0  0  0  0  0  0  0  0  0  0  0  0
   -4.5410   19.6780  -33.0570 N   0  0  0  0  0  0  0  0  0  0  0  0
   -3.2580   19.5550  -33.7530 C   0  0  0  0  0  0  0  0  0  0  0  0
   -3.3190   18.2270  -34.5430 C   0  0  0  0  0  0  0  0  0  0  0  0
   -4.6390   17.6600  -34.1580 C   0  0  0  0  0  0  0  0  0  0  0  0
   -5.1760   16.4250  -34.5250 C   0  0  0  0  0  0  0  0  0  0  0  0
   -6.4210   16.0510  -33.9960 C   0  0  0  0  0  0  0  0  0  0  0  0
   -7.0930   16.9030  -33.1000 C   0  0  0  0  0  0  0  0  0  0  0  0
   -6.5300   18.1390  -32.7410 C   0  0  0  0  0  0  0  0  0  0  0  0
   -5.3050   18.5080  -33.3130 C   0  0  0  0  0  0  0  0  0  0  0  0
   -3.9870   22.0110  -31.6440 S   0  0  0  0  0  0  0  0  0  0  0  0
   -5.2330   22.9860  -31.0770 C   0  0  0  0  0  0  0  0  0  0  0  0
   -4.9770   24.5070  -30.2280 S   0  0  0  0  0  0  0  0  0  0  0  0
   -6.2420   24.9090  -29.5210 O   0  0  0  0  0  0  0  0  0  0  0  0
   -4.6200   25.5800  -31.2180 O   0  0  0  0  0  0  0  0  0  0  0  0
   -3.7000   24.3090  -29.0320 C   0  0  0  0  0  0  0  0  0  0  0  0
   -2.4110   23.9150  -29.4200 C   0  0  0  0  0  0  0  0  0  0  0  0
   -1.4100   23.7450  -28.4580 C   0  0  0  0  0  0  0  0  0  0  0  0
   -1.6910   23.9680  -27.1060 C   0  0  0  0  0  0  0  0  0  0  0  0
   -0.3240   23.7330  -25.7940 Br  0  0  0  0  0  0  0  0  0  0  0  0
   -2.9750   24.3650  -26.7170 C   0  0  0  0  0  0  0  0  0  0  0  0
   -3.9760   24.5360  -27.6770 C   0  0  0  0  0  0  0  0  0  0  0  0
   -9.2124   19.3936  -31.4186 H   0  0  0  0  0  0  0  0  0  0  0  0
  -10.1589   19.5929  -32.9322 H   0  0  0  0  0  0  0  0  0  0  0  0
   -8.3895   19.9021  -32.9322 H   0  0  0  0  0  0  0  0  0  0  0  0
   -9.3344   22.0641  -32.8686 H   0  0  0  0  0  0  0  0  0  0  0  0
  -10.6278   21.5325  -31.6973 H   0  0  0  0  0  0  0  0  0  0  0  0
   -9.4020   22.3459  -30.0357 H   0  0  0  0  0  0  0  0  0  0  0  0
   -8.1475   21.0756  -30.4373 H   0  0  0  0  0  0  0  0  0  0  0  0
   -7.6490   23.6370  -30.3440 H   0  0  0  0  0  0  0  0  0  0  0  0
   -8.0960   23.5640  -31.9540 H   0  0  0  0  0  0  0  0  0  0  0  0
   -7.1521   20.6679  -32.6131 H   0  0  0  0  0  0  0  0  0  0  0  0
   -3.1151   20.4013  -34.4410 H   0  0  0  0  0  0  0  0  0  0  0  0
   -2.4165   19.5608  -33.0446 H   0  0  0  0  0  0  0  0  0  0  0  0
   -3.2698   18.4105  -35.6265 H   0  0  0  0  0  0  0  0  0  0  0  0
   -2.4790   17.5533  -34.3179 H   0  0  0  0  0  0  0  0  0  0  0  0
   -4.6352   15.7594  -35.2138 H   0  0  0  0  0  0  0  0  0  0  0  0
   -6.8725   15.0897  -34.2824 H   0  0  0  0  0  0  0  0  0  0  0  0
   -8.0630   16.6000  -32.6790 H   0  0  0  0  0  0  0  0  0  0  0  0
   -7.0394   18.8025  -32.0267 H   0  0  0  0  0  0  0  0  0  0  0  0
   -2.1870   23.7394  -30.4825 H   0  0  0  0  0  0  0  0  0  0  0  0
   -0.4001   23.4354  -28.7651 H   0  0  0  0  0  0  0  0  0  0  0  0
   -3.1968   24.5427  -25.6543 H   0  0  0  0  0  0  0  0  0  0  0  0
   -4.9840   24.8498  -27.3680 H   0  0  0  0  0  0  0  0  0  0  0  0
  1  2  1  0
  2  3  1  0
  3  4  1  0
  4  5  1  0
  5  6  1  0
  6  7  2  0
  7  8  1  0
  8  9  1  0
  9 10  1  0
 10 11  1  0
 11 12  2  0
 12 13  1  0
 13 14  2  0
 14 15  1  0
 15 16  2  0
  7 17  1  0
 17 18  1  0
 18 19  1  0
 19 20  2  0
 19 21  2  0
 19 22  1  0
 22 23  2  0
 23 24  1  0
 24 25  2  0
 25 26  1  0
 25 27  1  0
 27 28  2  0
 18  5  2  0
 28 22  1  0
 16  8  1  0
 16 11  1  0
  1 29  1  0
  1 30  1  0
  1 31  1  0
  2 32  1  0
  2 33  1  0
  3 34  1  0
  3 35  1  0
  4 36  1  0
  4 37  1  0
  6 38  1  0
  9 39  1  0
  9 40  1  0
 10 41  1  0
 10 42  1  0
 12 43  1  0
 13 44  1  0
 14 45  1  0
 15 46  1  0
 23 47  1  0
 24 48  1  0
 27 49  1  0
 28 50  1  0
M  CHG  1   4   1
M  END
>  <UniqueID>  (2) 
2

>  <SMILES>  (2) 
CCC[NH2+]c1cc(N2CCc3ccccc32)sc1S(=O)(=O)c1ccc(Br)cc1

>  <Energy>  (2) 
97.24231698323965

>  <Genealogy>  (2) 
CCC[NH2+]c1cc(N2CCc3ccccc32)sc1S(=O)(=O)c1ccc(Br)cc1 (protonated)
CCC[NH2+]c1cc(N2CCc3ccccc32)sc1S(=O)(=O)c1ccc(Br)cc1 (3D coordinates assigned)
CCC[NH2+]c1cc(N2CCc3ccccc32)sc1S(=O)(=O)c1ccc(Br)cc1 (nonaromatic ring conformer: 97.24231698323965 kcal/mol)

>  <smiles>  (2) 
CCCNc1cc(N2CCc3ccccc32)sc1S(=O)(=O)c1ccc(Br)cc1

>  <score_type>  (2) 
oracle

>  <origin>  (2) 
adg

>  <m_score__min__energy>  (2) 
-9.0399999999999991

>  <m_primary>  (2) 
energy

$$$$
2:0
     RDKit          3D

 39 41  0  0  0  0  0  0  0  0999 V2000
   -2.1200   21.1080  -31.6910 C   0  0  0  0  0  0  0  0  0  0  0  0
   -2.5040   21.6680  -30.3240 C   0  0  0  0  0  0  0  0  0  0  0  0
   -3.3860   22.8870  -30.4700 C   0  0  0  0  0  0  0  0  0  0  0  0
   -4.5640   22.7840  -31.2240 C   0  0  0  0  0  0  0  0  0  0  0  0
   -5.4010   23.8950  -31.4070 C   0  0  0  0  0  0  0  0  0  0  0  0
   -6.5980   23.7790  -32.2080 N   0  0  0  0  0  0  0  0  0  0  0  0
   -7.6960   23.2440  -31.3950 C   0  0  0  0  0  0  0  0  0  0  0  0
   -7.8900   21.7860  -31.6730 C   0  0  0  0  0  0  0  0  0  0  0  0
   -8.9640   21.0830  -31.2560 N   0  0  0  0  0  0  0  0  0  0  0  0
   -8.7400   19.8490  -31.7470 C   0  0  0  0  0  0  0  0  0  0  0  0
   -7.5500   19.8550  -32.4430 C   0  0  0  0  0  0  0  0  0  0  0  0
   -6.9170   18.7270  -33.1470 C   0  0  0  0  0  0  0  0  0  0  0  0
   -6.0200   18.9050  -34.2120 C   0  0  0  0  0  0  0  0  0  0  0  0
   -5.5370   17.7160  -34.7370 C   0  0  0  0  0  0  0  0  0  0  0  0
   -6.2270   16.4470  -33.8770 S   0  0  0  0  0  0  0  0  0  0  0  0
   -7.1430   17.3900  -32.8300 C   0  0  0  0  0  0  0  0  0  0  0  0
   -7.0500   21.0650  -32.3820 O   0  0  0  0  0  0  0  0  0  0  0  0
   -5.0140   25.1240  -30.8420 C   0  0  0  0  0  0  0  0  0  0  0  0
   -5.7230   26.1530  -30.9970 O   0  0  0  0  0  0  0  0  0  0  0  0
   -3.8650   25.2110  -30.1250 N   0  0  0  0  0  0  0  0  0  0  0  0
   -3.0410   24.1450  -29.9250 C   0  0  0  0  0  0  0  0  0  0  0  0
   -1.8000   24.3500  -29.1080 C   0  0  0  0  0  0  0  0  0  0  0  0
   -1.5025   20.2075  -31.5580 H   0  0  0  0  0  0  0  0  0  0  0  0
   -3.0311   20.8486  -32.2501 H   0  0  0  0  0  0  0  0  0  0  0  0
   -1.5497   21.8644  -32.2501 H   0  0  0  0  0  0  0  0  0  0  0  0
   -3.0465   20.8964  -29.7580 H   0  0  0  0  0  0  0  0  0  0  0  0
   -1.5860   21.9594  -29.7926 H   0  0  0  0  0  0  0  0  0  0  0  0
   -4.8353   21.8194  -31.6779 H   0  0  0  0  0  0  0  0  0  0  0  0
   -6.8650   24.7210  -32.5820 H   0  0  0  0  0  0  0  0  0  0  0  0
   -6.4220   23.1520  -33.0270 H   0  0  0  0  0  0  0  0  0  0  0  0
   -7.4582   23.3812  -30.3298 H   0  0  0  0  0  0  0  0  0  0  0  0
   -8.6217   23.7814  -31.6484 H   0  0  0  0  0  0  0  0  0  0  0  0
   -9.3991   18.9784  -31.6143 H   0  0  0  0  0  0  0  0  0  0  0  0
   -5.7279   19.8943  -34.5940 H   0  0  0  0  0  0  0  0  0  0  0  0
   -4.8262   17.6199  -35.5709 H   0  0  0  0  0  0  0  0  0  0  0  0
   -7.8046   17.0168  -32.0344 H   0  0  0  0  0  0  0  0  0  0  0  0
   -2.0540   24.3080  -28.0385 H   0  0  0  0  0  0  0  0  0  0  0  0
   -1.0716   23.5600  -29.3431 H   0  0  0  0  0  0  0  0  0  0  0  0
   -1.3643   25.3323  -29.3431 H   0  0  0  0  0  0  0  0  0  0  0  0
  1  2  1  0
  2  3  1  0
  3  4  1  0
  4  5  2  0
  5  6  1  0
  6  7  1  0
  7  8  1  0
  8  9  2  0
  9 10  1  0
 10 11  2  0
 11 12  1  0
 12 13  1  0
 13 14  2  0
 14 15  1  0
 15 16  1  0
 11 17  1  0
  5 18  1  0
 18 19  2  0
 18 20  1  0
 20 21  1  0
 21 22  1  0
 21  3  2  0
 17  8  1  0
 16 12  2  0
  1 23  1  0
  1 24  1  0
  1 25  1  0
  2 26  1  0
  2 27  1  0
  4 28  1  0
  6 29  1  0
  6 30  1  0
  7 31  1  0
  7 32  1  0
 10 33  1  0
 13 34  1  0
 14 35  1  0
 16 36  1  0
 22 37  1  0
 22 38  1  0
 22 39  1  0
M  CHG  2   6   1  20  -1
M  END
>  <UniqueID>  (3) 
3

>  <SMILES>  (3) 
CCc1cc([NH2+]Cc2ncc(-c3ccsc3)o2)c(=O)[n-]c1C

>  <Energy>  (3) 
93.84119723494848

>  <Genealogy>  (3) 
CCc1cc([NH2+]Cc2ncc(-c3ccsc3)o2)c(=O)[n-]c1C (protonated)
CCc1cc([NH2+]Cc2ncc(-c3ccsc3)o2)c(=O)[n-]c1C (3D coordinates assigned)
CCc1cc([NH2+]Cc2ncc(-c3ccsc3)o2)c(=O)[n-]c1C (optimized conformer: 93.84119723494848 kcal/mol)

>  <smiles>  (3) 
CCc1cc(NCc2ncc(-c3ccsc3)o2)c(=O)[nH]c1C

>  <score_type>  (3) 
oracle

>  <origin>  (3) 
adg

>  <m_score__min__energy>  (3) 
-8.5600000000000005

>  <m_primary>  (3) 
energy

$$$$
3:0
     RDKit          3D

 49 51  0  0  0  0  0  0  0  0999 V2000
   -6.3060   25.4050  -29.4800 C   0  0  0  0  0  0  0  0  0  0  0  0
   -5.4670   26.0700  -30.5590 C   0  0  0  0  0  0  0  0  0  0  0  0
   -4.3900   25.2120  -30.9220 O   0  0  0  0  0  0  0  0  0  0  0  0
   -4.4570   23.8210  -30.7980 C   0  0  0  0  0  0  0  0  0  0  0  0
   -5.3990   23.1110  -31.5390 C   0  0  0  0  0  0  0  0  0  0  0  0
   -5.4630   21.7190  -31.3970 C   0  0  0  0  0  0  0  0  0  0  0  0
   -6.4250   20.9490  -32.1430 N   0  0  0  0  0  0  0  0  0  0  0  0
   -5.9620   20.0360  -33.1960 C   0  0  0  0  0  0  0  0  0  0  0  0
   -6.0200   18.5900  -32.6930 C   0  0  0  0  0  0  0  0  0  0  0  0
   -7.4180   17.9440  -32.7680 C   0  0  0  0  0  0  0  0  0  0  0  0
   -8.5930   18.7700  -32.2060 C   0  0  0  0  0  0  0  0  0  0  0  0
   -8.7040   20.1920  -32.7780 C   0  0  0  0  0  0  0  0  0  0  0  0
   -7.8620   21.2030  -31.9870 C   0  0  0  0  0  0  0  0  0  0  0  0
   -4.6020   21.0940  -30.5420 N   0  0  0  0  0  0  0  0  0  0  0  0
   -3.6640   21.8000  -29.8470 C   0  0  0  0  0  0  0  0  0  0  0  0
   -2.7620   21.1400  -28.9460 N   0  0  0  0  0  0  0  0  0  0  0  0
   -3.1370   20.1350  -28.1730 N   0  0  0  0  0  0  0  0  0  0  0  0
   -2.0670   19.7620  -27.4420 C   0  0  0  0  0  0  0  0  0  0  0  0
   -2.1020   18.7000  -26.3960 C   0  0  0  0  0  0  0  0  0  0  0  0
   -0.9880   20.5760  -27.7310 C   0  0  0  0  0  0  0  0  0  0  0  0
   -1.4690   21.4470  -28.6870 C   0  0  0  0  0  0  0  0  0  0  0  0
   -0.6890   22.5810  -29.2800 C   0  0  0  0  0  0  0  0  0  0  0  0
   -3.6130   23.1520  -29.9690 N   0  0  0  0  0  0  0  0  0  0  0  0
   -5.9314   25.7019  -28.4893 H   0  0  0  0  0  0  0  0  0  0  0  0
   -7.3548   25.7198  -29.5849 H   0  0  0  0  0  0  0  0  0  0  0  0
   -6.2390   24.3121  -29.5849 H   0  0  0  0  0  0  0  0  0  0  0  0
   -6.0935   26.2650  -31.4419 H   0  0  0  0  0  0  0  0  0  0  0  0
   -5.0650   27.0197  -30.1763 H   0  0  0  0  0  0  0  0  0  0  0  0
   -6.0814   23.6350  -32.2244 H   0  0  0  0  0  0  0  0  0  0  0  0
   -6.6079   20.1411  -34.0802 H   0  0  0  0  0  0  0  0  0  0  0  0
   -4.9245   20.2860  -33.4625 H   0  0  0  0  0  0  0  0  0  0  0  0
   -5.3294   17.9867  -33.3005 H   0  0  0  0  0  0  0  0  0  0  0  0
   -5.7439   18.6171  -31.6286 H   0  0  0  0  0  0  0  0  0  0  0  0
   -7.6329   17.7360  -33.8266 H   0  0  0  0  0  0  0  0  0  0  0  0
   -7.3592   17.0516  -32.1276 H   0  0  0  0  0  0  0  0  0  0  0  0
   -9.5275   18.2352  -32.4312 H   0  0  0  0  0  0  0  0  0  0  0  0
   -8.4097   18.8805  -31.1270 H   0  0  0  0  0  0  0  0  0  0  0  0
   -8.3571   20.1820  -33.8218 H   0  0  0  0  0  0  0  0  0  0  0  0
   -9.7570   20.5024  -32.7089 H   0  0  0  0  0  0  0  0  0  0  0  0
   -8.0868   22.2166  -32.3505 H   0  0  0  0  0  0  0  0  0  0  0  0
   -8.1153   21.1025  -30.9213 H   0  0  0  0  0  0  0  0  0  0  0  0
   -4.7010   20.0690  -30.3820 H   0  0  0  0  0  0  0  0  0  0  0  0
   -2.0866   19.1660  -25.3997 H   0  0  0  0  0  0  0  0  0  0  0  0
   -3.0202   18.1048  -26.5083 H   0  0  0  0  0  0  0  0  0  0  0  0
   -1.2249   18.0457  -26.5083 H   0  0  0  0  0  0  0  0  0  0  0  0
    0.0225   20.5381  -27.2981 H   0  0  0  0  0  0  0  0  0  0  0  0
   -0.2656   23.1965  -28.4726 H   0  0  0  0  0  0  0  0  0  0  0  0
    0.1256   22.1804  -29.9013 H   0  0  0  0  0  0  0  0  0  0  0  0
   -1.3544   23.1984  -29.9013 H   0  0  0  0  0  0  0  0  0  0  0  0
  1  2  1  0
  2  3  1  0
  3  4  1  0
  4  5  2  0
  5  6  1  0
  6  7  1  0
  7  8  1  0
  8  9  1  0
  9 10  1  0
 10 11  1  0
 11 12  1  0
 12 13  1  0
  6 14  2  0
 14 15  1  0
 15 16  1  0
 16 17  1  0
 17 18  2  0
 18 19  1  0
 18 20  1  0
 20 21  2  0
 21 22  1  0
 15 23  2  0
 23  4  1  0
 13  7  1  0
 21 16  1  0
  1 24  1  0
  1 25  1  0
  1 26  1  0
  2 27  1  0
  2 28  1  0
  5 29  1  0
  8 30  1  0
  8 31  1  0
  9 32  1  0
  9 33  1  0
 10 34  1  0
 10 35  1  0
 11 36  1  0
 11 37  1  0
 12 38  1  0
 12 39  1  0
 13 40  1  0
 13 41  1  0
 14 42  1  0
 19 43  1  0
 19 44  1  0
 19 45  1  0
 20 46  1  0
 22 47  1  0
 22 48  1  0
 22 49  1  0
M  CHG  1  14   1
M  END
>  <UniqueID>  (4) 
4

>  <SMILES>  (4) 
CCOc1cc(N2CCCCCC2)[nH+]c(-n2nc(C)cc2C)n1

>  <Energy>  (4) 
81.40771620009922

>  <Genealogy>  (4) 
CCOc1cc(N2CCCCCC2)[nH+]c(-n2nc(C)cc2C)n1 (protonated)
CCOc1cc(N2CCCCCC2)[nH+]c(-n2nc(C)cc2C)n1 (3D coordinates assigned)
CCOc1cc(N2CCCCCC2)[nH+]c(-n2nc(C)cc2C)n1 (nonaromatic ring conformer: 81.40771620009922 kcal/mol)

>  <smiles>  (4) 
CCOc1cc(N2CCCCCC2)nc(-n2nc(C)cc2C)n1

>  <score_type>  (4) 
oracle

>  <origin>  (4) 
adg

>  <m_score__min__energy>  (4) 
-5.4500000000000002

>  <m_primary>  (4) 
energy

$$$$
4:0
     RDKit          3D

 43 45  0  0  0  0  0  0  0  0999 V2000
   -4.5520   20.0930  -33.1520 C   0  0  0  0  0  0  0  0  0  0  0  0
   -4.9290   21.4040  -32.7830 O   0  0  0  0  0  0  0  0  0  0  0  0
   -6.1710   21.5770  -32.1920 C   0  0  0  0  0  0  0  0  0  0  0  0
   -7.2610   20.8180  -32.5640 C   0  0  0  0  0  0  0  0  0  0  0  0
   -8.5130   20.9540  -32.0060 C   0  0  0  0  0  0  0  0  0  0  0  0
   -8.6660   21.9060  -31.0210 C   0  0  0  0  0  0  0  0  0  0  0  0
   -7.5770   22.6750  -30.6370 C   0  0  0  0  0  0  0  0  0  0  0  0
   -6.3240   22.5280  -31.2080 C   0  0  0  0  0  0  0  0  0  0  0  0
   -5.2530   23.3860  -30.7320 C   0  0  0  0  0  0  0  0  0  0  0  0
   -4.3460   23.2250  -29.7200 C   0  0  0  0  0  0  0  0  0  0  0  0
   -3.5170   24.3300  -29.6560 C   0  0  0  0  0  0  0  0  0  0  0  0
   -2.4110   24.5880  -28.7330 C   0  0  0  0  0  0  0  0  0  0  0  0
   -1.6170   25.5650  -28.9460 O   0  0  0  0  0  0  0  0  0  0  0  0
   -2.2430   23.7390  -27.6160 N   0  0  0  0  0  0  0  0  0  0  0  0
   -1.1800   23.9550  -26.6950 C   0  0  0  0  0  0  0  0  0  0  0  0
   -1.3990   24.9190  -25.7200 C   0  0  0  0  0  0  0  0  0  0  0  0
   -2.6760   25.6750  -25.6570 C   0  0  0  0  0  0  0  0  0  0  0  0
   -0.3840   25.1530  -24.8090 C   0  0  0  0  0  0  0  0  0  0  0  0
    0.8020   24.4480  -24.8700 C   0  0  0  0  0  0  0  0  0  0  0  0
    1.0000   23.4930  -25.8460 C   0  0  0  0  0  0  0  0  0  0  0  0
   -0.0010   23.2410  -26.7720 C   0  0  0  0  0  0  0  0  0  0  0  0
    0.1500   22.2230  -27.8510 C   0  0  0  0  0  0  0  0  0  0  0  0
   -3.9520   25.1440  -30.6460 N   0  0  0  0  0  0  0  0  0  0  0  0
   -4.9710   24.5890  -31.2770 N   0  0  0  0  0  0  0  0  0  0  0  0
   -4.3793   19.4926  -32.2466 H   0  0  0  0  0  0  0  0  0  0  0  0
   -5.3548   19.6347  -33.7483 H   0  0  0  0  0  0  0  0  0  0  0  0
   -3.6284   20.1312  -33.7483 H   0  0  0  0  0  0  0  0  0  0  0  0
   -7.1227   20.0615  -33.3505 H   0  0  0  0  0  0  0  0  0  0  0  0
   -9.3565   20.3283  -32.3332 H   0  0  0  0  0  0  0  0  0  0  0  0
   -9.6452   22.0550  -30.5425 H   0  0  0  0  0  0  0  0  0  0  0  0
   -7.7141   23.4302  -29.8490 H   0  0  0  0  0  0  0  0  0  0  0  0
   -4.2855   22.3490  -29.0575 H   0  0  0  0  0  0  0  0  0  0  0  0
   -2.9170   22.9340  -27.4630 H   0  0  0  0  0  0  0  0  0  0  0  0
   -2.9534   25.8392  -24.6053 H   0  0  0  0  0  0  0  0  0  0  0  0
   -2.5526   26.6457  -26.1595 H   0  0  0  0  0  0  0  0  0  0  0  0
   -3.4677   25.1000  -26.1595 H   0  0  0  0  0  0  0  0  0  0  0  0
   -0.5238   25.9116  -24.0248 H   0  0  0  0  0  0  0  0  0  0  0  0
    1.5950   24.6494  -24.1347 H   0  0  0  0  0  0  0  0  0  0  0  0
    1.9467   22.9346  -25.8893 H   0  0  0  0  0  0  0  0  0  0  0  0
    0.2972   21.2303  -27.4005 H   0  0  0  0  0  0  0  0  0  0  0  0
   -0.7563   22.2121  -28.4742 H   0  0  0  0  0  0  0  0  0  0  0  0
    1.0205   22.4756  -28.4742 H   0  0  0  0  0  0  0  0  0  0  0  0
   -3.5020   26.0740  -30.8370 H   0  0  0  0  0  0  0  0  0  0  0  0
  1  2  1  0
  2  3  1  0
  3  4  2  0
  4  5  1  0
  5  6  2  0
  6  7  1  0
  7  8  2  0
  8  9  1  0
  9 10  1  0
 10 11  2  0
 11 12  1  0
 12 13  2  0
 12 14  1  0
 14 15  1  0
 15 16  2  0
 16 17  1  0
 16 18  1  0
 18 19  2  0
 19 20  1  0
 20 21  2  0
 21 22  1  0
 11 23  1  0
 23 24  1  0
  8  3  1  0
 24  9  2  0
 21 15  1  0
  1 25  1  0
  1 26  1  0
  1 27  1  0
  4 28  1  0
  5 29  1  0
  6 30  1  0
  7 31  1  0
 10 32  1  0
 14 33  1  0
 17 34  1  0
 17 35  1  0
 17 36  1  0
 18 37  1  0
 19 38  1  0
 20 39  1  0
 22 40  1  0
 22 41  1  0
 22 42  1  0
 23 43  1  0
M  END
>  <smiles>  (5) 
COc1ccccc1-c1cc(C(=O)Nc2c(C)cccc2C)[nH]n1

>  <score_type>  (5) 
oracle

>  <origin>  (5) 
adg

>  <m_score__min__energy>  (5) 
-8.6400000000000006

>  <m_primary>  (5) 
energy

$$$$
5:0
     RDKit          3D

 43 45  0  0  0  0  0  0  0  0999 V2000
   -5.1250   25.3970  -30.1980 C   0  0  0  0  0  0  0  0  0  0  0  0
   -3.7270   25.2250  -30.4030 O   0  0  0  0  0  0  0  0  0  0  0  0
   -2.8710   24.5370  -29.5260 C   0  0  0  0  0  0  0  0  0  0  0  0
   -1.9920   25.2180  -28.6600 C   0  0  0  0  0  0  0  0  0  0  0  0
   -1.1640   24.5050  -27.7890 C   0  0  0  0  0  0  0  0  0  0  0  0
   -1.2050   23.1110  -27.7680 C   0  0  0  0  0  0  0  0  0  0  0  0
   -2.0710   22.4230  -28.6210 C   0  0  0  0  0  0  0  0  0  0  0  0
   -2.8980   23.1270  -29.5130 C   0  0  0  0  0  0  0  0  0  0  0  0
   -3.8460   22.3690  -30.4060 C   0  0  0  0  0  0  0  0  0  0  0  0
   -3.8870   23.0020  -31.7290 N   0  0  0  0  0  0  0  0  0  0  0  0
   -4.6600   22.2070  -32.6930 C   0  0  0  0  0  0  0  0  0  0  0  0
   -6.1260   22.1590  -32.3400 C   0  0  0  0  0  0  0  0  0  0  0  0
   -6.7260   23.1360  -31.6330 N   0  0  0  0  0  0  0  0  0  0  0  0
   -7.9900   22.7780  -31.4700 N   0  0  0  0  0  0  0  0  0  0  0  0
   -8.1460   21.5820  -32.0670 C   0  0  0  0  0  0  0  0  0  0  0  0
   -6.9910   21.1570  -32.6260 N   0  0  0  0  0  0  0  0  0  0  0  0
   -6.7800   19.9320  -33.4040 C   0  0  0  0  0  0  0  0  0  0  0  0
   -6.9570   18.6710  -32.5410 C   0  0  0  0  0  0  0  0  0  0  0  0
   -8.2590   18.6300  -31.7180 C   0  0  0  0  0  0  0  0  0  0  0  0
   -9.4240   19.3570  -32.4090 C   0  0  0  0  0  0  0  0  0  0  0  0
   -9.4770   20.8710  -32.1150 C   0  0  0  0  0  0  0  0  0  0  0  0
   -5.3369   25.4231  -29.1189 H   0  0  0  0  0  0  0  0  0  0  0  0
   -5.4496   26.3419  -30.6583 H   0  0  0  0  0  0  0  0  0  0  0  0
   -5.6689   24.5590  -30.6583 H   0  0  0  0  0  0  0  0  0  0  0  0
   -1.9576   26.3174  -28.6698 H   0  0  0  0  0  0  0  0  0  0  0  0
   -0.4785   25.0442  -27.1186 H   0  0  0  0  0  0  0  0  0  0  0  0
   -0.5545   22.5527  -27.0787 H   0  0  0  0  0  0  0  0  0  0  0  0
   -2.1059   21.3239  -28.5945 H   0  0  0  0  0  0  0  0  0  0  0  0
   -3.5010   21.3295  -30.5079 H   0  0  0  0  0  0  0  0  0  0  0  0
   -4.8531   22.3806  -29.9637 H   0  0  0  0  0  0  0  0  0  0  0  0
   -4.3250   23.9500  -31.6360 H   0  0  0  0  0  0  0  0  0  0  0  0
   -4.5498   22.6547  -33.6917 H   0  0  0  0  0  0  0  0  0  0  0  0
   -4.2720   21.1779  -32.6729 H   0  0  0  0  0  0  0  0  0  0  0  0
   -7.5072   19.9041  -34.2289 H   0  0  0  0  0  0  0  0  0  0  0  0
   -5.7489   19.9429  -33.7869 H   0  0  0  0  0  0  0  0  0  0  0  0
   -6.9453   17.7958  -33.2072 H   0  0  0  0  0  0  0  0  0  0  0  0
   -6.1310   18.6739  -31.8146 H   0  0  0  0  0  0  0  0  0  0  0  0
   -8.5435   17.5789  -31.5625 H   0  0  0  0  0  0  0  0  0  0  0  0
   -8.0652   19.1456  -30.7658 H   0  0  0  0  0  0  0  0  0  0  0  0
   -9.3234   19.2183  -33.4956 H   0  0  0  0  0  0  0  0  0  0  0  0
  -10.3530   18.9215  -32.0125 H   0  0  0  0  0  0  0  0  0  0  0  0
  -10.0840   21.3454  -32.9001 H   0  0  0  0  0  0  0  0  0  0  0  0
   -9.8992   20.9624  -31.1034 H   0  0  0  0  0  0  0  0  0  0  0  0
  1  2  1  0
  2  3  1  0
  3  4  2  0
  4  5  1  0
  5  6  2  0
  6  7  1  0
  7  8  2  0
  8  9  1  0
  9 10  1  0
 10 11  1  0
 11 12  1  0
 12 13  2  0
 13 14  1  0
 14 15  2  0
 15 16  1  0
 16 17  1  0
 17 18  1  0
 18 19  1  0
 19 20  1  0
 20 21  1  0
  8  3  1  0
 16 12  1  0
 21 15  1  0
  1 22  1  0
  1 23  1  0
  1 24  1  0
  4 25  1  0
  5 26  1  0
  6 27  1  0
  7 28  1  0
  9 29  1  0
  9 30  1  0
 10 31  1  0
 11 32  1  0
 11 33  1  0
 17 34  1  0
 17 35  1  0
 18 36  1  0
 18 37  1  0
 19 38  1  0
 19 39  1  0
 20 40  1  0
 20 41  1  0
 21 42  1  0
 21 43  1  0
M  END
>  <UniqueID>  (6) 
5

>  <SMILES>  (6) 
COc1ccccc1CNCc1nnc2n1CCCCC2

>  <Energy>  (6) 
81.55909856372688

>  <Genealogy>  (6) 
COc1ccccc1CNCc1nnc2n1CCCCC2 (3D coordinates assigned)
COc1ccccc1CNCc1nnc2n1CCCCC2 (nonaromatic ring conformer: 81.55909856372688 kcal/mol)

>  <smiles>  (6) 
COc1ccccc1CNCc1nnc2n1CCCCC2

>  <score_type>  (6) 
oracle

>  <origin>  (6) 
adg

>  <m_score__min__energy>  (6) 
-6.5499999999999998

>  <m_primary>  (6) 
energy

$$$$
6:0
     RDKit          3D

 44 46  0  0  0  0  0  0  0  0999 V2000
   -0.9700   25.8780  -27.6640 C   0  0  0  0  0  0  0  0  0  0  0  0
   -1.3910   25.5260  -28.9800 O   0  0  0  0  0  0  0  0  0  0  0  0
   -1.8830   24.2630  -29.3480 C   0  0  0  0  0  0  0  0  0  0  0  0
   -1.1280   23.0890  -29.1870 C   0  0  0  0  0  0  0  0  0  0  0  0
   -1.6500   21.8450  -29.5670 C   0  0  0  0  0  0  0  0  0  0  0  0
   -0.8090   20.6070  -29.4360 C   0  0  0  0  0  0  0  0  0  0  0  0
   -2.9300   21.7720  -30.1340 C   0  0  0  0  0  0  0  0  0  0  0  0
   -3.7170   22.9330  -30.2870 C   0  0  0  0  0  0  0  0  0  0  0  0
   -5.0300   22.9080  -30.8230 C   0  0  0  0  0  0  0  0  0  0  0  0
   -5.6910   21.6130  -31.2650 C   0  0  0  0  0  0  0  0  0  0  0  0
   -6.9240   21.8420  -31.9480 O   0  0  0  0  0  0  0  0  0  0  0  0
   -8.1790   21.6560  -31.3550 C   0  0  0  0  0  0  0  0  0  0  0  0
   -8.4800   22.2760  -30.2990 O   0  0  0  0  0  0  0  0  0  0  0  0
   -9.1900   20.7770  -31.9750 C   0  0  0  0  0  0  0  0  0  0  0  0
   -8.9770   19.5220  -32.3970 C   0  0  0  0  0  0  0  0  0  0  0  0
   -7.6500   18.9180  -32.6360 C   0  0  0  0  0  0  0  0  0  0  0  0
   -6.8220   19.4470  -33.6400 C   0  0  0  0  0  0  0  0  0  0  0  0
   -5.5800   18.8630  -33.9090 C   0  0  0  0  0  0  0  0  0  0  0  0
   -5.1680   17.7340  -33.1950 C   0  0  0  0  0  0  0  0  0  0  0  0
   -5.9970   17.1870  -32.2110 C   0  0  0  0  0  0  0  0  0  0  0  0
   -7.2390   17.7690  -31.9380 C   0  0  0  0  0  0  0  0  0  0  0  0
   -5.6960   24.1320  -31.0060 C   0  0  0  0  0  0  0  0  0  0  0  0
   -5.0840   25.3190  -30.6000 C   0  0  0  0  0  0  0  0  0  0  0  0
   -5.6860   26.4160  -30.7420 O   0  0  0  0  0  0  0  0  0  0  0  0
   -3.8700   25.3020  -30.0670 O   0  0  0  0  0  0  0  0  0  0  0  0
   -3.1710   24.1840  -29.9000 C   0  0  0  0  0  0  0  0  0  0  0  0
   -1.5961   25.3545  -26.9264 H   0  0  0  0  0  0  0  0  0  0  0  0
    0.0815   25.5865  -27.5252 H   0  0  0  0  0  0  0  0  0  0  0  0
   -1.0707   26.9645  -27.5252 H   0  0  0  0  0  0  0  0  0  0  0  0
   -0.1167   23.1468  -28.7582 H   0  0  0  0  0  0  0  0  0  0  0  0
   -0.6546   20.3797  -28.3709 H   0  0  0  0  0  0  0  0  0  0  0  0
   -1.3213   19.7628  -29.9206 H   0  0  0  0  0  0  0  0  0  0  0  0
    0.1646   20.7721  -29.9206 H   0  0  0  0  0  0  0  0  0  0  0  0
   -3.3249   20.7995  -30.4630 H   0  0  0  0  0  0  0  0  0  0  0  0
   -5.0064   21.0783  -31.9398 H   0  0  0  0  0  0  0  0  0  0  0  0
   -5.9092   21.0208  -30.3640 H   0  0  0  0  0  0  0  0  0  0  0  0
  -10.2033   21.1858  -32.1015 H   0  0  0  0  0  0  0  0  0  0  0  0
   -9.8603   18.8924  -32.5797 H   0  0  0  0  0  0  0  0  0  0  0  0
   -7.1517   20.3238  -34.2167 H   0  0  0  0  0  0  0  0  0  0  0  0
   -4.9269   19.2924  -34.6830 H   0  0  0  0  0  0  0  0  0  0  0  0
   -4.1909   17.2757  -33.4075 H   0  0  0  0  0  0  0  0  0  0  0  0
   -5.6720   16.2978  -31.6509 H   0  0  0  0  0  0  0  0  0  0  0  0
   -7.8962   17.3265  -31.1749 H   0  0  0  0  0  0  0  0  0  0  0  0
   -6.6945   24.1545  -31.4669 H   0  0  0  0  0  0  0  0  0  0  0  0
  1  2  1  0
  2  3  1  0
  3  4  2  0
  4  5  1  0
  5  6  1  0
  5  7  2  0
  7  8  1  0
  8  9  1  0
  9 10  1  0
 10 11  1  0
 11 12  1  0
 12 13  2  0
 12 14  1  0
 14 15  2  3
 15 16  1  0
 16 17  2  0
 17 18  1  0
 18 19  2  0
 19 20  1  0
 20 21  2  0
  9 22  2  0
 22 23  1  0
 23 24  2  0
 23 25  1  0
 25 26  1  0
 26  3  1  0
 26  8  2  0
 21 16  1  0
  1 27  1  0
  1 28  1  0
  1 29  1  0
  4 30  1  0
  6 31  1  0
  6 32  1  0
  6 33  1  0
  7 34  1  0
 10 35  1  0
 10 36  1  0
 14 37  1  0
 15 38  1  0
 17 39  1  0
 18 40  1  0
 19 41  1  0
 20 42  1  0
 21 43  1  0
 22 44  1  0
M  END
>  <UniqueID>  (7) 
6

>  <SMILES>  (7) 
COc1cc(C)cc2c(COC(=O)C=Cc3ccccc3)cc(=O)oc12

>  <Energy>  (7) 
58.155114231940296

>  <Genealogy>  (7) 
COc1cc(C)cc2c(COC(=O)C=Cc3ccccc3)cc(=O)oc12 (3D coordinates assigned)
COc1cc(C)cc2c(COC(=O)C=Cc3ccccc3)cc(=O)oc12 (optimized conformer: 58.155114231940296 kcal/mol)

>  <smiles>  (7) 
COc1cc(C)cc2c(COC(=O)C=Cc3ccccc3)cc(=O)oc12

>  <score_type>  (7) 
oracle

>  <origin>  (7) 
adg

>  <m_score__min__energy>  (7) 
-9.1199999999999992

>  <m_primary>  (7) 
energy

$$$$
7:0
     RDKit          3D

 50 52  0  0  0  0  0  0  0  0999 V2000
   -6.1040   16.7930  -30.7430 C   0  0  0  0  0  0  0  0  0  0  0  0
   -5.6800   16.2890  -32.1270 C   0  0  0  0  0  0  0  0  0  0  0  0
   -6.3210   17.0710  -33.1960 N   0  0  0  0  0  0  0  0  0  0  0  0
   -6.1280   16.6880  -34.6020 C   0  0  0  0  0  0  0  0  0  0  0  0
   -4.9920   17.4900  -35.2260 C   0  0  0  0  0  0  0  0  0  0  0  0
   -7.0470   18.2740  -32.8730 C   0  0  0  0  0  0  0  0  0  0  0  0
   -8.3400   18.2000  -32.4470 N   0  0  0  0  0  0  0  0  0  0  0  0
   -9.0450   19.3200  -32.1480 C   0  0  0  0  0  0  0  0  0  0  0  0
   -8.4370   20.5790  -32.2500 C   0  0  0  0  0  0  0  0  0  0  0  0
   -7.1020   20.6410  -32.6810 C   0  0  0  0  0  0  0  0  0  0  0  0
   -6.4430   19.4900  -32.9780 N   0  0  0  0  0  0  0  0  0  0  0  0
   -6.3430   21.9380  -32.6770 C   0  0  0  0  0  0  0  0  0  0  0  0
   -7.2520   23.1710  -32.5090 C   0  0  0  0  0  0  0  0  0  0  0  0
   -8.3370   22.9480  -31.5280 N   0  0  0  0  0  0  0  0  0  0  0  0
   -7.8140   22.7510  -30.1540 C   0  0  0  0  0  0  0  0  0  0  0  0
   -6.4760   23.4240  -29.9880 C   0  0  0  0  0  0  0  0  0  0  0  0
   -5.3570   22.6790  -29.5920 C   0  0  0  0  0  0  0  0  0  0  0  0
   -4.1140   23.3060  -29.4320 C   0  0  0  0  0  0  0  0  0  0  0  0
   -3.9690   24.6800  -29.6750 C   0  0  0  0  0  0  0  0  0  0  0  0
   -2.7070   25.2680  -29.4790 O   0  0  0  0  0  0  0  0  0  0  0  0
   -1.8060   24.9110  -28.4360 C   0  0  0  0  0  0  0  0  0  0  0  0
   -5.0880   25.4230  -30.1000 C   0  0  0  0  0  0  0  0  0  0  0  0
   -6.3310   24.7990  -30.2520 C   0  0  0  0  0  0  0  0  0  0  0  0
   -9.2130   21.8400  -31.9740 C   0  0  0  0  0  0  0  0  0  0  0  0
   -5.6026   16.1970  -29.9663 H   0  0  0  0  0  0  0  0  0  0  0  0
   -5.8196   17.8501  -30.6347 H   0  0  0  0  0  0  0  0  0  0  0  0
   -7.1941   16.6937  -30.6347 H   0  0  0  0  0  0  0  0  0  0  0  0
   -4.5878   16.3781  -32.2225 H   0  0  0  0  0  0  0  0  0  0  0  0
   -5.9930   15.2392  -32.2270 H   0  0  0  0  0  0  0  0  0  0  0  0
   -5.8853   15.6164  -34.6546 H   0  0  0  0  0  0  0  0  0  0  0  0
   -7.0550   16.8962  -35.1564 H   0  0  0  0  0  0  0  0  0  0  0  0
   -4.3719   17.9278  -34.4299 H   0  0  0  0  0  0  0  0  0  0  0  0
   -4.3741   16.8268  -35.8492 H   0  0  0  0  0  0  0  0  0  0  0  0
   -5.4101   18.2942  -35.8492 H   0  0  0  0  0  0  0  0  0  0  0  0
  -10.0936   19.2401  -31.8256 H   0  0  0  0  0  0  0  0  0  0  0  0
   -5.6221   21.9190  -31.8464 H   0  0  0  0  0  0  0  0  0  0  0  0
   -5.8448   22.0290  -33.6535 H   0  0  0  0  0  0  0  0  0  0  0  0
   -6.6379   24.0178  -32.1688 H   0  0  0  0  0  0  0  0  0  0  0  0
   -7.7202   23.3752  -33.4832 H   0  0  0  0  0  0  0  0  0  0  0  0
   -8.5252   23.1799  -29.4327 H   0  0  0  0  0  0  0  0  0  0  0  0
   -7.6903   21.6726  -29.9755 H   0  0  0  0  0  0  0  0  0  0  0  0
   -5.4546   21.5992  -29.4063 H   0  0  0  0  0  0  0  0  0  0  0  0
   -3.2431   22.7148  -29.1126 H   0  0  0  0  0  0  0  0  0  0  0  0
   -2.2803   25.0989  -27.4615 H   0  0  0  0  0  0  0  0  0  0  0  0
   -1.5516   23.8441  -28.5204 H   0  0  0  0  0  0  0  0  0  0  0  0
   -0.8900   25.5141  -28.5204 H   0  0  0  0  0  0  0  0  0  0  0  0
   -4.9841   26.4972  -30.3130 H   0  0  0  0  0  0  0  0  0  0  0  0
   -7.2009   25.3869  -30.5801 H   0  0  0  0  0  0  0  0  0  0  0  0
   -9.9540   21.6352  -31.1873 H   0  0  0  0  0  0  0  0  0  0  0  0
   -9.6998   22.1496  -32.9106 H   0  0  0  0  0  0  0  0  0  0  0  0
  1  2  1  0
  2  3  1  0
  3  4  1  0
  4  5  1  0
  3  6  1  0
  6  7  2  0
  7  8  1  0
  8  9  2  0
  9 10  1  0
 10 11  2  0
 10 12  1  0
 12 13  1  0
 13 14  1  0
 14 15  1  0
 15 16  1  0
 16 17  2  0
 17 18  1  0
 18 19  2  0
 19 20  1  0
 20 21  1  0
 19 22  1  0
 22 23  2  0
 14 24  1  0
 11  6  1  0
 23 16  1  0
 24  9  1  0
  1 25  1  0
  1 26  1  0
  1 27  1  0
  2 28  1  0
  2 29  1  0
  4 30  1  0
  4 31  1  0
  5 32  1  0
  5 33  1  0
  5 34  1  0
  8 35  1  0
 12 36  1  0
 12 37  1  0
 13 38  1  0
 13 39  1  0
 15 40  1  0
 15 41  1  0
 17 42  1  0
 18 43  1  0
 21 44  1  0
 21 45  1  0
 21 46  1  0
 22 47  1  0
 23 48  1  0
 24 49  1  0
 24 50  1  0
M  END
>  <UniqueID>  (8) 
7

>  <SMILES>  (8) 
CCN(CC)c1ncc2c(n1)CCN(Cc1ccc(OC)cc1)C2

>  <Energy>  (8) 
51.689348728960546

>  <Genealogy>  (8) 
CCN(CC)c1ncc2c(n1)CCN(Cc1ccc(OC)cc1)C2 (3D coordinates assigned)
CCN(CC)c1ncc2c(n1)CCN(Cc1ccc(OC)cc1)C2 (nonaromatic ring conformer: 51.689348728960546 kcal/mol)

>  <smiles>  (8) 
CCN(CC)c1ncc2c(n1)CCN(Cc1ccc(OC)cc1)C2

>  <score_type>  (8) 
oracle

>  <origin>  (8) 
adg

>  <m_score__min__energy>  (8) 
-8.5199999999999996

>  <m_primary>  (8) 
energy

$$$$
8:0
     RDKit          3D

 60 64  0  0  0  0  0  0  0  0999 V2000
   -5.2240   24.8510  -28.5760 F   0  0  0  0  0  0  0  0  0  0  0  0
   -5.4580   24.9980  -29.9290 C   0  0  0  0  0  0  0  0  0  0  0  0
   -6.4540   25.9410  -30.1140 F   0  0  0  0  0  0  0  0  0  0  0  0
   -4.3060   25.4640  -30.5360 F   0  0  0  0  0  0  0  0  0  0  0  0
   -5.8630   23.6660  -30.5110 C   0  0  0  0  0  0  0  0  0  0  0  0
   -7.1170   23.1080  -30.2080 C   0  0  0  0  0  0  0  0  0  0  0  0
   -7.5110   21.8980  -30.7840 C   0  0  0  0  0  0  0  0  0  0  0  0
   -6.6710   21.2410  -31.6830 C   0  0  0  0  0  0  0  0  0  0  0  0
   -5.4240   21.7920  -32.0220 C   0  0  0  0  0  0  0  0  0  0  0  0
   -4.5550   21.1090  -32.9430 N   0  0  0  0  0  0  0  0  0  0  0  0
   -3.6180   21.8490  -33.7930 C   0  0  0  0  0  0  0  0  0  0  0  0
   -2.2280   21.2310  -33.6300 C   0  0  0  0  0  0  0  0  0  0  0  0
   -2.1950   19.7790  -33.9600 N   0  0  0  0  0  0  0  0  0  0  0  0
   -1.2230   19.0440  -33.1170 C   0  0  0  0  0  0  0  0  0  0  0  0
   -1.4960   19.2830  -31.6270 C   0  0  0  0  0  0  0  0  0  0  0  0
   -0.7670   20.4530  -31.1380 N   0  0  0  0  0  0  0  0  0  0  0  0
   -1.1600   21.2140  -29.9780 C   0  0  0  0  0  0  0  0  0  0  0  0
   -1.0900   22.5650  -29.9900 C   0  0  0  0  0  0  0  0  0  0  0  0
   -1.4930   23.4470  -28.8660 C   0  0  0  0  0  0  0  0  0  0  0  0
   -0.6610   24.5230  -28.5170 C   0  0  0  0  0  0  0  0  0  0  0  0
   -0.9980   25.3630  -27.4490 C   0  0  0  0  0  0  0  0  0  0  0  0
    0.0570   26.6950  -27.0140 Cl  0  0  0  0  0  0  0  0  0  0  0  0
   -2.1720   25.1370  -26.7260 C   0  0  0  0  0  0  0  0  0  0  0  0
   -3.0220   24.0870  -27.0800 C   0  0  0  0  0  0  0  0  0  0  0  0
   -2.7010   23.2560  -28.1590 C   0  0  0  0  0  0  0  0  0  0  0  0
   -3.8480   21.9650  -28.6350 S   0  0  0  0  0  0  0  0  0  0  0  0
   -2.7100   20.7210  -28.0400 C   0  0  0  0  0  0  0  0  0  0  0  0
   -2.9970   20.0300  -26.8560 C   0  0  0  0  0  0  0  0  0  0  0  0
   -2.1130   19.0590  -26.3800 C   0  0  0  0  0  0  0  0  0  0  0  0
   -0.9350   18.7830  -27.0800 C   0  0  0  0  0  0  0  0  0  0  0  0
   -0.6340   19.4810  -28.2520 C   0  0  0  0  0  0  0  0  0  0  0  0
   -1.5150   20.4620  -28.7410 C   0  0  0  0  0  0  0  0  0  0  0  0
   -3.5280   19.1190  -34.0070 C   0  0  0  0  0  0  0  0  0  0  0  0
   -4.4960   19.6410  -32.9350 C   0  0  0  0  0  0  0  0  0  0  0  0
   -5.0290   23.0060  -31.4340 C   0  0  0  0  0  0  0  0  0  0  0  0
   -7.7926   23.6277  -29.5126 H   0  0  0  0  0  0  0  0  0  0  0  0
   -8.4876   21.4615  -30.5276 H   0  0  0  0  0  0  0  0  0  0  0  0
   -6.9867   20.2863  -32.1290 H   0  0  0  0  0  0  0  0  0  0  0  0
   -3.9349   21.7791  -34.8440 H   0  0  0  0  0  0  0  0  0  0  0  0
   -3.5975   22.9090  -33.4998 H   0  0  0  0  0  0  0  0  0  0  0  0
   -1.5296   21.7581  -34.2966 H   0  0  0  0  0  0  0  0  0  0  0  0
   -1.9434   21.3349  -32.5726 H   0  0  0  0  0  0  0  0  0  0  0  0
   -1.3043   17.9678  -33.3294 H   0  0  0  0  0  0  0  0  0  0  0  0
   -0.2115   19.4078  -33.3505 H   0  0  0  0  0  0  0  0  0  0  0  0
   -2.5742   19.4449  -31.4810 H   0  0  0  0  0  0  0  0  0  0  0  0
   -1.1573   18.4006  -31.0643 H   0  0  0  0  0  0  0  0  0  0  0  0
    0.2200   20.5360  -31.4660 H   0  0  0  0  0  0  0  0  0  0  0  0
   -0.7055   23.0462  -30.9014 H   0  0  0  0  0  0  0  0  0  0  0  0
    0.2618   24.7071  -29.0867 H   0  0  0  0  0  0  0  0  0  0  0  0
   -2.4273   25.7873  -25.8763 H   0  0  0  0  0  0  0  0  0  0  0  0
   -3.9461   23.9128  -26.5092 H   0  0  0  0  0  0  0  0  0  0  0  0
   -3.9199   20.2523  -26.3002 H   0  0  0  0  0  0  0  0  0  0  0  0
   -2.3438   18.5115  -25.4543 H   0  0  0  0  0  0  0  0  0  0  0  0
   -0.2429   18.0138  -26.7068 H   0  0  0  0  0  0  0  0  0  0  0  0
    0.2971   19.2621  -28.7953 H   0  0  0  0  0  0  0  0  0  0  0  0
   -3.9726   19.2977  -34.9972 H   0  0  0  0  0  0  0  0  0  0  0  0
   -3.3709   18.0476  -33.8138 H   0  0  0  0  0  0  0  0  0  0  0  0
   -5.5011   19.2403  -33.1332 H   0  0  0  0  0  0  0  0  0  0  0  0
   -4.1351   19.3119  -31.9494 H   0  0  0  0  0  0  0  0  0  0  0  0
   -4.0561   23.4461  -31.6981 H   0  0  0  0  0  0  0  0  0  0  0  0
  1  2  1  0
  2  3  1  0
  2  4  1  0
  2  5  1  0
  5  6  2  0
  6  7  1  0
  7  8  2  0
  8  9  1  0
  9 10  1  0
 10 11  1  0
 11 12  1  0
 12 13  1  0
 13 14  1  0
 14 15  1  0
 15 16  1  0
 16 17  1  0
 17 18  2  0
 18 19  1  0
 19 20  2  0
 20 21  1  0
 21 22  1  0
 21 23  2  0
 23 24  1  0
 24 25  2  0
 25 26  1  0
 26 27  1  0
 27 28  2  0
 28 29  1  0
 29 30  2  0
 30 31  1  0
 31 32  2  0
 13 33  1  0
 33 34  1  0
  9 35  2  0
 35  5  1  0
 34 10  1  0
 32 17  1  0
 25 19  1  0
 32 27  1  0
  6 36  1  0
  7 37  1  0
  8 38  1  0
 11 39  1  0
 11 40  1  0
 12 41  1  0
 12 42  1  0
 14 43  1  0
 14 44  1  0
 15 45  1  0
 15 46  1  0
 16 47  1  0
 18 48  1  0
 20 49  1  0
 23 50  1  0
 24 51  1  0
 28 52  1  0
 29 53  1  0
 30 54  1  0
 31 55  1  0
 33 56  1  0
 33 57  1  0
 34 58  1  0
 34 59  1  0
 35 60  1  0
M  END
>  <UniqueID>  (9) 
8

>  <SMILES>  (9) 
FC(F)(F)c1cccc(N2CCN(CCNC3=Cc4cc(Cl)ccc4Sc4ccccc43)CC2)c1

>  <Energy>  (9) 
94.45256374319948

>  <Genealogy>  (9) 
FC(F)(F)c1cccc(N2CCN(CCNC3=Cc4cc(Cl)ccc4Sc4ccccc43)CC2)c1 (3D coordinates assigned)
FC(F)(F)c1cccc(N2CCN(CCNC3=Cc4cc(Cl)ccc4Sc4ccccc43)CC2)c1 (nonaromatic ring conformer: 94.45256374319948 kcal/mol)

>  <smiles>  (9) 
FC(F)(F)c1cccc(N2CCN(CCNC3=Cc4cc(Cl)ccc4Sc4ccccc43)CC2)c1

>  <score_type>  (9) 
oracle

>  <origin>  (9) 
adg

>  <m_score__min__energy>  (9) 
-9.3599999999999994

>  <m_primary>  (9) 
energy

$$$$
9:0
     RDKit          3D

 40 42  0  0  0  0  0  0  0  0999 V2000
    0.9460   25.2700  -24.5660 C   0  0  0  0  0  0  0  0  0  0  0  0
    0.7920   24.1830  -25.4730 O   0  0  0  0  0  0  0  0  0  0  0  0
   -0.1970   24.1140  -26.4660 C   0  0  0  0  0  0  0  0  0  0  0  0
   -0.2580   25.1390  -27.4140 C   0  0  0  0  0  0  0  0  0  0  0  0
   -1.2200   25.1270  -28.4280 C   0  0  0  0  0  0  0  0  0  0  0  0
   -1.2350   26.1730  -29.3460 O   0  0  0  0  0  0  0  0  0  0  0  0
   -2.1500   24.0650  -28.5070 C   0  0  0  0  0  0  0  0  0  0  0  0
   -3.1500   23.9860  -29.4990 C   0  0  0  0  0  0  0  0  0  0  0  0
   -3.2770   24.8950  -30.3650 O   0  0  0  0  0  0  0  0  0  0  0  0
   -4.0290   22.8920  -29.5100 C   0  0  0  0  0  0  0  0  0  0  0  0
   -5.0590   22.7770  -30.5080 N   0  0  0  0  0  0  0  0  0  0  0  0
   -4.9620   21.7400  -31.5400 C   0  0  0  0  0  0  0  0  0  0  0  0
   -6.2990   21.5830  -32.2790 C   0  0  0  0  0  0  0  0  0  0  0  0
   -7.4240   21.7300  -31.3290 N   0  0  0  0  0  0  0  0  0  0  0  0
   -8.7120   21.2970  -31.9200 C   0  0  0  0  0  0  0  0  0  0  0  0
   -8.8550   19.8300  -31.9870 C   0  0  0  0  0  0  0  0  0  0  0  0
   -8.9670   18.6800  -32.0400 N   0  0  0  0  0  0  0  0  0  0  0  0
   -7.5080   23.1040  -30.7630 C   0  0  0  0  0  0  0  0  0  0  0  0
   -6.1300   23.7780  -30.5890 C   0  0  0  0  0  0  0  0  0  0  0  0
   -3.8960   21.9150  -28.5160 C   0  0  0  0  0  0  0  0  0  0  0  0
   -2.9500   22.0160  -27.5900 O   0  0  0  0  0  0  0  0  0  0  0  0
   -2.0880   23.0270  -27.5460 C   0  0  0  0  0  0  0  0  0  0  0  0
   -1.1200   23.0550  -26.5380 C   0  0  0  0  0  0  0  0  0  0  0  0
    0.8930   24.8959  -23.5329 H   0  0  0  0  0  0  0  0  0  0  0  0
    1.9212   25.7509  -24.7322 H   0  0  0  0  0  0  0  0  0  0  0  0
    0.1427   26.0029  -24.7322 H   0  0  0  0  0  0  0  0  0  0  0  0
    0.4626   25.9685  -27.3614 H   0  0  0  0  0  0  0  0  0  0  0  0
   -4.1812   22.0210  -32.2620 H   0  0  0  0  0  0  0  0  0  0  0  0
   -4.7099   20.7839  -31.0581 H   0  0  0  0  0  0  0  0  0  0  0  0
   -6.3772   22.3555  -33.0582 H   0  0  0  0  0  0  0  0  0  0  0  0
   -6.3424   20.5841  -32.7375 H   0  0  0  0  0  0  0  0  0  0  0  0
   -7.2440   21.0760  -30.5280 H   0  0  0  0  0  0  0  0  0  0  0  0
   -9.5315   21.7008  -31.3073 H   0  0  0  0  0  0  0  0  0  0  0  0
   -8.7430   21.6766  -32.9520 H   0  0  0  0  0  0  0  0  0  0  0  0
   -8.1168   23.7232  -31.4383 H   0  0  0  0  0  0  0  0  0  0  0  0
   -7.9570   23.0174  -29.7626 H   0  0  0  0  0  0  0  0  0  0  0  0
   -5.9413   24.4374  -31.4490 H   0  0  0  0  0  0  0  0  0  0  0  0
   -6.1394   24.3564  -29.6534 H   0  0  0  0  0  0  0  0  0  0  0  0
   -4.5821   21.0553  -28.5021 H   0  0  0  0  0  0  0  0  0  0  0  0
   -1.0798   22.2437  -25.7963 H   0  0  0  0  0  0  0  0  0  0  0  0
  1  2  1  0
  2  3  1  0
  3  4  2  0
  4  5  1  0
  5  6  1  0
  5  7  2  0
  7  8  1  0
  8  9  2  0
  8 10  1  0
 10 11  1  0
 11 12  1  0
 12 13  1  0
 13 14  1  0
 14 15  1  0
 15 16  1  0
 16 17  3  0
 14 18  1  0
 18 19  1  0
 10 20  2  0
 20 21  1  0
 21 22  1  0
 22 23  2  0
 23  3  1  0
 22  7  1  0
 19 11  1  0
  1 24  1  0
  1 25  1  0
  1 26  1  0
  4 27  1  0
 12 28  1  0
 12 29  1  0
 13 30  1  0
 13 31  1  0
 14 32  1  0
 15 33  1  0
 15 34  1  0
 18 35  1  0
 18 36  1  0
 19 37  1  0
 19 38  1  0
 20 39  1  0
 23 40  1  0
M  CHG  2   6  -1  14   1
M  END
>  <UniqueID>  (10) 
9

>  <SMILES>  (10) 
COc1cc([O-])c2c(=O)c(N3CC[NH+](CC#N)CC3)coc2c1

>  <Energy>  (10) 
60.729057901452826

>  <Genealogy>  (10) 
COc1cc([O-])c2c(=O)c(N3CC[NH+](CC#N)CC3)coc2c1 (protonated)
COc1cc([O-])c2c(=O)c(N3CC[NH+](CC#N)CC3)coc2c1 (3D coordinates assigned)
COc1cc([O-])c2c(=O)c(N3CC[NH+](CC#N)CC3)coc2c1 (nonaromatic ring conformer: 60.729057901452826 kcal/mol)

>  <smiles>  (10) 
COc1cc(O)c2c(=O)c(N3CCN(CC#N)CC3)coc2c1

>  <score_type>  (10) 
oracle

>  <origin>  (10) 
adg

>  <m_score__min__energy>  (10) 
-9.0500000000000007

>  <m_primary>  (10) 
energy

$$$$
10:0
     RDKit          3D

 54 56  0  0  0  0  0  0  0  0999 V2000
   -2.7980   25.3050  -26.4630 C   0  0  0  0  0  0  0  0  0  0  0  0
   -2.1390   24.2040  -27.2300 C   0  0  0  0  0  0  0  0  0  0  0  0
   -1.2680   23.3240  -26.6960 N   0  0  0  0  0  0  0  0  0  0  0  0
   -0.7330   22.6060  -27.6740 N   0  0  0  0  0  0  0  0  0  0  0  0
    0.3120   21.6060  -27.4780 C   0  0  0  0  0  0  0  0  0  0  0  0
   -1.2440   23.0170  -28.8570 C   0  0  0  0  0  0  0  0  0  0  0  0
   -0.7960   22.5370  -30.2040 C   0  0  0  0  0  0  0  0  0  0  0  0
   -2.1420   24.0380  -28.6010 C   0  0  0  0  0  0  0  0  0  0  0  0
   -2.7420   24.9150  -29.5530 N   0  0  0  0  0  0  0  0  0  0  0  0
   -4.4320   24.8100  -29.9090 S   0  0  0  0  0  0  0  0  0  0  0  0
   -5.2350   24.9070  -28.6430 O   0  0  0  0  0  0  0  0  0  0  0  0
   -4.8180   25.9470  -30.8120 O   0  0  0  0  0  0  0  0  0  0  0  0
   -4.7540   23.2820  -30.7220 C   0  0  0  0  0  0  0  0  0  0  0  0
   -4.0080   22.1430  -30.3910 C   0  0  0  0  0  0  0  0  0  0  0  0
   -4.2060   20.9460  -31.0840 C   0  0  0  0  0  0  0  0  0  0  0  0
   -5.1630   20.8740  -32.1080 C   0  0  0  0  0  0  0  0  0  0  0  0
   -5.3520   19.6160  -32.8580 C   0  0  0  0  0  0  0  0  0  0  0  0
   -4.3690   19.2450  -33.7890 C   0  0  0  0  0  0  0  0  0  0  0  0
   -4.5030   18.0710  -34.5340 C   0  0  0  0  0  0  0  0  0  0  0  0
   -5.6170   17.2520  -34.3510 C   0  0  0  0  0  0  0  0  0  0  0  0
   -6.5970   17.6010  -33.4200 C   0  0  0  0  0  0  0  0  0  0  0  0
   -6.4830   18.7810  -32.6640 C   0  0  0  0  0  0  0  0  0  0  0  0
   -7.5410   19.0650  -31.6180 C   0  0  0  0  0  0  0  0  0  0  0  0
   -8.4110   20.1810  -32.0460 N   0  0  0  0  0  0  0  0  0  0  0  0
   -9.6200   19.6730  -32.7180 C   0  0  0  0  0  0  0  0  0  0  0  0
   -8.8030   20.9870  -30.8790 C   0  0  0  0  0  0  0  0  0  0  0  0
   -5.8990   22.0190  -32.4470 C   0  0  0  0  0  0  0  0  0  0  0  0
   -5.6960   23.2170  -31.7560 C   0  0  0  0  0  0  0  0  0  0  0  0
   -2.6864   25.1185  -25.3847 H   0  0  0  0  0  0  0  0  0  0  0  0
   -2.3256   26.2646  -26.7200 H   0  0  0  0  0  0  0  0  0  0  0  0
   -3.8669   25.3421  -26.7200 H   0  0  0  0  0  0  0  0  0  0  0  0
   -1.0080   23.2490  -25.6860 H   0  0  0  0  0  0  0  0  0  0  0  0
    0.4739   21.4511  -26.4011 H   0  0  0  0  0  0  0  0  0  0  0  0
    0.0039   20.6577  -27.9426 H   0  0  0  0  0  0  0  0  0  0  0  0
    1.2458   21.9556  -27.9426 H   0  0  0  0  0  0  0  0  0  0  0  0
   -0.0503   21.7380  -30.0792 H   0  0  0  0  0  0  0  0  0  0  0  0
   -1.6610   22.1475  -30.7608 H   0  0  0  0  0  0  0  0  0  0  0  0
   -0.3478   23.3731  -30.7608 H   0  0  0  0  0  0  0  0  0  0  0  0
   -3.2637   22.1914  -29.5825 H   0  0  0  0  0  0  0  0  0  0  0  0
   -3.6103   20.0579  -30.8263 H   0  0  0  0  0  0  0  0  0  0  0  0
   -3.4855   19.8843  -33.9331 H   0  0  0  0  0  0  0  0  0  0  0  0
   -3.7298   17.7924  -35.2651 H   0  0  0  0  0  0  0  0  0  0  0  0
   -5.7236   16.3298  -34.9411 H   0  0  0  0  0  0  0  0  0  0  0  0
   -7.4684   16.9453  -33.2762 H   0  0  0  0  0  0  0  0  0  0  0  0
   -8.1549   18.1641  -31.4711 H   0  0  0  0  0  0  0  0  0  0  0  0
   -7.0433   19.3444  -30.6777 H   0  0  0  0  0  0  0  0  0  0  0  0
  -10.3569   19.3634  -31.9622 H   0  0  0  0  0  0  0  0  0  0  0  0
  -10.0507   20.4662  -33.3467 H   0  0  0  0  0  0  0  0  0  0  0  0
   -9.3549   18.8102  -33.3467 H   0  0  0  0  0  0  0  0  0  0  0  0
   -8.5409   20.4482  -29.9565 H   0  0  0  0  0  0  0  0  0  0  0  0
   -8.2729   21.9505  -30.9040 H   0  0  0  0  0  0  0  0  0  0  0  0
   -9.8882   21.1649  -30.9040 H   0  0  0  0  0  0  0  0  0  0  0  0
   -6.6388   21.9740  -33.2598 H   0  0  0  0  0  0  0  0  0  0  0  0
   -6.2777   24.1109  -32.0252 H   0  0  0  0  0  0  0  0  0  0  0  0
  1  2  1  0
  2  3  2  0
  3  4  1  0
  4  5  1  0
  4  6  1  0
  6  7  1  0
  6  8  2  0
  8  9  1  0
  9 10  1  0
 10 11  2  0
 10 12  2  0
 10 13  1  0
 13 14  2  0
 14 15  1  0
 15 16  2  0
 16 17  1  0
 17 18  2  0
 18 19  1  0
 19 20  2  0
 20 21  1  0
 21 22  2  0
 22 23  1  0
 23 24  1  0
 24 25  1  0
 24 26  1  0
 16 27  1  0
 27 28  2  0
  8  2  1  0
 28 13  1  0
 22 17  1  0
  1 29  1  0
  1 30  1  0
  1 31  1  0
  3 32  1  0
  5 33  1  0
  5 34  1  0
  5 35  1  0
  7 36  1  0
  7 37  1  0
  7 38  1  0
 14 39  1  0
 15 40  1  0
 18 41  1  0
 19 42  1  0
 20 43  1  0
 21 44  1  0
 23 45  1  0
 23 46  1  0
 25 47  1  0
 25 48  1  0
 25 49  1  0
 26 50  1  0
 26 51  1  0
 26 52  1  0
 27 53  1  0
 28 54  1  0
M  CHG  2   3   1   9  -1
M  END
>  <UniqueID>  (11) 
10

>  <SMILES>  (11) 
Cc1[nH+]n(C)c(C)c1[N-]S(=O)(=O)c1ccc(-c2ccccc2CN(C)C)cc1

>  <Energy>  (11) 
99.9744949196165

>  <Genealogy>  (11) 
Cc1[nH+]n(C)c(C)c1[N-]S(=O)(=O)c1ccc(-c2ccccc2CN(C)C)cc1 (protonated)
Cc1[nH+]n(C)c(C)c1[N-]S(=O)(=O)c1ccc(-c2ccccc2CN(C)C)cc1 (3D coordinates assigned)
Cc1[nH+]n(C)c(C)c1[N-]S(=O)(=O)c1ccc(-c2ccccc2CN(C)C)cc1 (optimized conformer: 99.9744949196165 kcal/mol)

>  <smiles>  (11) 
Cc1nn(C)c(C)c1NS(=O)(=O)c1ccc(-c2ccccc2CN(C)C)cc1

>  <score_type>  (11) 
oracle

>  <origin>  (11) 
adg

>  <m_score__min__energy>  (11) 
-10.029999999999999

>  <m_primary>  (11) 
energy

$$$$
11:0
     RDKit          3D

 48 51  0  0  0  0  0  0  0  0999 V2000
   -1.5190   26.4430  -24.8990 C   0  0  0  0  0  0  0  0  0  0  0  0
   -0.6420   25.4970  -25.7100 C   0  0  0  0  0  0  0  0  0  0  0  0
   -0.1980   26.1360  -26.9480 N   0  0  0  0  0  0  0  0  0  0  0  0
   -0.7480   25.8460  -28.2380 C   0  0  0  0  0  0  0  0  0  0  0  0
   -1.2340   26.7870  -28.9200 O   0  0  0  0  0  0  0  0  0  0  0  0
   -0.6950   24.5120  -28.7600 N   0  0  0  0  0  0  0  0  0  0  0  0
   -1.7720   23.7700  -29.3500 C   0  0  0  0  0  0  0  0  0  0  0  0
   -3.0850   24.1890  -29.1020 C   0  0  0  0  0  0  0  0  0  0  0  0
   -4.1680   23.5010  -29.6570 C   0  0  0  0  0  0  0  0  0  0  0  0
   -3.9560   22.3770  -30.4790 C   0  0  0  0  0  0  0  0  0  0  0  0
   -5.1020   21.6300  -31.0530 C   0  0  0  0  0  0  0  0  0  0  0  0
   -4.8930   20.4410  -31.6890 N   0  0  0  0  0  0  0  0  0  0  0  0
   -5.9110   19.7190  -32.2350 C   0  0  0  0  0  0  0  0  0  0  0  0
   -5.6130   18.4890  -32.9120 N   0  0  0  0  0  0  0  0  0  0  0  0
   -6.0470   17.2410  -32.2630 C   0  0  0  0  0  0  0  0  0  0  0  0
   -5.7340   16.0050  -33.1030 C   0  0  0  0  0  0  0  0  0  0  0  0
   -5.9850   16.2550  -34.4670 O   0  0  0  0  0  0  0  0  0  0  0  0
   -5.0090   17.1480  -34.9520 C   0  0  0  0  0  0  0  0  0  0  0  0
   -5.1420   18.5420  -34.3100 C   0  0  0  0  0  0  0  0  0  0  0  0
   -7.2210   20.2240  -32.1500 C   0  0  0  0  0  0  0  0  0  0  0  0
   -8.2810   19.5730  -32.7000 N   0  0  0  0  0  0  0  0  0  0  0  0
   -9.5450   20.0750  -32.6230 C   0  0  0  0  0  0  0  0  0  0  0  0
   -9.7840   21.2910  -31.9730 C   0  0  0  0  0  0  0  0  0  0  0  0
   -8.7130   21.9880  -31.4090 C   0  0  0  0  0  0  0  0  0  0  0  0
   -7.4210   21.4580  -31.4930 C   0  0  0  0  0  0  0  0  0  0  0  0
   -6.3670   22.1280  -30.9600 N   0  0  0  0  0  0  0  0  0  0  0  0
   -2.6370   21.9800  -30.7520 C   0  0  0  0  0  0  0  0  0  0  0  0
   -1.5530   22.6750  -30.2040 C   0  0  0  0  0  0  0  0  0  0  0  0
   -1.3548   26.2658  -23.8259 H   0  0  0  0  0  0  0  0  0  0  0  0
   -1.2590   27.4837  -25.1428 H   0  0  0  0  0  0  0  0  0  0  0  0
   -2.5763   26.2624  -25.1428 H   0  0  0  0  0  0  0  0  0  0  0  0
    0.2381   25.2187  -25.1117 H   0  0  0  0  0  0  0  0  0  0  0  0
   -1.2291   24.6024  -25.9651 H   0  0  0  0  0  0  0  0  0  0  0  0
   -3.2658   25.0673  -28.4648 H   0  0  0  0  0  0  0  0  0  0  0  0
   -5.1938   23.8401  -29.4501 H   0  0  0  0  0  0  0  0  0  0  0  0
   -5.5322   17.1493  -31.2952 H   0  0  0  0  0  0  0  0  0  0  0  0
   -7.1386   17.2919  -32.1376 H   0  0  0  0  0  0  0  0  0  0  0  0
   -4.6746   15.7387  -32.9734 H   0  0  0  0  0  0  0  0  0  0  0  0
   -6.3781   15.1778  -32.7700 H   0  0  0  0  0  0  0  0  0  0  0  0
   -4.0116   16.7442  -34.7237 H   0  0  0  0  0  0  0  0  0  0  0  0
   -5.1521   17.2556  -36.0373 H   0  0  0  0  0  0  0  0  0  0  0  0
   -4.1578   19.0329  -34.3302 H   0  0  0  0  0  0  0  0  0  0  0  0
   -5.8911   19.1017  -34.8893 H   0  0  0  0  0  0  0  0  0  0  0  0
  -10.3820   19.5218  -33.0740 H   0  0  0  0  0  0  0  0  0  0  0  0
  -10.8054   21.6940  -31.9069 H   0  0  0  0  0  0  0  0  0  0  0  0
   -8.8845   22.9487  -30.9014 H   0  0  0  0  0  0  0  0  0  0  0  0
   -2.4538   21.1131  -31.4038 H   0  0  0  0  0  0  0  0  0  0  0  0
   -0.5254   22.3632  -30.4424 H   0  0  0  0  0  0  0  0  0  0  0  0
  1  2  1  0
  2  3  1  0
  3  4  1  0
  4  5  2  0
  4  6  1  0
  6  7  1  0
  7  8  2  0
  8  9  1  0
  9 10  2  0
 10 11  1  0
 11 12  2  0
 12 13  1  0
 13 14  1  0
 14 15  1  0
 15 16  1  0
 16 17  1  0
 17 18  1  0
 18 19  1  0
 13 20  2  0
 20 21  1  0
 21 22  2  0
 22 23  1  0
 23 24  2  0
 24 25  1  0
 25 26  2  0
 10 27  1  0
 27 28  2  0
 28  7  1  0
 26 11  1  0
 19 14  1  0
 25 20  1  0
  1 29  1  0
  1 30  1  0
  1 31  1  0
  2 32  1  0
  2 33  1  0
  8 34  1  0
  9 35  1  0
 15 36  1  0
 15 37  1  0
 16 38  1  0
 16 39  1  0
 18 40  1  0
 18 41  1  0
 19 42  1  0
 19 43  1  0
 22 44  1  0
 23 45  1  0
 24 46  1  0
 27 47  1  0
 28 48  1  0
M  CHG  2   3  -1   6  -1
M  END
>  <UniqueID>  (12) 
11

>  <SMILES>  (12) 
CC[N-]C(=O)[N-]c1ccc(-c2nc(N3CCOCC3)c3ncccc3n2)cc1

>  <Energy>  (12) 
63.663847435442314

>  <Genealogy>  (12) 
CC[N-]C(=O)[N-]c1ccc(-c2nc(N3CCOCC3)c3ncccc3n2)cc1 (protonated)
CC[N-]C(=O)[N-]c1ccc(-c2nc(N3CCOCC3)c3ncccc3n2)cc1 (3D coordinates assigned)
CC[N-]C(=O)[N-]c1ccc(-c2nc(N3CCOCC3)c3ncccc3n2)cc1 (nonaromatic ring conformer: 63.663847435442314 kcal/mol)

>  <smiles>  (12) 
CCNC(=O)Nc1ccc(-c2nc(N3CCOCC3)c3ncccc3n2)cc1

>  <score_type>  (12) 
oracle

>  <origin>  (12) 
adg

>  <m_score__min__energy>  (12) 
-9.9600000000000009

>  <m_primary>  (12) 
energy

$$$$
12:0
     RDKit          3D

 40 42  0  0  0  0  0  0  0  0999 V2000
   -3.0990   20.9020  -27.8670 C   0  0  0  0  0  0  0  0  0  0  0  0
   -2.9810   22.2940  -28.4100 C   0  0  0  0  0  0  0  0  0  0  0  0
   -2.1500   23.2710  -27.8390 C   0  0  0  0  0  0  0  0  0  0  0  0
   -2.2210   24.5170  -28.4690 C   0  0  0  0  0  0  0  0  0  0  0  0
   -1.4390   25.7080  -28.0490 C   0  0  0  0  0  0  0  0  0  0  0  0
   -0.9350   26.4260  -28.9550 O   0  0  0  0  0  0  0  0  0  0  0  0
   -1.1970   26.0680  -26.6700 N   0  0  0  0  0  0  0  0  0  0  0  0
   -0.3060   27.1620  -26.3170 C   0  0  0  0  0  0  0  0  0  0  0  0
   -0.1080   27.0740  -24.8110 C   0  0  0  0  0  0  0  0  0  0  0  0
   -1.2220   26.1690  -24.2950 C   0  0  0  0  0  0  0  0  0  0  0  0
   -1.7290   25.3890  -25.4980 C   0  0  0  0  0  0  0  0  0  0  0  0
   -3.3200   24.3850  -29.7420 S   0  0  0  0  0  0  0  0  0  0  0  0
   -3.7020   22.7630  -29.5040 C   0  0  0  0  0  0  0  0  0  0  0  0
   -4.6720   22.0080  -30.2490 N   0  0  0  0  0  0  0  0  0  0  0  0
   -5.6040   22.5940  -31.1690 C   0  0  0  0  0  0  0  0  0  0  0  0
   -5.3640   23.7180  -31.6860 O   0  0  0  0  0  0  0  0  0  0  0  0
   -6.8150   21.8530  -31.5830 C   0  0  0  0  0  0  0  0  0  0  0  0
   -8.0690   22.2790  -31.1100 C   0  0  0  0  0  0  0  0  0  0  0  0
   -9.2360   21.6110  -31.4920 C   0  0  0  0  0  0  0  0  0  0  0  0
   -9.1640   20.5090  -32.3450 C   0  0  0  0  0  0  0  0  0  0  0  0
   -7.9240   20.0630  -32.8080 C   0  0  0  0  0  0  0  0  0  0  0  0
   -6.7460   20.7240  -32.4320 C   0  0  0  0  0  0  0  0  0  0  0  0
   -5.2120   20.0520  -32.9800 Cl  0  0  0  0  0  0  0  0  0  0  0  0
   -3.0961   20.9358  -26.7675 H   0  0  0  0  0  0  0  0  0  0  0  0
   -4.0387   20.4501  -28.2175 H   0  0  0  0  0  0  0  0  0  0  0  0
   -2.2488   20.2984  -28.2175 H   0  0  0  0  0  0  0  0  0  0  0  0
   -1.5009   23.0737  -26.9731 H   0  0  0  0  0  0  0  0  0  0  0  0
    0.6577   27.0525  -26.8360 H   0  0  0  0  0  0  0  0  0  0  0  0
   -0.7269   28.1347  -26.6114 H   0  0  0  0  0  0  0  0  0  0  0  0
    0.8758   26.6400  -24.5792 H   0  0  0  0  0  0  0  0  0  0  0  0
   -0.1442   28.0675  -24.3402 H   0  0  0  0  0  0  0  0  0  0  0  0
   -0.8306   25.4803  -23.5318 H   0  0  0  0  0  0  0  0  0  0  0  0
   -2.0285   26.7536  -23.8284 H   0  0  0  0  0  0  0  0  0  0  0  0
   -1.3670   24.3510  -25.4606 H   0  0  0  0  0  0  0  0  0  0  0  0
   -2.8281   25.3507  -25.5191 H   0  0  0  0  0  0  0  0  0  0  0  0
   -4.7000   20.9720  -30.1190 H   0  0  0  0  0  0  0  0  0  0  0  0
   -8.1320   23.1446  -30.4342 H   0  0  0  0  0  0  0  0  0  0  0  0
  -10.2124   21.9545  -31.1197 H   0  0  0  0  0  0  0  0  0  0  0  0
  -10.0844   19.9912  -32.6530 H   0  0  0  0  0  0  0  0  0  0  0  0
   -7.8713   19.1875  -33.4719 H   0  0  0  0  0  0  0  0  0  0  0  0
  1  2  1  0
  2  3  1  0
  3  4  2  0
  4  5  1  0
  5  6  2  0
  5  7  1  0
  7  8  1  0
  8  9  1  0
  9 10  1  0
 10 11  1  0
  4 12  1  0
 12 13  1  0
 13 14  1  0
 14 15  1  0
 15 16  2  0
 15 17  1  0
 17 18  2  0
 18 19  1  0
 19 20  2  0
 20 21  1  0
 21 22  2  0
 22 23  1  0
 13  2  2  0
 22 17  1  0
 11  7  1  0
  1 24  1  0
  1 25  1  0
  1 26  1  0
  3 27  1  0
  8 28  1  0
  8 29  1  0
  9 30  1  0
  9 31  1  0
 10 32  1  0
 10 33  1  0
 11 34  1  0
 11 35  1  0
 14 36  1  0
 18 37  1  0
 19 38  1  0
 20 39  1  0
 21 40  1  0
M  END
>  <UniqueID>  (13) 
12

>  <SMILES>  (13) 
Cc1cc(C(=O)N2CCCC2)sc1NC(=O)c1ccccc1Cl

>  <Energy>  (13) 
76.24698242931757

>  <Genealogy>  (13) 
Cc1cc(C(=O)N2CCCC2)sc1NC(=O)c1ccccc1Cl (3D coordinates assigned)
Cc1cc(C(=O)N2CCCC2)sc1NC(=O)c1ccccc1Cl (nonaromatic ring conformer: 76.24698242931757 kcal/mol)

>  <smiles>  (13) 
Cc1cc(C(=O)N2CCCC2)sc1NC(=O)c1ccccc1Cl

>  <score_type>  (13) 
oracle

>  <origin>  (13) 
adg

>  <m_score__min__energy>  (13) 
-8.4900000000000002

>  <m_primary>  (13) 
energy

$$$$
13:0
     RDKit          3D

 29 30  0  0  0  0  0  0  0  0999 V2000
   -4.9760   22.6140  -32.3260 C   0  0  0  0  0  0  0  0  0  0  0  0
   -5.3550   23.5930  -31.2620 C   0  0  0  0  0  0  0  0  0  0  0  0
   -4.6300   24.6910  -30.9640 N   0  0  0  0  0  0  0  0  0  0  0  0
   -5.3400   25.2970  -29.9880 C   0  0  0  0  0  0  0  0  0  0  0  0
   -6.4680   24.6350  -29.6700 N   0  0  0  0  0  0  0  0  0  0  0  0
   -6.4760   23.5470  -30.4580 C   0  0  0  0  0  0  0  0  0  0  0  0
   -7.5780   22.5280  -30.5000 C   0  0  0  0  0  0  0  0  0  0  0  0
   -8.7010   22.8060  -31.9190 S   0  0  0  0  0  0  0  0  0  0  0  0
   -9.4560   21.1370  -31.9530 C   0  0  0  0  0  0  0  0  0  0  0  0
   -8.4350   20.0740  -32.2590 C   0  0  0  0  0  0  0  0  0  0  0  0
   -8.5670   18.7860  -31.7150 C   0  0  0  0  0  0  0  0  0  0  0  0
   -7.6000   17.8090  -31.9720 C   0  0  0  0  0  0  0  0  0  0  0  0
   -6.5020   18.1080  -32.7810 C   0  0  0  0  0  0  0  0  0  0  0  0
   -6.3720   19.3810  -33.3420 C   0  0  0  0  0  0  0  0  0  0  0  0
   -7.3370   20.3600  -33.0890 C   0  0  0  0  0  0  0  0  0  0  0  0
   -4.6165   21.6854  -31.8586 H   0  0  0  0  0  0  0  0  0  0  0  0
   -5.8539   22.3938  -32.9512 H   0  0  0  0  0  0  0  0  0  0  0  0
   -4.1787   23.0423  -32.9512 H   0  0  0  0  0  0  0  0  0  0  0  0
   -5.0288   26.2342  -29.5033 H   0  0  0  0  0  0  0  0  0  0  0  0
   -7.1820   24.9190  -28.9640 H   0  0  0  0  0  0  0  0  0  0  0  0
   -7.1338   21.5255  -30.5876 H   0  0  0  0  0  0  0  0  0  0  0  0
   -8.1652   22.6186  -29.5742 H   0  0  0  0  0  0  0  0  0  0  0  0
   -9.9055   20.9283  -30.9710 H   0  0  0  0  0  0  0  0  0  0  0  0
  -10.2188   21.1201  -32.7453 H   0  0  0  0  0  0  0  0  0  0  0  0
   -9.4350   18.5446  -31.0839 H   0  0  0  0  0  0  0  0  0  0  0  0
   -7.7045   16.8043  -31.5365 H   0  0  0  0  0  0  0  0  0  0  0  0
   -5.7386   17.3406  -32.9769 H   0  0  0  0  0  0  0  0  0  0  0  0
   -5.5091   19.6131  -33.9836 H   0  0  0  0  0  0  0  0  0  0  0  0
   -7.2369   21.3579  -33.5410 H   0  0  0  0  0  0  0  0  0  0  0  0
  1  2  1  0
  2  3  1  0
  3  4  2  0
  4  5  1  0
  5  6  1  0
  6  7  1  0
  7  8  1  0
  8  9  1  0
  9 10  1  0
 10 11  2  0
 11 12  1  0
 12 13  2  0
 13 14  1  0
 14 15  2  0
  6  2  2  0
 15 10  1  0
  1 16  1  0
  1 17  1  0
  1 18  1  0
  4 19  1  0
  5 20  1  0
  7 21  1  0
  7 22  1  0
  9 23  1  0
  9 24  1  0
 11 25  1  0
 12 26  1  0
 13 27  1  0
 14 28  1  0
 15 29  1  0
M  END
>  <UniqueID>  (14) 
13

>  <SMILES>  (14) 
Cc1nc[nH]c1CSCc1ccccc1

>  <Energy>  (14) 
50.48792536943868

>  <Genealogy>  (14) 
Cc1nc[nH]c1CSCc1ccccc1 (3D coordinates assigned)
Cc1nc[nH]c1CSCc1ccccc1 (optimized conformer: 50.48792536943868 kcal/mol)

>  <smiles>  (14) 
Cc1nc[nH]c1CSCc1ccccc1

>  <score_type>  (14) 
oracle

>  <origin>  (14) 
adg

>  <m_score__min__energy>  (14) 
-7.0899999999999999

>  <m_primary>  (14) 
energy

$$$$
14:0
     RDKit          3D

 27 27  0  0  0  0  0  0  0  0999 V2000
    2.7050   25.7040  -37.9620 C   0  0  0  0  0  0  0  0  0  0  0  0
    1.7950   24.6940  -37.5380 O   0  0  0  0  0  0  0  0  0  0  0  0
    0.9110   24.8740  -36.4700 C   0  0  0  0  0  0  0  0  0  0  0  0
    0.8880   24.0410  -35.5220 O   0  0  0  0  0  0  0  0  0  0  0  0
    0.0050   26.0470  -36.4600 C   0  0  0  0  0  0  0  0  0  0  0  0
   -0.1080   26.8120  -35.3590 C   0  0  0  0  0  0  0  0  0  0  0  0
   -1.0160   27.9710  -35.3160 C   0  0  0  0  0  0  0  0  0  0  0  0
   -1.0850   28.6680  -34.2690 O   0  0  0  0  0  0  0  0  0  0  0  0
   -1.8960   28.2970  -36.4880 C   0  0  0  0  0  0  0  0  0  0  0  0
   -1.2820   27.7980  -37.8190 C   0  0  0  0  0  0  0  0  0  0  0  0
   -0.0560   28.6580  -38.2030 C   0  0  0  0  0  0  0  0  0  0  0  0
   -2.3360   27.9230  -38.9380 C   0  0  0  0  0  0  0  0  0  0  0  0
   -0.8720   26.3080  -37.6700 C   0  0  0  0  0  0  0  0  0  0  0  0
    3.1460   26.1935  -37.0811 H   0  0  0  0  0  0  0  0  0  0  0  0
    3.5032   25.2482  -38.5662 H   0  0  0  0  0  0  0  0  0  0  0  0
    2.1687   26.4505  -38.5662 H   0  0  0  0  0  0  0  0  0  0  0  0
    0.4917   26.5662  -34.4702 H   0  0  0  0  0  0  0  0  0  0  0  0
   -2.8747   27.8160  -36.3440 H   0  0  0  0  0  0  0  0  0  0  0  0
   -2.0000   29.3905  -36.5461 H   0  0  0  0  0  0  0  0  0  0  0  0
    0.4457   29.0099  -37.2895 H   0  0  0  0  0  0  0  0  0  0  0  0
    0.6451   28.0527  -38.7964 H   0  0  0  0  0  0  0  0  0  0  0  0
   -0.3864   29.5233  -38.7964 H   0  0  0  0  0  0  0  0  0  0  0  0
   -3.3338   28.0413  -38.4903 H   0  0  0  0  0  0  0  0  0  0  0  0
   -2.1072   28.8003  -39.5609 H   0  0  0  0  0  0  0  0  0  0  0  0
   -2.3187   27.0165  -39.5609 H   0  0  0  0  0  0  0  0  0  0  0  0
   -1.7852   25.7019  -37.5770 H   0  0  0  0  0  0  0  0  0  0  0  0
   -0.2865   26.0396  -38.5617 H   0  0  0  0  0  0  0  0  0  0  0  0
  1  2  1  0
  2  3  1  0
  3  4  2  0
  3  5  1  0
  5  6  2  0
  6  7  1  0
  7  8  2  0
  7  9  1  0
  9 10  1  0
 10 11  1  0
 10 12  1  0
 10 13  1  0
 13  5  1  0
  1 14  1  0
  1 15  1  0
  1 16  1  0
  6 17  1  0
  9 18  1  0
  9 19  1  0
 11 20  1  0
 11 21  1  0
 11 22  1  0
 12 23  1  0
 12 24  1  0
 12 25  1  0
 13 26  1  0
 13 27  1  0
M  END
>  <UniqueID>  (15) 
14

>  <SMILES>  (15) 
COC(=O)C1=CC(=O)CC(C)(C)C1

>  <Energy>  (15) 
19.293600620078603

>  <Genealogy>  (15) 
COC(=O)C1=CC(=O)CC(C)(C)C1 (3D coordinates assigned)
COC(=O)C1=CC(=O)CC(C)(C)C1 (nonaromatic ring conformer: 19.293600620078603 kcal/mol)

>  <smiles>  (15) 
COC(=O)C1=CC(=O)CC(C)(C)C1

>  <score_type>  (15) 
oracle

>  <origin>  (15) 
adg

>  <m_score__min__energy>  (15) 
-6.21

>  <m_primary>  (15) 
energy

$$$$
15:0
     RDKit          3D

 41 43  0  0  0  0  0  0  0  0999 V2000
   -7.6070   17.7530  -32.7060 C   0  0  0  0  0  0  0  0  0  0  0  0
   -7.9680   18.7010  -32.0550 C   0  0  0  0  0  0  0  0  0  0  0  0
   -8.4100   19.8660  -31.2660 C   0  0  0  0  0  0  0  0  0  0  0  0
   -8.3280   21.1710  -31.9790 N   0  0  1  0  0  0  0  0  0  0  0  0
   -9.5510   21.9910  -31.9410 C   0  0  0  0  0  0  0  0  0  0  0  0
   -9.1340   23.4040  -32.3410 C   0  0  0  0  0  0  0  0  0  0  0  0
   -7.6080   23.4100  -32.3110 C   0  0  0  0  0  0  0  0  0  0  0  0
   -7.2050   22.0870  -31.6210 C   0  0  1  0  0  0  0  0  0  0  0  0
   -7.0950   22.2950  -30.0790 C   0  0  0  0  0  0  0  0  0  0  0  0
   -6.0120   23.3070  -29.6550 C   0  0  0  0  0  0  0  0  0  0  0  0
   -4.8230   23.4360  -30.6290 C   0  0  0  0  0  0  0  0  0  0  0  0
   -4.6650   22.2720  -31.5830 C   0  0  0  0  0  0  0  0  0  0  0  0
   -3.3740   21.9070  -32.0270 C   0  0  0  0  0  0  0  0  0  0  0  0
   -2.2570   22.6000  -31.5280 O   0  0  0  0  0  0  0  0  0  0  0  0
   -1.3630   22.0970  -30.5410 C   0  0  0  0  0  0  0  0  0  0  0  0
   -3.2300   20.8650  -32.9580 C   0  0  0  0  0  0  0  0  0  0  0  0
   -4.3490   20.2120  -33.4590 C   0  0  0  0  0  0  0  0  0  0  0  0
   -5.6280   20.5840  -33.0510 C   0  0  0  0  0  0  0  0  0  0  0  0
   -5.8150   21.6230  -32.1100 C   0  0  0  0  0  0  0  0  0  0  0  0
   -7.2775   16.8878  -33.3001 H   0  0  0  0  0  0  0  0  0  0  0  0
   -9.4571   19.7023  -30.9713 H   0  0  0  0  0  0  0  0  0  0  0  0
   -7.7240   19.9378  -30.4091 H   0  0  0  0  0  0  0  0  0  0  0  0
   -8.2410   20.9370  -32.9950 H   0  0  0  0  0  0  0  0  0  0  0  0
  -10.2946   21.5985  -32.6502 H   0  0  0  0  0  0  0  0  0  0  0  0
  -10.0093   21.9781  -30.9411 H   0  0  0  0  0  0  0  0  0  0  0  0
   -9.4984   23.6395  -33.3518 H   0  0  0  0  0  0  0  0  0  0  0  0
   -9.5558   24.1589  -31.6611 H   0  0  0  0  0  0  0  0  0  0  0  0
   -7.2033   23.4497  -33.3331 H   0  0  0  0  0  0  0  0  0  0  0  0
   -7.2131   24.2866  -31.7765 H   0  0  0  0  0  0  0  0  0  0  0  0
   -8.0667   22.6538  -29.7088 H   0  0  0  0  0  0  0  0  0  0  0  0
   -6.8077   21.3245  -29.6482 H   0  0  0  0  0  0  0  0  0  0  0  0
   -6.4860   24.2953  -29.5625 H   0  0  0  0  0  0  0  0  0  0  0  0
   -5.5948   22.9323  -28.7087 H   0  0  0  0  0  0  0  0  0  0  0  0
   -4.9633   24.3509  -31.2234 H   0  0  0  0  0  0  0  0  0  0  0  0
   -3.9133   23.4602  -30.0111 H   0  0  0  0  0  0  0  0  0  0  0  0
   -1.7594   22.3200  -29.5394 H   0  0  0  0  0  0  0  0  0  0  0  0
   -1.2598   21.0084  -30.6604 H   0  0  0  0  0  0  0  0  0  0  0  0
   -0.3790   22.5739  -30.6604 H   0  0  0  0  0  0  0  0  0  0  0  0
   -2.2259   20.5646  -33.2920 H   0  0  0  0  0  0  0  0  0  0  0  0
   -4.2241   19.3942  -34.1840 H   0  0  0  0  0  0  0  0  0  0  0  0
   -6.5034   20.0630  -33.4660 H   0  0  0  0  0  0  0  0  0  0  0  0
  1  2  3  0
  2  3  1  0
  3  4  1  0
  4  5  1  0
  5  6  1  0
  6  7  1  0
  8  7  1  6
  8  9  1  0
  9 10  1  0
 10 11  1  0
 11 12  1  0
 12 13  2  0
 13 14  1  0
 14 15  1  0
 13 16  1  0
 16 17  2  0
 17 18  1  0
 18 19  2  0
  8  4  1  0
 19 12  1  0
 19  8  1  0
  1 20  1  0
  3 21  1  0
  3 22  1  0
  4 23  1  6
  5 24  1  0
  5 25  1  0
  6 26  1  0
  6 27  1  0
  7 28  1  0
  7 29  1  0
  9 30  1  0
  9 31  1  0
 10 32  1  0
 10 33  1  0
 11 34  1  0
 11 35  1  0
 15 36  1  0
 15 37  1  0
 15 38  1  0
 16 39  1  0
 17 40  1  0
 18 41  1  0
M  CHG  1   4   1
M  END
>  <UniqueID>  (16) 
15

>  <SMILES>  (16) 
C#CC[N@H+]1CCC[C@@]12CCCc1c(OC)cccc12

>  <Energy>  (16) 
67.69032383523343

>  <Genealogy>  (16) 
C#CC[NH+]1CCCC12CCCc1c(OC)cccc12 (protonated)
C#CC[N@H+]1CCC[C@@]12CCCc1c(OC)cccc12 (chirality)
C#CC[N@H+]1CCC[C@@]12CCCc1c(OC)cccc12 (3D coordinates assigned)
C#CC[N@H+]1CCC[C@@]12CCCc1c(OC)cccc12 (nonaromatic ring conformer: 67.69032383523343 kcal/mol)

>  <smiles>  (16) 
C#CCN1CCCC12CCCc1c(OC)cccc12

>  <score_type>  (16) 
oracle

>  <origin>  (16) 
adg

>  <m_score__min__energy>  (16) 
-6.2599999999999998

>  <m_primary>  (16) 
energy

$$$$
16:0
     RDKit          3D

 41 43  0  0  0  0  0  0  0  0999 V2000
   -0.6060   26.4950  -26.2900 C   0  0  0  0  0  0  0  0  0  0  0  0
    0.0350   25.7590  -27.4600 C   0  0  0  0  0  0  0  0  0  0  0  0
   -0.9430   24.8880  -28.1040 N   0  0  0  0  0  0  0  0  0  0  0  0
   -1.1860   23.6030  -27.7850 C   0  0  0  0  0  0  0  0  0  0  0  0
   -2.2330   23.1590  -28.5620 C   0  0  0  0  0  0  0  0  0  0  0  0
   -3.1100   21.4700  -28.4010 Br  0  0  0  0  0  0  0  0  0  0  0  0
   -2.5870   24.2520  -29.3400 C   0  0  0  0  0  0  0  0  0  0  0  0
   -3.6940   24.3350  -30.3060 C   0  0  0  0  0  0  0  0  0  0  0  0
   -4.2000   25.4640  -30.5520 O   0  0  0  0  0  0  0  0  0  0  0  0
   -4.1850   23.1700  -30.9930 N   0  0  0  0  0  0  0  0  0  0  0  0
   -5.6330   23.0240  -31.2040 C   0  0  0  0  0  0  0  0  0  0  0  0
   -5.9470   22.0580  -32.3510 C   0  0  0  0  0  0  0  0  0  0  0  0
   -5.1710   20.8170  -32.2170 N   0  0  0  0  0  0  0  0  0  0  0  0
   -5.7300   19.5600  -32.6590 C   0  0  0  0  0  0  0  0  0  0  0  0
   -6.8160   18.9770  -31.9780 C   0  0  0  0  0  0  0  0  0  0  0  0
   -7.3560   17.7630  -32.4130 C   0  0  0  0  0  0  0  0  0  0  0  0
   -6.8220   17.1180  -33.5310 C   0  0  0  0  0  0  0  0  0  0  0  0
   -5.7470   17.6860  -34.2160 C   0  0  0  0  0  0  0  0  0  0  0  0
   -5.2030   18.9010  -33.7870 C   0  0  0  0  0  0  0  0  0  0  0  0
   -3.7640   20.8690  -31.7860 C   0  0  0  0  0  0  0  0  0  0  0  0
   -3.2410   22.3080  -31.7150 C   0  0  0  0  0  0  0  0  0  0  0  0
   -1.7970   25.2980  -29.0280 N   0  0  0  0  0  0  0  0  0  0  0  0
   -0.2372   26.0716  -25.3441 H   0  0  0  0  0  0  0  0  0  0  0  0
   -0.3445   27.5623  -26.3406 H   0  0  0  0  0  0  0  0  0  0  0  0
   -1.6991   26.3825  -26.3406 H   0  0  0  0  0  0  0  0  0  0  0  0
    0.4058   26.4923  -28.1913 H   0  0  0  0  0  0  0  0  0  0  0  0
    0.8691   25.1473  -27.0857 H   0  0  0  0  0  0  0  0  0  0  0  0
   -0.6427   23.0104  -27.0342 H   0  0  0  0  0  0  0  0  0  0  0  0
   -6.0904   22.6402  -30.2801 H   0  0  0  0  0  0  0  0  0  0  0  0
   -6.0411   24.0110  -31.4672 H   0  0  0  0  0  0  0  0  0  0  0  0
   -7.0199   21.8157  -32.3347 H   0  0  0  0  0  0  0  0  0  0  0  0
   -5.6773   22.5409  -33.3018 H   0  0  0  0  0  0  0  0  0  0  0  0
   -7.2424   19.4802  -31.0977 H   0  0  0  0  0  0  0  0  0  0  0  0
   -8.2034   17.3147  -31.8736 H   0  0  0  0  0  0  0  0  0  0  0  0
   -7.2486   16.1629  -33.8713 H   0  0  0  0  0  0  0  0  0  0  0  0
   -5.3264   17.1768  -35.0957 H   0  0  0  0  0  0  0  0  0  0  0  0
   -4.3581   19.3449  -34.3340 H   0  0  0  0  0  0  0  0  0  0  0  0
   -3.6801   20.4105  -30.7896 H   0  0  0  0  0  0  0  0  0  0  0  0
   -3.1603   20.3229  -32.5258 H   0  0  0  0  0  0  0  0  0  0  0  0
   -2.2735   22.3148  -31.1917 H   0  0  0  0  0  0  0  0  0  0  0  0
   -3.1247   22.6921  -32.7392 H   0  0  0  0  0  0  0  0  0  0  0  0
  1  2  1  0
  2  3  1  0
  3  4  1  0
  4  5  2  0
  5  6  1  0
  5  7  1  0
  7  8  1  0
  8  9  2  0
  8 10  1  0
 10 11  1  0
 11 12  1  0
 12 13  1  0
 13 14  1  0
 14 15  2  0
 15 16  1  0
 16 17  2  0
 17 18  1  0
 18 19  2  0
 13 20  1  0
 20 21  1  0
  7 22  2  0
 22  3  1  0
 21 10  1  0
 19 14  1  0
  1 23  1  0
  1 24  1  0
  1 25  1  0
  2 26  1  0
  2 27  1  0
  4 28  1  0
 11 29  1  0
 11 30  1  0
 12 31  1  0
 12 32  1  0
 15 33  1  0
 16 34  1  0
 17 35  1  0
 18 36  1  0
 19 37  1  0
 20 38  1  0
 20 39  1  0
 21 40  1  0
 21 41  1  0
M  END
>  <UniqueID>  (17) 
16

>  <SMILES>  (17) 
CCn1cc(Br)c(C(=O)N2CCN(c3ccccc3)CC2)n1

>  <Energy>  (17) 
76.99852211734948

>  <Genealogy>  (17) 
CCn1cc(Br)c(C(=O)N2CCN(c3ccccc3)CC2)n1 (3D coordinates assigned)
CCn1cc(Br)c(C(=O)N2CCN(c3ccccc3)CC2)n1 (nonaromatic ring conformer: 76.99852211734948 kcal/mol)

>  <smiles>  (17) 
CCn1cc(Br)c(C(=O)N2CCN(c3ccccc3)CC2)n1

>  <score_type>  (17) 
oracle

>  <origin>  (17) 
adg

>  <m_score__min__energy>  (17) 
-7.8300000000000001

>  <m_primary>  (17) 
energy

$$$$
17:0
     RDKit          3D

 37 39  0  0  0  0  0  0  0  0999 V2000
   -6.1020   18.7650  -34.0500 C   0  0  0  0  0  0  0  0  0  0  0  0
   -6.1060   17.6110  -33.0470 C   0  0  0  0  0  0  0  0  0  0  0  0
   -6.9040   17.9390  -31.7800 C   0  0  0  0  0  0  0  0  0  0  0  0
   -7.9400   18.9940  -32.0330 C   0  0  0  0  0  0  0  0  0  0  0  0
   -9.2080   18.7570  -32.4390 N   0  0  0  0  0  0  0  0  0  0  0  0
   -9.8640   19.9150  -32.4880 N   0  0  0  0  0  0  0  0  0  0  0  0
   -8.9710   20.8460  -32.0980 C   0  0  0  0  0  0  0  0  0  0  0  0
   -9.1690   22.2120  -31.9680 C   0  0  0  0  0  0  0  0  0  0  0  0
   -8.0780   22.9760  -31.5200 C   0  0  0  0  0  0  0  0  0  0  0  0
   -6.8420   22.3450  -31.2120 C   0  0  0  0  0  0  0  0  0  0  0  0
   -5.6660   23.1150  -30.7310 C   0  0  0  0  0  0  0  0  0  0  0  0
   -4.4930   22.4370  -30.3530 C   0  0  0  0  0  0  0  0  0  0  0  0
   -3.3790   23.1430  -29.8910 C   0  0  0  0  0  0  0  0  0  0  0  0
   -3.4190   24.5460  -29.7870 C   0  0  0  0  0  0  0  0  0  0  0  0
   -2.3280   25.2980  -29.3300 O   0  0  0  0  0  0  0  0  0  0  0  0
   -1.6920   25.1080  -28.0710 C   0  0  0  0  0  0  0  0  0  0  0  0
   -4.5880   25.2210  -30.1520 C   0  0  0  0  0  0  0  0  0  0  0  0
   -5.7030   24.5180  -30.6150 C   0  0  0  0  0  0  0  0  0  0  0  0
   -6.7330   20.9920  -31.3780 N   0  0  0  0  0  0  0  0  0  0  0  0
   -7.7860   20.3060  -31.8100 N   0  0  0  0  0  0  0  0  0  0  0  0
   -6.0987   19.7221  -33.5078 H   0  0  0  0  0  0  0  0  0  0  0  0
   -5.2041   18.6985  -34.6819 H   0  0  0  0  0  0  0  0  0  0  0  0
   -7.0004   18.7047  -34.6819 H   0  0  0  0  0  0  0  0  0  0  0  0
   -6.5528   16.7278  -33.5269 H   0  0  0  0  0  0  0  0  0  0  0  0
   -5.0642   17.4241  -32.7475 H   0  0  0  0  0  0  0  0  0  0  0  0
   -7.4048   17.0251  -31.4278 H   0  0  0  0  0  0  0  0  0  0  0  0
   -6.2032   18.3217  -31.0234 H   0  0  0  0  0  0  0  0  0  0  0  0
   -9.6260   17.8280  -32.6680 H   0  0  0  0  0  0  0  0  0  0  0  0
  -10.1372   22.6772  -32.2050 H   0  0  0  0  0  0  0  0  0  0  0  0
   -8.1807   24.0654  -31.4073 H   0  0  0  0  0  0  0  0  0  0  0  0
   -4.4521   21.3399  -30.4218 H   0  0  0  0  0  0  0  0  0  0  0  0
   -2.4659   22.5992  -29.6071 H   0  0  0  0  0  0  0  0  0  0  0  0
   -2.4072   25.3217  -27.2630 H   0  0  0  0  0  0  0  0  0  0  0  0
   -1.3457   24.0672  -27.9885 H   0  0  0  0  0  0  0  0  0  0  0  0
   -0.8316   25.7883  -27.9885 H   0  0  0  0  0  0  0  0  0  0  0  0
   -4.6301   26.3174  -30.0737 H   0  0  0  0  0  0  0  0  0  0  0  0
   -6.6168   25.0646  -30.8911 H   0  0  0  0  0  0  0  0  0  0  0  0
  1  2  1  0
  2  3  1  0
  3  4  1  0
  4  5  2  0
  5  6  1  0
  6  7  2  0
  7  8  1  0
  8  9  2  0
  9 10  1  0
 10 11  1  0
 11 12  2  0
 12 13  1  0
 13 14  2  0
 14 15  1  0
 15 16  1  0
 14 17  1  0
 17 18  2  0
 10 19  2  0
 19 20  1  0
 20  4  1  0
 20  7  1  0
 18 11  1  0
  1 21  1  0
  1 22  1  0
  1 23  1  0
  2 24  1  0
  2 25  1  0
  3 26  1  0
  3 27  1  0
  5 28  1  0
  8 29  1  0
  9 30  1  0
 12 31  1  0
 13 32  1  0
 16 33  1  0
 16 34  1  0
 16 35  1  0
 17 36  1  0
 18 37  1  0
M  CHG  1   5   1
M  END
>  <UniqueID>  (18) 
17

>  <SMILES>  (18) 
CCCc1[nH+]nc2ccc(-c3ccc(OC)cc3)nn12

>  <Energy>  (18) 
80.01790392080497

>  <Genealogy>  (18) 
CCCc1[nH+]nc2ccc(-c3ccc(OC)cc3)nn12 (protonated)
CCCc1[nH+]nc2ccc(-c3ccc(OC)cc3)nn12 (3D coordinates assigned)
CCCc1[nH+]nc2ccc(-c3ccc(OC)cc3)nn12 (optimized conformer: 80.01790392080497 kcal/mol)

>  <smiles>  (18) 
CCCc1nnc2ccc(-c3ccc(OC)cc3)nn12

>  <score_type>  (18) 
oracle

>  <origin>  (18) 
adg

>  <m_score__min__energy>  (18) 
-8

>  <m_primary>  (18) 
energy

$$$$
18:0
     RDKit          3D

 35 37  0  0  0  0  0  0  0  0999 V2000
   -4.6840   26.0460  -29.6040 H   0  0  0  0  0  0  0  0  0  0  0  0
   -4.2440   25.6790  -30.4770 N   0  0  0  0  0  0  0  0  0  0  0  0
   -4.3320   24.4320  -30.8040 C   0  0  0  0  0  0  0  0  0  0  0  0
   -3.2120   23.6710  -30.9150 N   0  0  0  0  0  0  0  0  0  0  0  0
   -3.2750   22.3560  -31.2590 C   0  0  0  0  0  0  0  0  0  0  0  0
   -2.0200   21.5670  -31.3530 C   0  0  0  0  0  0  0  0  0  0  0  0
   -1.3170   21.2290  -30.1830 C   0  0  0  0  0  0  0  0  0  0  0  0
   -1.7052   21.5458  -29.2038 H   0  0  0  0  0  0  0  0  0  0  0  0
   -0.1290   20.4940  -30.2520 C   0  0  0  0  0  0  0  0  0  0  0  0
    0.4069   20.2309  -29.3281 H   0  0  0  0  0  0  0  0  0  0  0  0
    0.3830   20.0900  -31.4980 C   0  0  0  0  0  0  0  0  0  0  0  0
    1.5700   19.3510  -31.6210 O   0  0  0  0  0  0  0  0  0  0  0  0
    1.7810   18.0690  -31.0400 C   0  0  0  0  0  0  0  0  0  0  0  0
    1.7666   18.1565  -29.9436 H   0  0  0  0  0  0  0  0  0  0  0  0
    0.9835   17.3840  -31.3637 H   0  0  0  0  0  0  0  0  0  0  0  0
    2.7560   17.6757  -31.3637 H   0  0  0  0  0  0  0  0  0  0  0  0
   -0.3080   20.4350  -32.6640 C   0  0  0  0  0  0  0  0  0  0  0  0
    0.0870   20.1259  -33.6430 H   0  0  0  0  0  0  0  0  0  0  0  0
   -1.4960   21.1690  -32.5970 C   0  0  0  0  0  0  0  0  0  0  0  0
   -2.0250   21.4374  -33.5234 H   0  0  0  0  0  0  0  0  0  0  0  0
   -4.5330   21.7740  -31.4910 C   0  0  0  0  0  0  0  0  0  0  0  0
   -4.6150   20.7082  -31.7505 H   0  0  0  0  0  0  0  0  0  0  0  0
   -5.6840   22.5720  -31.3870 C   0  0  0  0  0  0  0  0  0  0  0  0
   -7.0420   22.0170  -31.6190 C   0  0  0  0  0  0  0  0  0  0  0  0
   -8.1630   22.8580  -31.7670 C   0  0  0  0  0  0  0  0  0  0  0  0
   -8.0373   23.9497  -31.7178 H   0  0  0  0  0  0  0  0  0  0  0  0
   -9.4340   22.3140  -31.9760 C   0  0  0  0  0  0  0  0  0  0  0  0
  -10.3022   22.9791  -32.0943 H   0  0  0  0  0  0  0  0  0  0  0  0
   -9.6050   20.9300  -32.0350 C   0  0  0  0  0  0  0  0  0  0  0  0
  -10.6058   20.5057  -32.2034 H   0  0  0  0  0  0  0  0  0  0  0  0
   -8.5040   20.0840  -31.8800 C   0  0  0  0  0  0  0  0  0  0  0  0
   -8.7390   18.1900  -31.9550 Br  0  0  0  0  0  0  0  0  0  0  0  0
   -7.2300   20.6220  -31.6680 C   0  0  0  0  0  0  0  0  0  0  0  0
   -6.3685   19.9503  -31.5386 H   0  0  0  0  0  0  0  0  0  0  0  0
   -5.5500   23.8810  -31.0390 N   0  0  0  0  0  0  0  0  0  0  0  0
  1  2  1  0
  2  3  2  0
  3  4  1  0
  4  5  2  0
  5  6  1  0
  6  7  2  0
  7  8  1  0
  7  9  1  0
  9 10  1  0
  9 11  2  0
 11 12  1  0
 12 13  1  0
 13 14  1  0
 13 15  1  0
 13 16  1  0
 11 17  1  0
 17 18  1  0
 17 19  2  0
 19 20  1  0
  5 21  1  0
 21 22  1  0
 21 23  2  0
 23 24  1  0
 24 25  2  0
 25 26  1  0
 25 27  1  0
 27 28  1  0
 27 29  2  0
 29 30  1  0
 29 31  1  0
 31 32  1  0
 31 33  2  0
 33 34  1  0
 23 35  1  0
 35  3  1  0
 19  6  1  0
 33 24  1  0
M  CHG  1  35  -1
M  END
>  <UniqueID>  (19) 
18

>  <SMILES>  (19) 
[H]/N=c1\nc(-c2ccc(OC)cc2)cc(-c2cccc(Br)c2)[n-]1

>  <Energy>  (19) 
45.33727321107321

>  <Genealogy>  (19) 
COc1ccc(-c2cc(-c3cccc(Br)c3)[n-]c(=N)n2)cc1 (protonated)
[H]/N=c1\nc(-c2ccc(OC)cc2)cc(-c2cccc(Br)c2)[n-]1 (cis-trans isomerization)
[H]/N=c1\nc(-c2ccc(OC)cc2)cc(-c2cccc(Br)c2)[n-]1 (3D coordinates assigned)
[H]/N=c1\nc(-c2ccc(OC)cc2)cc(-c2cccc(Br)c2)[n-]1 (optimized conformer: 45.33727321107321 kcal/mol)

>  <smiles>  (19) 
COc1ccc(-c2cc(-c3cccc(Br)c3)[nH]c(=N)n2)cc1

>  <score_type>  (19) 
oracle

>  <origin>  (19) 
adg

>  <m_score__min__energy>  (19) 
-9.1500000000000004

>  <m_primary>  (19) 
energy

$$$$
19:0
     RDKit          3D

 40 42  0  0  0  0  0  0  0  0999 V2000
   -6.4010   17.4570  -30.9680 C   0  0  0  0  0  0  0  0  0  0  0  0
   -6.6000   16.9920  -32.2990 O   0  0  0  0  0  0  0  0  0  0  0  0
   -5.5700   16.7760  -33.2280 C   0  0  0  0  0  0  0  0  0  0  0  0
   -4.6130   15.7550  -33.0630 C   0  0  0  0  0  0  0  0  0  0  0  0
   -3.6070   15.5710  -34.0150 C   0  0  0  0  0  0  0  0  0  0  0  0
   -3.5490   16.3930  -35.1400 C   0  0  0  0  0  0  0  0  0  0  0  0
   -4.4920   17.4080  -35.3140 C   0  0  0  0  0  0  0  0  0  0  0  0
   -5.4970   17.6160  -34.3520 C   0  0  0  0  0  0  0  0  0  0  0  0
   -6.4670   18.6180  -34.5110 O   0  0  0  0  0  0  0  0  0  0  0  0
   -6.8000   19.5870  -33.5550 C   0  0  0  0  0  0  0  0  0  0  0  0
   -8.0690   19.5220  -32.9400 C   0  0  0  0  0  0  0  0  0  0  0  0
   -8.4440   20.4610  -31.9630 C   0  0  0  0  0  0  0  0  0  0  0  0
   -7.5310   21.4530  -31.6070 C   0  0  0  0  0  0  0  0  0  0  0  0
   -6.2870   21.5070  -32.1940 C   0  0  0  0  0  0  0  0  0  0  0  0
   -5.8840   20.5900  -33.1610 C   0  0  0  0  0  0  0  0  0  0  0  0
   -5.5800   22.6130  -31.6020 C   0  0  0  0  0  0  0  0  0  0  0  0
   -4.4030   22.9690  -31.8740 O   0  0  0  0  0  0  0  0  0  0  0  0
   -6.4160   23.2540  -30.6420 N   0  0  0  0  0  0  0  0  0  0  0  0
   -6.0170   24.3420  -29.7490 C   0  0  0  0  0  0  0  0  0  0  0  0
   -4.6250   24.0940  -29.1620 C   0  0  0  0  0  0  0  0  0  0  0  0
   -3.5840   24.9280  -29.8430 C   0  0  0  0  0  0  0  0  0  0  0  0
   -3.8770   25.5910  -30.8720 O   0  0  0  0  0  0  0  0  0  0  0  0
   -2.3010   25.0040  -29.3170 O   0  0  0  0  0  0  0  0  0  0  0  0
   -7.6960   22.5410  -30.5830 C   0  0  0  0  0  0  0  0  0  0  0  0
   -6.7312   16.6855  -30.2568 H   0  0  0  0  0  0  0  0  0  0  0  0
   -5.3333   17.6690  -30.8094 H   0  0  0  0  0  0  0  0  0  0  0  0
   -6.9848   18.3757  -30.8094 H   0  0  0  0  0  0  0  0  0  0  0  0
   -4.6581   15.0998  -32.1806 H   0  0  0  0  0  0  0  0  0  0  0  0
   -2.8593   14.7762  -33.8768 H   0  0  0  0  0  0  0  0  0  0  0  0
   -2.7597   16.2417  -35.8910 H   0  0  0  0  0  0  0  0  0  0  0  0
   -4.4488   18.0480  -36.2076 H   0  0  0  0  0  0  0  0  0  0  0  0
   -8.7728   18.7273  -33.2285 H   0  0  0  0  0  0  0  0  0  0  0  0
   -9.4359   20.4141  -31.4898 H   0  0  0  0  0  0  0  0  0  0  0  0
   -4.8798   20.6441  -33.6067 H   0  0  0  0  0  0  0  0  0  0  0  0
   -6.0048   25.2849  -30.3154 H   0  0  0  0  0  0  0  0  0  0  0  0
   -6.7395   24.3961  -28.9213 H   0  0  0  0  0  0  0  0  0  0  0  0
   -4.6391   24.3447  -28.0911 H   0  0  0  0  0  0  0  0  0  0  0  0
   -4.3710   23.0345  -29.3136 H   0  0  0  0  0  0  0  0  0  0  0  0
   -7.8660   22.1179  -29.5819 H   0  0  0  0  0  0  0  0  0  0  0  0
   -8.5612   23.1911  -30.7800 H   0  0  0  0  0  0  0  0  0  0  0  0
  1  2  1  0
  2  3  1  0
  3  4  2  0
  4  5  1  0
  5  6  2  0
  6  7  1  0
  7  8  2  0
  8  9  1  0
  9 10  1  0
 10 11  2  0
 11 12  1  0
 12 13  2  0
 13 14  1  0
 14 15  2  0
 14 16  1  0
 16 17  2  0
 16 18  1  0
 18 19  1  0
 19 20  1  0
 20 21  1  0
 21 22  2  0
 21 23  1  0
 18 24  1  0
  8  3  1  0
 15 10  1  0
 24 13  1  0
  1 25  1  0
  1 26  1  0
  1 27  1  0
  4 28  1  0
  5 29  1  0
  6 30  1  0
  7 31  1  0
 11 32  1  0
 12 33  1  0
 15 34  1  0
 19 35  1  0
 19 36  1  0
 20 37  1  0
 20 38  1  0
 24 39  1  0
 24 40  1  0
M  CHG  1  23  -1
M  END
>  <UniqueID>  (20) 
19

>  <SMILES>  (20) 
COc1ccccc1Oc1ccc2c(c1)C(=O)N(CCC(=O)[O-])C2

>  <Energy>  (20) 
65.1153657161369

>  <Genealogy>  (20) 
COc1ccccc1Oc1ccc2c(c1)C(=O)N(CCC(=O)[O-])C2 (protonated)
COc1ccccc1Oc1ccc2c(c1)C(=O)N(CCC(=O)[O-])C2 (3D coordinates assigned)
COc1ccccc1Oc1ccc2c(c1)C(=O)N(CCC(=O)[O-])C2 (nonaromatic ring conformer: 65.1153657161369 kcal/mol)

>  <smiles>  (20) 
COc1ccccc1Oc1ccc2c(c1)C(=O)N(CCC(=O)O)C2

>  <score_type>  (20) 
oracle

>  <origin>  (20) 
adg

>  <m_score__min__energy>  (20) 
-10.529999999999999

>  <m_primary>  (20) 
energy

$$$$
20:0
     RDKit          3D

 23 25  0  0  0  0  0  0  0  0999 V2000
   -8.6720   19.3360  -32.0430 C   0  0  0  0  0  0  0  0  0  0  0  0
   -7.3100   19.3600  -32.6740 C   0  0  0  0  0  0  0  0  0  0  0  0
   -6.8640   18.2880  -33.4680 C   0  0  0  0  0  0  0  0  0  0  0  0
   -5.5850   18.3580  -34.0490 C   0  0  0  0  0  0  0  0  0  0  0  0
   -5.1660   17.4080  -34.7610 O   0  0  0  0  0  0  0  0  0  0  0  0
   -4.7970   19.4490  -33.8460 N   0  0  0  0  0  0  0  0  0  0  0  0
   -5.2580   20.4660  -33.0810 C   0  0  0  0  0  0  0  0  0  0  0  0
   -4.4430   21.8890  -32.7210 S   0  0  0  0  0  0  0  0  0  0  0  0
   -5.7670   22.4210  -31.7990 C   0  0  0  0  0  0  0  0  0  0  0  0
   -5.8430   23.7010  -31.0860 C   0  0  0  0  0  0  0  0  0  0  0  0
   -6.8250   24.0820  -30.1940 C   0  0  0  0  0  0  0  0  0  0  0  0
   -6.4810   25.3520  -29.7850 C   0  0  0  0  0  0  0  0  0  0  0  0
   -5.3140   25.6670  -30.4510 C   0  0  0  0  0  0  0  0  0  0  0  0
   -4.9580   24.6630  -31.2190 O   0  0  0  0  0  0  0  0  0  0  0  0
   -6.7740   21.5130  -31.7940 N   0  0  0  0  0  0  0  0  0  0  0  0
   -6.4820   20.4290  -32.5090 N   0  0  0  0  0  0  0  0  0  0  0  0
   -8.5688   19.3378  -30.9479 H   0  0  0  0  0  0  0  0  0  0  0  0
   -9.2384   20.2243  -32.3594 H   0  0  0  0  0  0  0  0  0  0  0  0
   -9.2067   18.4283  -32.3594 H   0  0  0  0  0  0  0  0  0  0  0  0
   -7.5050   17.4092  -33.6319 H   0  0  0  0  0  0  0  0  0  0  0  0
   -7.6991   23.4947  -29.8762 H   0  0  0  0  0  0  0  0  0  0  0  0
   -7.0266   25.9869  -29.0714 H   0  0  0  0  0  0  0  0  0  0  0  0
   -4.7652   26.6153  -30.3533 H   0  0  0  0  0  0  0  0  0  0  0  0
  1  2  1  0
  2  3  2  0
  3  4  1  0
  4  5  2  0
  4  6  1  0
  6  7  2  0
  7  8  1  0
  8  9  1  0
  9 10  1  0
 10 11  2  0
 11 12  1  0
 12 13  2  0
 13 14  1  0
  9 15  2  0
 15 16  1  0
 16  2  1  0
 16  7  1  0
 14 10  1  0
  1 17  1  0
  1 18  1  0
  1 19  1  0
  3 20  1  0
 11 21  1  0
 12 22  1  0
 13 23  1  0
M  END
>  <UniqueID>  (21) 
20

>  <SMILES>  (21) 
Cc1cc(=O)nc2sc(-c3ccco3)nn12

>  <Energy>  (21) 
88.08122582768866

>  <Genealogy>  (21) 
Cc1cc(=O)nc2sc(-c3ccco3)nn12 (3D coordinates assigned)
Cc1cc(=O)nc2sc(-c3ccco3)nn12 (optimized conformer: 88.08122582768866 kcal/mol)

>  <smiles>  (21) 
Cc1cc(=O)nc2sc(-c3ccco3)nn12

>  <score_type>  (21) 
oracle

>  <origin>  (21) 
adg

>  <m_score__min__energy>  (21) 
-6.8499999999999996

>  <m_primary>  (21) 
energy

$$$$
21:0
     RDKit          3D

 37 38  0  0  0  0  0  0  0  0999 V2000
   -2.1966   20.4820  -28.9640 H   0  0  0  0  0  0  0  0  0  0  0  0
   -2.5480   21.4800  -29.2650 C   0  0  0  0  0  0  0  0  0  0  0  0
   -2.1310   22.6100  -28.5590 C   0  0  0  0  0  0  0  0  0  0  0  0
   -1.4572   22.5006  -27.6964 H   0  0  0  0  0  0  0  0  0  0  0  0
   -2.5680   23.8800  -28.9460 C   0  0  0  0  0  0  0  0  0  0  0  0
   -2.2290   24.7675  -28.3915 H   0  0  0  0  0  0  0  0  0  0  0  0
   -3.4400   24.0300  -30.0420 C   0  0  0  0  0  0  0  0  0  0  0  0
   -3.8920   25.2880  -30.4710 O   0  0  0  0  0  0  0  0  0  0  0  0
   -5.2550   25.6980  -30.4700 C   0  0  0  0  0  0  0  0  0  0  0  0
   -5.6054   25.8034  -29.4327 H   0  0  0  0  0  0  0  0  0  0  0  0
   -5.3478   26.6638  -30.9883 H   0  0  0  0  0  0  0  0  0  0  0  0
   -5.8652   24.9437  -30.9883 H   0  0  0  0  0  0  0  0  0  0  0  0
   -3.8810   22.8870  -30.7300 C   0  0  0  0  0  0  0  0  0  0  0  0
   -4.7240   23.0350  -31.8810 N   0  0  0  0  0  0  0  0  0  0  0  0
   -5.7210   22.2660  -32.2190 C   0  0  0  0  0  0  0  0  0  0  0  0
   -7.1640   22.6300  -31.9410 C   0  0  0  0  0  0  0  0  0  0  0  0
   -7.2144   23.2375  -31.0254 H   0  0  0  0  0  0  0  0  0  0  0  0
   -7.5588   23.1994  -32.7954 H   0  0  0  0  0  0  0  0  0  0  0  0
   -7.9930   21.3890  -31.7580 C   0  0  0  0  0  0  0  0  0  0  0  0
   -8.9100   21.3810  -30.9510 O   0  0  0  0  0  0  0  0  0  0  0  0
   -7.7580   20.1900  -32.6390 C   0  0  0  0  0  0  0  0  0  0  0  0
   -8.2980   19.3275  -32.2213 H   0  0  0  0  0  0  0  0  0  0  0  0
   -8.1223   20.4260  -33.6497 H   0  0  0  0  0  0  0  0  0  0  0  0
   -6.2490   19.8440  -32.7320 C   0  0  0  0  0  0  0  0  0  0  0  0
   -6.0500   18.7550  -33.8040 C   0  0  0  0  0  0  0  0  0  0  0  0
   -5.8730   17.7862  -33.3140 H   0  0  0  0  0  0  0  0  0  0  0  0
   -6.9510   18.6893  -34.4316 H   0  0  0  0  0  0  0  0  0  0  0  0
   -5.1840   19.0122  -34.4316 H   0  0  0  0  0  0  0  0  0  0  0  0
   -5.7400   19.2980  -31.3770 C   0  0  0  0  0  0  0  0  0  0  0  0
   -6.2388   19.8330  -30.5554 H   0  0  0  0  0  0  0  0  0  0  0  0
   -5.9666   18.2239  -31.3060 H   0  0  0  0  0  0  0  0  0  0  0  0
   -4.6527   19.4488  -31.3060 H   0  0  0  0  0  0  0  0  0  0  0  0
   -5.4440   21.1060  -33.1400 C   0  0  0  0  0  0  0  0  0  0  0  0
   -4.3700   20.8708  -33.1039 H   0  0  0  0  0  0  0  0  0  0  0  0
   -5.7506   21.3944  -34.1563 H   0  0  0  0  0  0  0  0  0  0  0  0
   -3.4120   21.6180  -30.3540 C   0  0  0  0  0  0  0  0  0  0  0  0
   -3.7264   20.7285  -30.9196 H   0  0  0  0  0  0  0  0  0  0  0  0
  1  2  1  0
  2  3  2  0
  3  4  1  0
  3  5  1  0
  5  6  1  0
  5  7  2  0
  7  8  1  0
  8  9  1  0
  9 10  1  0
  9 11  1  0
  9 12  1  0
  7 13  1  0
 13 14  1  0
 14 15  2  0
 15 16  1  0
 16 17  1  0
 16 18  1  0
 16 19  1  0
 19 20  2  0
 19 21  1  0
 21 22  1  0
 21 23  1  0
 21 24  1  0
 24 25  1  0
 25 26  1  0
 25 27  1  0
 25 28  1  0
 24 29  1  0
 29 30  1  0
 29 31  1  0
 29 32  1  0
 24 33  1  0
 33 34  1  0
 33 35  1  0
 13 36  2  0
 36 37  1  0
 36  2  1  0
 33 15  1  0
M  END
>  <UniqueID>  (22) 
21

>  <SMILES>  (22) 
COc1ccccc1/N=C1\CC(=O)CC(C)(C)C1

>  <Energy>  (22) 
41.24782383588596

>  <Genealogy>  (22) 
COc1ccccc1/N=C1\CC(=O)CC(C)(C)C1 (cis-trans isomerization)
COc1ccccc1/N=C1\CC(=O)CC(C)(C)C1 (3D coordinates assigned)
COc1ccccc1/N=C1\CC(=O)CC(C)(C)C1 (nonaromatic ring conformer: 41.24782383588596 kcal/mol)

>  <smiles>  (22) 
COc1ccccc1N=C1CC(=O)CC(C)(C)C1

>  <score_type>  (22) 
oracle

>  <origin>  (22) 
adg

>  <m_score__min__energy>  (22) 
-7.5099999999999998

>  <m_primary>  (22) 
energy

$$$$
22:0
     RDKit          3D

 64 68  0  0  0  0  0  0  0  0999 V2000
   -4.2490   22.4950  -27.7000 C   0  0  0  0  0  0  0  0  0  0  0  0
   -4.3270   23.3600  -28.9240 C   0  0  0  0  0  0  0  0  0  0  0  0
   -3.4650   24.3950  -29.3040 C   0  0  0  0  0  0  0  0  0  0  0  0
   -2.2670   24.8690  -28.5920 C   0  0  0  0  0  0  0  0  0  0  0  0
   -2.3820   25.2990  -27.4140 O   0  0  0  0  0  0  0  0  0  0  0  0
   -0.9810   24.8340  -29.2210 N   0  0  0  0  0  0  0  0  0  0  0  0
    0.0380   23.8320  -28.9240 C   0  0  0  0  0  0  0  0  0  0  0  0
   -0.6050   22.5280  -28.5330 C   0  0  0  0  0  0  0  0  0  0  0  0
   -1.0990   21.6510  -29.5140 C   0  0  0  0  0  0  0  0  0  0  0  0
   -1.6800   20.4330  -29.1420 C   0  0  0  0  0  0  0  0  0  0  0  0
   -1.7650   20.0800  -27.7920 C   0  0  0  0  0  0  0  0  0  0  0  0
   -1.2720   20.9450  -26.8120 C   0  0  0  0  0  0  0  0  0  0  0  0
   -0.6920   22.1650  -27.1790 C   0  0  0  0  0  0  0  0  0  0  0  0
   -3.8750   24.9330  -30.4390 O   0  0  0  0  0  0  0  0  0  0  0  0
   -4.9630   24.3050  -30.8130 C   0  0  0  0  0  0  0  0  0  0  0  0
   -5.7340   24.5520  -31.9440 C   0  0  0  0  0  0  0  0  0  0  0  0
   -6.8780   23.7600  -32.1460 C   0  0  0  0  0  0  0  0  0  0  0  0
   -7.2210   22.7410  -31.2220 C   0  0  0  0  0  0  0  0  0  0  0  0
   -8.6730   21.7710  -31.4560 S   0  0  0  0  0  0  0  0  0  0  0  0
   -9.7790   22.6700  -31.9360 O   0  0  0  0  0  0  0  0  0  0  0  0
   -9.0910   21.1470  -30.1510 O   0  0  0  0  0  0  0  0  0  0  0  0
   -8.3720   20.5250  -32.6430 N   0  0  0  0  0  0  0  0  0  0  0  0
   -6.9980   20.6540  -33.1730 C   0  0  0  0  0  0  0  0  0  0  0  0
   -6.5100   19.3320  -33.7850 C   0  0  0  0  0  0  0  0  0  0  0  0
   -6.4700   18.2310  -32.7900 N   0  0  0  0  0  0  0  0  0  0  0  0
   -5.0910   17.9840  -32.3180 C   0  0  0  0  0  0  0  0  0  0  0  0
   -4.2250   19.2050  -32.5040 C   0  0  0  0  0  0  0  0  0  0  0  0
   -3.3570   19.3020  -33.6040 C   0  0  0  0  0  0  0  0  0  0  0  0
   -2.5940   20.4580  -33.7990 C   0  0  0  0  0  0  0  0  0  0  0  0
   -2.6950   21.5250  -32.9010 C   0  0  0  0  0  0  0  0  0  0  0  0
   -3.5590   21.4380  -31.8060 C   0  0  0  0  0  0  0  0  0  0  0  0
   -4.3200   20.2820  -31.6040 C   0  0  0  0  0  0  0  0  0  0  0  0
   -7.4040   18.4360  -31.6530 C   0  0  0  0  0  0  0  0  0  0  0  0
   -8.6720   19.1830  -32.0920 C   0  0  0  0  0  0  0  0  0  0  0  0
   -6.4180   22.5200  -30.0860 C   0  0  0  0  0  0  0  0  0  0  0  0
   -5.2900   23.3250  -29.9140 C   0  0  0  0  0  0  0  0  0  0  0  0
   -4.3059   23.1261  -26.8008 H   0  0  0  0  0  0  0  0  0  0  0  0
   -5.0865   21.7818  -27.7010 H   0  0  0  0  0  0  0  0  0  0  0  0
   -3.2974   21.9431  -27.7010 H   0  0  0  0  0  0  0  0  0  0  0  0
    0.6624   23.6749  -29.8159 H   0  0  0  0  0  0  0  0  0  0  0  0
    0.6562   24.1895  -28.0873 H   0  0  0  0  0  0  0  0  0  0  0  0
   -1.0288   21.9227  -30.5776 H   0  0  0  0  0  0  0  0  0  0  0  0
   -2.0703   19.7526  -29.9131 H   0  0  0  0  0  0  0  0  0  0  0  0
   -2.2199   19.1215  -27.5015 H   0  0  0  0  0  0  0  0  0  0  0  0
   -1.3397   20.6669  -25.7499 H   0  0  0  0  0  0  0  0  0  0  0  0
   -0.3029   22.8419  -26.4041 H   0  0  0  0  0  0  0  0  0  0  0  0
   -5.4575   25.3420  -32.6578 H   0  0  0  0  0  0  0  0  0  0  0  0
   -7.5121   23.9324  -33.0282 H   0  0  0  0  0  0  0  0  0  0  0  0
   -6.9846   21.4343  -33.9482 H   0  0  0  0  0  0  0  0  0  0  0  0
   -6.3285   20.9201  -32.3418 H   0  0  0  0  0  0  0  0  0  0  0  0
   -7.1910   19.0471  -34.6005 H   0  0  0  0  0  0  0  0  0  0  0  0
   -5.4856   19.4898  -34.1534 H   0  0  0  0  0  0  0  0  0  0  0  0
   -5.1185   17.7227  -31.2498 H   0  0  0  0  0  0  0  0  0  0  0  0
   -4.6630   17.1598  -32.9074 H   0  0  0  0  0  0  0  0  0  0  0  0
   -3.2770   18.4661  -34.3145 H   0  0  0  0  0  0  0  0  0  0  0  0
   -1.9133   20.5278  -34.6603 H   0  0  0  0  0  0  0  0  0  0  0  0
   -2.0942   22.4332  -33.0565 H   0  0  0  0  0  0  0  0  0  0  0  0
   -3.6406   22.2795  -31.1023 H   0  0  0  0  0  0  0  0  0  0  0  0
   -4.9952   20.2148  -30.7382 H   0  0  0  0  0  0  0  0  0  0  0  0
   -7.6904   17.4555  -31.2448 H   0  0  0  0  0  0  0  0  0  0  0  0
   -6.8923   19.0435  -30.8920 H   0  0  0  0  0  0  0  0  0  0  0  0
   -9.1825   18.5894  -32.8647 H   0  0  0  0  0  0  0  0  0  0  0  0
   -9.3071   19.3182  -31.2041 H   0  0  0  0  0  0  0  0  0  0  0  0
   -6.6718   21.7369  -29.3564 H   0  0  0  0  0  0  0  0  0  0  0  0
  1  2  1  0
  2  3  2  0
  3  4  1  0
  4  5  2  0
  4  6  1  0
  6  7  1  0
  7  8  1  0
  8  9  2  0
  9 10  1  0
 10 11  2  0
 11 12  1  0
 12 13  2  0
  3 14  1  0
 14 15  1  0
 15 16  2  0
 16 17  1  0
 17 18  2  0
 18 19  1  0
 19 20  2  0
 19 21  2  0
 19 22  1  0
 22 23  1  0
 23 24  1  0
 24 25  1  0
 25 26  1  0
 26 27  1  0
 27 28  2  0
 28 29  1  0
 29 30  2  0
 30 31  1  0
 31 32  2  0
 25 33  1  0
 33 34  1  0
 18 35  1  0
 35 36  2  0
 36  2  1  0
 13  8  1  0
 36 15  1  0
 34 22  1  0
 32 27  1  0
  1 37  1  0
  1 38  1  0
  1 39  1  0
  7 40  1  0
  7 41  1  0
  9 42  1  0
 10 43  1  0
 11 44  1  0
 12 45  1  0
 13 46  1  0
 16 47  1  0
 17 48  1  0
 23 49  1  0
 23 50  1  0
 24 51  1  0
 24 52  1  0
 26 53  1  0
 26 54  1  0
 28 55  1  0
 29 56  1  0
 30 57  1  0
 31 58  1  0
 32 59  1  0
 33 60  1  0
 33 61  1  0
 34 62  1  0
 34 63  1  0
 35 64  1  0
M  CHG  1   6  -1
M  END
>  <UniqueID>  (23) 
22

>  <SMILES>  (23) 
Cc1c(C(=O)[N-]Cc2ccccc2)oc2ccc(S(=O)(=O)N3CCN(Cc4ccccc4)CC3)cc12

>  <Energy>  (23) 
111.28387660918186

>  <Genealogy>  (23) 
Cc1c(C(=O)[N-]Cc2ccccc2)oc2ccc(S(=O)(=O)N3CCN(Cc4ccccc4)CC3)cc12 (protonated)
Cc1c(C(=O)[N-]Cc2ccccc2)oc2ccc(S(=O)(=O)N3CCN(Cc4ccccc4)CC3)cc12 (3D coordinates assigned)
Cc1c(C(=O)[N-]Cc2ccccc2)oc2ccc(S(=O)(=O)N3CCN(Cc4ccccc4)CC3)cc12 (nonaromatic ring conformer: 111.28387660918186 kcal/mol)

>  <smiles>  (23) 
Cc1c(C(=O)NCc2ccccc2)oc2ccc(S(=O)(=O)N3CCN(Cc4ccccc4)CC3)cc12

>  <score_type>  (23) 
oracle

>  <origin>  (23) 
adg

>  <m_score__min__energy>  (23) 
-13

>  <m_primary>  (23) 
energy

$$$$
23:0
     RDKit          3D

 37 39  0  0  0  0  0  0  0  0999 V2000
   -6.8700   25.2990  -29.6710 C   0  0  0  0  0  0  0  0  0  0  0  0
   -5.2680   25.6240  -30.4700 S   0  0  0  0  0  0  0  0  0  0  0  0
   -5.0780   23.9370  -31.0390 C   0  0  0  0  0  0  0  0  0  0  0  0
   -6.1970   23.1310  -31.2380 C   0  0  0  0  0  0  0  0  0  0  0  0
   -6.0110   21.8160  -31.6950 C   0  0  0  0  0  0  0  0  0  0  0  0
   -7.1670   20.9130  -31.9280 C   0  0  0  0  0  0  0  0  0  0  0  0
   -8.4940   21.3810  -31.9020 C   0  0  0  0  0  0  0  0  0  0  0  0
   -9.5420   20.4880  -32.1340 C   0  0  0  0  0  0  0  0  0  0  0  0
   -9.2700   19.1460  -32.3960 C   0  0  0  0  0  0  0  0  0  0  0  0
   -7.9410   18.7100  -32.4260 C   0  0  0  0  0  0  0  0  0  0  0  0
   -7.6200   17.2780  -32.7150 C   0  0  0  0  0  0  0  0  0  0  0  0
   -6.9350   19.5970  -32.1960 N   0  0  0  0  0  0  0  0  0  0  0  0
   -4.7400   21.3610  -31.9050 N   0  0  0  0  0  0  0  0  0  0  0  0
   -3.6530   22.1610  -31.6890 C   0  0  0  0  0  0  0  0  0  0  0  0
   -2.2740   21.6670  -31.9230 C   0  0  0  0  0  0  0  0  0  0  0  0
   -1.8070   21.3940  -33.2230 C   0  0  0  0  0  0  0  0  0  0  0  0
   -0.5060   20.9200  -33.4230 C   0  0  0  0  0  0  0  0  0  0  0  0
    0.3400   20.7100  -32.3330 C   0  0  0  0  0  0  0  0  0  0  0  0
   -0.1160   20.9660  -31.0370 C   0  0  0  0  0  0  0  0  0  0  0  0
   -1.4160   21.4370  -30.8310 C   0  0  0  0  0  0  0  0  0  0  0  0
   -3.8380   23.4400  -31.2670 N   0  0  0  0  0  0  0  0  0  0  0  0
   -6.7465   25.3241  -28.5782 H   0  0  0  0  0  0  0  0  0  0  0  0
   -7.5946   26.0684  -29.9759 H   0  0  0  0  0  0  0  0  0  0  0  0
   -7.2374   24.3080  -29.9759 H   0  0  0  0  0  0  0  0  0  0  0  0
   -7.2078   23.5176  -31.0408 H   0  0  0  0  0  0  0  0  0  0  0  0
   -8.7039   22.4418  -31.7005 H   0  0  0  0  0  0  0  0  0  0  0  0
  -10.5827   20.8435  -32.1100 H   0  0  0  0  0  0  0  0  0  0  0  0
  -10.0916   18.4374  -32.5772 H   0  0  0  0  0  0  0  0  0  0  0  0
   -7.4975   16.7314  -31.7683 H   0  0  0  0  0  0  0  0  0  0  0  0
   -8.4396   16.8283  -33.2946 H   0  0  0  0  0  0  0  0  0  0  0  0
   -6.6868   17.2212  -33.2946 H   0  0  0  0  0  0  0  0  0  0  0  0
   -4.6050   20.3950  -32.2780 H   0  0  0  0  0  0  0  0  0  0  0  0
   -2.4691   21.5544  -34.0866 H   0  0  0  0  0  0  0  0  0  0  0  0
   -0.1488   20.7122  -34.4424 H   0  0  0  0  0  0  0  0  0  0  0  0
    1.3646   20.3434  -32.4938 H   0  0  0  0  0  0  0  0  0  0  0  0
    0.5492   20.7966  -30.1775 H   0  0  0  0  0  0  0  0  0  0  0  0
   -1.7711   21.6293  -29.8078 H   0  0  0  0  0  0  0  0  0  0  0  0
  1  2  1  0
  2  3  1  0
  3  4  2  0
  4  5  1  0
  5  6  1  0
  6  7  2  0
  7  8  1  0
  8  9  2  0
  9 10  1  0
 10 11  1  0
 10 12  2  0
  5 13  2  0
 13 14  1  0
 14 15  1  0
 15 16  2  0
 16 17  1  0
 17 18  2  0
 18 19  1  0
 19 20  2  0
 14 21  2  0
 21  3  1  0
 12  6  1  0
 20 15  1  0
  1 22  1  0
  1 23  1  0
  1 24  1  0
  4 25  1  0
  7 26  1  0
  8 27  1  0
  9 28  1  0
 11 29  1  0
 11 30  1  0
 11 31  1  0
 13 32  1  0
 16 33  1  0
 17 34  1  0
 18 35  1  0
 19 36  1  0
 20 37  1  0
M  CHG  1  13   1
M  END
>  <UniqueID>  (24) 
23

>  <SMILES>  (24) 
CSc1cc(-c2cccc(C)n2)[nH+]c(-c2ccccc2)n1

>  <Energy>  (24) 
42.122336695879795

>  <Genealogy>  (24) 
CSc1cc(-c2cccc(C)n2)[nH+]c(-c2ccccc2)n1 (protonated)
CSc1cc(-c2cccc(C)n2)[nH+]c(-c2ccccc2)n1 (3D coordinates assigned)
CSc1cc(-c2cccc(C)n2)[nH+]c(-c2ccccc2)n1 (optimized conformer: 42.122336695879795 kcal/mol)

>  <smiles>  (24) 
CSc1cc(-c2cccc(C)n2)nc(-c2ccccc2)n1

>  <score_type>  (24) 
oracle

>  <origin>  (24) 
adg

>  <m_score__min__energy>  (24) 
-7.0899999999999999

>  <m_primary>  (24) 
energy

$$$$
24:0
     RDKit          3D

 38 40  0  0  0  0  0  0  0  0999 V2000
   -9.5220   21.6430  -30.6040 C   0  0  0  0  0  0  0  0  0  0  0  0
   -8.9810   22.1350  -31.9420 C   0  0  0  0  0  0  0  0  0  0  0  0
   -7.6910   21.4990  -32.2360 N   0  0  0  0  0  0  0  0  0  0  0  0
   -6.4790   22.1110  -32.3370 C   0  0  0  0  0  0  0  0  0  0  0  0
   -6.2760   23.5970  -32.2430 C   0  0  0  0  0  0  0  0  0  0  0  0
   -5.4680   21.1590  -32.5140 C   0  0  0  0  0  0  0  0  0  0  0  0
   -4.0110   21.4000  -32.6050 C   0  0  0  0  0  0  0  0  0  0  0  0
   -3.4020   21.0500  -33.6510 O   0  0  0  0  0  0  0  0  0  0  0  0
   -3.2580   22.0360  -31.4940 C   0  0  0  0  0  0  0  0  0  0  0  0
   -3.5310   23.3700  -31.1340 C   0  0  0  0  0  0  0  0  0  0  0  0
   -2.8380   23.9810  -30.0870 C   0  0  0  0  0  0  0  0  0  0  0  0
   -3.1140   25.2990  -29.7450 O   0  0  0  0  0  0  0  0  0  0  0  0
   -1.8670   23.2670  -29.3820 C   0  0  0  0  0  0  0  0  0  0  0  0
   -1.5900   21.9420  -29.7220 C   0  0  0  0  0  0  0  0  0  0  0  0
   -2.2780   21.3200  -30.7740 C   0  0  0  0  0  0  0  0  0  0  0  0
   -1.9750   20.0010  -31.1120 O   0  0  0  0  0  0  0  0  0  0  0  0
   -6.1080   19.9320  -32.5070 C   0  0  0  0  0  0  0  0  0  0  0  0
   -5.5990   18.6320  -32.5750 C   0  0  0  0  0  0  0  0  0  0  0  0
   -6.5060   17.5630  -32.4880 C   0  0  0  0  0  0  0  0  0  0  0  0
   -7.8840   17.8060  -32.3180 C   0  0  0  0  0  0  0  0  0  0  0  0
   -8.3690   19.1220  -32.2310 C   0  0  0  0  0  0  0  0  0  0  0  0
   -7.4500   20.1730  -32.3330 C   0  0  0  0  0  0  0  0  0  0  0  0
   -8.9788   22.1370  -29.7849 H   0  0  0  0  0  0  0  0  0  0  0  0
  -10.5930   21.8830  -30.5309 H   0  0  0  0  0  0  0  0  0  0  0  0
   -9.3844   20.5541  -30.5309 H   0  0  0  0  0  0  0  0  0  0  0  0
   -9.6984   21.8847  -32.7374 H   0  0  0  0  0  0  0  0  0  0  0  0
   -8.8389   23.2246  -31.8912 H   0  0  0  0  0  0  0  0  0  0  0  0
   -6.2352   23.8953  -31.1850 H   0  0  0  0  0  0  0  0  0  0  0  0
   -5.3322   23.8702  -32.7376 H   0  0  0  0  0  0  0  0  0  0  0  0
   -7.1120   24.1133  -32.7376 H   0  0  0  0  0  0  0  0  0  0  0  0
   -4.2978   23.9362  -31.6831 H   0  0  0  0  0  0  0  0  0  0  0  0
   -1.3201   23.7490  -28.5583 H   0  0  0  0  0  0  0  0  0  0  0  0
   -0.8272   21.3820  -29.1612 H   0  0  0  0  0  0  0  0  0  0  0  0
   -2.2110   19.6170  -32.0200 H   0  0  0  0  0  0  0  0  0  0  0  0
   -4.5204   18.4515  -32.6931 H   0  0  0  0  0  0  0  0  0  0  0  0
   -6.1381   16.5284  -32.5530 H   0  0  0  0  0  0  0  0  0  0  0  0
   -8.5842   16.9601  -32.2530 H   0  0  0  0  0  0  0  0  0  0  0  0
   -9.4412   19.3208  -32.0867 H   0  0  0  0  0  0  0  0  0  0  0  0
  1  2  1  0
  2  3  1  0
  3  4  1  0
  4  5  1  0
  4  6  2  0
  6  7  1  0
  7  8  2  0
  7  9  1  0
  9 10  2  0
 10 11  1  0
 11 12  1  0
 11 13  2  0
 13 14  1  0
 14 15  2  0
 15 16  1  0
  6 17  1  0
 17 18  2  0
 18 19  1  0
 19 20  2  0
 20 21  1  0
 21 22  2  0
 22  3  1  0
 15  9  1  0
 22 17  1  0
  1 23  1  0
  1 24  1  0
  1 25  1  0
  2 26  1  0
  2 27  1  0
  5 28  1  0
  5 29  1  0
  5 30  1  0
 10 31  1  0
 13 32  1  0
 14 33  1  0
 16 34  1  0
 18 35  1  0
 19 36  1  0
 20 37  1  0
 21 38  1  0
M  CHG  1  12  -1
M  END
>  <UniqueID>  (25) 
24

>  <SMILES>  (25) 
CCn1c(C)c(C(=O)c2cc([O-])ccc2O)c2ccccc21

>  <Energy>  (25) 
78.16700951121874

>  <Genealogy>  (25) 
CCn1c(C)c(C(=O)c2cc([O-])ccc2O)c2ccccc21 (protonated)
CCn1c(C)c(C(=O)c2cc([O-])ccc2O)c2ccccc21 (3D coordinates assigned)
CCn1c(C)c(C(=O)c2cc([O-])ccc2O)c2ccccc21 (optimized conformer: 78.16700951121874 kcal/mol)

>  <smiles>  (25) 
CCn1c(C)c(C(=O)c2cc(O)ccc2O)c2ccccc21

>  <score_type>  (25) 
oracle

>  <origin>  (25) 
adg

>  <m_score__min__energy>  (25) 
-10.33

>  <m_primary>  (25) 
energy

$$$$
25:0
     RDKit          3D

 62 65  0  0  0  0  0  0  0  0999 V2000
   -5.7130   25.2960  -30.7810 C   0  0  0  0  0  0  0  0  0  0  0  0
   -5.4200   24.9220  -29.3330 C   0  0  0  0  0  0  0  0  0  0  0  0
   -4.4760   23.7540  -29.2620 C   0  0  0  0  0  0  0  0  0  0  0  0
   -4.2150   23.1330  -28.0300 C   0  0  0  0  0  0  0  0  0  0  0  0
   -3.3530   22.0350  -27.9640 C   0  0  0  0  0  0  0  0  0  0  0  0
   -2.7400   21.5540  -29.1240 C   0  0  0  0  0  0  0  0  0  0  0  0
   -2.9890   22.1650  -30.3620 C   0  0  0  0  0  0  0  0  0  0  0  0
   -2.3910   21.6420  -31.5590 N   0  0  0  0  0  0  0  0  0  0  0  0
   -1.2510   20.7230  -31.4920 C   0  0  0  0  0  0  0  0  0  0  0  0
   -1.5810   19.3970  -32.2080 C   0  0  0  0  0  0  0  0  0  0  0  0
   -2.8010   19.4960  -33.0410 N   0  0  0  0  0  0  0  0  0  0  0  0
   -2.9440   18.3070  -33.9050 C   0  0  0  0  0  0  0  0  0  0  0  0
   -3.6270   17.1430  -33.1550 C   0  0  0  0  0  0  0  0  0  0  0  0
   -5.0400   16.9280  -33.5560 N   0  0  0  0  0  0  0  0  0  0  0  0
   -5.4740   17.9330  -34.5110 C   0  0  0  0  0  0  0  0  0  0  0  0
   -5.3580   17.7100  -35.7120 O   0  0  0  0  0  0  0  0  0  0  0  0
   -6.0390   19.2730  -34.0800 C   0  0  0  0  0  0  0  0  0  0  0  0
   -6.7160   19.2540  -32.6690 C   0  0  0  0  0  0  0  0  0  0  0  0
   -7.9620   20.1560  -32.6510 C   0  0  0  0  0  0  0  0  0  0  0  0
   -7.4430   21.5680  -32.4270 C   0  0  0  0  0  0  0  0  0  0  0  0
   -6.1100   21.4220  -31.6980 C   0  0  0  0  0  0  0  0  0  0  0  0
   -5.8170   19.9270  -31.6120 C   0  0  0  0  0  0  0  0  0  0  0  0
   -7.0950   17.8140  -32.2670 C   0  0  0  0  0  0  0  0  0  0  0  0
   -5.9010   16.9010  -32.3870 C   0  0  0  0  0  0  0  0  0  0  0  0
   -5.7130   16.0660  -31.5130 O   0  0  0  0  0  0  0  0  0  0  0  0
   -2.7930   20.7500  -33.8220 C   0  0  0  0  0  0  0  0  0  0  0  0
   -2.9910   21.9330  -32.8670 C   0  0  0  0  0  0  0  0  0  0  0  0
   -3.8720   23.2550  -30.4280 C   0  0  0  0  0  0  0  0  0  0  0  0
   -6.3912   26.1617  -30.8061 H   0  0  0  0  0  0  0  0  0  0  0  0
   -4.7726   25.5520  -31.2911 H   0  0  0  0  0  0  0  0  0  0  0  0
   -6.1867   24.4442  -31.2911 H   0  0  0  0  0  0  0  0  0  0  0  0
   -4.9654   25.7842  -28.8231 H   0  0  0  0  0  0  0  0  0  0  0  0
   -6.3645   24.6412  -28.8441 H   0  0  0  0  0  0  0  0  0  0  0  0
   -4.6907   23.5121  -27.1135 H   0  0  0  0  0  0  0  0  0  0  0  0
   -3.1567   21.5485  -26.9972 H   0  0  0  0  0  0  0  0  0  0  0  0
   -2.0589   20.6921  -29.0661 H   0  0  0  0  0  0  0  0  0  0  0  0
   -0.3813   21.1896  -31.9777 H   0  0  0  0  0  0  0  0  0  0  0  0
   -1.0279   20.5104  -30.4360 H   0  0  0  0  0  0  0  0  0  0  0  0
   -0.7334   19.1232  -32.8534 H   0  0  0  0  0  0  0  0  0  0  0  0
   -1.7617   18.6341  -31.4364 H   0  0  0  0  0  0  0  0  0  0  0  0
   -3.5522   18.5732  -34.7820 H   0  0  0  0  0  0  0  0  0  0  0  0
   -1.9395   17.9791  -34.2108 H   0  0  0  0  0  0  0  0  0  0  0  0
   -3.0635   16.2202  -33.3573 H   0  0  0  0  0  0  0  0  0  0  0  0
   -3.6302   17.4043  -32.0865 H   0  0  0  0  0  0  0  0  0  0  0  0
   -5.1290   15.9850  -34.0020 H   0  0  0  0  0  0  0  0  0  0  0  0
   -5.2176   20.0044  -34.0598 H   0  0  0  0  0  0  0  0  0  0  0  0
   -6.8227   19.5363  -34.8056 H   0  0  0  0  0  0  0  0  0  0  0  0
   -8.4965   20.0913  -33.6102 H   0  0  0  0  0  0  0  0  0  0  0  0
   -8.6711   19.8542  -31.8661 H   0  0  0  0  0  0  0  0  0  0  0  0
   -7.2966   22.0776  -33.3907 H   0  0  0  0  0  0  0  0  0  0  0  0
   -8.1555   22.1685  -31.8424 H   0  0  0  0  0  0  0  0  0  0  0  0
   -5.3134   21.9325  -32.2591 H   0  0  0  0  0  0  0  0  0  0  0  0
   -6.1561   21.8738  -30.6961 H   0  0  0  0  0  0  0  0  0  0  0  0
   -4.7570   19.7323  -31.8324 H   0  0  0  0  0  0  0  0  0  0  0  0
   -6.0188   19.5351  -30.6042 H   0  0  0  0  0  0  0  0  0  0  0  0
   -7.4504   17.8104  -31.2260 H   0  0  0  0  0  0  0  0  0  0  0  0
   -7.8875   17.4537  -32.9393 H   0  0  0  0  0  0  0  0  0  0  0  0
   -1.8300   20.8538  -34.3433 H   0  0  0  0  0  0  0  0  0  0  0  0
   -3.6046   20.7312  -34.5642 H   0  0  0  0  0  0  0  0  0  0  0  0
   -2.5132   22.8271  -33.2939 H   0  0  0  0  0  0  0  0  0  0  0  0
   -4.0690   22.1070  -32.7339 H   0  0  0  0  0  0  0  0  0  0  0  0
   -4.0922   23.7213  -31.3996 H   0  0  0  0  0  0  0  0  0  0  0  0
  1  2  1  0
  2  3  1  0
  3  4  2  0
  4  5  1  0
  5  6  2  0
  6  7  1  0
  7  8  1  0
  8  9  1  0
  9 10  1  0
 10 11  1  0
 11 12  1  0
 12 13  1  0
 13 14  1  0
 14 15  1  0
 15 16  2  0
 15 17  1  0
 17 18  1  0
 18 19  1  0
 19 20  1  0
 20 21  1  0
 21 22  1  0
 18 23  1  0
 23 24  1  0
 24 25  2  0
 11 26  1  0
 26 27  1  0
  7 28  2  0
 28  3  1  0
 27  8  1  0
 24 14  1  0
 22 18  1  0
  1 29  1  0
  1 30  1  0
  1 31  1  0
  2 32  1  0
  2 33  1  0
  4 34  1  0
  5 35  1  0
  6 36  1  0
  9 37  1  0
  9 38  1  0
 10 39  1  0
 10 40  1  0
 12 41  1  0
 12 42  1  0
 13 43  1  0
 13 44  1  0
 14 45  1  0
 17 46  1  0
 17 47  1  0
 19 48  1  0
 19 49  1  0
 20 50  1  0
 20 51  1  0
 21 52  1  0
 21 53  1  0
 22 54  1  0
 22 55  1  0
 23 56  1  0
 23 57  1  0
 26 58  1  0
 26 59  1  0
 27 60  1  0
 27 61  1  0
 28 62  1  0
M  CHG  1  14   1
M  END
>  <UniqueID>  (26) 
25

>  <SMILES>  (26) 
CCc1cccc(N2CCN(CC[NH+]3C(=O)CC4(CCCC4)CC3=O)CC2)c1

>  <Energy>  (26) 
80.35173648888525

>  <Genealogy>  (26) 
CCc1cccc(N2CCN(CC[NH+]3C(=O)CC4(CCCC4)CC3=O)CC2)c1 (protonated)
CCc1cccc(N2CCN(CC[NH+]3C(=O)CC4(CCCC4)CC3=O)CC2)c1 (3D coordinates assigned)
CCc1cccc(N2CCN(CC[NH+]3C(=O)CC4(CCCC4)CC3=O)CC2)c1 (nonaromatic ring conformer: 80.35173648888525 kcal/mol)

>  <smiles>  (26) 
CCc1cccc(N2CCN(CCN3C(=O)CC4(CCCC4)CC3=O)CC2)c1

>  <score_type>  (26) 
oracle

>  <origin>  (26) 
adg

>  <m_score__min__energy>  (26) 
-9.3200000000000003

>  <m_primary>  (26) 
energy

$$$$
26:0
     RDKit          3D

 40 41  0  0  0  0  0  0  0  0999 V2000
   -5.9350   17.1600  -34.3320 C   0  0  0  0  0  0  0  0  0  0  0  0
   -5.7200   18.5280  -34.6640 O   0  0  0  0  0  0  0  0  0  0  0  0
   -5.8410   19.5920  -33.7570 C   0  0  0  0  0  0  0  0  0  0  0  0
   -7.0960   20.0240  -33.2730 C   0  0  0  0  0  0  0  0  0  0  0  0
   -7.1480   21.0840  -32.3670 C   0  0  0  0  0  0  0  0  0  0  0  0
   -6.0050   21.7240  -31.9610 C   0  0  0  0  0  0  0  0  0  0  0  0
   -4.7490   21.3170  -32.4150 C   0  0  0  0  0  0  0  0  0  0  0  0
   -4.6630   20.2390  -33.3230 C   0  0  0  0  0  0  0  0  0  0  0  0
   -3.4310   19.7850  -33.8210 O   0  0  0  0  0  0  0  0  0  0  0  0
   -2.1910   20.4590  -33.6360 C   0  0  0  0  0  0  0  0  0  0  0  0
   -6.2970   22.8510  -31.0350 C   0  0  1  0  0  0  0  0  0  0  0  0
   -5.8750   24.2310  -31.6020 C   0  0  0  0  0  0  0  0  0  0  0  0
   -5.3150   25.2400  -30.5790 C   0  0  0  0  0  0  0  0  0  0  0  0
   -3.8590   25.2960  -30.6100 N   0  0  0  0  0  0  0  0  0  0  0  0
   -3.0180   24.6270  -29.6650 C   0  0  0  0  0  0  0  0  0  0  0  0
   -3.3910   23.2660  -29.1830 C   0  0  0  0  0  0  0  0  0  0  0  0
   -1.9910   25.1950  -29.2050 O   0  0  0  0  0  0  0  0  0  0  0  0
   -7.8170   22.7220  -30.7660 C   0  0  0  0  0  0  0  0  0  0  0  0
   -8.3690   21.6800  -31.7630 C   0  0  2  0  0  0  0  0  0  0  0  0
   -9.1170   20.7040  -31.0860 O   0  0  0  0  0  0  0  0  0  0  0  0
   -5.9528   17.0466  -33.2380 H   0  0  0  0  0  0  0  0  0  0  0  0
   -6.8964   16.8278  -34.7508 H   0  0  0  0  0  0  0  0  0  0  0  0
   -5.1219   16.5489  -34.7508 H   0  0  0  0  0  0  0  0  0  0  0  0
   -8.0210   19.5307  -33.6063 H   0  0  0  0  0  0  0  0  0  0  0  0
   -3.8387   21.8292  -32.0700 H   0  0  0  0  0  0  0  0  0  0  0  0
   -1.9900   20.5682  -32.5601 H   0  0  0  0  0  0  0  0  0  0  0  0
   -1.3834   19.8757  -34.1025 H   0  0  0  0  0  0  0  0  0  0  0  0
   -2.2413   21.4539  -34.1025 H   0  0  0  0  0  0  0  0  0  0  0  0
   -5.7117   22.7949  -30.1053 H   0  0  0  0  0  0  0  0  0  0  0  0
   -5.1003   24.0592  -32.3638 H   0  0  0  0  0  0  0  0  0  0  0  0
   -6.7974   24.6857  -31.9923 H   0  0  0  0  0  0  0  0  0  0  0  0
   -5.7140   26.2387  -30.8099 H   0  0  0  0  0  0  0  0  0  0  0  0
   -5.6216   24.9121  -29.5748 H   0  0  0  0  0  0  0  0  0  0  0  0
   -3.3941   23.2546  -28.0831 H   0  0  0  0  0  0  0  0  0  0  0  0
   -4.3932   23.0071  -29.5552 H   0  0  0  0  0  0  0  0  0  0  0  0
   -2.6608   22.5323  -29.5552 H   0  0  0  0  0  0  0  0  0  0  0  0
   -8.3113   23.6922  -30.9222 H   0  0  0  0  0  0  0  0  0  0  0  0
   -8.0053   22.4085  -29.7286 H   0  0  0  0  0  0  0  0  0  0  0  0
   -9.0416   22.1188  -32.5147 H   0  0  0  0  0  0  0  0  0  0  0  0
   -8.4770   20.1940  -30.5230 H   0  0  0  0  0  0  0  0  0  0  0  0
  1  2  1  0
  2  3  1  0
  3  4  2  0
  4  5  1  0
  5  6  2  0
  6  7  1  0
  7  8  2  0
  8  9  1  0
  9 10  1  0
  6 11  1  0
 11 12  1  0
 12 13  1  0
 13 14  1  0
 14 15  1  0
 15 16  1  0
 15 17  2  0
 11 18  1  0
 18 19  1  0
 19 20  1  0
  8  3  1  0
 19  5  1  0
  1 21  1  0
  1 22  1  0
  1 23  1  0
  4 24  1  0
  7 25  1  0
 10 26  1  0
 10 27  1  0
 10 28  1  0
 11 29  1  1
 12 30  1  0
 12 31  1  0
 13 32  1  0
 13 33  1  0
 16 34  1  0
 16 35  1  0
 16 36  1  0
 18 37  1  0
 18 38  1  0
 19 39  1  6
 20 40  1  0
M  CHG  1  14  -1
M  END
>  <UniqueID>  (27) 
26

>  <SMILES>  (27) 
COc1cc2c(cc1OC)[C@@H](O)C[C@@H]2CC[N-]C(C)=O

>  <Energy>  (27) 
41.39853317574859

>  <Genealogy>  (27) 
COc1cc2c(cc1OC)C(CC[N-]C(C)=O)CC2O (protonated)
COc1cc2c(cc1OC)[C@@H](O)C[C@@H]2CC[N-]C(C)=O (chirality)
COc1cc2c(cc1OC)[C@@H](O)C[C@@H]2CC[N-]C(C)=O (3D coordinates assigned)
COc1cc2c(cc1OC)[C@@H](O)C[C@@H]2CC[N-]C(C)=O (nonaromatic ring conformer: 41.39853317574859 kcal/mol)

>  <smiles>  (27) 
COc1cc2c(cc1OC)C(CCNC(C)=O)CC2O

>  <score_type>  (27) 
oracle

>  <origin>  (27) 
adg

>  <m_score__min__energy>  (27) 
-8.6400000000000006

>  <m_primary>  (27) 
energy

$$$$
27:0
     RDKit          3D

 22 23  0  0  0  0  0  0  0  0999 V2000
   -1.9000   25.9680  -28.4930 O   0  0  0  0  0  0  0  0  0  0  0  0
   -2.3670   24.9190  -29.0070 C   0  0  0  0  0  0  0  0  0  0  0  0
   -2.1900   23.5730  -28.4270 C   0  0  0  0  0  0  0  0  0  0  0  0
   -3.0580   22.6900  -29.3320 C   0  0  0  0  0  0  0  0  0  0  0  0
   -3.4560   23.5600  -30.5490 C   0  0  1  0  0  0  0  0  0  0  0  0
   -4.9280   23.4470  -30.8790 C   0  0  0  0  0  0  0  0  0  0  0  0
   -5.8920   23.5630  -29.8670 C   0  0  0  0  0  0  0  0  0  0  0  0
   -7.2500   23.4830  -30.1830 C   0  0  0  0  0  0  0  0  0  0  0  0
   -7.6340   23.2950  -31.5120 C   0  0  0  0  0  0  0  0  0  0  0  0
   -6.6910   23.1960  -32.4880 N   0  0  0  0  0  0  0  0  0  0  0  0
   -5.3620   23.2710  -32.2040 C   0  0  0  0  0  0  0  0  0  0  0  0
   -3.1100   24.9290  -30.2060 N   0  0  0  0  0  0  0  0  0  0  0  0
   -1.1356   23.2618  -28.4648 H   0  0  0  0  0  0  0  0  0  0  0  0
   -2.4744   23.5176  -27.3659 H   0  0  0  0  0  0  0  0  0  0  0  0
   -2.4871   21.8106  -29.6647 H   0  0  0  0  0  0  0  0  0  0  0  0
   -3.9474   22.3266  -28.7964 H   0  0  0  0  0  0  0  0  0  0  0  0
   -2.9218   23.2186  -31.4479 H   0  0  0  0  0  0  0  0  0  0  0  0
   -5.5784   23.7171  -28.8240 H   0  0  0  0  0  0  0  0  0  0  0  0
   -8.0099   23.5673  -29.3922 H   0  0  0  0  0  0  0  0  0  0  0  0
   -8.7010   23.2268  -31.7707 H   0  0  0  0  0  0  0  0  0  0  0  0
   -6.9950   23.0630  -33.4780 H   0  0  0  0  0  0  0  0  0  0  0  0
   -4.6238   23.1935  -33.0158 H   0  0  0  0  0  0  0  0  0  0  0  0
  1  2  2  0
  2  3  1  0
  3  4  1  0
  4  5  1  0
  5  6  1  0
  6  7  2  0
  7  8  1  0
  8  9  2  0
  9 10  1  0
 10 11  2  0
  5 12  1  0
 12  2  1  0
 11  6  1  0
  3 13  1  0
  3 14  1  0
  4 15  1  0
  4 16  1  0
  5 17  1  6
  7 18  1  0
  8 19  1  0
  9 20  1  0
 10 21  1  0
 11 22  1  0
M  CHG  2  10   1  12  -1
M  END
>  <UniqueID>  (28) 
27

>  <SMILES>  (28) 
O=C1CC[C@@H](c2ccc[nH+]c2)[N-]1

>  <Energy>  (28) 
29.45606585507466

>  <Genealogy>  (28) 
O=C1CCC(c2ccc[nH+]c2)[N-]1 (protonated)
O=C1CC[C@@H](c2ccc[nH+]c2)[N-]1 (chirality)
O=C1CC[C@@H](c2ccc[nH+]c2)[N-]1 (3D coordinates assigned)
O=C1CC[C@@H](c2ccc[nH+]c2)[N-]1 (nonaromatic ring conformer: 29.45606585507466 kcal/mol)

>  <smiles>  (28) 
O=C1CCC(c2cccnc2)N1

>  <score_type>  (28) 
oracle

>  <origin>  (28) 
adg

>  <m_score__min__energy>  (28) 
-6.3799999999999999

>  <m_primary>  (28) 
energy

$$$$
28:0
     RDKit          3D

 39 41  0  0  0  0  0  0  0  0999 V2000
   -9.0790   18.6230  -31.6460 C   0  0  0  0  0  0  0  0  0  0  0  0
   -9.5890   19.5720  -32.7190 C   0  0  0  0  0  0  0  0  0  0  0  0
   -9.4220   20.9170  -32.2830 O   0  0  0  0  0  0  0  0  0  0  0  0
   -8.1700   21.4700  -32.0000 C   0  0  0  0  0  0  0  0  0  0  0  0
   -7.0230   20.8600  -32.5080 C   0  0  0  0  0  0  0  0  0  0  0  0
   -5.7550   21.3940  -32.2310 C   0  0  0  0  0  0  0  0  0  0  0  0
   -4.5410   20.7150  -32.8280 C   0  0  0  0  0  0  0  0  0  0  0  0
   -4.8580   19.3410  -33.2110 N   0  0  0  0  0  0  0  0  0  0  0  0
   -5.3720   18.9250  -34.3850 C   0  0  0  0  0  0  0  0  0  0  0  0
   -5.5620   17.5610  -34.3110 C   0  0  0  0  0  0  0  0  0  0  0  0
   -5.1750   17.1380  -33.0930 N   0  0  0  0  0  0  0  0  0  0  0  0
   -4.7560   18.2400  -32.4410 C   0  0  0  0  0  0  0  0  0  0  0  0
   -5.6630   22.5730  -31.4460 C   0  0  0  0  0  0  0  0  0  0  0  0
   -4.4320   23.1900  -31.1360 C   0  0  0  0  0  0  0  0  0  0  0  0
   -4.3860   24.3540  -30.3580 C   0  0  0  0  0  0  0  0  0  0  0  0
   -3.1320   24.9200  -30.0850 O   0  0  0  0  0  0  0  0  0  0  0  0
   -2.2550   24.4770  -29.0540 C   0  0  0  0  0  0  0  0  0  0  0  0
   -5.5850   24.9120  -29.8780 C   0  0  0  0  0  0  0  0  0  0  0  0
   -6.8090   24.3140  -30.1770 C   0  0  0  0  0  0  0  0  0  0  0  0
   -6.8570   23.1540  -30.9550 C   0  0  0  0  0  0  0  0  0  0  0  0
   -8.0600   22.5930  -31.2420 N   0  0  0  0  0  0  0  0  0  0  0  0
   -9.3025   19.0388  -30.6524 H   0  0  0  0  0  0  0  0  0  0  0  0
   -9.5739   17.6467  -31.7547 H   0  0  0  0  0  0  0  0  0  0  0  0
   -7.9917   18.4970  -31.7547 H   0  0  0  0  0  0  0  0  0  0  0  0
   -9.0207   19.4146  -33.6476 H   0  0  0  0  0  0  0  0  0  0  0  0
  -10.6557   19.3767  -32.9036 H   0  0  0  0  0  0  0  0  0  0  0  0
   -7.1127   19.9562  -33.1286 H   0  0  0  0  0  0  0  0  0  0  0  0
   -4.2159   21.2729  -33.7185 H   0  0  0  0  0  0  0  0  0  0  0  0
   -3.7381   20.6979  -32.0763 H   0  0  0  0  0  0  0  0  0  0  0  0
   -5.6004   19.5625  -35.2518 H   0  0  0  0  0  0  0  0  0  0  0  0
   -5.9630   16.9246  -35.1136 H   0  0  0  0  0  0  0  0  0  0  0  0
   -5.2030   16.1620  -32.7270 H   0  0  0  0  0  0  0  0  0  0  0  0
   -4.3776   18.2408  -31.4081 H   0  0  0  0  0  0  0  0  0  0  0  0
   -3.4957   22.7507  -31.5106 H   0  0  0  0  0  0  0  0  0  0  0  0
   -2.6993   24.7014  -28.0731 H   0  0  0  0  0  0  0  0  0  0  0  0
   -2.0991   23.3920  -29.1463 H   0  0  0  0  0  0  0  0  0  0  0  0
   -1.2892   24.9954  -29.1463 H   0  0  0  0  0  0  0  0  0  0  0  0
   -5.5569   25.8242  -29.2640 H   0  0  0  0  0  0  0  0  0  0  0  0
   -7.7416   24.7578  -29.7984 H   0  0  0  0  0  0  0  0  0  0  0  0
  1  2  1  0
  2  3  1  0
  3  4  1  0
  4  5  2  0
  5  6  1  0
  6  7  1  0
  7  8  1  0
  8  9  1  0
  9 10  2  0
 10 11  1  0
 11 12  2  0
  6 13  2  0
 13 14  1  0
 14 15  2  0
 15 16  1  0
 16 17  1  0
 15 18  1  0
 18 19  2  0
 19 20  1  0
 20 21  2  0
 21  4  1  0
 12  8  1  0
 20 13  1  0
  1 22  1  0
  1 23  1  0
  1 24  1  0
  2 25  1  0
  2 26  1  0
  5 27  1  0
  7 28  1  0
  7 29  1  0
  9 30  1  0
 10 31  1  0
 11 32  1  0
 12 33  1  0
 14 34  1  0
 17 35  1  0
 17 36  1  0
 17 37  1  0
 18 38  1  0
 19 39  1  0
M  CHG  1  11   1
M  END
>  <UniqueID>  (29) 
28

>  <SMILES>  (29) 
CCOc1cc(Cn2cc[nH+]c2)c2cc(OC)ccc2n1

>  <Energy>  (29) 
69.47594361861783

>  <Genealogy>  (29) 
CCOc1cc(Cn2cc[nH+]c2)c2cc(OC)ccc2n1 (protonated)
CCOc1cc(Cn2cc[nH+]c2)c2cc(OC)ccc2n1 (3D coordinates assigned)
CCOc1cc(Cn2cc[nH+]c2)c2cc(OC)ccc2n1 (optimized conformer: 69.47594361861783 kcal/mol)

>  <smiles>  (29) 
CCOc1cc(Cn2ccnc2)c2cc(OC)ccc2n1

>  <score_type>  (29) 
oracle

>  <origin>  (29) 
adg

>  <m_score__min__energy>  (29) 
-6.6699999999999999

>  <m_primary>  (29) 
energy

$$$$
29:0
     RDKit          3D

 34 35  0  0  0  0  0  0  0  0999 V2000
   -6.4530   15.7150  -33.9830 C   0  0  0  0  0  0  0  0  0  0  0  0
   -7.2400   16.7960  -33.5600 O   0  0  0  0  0  0  0  0  0  0  0  0
   -6.8180   18.0730  -33.3090 C   0  0  0  0  0  0  0  0  0  0  0  0
   -5.5910   18.5860  -33.6720 C   0  0  0  0  0  0  0  0  0  0  0  0
   -5.2250   19.8880  -33.3880 C   0  0  0  0  0  0  0  0  0  0  0  0
   -3.9860   20.4090  -33.7530 O   0  0  0  0  0  0  0  0  0  0  0  0
   -3.0160   20.5480  -32.7540 C   0  0  0  0  0  0  0  0  0  0  0  0
   -6.1160   20.7080  -32.7170 C   0  0  0  0  0  0  0  0  0  0  0  0
   -5.8170   22.0610  -32.3880 N   0  0  0  0  0  0  0  0  0  0  0  0
   -6.1320   22.5530  -31.1000 C   0  0  0  0  0  0  0  0  0  0  0  0
   -6.6800   21.7790  -30.2500 O   0  0  0  0  0  0  0  0  0  0  0  0
   -5.8150   23.9470  -30.7830 C   0  0  0  0  0  0  0  0  0  0  0  0
   -6.6120   24.8840  -30.1590 C   0  0  0  0  0  0  0  0  0  0  0  0
   -5.8570   26.0490  -30.0940 C   0  0  0  0  0  0  0  0  0  0  0  0
   -4.6540   25.8040  -30.6630 N   0  0  0  0  0  0  0  0  0  0  0  0
   -4.6390   24.5580  -31.0690 N   0  0  0  0  0  0  0  0  0  0  0  0
   -7.3420   20.2230  -32.3460 C   0  0  0  0  0  0  0  0  0  0  0  0
   -7.6970   18.9160  -32.6370 C   0  0  0  0  0  0  0  0  0  0  0  0
   -9.0490   18.4090  -32.2170 C   0  0  0  0  0  0  0  0  0  0  0  0
   -6.0631   15.1795  -33.1048 H   0  0  0  0  0  0  0  0  0  0  0  0
   -7.0654   15.0302  -34.5880 H   0  0  0  0  0  0  0  0  0  0  0  0
   -5.6132   16.0874  -34.5880 H   0  0  0  0  0  0  0  0  0  0  0  0
   -4.8800   17.9378  -34.2052 H   0  0  0  0  0  0  0  0  0  0  0  0
   -3.4947   20.4794  -31.7660 H   0  0  0  0  0  0  0  0  0  0  0  0
   -2.2680   19.7479  -32.8554 H   0  0  0  0  0  0  0  0  0  0  0  0
   -2.5228   21.5260  -32.8554 H   0  0  0  0  0  0  0  0  0  0  0  0
   -5.3670   22.6940  -33.0860 H   0  0  0  0  0  0  0  0  0  0  0  0
   -7.6373   24.7386  -29.7880 H   0  0  0  0  0  0  0  0  0  0  0  0
   -6.1811   27.0045  -29.6560 H   0  0  0  0  0  0  0  0  0  0  0  0
   -3.8670   26.4830  -30.7680 H   0  0  0  0  0  0  0  0  0  0  0  0
   -8.0494   20.8757  -31.8134 H   0  0  0  0  0  0  0  0  0  0  0  0
   -9.1074   18.3871  -31.1188 H   0  0  0  0  0  0  0  0  0  0  0  0
   -9.8296   19.0755  -32.6125 H   0  0  0  0  0  0  0  0  0  0  0  0
   -9.1989   17.3936  -32.6125 H   0  0  0  0  0  0  0  0  0  0  0  0
  1  2  1  0
  2  3  1  0
  3  4  2  0
  4  5  1  0
  5  6  1  0
  6  7  1  0
  5  8  2  0
  8  9  1  0
  9 10  1  0
 10 11  2  0
 10 12  1  0
 12 13  1  0
 13 14  2  0
 14 15  1  0
 15 16  1  0
  8 17  1  0
 17 18  2  0
 18 19  1  0
 18  3  1  0
 16 12  2  0
  1 20  1  0
  1 21  1  0
  1 22  1  0
  4 23  1  0
  7 24  1  0
  7 25  1  0
  7 26  1  0
  9 27  1  0
 13 28  1  0
 14 29  1  0
 15 30  1  0
 17 31  1  0
 19 32  1  0
 19 33  1  0
 19 34  1  0
M  END
>  <smiles>  (30) 
COc1cc(OC)c(NC(=O)c2cc[nH]n2)cc1C

>  <score_type>  (30) 
oracle

>  <origin>  (30) 
adg

>  <m_score__min__energy>  (30) 
-7.1200000000000001

>  <m_primary>  (30) 
energy

$$$$
30:0
     RDKit          3D

 36 38  0  0  0  0  0  0  0  0999 V2000
   -5.7030   25.6150  -30.4210 C   0  0  0  0  0  0  0  0  0  0  0  0
   -5.2680   24.1860  -30.4760 C   0  0  0  0  0  0  0  0  0  0  0  0
   -5.7920   23.2870  -31.3320 N   0  0  0  0  0  0  0  0  0  0  0  0
   -5.1940   22.1250  -31.1210 N   0  0  0  0  0  0  0  0  0  0  0  0
   -5.5180   20.9390  -31.8680 C   0  0  0  0  0  0  0  0  0  0  0  0
   -6.7810   20.3470  -31.7230 C   0  0  0  0  0  0  0  0  0  0  0  0
   -7.1030   19.1820  -32.4280 C   0  0  0  0  0  0  0  0  0  0  0  0
   -6.1570   18.5920  -33.2750 C   0  0  0  0  0  0  0  0  0  0  0  0
   -6.4860   17.3920  -34.0000 C   0  0  0  0  0  0  0  0  0  0  0  0
   -6.7510   16.4280  -34.5820 N   0  0  0  0  0  0  0  0  0  0  0  0
   -4.8870   19.1660  -33.4080 C   0  0  0  0  0  0  0  0  0  0  0  0
   -4.5660   20.3300  -32.7030 C   0  0  0  0  0  0  0  0  0  0  0  0
   -4.2610   22.2650  -30.1480 C   0  0  0  0  0  0  0  0  0  0  0  0
   -3.2980   21.2010  -29.7040 C   0  0  0  0  0  0  0  0  0  0  0  0
   -4.2870   23.5790  -29.7040 C   0  0  0  0  0  0  0  0  0  0  0  0
   -3.4500   24.1960  -28.6530 C   0  0  0  0  0  0  0  0  0  0  0  0
   -2.1400   24.6190  -28.9400 C   0  0  0  0  0  0  0  0  0  0  0  0
   -1.3520   25.2020  -27.9440 C   0  0  0  0  0  0  0  0  0  0  0  0
   -1.8630   25.3680  -26.6530 C   0  0  0  0  0  0  0  0  0  0  0  0
   -3.1630   24.9480  -26.3580 C   0  0  0  0  0  0  0  0  0  0  0  0
   -3.9540   24.3640  -27.3530 C   0  0  0  0  0  0  0  0  0  0  0  0
   -5.7986   25.9290  -29.3711 H   0  0  0  0  0  0  0  0  0  0  0  0
   -4.9560   26.2453  -30.9257 H   0  0  0  0  0  0  0  0  0  0  0  0
   -6.6745   25.7222  -30.9257 H   0  0  0  0  0  0  0  0  0  0  0  0
   -7.5235   20.8015  -31.0506 H   0  0  0  0  0  0  0  0  0  0  0  0
   -8.0995   18.7296  -32.3168 H   0  0  0  0  0  0  0  0  0  0  0  0
   -4.1404   18.7005  -34.0683 H   0  0  0  0  0  0  0  0  0  0  0  0
   -3.5633   20.7712  -32.8025 H   0  0  0  0  0  0  0  0  0  0  0  0
   -3.2686   21.1686  -28.6049 H   0  0  0  0  0  0  0  0  0  0  0  0
   -3.6260   20.2250  -30.0910 H   0  0  0  0  0  0  0  0  0  0  0  0
   -2.2942   21.4303  -30.0910 H   0  0  0  0  0  0  0  0  0  0  0  0
   -1.7334   24.4903  -29.9539 H   0  0  0  0  0  0  0  0  0  0  0  0
   -0.3282   25.5308  -28.1759 H   0  0  0  0  0  0  0  0  0  0  0  0
   -1.2424   25.8287  -25.8703 H   0  0  0  0  0  0  0  0  0  0  0  0
   -3.5646   25.0768  -25.3421 H   0  0  0  0  0  0  0  0  0  0  0  0
   -4.9764   24.0346  -27.1159 H   0  0  0  0  0  0  0  0  0  0  0  0
  1  2  1  0
  2  3  2  0
  3  4  1  0
  4  5  1  0
  5  6  2  0
  6  7  1  0
  7  8  2  0
  8  9  1  0
  9 10  3  0
  8 11  1  0
 11 12  2  0
  4 13  1  0
 13 14  1  0
 13 15  2  0
 15 16  1  0
 16 17  2  0
 17 18  1  0
 18 19  2  0
 19 20  1  0
 20 21  2  0
 15  2  1  0
 21 16  1  0
 12  5  1  0
  1 22  1  0
  1 23  1  0
  1 24  1  0
  6 25  1  0
  7 26  1  0
 11 27  1  0
 12 28  1  0
 14 29  1  0
 14 30  1  0
 14 31  1  0
 17 32  1  0
 18 33  1  0
 19 34  1  0
 20 35  1  0
 21 36  1  0
M  END
>  <UniqueID>  (31) 
29

>  <SMILES>  (31) 
Cc1nn(-c2ccc(C#N)cc2)c(C)c1-c1ccccc1

>  <Energy>  (31) 
76.67763193299811

>  <Genealogy>  (31) 
Cc1nn(-c2ccc(C#N)cc2)c(C)c1-c1ccccc1 (3D coordinates assigned)
Cc1nn(-c2ccc(C#N)cc2)c(C)c1-c1ccccc1 (optimized conformer: 76.67763193299811 kcal/mol)

>  <smiles>  (31) 
Cc1nn(-c2ccc(C#N)cc2)c(C)c1-c1ccccc1

>  <score_type>  (31) 
oracle

>  <origin>  (31) 
adg

>  <m_score__min__energy>  (31) 
-7.4800000000000004

>  <m_primary>  (31) 
energy

$$$$
31:0
     RDKit          3D

 33 34  0  0  0  0  0  0  0  0999 V2000
   -9.0900   18.9330  -32.3080 C   0  0  0  0  0  0  0  0  0  0  0  0
   -7.9570   19.9090  -32.3150 C   0  0  0  0  0  0  0  0  0  0  0  0
   -6.7610   19.6100  -32.9750 C   0  0  0  0  0  0  0  0  0  0  0  0
   -5.7160   20.5370  -32.9160 C   0  0  0  0  0  0  0  0  0  0  0  0
   -4.6300   20.3040  -33.5050 O   0  0  0  0  0  0  0  0  0  0  0  0
   -5.8740   21.6890  -32.2150 N   0  0  0  0  0  0  0  0  0  0  0  0
   -7.0380   21.9580  -31.5670 C   0  0  0  0  0  0  0  0  0  0  0  0
   -7.2100   23.4670  -30.6180 S   0  0  0  0  0  0  0  0  0  0  0  0
   -5.9090   24.3690  -31.5290 C   0  0  0  0  0  0  0  0  0  0  0  0
   -5.2260   25.3550  -30.6360 C   0  0  0  0  0  0  0  0  0  0  0  0
   -5.9030   26.2500  -30.0620 O   0  0  0  0  0  0  0  0  0  0  0  0
   -3.8020   25.2990  -30.4780 N   0  0  0  0  0  0  0  0  0  0  0  0
   -3.0680   24.3430  -29.6410 C   0  0  0  0  0  0  0  0  0  0  0  0
   -3.7110   24.1730  -28.2600 C   0  0  0  0  0  0  0  0  0  0  0  0
   -4.1300   22.7140  -28.1560 C   0  0  0  0  0  0  0  0  0  0  0  0
   -3.2730   21.9650  -29.1610 C   0  0  0  0  0  0  0  0  0  0  0  0
   -2.9920   22.9540  -30.2810 C   0  0  0  0  0  0  0  0  0  0  0  0
   -8.0660   21.0720  -31.6210 N   0  0  0  0  0  0  0  0  0  0  0  0
   -9.3641   18.6969  -31.2692 H   0  0  0  0  0  0  0  0  0  0  0  0
   -9.9558   19.3726  -32.8248 H   0  0  0  0  0  0  0  0  0  0  0  0
   -8.7835   18.0116  -32.8248 H   0  0  0  0  0  0  0  0  0  0  0  0
   -6.6449   18.6664  -33.5283 H   0  0  0  0  0  0  0  0  0  0  0  0
   -5.1675   23.6495  -31.9066 H   0  0  0  0  0  0  0  0  0  0  0  0
   -6.3740   24.9117  -32.3652 H   0  0  0  0  0  0  0  0  0  0  0  0
   -2.0586   24.7682  -29.5396 H   0  0  0  0  0  0  0  0  0  0  0  0
   -2.9854   24.4174  -27.4702 H   0  0  0  0  0  0  0  0  0  0  0  0
   -4.5735   24.8446  -28.1370 H   0  0  0  0  0  0  0  0  0  0  0  0
   -3.9482   22.3348  -27.1396 H   0  0  0  0  0  0  0  0  0  0  0  0
   -5.2027   22.5850  -28.3628 H   0  0  0  0  0  0  0  0  0  0  0  0
   -2.3325   21.6372  -28.6940 H   0  0  0  0  0  0  0  0  0  0  0  0
   -3.7800   21.0629  -29.5340 H   0  0  0  0  0  0  0  0  0  0  0  0
   -1.9908   22.7809  -30.7025 H   0  0  0  0  0  0  0  0  0  0  0  0
   -3.7134   22.8481  -31.1046 H   0  0  0  0  0  0  0  0  0  0  0  0
  1  2  1  0
  2  3  2  0
  3  4  1  0
  4  5  2  0
  4  6  1  0
  6  7  1  0
  7  8  1  0
  8  9  1  0
  9 10  1  0
 10 11  2  0
 10 12  1  0
 12 13  1  0
 13 14  1  0
 14 15  1  0
 15 16  1  0
 16 17  1  0
  7 18  2  0
 18  2  1  0
 17 13  1  0
  1 19  1  0
  1 20  1  0
  1 21  1  0
  3 22  1  0
  9 23  1  0
  9 24  1  0
 13 25  1  0
 14 26  1  0
 14 27  1  0
 15 28  1  0
 15 29  1  0
 16 30  1  0
 16 31  1  0
 17 32  1  0
 17 33  1  0
M  CHG  2   6  -1  12  -1
M  END
>  <UniqueID>  (32) 
30

>  <SMILES>  (32) 
Cc1cc(=O)[n-]c(SCC(=O)[N-]C2CCCC2)n1

>  <Energy>  (32) 
25.377127038454965

>  <Genealogy>  (32) 
Cc1cc(=O)[n-]c(SCC(=O)[N-]C2CCCC2)n1 (protonated)
Cc1cc(=O)[n-]c(SCC(=O)[N-]C2CCCC2)n1 (3D coordinates assigned)
Cc1cc(=O)[n-]c(SCC(=O)[N-]C2CCCC2)n1 (nonaromatic ring conformer: 25.377127038454965 kcal/mol)

>  <smiles>  (32) 
Cc1cc(=O)[nH]c(SCC(=O)NC2CCCC2)n1

>  <score_type>  (32) 
oracle

>  <origin>  (32) 
adg

>  <m_score__min__energy>  (32) 
-8.5500000000000007

>  <m_primary>  (32) 
energy

$$$$
32:0
     RDKit          3D

 36 38  0  0  0  0  0  0  0  0999 V2000
   -9.6110   19.2880  -32.7260 C   0  0  0  0  0  0  0  0  0  0  0  0
   -9.3980   20.6760  -32.4900 O   0  0  0  0  0  0  0  0  0  0  0  0
   -8.1940   21.2230  -32.0220 C   0  0  0  0  0  0  0  0  0  0  0  0
   -6.9540   20.9570  -32.6330 C   0  0  0  0  0  0  0  0  0  0  0  0
   -5.7820   21.5290  -32.1300 C   0  0  0  0  0  0  0  0  0  0  0  0
   -5.8260   22.3780  -31.0110 C   0  0  0  0  0  0  0  0  0  0  0  0
   -4.5830   22.9790  -30.4660 C   0  0  0  0  0  0  0  0  0  0  0  0
   -4.4570   24.3740  -30.3820 C   0  0  0  0  0  0  0  0  0  0  0  0
   -3.3560   24.9310  -29.8930 O   0  0  0  0  0  0  0  0  0  0  0  0
   -2.3170   24.2230  -29.4590 C   0  0  0  0  0  0  0  0  0  0  0  0
   -1.1910   24.8920  -28.9530 C   0  0  0  0  0  0  0  0  0  0  0  0
   -1.2340   26.2990  -28.9350 O   0  0  0  0  0  0  0  0  0  0  0  0
   -0.8480   27.1410  -27.8540 C   0  0  0  0  0  0  0  0  0  0  0  0
   -0.0850   24.1330  -28.4940 C   0  0  0  0  0  0  0  0  0  0  0  0
    1.0560   24.7510  -27.9830 O   0  0  0  0  0  0  0  0  0  0  0  0
   -0.1290   22.7330  -28.5510 C   0  0  0  0  0  0  0  0  0  0  0  0
   -1.2510   22.0750  -29.0550 C   0  0  0  0  0  0  0  0  0  0  0  0
   -2.3540   22.8110  -29.5110 C   0  0  0  0  0  0  0  0  0  0  0  0
   -3.5030   22.1880  -30.0290 C   0  0  0  0  0  0  0  0  0  0  0  0
   -3.5600   20.9300  -30.1200 O   0  0  0  0  0  0  0  0  0  0  0  0
   -7.0650   22.6350  -30.3980 C   0  0  0  0  0  0  0  0  0  0  0  0
   -8.2360   22.0640  -30.9040 C   0  0  0  0  0  0  0  0  0  0  0  0
   -9.6919   18.7607  -31.7640 H   0  0  0  0  0  0  0  0  0  0  0  0
  -10.5406   19.1518  -33.2981 H   0  0  0  0  0  0  0  0  0  0  0  0
   -8.7651   18.8793  -33.2981 H   0  0  0  0  0  0  0  0  0  0  0  0
   -6.9071   20.2956  -33.5107 H   0  0  0  0  0  0  0  0  0  0  0  0
   -4.8180   21.3130  -32.6137 H   0  0  0  0  0  0  0  0  0  0  0  0
   -5.2822   25.0148  -30.7262 H   0  0  0  0  0  0  0  0  0  0  0  0
   -1.0768   26.6420  -26.9008 H   0  0  0  0  0  0  0  0  0  0  0  0
    0.2320   27.3415  -27.9130 H   0  0  0  0  0  0  0  0  0  0  0  0
   -1.4009   28.0901  -27.9130 H   0  0  0  0  0  0  0  0  0  0  0  0
    1.2910   25.7090  -28.2130 H   0  0  0  0  0  0  0  0  0  0  0  0
    0.7308   22.1468  -28.1943 H   0  0  0  0  0  0  0  0  0  0  0  0
   -1.2706   20.9759  -29.0948 H   0  0  0  0  0  0  0  0  0  0  0  0
   -7.1130   23.2893  -29.5150 H   0  0  0  0  0  0  0  0  0  0  0  0
   -9.1999   22.2776  -30.4189 H   0  0  0  0  0  0  0  0  0  0  0  0
  1  2  1  0
  2  3  1  0
  3  4  2  0
  4  5  1  0
  5  6  2  0
  6  7  1  0
  7  8  2  0
  8  9  1  0
  9 10  1  0
 10 11  2  0
 11 12  1  0
 12 13  1  0
 11 14  1  0
 14 15  1  0
 14 16  2  0
 16 17  1  0
 17 18  2  0
 18 19  1  0
 19 20  2  0
  6 21  1  0
 21 22  2  0
 22  3  1  0
 19  7  1  0
 18 10  1  0
  1 23  1  0
  1 24  1  0
  1 25  1  0
  4 26  1  0
  5 27  1  0
  8 28  1  0
 13 29  1  0
 13 30  1  0
 13 31  1  0
 15 32  1  0
 16 33  1  0
 17 34  1  0
 21 35  1  0
 22 36  1  0
M  END
>  <UniqueID>  (33) 
31

>  <SMILES>  (33) 
COc1ccc(-c2coc3c(OC)c(O)ccc3c2=O)cc1

>  <Energy>  (33) 
52.2322775443911

>  <Genealogy>  (33) 
COc1ccc(-c2coc3c(OC)c(O)ccc3c2=O)cc1 (3D coordinates assigned)
COc1ccc(-c2coc3c(OC)c(O)ccc3c2=O)cc1 (optimized conformer: 52.2322775443911 kcal/mol)

>  <smiles>  (33) 
COc1ccc(-c2coc3c(OC)c(O)ccc3c2=O)cc1

>  <score_type>  (33) 
oracle

>  <origin>  (33) 
adg

>  <m_score__min__energy>  (33) 
-7.75

>  <m_primary>  (33) 
energy

$$$$
33:0
     RDKit          3D

 55 58  0  0  0  0  0  0  0  0999 V2000
   -0.2940   26.9840  -25.8380 C   0  0  0  0  0  0  0  0  0  0  0  0
   -1.2050   26.1900  -26.7250 C   0  0  0  0  0  0  0  0  0  0  0  0
   -2.2410   25.4190  -26.1880 C   0  0  0  0  0  0  0  0  0  0  0  0
   -3.0300   24.6770  -27.0070 N   0  0  0  0  0  0  0  0  0  0  0  0
   -2.8310   24.6560  -28.3530 C   0  0  0  0  0  0  0  0  0  0  0  0
   -3.6830   23.8590  -29.2010 N   0  0  0  0  0  0  0  0  0  0  0  0
   -5.1310   24.1090  -29.2200 C   0  0  0  0  0  0  0  0  0  0  0  0
   -5.8920   22.9100  -29.8040 C   0  0  0  0  0  0  0  0  0  0  0  0
   -5.4050   22.4960  -31.2350 C   0  0  0  0  0  0  0  0  0  0  0  0
   -3.8530   22.7100  -31.3620 C   0  0  0  0  0  0  0  0  0  0  0  0
   -3.1300   22.7670  -30.0130 C   0  0  0  0  0  0  0  0  0  0  0  0
   -6.1400   23.3960  -32.2630 C   0  0  0  0  0  0  0  0  0  0  0  0
   -7.3940   23.8000  -31.7520 O   0  0  0  0  0  0  0  0  0  0  0  0
   -8.4040   22.8620  -32.0590 C   0  0  0  0  0  0  0  0  0  0  0  0
   -8.2300   21.5170  -31.3300 C   0  0  0  0  0  0  0  0  0  0  0  0
   -7.1580   20.6720  -31.8930 N   0  0  0  0  0  0  0  0  0  0  0  0
   -7.3080   20.2710  -33.3050 C   0  0  0  0  0  0  0  0  0  0  0  0
   -6.5690   18.9950  -33.5700 C   0  0  0  0  0  0  0  0  0  0  0  0
   -5.7880   18.7000  -34.6710 C   0  0  0  0  0  0  0  0  0  0  0  0
   -5.2360   17.4860  -34.4850 N   0  0  0  0  0  0  0  0  0  0  0  0
   -5.6420   17.0090  -33.3190 N   0  0  0  0  0  0  0  0  0  0  0  0
   -5.1760   15.7580  -32.7350 C   0  0  0  0  0  0  0  0  0  0  0  0
   -6.4440   17.9110  -32.7210 C   0  0  0  0  0  0  0  0  0  0  0  0
   -5.7840   20.9810  -31.4250 C   0  0  0  0  0  0  0  0  0  0  0  0
   -1.8140   25.3860  -28.8880 N   0  0  0  0  0  0  0  0  0  0  0  0
   -1.0000   26.1420  -28.1060 C   0  0  0  0  0  0  0  0  0  0  0  0
   -0.5338   26.7750  -24.7850 H   0  0  0  0  0  0  0  0  0  0  0  0
    0.7503   26.7027  -26.0391 H   0  0  0  0  0  0  0  0  0  0  0  0
   -0.4300   28.0569  -26.0391 H   0  0  0  0  0  0  0  0  0  0  0  0
   -2.4167   25.4137  -25.1021 H   0  0  0  0  0  0  0  0  0  0  0  0
   -5.4780   24.2883  -28.1917 H   0  0  0  0  0  0  0  0  0  0  0  0
   -5.3253   24.9876  -29.8527 H   0  0  0  0  0  0  0  0  0  0  0  0
   -5.7592   22.0514  -29.1293 H   0  0  0  0  0  0  0  0  0  0  0  0
   -6.9463   23.2100  -29.8957 H   0  0  0  0  0  0  0  0  0  0  0  0
   -3.4338   21.8777  -31.9465 H   0  0  0  0  0  0  0  0  0  0  0  0
   -3.7003   23.6832  -31.8514 H   0  0  0  0  0  0  0  0  0  0  0  0
   -3.2670   21.8123  -29.4840 H   0  0  0  0  0  0  0  0  0  0  0  0
   -2.0577   22.9452  -30.1815 H   0  0  0  0  0  0  0  0  0  0  0  0
   -5.5279   24.2865  -32.4688 H   0  0  0  0  0  0  0  0  0  0  0  0
   -6.2981   22.8253  -33.1900 H   0  0  0  0  0  0  0  0  0  0  0  0
   -9.3762   23.2902  -31.7737 H   0  0  0  0  0  0  0  0  0  0  0  0
   -8.3409   22.6576  -33.1380 H   0  0  0  0  0  0  0  0  0  0  0  0
   -7.9935   21.7215  -30.2754 H   0  0  0  0  0  0  0  0  0  0  0  0
   -9.1726   20.9625  -31.4484 H   0  0  0  0  0  0  0  0  0  0  0  0
   -8.3751   20.1242  -33.5281 H   0  0  0  0  0  0  0  0  0  0  0  0
   -6.8917   21.0625  -33.9455 H   0  0  0  0  0  0  0  0  0  0  0  0
   -5.6422   19.3463  -35.5491 H   0  0  0  0  0  0  0  0  0  0  0  0
   -4.5760   17.0030  -35.1350 H   0  0  0  0  0  0  0  0  0  0  0  0
   -5.2038   15.8327  -31.6379 H   0  0  0  0  0  0  0  0  0  0  0  0
   -5.8278   14.9349  -33.0631 H   0  0  0  0  0  0  0  0  0  0  0  0
   -4.1445   15.5620  -33.0631 H   0  0  0  0  0  0  0  0  0  0  0  0
   -6.9156   17.8042  -31.7330 H   0  0  0  0  0  0  0  0  0  0  0  0
   -5.6468   20.4827  -30.4540 H   0  0  0  0  0  0  0  0  0  0  0  0
   -5.1265   20.6268  -32.2326 H   0  0  0  0  0  0  0  0  0  0  0  0
   -0.1793   26.7165  -28.5604 H   0  0  0  0  0  0  0  0  0  0  0  0
  1  2  1  0
  2  3  2  0
  3  4  1  0
  4  5  2  0
  5  6  1  0
  6  7  1  0
  7  8  1  0
  8  9  1  0
  9 10  1  0
 10 11  1  0
  9 12  1  0
 12 13  1  0
 13 14  1  0
 14 15  1  0
 15 16  1  0
 16 17  1  0
 17 18  1  0
 18 19  1  0
 19 20  2  0
 20 21  1  0
 21 22  1  0
 21 23  1  0
 16 24  1  0
  5 25  1  0
 25 26  2  0
 26  2  1  0
 11  6  1  0
 23 18  2  0
 24  9  1  0
  1 27  1  0
  1 28  1  0
  1 29  1  0
  3 30  1  0
  7 31  1  0
  7 32  1  0
  8 33  1  0
  8 34  1  0
 10 35  1  0
 10 36  1  0
 11 37  1  0
 11 38  1  0
 12 39  1  0
 12 40  1  0
 14 41  1  0
 14 42  1  0
 15 43  1  0
 15 44  1  0
 17 45  1  0
 17 46  1  0
 19 47  1  0
 20 48  1  0
 22 49  1  0
 22 50  1  0
 22 51  1  0
 23 52  1  0
 24 53  1  0
 24 54  1  0
 26 55  1  0
M  CHG  1  20   1
M  END
>  <UniqueID>  (34) 
32

>  <SMILES>  (34) 
Cc1cnc(N2CCC3(CC2)COCCN(Cc2c[nH+]n(C)c2)C3)nc1

>  <Energy>  (34) 
111.14777448759172

>  <Genealogy>  (34) 
Cc1cnc(N2CCC3(CC2)COCCN(Cc2c[nH+]n(C)c2)C3)nc1 (protonated)
Cc1cnc(N2CCC3(CC2)COCCN(Cc2c[nH+]n(C)c2)C3)nc1 (3D coordinates assigned)
Cc1cnc(N2CCC3(CC2)COCCN(Cc2c[nH+]n(C)c2)C3)nc1 (nonaromatic ring conformer: 111.14777448759172 kcal/mol)

>  <smiles>  (34) 
Cc1cnc(N2CCC3(CC2)COCCN(Cc2cnn(C)c2)C3)nc1

>  <score_type>  (34) 
oracle

>  <origin>  (34) 
adg

>  <m_score__min__energy>  (34) 
-6.1799999999999997

>  <m_primary>  (34) 
energy

$$$$
34:0
     RDKit          3D

 23 24  0  0  0  0  0  0  0  0999 V2000
   -6.6100   24.9110  -29.6030 O   0  0  0  0  0  0  0  0  0  0  0  0
   -5.8620   23.9160  -29.7960 C   0  0  0  0  0  0  0  0  0  0  0  0
   -6.4010   22.7260  -30.5000 C   0  0  0  0  0  0  0  0  0  0  0  0
   -7.6990   22.2750  -30.1960 C   0  0  0  0  0  0  0  0  0  0  0  0
   -8.2420   21.1710  -30.8570 C   0  0  0  0  0  0  0  0  0  0  0  0
   -7.4990   20.5050  -31.8320 C   0  0  0  0  0  0  0  0  0  0  0  0
   -6.2110   20.9400  -32.1460 C   0  0  0  0  0  0  0  0  0  0  0  0
   -5.6540   22.0450  -31.4900 C   0  0  0  0  0  0  0  0  0  0  0  0
   -4.0020   22.4990  -31.8960 Cl  0  0  0  0  0  0  0  0  0  0  0  0
   -4.4700   23.9480  -29.2740 C   0  0  0  0  0  0  0  0  0  0  0  0
   -3.5170   24.8270  -29.8200 C   0  0  0  0  0  0  0  0  0  0  0  0
   -3.8660   25.7000  -30.8460 O   0  0  0  0  0  0  0  0  0  0  0  0
   -2.2460   24.8420  -29.3380 N   0  0  0  0  0  0  0  0  0  0  0  0
   -1.8730   24.0150  -28.3250 C   0  0  0  0  0  0  0  0  0  0  0  0
   -0.3410   24.0480  -27.7490 S   0  0  0  0  0  0  0  0  0  0  0  0
   -2.7700   23.1510  -27.7880 N   0  0  0  0  0  0  0  0  0  0  0  0
   -4.0490   23.0930  -28.2370 C   0  0  0  0  0  0  0  0  0  0  0  0
   -4.8400   22.2550  -27.7260 O   0  0  0  0  0  0  0  0  0  0  0  0
   -8.2916   22.7971  -29.4303 H   0  0  0  0  0  0  0  0  0  0  0  0
   -9.2566   20.8262  -30.6086 H   0  0  0  0  0  0  0  0  0  0  0  0
   -7.9286   19.6368  -32.3533 H   0  0  0  0  0  0  0  0  0  0  0  0
   -5.6285   20.4110  -32.9147 H   0  0  0  0  0  0  0  0  0  0  0  0
   -1.5540   25.5070  -29.7530 H   0  0  0  0  0  0  0  0  0  0  0  0
  1  2  2  0
  2  3  1  0
  3  4  2  0
  4  5  1  0
  5  6  2  0
  6  7  1  0
  7  8  2  0
  8  9  1  0
  2 10  1  0
 10 11  2  0
 11 12  1  0
 11 13  1  0
 13 14  1  0
 14 15  2  0
 14 16  1  0
 16 17  1  0
 17 18  2  0
  8  3  1  0
 17 10  1  0
  4 19  1  0
  5 20  1  0
  6 21  1  0
  7 22  1  0
 13 23  1  0
M  CHG  2  12  -1  16  -1
M  END
>  <UniqueID>  (35) 
33

>  <SMILES>  (35) 
O=C(c1ccccc1Cl)c1c([O-])[nH]c(=S)[n-]c1=O

>  <Energy>  (35) 
36.010141819387094

>  <Genealogy>  (35) 
O=C(c1ccccc1Cl)c1c([O-])[nH]c(=S)[n-]c1=O (protonated)
O=C(c1ccccc1Cl)c1c([O-])[nH]c(=S)[n-]c1=O (3D coordinates assigned)
O=C(c1ccccc1Cl)c1c([O-])[nH]c(=S)[n-]c1=O (optimized conformer: 36.010141819387094 kcal/mol)

>  <smiles>  (35) 
O=C(c1ccccc1Cl)c1c(O)[nH]c(=S)[nH]c1=O

>  <score_type>  (35) 
oracle

>  <origin>  (35) 
adg

>  <m_score__min__energy>  (35) 
-10.91

>  <m_primary>  (35) 
energy

$$$$
35:0
     RDKit          3D

 32 33  0  0  0  0  0  0  0  0999 V2000
  -10.3356   21.8062  -31.1013 H   0  0  0  0  0  0  0  0  0  0  0  0
   -9.3870   21.5150  -31.5760 C   0  0  0  0  0  0  0  0  0  0  0  0
   -9.3930   20.4110  -32.3430 C   0  0  0  0  0  0  0  0  0  0  0  0
  -10.3479   20.1217  -32.8061 H   0  0  0  0  0  0  0  0  0  0  0  0
   -8.2180   19.5540  -32.6140 C   0  0  0  0  0  0  0  0  0  0  0  0
   -8.0600   18.3040  -31.9900 C   0  0  0  0  0  0  0  0  0  0  0  0
   -8.8292   17.9394  -31.2933 H   0  0  0  0  0  0  0  0  0  0  0  0
   -6.9310   17.5220  -32.2500 C   0  0  0  0  0  0  0  0  0  0  0  0
   -6.8280   16.5355  -31.7743 H   0  0  0  0  0  0  0  0  0  0  0  0
   -5.9270   17.9880  -33.1150 C   0  0  0  0  0  0  0  0  0  0  0  0
   -4.7790   17.1680  -33.4100 N   0  0  0  0  0  0  0  0  0  0  0  0
   -3.9290   17.5520  -32.9340 H   0  0  0  0  0  0  0  0  0  0  0  0
   -4.9330   16.1940  -33.0600 H   0  0  0  0  0  0  0  0  0  0  0  0
   -4.5450   17.1290  -34.8550 C   0  0  0  0  0  0  0  0  0  0  0  0
   -3.4769   16.9510  -35.0488 H   0  0  0  0  0  0  0  0  0  0  0  0
   -5.1388   16.3174  -35.3008 H   0  0  0  0  0  0  0  0  0  0  0  0
   -4.8435   18.0893  -35.3008 H   0  0  0  0  0  0  0  0  0  0  0  0
   -6.0780   19.2470  -33.7220 C   0  0  0  0  0  0  0  0  0  0  0  0
   -5.3018   19.6195  -34.4067 H   0  0  0  0  0  0  0  0  0  0  0  0
   -7.2070   20.0290  -33.4620 C   0  0  0  0  0  0  0  0  0  0  0  0
   -7.3030   21.0222  -33.9250 H   0  0  0  0  0  0  0  0  0  0  0  0
   -8.2070   22.3700  -31.3190 C   0  0  0  0  0  0  0  0  0  0  0  0
   -7.6250   23.1480  -32.3360 C   0  0  0  0  0  0  0  0  0  0  0  0
   -8.0609   23.1431  -33.3459 H   0  0  0  0  0  0  0  0  0  0  0  0
   -6.4960   23.9270  -32.0700 C   0  0  0  0  0  0  0  0  0  0  0  0
   -6.0550   24.5450  -32.8660 H   0  0  0  0  0  0  0  0  0  0  0  0
   -5.9260   23.9220  -30.7930 C   0  0  0  0  0  0  0  0  0  0  0  0
   -4.5080   24.9000  -30.4590 Cl  0  0  0  0  0  0  0  0  0  0  0  0
   -6.4800   23.1270  -29.7850 C   0  0  0  0  0  0  0  0  0  0  0  0
   -6.0257   23.1143  -28.7833 H   0  0  0  0  0  0  0  0  0  0  0  0
   -7.6110   22.3480  -30.0490 C   0  0  0  0  0  0  0  0  0  0  0  0
   -8.0358   21.7144  -29.2565 H   0  0  0  0  0  0  0  0  0  0  0  0
  1  2  1  0
  2  3  2  0
  3  4  1  0
  3  5  1  0
  5  6  2  0
  6  7  1  0
  6  8  1  0
  8  9  1  0
  8 10  2  0
 10 11  1  0
 11 12  1  0
 11 13  1  0
 11 14  1  0
 14 15  1  0
 14 16  1  0
 14 17  1  0
 10 18  1  0
 18 19  1  0
 18 20  2  0
 20 21  1  0
  2 22  1  0
 22 23  2  0
 23 24  1  0
 23 25  1  0
 25 26  1  0
 25 27  2  0
 27 28  1  0
 27 29  1  0
 29 30  1  0
 29 31  2  0
 31 32  1  0
 20  5  1  0
 31 22  1  0
M  CHG  1  11   1
M  END
>  <UniqueID>  (36) 
34

>  <SMILES>  (36) 
C[NH2+]c1ccc(/C=C\c2ccc(Cl)cc2)cc1

>  <Energy>  (36) 
41.42844979401796

>  <Genealogy>  (36) 
C[NH2+]c1ccc(C=Cc2ccc(Cl)cc2)cc1 (protonated)
C[NH2+]c1ccc(/C=C\c2ccc(Cl)cc2)cc1 (cis-trans isomerization)
C[NH2+]c1ccc(/C=C\c2ccc(Cl)cc2)cc1 (3D coordinates assigned)
C[NH2+]c1ccc(/C=C\c2ccc(Cl)cc2)cc1 (optimized conformer: 41.42844979401796 kcal/mol)

>  <smiles>  (36) 
CNc1ccc(C=Cc2ccc(Cl)cc2)cc1

>  <score_type>  (36) 
oracle

>  <origin>  (36) 
adg

>  <m_score__min__energy>  (36) 
-6.8399999999999999

>  <m_primary>  (36) 
energy

$$$$
36:0
     RDKit          3D

 44 47  0  0  0  0  0  0  0  0999 V2000
   -6.1170   23.7510  -32.3910 O   0  0  0  0  0  0  0  0  0  0  0  0
   -4.9470   22.7560  -31.7080 S   0  0  0  0  0  0  0  0  0  0  0  0
   -5.6010   21.1520  -31.3000 C   0  0  0  0  0  0  0  0  0  0  0  0
   -7.0840   21.1190  -31.5560 C   0  0  0  0  0  0  0  0  0  0  0  0
   -7.9060   22.1010  -30.9770 C   0  0  0  0  0  0  0  0  0  0  0  0
   -9.2810   22.1130  -31.2300 C   0  0  0  0  0  0  0  0  0  0  0  0
   -9.8470   21.1530  -32.0700 C   0  0  0  0  0  0  0  0  0  0  0  0
   -9.0410   20.1810  -32.6640 C   0  0  0  0  0  0  0  0  0  0  0  0
   -7.6600   20.1570  -32.4160 C   0  0  0  0  0  0  0  0  0  0  0  0
   -6.8500   19.1630  -33.0560 N   0  0  0  0  0  0  0  0  0  0  0  0
   -6.9220   17.7730  -32.5980 C   0  0  0  0  0  0  0  0  0  0  0  0
   -6.7180   16.7830  -33.7670 C   0  0  0  0  0  0  0  0  0  0  0  0
   -6.0900   17.3850  -34.9570 N   0  0  0  0  0  0  0  0  0  0  0  0
   -5.0830   18.3870  -34.5920 C   0  0  0  0  0  0  0  0  0  0  0  0
   -5.7470   19.5940  -33.9200 C   0  0  0  0  0  0  0  0  0  0  0  0
   -4.2090   23.5150  -30.3160 C   0  0  0  0  0  0  0  0  0  0  0  0
   -4.7890   23.5090  -29.0880 N   0  0  0  0  0  0  0  0  0  0  0  0
   -3.8890   24.1710  -28.3460 C   0  0  0  0  0  0  0  0  0  0  0  0
   -3.9580   24.4680  -26.9860 C   0  0  0  0  0  0  0  0  0  0  0  0
   -2.8820   25.1770  -26.4180 C   0  0  0  0  0  0  0  0  0  0  0  0
   -1.7810   25.5640  -27.2150 C   0  0  0  0  0  0  0  0  0  0  0  0
   -1.7470   25.2450  -28.5860 C   0  0  0  0  0  0  0  0  0  0  0  0
   -2.8290   24.5440  -29.1130 C   0  0  0  0  0  0  0  0  0  0  0  0
   -3.0050   24.1380  -30.3780 N   0  0  0  0  0  0  0  0  0  0  0  0
   -6.0980   23.5370  -33.3570 H   0  0  0  0  0  0  0  0  0  0  0  0
   -5.1075   20.3891  -31.9201 H   0  0  0  0  0  0  0  0  0  0  0  0
   -5.4142   20.9465  -30.2356 H   0  0  0  0  0  0  0  0  0  0  0  0
   -7.4646   22.8652  -30.3204 H   0  0  0  0  0  0  0  0  0  0  0  0
   -9.9179   22.8806  -30.7661 H   0  0  0  0  0  0  0  0  0  0  0  0
  -10.9297   21.1625  -32.2641 H   0  0  0  0  0  0  0  0  0  0  0  0
   -9.4905   19.4298  -33.3300 H   0  0  0  0  0  0  0  0  0  0  0  0
   -6.1387   17.6034  -31.8445 H   0  0  0  0  0  0  0  0  0  0  0  0
   -7.9201   17.6011  -32.1689 H   0  0  0  0  0  0  0  0  0  0  0  0
   -6.0776   15.9602  -33.4163 H   0  0  0  0  0  0  0  0  0  0  0  0
   -7.7173   16.4397  -34.0726 H   0  0  0  0  0  0  0  0  0  0  0  0
   -6.8340   17.8470  -35.5350 H   0  0  0  0  0  0  0  0  0  0  0  0
   -4.3602   17.9370  -33.8956 H   0  0  0  0  0  0  0  0  0  0  0  0
   -4.5699   18.7250  -35.5044 H   0  0  0  0  0  0  0  0  0  0  0  0
   -4.9995   20.1262  -33.3133 H   0  0  0  0  0  0  0  0  0  0  0  0
   -6.1472   20.2579  -34.7004 H   0  0  0  0  0  0  0  0  0  0  0  0
   -4.8216   24.1598  -26.3784 H   0  0  0  0  0  0  0  0  0  0  0  0
   -2.8986   25.4310  -25.3479 H   0  0  0  0  0  0  0  0  0  0  0  0
   -0.9456   26.1177  -26.7616 H   0  0  0  0  0  0  0  0  0  0  0  0
   -0.8962   25.5389  -29.2183 H   0  0  0  0  0  0  0  0  0  0  0  0
  2  1  1  1
  2  3  1  0
  3  4  1  0
  4  5  2  0
  5  6  1  0
  6  7  2  0
  7  8  1  0
  8  9  2  0
  9 10  1  0
 10 11  1  0
 11 12  1  0
 12 13  1  0
 13 14  1  0
 14 15  1  0
  2 16  1  0
 16 17  2  0
 17 18  1  0
 18 19  2  0
 19 20  1  0
 20 21  2  0
 21 22  1  0
 22 23  2  0
 23 24  1  0
  9  4  1  0
 15 10  1  0
 24 16  1  0
 23 18  1  0
  1 25  1  0
  3 26  1  0
  3 27  1  0
  5 28  1  0
  6 29  1  0
  7 30  1  0
  8 31  1  0
 11 32  1  0
 11 33  1  0
 12 34  1  0
 12 35  1  0
 13 36  1  0
 14 37  1  0
 14 38  1  0
 15 39  1  0
 15 40  1  0
 19 41  1  0
 20 42  1  0
 21 43  1  0
 22 44  1  0
M  CHG  2   2   1  24  -1
M  END
>  <UniqueID>  (37) 
35

>  <SMILES>  (37) 
O[S@+](Cc1ccccc1N1CCNCC1)c1nc2ccccc2[n-]1

>  <Energy>  (37) 
85.24828072438333

>  <Genealogy>  (37) 
O[S+](Cc1ccccc1N1CCNCC1)c1nc2ccccc2[n-]1 (protonated)
O[S@+](Cc1ccccc1N1CCNCC1)c1nc2ccccc2[n-]1 (chirality)
O[S@+](Cc1ccccc1N1CCNCC1)c1nc2ccccc2[n-]1 (3D coordinates assigned)
O[S@+](Cc1ccccc1N1CCNCC1)c1nc2ccccc2[n-]1 (nonaromatic ring conformer: 85.24828072438333 kcal/mol)

>  <smiles>  (37) 
[O-][S+](Cc1ccccc1N1CCNCC1)c1nc2ccccc2[nH]1

>  <score_type>  (37) 
oracle

>  <origin>  (37) 
adg

>  <m_score__min__energy>  (37) 
-9.0199999999999996

>  <m_primary>  (37) 
energy

$$$$
37:0
     RDKit          3D

 54 58  0  0  0  0  0  0  0  0999 V2000
   -5.4780   25.6460  -30.4830 C   0  0  0  0  0  0  0  0  0  0  0  0
   -4.2390   25.0290  -30.8190 O   0  0  0  0  0  0  0  0  0  0  0  0
   -3.7630   23.8340  -30.2530 C   0  0  0  0  0  0  0  0  0  0  0  0
   -3.2830   23.7850  -28.9310 C   0  0  0  0  0  0  0  0  0  0  0  0
   -2.8130   22.5860  -28.3900 C   0  0  0  0  0  0  0  0  0  0  0  0
   -2.8000   21.4160  -29.1620 C   0  0  0  0  0  0  0  0  0  0  0  0
   -2.3280   20.1170  -28.5710 C   0  0  0  0  0  0  0  0  0  0  0  0
   -2.0130   20.2930  -26.7780 S   0  0  0  0  0  0  0  0  0  0  0  0
   -3.0890   18.9160  -26.2570 C   0  0  0  0  0  0  0  0  0  0  0  0
   -3.2700   21.4590  -30.4800 C   0  0  0  0  0  0  0  0  0  0  0  0
   -3.7690   22.6540  -31.0290 C   0  0  0  0  0  0  0  0  0  0  0  0
   -4.3100   22.6390  -32.4400 C   0  0  0  0  0  0  0  0  0  0  0  0
   -5.4140   21.6820  -32.5510 N   0  0  0  0  0  0  0  0  0  0  0  0
   -6.7330   21.8850  -32.2840 C   0  0  0  0  0  0  0  0  0  0  0  0
   -7.3570   23.0680  -31.8790 C   0  0  0  0  0  0  0  0  0  0  0  0
   -8.7440   23.0380  -31.6470 C   0  0  0  0  0  0  0  0  0  0  0  0
   -9.4790   21.8440  -31.8220 C   0  0  0  0  0  0  0  0  0  0  0  0
   -8.8360   20.6630  -32.2340 C   0  0  0  0  0  0  0  0  0  0  0  0
   -7.4640   20.7200  -32.4550 C   0  0  0  0  0  0  0  0  0  0  0  0
   -6.5570   19.7680  -32.8450 C   0  0  0  0  0  0  0  0  0  0  0  0
   -6.7230   18.4600  -33.1460 N   0  0  0  0  0  0  0  0  0  0  0  0
   -5.6250   17.7320  -33.5170 C   0  0  0  0  0  0  0  0  0  0  0  0
   -4.3360   18.3570  -33.5450 C   0  0  0  0  0  0  0  0  0  0  0  0
   -4.2210   19.6870  -33.2380 N   0  0  0  0  0  0  0  0  0  0  0  0
   -5.3340   20.3750  -32.8890 C   0  0  0  0  0  0  0  0  0  0  0  0
   -3.1130   17.6180  -34.0140 C   0  0  0  0  0  0  0  0  0  0  0  0
   -3.2850   16.0960  -33.9640 C   0  0  0  0  0  0  0  0  0  0  0  0
   -4.6180   15.6830  -34.5920 C   0  0  0  0  0  0  0  0  0  0  0  0
   -5.7900   16.2620  -33.7940 C   0  0  0  0  0  0  0  0  0  0  0  0
   -5.5780   25.6958  -29.3887 H   0  0  0  0  0  0  0  0  0  0  0  0
   -5.5061   26.6633  -30.9004 H   0  0  0  0  0  0  0  0  0  0  0  0
   -6.3068   25.0554  -30.9004 H   0  0  0  0  0  0  0  0  0  0  0  0
   -3.2779   24.6987  -28.3185 H   0  0  0  0  0  0  0  0  0  0  0  0
   -2.4508   22.5597  -27.3517 H   0  0  0  0  0  0  0  0  0  0  0  0
   -3.0994   19.3486  -28.7276 H   0  0  0  0  0  0  0  0  0  0  0  0
   -1.3899   19.8256  -29.0660 H   0  0  0  0  0  0  0  0  0  0  0  0
   -3.1229   18.8726  -25.1584 H   0  0  0  0  0  0  0  0  0  0  0  0
   -4.1043   19.0754  -26.6492 H   0  0  0  0  0  0  0  0  0  0  0  0
   -2.6889   17.9694  -26.6492 H   0  0  0  0  0  0  0  0  0  0  0  0
   -3.2488   20.5466  -31.0941 H   0  0  0  0  0  0  0  0  0  0  0  0
   -4.6735   23.6441  -32.7000 H   0  0  0  0  0  0  0  0  0  0  0  0
   -3.5060   22.3394  -33.1284 H   0  0  0  0  0  0  0  0  0  0  0  0
   -6.7805   23.9953  -31.7456 H   0  0  0  0  0  0  0  0  0  0  0  0
   -9.2620   23.9538  -31.3259 H   0  0  0  0  0  0  0  0  0  0  0  0
  -10.5629   21.8381  -31.6345 H   0  0  0  0  0  0  0  0  0  0  0  0
   -9.3978   19.7281  -32.3763 H   0  0  0  0  0  0  0  0  0  0  0  0
   -2.8996   17.9139  -35.0517 H   0  0  0  0  0  0  0  0  0  0  0  0
   -2.2866   17.8809  -33.3373 H   0  0  0  0  0  0  0  0  0  0  0  0
   -2.4619   15.6209  -34.5180 H   0  0  0  0  0  0  0  0  0  0  0  0
   -3.2732   15.7724  -32.9127 H   0  0  0  0  0  0  0  0  0  0  0  0
   -4.6631   16.0584  -35.6250 H   0  0  0  0  0  0  0  0  0  0  0  0
   -4.6900   14.5854  -34.5835 H   0  0  0  0  0  0  0  0  0  0  0  0
   -6.7163   16.1125  -34.3681 H   0  0  0  0  0  0  0  0  0  0  0  0
   -5.8269   15.7405  -32.8262 H   0  0  0  0  0  0  0  0  0  0  0  0
  1  2  1  0
  2  3  1  0
  3  4  2  0
  4  5  1  0
  5  6  2  0
  6  7  1  0
  7  8  1  0
  8  9  1  0
  6 10  1  0
 10 11  2  0
 11 12  1  0
 12 13  1  0
 13 14  1  0
 14 15  2  0
 15 16  1  0
 16 17  2  0
 17 18  1  0
 18 19  2  0
 19 20  1  0
 20 21  2  0
 21 22  1  0
 22 23  2  0
 23 24  1  0
 24 25  2  0
 23 26  1  0
 26 27  1  0
 27 28  1  0
 28 29  1  0
 11  3  1  0
 25 13  1  0
 19 14  1  0
 25 20  1  0
 29 22  1  0
  1 30  1  0
  1 31  1  0
  1 32  1  0
  4 33  1  0
  5 34  1  0
  7 35  1  0
  7 36  1  0
  9 37  1  0
  9 38  1  0
  9 39  1  0
 10 40  1  0
 12 41  1  0
 12 42  1  0
 15 43  1  0
 16 44  1  0
 17 45  1  0
 18 46  1  0
 26 47  1  0
 26 48  1  0
 27 49  1  0
 27 50  1  0
 28 51  1  0
 28 52  1  0
 29 53  1  0
 29 54  1  0
M  END
>  <UniqueID>  (38) 
36

>  <SMILES>  (38) 
COc1ccc(CSC)cc1Cn1c2ccccc2c2nc3c(nc21)CCCC3

>  <Energy>  (38) 
98.04608529745661

>  <Genealogy>  (38) 
COc1ccc(CSC)cc1Cn1c2ccccc2c2nc3c(nc21)CCCC3 (3D coordinates assigned)
COc1ccc(CSC)cc1Cn1c2ccccc2c2nc3c(nc21)CCCC3 (nonaromatic ring conformer: 98.04608529745661 kcal/mol)

>  <smiles>  (38) 
COc1ccc(CSC)cc1Cn1c2ccccc2c2nc3c(nc21)CCCC3

>  <score_type>  (38) 
oracle

>  <origin>  (38) 
adg

>  <m_score__min__energy>  (38) 
-10.24

>  <m_primary>  (38) 
energy

$$$$
38:0
     RDKit          3D

 57 62  0  0  0  0  0  0  0  0999 V2000
    0.6300   18.8880  -31.1130 C   0  0  0  0  0  0  0  0  0  0  0  0
    0.3530   19.0230  -29.6070 C   0  0  1  0  0  0  0  0  0  0  0  0
    1.5790   19.5350  -28.8600 C   0  0  0  0  0  0  0  0  0  0  0  0
    1.6800   20.3810  -27.8100 C   0  0  0  0  0  0  0  0  0  0  0  0
    0.6680   21.3290  -27.2870 C   0  0  0  0  0  0  0  0  0  0  0  0
   -0.6610   21.2180  -27.4670 C   0  0  0  0  0  0  0  0  0  0  0  0
   -1.1840   19.9050  -27.8280 N   0  0  1  0  0  0  0  0  0  0  0  0
   -2.5690   19.7030  -27.3300 C   0  0  0  0  0  0  0  0  0  0  0  0
   -3.4630   20.9480  -27.4360 C   0  0  0  0  0  0  0  0  0  0  0  0
   -2.8860   21.9860  -28.4140 C   0  0  2  0  0  0  0  0  0  0  0  0
   -2.7740   21.3430  -29.7500 N   0  0  0  0  0  0  0  0  0  0  0  0
   -3.7540   21.6060  -30.8070 C   0  0  0  0  0  0  0  0  0  0  0  0
   -4.5740   22.8180  -30.4670 C   0  0  0  0  0  0  0  0  0  0  0  0
   -3.9850   24.0920  -30.4300 C   0  0  0  0  0  0  0  0  0  0  0  0
   -4.7450   25.2080  -30.0640 C   0  0  0  0  0  0  0  0  0  0  0  0
   -6.0930   25.0580  -29.7270 C   0  0  0  0  0  0  0  0  0  0  0  0
   -6.6830   23.7900  -29.7530 C   0  0  0  0  0  0  0  0  0  0  0  0
   -5.9270   22.6730  -30.1190 C   0  0  0  0  0  0  0  0  0  0  0  0
   -1.4570   20.8910  -30.1110 C   0  0  0  0  0  0  0  0  0  0  0  0
   -0.5710   21.8950  -30.2320 C   0  0  0  0  0  0  0  0  0  0  0  0
   -0.7690   22.9510  -29.2220 C   0  0  0  0  0  0  0  0  0  0  0  0
   -0.4320   24.1440  -29.4520 O   0  0  0  0  0  0  0  0  0  0  0  0
   -1.4590   22.4880  -27.9260 C   0  0  2  0  0  0  0  0  0  0  0  0
   -1.5050   23.6200  -26.8580 C   0  0  0  0  0  0  0  0  0  0  0  0
   -2.3570   24.7400  -27.0280 C   0  0  0  0  0  0  0  0  0  0  0  0
   -2.3880   25.7830  -26.0980 C   0  0  0  0  0  0  0  0  0  0  0  0
   -1.5900   25.7300  -24.9600 C   0  0  0  0  0  0  0  0  0  0  0  0
   -0.7790   24.6220  -24.7370 C   0  0  0  0  0  0  0  0  0  0  0  0
   -0.7420   23.5750  -25.6620 C   0  0  0  0  0  0  0  0  0  0  0  0
   -1.0350   19.6620  -29.2990 C   0  0  1  0  0  0  0  0  0  0  0  0
    1.6094   18.4107  -31.2643 H   0  0  0  0  0  0  0  0  0  0  0  0
   -0.1541   18.2710  -31.5762 H   0  0  0  0  0  0  0  0  0  0  0  0
    0.6329   19.8857  -31.5762 H   0  0  0  0  0  0  0  0  0  0  0  0
    0.2104   18.0260  -29.1646 H   0  0  0  0  0  0  0  0  0  0  0  0
    2.5394   19.1536  -29.2370 H   0  0  0  0  0  0  0  0  0  0  0  0
    2.6400   20.3632  -27.2732 H   0  0  0  0  0  0  0  0  0  0  0  0
    1.0313   22.1900  -26.7068 H   0  0  0  0  0  0  0  0  0  0  0  0
   -0.6320   19.1740  -27.3150 H   0  0  0  0  0  0  0  0  0  0  0  0
   -3.0319   18.8948  -27.9153 H   0  0  0  0  0  0  0  0  0  0  0  0
   -2.4886   19.4612  -26.2599 H   0  0  0  0  0  0  0  0  0  0  0  0
   -4.4589   20.6419  -27.7888 H   0  0  0  0  0  0  0  0  0  0  0  0
   -3.5209   21.4123  -26.4405 H   0  0  0  0  0  0  0  0  0  0  0  0
   -3.5486   22.8627  -28.4630 H   0  0  0  0  0  0  0  0  0  0  0  0
   -3.2262   21.7795  -31.7564 H   0  0  0  0  0  0  0  0  0  0  0  0
   -4.4216   20.7368  -30.9007 H   0  0  0  0  0  0  0  0  0  0  0  0
   -2.9229   24.2129  -30.6895 H   0  0  0  0  0  0  0  0  0  0  0  0
   -4.2809   26.2051  -30.0414 H   0  0  0  0  0  0  0  0  0  0  0  0
   -6.6898   25.9368  -29.4414 H   0  0  0  0  0  0  0  0  0  0  0  0
   -7.7433   23.6719  -29.4850 H   0  0  0  0  0  0  0  0  0  0  0  0
   -6.3932   21.6768  -30.1346 H   0  0  0  0  0  0  0  0  0  0  0  0
    0.2156   21.9254  -31.0004 H   0  0  0  0  0  0  0  0  0  0  0  0
   -3.0091   24.7895  -27.9125 H   0  0  0  0  0  0  0  0  0  0  0  0
   -3.0456   26.6485  -26.2666 H   0  0  0  0  0  0  0  0  0  0  0  0
   -1.6002   26.5609  -24.2392 H   0  0  0  0  0  0  0  0  0  0  0  0
   -0.1631   24.5696  -23.8271 H   0  0  0  0  0  0  0  0  0  0  0  0
   -0.1089   22.6986  -25.4591 H   0  0  0  0  0  0  0  0  0  0  0  0
   -1.7452   18.8985  -29.6492 H   0  0  0  0  0  0  0  0  0  0  0  0
  1  2  1  0
  2  3  1  0
  3  4  2  0
  4  5  1  0
  5  6  2  0
  6  7  1  0
  7  8  1  0
  8  9  1  0
  9 10  1  0
 10 11  1  0
 11 12  1  0
 12 13  1  0
 13 14  2  0
 14 15  1  0
 15 16  2  0
 16 17  1  0
 17 18  2  0
 11 19  1  0
 19 20  2  0
 20 21  1  0
 21 22  2  0
 21 23  1  0
 23 24  1  1
 24 25  2  0
 25 26  1  0
 26 27  2  0
 27 28  1  0
 28 29  2  0
 19 30  1  0
 30  2  1  0
 23  6  1  0
 29 24  1  0
 30  7  1  0
 23 10  1  0
 18 13  1  0
  1 31  1  0
  1 32  1  0
  1 33  1  0
  2 34  1  1
  3 35  1  0
  4 36  1  0
  5 37  1  0
  7 38  1  1
  8 39  1  0
  8 40  1  0
  9 41  1  0
  9 42  1  0
 10 43  1  6
 12 44  1  0
 12 45  1  0
 14 46  1  0
 15 47  1  0
 16 48  1  0
 17 49  1  0
 18 50  1  0
 20 51  1  0
 25 52  1  0
 26 53  1  0
 27 54  1  0
 28 55  1  0
 29 56  1  0
 30 57  1  6
M  CHG  1   7   1
M  END
>  <UniqueID>  (39) 
37

>  <SMILES>  (39) 
C[C@H]1C=CC=C2[N@H+]3CCC4N(Cc5ccccc5)C(=CC(=O)C24c2ccccc2)C13

>  <Energy>  (39) 
177.01695579940966

>  <Genealogy>  (39) 
CC1C=CC=C2[NH+]3CCC4N(Cc5ccccc5)C(=CC(=O)C24c2ccccc2)C13 (protonated)
C[C@H]1C=CC=C2[N@H+]3CCC4N(Cc5ccccc5)C(=CC(=O)C24c2ccccc2)C13 (chirality)
C[C@H]1C=CC=C2[N@H+]3CCC4N(Cc5ccccc5)C(=CC(=O)C24c2ccccc2)C13 (3D coordinates assigned)
C[C@H]1C=CC=C2[N@H+]3CCC4N(Cc5ccccc5)C(=CC(=O)C24c2ccccc2)C13 (nonaromatic ring conformer: 177.01695579940966 kcal/mol)

>  <smiles>  (39) 
CC1C=CC=C2N3CCC4N(Cc5ccccc5)C(=CC(=O)C24c2ccccc2)C13

>  <score_type>  (39) 
oracle

>  <origin>  (39) 
adg

>  <m_score__min__energy>  (39) 
-5.7699999999999996

>  <m_primary>  (39) 
energy

$$$$
39:0
     RDKit          3D

 23 24  0  0  0  0  0  0  0  0999 V2000
   -2.9730   19.4570  -32.7850 C   0  0  0  0  0  0  0  0  0  0  0  0
   -3.7010   20.7660  -32.8380 C   0  0  0  0  0  0  0  0  0  0  0  0
   -3.4800   21.5880  -33.8210 N   0  0  0  0  0  0  0  0  0  0  0  0
   -4.7380   21.0280  -31.8770 N   0  0  0  0  0  0  0  0  0  0  0  0
   -5.2080   22.3410  -31.5340 C   0  0  0  0  0  0  0  0  0  0  0  0
   -6.5700   22.6710  -31.6920 C   0  0  0  0  0  0  0  0  0  0  0  0
   -7.0450   23.9550  -31.3400 C   0  0  0  0  0  0  0  0  0  0  0  0
   -6.1700   24.9190  -30.8050 C   0  0  0  0  0  0  0  0  0  0  0  0
   -4.8360   24.5580  -30.6350 C   0  0  0  0  0  0  0  0  0  0  0  0
   -3.8500   25.2980  -30.1020 N   0  0  0  0  0  0  0  0  0  0  0  0
   -2.7550   24.5450  -30.0930 N   0  0  0  0  0  0  0  0  0  0  0  0
   -3.0430   23.3300  -30.6180 C   0  0  0  0  0  0  0  0  0  0  0  0
   -4.3720   23.3200  -30.9810 C   0  0  0  0  0  0  0  0  0  0  0  0
   -2.8127   19.1688  -31.7356 H   0  0  0  0  0  0  0  0  0  0  0  0
   -3.5709   18.6842  -33.2903 H   0  0  0  0  0  0  0  0  0  0  0  0
   -2.0011   19.5573  -33.2903 H   0  0  0  0  0  0  0  0  0  0  0  0
   -4.2320   22.2050  -34.1980 H   0  0  0  0  0  0  0  0  0  0  0  0
   -2.5420   21.6350  -34.2810 H   0  0  0  0  0  0  0  0  0  0  0  0
   -5.2230   20.2080  -31.4460 H   0  0  0  0  0  0  0  0  0  0  0  0
   -7.2691   21.9223  -32.0928 H   0  0  0  0  0  0  0  0  0  0  0  0
   -8.1068   24.2028  -31.4853 H   0  0  0  0  0  0  0  0  0  0  0  0
   -6.5275   25.9225  -30.5308 H   0  0  0  0  0  0  0  0  0  0  0  0
   -2.3369   22.4946  -30.7345 H   0  0  0  0  0  0  0  0  0  0  0  0
  1  2  1  0
  2  3  2  0
  2  4  1  0
  4  5  1  0
  5  6  2  0
  6  7  1  0
  7  8  2  0
  8  9  1  0
  9 10  1  0
 10 11  1  0
 11 12  2  0
 12 13  1  0
 13  5  1  0
 13  9  2  0
  1 14  1  0
  1 15  1  0
  1 16  1  0
  3 17  1  0
  3 18  1  0
  4 19  1  0
  6 20  1  0
  7 21  1  0
  8 22  1  0
 12 23  1  0
M  CHG  2   3   1  10  -1
M  END
>  <UniqueID>  (40) 
38

>  <SMILES>  (40) 
CC(=[NH2+])Nc1cccc2[n-]ncc12

>  <Energy>  (40) 
64.20672944822236

>  <Genealogy>  (40) 
CC(=[NH2+])Nc1cccc2[n-]ncc12 (protonated)
CC(=[NH2+])Nc1cccc2[n-]ncc12 (3D coordinates assigned)
CC(=[NH2+])Nc1cccc2[n-]ncc12 (optimized conformer: 64.20672944822236 kcal/mol)

>  <smiles>  (40) 
CC(=N)Nc1cccc2[nH]ncc12

>  <score_type>  (40) 
oracle

>  <origin>  (40) 
adg

>  <m_score__min__energy>  (40) 
-6.5800000000000001

>  <m_primary>  (40) 
energy

$$$$
40:0
     RDKit          3D

 39 41  0  0  0  0  0  0  0  0999 V2000
   -6.7650   19.0660  -31.6350 C   0  0  0  0  0  0  0  0  0  0  0  0
   -5.6010   19.2850  -32.6050 C   0  0  0  0  0  0  0  0  0  0  0  0
   -6.0840   19.2540  -34.0560 C   0  0  0  0  0  0  0  0  0  0  0  0
   -4.9210   20.5920  -32.3130 C   0  0  0  0  0  0  0  0  0  0  0  0
   -4.4000   20.9310  -31.1220 N   0  0  0  0  0  0  0  0  0  0  0  0
   -3.9160   22.1670  -31.3510 C   0  0  0  0  0  0  0  0  0  0  0  0
   -3.2590   23.0110  -30.3340 C   0  0  0  0  0  0  0  0  0  0  0  0
   -3.4640   24.3580  -30.0980 C   0  0  0  0  0  0  0  0  0  0  0  0
   -4.4610   25.1830  -30.7100 N   0  0  0  0  0  0  0  0  0  0  0  0
   -5.8120   25.2660  -30.1590 C   0  0  0  0  0  0  0  0  0  0  0  0
   -6.6490   24.1250  -30.6460 C   0  0  0  0  0  0  0  0  0  0  0  0
   -7.2030   23.1280  -29.8550 C   0  0  0  0  0  0  0  0  0  0  0  0
   -7.8610   22.1400  -30.5970 C   0  0  0  0  0  0  0  0  0  0  0  0
   -7.8110   22.3480  -31.9690 C   0  0  0  0  0  0  0  0  0  0  0  0
   -6.9450   23.7600  -32.2600 S   0  0  0  0  0  0  0  0  0  0  0  0
   -2.6500   24.7840  -29.1070 N   0  0  0  0  0  0  0  0  0  0  0  0
   -1.9570   23.6800  -28.7570 C   0  0  0  0  0  0  0  0  0  0  0  0
   -2.3040   22.5950  -29.4780 N   0  0  0  0  0  0  0  0  0  0  0  0
   -1.7410   21.2540  -29.3430 C   0  0  0  0  0  0  0  0  0  0  0  0
   -4.1450   22.5610  -32.6210 N   0  0  0  0  0  0  0  0  0  0  0  0
   -4.7600   21.5610  -33.1830 O   0  0  0  0  0  0  0  0  0  0  0  0
   -6.3980   19.1350  -30.6003 H   0  0  0  0  0  0  0  0  0  0  0  0
   -7.5327   19.8355  -31.8039 H   0  0  0  0  0  0  0  0  0  0  0  0
   -7.2006   18.0701  -31.8039 H   0  0  0  0  0  0  0  0  0  0  0  0
   -4.8793   18.4666  -32.4654 H   0  0  0  0  0  0  0  0  0  0  0  0
   -7.1816   19.1836  -34.0757 H   0  0  0  0  0  0  0  0  0  0  0  0
   -5.7664   20.1744  -34.5679 H   0  0  0  0  0  0  0  0  0  0  0  0
   -5.6514   18.3818  -34.5679 H   0  0  0  0  0  0  0  0  0  0  0  0
   -4.4160   20.3840  -30.2320 H   0  0  0  0  0  0  0  0  0  0  0  0
   -4.2340   25.6860  -31.5970 H   0  0  0  0  0  0  0  0  0  0  0  0
   -5.7576   25.2319  -29.0609 H   0  0  0  0  0  0  0  0  0  0  0  0
   -6.2722   26.2096  -30.4873 H   0  0  0  0  0  0  0  0  0  0  0  0
   -7.1322   23.1155  -28.7573 H   0  0  0  0  0  0  0  0  0  0  0  0
   -8.3696   21.2801  -30.1367 H   0  0  0  0  0  0  0  0  0  0  0  0
   -8.2612   21.6996  -32.7351 H   0  0  0  0  0  0  0  0  0  0  0  0
   -1.1909   23.6669  -27.9678 H   0  0  0  0  0  0  0  0  0  0  0  0
   -1.6368   21.0058  -28.2765 H   0  0  0  0  0  0  0  0  0  0  0  0
   -2.4092   20.5255  -29.8254 H   0  0  0  0  0  0  0  0  0  0  0  0
   -0.7530   21.2209  -29.8254 H   0  0  0  0  0  0  0  0  0  0  0  0
  1  2  1  0
  2  3  1  0
  2  4  1  0
  4  5  2  0
  5  6  1  0
  6  7  1  0
  7  8  2  0
  8  9  1  0
  9 10  1  0
 10 11  1  0
 11 12  2  0
 12 13  1  0
 13 14  2  0
 14 15  1  0
  8 16  1  0
 16 17  2  0
 17 18  1  0
 18 19  1  0
  6 20  2  0
 20 21  1  0
 21  4  1  0
 18  7  1  0
 15 11  1  0
  1 22  1  0
  1 23  1  0
  1 24  1  0
  2 25  1  0
  3 26  1  0
  3 27  1  0
  3 28  1  0
  5 29  1  0
  9 30  1  0
 10 31  1  0
 10 32  1  0
 12 33  1  0
 13 34  1  0
 14 35  1  0
 17 36  1  0
 19 37  1  0
 19 38  1  0
 19 39  1  0
M  CHG  1   5   1
M  END
>  <UniqueID>  (41) 
39

>  <SMILES>  (41) 
CC(C)c1[nH+]c(-c2c(NCc3cccs3)ncn2C)no1

>  <Energy>  (41) 
125.74467439117164

>  <Genealogy>  (41) 
CC(C)c1[nH+]c(-c2c(NCc3cccs3)ncn2C)no1 (protonated)
CC(C)c1[nH+]c(-c2c(NCc3cccs3)ncn2C)no1 (3D coordinates assigned)
CC(C)c1[nH+]c(-c2c(NCc3cccs3)ncn2C)no1 (optimized conformer: 125.74467439117164 kcal/mol)

>  <smiles>  (41) 
CC(C)c1nc(-c2c(NCc3cccs3)ncn2C)no1

>  <score_type>  (41) 
oracle

>  <origin>  (41) 
adg

>  <m_score__min__energy>  (41) 
-6.8300000000000001

>  <m_primary>  (41) 
energy

$$$$
41:0
     RDKit          3D

 37 37  0  0  0  0  0  0  0  0999 V2000
   -4.1840   20.7160  -32.5470 C   0  0  0  0  0  0  0  0  0  0  0  0
   -5.5060   21.2370  -32.6430 O   0  0  0  0  0  0  0  0  0  0  0  0
   -6.6770   20.4720  -32.5130 C   0  0  0  0  0  0  0  0  0  0  0  0
   -6.7040   19.0990  -32.8340 C   0  0  0  0  0  0  0  0  0  0  0  0
   -7.8770   18.3590  -32.6790 C   0  0  0  0  0  0  0  0  0  0  0  0
   -9.0350   18.9730  -32.2020 C   0  0  0  0  0  0  0  0  0  0  0  0
   -9.0260   20.3300  -31.8830 C   0  0  0  0  0  0  0  0  0  0  0  0
   -7.8540   21.0920  -32.0380 C   0  0  0  0  0  0  0  0  0  0  0  0
   -7.8730   22.5480  -31.6460 C   0  0  0  0  0  0  0  0  0  0  0  0
   -7.1730   23.3680  -32.6480 N   0  0  0  0  0  0  0  0  0  0  0  0
   -5.9760   24.0380  -32.1070 C   0  0  0  0  0  0  0  0  0  0  0  0
   -6.1170   24.3140  -30.6010 C   0  0  0  0  0  0  0  0  0  0  0  0
   -5.2260   25.4650  -30.1200 C   0  0  0  0  0  0  0  0  0  0  0  0
   -3.8670   25.2930  -30.6280 N   0  0  0  0  0  0  0  0  0  0  0  0
   -2.8640   24.5480  -29.4220 S   0  0  0  0  0  0  0  0  0  0  0  0
   -3.8570   24.0170  -28.0430 C   0  0  0  0  0  0  0  0  0  0  0  0
   -2.1900   23.3470  -30.0250 O   0  0  0  0  0  0  0  0  0  0  0  0
   -1.8140   25.5140  -28.9480 O   0  0  0  0  0  0  0  0  0  0  0  0
   -3.9087   20.6075  -31.4876 H   0  0  0  0  0  0  0  0  0  0  0  0
   -4.1404   19.7335  -33.0397 H   0  0  0  0  0  0  0  0  0  0  0  0
   -3.4818   21.4046  -33.0397 H   0  0  0  0  0  0  0  0  0  0  0  0
   -5.7940   18.6079  -33.2092 H   0  0  0  0  0  0  0  0  0  0  0  0
   -7.8884   17.2889  -32.9336 H   0  0  0  0  0  0  0  0  0  0  0  0
   -9.9566   18.3856  -32.0774 H   0  0  0  0  0  0  0  0  0  0  0  0
   -9.9424   20.8085  -31.5072 H   0  0  0  0  0  0  0  0  0  0  0  0
   -8.9166   22.8869  -31.5679 H   0  0  0  0  0  0  0  0  0  0  0  0
   -7.3609   22.6596  -30.6789 H   0  0  0  0  0  0  0  0  0  0  0  0
   -6.8600   22.7200  -33.4090 H   0  0  0  0  0  0  0  0  0  0  0  0
   -5.1002   23.3931  -32.2717 H   0  0  0  0  0  0  0  0  0  0  0  0
   -5.8560   25.0011  -32.6246 H   0  0  0  0  0  0  0  0  0  0  0  0
   -7.1655   24.5688  -30.3874 H   0  0  0  0  0  0  0  0  0  0  0  0
   -5.7999   23.4057  -30.0676 H   0  0  0  0  0  0  0  0  0  0  0  0
   -5.6337   26.4186  -30.4867 H   0  0  0  0  0  0  0  0  0  0  0  0
   -5.2021   25.4668  -29.0203 H   0  0  0  0  0  0  0  0  0  0  0  0
   -3.3531   24.2864  -27.1030 H   0  0  0  0  0  0  0  0  0  0  0  0
   -4.8392   24.5103  -28.0870 H   0  0  0  0  0  0  0  0  0  0  0  0
   -3.9922   22.9262  -28.0870 H   0  0  0  0  0  0  0  0  0  0  0  0
  1  2  1  0
  2  3  1  0
  3  4  2  0
  4  5  1  0
  5  6  2  0
  6  7  1  0
  7  8  2  0
  8  9  1  0
  9 10  1  0
 10 11  1  0
 11 12  1  0
 12 13  1  0
 13 14  1  0
 14 15  1  0
 15 16  1  0
 15 17  2  0
 15 18  2  0
  8  3  1  0
  1 19  1  0
  1 20  1  0
  1 21  1  0
  4 22  1  0
  5 23  1  0
  6 24  1  0
  7 25  1  0
  9 26  1  0
  9 27  1  0
 10 28  1  0
 11 29  1  0
 11 30  1  0
 12 31  1  0
 12 32  1  0
 13 33  1  0
 13 34  1  0
 16 35  1  0
 16 36  1  0
 16 37  1  0
M  CHG  1  14  -1
M  END
>  <UniqueID>  (42) 
40

>  <SMILES>  (42) 
COc1ccccc1CNCCC[N-]S(C)(=O)=O

>  <Energy>  (42) 
24.272822401945525

>  <Genealogy>  (42) 
COc1ccccc1CNCCC[N-]S(C)(=O)=O (protonated)
COc1ccccc1CNCCC[N-]S(C)(=O)=O (3D coordinates assigned)
COc1ccccc1CNCCC[N-]S(C)(=O)=O (optimized conformer: 24.272822401945525 kcal/mol)

>  <smiles>  (42) 
COc1ccccc1CNCCCNS(C)(=O)=O

>  <score_type>  (42) 
oracle

>  <origin>  (42) 
adg

>  <m_score__min__energy>  (42) 
-8.6199999999999992

>  <m_primary>  (42) 
energy

$$$$
42:0
     RDKit          3D

 63 65  0  0  0  0  0  0  0  0999 V2000
   -1.0323   26.3384  -26.1959 H   0  0  0  0  0  0  0  0  0  0  0  0
   -1.4620   25.6030  -26.8920 C   0  0  0  0  0  0  0  0  0  0  0  0
   -0.8210   25.3310  -28.1050 C   0  0  0  0  0  0  0  0  0  0  0  0
    0.1172   25.8462  -28.3586 H   0  0  0  0  0  0  0  0  0  0  0  0
   -1.3720   24.4050  -28.9950 C   0  0  0  0  0  0  0  0  0  0  0  0
   -0.8604   24.1860  -29.9439 H   0  0  0  0  0  0  0  0  0  0  0  0
   -2.5760   23.7530  -28.6830 C   0  0  0  0  0  0  0  0  0  0  0  0
   -3.1270   22.7350  -29.6080 C   0  0  0  0  0  0  0  0  0  0  0  0
   -2.4720   21.5700  -29.8770 C   0  0  0  0  0  0  0  0  0  0  0  0
   -2.1780   20.5910  -28.7960 C   0  0  0  0  0  0  0  0  0  0  0  0
   -3.0960   20.3930  -27.7490 C   0  0  0  0  0  0  0  0  0  0  0  0
   -4.0361   20.9639  -27.7310 H   0  0  0  0  0  0  0  0  0  0  0  0
   -2.8210   19.4750  -26.7310 C   0  0  0  0  0  0  0  0  0  0  0  0
   -3.5402   19.3322  -25.9110 H   0  0  0  0  0  0  0  0  0  0  0  0
   -1.6340   18.7390  -26.7540 C   0  0  0  0  0  0  0  0  0  0  0  0
   -1.4178   18.0181  -25.9518 H   0  0  0  0  0  0  0  0  0  0  0  0
   -0.7220   18.9190  -27.7960 C   0  0  0  0  0  0  0  0  0  0  0  0
    0.2116   18.3375  -27.8143 H   0  0  0  0  0  0  0  0  0  0  0  0
   -0.9920   19.8360  -28.8160 C   0  0  0  0  0  0  0  0  0  0  0  0
   -0.2732   19.9675  -29.6382 H   0  0  0  0  0  0  0  0  0  0  0  0
   -2.0230   21.2060  -31.2810 C   0  0  0  0  0  0  0  0  0  0  0  0
   -2.6336   21.7650  -32.0054 H   0  0  0  0  0  0  0  0  0  0  0  0
   -2.1497   20.1207  -31.4079 H   0  0  0  0  0  0  0  0  0  0  0  0
   -0.5510   21.5400  -31.5150 C   0  0  0  0  0  0  0  0  0  0  0  0
   -0.0427   21.6553  -30.5463 H   0  0  0  0  0  0  0  0  0  0  0  0
   -0.0764   20.7267  -32.0836 H   0  0  0  0  0  0  0  0  0  0  0  0
   -0.4739   22.4785  -32.0836 H   0  0  0  0  0  0  0  0  0  0  0  0
   -4.4580   23.0370  -30.1970 C   0  0  0  0  0  0  0  0  0  0  0  0
   -5.5790   23.1760  -29.3660 C   0  0  0  0  0  0  0  0  0  0  0  0
   -5.4651   23.0893  -28.2754 H   0  0  0  0  0  0  0  0  0  0  0  0
   -6.8400   23.4240  -29.9150 C   0  0  0  0  0  0  0  0  0  0  0  0
   -7.7097   23.5509  -29.2536 H   0  0  0  0  0  0  0  0  0  0  0  0
   -7.0020   23.5120  -31.3080 C   0  0  0  0  0  0  0  0  0  0  0  0
   -8.2520   23.7240  -31.9100 O   0  0  0  0  0  0  0  0  0  0  0  0
   -9.2800   22.7400  -32.0520 C   0  0  0  0  0  0  0  0  0  0  0  0
  -10.2075   23.1183  -31.5975 H   0  0  0  0  0  0  0  0  0  0  0  0
   -9.4339   22.5408  -33.1228 H   0  0  0  0  0  0  0  0  0  0  0  0
   -8.8770   21.4330  -31.3600 C   0  0  0  0  0  0  0  0  0  0  0  0
   -8.1668   21.6586  -30.5508 H   0  0  0  0  0  0  0  0  0  0  0  0
   -9.7827   20.9566  -30.9565 H   0  0  0  0  0  0  0  0  0  0  0  0
   -8.2400   20.5000  -32.3170 N   0  0  0  0  0  0  0  0  0  0  0  0
   -9.0670   19.3300  -32.6790 C   0  0  0  0  0  0  0  0  0  0  0  0
  -10.0989   19.6713  -32.8483 H   0  0  0  0  0  0  0  0  0  0  0  0
   -8.6230   18.8851  -33.5818 H   0  0  0  0  0  0  0  0  0  0  0  0
   -9.0860   18.2430  -31.6020 C   0  0  0  0  0  0  0  0  0  0  0  0
   -9.0778   18.7123  -30.6072 H   0  0  0  0  0  0  0  0  0  0  0  0
   -9.9949   17.6334  -31.7123 H   0  0  0  0  0  0  0  0  0  0  0  0
   -8.1989   17.6020  -31.7123 H   0  0  0  0  0  0  0  0  0  0  0  0
   -6.7940   20.2120  -32.1260 C   0  0  0  0  0  0  0  0  0  0  0  0
   -6.3555   21.0391  -31.5484 H   0  0  0  0  0  0  0  0  0  0  0  0
   -6.7410   19.2411  -31.6117 H   0  0  0  0  0  0  0  0  0  0  0  0
   -5.9830   20.0540  -33.4210 C   0  0  0  0  0  0  0  0  0  0  0  0
   -4.9313   19.8491  -33.1723 H   0  0  0  0  0  0  0  0  0  0  0  0
   -6.3902   19.2183  -34.0090 H   0  0  0  0  0  0  0  0  0  0  0  0
   -6.0468   20.9815  -34.0090 H   0  0  0  0  0  0  0  0  0  0  0  0
   -5.8800   23.3900  -32.1350 C   0  0  0  0  0  0  0  0  0  0  0  0
   -5.9921   23.4911  -33.2246 H   0  0  0  0  0  0  0  0  0  0  0  0
   -4.6190   23.1410  -31.5890 C   0  0  0  0  0  0  0  0  0  0  0  0
   -3.7483   23.0258  -32.2513 H   0  0  0  0  0  0  0  0  0  0  0  0
   -3.2000   24.0120  -27.4500 C   0  0  0  0  0  0  0  0  0  0  0  0
   -4.1257   23.4817  -27.1819 H   0  0  0  0  0  0  0  0  0  0  0  0
   -2.6480   24.9410  -26.5640 C   0  0  0  0  0  0  0  0  0  0  0  0
   -3.1479   25.1514  -25.6070 H   0  0  0  0  0  0  0  0  0  0  0  0
  1  2  1  0
  2  3  2  0
  3  4  1  0
  3  5  1  0
  5  6  1  0
  5  7  2  0
  7  8  1  0
  8  9  2  0
  9 10  1  0
 10 11  2  0
 11 12  1  0
 11 13  1  0
 13 14  1  0
 13 15  2  0
 15 16  1  0
 15 17  1  0
 17 18  1  0
 17 19  2  0
 19 20  1  0
  9 21  1  0
 21 22  1  0
 21 23  1  0
 21 24  1  0
 24 25  1  0
 24 26  1  0
 24 27  1  0
  8 28  1  0
 28 29  2  0
 29 30  1  0
 29 31  1  0
 31 32  1  0
 31 33  2  0
 33 34  1  0
 34 35  1  0
 35 36  1  0
 35 37  1  0
 35 38  1  0
 38 39  1  0
 38 40  1  0
 38 41  1  0
 41 42  1  0
 42 43  1  0
 42 44  1  0
 42 45  1  0
 45 46  1  0
 45 47  1  0
 45 48  1  0
 41 49  1  0
 49 50  1  0
 49 51  1  0
 49 52  1  0
 52 53  1  0
 52 54  1  0
 52 55  1  0
 33 56  1  0
 56 57  1  0
 56 58  2  0
 58 59  1  0
  7 60  1  0
 60 61  1  0
 60 62  2  0
 62 63  1  0
 62  2  1  0
 19 10  1  0
 58 28  1  0
M  END
>  <UniqueID>  (43) 
41

>  <SMILES>  (43) 
CC/C(=C(\c1ccccc1)c1ccc(OCCN(CC)CC)cc1)c1ccccc1

>  <Energy>  (43) 
87.70579462016516

>  <Genealogy>  (43) 
CC/C(=C(\c1ccccc1)c1ccc(OCCN(CC)CC)cc1)c1ccccc1 (cis-trans isomerization)
CC/C(=C(\c1ccccc1)c1ccc(OCCN(CC)CC)cc1)c1ccccc1 (3D coordinates assigned)
CC/C(=C(\c1ccccc1)c1ccc(OCCN(CC)CC)cc1)c1ccccc1 (optimized conformer: 87.70579462016516 kcal/mol)

>  <smiles>  (43) 
CCC(=C(c1ccccc1)c1ccc(OCCN(CC)CC)cc1)c1ccccc1

>  <score_type>  (43) 
oracle

>  <origin>  (43) 
adg

>  <m_score__min__energy>  (43) 
-9.3499999999999996

>  <m_primary>  (43) 
energy

$$$$
43:0
     RDKit          3D

 34 36  0  0  0  0  0  0  0  0999 V2000
   -4.1490   17.0310  -35.0090 C   0  0  0  0  0  0  0  0  0  0  0  0
   -5.5080   17.4560  -34.9650 O   0  0  0  0  0  0  0  0  0  0  0  0
   -6.1090   18.0730  -33.8580 C   0  0  0  0  0  0  0  0  0  0  0  0
   -7.2230   17.5210  -33.1990 C   0  0  0  0  0  0  0  0  0  0  0  0
   -7.7850   18.1750  -32.1010 C   0  0  0  0  0  0  0  0  0  0  0  0
   -7.2450   19.3800  -31.6490 C   0  0  0  0  0  0  0  0  0  0  0  0
   -6.1320   19.9500  -32.2920 C   0  0  0  0  0  0  0  0  0  0  0  0
   -5.5710   21.2330  -31.8000 C   0  0  0  0  0  0  0  0  0  0  0  0
   -6.1540   22.4990  -31.9180 C   0  0  0  0  0  0  0  0  0  0  0  0
   -5.2410   23.3290  -31.3080 C   0  0  0  0  0  0  0  0  0  0  0  0
   -5.2720   24.7050  -31.1170 C   0  0  0  0  0  0  0  0  0  0  0  0
   -4.2170   25.2800  -30.4700 N   0  0  0  0  0  0  0  0  0  0  0  0
   -3.1550   24.5440  -30.0170 C   0  0  0  0  0  0  0  0  0  0  0  0
   -2.0500   25.1570  -29.3380 N   0  0  0  0  0  0  0  0  0  0  0  0
   -1.1850   24.5780  -28.3500 C   0  0  0  0  0  0  0  0  0  0  0  0
   -1.6980   23.9950  -27.0700 C   0  0  0  0  0  0  0  0  0  0  0  0
    0.0540   24.5600  -28.5710 O   0  0  0  0  0  0  0  0  0  0  0  0
   -3.1470   23.1540  -30.2240 C   0  0  0  0  0  0  0  0  0  0  0  0
   -4.2070   22.6050  -30.8680 N   0  0  0  0  0  0  0  0  0  0  0  0
   -4.3820   21.3280  -31.1550 N   0  0  0  0  0  0  0  0  0  0  0  0
   -5.5730   19.2840  -33.3990 C   0  0  0  0  0  0  0  0  0  0  0  0
   -3.7686   16.9121  -33.9837 H   0  0  0  0  0  0  0  0  0  0  0  0
   -4.0826   16.0692  -35.5386 H   0  0  0  0  0  0  0  0  0  0  0  0
   -3.5464   17.7836  -35.5386 H   0  0  0  0  0  0  0  0  0  0  0  0
   -7.6525   16.5711  -33.5501 H   0  0  0  0  0  0  0  0  0  0  0  0
   -8.6564   17.7391  -31.5904 H   0  0  0  0  0  0  0  0  0  0  0  0
   -7.6938   19.8880  -30.7826 H   0  0  0  0  0  0  0  0  0  0  0  0
   -7.1126   22.7671  -32.3862 H   0  0  0  0  0  0  0  0  0  0  0  0
   -6.1180   25.3101  -31.4751 H   0  0  0  0  0  0  0  0  0  0  0  0
   -1.2379   24.5179  -26.2186 H   0  0  0  0  0  0  0  0  0  0  0  0
   -2.7908   24.1127  -27.0255 H   0  0  0  0  0  0  0  0  0  0  0  0
   -1.4422   22.9261  -27.0255 H   0  0  0  0  0  0  0  0  0  0  0  0
   -2.3092   22.5322  -29.8755 H   0  0  0  0  0  0  0  0  0  0  0  0
   -4.7028   19.7203  -33.9113 H   0  0  0  0  0  0  0  0  0  0  0  0
  1  2  1  0
  2  3  1  0
  3  4  2  0
  4  5  1  0
  5  6  2  0
  6  7  1  0
  7  8  1  0
  8  9  1  0
  9 10  2  0
 10 11  1  0
 11 12  2  0
 12 13  1  0
 13 14  1  0
 14 15  1  0
 15 16  1  0
 15 17  2  0
 13 18  2  0
 18 19  1  0
 19 20  1  0
  7 21  2  0
 21  3  1  0
 20  8  2  0
 19 10  1  0
  1 22  1  0
  1 23  1  0
  1 24  1  0
  4 25  1  0
  5 26  1  0
  6 27  1  0
  9 28  1  0
 11 29  1  0
 16 30  1  0
 16 31  1  0
 16 32  1  0
 18 33  1  0
 21 34  1  0
M  CHG  1  14  -1
M  END
>  <UniqueID>  (44) 
42

>  <SMILES>  (44) 
COc1cccc(-c2cc3cnc([N-]C(C)=O)cn3n2)c1

>  <Energy>  (44) 
74.43318567831462

>  <Genealogy>  (44) 
COc1cccc(-c2cc3cnc([N-]C(C)=O)cn3n2)c1 (protonated)
COc1cccc(-c2cc3cnc([N-]C(C)=O)cn3n2)c1 (3D coordinates assigned)
COc1cccc(-c2cc3cnc([N-]C(C)=O)cn3n2)c1 (optimized conformer: 74.43318567831462 kcal/mol)

>  <smiles>  (44) 
COc1cccc(-c2cc3cnc(NC(C)=O)cn3n2)c1

>  <score_type>  (44) 
oracle

>  <origin>  (44) 
adg

>  <m_score__min__energy>  (44) 
-9.4499999999999993

>  <m_primary>  (44) 
energy

$$$$
44:0
     RDKit          3D

 54 56  0  0  0  0  0  0  0  0999 V2000
    0.9970   23.5800  -27.1100 C   0  0  0  0  0  0  0  0  0  0  0  0
    0.5620   24.1020  -28.3610 O   0  0  0  0  0  0  0  0  0  0  0  0
   -0.5290   23.6170  -29.1020 C   0  0  0  0  0  0  0  0  0  0  0  0
   -0.5260   22.3050  -29.6140 C   0  0  0  0  0  0  0  0  0  0  0  0
   -1.6140   21.8110  -30.3440 C   0  0  0  0  0  0  0  0  0  0  0  0
   -1.5970   20.4270  -30.8790 C   0  0  0  0  0  0  0  0  0  0  0  0
   -1.2010   19.4820  -30.1430 O   0  0  0  0  0  0  0  0  0  0  0  0
   -2.0480   20.1380  -32.2170 N   0  0  0  0  0  0  0  0  0  0  0  0
   -3.2960   19.3690  -32.3880 C   0  0  0  0  0  0  0  0  0  0  0  0
   -4.5050   20.2560  -32.2600 C   0  0  0  0  0  0  0  0  0  0  0  0
   -5.6920   19.7740  -31.6810 C   0  0  0  0  0  0  0  0  0  0  0  0
   -6.8160   20.6000  -31.5880 C   0  0  0  0  0  0  0  0  0  0  0  0
   -6.7630   21.9130  -32.0660 C   0  0  0  0  0  0  0  0  0  0  0  0
   -8.3030   23.0370  -31.9430 Br  0  0  0  0  0  0  0  0  0  0  0  0
   -5.5830   22.4030  -32.6320 C   0  0  0  0  0  0  0  0  0  0  0  0
   -4.4560   21.5810  -32.7260 C   0  0  0  0  0  0  0  0  0  0  0  0
   -1.2930   20.7380  -33.3400 C   0  0  2  0  0  0  0  0  0  0  0  0
   -1.1410   19.7760  -34.5340 C   0  0  0  0  0  0  0  0  0  0  0  0
   -0.1400   20.3940  -35.5110 C   0  0  0  0  0  0  0  0  0  0  0  0
    0.9530   21.3640  -34.5120 S   0  0  0  0  0  0  0  0  0  0  0  0
    1.0300   22.7840  -34.9980 O   0  0  0  0  0  0  0  0  0  0  0  0
    2.3240   20.7510  -34.4350 O   0  0  0  0  0  0  0  0  0  0  0  0
    0.1040   21.2510  -32.9670 C   0  0  0  0  0  0  0  0  0  0  0  0
   -2.7100   22.6480  -30.5880 C   0  0  0  0  0  0  0  0  0  0  0  0
   -2.7340   23.9620  -30.0900 C   0  0  0  0  0  0  0  0  0  0  0  0
   -3.8240   24.8190  -30.3150 O   0  0  0  0  0  0  0  0  0  0  0  0
   -5.1370   24.6100  -29.8070 C   0  0  0  0  0  0  0  0  0  0  0  0
   -1.6490   24.4530  -29.3450 C   0  0  0  0  0  0  0  0  0  0  0  0
   -1.7510   25.7770  -28.8780 O   0  0  0  0  0  0  0  0  0  0  0  0
   -1.2250   26.2930  -27.6610 C   0  0  0  0  0  0  0  0  0  0  0  0
    0.5256   24.1457  -26.2928 H   0  0  0  0  0  0  0  0  0  0  0  0
    0.7108   22.5205  -27.0353 H   0  0  0  0  0  0  0  0  0  0  0  0
    2.0907   23.6705  -27.0353 H   0  0  0  0  0  0  0  0  0  0  0  0
    0.3456   21.6576  -29.4375 H   0  0  0  0  0  0  0  0  0  0  0  0
   -3.2967   18.9035  -33.3847 H   0  0  0  0  0  0  0  0  0  0  0  0
   -3.3425   18.6019  -31.6010 H   0  0  0  0  0  0  0  0  0  0  0  0
   -5.7365   18.7431  -31.2998 H   0  0  0  0  0  0  0  0  0  0  0  0
   -7.7436   20.2164  -31.1381 H   0  0  0  0  0  0  0  0  0  0  0  0
   -5.5408   23.4373  -33.0042 H   0  0  0  0  0  0  0  0  0  0  0  0
   -3.5273   21.9729  -33.1664 H   0  0  0  0  0  0  0  0  0  0  0  0
   -1.9131   21.6018  -33.6218 H   0  0  0  0  0  0  0  0  0  0  0  0
   -0.7689   18.8018  -34.1840 H   0  0  0  0  0  0  0  0  0  0  0  0
   -2.1120   19.6209  -35.0271 H   0  0  0  0  0  0  0  0  0  0  0  0
    0.4180   19.6071  -36.0396 H   0  0  0  0  0  0  0  0  0  0  0  0
   -0.6400   21.0018  -36.2795 H   0  0  0  0  0  0  0  0  0  0  0  0
    0.6118   20.5446  -32.2939 H   0  0  0  0  0  0  0  0  0  0  0  0
    0.0706   22.2127  -32.4340 H   0  0  0  0  0  0  0  0  0  0  0  0
   -3.5610   22.2730  -31.1756 H   0  0  0  0  0  0  0  0  0  0  0  0
   -5.1097   24.6143  -28.7073 H   0  0  0  0  0  0  0  0  0  0  0  0
   -5.7992   25.4140  -30.1605 H   0  0  0  0  0  0  0  0  0  0  0  0
   -5.5169   23.6401  -30.1605 H   0  0  0  0  0  0  0  0  0  0  0  0
   -1.7227   25.8047  -26.8102 H   0  0  0  0  0  0  0  0  0  0  0  0
   -0.1438   26.0955  -27.6159 H   0  0  0  0  0  0  0  0  0  0  0  0
   -1.4017   27.3778  -27.6159 H   0  0  0  0  0  0  0  0  0  0  0  0
  1  2  1  0
  2  3  1  0
  3  4  2  0
  4  5  1  0
  5  6  1  0
  6  7  2  0
  6  8  1  0
  8  9  1  0
  9 10  1  0
 10 11  2  0
 11 12  1  0
 12 13  2  0
 13 14  1  0
 13 15  1  0
 15 16  2  0
  8 17  1  0
 17 18  1  0
 18 19  1  0
 19 20  1  0
 20 21  2  0
 20 22  2  0
 20 23  1  0
  5 24  2  0
 24 25  1  0
 25 26  1  0
 26 27  1  0
 25 28  2  0
 28 29  1  0
 29 30  1  0
 28  3  1  0
 16 10  1  0
 23 17  1  0
  1 31  1  0
  1 32  1  0
  1 33  1  0
  4 34  1  0
  9 35  1  0
  9 36  1  0
 11 37  1  0
 12 38  1  0
 15 39  1  0
 16 40  1  0
 17 41  1  6
 18 42  1  0
 18 43  1  0
 19 44  1  0
 19 45  1  0
 23 46  1  0
 23 47  1  0
 24 48  1  0
 27 49  1  0
 27 50  1  0
 27 51  1  0
 30 52  1  0
 30 53  1  0
 30 54  1  0
M  END
>  <UniqueID>  (45) 
43

>  <SMILES>  (45) 
COc1cc(C(=O)N(Cc2ccc(Br)cc2)[C@@H]2CCS(=O)(=O)C2)cc(OC)c1OC

>  <Energy>  (45) 
60.71754577560532

>  <Genealogy>  (45) 
COc1cc(C(=O)N(Cc2ccc(Br)cc2)[C@@H]2CCS(=O)(=O)C2)cc(OC)c1OC (chirality)
COc1cc(C(=O)N(Cc2ccc(Br)cc2)[C@@H]2CCS(=O)(=O)C2)cc(OC)c1OC (3D coordinates assigned)
COc1cc(C(=O)N(Cc2ccc(Br)cc2)[C@@H]2CCS(=O)(=O)C2)cc(OC)c1OC (nonaromatic ring conformer: 60.71754577560532 kcal/mol)

>  <smiles>  (45) 
COc1cc(C(=O)N(Cc2ccc(Br)cc2)C2CCS(=O)(=O)C2)cc(OC)c1OC

>  <score_type>  (45) 
oracle

>  <origin>  (45) 
adg

>  <m_score__min__energy>  (45) 
-9.1600000000000001

>  <m_primary>  (45) 
energy

$$$$
45:0
     RDKit          3D

 33 35  0  0  0  0  0  0  0  0999 V2000
   -6.8210   23.0400  -31.8050 S   0  0  0  0  0  0  0  0  0  0  0  0
   -7.5530   21.8010  -31.9160 C   0  0  0  0  0  0  0  0  0  0  0  0
   -9.0140   21.7880  -31.5280 C   0  0  0  0  0  0  0  0  0  0  0  0
   -9.8240   20.7580  -32.3320 C   0  0  0  0  0  0  0  0  0  0  0  0
   -9.0430   19.4840  -32.7180 C   0  0  0  0  0  0  0  0  0  0  0  0
   -7.7670   19.2700  -31.8690 C   0  0  2  0  0  0  0  0  0  0  0  0
   -6.7940   20.4790  -32.0200 C   0  0  1  0  0  0  0  0  0  0  0  0
   -5.9470   20.4250  -33.3200 C   0  0  0  0  0  0  0  0  0  0  0  0
   -5.2750   19.1250  -33.5850 N   0  0  0  0  0  0  0  0  0  0  0  0
   -4.7040   18.4860  -32.3750 C   0  0  0  0  0  0  0  0  0  0  0  0
   -5.7850   17.8280  -31.4800 C   0  0  0  0  0  0  0  0  0  0  0  0
   -7.1320   17.9320  -32.0750 N   0  0  0  0  0  0  0  0  0  0  0  0
   -7.1080   17.4140  -33.4570 C   0  0  0  0  0  0  0  0  0  0  0  0
   -6.1290   18.1900  -34.3520 C   0  0  0  0  0  0  0  0  0  0  0  0
   -9.0935   21.5431  -30.4585 H   0  0  0  0  0  0  0  0  0  0  0  0
   -9.4278   22.7838  -31.7450 H   0  0  0  0  0  0  0  0  0  0  0  0
  -10.6927   20.4577  -31.7276 H   0  0  0  0  0  0  0  0  0  0  0  0
  -10.1031   21.2497  -33.2756 H   0  0  0  0  0  0  0  0  0  0  0  0
   -9.7032   18.6147  -32.5821 H   0  0  0  0  0  0  0  0  0  0  0  0
   -8.7236   19.6010  -33.7641 H   0  0  0  0  0  0  0  0  0  0  0  0
   -8.0696   19.2445  -30.8117 H   0  0  0  0  0  0  0  0  0  0  0  0
   -6.0803   20.4107  -31.1857 H   0  0  0  0  0  0  0  0  0  0  0  0
   -6.6120   20.6434  -34.1686 H   0  0  0  0  0  0  0  0  0  0  0  0
   -5.1422   21.1636  -33.1906 H   0  0  0  0  0  0  0  0  0  0  0  0
   -4.4630   19.3470  -34.2110 H   0  0  0  0  0  0  0  0  0  0  0  0
   -3.9888   17.7118  -32.6900 H   0  0  0  0  0  0  0  0  0  0  0  0
   -4.2157   19.2735  -31.7821 H   0  0  0  0  0  0  0  0  0  0  0  0
   -5.5367   16.7648  -31.3463 H   0  0  0  0  0  0  0  0  0  0  0  0
   -5.7970   18.3574  -30.5158 H   0  0  0  0  0  0  0  0  0  0  0  0
   -6.8046   16.3569  -33.4337 H   0  0  0  0  0  0  0  0  0  0  0  0
   -8.1169   17.5322  -33.8790 H   0  0  0  0  0  0  0  0  0  0  0  0
   -5.4821   17.4695  -34.8739 H   0  0  0  0  0  0  0  0  0  0  0  0
   -6.7248   18.7864  -35.0586 H   0  0  0  0  0  0  0  0  0  0  0  0
  1  2  2  0
  2  3  1  0
  3  4  1  0
  4  5  1  0
  5  6  1  0
  6  7  1  0
  7  8  1  0
  8  9  1  0
  9 10  1  0
 10 11  1  0
 11 12  1  0
 12 13  1  0
 13 14  1  0
  7  2  1  0
 14  9  1  0
 12  6  1  0
  3 15  1  0
  3 16  1  0
  4 17  1  0
  4 18  1  0
  5 19  1  0
  5 20  1  0
  6 21  1  1
  7 22  1  1
  8 23  1  0
  8 24  1  0
  9 25  1  0
 10 26  1  0
 10 27  1  0
 11 28  1  0
 11 29  1  0
 13 30  1  0
 13 31  1  0
 14 32  1  0
 14 33  1  0
M  CHG  1   9   1
M  END
>  <UniqueID>  (46) 
44

>  <SMILES>  (46) 
S=C1CCC[C@@H]2[C@H]1C[NH+]1CCN2CC1

>  <Energy>  (46) 
65.80522889080177

>  <Genealogy>  (46) 
S=C1CCCC2C1C[NH+]1CCN2CC1 (protonated)
S=C1CCC[C@@H]2[C@H]1C[NH+]1CCN2CC1 (chirality)
S=C1CCC[C@@H]2[C@H]1C[NH+]1CCN2CC1 (3D coordinates assigned)
S=C1CCC[C@@H]2[C@H]1C[NH+]1CCN2CC1 (nonaromatic ring conformer: 65.80522889080177 kcal/mol)

>  <smiles>  (46) 
S=C1CCCC2C1CN1CCN2CC1

>  <score_type>  (46) 
oracle

>  <origin>  (46) 
adg

>  <m_score__min__energy>  (46) 
-5.3200000000000003

>  <m_primary>  (46) 
energy

$$$$
46:0
     RDKit          3D

 46 49  0  0  0  0  0  0  0  0999 V2000
    4.0750   24.7070  -22.6670 C   0  0  0  0  0  0  0  0  0  0  0  0
    4.0960   24.5170  -24.0780 O   0  0  0  0  0  0  0  0  0  0  0  0
    2.9620   24.5620  -24.9040 C   0  0  0  0  0  0  0  0  0  0  0  0
    1.7030   24.9640  -24.4220 C   0  0  0  0  0  0  0  0  0  0  0  0
    0.5960   24.9980  -25.2720 C   0  0  0  0  0  0  0  0  0  0  0  0
    0.7240   24.6320  -26.6220 C   0  0  0  0  0  0  0  0  0  0  0  0
   -0.4380   24.6600  -27.5410 C   0  0  0  0  0  0  0  0  0  0  0  0
   -1.6250   23.9590  -27.4240 C   0  0  0  0  0  0  0  0  0  0  0  0
   -2.3480   24.3500  -28.5340 C   0  0  0  0  0  0  0  0  0  0  0  0
   -3.7040   23.9160  -28.9030 C   0  0  0  0  0  0  0  0  0  0  0  0
   -4.4960   23.5470  -27.9930 O   0  0  0  0  0  0  0  0  0  0  0  0
   -4.1430   23.9490  -30.2720 N   0  0  0  0  0  0  0  0  0  0  0  0
   -5.3100   23.2600  -30.7550 C   0  0  0  0  0  0  0  0  0  0  0  0
   -6.5390   23.9350  -30.7870 C   0  0  0  0  0  0  0  0  0  0  0  0
   -7.6880   23.3000  -31.2690 C   0  0  0  0  0  0  0  0  0  0  0  0
   -7.6190   21.9830  -31.7420 C   0  0  0  0  0  0  0  0  0  0  0  0
   -8.7660   21.3370  -32.2290 C   0  0  0  0  0  0  0  0  0  0  0  0
   -8.6830   20.0260  -32.7070 C   0  0  0  0  0  0  0  0  0  0  0  0
   -7.4580   19.3520  -32.7030 C   0  0  0  0  0  0  0  0  0  0  0  0
   -6.3080   19.9840  -32.2200 C   0  0  0  0  0  0  0  0  0  0  0  0
   -6.3790   21.2990  -31.7340 C   0  0  0  0  0  0  0  0  0  0  0  0
   -5.2320   21.9460  -31.2480 C   0  0  0  0  0  0  0  0  0  0  0  0
   -1.6270   25.2320  -29.2520 N   0  0  0  0  0  0  0  0  0  0  0  0
   -0.4940   25.3910  -28.6310 O   0  0  0  0  0  0  0  0  0  0  0  0
    1.9810   24.2310  -27.1040 C   0  0  0  0  0  0  0  0  0  0  0  0
    3.1010   24.1940  -26.2510 C   0  0  0  0  0  0  0  0  0  0  0  0
    4.3700   23.7980  -26.7030 O   0  0  0  0  0  0  0  0  0  0  0  0
    4.9850   24.2700  -27.8980 C   0  0  0  0  0  0  0  0  0  0  0  0
    4.1825   23.7344  -22.1644 H   0  0  0  0  0  0  0  0  0  0  0  0
    4.9058   25.3653  -22.3733 H   0  0  0  0  0  0  0  0  0  0  0  0
    3.1204   25.1680  -22.3733 H   0  0  0  0  0  0  0  0  0  0  0  0
    1.5899   25.2539  -23.3669 H   0  0  0  0  0  0  0  0  0  0  0  0
   -0.3829   25.3135  -24.8819 H   0  0  0  0  0  0  0  0  0  0  0  0
   -1.9230   23.2554  -26.6327 H   0  0  0  0  0  0  0  0  0  0  0  0
   -3.6480   24.5890  -30.9330 H   0  0  0  0  0  0  0  0  0  0  0  0
   -6.5997   24.9736  -30.4296 H   0  0  0  0  0  0  0  0  0  0  0  0
   -8.6486   23.8360  -31.2768 H   0  0  0  0  0  0  0  0  0  0  0  0
   -9.7319   21.8633  -32.2345 H   0  0  0  0  0  0  0  0  0  0  0  0
   -9.5843   19.5231  -33.0875 H   0  0  0  0  0  0  0  0  0  0  0  0
   -7.3987   18.3208  -33.0812 H   0  0  0  0  0  0  0  0  0  0  0  0
   -5.3463   19.4500  -32.2209 H   0  0  0  0  0  0  0  0  0  0  0  0
   -4.2654   21.4210  -31.2530 H   0  0  0  0  0  0  0  0  0  0  0  0
    2.0918   23.9426  -28.1597 H   0  0  0  0  0  0  0  0  0  0  0  0
    5.8335   24.9212  -27.6412 H   0  0  0  0  0  0  0  0  0  0  0  0
    5.3450   23.4141  -28.4878 H   0  0  0  0  0  0  0  0  0  0  0  0
    4.2514   24.8391  -28.4878 H   0  0  0  0  0  0  0  0  0  0  0  0
  1  2  1  0
  2  3  1  0
  3  4  2  0
  4  5  1  0
  5  6  2  0
  6  7  1  0
  7  8  2  0
  8  9  1  0
  9 10  1  0
 10 11  2  0
 10 12  1  0
 12 13  1  0
 13 14  2  0
 14 15  1  0
 15 16  2  0
 16 17  1  0
 17 18  2  0
 18 19  1  0
 19 20  2  0
 20 21  1  0
 21 22  2  0
  9 23  2  0
 23 24  1  0
  6 25  1  0
 25 26  2  0
 26 27  1  0
 27 28  1  0
 26  3  1  0
 24  7  1  0
 22 13  1  0
 21 16  1  0
  1 29  1  0
  1 30  1  0
  1 31  1  0
  4 32  1  0
  5 33  1  0
  8 34  1  0
 12 35  1  0
 14 36  1  0
 15 37  1  0
 17 38  1  0
 18 39  1  0
 19 40  1  0
 20 41  1  0
 22 42  1  0
 25 43  1  0
 28 44  1  0
 28 45  1  0
 28 46  1  0
M  END
>  <UniqueID>  (47) 
45

>  <SMILES>  (47) 
COc1ccc(-c2cc(C(=O)Nc3ccc4ccccc4c3)no2)cc1OC

>  <Energy>  (47) 
86.95865705116844

>  <Genealogy>  (47) 
COc1ccc(-c2cc(C(=O)Nc3ccc4ccccc4c3)no2)cc1OC (3D coordinates assigned)
COc1ccc(-c2cc(C(=O)Nc3ccc4ccccc4c3)no2)cc1OC (optimized conformer: 86.95865705116844 kcal/mol)

>  <smiles>  (47) 
COc1ccc(-c2cc(C(=O)Nc3ccc4ccccc4c3)no2)cc1OC

>  <score_type>  (47) 
oracle

>  <origin>  (47) 
adg

>  <m_score__min__energy>  (47) 
-8.6899999999999995

>  <m_primary>  (47) 
energy

$$$$
47:0
     RDKit          3D

 45 47  0  0  0  0  0  0  0  0999 V2000
   -1.4490   22.2370  -31.0880 O   0  0  0  0  0  0  0  0  0  0  0  0
   -2.3300   21.3920  -31.1690 C   0  0  0  0  0  0  0  0  0  0  0  0
   -3.0820   21.0560  -29.8910 C   0  0  0  0  0  0  0  0  0  0  0  0
   -3.6930   22.2690  -29.3070 N   0  0  0  0  0  0  0  0  0  0  0  0
   -2.7420   23.0090  -28.4430 C   0  0  0  0  0  0  0  0  0  0  0  0
   -2.1420   24.2280  -29.1640 C   0  0  0  0  0  0  0  0  0  0  0  0
   -3.1180   25.1700  -29.5870 O   0  0  0  0  0  0  0  0  0  0  0  0
   -4.3730   24.5870  -29.9130 C   0  0  0  0  0  0  0  0  0  0  0  0
   -4.2760   23.1210  -30.3690 C   0  0  0  0  0  0  0  0  0  0  0  0
   -2.4790   20.6500  -32.4230 N   0  0  0  0  0  0  0  0  0  0  0  0
   -3.1740   19.3530  -32.3390 C   0  0  0  0  0  0  0  0  0  0  0  0
   -4.7020   19.4610  -32.1160 C   0  0  0  0  0  0  0  0  0  0  0  0
   -5.3350   20.7380  -32.5290 N   0  0  0  0  0  0  0  0  0  0  0  0
   -6.7740   20.9100  -32.3160 C   0  0  0  0  0  0  0  0  0  0  0  0
   -7.6490   19.7960  -32.3810 C   0  0  0  0  0  0  0  0  0  0  0  0
   -9.0270   19.9440  -32.2030 C   0  0  0  0  0  0  0  0  0  0  0  0
   -9.5710   21.2000  -31.9540 C   0  0  0  0  0  0  0  0  0  0  0  0
   -8.7380   22.3120  -31.8670 C   0  0  0  0  0  0  0  0  0  0  0  0
   -7.3570   22.1810  -32.0400 C   0  0  0  0  0  0  0  0  0  0  0  0
   -6.6170   23.3080  -31.9050 F   0  0  0  0  0  0  0  0  0  0  0  0
   -4.5430   21.8500  -33.0920 C   0  0  0  0  0  0  0  0  0  0  0  0
   -3.1200   21.4520  -33.4770 C   0  0  0  0  0  0  0  0  0  0  0  0
   -3.8739   20.3276  -30.1195 H   0  0  0  0  0  0  0  0  0  0  0  0
   -2.3718   20.6343  -29.1645 H   0  0  0  0  0  0  0  0  0  0  0  0
   -3.2729   23.3536  -27.5433 H   0  0  0  0  0  0  0  0  0  0  0  0
   -1.9186   22.3283  -28.1809 H   0  0  0  0  0  0  0  0  0  0  0  0
   -1.4459   24.7317  -28.4771 H   0  0  0  0  0  0  0  0  0  0  0  0
   -1.6375   23.8551  -30.0675 H   0  0  0  0  0  0  0  0  0  0  0  0
   -5.0179   24.6316  -29.0230 H   0  0  0  0  0  0  0  0  0  0  0  0
   -4.7826   25.1594  -30.7583 H   0  0  0  0  0  0  0  0  0  0  0  0
   -5.2838   22.7530  -30.6118 H   0  0  0  0  0  0  0  0  0  0  0  0
   -3.6230   23.0728  -31.2529 H   0  0  0  0  0  0  0  0  0  0  0  0
   -1.5050   20.4460  -32.7500 H   0  0  0  0  0  0  0  0  0  0  0  0
   -3.0009   18.8082  -33.2788 H   0  0  0  0  0  0  0  0  0  0  0  0
   -2.7640   18.8328  -31.4608 H   0  0  0  0  0  0  0  0  0  0  0  0
   -5.1822   18.6496  -32.6826 H   0  0  0  0  0  0  0  0  0  0  0  0
   -4.8460   19.3993  -31.0272 H   0  0  0  0  0  0  0  0  0  0  0  0
   -7.2348   18.7957  -32.5754 H   0  0  0  0  0  0  0  0  0  0  0  0
   -9.6843   19.0639  -32.2600 H   0  0  0  0  0  0  0  0  0  0  0  0
  -10.6575   21.3142  -31.8261 H   0  0  0  0  0  0  0  0  0  0  0  0
   -9.1702   23.3022  -31.6604 H   0  0  0  0  0  0  0  0  0  0  0  0
   -5.0557   22.2219  -33.9914 H   0  0  0  0  0  0  0  0  0  0  0  0
   -4.4629   22.6184  -32.3089 H   0  0  0  0  0  0  0  0  0  0  0  0
   -3.1528   20.8618  -34.4047 H   0  0  0  0  0  0  0  0  0  0  0  0
   -2.5313   22.3706  -33.6170 H   0  0  0  0  0  0  0  0  0  0  0  0
  1  2  2  0
  2  3  1  0
  3  4  1  0
  4  5  1  0
  5  6  1  0
  6  7  1  0
  7  8  1  0
  8  9  1  0
  2 10  1  0
 10 11  1  0
 11 12  1  0
 12 13  1  0
 13 14  1  0
 14 15  2  0
 15 16  1  0
 16 17  2  0
 17 18  1  0
 18 19  2  0
 19 20  1  0
 13 21  1  0
 21 22  1  0
  9  4  1  0
 22 10  1  0
 19 14  1  0
  3 23  1  0
  3 24  1  0
  5 25  1  0
  5 26  1  0
  6 27  1  0
  6 28  1  0
  8 29  1  0
  8 30  1  0
  9 31  1  0
  9 32  1  0
 10 33  1  0
 11 34  1  0
 11 35  1  0
 12 36  1  0
 12 37  1  0
 15 38  1  0
 16 39  1  0
 17 40  1  0
 18 41  1  0
 21 42  1  0
 21 43  1  0
 22 44  1  0
 22 45  1  0
M  CHG  1  10   1
M  END
>  <UniqueID>  (48) 
46

>  <SMILES>  (48) 
O=C(CN1CCOCC1)[NH+]1CCN(c2ccccc2F)CC1

>  <Energy>  (48) 
78.47024025998998

>  <Genealogy>  (48) 
O=C(CN1CCOCC1)[NH+]1CCN(c2ccccc2F)CC1 (protonated)
O=C(CN1CCOCC1)[NH+]1CCN(c2ccccc2F)CC1 (3D coordinates assigned)
O=C(CN1CCOCC1)[NH+]1CCN(c2ccccc2F)CC1 (nonaromatic ring conformer: 78.47024025998998 kcal/mol)

>  <smiles>  (48) 
O=C(CN1CCOCC1)N1CCN(c2ccccc2F)CC1

>  <score_type>  (48) 
oracle

>  <origin>  (48) 
adg

>  <m_score__min__energy>  (48) 
-6.6299999999999999

>  <m_primary>  (48) 
energy

$$$$
48:0
     RDKit          3D

 29 31  0  0  0  0  0  0  0  0999 V2000
   -5.6070   23.1120  -29.8660 O   0  0  0  0  0  0  0  0  0  0  0  0
   -4.9990   23.4510  -31.1980 S   0  0  0  0  0  0  0  0  0  0  0  0
   -4.6140   24.9050  -31.2160 O   0  0  0  0  0  0  0  0  0  0  0  0
   -6.1540   23.1480  -32.4550 N   0  0  0  0  0  0  0  0  0  0  0  0
   -7.1950   22.1650  -32.3190 C   0  0  0  0  0  0  0  0  0  0  0  0
   -8.4630   22.5550  -31.8530 C   0  0  0  0  0  0  0  0  0  0  0  0
   -9.4820   21.6170  -31.6830 C   0  0  0  0  0  0  0  0  0  0  0  0
   -9.2540   20.2730  -31.9700 C   0  0  0  0  0  0  0  0  0  0  0  0
   -8.0060   19.8570  -32.4400 C   0  0  0  0  0  0  0  0  0  0  0  0
   -7.8010   18.5450  -32.7300 N   0  0  0  0  0  0  0  0  0  0  0  0
   -6.6130   18.0920  -33.2080 C   0  0  0  0  0  0  0  0  0  0  0  0
   -5.5620   18.9820  -33.4250 C   0  0  0  0  0  0  0  0  0  0  0  0
   -5.7360   20.3370  -33.1390 C   0  0  0  0  0  0  0  0  0  0  0  0
   -6.9630   20.8000  -32.6250 C   0  0  0  0  0  0  0  0  0  0  0  0
   -3.5810   22.4490  -31.4430 C   0  0  0  0  0  0  0  0  0  0  0  0
   -2.6970   22.0500  -30.4630 C   0  0  0  0  0  0  0  0  0  0  0  0
   -1.7400   21.3000  -31.1130 C   0  0  0  0  0  0  0  0  0  0  0  0
   -2.1070   21.2930  -32.4440 C   0  0  0  0  0  0  0  0  0  0  0  0
   -1.1650   20.4180  -33.8510 Br  0  0  0  0  0  0  0  0  0  0  0  0
   -3.2090   21.9840  -32.6130 O   0  0  0  0  0  0  0  0  0  0  0  0
   -6.1010   23.7460  -33.3080 H   0  0  0  0  0  0  0  0  0  0  0  0
   -8.6541   23.6128  -31.6195 H   0  0  0  0  0  0  0  0  0  0  0  0
  -10.4692   21.9401  -31.3210 H   0  0  0  0  0  0  0  0  0  0  0  0
  -10.0590   19.5372  -31.8261 H   0  0  0  0  0  0  0  0  0  0  0  0
   -6.4800   17.0217  -33.4241 H   0  0  0  0  0  0  0  0  0  0  0  0
   -4.6015   18.6185  -33.8192 H   0  0  0  0  0  0  0  0  0  0  0  0
   -4.9129   21.0451  -33.3154 H   0  0  0  0  0  0  0  0  0  0  0  0
   -2.7451   22.2814  -29.3887 H   0  0  0  0  0  0  0  0  0  0  0  0
   -0.8645   20.8085  -30.6637 H   0  0  0  0  0  0  0  0  0  0  0  0
  1  2  2  0
  2  3  2  0
  2  4  1  0
  4  5  1  0
  5  6  2  0
  6  7  1  0
  7  8  2  0
  8  9  1  0
  9 10  2  0
 10 11  1  0
 11 12  2  0
 12 13  1  0
 13 14  2  0
  2 15  1  0
 15 16  2  0
 16 17  1  0
 17 18  2  0
 18 19  1  0
 18 20  1  0
 14  5  1  0
 20 15  1  0
 14  9  1  0
  4 21  1  0
  6 22  1  0
  7 23  1  0
  8 24  1  0
 11 25  1  0
 12 26  1  0
 13 27  1  0
 16 28  1  0
 17 29  1  0
M  END
>  <UniqueID>  (49) 
47

>  <SMILES>  (49) 
O=S(=O)(Nc1cccc2ncccc12)c1ccc(Br)o1

>  <Energy>  (49) 
66.9835049986616

>  <Genealogy>  (49) 
O=S(=O)(Nc1cccc2ncccc12)c1ccc(Br)o1 (3D coordinates assigned)
O=S(=O)(Nc1cccc2ncccc12)c1ccc(Br)o1 (optimized conformer: 66.9835049986616 kcal/mol)

>  <smiles>  (49) 
O=S(=O)(Nc1cccc2ncccc12)c1ccc(Br)o1

>  <score_type>  (49) 
oracle

>  <origin>  (49) 
adg

>  <m_score__min__energy>  (49) 
-8.5299999999999994

>  <m_primary>  (49) 
energy

$$$$
