0:0
     RDKit          3D

 36 38  0  0  0  0  0  0  0  0999 V2000
   -1.9040   21.2020  -32.5170 C   0  0  0  0  0  0  0  0  0  0  0  0
   -3.2480   21.8950  -32.3020 C   0  0  0  0  0  0  0  0  0  0  0  0
   -4.1280   21.7070  -33.4660 N   0  0  0  0  0  0  0  0  0  0  0  0
   -5.2760   20.8850  -33.1100 C   0  0  0  0  0  0  0  0  0  0  0  0
   -6.4350   21.4700  -32.5340 C   0  0  0  0  0  0  0  0  0  0  0  0
   -6.4740   22.8380  -32.1650 C   0  0  0  0  0  0  0  0  0  0  0  0
   -7.6460   23.4240  -31.6960 C   0  0  0  0  0  0  0  0  0  0  0  0
   -8.8050   22.6700  -31.5860 C   0  0  0  0  0  0  0  0  0  0  0  0
   -8.7840   21.3120  -31.8910 C   0  0  0  0  0  0  0  0  0  0  0  0
   -7.5910   20.6690  -32.3150 C   0  0  0  0  0  0  0  0  0  0  0  0
   -7.5470   19.3050  -32.5200 N   0  0  0  0  0  0  0  0  0  0  0  0
   -8.6400   18.4460  -32.0070 C   0  0  0  0  0  0  0  0  0  0  0  0
   -6.4610   18.7310  -33.1510 C   0  0  0  0  0  0  0  0  0  0  0  0
   -6.4910   17.3810  -33.5880 C   0  0  0  0  0  0  0  0  0  0  0  0
   -5.3650   16.7720  -34.1320 C   0  0  0  0  0  0  0  0  0  0  0  0
   -4.1820   17.4860  -34.2600 C   0  0  0  0  0  0  0  0  0  0  0  0
   -4.1350   18.8290  -33.8960 C   0  0  0  0  0  0  0  0  0  0  0  0
   -5.2810   19.4920  -33.3880 C   0  0  0  0  0  0  0  0  0  0  0  0
   -1.4516   20.9687  -31.5418 H   0  0  0  0  0  0  0  0  0  0  0  0
   -2.0578   20.2708  -33.0820 H   0  0  0  0  0  0  0  0  0  0  0  0
   -1.2346   21.8674  -33.0820 H   0  0  0  0  0  0  0  0  0  0  0  0
   -3.7337   21.4703  -31.4111 H   0  0  0  0  0  0  0  0  0  0  0  0
   -3.0702   22.9720  -32.1662 H   0  0  0  0  0  0  0  0  0  0  0  0
   -4.4300   22.6300  -33.8480 H   0  0  0  0  0  0  0  0  0  0  0  0
   -3.5980   21.2900  -34.2630 H   0  0  0  0  0  0  0  0  0  0  0  0
   -5.5621   23.4471  -32.2508 H   0  0  0  0  0  0  0  0  0  0  0  0
   -7.6532   24.4867  -31.4121 H   0  0  0  0  0  0  0  0  0  0  0  0
   -9.7411   23.1453  -31.2576 H   0  0  0  0  0  0  0  0  0  0  0  0
   -9.7101   20.7252  -31.8018 H   0  0  0  0  0  0  0  0  0  0  0  0
   -8.6282   18.4553  -30.9071 H   0  0  0  0  0  0  0  0  0  0  0  0
   -9.6066   18.8287  -32.3665 H   0  0  0  0  0  0  0  0  0  0  0  0
   -8.4966   17.4163  -32.3665 H   0  0  0  0  0  0  0  0  0  0  0  0
   -7.4234   16.8048  -33.4946 H   0  0  0  0  0  0  0  0  0  0  0  0
   -5.4123   15.7234  -34.4611 H   0  0  0  0  0  0  0  0  0  0  0  0
   -3.2805   16.9904  -34.6494 H   0  0  0  0  0  0  0  0  0  0  0  0
   -3.1924   19.3856  -34.0044 H   0  0  0  0  0  0  0  0  0  0  0  0
  1  2  1  0
  2  3  1  0
  3  4  1  0
  4  5  2  0
  5  6  1  0
  6  7  2  0
  7  8  1  0
  8  9  2  0
  9 10  1  0
 10 11  2  0
 11 12  1  0
 11 13  1  0
 13 14  2  0
 14 15  1  0
 15 16  2  0
 16 17  1  0
 17 18  2  0
 18  4  1  0
 10  5  1  0
 18 13  1  0
  1 19  1  0
  1 20  1  0
  1 21  1  0
  2 22  1  0
  2 23  1  0
  3 24  1  0
  3 25  1  0
  6 26  1  0
  7 27  1  0
  8 28  1  0
  9 29  1  0
 12 30  1  0
 12 31  1  0
 12 32  1  0
 14 33  1  0
 15 34  1  0
 16 35  1  0
 17 36  1  0
M  CHG  2   3   1  11   1
M  END
>  <UniqueID>  (1) 
1

>  <SMILES>  (1) 
CC[NH2+]c1c2ccccc2[n+](C)c2ccccc12

>  <Energy>  (1) 
64.1053345788998

>  <Genealogy>  (1) 
CC[NH2+]c1c2ccccc2[n+](C)c2ccccc12 (protonated)
CC[NH2+]c1c2ccccc2[n+](C)c2ccccc12 (3D coordinates assigned)
CC[NH2+]c1c2ccccc2[n+](C)c2ccccc12 (optimized conformer: 64.1053345788998 kcal/mol)

>  <smiles>  (1) 
CCNc1c2ccccc2[n+](C)c2ccccc12

>  <score_type>  (1) 
oracle

>  <origin>  (1) 
adg

>  <m_score__min__energy>  (1) 
-6.5999999999999996

>  <m_primary>  (1) 
energy

$$$$
1:0
     RDKit          3D

 49 51  0  0  0  0  0  0  0  0999 V2000
   -4.6100   15.4990  -32.5630 C   0  0  0  0  0  0  0  0  0  0  0  0
   -4.4300   16.3120  -33.8390 C   0  0  0  0  0  0  0  0  0  0  0  0
   -4.7490   17.7210  -33.5950 N   0  0  0  0  0  0  0  0  0  0  0  0
   -5.9500   18.2350  -33.2310 C   0  0  0  0  0  0  0  0  0  0  0  0
   -5.8670   19.6020  -33.0530 C   0  0  0  0  0  0  0  0  0  0  0  0
   -4.5470   19.9350  -33.2600 C   0  0  0  0  0  0  0  0  0  0  0  0
   -3.8820   21.1560  -33.1570 C   0  0  0  0  0  0  0  0  0  0  0  0
   -2.5000   21.1720  -33.4120 C   0  0  0  0  0  0  0  0  0  0  0  0
   -1.8210   19.9820  -33.7530 C   0  0  0  0  0  0  0  0  0  0  0  0
   -2.5160   18.7620  -33.8420 C   0  0  0  0  0  0  0  0  0  0  0  0
   -3.8910   18.7690  -33.5900 C   0  0  0  0  0  0  0  0  0  0  0  0
   -7.0090   20.4400  -32.5680 C   0  0  0  0  0  0  0  0  0  0  0  0
   -8.2940   19.7430  -32.8300 N   0  0  2  0  0  0  0  0  0  0  0  0
   -9.4650   20.5160  -32.3460 C   0  0  0  0  0  0  0  0  0  0  0  0
   -9.1400   21.5990  -31.2920 C   0  0  0  0  0  0  0  0  0  0  0  0
   -8.8020   22.9350  -31.9690 C   0  0  0  0  0  0  0  0  0  0  0  0
   -7.6250   23.5620  -31.3280 N   0  0  0  0  0  0  0  0  0  0  0  0
   -6.5000   23.6690  -32.2730 C   0  0  0  0  0  0  0  0  0  0  0  0
   -7.2040   22.7760  -30.1560 C   0  0  0  0  0  0  0  0  0  0  0  0
   -8.2750   18.3440  -32.3230 C   0  0  0  0  0  0  0  0  0  0  0  0
   -7.2420   17.4830  -33.0870 C   0  0  0  0  0  0  0  0  0  0  0  0
   -4.4656   16.1513  -31.6892 H   0  0  0  0  0  0  0  0  0  0  0  0
   -5.6241   15.0735  -32.5393 H   0  0  0  0  0  0  0  0  0  0  0  0
   -3.8703   14.6852  -32.5393 H   0  0  0  0  0  0  0  0  0  0  0  0
   -3.3865   16.2297  -34.1772 H   0  0  0  0  0  0  0  0  0  0  0  0
   -5.1090   15.9205  -34.6108 H   0  0  0  0  0  0  0  0  0  0  0  0
   -4.4208   22.0757  -32.8853 H   0  0  0  0  0  0  0  0  0  0  0  0
   -1.9434   22.1184  -33.3454 H   0  0  0  0  0  0  0  0  0  0  0  0
   -0.7393   20.0090  -33.9508 H   0  0  0  0  0  0  0  0  0  0  0  0
   -1.9928   17.8300  -34.1022 H   0  0  0  0  0  0  0  0  0  0  0  0
   -6.9015   20.6127  -31.4870 H   0  0  0  0  0  0  0  0  0  0  0  0
   -7.0038   21.4025  -33.1005 H   0  0  0  0  0  0  0  0  0  0  0  0
   -8.4070   19.6930  -33.8730 H   0  0  0  0  0  0  0  0  0  0  0  0
   -9.9295   21.0105  -33.2119 H   0  0  0  0  0  0  0  0  0  0  0  0
  -10.1285   19.7923  -31.8499 H   0  0  0  0  0  0  0  0  0  0  0  0
  -10.0124   21.7375  -30.6365 H   0  0  0  0  0  0  0  0  0  0  0  0
   -8.2689   21.2705  -30.7061 H   0  0  0  0  0  0  0  0  0  0  0  0
   -8.5820   22.7560  -33.0318 H   0  0  0  0  0  0  0  0  0  0  0  0
   -9.6632   23.6116  -31.8668 H   0  0  0  0  0  0  0  0  0  0  0  0
   -5.5577   23.7586  -31.7126 H   0  0  0  0  0  0  0  0  0  0  0  0
   -6.4661   22.7700  -32.9060 H   0  0  0  0  0  0  0  0  0  0  0  0
   -6.6362   24.5582  -32.9060 H   0  0  0  0  0  0  0  0  0  0  0  0
   -7.4889   23.3079  -29.2362 H   0  0  0  0  0  0  0  0  0  0  0  0
   -7.6960   21.7924  -30.1782 H   0  0  0  0  0  0  0  0  0  0  0  0
   -6.1126   22.6406  -30.1782 H   0  0  0  0  0  0  0  0  0  0  0  0
   -8.0132   18.3536  -31.2547 H   0  0  0  0  0  0  0  0  0  0  0  0
   -9.2725   17.9060  -32.4755 H   0  0  0  0  0  0  0  0  0  0  0  0
   -7.0610   16.5520  -32.5299 H   0  0  0  0  0  0  0  0  0  0  0  0
   -7.6365   17.2497  -34.0870 H   0  0  0  0  0  0  0  0  0  0  0  0
  1  2  1  0
  2  3  1  0
  3  4  1  0
  4  5  2  0
  5  6  1  0
  6  7  2  0
  7  8  1  0
  8  9  2  0
  9 10  1  0
 10 11  2  0
  5 12  1  0
 12 13  1  0
 13 14  1  0
 14 15  1  0
 15 16  1  0
 16 17  1  0
 17 18  1  0
 17 19  1  0
 13 20  1  0
 20 21  1  0
 11  3  1  0
 21  4  1  0
 11  6  1  0
  1 22  1  0
  1 23  1  0
  1 24  1  0
  2 25  1  0
  2 26  1  0
  7 27  1  0
  8 28  1  0
  9 29  1  0
 10 30  1  0
 12 31  1  0
 12 32  1  0
 13 33  1  6
 14 34  1  0
 14 35  1  0
 15 36  1  0
 15 37  1  0
 16 38  1  0
 16 39  1  0
 18 40  1  0
 18 41  1  0
 18 42  1  0
 19 43  1  0
 19 44  1  0
 19 45  1  0
 20 46  1  0
 20 47  1  0
 21 48  1  0
 21 49  1  0
M  CHG  1  13   1
M  END
>  <UniqueID>  (2) 
2

>  <SMILES>  (2) 
CCn1c2c(c3ccccc31)C[N@H+](CCCN(C)C)CC2

>  <Energy>  (2) 
85.90262347475704

>  <Genealogy>  (2) 
CCn1c2c(c3ccccc31)C[NH+](CCCN(C)C)CC2 (protonated)
CCn1c2c(c3ccccc31)C[N@H+](CCCN(C)C)CC2 (chirality)
CCn1c2c(c3ccccc31)C[N@H+](CCCN(C)C)CC2 (3D coordinates assigned)
CCn1c2c(c3ccccc31)C[N@H+](CCCN(C)C)CC2 (nonaromatic ring conformer: 85.90262347475704 kcal/mol)

>  <smiles>  (2) 
CCn1c2c(c3ccccc31)CN(CCCN(C)C)CC2

>  <score_type>  (2) 
oracle

>  <origin>  (2) 
adg

>  <m_score__min__energy>  (2) 
-7.1100000000000003

>  <m_primary>  (2) 
energy

$$$$
2:0
     RDKit          3D

 46 48  0  0  0  0  0  0  0  0999 V2000
   -6.3280   25.4210  -29.4810 C   0  0  0  0  0  0  0  0  0  0  0  0
   -5.7470   25.6980  -30.8630 C   0  0  0  0  0  0  0  0  0  0  0  0
   -4.2920   25.5130  -30.8440 N   0  0  0  0  0  0  0  0  0  0  0  0
   -3.9180   24.5260  -29.8220 C   0  0  0  0  0  0  0  0  0  0  0  0
   -3.8860   23.1120  -30.4110 C   0  0  0  0  0  0  0  0  0  0  0  0
   -4.5690   23.0580  -31.7050 N   0  0  0  0  0  0  0  0  0  0  0  0
   -4.9270   21.8020  -32.3090 C   0  0  0  0  0  0  0  0  0  0  0  0
   -6.2470   21.3260  -32.2260 C   0  0  0  0  0  0  0  0  0  0  0  0
   -7.2590   22.0860  -31.5980 C   0  0  0  0  0  0  0  0  0  0  0  0
   -8.5610   21.5990  -31.5060 C   0  0  0  0  0  0  0  0  0  0  0  0
   -8.8800   20.3550  -32.0400 C   0  0  0  0  0  0  0  0  0  0  0  0
   -7.9050   19.6040  -32.6960 C   0  0  0  0  0  0  0  0  0  0  0  0
   -6.5780   20.0830  -32.8260 C   0  0  0  0  0  0  0  0  0  0  0  0
   -5.6250   19.3770  -33.5290 N   0  0  0  0  0  0  0  0  0  0  0  0
   -6.0720   18.4120  -34.5560 C   0  0  0  0  0  0  0  0  0  0  0  0
   -4.2880   19.7170  -33.4210 C   0  0  0  0  0  0  0  0  0  0  0  0
   -3.2230   18.8240  -33.7720 C   0  0  0  0  0  0  0  0  0  0  0  0
   -3.3910   17.3280  -33.8780 C   0  0  0  0  0  0  0  0  0  0  0  0
   -1.9140   19.3190  -33.8840 C   0  0  0  0  0  0  0  0  0  0  0  0
   -1.6190   20.6320  -33.5450 C   0  0  0  0  0  0  0  0  0  0  0  0
   -2.6110   21.4580  -33.0310 C   0  0  0  0  0  0  0  0  0  0  0  0
   -3.9410   21.0050  -32.9240 C   0  0  0  0  0  0  0  0  0  0  0  0
   -5.6191   25.7590  -28.7108 H   0  0  0  0  0  0  0  0  0  0  0  0
   -7.2786   25.9628  -29.3675 H   0  0  0  0  0  0  0  0  0  0  0  0
   -6.5055   24.3414  -29.3675 H   0  0  0  0  0  0  0  0  0  0  0  0
   -6.1926   25.0040  -31.5909 H   0  0  0  0  0  0  0  0  0  0  0  0
   -5.9745   26.7358  -31.1480 H   0  0  0  0  0  0  0  0  0  0  0  0
   -3.8620   26.4320  -30.5900 H   0  0  0  0  0  0  0  0  0  0  0  0
   -2.9211   24.7748  -29.4292 H   0  0  0  0  0  0  0  0  0  0  0  0
   -4.6670   24.5537  -29.0169 H   0  0  0  0  0  0  0  0  0  0  0  0
   -2.8387   22.8038  -30.5457 H   0  0  0  0  0  0  0  0  0  0  0  0
   -4.4052   22.4352  -29.7164 H   0  0  0  0  0  0  0  0  0  0  0  0
   -4.6120   23.9230  -32.2870 H   0  0  0  0  0  0  0  0  0  0  0  0
   -7.0163   23.0729  -31.1772 H   0  0  0  0  0  0  0  0  0  0  0  0
   -9.3380   22.1993  -31.0102 H   0  0  0  0  0  0  0  0  0  0  0  0
   -9.9033   19.9627  -31.9447 H   0  0  0  0  0  0  0  0  0  0  0  0
   -8.1705   18.6240  -33.1193 H   0  0  0  0  0  0  0  0  0  0  0  0
   -6.4857   17.5190  -34.0647 H   0  0  0  0  0  0  0  0  0  0  0  0
   -6.8464   18.8770  -35.1837 H   0  0  0  0  0  0  0  0  0  0  0  0
   -5.2165   18.1220  -35.1837 H   0  0  0  0  0  0  0  0  0  0  0  0
   -3.4399   16.8921  -32.8692 H   0  0  0  0  0  0  0  0  0  0  0  0
   -4.3203   17.1009  -34.4210 H   0  0  0  0  0  0  0  0  0  0  0  0
   -2.5352   16.9005  -34.4210 H   0  0  0  0  0  0  0  0  0  0  0  0
   -1.1123   18.6579  -34.2449 H   0  0  0  0  0  0  0  0  0  0  0  0
   -0.5987   21.0192  -33.6834 H   0  0  0  0  0  0  0  0  0  0  0  0
   -2.3553   22.4767  -32.7040 H   0  0  0  0  0  0  0  0  0  0  0  0
  1  2  1  0
  2  3  1  0
  3  4  1  0
  4  5  1  0
  5  6  1  0
  6  7  1  0
  7  8  2  0
  8  9  1  0
  9 10  2  0
 10 11  1  0
 11 12  2  0
 12 13  1  0
 13 14  2  0
 14 15  1  0
 14 16  1  0
 16 17  2  0
 17 18  1  0
 17 19  1  0
 19 20  2  0
 20 21  1  0
 21 22  2  0
 22  7  1  0
 13  8  1  0
 22 16  1  0
  1 23  1  0
  1 24  1  0
  1 25  1  0
  2 26  1  0
  2 27  1  0
  3 28  1  0
  4 29  1  0
  4 30  1  0
  5 31  1  0
  5 32  1  0
  6 33  1  0
  9 34  1  0
 10 35  1  0
 11 36  1  0
 12 37  1  0
 15 38  1  0
 15 39  1  0
 15 40  1  0
 18 41  1  0
 18 42  1  0
 18 43  1  0
 19 44  1  0
 20 45  1  0
 21 46  1  0
M  CHG  1  14   1
M  END
>  <UniqueID>  (3) 
3

>  <SMILES>  (3) 
CCNCCNc1c2ccccc2[n+](C)c2c(C)cccc12

>  <Energy>  (3) 
77.37973820474559

>  <Genealogy>  (3) 
CCNCCNc1c2ccccc2[n+](C)c2c(C)cccc12 (3D coordinates assigned)
CCNCCNc1c2ccccc2[n+](C)c2c(C)cccc12 (optimized conformer: 77.37973820474559 kcal/mol)

>  <smiles>  (3) 
CCNCCNc1c2ccccc2[n+](C)c2c(C)cccc12

>  <score_type>  (3) 
oracle

>  <origin>  (3) 
adg

>  <m_score__min__energy>  (3) 
-8.7599999999999998

>  <m_primary>  (3) 
energy

$$$$
3:0
     RDKit          3D

 58 59  0  0  0  0  0  0  0  0999 V2000
   -4.9770   24.5370  -29.0860 C   0  0  0  0  0  0  0  0  0  0  0  0
   -5.0850   25.1830  -30.4620 C   0  0  0  0  0  0  0  0  0  0  0  0
   -5.0930   24.1680  -31.4590 O   0  0  0  0  0  0  0  0  0  0  0  0
   -6.0090   23.1030  -31.5210 C   0  0  0  0  0  0  0  0  0  0  0  0
   -7.2810   23.2030  -30.9400 C   0  0  0  0  0  0  0  0  0  0  0  0
   -8.1870   22.1560  -31.0320 C   0  0  0  0  0  0  0  0  0  0  0  0
   -7.8410   20.9750  -31.6940 C   0  0  0  0  0  0  0  0  0  0  0  0
   -8.7760   19.9310  -31.7700 C   0  0  0  0  0  0  0  0  0  0  0  0
   -8.4540   18.7450  -32.4240 C   0  0  0  0  0  0  0  0  0  0  0  0
   -7.2020   18.5900  -33.0100 C   0  0  0  0  0  0  0  0  0  0  0  0
   -6.2610   19.6190  -32.9500 C   0  0  0  0  0  0  0  0  0  0  0  0
   -6.5560   20.8360  -32.2890 C   0  0  0  0  0  0  0  0  0  0  0  0
   -5.6300   21.9200  -32.2000 C   0  0  0  0  0  0  0  0  0  0  0  0
   -4.2660   21.9140  -32.8700 C   0  0  0  0  0  0  0  0  0  0  0  0
   -3.2290   22.4290  -31.9620 N   0  0  0  0  0  0  0  0  0  0  0  0
   -2.0890   21.5080  -31.8150 C   0  0  0  0  0  0  0  0  0  0  0  0
   -1.8250   21.2290  -30.3370 C   0  0  0  0  0  0  0  0  0  0  0  0
   -3.0520   20.9600  -29.6940 O   0  0  0  0  0  0  0  0  0  0  0  0
   -3.1970   21.7770  -28.5500 C   0  0  0  0  0  0  0  0  0  0  0  0
   -2.3630   21.2120  -27.3820 C   0  0  0  0  0  0  0  0  0  0  0  0
   -1.9690   19.7750  -27.5010 N   0  0  0  0  0  0  0  0  0  0  0  0
   -2.3780   18.9400  -26.3410 C   0  0  0  0  0  0  0  0  0  0  0  0
   -3.8710   18.5920  -26.3360 C   0  0  0  0  0  0  0  0  0  0  0  0
   -0.5230   19.5630  -27.7660 C   0  0  0  0  0  0  0  0  0  0  0  0
   -0.1270   18.0850  -27.8660 C   0  0  0  0  0  0  0  0  0  0  0  0
   -5.1054   25.3052  -28.3092 H   0  0  0  0  0  0  0  0  0  0  0  0
   -5.7597   23.7717  -28.9778 H   0  0  0  0  0  0  0  0  0  0  0  0
   -3.9880   24.0679  -28.9778 H   0  0  0  0  0  0  0  0  0  0  0  0
   -6.0165   25.7649  -30.5226 H   0  0  0  0  0  0  0  0  0  0  0  0
   -4.2264   25.8513  -30.6236 H   0  0  0  0  0  0  0  0  0  0  0  0
   -7.5640   24.1217  -30.4053 H   0  0  0  0  0  0  0  0  0  0  0  0
   -9.1850   22.2564  -30.5805 H   0  0  0  0  0  0  0  0  0  0  0  0
   -9.7682   20.0505  -31.3105 H   0  0  0  0  0  0  0  0  0  0  0  0
   -9.1904   17.9296  -32.4774 H   0  0  0  0  0  0  0  0  0  0  0  0
   -6.9519   17.6502  -33.5241 H   0  0  0  0  0  0  0  0  0  0  0  0
   -5.2770   19.4828  -33.4225 H   0  0  0  0  0  0  0  0  0  0  0  0
   -4.0117   20.8834  -33.1585 H   0  0  0  0  0  0  0  0  0  0  0  0
   -4.3088   22.5636  -33.7567 H   0  0  0  0  0  0  0  0  0  0  0  0
   -3.6730   22.5520  -31.0230 H   0  0  0  0  0  0  0  0  0  0  0  0
   -2.3171   20.5623  -32.3284 H   0  0  0  0  0  0  0  0  0  0  0  0
   -1.1946   21.9695  -32.2590 H   0  0  0  0  0  0  0  0  0  0  0  0
   -1.1588   20.3591  -30.2391 H   0  0  0  0  0  0  0  0  0  0  0  0
   -1.3464   22.1042  -29.8733 H   0  0  0  0  0  0  0  0  0  0  0  0
   -2.8513   22.7947  -28.7842 H   0  0  0  0  0  0  0  0  0  0  0  0
   -4.2569   21.7983  -28.2565 H   0  0  0  0  0  0  0  0  0  0  0  0
   -1.4425   21.8093  -27.3043 H   0  0  0  0  0  0  0  0  0  0  0  0
   -3.0108   21.2723  -26.4950 H   0  0  0  0  0  0  0  0  0  0  0  0
   -2.4790   19.3970  -28.3360 H   0  0  0  0  0  0  0  0  0  0  0  0
   -1.8020   18.0032  -26.3657 H   0  0  0  0  0  0  0  0  0  0  0  0
   -2.1790   19.5275  -25.4325 H   0  0  0  0  0  0  0  0  0  0  0  0
   -4.2248   18.5095  -25.2977 H   0  0  0  0  0  0  0  0  0  0  0  0
   -4.4336   19.3831  -26.8533 H   0  0  0  0  0  0  0  0  0  0  0  0
   -4.0259   17.6337  -26.8533 H   0  0  0  0  0  0  0  0  0  0  0  0
   -0.2675   20.0564  -28.7154 H   0  0  0  0  0  0  0  0  0  0  0  0
    0.0267   19.9870  -26.9127 H   0  0  0  0  0  0  0  0  0  0  0  0
   -0.0148   17.6663  -26.8550 H   0  0  0  0  0  0  0  0  0  0  0  0
   -0.9086   17.5318  -28.4074 H   0  0  0  0  0  0  0  0  0  0  0  0
    0.8265   17.9967  -28.4074 H   0  0  0  0  0  0  0  0  0  0  0  0
  1  2  1  0
  2  3  1  0
  3  4  1  0
  4  5  2  0
  5  6  1  0
  6  7  2  0
  7  8  1  0
  8  9  2  0
  9 10  1  0
 10 11  2  0
 11 12  1  0
 12 13  2  0
 13 14  1  0
 14 15  1  0
 15 16  1  0
 16 17  1  0
 17 18  1  0
 18 19  1  0
 19 20  1  0
 20 21  1  0
 21 22  1  0
 22 23  1  0
 21 24  1  0
 24 25  1  0
 13  4  1  0
 12  7  1  0
  1 26  1  0
  1 27  1  0
  1 28  1  0
  2 29  1  0
  2 30  1  0
  5 31  1  0
  6 32  1  0
  8 33  1  0
  9 34  1  0
 10 35  1  0
 11 36  1  0
 14 37  1  0
 14 38  1  0
 15 39  1  0
 16 40  1  0
 16 41  1  0
 17 42  1  0
 17 43  1  0
 19 44  1  0
 19 45  1  0
 20 46  1  0
 20 47  1  0
 21 48  1  0
 22 49  1  0
 22 50  1  0
 23 51  1  0
 23 52  1  0
 23 53  1  0
 24 54  1  0
 24 55  1  0
 25 56  1  0
 25 57  1  0
 25 58  1  0
M  CHG  1  21   1
M  END
>  <UniqueID>  (4) 
4

>  <SMILES>  (4) 
CCOc1ccc2ccccc2c1CNCCOCC[NH+](CC)CC

>  <Energy>  (4) 
60.246063001187736

>  <Genealogy>  (4) 
CCOc1ccc2ccccc2c1CNCCOCC[NH+](CC)CC (protonated)
CCOc1ccc2ccccc2c1CNCCOCC[NH+](CC)CC (3D coordinates assigned)
CCOc1ccc2ccccc2c1CNCCOCC[NH+](CC)CC (optimized conformer: 60.246063001187736 kcal/mol)

>  <smiles>  (4) 
CCOc1ccc2ccccc2c1CNCCOCCN(CC)CC

>  <score_type>  (4) 
oracle

>  <origin>  (4) 
adg

>  <m_score__min__energy>  (4) 
-6.5

>  <m_primary>  (4) 
energy

$$$$
4:0
     RDKit          3D

 55 57  0  0  0  0  0  0  0  0999 V2000
   -6.8460   16.3070  -33.5400 C   0  0  0  0  0  0  0  0  0  0  0  0
   -6.8330   17.7840  -33.2700 C   0  0  0  0  0  0  0  0  0  0  0  0
   -5.7290   18.5590  -33.6440 C   0  0  0  0  0  0  0  0  0  0  0  0
   -5.7330   19.9380  -33.4330 C   0  0  0  0  0  0  0  0  0  0  0  0
   -6.8410   20.5690  -32.8420 C   0  0  0  0  0  0  0  0  0  0  0  0
   -6.8490   21.9980  -32.6650 N   0  0  0  0  0  0  0  0  0  0  0  0
   -6.8700   22.6360  -31.3790 C   0  0  0  0  0  0  0  0  0  0  0  0
   -7.1200   21.9720  -30.3380 O   0  0  0  0  0  0  0  0  0  0  0  0
   -6.6300   24.1130  -31.2750 C   0  0  0  0  0  0  0  0  0  0  0  0
   -5.1780   24.3910  -31.2450 N   0  0  0  0  0  0  0  0  0  0  0  0
   -4.3470   23.1610  -31.3470 C   0  0  0  0  0  0  0  0  0  0  0  0
   -3.6260   22.7730  -30.0390 C   0  0  0  0  0  0  0  0  0  0  0  0
   -4.5180   23.0470  -28.8180 C   0  0  0  0  0  0  0  0  0  0  0  0
   -3.8290   22.6110  -27.5070 C   0  0  0  0  0  0  0  0  0  0  0  0
   -2.7050   21.6860  -27.7630 N   0  0  0  0  0  0  0  0  0  0  0  0
   -1.6110   21.8960  -26.8100 C   0  0  0  0  0  0  0  0  0  0  0  0
   -0.8490   20.5840  -26.7150 C   0  0  0  0  0  0  0  0  0  0  0  0
   -1.8060   19.5230  -27.2430 C   0  0  0  0  0  0  0  0  0  0  0  0
   -2.0660   18.5670  -26.2740 F   0  0  0  0  0  0  0  0  0  0  0  0
   -1.2690   18.9090  -28.3630 F   0  0  0  0  0  0  0  0  0  0  0  0
   -3.0790   20.2750  -27.6130 C   0  0  0  0  0  0  0  0  0  0  0  0
   -4.9220   24.5420  -28.7530 C   0  0  0  0  0  0  0  0  0  0  0  0
   -4.8000   25.2580  -30.1120 C   0  0  0  0  0  0  0  0  0  0  0  0
   -7.9670   19.7940  -32.4800 C   0  0  0  0  0  0  0  0  0  0  0  0
   -9.1860   20.4330  -31.8710 C   0  0  0  0  0  0  0  0  0  0  0  0
   -7.9560   18.4080  -32.7090 C   0  0  0  0  0  0  0  0  0  0  0  0
   -6.8508   15.7598  -32.5857 H   0  0  0  0  0  0  0  0  0  0  0  0
   -7.7465   16.0475  -34.1160 H   0  0  0  0  0  0  0  0  0  0  0  0
   -5.9502   16.0317  -34.1160 H   0  0  0  0  0  0  0  0  0  0  0  0
   -4.8542   18.0785  -34.1064 H   0  0  0  0  0  0  0  0  0  0  0  0
   -4.8604   20.5373  -33.7321 H   0  0  0  0  0  0  0  0  0  0  0  0
   -6.8760   22.6090  -33.5120 H   0  0  0  0  0  0  0  0  0  0  0  0
   -7.0790   24.6166  -32.1438 H   0  0  0  0  0  0  0  0  0  0  0  0
   -7.0875   24.4877  -30.3475 H   0  0  0  0  0  0  0  0  0  0  0  0
   -5.0008   22.3266  -31.6408 H   0  0  0  0  0  0  0  0  0  0  0  0
   -3.5628   23.3706  -32.0894 H   0  0  0  0  0  0  0  0  0  0  0  0
   -3.3765   21.7021  -30.0695 H   0  0  0  0  0  0  0  0  0  0  0  0
   -2.7120   23.3785  -29.9490 H   0  0  0  0  0  0  0  0  0  0  0  0
   -5.4320   22.4459  -28.9332 H   0  0  0  0  0  0  0  0  0  0  0  0
   -3.4458   23.5039  -26.9914 H   0  0  0  0  0  0  0  0  0  0  0  0
   -4.5710   22.0865  -26.8870 H   0  0  0  0  0  0  0  0  0  0  0  0
   -0.9452   22.6948  -27.1686 H   0  0  0  0  0  0  0  0  0  0  0  0
   -1.9990   22.1977  -25.8259 H   0  0  0  0  0  0  0  0  0  0  0  0
    0.0616   20.6221  -27.3309 H   0  0  0  0  0  0  0  0  0  0  0  0
   -0.5283   20.3702  -25.6848 H   0  0  0  0  0  0  0  0  0  0  0  0
   -3.4870   19.8881  -28.5585 H   0  0  0  0  0  0  0  0  0  0  0  0
   -3.8519   20.1499  -26.8404 H   0  0  0  0  0  0  0  0  0  0  0  0
   -5.9664   24.6085  -28.4142 H   0  0  0  0  0  0  0  0  0  0  0  0
   -4.2318   25.0395  -28.0557 H   0  0  0  0  0  0  0  0  0  0  0  0
   -5.4590   26.1387  -30.1069 H   0  0  0  0  0  0  0  0  0  0  0  0
   -3.7457   25.5417  -30.2462 H   0  0  0  0  0  0  0  0  0  0  0  0
   -9.1113   20.3938  -30.7742 H   0  0  0  0  0  0  0  0  0  0  0  0
   -9.2518   21.4816  -32.1968 H   0  0  0  0  0  0  0  0  0  0  0  0
  -10.0858   19.8906  -32.1968 H   0  0  0  0  0  0  0  0  0  0  0  0
   -8.8380   17.8059  -32.4453 H   0  0  0  0  0  0  0  0  0  0  0  0
  1  2  1  0
  2  3  2  0
  3  4  1  0
  4  5  2  0
  5  6  1  0
  6  7  1  0
  7  8  2  0
  7  9  1  0
  9 10  1  0
 10 11  1  0
 11 12  1  0
 12 13  1  0
 13 14  1  0
 14 15  1  0
 15 16  1  0
 16 17  1  0
 17 18  1  0
 18 19  1  0
 18 20  1  0
 18 21  1  0
 13 22  1  0
 22 23  1  0
  5 24  1  0
 24 25  1  0
 24 26  2  0
 26  2  1  0
 23 10  1  0
 21 15  1  0
  1 27  1  0
  1 28  1  0
  1 29  1  0
  3 30  1  0
  4 31  1  0
  6 32  1  0
  9 33  1  0
  9 34  1  0
 11 35  1  0
 11 36  1  0
 12 37  1  0
 12 38  1  0
 13 39  1  0
 14 40  1  0
 14 41  1  0
 16 42  1  0
 16 43  1  0
 17 44  1  0
 17 45  1  0
 21 46  1  0
 21 47  1  0
 22 48  1  0
 22 49  1  0
 23 50  1  0
 23 51  1  0
 25 52  1  0
 25 53  1  0
 25 54  1  0
 26 55  1  0
M  END
>  <UniqueID>  (5) 
5

>  <SMILES>  (5) 
Cc1ccc(NC(=O)CN2CCC(CN3CCC(F)(F)C3)CC2)c(C)c1

>  <Energy>  (5) 
67.31421336735215

>  <Genealogy>  (5) 
Cc1ccc(NC(=O)CN2CCC(CN3CCC(F)(F)C3)CC2)c(C)c1 (3D coordinates assigned)
Cc1ccc(NC(=O)CN2CCC(CN3CCC(F)(F)C3)CC2)c(C)c1 (nonaromatic ring conformer: 67.31421336735215 kcal/mol)

>  <smiles>  (5) 
Cc1ccc(NC(=O)CN2CCC(CN3CCC(F)(F)C3)CC2)c(C)c1

>  <score_type>  (5) 
oracle

>  <origin>  (5) 
adg

>  <m_score__min__energy>  (5) 
-9.3100000000000005

>  <m_primary>  (5) 
energy

$$$$
5:0
     RDKit          3D

 29 30  0  0  0  0  0  0  0  0999 V2000
   -6.4200   19.4050  -33.6290 C   0  0  0  0  0  0  0  0  0  0  0  0
   -5.5020   20.4570  -33.0800 C   0  0  0  0  0  0  0  0  0  0  0  0
   -4.1150   20.3320  -33.2340 C   0  0  0  0  0  0  0  0  0  0  0  0
   -3.2490   21.2840  -32.6790 C   0  0  0  0  0  0  0  0  0  0  0  0
   -1.7670   21.1630  -32.8760 C   0  0  0  0  0  0  0  0  0  0  0  0
   -3.7810   22.3820  -31.9860 C   0  0  0  0  0  0  0  0  0  0  0  0
   -5.1700   22.5200  -31.8190 C   0  0  0  0  0  0  0  0  0  0  0  0
   -5.7160   23.6320  -31.0810 N   0  0  0  0  0  0  0  0  0  0  0  0
   -7.1210   23.7890  -30.7390 C   0  0  0  0  0  0  0  0  0  0  0  0
   -7.1910   24.9740  -29.7580 C   0  0  0  0  0  0  0  0  0  0  0  0
   -5.8290   25.6790  -29.8050 C   0  0  0  0  0  0  0  0  0  0  0  0
   -4.9920   24.7470  -30.5850 C   0  0  0  0  0  0  0  0  0  0  0  0
   -3.7760   24.9570  -30.8430 O   0  0  0  0  0  0  0  0  0  0  0  0
   -6.0230   21.5380  -32.3520 C   0  0  0  0  0  0  0  0  0  0  0  0
   -6.8939   18.8620  -32.7980 H   0  0  0  0  0  0  0  0  0  0  0  0
   -7.1963   19.8814  -34.2458 H   0  0  0  0  0  0  0  0  0  0  0  0
   -5.8429   18.7003  -34.2458 H   0  0  0  0  0  0  0  0  0  0  0  0
   -3.7026   19.4802  -33.7947 H   0  0  0  0  0  0  0  0  0  0  0  0
   -1.2690   21.1223  -31.8960 H   0  0  0  0  0  0  0  0  0  0  0  0
   -1.5457   20.2438  -33.4382 H   0  0  0  0  0  0  0  0  0  0  0  0
   -1.3995   22.0341  -33.4382 H   0  0  0  0  0  0  0  0  0  0  0  0
   -3.1043   23.1425  -31.5692 H   0  0  0  0  0  0  0  0  0  0  0  0
   -7.7119   24.0048  -31.6414 H   0  0  0  0  0  0  0  0  0  0  0  0
   -7.5310   22.8716  -30.2915 H   0  0  0  0  0  0  0  0  0  0  0  0
   -7.9868   25.6697  -30.0626 H   0  0  0  0  0  0  0  0  0  0  0  0
   -7.4172   24.6263  -28.7392 H   0  0  0  0  0  0  0  0  0  0  0  0
   -5.9070   26.6541  -30.3081 H   0  0  0  0  0  0  0  0  0  0  0  0
   -5.4199   25.8928  -28.8065 H   0  0  0  0  0  0  0  0  0  0  0  0
   -7.1091   21.6175  -32.1971 H   0  0  0  0  0  0  0  0  0  0  0  0
  1  2  1  0
  2  3  2  0
  3  4  1  0
  4  5  1  0
  4  6  2  0
  6  7  1  0
  7  8  1  0
  8  9  1  0
  9 10  1  0
 10 11  1  0
 11 12  1  0
 12 13  2  0
  7 14  2  0
 14  2  1  0
 12  8  1  0
  1 15  1  0
  1 16  1  0
  1 17  1  0
  3 18  1  0
  5 19  1  0
  5 20  1  0
  5 21  1  0
  6 22  1  0
  9 23  1  0
  9 24  1  0
 10 25  1  0
 10 26  1  0
 11 27  1  0
 11 28  1  0
 14 29  1  0
M  END
>  <UniqueID>  (6) 
6

>  <SMILES>  (6) 
Cc1cc(C)cc(N2CCCC2=O)c1

>  <Energy>  (6) 
36.922810205919305

>  <Genealogy>  (6) 
Cc1cc(C)cc(N2CCCC2=O)c1 (3D coordinates assigned)
Cc1cc(C)cc(N2CCCC2=O)c1 (nonaromatic ring conformer: 36.922810205919305 kcal/mol)

>  <smiles>  (6) 
Cc1cc(C)cc(N2CCCC2=O)c1

>  <score_type>  (6) 
oracle

>  <origin>  (6) 
adg

>  <m_score__min__energy>  (6) 
-6.4000000000000004

>  <m_primary>  (6) 
energy

$$$$
6:0
     RDKit          3D

 51 54  0  0  0  0  0  0  0  0999 V2000
   -7.3950   17.4700  -32.6240 C   0  0  0  0  0  0  0  0  0  0  0  0
   -5.9870   17.1820  -33.1350 C   0  0  0  0  0  0  0  0  0  0  0  0
   -5.0630   18.2560  -32.7340 N   0  0  0  0  0  0  0  0  0  0  0  0
   -5.3770   19.0130  -31.6390 C   0  0  0  0  0  0  0  0  0  0  0  0
   -4.5510   20.0570  -31.2290 C   0  0  0  0  0  0  0  0  0  0  0  0
   -3.3850   20.3510  -31.9480 C   0  0  0  0  0  0  0  0  0  0  0  0
   -2.5320   21.4040  -31.5490 C   0  0  0  0  0  0  0  0  0  0  0  0
   -2.8620   22.1610  -30.4120 O   0  0  0  0  0  0  0  0  0  0  0  0
   -2.1910   23.3520  -30.0060 C   0  0  0  0  0  0  0  0  0  0  0  0
   -3.1830   24.3810  -29.5470 C   0  0  0  0  0  0  0  0  0  0  0  0
   -3.4780   24.4710  -28.3250 O   0  0  0  0  0  0  0  0  0  0  0  0
   -3.8010   25.2800  -30.4740 N   0  0  0  0  0  0  0  0  0  0  0  0
   -5.2150   25.6340  -30.4470 C   0  0  0  0  0  0  0  0  0  0  0  0
   -6.0460   24.4600  -29.9300 C   0  0  0  0  0  0  0  0  0  0  0  0
   -6.1750   23.3850  -30.9700 C   0  0  0  0  0  0  0  0  0  0  0  0
   -5.3110   23.1590  -32.0360 C   0  0  0  0  0  0  0  0  0  0  0  0
   -5.7760   22.1580  -32.8190 N   0  0  0  0  0  0  0  0  0  0  0  0
   -6.9340   21.7590  -32.2620 C   0  0  0  0  0  0  0  0  0  0  0  0
   -7.7940   20.7640  -32.7240 C   0  0  0  0  0  0  0  0  0  0  0  0
   -8.9710   20.5220  -31.9940 C   0  0  0  0  0  0  0  0  0  0  0  0
   -9.2630   21.2750  -30.8340 C   0  0  0  0  0  0  0  0  0  0  0  0
   -8.3770   22.2750  -30.3930 C   0  0  0  0  0  0  0  0  0  0  0  0
   -7.2150   22.4880  -31.1350 C   0  0  0  0  0  0  0  0  0  0  0  0
   -1.3730   21.6710  -32.3010 C   0  0  0  0  0  0  0  0  0  0  0  0
   -1.0670   20.9070  -33.4270 C   0  0  0  0  0  0  0  0  0  0  0  0
   -1.9060   19.8670  -33.8220 C   0  0  0  0  0  0  0  0  0  0  0  0
   -3.0720   19.5760  -33.0890 C   0  0  0  0  0  0  0  0  0  0  0  0
   -3.9360   18.5280  -33.4700 C   0  0  0  0  0  0  0  0  0  0  0  0
   -3.6720   17.8390  -34.4960 O   0  0  0  0  0  0  0  0  0  0  0  0
   -7.3931   17.4696  -31.5240 H   0  0  0  0  0  0  0  0  0  0  0  0
   -7.7237   18.4540  -32.9897 H   0  0  0  0  0  0  0  0  0  0  0  0
   -8.0837   16.6941  -32.9897 H   0  0  0  0  0  0  0  0  0  0  0  0
   -5.6373   16.2278  -32.7141 H   0  0  0  0  0  0  0  0  0  0  0  0
   -6.0118   17.1257  -34.2333 H   0  0  0  0  0  0  0  0  0  0  0  0
   -6.2951   18.7942  -31.0740 H   0  0  0  0  0  0  0  0  0  0  0  0
   -4.8141   20.6504  -30.3410 H   0  0  0  0  0  0  0  0  0  0  0  0
   -1.5038   23.1172  -29.1798 H   0  0  0  0  0  0  0  0  0  0  0  0
   -1.6294   23.7546  -30.8619 H   0  0  0  0  0  0  0  0  0  0  0  0
   -5.3596   26.5004  -29.7848 H   0  0  0  0  0  0  0  0  0  0  0  0
   -5.5415   25.8813  -31.4679 H   0  0  0  0  0  0  0  0  0  0  0  0
   -5.5573   24.0398  -29.0386 H   0  0  0  0  0  0  0  0  0  0  0  0
   -7.0528   24.8283  -29.6837 H   0  0  0  0  0  0  0  0  0  0  0  0
   -4.3799   23.7160  -32.2174 H   0  0  0  0  0  0  0  0  0  0  0  0
   -5.3330   21.7860  -33.6870 H   0  0  0  0  0  0  0  0  0  0  0  0
   -7.5594   20.1868  -33.6305 H   0  0  0  0  0  0  0  0  0  0  0  0
   -9.6698   19.7409  -32.3281 H   0  0  0  0  0  0  0  0  0  0  0  0
  -10.1883   21.0780  -30.2728 H   0  0  0  0  0  0  0  0  0  0  0  0
   -8.5934   22.8692  -29.4929 H   0  0  0  0  0  0  0  0  0  0  0  0
   -0.7028   22.4890  -31.9983 H   0  0  0  0  0  0  0  0  0  0  0  0
   -0.1582   21.1267  -34.0065 H   0  0  0  0  0  0  0  0  0  0  0  0
   -1.6558   19.2701  -34.7115 H   0  0  0  0  0  0  0  0  0  0  0  0
  1  2  1  0
  2  3  1  0
  3  4  1  0
  4  5  2  0
  5  6  1  0
  6  7  2  0
  7  8  1  0
  8  9  1  0
  9 10  1  0
 10 11  2  0
 10 12  1  0
 12 13  1  0
 13 14  1  0
 14 15  1  0
 15 16  2  0
 16 17  1  0
 17 18  1  0
 18 19  2  0
 19 20  1  0
 20 21  2  0
 21 22  1  0
 22 23  2  0
  7 24  1  0
 24 25  2  0
 25 26  1  0
 26 27  2  0
 27 28  1  0
 28 29  2  0
 28  3  1  0
 27  6  1  0
 23 15  1  0
 23 18  1  0
  1 30  1  0
  1 31  1  0
  1 32  1  0
  2 33  1  0
  2 34  1  0
  4 35  1  0
  5 36  1  0
  9 37  1  0
  9 38  1  0
 13 39  1  0
 13 40  1  0
 14 41  1  0
 14 42  1  0
 16 43  1  0
 17 44  1  0
 19 45  1  0
 20 46  1  0
 21 47  1  0
 22 48  1  0
 24 49  1  0
 25 50  1  0
 26 51  1  0
M  CHG  1  12  -1
M  END
>  <UniqueID>  (7) 
7

>  <SMILES>  (7) 
CCn1ccc2c(OCC(=O)[N-]CCc3c[nH]c4ccccc34)cccc2c1=O

>  <Energy>  (7) 
86.57222905611069

>  <Genealogy>  (7) 
CCn1ccc2c(OCC(=O)[N-]CCc3c[nH]c4ccccc34)cccc2c1=O (protonated)
CCn1ccc2c(OCC(=O)[N-]CCc3c[nH]c4ccccc34)cccc2c1=O (3D coordinates assigned)
CCn1ccc2c(OCC(=O)[N-]CCc3c[nH]c4ccccc34)cccc2c1=O (optimized conformer: 86.57222905611069 kcal/mol)

>  <smiles>  (7) 
CCn1ccc2c(OCC(=O)NCCc3c[nH]c4ccccc34)cccc2c1=O

>  <score_type>  (7) 
oracle

>  <origin>  (7) 
adg

>  <m_score__min__energy>  (7) 
-11.720000000000001

>  <m_primary>  (7) 
energy

$$$$
7:0
     RDKit          3D

 31 31  0  0  0  0  0  0  0  0999 V2000
   -6.7870   17.7390  -31.9260 C   0  0  0  0  0  0  0  0  0  0  0  0
   -7.1240   17.4440  -33.3890 C   0  0  0  0  0  0  0  0  0  0  0  0
   -6.4870   18.3950  -34.3170 N   0  0  0  0  0  0  0  0  0  0  0  0
   -5.0530   18.6220  -34.0320 C   0  0  0  0  0  0  0  0  0  0  0  0
   -4.7730   20.0010  -33.4090 C   0  0  0  0  0  0  0  0  0  0  0  0
   -5.9910   20.7120  -33.1730 O   0  0  0  0  0  0  0  0  0  0  0  0
   -6.1690   21.8310  -32.3400 C   0  0  0  0  0  0  0  0  0  0  0  0
   -5.1540   22.7800  -32.1030 C   0  0  0  0  0  0  0  0  0  0  0  0
   -5.3890   23.8730  -31.2640 C   0  0  0  0  0  0  0  0  0  0  0  0
   -6.6390   24.0420  -30.6530 C   0  0  0  0  0  0  0  0  0  0  0  0
   -6.8750   25.1940  -29.7210 C   0  0  0  0  0  0  0  0  0  0  0  0
   -7.6410   23.0850  -30.8620 C   0  0  0  0  0  0  0  0  0  0  0  0
   -7.4100   21.9900  -31.7020 C   0  0  0  0  0  0  0  0  0  0  0  0
   -8.8140   20.7170  -31.9750 Br  0  0  0  0  0  0  0  0  0  0  0  0
   -7.4524   17.1565  -31.2718 H   0  0  0  0  0  0  0  0  0  0  0  0
   -5.7416   17.4605  -31.7272 H   0  0  0  0  0  0  0  0  0  0  0  0
   -6.9247   18.8121  -31.7272 H   0  0  0  0  0  0  0  0  0  0  0  0
   -6.7790   16.4283  -33.6327 H   0  0  0  0  0  0  0  0  0  0  0  0
   -8.2134   17.5400  -33.5072 H   0  0  0  0  0  0  0  0  0  0  0  0
   -6.6490   18.0840  -35.3010 H   0  0  0  0  0  0  0  0  0  0  0  0
   -6.9880   19.3080  -34.2120 H   0  0  0  0  0  0  0  0  0  0  0  0
   -4.7075   17.8455  -33.3336 H   0  0  0  0  0  0  0  0  0  0  0  0
   -4.5169   18.5803  -34.9916 H   0  0  0  0  0  0  0  0  0  0  0  0
   -4.2453   19.8640  -32.4536 H   0  0  0  0  0  0  0  0  0  0  0  0
   -4.1562   20.5838  -34.1090 H   0  0  0  0  0  0  0  0  0  0  0  0
   -4.1708   22.6597  -32.5813 H   0  0  0  0  0  0  0  0  0  0  0  0
   -4.5882   24.6048  -31.0822 H   0  0  0  0  0  0  0  0  0  0  0  0
   -6.8034   24.8444  -28.6805 H   0  0  0  0  0  0  0  0  0  0  0  0
   -6.1174   25.9713  -29.8996 H   0  0  0  0  0  0  0  0  0  0  0  0
   -7.8772   25.6108  -29.8996 H   0  0  0  0  0  0  0  0  0  0  0  0
   -8.6150   23.1952  -30.3628 H   0  0  0  0  0  0  0  0  0  0  0  0
  1  2  1  0
  2  3  1  0
  3  4  1  0
  4  5  1  0
  5  6  1  0
  6  7  1  0
  7  8  2  0
  8  9  1  0
  9 10  2  0
 10 11  1  0
 10 12  1  0
 12 13  2  0
 13 14  1  0
 13  7  1  0
  1 15  1  0
  1 16  1  0
  1 17  1  0
  2 18  1  0
  2 19  1  0
  3 20  1  0
  3 21  1  0
  4 22  1  0
  4 23  1  0
  5 24  1  0
  5 25  1  0
  8 26  1  0
  9 27  1  0
 11 28  1  0
 11 29  1  0
 11 30  1  0
 12 31  1  0
M  CHG  1   3   1
M  END
>  <UniqueID>  (8) 
8

>  <SMILES>  (8) 
CC[NH2+]CCOc1ccc(C)cc1Br

>  <Energy>  (8) 
30.215809364202094

>  <Genealogy>  (8) 
CC[NH2+]CCOc1ccc(C)cc1Br (protonated)
CC[NH2+]CCOc1ccc(C)cc1Br (3D coordinates assigned)
CC[NH2+]CCOc1ccc(C)cc1Br (optimized conformer: 30.215809364202094 kcal/mol)

>  <smiles>  (8) 
CCNCCOc1ccc(C)cc1Br

>  <score_type>  (8) 
oracle

>  <origin>  (8) 
adg

>  <m_score__min__energy>  (8) 
-5.5

>  <m_primary>  (8) 
energy

$$$$
8:0
     RDKit          3D

 26 27  0  0  0  0  0  0  0  0999 V2000
   -6.3760   24.3980  -29.7240 C   0  0  0  0  0  0  0  0  0  0  0  0
   -5.4880   24.1260  -30.8980 C   0  0  0  0  0  0  0  0  0  0  0  0
   -4.6150   24.9770  -31.2150 O   0  0  0  0  0  0  0  0  0  0  0  0
   -5.5590   22.8480  -31.6410 C   0  0  0  0  0  0  0  0  0  0  0  0
   -4.3630   22.3100  -32.1330 C   0  0  0  0  0  0  0  0  0  0  0  0
   -4.3640   21.0800  -32.8000 C   0  0  0  0  0  0  0  0  0  0  0  0
   -3.0700   20.4860  -33.2750 C   0  0  0  0  0  0  0  0  0  0  0  0
   -5.5290   20.3910  -32.9510 N   0  0  0  0  0  0  0  0  0  0  0  0
   -6.7210   20.8890  -32.5120 C   0  0  0  0  0  0  0  0  0  0  0  0
   -7.9050   20.1640  -32.7230 C   0  0  0  0  0  0  0  0  0  0  0  0
   -9.1320   20.6820  -32.3070 C   0  0  0  0  0  0  0  0  0  0  0  0
   -9.1920   21.9300  -31.6880 C   0  0  0  0  0  0  0  0  0  0  0  0
   -8.0240   22.6630  -31.4670 C   0  0  0  0  0  0  0  0  0  0  0  0
   -6.7690   22.1450  -31.8550 C   0  0  0  0  0  0  0  0  0  0  0  0
   -5.8158   24.2264  -28.7930 H   0  0  0  0  0  0  0  0  0  0  0  0
   -6.7193   25.4425  -29.7581 H   0  0  0  0  0  0  0  0  0  0  0  0
   -7.2454   23.7250  -29.7581 H   0  0  0  0  0  0  0  0  0  0  0  0
   -3.4187   22.8569  -31.9944 H   0  0  0  0  0  0  0  0  0  0  0  0
   -2.4556   20.2040  -32.4072 H   0  0  0  0  0  0  0  0  0  0  0  0
   -3.2777   19.5931  -33.8829 H   0  0  0  0  0  0  0  0  0  0  0  0
   -2.5283   21.2256  -33.8829 H   0  0  0  0  0  0  0  0  0  0  0  0
   -5.5060   19.4590  -33.4270 H   0  0  0  0  0  0  0  0  0  0  0  0
   -7.8649   19.1828  -33.2187 H   0  0  0  0  0  0  0  0  0  0  0  0
  -10.0542   20.1044  -32.4678 H   0  0  0  0  0  0  0  0  0  0  0  0
  -10.1632   22.3388  -31.3725 H   0  0  0  0  0  0  0  0  0  0  0  0
   -8.0821   23.6511  -30.9872 H   0  0  0  0  0  0  0  0  0  0  0  0
  1  2  1  0
  2  3  2  0
  2  4  1  0
  4  5  2  0
  5  6  1  0
  6  7  1  0
  6  8  2  0
  8  9  1  0
  9 10  2  0
 10 11  1  0
 11 12  2  0
 12 13  1  0
 13 14  2  0
 14  4  1  0
 14  9  1  0
  1 15  1  0
  1 16  1  0
  1 17  1  0
  5 18  1  0
  7 19  1  0
  7 20  1  0
  7 21  1  0
  8 22  1  0
 10 23  1  0
 11 24  1  0
 12 25  1  0
 13 26  1  0
M  CHG  1   8   1
M  END
>  <UniqueID>  (9) 
9

>  <SMILES>  (9) 
CC(=O)c1cc(C)[nH+]c2ccccc12

>  <Energy>  (9) 
35.5220927143948

>  <Genealogy>  (9) 
CC(=O)c1cc(C)[nH+]c2ccccc12 (protonated)
CC(=O)c1cc(C)[nH+]c2ccccc12 (3D coordinates assigned)
CC(=O)c1cc(C)[nH+]c2ccccc12 (optimized conformer: 35.5220927143948 kcal/mol)

>  <smiles>  (9) 
CC(=O)c1cc(C)nc2ccccc12

>  <score_type>  (9) 
oracle

>  <origin>  (9) 
adg

>  <m_score__min__energy>  (9) 
-6.3499999999999996

>  <m_primary>  (9) 
energy

$$$$
9:0
     RDKit          3D

 55 60  0  0  0  0  0  0  0  0999 V2000
   -5.3560   17.7870  -33.9680 C   0  0  0  0  0  0  0  0  0  0  0  0
   -4.8130   19.0850  -33.5550 N   0  0  0  0  0  0  0  0  0  0  0  0
   -3.5080   19.4560  -33.6460 C   0  0  0  0  0  0  0  0  0  0  0  0
   -2.4480   18.7710  -34.2570 C   0  0  0  0  0  0  0  0  0  0  0  0
   -1.1650   19.3480  -34.2090 C   0  0  0  0  0  0  0  0  0  0  0  0
   -0.9580   20.5830  -33.5620 C   0  0  0  0  0  0  0  0  0  0  0  0
   -2.0320   21.2570  -32.9590 C   0  0  0  0  0  0  0  0  0  0  0  0
   -3.2930   20.6650  -33.0260 C   0  0  0  0  0  0  0  0  0  0  0  0
   -4.5100   21.0730  -32.5400 C   0  0  0  0  0  0  0  0  0  0  0  0
   -4.8300   22.2010  -31.8000 C   0  0  0  0  0  0  0  0  0  0  0  0
   -6.1590   22.3880  -31.3950 C   0  0  0  0  0  0  0  0  0  0  0  0
   -6.4700   23.6300  -30.6500 C   0  0  0  0  0  0  0  0  0  0  0  0
   -7.5890   24.1840  -30.8440 O   0  0  0  0  0  0  0  0  0  0  0  0
   -5.6010   24.0850  -29.5810 N   0  0  2  0  0  0  0  0  0  0  0  0
   -4.5190   24.9460  -30.1320 C   0  0  0  0  0  0  0  0  0  0  0  0
   -3.1440   24.2580  -30.1190 C   0  0  0  0  0  0  0  0  0  0  0  0
   -2.7440   23.8560  -28.7540 N   0  0  0  0  0  0  0  0  0  0  0  0
   -2.1690   24.9720  -27.9790 C   0  0  0  0  0  0  0  0  0  0  0  0
   -2.8020   24.9580  -26.5980 C   0  0  0  0  0  0  0  0  0  0  0  0
   -4.1200   24.2490  -26.7960 C   0  0  0  0  0  0  0  0  0  0  0  0
   -3.8450   23.2880  -27.9460 C   0  0  1  0  0  0  0  0  0  0  0  0
   -5.1060   22.9390  -28.7710 C   0  0  0  0  0  0  0  0  0  0  0  0
   -7.1540   21.4290  -31.7490 C   0  0  0  0  0  0  0  0  0  0  0  0
   -8.4870   21.5750  -31.3100 C   0  0  0  0  0  0  0  0  0  0  0  0
   -9.4750   20.6820  -31.7140 C   0  0  0  0  0  0  0  0  0  0  0  0
   -9.1610   19.6340  -32.5710 C   0  0  0  0  0  0  0  0  0  0  0  0
   -7.8470   19.4390  -32.9970 C   0  0  0  0  0  0  0  0  0  0  0  0
   -6.8100   20.2900  -32.5550 C   0  0  0  0  0  0  0  0  0  0  0  0
   -5.4410   20.1130  -32.9000 C   0  0  0  0  0  0  0  0  0  0  0  0
   -5.6045   17.1930  -33.0762 H   0  0  0  0  0  0  0  0  0  0  0  0
   -6.2640   17.9438  -34.5688 H   0  0  0  0  0  0  0  0  0  0  0  0
   -4.6069   17.2505  -34.5688 H   0  0  0  0  0  0  0  0  0  0  0  0
   -2.6148   17.8075  -34.7609 H   0  0  0  0  0  0  0  0  0  0  0  0
   -0.3165   18.8306  -34.6805 H   0  0  0  0  0  0  0  0  0  0  0  0
    0.0504   21.0212  -33.5293 H   0  0  0  0  0  0  0  0  0  0  0  0
   -1.8836   22.2209  -32.4501 H   0  0  0  0  0  0  0  0  0  0  0  0
   -4.0552   22.9357  -31.5355 H   0  0  0  0  0  0  0  0  0  0  0  0
   -6.1790   24.6830  -28.9440 H   0  0  0  0  0  0  0  0  0  0  0  0
   -4.7717   25.2064  -31.1704 H   0  0  0  0  0  0  0  0  0  0  0  0
   -4.4485   25.8384  -29.4927 H   0  0  0  0  0  0  0  0  0  0  0  0
   -3.1882   23.3619  -30.7555 H   0  0  0  0  0  0  0  0  0  0  0  0
   -2.3996   24.9746  -30.4962 H   0  0  0  0  0  0  0  0  0  0  0  0
   -1.0799   24.8443  -27.8920 H   0  0  0  0  0  0  0  0  0  0  0  0
   -2.3685   25.9298  -28.4817 H   0  0  0  0  0  0  0  0  0  0  0  0
   -2.1685   24.4100  -25.8850 H   0  0  0  0  0  0  0  0  0  0  0  0
   -2.9281   25.9695  -26.1844 H   0  0  0  0  0  0  0  0  0  0  0  0
   -4.4106   23.7007  -25.8878 H   0  0  0  0  0  0  0  0  0  0  0  0
   -4.9483   24.9411  -27.0081 H   0  0  0  0  0  0  0  0  0  0  0  0
   -3.5342   22.3123  -27.5443 H   0  0  0  0  0  0  0  0  0  0  0  0
   -4.8631   22.1080  -29.4496 H   0  0  0  0  0  0  0  0  0  0  0  0
   -5.9012   22.6673  -28.0612 H   0  0  0  0  0  0  0  0  0  0  0  0
   -8.7490   22.4063  -30.6390 H   0  0  0  0  0  0  0  0  0  0  0  0
  -10.5070   20.8060  -31.3541 H   0  0  0  0  0  0  0  0  0  0  0  0
   -9.9538   18.9538  -32.9157 H   0  0  0  0  0  0  0  0  0  0  0  0
   -7.6158   18.6127  -33.6853 H   0  0  0  0  0  0  0  0  0  0  0  0
  1  2  1  0
  2  3  1  0
  3  4  2  0
  4  5  1  0
  5  6  2  0
  6  7  1  0
  7  8  2  0
  8  9  1  0
  9 10  2  0
 10 11  1  0
 11 12  1  0
 12 13  2  0
 12 14  1  0
 14 15  1  0
 15 16  1  0
 16 17  1  0
 17 18  1  0
 18 19  1  0
 19 20  1  0
 20 21  1  0
 21 22  1  0
 11 23  2  0
 23 24  1  0
 24 25  2  0
 25 26  1  0
 26 27  2  0
 27 28  1  0
 28 29  2  0
 29  2  1  0
  8  3  1  0
 29  9  1  0
 22 14  1  0
 28 23  1  0
 21 17  1  0
  1 30  1  0
  1 31  1  0
  1 32  1  0
  4 33  1  0
  5 34  1  0
  6 35  1  0
  7 36  1  0
 10 37  1  0
 14 38  1  1
 15 39  1  0
 15 40  1  0
 16 41  1  0
 16 42  1  0
 18 43  1  0
 18 44  1  0
 19 45  1  0
 19 46  1  0
 20 47  1  0
 20 48  1  0
 21 49  1  1
 22 50  1  0
 22 51  1  0
 24 52  1  0
 25 53  1  0
 26 54  1  0
 27 55  1  0
M  CHG  1  14   1
M  END
>  <UniqueID>  (10) 
10

>  <SMILES>  (10) 
Cn1c2ccccc2c2cc(C(=O)[N@@H+]3CCN4CCC[C@H]4C3)c3ccccc3c21

>  <Energy>  (10) 
138.65439012931756

>  <Genealogy>  (10) 
Cn1c2ccccc2c2cc(C(=O)[NH+]3CCN4CCCC4C3)c3ccccc3c21 (protonated)
Cn1c2ccccc2c2cc(C(=O)[N@@H+]3CCN4CCC[C@H]4C3)c3ccccc3c21 (chirality)
Cn1c2ccccc2c2cc(C(=O)[N@@H+]3CCN4CCC[C@H]4C3)c3ccccc3c21 (3D coordinates assigned)
Cn1c2ccccc2c2cc(C(=O)[N@@H+]3CCN4CCC[C@H]4C3)c3ccccc3c21 (nonaromatic ring conformer: 138.65439012931756 kcal/mol)

>  <smiles>  (10) 
Cn1c2ccccc2c2cc(C(=O)N3CCN4CCCC4C3)c3ccccc3c21

>  <score_type>  (10) 
oracle

>  <origin>  (10) 
adg

>  <m_score__min__energy>  (10) 
-9.3499999999999996

>  <m_primary>  (10) 
energy

$$$$
10:0
     RDKit          3D

 37 38  0  0  0  0  0  0  0  0999 V2000
   -6.4920   17.7000  -31.1650 C   0  0  0  0  0  0  0  0  0  0  0  0
   -5.9520   16.9550  -32.3890 C   0  0  0  0  0  0  0  0  0  0  0  0
   -6.7030   17.2790  -33.6160 N   0  0  0  0  0  0  0  0  0  0  0  0
   -6.0480   18.2930  -34.4580 C   0  0  0  0  0  0  0  0  0  0  0  0
   -5.6420   19.5210  -33.6690 C   0  0  0  0  0  0  0  0  0  0  0  0
   -4.2870   19.8070  -33.4650 C   0  0  0  0  0  0  0  0  0  0  0  0
   -3.3210   18.9760  -33.9350 F   0  0  0  0  0  0  0  0  0  0  0  0
   -3.9080   20.9600  -32.7910 C   0  0  0  0  0  0  0  0  0  0  0  0
   -4.8720   21.8570  -32.2920 C   0  0  0  0  0  0  0  0  0  0  0  0
   -4.4630   23.0340  -31.6390 C   0  0  0  0  0  0  0  0  0  0  0  0
   -3.2330   23.2780  -31.4940 O   0  0  0  0  0  0  0  0  0  0  0  0
   -5.4210   23.9370  -31.1570 C   0  0  0  0  0  0  0  0  0  0  0  0
   -5.0350   25.2080  -30.4800 C   0  0  0  0  0  0  0  0  0  0  0  0
   -3.8690   25.6680  -30.6060 O   0  0  0  0  0  0  0  0  0  0  0  0
   -5.9450   25.9100  -29.6980 O   0  0  0  0  0  0  0  0  0  0  0  0
   -6.7740   23.6230  -31.3180 C   0  0  0  0  0  0  0  0  0  0  0  0
   -7.1880   22.4630  -31.9210 N   0  0  0  0  0  0  0  0  0  0  0  0
   -8.6500   22.2540  -31.9730 C   0  0  0  0  0  0  0  0  0  0  0  0
   -9.1150   21.3710  -30.8160 C   0  0  0  0  0  0  0  0  0  0  0  0
   -6.2590   21.5790  -32.4520 C   0  0  0  0  0  0  0  0  0  0  0  0
   -6.6230   20.3980  -33.1680 C   0  0  0  0  0  0  0  0  0  0  0  0
   -7.9150   20.0780  -33.4270 F   0  0  0  0  0  0  0  0  0  0  0  0
   -6.1348   17.2072  -30.2487 H   0  0  0  0  0  0  0  0  0  0  0  0
   -6.1374   18.7411  -31.1835 H   0  0  0  0  0  0  0  0  0  0  0  0
   -7.5918   17.6869  -31.1835 H   0  0  0  0  0  0  0  0  0  0  0  0
   -4.8977   17.2324  -32.5356 H   0  0  0  0  0  0  0  0  0  0  0  0
   -6.0606   15.8764  -32.2022 H   0  0  0  0  0  0  0  0  0  0  0  0
   -6.9200   16.4200  -34.1730 H   0  0  0  0  0  0  0  0  0  0  0  0
   -5.1485   17.8498  -34.9102 H   0  0  0  0  0  0  0  0  0  0  0  0
   -6.7694   18.6097  -35.2257 H   0  0  0  0  0  0  0  0  0  0  0  0
   -2.8394   21.1760  -32.6447 H   0  0  0  0  0  0  0  0  0  0  0  0
   -7.5315   24.3300  -30.9487 H   0  0  0  0  0  0  0  0  0  0  0  0
   -9.1559   23.2286  -31.9083 H   0  0  0  0  0  0  0  0  0  0  0  0
   -8.9005   21.7538  -32.9201 H   0  0  0  0  0  0  0  0  0  0  0  0
   -8.8607   21.8540  -29.8610 H   0  0  0  0  0  0  0  0  0  0  0  0
  -10.2042   21.2302  -30.8770 H   0  0  0  0  0  0  0  0  0  0  0  0
   -8.6149   20.3932  -30.8770 H   0  0  0  0  0  0  0  0  0  0  0  0
  1  2  1  0
  2  3  1  0
  3  4  1  0
  4  5  1  0
  5  6  2  0
  6  7  1  0
  6  8  1  0
  8  9  2  0
  9 10  1  0
 10 11  2  0
 10 12  1  0
 12 13  1  0
 13 14  2  0
 13 15  1  0
 12 16  2  0
 16 17  1  0
 17 18  1  0
 18 19  1  0
 17 20  1  0
 20 21  2  0
 21 22  1  0
 21  5  1  0
 20  9  1  0
  1 23  1  0
  1 24  1  0
  1 25  1  0
  2 26  1  0
  2 27  1  0
  3 28  1  0
  4 29  1  0
  4 30  1  0
  8 31  1  0
 16 32  1  0
 18 33  1  0
 18 34  1  0
 19 35  1  0
 19 36  1  0
 19 37  1  0
M  CHG  1  15  -1
M  END
>  <UniqueID>  (11) 
11

>  <SMILES>  (11) 
CCNCc1c(F)cc2c(=O)c(C(=O)[O-])cn(CC)c2c1F

>  <Energy>  (11) 
52.25356448183182

>  <Genealogy>  (11) 
CCNCc1c(F)cc2c(=O)c(C(=O)[O-])cn(CC)c2c1F (protonated)
CCNCc1c(F)cc2c(=O)c(C(=O)[O-])cn(CC)c2c1F (3D coordinates assigned)
CCNCc1c(F)cc2c(=O)c(C(=O)[O-])cn(CC)c2c1F (optimized conformer: 52.25356448183182 kcal/mol)

>  <smiles>  (11) 
CCNCc1c(F)cc2c(=O)c(C(=O)O)cn(CC)c2c1F

>  <score_type>  (11) 
oracle

>  <origin>  (11) 
adg

>  <m_score__min__energy>  (11) 
-9.3300000000000001

>  <m_primary>  (11) 
energy

$$$$
11:0
     RDKit          3D

 73 76  0  0  0  0  0  0  0  0999 V2000
   -1.2220   21.3300  -29.3640 C   0  0  0  0  0  0  0  0  0  0  0  0
   -0.7750   21.9220  -30.6970 C   0  0  0  0  0  0  0  0  0  0  0  0
   -0.8410   20.8960  -31.7620 N   0  0  0  0  0  0  0  0  0  0  0  0
    0.4750   20.2510  -31.9730 C   0  0  0  0  0  0  0  0  0  0  0  0
    0.8840   20.3620  -33.4390 C   0  0  0  0  0  0  0  0  0  0  0  0
   -1.3740   21.4650  -33.0210 C   0  0  0  0  0  0  0  0  0  0  0  0
   -2.8750   21.1790  -33.1270 C   0  0  0  0  0  0  0  0  0  0  0  0
   -3.3370   20.3630  -31.9920 N   0  0  0  0  0  0  0  0  0  0  0  0
   -4.7820   20.3260  -31.9520 C   0  0  0  0  0  0  0  0  0  0  0  0
   -5.5120   19.1910  -32.4190 C   0  0  0  0  0  0  0  0  0  0  0  0
   -4.8530   17.9990  -32.8060 C   0  0  0  0  0  0  0  0  0  0  0  0
   -5.5630   16.9220  -33.3280 C   0  0  0  0  0  0  0  0  0  0  0  0
   -6.9410   17.0010  -33.4830 C   0  0  0  0  0  0  0  0  0  0  0  0
   -7.6260   18.1440  -33.0820 C   0  0  0  0  0  0  0  0  0  0  0  0
   -6.9440   19.2460  -32.5060 C   0  0  0  0  0  0  0  0  0  0  0  0
   -7.6330   20.3570  -32.0470 N   0  0  0  0  0  0  0  0  0  0  0  0
   -9.1090   20.3810  -32.0090 C   0  0  0  0  0  0  0  0  0  0  0  0
   -6.9160   21.4380  -31.6070 C   0  0  0  0  0  0  0  0  0  0  0  0
   -7.4360   22.6240  -31.2100 N   0  0  0  0  0  0  0  0  0  0  0  0
   -6.3830   23.3600  -30.8160 C   0  0  0  0  0  0  0  0  0  0  0  0
   -6.4390   24.6470  -30.2930 C   0  0  0  0  0  0  0  0  0  0  0  0
   -5.2430   25.2480  -29.8840 C   0  0  0  0  0  0  0  0  0  0  0  0
   -4.0150   24.5650  -29.9910 C   0  0  0  0  0  0  0  0  0  0  0  0
   -2.8670   25.2270  -29.5260 O   0  0  0  0  0  0  0  0  0  0  0  0
   -1.8280   24.6590  -28.7300 C   0  0  0  0  0  0  0  0  0  0  0  0
   -1.2600   25.7090  -27.7500 C   0  0  0  0  0  0  0  0  0  0  0  0
   -1.6510   25.5230  -26.3180 N   0  0  0  0  0  0  0  0  0  0  0  0
   -1.3270   26.7720  -25.5870 C   0  0  0  0  0  0  0  0  0  0  0  0
   -0.9010   24.4080  -25.6920 C   0  0  0  0  0  0  0  0  0  0  0  0
   -3.1090   25.2760  -26.1890 C   0  0  0  0  0  0  0  0  0  0  0  0
   -3.9850   23.2530  -30.5310 C   0  0  0  0  0  0  0  0  0  0  0  0
   -5.1920   22.6760  -30.9610 C   0  0  0  0  0  0  0  0  0  0  0  0
   -5.5340   21.4320  -31.5090 C   0  0  0  0  0  0  0  0  0  0  0  0
   -0.7834   21.9109  -28.5393 H   0  0  0  0  0  0  0  0  0  0  0  0
   -2.3192   21.3673  -29.2958 H   0  0  0  0  0  0  0  0  0  0  0  0
   -0.8857   20.2849  -29.2958 H   0  0  0  0  0  0  0  0  0  0  0  0
   -1.4347   22.7618  -30.9607 H   0  0  0  0  0  0  0  0  0  0  0  0
    0.2629   22.2738  -30.6025 H   0  0  0  0  0  0  0  0  0  0  0  0
    1.2291   20.7493  -31.3461 H   0  0  0  0  0  0  0  0  0  0  0  0
    0.4033   19.1882  -31.6985 H   0  0  0  0  0  0  0  0  0  0  0  0
    1.9438   20.6496  -33.5032 H   0  0  0  0  0  0  0  0  0  0  0  0
    0.7368   19.3914  -33.9353 H   0  0  0  0  0  0  0  0  0  0  0  0
    0.2663   21.1250  -33.9353 H   0  0  0  0  0  0  0  0  0  0  0  0
   -1.2083   22.5524  -33.0289 H   0  0  0  0  0  0  0  0  0  0  0  0
   -0.8560   21.0041  -33.8750 H   0  0  0  0  0  0  0  0  0  0  0  0
   -3.4236   22.1324  -33.1317 H   0  0  0  0  0  0  0  0  0  0  0  0
   -3.0614   20.6231  -34.0577 H   0  0  0  0  0  0  0  0  0  0  0  0
   -2.9490   19.3960  -32.0450 H   0  0  0  0  0  0  0  0  0  0  0  0
   -2.9550   20.7310  -31.0930 H   0  0  0  0  0  0  0  0  0  0  0  0
   -3.7616   17.9230  -32.6921 H   0  0  0  0  0  0  0  0  0  0  0  0
   -5.0307   16.0044  -33.6190 H   0  0  0  0  0  0  0  0  0  0  0  0
   -7.4925   16.1576  -33.9240 H   0  0  0  0  0  0  0  0  0  0  0  0
   -8.7169   18.1937  -33.2143 H   0  0  0  0  0  0  0  0  0  0  0  0
   -9.4488   20.3865  -30.9628 H   0  0  0  0  0  0  0  0  0  0  0  0
   -9.4742   21.2852  -32.5179 H   0  0  0  0  0  0  0  0  0  0  0  0
   -9.5034   19.4892  -32.5179 H   0  0  0  0  0  0  0  0  0  0  0  0
   -8.4290   22.9440  -31.2130 H   0  0  0  0  0  0  0  0  0  0  0  0
   -7.3977   25.1787  -30.2031 H   0  0  0  0  0  0  0  0  0  0  0  0
   -5.2618   26.2682  -29.4731 H   0  0  0  0  0  0  0  0  0  0  0  0
   -2.2331   23.8117  -28.1574 H   0  0  0  0  0  0  0  0  0  0  0  0
   -1.0192   24.3176  -29.3928 H   0  0  0  0  0  0  0  0  0  0  0  0
   -0.1623   25.6717  -27.8103 H   0  0  0  0  0  0  0  0  0  0  0  0
   -1.6852   26.6753  -28.0588 H   0  0  0  0  0  0  0  0  0  0  0  0
   -1.3753   26.5860  -24.5039 H   0  0  0  0  0  0  0  0  0  0  0  0
   -0.3133   27.1027  -25.8574 H   0  0  0  0  0  0  0  0  0  0  0  0
   -2.0521   27.5537  -25.8574 H   0  0  0  0  0  0  0  0  0  0  0  0
   -0.9599   24.4956  -24.5971 H   0  0  0  0  0  0  0  0  0  0  0  0
   -1.3385   23.4492  -26.0072 H   0  0  0  0  0  0  0  0  0  0  0  0
    0.1520   24.4518  -26.0072 H   0  0  0  0  0  0  0  0  0  0  0  0
   -3.3803   25.2300  -25.1240 H   0  0  0  0  0  0  0  0  0  0  0  0
   -3.6636   26.0930  -26.6737 H   0  0  0  0  0  0  0  0  0  0  0  0
   -3.3636   24.3219  -26.6737 H   0  0  0  0  0  0  0  0  0  0  0  0
   -3.0376   22.6998  -30.6112 H   0  0  0  0  0  0  0  0  0  0  0  0
  1  2  1  0
  2  3  1  0
  3  4  1  0
  4  5  1  0
  3  6  1  0
  6  7  1  0
  7  8  1  0
  8  9  1  0
  9 10  2  0
 10 11  1  0
 11 12  2  0
 12 13  1  0
 13 14  2  0
 14 15  1  0
 15 16  2  0
 16 17  1  0
 16 18  1  0
 18 19  1  0
 19 20  1  0
 20 21  2  0
 21 22  1  0
 22 23  2  0
 23 24  1  0
 24 25  1  0
 25 26  1  0
 26 27  1  0
 27 28  1  0
 27 29  1  0
 27 30  1  0
 23 31  1  0
 31 32  2  0
 32 33  1  0
 33  9  1  0
 15 10  1  0
 33 18  2  0
 32 20  1  0
  1 34  1  0
  1 35  1  0
  1 36  1  0
  2 37  1  0
  2 38  1  0
  4 39  1  0
  4 40  1  0
  5 41  1  0
  5 42  1  0
  5 43  1  0
  6 44  1  0
  6 45  1  0
  7 46  1  0
  7 47  1  0
  8 48  1  0
  8 49  1  0
 11 50  1  0
 12 51  1  0
 13 52  1  0
 14 53  1  0
 17 54  1  0
 17 55  1  0
 17 56  1  0
 19 57  1  0
 21 58  1  0
 22 59  1  0
 25 60  1  0
 25 61  1  0
 26 62  1  0
 26 63  1  0
 28 64  1  0
 28 65  1  0
 28 66  1  0
 29 67  1  0
 29 68  1  0
 29 69  1  0
 30 70  1  0
 30 71  1  0
 30 72  1  0
 31 73  1  0
M  CHG  3   8   1  16   1  27   1
M  END
>  <UniqueID>  (12) 
12

>  <SMILES>  (12) 
CCN(CC)CC[NH2+]c1c2ccccc2[n+](C)c2[nH]c3ccc(OCC[N+](C)(C)C)cc3c12

>  <Energy>  (12) 
134.77932985138395

>  <Genealogy>  (12) 
CCN(CC)CC[NH2+]c1c2ccccc2[n+](C)c2[nH]c3ccc(OCC[N+](C)(C)C)cc3c12 (protonated)
CCN(CC)CC[NH2+]c1c2ccccc2[n+](C)c2[nH]c3ccc(OCC[N+](C)(C)C)cc3c12 (3D coordinates assigned)
CCN(CC)CC[NH2+]c1c2ccccc2[n+](C)c2[nH]c3ccc(OCC[N+](C)(C)C)cc3c12 (optimized conformer: 134.77932985138395 kcal/mol)

>  <smiles>  (12) 
CCN(CC)CCNc1c2ccccc2[n+](C)c2[nH]c3ccc(OCC[N+](C)(C)C)cc3c12

>  <score_type>  (12) 
oracle

>  <origin>  (12) 
adg

>  <m_score__min__energy>  (12) 
-6.9699999999999998

>  <m_primary>  (12) 
energy

$$$$
12:0
     RDKit          3D

 49 52  0  0  0  0  0  0  0  0999 V2000
   -2.8830   25.5490  -25.8120 C   0  0  0  0  0  0  0  0  0  0  0  0
   -4.0630   24.9200  -26.5660 C   0  0  0  0  0  0  0  0  0  0  0  0
   -3.6820   24.4590  -27.9260 N   0  0  0  0  0  0  0  0  0  0  0  0
   -2.2460   24.7530  -28.1750 C   0  0  0  0  0  0  0  0  0  0  0  0
   -1.6800   23.8580  -29.2810 C   0  0  0  0  0  0  0  0  0  0  0  0
   -1.6860   22.4370  -28.8690 N   0  0  0  0  0  0  0  0  0  0  0  0
   -1.6140   21.5410  -30.0430 C   0  0  0  0  0  0  0  0  0  0  0  0
   -2.1940   22.2250  -31.2880 C   0  0  0  0  0  0  0  0  0  0  0  0
   -3.6260   21.9190  -31.4310 N   0  0  0  0  0  0  0  0  0  0  0  0
   -4.6100   22.9560  -31.2550 C   0  0  0  0  0  0  0  0  0  0  0  0
   -4.2530   24.1090  -30.8860 O   0  0  0  0  0  0  0  0  0  0  0  0
   -6.0410   22.6710  -31.5090 C   0  0  0  0  0  0  0  0  0  0  0  0
   -7.0090   23.6780  -31.3420 C   0  0  0  0  0  0  0  0  0  0  0  0
   -8.3570   23.4110  -31.5860 C   0  0  0  0  0  0  0  0  0  0  0  0
   -8.7610   22.1430  -32.0000 C   0  0  0  0  0  0  0  0  0  0  0  0
   -7.8140   21.1230  -32.1740 C   0  0  0  0  0  0  0  0  0  0  0  0
   -8.2200   19.8480  -32.5910 C   0  0  0  0  0  0  0  0  0  0  0  0
   -7.2790   18.8330  -32.7640 C   0  0  0  0  0  0  0  0  0  0  0  0
   -5.9260   19.0790  -32.5240 C   0  0  0  0  0  0  0  0  0  0  0  0
   -5.4940   20.3500  -32.1040 C   0  0  0  0  0  0  0  0  0  0  0  0
   -6.4410   21.3830  -31.9280 C   0  0  0  0  0  0  0  0  0  0  0  0
   -4.0580   20.6100  -31.8500 C   0  0  0  0  0  0  0  0  0  0  0  0
   -3.2160   19.6820  -32.0020 O   0  0  0  0  0  0  0  0  0  0  0  0
   -2.8100   22.0920  -27.9600 C   0  0  0  0  0  0  0  0  0  0  0  0
   -4.0220   23.0220  -28.1420 C   0  0  0  0  0  0  0  0  0  0  0  0
   -3.0507   25.4596  -24.7285 H   0  0  0  0  0  0  0  0  0  0  0  0
   -1.9539   25.0265  -26.0836 H   0  0  0  0  0  0  0  0  0  0  0  0
   -2.7989   26.6116  -26.0836 H   0  0  0  0  0  0  0  0  0  0  0  0
   -4.4313   24.0579  -25.9906 H   0  0  0  0  0  0  0  0  0  0  0  0
   -4.8402   25.6904  -26.6774 H   0  0  0  0  0  0  0  0  0  0  0  0
   -4.2260   25.0200  -28.6250 H   0  0  0  0  0  0  0  0  0  0  0  0
   -2.1427   25.8056  -28.4774 H   0  0  0  0  0  0  0  0  0  0  0  0
   -1.6854   24.5581  -27.2489 H   0  0  0  0  0  0  0  0  0  0  0  0
   -2.2945   23.9726  -30.1861 H   0  0  0  0  0  0  0  0  0  0  0  0
   -0.6412   24.1608  -29.4793 H   0  0  0  0  0  0  0  0  0  0  0  0
   -0.5626   21.2790  -30.2325 H   0  0  0  0  0  0  0  0  0  0  0  0
   -2.2026   20.6360  -29.8320 H   0  0  0  0  0  0  0  0  0  0  0  0
   -2.0651   23.3134  -31.1949 H   0  0  0  0  0  0  0  0  0  0  0  0
   -1.6626   21.8518  -32.1759 H   0  0  0  0  0  0  0  0  0  0  0  0
   -6.7014   24.6828  -31.0169 H   0  0  0  0  0  0  0  0  0  0  0  0
   -9.1050   24.2061  -31.4507 H   0  0  0  0  0  0  0  0  0  0  0  0
   -9.8254   21.9416  -32.1908 H   0  0  0  0  0  0  0  0  0  0  0  0
   -9.2844   19.6471  -32.7825 H   0  0  0  0  0  0  0  0  0  0  0  0
   -7.6045   17.8344  -33.0910 H   0  0  0  0  0  0  0  0  0  0  0  0
   -5.1916   18.2722  -32.6645 H   0  0  0  0  0  0  0  0  0  0  0  0
   -3.1248   21.0581  -28.1650 H   0  0  0  0  0  0  0  0  0  0  0  0
   -2.4517   22.2085  -26.9265 H   0  0  0  0  0  0  0  0  0  0  0  0
   -4.4078   22.9014  -29.1651 H   0  0  0  0  0  0  0  0  0  0  0  0
   -4.7728   22.7411  -27.3888 H   0  0  0  0  0  0  0  0  0  0  0  0
  1  2  1  0
  2  3  1  0
  3  4  1  0
  4  5  1  0
  5  6  1  0
  6  7  1  0
  7  8  1  0
  8  9  1  0
  9 10  1  0
 10 11  2  0
 10 12  1  0
 12 13  2  0
 13 14  1  0
 14 15  2  0
 15 16  1  0
 16 17  2  0
 17 18  1  0
 18 19  2  0
 19 20  1  0
 20 21  2  0
 20 22  1  0
 22 23  2  0
  6 24  1  0
 24 25  1  0
 25  3  1  0
 22  9  1  0
 21 12  1  0
 21 16  1  0
  1 26  1  0
  1 27  1  0
  1 28  1  0
  2 29  1  0
  2 30  1  0
  3 31  1  0
  4 32  1  0
  4 33  1  0
  5 34  1  0
  5 35  1  0
  7 36  1  0
  7 37  1  0
  8 38  1  0
  8 39  1  0
 13 40  1  0
 14 41  1  0
 15 42  1  0
 17 43  1  0
 18 44  1  0
 19 45  1  0
 24 46  1  0
 24 47  1  0
 25 48  1  0
 25 49  1  0
M  CHG  1   3   1
M  END
>  <UniqueID>  (13) 
13

>  <SMILES>  (13) 
CC[NH+]1CCN(CCN2C(=O)c3cccc4cccc(c34)C2=O)CC1

>  <Energy>  (13) 
68.58665466724707

>  <Genealogy>  (13) 
CC[NH+]1CCN(CCN2C(=O)c3cccc4cccc(c34)C2=O)CC1 (protonated)
CC[NH+]1CCN(CCN2C(=O)c3cccc4cccc(c34)C2=O)CC1 (3D coordinates assigned)
CC[NH+]1CCN(CCN2C(=O)c3cccc4cccc(c34)C2=O)CC1 (nonaromatic ring conformer: 68.58665466724707 kcal/mol)

>  <smiles>  (13) 
CCN1CCN(CCN2C(=O)c3cccc4cccc(c34)C2=O)CC1

>  <score_type>  (13) 
oracle

>  <origin>  (13) 
adg

>  <m_score__min__energy>  (13) 
-8.0500000000000007

>  <m_primary>  (13) 
energy

$$$$
13:0
     RDKit          3D

 74 76  0  0  0  0  0  0  0  0999 V2000
   -2.7330   18.9090  -26.3710 C   0  0  0  0  0  0  0  0  0  0  0  0
   -2.8950   20.0730  -27.3600 C   0  0  0  0  0  0  0  0  0  0  0  0
   -1.7760   20.2280  -28.3200 N   0  0  0  0  0  0  0  0  0  0  0  0
   -2.1380   20.9070  -29.5890 C   0  0  0  0  0  0  0  0  0  0  0  0
   -0.9560   21.5310  -30.3350 C   0  0  0  0  0  0  0  0  0  0  0  0
   -0.4830   20.6100  -27.7080 C   0  0  0  0  0  0  0  0  0  0  0  0
   -0.5810   21.9130  -26.9100 C   0  0  0  0  0  0  0  0  0  0  0  0
   -0.0870   22.9810  -27.6930 O   0  0  0  0  0  0  0  0  0  0  0  0
   -0.9850   24.0670  -27.6180 C   0  0  0  0  0  0  0  0  0  0  0  0
   -0.8930   24.9090  -28.8860 C   0  0  0  0  0  0  0  0  0  0  0  0
   -2.1900   25.2910  -29.2980 O   0  0  0  0  0  0  0  0  0  0  0  0
   -3.1560   24.5370  -28.5930 C   0  0  0  0  0  0  0  0  0  0  0  0
   -4.0500   23.7940  -29.5880 C   0  0  0  0  0  0  0  0  0  0  0  0
   -4.3680   24.6350  -30.7560 N   0  0  0  0  0  0  0  0  0  0  0  0
   -5.8250   24.7190  -30.9730 C   0  0  0  0  0  0  0  0  0  0  0  0
   -6.4290   23.3510  -31.3440 C   0  0  0  0  0  0  0  0  0  0  0  0
   -6.0480   22.8550  -32.6830 N   0  0  0  0  0  0  0  0  0  0  0  0
   -5.8370   21.4120  -32.7350 C   0  0  0  0  0  0  0  0  0  0  0  0
   -6.9300   20.5210  -32.5430 C   0  0  0  0  0  0  0  0  0  0  0  0
   -8.2410   20.9910  -32.2680 C   0  0  0  0  0  0  0  0  0  0  0  0
   -9.2790   20.1070  -31.9770 C   0  0  0  0  0  0  0  0  0  0  0  0
   -9.0440   18.7430  -31.9530 C   0  0  0  0  0  0  0  0  0  0  0  0
   -7.7820   18.2480  -32.2730 C   0  0  0  0  0  0  0  0  0  0  0  0
   -6.7180   19.1180  -32.6290 C   0  0  0  0  0  0  0  0  0  0  0  0
   -5.5050   18.6230  -33.0560 N   0  0  0  0  0  0  0  0  0  0  0  0
   -5.4020   17.2100  -33.4900 C   0  0  0  0  0  0  0  0  0  0  0  0
   -4.4010   19.4480  -33.1160 C   0  0  0  0  0  0  0  0  0  0  0  0
   -3.1000   18.9140  -33.3140 C   0  0  0  0  0  0  0  0  0  0  0  0
   -1.9820   19.7380  -33.4350 C   0  0  0  0  0  0  0  0  0  0  0  0
   -0.6860   19.1740  -33.6530 N   0  0  0  0  0  0  0  0  0  0  0  0
   -2.1320   21.1140  -33.3250 C   0  0  0  0  0  0  0  0  0  0  0  0
   -3.3840   21.6680  -33.0820 C   0  0  0  0  0  0  0  0  0  0  0  0
   -4.5450   20.8590  -32.9720 C   0  0  0  0  0  0  0  0  0  0  0  0
   -2.7864   19.2925  -25.3414 H   0  0  0  0  0  0  0  0  0  0  0  0
   -3.5379   18.1766  -26.5317 H   0  0  0  0  0  0  0  0  0  0  0  0
   -1.7587   18.4242  -26.5317 H   0  0  0  0  0  0  0  0  0  0  0  0
   -3.8191   19.9094  -27.9339 H   0  0  0  0  0  0  0  0  0  0  0  0
   -2.9182   20.9929  -26.7574 H   0  0  0  0  0  0  0  0  0  0  0  0
   -2.6106   20.1671  -30.2518 H   0  0  0  0  0  0  0  0  0  0  0  0
   -2.8102   21.7350  -29.3199 H   0  0  0  0  0  0  0  0  0  0  0  0
   -0.2259   21.9164  -29.6081 H   0  0  0  0  0  0  0  0  0  0  0  0
   -0.4770   20.7682  -30.9665 H   0  0  0  0  0  0  0  0  0  0  0  0
   -1.3157   22.3568  -30.9665 H   0  0  0  0  0  0  0  0  0  0  0  0
   -0.1597   19.8046  -27.0321 H   0  0  0  0  0  0  0  0  0  0  0  0
    0.2412   20.7666  -28.5210 H   0  0  0  0  0  0  0  0  0  0  0  0
   -1.6321   22.1051  -26.6485 H   0  0  0  0  0  0  0  0  0  0  0  0
    0.0148   21.8259  -25.9894 H   0  0  0  0  0  0  0  0  0  0  0  0
   -2.0106   23.6846  -27.5084 H   0  0  0  0  0  0  0  0  0  0  0  0
   -0.7246   24.6913  -26.7506 H   0  0  0  0  0  0  0  0  0  0  0  0
   -0.2931   25.8088  -28.6849 H   0  0  0  0  0  0  0  0  0  0  0  0
   -0.4164   24.3184  -29.6823 H   0  0  0  0  0  0  0  0  0  0  0  0
   -2.6493   23.8097  -27.9416 H   0  0  0  0  0  0  0  0  0  0  0  0
   -3.7718   25.2119  -27.9804 H   0  0  0  0  0  0  0  0  0  0  0  0
   -3.5287   22.8880  -29.9305 H   0  0  0  0  0  0  0  0  0  0  0  0
   -4.9912   23.5343  -29.0814 H   0  0  0  0  0  0  0  0  0  0  0  0
   -3.9410   24.1680  -31.5910 H   0  0  0  0  0  0  0  0  0  0  0  0
   -6.3020   25.0801  -30.0499 H   0  0  0  0  0  0  0  0  0  0  0  0
   -6.0065   25.4105  -31.8090 H   0  0  0  0  0  0  0  0  0  0  0  0
   -6.0962   22.6148  -30.5975 H   0  0  0  0  0  0  0  0  0  0  0  0
   -7.5207   23.4851  -31.3593 H   0  0  0  0  0  0  0  0  0  0  0  0
   -5.2440   23.4060  -33.0470 H   0  0  0  0  0  0  0  0  0  0  0  0
   -6.8020   23.1090  -33.3590 H   0  0  0  0  0  0  0  0  0  0  0  0
   -8.4415   22.0724  -32.2848 H   0  0  0  0  0  0  0  0  0  0  0  0
  -10.2868   20.4941  -31.7660 H   0  0  0  0  0  0  0  0  0  0  0  0
   -9.8539   18.0501  -31.6812 H   0  0  0  0  0  0  0  0  0  0  0  0
   -7.6064   17.1624  -32.2494 H   0  0  0  0  0  0  0  0  0  0  0  0
   -5.3544   16.5574  -32.6058 H   0  0  0  0  0  0  0  0  0  0  0  0
   -6.2833   16.9465  -34.0932 H   0  0  0  0  0  0  0  0  0  0  0  0
   -4.4918   17.0771  -34.0932 H   0  0  0  0  0  0  0  0  0  0  0  0
   -2.9713   17.8232  -33.3734 H   0  0  0  0  0  0  0  0  0  0  0  0
    0.0420   19.1960  -32.9050 H   0  0  0  0  0  0  0  0  0  0  0  0
   -0.4410   18.7320  -34.5680 H   0  0  0  0  0  0  0  0  0  0  0  0
   -1.2552   21.7697  -33.4307 H   0  0  0  0  0  0  0  0  0  0  0  0
   -3.4768   22.7586  -32.9725 H   0  0  0  0  0  0  0  0  0  0  0  0
  1  2  1  0
  2  3  1  0
  3  4  1  0
  4  5  1  0
  3  6  1  0
  6  7  1  0
  7  8  1  0
  8  9  1  0
  9 10  1  0
 10 11  1  0
 11 12  1  0
 12 13  1  0
 13 14  1  0
 14 15  1  0
 15 16  1  0
 16 17  1  0
 17 18  1  0
 18 19  2  0
 19 20  1  0
 20 21  2  0
 21 22  1  0
 22 23  2  0
 23 24  1  0
 24 25  2  0
 25 26  1  0
 25 27  1  0
 27 28  2  0
 28 29  1  0
 29 30  1  0
 29 31  2  0
 31 32  1  0
 32 33  2  0
 33 18  1  0
 24 19  1  0
 33 27  1  0
  1 34  1  0
  1 35  1  0
  1 36  1  0
  2 37  1  0
  2 38  1  0
  4 39  1  0
  4 40  1  0
  5 41  1  0
  5 42  1  0
  5 43  1  0
  6 44  1  0
  6 45  1  0
  7 46  1  0
  7 47  1  0
  9 48  1  0
  9 49  1  0
 10 50  1  0
 10 51  1  0
 12 52  1  0
 12 53  1  0
 13 54  1  0
 13 55  1  0
 14 56  1  0
 15 57  1  0
 15 58  1  0
 16 59  1  0
 16 60  1  0
 17 61  1  0
 17 62  1  0
 20 63  1  0
 21 64  1  0
 22 65  1  0
 23 66  1  0
 26 67  1  0
 26 68  1  0
 26 69  1  0
 28 70  1  0
 30 71  1  0
 30 72  1  0
 31 73  1  0
 32 74  1  0
M  CHG  2  17   1  25   1
M  END
>  <UniqueID>  (14) 
14

>  <SMILES>  (14) 
CCN(CC)CCOCCOCCNCC[NH2+]c1c2ccccc2[n+](C)c2cc(N)ccc12

>  <Energy>  (14) 
101.47662770604131

>  <Genealogy>  (14) 
CCN(CC)CCOCCOCCNCC[NH2+]c1c2ccccc2[n+](C)c2cc(N)ccc12 (protonated)
CCN(CC)CCOCCOCCNCC[NH2+]c1c2ccccc2[n+](C)c2cc(N)ccc12 (3D coordinates assigned)
CCN(CC)CCOCCOCCNCC[NH2+]c1c2ccccc2[n+](C)c2cc(N)ccc12 (optimized conformer: 101.47662770604131 kcal/mol)

>  <smiles>  (14) 
CCN(CC)CCOCCOCCNCCNc1c2ccccc2[n+](C)c2cc(N)ccc12

>  <score_type>  (14) 
oracle

>  <origin>  (14) 
adg

>  <m_score__min__energy>  (14) 
-9.1199999999999992

>  <m_primary>  (14) 
energy

$$$$
14:0
     RDKit          3D

 38 40  0  0  0  0  0  0  0  0999 V2000
   -9.4780   22.3110  -31.7670 C   0  0  0  0  0  0  0  0  0  0  0  0
   -8.4690   21.2410  -32.0180 C   0  0  0  0  0  0  0  0  0  0  0  0
   -8.7300   19.8870  -32.0750 C   0  0  0  0  0  0  0  0  0  0  0  0
   -7.5170   19.2840  -32.3330 C   0  0  0  0  0  0  0  0  0  0  0  0
   -6.5990   20.3120  -32.4280 C   0  0  0  0  0  0  0  0  0  0  0  0
   -5.1230   20.1430  -32.6770 C   0  0  0  0  0  0  0  0  0  0  0  0
   -4.3880   21.4320  -32.6180 N   0  0  1  0  0  0  0  0  0  0  0  0
   -4.1100   21.7940  -31.2050 C   0  0  0  0  0  0  0  0  0  0  0  0
   -4.7060   23.1270  -30.8230 C   0  0  0  0  0  0  0  0  0  0  0  0
   -5.3450   23.9160  -31.7130 N   0  0  0  0  0  0  0  0  0  0  0  0
   -5.7780   24.9620  -30.9810 C   0  0  0  0  0  0  0  0  0  0  0  0
   -5.4060   24.7920  -29.6660 C   0  0  0  0  0  0  0  0  0  0  0  0
   -4.7200   23.6400  -29.5720 N   0  0  0  0  0  0  0  0  0  0  0  0
   -4.2240   23.0390  -28.3370 C   0  0  0  0  0  0  0  0  0  0  0  0
   -3.1610   21.5480  -33.4670 C   0  0  0  0  0  0  0  0  0  0  0  0
   -1.8380   21.2430  -32.7670 C   0  0  0  0  0  0  0  0  0  0  0  0
   -2.3500   20.3040  -33.8450 C   0  0  0  0  0  0  0  0  0  0  0  0
   -7.1930   21.4660  -32.2270 O   0  0  0  0  0  0  0  0  0  0  0  0
   -9.6063   22.4470  -30.6830 H   0  0  0  0  0  0  0  0  0  0  0  0
   -9.1324   23.2536  -32.2165 H   0  0  0  0  0  0  0  0  0  0  0  0
  -10.4393   22.0212  -32.2165 H   0  0  0  0  0  0  0  0  0  0  0  0
   -9.7032   19.3918  -31.9422 H   0  0  0  0  0  0  0  0  0  0  0  0
   -7.3209   18.2070  -32.4409 H   0  0  0  0  0  0  0  0  0  0  0  0
   -4.7112   19.4662  -31.9139 H   0  0  0  0  0  0  0  0  0  0  0  0
   -4.9985   19.7318  -33.6896 H   0  0  0  0  0  0  0  0  0  0  0  0
   -5.0470   22.1640  -32.9730 H   0  0  0  0  0  0  0  0  0  0  0  0
   -4.5343   21.0174  -30.5516 H   0  0  0  0  0  0  0  0  0  0  0  0
   -3.0189   21.8691  -31.0872 H   0  0  0  0  0  0  0  0  0  0  0  0
   -6.3424   25.8204  -31.3742 H   0  0  0  0  0  0  0  0  0  0  0  0
   -5.6311   25.4792  -28.8371 H   0  0  0  0  0  0  0  0  0  0  0  0
   -4.6577   23.5646  -27.4735 H   0  0  0  0  0  0  0  0  0  0  0  0
   -4.5130   21.9782  -28.3036 H   0  0  0  0  0  0  0  0  0  0  0  0
   -3.1276   23.1215  -28.3036 H   0  0  0  0  0  0  0  0  0  0  0  0
   -3.5954   22.3700  -34.0549 H   0  0  0  0  0  0  0  0  0  0  0  0
   -0.9568   21.8723  -32.9605 H   0  0  0  0  0  0  0  0  0  0  0  0
   -1.5245   21.1234  -31.7194 H   0  0  0  0  0  0  0  0  0  0  0  0
   -1.8404   20.2548  -34.8186 H   0  0  0  0  0  0  0  0  0  0  0  0
   -2.5610   19.2259  -33.9006 H   0  0  0  0  0  0  0  0  0  0  0  0
  1  2  1  0
  2  3  2  0
  3  4  1  0
  4  5  2  0
  5  6  1  0
  6  7  1  0
  7  8  1  0
  8  9  1  0
  9 10  2  0
 10 11  1  0
 11 12  2  0
 12 13  1  0
 13 14  1  0
  7 15  1  0
 15 16  1  0
 16 17  1  0
  5 18  1  0
 18  2  1  0
 13  9  1  0
 17 15  1  0
  1 19  1  0
  1 20  1  0
  1 21  1  0
  3 22  1  0
  4 23  1  0
  6 24  1  0
  6 25  1  0
  7 26  1  6
  8 27  1  0
  8 28  1  0
 11 29  1  0
 12 30  1  0
 14 31  1  0
 14 32  1  0
 14 33  1  0
 15 34  1  0
 16 35  1  0
 16 36  1  0
 17 37  1  0
 17 38  1  0
M  CHG  1   7   1
M  END
>  <UniqueID>  (15) 
15

>  <SMILES>  (15) 
Cc1ccc(C[N@@H+](Cc2nccn2C)C2CC2)o1

>  <Energy>  (15) 
368.4605172506284

>  <Genealogy>  (15) 
Cc1ccc(C[NH+](Cc2nccn2C)C2CC2)o1 (protonated)
Cc1ccc(C[N@@H+](Cc2nccn2C)C2CC2)o1 (chirality)
Cc1ccc(C[N@@H+](Cc2nccn2C)C2CC2)o1 (3D coordinates assigned)
Cc1ccc(C[N@@H+](Cc2nccn2C)C2CC2)o1 (nonaromatic ring conformer: 368.4605172506284 kcal/mol)

>  <smiles>  (15) 
Cc1ccc(CN(Cc2nccn2C)C2CC2)o1

>  <score_type>  (15) 
oracle

>  <origin>  (15) 
adg

>  <m_score__min__energy>  (15) 
-4.9199999999999999

>  <m_primary>  (15) 
energy

$$$$
15:0
     RDKit          3D

 35 35  0  0  0  0  0  0  0  0999 V2000
   -4.1890   24.1580  -28.4880 C   0  0  0  0  0  0  0  0  0  0  0  0
   -3.5400   24.3970  -29.8620 C   0  0  0  0  0  0  0  0  0  0  0  0
   -3.2270   23.0610  -30.5400 C   0  0  0  0  0  0  0  0  0  0  0  0
   -4.4100   25.1890  -30.7500 N   0  0  0  0  0  0  0  0  0  0  0  0
   -5.6800   25.5610  -30.1120 C   0  0  0  0  0  0  0  0  0  0  0  0
   -6.7810   24.5580  -30.4830 C   0  0  0  0  0  0  0  0  0  0  0  0
   -6.2540   23.4440  -31.2920 N   0  0  0  0  0  0  0  0  0  0  0  0
   -7.2980   22.6300  -31.9380 C   0  0  0  0  0  0  0  0  0  0  0  0
   -6.7710   21.3100  -32.4410 C   0  0  0  0  0  0  0  0  0  0  0  0
   -5.6330   21.1970  -33.1550 N   0  0  0  0  0  0  0  0  0  0  0  0
   -5.5030   19.8860  -33.4300 C   0  0  0  0  0  0  0  0  0  0  0  0
   -6.5710   19.2170  -32.8730 C   0  0  0  0  0  0  0  0  0  0  0  0
   -6.9070   17.3410  -33.0290 Br  0  0  0  0  0  0  0  0  0  0  0  0
   -7.3600   20.1080  -32.2360 N   0  0  0  0  0  0  0  0  0  0  0  0
   -8.6590   19.8380  -31.6220 C   0  0  0  0  0  0  0  0  0  0  0  0
   -3.4744   24.4212  -27.6942 H   0  0  0  0  0  0  0  0  0  0  0  0
   -5.0887   24.7838  -28.3936 H   0  0  0  0  0  0  0  0  0  0  0  0
   -4.4680   23.0982  -28.3936 H   0  0  0  0  0  0  0  0  0  0  0  0
   -2.6120   24.9611  -29.6871 H   0  0  0  0  0  0  0  0  0  0  0  0
   -3.0472   22.2936  -29.7726 H   0  0  0  0  0  0  0  0  0  0  0  0
   -4.0789   22.7597  -31.1673 H   0  0  0  0  0  0  0  0  0  0  0  0
   -2.3299   23.1695  -31.1673 H   0  0  0  0  0  0  0  0  0  0  0  0
   -4.6140   24.6470  -31.6220 H   0  0  0  0  0  0  0  0  0  0  0  0
   -5.5486   25.5670  -29.0199 H   0  0  0  0  0  0  0  0  0  0  0  0
   -5.9757   26.5605  -30.4634 H   0  0  0  0  0  0  0  0  0  0  0  0
   -7.2190   24.1517  -29.5594 H   0  0  0  0  0  0  0  0  0  0  0  0
   -7.5391   25.0863  -31.0797 H   0  0  0  0  0  0  0  0  0  0  0  0
   -5.6350   23.8450  -32.0340 H   0  0  0  0  0  0  0  0  0  0  0  0
   -8.0967   22.4357  -31.2071 H   0  0  0  0  0  0  0  0  0  0  0  0
   -7.6725   23.1932  -32.8055 H   0  0  0  0  0  0  0  0  0  0  0  0
   -4.9910   21.9650  -33.4530 H   0  0  0  0  0  0  0  0  0  0  0  0
   -4.6835   19.4267  -34.0022 H   0  0  0  0  0  0  0  0  0  0  0  0
   -8.5583   19.8589  -30.5268 H   0  0  0  0  0  0  0  0  0  0  0  0
   -9.3808   20.6053  -31.9386 H   0  0  0  0  0  0  0  0  0  0  0  0
   -9.0152   18.8466  -31.9386 H   0  0  0  0  0  0  0  0  0  0  0  0
  1  2  1  0
  2  3  1  0
  2  4  1  0
  4  5  1  0
  5  6  1  0
  6  7  1  0
  7  8  1  0
  8  9  1  0
  9 10  2  0
 10 11  1  0
 11 12  2  0
 12 13  1  0
 12 14  1  0
 14 15  1  0
 14  9  1  0
  1 16  1  0
  1 17  1  0
  1 18  1  0
  2 19  1  0
  3 20  1  0
  3 21  1  0
  3 22  1  0
  4 23  1  0
  5 24  1  0
  5 25  1  0
  6 26  1  0
  6 27  1  0
  7 28  1  0
  8 29  1  0
  8 30  1  0
 10 31  1  0
 11 32  1  0
 15 33  1  0
 15 34  1  0
 15 35  1  0
M  CHG  1  10   1
M  END
>  <UniqueID>  (16) 
16

>  <SMILES>  (16) 
CC(C)NCCNCc1[nH+]cc(Br)n1C

>  <Energy>  (16) 
58.03947277614318

>  <Genealogy>  (16) 
CC(C)NCCNCc1[nH+]cc(Br)n1C (protonated)
CC(C)NCCNCc1[nH+]cc(Br)n1C (3D coordinates assigned)
CC(C)NCCNCc1[nH+]cc(Br)n1C (optimized conformer: 58.03947277614318 kcal/mol)

>  <smiles>  (16) 
CC(C)NCCNCc1ncc(Br)n1C

>  <score_type>  (16) 
oracle

>  <origin>  (16) 
adg

>  <m_score__min__energy>  (16) 
-5.5

>  <m_primary>  (16) 
energy

$$$$
16:0
     RDKit          3D

 51 53  0  0  0  0  0  0  0  0999 V2000
   -1.0570   23.8070  -29.3230 C   0  0  0  0  0  0  0  0  0  0  0  0
   -2.5080   23.8330  -29.6730 C   0  0  0  0  0  0  0  0  0  0  0  0
   -3.2720   24.9410  -29.5910 N   0  0  0  0  0  0  0  0  0  0  0  0
   -4.4760   24.5160  -30.0150 C   0  0  0  0  0  0  0  0  0  0  0  0
   -5.6340   25.4300  -30.2350 C   0  0  0  0  0  0  0  0  0  0  0  0
   -4.3890   23.1830  -30.3560 C   0  0  0  0  0  0  0  0  0  0  0  0
   -5.4460   22.3110  -30.8800 C   0  0  0  0  0  0  0  0  0  0  0  0
   -6.7220   22.3650  -30.4160 N   0  0  0  0  0  0  0  0  0  0  0  0
   -7.3680   21.4900  -31.2080 C   0  0  0  0  0  0  0  0  0  0  0  0
   -8.7190   21.1550  -31.1730 C   0  0  0  0  0  0  0  0  0  0  0  0
   -9.1920   20.2240  -32.1250 C   0  0  0  0  0  0  0  0  0  0  0  0
   -8.3120   19.6750  -33.0830 C   0  0  0  0  0  0  0  0  0  0  0  0
   -6.9540   20.0450  -33.1000 C   0  0  0  0  0  0  0  0  0  0  0  0
   -6.5150   20.9540  -32.1300 C   0  0  0  0  0  0  0  0  0  0  0  0
   -5.2820   21.4530  -31.9240 N   0  0  0  0  0  0  0  0  0  0  0  0
   -4.1030   21.2980  -32.7820 C   0  0  0  0  0  0  0  0  0  0  0  0
   -3.2360   20.1400  -32.2830 C   0  0  0  0  0  0  0  0  0  0  0  0
   -2.0680   20.6650  -31.5530 N   0  0  0  0  0  0  0  0  0  0  0  0
   -1.0310   19.6440  -31.3220 C   0  0  0  0  0  0  0  0  0  0  0  0
   -0.0350   20.0830  -30.2430 C   0  0  0  0  0  0  0  0  0  0  0  0
   -0.6900   20.9580  -29.2620 N   0  0  0  0  0  0  0  0  0  0  0  0
   -1.0170   20.2090  -28.0420 C   0  0  0  0  0  0  0  0  0  0  0  0
   -2.5360   20.0550  -27.9010 C   0  0  0  0  0  0  0  0  0  0  0  0
   -3.2450   20.4150  -29.1300 N   0  0  0  0  0  0  0  0  0  0  0  0
   -3.1630   22.7920  -30.1380 O   0  0  0  0  0  0  0  0  0  0  0  0
   -0.9437   23.8050  -28.2288 H   0  0  0  0  0  0  0  0  0  0  0  0
   -0.5951   22.9004  -29.7411 H   0  0  0  0  0  0  0  0  0  0  0  0
   -0.5630   24.6964  -29.7411 H   0  0  0  0  0  0  0  0  0  0  0  0
   -6.0387   25.7495  -29.2633 H   0  0  0  0  0  0  0  0  0  0  0  0
   -5.3022   26.3123  -30.8020 H   0  0  0  0  0  0  0  0  0  0  0  0
   -6.4151   24.9023  -30.8020 H   0  0  0  0  0  0  0  0  0  0  0  0
   -9.3957   21.6003  -30.4289 H   0  0  0  0  0  0  0  0  0  0  0  0
  -10.2507   19.9256  -32.1197 H   0  0  0  0  0  0  0  0  0  0  0  0
   -8.6904   18.9529  -33.8215 H   0  0  0  0  0  0  0  0  0  0  0  0
   -6.2616   19.6341  -33.8495 H   0  0  0  0  0  0  0  0  0  0  0  0
   -4.4279   21.0911  -33.8124 H   0  0  0  0  0  0  0  0  0  0  0  0
   -3.5135   22.2263  -32.7538 H   0  0  0  0  0  0  0  0  0  0  0  0
   -3.8299   19.5032  -31.6109 H   0  0  0  0  0  0  0  0  0  0  0  0
   -2.8892   19.5504  -33.1444 H   0  0  0  0  0  0  0  0  0  0  0  0
   -2.3940   20.9850  -30.6110 H   0  0  0  0  0  0  0  0  0  0  0  0
   -1.5154   18.7099  -31.0014 H   0  0  0  0  0  0  0  0  0  0  0  0
   -0.4774   19.4983  -32.2613 H   0  0  0  0  0  0  0  0  0  0  0  0
    0.3571   19.1930  -29.7290 H   0  0  0  0  0  0  0  0  0  0  0  0
    0.7856   20.6376  -30.7216 H   0  0  0  0  0  0  0  0  0  0  0  0
   -1.5890   21.2910  -29.6820 H   0  0  0  0  0  0  0  0  0  0  0  0
   -0.5548   19.2122  -28.0937 H   0  0  0  0  0  0  0  0  0  0  0  0
   -0.6315   20.7593  -27.1711 H   0  0  0  0  0  0  0  0  0  0  0  0
   -2.7644   19.0077  -27.6541 H   0  0  0  0  0  0  0  0  0  0  0  0
   -2.8720   20.7364  -27.1055 H   0  0  0  0  0  0  0  0  0  0  0  0
   -3.0510   19.6910  -29.8610 H   0  0  0  0  0  0  0  0  0  0  0  0
   -2.8900   21.3340  -29.4800 H   0  0  0  0  0  0  0  0  0  0  0  0
  1  2  1  0
  2  3  2  0
  3  4  1  0
  4  5  1  0
  4  6  2  0
  6  7  1  0
  7  8  2  0
  8  9  1  0
  9 10  2  0
 10 11  1  0
 11 12  2  0
 12 13  1  0
 13 14  2  0
 14 15  1  0
 15 16  1  0
 16 17  1  0
 17 18  1  0
 18 19  1  0
 19 20  1  0
 20 21  1  0
 21 22  1  0
 22 23  1  0
 23 24  1  0
  6 25  1  0
 25  2  1  0
 15  7  1  0
 14  9  1  0
  1 26  1  0
  1 27  1  0
  1 28  1  0
  5 29  1  0
  5 30  1  0
  5 31  1  0
 10 32  1  0
 11 33  1  0
 12 34  1  0
 13 35  1  0
 16 36  1  0
 16 37  1  0
 17 38  1  0
 17 39  1  0
 18 40  1  0
 19 41  1  0
 19 42  1  0
 20 43  1  0
 20 44  1  0
 21 45  1  0
 22 46  1  0
 22 47  1  0
 23 48  1  0
 23 49  1  0
 24 50  1  0
 24 51  1  0
M  END
>  <UniqueID>  (17) 
17

>  <SMILES>  (17) 
Cc1nc(C)c(-c2nc3ccccc3n2CCNCCNCCN)o1

>  <Energy>  (17) 
114.2549523194107

>  <Genealogy>  (17) 
Cc1nc(C)c(-c2nc3ccccc3n2CCNCCNCCN)o1 (3D coordinates assigned)
Cc1nc(C)c(-c2nc3ccccc3n2CCNCCNCCN)o1 (optimized conformer: 114.2549523194107 kcal/mol)

>  <smiles>  (17) 
Cc1nc(C)c(-c2nc3ccccc3n2CCNCCNCCN)o1

>  <score_type>  (17) 
oracle

>  <origin>  (17) 
adg

>  <m_score__min__energy>  (17) 
-7.7699999999999996

>  <m_primary>  (17) 
energy

$$$$
17:0
     RDKit          3D

 38 40  0  0  0  0  0  0  0  0999 V2000
   -6.5060   25.4740  -29.3550 C   0  0  0  0  0  0  0  0  0  0  0  0
   -5.6300   26.0430  -30.4660 C   0  0  0  0  0  0  0  0  0  0  0  0
   -4.6580   25.0840  -30.8860 O   0  0  0  0  0  0  0  0  0  0  0  0
   -4.9330   23.7740  -31.3120 C   0  0  0  0  0  0  0  0  0  0  0  0
   -3.9580   22.7940  -31.1010 C   0  0  0  0  0  0  0  0  0  0  0  0
   -4.1740   21.4740  -31.5070 C   0  0  0  0  0  0  0  0  0  0  0  0
   -5.3690   21.1180  -32.1500 C   0  0  0  0  0  0  0  0  0  0  0  0
   -5.5880   19.7190  -32.5630 C   0  0  0  0  0  0  0  0  0  0  0  0
   -4.7470   19.0660  -33.4210 N   0  0  0  0  0  0  0  0  0  0  0  0
   -5.3660   17.8810  -33.5670 C   0  0  0  0  0  0  0  0  0  0  0  0
   -5.1020   16.5780  -34.5930 S   0  0  0  0  0  0  0  0  0  0  0  0
   -6.6030   15.9100  -34.0800 C   0  0  0  0  0  0  0  0  0  0  0  0
   -7.1470   14.6010  -34.5440 C   0  0  0  0  0  0  0  0  0  0  0  0
   -7.2310   16.7030  -33.1690 N   0  0  0  0  0  0  0  0  0  0  0  0
   -6.4960   17.7740  -32.9090 N   0  0  0  0  0  0  0  0  0  0  0  0
   -6.6980   18.9140  -32.2430 C   0  0  0  0  0  0  0  0  0  0  0  0
   -7.9980   19.3130  -31.6020 C   0  0  0  0  0  0  0  0  0  0  0  0
   -9.0440   19.6250  -32.6650 C   0  0  0  0  0  0  0  0  0  0  0  0
   -6.3560   22.0920  -32.3480 C   0  0  0  0  0  0  0  0  0  0  0  0
   -6.1410   23.4130  -31.9410 C   0  0  0  0  0  0  0  0  0  0  0  0
   -6.0830   25.7488  -28.3775 H   0  0  0  0  0  0  0  0  0  0  0  0
   -7.5227   25.8846  -29.4431 H   0  0  0  0  0  0  0  0  0  0  0  0
   -6.5442   24.3782  -29.4431 H   0  0  0  0  0  0  0  0  0  0  0  0
   -6.2644   26.3129  -31.3232 H   0  0  0  0  0  0  0  0  0  0  0  0
   -5.1066   26.9314  -30.0828 H   0  0  0  0  0  0  0  0  0  0  0  0
   -3.0114   23.0647  -30.6105 H   0  0  0  0  0  0  0  0  0  0  0  0
   -3.4036   20.7110  -31.3215 H   0  0  0  0  0  0  0  0  0  0  0  0
   -7.4045   13.9813  -33.6724 H   0  0  0  0  0  0  0  0  0  0  0  0
   -8.0482   14.7728  -35.1509 H   0  0  0  0  0  0  0  0  0  0  0  0
   -6.3895   14.0835  -35.1509 H   0  0  0  0  0  0  0  0  0  0  0  0
   -8.1670   16.5170  -32.7440 H   0  0  0  0  0  0  0  0  0  0  0  0
   -8.3586   18.4875  -30.9707 H   0  0  0  0  0  0  0  0  0  0  0  0
   -7.8320   20.2129  -30.9916 H   0  0  0  0  0  0  0  0  0  0  0  0
   -9.9891   19.9069  -32.1778 H   0  0  0  0  0  0  0  0  0  0  0  0
   -8.6923   20.4573  -33.2923 H   0  0  0  0  0  0  0  0  0  0  0  0
   -9.2058   18.7360  -33.2923 H   0  0  0  0  0  0  0  0  0  0  0  0
   -7.3070   21.8161  -32.8270 H   0  0  0  0  0  0  0  0  0  0  0  0
   -6.9178   24.1727  -32.1126 H   0  0  0  0  0  0  0  0  0  0  0  0
  1  2  1  0
  2  3  1  0
  3  4  1  0
  4  5  2  0
  5  6  1  0
  6  7  2  0
  7  8  1  0
  8  9  1  0
  9 10  2  0
 10 11  1  0
 11 12  1  0
 12 13  1  0
 12 14  2  0
 14 15  1  0
 15 16  1  0
 16 17  1  0
 17 18  1  0
  7 19  1  0
 19 20  2  0
 20  4  1  0
 16  8  2  0
 15 10  1  0
  1 21  1  0
  1 22  1  0
  1 23  1  0
  2 24  1  0
  2 25  1  0
  5 26  1  0
  6 27  1  0
 13 28  1  0
 13 29  1  0
 13 30  1  0
 14 31  1  0
 17 32  1  0
 17 33  1  0
 18 34  1  0
 18 35  1  0
 18 36  1  0
 19 37  1  0
 20 38  1  0
M  CHG  1  14   1
M  END
>  <UniqueID>  (18) 
18

>  <SMILES>  (18) 
CCOc1ccc(-c2nc3sc(C)[nH+]n3c2CC)cc1

>  <Energy>  (18) 
121.47507858663367

>  <Genealogy>  (18) 
CCOc1ccc(-c2nc3sc(C)[nH+]n3c2CC)cc1 (protonated)
CCOc1ccc(-c2nc3sc(C)[nH+]n3c2CC)cc1 (3D coordinates assigned)
CCOc1ccc(-c2nc3sc(C)[nH+]n3c2CC)cc1 (optimized conformer: 121.47507858663367 kcal/mol)

>  <smiles>  (18) 
CCOc1ccc(-c2nc3sc(C)nn3c2CC)cc1

>  <score_type>  (18) 
oracle

>  <origin>  (18) 
adg

>  <m_score__min__energy>  (18) 
-7.1200000000000001

>  <m_primary>  (18) 
energy

$$$$
18:0
     RDKit          3D

 49 51  0  0  0  0  0  0  0  0999 V2000
   -6.8490   25.3060  -29.7190 C   0  0  0  0  0  0  0  0  0  0  0  0
   -5.4870   25.3080  -30.4100 C   0  0  0  0  0  0  0  0  0  0  0  0
   -4.4070   24.6100  -29.5710 C   0  0  0  0  0  0  0  0  0  0  0  0
   -3.4640   23.8600  -30.4490 N   0  0  0  0  0  0  0  0  0  0  0  0
   -2.2270   23.5030  -29.7130 C   0  0  0  0  0  0  0  0  0  0  0  0
   -2.4970   22.4250  -28.6610 C   0  0  0  0  0  0  0  0  0  0  0  0
   -4.1260   22.6540  -31.0030 C   0  0  0  0  0  0  0  0  0  0  0  0
   -3.5310   22.1960  -32.3490 C   0  0  0  0  0  0  0  0  0  0  0  0
   -4.5510   21.7010  -33.2780 N   0  0  0  0  0  0  0  0  0  0  0  0
   -5.6650   20.8750  -32.8860 C   0  0  0  0  0  0  0  0  0  0  0  0
   -5.5600   19.4650  -32.8620 C   0  0  0  0  0  0  0  0  0  0  0  0
   -4.3570   18.8220  -33.2160 C   0  0  0  0  0  0  0  0  0  0  0  0
   -4.2540   17.4340  -33.1850 C   0  0  0  0  0  0  0  0  0  0  0  0
   -5.3380   16.6610  -32.7860 C   0  0  0  0  0  0  0  0  0  0  0  0
   -6.5430   17.2670  -32.4350 C   0  0  0  0  0  0  0  0  0  0  0  0
   -6.6980   18.6750  -32.4900 C   0  0  0  0  0  0  0  0  0  0  0  0
   -7.9070   19.2840  -32.1890 N   0  0  0  0  0  0  0  0  0  0  0  0
   -9.1260   18.4820  -31.9640 C   0  0  0  0  0  0  0  0  0  0  0  0
   -7.9560   20.6560  -32.0990 C   0  0  0  0  0  0  0  0  0  0  0  0
   -9.0450   21.4230  -31.6300 C   0  0  0  0  0  0  0  0  0  0  0  0
   -8.7990   22.7900  -31.6330 C   0  0  0  0  0  0  0  0  0  0  0  0
   -7.2370   23.0550  -32.1990 S   0  0  0  0  0  0  0  0  0  0  0  0
   -6.8660   21.4350  -32.4570 C   0  0  0  0  0  0  0  0  0  0  0  0
   -6.7068   25.3062  -28.6282 H   0  0  0  0  0  0  0  0  0  0  0  0
   -7.4119   26.2033  -30.0155 H   0  0  0  0  0  0  0  0  0  0  0  0
   -7.4093   24.4070  -30.0155 H   0  0  0  0  0  0  0  0  0  0  0  0
   -5.5786   24.7859  -31.3739 H   0  0  0  0  0  0  0  0  0  0  0  0
   -5.1812   26.3556  -30.5481 H   0  0  0  0  0  0  0  0  0  0  0  0
   -3.8468   25.3661  -29.0013 H   0  0  0  0  0  0  0  0  0  0  0  0
   -4.8937   23.9007  -28.8855 H   0  0  0  0  0  0  0  0  0  0  0  0
   -1.4806   23.1268  -30.4281 H   0  0  0  0  0  0  0  0  0  0  0  0
   -1.8562   24.4029  -29.2005 H   0  0  0  0  0  0  0  0  0  0  0  0
   -2.3885   22.8583  -27.6558 H   0  0  0  0  0  0  0  0  0  0  0  0
   -3.5195   22.0391  -28.7855 H   0  0  0  0  0  0  0  0  0  0  0  0
   -1.7771   21.6027  -28.7855 H   0  0  0  0  0  0  0  0  0  0  0  0
   -4.0209   21.8337  -30.2776 H   0  0  0  0  0  0  0  0  0  0  0  0
   -5.1792   22.9147  -31.1842 H   0  0  0  0  0  0  0  0  0  0  0  0
   -3.0151   23.0488  -32.8143 H   0  0  0  0  0  0  0  0  0  0  0  0
   -2.8390   21.3664  -32.1418 H   0  0  0  0  0  0  0  0  0  0  0  0
   -4.5000   22.0370  -34.2650 H   0  0  0  0  0  0  0  0  0  0  0  0
   -3.4885   19.4244  -33.5206 H   0  0  0  0  0  0  0  0  0  0  0  0
   -3.3117   16.9475  -33.4772 H   0  0  0  0  0  0  0  0  0  0  0  0
   -5.2444   15.5657  -32.7471 H   0  0  0  0  0  0  0  0  0  0  0  0
   -7.3880   16.6422  -32.1098 H   0  0  0  0  0  0  0  0  0  0  0  0
   -9.2967   18.3697  -30.8831 H   0  0  0  0  0  0  0  0  0  0  0  0
   -9.9884   18.9897  -32.4206 H   0  0  0  0  0  0  0  0  0  0  0  0
   -9.0011   17.4891  -32.4206 H   0  0  0  0  0  0  0  0  0  0  0  0
   -9.9950   20.9811  -31.2951 H   0  0  0  0  0  0  0  0  0  0  0  0
   -9.5078   23.5699  -31.3177 H   0  0  0  0  0  0  0  0  0  0  0  0
  1  2  1  0
  2  3  1  0
  3  4  1  0
  4  5  1  0
  5  6  1  0
  4  7  1  0
  7  8  1  0
  8  9  1  0
  9 10  1  0
 10 11  2  0
 11 12  1  0
 12 13  2  0
 13 14  1  0
 14 15  2  0
 15 16  1  0
 16 17  2  0
 17 18  1  0
 17 19  1  0
 19 20  1  0
 20 21  2  0
 21 22  1  0
 22 23  1  0
 23 10  1  0
 16 11  1  0
 23 19  2  0
  1 24  1  0
  1 25  1  0
  1 26  1  0
  2 27  1  0
  2 28  1  0
  3 29  1  0
  3 30  1  0
  5 31  1  0
  5 32  1  0
  6 33  1  0
  6 34  1  0
  6 35  1  0
  7 36  1  0
  7 37  1  0
  8 38  1  0
  8 39  1  0
  9 40  1  0
 12 41  1  0
 13 42  1  0
 14 43  1  0
 15 44  1  0
 18 45  1  0
 18 46  1  0
 18 47  1  0
 20 48  1  0
 21 49  1  0
M  CHG  1  17   1
M  END
>  <UniqueID>  (19) 
19

>  <SMILES>  (19) 
CCCN(CC)CCNc1c2ccccc2[n+](C)c2ccsc12

>  <Energy>  (19) 
92.2544315510157

>  <Genealogy>  (19) 
CCCN(CC)CCNc1c2ccccc2[n+](C)c2ccsc12 (3D coordinates assigned)
CCCN(CC)CCNc1c2ccccc2[n+](C)c2ccsc12 (optimized conformer: 92.2544315510157 kcal/mol)

>  <smiles>  (19) 
CCCN(CC)CCNc1c2ccccc2[n+](C)c2ccsc12

>  <score_type>  (19) 
oracle

>  <origin>  (19) 
adg

>  <m_score__min__energy>  (19) 
-8.1999999999999993

>  <m_primary>  (19) 
energy

$$$$
19:0
     RDKit          3D

 54 56  0  0  0  0  0  0  0  0999 V2000
   -1.9412   20.6136  -25.5654 H   0  0  0  0  0  0  0  0  0  0  0  0
   -1.6580   20.6840  -26.6260 C   0  0  0  0  0  0  0  0  0  0  0  0
   -1.3100   19.6110  -27.2700 N   0  0  0  0  0  0  0  0  0  0  0  0
    0.0140   19.4280  -27.8580 C   0  0  0  0  0  0  0  0  0  0  0  0
    0.5108   18.5801  -27.3637 H   0  0  0  0  0  0  0  0  0  0  0  0
    0.5875   20.3555  -27.7136 H   0  0  0  0  0  0  0  0  0  0  0  0
   -0.0750   19.1450  -29.3660 C   0  0  0  0  0  0  0  0  0  0  0  0
   -1.0138   18.6084  -29.5677 H   0  0  0  0  0  0  0  0  0  0  0  0
    0.8057   18.5466  -29.6424 H   0  0  0  0  0  0  0  0  0  0  0  0
   -0.0490   20.4240  -30.2160 C   0  0  0  0  0  0  0  0  0  0  0  0
    0.9903   20.7724  -30.3084 H   0  0  0  0  0  0  0  0  0  0  0  0
   -0.6702   21.1845  -29.7203 H   0  0  0  0  0  0  0  0  0  0  0  0
   -0.5980   20.1790  -31.5680 N   0  0  0  0  0  0  0  0  0  0  0  0
   -1.2690   21.3610  -32.1590 C   0  0  0  0  0  0  0  0  0  0  0  0
   -0.6257   21.7970  -32.9375 H   0  0  0  0  0  0  0  0  0  0  0  0
   -1.4526   22.1097  -31.3743 H   0  0  0  0  0  0  0  0  0  0  0  0
   -2.5940   20.9350  -32.7750 C   0  0  0  0  0  0  0  0  0  0  0  0
   -3.3128   20.7039  -31.9750 H   0  0  0  0  0  0  0  0  0  0  0  0
   -2.9883   21.7516  -33.3976 H   0  0  0  0  0  0  0  0  0  0  0  0
   -2.4385   20.0416  -33.3976 H   0  0  0  0  0  0  0  0  0  0  0  0
    0.3800   19.5480  -32.4830 C   0  0  0  0  0  0  0  0  0  0  0  0
    1.2696   19.2675  -31.8999 H   0  0  0  0  0  0  0  0  0  0  0  0
   -0.1189   18.6778  -32.9346 H   0  0  0  0  0  0  0  0  0  0  0  0
    0.8250   20.4580  -33.6380 C   0  0  0  0  0  0  0  0  0  0  0  0
    1.2737   21.3756  -33.2298 H   0  0  0  0  0  0  0  0  0  0  0  0
    1.5668   19.9304  -34.2556 H   0  0  0  0  0  0  0  0  0  0  0  0
   -0.0469   20.7195  -34.2556 H   0  0  0  0  0  0  0  0  0  0  0  0
   -1.6780   22.0050  -27.3050 C   0  0  0  0  0  0  0  0  0  0  0  0
   -2.3200   22.1460  -28.5560 C   0  0  0  0  0  0  0  0  0  0  0  0
   -2.8850   21.1440  -29.0790 O   0  0  0  0  0  0  0  0  0  0  0  0
   -2.3230   23.3490  -29.2180 N   0  0  0  0  0  0  0  0  0  0  0  0
   -3.0350   23.4750  -30.5050 C   0  0  0  0  0  0  0  0  0  0  0  0
   -2.3625   23.9239  -31.2508 H   0  0  0  0  0  0  0  0  0  0  0  0
   -3.3521   22.4768  -30.8411 H   0  0  0  0  0  0  0  0  0  0  0  0
   -4.2410   24.3430  -30.3400 C   0  0  0  0  0  0  0  0  0  0  0  0
   -4.3390   25.5640  -30.8160 O   0  0  0  0  0  0  0  0  0  0  0  0
   -5.5310   26.0300  -30.5280 C   0  0  0  0  0  0  0  0  0  0  0  0
   -5.9009   27.0309  -30.7953 H   0  0  0  0  0  0  0  0  0  0  0  0
   -6.2510   25.0750  -29.8390 C   0  0  0  0  0  0  0  0  0  0  0  0
   -7.2804   25.1672  -29.4625 H   0  0  0  0  0  0  0  0  0  0  0  0
   -5.4190   23.9820  -29.7180 C   0  0  0  0  0  0  0  0  0  0  0  0
   -5.6464   23.0235  -29.2285 H   0  0  0  0  0  0  0  0  0  0  0  0
   -1.7190   24.4510  -28.6700 C   0  0  0  0  0  0  0  0  0  0  0  0
   -1.7570   25.6730  -29.3420 O   0  0  0  0  0  0  0  0  0  0  0  0
   -1.0650   24.3660  -27.4300 C   0  0  0  0  0  0  0  0  0  0  0  0
   -0.4410   25.4990  -26.8700 C   0  0  0  0  0  0  0  0  0  0  0  0
   -0.4465   26.4522  -27.4189 H   0  0  0  0  0  0  0  0  0  0  0  0
    0.1830   25.4210  -25.6260 C   0  0  0  0  0  0  0  0  0  0  0  0
    0.6733   26.3089  -25.2003 H   0  0  0  0  0  0  0  0  0  0  0  0
    0.1860   24.2200  -24.9220 C   0  0  0  0  0  0  0  0  0  0  0  0
    0.6726   24.1636  -23.9371 H   0  0  0  0  0  0  0  0  0  0  0  0
   -0.4260   23.0870  -25.4610 C   0  0  0  0  0  0  0  0  0  0  0  0
   -0.4253   22.1459  -24.8915 H   0  0  0  0  0  0  0  0  0  0  0  0
   -1.0470   23.1350  -26.7310 C   0  0  0  0  0  0  0  0  0  0  0  0
  1  2  1  0
  2  3  2  0
  3  4  1  0
  4  5  1  0
  4  6  1  0
  4  7  1  0
  7  8  1  0
  7  9  1  0
  7 10  1  0
 10 11  1  0
 10 12  1  0
 10 13  1  0
 13 14  1  0
 14 15  1  0
 14 16  1  0
 14 17  1  0
 17 18  1  0
 17 19  1  0
 17 20  1  0
 13 21  1  0
 21 22  1  0
 21 23  1  0
 21 24  1  0
 24 25  1  0
 24 26  1  0
 24 27  1  0
  2 28  1  0
 28 29  1  0
 29 30  2  0
 29 31  1  0
 31 32  1  0
 32 33  1  0
 32 34  1  0
 32 35  1  0
 35 36  1  0
 36 37  1  0
 37 38  1  0
 37 39  2  0
 39 40  1  0
 39 41  1  0
 41 42  1  0
 31 43  1  0
 43 44  1  0
 43 45  2  0
 45 46  1  0
 46 47  1  0
 46 48  2  0
 48 49  1  0
 48 50  1  0
 50 51  1  0
 50 52  2  0
 52 53  1  0
 52 54  1  0
 54 28  2  0
 41 35  2  0
 54 45  1  0
M  CHG  1  44  -1
M  END
>  <UniqueID>  (20) 
20

>  <SMILES>  (20) 
CCN(CC)CCC/N=C/c1c(=O)n(Cc2ccco2)c([O-])c2ccccc12

>  <Energy>  (20) 
91.02998466797179

>  <Genealogy>  (20) 
CCN(CC)CCCN=Cc1c(=O)n(Cc2ccco2)c([O-])c2ccccc12 (protonated)
CCN(CC)CCC/N=C/c1c(=O)n(Cc2ccco2)c([O-])c2ccccc12 (cis-trans isomerization)
CCN(CC)CCC/N=C/c1c(=O)n(Cc2ccco2)c([O-])c2ccccc12 (3D coordinates assigned)
CCN(CC)CCC/N=C/c1c(=O)n(Cc2ccco2)c([O-])c2ccccc12 (optimized conformer: 91.02998466797179 kcal/mol)

>  <smiles>  (20) 
CCN(CC)CCCN=Cc1c(=O)n(Cc2ccco2)c(O)c2ccccc12

>  <score_type>  (20) 
oracle

>  <origin>  (20) 
adg

>  <m_score__min__energy>  (20) 
-10.880000000000001

>  <m_primary>  (20) 
energy

$$$$
20:0
     RDKit          3D

 61 66  0  0  0  0  0  0  0  0999 V2000
    0.6790   23.5260  -36.0330 C   0  0  0  0  0  0  0  0  0  0  0  0
    0.1200   22.2650  -35.3810 C   0  0  0  0  0  0  0  0  0  0  0  0
    0.9160   21.9040  -34.1870 N   0  0  0  0  0  0  0  0  0  0  0  0
    2.1020   21.1260  -34.5880 C   0  0  0  0  0  0  0  0  0  0  0  0
    0.1080   21.1480  -33.2040 C   0  0  0  0  0  0  0  0  0  0  0  0
   -1.3920   21.3790  -33.4600 C   0  0  0  0  0  0  0  0  0  0  0  0
   -2.2400   20.4670  -32.6720 N   0  0  0  0  0  0  0  0  0  0  0  0
   -3.1630   21.1920  -31.8310 C   0  0  0  0  0  0  0  0  0  0  0  0
   -2.7390   22.0990  -30.8410 C   0  0  0  0  0  0  0  0  0  0  0  0
   -3.6590   22.7950  -30.0580 C   0  0  0  0  0  0  0  0  0  0  0  0
   -5.0180   22.7170  -30.2710 N   0  0  0  0  0  0  0  0  0  0  0  0
   -5.9520   23.6880  -29.6950 C   0  0  0  0  0  0  0  0  0  0  0  0
   -5.4350   21.7560  -31.1630 C   0  0  0  0  0  0  0  0  0  0  0  0
   -4.5490   21.0260  -31.9430 C   0  0  0  0  0  0  0  0  0  0  0  0
   -5.1900   20.2040  -32.7470 O   0  0  0  0  0  0  0  0  0  0  0  0
   -6.4750   20.3570  -32.5050 C   0  0  0  0  0  0  0  0  0  0  0  0
   -7.5230   19.6680  -33.1070 C   0  0  0  0  0  0  0  0  0  0  0  0
   -8.8310   19.9360  -32.6680 C   0  0  0  0  0  0  0  0  0  0  0  0
   -9.0600   20.8670  -31.6340 C   0  0  0  0  0  0  0  0  0  0  0  0
   -7.9880   21.5560  -31.0380 C   0  0  0  0  0  0  0  0  0  0  0  0
   -6.6980   21.3030  -31.5190 C   0  0  0  0  0  0  0  0  0  0  0  0
   -2.8770   23.5730  -29.0940 C   0  0  0  0  0  0  0  0  0  0  0  0
   -3.3020   24.2800  -27.9630 C   0  0  0  0  0  0  0  0  0  0  0  0
   -2.3340   24.8990  -27.1550 C   0  0  0  0  0  0  0  0  0  0  0  0
   -2.7200   25.6450  -26.0320 C   0  0  0  0  0  0  0  0  0  0  0  0
   -1.7540   26.2610  -25.2300 C   0  0  0  0  0  0  0  0  0  0  0  0
   -0.3980   26.1310  -25.5380 C   0  0  0  0  0  0  0  0  0  0  0  0
    0.0040   25.3840  -26.6480 C   0  0  0  0  0  0  0  0  0  0  0  0
   -0.9550   24.7590  -27.4680 C   0  0  0  0  0  0  0  0  0  0  0  0
   -0.5830   23.9740  -28.5780 C   0  0  0  0  0  0  0  0  0  0  0  0
    0.6330   23.7910  -28.8650 O   0  0  0  0  0  0  0  0  0  0  0  0
   -1.5560   23.4010  -29.3390 N   0  0  0  0  0  0  0  0  0  0  0  0
   -1.3400   22.4720  -30.4500 C   0  0  0  0  0  0  0  0  0  0  0  0
    0.9930   24.2342  -35.2521 H   0  0  0  0  0  0  0  0  0  0  0  0
    1.5446   23.2625  -36.6585 H   0  0  0  0  0  0  0  0  0  0  0  0
   -0.0975   23.9905  -36.6585 H   0  0  0  0  0  0  0  0  0  0  0  0
   -0.9228   22.4444  -35.0804 H   0  0  0  0  0  0  0  0  0  0  0  0
    0.1684   21.4382  -36.1049 H   0  0  0  0  0  0  0  0  0  0  0  0
    2.6329   20.7777  -33.6898 H   0  0  0  0  0  0  0  0  0  0  0  0
    1.7864   20.2589  -35.1867 H   0  0  0  0  0  0  0  0  0  0  0  0
    2.7717   21.7608  -35.1867 H   0  0  0  0  0  0  0  0  0  0  0  0
    0.3318   20.0751  -33.2979 H   0  0  0  0  0  0  0  0  0  0  0  0
    0.3572   21.4960  -32.1907 H   0  0  0  0  0  0  0  0  0  0  0  0
   -1.6415   22.4158  -33.1903 H   0  0  0  0  0  0  0  0  0  0  0  0
   -1.5860   21.1836  -34.5250 H   0  0  0  0  0  0  0  0  0  0  0  0
   -2.7920   19.8730  -33.3340 H   0  0  0  0  0  0  0  0  0  0  0  0
   -1.6410   19.8230  -32.1080 H   0  0  0  0  0  0  0  0  0  0  0  0
   -5.9031   23.6372  -28.5973 H   0  0  0  0  0  0  0  0  0  0  0  0
   -5.6797   24.7005  -30.0277 H   0  0  0  0  0  0  0  0  0  0  0  0
   -6.9743   23.4553  -30.0277 H   0  0  0  0  0  0  0  0  0  0  0  0
   -7.3333   18.9341  -33.9041 H   0  0  0  0  0  0  0  0  0  0  0  0
   -9.6812   19.4163  -33.1339 H   0  0  0  0  0  0  0  0  0  0  0  0
  -10.0875   21.0565  -31.2899 H   0  0  0  0  0  0  0  0  0  0  0  0
   -8.1582   22.2711  -30.2197 H   0  0  0  0  0  0  0  0  0  0  0  0
   -4.3708   24.3493  -27.7125 H   0  0  0  0  0  0  0  0  0  0  0  0
   -3.7862   25.7460  -25.7811 H   0  0  0  0  0  0  0  0  0  0  0  0
   -2.0632   26.8498  -24.3538 H   0  0  0  0  0  0  0  0  0  0  0  0
    0.3568   26.6189  -24.9038 H   0  0  0  0  0  0  0  0  0  0  0  0
    1.0741   25.2837  -26.8824 H   0  0  0  0  0  0  0  0  0  0  0  0
   -0.8128   22.9629  -31.2813 H   0  0  0  0  0  0  0  0  0  0  0  0
   -0.7152   21.6072  -30.1821 H   0  0  0  0  0  0  0  0  0  0  0  0
  1  2  1  0
  2  3  1  0
  3  4  1  0
  3  5  1  0
  5  6  1  0
  6  7  1  0
  7  8  1  0
  8  9  2  0
  9 10  1  0
 10 11  2  0
 11 12  1  0
 11 13  1  0
 13 14  2  0
 14 15  1  0
 15 16  1  0
 16 17  2  0
 17 18  1  0
 18 19  2  0
 19 20  1  0
 20 21  2  0
 10 22  1  0
 22 23  2  0
 23 24  1  0
 24 25  2  0
 25 26  1  0
 26 27  2  0
 27 28  1  0
 28 29  2  0
 29 30  1  0
 30 31  2  0
 30 32  1  0
 32 33  1  0
 14  8  1  0
 21 16  1  0
 32 22  1  0
 33  9  1  0
 21 13  1  0
 29 24  1  0
  1 34  1  0
  1 35  1  0
  1 36  1  0
  2 37  1  0
  2 38  1  0
  4 39  1  0
  4 40  1  0
  4 41  1  0
  5 42  1  0
  5 43  1  0
  6 44  1  0
  6 45  1  0
  7 46  1  0
  7 47  1  0
 12 48  1  0
 12 49  1  0
 12 50  1  0
 17 51  1  0
 18 52  1  0
 19 53  1  0
 20 54  1  0
 23 55  1  0
 25 56  1  0
 26 57  1  0
 27 58  1  0
 28 59  1  0
 33 60  1  0
 33 61  1  0
M  CHG  2   7   1  11   1
M  END
>  <UniqueID>  (21) 
21

>  <SMILES>  (21) 
CCN(C)CC[NH2+]c1c2c([n+](C)c3c1oc1ccccc13)-c1cc3ccccc3c(=O)n1C2

>  <Energy>  (21) 
149.88530300899663

>  <Genealogy>  (21) 
CCN(C)CC[NH2+]c1c2c([n+](C)c3c1oc1ccccc13)-c1cc3ccccc3c(=O)n1C2 (protonated)
CCN(C)CC[NH2+]c1c2c([n+](C)c3c1oc1ccccc13)-c1cc3ccccc3c(=O)n1C2 (3D coordinates assigned)
CCN(C)CC[NH2+]c1c2c([n+](C)c3c1oc1ccccc13)-c1cc3ccccc3c(=O)n1C2 (nonaromatic ring conformer: 149.88530300899663 kcal/mol)

>  <smiles>  (21) 
CCN(C)CCNc1c2c([n+](C)c3c1oc1ccccc13)-c1cc3ccccc3c(=O)n1C2

>  <score_type>  (21) 
oracle

>  <origin>  (21) 
adg

>  <m_score__min__energy>  (21) 
-8.3300000000000001

>  <m_primary>  (21) 
energy

$$$$
21:0
     RDKit          3D

 95 94  0  0  0  0  0  0  0  0999 V2000
   -5.8720   21.6130  -32.7690 H   0  0  0  0  0  0  0  0  0  0  0  0
   -5.3460   20.8140  -33.1850 N   0  0  0  0  0  0  0  0  0  0  0  0
   -5.8880   20.0260  -33.6090 H   0  0  0  0  0  0  0  0  0  0  0  0
   -3.9190   20.7760  -33.1530 C   0  0  0  0  0  0  0  0  0  0  0  0
   -3.3050   19.7560  -33.6800 N   0  0  0  0  0  0  0  0  0  0  0  0
   -3.2270   18.4240  -33.0850 C   0  0  0  0  0  0  0  0  0  0  0  0
   -3.5362   18.4760  -32.0306 H   0  0  0  0  0  0  0  0  0  0  0  0
   -2.1921   18.0568  -33.1492 H   0  0  0  0  0  0  0  0  0  0  0  0
   -4.1500   17.4680  -33.8380 C   0  0  0  0  0  0  0  0  0  0  0  0
   -4.8841   17.0461  -33.1358 H   0  0  0  0  0  0  0  0  0  0  0  0
   -3.5432   16.6651  -34.2820 H   0  0  0  0  0  0  0  0  0  0  0  0
   -4.8890   18.2030  -34.9560 C   0  0  0  0  0  0  0  0  0  0  0  0
   -4.6824   17.7070  -35.9158 H   0  0  0  0  0  0  0  0  0  0  0  0
   -4.5422   19.2463  -34.9911 H   0  0  0  0  0  0  0  0  0  0  0  0
   -6.3360   18.1860  -34.7020 N   0  0  0  0  0  0  0  0  0  0  0  0
   -6.7930   17.7030  -35.5120 H   0  0  0  0  0  0  0  0  0  0  0  0
   -6.6440   17.4170  -33.4870 C   0  0  0  0  0  0  0  0  0  0  0  0
   -5.7331   17.3175  -32.8784 H   0  0  0  0  0  0  0  0  0  0  0  0
   -7.0121   16.4210  -33.7743 H   0  0  0  0  0  0  0  0  0  0  0  0
   -7.7280   18.1380  -32.6670 C   0  0  0  0  0  0  0  0  0  0  0  0
   -8.3507   17.3832  -32.1645 H   0  0  0  0  0  0  0  0  0  0  0  0
   -8.3194   18.7525  -33.3618 H   0  0  0  0  0  0  0  0  0  0  0  0
   -7.1370   19.0720  -31.6070 C   0  0  0  0  0  0  0  0  0  0  0  0
   -6.0434   18.9549  -31.5862 H   0  0  0  0  0  0  0  0  0  0  0  0
   -7.5565   18.8155  -30.6230 H   0  0  0  0  0  0  0  0  0  0  0  0
   -7.4720   20.4660  -31.9280 N   0  0  0  0  0  0  0  0  0  0  0  0
   -6.8830   21.1100  -31.3510 H   0  0  0  0  0  0  0  0  0  0  0  0
   -8.8910   20.7790  -31.6960 C   0  0  0  0  0  0  0  0  0  0  0  0
   -9.2509   20.1805  -30.8461 H   0  0  0  0  0  0  0  0  0  0  0  0
   -9.4430   20.5412  -32.6173 H   0  0  0  0  0  0  0  0  0  0  0  0
   -9.1170   22.2690  -31.3830 C   0  0  0  0  0  0  0  0  0  0  0  0
   -8.8198   22.4651  -30.3422 H   0  0  0  0  0  0  0  0  0  0  0  0
  -10.1825   22.4967  -31.5342 H   0  0  0  0  0  0  0  0  0  0  0  0
   -8.2950   23.1670  -32.3140 C   0  0  0  0  0  0  0  0  0  0  0  0
   -8.7364   24.1745  -32.3231 H   0  0  0  0  0  0  0  0  0  0  0  0
   -8.3089   22.7293  -33.3231 H   0  0  0  0  0  0  0  0  0  0  0  0
   -6.8970   23.2590  -31.8640 N   0  0  0  0  0  0  0  0  0  0  0  0
   -6.3230   23.5620  -32.6850 H   0  0  0  0  0  0  0  0  0  0  0  0
   -6.6930   24.2360  -30.7770 C   0  0  0  0  0  0  0  0  0  0  0  0
   -7.5780   24.2327  -30.1237 H   0  0  0  0  0  0  0  0  0  0  0  0
   -6.5417   25.2269  -31.2300 H   0  0  0  0  0  0  0  0  0  0  0  0
   -5.4500   23.8980  -29.9350 C   0  0  0  0  0  0  0  0  0  0  0  0
   -5.3608   22.8033  -29.8743 H   0  0  0  0  0  0  0  0  0  0  0  0
   -5.5958   24.3668  -28.9507 H   0  0  0  0  0  0  0  0  0  0  0  0
   -4.1390   24.4580  -30.5030 C   0  0  0  0  0  0  0  0  0  0  0  0
   -4.3645   25.3231  -31.1439 H   0  0  0  0  0  0  0  0  0  0  0  0
   -3.6421   23.6681  -31.0853 H   0  0  0  0  0  0  0  0  0  0  0  0
   -3.2380   24.8820  -29.4210 N   0  0  0  0  0  0  0  0  0  0  0  0
   -3.7660   25.5530  -28.8140 H   0  0  0  0  0  0  0  0  0  0  0  0
   -2.8190   23.7430  -28.5920 C   0  0  0  0  0  0  0  0  0  0  0  0
   -2.7934   22.8335  -29.2102 H   0  0  0  0  0  0  0  0  0  0  0  0
   -3.5358   23.6163  -27.7673 H   0  0  0  0  0  0  0  0  0  0  0  0
   -1.4240   23.9980  -28.0080 C   0  0  0  0  0  0  0  0  0  0  0  0
   -0.6702   23.5502  -28.6722 H   0  0  0  0  0  0  0  0  0  0  0  0
   -1.3788   23.5450  -27.0066 H   0  0  0  0  0  0  0  0  0  0  0  0
   -1.1420   25.5000  -27.8730 C   0  0  0  0  0  0  0  0  0  0  0  0
   -1.5319   26.0179  -28.7617 H   0  0  0  0  0  0  0  0  0  0  0  0
   -0.0546   25.6397  -27.7831 H   0  0  0  0  0  0  0  0  0  0  0  0
   -1.8070   26.0880  -26.6220 C   0  0  0  0  0  0  0  0  0  0  0  0
   -1.6810   25.3852  -25.7852 H   0  0  0  0  0  0  0  0  0  0  0  0
   -2.8736   26.2480  -26.8381 H   0  0  0  0  0  0  0  0  0  0  0  0
   -1.2100   27.3760  -26.2580 N   0  0  0  0  0  0  0  0  0  0  0  0
   -1.0190   28.0510  -27.0340 H   0  0  0  0  0  0  0  0  0  0  0  0
   -0.7380   27.7130  -24.9410 C   0  0  0  0  0  0  0  0  0  0  0  0
    0.2520   28.7520  -24.8120 N   0  0  0  0  0  0  0  0  0  0  0  0
    0.4570   29.3400  -25.6520 H   0  0  0  0  0  0  0  0  0  0  0  0
    1.0870   28.9690  -23.6280 C   0  0  0  0  0  0  0  0  0  0  0  0
    0.4883   29.4781  -22.8584 H   0  0  0  0  0  0  0  0  0  0  0  0
    1.9507   29.5816  -23.9259 H   0  0  0  0  0  0  0  0  0  0  0  0
    1.6150   27.6460  -23.0530 C   0  0  0  0  0  0  0  0  0  0  0  0
    0.7777   26.9387  -22.9605 H   0  0  0  0  0  0  0  0  0  0  0  0
    2.0660   27.8555  -22.0718 H   0  0  0  0  0  0  0  0  0  0  0  0
    2.6940   27.0240  -23.9510 C   0  0  0  0  0  0  0  0  0  0  0  0
    3.4827   26.5986  -23.3131 H   0  0  0  0  0  0  0  0  0  0  0  0
    3.0879   27.8182  -24.6022 H   0  0  0  0  0  0  0  0  0  0  0  0
    2.1330   25.9090  -24.8550 C   0  0  0  0  0  0  0  0  0  0  0  0
    2.9705   25.4311  -25.3844 H   0  0  0  0  0  0  0  0  0  0  0  0
    1.4217   26.3751  -25.5527 H   0  0  0  0  0  0  0  0  0  0  0  0
    1.4000   24.8730  -24.0990 N   0  0  0  0  0  0  0  0  0  0  0  0
    2.0620   24.3520  -23.4770 H   0  0  0  0  0  0  0  0  0  0  0  0
    0.7040   25.3410  -23.4720 H   0  0  0  0  0  0  0  0  0  0  0  0
    0.7040   23.9000  -24.9650 C   0  0  0  0  0  0  0  0  0  0  0  0
    1.4569   23.3045  -25.5021 H   0  0  0  0  0  0  0  0  0  0  0  0
    0.0660   24.4674  -25.6586 H   0  0  0  0  0  0  0  0  0  0  0  0
   -0.2010   22.9490  -24.1730 C   0  0  0  0  0  0  0  0  0  0  0  0
   -0.0481   23.1097  -23.0956 H   0  0  0  0  0  0  0  0  0  0  0  0
   -1.2527   23.1467  -24.4276 H   0  0  0  0  0  0  0  0  0  0  0  0
    0.0485   21.9084  -24.4276 H   0  0  0  0  0  0  0  0  0  0  0  0
   -1.2220   27.1170  -23.8870 N   0  0  0  0  0  0  0  0  0  0  0  0
   -2.2270   27.1860  -23.6240 H   0  0  0  0  0  0  0  0  0  0  0  0
   -0.6160   26.5740  -23.2350 H   0  0  0  0  0  0  0  0  0  0  0  0
   -3.1620   21.9100  -32.5140 C   0  0  0  0  0  0  0  0  0  0  0  0
   -3.2220   21.8201  -31.4193 H   0  0  0  0  0  0  0  0  0  0  0  0
   -2.1085   21.8705  -32.8279 H   0  0  0  0  0  0  0  0  0  0  0  0
   -3.6025   22.8678  -32.8279 H   0  0  0  0  0  0  0  0  0  0  0  0
  1  2  1  0
  2  3  1  0
  2  4  1  0
  4  5  2  0
  5  6  1  0
  6  7  1  0
  6  8  1  0
  6  9  1  0
  9 10  1  0
  9 11  1  0
  9 12  1  0
 12 13  1  0
 12 14  1  0
 12 15  1  0
 15 16  1  0
 15 17  1  0
 17 18  1  0
 17 19  1  0
 17 20  1  0
 20 21  1  0
 20 22  1  0
 20 23  1  0
 23 24  1  0
 23 25  1  0
 23 26  1  0
 26 27  1  0
 26 28  1  0
 28 29  1  0
 28 30  1  0
 28 31  1  0
 31 32  1  0
 31 33  1  0
 31 34  1  0
 34 35  1  0
 34 36  1  0
 34 37  1  0
 37 38  1  0
 37 39  1  0
 39 40  1  0
 39 41  1  0
 39 42  1  0
 42 43  1  0
 42 44  1  0
 42 45  1  0
 45 46  1  0
 45 47  1  0
 45 48  1  0
 48 49  1  0
 48 50  1  0
 50 51  1  0
 50 52  1  0
 50 53  1  0
 53 54  1  0
 53 55  1  0
 53 56  1  0
 56 57  1  0
 56 58  1  0
 56 59  1  0
 59 60  1  0
 59 61  1  0
 59 62  1  0
 62 63  1  0
 62 64  1  0
 64 65  1  0
 65 66  1  0
 65 67  1  0
 67 68  1  0
 67 69  1  0
 67 70  1  0
 70 71  1  0
 70 72  1  0
 70 73  1  0
 73 74  1  0
 73 75  1  0
 73 76  1  0
 76 77  1  0
 76 78  1  0
 76 79  1  0
 79 80  1  0
 79 81  1  0
 79 82  1  0
 82 83  1  0
 82 84  1  0
 82 85  1  0
 85 86  1  0
 85 87  1  0
 85 88  1  0
 64 89  2  0
 89 90  1  0
 89 91  1  0
  4 92  1  0
 92 93  1  0
 92 94  1  0
 92 95  1  0
M  CHG  2  79   1  89   1
M  END
>  <UniqueID>  (22) 
22

>  <SMILES>  (22) 
CC[NH2+]CCCCNC(=[NH2+])NCCCCNCCCNCCCNCCCNCCC/N=C(\C)N

>  <Energy>  (22) 
48.09873393579571

>  <Genealogy>  (22) 
CC[NH2+]CCCCNC(=[NH2+])NCCCCNCCCNCCCNCCCNCCCN=C(C)N (protonated)
CC[NH2+]CCCCNC(=[NH2+])NCCCCNCCCNCCCNCCCNCCC/N=C(\C)N (cis-trans isomerization)
CC[NH2+]CCCCNC(=[NH2+])NCCCCNCCCNCCCNCCCNCCC/N=C(\C)N (3D coordinates assigned)
CC[NH2+]CCCCNC(=[NH2+])NCCCCNCCCNCCCNCCCNCCC/N=C(\C)N (optimized conformer: 48.09873393579571 kcal/mol)

>  <smiles>  (22) 
CCNCCCCNC(=N)NCCCCNCCCNCCCNCCCNCCCN=C(C)N

>  <score_type>  (22) 
oracle

>  <origin>  (22) 
adg

>  <m_score__min__energy>  (22) 
-5.7199999999999998

>  <m_primary>  (22) 
energy

$$$$
22:0
     RDKit          3D

 60 63  0  0  0  0  0  0  0  0999 V2000
   -3.1600   19.0290  -26.6850 C   0  0  0  0  0  0  0  0  0  0  0  0
   -1.9210   19.9110  -26.7830 C   0  0  0  0  0  0  0  0  0  0  0  0
   -2.0880   20.9020  -27.8530 N   0  0  0  0  0  0  0  0  0  0  0  0
   -1.8200   20.5220  -29.2470 C   0  0  0  0  0  0  0  0  0  0  0  0
   -3.0160   20.8600  -30.1410 C   0  0  0  0  0  0  0  0  0  0  0  0
   -2.6890   21.9050  -31.0390 O   0  0  0  0  0  0  0  0  0  0  0  0
   -2.0900   21.4060  -32.2210 C   0  0  0  0  0  0  0  0  0  0  0  0
   -3.1410   20.7590  -33.1270 C   0  0  0  0  0  0  0  0  0  0  0  0
   -4.2550   21.6710  -33.3770 N   0  0  0  0  0  0  0  0  0  0  0  0
   -5.4470   21.5900  -32.5830 C   0  0  0  0  0  0  0  0  0  0  0  0
   -5.7820   22.6360  -31.7100 C   0  0  0  0  0  0  0  0  0  0  0  0
   -4.9370   23.7580  -31.5720 C   0  0  0  0  0  0  0  0  0  0  0  0
   -5.2470   24.7720  -30.6700 C   0  0  0  0  0  0  0  0  0  0  0  0
   -6.3900   24.6790  -29.8850 C   0  0  0  0  0  0  0  0  0  0  0  0
   -7.2460   23.5850  -30.0130 C   0  0  0  0  0  0  0  0  0  0  0  0
   -6.9810   22.5560  -30.9530 C   0  0  0  0  0  0  0  0  0  0  0  0
   -7.8440   21.4890  -31.1300 N   0  0  0  0  0  0  0  0  0  0  0  0
   -9.2100   21.5390  -30.5630 C   0  0  0  0  0  0  0  0  0  0  0  0
   -7.4360   20.3840  -31.8550 C   0  0  0  0  0  0  0  0  0  0  0  0
   -8.1720   19.1710  -31.8450 C   0  0  0  0  0  0  0  0  0  0  0  0
   -7.7700   18.0790  -32.6140 C   0  0  0  0  0  0  0  0  0  0  0  0
   -6.6220   18.1560  -33.3990 C   0  0  0  0  0  0  0  0  0  0  0  0
   -6.1240   16.7770  -34.3630 Cl  0  0  0  0  0  0  0  0  0  0  0  0
   -5.8580   19.3220  -33.3990 C   0  0  0  0  0  0  0  0  0  0  0  0
   -6.2430   20.4350  -32.6220 C   0  0  0  0  0  0  0  0  0  0  0  0
   -2.4400   22.2590  -27.5250 C   0  0  0  0  0  0  0  0  0  0  0  0
   -3.7540   22.7160  -27.7220 C   0  0  0  0  0  0  0  0  0  0  0  0
   -4.0980   24.0340  -27.4060 C   0  0  0  0  0  0  0  0  0  0  0  0
   -3.1350   24.9060  -26.8930 C   0  0  0  0  0  0  0  0  0  0  0  0
   -1.8230   24.4620  -26.7020 C   0  0  0  0  0  0  0  0  0  0  0  0
   -1.4750   23.1440  -27.0140 C   0  0  0  0  0  0  0  0  0  0  0  0
   -3.4038   18.8555  -25.6265 H   0  0  0  0  0  0  0  0  0  0  0  0
   -4.0061   19.5291  -27.1789 H   0  0  0  0  0  0  0  0  0  0  0  0
   -2.9644   18.0658  -27.1789 H   0  0  0  0  0  0  0  0  0  0  0  0
   -1.7689   20.4316  -25.8260 H   0  0  0  0  0  0  0  0  0  0  0  0
   -1.0486   19.2807  -27.0103 H   0  0  0  0  0  0  0  0  0  0  0  0
   -0.9353   21.0681  -29.6062 H   0  0  0  0  0  0  0  0  0  0  0  0
   -1.6429   19.4372  -29.2894 H   0  0  0  0  0  0  0  0  0  0  0  0
   -3.3017   19.9664  -30.7153 H   0  0  0  0  0  0  0  0  0  0  0  0
   -3.8517   21.1879  -29.5053 H   0  0  0  0  0  0  0  0  0  0  0  0
   -1.6092   22.2354  -32.7604 H   0  0  0  0  0  0  0  0  0  0  0  0
   -1.3432   20.6465  -31.9463 H   0  0  0  0  0  0  0  0  0  0  0  0
   -2.6731   20.4924  -34.0861 H   0  0  0  0  0  0  0  0  0  0  0  0
   -3.5308   19.8619  -32.6237 H   0  0  0  0  0  0  0  0  0  0  0  0
   -4.2470   22.3190  -34.1980 H   0  0  0  0  0  0  0  0  0  0  0  0
   -4.0251   23.8319  -32.1828 H   0  0  0  0  0  0  0  0  0  0  0  0
   -4.5870   25.6472  -30.5786 H   0  0  0  0  0  0  0  0  0  0  0  0
   -6.6210   25.4723  -29.1588 H   0  0  0  0  0  0  0  0  0  0  0  0
   -8.1400   23.5192  -29.3755 H   0  0  0  0  0  0  0  0  0  0  0  0
   -9.1514   21.5369  -29.4646 H   0  0  0  0  0  0  0  0  0  0  0  0
   -9.7142   22.4562  -30.9015 H   0  0  0  0  0  0  0  0  0  0  0  0
   -9.7799   20.6611  -30.9015 H   0  0  0  0  0  0  0  0  0  0  0  0
   -9.0741   19.0905  -31.2207 H   0  0  0  0  0  0  0  0  0  0  0  0
   -8.3626   17.1523  -32.6005 H   0  0  0  0  0  0  0  0  0  0  0  0
   -4.9456   19.3749  -34.0111 H   0  0  0  0  0  0  0  0  0  0  0  0
   -4.5159   22.0336  -28.1268 H   0  0  0  0  0  0  0  0  0  0  0  0
   -5.1289   24.3847  -27.5617 H   0  0  0  0  0  0  0  0  0  0  0  0
   -3.4085   25.9409  -26.6395 H   0  0  0  0  0  0  0  0  0  0  0  0
   -1.0628   25.1510  -26.3054 H   0  0  0  0  0  0  0  0  0  0  0  0
   -0.4422   22.7986  -26.8589 H   0  0  0  0  0  0  0  0  0  0  0  0
  1  2  1  0
  2  3  1  0
  3  4  1  0
  4  5  1  0
  5  6  1  0
  6  7  1  0
  7  8  1  0
  8  9  1  0
  9 10  1  0
 10 11  1  0
 11 12  2  0
 12 13  1  0
 13 14  2  0
 14 15  1  0
 15 16  2  0
 16 17  1  0
 17 18  1  0
 17 19  2  0
 19 20  1  0
 20 21  2  0
 21 22  1  0
 22 23  1  0
 22 24  2  0
 24 25  1  0
  3 26  1  0
 26 27  2  0
 27 28  1  0
 28 29  2  0
 29 30  1  0
 30 31  2  0
 25 10  2  0
 31 26  1  0
 16 11  1  0
 25 19  1  0
  1 32  1  0
  1 33  1  0
  1 34  1  0
  2 35  1  0
  2 36  1  0
  4 37  1  0
  4 38  1  0
  5 39  1  0
  5 40  1  0
  7 41  1  0
  7 42  1  0
  8 43  1  0
  8 44  1  0
  9 45  1  0
 12 46  1  0
 13 47  1  0
 14 48  1  0
 15 49  1  0
 18 50  1  0
 18 51  1  0
 18 52  1  0
 20 53  1  0
 21 54  1  0
 24 55  1  0
 27 56  1  0
 28 57  1  0
 29 58  1  0
 30 59  1  0
 31 60  1  0
M  CHG  1  17   1
M  END
>  <UniqueID>  (23) 
23

>  <SMILES>  (23) 
CCN(CCOCCNc1c2ccccc2[n+](C)c2ccc(Cl)cc12)c1ccccc1

>  <Energy>  (23) 
88.67057457178579

>  <Genealogy>  (23) 
CCN(CCOCCNc1c2ccccc2[n+](C)c2ccc(Cl)cc12)c1ccccc1 (3D coordinates assigned)
CCN(CCOCCNc1c2ccccc2[n+](C)c2ccc(Cl)cc12)c1ccccc1 (optimized conformer: 88.67057457178579 kcal/mol)

>  <smiles>  (23) 
CCN(CCOCCNc1c2ccccc2[n+](C)c2ccc(Cl)cc12)c1ccccc1

>  <score_type>  (23) 
oracle

>  <origin>  (23) 
adg

>  <m_score__min__energy>  (23) 
-9.8399999999999999

>  <m_primary>  (23) 
energy

$$$$
23:0
     RDKit          3D

 37 39  0  0  0  0  0  0  0  0999 V2000
   -9.8750   21.5890  -31.9450 C   0  0  0  0  0  0  0  0  0  0  0  0
   -8.6590   21.5330  -31.0300 C   0  0  0  0  0  0  0  0  0  0  0  0
   -7.4550   21.0970  -31.7690 N   0  0  0  0  0  0  0  0  0  0  0  0
   -6.4870   22.0070  -32.1680 C   0  0  0  0  0  0  0  0  0  0  0  0
   -6.7420   23.7900  -32.0370 S   0  0  0  0  0  0  0  0  0  0  0  0
   -5.8280   24.0090  -30.4630 C   0  0  0  0  0  0  0  0  0  0  0  0
   -4.9120   25.1910  -30.4900 C   0  0  0  0  0  0  0  0  0  0  0  0
   -5.3940   26.3550  -30.4890 O   0  0  0  0  0  0  0  0  0  0  0  0
   -3.4950   24.9740  -30.4640 N   0  0  0  0  0  0  0  0  0  0  0  0
   -2.7690   23.7740  -30.1490 C   0  0  0  0  0  0  0  0  0  0  0  0
   -3.0130   22.5490  -30.8040 C   0  0  0  0  0  0  0  0  0  0  0  0
   -2.3130   21.3970  -30.4330 C   0  0  0  0  0  0  0  0  0  0  0  0
   -1.3710   21.4490  -29.4050 C   0  0  0  0  0  0  0  0  0  0  0  0
   -1.1230   22.6570  -28.7460 C   0  0  0  0  0  0  0  0  0  0  0  0
   -1.8190   23.8140  -29.1110 C   0  0  0  0  0  0  0  0  0  0  0  0
   -1.4830   25.3150  -28.2570 Cl  0  0  0  0  0  0  0  0  0  0  0  0
   -5.3150   21.5740  -32.7200 N   0  0  0  0  0  0  0  0  0  0  0  0
   -5.1170   20.2540  -32.9410 C   0  0  0  0  0  0  0  0  0  0  0  0
   -3.9750   19.6950  -33.5200 C   0  0  0  0  0  0  0  0  0  0  0  0
   -4.0750   18.3090  -33.6500 C   0  0  0  0  0  0  0  0  0  0  0  0
   -5.5750   17.8000  -33.0500 S   0  0  0  0  0  0  0  0  0  0  0  0
   -6.0910   19.3420  -32.6240 C   0  0  0  0  0  0  0  0  0  0  0  0
   -7.2730   19.7550  -32.0280 C   0  0  0  0  0  0  0  0  0  0  0  0
   -8.1540   18.9040  -31.7260 O   0  0  0  0  0  0  0  0  0  0  0  0
  -10.7903   21.6312  -31.3363 H   0  0  0  0  0  0  0  0  0  0  0  0
   -9.8152   22.4853  -32.5798 H   0  0  0  0  0  0  0  0  0  0  0  0
   -9.8979   20.6910  -32.5798 H   0  0  0  0  0  0  0  0  0  0  0  0
   -8.4796   22.5336  -30.6097 H   0  0  0  0  0  0  0  0  0  0  0  0
   -8.8586   20.8064  -30.2286 H   0  0  0  0  0  0  0  0  0  0  0  0
   -6.5554   24.1454  -29.6492 H   0  0  0  0  0  0  0  0  0  0  0  0
   -5.2103   23.1120  -30.3086 H   0  0  0  0  0  0  0  0  0  0  0  0
   -3.7584   22.4997  -31.6114 H   0  0  0  0  0  0  0  0  0  0  0  0
   -2.5054   20.4470  -30.9530 H   0  0  0  0  0  0  0  0  0  0  0  0
   -0.8239   20.5404  -29.1132 H   0  0  0  0  0  0  0  0  0  0  0  0
   -0.3780   22.6975  -27.9377 H   0  0  0  0  0  0  0  0  0  0  0  0
   -3.0986   20.2795  -33.8367 H   0  0  0  0  0  0  0  0  0  0  0  0
   -3.3022   17.6514  -34.0748 H   0  0  0  0  0  0  0  0  0  0  0  0
  1  2  1  0
  2  3  1  0
  3  4  1  0
  4  5  1  0
  5  6  1  0
  6  7  1  0
  7  8  2  0
  7  9  1  0
  9 10  1  0
 10 11  2  0
 11 12  1  0
 12 13  2  0
 13 14  1  0
 14 15  2  0
 15 16  1  0
  4 17  2  0
 17 18  1  0
 18 19  1  0
 19 20  2  0
 20 21  1  0
 21 22  1  0
 22 23  1  0
 23 24  2  0
 23  3  1  0
 15 10  1  0
 22 18  2  0
  1 25  1  0
  1 26  1  0
  1 27  1  0
  2 28  1  0
  2 29  1  0
  6 30  1  0
  6 31  1  0
 11 32  1  0
 12 33  1  0
 13 34  1  0
 14 35  1  0
 19 36  1  0
 20 37  1  0
M  CHG  1   9  -1
M  END
>  <UniqueID>  (24) 
24

>  <SMILES>  (24) 
CCn1c(SCC(=O)[N-]c2ccccc2Cl)nc2ccsc2c1=O

>  <Energy>  (24) 
71.643148159632

>  <Genealogy>  (24) 
CCn1c(SCC(=O)[N-]c2ccccc2Cl)nc2ccsc2c1=O (protonated)
CCn1c(SCC(=O)[N-]c2ccccc2Cl)nc2ccsc2c1=O (3D coordinates assigned)
CCn1c(SCC(=O)[N-]c2ccccc2Cl)nc2ccsc2c1=O (optimized conformer: 71.643148159632 kcal/mol)

>  <smiles>  (24) 
CCn1c(SCC(=O)Nc2ccccc2Cl)nc2ccsc2c1=O

>  <score_type>  (24) 
oracle

>  <origin>  (24) 
adg

>  <m_score__min__energy>  (24) 
-10.119999999999999

>  <m_primary>  (24) 
energy

$$$$
24:0
     RDKit          3D

 43 45  0  0  0  0  0  0  0  0999 V2000
   -1.6550   20.0280  -26.3360 C   0  0  0  0  0  0  0  0  0  0  0  0
   -1.4390   21.4000  -26.6480 O   0  0  0  0  0  0  0  0  0  0  0  0
   -2.2980   22.1890  -27.4320 C   0  0  0  0  0  0  0  0  0  0  0  0
   -3.0240   21.6350  -28.5050 C   0  0  0  0  0  0  0  0  0  0  0  0
   -3.8770   22.4290  -29.2720 C   0  0  0  0  0  0  0  0  0  0  0  0
   -4.0270   23.7870  -28.9820 C   0  0  0  0  0  0  0  0  0  0  0  0
   -5.1310   24.7820  -29.9350 S   0  0  0  0  0  0  0  0  0  0  0  0
   -5.9320   25.6600  -29.0120 O   0  0  0  0  0  0  0  0  0  0  0  0
   -4.3330   25.6740  -30.8460 O   0  0  0  0  0  0  0  0  0  0  0  0
   -6.2140   23.8000  -30.8950 N   0  0  0  0  0  0  0  0  0  0  0  0
   -5.5510   23.2960  -32.1230 C   0  0  0  0  0  0  0  0  0  0  0  0
   -5.1460   21.8190  -32.0240 C   0  0  0  0  0  0  0  0  0  0  0  0
   -6.3670   20.9260  -31.7410 C   0  0  0  0  0  0  0  0  0  0  0  0
   -7.4490   21.6410  -30.9130 C   0  0  0  0  0  0  0  0  0  0  0  0
   -6.8400   22.7550  -30.0550 C   0  0  0  0  0  0  0  0  0  0  0  0
   -3.3040   24.3510  -27.9250 C   0  0  0  0  0  0  0  0  0  0  0  0
   -2.4420   23.5660  -27.1400 C   0  0  0  0  0  0  0  0  0  0  0  0
   -1.7080   24.2120  -26.0240 C   0  0  0  0  0  0  0  0  0  0  0  0
   -1.7980   25.5210  -25.6950 N   0  0  0  0  0  0  0  0  0  0  0  0
   -0.9650   25.5970  -24.6380 C   0  0  0  0  0  0  0  0  0  0  0  0
   -0.6450   26.8650  -23.9190 C   0  0  0  0  0  0  0  0  0  0  0  0
   -0.3970   24.4120  -24.3630 N   0  0  0  0  0  0  0  0  0  0  0  0
   -0.8760   23.5760  -25.2300 O   0  0  0  0  0  0  0  0  0  0  0  0
   -1.6753   19.8991  -25.2438 H   0  0  0  0  0  0  0  0  0  0  0  0
   -2.6155   19.7020  -26.7616 H   0  0  0  0  0  0  0  0  0  0  0  0
   -0.8411   19.4227  -26.7616 H   0  0  0  0  0  0  0  0  0  0  0  0
   -2.9171   20.5658  -28.7403 H   0  0  0  0  0  0  0  0  0  0  0  0
   -4.4342   21.9833  -30.1092 H   0  0  0  0  0  0  0  0  0  0  0  0
   -6.2445   23.4132  -32.9688 H   0  0  0  0  0  0  0  0  0  0  0  0
   -4.6298   23.8807  -32.2626 H   0  0  0  0  0  0  0  0  0  0  0  0
   -4.6865   21.5083  -32.9739 H   0  0  0  0  0  0  0  0  0  0  0  0
   -4.4327   21.7078  -31.1940 H   0  0  0  0  0  0  0  0  0  0  0  0
   -6.8062   20.6165  -32.7009 H   0  0  0  0  0  0  0  0  0  0  0  0
   -6.0177   20.0630  -31.1551 H   0  0  0  0  0  0  0  0  0  0  0  0
   -8.1928   22.0787  -31.5951 H   0  0  0  0  0  0  0  0  0  0  0  0
   -7.9221   20.9052  -30.2462 H   0  0  0  0  0  0  0  0  0  0  0  0
   -7.6336   23.2126  -29.4461 H   0  0  0  0  0  0  0  0  0  0  0  0
   -6.0628   22.3135  -29.4138 H   0  0  0  0  0  0  0  0  0  0  0  0
   -3.4118   25.4235  -27.7054 H   0  0  0  0  0  0  0  0  0  0  0  0
   -0.6886   26.6921  -22.8336 H   0  0  0  0  0  0  0  0  0  0  0  0
    0.3656   27.1990  -24.1967 H   0  0  0  0  0  0  0  0  0  0  0  0
   -1.3761   27.6385  -24.1967 H   0  0  0  0  0  0  0  0  0  0  0  0
    0.2970   24.1870  -23.6160 H   0  0  0  0  0  0  0  0  0  0  0  0
  1  2  1  0
  2  3  1  0
  3  4  2  0
  4  5  1  0
  5  6  2  0
  6  7  1  0
  7  8  2  0
  7  9  2  0
  7 10  1  0
 10 11  1  0
 11 12  1  0
 12 13  1  0
 13 14  1  0
 14 15  1  0
  6 16  1  0
 16 17  2  0
 17 18  1  0
 18 19  2  0
 19 20  1  0
 20 21  1  0
 20 22  2  0
 22 23  1  0
 17  3  1  0
 23 18  1  0
 15 10  1  0
  1 24  1  0
  1 25  1  0
  1 26  1  0
  4 27  1  0
  5 28  1  0
 11 29  1  0
 11 30  1  0
 12 31  1  0
 12 32  1  0
 13 33  1  0
 13 34  1  0
 14 35  1  0
 14 36  1  0
 15 37  1  0
 15 38  1  0
 16 39  1  0
 21 40  1  0
 21 41  1  0
 21 42  1  0
 22 43  1  0
M  CHG  1  22   1
M  END
>  <UniqueID>  (25) 
25

>  <SMILES>  (25) 
COc1ccc(S(=O)(=O)N2CCCCC2)cc1-c1nc(C)[nH+]o1

>  <Energy>  (25) 
81.78761047897423

>  <Genealogy>  (25) 
COc1ccc(S(=O)(=O)N2CCCCC2)cc1-c1nc(C)[nH+]o1 (protonated)
COc1ccc(S(=O)(=O)N2CCCCC2)cc1-c1nc(C)[nH+]o1 (3D coordinates assigned)
COc1ccc(S(=O)(=O)N2CCCCC2)cc1-c1nc(C)[nH+]o1 (nonaromatic ring conformer: 81.78761047897423 kcal/mol)

>  <smiles>  (25) 
COc1ccc(S(=O)(=O)N2CCCCC2)cc1-c1nc(C)no1

>  <score_type>  (25) 
oracle

>  <origin>  (25) 
adg

>  <m_score__min__energy>  (25) 
-8.3900000000000006

>  <m_primary>  (25) 
energy

$$$$
25:0
     RDKit          3D

 59 61  0  0  0  0  0  0  0  0999 V2000
   -1.4310   20.2180  -26.8680 C   0  0  0  0  0  0  0  0  0  0  0  0
   -1.4530   20.3050  -28.2120 C   0  0  0  0  0  0  0  0  0  0  0  0
   -0.6000   19.3020  -28.9710 C   0  0  0  0  0  0  0  0  0  0  0  0
   -0.3880   19.6300  -30.4520 C   0  0  0  0  0  0  0  0  0  0  0  0
   -1.6870   20.1350  -31.1080 C   0  0  2  0  0  0  0  0  0  0  0  0
   -1.6420   20.3150  -32.6230 C   0  0  0  0  0  0  0  0  0  0  0  0
   -0.5120   20.2180  -33.3480 C   0  0  0  0  0  0  0  0  0  0  0  0
   -2.9330   20.7170  -33.3120 C   0  0  1  0  0  0  0  0  0  0  0  0
   -3.3870   19.6540  -34.1520 O   0  0  0  0  0  0  0  0  0  0  0  0
   -4.4070   18.7610  -33.8060 C   0  0  0  0  0  0  0  0  0  0  0  0
   -5.7220   18.8550  -34.4980 C   0  0  0  0  0  0  0  0  0  0  0  0
   -4.2070   17.8380  -32.9700 O   0  0  0  0  0  0  0  0  0  0  0  0
   -4.0330   21.0290  -32.2820 C   0  0  0  0  0  0  0  0  0  0  0  0
   -3.5170   21.9590  -31.1690 C   0  0  0  0  0  0  0  0  0  0  0  0
   -2.2180   21.4420  -30.4260 C   0  0  2  0  0  0  0  0  0  0  0  0
   -1.1390   22.5620  -30.5080 C   0  0  0  0  0  0  0  0  0  0  0  0
   -2.5540   21.1060  -28.9270 C   0  0  2  0  0  0  0  0  0  0  0  0
   -3.0180   22.3380  -28.1520 C   0  0  0  0  0  0  0  0  0  0  0  0
   -4.2860   22.7860  -28.1610 C   0  0  0  0  0  0  0  0  0  0  0  0
   -4.6140   24.1870  -28.6320 C   0  0  1  0  0  0  0  0  0  0  0  0
   -3.4810   24.7790  -29.3840 C   0  0  0  0  0  0  0  0  0  0  0  0
   -2.3030   24.8590  -28.9450 O   0  0  0  0  0  0  0  0  0  0  0  0
   -3.8500   25.2870  -30.6070 O   0  0  0  0  0  0  0  0  0  0  0  0
   -5.2390   25.1330  -30.8360 C   0  0  0  0  0  0  0  0  0  0  0  0
   -5.7810   24.2930  -29.6550 C   0  0  1  0  0  0  0  0  0  0  0  0
   -6.2080   23.0100  -30.1200 O   0  0  0  0  0  0  0  0  0  0  0  0
   -6.8800   22.8100  -31.3290 C   0  0  0  0  0  0  0  0  0  0  0  0
   -6.3270   23.0870  -32.4280 O   0  0  0  0  0  0  0  0  0  0  0  0
   -8.2440   22.2060  -31.3130 C   0  0  0  0  0  0  0  0  0  0  0  0
   -8.1500   20.3930  -31.9850 Br  0  0  0  0  0  0  0  0  0  0  0  0
   -2.0273   20.9158  -26.2618 H   0  0  0  0  0  0  0  0  0  0  0  0
   -0.8167   19.4491  -26.3766 H   0  0  0  0  0  0  0  0  0  0  0  0
    0.3863   19.2554  -28.4862 H   0  0  0  0  0  0  0  0  0  0  0  0
   -1.1442   18.3466  -28.9402 H   0  0  0  0  0  0  0  0  0  0  0  0
    0.3832   20.4095  -30.5390 H   0  0  0  0  0  0  0  0  0  0  0  0
   -0.0743   18.7108  -30.9684 H   0  0  0  0  0  0  0  0  0  0  0  0
   -2.3930   19.3096  -30.9341 H   0  0  0  0  0  0  0  0  0  0  0  0
   -0.5445   20.3583  -34.4385 H   0  0  0  0  0  0  0  0  0  0  0  0
    0.4439   19.9984  -32.8499 H   0  0  0  0  0  0  0  0  0  0  0  0
   -2.7299   21.6175  -33.9102 H   0  0  0  0  0  0  0  0  0  0  0  0
   -6.5266   18.9125  -33.7501 H   0  0  0  0  0  0  0  0  0  0  0  0
   -5.7414   19.7568  -35.1276 H   0  0  0  0  0  0  0  0  0  0  0  0
   -5.8695   17.9651  -35.1276 H   0  0  0  0  0  0  0  0  0  0  0  0
   -4.8744   21.5180  -32.7948 H   0  0  0  0  0  0  0  0  0  0  0  0
   -4.3519   20.0827  -31.8206 H   0  0  0  0  0  0  0  0  0  0  0  0
   -3.2890   22.9371  -31.6177 H   0  0  0  0  0  0  0  0  0  0  0  0
   -4.3116   22.0066  -30.4099 H   0  0  0  0  0  0  0  0  0  0  0  0
   -0.8471   22.8650  -29.4917 H   0  0  0  0  0  0  0  0  0  0  0  0
   -0.2571   22.1829  -31.0451 H   0  0  0  0  0  0  0  0  0  0  0  0
   -1.5507   23.4292  -31.0451 H   0  0  0  0  0  0  0  0  0  0  0  0
   -3.4137   20.4202  -28.9531 H   0  0  0  0  0  0  0  0  0  0  0  0
   -2.2756   22.8878  -27.5549 H   0  0  0  0  0  0  0  0  0  0  0  0
   -5.0968   22.1248  -27.8212 H   0  0  0  0  0  0  0  0  0  0  0  0
   -4.8685   24.6930  -27.6890 H   0  0  0  0  0  0  0  0  0  0  0  0
   -5.7323   26.1158  -30.8628 H   0  0  0  0  0  0  0  0  0  0  0  0
   -5.4340   24.6411  -31.8004 H   0  0  0  0  0  0  0  0  0  0  0  0
   -6.6599   24.7561  -29.1828 H   0  0  0  0  0  0  0  0  0  0  0  0
   -8.6293   22.1963  -30.2827 H   0  0  0  0  0  0  0  0  0  0  0  0
   -8.9171   22.7999  -31.9489 H   0  0  0  0  0  0  0  0  0  0  0  0
  1  2  2  0
  2  3  1  0
  3  4  1  0
  4  5  1  0
  5  6  1  0
  6  7  2  0
  6  8  1  0
  8  9  1  0
  9 10  1  0
 10 11  1  0
 10 12  2  0
  8 13  1  0
 13 14  1  0
 14 15  1  0
 15 16  1  1
 15 17  1  0
 17 18  1  0
 18 19  2  3
 19 20  1  0
 20 21  1  0
 21 22  2  0
 21 23  1  0
 23 24  1  0
 24 25  1  0
 25 26  1  0
 26 27  1  0
 27 28  2  0
 27 29  1  0
 29 30  1  0
 17  2  1  0
 25 20  1  0
 15  5  1  0
  1 31  1  0
  1 32  1  0
  3 33  1  0
  3 34  1  0
  4 35  1  0
  4 36  1  0
  5 37  1  6
  7 38  1  0
  7 39  1  0
  8 40  1  6
 11 41  1  0
 11 42  1  0
 11 43  1  0
 13 44  1  0
 13 45  1  0
 14 46  1  0
 14 47  1  0
 16 48  1  0
 16 49  1  0
 16 50  1  0
 17 51  1  6
 18 52  1  0
 19 53  1  0
 20 54  1  1
 24 55  1  0
 24 56  1  0
 25 57  1  1
 29 58  1  0
 29 59  1  0
M  END
>  <UniqueID>  (26) 
26

>  <SMILES>  (26) 
C=C1CC[C@@H]2C(=C)[C@@H](OC(C)=O)CCC2(C)C1C=CC1C(=O)OCC1OC(=O)CBr

>  <Energy>  (26) 
77.84544115569443

>  <Genealogy>  (26) 
C=C1CC[C@@H]2C(=C)[C@@H](OC(C)=O)CCC2(C)C1C=CC1C(=O)OCC1OC(=O)CBr (chirality)
C=C1CC[C@@H]2C(=C)[C@@H](OC(C)=O)CCC2(C)C1C=CC1C(=O)OCC1OC(=O)CBr (3D coordinates assigned)
C=C1CC[C@@H]2C(=C)[C@@H](OC(C)=O)CCC2(C)C1C=CC1C(=O)OCC1OC(=O)CBr (nonaromatic ring conformer: 77.84544115569443 kcal/mol)

>  <smiles>  (26) 
C=C1CCC2C(=C)C(OC(C)=O)CCC2(C)C1C=CC1C(=O)OCC1OC(=O)CBr

>  <score_type>  (26) 
oracle

>  <origin>  (26) 
adg

>  <m_score__min__energy>  (26) 
-9.6400000000000006

>  <m_primary>  (26) 
energy

$$$$
