0:0
     RDKit          3D

 25 26  0  0  0  0  0  0  0  0999 V2000
   -6.8390   24.9750  -29.9700 C   0  0  0  0  0  0  0  0  0  0  0  0
   -6.4440   23.8140  -30.8130 C   0  0  0  0  0  0  0  0  0  0  0  0
   -7.4440   22.9680  -31.1990 N   0  0  0  0  0  0  0  0  0  0  0  0
   -7.1630   21.8960  -31.9620 C   0  0  0  0  0  0  0  0  0  0  0  0
   -5.1420   23.5800  -31.2000 C   0  0  0  0  0  0  0  0  0  0  0  0
   -9.4130   21.2900  -31.9670 N   0  0  0  0  0  0  0  0  0  0  0  0
   -7.8930   19.9950  -33.0990 N   0  0  0  0  0  0  0  0  0  0  0  0
   -8.1930   21.0570  -32.3380 C   0  0  0  0  0  0  0  0  0  0  0  0
   -6.4390   18.7040  -34.2160 N   0  0  0  0  0  0  0  0  0  0  0  0
   -4.9030   22.5050  -31.9580 N   0  0  0  0  0  0  0  0  0  0  0  0
   -5.8550   21.6550  -32.3540 C   0  0  0  0  0  0  0  0  0  0  0  0
   -5.5970   20.5650  -33.1250 N   0  0  0  0  0  0  0  0  0  0  0  0
   -3.5330   22.2580  -32.3650 C   0  0  0  0  0  0  0  0  0  0  0  0
   -6.6120   19.7390  -33.4960 C   0  0  0  0  0  0  0  0  0  0  0  0
   -4.2310   24.3690  -30.8360 O   0  0  0  0  0  0  0  0  0  0  0  0
   -6.7471   24.7049  -28.9076 H   0  0  0  0  0  0  0  0  0  0  0  0
   -6.1807   25.8284  -30.1896 H   0  0  0  0  0  0  0  0  0  0  0  0
   -7.8812   25.2499  -30.1896 H   0  0  0  0  0  0  0  0  0  0  0  0
   -9.5750   22.1420  -31.3770 H   0  0  0  0  0  0  0  0  0  0  0  0
   -8.6650   19.3540  -33.3880 H   0  0  0  0  0  0  0  0  0  0  0  0
   -6.8100   18.5280  -35.1700 H   0  0  0  0  0  0  0  0  0  0  0  0
   -4.6360   20.3730  -33.4250 H   0  0  0  0  0  0  0  0  0  0  0  0
   -2.9002   22.1439  -31.4725 H   0  0  0  0  0  0  0  0  0  0  0  0
   -3.4892   21.3375  -32.9656 H   0  0  0  0  0  0  0  0  0  0  0  0
   -3.1705   23.1053  -32.9656 H   0  0  0  0  0  0  0  0  0  0  0  0
  1  2  1  0
  2  3  2  0
  3  4  1  0
  4  5  1  0
  5  6  2  3
  5  7  1  0
  7  8  1  0
  8  9  2  3
  8 10  1  0
 10 11  1  0
 11 12  1  0
 12 13  1  0
 12 14  1  0
 14 15  2  0
 14  2  1  0
 11  4  2  0
  1 16  1  0
  1 17  1  0
  1 18  1  0
  6 19  1  0
  7 20  1  0
  9 21  1  0
 10 22  1  0
 13 23  1  0
 13 24  1  0
 13 25  1  0
M  END
>  <smiles>  (1) 
Cc1nc2c(=N)[nH]c(=N)[nH]c2n(C)c1=O

>  <score_type>  (1) 
oracle

>  <origin>  (1) 
adg

>  <m_score__min__energy>  (1) 
-5.5999999999999996

>  <m_primary>  (1) 
energy

$$$$
1:0
     RDKit          3D

 39 40  0  0  0  0  0  0  0  0999 V2000
   -8.8580   19.9780  -32.3290 C   0  0  0  0  0  0  0  0  0  0  0  0
   -9.2280   21.2340  -31.5380 C   0  0  0  0  0  0  0  0  0  0  0  0
   -8.2810   22.4140  -31.8260 C   0  0  0  0  0  0  0  0  0  0  0  0
   -6.9900   22.0090  -32.5570 C   0  0  0  0  0  0  0  0  0  0  0  0
   -5.7850   22.2590  -31.7400 N   0  0  0  0  0  0  0  0  0  0  0  0
   -5.0560   21.2010  -31.2140 C   0  0  0  0  0  0  0  0  0  0  0  0
   -5.4130   20.0090  -31.4160 O   0  0  0  0  0  0  0  0  0  0  0  0
   -3.9320   21.4310  -30.4710 N   0  0  0  0  0  0  0  0  0  0  0  0
   -3.5490   22.7080  -30.2560 C   0  0  0  0  0  0  0  0  0  0  0  0
   -4.2330   23.7620  -30.7490 C   0  0  0  0  0  0  0  0  0  0  0  0
   -3.6360   24.9210  -30.4080 N   0  0  0  0  0  0  0  0  0  0  0  0
   -2.5660   24.4890  -29.6850 C   0  0  0  0  0  0  0  0  0  0  0  0
   -1.6980   25.3000  -29.1700 N   0  0  0  0  0  0  0  0  0  0  0  0
   -2.4840   23.1370  -29.5650 N   0  0  0  0  0  0  0  0  0  0  0  0
   -1.4700   22.3340  -28.8710 C   0  0  0  0  0  0  0  0  0  0  0  0
   -1.9620   21.8070  -27.5050 C   0  0  0  0  0  0  0  0  0  0  0  0
   -2.5010   20.3740  -27.5970 C   0  0  0  0  0  0  0  0  0  0  0  0
   -0.8820   21.9100  -26.4200 C   0  0  0  0  0  0  0  0  0  0  0  0
   -5.3760   23.5560  -31.5060 C   0  0  0  0  0  0  0  0  0  0  0  0
   -6.0180   24.5420  -31.9620 O   0  0  0  0  0  0  0  0  0  0  0  0
   -8.6178   19.1625  -31.6309 H   0  0  0  0  0  0  0  0  0  0  0  0
   -9.7066   19.6804  -32.9624 H   0  0  0  0  0  0  0  0  0  0  0  0
   -7.9835   20.1879  -32.9624 H   0  0  0  0  0  0  0  0  0  0  0  0
  -10.2527   21.5306  -31.8065 H   0  0  0  0  0  0  0  0  0  0  0  0
   -9.1436   20.9917  -30.4683 H   0  0  0  0  0  0  0  0  0  0  0  0
   -8.8173   23.1453  -32.4486 H   0  0  0  0  0  0  0  0  0  0  0  0
   -7.9814   22.8295  -30.8526 H   0  0  0  0  0  0  0  0  0  0  0  0
   -7.0397   20.9365  -32.7961 H   0  0  0  0  0  0  0  0  0  0  0  0
   -6.9125   22.6190  -33.4691 H   0  0  0  0  0  0  0  0  0  0  0  0
   -0.8730   25.6300  -29.7200 H   0  0  0  0  0  0  0  0  0  0  0  0
   -1.2059   21.4751  -29.5055 H   0  0  0  0  0  0  0  0  0  0  0  0
   -0.6016   22.9830  -28.6844 H   0  0  0  0  0  0  0  0  0  0  0  0
   -2.7960   22.4608  -27.2101 H   0  0  0  0  0  0  0  0  0  0  0  0
   -2.6518   19.9732  -26.5838 H   0  0  0  0  0  0  0  0  0  0  0  0
   -3.4595   20.3767  -28.1366 H   0  0  0  0  0  0  0  0  0  0  0  0
   -1.7783   19.7443  -28.1366 H   0  0  0  0  0  0  0  0  0  0  0  0
   -1.3540   21.8650  -25.4274 H   0  0  0  0  0  0  0  0  0  0  0  0
   -0.1736   21.0753  -26.5274 H   0  0  0  0  0  0  0  0  0  0  0  0
   -0.3442   22.8635  -26.5274 H   0  0  0  0  0  0  0  0  0  0  0  0
  1  2  1  0
  2  3  1  0
  3  4  1  0
  4  5  1  0
  5  6  1  0
  6  7  2  0
  6  8  1  0
  8  9  1  0
  9 10  2  0
 10 11  1  0
 11 12  1  0
 12 13  2  3
 12 14  1  0
 14 15  1  0
 15 16  1  0
 16 17  1  0
 16 18  1  0
 10 19  1  0
 19 20  2  0
 19  5  1  0
 14  9  1  0
  1 21  1  0
  1 22  1  0
  1 23  1  0
  2 24  1  0
  2 25  1  0
  3 26  1  0
  3 27  1  0
  4 28  1  0
  4 29  1  0
 13 30  1  0
 15 31  1  0
 15 32  1  0
 16 33  1  0
 17 34  1  0
 17 35  1  0
 17 36  1  0
 18 37  1  0
 18 38  1  0
 18 39  1  0
M  CHG  2   8  -1  11  -1
M  END
>  <UniqueID>  (2) 
1

>  <SMILES>  (2) 
CCCCn1c(=O)[n-]c2c([n-]c(=N)n2CC(C)C)c1=O

>  <Energy>  (2) 
72.82204542564463

>  <Genealogy>  (2) 
CCCCn1c(=O)[n-]c2c([n-]c(=N)n2CC(C)C)c1=O (protonated)
CCCCn1c(=O)[n-]c2c([n-]c(=N)n2CC(C)C)c1=O (3D coordinates assigned)
CCCCn1c(=O)[n-]c2c([n-]c(=N)n2CC(C)C)c1=O (optimized conformer: 72.82204542564463 kcal/mol)

>  <smiles>  (2) 
CCCCn1c(=O)[nH]c2c([nH]c(=N)n2CC(C)C)c1=O

>  <score_type>  (2) 
oracle

>  <origin>  (2) 
adg

>  <m_score__min__energy>  (2) 
-8.0999999999999996

>  <m_primary>  (2) 
energy

$$$$
2:0
     RDKit          3D

 35 37  0  0  0  0  0  0  0  0999 V2000
   -3.7440   20.7360  -32.5580 C   0  0  0  0  0  0  0  0  0  0  0  0
   -4.8270   21.5570  -32.9850 O   0  0  0  0  0  0  0  0  0  0  0  0
   -6.0590   21.6690  -32.3190 C   0  0  0  0  0  0  0  0  0  0  0  0
   -7.1550   20.8520  -32.6680 C   0  0  0  0  0  0  0  0  0  0  0  0
   -8.3690   20.9630  -31.9880 C   0  0  0  0  0  0  0  0  0  0  0  0
   -8.5080   21.8870  -30.9560 C   0  0  0  0  0  0  0  0  0  0  0  0
   -7.4360   22.7060  -30.5980 C   0  0  0  0  0  0  0  0  0  0  0  0
   -6.2020   22.6120  -31.2710 C   0  0  0  0  0  0  0  0  0  0  0  0
   -5.0760   23.5010  -30.8770 C   0  0  0  0  0  0  0  0  0  0  0  0
   -3.9750   23.1520  -30.1140 C   0  0  0  0  0  0  0  0  0  0  0  0
   -3.2410   24.3170  -30.0310 C   0  0  0  0  0  0  0  0  0  0  0  0
   -1.9640   24.4890  -29.3300 C   0  0  0  0  0  0  0  0  0  0  0  0
   -1.6140   25.6360  -28.9390 O   0  0  0  0  0  0  0  0  0  0  0  0
   -1.1030   23.3580  -29.1460 N   0  0  0  0  0  0  0  0  0  0  0  0
   -1.3200   22.2540  -28.2540 C   0  0  0  0  0  0  0  0  0  0  0  0
   -1.7700   21.0010  -28.7100 C   0  0  0  0  0  0  0  0  0  0  0  0
   -1.9450   19.9450  -27.8090 C   0  0  0  0  0  0  0  0  0  0  0  0
   -1.6610   20.1270  -26.4530 C   0  0  0  0  0  0  0  0  0  0  0  0
   -1.1920   21.3620  -25.9980 C   0  0  0  0  0  0  0  0  0  0  0  0
   -1.0150   22.4180  -26.8960 C   0  0  0  0  0  0  0  0  0  0  0  0
   -3.8680   25.3000  -30.7010 N   0  0  0  0  0  0  0  0  0  0  0  0
   -4.9830   24.8040  -31.2160 N   0  0  0  0  0  0  0  0  0  0  0  0
   -3.7130   20.7125  -31.4587 H   0  0  0  0  0  0  0  0  0  0  0  0
   -3.8840   19.7150  -32.9428 H   0  0  0  0  0  0  0  0  0  0  0  0
   -2.7988   21.1465  -32.9428 H   0  0  0  0  0  0  0  0  0  0  0  0
   -7.0519   20.1209  -33.4834 H   0  0  0  0  0  0  0  0  0  0  0  0
   -9.2165   20.3199  -32.2678 H   0  0  0  0  0  0  0  0  0  0  0  0
   -9.4655   21.9719  -30.4212 H   0  0  0  0  0  0  0  0  0  0  0  0
   -7.5560   23.4330  -29.7812 H   0  0  0  0  0  0  0  0  0  0  0  0
   -3.7396   22.1713  -29.6749 H   0  0  0  0  0  0  0  0  0  0  0  0
   -1.9849   20.8513  -29.7784 H   0  0  0  0  0  0  0  0  0  0  0  0
   -2.3066   18.9703  -28.1685 H   0  0  0  0  0  0  0  0  0  0  0  0
   -1.8066   19.2985  -25.7442 H   0  0  0  0  0  0  0  0  0  0  0  0
   -0.9618   21.5032  -24.9317 H   0  0  0  0  0  0  0  0  0  0  0  0
   -0.6337   23.3844  -26.5345 H   0  0  0  0  0  0  0  0  0  0  0  0
  1  2  1  0
  2  3  1  0
  3  4  2  0
  4  5  1  0
  5  6  2  0
  6  7  1  0
  7  8  2  0
  8  9  1  0
  9 10  2  0
 10 11  1  0
 11 12  1  0
 12 13  2  0
 12 14  1  0
 14 15  1  0
 15 16  2  0
 16 17  1  0
 17 18  2  0
 18 19  1  0
 19 20  2  0
 11 21  2  0
 21 22  1  0
  8  3  1  0
 22  9  1  0
 20 15  1  0
  1 23  1  0
  1 24  1  0
  1 25  1  0
  4 26  1  0
  5 27  1  0
  6 28  1  0
  7 29  1  0
 10 30  1  0
 16 31  1  0
 17 32  1  0
 18 33  1  0
 19 34  1  0
 20 35  1  0
M  CHG  2  14  -1  22  -1
M  END
>  <UniqueID>  (3) 
2

>  <SMILES>  (3) 
COc1ccccc1-c1cc(C(=O)[N-]c2ccccc2)n[n-]1

>  <Energy>  (3) 
72.3969321768419

>  <Genealogy>  (3) 
COc1ccccc1-c1cc(C(=O)[N-]c2ccccc2)n[n-]1 (protonated)
COc1ccccc1-c1cc(C(=O)[N-]c2ccccc2)n[n-]1 (3D coordinates assigned)
COc1ccccc1-c1cc(C(=O)[N-]c2ccccc2)n[n-]1 (optimized conformer: 72.3969321768419 kcal/mol)

>  <smiles>  (3) 
COc1ccccc1-c1cc(C(=O)Nc2ccccc2)n[nH]1

>  <score_type>  (3) 
oracle

>  <origin>  (3) 
adg

>  <m_score__min__energy>  (3) 
-10.52

>  <m_primary>  (3) 
energy

$$$$
3:0
     RDKit          3D

 50 52  0  0  0  0  0  0  0  0999 V2000
   -1.8880   24.5560  -28.9480 C   0  0  0  0  0  0  0  0  0  0  0  0
   -3.1930   23.8110  -28.5930 C   0  0  0  0  0  0  0  0  0  0  0  0
   -3.7780   24.4190  -27.3050 C   0  0  0  0  0  0  0  0  0  0  0  0
   -2.8650   22.3230  -28.3640 C   0  0  0  0  0  0  0  0  0  0  0  0
   -4.1770   23.9370  -29.6870 N   0  0  0  0  0  0  0  0  0  0  0  0
   -5.0120   22.9680  -30.1200 C   0  0  0  0  0  0  0  0  0  0  0  0
   -5.7830   23.4860  -31.1400 C   0  0  0  0  0  0  0  0  0  0  0  0
   -6.8610   22.8210  -31.8950 C   0  0  0  0  0  0  0  0  0  0  0  0
   -7.4060   23.4430  -32.8480 O   0  0  0  0  0  0  0  0  0  0  0  0
   -7.2940   21.4820  -31.5820 N   0  0  0  0  0  0  0  0  0  0  0  0
   -6.3200   20.4430  -31.2250 C   0  0  0  0  0  0  0  0  0  0  0  0
   -6.7300   19.0860  -31.8260 C   0  0  0  0  0  0  0  0  0  0  0  0
   -7.3980   19.2370  -33.1400 N   0  0  0  0  0  0  0  0  0  0  0  0
   -6.4910   19.7290  -34.2030 C   0  0  0  0  0  0  0  0  0  0  0  0
   -5.1130   19.1260  -34.0680 C   0  0  0  0  0  0  0  0  0  0  0  0
   -4.0550   19.9020  -33.5620 C   0  0  0  0  0  0  0  0  0  0  0  0
   -4.2650   21.1880  -33.1800 F   0  0  0  0  0  0  0  0  0  0  0  0
   -2.7720   19.3570  -33.4500 C   0  0  0  0  0  0  0  0  0  0  0  0
   -2.5330   18.0380  -33.8400 C   0  0  0  0  0  0  0  0  0  0  0  0
   -3.5770   17.2590  -34.3440 C   0  0  0  0  0  0  0  0  0  0  0  0
   -4.8630   17.7950  -34.4590 C   0  0  0  0  0  0  0  0  0  0  0  0
   -5.8600   17.0150  -34.9510 F   0  0  0  0  0  0  0  0  0  0  0  0
   -8.6480   20.0390  -33.0530 C   0  0  0  0  0  0  0  0  0  0  0  0
   -8.6590   21.0530  -31.8920 C   0  0  0  0  0  0  0  0  0  0  0  0
   -5.3760   24.8000  -31.2680 C   0  0  0  0  0  0  0  0  0  0  0  0
   -4.3980   25.0490  -30.3760 N   0  0  0  0  0  0  0  0  0  0  0  0
   -1.3710   24.8511  -28.0230 H   0  0  0  0  0  0  0  0  0  0  0  0
   -1.2364   23.8938  -29.5370 H   0  0  0  0  0  0  0  0  0  0  0  0
   -2.1269   25.4538  -29.5370 H   0  0  0  0  0  0  0  0  0  0  0  0
   -3.3158   23.9386  -26.4300 H   0  0  0  0  0  0  0  0  0  0  0  0
   -3.5708   25.4991  -27.2824 H   0  0  0  0  0  0  0  0  0  0  0  0
   -4.8653   24.2536  -27.2824 H   0  0  0  0  0  0  0  0  0  0  0  0
   -2.8201   22.1194  -27.2839 H   0  0  0  0  0  0  0  0  0  0  0  0
   -3.6474   21.7003  -28.8223 H   0  0  0  0  0  0  0  0  0  0  0  0
   -1.8933   22.0870  -28.8223 H   0  0  0  0  0  0  0  0  0  0  0  0
   -5.0678   21.9421  -29.7270 H   0  0  0  0  0  0  0  0  0  0  0  0
   -5.3306   20.7262  -31.6134 H   0  0  0  0  0  0  0  0  0  0  0  0
   -6.2864   20.3499  -30.1295 H   0  0  0  0  0  0  0  0  0  0  0  0
   -5.8289   18.4685  -31.9552 H   0  0  0  0  0  0  0  0  0  0  0  0
   -7.4434   18.6118  -31.1360 H   0  0  0  0  0  0  0  0  0  0  0  0
   -6.9072   19.4566  -35.1841 H   0  0  0  0  0  0  0  0  0  0  0  0
   -6.4038   20.8214  -34.1082 H   0  0  0  0  0  0  0  0  0  0  0  0
   -1.9487   19.9694  -33.0535 H   0  0  0  0  0  0  0  0  0  0  0  0
   -1.5227   17.6123  -33.7504 H   0  0  0  0  0  0  0  0  0  0  0  0
   -3.3867   16.2201  -34.6515 H   0  0  0  0  0  0  0  0  0  0  0  0
   -8.7719   20.5910  -33.9964 H   0  0  0  0  0  0  0  0  0  0  0  0
   -9.4695   19.3314  -32.8672 H   0  0  0  0  0  0  0  0  0  0  0  0
   -9.2585   21.9290  -32.1805 H   0  0  0  0  0  0  0  0  0  0  0  0
   -9.0957   20.5753  -31.0026 H   0  0  0  0  0  0  0  0  0  0  0  0
   -5.7856   25.5273  -31.9845 H   0  0  0  0  0  0  0  0  0  0  0  0
  1  2  1  0
  2  3  1  0
  2  4  1  0
  2  5  1  0
  5  6  1  0
  6  7  2  0
  7  8  1  0
  8  9  2  0
  8 10  1  0
 10 11  1  0
 11 12  1  0
 12 13  1  0
 13 14  1  0
 14 15  1  0
 15 16  2  0
 16 17  1  0
 16 18  1  0
 18 19  2  0
 19 20  1  0
 20 21  2  0
 21 22  1  0
 13 23  1  0
 23 24  1  0
  7 25  1  0
 25 26  2  0
 26  5  1  0
 24 10  1  0
 21 15  1  0
  1 27  1  0
  1 28  1  0
  1 29  1  0
  3 30  1  0
  3 31  1  0
  3 32  1  0
  4 33  1  0
  4 34  1  0
  4 35  1  0
  6 36  1  0
 11 37  1  0
 11 38  1  0
 12 39  1  0
 12 40  1  0
 14 41  1  0
 14 42  1  0
 18 43  1  0
 19 44  1  0
 20 45  1  0
 23 46  1  0
 23 47  1  0
 24 48  1  0
 24 49  1  0
 25 50  1  0
M  END
>  <UniqueID>  (4) 
3

>  <SMILES>  (4) 
CC(C)(C)n1cc(C(=O)N2CCN(Cc3c(F)cccc3F)CC2)cn1

>  <Energy>  (4) 
90.0862908418217

>  <Genealogy>  (4) 
CC(C)(C)n1cc(C(=O)N2CCN(Cc3c(F)cccc3F)CC2)cn1 (3D coordinates assigned)
CC(C)(C)n1cc(C(=O)N2CCN(Cc3c(F)cccc3F)CC2)cn1 (nonaromatic ring conformer: 90.0862908418217 kcal/mol)

>  <smiles>  (4) 
CC(C)(C)n1cc(C(=O)N2CCN(Cc3c(F)cccc3F)CC2)cn1

>  <score_type>  (4) 
oracle

>  <origin>  (4) 
adg

>  <m_score__min__energy>  (4) 
-8.0600000000000005

>  <m_primary>  (4) 
energy

$$$$
4:0
     RDKit          3D

 40 43  0  0  0  0  0  0  0  0999 V2000
   -7.3242   23.5513  -32.7420 H   0  0  0  0  0  0  0  0  0  0  0  0
   -7.6630   23.1370  -31.7810 C   0  0  0  0  0  0  0  0  0  0  0  0
   -8.5590   21.9640  -31.8250 C   0  0  0  0  0  0  0  0  0  0  0  0
   -9.7550   22.1200  -31.4610 O   0  0  0  0  0  0  0  0  0  0  0  0
   -8.0880   20.6090  -32.2130 C   0  0  0  0  0  0  0  0  0  0  0  0
   -8.7230   19.4580  -31.6750 C   0  0  0  0  0  0  0  0  0  0  0  0
   -9.5529   19.5773  -30.9629 H   0  0  0  0  0  0  0  0  0  0  0  0
   -8.3020   18.1670  -32.0430 C   0  0  0  0  0  0  0  0  0  0  0  0
   -8.7933   17.2717  -31.6342 H   0  0  0  0  0  0  0  0  0  0  0  0
   -7.2450   18.0590  -32.9400 C   0  0  0  0  0  0  0  0  0  0  0  0
   -6.6230   19.1500  -33.4490 C   0  0  0  0  0  0  0  0  0  0  0  0
   -7.0050   20.4440  -33.1100 C   0  0  0  0  0  0  0  0  0  0  0  0
   -6.4798   21.3156  -33.5276 H   0  0  0  0  0  0  0  0  0  0  0  0
   -5.6150   18.7480  -34.3040 O   0  0  0  0  0  0  0  0  0  0  0  0
   -5.6060   17.3130  -34.3340 C   0  0  0  0  0  0  0  0  0  0  0  0
   -5.7981   16.9466  -35.3532 H   0  0  0  0  0  0  0  0  0  0  0  0
   -4.6334   16.8998  -34.0284 H   0  0  0  0  0  0  0  0  0  0  0  0
   -6.6610   16.9160  -33.4490 O   0  0  0  0  0  0  0  0  0  0  0  0
   -7.2290   23.7380  -30.6620 C   0  0  0  0  0  0  0  0  0  0  0  0
   -7.9768   23.9692  -29.8891 H   0  0  0  0  0  0  0  0  0  0  0  0
   -5.8300   24.1130  -30.3860 C   0  0  0  0  0  0  0  0  0  0  0  0
   -5.0120   24.7850  -31.2220 N   0  0  0  0  0  0  0  0  0  0  0  0
   -3.8670   24.9550  -30.5790 N   0  0  0  0  0  0  0  0  0  0  0  0
   -3.9290   24.4300  -29.3630 N   0  0  0  0  0  0  0  0  0  0  0  0
   -2.8380   24.4460  -28.4210 C   0  0  0  0  0  0  0  0  0  0  0  0
   -3.0520   24.8940  -27.1040 C   0  0  0  0  0  0  0  0  0  0  0  0
   -4.0546   25.2289  -26.7995 H   0  0  0  0  0  0  0  0  0  0  0  0
   -2.0050   24.9180  -26.1790 C   0  0  0  0  0  0  0  0  0  0  0  0
   -2.1909   25.2628  -25.1511 H   0  0  0  0  0  0  0  0  0  0  0  0
   -0.7190   24.5050  -26.5540 C   0  0  0  0  0  0  0  0  0  0  0  0
    0.3940   24.4930  -25.5500 C   0  0  0  0  0  0  0  0  0  0  0  0
   -0.0283   24.4976  -24.5343 H   0  0  0  0  0  0  0  0  0  0  0  0
    1.0039   23.5882  -25.6895 H   0  0  0  0  0  0  0  0  0  0  0  0
    1.0232   25.3844  -25.6895 H   0  0  0  0  0  0  0  0  0  0  0  0
   -0.5010   24.0370  -27.8570 C   0  0  0  0  0  0  0  0  0  0  0  0
    0.4991   23.6865  -28.1519 H   0  0  0  0  0  0  0  0  0  0  0  0
   -1.5480   24.0130  -28.7850 C   0  0  0  0  0  0  0  0  0  0  0  0
   -1.3621   23.6529  -29.8076 H   0  0  0  0  0  0  0  0  0  0  0  0
   -5.1580   23.8990  -29.2050 C   0  0  0  0  0  0  0  0  0  0  0  0
   -5.5468   23.3941  -28.3084 H   0  0  0  0  0  0  0  0  0  0  0  0
  1  2  1  0
  2  3  1  0
  3  4  2  0
  3  5  1  0
  5  6  2  0
  6  7  1  0
  6  8  1  0
  8  9  1  0
  8 10  2  0
 10 11  1  0
 11 12  2  0
 12 13  1  0
 11 14  1  0
 14 15  1  0
 15 16  1  0
 15 17  1  0
 15 18  1  0
  2 19  2  0
 19 20  1  0
 19 21  1  0
 21 22  1  0
 22 23  2  0
 23 24  1  0
 24 25  1  0
 25 26  2  0
 26 27  1  0
 26 28  1  0
 28 29  1  0
 28 30  2  0
 30 31  1  0
 31 32  1  0
 31 33  1  0
 31 34  1  0
 30 35  1  0
 35 36  1  0
 35 37  2  0
 37 38  1  0
 24 39  1  0
 39 40  1  0
 12  5  1  0
 39 21  2  0
 18 10  1  0
 37 25  1  0
M  END
>  <UniqueID>  (5) 
4

>  <SMILES>  (5) 
Cc1ccc(-n2cc(/C=C\C(=O)c3ccc4c(c3)OCO4)nn2)cc1

>  <Energy>  (5) 
116.39216732542545

>  <Genealogy>  (5) 
Cc1ccc(-n2cc(/C=C\C(=O)c3ccc4c(c3)OCO4)nn2)cc1 (cis-trans isomerization)
Cc1ccc(-n2cc(/C=C\C(=O)c3ccc4c(c3)OCO4)nn2)cc1 (3D coordinates assigned)
Cc1ccc(-n2cc(/C=C\C(=O)c3ccc4c(c3)OCO4)nn2)cc1 (nonaromatic ring conformer: 116.39216732542545 kcal/mol)

>  <smiles>  (5) 
Cc1ccc(-n2cc(C=CC(=O)c3ccc4c(c3)OCO4)nn2)cc1

>  <score_type>  (5) 
oracle

>  <origin>  (5) 
adg

>  <m_score__min__energy>  (5) 
-9.6500000000000004

>  <m_primary>  (5) 
energy

$$$$
5:0
     RDKit          3D

 31 33  0  0  1  0  0  0  0  0999 V2000
   -1.7260   22.9640  -30.3450 C   0  0  0  0  0  0  0  0  0  0  0  0
   -3.1270   22.6290  -30.4240 N   0  0  0  0  0  0  0  0  0  0  0  0
   -3.7100   21.4060  -30.4650 C   0  0  0  0  0  0  0  0  0  0  0  0
   -5.0480   21.5550  -30.5360 N   0  0  0  0  0  0  0  0  0  0  0  0
   -5.3340   22.8640  -30.5420 C   0  0  0  0  0  0  0  0  0  0  0  0
   -6.5240   23.5730  -30.6010 C   0  0  0  0  0  0  0  0  0  0  0  0
   -7.6070   22.9020  -30.6650 N   0  0  0  0  0  0  0  0  0  0  0  0
   -8.2080   22.4710  -31.8840 C   0  0  0  0  0  0  0  0  0  0  0  0
   -7.8190   21.0730  -32.2510 C   0  0  0  0  0  0  0  0  0  0  0  0
   -8.5310   19.9700  -31.8250 C   0  0  0  0  0  0  0  0  0  0  0  0
   -8.1650   18.6710  -32.1700 C   0  0  0  0  0  0  0  0  0  0  0  0
   -7.0580   18.4540  -32.9650 C   0  0  0  0  0  0  0  0  0  0  0  0
   -6.4900   16.7090  -33.4820 Br  0  0  0  0  0  0  0  0  0  0  0  0
   -6.3350   19.5300  -33.4000 C   0  0  0  0  0  0  0  0  0  0  0  0
   -6.7110   20.8080  -33.0490 C   0  0  0  0  0  0  0  0  0  0  0  0
   -6.5340   24.9020  -30.5910 N   0  0  0  0  0  0  0  0  0  0  0  0
   -5.3630   25.5470  -30.5220 C   0  0  0  0  0  0  0  0  0  0  0  0
   -4.1750   24.8810  -30.4630 N   0  0  0  0  0  0  0  0  0  0  0  0
   -4.1230   23.5350  -30.4710 C   0  0  0  0  0  0  0  0  0  0  0  0
   -1.4252   23.0359  -29.2894 H   0  0  0  0  0  0  0  0  0  0  0  0
   -1.1334   22.1822  -30.8427 H   0  0  0  0  0  0  0  0  0  0  0  0
   -1.5512   23.9293  -30.8427 H   0  0  0  0  0  0  0  0  0  0  0  0
   -3.1761   20.4445  -30.4437 H   0  0  0  0  0  0  0  0  0  0  0  0
   -9.3015   22.5155  -31.7734 H   0  0  0  0  0  0  0  0  0  0  0  0
   -7.8554   23.1376  -32.6849 H   0  0  0  0  0  0  0  0  0  0  0  0
   -9.4174   20.1219  -31.1916 H   0  0  0  0  0  0  0  0  0  0  0  0
   -8.7584   17.8181  -31.8087 H   0  0  0  0  0  0  0  0  0  0  0  0
   -5.4490   19.3744  -34.0331 H   0  0  0  0  0  0  0  0  0  0  0  0
   -6.1102   21.6537  -33.4149 H   0  0  0  0  0  0  0  0  0  0  0  0
   -7.4300   25.4080  -30.6360 H   0  0  0  0  0  0  0  0  0  0  0  0
   -5.3593   26.6470  -30.5126 H   0  0  0  0  0  0  0  0  0  0  0  0
  1  2  1  0
  2  3  1  0
  3  4  2  0
  4  5  1  0
  5  6  1  0
  6  7  2  0
  7  8  1  0
  8  9  1  0
  9 10  2  0
 10 11  1  0
 11 12  2  0
 12 13  1  0
 12 14  1  0
 14 15  2  0
  6 16  1  0
 16 17  1  0
 17 18  2  0
 18 19  1  0
 19  2  1  0
 19  5  2  0
 15  9  1  0
  1 20  1  0
  1 21  1  0
  1 22  1  0
  3 23  1  0
  8 24  1  0
  8 25  1  0
 10 26  1  0
 11 27  1  0
 14 28  1  0
 15 29  1  0
 16 30  1  0
 17 31  1  0
M  END
>  <smiles>  (6) 
Cn1cnc2c(=NCc3ccc(Br)cc3)[nH]cnc21

>  <score_type>  (6) 
oracle

>  <origin>  (6) 
adg

>  <m_score__min__energy>  (6) 
-7.2999999999999998

>  <m_primary>  (6) 
energy

$$$$
6:0
     RDKit          3D

 39 41  0  0  0  0  0  0  0  0999 V2000
   -5.2167   26.7863  -30.7153 H   0  0  0  0  0  0  0  0  0  0  0  0
   -5.0570   25.6990  -30.6670 C   0  0  0  0  0  0  0  0  0  0  0  0
   -3.8160   25.2090  -30.4250 N   0  0  0  0  0  0  0  0  0  0  0  0
   -3.5710   23.8740  -30.3570 C   0  0  0  0  0  0  0  0  0  0  0  0
   -2.2710   23.4220  -30.1030 C   0  0  0  0  0  0  0  0  0  0  0  0
   -1.4574   24.1484  -29.9604 H   0  0  0  0  0  0  0  0  0  0  0  0
   -1.9990   22.0430  -30.0290 C   0  0  0  0  0  0  0  0  0  0  0  0
   -0.7130   21.5430  -29.7780 O   0  0  0  0  0  0  0  0  0  0  0  0
   -0.2550   20.2590  -30.1890 C   0  0  0  0  0  0  0  0  0  0  0  0
   -0.0365   19.6464  -29.3019 H   0  0  0  0  0  0  0  0  0  0  0  0
   -1.0333   19.7676  -30.7913 H   0  0  0  0  0  0  0  0  0  0  0  0
    0.6586   20.3711  -30.7913 H   0  0  0  0  0  0  0  0  0  0  0  0
   -3.0430   21.1300  -30.2100 C   0  0  0  0  0  0  0  0  0  0  0  0
   -2.8371   20.0510  -30.1523 H   0  0  0  0  0  0  0  0  0  0  0  0
   -4.3430   21.5710  -30.4630 C   0  0  0  0  0  0  0  0  0  0  0  0
   -5.1512   20.8379  -30.6024 H   0  0  0  0  0  0  0  0  0  0  0  0
   -4.6270   22.9490  -30.5410 C   0  0  0  0  0  0  0  0  0  0  0  0
   -5.9310   23.4360  -30.7920 C   0  0  0  0  0  0  0  0  0  0  0  0
   -6.9140   22.5900  -30.9600 N   0  0  0  0  0  0  0  0  0  0  0  0
   -7.4880   22.1290  -32.2270 C   0  0  0  0  0  0  0  0  0  0  0  0
   -8.5056   22.5339  -32.3299 H   0  0  0  0  0  0  0  0  0  0  0  0
   -6.8494   22.4807  -33.0507 H   0  0  0  0  0  0  0  0  0  0  0  0
   -7.5490   20.6200  -32.2740 C   0  0  0  0  0  0  0  0  0  0  0  0
   -8.6270   19.9610  -31.6550 C   0  0  0  0  0  0  0  0  0  0  0  0
   -9.4097   20.5488  -31.1532 H   0  0  0  0  0  0  0  0  0  0  0  0
   -8.7120   18.5680  -31.6720 C   0  0  0  0  0  0  0  0  0  0  0  0
   -9.5633   18.0629  -31.1922 H   0  0  0  0  0  0  0  0  0  0  0  0
   -7.7180   17.8170  -32.2970 C   0  0  0  0  0  0  0  0  0  0  0  0
   -7.7892   16.7194  -32.3145 H   0  0  0  0  0  0  0  0  0  0  0  0
   -6.6320   18.4540  -32.9010 C   0  0  0  0  0  0  0  0  0  0  0  0
   -5.8493   17.8540  -33.3883 H   0  0  0  0  0  0  0  0  0  0  0  0
   -6.5310   19.8600  -32.8910 C   0  0  0  0  0  0  0  0  0  0  0  0
   -5.4420   20.5230  -33.4810 O   0  0  0  0  0  0  0  0  0  0  0  0
   -4.0900   20.0810  -33.4090 C   0  0  0  0  0  0  0  0  0  0  0  0
   -3.7918   19.9835  -32.3547 H   0  0  0  0  0  0  0  0  0  0  0  0
   -3.9961   19.1054  -33.9083 H   0  0  0  0  0  0  0  0  0  0  0  0
   -3.4379   20.8127  -33.9083 H   0  0  0  0  0  0  0  0  0  0  0  0
   -6.1320   24.8300  -30.8550 C   0  0  0  0  0  0  0  0  0  0  0  0
   -7.1365   25.2325  -31.0524 H   0  0  0  0  0  0  0  0  0  0  0  0
  1  2  1  0
  2  3  1  0
  3  4  1  0
  4  5  2  0
  5  6  1  0
  5  7  1  0
  7  8  1  0
  8  9  1  0
  9 10  1  0
  9 11  1  0
  9 12  1  0
  7 13  2  0
 13 14  1  0
 13 15  1  0
 15 16  1  0
 15 17  2  0
 17 18  1  0
 18 19  2  0
 19 20  1  0
 20 21  1  0
 20 22  1  0
 20 23  1  0
 23 24  2  0
 24 25  1  0
 24 26  1  0
 26 27  1  0
 26 28  2  0
 28 29  1  0
 28 30  1  0
 30 31  1  0
 30 32  2  0
 32 33  1  0
 33 34  1  0
 34 35  1  0
 34 36  1  0
 34 37  1  0
 18 38  1  0
 38 39  1  0
 38  2  2  0
 17  4  1  0
 32 23  1  0
M  CHG  1   3  -1
M  END
>  <UniqueID>  (7) 
5

>  <SMILES>  (7) 
COc1ccc2/c(=N/Cc3ccccc3OC)cc[n-]c2c1

>  <Energy>  (7) 
47.698998381394276

>  <Genealogy>  (7) 
COc1ccc2c(=NCc3ccccc3OC)cc[n-]c2c1 (protonated)
COc1ccc2/c(=N/Cc3ccccc3OC)cc[n-]c2c1 (cis-trans isomerization)
COc1ccc2/c(=N/Cc3ccccc3OC)cc[n-]c2c1 (3D coordinates assigned)
COc1ccc2/c(=N/Cc3ccccc3OC)cc[n-]c2c1 (optimized conformer: 47.698998381394276 kcal/mol)

>  <smiles>  (7) 
COc1ccc2c(=NCc3ccccc3OC)cc[nH]c2c1

>  <score_type>  (7) 
oracle

>  <origin>  (7) 
adg

>  <m_score__min__energy>  (7) 
-8.75

>  <m_primary>  (7) 
energy

$$$$
7:0
     RDKit          3D

 32 32  0  0  0  0  0  0  0  0999 V2000
   -3.1050   25.6730  -30.4010 H   0  0  0  0  0  0  0  0  0  0  0  0
   -2.7920   25.0350  -29.6790 O   0  0  0  0  0  0  0  0  0  0  0  0
   -3.6080   24.0300  -29.1990 N   0  0  0  0  0  0  0  0  0  0  0  0
   -4.2130   23.2340  -30.0450 C   0  0  0  0  0  0  0  0  0  0  0  0
   -5.2110   23.7350  -30.9560 N   0  0  0  0  0  0  0  0  0  0  0  0
   -5.8680   25.0140  -30.6780 C   0  0  0  0  0  0  0  0  0  0  0  0
   -6.4954   25.2972  -31.5360 H   0  0  0  0  0  0  0  0  0  0  0  0
   -6.4951   24.9146  -29.7797 H   0  0  0  0  0  0  0  0  0  0  0  0
   -4.9000   26.0030  -30.4620 O   0  0  0  0  0  0  0  0  0  0  0  0
   -4.7170   26.0010  -29.4870 H   0  0  0  0  0  0  0  0  0  0  0  0
   -5.4100   23.0780  -32.2530 C   0  0  0  0  0  0  0  0  0  0  0  0
   -5.5273   23.8439  -33.0338 H   0  0  0  0  0  0  0  0  0  0  0  0
   -4.5361   22.4472  -32.4729 H   0  0  0  0  0  0  0  0  0  0  0  0
   -6.6410   22.2140  -32.2160 C   0  0  0  0  0  0  0  0  0  0  0  0
   -6.5850   20.8830  -32.6620 C   0  0  0  0  0  0  0  0  0  0  0  0
   -5.6487   20.4831  -33.0785 H   0  0  0  0  0  0  0  0  0  0  0  0
   -7.7160   20.0650  -32.5780 C   0  0  0  0  0  0  0  0  0  0  0  0
   -7.6698   19.0253  -32.9342 H   0  0  0  0  0  0  0  0  0  0  0  0
   -8.9050   20.5670  -32.0420 C   0  0  0  0  0  0  0  0  0  0  0  0
   -9.7940   19.9224  -31.9770 H   0  0  0  0  0  0  0  0  0  0  0  0
   -8.9650   21.8860  -31.5890 C   0  0  0  0  0  0  0  0  0  0  0  0
   -9.9015   22.2794  -31.1667 H   0  0  0  0  0  0  0  0  0  0  0  0
   -7.8370   22.7080  -31.6710 C   0  0  0  0  0  0  0  0  0  0  0  0
   -7.8867   23.7450  -31.3074 H   0  0  0  0  0  0  0  0  0  0  0  0
   -3.9140   21.7600  -30.0480 C   0  0  0  0  0  0  0  0  0  0  0  0
   -3.8407   21.3986  -29.0116 H   0  0  0  0  0  0  0  0  0  0  0  0
   -4.7215   21.2231  -30.5673 H   0  0  0  0  0  0  0  0  0  0  0  0
   -2.9611   21.5802  -30.5673 H   0  0  0  0  0  0  0  0  0  0  0  0
   -3.7970   23.9100  -27.7480 C   0  0  0  0  0  0  0  0  0  0  0  0
   -2.9789   24.4294  -27.2275 H   0  0  0  0  0  0  0  0  0  0  0  0
   -4.7583   24.3636  -27.4647 H   0  0  0  0  0  0  0  0  0  0  0  0
   -3.7954   22.8471  -27.4647 H   0  0  0  0  0  0  0  0  0  0  0  0
  1  2  1  0
  2  3  1  0
  3  4  2  0
  4  5  1  0
  5  6  1  0
  6  7  1  0
  6  8  1  0
  6  9  1  0
  9 10  1  0
  5 11  1  0
 11 12  1  0
 11 13  1  0
 11 14  1  0
 14 15  2  0
 15 16  1  0
 15 17  1  0
 17 18  1  0
 17 19  2  0
 19 20  1  0
 19 21  1  0
 21 22  1  0
 21 23  2  0
 23 24  1  0
  4 25  1  0
 25 26  1  0
 25 27  1  0
 25 28  1  0
  3 29  1  0
 29 30  1  0
 29 31  1  0
 29 32  1  0
 23 14  1  0
M  CHG  1   3   1
M  END
>  <UniqueID>  (8) 
6

>  <SMILES>  (8) 
C/C(N(CO)Cc1ccccc1)=[N+](/C)O

>  <Energy>  (8) 
30.829751574958497

>  <Genealogy>  (8) 
CC(N(CO)Cc1ccccc1)=[N+](C)O (protonated)
C/C(N(CO)Cc1ccccc1)=[N+](/C)O (cis-trans isomerization)
C/C(N(CO)Cc1ccccc1)=[N+](/C)O (3D coordinates assigned)
C/C(N(CO)Cc1ccccc1)=[N+](/C)O (optimized conformer: 30.829751574958497 kcal/mol)

>  <smiles>  (8) 
CC(N(CO)Cc1ccccc1)=[N+](C)[O-]

>  <score_type>  (8) 
oracle

>  <origin>  (8) 
adg

>  <m_score__min__energy>  (8) 
-6.0800000000000001

>  <m_primary>  (8) 
energy

$$$$
8:0
     RDKit          3D

 43 45  0  0  0  0  0  0  0  0999 V2000
   -3.9140   25.2990  -30.7970 O   0  0  0  0  0  0  0  0  0  0  0  0
   -4.6250   24.3360  -30.4050 C   0  0  0  0  0  0  0  0  0  0  0  0
   -5.6610   23.7700  -31.3270 C   0  0  0  0  0  0  0  0  0  0  0  0
   -7.2400   23.5060  -30.4460 S   0  0  0  0  0  0  0  0  0  0  0  0
   -7.6600   21.9950  -31.3180 C   0  0  0  0  0  0  0  0  0  0  0  0
   -8.9830   21.5340  -31.3290 C   0  0  0  0  0  0  0  0  0  0  0  0
   -9.3100   20.3580  -32.0110 C   0  0  0  0  0  0  0  0  0  0  0  0
   -8.3170   19.6430  -32.6880 C   0  0  0  0  0  0  0  0  0  0  0  0
   -6.9970   20.1050  -32.6870 C   0  0  0  0  0  0  0  0  0  0  0  0
   -6.6680   21.2820  -32.0050 C   0  0  0  0  0  0  0  0  0  0  0  0
   -4.4050   23.7360  -29.1190 N   0  0  0  0  0  0  0  0  0  0  0  0
   -3.5020   24.2600  -28.1310 C   0  0  0  0  0  0  0  0  0  0  0  0
   -2.1240   24.1740  -28.3460 C   0  0  0  0  0  0  0  0  0  0  0  0
   -1.2220   24.6590  -27.3950 C   0  0  0  0  0  0  0  0  0  0  0  0
   -1.6750   25.2310  -26.1830 C   0  0  0  0  0  0  0  0  0  0  0  0
   -0.7350   25.7410  -25.1870 N   0  0  0  0  0  0  0  0  0  0  0  0
    0.7110   25.4790  -25.3550 C   0  0  0  0  0  0  0  0  0  0  0  0
    1.5680   26.0060  -24.2010 C   0  0  0  0  0  0  0  0  0  0  0  0
    1.0860   27.2450  -23.7400 O   0  0  0  0  0  0  0  0  0  0  0  0
   -0.1500   27.0300  -23.1030 C   0  0  0  0  0  0  0  0  0  0  0  0
   -1.2280   26.6330  -24.1150 C   0  0  0  0  0  0  0  0  0  0  0  0
   -3.0730   25.2940  -25.9720 C   0  0  0  0  0  0  0  0  0  0  0  0
   -3.9690   24.8080  -26.9280 C   0  0  0  0  0  0  0  0  0  0  0  0
   -5.8250   24.4710  -32.1587 H   0  0  0  0  0  0  0  0  0  0  0  0
   -5.3033   22.8016  -31.7069 H   0  0  0  0  0  0  0  0  0  0  0  0
   -9.7656   22.0980  -30.8004 H   0  0  0  0  0  0  0  0  0  0  0  0
  -10.3484   19.9952  -32.0150 H   0  0  0  0  0  0  0  0  0  0  0  0
   -8.5744   18.7163  -33.2218 H   0  0  0  0  0  0  0  0  0  0  0  0
   -6.2173   19.5433  -33.2223 H   0  0  0  0  0  0  0  0  0  0  0  0
   -5.6305   21.6476  -32.0081 H   0  0  0  0  0  0  0  0  0  0  0  0
   -4.8450   22.8060  -28.9350 H   0  0  0  0  0  0  0  0  0  0  0  0
   -1.7452   23.7198  -29.2735 H   0  0  0  0  0  0  0  0  0  0  0  0
   -0.1417   24.5949  -27.5922 H   0  0  0  0  0  0  0  0  0  0  0  0
    0.8608   24.3919  -25.4310 H   0  0  0  0  0  0  0  0  0  0  0  0
    1.0315   26.0103  -26.2633 H   0  0  0  0  0  0  0  0  0  0  0  0
    1.5438   25.2805  -23.3745 H   0  0  0  0  0  0  0  0  0  0  0  0
    2.5975   26.1432  -24.5633 H   0  0  0  0  0  0  0  0  0  0  0  0
   -0.0376   26.2242  -22.3627 H   0  0  0  0  0  0  0  0  0  0  0  0
   -0.4581   27.9649  -22.6119 H   0  0  0  0  0  0  0  0  0  0  0  0
   -2.0364   26.1162  -23.5770 H   0  0  0  0  0  0  0  0  0  0  0  0
   -1.5723   27.5588  -24.5990 H   0  0  0  0  0  0  0  0  0  0  0  0
   -3.4605   25.7325  -25.0406 H   0  0  0  0  0  0  0  0  0  0  0  0
   -5.0508   24.8559  -26.7348 H   0  0  0  0  0  0  0  0  0  0  0  0
  1  2  2  0
  2  3  1  0
  3  4  1  0
  4  5  1  0
  5  6  2  0
  6  7  1  0
  7  8  2  0
  8  9  1  0
  9 10  2  0
  2 11  1  0
 11 12  1  0
 12 13  2  0
 13 14  1  0
 14 15  2  0
 15 16  1  0
 16 17  1  0
 17 18  1  0
 18 19  1  0
 19 20  1  0
 20 21  1  0
 15 22  1  0
 22 23  2  0
 10  5  1  0
 23 12  1  0
 21 16  1  0
  3 24  1  0
  3 25  1  0
  6 26  1  0
  7 27  1  0
  8 28  1  0
  9 29  1  0
 10 30  1  0
 11 31  1  0
 13 32  1  0
 14 33  1  0
 17 34  1  0
 17 35  1  0
 18 36  1  0
 18 37  1  0
 20 38  1  0
 20 39  1  0
 21 40  1  0
 21 41  1  0
 22 42  1  0
 23 43  1  0
M  END
>  <UniqueID>  (9) 
7

>  <SMILES>  (9) 
O=C(CSc1ccccc1)Nc1ccc(N2CCOCC2)cc1

>  <Energy>  (9) 
50.17004151183163

>  <Genealogy>  (9) 
O=C(CSc1ccccc1)Nc1ccc(N2CCOCC2)cc1 (3D coordinates assigned)
O=C(CSc1ccccc1)Nc1ccc(N2CCOCC2)cc1 (nonaromatic ring conformer: 50.17004151183163 kcal/mol)

>  <smiles>  (9) 
O=C(CSc1ccccc1)Nc1ccc(N2CCOCC2)cc1

>  <score_type>  (9) 
oracle

>  <origin>  (9) 
adg

>  <m_score__min__energy>  (9) 
-8.5500000000000007

>  <m_primary>  (9) 
energy

$$$$
9:0
     RDKit          3D

 39 42  0  0  0  0  0  0  0  0999 V2000
   -0.0550   20.3000  -35.7530 C   0  0  0  0  0  0  0  0  0  0  0  0
   -0.6870   20.3790  -34.0770 S   0  0  0  0  0  0  0  0  0  0  0  0
   -1.3180   21.7490  -33.8470 O   0  0  0  0  0  0  0  0  0  0  0  0
    0.4520   20.1910  -33.0930 O   0  0  0  0  0  0  0  0  0  0  0  0
   -1.9050   19.1760  -33.8010 N   0  0  0  0  0  0  0  0  0  0  0  0
   -2.9710   19.3170  -32.8490 C   0  0  0  0  0  0  0  0  0  0  0  0
   -3.5140   18.2900  -32.3450 O   0  0  0  0  0  0  0  0  0  0  0  0
   -3.3370   20.6400  -32.3790 N   0  0  1  0  0  0  0  0  0  0  0  0
   -4.8020   20.8750  -32.2770 C   0  0  0  0  0  0  0  0  0  0  0  0
   -5.7750   20.0860  -33.0090 C   0  0  0  0  0  0  0  0  0  0  0  0
   -5.4520   18.7740  -34.4000 Br  0  0  0  0  0  0  0  0  0  0  0  0
   -7.1490   20.2960  -32.8470 C   0  0  0  0  0  0  0  0  0  0  0  0
   -7.6260   21.2900  -32.0140 C   0  0  0  0  0  0  0  0  0  0  0  0
   -9.5110   21.6040  -31.8930 Br  0  0  0  0  0  0  0  0  0  0  0  0
   -6.7330   22.1330  -31.3670 C   0  0  0  0  0  0  0  0  0  0  0  0
   -5.3340   22.0130  -31.5350 C   0  0  0  0  0  0  0  0  0  0  0  0
   -4.5480   23.1710  -30.9670 C   0  0  0  0  0  0  0  0  0  0  0  0
   -5.1370   24.3320  -30.5910 N   0  0  0  0  0  0  0  0  0  0  0  0
   -4.2340   25.1460  -30.0600 N   0  0  0  0  0  0  0  0  0  0  0  0
   -3.0440   24.5270  -30.0850 C   0  0  0  0  0  0  0  0  0  0  0  0
   -3.2100   23.2660  -30.6350 C   0  0  0  0  0  0  0  0  0  0  0  0
   -2.1170   22.3270  -30.9870 C   0  0  1  0  0  0  0  0  0  0  0  0
   -0.9800   22.2590  -29.9640 C   0  0  0  0  0  0  0  0  0  0  0  0
   -0.4960   20.8620  -30.1180 C   0  0  0  0  0  0  0  0  0  0  0  0
   -1.3710   20.1200  -30.7750 C   0  0  0  0  0  0  0  0  0  0  0  0
   -2.6420   20.8960  -31.0710 C   0  0  2  0  0  0  0  0  0  0  0  0
    1.0362   20.1636  -35.7273 H   0  0  0  0  0  0  0  0  0  0  0  0
   -0.5181   19.4528  -36.2800 H   0  0  0  0  0  0  0  0  0  0  0  0
   -0.2953   21.2352  -36.2800 H   0  0  0  0  0  0  0  0  0  0  0  0
   -3.0170   21.3110  -33.1170 H   0  0  0  0  0  0  0  0  0  0  0  0
   -7.8613   19.6591  -33.3919 H   0  0  0  0  0  0  0  0  0  0  0  0
   -7.1253   22.9179  -30.7037 H   0  0  0  0  0  0  0  0  0  0  0  0
   -2.0936   24.9505  -29.7279 H   0  0  0  0  0  0  0  0  0  0  0  0
   -1.7373   22.7187  -31.9422 H   0  0  0  0  0  0  0  0  0  0  0  0
   -0.1870   22.9834  -30.2015 H   0  0  0  0  0  0  0  0  0  0  0  0
   -1.2952   22.5047  -28.9392 H   0  0  0  0  0  0  0  0  0  0  0  0
    0.4667   20.4929  -29.7345 H   0  0  0  0  0  0  0  0  0  0  0  0
   -1.2000   19.0741  -31.0696 H   0  0  0  0  0  0  0  0  0  0  0  0
   -3.4460   20.6096  -30.3771 H   0  0  0  0  0  0  0  0  0  0  0  0
  1  2  1  0
  2  3  2  0
  2  4  2  0
  2  5  1  0
  5  6  1  0
  6  7  2  0
  6  8  1  0
  8  9  1  0
  9 10  2  0
 10 11  1  0
 10 12  1  0
 12 13  2  0
 13 14  1  0
 13 15  1  0
 15 16  2  0
 16 17  1  0
 17 18  2  0
 18 19  1  0
 19 20  1  0
 20 21  2  0
 21 22  1  0
 22 23  1  0
 23 24  1  0
 24 25  2  0
 25 26  1  0
 26  8  1  0
 16  9  1  0
 21 17  1  0
 26 22  1  0
  1 27  1  0
  1 28  1  0
  1 29  1  0
  8 30  1  6
 12 31  1  0
 15 32  1  0
 20 33  1  0
 22 34  1  6
 23 35  1  0
 23 36  1  0
 24 37  1  0
 25 38  1  0
 26 39  1  1
M  CHG  3   5  -1   8   1  19  -1
M  END
>  <UniqueID>  (10) 
8

>  <SMILES>  (10) 
CS(=O)(=O)[N-]C(=O)[N@H+]1c2c(Br)cc(Br)cc2-c2n[n-]cc2[C@H]2CC=CC21

>  <Energy>  (10) 
123.62009347210079

>  <Genealogy>  (10) 
CS(=O)(=O)[N-]C(=O)[NH+]1c2c(Br)cc(Br)cc2-c2n[n-]cc2C2CC=CC21 (protonated)
CS(=O)(=O)[N-]C(=O)[N@H+]1c2c(Br)cc(Br)cc2-c2n[n-]cc2[C@H]2CC=CC21 (chirality)
CS(=O)(=O)[N-]C(=O)[N@H+]1c2c(Br)cc(Br)cc2-c2n[n-]cc2[C@H]2CC=CC21 (3D coordinates assigned)
CS(=O)(=O)[N-]C(=O)[N@H+]1c2c(Br)cc(Br)cc2-c2n[n-]cc2[C@H]2CC=CC21 (nonaromatic ring conformer: 123.62009347210079 kcal/mol)

>  <smiles>  (10) 
CS(=O)(=O)NC(=O)N1c2c(Br)cc(Br)cc2-c2n[nH]cc2C2CC=CC21

>  <score_type>  (10) 
oracle

>  <origin>  (10) 
adg

>  <m_score__min__energy>  (10) 
-9.5999999999999996

>  <m_primary>  (10) 
energy

$$$$
10:0
     RDKit          3D

 28 30  0  0  0  0  0  0  0  0999 V2000
   -7.6580   17.6561  -32.2390 H   0  0  0  0  0  0  0  0  0  0  0  0
   -7.8110   18.7440  -32.1830 C   0  0  0  0  0  0  0  0  0  0  0  0
   -9.0920   19.2790  -32.3570 C   0  0  0  0  0  0  0  0  0  0  0  0
   -9.9438   18.6097  -32.5481 H   0  0  0  0  0  0  0  0  0  0  0  0
   -9.2940   20.6610  -32.2890 C   0  0  0  0  0  0  0  0  0  0  0  0
  -10.3026   21.0771  -32.4286 H   0  0  0  0  0  0  0  0  0  0  0  0
   -8.2070   21.5190  -32.0420 C   0  0  0  0  0  0  0  0  0  0  0  0
   -8.3480   22.9140  -31.9620 C   0  0  0  0  0  0  0  0  0  0  0  0
   -9.4740   23.4610  -32.1100 O   0  0  0  0  0  0  0  0  0  0  0  0
   -7.2580   23.6880  -31.7230 N   0  0  0  0  0  0  0  0  0  0  0  0
   -6.0220   23.1480  -31.5570 C   0  0  0  0  0  0  0  0  0  0  0  0
   -4.9090   24.0210  -31.3060 N   0  0  0  0  0  0  0  0  0  0  0  0
   -4.0190   23.9200  -30.3610 C   0  0  0  0  0  0  0  0  0  0  0  0
   -3.9720   22.7830  -29.6180 N   0  0  0  0  0  0  0  0  0  0  0  0
   -3.0630   22.6260  -28.6190 C   0  0  0  0  0  0  0  0  0  0  0  0
   -3.0390   21.3620  -27.8210 C   0  0  0  0  0  0  0  0  0  0  0  0
   -3.0436   21.6055  -26.7483 H   0  0  0  0  0  0  0  0  0  0  0  0
   -3.9258   20.7582  -28.0638 H   0  0  0  0  0  0  0  0  0  0  0  0
   -2.1299   20.7923  -28.0638 H   0  0  0  0  0  0  0  0  0  0  0  0
   -2.1520   23.6520  -28.3470 C   0  0  0  0  0  0  0  0  0  0  0  0
   -1.4067   23.5452  -27.5450 H   0  0  0  0  0  0  0  0  0  0  0  0
   -2.2110   24.8140  -29.1170 C   0  0  0  0  0  0  0  0  0  0  0  0
   -1.4080   25.7590  -28.9000 O   0  0  0  0  0  0  0  0  0  0  0  0
   -3.1370   24.9250  -30.1030 N   0  0  0  0  0  0  0  0  0  0  0  0
   -5.8630   21.7970  -31.6300 N   0  0  0  0  0  0  0  0  0  0  0  0
   -6.9170   20.9750  -31.8670 C   0  0  0  0  0  0  0  0  0  0  0  0
   -6.7250   19.5900  -31.9380 C   0  0  0  0  0  0  0  0  0  0  0  0
   -5.7189   19.1670  -31.8009 H   0  0  0  0  0  0  0  0  0  0  0  0
  1  2  1  0
  2  3  2  0
  3  4  1  0
  3  5  1  0
  5  6  1  0
  5  7  2  0
  7  8  1  0
  8  9  2  0
  8 10  1  0
 10 11  2  0
 11 12  1  0
 12 13  2  0
 13 14  1  0
 14 15  1  0
 15 16  1  0
 16 17  1  0
 16 18  1  0
 16 19  1  0
 15 20  2  0
 20 21  1  0
 20 22  1  0
 22 23  2  0
 22 24  1  0
 11 25  1  0
 25 26  1  0
 26 27  2  0
 27 28  1  0
 27  2  1  0
 26  7  1  0
 24 13  1  0
M  CHG  3  14  -1  24  -1  25  -1
M  END
>  <UniqueID>  (11) 
9

>  <SMILES>  (11) 
Cc1cc(=O)[n-]/c(=N\c2nc(=O)c3ccccc3[n-]2)[n-]1

>  <Energy>  (11) 
38.21559433276061

>  <Genealogy>  (11) 
Cc1cc(=O)[n-]c(=Nc2nc(=O)c3ccccc3[n-]2)[n-]1 (protonated)
Cc1cc(=O)[n-]/c(=N\c2nc(=O)c3ccccc3[n-]2)[n-]1 (cis-trans isomerization)
Cc1cc(=O)[n-]/c(=N\c2nc(=O)c3ccccc3[n-]2)[n-]1 (3D coordinates assigned)
Cc1cc(=O)[n-]/c(=N\c2nc(=O)c3ccccc3[n-]2)[n-]1 (optimized conformer: 38.21559433276061 kcal/mol)

>  <smiles>  (11) 
Cc1cc(=O)[nH]c(=Nc2nc(=O)c3ccccc3[nH]2)[nH]1

>  <score_type>  (11) 
oracle

>  <origin>  (11) 
adg

>  <m_score__min__energy>  (11) 
-9.6400000000000006

>  <m_primary>  (11) 
energy

$$$$
11:0
     RDKit          3D

 34 36  0  0  0  0  0  0  0  0999 V2000
   -8.2450   22.0290  -30.2610 O   0  0  0  0  0  0  0  0  0  0  0  0
   -8.1940   21.8690  -31.7550 S   0  0  0  0  0  0  0  0  0  0  0  0
   -9.5330   22.2300  -32.3340 O   0  0  0  0  0  0  0  0  0  0  0  0
   -6.9840   22.9300  -32.4050 N   0  0  0  0  0  0  0  0  0  0  0  0
   -5.9090   23.4950  -31.6330 C   0  0  0  0  0  0  0  0  0  0  0  0
   -4.6680   22.8440  -31.4930 C   0  0  0  0  0  0  0  0  0  0  0  0
   -3.6450   23.4260  -30.7390 C   0  0  0  0  0  0  0  0  0  0  0  0
   -3.8440   24.6520  -30.0980 C   0  0  0  0  0  0  0  0  0  0  0  0
   -2.7860   25.2090  -29.3640 O   0  0  0  0  0  0  0  0  0  0  0  0
   -1.8790   24.4910  -28.5710 C   0  0  0  0  0  0  0  0  0  0  0  0
   -2.3060   23.6660  -27.5150 C   0  0  0  0  0  0  0  0  0  0  0  0
   -1.3600   22.9590  -26.7720 C   0  0  0  0  0  0  0  0  0  0  0  0
   -0.0050   23.0690  -27.0870 C   0  0  0  0  0  0  0  0  0  0  0  0
    0.3840   23.8820  -28.1530 C   0  0  0  0  0  0  0  0  0  0  0  0
   -0.5520   24.5640  -28.8650 N   0  0  0  0  0  0  0  0  0  0  0  0
   -5.0760   25.3120  -30.2450 C   0  0  0  0  0  0  0  0  0  0  0  0
   -6.1000   24.7320  -30.9990 C   0  0  0  0  0  0  0  0  0  0  0  0
   -7.8220   20.2090  -32.1780 C   0  0  0  0  0  0  0  0  0  0  0  0
   -8.4770   19.0870  -31.6960 C   0  0  0  0  0  0  0  0  0  0  0  0
   -7.9750   17.8940  -32.2270 C   0  0  0  0  0  0  0  0  0  0  0  0
   -6.9280   18.0780  -33.1210 C   0  0  0  0  0  0  0  0  0  0  0  0
   -6.6270   19.7290  -33.2560 S   0  0  0  0  0  0  0  0  0  0  0  0
   -7.0140   23.1060  -33.4350 H   0  0  0  0  0  0  0  0  0  0  0  0
   -4.5028   21.8716  -31.9800 H   0  0  0  0  0  0  0  0  0  0  0  0
   -2.6751   22.9148  -30.6493 H   0  0  0  0  0  0  0  0  0  0  0  0
   -3.3764   23.5789  -27.2769 H   0  0  0  0  0  0  0  0  0  0  0  0
   -1.6817   22.3161  -25.9394 H   0  0  0  0  0  0  0  0  0  0  0  0
    0.7482   22.5211  -26.5018 H   0  0  0  0  0  0  0  0  0  0  0  0
    1.4482   23.9708  -28.4170 H   0  0  0  0  0  0  0  0  0  0  0  0
   -5.2350   26.2888  -29.7648 H   0  0  0  0  0  0  0  0  0  0  0  0
   -7.0652   25.2505  -31.0963 H   0  0  0  0  0  0  0  0  0  0  0  0
   -9.3043   19.1298  -30.9723 H   0  0  0  0  0  0  0  0  0  0  0  0
   -8.3722   16.9032  -31.9614 H   0  0  0  0  0  0  0  0  0  0  0  0
   -6.3871   17.2802  -33.6510 H   0  0  0  0  0  0  0  0  0  0  0  0
  1  2  2  0
  2  3  2  0
  2  4  1  0
  4  5  1  0
  5  6  2  0
  6  7  1  0
  7  8  2  0
  8  9  1  0
  9 10  1  0
 10 11  2  0
 11 12  1  0
 12 13  2  0
 13 14  1  0
 14 15  2  0
  8 16  1  0
 16 17  2  0
  2 18  1  0
 18 19  2  0
 19 20  1  0
 20 21  2  0
 21 22  1  0
 17  5  1  0
 22 18  1  0
 15 10  1  0
  4 23  1  0
  6 24  1  0
  7 25  1  0
 11 26  1  0
 12 27  1  0
 13 28  1  0
 14 29  1  0
 16 30  1  0
 17 31  1  0
 19 32  1  0
 20 33  1  0
 21 34  1  0
M  END
>  <UniqueID>  (12) 
10

>  <SMILES>  (12) 
O=S(=O)(Nc1ccc(Oc2ccccn2)cc1)c1cccs1

>  <Energy>  (12) 
72.74059952504457

>  <Genealogy>  (12) 
O=S(=O)(Nc1ccc(Oc2ccccn2)cc1)c1cccs1 (3D coordinates assigned)
O=S(=O)(Nc1ccc(Oc2ccccn2)cc1)c1cccs1 (optimized conformer: 72.74059952504457 kcal/mol)

>  <smiles>  (12) 
O=S(=O)(Nc1ccc(Oc2ccccn2)cc1)c1cccs1

>  <score_type>  (12) 
oracle

>  <origin>  (12) 
adg

>  <m_score__min__energy>  (12) 
-8.8300000000000001

>  <m_primary>  (12) 
energy

$$$$
12:0
     RDKit          3D

 71 74  0  0  0  0  0  0  0  0999 V2000
   -3.1280   24.4340  -31.5990 H   0  0  0  0  0  0  0  0  0  0  0  0
   -3.6670   24.3990  -30.7660 O   0  0  0  0  0  0  0  0  0  0  0  0
   -3.5900   23.1100  -30.1900 C   0  0  0  0  0  0  0  0  0  0  0  0
   -2.9630   22.2300  -31.2890 C   0  0  0  0  0  0  0  0  0  0  0  0
   -1.5890   21.9140  -31.2130 C   0  0  0  0  0  0  0  0  0  0  0  0
   -1.0016   22.2638  -30.3512 H   0  0  0  0  0  0  0  0  0  0  0  0
   -0.9620   21.1660  -32.2110 C   0  0  0  0  0  0  0  0  0  0  0  0
    0.1023   20.9060  -32.1130 H   0  0  0  0  0  0  0  0  0  0  0  0
   -1.6830   20.7440  -33.3390 C   0  0  0  0  0  0  0  0  0  0  0  0
   -1.1010   19.9870  -34.3670 O   0  0  0  0  0  0  0  0  0  0  0  0
    0.0200   20.4060  -35.1390 C   0  0  0  0  0  0  0  0  0  0  0  0
    0.8352   20.7107  -34.4663 H   0  0  0  0  0  0  0  0  0  0  0  0
    0.3598   19.5742  -35.7735 H   0  0  0  0  0  0  0  0  0  0  0  0
   -0.2691   21.2568  -35.7735 H   0  0  0  0  0  0  0  0  0  0  0  0
   -3.0280   21.0990  -33.4550 C   0  0  0  0  0  0  0  0  0  0  0  0
   -3.5986   20.7844  -34.3413 H   0  0  0  0  0  0  0  0  0  0  0  0
   -3.6580   21.8490  -32.4590 C   0  0  0  0  0  0  0  0  0  0  0  0
   -4.7091   22.1470  -32.5871 H   0  0  0  0  0  0  0  0  0  0  0  0
   -2.6920   23.1630  -28.9400 C   0  0  0  0  0  0  0  0  0  0  0  0
   -1.9330   24.3160  -28.6370 C   0  0  0  0  0  0  0  0  0  0  0  0
   -2.0219   25.2065  -29.2766 H   0  0  0  0  0  0  0  0  0  0  0  0
   -1.0720   24.3420  -27.5380 C   0  0  0  0  0  0  0  0  0  0  0  0
   -0.5079   25.2576  -27.3069 H   0  0  0  0  0  0  0  0  0  0  0  0
   -0.9220   23.2060  -26.7260 C   0  0  0  0  0  0  0  0  0  0  0  0
   -0.0620   23.1790  -25.6180 O   0  0  0  0  0  0  0  0  0  0  0  0
   -0.0230   24.1810  -24.6070 C   0  0  0  0  0  0  0  0  0  0  0  0
   -0.0416   23.7032  -23.6163 H   0  0  0  0  0  0  0  0  0  0  0  0
    0.8988   24.7720  -24.7118 H   0  0  0  0  0  0  0  0  0  0  0  0
   -0.8961   24.8418  -24.7118 H   0  0  0  0  0  0  0  0  0  0  0  0
   -1.6500   22.0530  -27.0300 C   0  0  0  0  0  0  0  0  0  0  0  0
   -1.5397   21.1581  -26.3999 H   0  0  0  0  0  0  0  0  0  0  0  0
   -2.5170   22.0240  -28.1260 C   0  0  0  0  0  0  0  0  0  0  0  0
   -3.0699   21.1015  -28.3568 H   0  0  0  0  0  0  0  0  0  0  0  0
   -5.0220   22.6480  -29.7430 C   0  0  0  0  0  0  0  0  0  0  0  0
   -5.0848   21.5566  -29.8651 H   0  0  0  0  0  0  0  0  0  0  0  0
   -5.1437   22.9711  -28.6986 H   0  0  0  0  0  0  0  0  0  0  0  0
   -6.1820   23.2920  -30.5420 C   0  0  0  0  0  0  0  0  0  0  0  0
   -6.8176   23.8484  -29.8374 H   0  0  0  0  0  0  0  0  0  0  0  0
   -5.7185   23.9369  -31.3031 H   0  0  0  0  0  0  0  0  0  0  0  0
   -7.0330   22.3270  -31.2690 N   0  0  0  0  0  0  0  0  0  0  0  0
   -8.4690   22.6410  -31.2300 C   0  0  0  0  0  0  0  0  0  0  0  0
   -8.7993   22.6765  -30.1814 H   0  0  0  0  0  0  0  0  0  0  0  0
   -8.6245   23.6129  -31.7211 H   0  0  0  0  0  0  0  0  0  0  0  0
   -9.2990   21.5770  -31.9830 C   0  0  0  0  0  0  0  0  0  0  0  0
  -10.1030   21.2285  -31.3180 H   0  0  0  0  0  0  0  0  0  0  0  0
   -9.6876   22.0561  -32.8937 H   0  0  0  0  0  0  0  0  0  0  0  0
   -8.5070   20.4040  -32.4140 N   0  0  0  0  0  0  0  0  0  0  0  0
   -8.4120   19.3130  -31.4190 C   0  0  0  0  0  0  0  0  0  0  0  0
   -7.6840   19.6056  -30.6481 H   0  0  0  0  0  0  0  0  0  0  0  0
   -9.4187   19.1631  -31.0018 H   0  0  0  0  0  0  0  0  0  0  0  0
   -7.9760   18.0020  -32.0150 C   0  0  0  0  0  0  0  0  0  0  0  0
   -8.6959   17.4149  -32.6042 H   0  0  0  0  0  0  0  0  0  0  0  0
   -6.7330   17.5320  -31.8460 C   0  0  0  0  0  0  0  0  0  0  0  0
   -6.4429   17.1940  -30.8402 H   0  0  0  0  0  0  0  0  0  0  0  0
   -5.7210   17.4380  -32.9300 C   0  0  0  0  0  0  0  0  0  0  0  0
   -4.4550   16.8440  -32.7430 C   0  0  0  0  0  0  0  0  0  0  0  0
   -4.1779   16.4457  -31.7558 H   0  0  0  0  0  0  0  0  0  0  0  0
   -3.5500   16.7590  -33.8070 C   0  0  0  0  0  0  0  0  0  0  0  0
   -2.5641   16.2962  -33.6528 H   0  0  0  0  0  0  0  0  0  0  0  0
   -3.8950   17.2600  -35.0640 C   0  0  0  0  0  0  0  0  0  0  0  0
   -3.1768   17.2032  -35.8952 H   0  0  0  0  0  0  0  0  0  0  0  0
   -5.1520   17.8330  -35.2650 C   0  0  0  0  0  0  0  0  0  0  0  0
   -5.4278   18.2175  -36.2580 H   0  0  0  0  0  0  0  0  0  0  0  0
   -6.0610   17.9190  -34.2060 C   0  0  0  0  0  0  0  0  0  0  0  0
   -7.0515   18.3673  -34.3732 H   0  0  0  0  0  0  0  0  0  0  0  0
   -7.2420   20.7270  -33.1200 C   0  0  0  0  0  0  0  0  0  0  0  0
   -6.5318   19.9029  -32.9576 H   0  0  0  0  0  0  0  0  0  0  0  0
   -7.4885   20.8598  -34.1838 H   0  0  0  0  0  0  0  0  0  0  0  0
   -6.5900   22.0350  -32.6380 C   0  0  0  0  0  0  0  0  0  0  0  0
   -5.4955   21.9267  -32.6540 H   0  0  0  0  0  0  0  0  0  0  0  0
   -6.8866   22.8594  -33.3031 H   0  0  0  0  0  0  0  0  0  0  0  0
  1  2  1  0
  2  3  1  0
  3  4  1  0
  4  5  2  0
  5  6  1  0
  5  7  1  0
  7  8  1  0
  7  9  2  0
  9 10  1  0
 10 11  1  0
 11 12  1  0
 11 13  1  0
 11 14  1  0
  9 15  1  0
 15 16  1  0
 15 17  2  0
 17 18  1  0
  3 19  1  0
 19 20  2  0
 20 21  1  0
 20 22  1  0
 22 23  1  0
 22 24  2  0
 24 25  1  0
 25 26  1  0
 26 27  1  0
 26 28  1  0
 26 29  1  0
 24 30  1  0
 30 31  1  0
 30 32  2  0
 32 33  1  0
  3 34  1  0
 34 35  1  0
 34 36  1  0
 34 37  1  0
 37 38  1  0
 37 39  1  0
 37 40  1  0
 40 41  1  0
 41 42  1  0
 41 43  1  0
 41 44  1  0
 44 45  1  0
 44 46  1  0
 44 47  1  0
 47 48  1  0
 48 49  1  0
 48 50  1  0
 48 51  1  0
 51 52  1  0
 51 53  2  0
 53 54  1  0
 53 55  1  0
 55 56  2  0
 56 57  1  0
 56 58  1  0
 58 59  1  0
 58 60  2  0
 60 61  1  0
 60 62  1  0
 62 63  1  0
 62 64  2  0
 64 65  1  0
 47 66  1  0
 66 67  1  0
 66 68  1  0
 66 69  1  0
 69 70  1  0
 69 71  1  0
 17  4  1  0
 32 19  1  0
 69 40  1  0
 64 55  1  0
M  END
>  <UniqueID>  (13) 
11

>  <SMILES>  (13) 
COc1ccc(C(O)(CCN2CCN(C/C=C/c3ccccc3)CC2)c2ccc(OC)cc2)cc1

>  <Energy>  (13) 
97.4078858227806

>  <Genealogy>  (13) 
COc1ccc(C(O)(CCN2CCN(C/C=C/c3ccccc3)CC2)c2ccc(OC)cc2)cc1 (cis-trans isomerization)
COc1ccc(C(O)(CCN2CCN(C/C=C/c3ccccc3)CC2)c2ccc(OC)cc2)cc1 (3D coordinates assigned)
COc1ccc(C(O)(CCN2CCN(C/C=C/c3ccccc3)CC2)c2ccc(OC)cc2)cc1 (nonaromatic ring conformer: 97.4078858227806 kcal/mol)

>  <smiles>  (13) 
COc1ccc(C(O)(CCN2CCN(CC=Cc3ccccc3)CC2)c2ccc(OC)cc2)cc1

>  <score_type>  (13) 
oracle

>  <origin>  (13) 
adg

>  <m_score__min__energy>  (13) 
-9.5099999999999998

>  <m_primary>  (13) 
energy

$$$$
13:0
     RDKit          3D

 35 37  0  0  0  0  0  0  0  0999 V2000
   -7.5360   23.4850  -32.7200 C   0  0  0  0  0  0  0  0  0  0  0  0
   -7.4430   22.4980  -31.6370 N   0  0  0  0  0  0  0  0  0  0  0  0
   -7.1520   22.9760  -30.2780 C   0  0  0  0  0  0  0  0  0  0  0  0
   -5.7350   23.4510  -30.1810 C   0  0  0  0  0  0  0  0  0  0  0  0
   -5.0640   23.6190  -29.0290 N   0  0  0  0  0  0  0  0  0  0  0  0
   -3.8650   24.0780  -29.4450 C   0  0  0  0  0  0  0  0  0  0  0  0
   -2.7290   24.4310  -28.5580 C   0  0  0  0  0  0  0  0  0  0  0  0
   -2.9390   24.6230  -27.1830 C   0  0  0  0  0  0  0  0  0  0  0  0
   -1.8710   24.9530  -26.3470 C   0  0  0  0  0  0  0  0  0  0  0  0
   -0.5950   25.0920  -26.8910 C   0  0  0  0  0  0  0  0  0  0  0  0
   -0.4010   24.9050  -28.2220 N   0  0  0  0  0  0  0  0  0  0  0  0
   -1.4220   24.5820  -29.0590 C   0  0  0  0  0  0  0  0  0  0  0  0
   -3.8220   24.1820  -30.7900 N   0  0  0  0  0  0  0  0  0  0  0  0
   -4.9910   23.7900  -31.2050 O   0  0  0  0  0  0  0  0  0  0  0  0
   -7.6020   21.0850  -31.9260 C   0  0  0  0  0  0  0  0  0  0  0  0
   -8.6410   20.3430  -31.3280 C   0  0  0  0  0  0  0  0  0  0  0  0
   -8.8000   18.9820  -31.6100 C   0  0  0  0  0  0  0  0  0  0  0  0
   -7.9280   18.3440  -32.4920 C   0  0  0  0  0  0  0  0  0  0  0  0
   -6.8960   19.0630  -33.0960 C   0  0  0  0  0  0  0  0  0  0  0  0
   -6.0530   18.4420  -33.9570 F   0  0  0  0  0  0  0  0  0  0  0  0
   -6.7320   20.4240  -32.8170 C   0  0  0  0  0  0  0  0  0  0  0  0
   -7.6310   24.4931  -32.2902 H   0  0  0  0  0  0  0  0  0  0  0  0
   -6.6292   23.4349  -33.3406 H   0  0  0  0  0  0  0  0  0  0  0  0
   -8.4175   23.2664  -33.3406 H   0  0  0  0  0  0  0  0  0  0  0  0
   -7.8299   23.8072  -30.0338 H   0  0  0  0  0  0  0  0  0  0  0  0
   -7.2983   22.1467  -29.5703 H   0  0  0  0  0  0  0  0  0  0  0  0
   -5.4050   23.4330  -28.0610 H   0  0  0  0  0  0  0  0  0  0  0  0
   -3.9496   24.5129  -26.7628 H   0  0  0  0  0  0  0  0  0  0  0  0
   -2.0346   25.1019  -25.2695 H   0  0  0  0  0  0  0  0  0  0  0  0
    0.2543   25.3530  -26.2424 H   0  0  0  0  0  0  0  0  0  0  0  0
   -1.2264   24.4380  -30.1319 H   0  0  0  0  0  0  0  0  0  0  0  0
   -9.3338   20.8393  -30.6325 H   0  0  0  0  0  0  0  0  0  0  0  0
   -9.6139   18.4142  -31.1355 H   0  0  0  0  0  0  0  0  0  0  0  0
   -8.0539   17.2735  -32.7115 H   0  0  0  0  0  0  0  0  0  0  0  0
   -5.9162   20.9840  -33.2975 H   0  0  0  0  0  0  0  0  0  0  0  0
  1  2  1  0
  2  3  1  0
  3  4  1  0
  4  5  2  0
  5  6  1  0
  6  7  1  0
  7  8  2  0
  8  9  1  0
  9 10  2  0
 10 11  1  0
 11 12  2  0
  6 13  2  0
 13 14  1  0
  2 15  1  0
 15 16  2  0
 16 17  1  0
 17 18  2  0
 18 19  1  0
 19 20  1  0
 19 21  2  0
 14  4  1  0
 21 15  1  0
 12  7  1  0
  1 22  1  0
  1 23  1  0
  1 24  1  0
  3 25  1  0
  3 26  1  0
  5 27  1  0
  8 28  1  0
  9 29  1  0
 10 30  1  0
 12 31  1  0
 16 32  1  0
 17 33  1  0
 18 34  1  0
 21 35  1  0
M  CHG  1   5   1
M  END
>  <UniqueID>  (14) 
12

>  <SMILES>  (14) 
CN(Cc1[nH+]c(-c2cccnc2)no1)c1cccc(F)c1

>  <Energy>  (14) 
75.72680119454772

>  <Genealogy>  (14) 
CN(Cc1[nH+]c(-c2cccnc2)no1)c1cccc(F)c1 (protonated)
CN(Cc1[nH+]c(-c2cccnc2)no1)c1cccc(F)c1 (3D coordinates assigned)
CN(Cc1[nH+]c(-c2cccnc2)no1)c1cccc(F)c1 (optimized conformer: 75.72680119454772 kcal/mol)

>  <smiles>  (14) 
CN(Cc1nc(-c2cccnc2)no1)c1cccc(F)c1

>  <score_type>  (14) 
oracle

>  <origin>  (14) 
adg

>  <m_score__min__energy>  (14) 
-6.7999999999999998

>  <m_primary>  (14) 
energy

$$$$
14:0
     RDKit          3D

 53 56  0  0  0  0  0  0  0  0999 V2000
    3.8860   23.2900  -36.4890 C   0  0  0  0  0  0  0  0  0  0  0  0
    2.1170   23.1670  -36.3330 S   0  0  0  0  0  0  0  0  0  0  0  0
    1.4450   24.2200  -37.1690 O   0  0  0  0  0  0  0  0  0  0  0  0
    1.7420   23.3850  -34.8930 O   0  0  0  0  0  0  0  0  0  0  0  0
    1.5810   21.5910  -36.8170 N   0  0  0  0  0  0  0  0  0  0  0  0
    1.1080   20.5620  -35.9370 C   0  0  0  0  0  0  0  0  0  0  0  0
    1.2410   19.2270  -36.3400 C   0  0  0  0  0  0  0  0  0  0  0  0
    0.8020   18.1900  -35.5120 C   0  0  0  0  0  0  0  0  0  0  0  0
    0.2130   18.4740  -34.2710 C   0  0  0  0  0  0  0  0  0  0  0  0
   -0.2510   17.3530  -33.3790 C   0  0  0  0  0  0  0  0  0  0  0  0
   -1.6790   17.4820  -33.0990 N   0  0  0  0  0  0  0  0  0  0  0  0
   -2.6720   17.4010  -34.1330 C   0  0  0  0  0  0  0  0  0  0  0  0
   -2.3110   17.3440  -35.3420 O   0  0  0  0  0  0  0  0  0  0  0  0
   -4.0750   17.4440  -33.8150 N   0  0  0  0  0  0  0  0  0  0  0  0
   -4.6030   16.7690  -32.6230 C   0  0  0  0  0  0  0  0  0  0  0  0
   -5.6000   17.6950  -31.9320 C   0  0  0  0  0  0  0  0  0  0  0  0
   -6.8060   17.9830  -32.8490 C   0  0  0  0  0  0  0  0  0  0  0  0
   -7.4690   19.2380  -32.4510 N   0  0  0  0  0  0  0  0  0  0  0  0
   -8.7940   19.4680  -32.2290 C   0  0  0  0  0  0  0  0  0  0  0  0
   -9.6740   18.5720  -32.2960 O   0  0  0  0  0  0  0  0  0  0  0  0
   -9.1000   20.7610  -31.9480 N   0  0  0  0  0  0  0  0  0  0  0  0
   -7.8980   21.3560  -32.0170 C   0  0  0  0  0  0  0  0  0  0  0  0
   -7.6510   22.6790  -31.8520 N   0  0  0  0  0  0  0  0  0  0  0  0
   -6.3680   23.1350  -31.9870 C   0  0  0  0  0  0  0  0  0  0  0  0
   -5.3200   22.2440  -32.3120 C   0  0  0  0  0  0  0  0  0  0  0  0
   -5.5940   20.8750  -32.4880 C   0  0  0  0  0  0  0  0  0  0  0  0
   -6.9180   20.4600  -32.3230 C   0  0  0  0  0  0  0  0  0  0  0  0
   -6.4710   17.9590  -34.3670 C   0  0  0  0  0  0  0  0  0  0  0  0
   -4.9840   18.1730  -34.7140 C   0  0  0  0  0  0  0  0  0  0  0  0
    0.0680   19.8120  -33.8710 C   0  0  0  0  0  0  0  0  0  0  0  0
    0.5140   20.8490  -34.6950 C   0  0  0  0  0  0  0  0  0  0  0  0
    4.3410   23.3216  -35.4880 H   0  0  0  0  0  0  0  0  0  0  0  0
    4.2673   22.4162  -37.0377 H   0  0  0  0  0  0  0  0  0  0  0  0
    4.1427   24.2082  -37.0377 H   0  0  0  0  0  0  0  0  0  0  0  0
    1.6940   18.9932  -37.3147 H   0  0  0  0  0  0  0  0  0  0  0  0
    0.9191   17.1452  -35.8354 H   0  0  0  0  0  0  0  0  0  0  0  0
   -0.0653   16.3912  -33.8795 H   0  0  0  0  0  0  0  0  0  0  0  0
    0.3040   17.3992  -32.4304 H   0  0  0  0  0  0  0  0  0  0  0  0
   -1.9640   17.7440  -32.1300 H   0  0  0  0  0  0  0  0  0  0  0  0
   -5.1079   15.8377  -32.9192 H   0  0  0  0  0  0  0  0  0  0  0  0
   -3.7791   16.5283  -31.9351 H   0  0  0  0  0  0  0  0  0  0  0  0
   -5.9559   17.2165  -31.0077 H   0  0  0  0  0  0  0  0  0  0  0  0
   -5.0971   18.6458  -31.7017 H   0  0  0  0  0  0  0  0  0  0  0  0
   -7.5093   17.1495  -32.7055 H   0  0  0  0  0  0  0  0  0  0  0  0
   -6.1505   24.2034  -31.8415 H   0  0  0  0  0  0  0  0  0  0  0  0
   -4.2926   22.6198  -32.4271 H   0  0  0  0  0  0  0  0  0  0  0  0
   -4.7981   20.1605  -32.7451 H   0  0  0  0  0  0  0  0  0  0  0  0
   -6.7768   16.9813  -34.7677 H   0  0  0  0  0  0  0  0  0  0  0  0
   -7.0137   18.8055  -34.8130 H   0  0  0  0  0  0  0  0  0  0  0  0
   -4.8107   17.8274  -35.7438 H   0  0  0  0  0  0  0  0  0  0  0  0
   -4.7699   19.2460  -34.6005 H   0  0  0  0  0  0  0  0  0  0  0  0
   -0.3995   20.0455  -32.9031 H   0  0  0  0  0  0  0  0  0  0  0  0
    0.4000   21.8939  -34.3708 H   0  0  0  0  0  0  0  0  0  0  0  0
  1  2  1  0
  2  3  2  0
  2  4  2  0
  2  5  1  0
  5  6  1  0
  6  7  2  0
  7  8  1  0
  8  9  2  0
  9 10  1  0
 10 11  1  0
 11 12  1  0
 12 13  2  0
 12 14  1  0
 14 15  1  0
 15 16  1  0
 16 17  1  0
 17 18  1  0
 18 19  1  0
 19 20  2  0
 19 21  1  0
 21 22  1  0
 22 23  2  0
 23 24  1  0
 24 25  2  0
 25 26  1  0
 26 27  2  0
 17 28  1  0
 28 29  1  0
  9 30  1  0
 30 31  2  0
 31  6  1  0
 29 14  1  0
 27 18  1  0
 27 22  1  0
  1 32  1  0
  1 33  1  0
  1 34  1  0
  7 35  1  0
  8 36  1  0
 10 37  1  0
 10 38  1  0
 11 39  1  0
 15 40  1  0
 15 41  1  0
 16 42  1  0
 16 43  1  0
 17 44  1  0
 24 45  1  0
 25 46  1  0
 26 47  1  0
 28 48  1  0
 28 49  1  0
 29 50  1  0
 29 51  1  0
 30 52  1  0
 31 53  1  0
M  CHG  2   5  -1  21  -1
M  END
>  <UniqueID>  (15) 
13

>  <SMILES>  (15) 
CS(=O)(=O)[N-]c1ccc(CNC(=O)N2CCC(n3c(=O)[n-]c4ncccc43)CC2)cc1

>  <Energy>  (15) 
100.81800855903246

>  <Genealogy>  (15) 
CS(=O)(=O)[N-]c1ccc(CNC(=O)N2CCC(n3c(=O)[n-]c4ncccc43)CC2)cc1 (protonated)
CS(=O)(=O)[N-]c1ccc(CNC(=O)N2CCC(n3c(=O)[n-]c4ncccc43)CC2)cc1 (3D coordinates assigned)
CS(=O)(=O)[N-]c1ccc(CNC(=O)N2CCC(n3c(=O)[n-]c4ncccc43)CC2)cc1 (nonaromatic ring conformer: 100.81800855903246 kcal/mol)

>  <smiles>  (15) 
CS(=O)(=O)Nc1ccc(CNC(=O)N2CCC(n3c(=O)[nH]c4ncccc43)CC2)cc1

>  <score_type>  (15) 
oracle

>  <origin>  (15) 
adg

>  <m_score__min__energy>  (15) 
-10.99

>  <m_primary>  (15) 
energy

$$$$
15:0
     RDKit          3D

 49 52  0  0  0  0  0  0  0  0999 V2000
    1.6520   24.2670  -26.3330 C   0  0  0  0  0  0  0  0  0  0  0  0
    0.6970   24.7370  -25.3140 N   0  0  0  0  0  0  0  0  0  0  0  0
    0.2810   26.1450  -25.5530 C   0  0  0  0  0  0  0  0  0  0  0  0
   -1.1500   26.2870  -26.1030 C   0  0  0  0  0  0  0  0  0  0  0  0
   -1.4790   25.1480  -26.9640 N   0  0  0  0  0  0  0  0  0  0  0  0
   -1.7430   25.3450  -28.3710 C   0  0  0  0  0  0  0  0  0  0  0  0
   -1.2310   26.3350  -28.9620 O   0  0  0  0  0  0  0  0  0  0  0  0
   -2.6020   24.4140  -29.1400 C   0  0  0  0  0  0  0  0  0  0  0  0
   -2.2310   23.0690  -29.3110 C   0  0  0  0  0  0  0  0  0  0  0  0
   -3.0480   22.2140  -30.0540 C   0  0  0  0  0  0  0  0  0  0  0  0
   -4.2260   22.7010  -30.6290 C   0  0  0  0  0  0  0  0  0  0  0  0
   -5.0690   21.8680  -31.3790 C   0  0  0  0  0  0  0  0  0  0  0  0
   -6.2440   22.3870  -31.9580 C   0  0  0  0  0  0  0  0  0  0  0  0
   -7.1200   21.5850  -32.7030 O   0  0  0  0  0  0  0  0  0  0  0  0
   -6.9200   20.2320  -33.0120 C   0  0  0  0  0  0  0  0  0  0  0  0
   -7.6550   19.2110  -32.3870 C   0  0  0  0  0  0  0  0  0  0  0  0
   -7.4030   17.8800  -32.7200 C   0  0  0  0  0  0  0  0  0  0  0  0
   -6.4280   17.5640  -33.6790 C   0  0  0  0  0  0  0  0  0  0  0  0
   -6.1110   16.1280  -34.0110 C   0  0  0  0  0  0  0  0  0  0  0  0
   -5.7190   15.4410  -32.8750 F   0  0  0  0  0  0  0  0  0  0  0  0
   -5.0850   16.0910  -34.9360 F   0  0  0  0  0  0  0  0  0  0  0  0
   -7.2200   15.4930  -34.5400 F   0  0  0  0  0  0  0  0  0  0  0  0
   -5.6870   18.6120  -34.2470 C   0  0  0  0  0  0  0  0  0  0  0  0
   -5.9500   19.9020  -33.9060 N   0  0  0  0  0  0  0  0  0  0  0  0
   -6.5790   23.7310  -31.7480 C   0  0  0  0  0  0  0  0  0  0  0  0
   -5.7410   24.5650  -31.0010 C   0  0  0  0  0  0  0  0  0  0  0  0
   -4.5650   24.0570  -30.4430 C   0  0  0  0  0  0  0  0  0  0  0  0
   -3.7500   24.8660  -29.7150 N   0  0  0  0  0  0  0  0  0  0  0  0
   -1.3470   23.7970  -26.4020 C   0  0  0  0  0  0  0  0  0  0  0  0
   -0.4410   23.8070  -25.1590 C   0  0  0  0  0  0  0  0  0  0  0  0
    2.5331   23.8334  -25.8374 H   0  0  0  0  0  0  0  0  0  0  0  0
    1.1713   23.5025  -26.9611 H   0  0  0  0  0  0  0  0  0  0  0  0
    1.9645   25.1142  -26.9611 H   0  0  0  0  0  0  0  0  0  0  0  0
    0.3416   26.6908  -24.5999 H   0  0  0  0  0  0  0  0  0  0  0  0
    0.9590   26.5534  -26.3169 H   0  0  0  0  0  0  0  0  0  0  0  0
   -1.8595   26.3240  -25.2633 H   0  0  0  0  0  0  0  0  0  0  0  0
   -1.2163   27.2128  -26.6933 H   0  0  0  0  0  0  0  0  0  0  0  0
   -1.3008   22.6914  -28.8614 H   0  0  0  0  0  0  0  0  0  0  0  0
   -2.7653   21.1593  -30.1867 H   0  0  0  0  0  0  0  0  0  0  0  0
   -4.8123   20.8071  -31.5155 H   0  0  0  0  0  0  0  0  0  0  0  0
   -8.4237   19.4593  -31.6404 H   0  0  0  0  0  0  0  0  0  0  0  0
   -7.9703   17.0754  -32.2294 H   0  0  0  0  0  0  0  0  0  0  0  0
   -4.8898   18.3889  -34.9714 H   0  0  0  0  0  0  0  0  0  0  0  0
   -7.5095   24.1339  -32.1745 H   0  0  0  0  0  0  0  0  0  0  0  0
   -6.0079   25.6218  -30.8526 H   0  0  0  0  0  0  0  0  0  0  0  0
   -2.3430   23.4255  -26.1190 H   0  0  0  0  0  0  0  0  0  0  0  0
   -0.8950   23.1424  -27.1617 H   0  0  0  0  0  0  0  0  0  0  0  0
   -1.0366   24.1160  -24.2873 H   0  0  0  0  0  0  0  0  0  0  0  0
   -0.0366   22.7930  -25.0237 H   0  0  0  0  0  0  0  0  0  0  0  0
  1  2  1  0
  2  3  1  0
  3  4  1  0
  4  5  1  0
  5  6  1  0
  6  7  2  0
  6  8  1  0
  8  9  2  0
  9 10  1  0
 10 11  2  0
 11 12  1  0
 12 13  2  0
 13 14  1  0
 14 15  1  0
 15 16  2  0
 16 17  1  0
 17 18  2  0
 18 19  1  0
 19 20  1  0
 19 21  1  0
 19 22  1  0
 18 23  1  0
 23 24  2  0
 13 25  1  0
 25 26  2  0
 26 27  1  0
 27 28  2  0
  5 29  1  0
 29 30  1  0
 30  2  1  0
 28  8  1  0
 27 11  1  0
 24 15  1  0
  1 31  1  0
  1 32  1  0
  1 33  1  0
  3 34  1  0
  3 35  1  0
  4 36  1  0
  4 37  1  0
  9 38  1  0
 10 39  1  0
 12 40  1  0
 16 41  1  0
 17 42  1  0
 23 43  1  0
 25 44  1  0
 26 45  1  0
 29 46  1  0
 29 47  1  0
 30 48  1  0
 30 49  1  0
M  END
>  <UniqueID>  (16) 
14

>  <SMILES>  (16) 
CN1CCN(C(=O)c2ccc3cc(Oc4ccc(C(F)(F)F)cn4)ccc3n2)CC1

>  <Energy>  (16) 
74.23276739170163

>  <Genealogy>  (16) 
CN1CCN(C(=O)c2ccc3cc(Oc4ccc(C(F)(F)F)cn4)ccc3n2)CC1 (3D coordinates assigned)
CN1CCN(C(=O)c2ccc3cc(Oc4ccc(C(F)(F)F)cn4)ccc3n2)CC1 (nonaromatic ring conformer: 74.23276739170163 kcal/mol)

>  <smiles>  (16) 
CN1CCN(C(=O)c2ccc3cc(Oc4ccc(C(F)(F)F)cn4)ccc3n2)CC1

>  <score_type>  (16) 
oracle

>  <origin>  (16) 
adg

>  <m_score__min__energy>  (16) 
-8.5600000000000005

>  <m_primary>  (16) 
energy

$$$$
16:0
     RDKit          3D

 29 29  0  0  0  0  0  0  0  0999 V2000
   -3.6390   21.1810  -32.2900 C   0  0  0  0  0  0  0  0  0  0  0  0
   -3.8770   22.1620  -31.1480 C   0  0  0  0  0  0  0  0  0  0  0  0
   -4.4770   23.3600  -31.6340 O   0  0  0  0  0  0  0  0  0  0  0  0
   -4.8120   24.4410  -30.8110 C   0  0  0  0  0  0  0  0  0  0  0  0
   -3.9430   25.2960  -30.4860 O   0  0  0  0  0  0  0  0  0  0  0  0
   -6.2080   24.5650  -30.2790 C   0  0  0  0  0  0  0  0  0  0  0  0
   -7.0220   23.2770  -30.4780 C   0  0  0  0  0  0  0  0  0  0  0  0
   -7.4380   23.0310  -31.9370 C   0  0  0  0  0  0  0  0  0  0  0  0
   -7.7340   21.6120  -32.1740 N   0  0  0  0  0  0  0  0  0  0  0  0
   -6.8110   20.8790  -32.8070 N   0  0  0  0  0  0  0  0  0  0  0  0
   -6.9890   19.5560  -33.0600 C   0  0  0  0  0  0  0  0  0  0  0  0
   -8.1610   18.9300  -32.6510 C   0  0  0  0  0  0  0  0  0  0  0  0
   -9.1310   19.6780  -31.9930 C   0  0  0  0  0  0  0  0  0  0  0  0
   -8.9070   21.0360  -31.7560 C   0  0  0  0  0  0  0  0  0  0  0  0
   -9.7890   21.7110  -31.1600 O   0  0  0  0  0  0  0  0  0  0  0  0
   -3.3985   20.1899  -31.8779 H   0  0  0  0  0  0  0  0  0  0  0  0
   -4.5462   21.1108  -32.9082 H   0  0  0  0  0  0  0  0  0  0  0  0
   -2.8005   21.5343  -32.9082 H   0  0  0  0  0  0  0  0  0  0  0  0
   -4.5440   21.6986  -30.4061 H   0  0  0  0  0  0  0  0  0  0  0  0
   -2.9101   22.4110  -30.6865 H   0  0  0  0  0  0  0  0  0  0  0  0
   -6.1584   24.7900  -29.2034 H   0  0  0  0  0  0  0  0  0  0  0  0
   -6.7104   25.3709  -30.8341 H   0  0  0  0  0  0  0  0  0  0  0  0
   -6.4127   22.4251  -30.1418 H   0  0  0  0  0  0  0  0  0  0  0  0
   -7.9471   23.3865  -29.8930 H   0  0  0  0  0  0  0  0  0  0  0  0
   -8.3357   23.6266  -32.1592 H   0  0  0  0  0  0  0  0  0  0  0  0
   -6.6043   23.3264  -32.5910 H   0  0  0  0  0  0  0  0  0  0  0  0
   -6.2103   18.9836  -33.5854 H   0  0  0  0  0  0  0  0  0  0  0  0
   -8.3186   17.8588  -32.8451 H   0  0  0  0  0  0  0  0  0  0  0  0
  -10.0669   19.2042  -31.6619 H   0  0  0  0  0  0  0  0  0  0  0  0
  1  2  1  0
  2  3  1  0
  3  4  1  0
  4  5  2  0
  4  6  1  0
  6  7  1  0
  7  8  1  0
  8  9  1  0
  9 10  1  0
 10 11  2  0
 11 12  1  0
 12 13  2  0
 13 14  1  0
 14 15  2  0
 14  9  1  0
  1 16  1  0
  1 17  1  0
  1 18  1  0
  2 19  1  0
  2 20  1  0
  6 21  1  0
  6 22  1  0
  7 23  1  0
  7 24  1  0
  8 25  1  0
  8 26  1  0
 11 27  1  0
 12 28  1  0
 13 29  1  0
M  END
>  <UniqueID>  (17) 
15

>  <SMILES>  (17) 
CCOC(=O)CCCn1ncccc1=O

>  <Energy>  (17) 
19.814778718421024

>  <Genealogy>  (17) 
CCOC(=O)CCCn1ncccc1=O (3D coordinates assigned)
CCOC(=O)CCCn1ncccc1=O (optimized conformer: 19.814778718421024 kcal/mol)

>  <smiles>  (17) 
CCOC(=O)CCCn1ncccc1=O

>  <score_type>  (17) 
oracle

>  <origin>  (17) 
adg

>  <m_score__min__energy>  (17) 
-5.9400000000000004

>  <m_primary>  (17) 
energy

$$$$
17:0
     RDKit          3D

 50 52  0  0  0  0  0  0  0  0999 V2000
   -5.4360   14.4770  -34.3860 C   0  0  0  0  0  0  0  0  0  0  0  0
   -5.6350   15.9210  -34.0350 C   0  0  0  0  0  0  0  0  0  0  0  0
   -6.8380   16.3480  -33.4560 C   0  0  0  0  0  0  0  0  0  0  0  0
   -7.0110   17.6870  -33.0930 C   0  0  0  0  0  0  0  0  0  0  0  0
   -5.9810   18.6230  -33.2980 C   0  0  0  0  0  0  0  0  0  0  0  0
   -6.1640   20.0470  -32.9000 C   0  0  0  0  0  0  0  0  0  0  0  0
   -5.1040   20.8710  -32.8190 C   0  0  0  0  0  0  0  0  0  0  0  0
   -5.2130   22.2940  -32.3290 C   0  0  0  0  0  0  0  0  0  0  0  0
   -6.5840   22.8420  -32.4520 N   0  0  2  0  0  0  0  0  0  0  0  0
   -6.7170   24.1460  -31.7530 C   0  0  0  0  0  0  0  0  0  0  0  0
   -6.8270   24.0400  -30.2140 C   0  0  0  0  0  0  0  0  0  0  0  0
   -5.7450   24.8090  -29.4340 C   0  0  0  0  0  0  0  0  0  0  0  0
   -4.3560   24.5270  -29.9470 C   0  0  0  0  0  0  0  0  0  0  0  0
   -3.8760   25.3110  -30.8120 O   0  0  0  0  0  0  0  0  0  0  0  0
   -3.5250   23.3940  -29.4510 C   0  0  0  0  0  0  0  0  0  0  0  0
   -3.9260   22.6850  -28.3000 C   0  0  0  0  0  0  0  0  0  0  0  0
   -3.1640   21.6170  -27.8180 C   0  0  0  0  0  0  0  0  0  0  0  0
   -1.9910   21.2410  -28.4730 C   0  0  0  0  0  0  0  0  0  0  0  0
   -1.5770   21.9330  -29.6120 C   0  0  0  0  0  0  0  0  0  0  0  0
   -2.3350   23.0020  -30.1000 C   0  0  0  0  0  0  0  0  0  0  0  0
   -7.5580   21.8850  -31.8860 C   0  0  0  0  0  0  0  0  0  0  0  0
   -7.5590   20.5840  -32.6930 C   0  0  0  0  0  0  0  0  0  0  0  0
   -4.7660   18.1810  -33.8550 C   0  0  0  0  0  0  0  0  0  0  0  0
   -4.5940   16.8420  -34.2160 C   0  0  0  0  0  0  0  0  0  0  0  0
   -5.3542   13.8833  -33.4636 H   0  0  0  0  0  0  0  0  0  0  0  0
   -6.2936   14.1215  -34.9760 H   0  0  0  0  0  0  0  0  0  0  0  0
   -4.5142   14.3667  -34.9760 H   0  0  0  0  0  0  0  0  0  0  0  0
   -7.6502   15.6258  -33.2863 H   0  0  0  0  0  0  0  0  0  0  0  0
   -7.9609   18.0115  -32.6431 H   0  0  0  0  0  0  0  0  0  0  0  0
   -4.1170   20.4919  -33.1225 H   0  0  0  0  0  0  0  0  0  0  0  0
   -4.9164   22.3244  -31.2702 H   0  0  0  0  0  0  0  0  0  0  0  0
   -4.5530   22.9110  -32.9565 H   0  0  0  0  0  0  0  0  0  0  0  0
   -6.8140   22.9730  -33.4650 H   0  0  0  0  0  0  0  0  0  0  0  0
   -5.8339   24.7563  -31.9932 H   0  0  0  0  0  0  0  0  0  0  0  0
   -7.6580   24.5947  -32.1039 H   0  0  0  0  0  0  0  0  0  0  0  0
   -7.8095   24.4328  -29.9135 H   0  0  0  0  0  0  0  0  0  0  0  0
   -6.6899   22.9770  -29.9666 H   0  0  0  0  0  0  0  0  0  0  0  0
   -5.9430   25.8872  -29.5253 H   0  0  0  0  0  0  0  0  0  0  0  0
   -5.7887   24.4781  -28.3859 H   0  0  0  0  0  0  0  0  0  0  0  0
   -4.8484   22.9755  -27.7758 H   0  0  0  0  0  0  0  0  0  0  0  0
   -3.4900   21.0716  -26.9200 H   0  0  0  0  0  0  0  0  0  0  0  0
   -1.3931   20.4000  -28.0921 H   0  0  0  0  0  0  0  0  0  0  0  0
   -0.6516   21.6366  -30.1275 H   0  0  0  0  0  0  0  0  0  0  0  0
   -2.0005   23.5422  -30.9980 H   0  0  0  0  0  0  0  0  0  0  0  0
   -7.2854   21.6645  -30.8434 H   0  0  0  0  0  0  0  0  0  0  0  0
   -8.5624   22.3315  -31.9279 H   0  0  0  0  0  0  0  0  0  0  0  0
   -8.1529   19.8316  -32.1533 H   0  0  0  0  0  0  0  0  0  0  0  0
   -7.9915   20.7974  -33.6817 H   0  0  0  0  0  0  0  0  0  0  0  0
   -3.9444   18.8963  -34.0075 H   0  0  0  0  0  0  0  0  0  0  0  0
   -3.6370   16.5092  -34.6443 H   0  0  0  0  0  0  0  0  0  0  0  0
  1  2  1  0
  2  3  2  0
  3  4  1  0
  4  5  2  0
  5  6  1  0
  6  7  2  0
  7  8  1  0
  8  9  1  0
  9 10  1  0
 10 11  1  0
 11 12  1  0
 12 13  1  0
 13 14  2  0
 13 15  1  0
 15 16  2  0
 16 17  1  0
 17 18  2  0
 18 19  1  0
 19 20  2  0
  9 21  1  0
 21 22  1  0
  5 23  1  0
 23 24  2  0
 24  2  1  0
 22  6  1  0
 20 15  1  0
  1 25  1  0
  1 26  1  0
  1 27  1  0
  3 28  1  0
  4 29  1  0
  7 30  1  0
  8 31  1  0
  8 32  1  0
  9 33  1  6
 10 34  1  0
 10 35  1  0
 11 36  1  0
 11 37  1  0
 12 38  1  0
 12 39  1  0
 16 40  1  0
 17 41  1  0
 18 42  1  0
 19 43  1  0
 20 44  1  0
 21 45  1  0
 21 46  1  0
 22 47  1  0
 22 48  1  0
 23 49  1  0
 24 50  1  0
M  CHG  1   9   1
M  END
>  <UniqueID>  (18) 
16

>  <SMILES>  (18) 
Cc1ccc(C2=CC[N@H+](CCCC(=O)c3ccccc3)CC2)cc1

>  <Energy>  (18) 
58.3362020489596

>  <Genealogy>  (18) 
Cc1ccc(C2=CC[NH+](CCCC(=O)c3ccccc3)CC2)cc1 (protonated)
Cc1ccc(C2=CC[N@H+](CCCC(=O)c3ccccc3)CC2)cc1 (chirality)
Cc1ccc(C2=CC[N@H+](CCCC(=O)c3ccccc3)CC2)cc1 (3D coordinates assigned)
Cc1ccc(C2=CC[N@H+](CCCC(=O)c3ccccc3)CC2)cc1 (nonaromatic ring conformer: 58.3362020489596 kcal/mol)

>  <smiles>  (18) 
Cc1ccc(C2=CCN(CCCC(=O)c3ccccc3)CC2)cc1

>  <score_type>  (18) 
oracle

>  <origin>  (18) 
adg

>  <m_score__min__energy>  (18) 
-8.6400000000000006

>  <m_primary>  (18) 
energy

$$$$
19:0
     RDKit          3D

 42 44  0  0  0  0  0  0  0  0999 V2000
   -0.5346   25.4099  -27.9055 H   0  0  0  0  0  0  0  0  0  0  0  0
   -1.5940   25.1540  -28.0540 C   0  0  0  0  0  0  0  0  0  0  0  0
   -2.1340   25.1930  -29.3010 N   0  0  0  0  0  0  0  0  0  0  0  0
   -3.4430   24.8850  -29.5300 C   0  0  0  0  0  0  0  0  0  0  0  0
   -3.9410   24.9250  -30.7310 N   0  0  0  0  0  0  0  0  0  0  0  0
   -4.9980   24.0450  -31.2370 C   0  0  0  0  0  0  0  0  0  0  0  0
   -4.8958   23.9370  -32.3269 H   0  0  0  0  0  0  0  0  0  0  0  0
   -6.3820   24.6530  -30.9570 C   0  0  0  0  0  0  0  0  0  0  0  0
   -6.4328   25.6607  -31.3951 H   0  0  0  0  0  0  0  0  0  0  0  0
   -6.5381   24.7113  -29.8697 H   0  0  0  0  0  0  0  0  0  0  0  0
   -7.4770   23.7720  -31.5780 C   0  0  0  0  0  0  0  0  0  0  0  0
   -7.5422   23.9890  -32.6544 H   0  0  0  0  0  0  0  0  0  0  0  0
   -8.4281   23.9981  -31.0737 H   0  0  0  0  0  0  0  0  0  0  0  0
   -7.1880   22.3420  -31.3960 N   0  0  0  0  0  0  0  0  0  0  0  0
   -8.0420   21.3750  -32.0330 C   0  0  0  0  0  0  0  0  0  0  0  0
   -9.2770   21.6060  -32.1220 O   0  0  0  0  0  0  0  0  0  0  0  0
   -7.4830   20.1440  -32.6320 C   0  0  0  0  0  0  0  0  0  0  0  0
   -6.4330   20.0950  -33.5300 C   0  0  0  0  0  0  0  0  0  0  0  0
   -5.8327   20.9334  -33.9131 H   0  0  0  0  0  0  0  0  0  0  0  0
   -6.3090   18.7530  -33.8370 C   0  0  0  0  0  0  0  0  0  0  0  0
   -5.3610   18.1710  -34.8310 C   0  0  0  0  0  0  0  0  0  0  0  0
   -4.5391   17.6664  -34.3020 H   0  0  0  0  0  0  0  0  0  0  0  0
   -5.8923   17.4433  -35.4620 H   0  0  0  0  0  0  0  0  0  0  0  0
   -4.9525   18.9741  -35.4620 H   0  0  0  0  0  0  0  0  0  0  0  0
   -7.2440   18.0390  -33.1820 N   0  0  0  0  0  0  0  0  0  0  0  0
   -7.9470   18.8870  -32.4460 N   0  0  0  0  0  0  0  0  0  0  0  0
   -9.0600   18.4710  -31.5990 C   0  0  0  0  0  0  0  0  0  0  0  0
   -8.7758   18.5772  -30.5417 H   0  0  0  0  0  0  0  0  0  0  0  0
   -9.9361   19.1024  -31.8084 H   0  0  0  0  0  0  0  0  0  0  0  0
   -9.3072   17.4198  -31.8084 H   0  0  0  0  0  0  0  0  0  0  0  0
   -6.2030   21.9200  -30.3910 C   0  0  0  0  0  0  0  0  0  0  0  0
   -6.0385   20.8363  -30.4834 H   0  0  0  0  0  0  0  0  0  0  0  0
   -6.5949   22.1705  -29.3942 H   0  0  0  0  0  0  0  0  0  0  0  0
   -4.8590   22.6500  -30.5830 C   0  0  0  0  0  0  0  0  0  0  0  0
   -4.2146   22.0290  -31.2226 H   0  0  0  0  0  0  0  0  0  0  0  0
   -4.4311   22.8052  -29.5816 H   0  0  0  0  0  0  0  0  0  0  0  0
   -4.2620   24.5130  -28.4570 C   0  0  0  0  0  0  0  0  0  0  0  0
   -5.3186   24.2591  -28.6277 H   0  0  0  0  0  0  0  0  0  0  0  0
   -3.7260   24.4670  -27.1680 C   0  0  0  0  0  0  0  0  0  0  0  0
   -4.3606   24.1774  -26.3175 H   0  0  0  0  0  0  0  0  0  0  0  0
   -2.3840   24.7890  -26.9610 C   0  0  0  0  0  0  0  0  0  0  0  0
   -1.9533   24.7558  -25.9494 H   0  0  0  0  0  0  0  0  0  0  0  0
  1  2  1  0
  2  3  1  0
  3  4  1  0
  4  5  2  0
  5  6  1  0
  6  7  1  0
  6  8  1  0
  8  9  1  0
  8 10  1  0
  8 11  1  0
 11 12  1  0
 11 13  1  0
 11 14  1  0
 14 15  1  0
 15 16  2  0
 15 17  1  0
 17 18  2  0
 18 19  1  0
 18 20  1  0
 20 21  1  0
 21 22  1  0
 21 23  1  0
 21 24  1  0
 20 25  2  0
 25 26  1  0
 26 27  1  0
 27 28  1  0
 27 29  1  0
 27 30  1  0
 14 31  1  0
 31 32  1  0
 31 33  1  0
 31 34  1  0
 34 35  1  0
 34 36  1  0
  4 37  1  0
 37 38  1  0
 37 39  2  0
 39 40  1  0
 39 41  1  0
 41 42  1  0
 41  2  2  0
 34  6  1  0
 26 17  1  0
M  CHG  1   3  -1
M  END
>  <UniqueID>  (19) 
17

>  <SMILES>  (19) 
Cc1cc(C(=O)N2CCC(/N=c3/cccc[n-]3)CC2)n(C)n1

>  <Energy>  (19) 
77.34312355629235

>  <Genealogy>  (19) 
Cc1cc(C(=O)N2CCC(N=c3cccc[n-]3)CC2)n(C)n1 (protonated)
Cc1cc(C(=O)N2CCC(/N=c3/cccc[n-]3)CC2)n(C)n1 (cis-trans isomerization)
Cc1cc(C(=O)N2CCC(/N=c3/cccc[n-]3)CC2)n(C)n1 (3D coordinates assigned)
Cc1cc(C(=O)N2CCC(/N=c3/cccc[n-]3)CC2)n(C)n1 (nonaromatic ring conformer: 77.34312355629235 kcal/mol)

>  <smiles>  (19) 
Cc1cc(C(=O)N2CCC(N=c3cccc[nH]3)CC2)n(C)n1

>  <score_type>  (19) 
oracle

>  <origin>  (19) 
adg

>  <m_score__min__energy>  (19) 
-10.18

>  <m_primary>  (19) 
energy

$$$$
20:0
     RDKit          3D

 54 58  0  0  0  0  0  0  0  0999 V2000
   -1.9570   21.7540  -27.4610 C   0  0  0  0  0  0  0  0  0  0  0  0
   -1.8770   21.4770  -28.9290 C   0  0  0  0  0  0  0  0  0  0  0  0
   -1.3350   20.3460  -29.4380 N   0  0  0  0  0  0  0  0  0  0  0  0
   -1.4860   20.4330  -30.7710 C   0  0  0  0  0  0  0  0  0  0  0  0
   -1.1160   19.4860  -31.7260 C   0  0  0  0  0  0  0  0  0  0  0  0
   -1.4020   19.7650  -33.0750 C   0  0  0  0  0  0  0  0  0  0  0  0
   -2.0520   20.9660  -33.4350 C   0  0  0  0  0  0  0  0  0  0  0  0
   -2.4170   21.9020  -32.4510 C   0  0  0  0  0  0  0  0  0  0  0  0
   -2.1070   21.6060  -31.1230 C   0  0  0  0  0  0  0  0  0  0  0  0
   -2.3390   22.3050  -29.9540 C   0  0  0  0  0  0  0  0  0  0  0  0
   -3.0430   23.5930  -29.8270 C   0  0  0  0  0  0  0  0  0  0  0  0
   -2.3620   24.6380  -29.6480 O   0  0  0  0  0  0  0  0  0  0  0  0
   -4.5530   23.6890  -29.8570 C   0  0  1  0  0  0  0  0  0  0  0  0
   -5.0400   25.1440  -29.7940 C   0  0  0  0  0  0  0  0  0  0  0  0
   -6.5750   25.2020  -29.7130 C   0  0  0  0  0  0  0  0  0  0  0  0
   -7.2560   24.1140  -30.5670 C   0  0  0  0  0  0  0  0  0  0  0  0
   -6.3430   23.6520  -31.6280 N   0  0  0  0  0  0  0  0  0  0  0  0
   -7.0210   22.9110  -32.7180 C   0  0  0  0  0  0  0  0  0  0  0  0
   -7.4780   21.5140  -32.3320 C   0  0  0  0  0  0  0  0  0  0  0  0
   -8.6470   21.3600  -31.5630 C   0  0  0  0  0  0  0  0  0  0  0  0
   -9.1030   20.0910  -31.2000 C   0  0  0  0  0  0  0  0  0  0  0  0
   -8.3940   18.9520  -31.5840 C   0  0  0  0  0  0  0  0  0  0  0  0
   -7.2140   19.0790  -32.3260 C   0  0  0  0  0  0  0  0  0  0  0  0
   -6.4770   17.9480  -32.7040 C   0  0  0  0  0  0  0  0  0  0  0  0
   -5.2940   18.1000  -33.4270 C   0  0  0  0  0  0  0  0  0  0  0  0
   -4.8550   19.3800  -33.7650 C   0  0  0  0  0  0  0  0  0  0  0  0
   -5.5800   20.4690  -33.3970 N   0  0  0  0  0  0  0  0  0  0  0  0
   -6.7450   20.3620  -32.6980 C   0  0  0  0  0  0  0  0  0  0  0  0
   -5.1620   22.9460  -31.0780 C   0  0  0  0  0  0  0  0  0  0  0  0
   -1.6942   20.8442  -26.9013 H   0  0  0  0  0  0  0  0  0  0  0  0
   -1.2549   22.5599  -27.2011 H   0  0  0  0  0  0  0  0  0  0  0  0
   -2.9807   22.0615  -27.2011 H   0  0  0  0  0  0  0  0  0  0  0  0
   -0.9130   19.5540  -28.9050 H   0  0  0  0  0  0  0  0  0  0  0  0
   -0.6164   18.5506  -31.4336 H   0  0  0  0  0  0  0  0  0  0  0  0
   -1.1174   19.0429  -33.8545 H   0  0  0  0  0  0  0  0  0  0  0  0
   -2.2744   21.1708  -34.4927 H   0  0  0  0  0  0  0  0  0  0  0  0
   -2.9302   22.8372  -32.7194 H   0  0  0  0  0  0  0  0  0  0  0  0
   -4.9140   23.1815  -28.9503 H   0  0  0  0  0  0  0  0  0  0  0  0
   -4.6131   25.6292  -28.9039 H   0  0  0  0  0  0  0  0  0  0  0  0
   -4.7147   25.6650  -30.7065 H   0  0  0  0  0  0  0  0  0  0  0  0
   -6.8777   25.0671  -28.6641 H   0  0  0  0  0  0  0  0  0  0  0  0
   -6.8923   26.1797  -30.1047 H   0  0  0  0  0  0  0  0  0  0  0  0
   -7.5253   23.2632  -29.9238 H   0  0  0  0  0  0  0  0  0  0  0  0
   -8.1598   24.5360  -31.0307 H   0  0  0  0  0  0  0  0  0  0  0  0
   -7.9035   23.4885  -33.0305 H   0  0  0  0  0  0  0  0  0  0  0  0
   -6.2828   22.7902  -33.5245 H   0  0  0  0  0  0  0  0  0  0  0  0
   -9.2084   22.2506  -31.2440 H   0  0  0  0  0  0  0  0  0  0  0  0
  -10.0250   19.9888  -30.6089 H   0  0  0  0  0  0  0  0  0  0  0  0
   -8.7625   17.9543  -31.3035 H   0  0  0  0  0  0  0  0  0  0  0  0
   -6.8309   16.9429  -32.4310 H   0  0  0  0  0  0  0  0  0  0  0  0
   -4.7115   17.2169  -33.7284 H   0  0  0  0  0  0  0  0  0  0  0  0
   -3.9202   19.5083  -34.3305 H   0  0  0  0  0  0  0  0  0  0  0  0
   -5.4668   21.9370  -30.7633 H   0  0  0  0  0  0  0  0  0  0  0  0
   -4.3954   22.9039  -31.8657 H   0  0  0  0  0  0  0  0  0  0  0  0
  1  2  1  0
  2  3  1  0
  3  4  1  0
  4  5  2  0
  5  6  1  0
  6  7  2  0
  7  8  1  0
  8  9  2  0
  9 10  1  0
 10 11  1  0
 11 12  2  0
 11 13  1  0
 13 14  1  0
 14 15  1  0
 15 16  1  0
 16 17  1  0
 17 18  1  0
 18 19  1  0
 19 20  2  0
 20 21  1  0
 21 22  2  0
 22 23  1  0
 23 24  2  0
 24 25  1  0
 25 26  2  0
 26 27  1  0
 27 28  2  0
 17 29  1  0
 10  2  2  0
 29 13  1  0
  9  4  1  0
 28 19  1  0
 28 23  1  0
  1 30  1  0
  1 31  1  0
  1 32  1  0
  3 33  1  0
  5 34  1  0
  6 35  1  0
  7 36  1  0
  8 37  1  0
 13 38  1  1
 14 39  1  0
 14 40  1  0
 15 41  1  0
 15 42  1  0
 16 43  1  0
 16 44  1  0
 18 45  1  0
 18 46  1  0
 20 47  1  0
 21 48  1  0
 22 49  1  0
 24 50  1  0
 25 51  1  0
 26 52  1  0
 29 53  1  0
 29 54  1  0
M  END
>  <UniqueID>  (20) 
18

>  <SMILES>  (20) 
Cc1[nH]c2ccccc2c1C(=O)[C@H]1CCCN(Cc2cccc3cccnc23)C1

>  <Energy>  (20) 
111.21553384270567

>  <Genealogy>  (20) 
Cc1[nH]c2ccccc2c1C(=O)[C@H]1CCCN(Cc2cccc3cccnc23)C1 (chirality)
Cc1[nH]c2ccccc2c1C(=O)[C@H]1CCCN(Cc2cccc3cccnc23)C1 (3D coordinates assigned)
Cc1[nH]c2ccccc2c1C(=O)[C@H]1CCCN(Cc2cccc3cccnc23)C1 (nonaromatic ring conformer: 111.21553384270567 kcal/mol)

>  <smiles>  (20) 
Cc1[nH]c2ccccc2c1C(=O)C1CCCN(Cc2cccc3cccnc23)C1

>  <score_type>  (20) 
oracle

>  <origin>  (20) 
adg

>  <m_score__min__energy>  (20) 
-10.41

>  <m_primary>  (20) 
energy

$$$$
21:0
     RDKit          3D

 36 39  0  0  0  0  0  0  0  0999 V2000
   -3.8670   25.5180  -30.8120 O   0  0  0  0  0  0  0  0  0  0  0  0
   -3.7670   24.2320  -30.2900 C   0  0  0  0  0  0  0  0  0  0  0  0
   -4.2720   23.0910  -30.8550 C   0  0  0  0  0  0  0  0  0  0  0  0
   -5.1010   22.5600  -32.2040 S   0  0  0  0  0  0  0  0  0  0  0  0
   -4.9310   20.9260  -31.6770 C   0  0  0  0  0  0  0  0  0  0  0  0
   -5.4520   19.7460  -32.4050 C   0  0  0  0  0  0  0  0  0  0  0  0
   -6.2100   18.7730  -31.7260 C   0  0  0  0  0  0  0  0  0  0  0  0
   -6.7040   17.6570  -32.4060 C   0  0  0  0  0  0  0  0  0  0  0  0
   -6.4500   17.4970  -33.7700 C   0  0  0  0  0  0  0  0  0  0  0  0
   -6.9310   16.4130  -34.4280 F   0  0  0  0  0  0  0  0  0  0  0  0
   -5.6990   18.4540  -34.4560 C   0  0  0  0  0  0  0  0  0  0  0  0
   -5.2020   19.5730  -33.7810 C   0  0  0  0  0  0  0  0  0  0  0  0
   -4.2380   20.8230  -30.5040 N   0  0  0  0  0  0  0  0  0  0  0  0
   -3.9040   22.0630  -30.0900 C   0  0  0  0  0  0  0  0  0  0  0  0
   -3.1660   22.5390  -29.0320 C   0  0  0  0  0  0  0  0  0  0  0  0
   -3.1070   23.9010  -29.1420 N   0  0  0  0  0  0  0  0  0  0  0  0
   -2.3120   24.8210  -28.3090 C   0  0  0  0  0  0  0  0  0  0  0  0
   -2.7690   24.8270  -26.8510 C   0  0  0  0  0  0  0  0  0  0  0  0
   -1.5340   25.1550  -26.0140 C   0  0  0  0  0  0  0  0  0  0  0  0
   -0.3300   25.0750  -26.9490 C   0  0  0  0  0  0  0  0  0  0  0  0
   -0.8350   24.4390  -28.2320 C   0  0  0  0  0  0  0  0  0  0  0  0
   -4.2160   25.6730  -31.7500 H   0  0  0  0  0  0  0  0  0  0  0  0
   -6.4148   18.8924  -30.6519 H   0  0  0  0  0  0  0  0  0  0  0  0
   -7.2945   16.9024  -31.8657 H   0  0  0  0  0  0  0  0  0  0  0  0
   -5.4980   18.3271  -35.5300 H   0  0  0  0  0  0  0  0  0  0  0  0
   -4.6119   20.3233  -34.3277 H   0  0  0  0  0  0  0  0  0  0  0  0
   -2.7051   21.9324  -28.2385 H   0  0  0  0  0  0  0  0  0  0  0  0
   -2.4557   25.7945  -28.8005 H   0  0  0  0  0  0  0  0  0  0  0  0
   -3.5457   25.5909  -26.6988 H   0  0  0  0  0  0  0  0  0  0  0  0
   -3.1995   23.8563  -26.5637 H   0  0  0  0  0  0  0  0  0  0  0  0
   -1.6200   26.1680  -25.5939 H   0  0  0  0  0  0  0  0  0  0  0  0
   -1.4285   24.4509  -25.1755 H   0  0  0  0  0  0  0  0  0  0  0  0
    0.0639   26.0819  -27.1513 H   0  0  0  0  0  0  0  0  0  0  0  0
    0.4865   24.4877  -26.5036 H   0  0  0  0  0  0  0  0  0  0  0  0
   -0.2878   24.8341  -29.1006 H   0  0  0  0  0  0  0  0  0  0  0  0
   -0.6898   23.3486  -28.2372 H   0  0  0  0  0  0  0  0  0  0  0  0
  1  2  1  0
  2  3  2  0
  3  4  1  0
  4  5  1  0
  5  6  1  0
  6  7  2  0
  7  8  1  0
  8  9  2  0
  9 10  1  0
  9 11  1  0
 11 12  2  0
  5 13  2  0
 13 14  1  0
 14 15  2  0
 15 16  1  0
 16 17  1  0
 17 18  1  0
 18 19  1  0
 19 20  1  0
 20 21  1  0
 16  2  1  0
 21 17  1  0
 14  3  1  0
 12  6  1  0
  1 22  1  0
  7 23  1  0
  8 24  1  0
 11 25  1  0
 12 26  1  0
 15 27  1  0
 17 28  1  0
 18 29  1  0
 18 30  1  0
 19 31  1  0
 19 32  1  0
 20 33  1  0
 20 34  1  0
 21 35  1  0
 21 36  1  0
M  END
>  <UniqueID>  (21) 
19

>  <SMILES>  (21) 
Oc1c2sc(-c3ccc(F)cc3)nc2cn1C1CCCC1

>  <Energy>  (21) 
123.89148687559452

>  <Genealogy>  (21) 
Oc1c2sc(-c3ccc(F)cc3)nc2cn1C1CCCC1 (3D coordinates assigned)
Oc1c2sc(-c3ccc(F)cc3)nc2cn1C1CCCC1 (nonaromatic ring conformer: 123.89148687559452 kcal/mol)

>  <smiles>  (21) 
Oc1c2sc(-c3ccc(F)cc3)nc2cn1C1CCCC1

>  <score_type>  (21) 
oracle

>  <origin>  (21) 
adg

>  <m_score__min__energy>  (21) 
-8.3399999999999999

>  <m_primary>  (21) 
energy

$$$$
22:0
     RDKit          3D

 34 36  0  0  0  0  0  0  0  0999 V2000
   -1.9410   25.3070  -29.1500 O   0  0  0  0  0  0  0  0  0  0  0  0
   -3.0850   24.8270  -29.3730 C   0  0  0  0  0  0  0  0  0  0  0  0
   -3.6170   23.7370  -28.4990 C   0  0  0  0  0  0  0  0  0  0  0  0
   -2.8470   22.4680  -28.7330 C   0  0  0  0  0  0  0  0  0  0  0  0
   -2.7890   21.4800  -27.7350 C   0  0  0  0  0  0  0  0  0  0  0  0
   -2.0450   20.3140  -27.9410 C   0  0  0  0  0  0  0  0  0  0  0  0
   -1.3480   20.1300  -29.1380 C   0  0  0  0  0  0  0  0  0  0  0  0
   -1.3900   21.1130  -30.1310 C   0  0  0  0  0  0  0  0  0  0  0  0
   -2.1330   22.2810  -29.9280 C   0  0  0  0  0  0  0  0  0  0  0  0
   -3.8600   25.2840  -30.4860 N   0  0  0  0  0  0  0  0  0  0  0  0
   -5.3180   25.3130  -30.4970 C   0  0  0  0  0  0  0  0  0  0  0  0
   -5.8600   24.0620  -31.1310 C   0  0  0  0  0  0  0  0  0  0  0  0
   -7.2560   23.8050  -31.1370 C   0  0  0  0  0  0  0  0  0  0  0  0
   -7.7610   22.6240  -31.7100 C   0  0  0  0  0  0  0  0  0  0  0  0
   -6.8510   21.7270  -32.2610 C   0  0  0  0  0  0  0  0  0  0  0  0
   -5.5150   21.9640  -32.2540 C   0  0  0  0  0  0  0  0  0  0  0  0
   -4.9730   23.1200  -31.6980 C   0  0  0  0  0  0  0  0  0  0  0  0
   -4.8570   20.9120  -32.8610 O   0  0  0  0  0  0  0  0  0  0  0  0
   -5.8420   19.9540  -33.2740 C   0  0  0  0  0  0  0  0  0  0  0  0
   -7.1010   20.5140  -32.8720 O   0  0  0  0  0  0  0  0  0  0  0  0
   -3.5173   24.0343  -27.4446 H   0  0  0  0  0  0  0  0  0  0  0  0
   -4.6765   23.5659  -28.7401 H   0  0  0  0  0  0  0  0  0  0  0  0
   -3.3307   21.6245  -26.7886 H   0  0  0  0  0  0  0  0  0  0  0  0
   -2.0084   19.5406  -27.1597 H   0  0  0  0  0  0  0  0  0  0  0  0
   -0.7657   19.2108  -29.2991 H   0  0  0  0  0  0  0  0  0  0  0  0
   -0.8389   20.9682  -31.0719 H   0  0  0  0  0  0  0  0  0  0  0  0
   -2.1581   23.0564  -30.7078 H   0  0  0  0  0  0  0  0  0  0  0  0
   -5.6873   25.3853  -29.4634 H   0  0  0  0  0  0  0  0  0  0  0  0
   -5.6542   26.1837  -31.0791 H   0  0  0  0  0  0  0  0  0  0  0  0
   -7.9476   24.5345  -30.6904 H   0  0  0  0  0  0  0  0  0  0  0  0
   -8.8411   22.4160  -31.7222 H   0  0  0  0  0  0  0  0  0  0  0  0
   -3.8869   23.2944  -31.7002 H   0  0  0  0  0  0  0  0  0  0  0  0
   -5.8119   19.8152  -34.3648 H   0  0  0  0  0  0  0  0  0  0  0  0
   -5.6687   18.9652  -32.8243 H   0  0  0  0  0  0  0  0  0  0  0  0
  1  2  2  0
  2  3  1  0
  3  4  1  0
  4  5  2  0
  5  6  1  0
  6  7  2  0
  7  8  1  0
  8  9  2  0
  2 10  1  0
 10 11  1  0
 11 12  1  0
 12 13  2  0
 13 14  1  0
 14 15  2  0
 15 16  1  0
 16 17  2  0
 16 18  1  0
 18 19  1  0
 19 20  1  0
  9  4  1  0
 17 12  1  0
 20 15  1  0
  3 21  1  0
  3 22  1  0
  5 23  1  0
  6 24  1  0
  7 25  1  0
  8 26  1  0
  9 27  1  0
 11 28  1  0
 11 29  1  0
 13 30  1  0
 14 31  1  0
 17 32  1  0
 19 33  1  0
 19 34  1  0
M  CHG  1  10  -1
M  END
>  <UniqueID>  (22) 
20

>  <SMILES>  (22) 
O=C(Cc1ccccc1)[N-]Cc1ccc2c(c1)OCO2

>  <Energy>  (22) 
59.36290912075

>  <Genealogy>  (22) 
O=C(Cc1ccccc1)[N-]Cc1ccc2c(c1)OCO2 (protonated)
O=C(Cc1ccccc1)[N-]Cc1ccc2c(c1)OCO2 (3D coordinates assigned)
O=C(Cc1ccccc1)[N-]Cc1ccc2c(c1)OCO2 (nonaromatic ring conformer: 59.36290912075 kcal/mol)

>  <smiles>  (22) 
O=C(Cc1ccccc1)NCc1ccc2c(c1)OCO2

>  <score_type>  (22) 
oracle

>  <origin>  (22) 
adg

>  <m_score__min__energy>  (22) 
-8.4800000000000004

>  <m_primary>  (22) 
energy

$$$$
23:0
     RDKit          3D

 30 30  0  0  0  0  0  0  0  0999 V2000
   -7.2340   17.3830  -32.7830 C   0  0  0  0  0  0  0  0  0  0  0  0
   -8.1880   18.3860  -32.4490 O   0  0  0  0  0  0  0  0  0  0  0  0
   -7.8770   19.7400  -32.2460 C   0  0  0  0  0  0  0  0  0  0  0  0
   -6.5820   20.1770  -32.5490 C   0  0  0  0  0  0  0  0  0  0  0  0
   -6.2230   21.5150  -32.3630 C   0  0  0  0  0  0  0  0  0  0  0  0
   -7.1560   22.4380  -31.8630 C   0  0  0  0  0  0  0  0  0  0  0  0
   -6.7670   23.8870  -31.6580 C   0  0  0  0  0  0  0  0  0  0  0  0
   -5.9050   24.1590  -30.3860 C   0  0  0  0  0  0  0  0  0  0  0  0
   -6.3480   25.4790  -29.7160 C   0  0  0  0  0  0  0  0  0  0  0  0
   -6.0400   23.0070  -29.3730 C   0  0  0  0  0  0  0  0  0  0  0  0
   -4.4870   24.2630  -30.7780 N   0  0  0  0  0  0  0  0  0  0  0  0
   -3.8730   25.3400  -30.6240 O   0  0  0  0  0  0  0  0  0  0  0  0
   -3.9190   23.3040  -31.5860 O   0  0  0  0  0  0  0  0  0  0  0  0
   -8.4580   22.0020  -31.5670 C   0  0  0  0  0  0  0  0  0  0  0  0
   -8.8160   20.6640  -31.7530 C   0  0  0  0  0  0  0  0  0  0  0  0
   -6.8207   16.9485  -31.8608 H   0  0  0  0  0  0  0  0  0  0  0  0
   -7.7230   16.5939  -33.3731 H   0  0  0  0  0  0  0  0  0  0  0  0
   -6.4214   17.8318  -33.3731 H   0  0  0  0  0  0  0  0  0  0  0  0
   -5.8413   19.4619  -32.9364 H   0  0  0  0  0  0  0  0  0  0  0  0
   -5.2037   21.8470  -32.6097 H   0  0  0  0  0  0  0  0  0  0  0  0
   -6.1929   24.2149  -32.5371 H   0  0  0  0  0  0  0  0  0  0  0  0
   -7.7059   24.4435  -31.5208 H   0  0  0  0  0  0  0  0  0  0  0  0
   -6.3100   25.3659  -28.6225 H   0  0  0  0  0  0  0  0  0  0  0  0
   -5.6732   26.2912  -30.0243 H   0  0  0  0  0  0  0  0  0  0  0  0
   -7.3761   25.7196  -30.0243 H   0  0  0  0  0  0  0  0  0  0  0  0
   -5.9927   23.4103  -28.3507 H   0  0  0  0  0  0  0  0  0  0  0  0
   -7.0039   22.4985  -29.5224 H   0  0  0  0  0  0  0  0  0  0  0  0
   -5.2198   22.2894  -29.5224 H   0  0  0  0  0  0  0  0  0  0  0  0
   -9.2008   22.7185  -31.1863 H   0  0  0  0  0  0  0  0  0  0  0  0
   -9.8368   20.3319  -31.5128 H   0  0  0  0  0  0  0  0  0  0  0  0
  1  2  1  0
  2  3  1  0
  3  4  2  0
  4  5  1  0
  5  6  2  0
  6  7  1  0
  7  8  1  0
  8  9  1  0
  8 10  1  0
  8 11  1  0
 11 12  2  0
 11 13  1  0
  6 14  1  0
 14 15  2  0
 15  3  1  0
  1 16  1  0
  1 17  1  0
  1 18  1  0
  4 19  1  0
  5 20  1  0
  7 21  1  0
  7 22  1  0
  9 23  1  0
  9 24  1  0
  9 25  1  0
 10 26  1  0
 10 27  1  0
 10 28  1  0
 14 29  1  0
 15 30  1  0
M  CHG  2  11   1  13  -1
M  END
>  <UniqueID>  (23) 
21

>  <SMILES>  (23) 
COc1ccc(CC(C)(C)[N+](=O)[O-])cc1

>  <Energy>  (23) 
25.835386709052454

>  <Genealogy>  (23) 
COc1ccc(CC(C)(C)[N+](=O)[O-])cc1 (3D coordinates assigned)
COc1ccc(CC(C)(C)[N+](=O)[O-])cc1 (optimized conformer: 25.835386709052454 kcal/mol)

>  <smiles>  (23) 
COc1ccc(CC(C)(C)[N+](=O)[O-])cc1

>  <score_type>  (23) 
oracle

>  <origin>  (23) 
adg

>  <m_score__min__energy>  (23) 
-7.0700000000000003

>  <m_primary>  (23) 
energy

$$$$
24:0
     RDKit          3D

 45 47  0  0  0  0  0  0  0  0999 V2000
   -0.8560   22.2060  -26.0530 C   0  0  0  0  0  0  0  0  0  0  0  0
   -0.2400   23.4170  -26.4790 O   0  0  0  0  0  0  0  0  0  0  0  0
   -0.3980   24.6610  -25.8450 C   0  0  0  0  0  0  0  0  0  0  0  0
    0.4630   25.0790  -24.8100 C   0  0  0  0  0  0  0  0  0  0  0  0
    0.2480   26.2960  -24.1610 C   0  0  0  0  0  0  0  0  0  0  0  0
   -0.8260   27.1070  -24.5290 C   0  0  0  0  0  0  0  0  0  0  0  0
   -1.6810   26.7080  -25.5580 C   0  0  0  0  0  0  0  0  0  0  0  0
   -1.4620   25.5020  -26.2400 C   0  0  0  0  0  0  0  0  0  0  0  0
   -2.3660   25.1230  -27.2880 N   0  0  0  0  0  0  0  0  0  0  0  0
   -1.9300   24.6940  -28.5880 C   0  0  0  0  0  0  0  0  0  0  0  0
   -0.7390   24.8980  -28.9520 O   0  0  0  0  0  0  0  0  0  0  0  0
   -2.9270   24.1030  -29.5610 C   0  0  1  0  0  0  0  0  0  0  0  0
   -3.5170   25.1260  -30.4270 N   0  0  0  0  0  0  0  0  0  0  0  0
   -4.9200   25.3910  -30.5850 C   0  0  0  0  0  0  0  0  0  0  0  0
   -5.3600   26.5670  -30.4740 O   0  0  0  0  0  0  0  0  0  0  0  0
   -5.8580   24.2900  -30.8650 C   0  0  0  0  0  0  0  0  0  0  0  0
   -6.6530   23.7300  -29.8510 C   0  0  0  0  0  0  0  0  0  0  0  0
   -7.5280   22.6880  -30.1610 C   0  0  0  0  0  0  0  0  0  0  0  0
   -7.6050   22.2090  -31.4700 C   0  0  0  0  0  0  0  0  0  0  0  0
   -6.8000   22.7860  -32.4550 C   0  0  0  0  0  0  0  0  0  0  0  0
   -5.9540   23.8020  -32.1340 N   0  0  0  0  0  0  0  0  0  0  0  0
   -2.3660   22.9670  -30.3970 C   0  0  0  0  0  0  0  0  0  0  0  0
   -3.1060   22.4970  -31.4980 C   0  0  0  0  0  0  0  0  0  0  0  0
   -2.6020   21.4770  -32.3100 C   0  0  0  0  0  0  0  0  0  0  0  0
   -1.3500   20.9210  -32.0420 C   0  0  0  0  0  0  0  0  0  0  0  0
   -0.5960   21.3880  -30.9630 C   0  0  0  0  0  0  0  0  0  0  0  0
   -1.0940   22.4090  -30.1480 C   0  0  0  0  0  0  0  0  0  0  0  0
   -0.8739   22.1707  -24.9537 H   0  0  0  0  0  0  0  0  0  0  0  0
   -1.8855   22.1631  -26.4381 H   0  0  0  0  0  0  0  0  0  0  0  0
   -0.2844   21.3487  -26.4381 H   0  0  0  0  0  0  0  0  0  0  0  0
    1.3092   24.4424  -24.5121 H   0  0  0  0  0  0  0  0  0  0  0  0
    0.9272   26.6165  -23.3573 H   0  0  0  0  0  0  0  0  0  0  0  0
   -0.9990   28.0605  -24.0085 H   0  0  0  0  0  0  0  0  0  0  0  0
   -2.5337   27.3448  -25.8363 H   0  0  0  0  0  0  0  0  0  0  0  0
   -3.3890   25.2840  -27.1420 H   0  0  0  0  0  0  0  0  0  0  0  0
   -3.7181   23.6721  -28.9298 H   0  0  0  0  0  0  0  0  0  0  0  0
   -6.5863   24.1099  -28.8208 H   0  0  0  0  0  0  0  0  0  0  0  0
   -8.1565   22.2445  -29.3746 H   0  0  0  0  0  0  0  0  0  0  0  0
   -8.2912   21.3872  -31.7227 H   0  0  0  0  0  0  0  0  0  0  0  0
   -6.8501   22.4188  -33.4907 H   0  0  0  0  0  0  0  0  0  0  0  0
   -4.0895   22.9361  -31.7214 H   0  0  0  0  0  0  0  0  0  0  0  0
   -3.1935   21.1115  -33.1624 H   0  0  0  0  0  0  0  0  0  0  0  0
   -0.9575   20.1156  -32.6802 H   0  0  0  0  0  0  0  0  0  0  0  0
    0.3918   20.9515  -30.7540 H   0  0  0  0  0  0  0  0  0  0  0  0
   -0.4901   22.7799  -29.3068 H   0  0  0  0  0  0  0  0  0  0  0  0
  1  2  1  0
  2  3  1  0
  3  4  2  0
  4  5  1  0
  5  6  2  0
  6  7  1  0
  7  8  2  0
  8  9  1  0
  9 10  1  0
 10 11  2  0
 10 12  1  0
 12 13  1  0
 13 14  1  0
 14 15  2  0
 14 16  1  0
 16 17  2  0
 17 18  1  0
 18 19  2  0
 19 20  1  0
 20 21  2  0
 12 22  1  0
 22 23  2  0
 23 24  1  0
 24 25  2  0
 25 26  1  0
 26 27  2  0
  8  3  1  0
 21 16  1  0
 27 22  1  0
  1 28  1  0
  1 29  1  0
  1 30  1  0
  4 31  1  0
  5 32  1  0
  6 33  1  0
  7 34  1  0
  9 35  1  0
 12 36  1  1
 17 37  1  0
 18 38  1  0
 19 39  1  0
 20 40  1  0
 23 41  1  0
 24 42  1  0
 25 43  1  0
 26 44  1  0
 27 45  1  0
M  CHG  1  13  -1
M  END
>  <UniqueID>  (24) 
22

>  <SMILES>  (24) 
COc1ccccc1NC(=O)[C@@H]([N-]C(=O)c1ccccn1)c1ccccc1

>  <Energy>  (24) 
52.78953121140831

>  <Genealogy>  (24) 
COc1ccccc1NC(=O)C([N-]C(=O)c1ccccn1)c1ccccc1 (protonated)
COc1ccccc1NC(=O)[C@@H]([N-]C(=O)c1ccccn1)c1ccccc1 (chirality)
COc1ccccc1NC(=O)[C@@H]([N-]C(=O)c1ccccn1)c1ccccc1 (3D coordinates assigned)
COc1ccccc1NC(=O)[C@@H]([N-]C(=O)c1ccccn1)c1ccccc1 (optimized conformer: 52.78953121140831 kcal/mol)

>  <smiles>  (24) 
COc1ccccc1NC(=O)C(NC(=O)c1ccccn1)c1ccccc1

>  <score_type>  (24) 
oracle

>  <origin>  (24) 
adg

>  <m_score__min__energy>  (24) 
-10.07

>  <m_primary>  (24) 
energy

$$$$
25:0
     RDKit          3D

 23 24  0  0  0  0  0  0  0  0999 V2000
   -3.8750   25.6390  -30.8300 O   0  0  0  0  0  0  0  0  0  0  0  0
   -3.7430   24.4630  -30.4000 C   0  0  0  0  0  0  0  0  0  0  0  0
   -4.1760   23.3980  -31.1810 O   0  0  0  0  0  0  0  0  0  0  0  0
   -3.1380   24.2130  -29.0840 C   0  0  0  0  0  0  0  0  0  0  0  0
   -3.4230   23.1540  -28.2430 C   0  0  0  0  0  0  0  0  0  0  0  0
   -2.6180   23.3100  -27.1290 C   0  0  0  0  0  0  0  0  0  0  0  0
   -1.8590   24.4220  -27.2510 N   0  0  0  0  0  0  0  0  0  0  0  0
   -0.9000   24.9050  -26.2900 C   0  0  0  0  0  0  0  0  0  0  0  0
    0.4430   24.4940  -26.3610 C   0  0  0  0  0  0  0  0  0  0  0  0
    1.3750   24.9560  -25.4270 C   0  0  0  0  0  0  0  0  0  0  0  0
    0.9760   25.8290  -24.4070 C   0  0  0  0  0  0  0  0  0  0  0  0
    1.8960   26.2950  -23.4710 O   0  0  0  0  0  0  0  0  0  0  0  0
   -0.3590   26.2340  -24.3250 C   0  0  0  0  0  0  0  0  0  0  0  0
   -1.2940   25.7750  -25.2580 C   0  0  0  0  0  0  0  0  0  0  0  0
   -2.1720   24.9680  -28.4450 C   0  0  0  0  0  0  0  0  0  0  0  0
   -1.5730   26.1080  -28.9680 O   0  0  0  0  0  0  0  0  0  0  0  0
   -4.1473   22.3462  -28.4239 H   0  0  0  0  0  0  0  0  0  0  0  0
   -2.5983   22.6269  -26.2671 H   0  0  0  0  0  0  0  0  0  0  0  0
    0.7622   23.8046  -27.1565 H   0  0  0  0  0  0  0  0  0  0  0  0
    2.4244   24.6330  -25.4933 H   0  0  0  0  0  0  0  0  0  0  0  0
    1.7980   26.0880  -22.4850 H   0  0  0  0  0  0  0  0  0  0  0  0
   -0.6757   26.9169  -23.5229 H   0  0  0  0  0  0  0  0  0  0  0  0
   -2.3434   26.0963  -25.1842 H   0  0  0  0  0  0  0  0  0  0  0  0
  1  2  2  0
  2  3  1  0
  2  4  1  0
  4  5  1  0
  5  6  2  0
  6  7  1  0
  7  8  1  0
  8  9  2  0
  9 10  1  0
 10 11  2  0
 11 12  1  0
 11 13  1  0
 13 14  2  0
  7 15  1  0
 15 16  1  0
 15  4  2  0
 14  8  1  0
  5 17  1  0
  6 18  1  0
  9 19  1  0
 10 20  1  0
 12 21  1  0
 13 22  1  0
 14 23  1  0
M  CHG  2   3  -1  16  -1
M  END
>  <UniqueID>  (25) 
23

>  <SMILES>  (25) 
O=C([O-])c1ccn(-c2ccc(O)cc2)c1[O-]

>  <Energy>  (25) 
55.05586142102029

>  <Genealogy>  (25) 
O=C([O-])c1ccn(-c2ccc(O)cc2)c1[O-] (protonated)
O=C([O-])c1ccn(-c2ccc(O)cc2)c1[O-] (3D coordinates assigned)
O=C([O-])c1ccn(-c2ccc(O)cc2)c1[O-] (optimized conformer: 55.05586142102029 kcal/mol)

>  <smiles>  (25) 
O=C(O)c1ccn(-c2ccc(O)cc2)c1O

>  <score_type>  (25) 
oracle

>  <origin>  (25) 
adg

>  <m_score__min__energy>  (25) 
-10.48

>  <m_primary>  (25) 
energy

$$$$
26:0
     RDKit          3D

 54 56  0  0  0  0  0  0  0  0999 V2000
   -7.0782   23.0837  -29.1379 H   0  0  0  0  0  0  0  0  0  0  0  0
   -7.1540   23.1810  -30.2310 C   0  0  0  0  0  0  0  0  0  0  0  0
   -6.6770   24.2930  -30.8010 C   0  0  0  0  0  0  0  0  0  0  0  0
   -7.0967   24.6323  -31.7595 H   0  0  0  0  0  0  0  0  0  0  0  0
   -5.3910   25.2210  -30.0440 S   0  0  0  0  0  0  0  0  0  0  0  0
   -5.2800   24.8150  -28.5990 O   0  0  0  0  0  0  0  0  0  0  0  0
   -5.7670   26.6770  -30.0990 O   0  0  0  0  0  0  0  0  0  0  0  0
   -3.8410   25.0140  -30.8180 N   0  0  0  0  0  0  0  0  0  0  0  0
   -3.1160   23.8410  -30.3230 C   0  0  0  0  0  0  0  0  0  0  0  0
   -3.4015   23.6633  -29.2757 H   0  0  0  0  0  0  0  0  0  0  0  0
   -2.0389   24.0450  -30.4136 H   0  0  0  0  0  0  0  0  0  0  0  0
   -3.4240   22.6030  -31.1280 C   0  0  0  0  0  0  0  0  0  0  0  0
   -2.8210   21.3830  -30.8040 C   0  0  0  0  0  0  0  0  0  0  0  0
   -2.1306   21.3259  -29.9495 H   0  0  0  0  0  0  0  0  0  0  0  0
   -3.0880   20.2370  -31.5560 C   0  0  0  0  0  0  0  0  0  0  0  0
   -2.6077   19.2864  -31.2811 H   0  0  0  0  0  0  0  0  0  0  0  0
   -3.9660   20.2770  -32.6660 C   0  0  0  0  0  0  0  0  0  0  0  0
   -4.2460   19.0750  -33.4530 N   0  0  0  0  0  0  0  0  0  0  0  0
   -3.2550   17.9760  -33.4610 C   0  0  0  0  0  0  0  0  0  0  0  0
   -3.1584   17.5963  -32.4331 H   0  0  0  0  0  0  0  0  0  0  0  0
   -2.3233   18.4056  -33.8578 H   0  0  0  0  0  0  0  0  0  0  0  0
   -3.6050   16.7910  -34.3760 C   0  0  0  0  0  0  0  0  0  0  0  0
   -3.0864   15.8955  -34.0030 H   0  0  0  0  0  0  0  0  0  0  0  0
   -3.2858   17.0573  -35.3944 H   0  0  0  0  0  0  0  0  0  0  0  0
   -5.0480   16.5090  -34.4280 N   0  0  0  0  0  0  0  0  0  0  0  0
   -5.1780   15.7260  -35.1130 H   0  0  0  0  0  0  0  0  0  0  0  0
   -5.5730   16.0530  -33.1150 C   0  0  0  0  0  0  0  0  0  0  0  0
   -6.5740   15.6227  -33.2663 H   0  0  0  0  0  0  0  0  0  0  0  0
   -5.6029   16.9266  -32.4472 H   0  0  0  0  0  0  0  0  0  0  0  0
   -4.6790   14.9960  -32.4560 C   0  0  0  0  0  0  0  0  0  0  0  0
   -4.7531   15.0836  -31.3620 H   0  0  0  0  0  0  0  0  0  0  0  0
   -5.0070   13.9930  -32.7666 H   0  0  0  0  0  0  0  0  0  0  0  0
   -3.6355   15.1531  -32.7666 H   0  0  0  0  0  0  0  0  0  0  0  0
   -5.7330   17.6910  -34.9750 C   0  0  0  0  0  0  0  0  0  0  0  0
   -6.8052   17.4633  -35.0671 H   0  0  0  0  0  0  0  0  0  0  0  0
   -5.2752   17.9146  -35.9499 H   0  0  0  0  0  0  0  0  0  0  0  0
   -5.5720   18.9380  -34.0960 C   0  0  0  0  0  0  0  0  0  0  0  0
   -6.3344   18.8996  -33.3040 H   0  0  0  0  0  0  0  0  0  0  0  0
   -5.6844   19.8050  -34.7636 H   0  0  0  0  0  0  0  0  0  0  0  0
   -4.5500   21.5250  -32.9910 C   0  0  0  0  0  0  0  0  0  0  0  0
   -5.2285   21.5962  -33.8539 H   0  0  0  0  0  0  0  0  0  0  0  0
   -4.2790   22.6680  -32.2340 C   0  0  0  0  0  0  0  0  0  0  0  0
   -4.7417   23.6271  -32.5099 H   0  0  0  0  0  0  0  0  0  0  0  0
   -7.7800   22.0710  -30.9920 C   0  0  0  0  0  0  0  0  0  0  0  0
   -9.0630   22.2670  -31.5340 C   0  0  0  0  0  0  0  0  0  0  0  0
   -9.5735   23.2313  -31.3946 H   0  0  0  0  0  0  0  0  0  0  0  0
   -9.6940   21.2440  -32.2490 C   0  0  0  0  0  0  0  0  0  0  0  0
  -10.7012   21.4032  -32.6617 H   0  0  0  0  0  0  0  0  0  0  0  0
   -9.0480   20.0210  -32.4400 C   0  0  0  0  0  0  0  0  0  0  0  0
   -9.5489   19.2157  -32.9973 H   0  0  0  0  0  0  0  0  0  0  0  0
   -7.7670   19.8200  -31.9240 C   0  0  0  0  0  0  0  0  0  0  0  0
   -7.2570   18.8581  -32.0809 H   0  0  0  0  0  0  0  0  0  0  0  0
   -7.1310   20.8370  -31.2090 C   0  0  0  0  0  0  0  0  0  0  0  0
   -6.1178   20.6751  -30.8125 H   0  0  0  0  0  0  0  0  0  0  0  0
  1  2  1  0
  2  3  2  0
  3  4  1  0
  3  5  1  0
  5  6  2  0
  5  7  2  0
  5  8  1  0
  8  9  1  0
  9 10  1  0
  9 11  1  0
  9 12  1  0
 12 13  2  0
 13 14  1  0
 13 15  1  0
 15 16  1  0
 15 17  2  0
 17 18  1  0
 18 19  1  0
 19 20  1  0
 19 21  1  0
 19 22  1  0
 22 23  1  0
 22 24  1  0
 22 25  1  0
 25 26  1  0
 25 27  1  0
 27 28  1  0
 27 29  1  0
 27 30  1  0
 30 31  1  0
 30 32  1  0
 30 33  1  0
 25 34  1  0
 34 35  1  0
 34 36  1  0
 34 37  1  0
 37 38  1  0
 37 39  1  0
 17 40  1  0
 40 41  1  0
 40 42  2  0
 42 43  1  0
  2 44  1  0
 44 45  2  0
 45 46  1  0
 45 47  1  0
 47 48  1  0
 47 49  2  0
 49 50  1  0
 49 51  1  0
 51 52  1  0
 51 53  2  0
 53 54  1  0
 42 12  1  0
 53 44  1  0
 37 18  1  0
M  CHG  2   8  -1  25   1
M  END
>  <UniqueID>  (26) 
24

>  <SMILES>  (26) 
CC[NH+]1CCN(c2ccc(C[N-]S(=O)(=O)/C=C/c3ccccc3)cc2)CC1

>  <Energy>  (26) 
66.36996484946994

>  <Genealogy>  (26) 
CC[NH+]1CCN(c2ccc(C[N-]S(=O)(=O)C=Cc3ccccc3)cc2)CC1 (protonated)
CC[NH+]1CCN(c2ccc(C[N-]S(=O)(=O)/C=C/c3ccccc3)cc2)CC1 (cis-trans isomerization)
CC[NH+]1CCN(c2ccc(C[N-]S(=O)(=O)/C=C/c3ccccc3)cc2)CC1 (3D coordinates assigned)
CC[NH+]1CCN(c2ccc(C[N-]S(=O)(=O)/C=C/c3ccccc3)cc2)CC1 (nonaromatic ring conformer: 66.36996484946994 kcal/mol)

>  <smiles>  (26) 
CCN1CCN(c2ccc(CNS(=O)(=O)C=Cc3ccccc3)cc2)CC1

>  <score_type>  (26) 
oracle

>  <origin>  (26) 
adg

>  <m_score__min__energy>  (26) 
-11.050000000000001

>  <m_primary>  (26) 
energy

$$$$
27:0
     RDKit          3D

 36 38  0  0  0  0  0  0  0  0999 V2000
   -1.4230   22.6120  -29.4800 H   0  0  0  0  0  0  0  0  0  0  0  0
   -1.5440   21.9100  -30.2410 N   0  0  0  0  0  0  0  0  0  0  0  0
   -2.5570   21.8660  -31.0510 C   0  0  0  0  0  0  0  0  0  0  0  0
   -3.5650   22.8770  -31.1080 C   0  0  0  0  0  0  0  0  0  0  0  0
   -3.4760   24.1440  -30.3480 C   0  0  0  0  0  0  0  0  0  0  0  0
   -2.8740   24.1630  -29.2390 O   0  0  0  0  0  0  0  0  0  0  0  0
   -4.1090   25.2960  -30.8230 O   0  0  0  0  0  0  0  0  0  0  0  0
   -5.4390   25.6460  -30.4620 C   0  0  0  0  0  0  0  0  0  0  0  0
   -5.5273   25.6692  -29.3658 H   0  0  0  0  0  0  0  0  0  0  0  0
   -5.6807   26.6383  -30.8705 H   0  0  0  0  0  0  0  0  0  0  0  0
   -6.1379   24.9012  -30.8705 H   0  0  0  0  0  0  0  0  0  0  0  0
   -4.6890   22.6760  -31.9570 C   0  0  0  0  0  0  0  0  0  0  0  0
   -5.4841   23.4354  -31.9898 H   0  0  0  0  0  0  0  0  0  0  0  0
   -4.7980   21.5550  -32.7330 N   0  0  0  0  0  0  0  0  0  0  0  0
   -5.6250   21.4350  -33.3590 H   0  0  0  0  0  0  0  0  0  0  0  0
   -3.8130   20.6250  -32.6830 C   0  0  0  0  0  0  0  0  0  0  0  0
   -2.7240   20.7590  -31.8810 C   0  0  0  0  0  0  0  0  0  0  0  0
   -1.9820   19.6120  -32.0810 C   0  0  0  0  0  0  0  0  0  0  0  0
   -1.0270   19.3697  -31.5919 H   0  0  0  0  0  0  0  0  0  0  0  0
   -2.6310   18.8350  -32.9830 N   0  0  0  0  0  0  0  0  0  0  0  0
   -3.7400   19.4660  -33.3600 N   0  0  0  0  0  0  0  0  0  0  0  0
   -4.7400   18.9170  -34.2330 C   0  0  0  0  0  0  0  0  0  0  0  0
   -4.6348   19.0847  -35.3150 H   0  0  0  0  0  0  0  0  0  0  0  0
   -5.7950   18.2110  -33.8000 C   0  0  0  0  0  0  0  0  0  0  0  0
   -5.8336   17.1430  -34.0604 H   0  0  0  0  0  0  0  0  0  0  0  0
   -6.9100   18.7600  -32.9990 C   0  0  0  0  0  0  0  0  0  0  0  0
   -7.5740   17.9780  -32.0360 C   0  0  0  0  0  0  0  0  0  0  0  0
   -7.2440   16.9461  -31.8457 H   0  0  0  0  0  0  0  0  0  0  0  0
   -8.6520   18.5080  -31.3200 C   0  0  0  0  0  0  0  0  0  0  0  0
   -9.1556   17.8994  -30.5545 H   0  0  0  0  0  0  0  0  0  0  0  0
   -9.0900   19.8100  -31.5760 C   0  0  0  0  0  0  0  0  0  0  0  0
   -9.9346   20.2279  -31.0085 H   0  0  0  0  0  0  0  0  0  0  0  0
   -8.4550   20.5810  -32.5530 C   0  0  0  0  0  0  0  0  0  0  0  0
   -8.8045   21.6036  -32.7585 H   0  0  0  0  0  0  0  0  0  0  0  0
   -7.3760   20.0550  -33.2700 C   0  0  0  0  0  0  0  0  0  0  0  0
   -6.8903   20.6595  -34.0502 H   0  0  0  0  0  0  0  0  0  0  0  0
  1  2  1  0
  2  3  2  0
  3  4  1  0
  4  5  1  0
  5  6  2  0
  5  7  1  0
  7  8  1  0
  8  9  1  0
  8 10  1  0
  8 11  1  0
  4 12  2  0
 12 13  1  0
 12 14  1  0
 14 15  1  0
 14 16  1  0
 16 17  2  0
 17 18  1  0
 18 19  1  0
 18 20  2  0
 20 21  1  0
 21 22  1  0
 22 23  1  0
 22 24  2  3
 24 25  1  0
 24 26  1  0
 26 27  2  0
 27 28  1  0
 27 29  1  0
 29 30  1  0
 29 31  2  0
 31 32  1  0
 31 33  1  0
 33 34  1  0
 33 35  2  0
 35 36  1  0
 17  3  1  0
 35 26  1  0
 21 16  1  0
M  END
>  <UniqueID>  (27) 
25

>  <SMILES>  (27) 
[H]/N=c1\c(C(=O)OC)c[nH]c2c1cnn2C=Cc1ccccc1

>  <Energy>  (27) 
91.38969314343164

>  <Genealogy>  (27) 
[H]/N=c1\c(C(=O)OC)c[nH]c2c1cnn2C=Cc1ccccc1 (cis-trans isomerization)
[H]/N=c1\c(C(=O)OC)c[nH]c2c1cnn2C=Cc1ccccc1 (3D coordinates assigned)
[H]/N=c1\c(C(=O)OC)c[nH]c2c1cnn2C=Cc1ccccc1 (optimized conformer: 91.38969314343164 kcal/mol)

>  <smiles>  (27) 
COC(=O)c1c[nH]c2c(cnn2C=Cc2ccccc2)c1=N

>  <score_type>  (27) 
oracle

>  <origin>  (27) 
adg

>  <m_score__min__energy>  (27) 
-7.8399999999999999

>  <m_primary>  (27) 
energy

$$$$
28:0
     RDKit          3D

 43 45  0  0  0  0  0  0  0  0999 V2000
   -5.0070   26.7414  -30.3962 H   0  0  0  0  0  0  0  0  0  0  0  0
   -4.9610   25.6510  -30.5340 C   0  0  0  0  0  0  0  0  0  0  0  0
   -3.7680   25.0100  -30.4500 N   0  0  0  0  0  0  0  0  0  0  0  0
   -3.6640   23.6680  -30.6220 C   0  0  0  0  0  0  0  0  0  0  0  0
   -2.4090   23.0530  -30.5240 C   0  0  0  0  0  0  0  0  0  0  0  0
   -1.5165   23.6591  -30.3094 H   0  0  0  0  0  0  0  0  0  0  0  0
   -2.2880   21.6730  -30.6980 C   0  0  0  0  0  0  0  0  0  0  0  0
   -0.7140   20.9080  -30.5710 Cl  0  0  0  0  0  0  0  0  0  0  0  0
   -3.4190   20.8990  -30.9720 C   0  0  0  0  0  0  0  0  0  0  0  0
   -3.3193   19.8122  -31.1094 H   0  0  0  0  0  0  0  0  0  0  0  0
   -4.6760   21.5010  -31.0720 C   0  0  0  0  0  0  0  0  0  0  0  0
   -5.5607   20.8852  -31.2911 H   0  0  0  0  0  0  0  0  0  0  0  0
   -4.8180   22.8920  -30.8940 C   0  0  0  0  0  0  0  0  0  0  0  0
   -6.0760   23.5350  -30.9650 C   0  0  0  0  0  0  0  0  0  0  0  0
   -7.1510   22.8230  -31.1790 N   0  0  0  0  0  0  0  0  0  0  0  0
   -8.0200   22.1880  -30.1850 C   0  0  0  0  0  0  0  0  0  0  0  0
   -8.2921   22.9325  -29.4223 H   0  0  0  0  0  0  0  0  0  0  0  0
   -7.4704   21.3468  -29.7375 H   0  0  0  0  0  0  0  0  0  0  0  0
   -9.3100   21.6330  -30.8240 C   0  0  0  0  0  0  0  0  0  0  0  0
  -10.0925   22.4028  -30.7529 H   0  0  0  0  0  0  0  0  0  0  0  0
   -9.5737   20.7169  -30.2753 H   0  0  0  0  0  0  0  0  0  0  0  0
   -9.1520   21.2580  -32.2420 N   0  0  0  0  0  0  0  0  0  0  0  0
   -8.2730   21.6830  -32.6180 H   0  0  0  0  0  0  0  0  0  0  0  0
   -9.1120   19.8050  -32.4800 C   0  0  0  0  0  0  0  0  0  0  0  0
   -9.6971   19.5769  -33.3831 H   0  0  0  0  0  0  0  0  0  0  0  0
   -9.5332   19.3043  -31.5958 H   0  0  0  0  0  0  0  0  0  0  0  0
   -7.7020   19.3020  -32.6730 C   0  0  0  0  0  0  0  0  0  0  0  0
   -7.2630   18.1540  -31.9980 C   0  0  0  0  0  0  0  0  0  0  0  0
   -7.9454   17.6277  -31.3144 H   0  0  0  0  0  0  0  0  0  0  0  0
   -5.9640   17.6740  -32.1880 C   0  0  0  0  0  0  0  0  0  0  0  0
   -5.6377   16.7616  -31.6674 H   0  0  0  0  0  0  0  0  0  0  0  0
   -5.0760   18.3450  -33.0350 C   0  0  0  0  0  0  0  0  0  0  0  0
   -3.7850   17.8230  -33.1960 O   0  0  0  0  0  0  0  0  0  0  0  0
   -2.6640   18.5750  -33.6470 C   0  0  0  0  0  0  0  0  0  0  0  0
   -2.1023   18.9518  -32.7795 H   0  0  0  0  0  0  0  0  0  0  0  0
   -2.0113   17.9313  -34.2550 H   0  0  0  0  0  0  0  0  0  0  0  0
   -3.0120   19.4231  -34.2550 H   0  0  0  0  0  0  0  0  0  0  0  0
   -5.5050   19.5150  -33.6910 C   0  0  0  0  0  0  0  0  0  0  0  0
   -4.8134   20.0555  -34.3540 H   0  0  0  0  0  0  0  0  0  0  0  0
   -6.8050   19.9930  -33.5040 C   0  0  0  0  0  0  0  0  0  0  0  0
   -7.1272   20.9149  -34.0102 H   0  0  0  0  0  0  0  0  0  0  0  0
   -6.1290   24.9350  -30.7940 C   0  0  0  0  0  0  0  0  0  0  0  0
   -7.0921   25.4615  -30.8659 H   0  0  0  0  0  0  0  0  0  0  0  0
  1  2  1  0
  2  3  1  0
  3  4  1  0
  4  5  2  0
  5  6  1  0
  5  7  1  0
  7  8  1  0
  7  9  2  0
  9 10  1  0
  9 11  1  0
 11 12  1  0
 11 13  2  0
 13 14  1  0
 14 15  2  0
 15 16  1  0
 16 17  1  0
 16 18  1  0
 16 19  1  0
 19 20  1  0
 19 21  1  0
 19 22  1  0
 22 23  1  0
 22 24  1  0
 24 25  1  0
 24 26  1  0
 24 27  1  0
 27 28  2  0
 28 29  1  0
 28 30  1  0
 30 31  1  0
 30 32  2  0
 32 33  1  0
 33 34  1  0
 34 35  1  0
 34 36  1  0
 34 37  1  0
 32 38  1  0
 38 39  1  0
 38 40  2  0
 40 41  1  0
 14 42  1  0
 42 43  1  0
 42  2  2  0
 13  4  1  0
 40 27  1  0
M  CHG  1   3  -1
M  END
>  <UniqueID>  (28) 
26

>  <SMILES>  (28) 
COc1ccc(CNCC/N=c2\cc[n-]c3cc(Cl)ccc23)cc1

>  <Energy>  (28) 
49.87755029035794

>  <Genealogy>  (28) 
COc1ccc(CNCCN=c2cc[n-]c3cc(Cl)ccc23)cc1 (protonated)
COc1ccc(CNCC/N=c2\cc[n-]c3cc(Cl)ccc23)cc1 (cis-trans isomerization)
COc1ccc(CNCC/N=c2\cc[n-]c3cc(Cl)ccc23)cc1 (3D coordinates assigned)
COc1ccc(CNCC/N=c2\cc[n-]c3cc(Cl)ccc23)cc1 (optimized conformer: 49.87755029035794 kcal/mol)

>  <smiles>  (28) 
COc1ccc(CNCCN=c2cc[nH]c3cc(Cl)ccc23)cc1

>  <score_type>  (28) 
oracle

>  <origin>  (28) 
adg

>  <m_score__min__energy>  (28) 
-9.4600000000000009

>  <m_primary>  (28) 
energy

$$$$
29:0
     RDKit          3D

 33 35  0  0  0  0  0  0  0  0999 V2000
   -5.3620   25.3360  -30.6560 C   0  0  0  0  0  0  0  0  0  0  0  0
   -5.8860   23.9770  -31.0120 C   0  0  0  0  0  0  0  0  0  0  0  0
   -4.9980   22.9160  -31.2420 C   0  0  0  0  0  0  0  0  0  0  0  0
   -5.4780   21.6570  -31.6100 C   0  0  0  0  0  0  0  0  0  0  0  0
   -6.8590   21.4450  -31.7780 C   0  0  0  0  0  0  0  0  0  0  0  0
   -7.3950   20.1960  -32.1510 C   0  0  0  0  0  0  0  0  0  0  0  0
   -6.5530   19.0700  -32.4450 N   0  0  0  0  0  0  0  0  0  0  0  0
   -6.7340   17.8400  -31.6660 C   0  0  0  0  0  0  0  0  0  0  0  0
   -5.7390   16.7520  -32.0740 C   0  0  0  0  0  0  0  0  0  0  0  0
   -5.9190   16.2850  -33.8350 S   0  0  0  0  0  0  0  0  0  0  0  0
   -6.1060   17.9550  -34.5800 C   0  0  0  0  0  0  0  0  0  0  0  0
   -5.7030   19.0880  -33.6410 C   0  0  0  0  0  0  0  0  0  0  0  0
   -8.7430   20.0510  -32.2430 N   0  0  0  0  0  0  0  0  0  0  0  0
   -9.5880   21.0850  -32.0060 C   0  0  0  0  0  0  0  0  0  0  0  0
   -9.0980   22.3060  -31.6690 N   0  0  0  0  0  0  0  0  0  0  0  0
   -7.7570   22.5110  -31.5440 C   0  0  0  0  0  0  0  0  0  0  0  0
   -7.2640   23.7730  -31.1770 C   0  0  0  0  0  0  0  0  0  0  0  0
   -5.3224   25.4386  -29.5615 H   0  0  0  0  0  0  0  0  0  0  0  0
   -4.3516   25.4601  -31.0727 H   0  0  0  0  0  0  0  0  0  0  0  0
   -6.0276   26.1063  -31.0727 H   0  0  0  0  0  0  0  0  0  0  0  0
   -3.9154   23.0766  -31.1317 H   0  0  0  0  0  0  0  0  0  0  0  0
   -4.7734   20.8275  -31.7692 H   0  0  0  0  0  0  0  0  0  0  0  0
   -6.5910   18.0704  -30.6000 H   0  0  0  0  0  0  0  0  0  0  0  0
   -7.7489   17.4620  -31.8585 H   0  0  0  0  0  0  0  0  0  0  0  0
   -4.7174   17.1244  -31.9078 H   0  0  0  0  0  0  0  0  0  0  0  0
   -5.9411   15.8598  -31.4631 H   0  0  0  0  0  0  0  0  0  0  0  0
   -5.4756   18.0075  -35.4799 H   0  0  0  0  0  0  0  0  0  0  0  0
   -7.1732   18.0893  -34.8103 H   0  0  0  0  0  0  0  0  0  0  0  0
   -4.6518   18.9591  -33.3436 H   0  0  0  0  0  0  0  0  0  0  0  0
   -5.8268   20.0502  -34.1595 H   0  0  0  0  0  0  0  0  0  0  0  0
  -10.6746   20.9341  -32.0871 H   0  0  0  0  0  0  0  0  0  0  0  0
   -9.7730   23.0870  -31.4970 H   0  0  0  0  0  0  0  0  0  0  0  0
   -7.9628   24.6074  -31.0178 H   0  0  0  0  0  0  0  0  0  0  0  0
  1  2  1  0
  2  3  2  0
  3  4  1  0
  4  5  2  0
  5  6  1  0
  6  7  1  0
  7  8  1  0
  8  9  1  0
  9 10  1  0
 10 11  1  0
 11 12  1  0
  6 13  2  0
 13 14  1  0
 14 15  2  0
 15 16  1  0
 16 17  2  0
 17  2  1  0
 16  5  1  0
 12  7  1  0
  1 18  1  0
  1 19  1  0
  1 20  1  0
  3 21  1  0
  4 22  1  0
  8 23  1  0
  8 24  1  0
  9 25  1  0
  9 26  1  0
 11 27  1  0
 11 28  1  0
 12 29  1  0
 12 30  1  0
 14 31  1  0
 15 32  1  0
 17 33  1  0
M  CHG  1  15   1
M  END
>  <UniqueID>  (29) 
27

>  <SMILES>  (29) 
Cc1ccc2c(N3CCSCC3)nc[nH+]c2c1

>  <Energy>  (29) 
43.2264863278642

>  <Genealogy>  (29) 
Cc1ccc2c(N3CCSCC3)nc[nH+]c2c1 (protonated)
Cc1ccc2c(N3CCSCC3)nc[nH+]c2c1 (3D coordinates assigned)
Cc1ccc2c(N3CCSCC3)nc[nH+]c2c1 (nonaromatic ring conformer: 43.2264863278642 kcal/mol)

>  <smiles>  (29) 
Cc1ccc2c(N3CCSCC3)ncnc2c1

>  <score_type>  (29) 
oracle

>  <origin>  (29) 
adg

>  <m_score__min__energy>  (29) 
-6.5300000000000002

>  <m_primary>  (29) 
energy

$$$$
30:0
     RDKit          3D

 20 20  0  0  0  0  0  0  0  0999 V2000
   -5.9860   24.1690  -31.2470 C   0  0  0  0  0  0  0  0  0  0  0  0
   -6.3130   23.2660  -32.3460 N   0  0  0  0  0  0  0  0  0  0  0  0
   -7.2470   22.1770  -32.2310 C   0  0  0  0  0  0  0  0  0  0  0  0
   -8.5560   22.4410  -31.7960 C   0  0  0  0  0  0  0  0  0  0  0  0
   -9.4820   21.4040  -31.6650 C   0  0  0  0  0  0  0  0  0  0  0  0
   -9.1150   20.0920  -31.9720 C   0  0  0  0  0  0  0  0  0  0  0  0
   -7.8180   19.8100  -32.4250 C   0  0  0  0  0  0  0  0  0  0  0  0
   -7.4120   18.3950  -32.7150 C   0  0  0  0  0  0  0  0  0  0  0  0
   -6.8830   20.8520  -32.5380 C   0  0  0  0  0  0  0  0  0  0  0  0
   -6.1697   23.6616  -30.2885 H   0  0  0  0  0  0  0  0  0  0  0  0
   -4.9264   24.4572  -31.3121 H   0  0  0  0  0  0  0  0  0  0  0  0
   -6.6154   25.0688  -31.3121 H   0  0  0  0  0  0  0  0  0  0  0  0
   -5.8360   23.4280  -33.2620 H   0  0  0  0  0  0  0  0  0  0  0  0
   -8.8541   23.4724  -31.5567 H   0  0  0  0  0  0  0  0  0  0  0  0
  -10.5033   21.6212  -31.3190 H   0  0  0  0  0  0  0  0  0  0  0  0
   -9.8453   19.2774  -31.8582 H   0  0  0  0  0  0  0  0  0  0  0  0
   -7.2575   17.8565  -31.7683 H   0  0  0  0  0  0  0  0  0  0  0  0
   -8.2037   17.8978  -33.2946 H   0  0  0  0  0  0  0  0  0  0  0  0
   -6.4771   18.3932  -33.2946 H   0  0  0  0  0  0  0  0  0  0  0  0
   -5.8576   20.6310  -32.8692 H   0  0  0  0  0  0  0  0  0  0  0  0
  1  2  1  0
  2  3  1  0
  3  4  2  0
  4  5  1  0
  5  6  2  0
  6  7  1  0
  7  8  1  0
  7  9  2  0
  9  3  1  0
  1 10  1  0
  1 11  1  0
  1 12  1  0
  2 13  1  0
  4 14  1  0
  5 15  1  0
  6 16  1  0
  8 17  1  0
  8 18  1  0
  8 19  1  0
  9 20  1  0
M  END
>  <UniqueID>  (30) 
28

>  <SMILES>  (30) 
CNc1cccc(C)c1

>  <Energy>  (30) 
15.898363870601552

>  <Genealogy>  (30) 
CNc1cccc(C)c1 (3D coordinates assigned)
CNc1cccc(C)c1 (optimized conformer: 15.898363870601552 kcal/mol)

>  <smiles>  (30) 
CNc1cccc(C)c1

>  <score_type>  (30) 
oracle

>  <origin>  (30) 
adg

>  <m_score__min__energy>  (30) 
-4.7199999999999998

>  <m_primary>  (30) 
energy

$$$$
31:0
     RDKit          3D

 28 30  0  0  0  0  0  0  0  0999 V2000
   -8.3680   20.4470  -32.6910 C   0  0  0  0  0  0  0  0  0  0  0  0
   -8.8260   21.4350  -31.8180 C   0  0  0  0  0  0  0  0  0  0  0  0
   -7.9190   22.2860  -31.1810 C   0  0  0  0  0  0  0  0  0  0  0  0
   -6.5350   22.1570  -31.4110 C   0  0  0  0  0  0  0  0  0  0  0  0
   -5.5850   23.0680  -30.7280 C   0  0  0  0  0  0  0  0  0  0  0  0
   -5.2340   23.0590  -29.3880 C   0  0  0  0  0  0  0  0  0  0  0  0
   -4.3280   24.0980  -29.2760 C   0  0  0  0  0  0  0  0  0  0  0  0
   -3.6200   24.5500  -28.0570 C   0  0  0  0  0  0  0  0  0  0  0  0
   -2.2180   24.6350  -28.0070 C   0  0  0  0  0  0  0  0  0  0  0  0
   -1.5850   25.0650  -26.8400 C   0  0  0  0  0  0  0  0  0  0  0  0
   -2.3550   25.4070  -25.7280 C   0  0  0  0  0  0  0  0  0  0  0  0
   -3.7120   25.3210  -25.7850 N   0  0  0  0  0  0  0  0  0  0  0  0
   -4.3520   24.9050  -26.9110 C   0  0  0  0  0  0  0  0  0  0  0  0
   -4.1800   24.6500  -30.4580 O   0  0  0  0  0  0  0  0  0  0  0  0
   -4.9180   24.0600  -31.3520 N   0  0  0  0  0  0  0  0  0  0  0  0
   -6.0850   21.1560  -32.2940 C   0  0  0  0  0  0  0  0  0  0  0  0
   -6.9990   20.3080  -32.9280 C   0  0  0  0  0  0  0  0  0  0  0  0
   -9.0844   19.7789  -33.1915 H   0  0  0  0  0  0  0  0  0  0  0  0
   -9.9044   21.5441  -31.6308 H   0  0  0  0  0  0  0  0  0  0  0  0
   -8.2883   23.0624  -30.4949 H   0  0  0  0  0  0  0  0  0  0  0  0
   -5.5922   22.3832  -28.5975 H   0  0  0  0  0  0  0  0  0  0  0  0
   -1.6191   24.3624  -28.8885 H   0  0  0  0  0  0  0  0  0  0  0  0
   -0.4880   25.1337  -26.7972 H   0  0  0  0  0  0  0  0  0  0  0  0
   -1.8646   25.7467  -24.8038 H   0  0  0  0  0  0  0  0  0  0  0  0
   -4.2740   25.5810  -24.9440 H   0  0  0  0  0  0  0  0  0  0  0  0
   -5.4503   24.8460  -26.9246 H   0  0  0  0  0  0  0  0  0  0  0  0
   -5.0081   21.0405  -32.4861 H   0  0  0  0  0  0  0  0  0  0  0  0
   -6.6381   19.5290  -33.6156 H   0  0  0  0  0  0  0  0  0  0  0  0
  1  2  2  0
  2  3  1  0
  3  4  2  0
  4  5  1  0
  5  6  1  0
  6  7  2  0
  7  8  1  0
  8  9  2  0
  9 10  1  0
 10 11  2  0
 11 12  1  0
 12 13  2  0
  7 14  1  0
 14 15  1  0
  4 16  1  0
 16 17  2  0
 17  1  1  0
 15  5  2  0
 13  8  1  0
  1 18  1  0
  2 19  1  0
  3 20  1  0
  6 21  1  0
  9 22  1  0
 10 23  1  0
 11 24  1  0
 12 25  1  0
 13 26  1  0
 16 27  1  0
 17 28  1  0
M  CHG  1  12   1
M  END
>  <UniqueID>  (31) 
29

>  <SMILES>  (31) 
c1ccc(-c2cc(-c3ccc[nH+]c3)on2)cc1

>  <Energy>  (31) 
63.457618929685516

>  <Genealogy>  (31) 
c1ccc(-c2cc(-c3ccc[nH+]c3)on2)cc1 (protonated)
c1ccc(-c2cc(-c3ccc[nH+]c3)on2)cc1 (3D coordinates assigned)
c1ccc(-c2cc(-c3ccc[nH+]c3)on2)cc1 (optimized conformer: 63.457618929685516 kcal/mol)

>  <smiles>  (31) 
c1ccc(-c2cc(-c3cccnc3)on2)cc1

>  <score_type>  (31) 
oracle

>  <origin>  (31) 
adg

>  <m_score__min__energy>  (31) 
-7.0499999999999998

>  <m_primary>  (31) 
energy

$$$$
32:0
     RDKit          3D

 50 54  0  0  0  0  0  0  0  0999 V2000
   -3.5685   24.3659  -29.2122 H   0  0  0  0  0  0  0  0  0  0  0  0
   -4.5040   24.0940  -29.7230 C   0  0  0  0  0  0  0  0  0  0  0  0
   -4.9140   24.8050  -30.8550 C   0  0  0  0  0  0  0  0  0  0  0  0
   -4.3009   25.6357  -31.2346 H   0  0  0  0  0  0  0  0  0  0  0  0
   -6.1040   24.4600  -31.5050 C   0  0  0  0  0  0  0  0  0  0  0  0
   -6.4281   25.0220  -32.3933 H   0  0  0  0  0  0  0  0  0  0  0  0
   -6.8830   23.3990  -31.0250 C   0  0  0  0  0  0  0  0  0  0  0  0
   -8.4030   22.9500  -31.8630 S   0  0  0  0  0  0  0  0  0  0  0  0
   -7.7820   21.3310  -32.3170 C   0  0  0  0  0  0  0  0  0  0  0  0
   -8.6550   20.2400  -32.3840 C   0  0  0  0  0  0  0  0  0  0  0  0
   -9.7239   20.3813  -32.1660 H   0  0  0  0  0  0  0  0  0  0  0  0
   -8.1780   18.9720  -32.7260 C   0  0  0  0  0  0  0  0  0  0  0  0
   -8.8688   18.1172  -32.7720 H   0  0  0  0  0  0  0  0  0  0  0  0
   -6.8140   18.7910  -33.0110 C   0  0  0  0  0  0  0  0  0  0  0  0
   -5.9270   19.8950  -32.9520 C   0  0  0  0  0  0  0  0  0  0  0  0
   -6.4220   21.1610  -32.6040 C   0  0  0  0  0  0  0  0  0  0  0  0
   -5.7397   22.0225  -32.5565 H   0  0  0  0  0  0  0  0  0  0  0  0
   -4.5950   19.7140  -33.2280 N   0  0  0  0  0  0  0  0  0  0  0  0
   -3.9560   20.5340  -33.1280 H   0  0  0  0  0  0  0  0  0  0  0  0
   -4.0970   18.4820  -33.5770 C   0  0  0  0  0  0  0  0  0  0  0  0
   -2.8340   18.2830  -33.8390 N   0  0  0  0  0  0  0  0  0  0  0  0
   -1.8270   19.2810  -34.0550 C   0  0  0  0  0  0  0  0  0  0  0  0
   -0.7980   19.0270  -34.9670 C   0  0  0  0  0  0  0  0  0  0  0  0
   -0.7468   18.0535  -35.4765 H   0  0  0  0  0  0  0  0  0  0  0  0
    0.1660   20.0030  -35.2350 C   0  0  0  0  0  0  0  0  0  0  0  0
    0.9835   19.7829  -35.9374 H   0  0  0  0  0  0  0  0  0  0  0  0
    0.1010   21.2580  -34.6180 C   0  0  0  0  0  0  0  0  0  0  0  0
    1.0990   22.1970  -34.9210 O   0  0  0  0  0  0  0  0  0  0  0  0
    1.1270   23.0390  -36.0750 C   0  0  0  0  0  0  0  0  0  0  0  0
    0.1173   23.4360  -36.2563 H   0  0  0  0  0  0  0  0  0  0  0  0
    1.4653   22.4449  -36.9367 H   0  0  0  0  0  0  0  0  0  0  0  0
    2.0920   24.2010  -35.8740 C   0  0  0  0  0  0  0  0  0  0  0  0
    2.2368   24.3754  -34.7976 H   0  0  0  0  0  0  0  0  0  0  0  0
    3.0589   23.9594  -36.3396 H   0  0  0  0  0  0  0  0  0  0  0  0
    1.6770   25.1070  -36.3396 H   0  0  0  0  0  0  0  0  0  0  0  0
   -0.9540   21.5260  -33.7220 C   0  0  0  0  0  0  0  0  0  0  0  0
   -1.0202   22.5082  -33.2312 H   0  0  0  0  0  0  0  0  0  0  0  0
   -1.9170   20.5470  -33.4550 C   0  0  0  0  0  0  0  0  0  0  0  0
   -2.7492   20.7704  -32.7712 H   0  0  0  0  0  0  0  0  0  0  0  0
   -4.9880   17.4060  -33.6090 C   0  0  0  0  0  0  0  0  0  0  0  0
   -4.7670   16.0790  -33.9040 C   0  0  0  0  0  0  0  0  0  0  0  0
   -3.7967   15.6334  -34.1687 H   0  0  0  0  0  0  0  0  0  0  0  0
   -5.9420   15.4150  -33.8140 N   0  0  0  0  0  0  0  0  0  0  0  0
   -6.8500   16.3590  -33.4680 C   0  0  0  0  0  0  0  0  0  0  0  0
   -7.9195   16.1554  -33.3108 H   0  0  0  0  0  0  0  0  0  0  0  0
   -6.2870   17.5790  -33.3390 N   0  0  0  0  0  0  0  0  0  0  0  0
   -6.4720   22.6920  -29.8880 C   0  0  0  0  0  0  0  0  0  0  0  0
   -7.0858   21.8637  -29.5043 H   0  0  0  0  0  0  0  0  0  0  0  0
   -5.2820   23.0380  -29.2400 C   0  0  0  0  0  0  0  0  0  0  0  0
   -4.9581   22.4789  -28.3498 H   0  0  0  0  0  0  0  0  0  0  0  0
  1  2  1  0
  2  3  2  0
  3  4  1  0
  3  5  1  0
  5  6  1  0
  5  7  2  0
  7  8  1  0
  8  9  1  0
  9 10  2  0
 10 11  1  0
 10 12  1  0
 12 13  1  0
 12 14  2  0
 14 15  1  0
 15 16  2  0
 16 17  1  0
 15 18  1  0
 18 19  1  0
 18 20  1  0
 20 21  2  0
 21 22  1  0
 22 23  2  0
 23 24  1  0
 23 25  1  0
 25 26  1  0
 25 27  2  0
 27 28  1  0
 28 29  1  0
 29 30  1  0
 29 31  1  0
 29 32  1  0
 32 33  1  0
 32 34  1  0
 32 35  1  0
 27 36  1  0
 36 37  1  0
 36 38  2  0
 38 39  1  0
 20 40  1  0
 40 41  2  0
 41 42  1  0
 41 43  1  0
 43 44  2  0
 44 45  1  0
 44 46  1  0
  7 47  1  0
 47 48  1  0
 47 49  2  0
 49 50  1  0
 49  2  1  0
 16  9  1  0
 38 22  1  0
 46 40  1  0
 46 14  1  0
M  END
>  <UniqueID>  (32) 
30

>  <SMILES>  (32) 
CCOc1ccc(/N=c2\[nH]c3cc(Sc4ccccc4)ccc3n3cncc23)cc1

>  <Energy>  (32) 
99.5735063754016

>  <Genealogy>  (32) 
CCOc1ccc(/N=c2\[nH]c3cc(Sc4ccccc4)ccc3n3cncc23)cc1 (cis-trans isomerization)
CCOc1ccc(/N=c2\[nH]c3cc(Sc4ccccc4)ccc3n3cncc23)cc1 (3D coordinates assigned)
CCOc1ccc(/N=c2\[nH]c3cc(Sc4ccccc4)ccc3n3cncc23)cc1 (optimized conformer: 99.5735063754016 kcal/mol)

>  <smiles>  (32) 
CCOc1ccc(N=c2[nH]c3cc(Sc4ccccc4)ccc3n3cncc23)cc1

>  <score_type>  (32) 
oracle

>  <origin>  (32) 
adg

>  <m_score__min__energy>  (32) 
-9.3499999999999996

>  <m_primary>  (32) 
energy

$$$$
33:0
     RDKit          3D

 37 39  0  0  0  0  0  0  0  0999 V2000
   -9.0960   18.8020  -31.5970 C   0  0  0  0  0  0  0  0  0  0  0  0
   -8.9950   20.0780  -32.4300 C   0  0  0  0  0  0  0  0  0  0  0  0
   -7.6240   20.6290  -32.3790 N   0  0  0  0  0  0  0  0  0  0  0  0
   -7.4690   21.8440  -31.7690 C   0  0  0  0  0  0  0  0  0  0  0  0
   -6.2180   22.4630  -31.6660 C   0  0  0  0  0  0  0  0  0  0  0  0
   -6.1210   23.7810  -30.9900 C   0  0  0  0  0  0  0  0  0  0  0  0
   -7.0880   24.2640  -30.1790 N   0  0  0  0  0  0  0  0  0  0  0  0
   -6.6060   25.4470  -29.7520 C   0  0  0  0  0  0  0  0  0  0  0  0
   -5.3620   25.6580  -30.2980 C   0  0  0  0  0  0  0  0  0  0  0  0
   -5.0570   24.6070  -31.0750 N   0  0  0  0  0  0  0  0  0  0  0  0
   -5.1020   21.8250  -32.2250 C   0  0  0  0  0  0  0  0  0  0  0  0
   -3.9740   22.3920  -32.2070 O   0  0  0  0  0  0  0  0  0  0  0  0
   -5.2440   20.5600  -32.8250 C   0  0  0  0  0  0  0  0  0  0  0  0
   -4.1280   19.8930  -33.3650 C   0  0  0  0  0  0  0  0  0  0  0  0
   -4.2540   18.6300  -33.9560 C   0  0  0  0  0  0  0  0  0  0  0  0
   -3.0280   17.9520  -34.5130 C   0  0  0  0  0  0  0  0  0  0  0  0
   -5.5150   18.0030  -33.9870 C   0  0  0  0  0  0  0  0  0  0  0  0
   -5.6890   16.6350  -34.5980 C   0  0  0  0  0  0  0  0  0  0  0  0
   -6.6340   18.6700  -33.4640 C   0  0  0  0  0  0  0  0  0  0  0  0
   -6.5270   19.9560  -32.8850 C   0  0  0  0  0  0  0  0  0  0  0  0
   -9.0756   19.0596  -30.5278 H   0  0  0  0  0  0  0  0  0  0  0  0
  -10.0379   18.2845  -31.8316 H   0  0  0  0  0  0  0  0  0  0  0  0
   -8.2472   18.1428  -31.8316 H   0  0  0  0  0  0  0  0  0  0  0  0
   -9.2532   19.8487  -33.4744 H   0  0  0  0  0  0  0  0  0  0  0  0
   -9.6912   20.8241  -32.0194 H   0  0  0  0  0  0  0  0  0  0  0  0
   -8.3516   22.3479  -31.3482 H   0  0  0  0  0  0  0  0  0  0  0  0
   -7.1268   26.1372  -29.0720 H   0  0  0  0  0  0  0  0  0  0  0  0
   -4.7250   26.5384  -30.1271 H   0  0  0  0  0  0  0  0  0  0  0  0
   -4.1610   24.4590  -31.5880 H   0  0  0  0  0  0  0  0  0  0  0  0
   -3.1391   20.3728  -33.3218 H   0  0  0  0  0  0  0  0  0  0  0  0
   -2.3945   17.6017  -33.6847 H   0  0  0  0  0  0  0  0  0  0  0  0
   -3.3321   17.0939  -35.1303 H   0  0  0  0  0  0  0  0  0  0  0  0
   -2.4628   18.6658  -35.1303 H   0  0  0  0  0  0  0  0  0  0  0  0
   -5.7843   15.8857  -33.7983 H   0  0  0  0  0  0  0  0  0  0  0  0
   -6.5958   16.6241  -35.2206 H   0  0  0  0  0  0  0  0  0  0  0  0
   -4.8138   16.3975  -35.2206 H   0  0  0  0  0  0  0  0  0  0  0  0
   -7.6182   18.1805  -33.5055 H   0  0  0  0  0  0  0  0  0  0  0  0
  1  2  1  0
  2  3  1  0
  3  4  1  0
  4  5  2  0
  5  6  1  0
  6  7  2  0
  7  8  1  0
  8  9  2  0
  9 10  1  0
  5 11  1  0
 11 12  2  0
 11 13  1  0
 13 14  2  0
 14 15  1  0
 15 16  1  0
 15 17  2  0
 17 18  1  0
 17 19  1  0
 19 20  2  0
 20  3  1  0
 10  6  1  0
 20 13  1  0
  1 21  1  0
  1 22  1  0
  1 23  1  0
  2 24  1  0
  2 25  1  0
  4 26  1  0
  8 27  1  0
  9 28  1  0
 10 29  1  0
 14 30  1  0
 16 31  1  0
 16 32  1  0
 16 33  1  0
 18 34  1  0
 18 35  1  0
 18 36  1  0
 19 37  1  0
M  END
>  <UniqueID>  (33) 
31

>  <SMILES>  (33) 
CCn1cc(-c2ncc[nH]2)c(=O)c2cc(C)c(C)cc21

>  <Energy>  (33) 
79.43438474339608

>  <Genealogy>  (33) 
CCn1cc(-c2ncc[nH]2)c(=O)c2cc(C)c(C)cc21 (3D coordinates assigned)
CCn1cc(-c2ncc[nH]2)c(=O)c2cc(C)c(C)cc21 (optimized conformer: 79.43438474339608 kcal/mol)

>  <smiles>  (33) 
CCn1cc(-c2ncc[nH]2)c(=O)c2cc(C)c(C)cc21

>  <score_type>  (33) 
oracle

>  <origin>  (33) 
adg

>  <m_score__min__energy>  (33) 
-7.46

>  <m_primary>  (33) 
energy

$$$$
34:0
     RDKit          3D

 28 30  0  0  0  0  0  0  0  0999 V2000
    1.3620   15.7210  -28.5010 C   0  0  0  0  0  0  0  0  0  0  0  0
    0.6160   16.4920  -27.5680 O   0  0  0  0  0  0  0  0  0  0  0  0
    0.2530   17.8200  -27.8010 C   0  0  0  0  0  0  0  0  0  0  0  0
    1.0850   18.6640  -28.4690 N   0  0  0  0  0  0  0  0  0  0  0  0
    0.7380   19.9560  -28.6990 C   0  0  0  0  0  0  0  0  0  0  0  0
   -0.4990   20.4460  -28.2550 C   0  0  0  0  0  0  0  0  0  0  0  0
   -0.8790   21.8610  -28.4990 C   0  0  0  0  0  0  0  0  0  0  0  0
   -1.9750   22.2030  -29.3420 C   0  0  0  0  0  0  0  0  0  0  0  0
   -2.3170   23.5570  -29.5600 C   0  0  0  0  0  0  0  0  0  0  0  0
   -3.4530   23.9350  -30.4330 C   0  0  0  0  0  0  0  0  0  0  0  0
   -3.8510   25.2990  -30.5510 N   0  0  0  0  0  0  0  0  0  0  0  0
   -4.0810   23.0550  -31.0830 O   0  0  0  0  0  0  0  0  0  0  0  0
   -1.5220   24.5120  -28.9160 C   0  0  0  0  0  0  0  0  0  0  0  0
   -1.6160   25.8510  -28.9480 N   0  0  0  0  0  0  0  0  0  0  0  0
   -0.5880   26.2440  -28.1500 C   0  0  0  0  0  0  0  0  0  0  0  0
    0.1390   25.2240  -27.6240 N   0  0  0  0  0  0  0  0  0  0  0  0
   -0.4800   24.1490  -28.1290 C   0  0  0  0  0  0  0  0  0  0  0  0
   -0.1450   22.8560  -27.9120 N   0  0  0  0  0  0  0  0  0  0  0  0
   -1.3350   19.5580  -27.5580 C   0  0  0  0  0  0  0  0  0  0  0  0
   -0.9440   18.2750  -27.3500 N   0  0  0  0  0  0  0  0  0  0  0  0
    2.0276   15.0331  -27.9591 H   0  0  0  0  0  0  0  0  0  0  0  0
    0.6723   15.1422  -29.1329 H   0  0  0  0  0  0  0  0  0  0  0  0
    1.9632   16.3912  -29.1329 H   0  0  0  0  0  0  0  0  0  0  0  0
    1.4299   20.6216  -29.2359 H   0  0  0  0  0  0  0  0  0  0  0  0
   -2.5596   21.4074  -29.8270 H   0  0  0  0  0  0  0  0  0  0  0  0
   -3.7800   25.9520  -29.7390 H   0  0  0  0  0  0  0  0  0  0  0  0
   -0.3632   27.3014  -27.9468 H   0  0  0  0  0  0  0  0  0  0  0  0
   -2.3086   19.9032  -27.1800 H   0  0  0  0  0  0  0  0  0  0  0  0
  1  2  1  0
  2  3  1  0
  3  4  2  0
  4  5  1  0
  5  6  2  0
  6  7  1  0
  7  8  2  0
  8  9  1  0
  9 10  1  0
 10 11  1  0
 10 12  2  0
  9 13  2  0
 13 14  1  0
 14 15  1  0
 15 16  2  0
 16 17  1  0
 17 18  2  0
  6 19  1  0
 19 20  2  0
 20  3  1  0
 18  7  1  0
 17 13  1  0
  1 21  1  0
  1 22  1  0
  1 23  1  0
  5 24  1  0
  8 25  1  0
 11 26  1  0
 15 27  1  0
 19 28  1  0
M  CHG  2  11  -1  14  -1
M  END
>  <UniqueID>  (34) 
32

>  <SMILES>  (34) 
COc1ncc(-c2cc(C([NH-])=O)c3[n-]cnc3n2)cn1

>  <Energy>  (34) 
70.91140390048953

>  <Genealogy>  (34) 
COc1ncc(-c2cc(C([NH-])=O)c3[n-]cnc3n2)cn1 (protonated)
COc1ncc(-c2cc(C([NH-])=O)c3[n-]cnc3n2)cn1 (3D coordinates assigned)
COc1ncc(-c2cc(C([NH-])=O)c3[n-]cnc3n2)cn1 (optimized conformer: 70.91140390048953 kcal/mol)

>  <smiles>  (34) 
COc1ncc(-c2cc(C(N)=O)c3[nH]cnc3n2)cn1

>  <score_type>  (34) 
oracle

>  <origin>  (34) 
adg

>  <m_score__min__energy>  (34) 
-9.6099999999999994

>  <m_primary>  (34) 
energy

$$$$
35:0
     RDKit          3D

 35 38  0  0  1  0  0  0  0  0999 V2000
   -1.3330   23.7480  -29.6170 N   0  0  0  0  0  0  0  0  0  0  0  0
   -2.5580   23.6790  -30.0340 C   0  0  0  0  0  0  0  0  0  0  0  0
   -3.4570   24.5330  -29.4420 C   0  0  0  0  0  0  0  0  0  0  0  0
   -4.7530   24.4660  -29.8770 C   0  0  0  0  0  0  0  0  0  0  0  0
   -5.6480   25.2890  -29.3160 N   0  0  0  0  0  0  0  0  0  0  0  0
   -6.9280   25.2500  -29.7180 C   0  0  0  0  0  0  0  0  0  0  0  0
   -7.2360   24.3660  -30.6800 N   0  0  0  0  0  0  0  0  0  0  0  0
   -6.3640   23.5280  -31.2640 C   0  0  0  0  0  0  0  0  0  0  0  0
   -6.7560   22.7520  -32.1440 N   0  0  0  0  0  0  0  0  0  0  0  0
   -6.8810   21.3940  -32.2400 C   0  0  0  0  0  0  0  0  0  0  0  0
   -7.9180   20.6510  -31.6200 C   0  0  0  0  0  0  0  0  0  0  0  0
   -8.0180   19.2950  -31.8770 C   0  0  0  0  0  0  0  0  0  0  0  0
   -7.1570   18.6260  -32.7090 C   0  0  0  0  0  0  0  0  0  0  0  0
   -7.2880   17.2770  -32.9400 C   0  0  0  0  0  0  0  0  0  0  0  0
   -6.3960   16.6350  -33.7890 C   0  0  0  0  0  0  0  0  0  0  0  0
   -5.4130   17.3870  -34.3660 C   0  0  0  0  0  0  0  0  0  0  0  0
   -5.2580   18.7340  -34.1540 C   0  0  0  0  0  0  0  0  0  0  0  0
   -6.1520   19.3520  -33.3090 C   0  0  0  0  0  0  0  0  0  0  0  0
   -5.9870   20.7070  -33.1020 C   0  0  0  0  0  0  0  0  0  0  0  0
   -5.0620   23.5500  -30.8710 C   0  0  0  0  0  0  0  0  0  0  0  0
   -4.1180   22.7300  -31.4170 C   0  0  0  0  0  0  0  0  0  0  0  0
   -2.8190   22.7980  -30.9800 N   0  0  0  0  0  0  0  0  0  0  0  0
   -0.6800   24.3590  -30.1100 H   0  0  0  0  0  0  0  0  0  0  0  0
   -3.1495   25.2376  -28.6552 H   0  0  0  0  0  0  0  0  0  0  0  0
   -5.3630   25.9670  -28.5630 H   0  0  0  0  0  0  0  0  0  0  0  0
   -7.6893   25.9118  -29.2794 H   0  0  0  0  0  0  0  0  0  0  0  0
   -8.6321   21.1453  -30.9449 H   0  0  0  0  0  0  0  0  0  0  0  0
   -8.8255   18.7273  -31.3915 H   0  0  0  0  0  0  0  0  0  0  0  0
   -8.0954   16.7090  -32.4547 H   0  0  0  0  0  0  0  0  0  0  0  0
   -6.4786   15.5567  -33.9900 H   0  0  0  0  0  0  0  0  0  0  0  0
   -4.7041   16.8838  -35.0400 H   0  0  0  0  0  0  0  0  0  0  0  0
   -4.4495   19.2988  -34.6411 H   0  0  0  0  0  0  0  0  0  0  0  0
   -5.1701   21.2492  -33.6006 H   0  0  0  0  0  0  0  0  0  0  0  0
   -4.3976   22.0160  -32.2057 H   0  0  0  0  0  0  0  0  0  0  0  0
   -2.0690   22.1920  -31.3670 H   0  0  0  0  0  0  0  0  0  0  0  0
  1  2  2  3
  2  3  1  0
  3  4  2  0
  4  5  1  0
  5  6  1  0
  6  7  2  0
  7  8  1  0
  8  9  2  0
  9 10  1  0
 10 11  2  0
 11 12  1  0
 12 13  2  0
 13 14  1  0
 14 15  2  0
 15 16  1  0
 16 17  2  0
 17 18  1  0
 18 19  2  0
  8 20  1  0
 20 21  2  0
 21 22  1  0
 22  2  1  0
 20  4  1  0
 19 10  1  0
 18 13  1  0
  1 23  1  0
  3 24  1  0
  5 25  1  0
  6 26  1  0
 11 27  1  0
 12 28  1  0
 14 29  1  0
 15 30  1  0
 16 31  1  0
 17 32  1  0
 19 33  1  0
 21 34  1  0
 22 35  1  0
M  END
>  <smiles>  (35) 
N=c1cc2[nH]cnc(=Nc3ccc4ccccc4c3)c2c[nH]1

>  <score_type>  (35) 
oracle

>  <origin>  (35) 
adg

>  <m_score__min__energy>  (35) 
-8.0899999999999999

>  <m_primary>  (35) 
energy

$$$$
36:0
     RDKit          3D

 44 47  0  0  0  0  0  0  0  0999 V2000
   -6.0813   19.6690  -34.3019 H   0  0  0  0  0  0  0  0  0  0  0  0
   -6.0070   20.0140  -33.2600 C   0  0  0  0  0  0  0  0  0  0  0  0
   -4.9140   19.6610  -32.5680 C   0  0  0  0  0  0  0  0  0  0  0  0
   -5.0622   19.0897  -31.6397 H   0  0  0  0  0  0  0  0  0  0  0  0
   -3.5240   19.9820  -32.9590 C   0  0  0  0  0  0  0  0  0  0  0  0
   -2.7950   19.0310  -33.6900 C   0  0  0  0  0  0  0  0  0  0  0  0
   -3.2416   18.0497  -33.9083 H   0  0  0  0  0  0  0  0  0  0  0  0
   -1.5060   19.3230  -34.1420 C   0  0  0  0  0  0  0  0  0  0  0  0
   -0.9296   18.5611  -34.6872 H   0  0  0  0  0  0  0  0  0  0  0  0
   -0.9480   20.5800  -33.9030 C   0  0  0  0  0  0  0  0  0  0  0  0
    0.0648   20.8098  -34.2654 H   0  0  0  0  0  0  0  0  0  0  0  0
   -1.6750   21.5460  -33.2040 C   0  0  0  0  0  0  0  0  0  0  0  0
   -1.2467   22.5474  -33.0500 H   0  0  0  0  0  0  0  0  0  0  0  0
   -2.9510   21.2460  -32.6960 C   0  0  0  0  0  0  0  0  0  0  0  0
   -3.7360   22.2760  -32.0830 N   0  0  0  0  0  0  0  0  0  0  0  0
   -3.4910   22.8860  -30.9590 C   0  0  0  0  0  0  0  0  0  0  0  0
   -4.1280   24.1270  -30.5390 C   0  0  0  0  0  0  0  0  0  0  0  0
   -4.9560   24.7900  -31.2170 O   0  0  0  0  0  0  0  0  0  0  0  0
   -3.7000   24.4940  -29.2340 N   0  0  0  0  0  0  0  0  0  0  0  0
   -4.0230   25.3090  -28.6660 H   0  0  0  0  0  0  0  0  0  0  0  0
   -2.8180   23.4490  -28.8320 C   0  0  0  0  0  0  0  0  0  0  0  0
   -2.2320   23.3210  -27.5740 C   0  0  0  0  0  0  0  0  0  0  0  0
   -2.3691   24.0996  -26.8092 H   0  0  0  0  0  0  0  0  0  0  0  0
   -1.4610   22.1750  -27.3020 C   0  0  0  0  0  0  0  0  0  0  0  0
   -0.8570   21.9820  -25.9440 C   0  0  0  0  0  0  0  0  0  0  0  0
   -1.6043   22.2208  -25.1730 H   0  0  0  0  0  0  0  0  0  0  0  0
   -0.5350   20.9362  -25.8311 H   0  0  0  0  0  0  0  0  0  0  0  0
    0.0117   22.6473  -25.8311 H   0  0  0  0  0  0  0  0  0  0  0  0
   -1.3400   21.1630  -28.2800 C   0  0  0  0  0  0  0  0  0  0  0  0
   -0.7619   20.2548  -28.0540 H   0  0  0  0  0  0  0  0  0  0  0  0
   -1.9490   21.3030  -29.5370 C   0  0  0  0  0  0  0  0  0  0  0  0
   -1.8650   20.5082  -30.2929 H   0  0  0  0  0  0  0  0  0  0  0  0
   -2.6650   22.4740  -29.8090 C   0  0  0  0  0  0  0  0  0  0  0  0
   -7.1200   20.8310  -32.7310 C   0  0  0  0  0  0  0  0  0  0  0  0
   -6.9250   22.1650  -32.3310 C   0  0  0  0  0  0  0  0  0  0  0  0
   -5.9390   22.6363  -32.4564 H   0  0  0  0  0  0  0  0  0  0  0  0
   -7.9810   22.8950  -31.7740 C   0  0  0  0  0  0  0  0  0  0  0  0
   -7.8227   23.9373  -31.4601 H   0  0  0  0  0  0  0  0  0  0  0  0
   -9.2360   22.3020  -31.6160 C   0  0  0  0  0  0  0  0  0  0  0  0
  -10.0690   22.8821  -31.1922 H   0  0  0  0  0  0  0  0  0  0  0  0
   -9.4330   20.9730  -31.9960 C   0  0  0  0  0  0  0  0  0  0  0  0
  -10.4213   20.5066  -31.8704 H   0  0  0  0  0  0  0  0  0  0  0  0
   -8.3760   20.2340  -32.5360 C   0  0  0  0  0  0  0  0  0  0  0  0
   -8.5291   19.1796  -32.8095 H   0  0  0  0  0  0  0  0  0  0  0  0
  1  2  1  0
  2  3  2  3
  3  4  1  0
  3  5  1  0
  5  6  2  0
  6  7  1  0
  6  8  1  0
  8  9  1  0
  8 10  2  0
 10 11  1  0
 10 12  1  0
 12 13  1  0
 12 14  2  0
 14 15  1  0
 15 16  2  0
 16 17  1  0
 17 18  2  0
 17 19  1  0
 19 20  1  0
 19 21  1  0
 21 22  2  0
 22 23  1  0
 22 24  1  0
 24 25  1  0
 25 26  1  0
 25 27  1  0
 25 28  1  0
 24 29  2  0
 29 30  1  0
 29 31  1  0
 31 32  1  0
 31 33  2  0
  2 34  1  0
 34 35  2  0
 35 36  1  0
 35 37  1  0
 37 38  1  0
 37 39  2  0
 39 40  1  0
 39 41  1  0
 41 42  1  0
 41 43  2  0
 43 44  1  0
 14  5  1  0
 33 16  1  0
 43 34  1  0
 33 21  1  0
M  END
>  <UniqueID>  (36) 
33

>  <SMILES>  (36) 
Cc1ccc2c(c1)NC(=O)/C2=N/c1ccccc1C=Cc1ccccc1

>  <Energy>  (36) 
94.3550246052559

>  <Genealogy>  (36) 
Cc1ccc2c(c1)NC(=O)/C2=N/c1ccccc1C=Cc1ccccc1 (cis-trans isomerization)
Cc1ccc2c(c1)NC(=O)/C2=N/c1ccccc1C=Cc1ccccc1 (3D coordinates assigned)
Cc1ccc2c(c1)NC(=O)/C2=N/c1ccccc1C=Cc1ccccc1 (nonaromatic ring conformer: 94.3550246052559 kcal/mol)

>  <smiles>  (36) 
Cc1ccc2c(c1)NC(=O)C2=Nc1ccccc1C=Cc1ccccc1

>  <score_type>  (36) 
oracle

>  <origin>  (36) 
adg

>  <m_score__min__energy>  (36) 
-9.4600000000000009

>  <m_primary>  (36) 
energy

$$$$
37:0
     RDKit          3D

 46 48  0  0  0  0  0  0  0  0999 V2000
   -0.4902   23.3364  -28.2784 H   0  0  0  0  0  0  0  0  0  0  0  0
   -1.3980   23.2460  -28.8930 C   0  0  0  0  0  0  0  0  0  0  0  0
   -1.8620   21.9830  -29.2650 C   0  0  0  0  0  0  0  0  0  0  0  0
   -1.3235   21.0839  -28.9307 H   0  0  0  0  0  0  0  0  0  0  0  0
   -3.0070   21.8510  -30.0600 C   0  0  0  0  0  0  0  0  0  0  0  0
   -3.4960   20.4860  -30.4740 C   0  0  0  0  0  0  0  0  0  0  0  0
   -3.3332   19.7813  -29.6452 H   0  0  0  0  0  0  0  0  0  0  0  0
   -4.5658   20.5618  -30.7186 H   0  0  0  0  0  0  0  0  0  0  0  0
   -2.7920   20.0030  -31.6500 N   0  0  0  0  0  0  0  0  0  0  0  0
   -3.2050   20.1030  -32.8760 C   0  0  0  0  0  0  0  0  0  0  0  0
   -2.7720   19.1410  -33.9570 C   0  0  0  0  0  0  0  0  0  0  0  0
   -2.3623   18.2307  -33.4951 H   0  0  0  0  0  0  0  0  0  0  0  0
   -3.6382   18.8772  -34.5816 H   0  0  0  0  0  0  0  0  0  0  0  0
   -2.0002   19.6145  -34.5816 H   0  0  0  0  0  0  0  0  0  0  0  0
   -4.1750   21.2040  -33.2190 C   0  0  0  0  0  0  0  0  0  0  0  0
   -4.0397   22.0380  -32.5146 H   0  0  0  0  0  0  0  0  0  0  0  0
   -3.9809   21.5410  -34.2480 H   0  0  0  0  0  0  0  0  0  0  0  0
   -5.5880   20.7070  -33.1300 C   0  0  0  0  0  0  0  0  0  0  0  0
   -6.0740   19.5050  -33.6350 C   0  0  0  0  0  0  0  0  0  0  0  0
   -5.4824   18.7867  -34.2215 H   0  0  0  0  0  0  0  0  0  0  0  0
   -7.3760   19.3430  -33.3040 N   0  0  0  0  0  0  0  0  0  0  0  0
   -7.9880   18.5330  -33.5470 H   0  0  0  0  0  0  0  0  0  0  0  0
   -7.7130   20.4320  -32.5890 C   0  0  0  0  0  0  0  0  0  0  0  0
   -8.9500   20.7100  -32.0110 C   0  0  0  0  0  0  0  0  0  0  0  0
   -9.7968   20.0165  -32.1199 H   0  0  0  0  0  0  0  0  0  0  0  0
   -9.0800   21.9080  -31.2830 C   0  0  0  0  0  0  0  0  0  0  0  0
  -10.0440   22.1627  -30.8183 H   0  0  0  0  0  0  0  0  0  0  0  0
   -7.9820   22.7850  -31.1450 C   0  0  0  0  0  0  0  0  0  0  0  0
   -8.0960   23.7160  -30.5704 H   0  0  0  0  0  0  0  0  0  0  0  0
   -6.7430   22.4770  -31.7370 C   0  0  0  0  0  0  0  0  0  0  0  0
   -5.8809   23.1527  -31.6358 H   0  0  0  0  0  0  0  0  0  0  0  0
   -6.6450   21.2850  -32.4570 C   0  0  0  0  0  0  0  0  0  0  0  0
   -3.7080   23.0030  -30.4530 C   0  0  0  0  0  0  0  0  0  0  0  0
   -4.6230   22.9064  -31.0559 H   0  0  0  0  0  0  0  0  0  0  0  0
   -3.2470   24.2830  -30.0800 C   0  0  0  0  0  0  0  0  0  0  0  0
   -3.9190   25.4560  -30.4640 O   0  0  0  0  0  0  0  0  0  0  0  0
   -5.3340   25.6130  -30.4630 C   0  0  0  0  0  0  0  0  0  0  0  0
   -5.6977   25.6534  -29.4257 H   0  0  0  0  0  0  0  0  0  0  0  0
   -5.5997   26.5461  -30.9813 H   0  0  0  0  0  0  0  0  0  0  0  0
   -5.7978   24.7608  -30.9813 H   0  0  0  0  0  0  0  0  0  0  0  0
   -2.0870   24.4060  -29.3010 C   0  0  0  0  0  0  0  0  0  0  0  0
   -1.6480   25.6940  -28.9520 O   0  0  0  0  0  0  0  0  0  0  0  0
   -1.0730   26.0430  -27.6960 C   0  0  0  0  0  0  0  0  0  0  0  0
   -1.7066   25.6584  -26.8832 H   0  0  0  0  0  0  0  0  0  0  0  0
   -0.0682   25.6022  -27.6176 H   0  0  0  0  0  0  0  0  0  0  0  0
   -1.0003   27.1378  -27.6176 H   0  0  0  0  0  0  0  0  0  0  0  0
  1  2  1  0
  2  3  2  0
  3  4  1  0
  3  5  1  0
  5  6  1  0
  6  7  1  0
  6  8  1  0
  6  9  1  0
  9 10  2  0
 10 11  1  0
 11 12  1  0
 11 13  1  0
 11 14  1  0
 10 15  1  0
 15 16  1  0
 15 17  1  0
 15 18  1  0
 18 19  2  0
 19 20  1  0
 19 21  1  0
 21 22  1  0
 21 23  1  0
 23 24  2  0
 24 25  1  0
 24 26  1  0
 26 27  1  0
 26 28  2  0
 28 29  1  0
 28 30  1  0
 30 31  1  0
 30 32  2  0
  5 33  2  0
 33 34  1  0
 33 35  1  0
 35 36  1  0
 36 37  1  0
 37 38  1  0
 37 39  1  0
 37 40  1  0
 35 41  2  0
 41 42  1  0
 42 43  1  0
 43 44  1  0
 43 45  1  0
 43 46  1  0
 41  2  1  0
 32 18  1  0
 32 23  1  0
M  END
>  <UniqueID>  (37) 
34

>  <SMILES>  (37) 
COc1ccc(C/N=C(\C)Cc2c[nH]c3ccccc23)cc1OC

>  <Energy>  (37) 
75.78747084381263

>  <Genealogy>  (37) 
COc1ccc(C/N=C(\C)Cc2c[nH]c3ccccc23)cc1OC (cis-trans isomerization)
COc1ccc(C/N=C(\C)Cc2c[nH]c3ccccc23)cc1OC (3D coordinates assigned)
COc1ccc(C/N=C(\C)Cc2c[nH]c3ccccc23)cc1OC (optimized conformer: 75.78747084381263 kcal/mol)

>  <smiles>  (37) 
COc1ccc(CN=C(C)Cc2c[nH]c3ccccc23)cc1OC

>  <score_type>  (37) 
oracle

>  <origin>  (37) 
adg

>  <m_score__min__energy>  (37) 
-9

>  <m_primary>  (37) 
energy

$$$$
38:0
     RDKit          3D

 29 29  0  0  0  0  0  0  0  0999 V2000
   -1.5140   24.9520  -25.5880 C   0  0  0  0  0  0  0  0  0  0  0  0
   -1.4440   25.8480  -26.7540 N   0  0  0  0  0  0  0  0  0  0  0  0
   -1.0500   27.2040  -26.3440 C   0  0  0  0  0  0  0  0  0  0  0  0
   -0.5060   25.3330  -27.7320 C   0  0  0  0  0  0  0  0  0  0  0  0
    0.6930   25.3060  -27.4830 O   0  0  0  0  0  0  0  0  0  0  0  0
   -0.9770   24.8360  -29.0740 C   0  0  0  0  0  0  0  0  0  0  0  0
   -2.3440   25.2760  -29.3200 N   0  0  0  0  0  0  0  0  0  0  0  0
   -3.5010   24.5490  -28.8900 C   0  0  0  0  0  0  0  0  0  0  0  0
   -3.5950   24.1900  -27.6840 O   0  0  0  0  0  0  0  0  0  0  0  0
   -4.5820   24.2270  -29.8540 C   0  0  0  0  0  0  0  0  0  0  0  0
   -5.8470   24.8360  -29.7240 C   0  0  0  0  0  0  0  0  0  0  0  0
   -6.8740   24.5450  -30.6250 C   0  0  0  0  0  0  0  0  0  0  0  0
   -6.6570   23.6430  -31.6670 C   0  0  0  0  0  0  0  0  0  0  0  0
   -5.4120   23.0300  -31.8120 C   0  0  0  0  0  0  0  0  0  0  0  0
   -4.3760   23.3160  -30.9140 C   0  0  0  0  0  0  0  0  0  0  0  0
   -3.1790   22.7000  -31.0920 F   0  0  0  0  0  0  0  0  0  0  0  0
   -1.4675   25.5478  -24.6645 H   0  0  0  0  0  0  0  0  0  0  0  0
   -2.4588   24.3893  -25.6141 H   0  0  0  0  0  0  0  0  0  0  0  0
   -0.6680   24.2494  -25.6141 H   0  0  0  0  0  0  0  0  0  0  0  0
   -2.4020   25.9020  -27.1730 H   0  0  0  0  0  0  0  0  0  0  0  0
   -1.0324   27.2644  -25.2458 H   0  0  0  0  0  0  0  0  0  0  0  0
   -0.0489   27.4304  -26.7397 H   0  0  0  0  0  0  0  0  0  0  0  0
   -1.7739   27.9316  -26.7397 H   0  0  0  0  0  0  0  0  0  0  0  0
   -0.3195   25.2346  -29.8607 H   0  0  0  0  0  0  0  0  0  0  0  0
   -0.9462   23.7365  -29.0815 H   0  0  0  0  0  0  0  0  0  0  0  0
   -6.0270   25.5476  -28.9047 H   0  0  0  0  0  0  0  0  0  0  0  0
   -7.8559   25.0280  -30.5127 H   0  0  0  0  0  0  0  0  0  0  0  0
   -7.4678   23.4150  -32.3746 H   0  0  0  0  0  0  0  0  0  0  0  0
   -5.2435   22.3195  -32.6347 H   0  0  0  0  0  0  0  0  0  0  0  0
  1  2  1  0
  2  3  1  0
  2  4  1  0
  4  5  2  0
  4  6  1  0
  6  7  1  0
  7  8  1  0
  8  9  2  0
  8 10  1  0
 10 11  2  0
 11 12  1  0
 12 13  2  0
 13 14  1  0
 14 15  2  0
 15 16  1  0
 15 10  1  0
  1 17  1  0
  1 18  1  0
  1 19  1  0
  2 20  1  0
  3 21  1  0
  3 22  1  0
  3 23  1  0
  6 24  1  0
  6 25  1  0
 11 26  1  0
 12 27  1  0
 13 28  1  0
 14 29  1  0
M  CHG  2   2   1   7  -1
M  END
>  <UniqueID>  (38) 
35

>  <SMILES>  (38) 
C[NH+](C)C(=O)C[N-]C(=O)c1ccccc1F

>  <Energy>  (38) 
25.224875309768688

>  <Genealogy>  (38) 
C[NH+](C)C(=O)C[N-]C(=O)c1ccccc1F (protonated)
C[NH+](C)C(=O)C[N-]C(=O)c1ccccc1F (3D coordinates assigned)
C[NH+](C)C(=O)C[N-]C(=O)c1ccccc1F (optimized conformer: 25.224875309768688 kcal/mol)

>  <smiles>  (38) 
CN(C)C(=O)CNC(=O)c1ccccc1F

>  <score_type>  (38) 
oracle

>  <origin>  (38) 
adg

>  <m_score__min__energy>  (38) 
-6.3200000000000003

>  <m_primary>  (38) 
energy

$$$$
39:0
     RDKit          3D

 51 54  0  0  0  0  0  0  0  0999 V2000
   -2.5540   18.5670  -32.8500 C   0  0  0  0  0  0  0  0  0  0  0  0
   -3.0080   19.6130  -33.8660 C   0  0  0  0  0  0  0  0  0  0  0  0
   -4.0740   20.4420  -33.3010 N   0  0  0  0  0  0  0  0  0  0  0  0
   -3.8930   21.5930  -32.6280 C   0  0  0  0  0  0  0  0  0  0  0  0
   -5.1150   22.0520  -32.1360 C   0  0  0  0  0  0  0  0  0  0  0  0
   -5.3530   23.2880  -31.3430 C   0  0  0  0  0  0  0  0  0  0  0  0
   -6.6580   23.7330  -31.0700 C   0  0  0  0  0  0  0  0  0  0  0  0
   -6.8670   24.8820  -30.2980 C   0  0  0  0  0  0  0  0  0  0  0  0
   -5.7690   25.5870  -29.8040 C   0  0  0  0  0  0  0  0  0  0  0  0
   -4.5110   25.1580  -30.0800 N   0  0  0  0  0  0  0  0  0  0  0  0
   -4.2780   24.0420  -30.8310 C   0  0  0  0  0  0  0  0  0  0  0  0
   -6.0710   21.1270  -32.5240 C   0  0  0  0  0  0  0  0  0  0  0  0
   -5.3940   20.1450  -33.2190 C   0  0  0  0  0  0  0  0  0  0  0  0
   -6.0200   18.9530  -33.8080 C   0  0  0  0  0  0  0  0  0  0  0  0
   -6.1030   18.8850  -35.0630 O   0  0  0  0  0  0  0  0  0  0  0  0
   -6.5080   17.8640  -32.9870 N   0  0  0  0  0  0  0  0  0  0  0  0
   -6.6050   16.4920  -33.5260 C   0  0  0  0  0  0  0  0  0  0  0  0
   -5.2610   15.8110  -33.5810 C   0  0  0  0  0  0  0  0  0  0  0  0
   -4.3690   16.0830  -34.6240 C   0  0  0  0  0  0  0  0  0  0  0  0
   -3.1290   15.4420  -34.6530 C   0  0  0  0  0  0  0  0  0  0  0  0
   -2.7950   14.5470  -33.6870 N   0  0  0  0  0  0  0  0  0  0  0  0
   -3.6460   14.2470  -32.6760 C   0  0  0  0  0  0  0  0  0  0  0  0
   -4.8950   14.8660  -32.6100 C   0  0  0  0  0  0  0  0  0  0  0  0
   -7.1370   18.1820  -31.6940 C   0  0  0  0  0  0  0  0  0  0  0  0
   -8.6320   18.5470  -31.8530 C   0  0  0  0  0  0  0  0  0  0  0  0
   -9.0090   19.9260  -31.3040 C   0  0  0  0  0  0  0  0  0  0  0  0
   -8.9840   19.6820  -32.8070 C   0  0  0  0  0  0  0  0  0  0  0  0
   -2.7197   18.9488  -31.8318 H   0  0  0  0  0  0  0  0  0  0  0  0
   -3.1315   17.6418  -32.9932 H   0  0  0  0  0  0  0  0  0  0  0  0
   -1.4838   18.3570  -32.9932 H   0  0  0  0  0  0  0  0  0  0  0  0
   -2.1543   20.2529  -34.1340 H   0  0  0  0  0  0  0  0  0  0  0  0
   -3.3903   19.0999  -34.7607 H   0  0  0  0  0  0  0  0  0  0  0  0
   -2.9255   22.0970  -32.4868 H   0  0  0  0  0  0  0  0  0  0  0  0
   -7.5199   23.1753  -31.4651 H   0  0  0  0  0  0  0  0  0  0  0  0
   -7.8892   25.2264  -30.0825 H   0  0  0  0  0  0  0  0  0  0  0  0
   -5.9224   26.4883  -29.1923 H   0  0  0  0  0  0  0  0  0  0  0  0
   -3.2440   23.7291  -31.0380 H   0  0  0  0  0  0  0  0  0  0  0  0
   -7.1511   21.1671  -32.3195 H   0  0  0  0  0  0  0  0  0  0  0  0
   -7.2752   15.9038  -32.8818 H   0  0  0  0  0  0  0  0  0  0  0  0
   -6.9956   16.5567  -34.5523 H   0  0  0  0  0  0  0  0  0  0  0  0
   -4.6426   16.7965  -35.4152 H   0  0  0  0  0  0  0  0  0  0  0  0
   -2.4182   15.6630  -35.4629 H   0  0  0  0  0  0  0  0  0  0  0  0
   -3.3525   13.5162  -31.9080 H   0  0  0  0  0  0  0  0  0  0  0  0
   -5.5922   14.6134  -31.7975 H   0  0  0  0  0  0  0  0  0  0  0  0
   -7.0531   17.3067  -31.0331 H   0  0  0  0  0  0  0  0  0  0  0  0
   -6.6174   19.0527  -31.2675 H   0  0  0  0  0  0  0  0  0  0  0  0
   -8.9905   17.5141  -31.7323 H   0  0  0  0  0  0  0  0  0  0  0  0
   -9.9686   20.0684  -30.7854 H   0  0  0  0  0  0  0  0  0  0  0  0
   -8.5351   20.6498  -30.6247 H   0  0  0  0  0  0  0  0  0  0  0  0
   -9.9262   19.6505  -33.3739 H   0  0  0  0  0  0  0  0  0  0  0  0
   -8.4838   20.1598  -33.6623 H   0  0  0  0  0  0  0  0  0  0  0  0
  1  2  1  0
  2  3  1  0
  3  4  1  0
  4  5  2  0
  5  6  1  0
  6  7  2  0
  7  8  1  0
  8  9  2  0
  9 10  1  0
 10 11  2  0
  5 12  1  0
 12 13  2  0
 13 14  1  0
 14 15  2  0
 14 16  1  0
 16 17  1  0
 17 18  1  0
 18 19  2  0
 19 20  1  0
 20 21  2  0
 21 22  1  0
 22 23  2  0
 16 24  1  0
 24 25  1  0
 25 26  1  0
 26 27  1  0
 13  3  1  0
 23 18  1  0
 27 25  1  0
 11  6  1  0
  1 28  1  0
  1 29  1  0
  1 30  1  0
  2 31  1  0
  2 32  1  0
  4 33  1  0
  7 34  1  0
  8 35  1  0
  9 36  1  0
 11 37  1  0
 12 38  1  0
 17 39  1  0
 17 40  1  0
 19 41  1  0
 20 42  1  0
 22 43  1  0
 23 44  1  0
 24 45  1  0
 24 46  1  0
 25 47  1  0
 26 48  1  0
 26 49  1  0
 27 50  1  0
 27 51  1  0
M  END
>  <UniqueID>  (39) 
36

>  <SMILES>  (39) 
CCn1cc(-c2cccnc2)cc1C(=O)N(Cc1ccncc1)CC1CC1

>  <Energy>  (39) 
351.2967420153513

>  <Genealogy>  (39) 
CCn1cc(-c2cccnc2)cc1C(=O)N(Cc1ccncc1)CC1CC1 (3D coordinates assigned)
CCn1cc(-c2cccnc2)cc1C(=O)N(Cc1ccncc1)CC1CC1 (nonaromatic ring conformer: 351.2967420153513 kcal/mol)

>  <smiles>  (39) 
CCn1cc(-c2cccnc2)cc1C(=O)N(Cc1ccncc1)CC1CC1

>  <score_type>  (39) 
oracle

>  <origin>  (39) 
adg

>  <m_score__min__energy>  (39) 
-8.3399999999999999

>  <m_primary>  (39) 
energy

$$$$
40:0
     RDKit          3D

 32 33  0  0  0  0  0  0  0  0999 V2000
   -2.6890   24.4940  -29.3470 C   0  0  0  0  0  0  0  0  0  0  0  0
   -3.5010   24.9160  -30.4380 O   0  0  0  0  0  0  0  0  0  0  0  0
   -4.7420   24.3500  -30.7670 C   0  0  0  0  0  0  0  0  0  0  0  0
   -4.8640   23.2480  -31.6350 C   0  0  0  0  0  0  0  0  0  0  0  0
   -6.1230   22.7150  -31.9240 C   0  0  0  0  0  0  0  0  0  0  0  0
   -7.2780   23.2740  -31.3570 C   0  0  0  0  0  0  0  0  0  0  0  0
   -8.6270   22.6540  -31.6140 C   0  0  0  0  0  0  0  0  0  0  0  0
   -8.7280   21.2390  -31.0260 C   0  0  0  0  0  0  0  0  0  0  0  0
   -8.7710   20.1900  -32.1060 C   0  0  0  0  0  0  0  0  0  0  0  0
   -9.8550   20.0060  -32.7240 O   0  0  0  0  0  0  0  0  0  0  0  0
   -7.6360   19.3580  -32.4060 N   0  0  0  0  0  0  0  0  0  0  0  0
   -6.7680   19.5370  -33.4230 C   0  0  0  0  0  0  0  0  0  0  0  0
   -5.8400   18.5180  -33.3880 C   0  0  0  0  0  0  0  0  0  0  0  0
   -6.1310   17.7110  -32.3520 N   0  0  0  0  0  0  0  0  0  0  0  0
   -7.2220   18.2410  -31.7700 C   0  0  0  0  0  0  0  0  0  0  0  0
   -7.1550   24.3740  -30.4930 C   0  0  0  0  0  0  0  0  0  0  0  0
   -5.8960   24.9060  -30.2020 C   0  0  0  0  0  0  0  0  0  0  0  0
   -3.1850   24.7518  -28.3996 H   0  0  0  0  0  0  0  0  0  0  0  0
   -2.5416   23.4052  -29.3993 H   0  0  0  0  0  0  0  0  0  0  0  0
   -1.7132   24.9991  -29.3993 H   0  0  0  0  0  0  0  0  0  0  0  0
   -3.9646   22.8049  -32.0874 H   0  0  0  0  0  0  0  0  0  0  0  0
   -6.2089   21.8517  -32.6003 H   0  0  0  0  0  0  0  0  0  0  0  0
   -9.4020   23.2858  -31.1555 H   0  0  0  0  0  0  0  0  0  0  0  0
   -8.7673   22.5817  -32.7026 H   0  0  0  0  0  0  0  0  0  0  0  0
   -7.8529   21.0557  -30.3853 H   0  0  0  0  0  0  0  0  0  0  0  0
   -9.6607   21.1737  -30.4465 H   0  0  0  0  0  0  0  0  0  0  0  0
   -6.7959   20.3569  -34.1558 H   0  0  0  0  0  0  0  0  0  0  0  0
   -5.0026   18.3870  -34.0892 H   0  0  0  0  0  0  0  0  0  0  0  0
   -5.6170   16.8480  -32.0620 H   0  0  0  0  0  0  0  0  0  0  0  0
   -7.7166   17.8162  -30.8840 H   0  0  0  0  0  0  0  0  0  0  0  0
   -8.0545   24.8193  -30.0428 H   0  0  0  0  0  0  0  0  0  0  0  0
   -5.8110   25.7680  -29.5240 H   0  0  0  0  0  0  0  0  0  0  0  0
  1  2  1  0
  2  3  1  0
  3  4  2  0
  4  5  1  0
  5  6  2  0
  6  7  1  0
  7  8  1  0
  8  9  1  0
  9 10  2  0
  9 11  1  0
 11 12  1  0
 12 13  2  0
 13 14  1  0
 14 15  2  0
  6 16  1  0
 16 17  2  0
 17  3  1  0
 15 11  1  0
  1 18  1  0
  1 19  1  0
  1 20  1  0
  4 21  1  0
  5 22  1  0
  7 23  1  0
  7 24  1  0
  8 25  1  0
  8 26  1  0
 12 27  1  0
 13 28  1  0
 14 29  1  0
 15 30  1  0
 16 31  1  0
 17 32  1  0
M  CHG  1  14   1
M  END
>  <UniqueID>  (40) 
37

>  <SMILES>  (40) 
COc1ccc(CCC(=O)n2cc[nH+]c2)cc1

>  <Energy>  (40) 
57.16553483068606

>  <Genealogy>  (40) 
COc1ccc(CCC(=O)n2cc[nH+]c2)cc1 (protonated)
COc1ccc(CCC(=O)n2cc[nH+]c2)cc1 (3D coordinates assigned)
COc1ccc(CCC(=O)n2cc[nH+]c2)cc1 (optimized conformer: 57.16553483068606 kcal/mol)

>  <smiles>  (40) 
COc1ccc(CCC(=O)n2ccnc2)cc1

>  <score_type>  (40) 
oracle

>  <origin>  (40) 
adg

>  <m_score__min__energy>  (40) 
-6.3200000000000003

>  <m_primary>  (40) 
energy

$$$$
41:0
     RDKit          3D

 22 22  0  0  0  0  0  0  0  0999 V2000
   -5.3100   25.4250  -30.5120 C   0  0  0  0  0  0  0  0  0  0  0  0
   -3.8590   25.3140  -30.4640 N   0  0  0  0  0  0  0  0  0  0  0  0
   -3.1810   24.0650  -30.2990 C   0  0  0  0  0  0  0  0  0  0  0  0
   -3.3370   23.1580  -31.1620 O   0  0  0  0  0  0  0  0  0  0  0  0
   -2.3010   23.8420  -29.1190 C   0  0  0  0  0  0  0  0  0  0  0  0
   -2.3710   22.6210  -28.4170 C   0  0  0  0  0  0  0  0  0  0  0  0
   -1.5510   22.3810  -27.2970 C   0  0  0  0  0  0  0  0  0  0  0  0
   -1.5940   21.1800  -26.5750 O   0  0  0  0  0  0  0  0  0  0  0  0
   -2.3380   20.0310  -26.9650 C   0  0  0  0  0  0  0  0  0  0  0  0
   -0.6570   23.3710  -26.8810 C   0  0  0  0  0  0  0  0  0  0  0  0
   -0.5760   24.5840  -27.5650 C   0  0  0  0  0  0  0  0  0  0  0  0
   -1.3870   24.8260  -28.6770 C   0  0  0  0  0  0  0  0  0  0  0  0
   -1.2720   26.0500  -29.3290 O   0  0  0  0  0  0  0  0  0  0  0  0
   -5.7095   25.4556  -29.4876 H   0  0  0  0  0  0  0  0  0  0  0  0
   -5.5899   26.3472  -31.0424 H   0  0  0  0  0  0  0  0  0  0  0  0
   -5.7269   24.5561  -31.0424 H   0  0  0  0  0  0  0  0  0  0  0  0
   -3.0762   21.8447  -28.7488 H   0  0  0  0  0  0  0  0  0  0  0  0
   -2.6841   19.4965  -26.0681 H   0  0  0  0  0  0  0  0  0  0  0  0
   -3.2063   20.3424  -27.5642 H   0  0  0  0  0  0  0  0  0  0  0  0
   -1.6985   19.3661  -27.5642 H   0  0  0  0  0  0  0  0  0  0  0  0
   -0.0124   23.1925  -26.0077 H   0  0  0  0  0  0  0  0  0  0  0  0
    0.1313   25.3555  -27.2267 H   0  0  0  0  0  0  0  0  0  0  0  0
  1  2  1  0
  2  3  1  0
  3  4  2  0
  3  5  1  0
  5  6  2  0
  6  7  1  0
  7  8  1  0
  8  9  1  0
  7 10  2  0
 10 11  1  0
 11 12  2  0
 12 13  1  0
 12  5  1  0
  1 14  1  0
  1 15  1  0
  1 16  1  0
  6 17  1  0
  9 18  1  0
  9 19  1  0
  9 20  1  0
 10 21  1  0
 11 22  1  0
M  CHG  2   2  -1  13  -1
M  END
>  <UniqueID>  (41) 
38

>  <SMILES>  (41) 
C[N-]C(=O)c1cc(OC)ccc1[O-]

>  <Energy>  (41) 
19.75700010460435

>  <Genealogy>  (41) 
C[N-]C(=O)c1cc(OC)ccc1[O-] (protonated)
C[N-]C(=O)c1cc(OC)ccc1[O-] (3D coordinates assigned)
C[N-]C(=O)c1cc(OC)ccc1[O-] (optimized conformer: 19.75700010460435 kcal/mol)

>  <smiles>  (41) 
CNC(=O)c1cc(OC)ccc1O

>  <score_type>  (41) 
oracle

>  <origin>  (41) 
adg

>  <m_score__min__energy>  (41) 
-9.2200000000000006

>  <m_primary>  (41) 
energy

$$$$
42:0
     RDKit          3D

 31 33  0  0  0  0  0  0  0  0999 V2000
   -5.4460   26.1710  -30.5370 O   0  0  0  0  0  0  0  0  0  0  0  0
   -4.9190   25.0320  -30.6530 C   0  0  0  0  0  0  0  0  0  0  0  0
   -3.5080   24.9030  -30.4350 N   0  0  0  0  0  0  0  0  0  0  0  0
   -2.8800   24.3230  -29.2810 C   0  0  0  0  0  0  0  0  0  0  0  0
   -3.3620   23.1380  -28.6880 C   0  0  0  0  0  0  0  0  0  0  0  0
   -4.4140   22.4680  -29.2200 F   0  0  0  0  0  0  0  0  0  0  0  0
   -2.7220   22.6080  -27.5630 C   0  0  0  0  0  0  0  0  0  0  0  0
   -1.5930   23.2390  -27.0350 C   0  0  0  0  0  0  0  0  0  0  0  0
   -1.0920   24.3950  -27.6370 C   0  0  0  0  0  0  0  0  0  0  0  0
   -1.7270   24.9310  -28.7620 C   0  0  0  0  0  0  0  0  0  0  0  0
   -1.2330   26.0570  -29.3360 F   0  0  0  0  0  0  0  0  0  0  0  0
   -5.7790   23.8660  -30.9740 C   0  0  0  0  0  0  0  0  0  0  0  0
   -7.0390   23.7580  -30.3840 C   0  0  0  0  0  0  0  0  0  0  0  0
   -7.8480   22.7120  -30.6810 N   0  0  0  0  0  0  0  0  0  0  0  0
   -7.4550   21.7410  -31.5510 C   0  0  0  0  0  0  0  0  0  0  0  0
   -8.3240   20.6780  -31.8410 C   0  0  0  0  0  0  0  0  0  0  0  0
   -7.9240   19.6800  -32.7240 C   0  0  0  0  0  0  0  0  0  0  0  0
   -6.6640   19.7420  -33.3100 C   0  0  0  0  0  0  0  0  0  0  0  0
   -5.8150   20.8080  -33.0060 C   0  0  0  0  0  0  0  0  0  0  0  0
   -6.2060   21.7960  -32.1370 N   0  0  0  0  0  0  0  0  0  0  0  0
   -5.3630   22.8410  -31.8430 C   0  0  0  0  0  0  0  0  0  0  0  0
   -4.1980   22.8770  -32.3330 O   0  0  0  0  0  0  0  0  0  0  0  0
   -3.1087   21.6919  -27.0927 H   0  0  0  0  0  0  0  0  0  0  0  0
   -1.0982   22.8248  -26.1441 H   0  0  0  0  0  0  0  0  0  0  0  0
   -0.1969   24.8847  -27.2260 H   0  0  0  0  0  0  0  0  0  0  0  0
   -7.3776   24.5265  -29.6736 H   0  0  0  0  0  0  0  0  0  0  0  0
   -8.7910   22.6700  -30.2310 H   0  0  0  0  0  0  0  0  0  0  0  0
   -9.3180   20.6340  -31.3718 H   0  0  0  0  0  0  0  0  0  0  0  0
   -8.6013   18.8454  -32.9577 H   0  0  0  0  0  0  0  0  0  0  0  0
   -6.3387   18.9566  -34.0081 H   0  0  0  0  0  0  0  0  0  0  0  0
   -4.8186   20.8568  -33.4695 H   0  0  0  0  0  0  0  0  0  0  0  0
  1  2  2  0
  2  3  1  0
  3  4  1  0
  4  5  2  0
  5  6  1  0
  5  7  1  0
  7  8  2  0
  8  9  1  0
  9 10  2  0
 10 11  1  0
  2 12  1  0
 12 13  2  0
 13 14  1  0
 14 15  2  0
 15 16  1  0
 16 17  2  0
 17 18  1  0
 18 19  2  0
 19 20  1  0
 20 21  1  0
 21 22  2  0
 10  4  1  0
 21 12  1  0
 20 15  1  0
  7 23  1  0
  8 24  1  0
  9 25  1  0
 13 26  1  0
 14 27  1  0
 16 28  1  0
 17 29  1  0
 18 30  1  0
 19 31  1  0
M  CHG  2   3  -1  14   1
M  END
>  <UniqueID>  (42) 
39

>  <SMILES>  (42) 
O=C([N-]c1c(F)cccc1F)c1c[nH+]c2ccccn2c1=O

>  <Energy>  (42) 
49.943285760743755

>  <Genealogy>  (42) 
O=C([N-]c1c(F)cccc1F)c1c[nH+]c2ccccn2c1=O (protonated)
O=C([N-]c1c(F)cccc1F)c1c[nH+]c2ccccn2c1=O (3D coordinates assigned)
O=C([N-]c1c(F)cccc1F)c1c[nH+]c2ccccn2c1=O (optimized conformer: 49.943285760743755 kcal/mol)

>  <smiles>  (42) 
O=C(Nc1c(F)cccc1F)c1cnc2ccccn2c1=O

>  <score_type>  (42) 
oracle

>  <origin>  (42) 
adg

>  <m_score__min__energy>  (42) 
-8.9399999999999995

>  <m_primary>  (42) 
energy

$$$$
43:0
     RDKit          3D

 32 33  0  0  0  0  0  0  0  0999 V2000
   -6.3450   25.6790  -29.3950 C   0  0  0  0  0  0  0  0  0  0  0  0
   -6.1370   24.4780  -30.2680 C   0  0  0  0  0  0  0  0  0  0  0  0
   -4.8400   24.0080  -30.5270 C   0  0  0  0  0  0  0  0  0  0  0  0
   -4.6410   22.8680  -31.3210 C   0  0  0  0  0  0  0  0  0  0  0  0
   -3.2540   22.3530  -31.5700 C   0  0  0  0  0  0  0  0  0  0  0  0
   -5.7520   22.1710  -31.8190 C   0  0  0  0  0  0  0  0  0  0  0  0
   -7.0480   22.6230  -31.5470 C   0  0  0  0  0  0  0  0  0  0  0  0
   -8.4630   21.7250  -32.1850 S   0  0  0  0  0  0  0  0  0  0  0  0
   -8.0050   20.1700  -31.3540 C   0  0  0  0  0  0  0  0  0  0  0  0
   -7.3190   19.2620  -32.3350 C   0  0  0  0  0  0  0  0  0  0  0  0
   -6.7220   19.7910  -33.4900 C   0  0  0  0  0  0  0  0  0  0  0  0
   -6.1120   18.9410  -34.4190 C   0  0  0  0  0  0  0  0  0  0  0  0
   -6.1030   17.5600  -34.2040 C   0  0  0  0  0  0  0  0  0  0  0  0
   -6.7080   17.0270  -33.0630 C   0  0  0  0  0  0  0  0  0  0  0  0
   -7.3190   17.8720  -32.1320 C   0  0  0  0  0  0  0  0  0  0  0  0
   -7.2400   23.7730  -30.7730 C   0  0  0  0  0  0  0  0  0  0  0  0
   -6.2928   25.3777  -28.3384 H   0  0  0  0  0  0  0  0  0  0  0  0
   -5.5624   26.4235  -29.6031 H   0  0  0  0  0  0  0  0  0  0  0  0
   -7.3324   26.1170  -29.6031 H   0  0  0  0  0  0  0  0  0  0  0  0
   -3.9731   24.5371  -30.1045 H   0  0  0  0  0  0  0  0  0  0  0  0
   -2.7537   22.1672  -30.6081 H   0  0  0  0  0  0  0  0  0  0  0  0
   -3.3083   21.4151  -32.1422 H   0  0  0  0  0  0  0  0  0  0  0  0
   -2.6831   23.0991  -32.1422 H   0  0  0  0  0  0  0  0  0  0  0  0
   -5.6037   21.2655  -32.4257 H   0  0  0  0  0  0  0  0  0  0  0  0
   -7.3244   20.3877  -30.5177 H   0  0  0  0  0  0  0  0  0  0  0  0
   -8.9111   19.6782  -30.9704 H   0  0  0  0  0  0  0  0  0  0  0  0
   -6.7338   20.8769  -33.6653 H   0  0  0  0  0  0  0  0  0  0  0  0
   -5.6391   19.3600  -35.3194 H   0  0  0  0  0  0  0  0  0  0  0  0
   -5.6197   16.8929  -34.9330 H   0  0  0  0  0  0  0  0  0  0  0  0
   -6.7035   15.9396  -32.8968 H   0  0  0  0  0  0  0  0  0  0  0  0
   -7.8007   17.4477  -31.2387 H   0  0  0  0  0  0  0  0  0  0  0  0
   -8.2599   24.1257  -30.5597 H   0  0  0  0  0  0  0  0  0  0  0  0
  1  2  1  0
  2  3  2  0
  3  4  1  0
  4  5  1  0
  4  6  2  0
  6  7  1  0
  7  8  1  0
  8  9  1  0
  9 10  1  0
 10 11  2  0
 11 12  1  0
 12 13  2  0
 13 14  1  0
 14 15  2  0
  7 16  2  0
 16  2  1  0
 15 10  1  0
  1 17  1  0
  1 18  1  0
  1 19  1  0
  3 20  1  0
  5 21  1  0
  5 22  1  0
  5 23  1  0
  6 24  1  0
  9 25  1  0
  9 26  1  0
 11 27  1  0
 12 28  1  0
 13 29  1  0
 14 30  1  0
 15 31  1  0
 16 32  1  0
M  END
>  <UniqueID>  (43) 
40

>  <SMILES>  (43) 
Cc1cc(C)cc(SCc2ccccc2)c1

>  <Energy>  (43) 
25.761872188667844

>  <Genealogy>  (43) 
Cc1cc(C)cc(SCc2ccccc2)c1 (3D coordinates assigned)
Cc1cc(C)cc(SCc2ccccc2)c1 (optimized conformer: 25.761872188667844 kcal/mol)

>  <smiles>  (43) 
Cc1cc(C)cc(SCc2ccccc2)c1

>  <score_type>  (43) 
oracle

>  <origin>  (43) 
adg

>  <m_score__min__energy>  (43) 
-6.9699999999999998

>  <m_primary>  (43) 
energy

$$$$
44:0
     RDKit          3D

 35 37  0  0  0  0  0  0  0  0999 V2000
  -10.1720   20.9738  -31.4596 H   0  0  0  0  0  0  0  0  0  0  0  0
   -9.0830   21.1240  -31.4980 C   0  0  0  0  0  0  0  0  0  0  0  0
   -8.5920   22.2080  -30.9680 N   0  0  0  0  0  0  0  0  0  0  0  0
   -8.1530   23.3940  -31.6980 C   0  0  0  0  0  0  0  0  0  0  0  0
   -7.9469   23.1265  -32.7449 H   0  0  0  0  0  0  0  0  0  0  0  0
   -8.9418   24.1601  -31.6676 H   0  0  0  0  0  0  0  0  0  0  0  0
   -6.9090   23.9280  -31.0640 C   0  0  0  0  0  0  0  0  0  0  0  0
   -6.8260   24.9430  -30.1120 C   0  0  0  0  0  0  0  0  0  0  0  0
   -7.6818   25.5257  -29.7404 H   0  0  0  0  0  0  0  0  0  0  0  0
   -5.5450   25.1110  -29.7090 N   0  0  0  0  0  0  0  0  0  0  0  0
   -5.1910   25.7950  -29.0040 H   0  0  0  0  0  0  0  0  0  0  0  0
   -4.8300   24.2030  -30.3900 C   0  0  0  0  0  0  0  0  0  0  0  0
   -3.4930   23.9940  -30.2870 N   0  0  0  0  0  0  0  0  0  0  0  0
   -2.9160   23.0090  -31.0390 C   0  0  0  0  0  0  0  0  0  0  0  0
   -1.8325   22.8329  -30.9678 H   0  0  0  0  0  0  0  0  0  0  0  0
   -3.6990   22.2150  -31.9070 C   0  0  0  0  0  0  0  0  0  0  0  0
   -3.2263   21.4238  -32.5075 H   0  0  0  0  0  0  0  0  0  0  0  0
   -5.0840   22.4390  -32.0010 C   0  0  0  0  0  0  0  0  0  0  0  0
   -5.7177   21.8330  -32.6653 H   0  0  0  0  0  0  0  0  0  0  0  0
   -5.6210   23.4580  -31.2200 C   0  0  0  0  0  0  0  0  0  0  0  0
   -8.2570   20.0850  -32.1480 C   0  0  0  0  0  0  0  0  0  0  0  0
   -8.4040   18.7490  -31.7550 C   0  0  0  0  0  0  0  0  0  0  0  0
   -9.1423   18.4843  -30.9837 H   0  0  0  0  0  0  0  0  0  0  0  0
   -7.6180   17.7490  -32.3370 C   0  0  0  0  0  0  0  0  0  0  0  0
   -7.7530   16.7000  -32.0348 H   0  0  0  0  0  0  0  0  0  0  0  0
   -6.6550   18.0810  -33.3080 C   0  0  0  0  0  0  0  0  0  0  0  0
   -5.8430   17.1160  -33.9230 O   0  0  0  0  0  0  0  0  0  0  0  0
   -4.8570   17.4060  -34.9100 C   0  0  0  0  0  0  0  0  0  0  0  0
   -3.9141   17.6833  -34.4160 H   0  0  0  0  0  0  0  0  0  0  0  0
   -4.6944   16.5176  -35.5380 H   0  0  0  0  0  0  0  0  0  0  0  0
   -5.2013   18.2409  -35.5380 H   0  0  0  0  0  0  0  0  0  0  0  0
   -6.4900   19.4210  -33.6760 C   0  0  0  0  0  0  0  0  0  0  0  0
   -5.7343   19.6909  -34.4284 H   0  0  0  0  0  0  0  0  0  0  0  0
   -7.2780   20.4200  -33.0950 C   0  0  0  0  0  0  0  0  0  0  0  0
   -7.1295   21.4716  -33.3816 H   0  0  0  0  0  0  0  0  0  0  0  0
  1  2  1  0
  2  3  2  0
  3  4  1  0
  4  5  1  0
  4  6  1  0
  4  7  1  0
  7  8  2  0
  8  9  1  0
  8 10  1  0
 10 11  1  0
 10 12  1  0
 12 13  2  0
 13 14  1  0
 14 15  1  0
 14 16  2  0
 16 17  1  0
 16 18  1  0
 18 19  1  0
 18 20  2  0
  2 21  1  0
 21 22  2  0
 22 23  1  0
 22 24  1  0
 24 25  1  0
 24 26  2  0
 26 27  1  0
 27 28  1  0
 28 29  1  0
 28 30  1  0
 28 31  1  0
 26 32  1  0
 32 33  1  0
 32 34  2  0
 34 35  1  0
 20  7  1  0
 34 21  1  0
 20 12  1  0
M  END
>  <UniqueID>  (44) 
41

>  <SMILES>  (44) 
COc1ccc(/C=N\Cc2c[nH]c3ncccc23)cc1

>  <Energy>  (44) 
76.61438548156998

>  <Genealogy>  (44) 
COc1ccc(/C=N\Cc2c[nH]c3ncccc23)cc1 (cis-trans isomerization)
COc1ccc(/C=N\Cc2c[nH]c3ncccc23)cc1 (3D coordinates assigned)
COc1ccc(/C=N\Cc2c[nH]c3ncccc23)cc1 (optimized conformer: 76.61438548156998 kcal/mol)

>  <smiles>  (44) 
COc1ccc(C=NCc2c[nH]c3ncccc23)cc1

>  <score_type>  (44) 
oracle

>  <origin>  (44) 
adg

>  <m_score__min__energy>  (44) 
-7.7999999999999998

>  <m_primary>  (44) 
energy

$$$$
45:0
     RDKit          3D

 30 31  0  0  0  0  0  0  0  0999 V2000
   -8.5120   19.3330  -32.2640 C   0  0  0  0  0  0  0  0  0  0  0  0
   -7.8640   20.3900  -32.9630 O   0  0  0  0  0  0  0  0  0  0  0  0
   -7.2030   21.4610  -32.3430 C   0  0  0  0  0  0  0  0  0  0  0  0
   -5.8140   21.6590  -32.4580 C   0  0  0  0  0  0  0  0  0  0  0  0
   -5.2020   22.7430  -31.8200 C   0  0  0  0  0  0  0  0  0  0  0  0
   -5.9660   23.6420  -31.0670 C   0  0  0  0  0  0  0  0  0  0  0  0
   -5.1920   25.0120  -30.2770 S   0  0  0  0  0  0  0  0  0  0  0  0
   -5.5300   24.9820  -28.8120 O   0  0  0  0  0  0  0  0  0  0  0  0
   -5.6770   26.3070  -30.8660 O   0  0  0  0  0  0  0  0  0  0  0  0
   -3.4710   24.9130  -30.4630 N   0  0  0  0  0  0  0  0  0  0  0  0
   -2.5980   24.0940  -29.6690 C   0  0  0  0  0  0  0  0  0  0  0  0
   -2.7400   22.6980  -29.6030 C   0  0  0  0  0  0  0  0  0  0  0  0
   -1.8730   21.9460  -28.8110 C   0  0  0  0  0  0  0  0  0  0  0  0
   -0.8660   22.5920  -28.0930 C   0  0  0  0  0  0  0  0  0  0  0  0
   -0.7340   23.9440  -28.1670 N   0  0  0  0  0  0  0  0  0  0  0  0
   -1.5700   24.7020  -28.9320 C   0  0  0  0  0  0  0  0  0  0  0  0
   -1.4160   25.9530  -28.9720 O   0  0  0  0  0  0  0  0  0  0  0  0
   -7.3480   23.4440  -30.9470 C   0  0  0  0  0  0  0  0  0  0  0  0
   -7.9610   22.3600  -31.5830 C   0  0  0  0  0  0  0  0  0  0  0  0
   -8.4127   19.4949  -31.1805 H   0  0  0  0  0  0  0  0  0  0  0  0
   -9.5777   19.3130  -32.5356 H   0  0  0  0  0  0  0  0  0  0  0  0
   -8.0463   18.3742  -32.5356 H   0  0  0  0  0  0  0  0  0  0  0  0
   -5.2078   20.9589  -33.0516 H   0  0  0  0  0  0  0  0  0  0  0  0
   -4.1156   22.8895  -31.9105 H   0  0  0  0  0  0  0  0  0  0  0  0
   -3.5349   22.1982  -30.1759 H   0  0  0  0  0  0  0  0  0  0  0  0
   -1.9820   20.8530  -28.7528 H   0  0  0  0  0  0  0  0  0  0  0  0
   -0.1774   22.0068  -27.4658 H   0  0  0  0  0  0  0  0  0  0  0  0
    0.0280   24.4060  -27.6200 H   0  0  0  0  0  0  0  0  0  0  0  0
   -7.9524   24.1434  -30.3507 H   0  0  0  0  0  0  0  0  0  0  0  0
   -9.0467   22.2125  -31.4855 H   0  0  0  0  0  0  0  0  0  0  0  0
  1  2  1  0
  2  3  1  0
  3  4  2  0
  4  5  1  0
  5  6  2  0
  6  7  1  0
  7  8  2  0
  7  9  2  0
  7 10  1  0
 10 11  1  0
 11 12  2  0
 12 13  1  0
 13 14  2  0
 14 15  1  0
 15 16  1  0
 16 17  2  0
  6 18  1  0
 18 19  2  0
 19  3  1  0
 16 11  1  0
  1 20  1  0
  1 21  1  0
  1 22  1  0
  4 23  1  0
  5 24  1  0
 12 25  1  0
 13 26  1  0
 14 27  1  0
 15 28  1  0
 18 29  1  0
 19 30  1  0
M  CHG  1  10  -1
M  END
>  <UniqueID>  (45) 
42

>  <SMILES>  (45) 
COc1ccc(S(=O)(=O)[N-]c2ccc[nH]c2=O)cc1

>  <Energy>  (45) 
33.764499279971524

>  <Genealogy>  (45) 
COc1ccc(S(=O)(=O)[N-]c2ccc[nH]c2=O)cc1 (protonated)
COc1ccc(S(=O)(=O)[N-]c2ccc[nH]c2=O)cc1 (3D coordinates assigned)
COc1ccc(S(=O)(=O)[N-]c2ccc[nH]c2=O)cc1 (optimized conformer: 33.764499279971524 kcal/mol)

>  <smiles>  (45) 
COc1ccc(S(=O)(=O)Nc2ccc[nH]c2=O)cc1

>  <score_type>  (45) 
oracle

>  <origin>  (45) 
adg

>  <m_score__min__energy>  (45) 
-8.2200000000000006

>  <m_primary>  (45) 
energy

$$$$
46:0
     RDKit          3D

 29 31  0  0  0  0  0  0  0  0999 V2000
   -1.0410   17.5600  -34.9310 C   0  0  0  0  0  0  0  0  0  0  0  0
   -2.4640   17.8070  -34.5620 C   0  0  0  0  0  0  0  0  0  0  0  0
   -3.4550   16.8760  -34.7230 N   0  0  0  0  0  0  0  0  0  0  0  0
   -4.5080   17.5400  -34.2410 C   0  0  0  0  0  0  0  0  0  0  0  0
   -5.8290   17.3320  -33.9590 C   0  0  0  0  0  0  0  0  0  0  0  0
   -6.6130   16.1520  -34.1930 C   0  0  0  0  0  0  0  0  0  0  0  0
   -7.2440   15.2010  -34.3800 N   0  0  0  0  0  0  0  0  0  0  0  0
   -6.2250   18.5370  -33.3460 C   0  0  0  0  0  0  0  0  0  0  0  0
   -5.1740   19.4150  -33.2670 N   0  0  0  0  0  0  0  0  0  0  0  0
   -5.1520   20.7320  -32.6860 C   0  0  0  0  0  0  0  0  0  0  0  0
   -3.9420   21.3040  -32.2550 C   0  0  0  0  0  0  0  0  0  0  0  0
   -3.9190   22.5820  -31.6900 C   0  0  0  0  0  0  0  0  0  0  0  0
   -5.1060   23.3180  -31.5400 C   0  0  0  0  0  0  0  0  0  0  0  0
   -5.0790   24.6330  -30.9580 N   0  0  0  0  0  0  0  0  0  0  0  0
   -6.1340   25.1880  -30.5860 O   0  0  0  0  0  0  0  0  0  0  0  0
   -3.8880   25.3040  -30.7990 O   0  0  0  0  0  0  0  0  0  0  0  0
   -6.3170   22.7460  -31.9680 C   0  0  0  0  0  0  0  0  0  0  0  0
   -6.3390   21.4690  -32.5340 C   0  0  0  0  0  0  0  0  0  0  0  0
   -4.1650   18.7280  -33.8280 C   0  0  0  0  0  0  0  0  0  0  0  0
   -2.8910   18.9450  -34.0040 O   0  0  0  0  0  0  0  0  0  0  0  0
   -0.4380   17.4553  -34.0169 H   0  0  0  0  0  0  0  0  0  0  0  0
   -0.9710   16.6363  -35.5242 H   0  0  0  0  0  0  0  0  0  0  0  0
   -0.6638   18.4061  -35.5242 H   0  0  0  0  0  0  0  0  0  0  0  0
   -3.4000   15.9010  -35.0930 H   0  0  0  0  0  0  0  0  0  0  0  0
   -7.2410   18.7459  -32.9797 H   0  0  0  0  0  0  0  0  0  0  0  0
   -3.0040   20.7398  -32.3636 H   0  0  0  0  0  0  0  0  0  0  0  0
   -2.9633   23.0152  -31.3600 H   0  0  0  0  0  0  0  0  0  0  0  0
   -7.2554   23.3090  -31.8562 H   0  0  0  0  0  0  0  0  0  0  0  0
   -7.2948   21.0360  -32.8640 H   0  0  0  0  0  0  0  0  0  0  0  0
  1  2  1  0
  2  3  2  0
  3  4  1  0
  4  5  1  0
  5  6  1  0
  6  7  3  0
  5  8  2  0
  8  9  1  0
  9 10  1  0
 10 11  2  0
 11 12  1  0
 12 13  2  0
 13 14  1  0
 14 15  2  0
 14 16  1  0
 13 17  1  0
 17 18  2  0
  9 19  1  0
 19 20  1  0
 20  2  1  0
 19  4  2  0
 18 10  1  0
  1 21  1  0
  1 22  1  0
  1 23  1  0
  3 24  1  0
  8 25  1  0
 11 26  1  0
 12 27  1  0
 17 28  1  0
 18 29  1  0
M  CHG  3   3   1  14   1  16  -1
M  END
>  <UniqueID>  (46) 
43

>  <SMILES>  (46) 
Cc1[nH+]c2c(C#N)cn(-c3ccc([N+](=O)[O-])cc3)c2o1

>  <Energy>  (46) 
127.79549207513689

>  <Genealogy>  (46) 
Cc1[nH+]c2c(C#N)cn(-c3ccc([N+](=O)[O-])cc3)c2o1 (protonated)
Cc1[nH+]c2c(C#N)cn(-c3ccc([N+](=O)[O-])cc3)c2o1 (3D coordinates assigned)
Cc1[nH+]c2c(C#N)cn(-c3ccc([N+](=O)[O-])cc3)c2o1 (optimized conformer: 127.79549207513689 kcal/mol)

>  <smiles>  (46) 
Cc1nc2c(C#N)cn(-c3ccc([N+](=O)[O-])cc3)c2o1

>  <score_type>  (46) 
oracle

>  <origin>  (46) 
adg

>  <m_score__min__energy>  (46) 
-6.4000000000000004

>  <m_primary>  (46) 
energy

$$$$
47:0
     RDKit          3D

 36 38  0  0  0  0  0  0  0  0999 V2000
   -6.0770   25.0070  -29.3670 C   0  0  0  0  0  0  0  0  0  0  0  0
   -5.0270   24.4480  -30.6890 S   0  0  0  0  0  0  0  0  0  0  0  0
   -5.8210   24.4230  -31.9650 O   0  0  0  0  0  0  0  0  0  0  0  0
   -3.8600   25.3850  -30.8270 O   0  0  0  0  0  0  0  0  0  0  0  0
   -4.4640   22.8540  -30.3140 N   0  0  0  0  0  0  0  0  0  0  0  0
   -3.2250   22.2790  -30.7530 C   0  0  0  0  0  0  0  0  0  0  0  0
   -2.1280   22.1520  -29.8800 C   0  0  0  0  0  0  0  0  0  0  0  0
   -0.9350   21.5790  -30.3230 C   0  0  0  0  0  0  0  0  0  0  0  0
   -0.8210   21.1230  -31.6360 C   0  0  0  0  0  0  0  0  0  0  0  0
    0.3390   20.5640  -32.0610 F   0  0  0  0  0  0  0  0  0  0  0  0
   -1.9010   21.2410  -32.5130 C   0  0  0  0  0  0  0  0  0  0  0  0
   -3.1080   21.8250  -32.0860 C   0  0  0  0  0  0  0  0  0  0  0  0
   -4.2560   21.9610  -33.0600 C   0  0  0  0  0  0  0  0  0  0  0  0
   -5.1050   20.7680  -33.0340 N   0  0  0  0  0  0  0  0  0  0  0  0
   -4.7510   19.5270  -33.4490 C   0  0  0  0  0  0  0  0  0  0  0  0
   -5.7910   18.6260  -33.2470 C   0  0  0  0  0  0  0  0  0  0  0  0
   -6.8080   19.3710  -32.6910 C   0  0  0  0  0  0  0  0  0  0  0  0
   -8.0860   19.0070  -32.2810 C   0  0  0  0  0  0  0  0  0  0  0  0
   -8.8970   19.9750  -31.7600 N   0  0  0  0  0  0  0  0  0  0  0  0
   -8.4830   21.2770  -31.6380 C   0  0  0  0  0  0  0  0  0  0  0  0
   -7.1920   21.6570  -32.0490 C   0  0  0  0  0  0  0  0  0  0  0  0
   -6.3690   20.6600  -32.5750 C   0  0  0  0  0  0  0  0  0  0  0  0
   -5.6130   24.7600  -28.4007 H   0  0  0  0  0  0  0  0  0  0  0  0
   -6.2117   26.0962  -29.4413 H   0  0  0  0  0  0  0  0  0  0  0  0
   -7.0558   24.5106  -29.4413 H   0  0  0  0  0  0  0  0  0  0  0  0
   -2.2116   22.5066  -28.8421 H   0  0  0  0  0  0  0  0  0  0  0  0
   -0.0821   21.4868  -29.6345 H   0  0  0  0  0  0  0  0  0  0  0  0
   -1.8076   20.8745  -33.5459 H   0  0  0  0  0  0  0  0  0  0  0  0
   -4.8594   22.8389  -32.7858 H   0  0  0  0  0  0  0  0  0  0  0  0
   -3.8458   22.0794  -34.0737 H   0  0  0  0  0  0  0  0  0  0  0  0
   -3.7751   19.2681  -33.8856 H   0  0  0  0  0  0  0  0  0  0  0  0
   -5.7998   17.5511  -33.4806 H   0  0  0  0  0  0  0  0  0  0  0  0
   -8.4344   17.9678  -32.3737 H   0  0  0  0  0  0  0  0  0  0  0  0
   -9.8600   19.7170  -31.4480 H   0  0  0  0  0  0  0  0  0  0  0  0
   -9.1652   22.0296  -31.2158 H   0  0  0  0  0  0  0  0  0  0  0  0
   -6.8456   22.6972  -31.9594 H   0  0  0  0  0  0  0  0  0  0  0  0
  1  2  1  0
  2  3  2  0
  2  4  2  0
  2  5  1  0
  5  6  1  0
  6  7  2  0
  7  8  1  0
  8  9  2  0
  9 10  1  0
  9 11  1  0
 11 12  2  0
 12 13  1  0
 13 14  1  0
 14 15  1  0
 15 16  2  0
 16 17  1  0
 17 18  2  0
 18 19  1  0
 19 20  2  0
 20 21  1  0
 21 22  2  0
 12  6  1  0
 22 14  1  0
 22 17  1  0
  1 23  1  0
  1 24  1  0
  1 25  1  0
  7 26  1  0
  8 27  1  0
 11 28  1  0
 13 29  1  0
 13 30  1  0
 15 31  1  0
 16 32  1  0
 18 33  1  0
 19 34  1  0
 20 35  1  0
 21 36  1  0
M  CHG  2   5  -1  19   1
M  END
>  <UniqueID>  (47) 
44

>  <SMILES>  (47) 
CS(=O)(=O)[N-]c1ccc(F)cc1Cn1ccc2c[nH+]ccc21

>  <Energy>  (47) 
70.28320524650981

>  <Genealogy>  (47) 
CS(=O)(=O)[N-]c1ccc(F)cc1Cn1ccc2c[nH+]ccc21 (protonated)
CS(=O)(=O)[N-]c1ccc(F)cc1Cn1ccc2c[nH+]ccc21 (3D coordinates assigned)
CS(=O)(=O)[N-]c1ccc(F)cc1Cn1ccc2c[nH+]ccc21 (optimized conformer: 70.28320524650981 kcal/mol)

>  <smiles>  (47) 
CS(=O)(=O)Nc1ccc(F)cc1Cn1ccc2cnccc21

>  <score_type>  (47) 
oracle

>  <origin>  (47) 
adg

>  <m_score__min__energy>  (47) 
-8.8399999999999999

>  <m_primary>  (47) 
energy

$$$$
48:0
     RDKit          3D

 28 30  0  0  0  0  0  0  0  0999 V2000
   -6.5600   25.6440  -29.7370 C   0  0  0  0  0  0  0  0  0  0  0  0
   -6.0300   24.2140  -29.8300 C   0  0  1  0  0  0  0  0  0  0  0  0
   -7.0330   23.3880  -30.4310 O   0  0  0  0  0  0  0  0  0  0  0  0
   -6.7560   22.1910  -31.1060 C   0  0  0  0  0  0  0  0  0  0  0  0
   -5.4530   21.9320  -31.5860 C   0  0  0  0  0  0  0  0  0  0  0  0
   -5.1830   20.7320  -32.2720 C   0  0  0  0  0  0  0  0  0  0  0  0
   -6.2210   19.8190  -32.4670 C   0  0  0  0  0  0  0  0  0  0  0  0
   -7.4900   20.0750  -32.0120 C   0  0  0  0  0  0  0  0  0  0  0  0
   -7.7880   21.2610  -31.3290 C   0  0  0  0  0  0  0  0  0  0  0  0
   -9.4180   21.5800  -30.7530 Cl  0  0  0  0  0  0  0  0  0  0  0  0
   -8.4260   18.9720  -32.3420 C   0  0  0  0  0  0  0  0  0  0  0  0
   -7.5530   17.9430  -33.0840 C   0  0  0  0  0  0  0  0  0  0  0  0
   -6.1260   18.5180  -33.1650 C   0  0  0  0  0  0  0  0  0  0  0  0
   -4.4120   22.9570  -31.3910 C   0  0  0  0  0  0  0  0  0  0  0  0
   -3.2690   22.8240  -31.9050 O   0  0  0  0  0  0  0  0  0  0  0  0
   -4.7260   24.1500  -30.5920 C   0  0  0  0  0  0  0  0  0  0  0  0
   -3.8670   25.0660  -30.4700 O   0  0  0  0  0  0  0  0  0  0  0  0
   -6.6653   25.9280  -28.6795 H   0  0  0  0  0  0  0  0  0  0  0  0
   -5.8560   26.3289  -30.2323 H   0  0  0  0  0  0  0  0  0  0  0  0
   -7.5403   25.7046  -30.2323 H   0  0  0  0  0  0  0  0  0  0  0  0
   -5.8131   23.8426  -28.8176 H   0  0  0  0  0  0  0  0  0  0  0  0
   -4.1716   20.5178  -32.6477 H   0  0  0  0  0  0  0  0  0  0  0  0
   -8.8513   18.5346  -31.4267 H   0  0  0  0  0  0  0  0  0  0  0  0
   -9.2806   19.3118  -32.9455 H   0  0  0  0  0  0  0  0  0  0  0  0
   -7.5436   16.9914  -32.5324 H   0  0  0  0  0  0  0  0  0  0  0  0
   -7.9513   17.7522  -34.0915 H   0  0  0  0  0  0  0  0  0  0  0  0
   -5.4086   17.8550  -32.6593 H   0  0  0  0  0  0  0  0  0  0  0  0
   -5.7700   18.6196  -34.2008 H   0  0  0  0  0  0  0  0  0  0  0  0
  1  2  1  0
  2  3  1  0
  3  4  1  0
  4  5  2  0
  5  6  1  0
  6  7  2  0
  7  8  1  0
  8  9  2  0
  9 10  1  0
  8 11  1  0
 11 12  1  0
 12 13  1  0
  5 14  1  0
 14 15  2  0
 14 16  1  0
 16 17  2  0
 16  2  1  0
  9  4  1  0
 13  7  1  0
  1 18  1  0
  1 19  1  0
  1 20  1  0
  2 21  1  1
  6 22  1  0
 11 23  1  0
 11 24  1  0
 12 25  1  0
 12 26  1  0
 13 27  1  0
 13 28  1  0
M  END
>  <UniqueID>  (48) 
45

>  <SMILES>  (48) 
C[C@H]1Oc2c(cc3c(c2Cl)CCC3)C(=O)C1=O

>  <Energy>  (48) 
37.787540178408754

>  <Genealogy>  (48) 
C[C@H]1Oc2c(cc3c(c2Cl)CCC3)C(=O)C1=O (chirality)
C[C@H]1Oc2c(cc3c(c2Cl)CCC3)C(=O)C1=O (3D coordinates assigned)
C[C@H]1Oc2c(cc3c(c2Cl)CCC3)C(=O)C1=O (nonaromatic ring conformer: 37.787540178408754 kcal/mol)

>  <smiles>  (48) 
CC1Oc2c(cc3c(c2Cl)CCC3)C(=O)C1=O

>  <score_type>  (48) 
oracle

>  <origin>  (48) 
adg

>  <m_score__min__energy>  (48) 
-8.2300000000000004

>  <m_primary>  (48) 
energy

$$$$
