0:0
     RDKit          3D

 51 54  0  0  1  0  0  0  0  0999 V2000
   -6.6690   23.6340  -31.9810 C   0  0  0  0  0  0  0  0  0  0  0  0
   -5.4000   23.6320  -31.2830 N   0  0  0  0  0  0  0  0  0  0  0  0
   -5.1560   24.2560  -30.1170 C   0  0  0  0  0  0  0  0  0  0  0  0
   -3.8540   24.0310  -29.7560 C   0  0  0  0  0  0  0  0  0  0  0  0
   -3.1970   24.5360  -28.5620 C   0  0  0  0  0  0  0  0  0  0  0  0
   -3.6670   24.5220  -27.2820 C   0  0  0  0  0  0  0  0  0  0  0  0
   -2.9100   25.0410  -26.3100 C   0  0  0  0  0  0  0  0  0  0  0  0
   -1.6890   25.5630  -26.6630 C   0  0  0  0  0  0  0  0  0  0  0  0
   -1.6180   25.2960  -28.4980 S   0  0  0  0  0  0  0  0  0  0  0  0
   -3.3190   23.2720  -30.7040 N   0  0  0  0  0  0  0  0  0  0  0  0
   -4.2660   23.0190  -31.6550 C   0  0  0  0  0  0  0  0  0  0  0  0
   -3.9040   22.0380  -33.0910 S   0  0  0  0  0  0  0  0  0  0  0  0
   -2.7670   20.7080  -32.7610 C   0  0  0  0  0  0  0  0  0  0  0  0
   -2.8130   19.6300  -33.8570 C   0  0  0  0  0  0  0  0  0  0  0  0
   -3.9530   18.6680  -33.5670 C   0  0  0  0  0  0  0  0  0  0  0  0
   -5.1160   19.2740  -33.0590 N   0  0  0  0  0  0  0  0  0  0  0  0
   -6.1250   19.6890  -33.9510 C   0  0  0  0  0  0  0  0  0  0  0  0
   -7.4980   19.7250  -33.3130 C   0  0  2  0  0  0  0  0  0  0  0  0
   -7.3410   20.6150  -32.0790 C   0  0  0  0  0  0  0  0  0  0  0  0
   -6.8780   19.3430  -31.3730 C   0  0  2  0  0  0  0  0  0  0  0  0
   -5.4070   19.1810  -31.6860 C   0  0  0  0  0  0  0  0  0  0  0  0
   -7.7300   18.5830  -32.3420 C   0  0  0  0  0  0  0  0  0  0  0  0
   -7.2300   17.2430  -32.7740 C   0  0  0  0  0  0  0  0  0  0  0  0
   -9.1680   18.5220  -31.9380 C   0  0  0  0  0  0  0  0  0  0  0  0
   -7.4901   23.6353  -31.2490 H   0  0  0  0  0  0  0  0  0  0  0  0
   -6.7389   24.5323  -32.6121 H   0  0  0  0  0  0  0  0  0  0  0  0
   -6.7418   22.7360  -32.6121 H   0  0  0  0  0  0  0  0  0  0  0  0
   -5.8840   24.8507  -29.5458 H   0  0  0  0  0  0  0  0  0  0  0  0
   -4.6527   24.0908  -27.0530 H   0  0  0  0  0  0  0  0  0  0  0  0
   -3.2525   25.0498  -25.2647 H   0  0  0  0  0  0  0  0  0  0  0  0
   -0.9336   26.0283  -26.0128 H   0  0  0  0  0  0  0  0  0  0  0  0
   -1.7473   21.1169  -32.7068 H   0  0  0  0  0  0  0  0  0  0  0  0
   -3.0571   20.2394  -31.8090 H   0  0  0  0  0  0  0  0  0  0  0  0
   -2.9743   20.1069  -34.8350 H   0  0  0  0  0  0  0  0  0  0  0  0
   -1.8609   19.0794  -33.8727 H   0  0  0  0  0  0  0  0  0  0  0  0
   -4.2150   18.1543  -34.5037 H   0  0  0  0  0  0  0  0  0  0  0  0
   -3.5917   17.9832  -32.7856 H   0  0  0  0  0  0  0  0  0  0  0  0
   -6.1511   18.9909  -34.8007 H   0  0  0  0  0  0  0  0  0  0  0  0
   -5.8825   20.7134  -34.2699 H   0  0  0  0  0  0  0  0  0  0  0  0
   -8.1956   19.8837  -34.1486 H   0  0  0  0  0  0  0  0  0  0  0  0
   -8.2758   21.0486  -31.6942 H   0  0  0  0  0  0  0  0  0  0  0  0
   -6.7507   21.5432  -32.0840 H   0  0  0  0  0  0  0  0  0  0  0  0
   -6.9604   19.1633  -30.2909 H   0  0  0  0  0  0  0  0  0  0  0  0
   -5.0802   18.1943  -31.3261 H   0  0  0  0  0  0  0  0  0  0  0  0
   -4.8751   20.0028  -31.1842 H   0  0  0  0  0  0  0  0  0  0  0  0
   -7.0025   16.6332  -31.8872 H   0  0  0  0  0  0  0  0  0  0  0  0
   -8.0012   16.7406  -33.3764 H   0  0  0  0  0  0  0  0  0  0  0  0
   -6.3182   17.3686  -33.3764 H   0  0  0  0  0  0  0  0  0  0  0  0
   -9.2407   18.5189  -30.8404 H   0  0  0  0  0  0  0  0  0  0  0  0
   -9.6988   19.3984  -32.3382 H   0  0  0  0  0  0  0  0  0  0  0  0
   -9.6227   17.6038  -32.3382 H   0  0  0  0  0  0  0  0  0  0  0  0
  1  2  1  0
  2  3  1  0
  3  4  2  0
  4  5  1  0
  5  6  2  0
  6  7  1  0
  7  8  2  0
  8  9  1  0
  4 10  1  0
 10 11  2  0
 11 12  1  0
 12 13  1  0
 13 14  1  0
 14 15  1  0
 15 16  1  0
 16 17  1  0
 17 18  1  0
 18 19  1  0
 19 20  1  0
 20 21  1  0
 20 22  1  0
 22 23  1  0
 22 24  1  0
 11  2  1  0
 21 16  1  0
  9  5  1  0
 22 18  1  0
  1 25  1  0
  1 26  1  0
  1 27  1  0
  3 28  1  0
  6 29  1  0
  7 30  1  0
  8 31  1  0
 13 32  1  0
 13 33  1  0
 14 34  1  0
 14 35  1  0
 15 36  1  0
 15 37  1  0
 17 38  1  0
 17 39  1  0
 18 40  1  6
 19 41  1  0
 19 42  1  0
 20 43  1  1
 21 44  1  0
 21 45  1  0
 23 46  1  0
 23 47  1  0
 23 48  1  0
 24 49  1  0
 24 50  1  0
 24 51  1  0
M  END
>  <smiles>  (1) 
Cn1cc(-c2cccs2)nc1SCCCN1CC2CC(C1)C2(C)C

>  <score_type>  (1) 
oracle

>  <origin>  (1) 
adg

>  <m_score__min__energy>  (1) 
-8.5500000000000007

>  <m_primary>  (1) 
energy

$$$$
1:0
     RDKit          3D

 58 60  0  0  0  0  0  0  0  0999 V2000
   -1.3860   17.0570  -35.0340 C   0  0  0  0  0  0  0  0  0  0  0  0
   -1.0520   17.4710  -33.5950 C   0  0  0  0  0  0  0  0  0  0  0  0
   -0.6260   18.8950  -33.5040 N   0  0  2  0  0  0  0  0  0  0  0  0
    0.1650   19.2740  -34.7080 C   0  0  0  0  0  0  0  0  0  0  0  0
   -0.0880   20.7260  -35.1510 C   0  0  0  0  0  0  0  0  0  0  0  0
   -1.0790   21.3170  -34.3530 O   0  0  0  0  0  0  0  0  0  0  0  0
    0.1770   19.1150  -32.2690 C   0  0  0  0  0  0  0  0  0  0  0  0
   -0.6660   19.7100  -31.1260 C   0  0  0  0  0  0  0  0  0  0  0  0
   -2.0380   19.6780  -31.4710 O   0  0  0  0  0  0  0  0  0  0  0  0
   -2.6930   20.8450  -31.0190 C   0  0  0  0  0  0  0  0  0  0  0  0
   -2.6040   21.9240  -32.0940 C   0  0  0  0  0  0  0  0  0  0  0  0
   -3.4830   21.6150  -33.2210 N   0  0  0  0  0  0  0  0  0  0  0  0
   -4.8220   21.1580  -32.9910 C   0  0  0  0  0  0  0  0  0  0  0  0
   -5.7590   21.9990  -32.3700 C   0  0  0  0  0  0  0  0  0  0  0  0
   -5.3830   23.2780  -31.9090 C   0  0  0  0  0  0  0  0  0  0  0  0
   -6.3010   24.0930  -31.2510 C   0  0  0  0  0  0  0  0  0  0  0  0
   -7.5960   23.6420  -31.0260 C   0  0  0  0  0  0  0  0  0  0  0  0
   -7.9900   22.3830  -31.4780 C   0  0  0  0  0  0  0  0  0  0  0  0
   -7.0920   21.5450  -32.1870 C   0  0  0  0  0  0  0  0  0  0  0  0
   -7.4780   20.3100  -32.6760 N   0  0  0  0  0  0  0  0  0  0  0  0
   -8.9130   19.9560  -32.7430 C   0  0  0  0  0  0  0  0  0  0  0  0
   -6.5230   19.4150  -33.1250 C   0  0  0  0  0  0  0  0  0  0  0  0
   -6.8330   18.0550  -33.3840 C   0  0  0  0  0  0  0  0  0  0  0  0
   -5.8700   17.1780  -33.8870 C   0  0  0  0  0  0  0  0  0  0  0  0
   -6.2880   15.5040  -34.2030 Cl  0  0  0  0  0  0  0  0  0  0  0  0
   -4.5760   17.6270  -34.1290 C   0  0  0  0  0  0  0  0  0  0  0  0
   -4.2290   18.9450  -33.8450 C   0  0  0  0  0  0  0  0  0  0  0  0
   -5.1830   19.8440  -33.3230 C   0  0  0  0  0  0  0  0  0  0  0  0
   -2.0766   16.2010  -35.0183 H   0  0  0  0  0  0  0  0  0  0  0  0
   -1.8595   17.9005  -35.5577 H   0  0  0  0  0  0  0  0  0  0  0  0
   -0.4614   16.7727  -35.5577 H   0  0  0  0  0  0  0  0  0  0  0  0
   -1.9449   17.3276  -32.9688 H   0  0  0  0  0  0  0  0  0  0  0  0
   -0.2159   16.8456  -33.2490 H   0  0  0  0  0  0  0  0  0  0  0  0
   -1.4830   19.4960  -33.4560 H   0  0  0  0  0  0  0  0  0  0  0  0
    1.2343   19.1574  -34.4778 H   0  0  0  0  0  0  0  0  0  0  0  0
   -0.1474   18.6156  -35.5320 H   0  0  0  0  0  0  0  0  0  0  0  0
    0.8446   21.3014  -35.0556 H   0  0  0  0  0  0  0  0  0  0  0  0
   -0.4272   20.7250  -36.1974 H   0  0  0  0  0  0  0  0  0  0  0  0
   -1.6040   21.9220  -34.9380 H   0  0  0  0  0  0  0  0  0  0  0  0
    0.5910   18.1508  -31.9391 H   0  0  0  0  0  0  0  0  0  0  0  0
    0.9757   19.8324  -32.5086 H   0  0  0  0  0  0  0  0  0  0  0  0
   -0.5065   19.1211  -30.2107 H   0  0  0  0  0  0  0  0  0  0  0  0
   -0.3600   20.7528  -30.9559 H   0  0  0  0  0  0  0  0  0  0  0  0
   -3.7495   20.6171  -30.8142 H   0  0  0  0  0  0  0  0  0  0  0  0
   -2.2112   21.2035  -30.0974 H   0  0  0  0  0  0  0  0  0  0  0  0
   -2.9019   22.8898  -31.6598 H   0  0  0  0  0  0  0  0  0  0  0  0
   -1.5677   21.9692  -32.4601 H   0  0  0  0  0  0  0  0  0  0  0  0
   -3.1790   21.7930  -34.2060 H   0  0  0  0  0  0  0  0  0  0  0  0
   -4.3552   23.6351  -32.0707 H   0  0  0  0  0  0  0  0  0  0  0  0
   -6.0007   25.0945  -30.9092 H   0  0  0  0  0  0  0  0  0  0  0  0
   -8.3131   24.2806  -30.4893 H   0  0  0  0  0  0  0  0  0  0  0  0
   -9.0145   22.0340  -31.2813 H   0  0  0  0  0  0  0  0  0  0  0  0
   -9.3142   19.8570  -31.7236 H   0  0  0  0  0  0  0  0  0  0  0  0
   -9.4609   20.7459  -33.2776 H   0  0  0  0  0  0  0  0  0  0  0  0
   -9.0307   19.0019  -33.2776 H   0  0  0  0  0  0  0  0  0  0  0  0
   -7.8496   17.6850  -33.1851 H   0  0  0  0  0  0  0  0  0  0  0  0
   -3.8253   16.9393  -34.5456 H   0  0  0  0  0  0  0  0  0  0  0  0
   -3.2006   19.2890  -34.0294 H   0  0  0  0  0  0  0  0  0  0  0  0
  1  2  1  0
  2  3  1  0
  3  4  1  0
  4  5  1  0
  5  6  1  0
  3  7  1  0
  7  8  1  0
  8  9  1  0
  9 10  1  0
 10 11  1  0
 11 12  1  0
 12 13  1  0
 13 14  2  0
 14 15  1  0
 15 16  2  0
 16 17  1  0
 17 18  2  0
 18 19  1  0
 19 20  2  0
 20 21  1  0
 20 22  1  0
 22 23  2  0
 23 24  1  0
 24 25  1  0
 24 26  2  0
 26 27  1  0
 27 28  2  0
 28 13  1  0
 19 14  1  0
 28 22  1  0
  1 29  1  0
  1 30  1  0
  1 31  1  0
  2 32  1  0
  2 33  1  0
  3 34  1  1
  4 35  1  0
  4 36  1  0
  5 37  1  0
  5 38  1  0
  6 39  1  0
  7 40  1  0
  7 41  1  0
  8 42  1  0
  8 43  1  0
 10 44  1  0
 10 45  1  0
 11 46  1  0
 11 47  1  0
 12 48  1  0
 15 49  1  0
 16 50  1  0
 17 51  1  0
 18 52  1  0
 21 53  1  0
 21 54  1  0
 21 55  1  0
 23 56  1  0
 26 57  1  0
 27 58  1  0
M  CHG  2   3   1  20   1
M  END
>  <UniqueID>  (2) 
1

>  <SMILES>  (2) 
CC[N@H+](CCO)CCOCCNc1c2ccccc2[n+](C)c2cc(Cl)ccc12

>  <Energy>  (2) 
86.79911056421338

>  <Genealogy>  (2) 
CC[NH+](CCO)CCOCCNc1c2ccccc2[n+](C)c2cc(Cl)ccc12 (protonated)
CC[N@H+](CCO)CCOCCNc1c2ccccc2[n+](C)c2cc(Cl)ccc12 (chirality)
CC[N@H+](CCO)CCOCCNc1c2ccccc2[n+](C)c2cc(Cl)ccc12 (3D coordinates assigned)
CC[N@H+](CCO)CCOCCNc1c2ccccc2[n+](C)c2cc(Cl)ccc12 (optimized conformer: 86.79911056421338 kcal/mol)

>  <smiles>  (2) 
CCN(CCO)CCOCCNc1c2ccccc2[n+](C)c2cc(Cl)ccc12

>  <score_type>  (2) 
oracle

>  <origin>  (2) 
adg

>  <m_score__min__energy>  (2) 
-8.25

>  <m_primary>  (2) 
energy

$$$$
2:0
     RDKit          3D

 33 35  0  0  0  0  0  0  0  0999 V2000
   -1.3680   25.4750  -27.7240 C   0  0  0  0  0  0  0  0  0  0  0  0
   -1.9900   25.5110  -29.0030 O   0  0  0  0  0  0  0  0  0  0  0  0
   -2.8880   24.5420  -29.4760 C   0  0  0  0  0  0  0  0  0  0  0  0
   -2.6320   23.1620  -29.3740 C   0  0  0  0  0  0  0  0  0  0  0  0
   -3.5590   22.2340  -29.8610 C   0  0  0  0  0  0  0  0  0  0  0  0
   -4.7550   22.6680  -30.4540 C   0  0  0  0  0  0  0  0  0  0  0  0
   -5.7080   21.7140  -30.9540 N   0  0  0  0  0  0  0  0  0  0  0  0
   -7.1320   21.8430  -31.0060 C   0  0  0  0  0  0  0  0  0  0  0  0
   -7.7760   22.8340  -30.5660 O   0  0  0  0  0  0  0  0  0  0  0  0
   -7.7230   20.6440  -31.5860 C   0  0  0  0  0  0  0  0  0  0  0  0
   -9.0560   20.3250  -31.8290 C   0  0  0  0  0  0  0  0  0  0  0  0
   -9.3430   19.0770  -32.4050 C   0  0  0  0  0  0  0  0  0  0  0  0
   -8.3020   18.1790  -32.7240 C   0  0  0  0  0  0  0  0  0  0  0  0
   -6.9560   18.5170  -32.4690 C   0  0  0  0  0  0  0  0  0  0  0  0
   -5.8440   17.5670  -32.8050 C   0  0  0  0  0  0  0  0  0  0  0  0
   -6.6990   19.7690  -31.8930 C   0  0  0  0  0  0  0  0  0  0  0  0
   -5.4430   20.4200  -31.5090 C   0  0  0  0  0  0  0  0  0  0  0  0
   -4.2890   19.9460  -31.6820 O   0  0  0  0  0  0  0  0  0  0  0  0
   -5.0070   24.0450  -30.5540 C   0  0  0  0  0  0  0  0  0  0  0  0
   -4.0800   24.9720  -30.0690 C   0  0  0  0  0  0  0  0  0  0  0  0
   -2.1385   25.5196  -26.9402 H   0  0  0  0  0  0  0  0  0  0  0  0
   -0.7942   24.5421  -27.6215 H   0  0  0  0  0  0  0  0  0  0  0  0
   -0.6904   26.3354  -27.6215 H   0  0  0  0  0  0  0  0  0  0  0  0
   -1.6987   22.8112  -28.9092 H   0  0  0  0  0  0  0  0  0  0  0  0
   -3.3492   21.1573  -29.7786 H   0  0  0  0  0  0  0  0  0  0  0  0
   -9.8615   21.0304  -31.5770 H   0  0  0  0  0  0  0  0  0  0  0  0
  -10.3870   18.7971  -32.6091 H   0  0  0  0  0  0  0  0  0  0  0  0
   -8.5424   17.2055  -33.1761 H   0  0  0  0  0  0  0  0  0  0  0  0
   -5.3957   17.1840  -31.8763 H   0  0  0  0  0  0  0  0  0  0  0  0
   -6.2440   16.7274  -33.3925 H   0  0  0  0  0  0  0  0  0  0  0  0
   -5.0772   18.0932  -33.3925 H   0  0  0  0  0  0  0  0  0  0  0  0
   -5.9405   24.3972  -31.0172 H   0  0  0  0  0  0  0  0  0  0  0  0
   -4.2894   26.0485  -30.1543 H   0  0  0  0  0  0  0  0  0  0  0  0
  1  2  1  0
  2  3  1  0
  3  4  2  0
  4  5  1  0
  5  6  2  0
  6  7  1  0
  7  8  1  0
  8  9  2  0
  8 10  1  0
 10 11  2  0
 11 12  1  0
 12 13  2  0
 13 14  1  0
 14 15  1  0
 14 16  2  0
 16 17  1  0
 17 18  2  0
  6 19  1  0
 19 20  2  0
 20  3  1  0
 17  7  1  0
 16 10  1  0
  1 21  1  0
  1 22  1  0
  1 23  1  0
  4 24  1  0
  5 25  1  0
 11 26  1  0
 12 27  1  0
 13 28  1  0
 15 29  1  0
 15 30  1  0
 15 31  1  0
 19 32  1  0
 20 33  1  0
M  END
>  <UniqueID>  (3) 
2

>  <SMILES>  (3) 
COc1ccc(N2C(=O)c3cccc(C)c3C2=O)cc1

>  <Energy>  (3) 
71.30874894525864

>  <Genealogy>  (3) 
COc1ccc(N2C(=O)c3cccc(C)c3C2=O)cc1 (3D coordinates assigned)
COc1ccc(N2C(=O)c3cccc(C)c3C2=O)cc1 (nonaromatic ring conformer: 71.30874894525864 kcal/mol)

>  <smiles>  (3) 
COc1ccc(N2C(=O)c3cccc(C)c3C2=O)cc1

>  <score_type>  (3) 
oracle

>  <origin>  (3) 
adg

>  <m_score__min__energy>  (3) 
-7.3600000000000003

>  <m_primary>  (3) 
energy

$$$$
3:0
     RDKit          3D

 70 73  0  0  0  0  0  0  0  0999 V2000
   -3.3880   18.8050  -26.1230 C   0  0  0  0  0  0  0  0  0  0  0  0
   -2.1000   19.0550  -26.8980 C   0  0  0  0  0  0  0  0  0  0  0  0
   -1.9530   20.4870  -27.1810 N   0  0  0  0  0  0  0  0  0  0  0  0
   -3.0310   20.9460  -28.0660 C   0  0  0  0  0  0  0  0  0  0  0  0
   -2.5970   20.8770  -29.5360 C   0  0  0  0  0  0  0  0  0  0  0  0
   -3.7680   20.8890  -30.5360 C   0  0  0  0  0  0  0  0  0  0  0  0
   -3.5300   21.8350  -31.7210 C   0  0  0  0  0  0  0  0  0  0  0  0
   -4.5200   21.6190  -32.7760 N   0  0  0  0  0  0  0  0  0  0  0  0
   -4.9680   20.2960  -33.1200 C   0  0  0  0  0  0  0  0  0  0  0  0
   -4.0280   19.3510  -33.5680 C   0  0  0  0  0  0  0  0  0  0  0  0
   -2.7100   19.7410  -33.8890 C   0  0  0  0  0  0  0  0  0  0  0  0
   -1.7590   18.8000  -34.2740 C   0  0  0  0  0  0  0  0  0  0  0  0
   -2.1010   17.4540  -34.3360 C   0  0  0  0  0  0  0  0  0  0  0  0
   -3.4020   17.0470  -34.0460 C   0  0  0  0  0  0  0  0  0  0  0  0
   -4.4040   17.9890  -33.6930 C   0  0  0  0  0  0  0  0  0  0  0  0
   -5.7060   17.6040  -33.4370 N   0  0  0  0  0  0  0  0  0  0  0  0
   -6.1540   16.2390  -33.7960 C   0  0  0  0  0  0  0  0  0  0  0  0
   -6.6020   18.5010  -32.8890 C   0  0  0  0  0  0  0  0  0  0  0  0
   -7.8320   18.0660  -32.3380 C   0  0  0  0  0  0  0  0  0  0  0  0
   -8.7690   18.9750  -31.8630 C   0  0  0  0  0  0  0  0  0  0  0  0
   -8.5300   20.3380  -31.9560 C   0  0  0  0  0  0  0  0  0  0  0  0
   -7.3130   20.8190  -32.4630 C   0  0  0  0  0  0  0  0  0  0  0  0
   -7.1730   22.2310  -32.7170 N   0  0  0  0  0  0  0  0  0  0  0  0
   -7.3480   23.2460  -31.6780 C   0  0  0  0  0  0  0  0  0  0  0  0
   -6.6800   22.7940  -30.3690 C   0  0  0  0  0  0  0  0  0  0  0  0
   -6.2440   23.9150  -29.5060 N   0  0  0  0  0  0  0  0  0  0  0  0
   -6.5790   25.2640  -30.0130 C   0  0  0  0  0  0  0  0  0  0  0  0
   -5.3380   26.0600  -30.4450 C   0  0  0  0  0  0  0  0  0  0  0  0
   -4.3360   25.1890  -30.9140 O   0  0  0  0  0  0  0  0  0  0  0  0
   -3.7980   24.4590  -29.8290 C   0  0  0  0  0  0  0  0  0  0  0  0
   -4.8790   23.7810  -28.9530 C   0  0  0  0  0  0  0  0  0  0  0  0
   -6.2940   19.8910  -32.8390 C   0  0  0  0  0  0  0  0  0  0  0  0
   -3.1801   18.8453  -25.0436 H   0  0  0  0  0  0  0  0  0  0  0  0
   -4.1280   19.5763  -26.3830 H   0  0  0  0  0  0  0  0  0  0  0  0
   -3.7857   17.8129  -26.3830 H   0  0  0  0  0  0  0  0  0  0  0  0
   -1.2429   18.7123  -26.2998 H   0  0  0  0  0  0  0  0  0  0  0  0
   -2.1378   18.5018  -27.8480 H   0  0  0  0  0  0  0  0  0  0  0  0
   -2.0400   21.0070  -26.2750 H   0  0  0  0  0  0  0  0  0  0  0  0
   -3.9139   20.3062  -27.9204 H   0  0  0  0  0  0  0  0  0  0  0  0
   -3.2695   21.9908  -27.8179 H   0  0  0  0  0  0  0  0  0  0  0  0
   -1.9527   21.7431  -29.7474 H   0  0  0  0  0  0  0  0  0  0  0  0
   -2.0747   19.9181  -29.6690 H   0  0  0  0  0  0  0  0  0  0  0  0
   -3.9094   19.8693  -30.9235 H   0  0  0  0  0  0  0  0  0  0  0  0
   -4.6579   21.2491  -29.9989 H   0  0  0  0  0  0  0  0  0  0  0  0
   -3.6006   22.8751  -31.3699 H   0  0  0  0  0  0  0  0  0  0  0  0
   -2.5306   21.6326  -32.1337 H   0  0  0  0  0  0  0  0  0  0  0  0
   -4.6880   22.3900  -33.4600 H   0  0  0  0  0  0  0  0  0  0  0  0
   -2.4303   20.8034  -33.8342 H   0  0  0  0  0  0  0  0  0  0  0  0
   -0.7382   19.1211  -34.5288 H   0  0  0  0  0  0  0  0  0  0  0  0
   -1.3424   16.7078  -34.6148 H   0  0  0  0  0  0  0  0  0  0  0  0
   -3.6569   15.9779  -34.0914 H   0  0  0  0  0  0  0  0  0  0  0  0
   -6.3433   15.6621  -32.8787 H   0  0  0  0  0  0  0  0  0  0  0  0
   -7.0791   16.3005  -34.3880 H   0  0  0  0  0  0  0  0  0  0  0  0
   -5.3724   15.7404  -34.3880 H   0  0  0  0  0  0  0  0  0  0  0  0
   -8.0493   16.9890  -32.2852 H   0  0  0  0  0  0  0  0  0  0  0  0
   -9.7041   18.6123  -31.4114 H   0  0  0  0  0  0  0  0  0  0  0  0
   -9.3025   21.0495  -31.6289 H   0  0  0  0  0  0  0  0  0  0  0  0
   -7.2100   22.5450  -33.7140 H   0  0  0  0  0  0  0  0  0  0  0  0
   -6.8902   24.1889  -32.0117 H   0  0  0  0  0  0  0  0  0  0  0  0
   -8.4235   23.3907  -31.4982 H   0  0  0  0  0  0  0  0  0  0  0  0
   -7.3991   22.1812  -29.8056 H   0  0  0  0  0  0  0  0  0  0  0  0
   -5.7764   22.2314  -30.6465 H   0  0  0  0  0  0  0  0  0  0  0  0
   -7.2484   25.1581  -30.8794 H   0  0  0  0  0  0  0  0  0  0  0  0
   -7.0598   25.8173  -29.1928 H   0  0  0  0  0  0  0  0  0  0  0  0
   -5.6165   26.7582  -31.2481 H   0  0  0  0  0  0  0  0  0  0  0  0
   -4.9509   26.6162  -29.5785 H   0  0  0  0  0  0  0  0  0  0  0  0
   -3.1323   23.6795  -30.2282 H   0  0  0  0  0  0  0  0  0  0  0  0
   -3.2606   25.1742  -29.1889 H   0  0  0  0  0  0  0  0  0  0  0  0
   -4.6396   22.7107  -28.8679 H   0  0  0  0  0  0  0  0  0  0  0  0
   -4.8711   24.2847  -27.9751 H   0  0  0  0  0  0  0  0  0  0  0  0
  1  2  1  0
  2  3  1  0
  3  4  1  0
  4  5  1  0
  5  6  1  0
  6  7  1  0
  7  8  1  0
  8  9  1  0
  9 10  2  0
 10 11  1  0
 11 12  2  0
 12 13  1  0
 13 14  2  0
 14 15  1  0
 15 16  2  0
 16 17  1  0
 16 18  1  0
 18 19  2  0
 19 20  1  0
 20 21  2  0
 21 22  1  0
 22 23  1  0
 23 24  1  0
 24 25  1  0
 25 26  1  0
 26 27  1  0
 27 28  1  0
 28 29  1  0
 29 30  1  0
 30 31  1  0
 22 32  2  0
 32  9  1  0
 15 10  1  0
 32 18  1  0
 31 26  1  0
  1 33  1  0
  1 34  1  0
  1 35  1  0
  2 36  1  0
  2 37  1  0
  3 38  1  0
  4 39  1  0
  4 40  1  0
  5 41  1  0
  5 42  1  0
  6 43  1  0
  6 44  1  0
  7 45  1  0
  7 46  1  0
  8 47  1  0
 11 48  1  0
 12 49  1  0
 13 50  1  0
 14 51  1  0
 17 52  1  0
 17 53  1  0
 17 54  1  0
 19 55  1  0
 20 56  1  0
 21 57  1  0
 23 58  1  0
 24 59  1  0
 24 60  1  0
 25 61  1  0
 25 62  1  0
 27 63  1  0
 27 64  1  0
 28 65  1  0
 28 66  1  0
 30 67  1  0
 30 68  1  0
 31 69  1  0
 31 70  1  0
M  CHG  1  16   1
M  END
>  <UniqueID>  (4) 
3

>  <SMILES>  (4) 
CCNCCCCNc1c2ccccc2[n+](C)c2cccc(NCCN3CCOCC3)c12

>  <Energy>  (4) 
107.93082879574418

>  <Genealogy>  (4) 
CCNCCCCNc1c2ccccc2[n+](C)c2cccc(NCCN3CCOCC3)c12 (3D coordinates assigned)
CCNCCCCNc1c2ccccc2[n+](C)c2cccc(NCCN3CCOCC3)c12 (nonaromatic ring conformer: 107.93082879574418 kcal/mol)

>  <smiles>  (4) 
CCNCCCCNc1c2ccccc2[n+](C)c2cccc(NCCN3CCOCC3)c12

>  <score_type>  (4) 
oracle

>  <origin>  (4) 
adg

>  <m_score__min__energy>  (4) 
-9.4199999999999999

>  <m_primary>  (4) 
energy

$$$$
4:0
     RDKit          3D

108112  0  0  0  0  0  0  0  0999 V2000
   -7.8930   22.6820  -31.6140 C   0  0  0  0  0  0  0  0  0  0  0  0
   -8.8890   21.5530  -31.3650 C   0  0  0  0  0  0  0  0  0  0  0  0
   -8.4560   20.2520  -32.0410 C   0  0  0  0  0  0  0  0  0  0  0  0
   -7.2810   20.4710  -32.8090 O   0  0  0  0  0  0  0  0  0  0  0  0
   -6.8140   19.2980  -33.4480 C   0  0  2  0  0  0  0  0  0  0  0  0
   -7.6070   18.0730  -32.9030 C   0  0  0  0  0  0  0  0  0  0  0  0
   -6.9080   16.7270  -33.1700 C   0  0  1  0  0  0  0  0  0  0  0  0
   -6.4800   16.5810  -34.6280 C   0  0  0  0  0  0  0  0  0  0  0  0
   -5.2110   17.1880  -34.7730 O   0  0  0  0  0  0  0  0  0  0  0  0
   -4.8110   17.6260  -33.4840 C   0  0  1  0  0  0  0  0  0  0  0  0
   -3.2960   17.3720  -33.3240 C   0  0  0  0  0  0  0  0  0  0  0  0
   -2.4820   18.6430  -33.4730 C   0  0  0  0  0  0  0  0  0  0  0  0
   -2.8270   19.6340  -32.3330 C   0  0  1  0  0  0  0  0  0  0  0  0
   -1.7940   20.8370  -32.2880 C   0  0  0  0  0  0  0  0  0  0  0  0
   -0.4330   20.3470  -31.7120 C   0  0  0  0  0  0  0  0  0  0  0  0
   -1.4900   21.4240  -33.6980 C   0  0  0  0  0  0  0  0  0  0  0  0
   -2.3130   21.9610  -31.3540 C   0  0  2  0  0  0  0  0  0  0  0  0
   -2.4060   21.4710  -30.0180 O   0  0  0  0  0  0  0  0  0  0  0  0
   -2.2330   22.4810  -29.0280 C   0  0  2  0  0  0  0  0  0  0  0  0
   -2.3080   23.8520  -29.7160 C   0  0  0  0  0  0  0  0  0  0  0  0
   -2.1720   25.0150  -28.7080 C   0  0  0  0  0  0  0  0  0  0  0  0
   -1.3930   24.6310  -27.4250 C   0  0  2  0  0  0  0  0  0  0  0  0
   -0.8150   25.7850  -26.8340 O   0  0  0  0  0  0  0  0  0  0  0  0
   -1.5850   26.2500  -25.7380 C   0  0  0  0  0  0  0  0  0  0  0  0
   -0.7300   27.0660  -24.7570 C   0  0  0  0  0  0  0  0  0  0  0  0
    0.2730   26.2580  -23.8810 C   0  0  0  0  0  0  0  0  0  0  0  0
    1.5150   25.6800  -24.5310 N   0  0  0  0  0  0  0  0  0  0  0  0
    1.7970   26.4680  -25.7830 C   0  0  0  0  0  0  0  0  0  0  0  0
    2.6340   25.7670  -26.8670 C   0  0  0  0  0  0  0  0  0  0  0  0
    1.2850   24.2220  -24.8570 C   0  0  0  0  0  0  0  0  0  0  0  0
   -0.0500   23.5940  -24.4050 C   0  0  0  0  0  0  0  0  0  0  0  0
    2.6530   25.8830  -23.5630 C   0  0  0  0  0  0  0  0  0  0  0  0
    3.5670   24.6570  -23.3570 C   0  0  0  0  0  0  0  0  0  0  0  0
   -0.2780   23.6160  -27.7460 C   0  0  2  0  0  0  0  0  0  0  0  0
    0.6360   24.1700  -28.6610 O   0  0  0  0  0  0  0  0  0  0  0  0
   -0.8610   22.3050  -28.3320 C   0  0  0  0  0  0  0  0  0  0  0  0
   -3.6770   22.5120  -31.8040 C   0  0  0  0  0  0  0  0  0  0  0  0
   -4.5800   21.5330  -32.5780 C   0  0  0  0  0  0  0  0  0  0  0  0
   -4.3920   20.0050  -32.2790 C   0  0  2  0  0  0  0  0  0  0  0  0
   -4.9450   19.7190  -30.8520 C   0  0  0  0  0  0  0  0  0  0  0  0
   -5.2250   19.1480  -33.3560 C   0  0  2  0  0  0  0  0  0  0  0  0
   -5.5820   16.7530  -32.4970 C   0  0  0  0  0  0  0  0  0  0  0  0
   -7.5417   23.0802  -30.6506 H   0  0  0  0  0  0  0  0  0  0  0  0
   -7.0361   22.2957  -32.1854 H   0  0  0  0  0  0  0  0  0  0  0  0
   -8.3832   23.4840  -32.1854 H   0  0  0  0  0  0  0  0  0  0  0  0
   -8.9686   21.3814  -30.2814 H   0  0  0  0  0  0  0  0  0  0  0  0
   -9.8578   21.8527  -31.7910 H   0  0  0  0  0  0  0  0  0  0  0  0
   -8.2522   19.4923  -31.2721 H   0  0  0  0  0  0  0  0  0  0  0  0
   -9.2615   19.9045  -32.7046 H   0  0  0  0  0  0  0  0  0  0  0  0
   -7.0088   19.3625  -34.5287 H   0  0  0  0  0  0  0  0  0  0  0  0
   -7.7309   18.1926  -31.8166 H   0  0  0  0  0  0  0  0  0  0  0  0
   -8.5722   18.0490  -33.4301 H   0  0  0  0  0  0  0  0  0  0  0  0
   -7.6124   15.9463  -32.8470 H   0  0  0  0  0  0  0  0  0  0  0  0
   -6.4168   15.5155  -34.8937 H   0  0  0  0  0  0  0  0  0  0  0  0
   -7.2127   17.0632  -35.2918 H   0  0  0  0  0  0  0  0  0  0  0  0
   -3.1115   16.9484  -32.3257 H   0  0  0  0  0  0  0  0  0  0  0  0
   -2.9849   16.6773  -34.1181 H   0  0  0  0  0  0  0  0  0  0  0  0
   -1.4110   18.3962  -33.4286 H   0  0  0  0  0  0  0  0  0  0  0  0
   -2.7190   19.1106  -34.4400 H   0  0  0  0  0  0  0  0  0  0  0  0
   -2.6853   19.1320  -31.3646 H   0  0  0  0  0  0  0  0  0  0  0  0
   -0.4735   20.3616  -30.6128 H   0  0  0  0  0  0  0  0  0  0  0  0
   -0.2362   19.3216  -32.0581 H   0  0  0  0  0  0  0  0  0  0  0  0
    0.3722   21.0117  -32.0581 H   0  0  0  0  0  0  0  0  0  0  0  0
   -0.9866   22.3960  -33.5898 H   0  0  0  0  0  0  0  0  0  0  0  0
   -0.8368   20.7323  -34.2501 H   0  0  0  0  0  0  0  0  0  0  0  0
   -2.4319   21.5583  -34.2501 H   0  0  0  0  0  0  0  0  0  0  0  0
   -1.5922   22.7904  -31.4031 H   0  0  0  0  0  0  0  0  0  0  0  0
   -3.0212   22.4037  -28.2646 H   0  0  0  0  0  0  0  0  0  0  0  0
   -1.4946   23.9242  -30.4530 H   0  0  0  0  0  0  0  0  0  0  0  0
   -3.2925   23.9355  -30.1995 H   0  0  0  0  0  0  0  0  0  0  0  0
   -1.6435   25.8439  -29.2016 H   0  0  0  0  0  0  0  0  0  0  0  0
   -3.1893   25.2957  -28.3978 H   0  0  0  0  0  0  0  0  0  0  0  0
   -2.1050   24.1745  -26.7217 H   0  0  0  0  0  0  0  0  0  0  0  0
   -2.3992   26.8853  -26.1168 H   0  0  0  0  0  0  0  0  0  0  0  0
   -1.9870   25.3771  -25.2028 H   0  0  0  0  0  0  0  0  0  0  0  0
   -0.1516   27.7956  -25.3428 H   0  0  0  0  0  0  0  0  0  0  0  0
   -1.4424   27.5154  -24.0495 H   0  0  0  0  0  0  0  0  0  0  0  0
    0.6118   26.9282  -23.0772 H   0  0  0  0  0  0  0  0  0  0  0  0
   -0.3005   25.3716  -23.5720 H   0  0  0  0  0  0  0  0  0  0  0  0
    0.8297   26.7383  -26.2317 H   0  0  0  0  0  0  0  0  0  0  0  0
    2.4065   27.3230  -25.4552 H   0  0  0  0  0  0  0  0  0  0  0  0
    3.3937   25.1308  -26.3894 H   0  0  0  0  0  0  0  0  0  0  0  0
    1.9767   25.1460  -27.4933 H   0  0  0  0  0  0  0  0  0  0  0  0
    3.1301   26.5231  -27.4933 H   0  0  0  0  0  0  0  0  0  0  0  0
    1.3463   24.1149  -25.9501 H   0  0  0  0  0  0  0  0  0  0  0  0
    2.0561   23.6821  -24.2879 H   0  0  0  0  0  0  0  0  0  0  0  0
   -0.0923   23.5741  -23.3060 H   0  0  0  0  0  0  0  0  0  0  0  0
   -0.8870   24.1928  -24.7934 H   0  0  0  0  0  0  0  0  0  0  0  0
   -0.1224   22.5674  -24.7934 H   0  0  0  0  0  0  0  0  0  0  0  0
    3.2735   26.7112  -23.9361 H   0  0  0  0  0  0  0  0  0  0  0  0
    2.1901   26.0862  -22.5860 H   0  0  0  0  0  0  0  0  0  0  0  0
    3.7014   24.4767  -22.2802 H   0  0  0  0  0  0  0  0  0  0  0  0
    3.1055   23.7733  -23.8220 H   0  0  0  0  0  0  0  0  0  0  0  0
    4.5456   24.8470  -23.8220 H   0  0  0  0  0  0  0  0  0  0  0  0
    0.2385   23.3791  -26.8041 H   0  0  0  0  0  0  0  0  0  0  0  0
    0.5670   25.1570  -28.5790 H   0  0  0  0  0  0  0  0  0  0  0  0
   -0.1475   21.9085  -29.0694 H   0  0  0  0  0  0  0  0  0  0  0  0
   -1.0194   21.6210  -27.4852 H   0  0  0  0  0  0  0  0  0  0  0  0
   -4.2229   22.8339  -30.9049 H   0  0  0  0  0  0  0  0  0  0  0  0
   -3.4498   23.3254  -32.5088 H   0  0  0  0  0  0  0  0  0  0  0  0
   -5.6241   21.7906  -32.3467 H   0  0  0  0  0  0  0  0  0  0  0  0
   -4.2959   21.6552  -33.6336 H   0  0  0  0  0  0  0  0  0  0  0  0
   -4.2309   20.0883  -30.1012 H   0  0  0  0  0  0  0  0  0  0  0  0
   -5.9100   20.2311  -30.7233 H   0  0  0  0  0  0  0  0  0  0  0  0
   -5.0848   18.6355  -30.7233 H   0  0  0  0  0  0  0  0  0  0  0  0
   -4.8694   19.7037  -34.2362 H   0  0  0  0  0  0  0  0  0  0  0  0
   -5.1457   15.7468  -32.4125 H   0  0  0  0  0  0  0  0  0  0  0  0
   -5.5922   17.1188  -31.4596 H   0  0  0  0  0  0  0  0  0  0  0  0
  1  2  1  0
  2  3  1  0
  3  4  1  0
  4  5  1  0
  5  6  1  0
  6  7  1  0
  7  8  1  0
  8  9  1  0
 10  9  1  6
 10 11  1  0
 11 12  1  0
 12 13  1  0
 13 14  1  0
 14 15  1  0
 14 16  1  0
 14 17  1  0
 17 18  1  0
 18 19  1  0
 19 20  1  0
 20 21  1  0
 21 22  1  0
 22 23  1  0
 23 24  1  0
 24 25  1  0
 25 26  1  0
 26 27  1  0
 27 28  1  0
 28 29  1  0
 27 30  1  0
 30 31  1  0
 27 32  1  0
 32 33  1  0
 22 34  1  0
 34 35  1  0
 34 36  1  0
 17 37  1  0
 37 38  1  0
 38 39  1  0
 39 40  1  1
 39 41  1  0
 10 42  1  0
 41  5  1  0
 42  7  1  0
 41 10  1  0
 39 13  1  0
 36 19  1  0
  1 43  1  0
  1 44  1  0
  1 45  1  0
  2 46  1  0
  2 47  1  0
  3 48  1  0
  3 49  1  0
  5 50  1  6
  6 51  1  0
  6 52  1  0
  7 53  1  1
  8 54  1  0
  8 55  1  0
 11 56  1  0
 11 57  1  0
 12 58  1  0
 12 59  1  0
 13 60  1  1
 15 61  1  0
 15 62  1  0
 15 63  1  0
 16 64  1  0
 16 65  1  0
 16 66  1  0
 17 67  1  1
 19 68  1  1
 20 69  1  0
 20 70  1  0
 21 71  1  0
 21 72  1  0
 22 73  1  1
 24 74  1  0
 24 75  1  0
 25 76  1  0
 25 77  1  0
 26 78  1  0
 26 79  1  0
 28 80  1  0
 28 81  1  0
 29 82  1  0
 29 83  1  0
 29 84  1  0
 30 85  1  0
 30 86  1  0
 31 87  1  0
 31 88  1  0
 31 89  1  0
 32 90  1  0
 32 91  1  0
 33 92  1  0
 33 93  1  0
 33 94  1  0
 34 95  1  1
 35 96  1  0
 36 97  1  0
 36 98  1  0
 37 99  1  0
 37100  1  0
 38101  1  0
 38102  1  0
 40103  1  0
 40104  1  0
 40105  1  0
 41106  1  6
 42107  1  0
 42108  1  0
M  CHG  1  27   1
M  END
>  <UniqueID>  (5) 
4

>  <SMILES>  (5) 
CCCO[C@@H]1C[C@H]2COC3(CCC4C(C)(C)C(OC5CCC(OCCC[N+](CC)(CC)CC)C(O)C5)CCC4(C)C13)C2

>  <Energy>  (5) 
190.74423303783354

>  <Genealogy>  (5) 
CCCO[C@@H]1C[C@H]2COC3(CCC4C(C)(C)C(OC5CCC(OCCC[N+](CC)(CC)CC)C(O)C5)CCC4(C)C13)C2 (chirality)
CCCO[C@@H]1C[C@H]2COC3(CCC4C(C)(C)C(OC5CCC(OCCC[N+](CC)(CC)CC)C(O)C5)CCC4(C)C13)C2 (3D coordinates assigned)
CCCO[C@@H]1C[C@H]2COC3(CCC4C(C)(C)C(OC5CCC(OCCC[N+](CC)(CC)CC)C(O)C5)CCC4(C)C13)C2 (nonaromatic ring conformer: 190.74423303783354 kcal/mol)

>  <smiles>  (5) 
CCCOC1CC2COC3(CCC4C(C)(C)C(OC5CCC(OCCC[N+](CC)(CC)CC)C(O)C5)CCC4(C)C13)C2

>  <score_type>  (5) 
oracle

>  <origin>  (5) 
adg

>  <m_score__min__energy>  (5) 
-10.01

>  <m_primary>  (5) 
energy

$$$$
5:0
     RDKit          3D

 42 44  0  0  0  0  0  0  0  0999 V2000
   -0.9672   18.0834  -26.7888 H   0  0  0  0  0  0  0  0  0  0  0  0
   -1.2260   19.0760  -27.1860 C   0  0  0  0  0  0  0  0  0  0  0  0
   -2.4690   19.6430  -26.8930 C   0  0  0  0  0  0  0  0  0  0  0  0
   -3.1855   19.0992  -26.2598 H   0  0  0  0  0  0  0  0  0  0  0  0
   -2.8030   20.9010  -27.4040 C   0  0  0  0  0  0  0  0  0  0  0  0
   -3.7781   21.3492  -27.1624 H   0  0  0  0  0  0  0  0  0  0  0  0
   -1.8980   21.5950  -28.2250 C   0  0  0  0  0  0  0  0  0  0  0  0
   -2.2450   22.9350  -28.7370 C   0  0  0  0  0  0  0  0  0  0  0  0
   -3.1620   23.1770  -29.7430 C   0  0  0  0  0  0  0  0  0  0  0  0
   -3.7403   22.4450  -30.3259 H   0  0  0  0  0  0  0  0  0  0  0  0
   -3.1810   24.5590  -29.8440 C   0  0  0  0  0  0  0  0  0  0  0  0
   -3.9040   25.2690  -30.6600 N   0  0  0  0  0  0  0  0  0  0  0  0
   -5.3490   25.1360  -30.8480 C   0  0  0  0  0  0  0  0  0  0  0  0
   -5.5793   24.1068  -31.1605 H   0  0  0  0  0  0  0  0  0  0  0  0
   -5.6727   25.8503  -31.6193 H   0  0  0  0  0  0  0  0  0  0  0  0
   -6.0920   25.4440  -29.5510 C   0  0  0  0  0  0  0  0  0  0  0  0
   -5.4563   25.1805  -28.6928 H   0  0  0  0  0  0  0  0  0  0  0  0
   -6.3337   26.5164  -29.5127 H   0  0  0  0  0  0  0  0  0  0  0  0
   -7.0215   24.8571  -29.5127 H   0  0  0  0  0  0  0  0  0  0  0  0
   -2.3200   25.1080  -28.9710 N   0  0  0  0  0  0  0  0  0  0  0  0
   -1.7460   24.1190  -28.3000 N   0  0  0  0  0  0  0  0  0  0  0  0
   -0.6880   24.3360  -27.3040 C   0  0  0  0  0  0  0  0  0  0  0  0
   -0.6031   25.4152  -27.1089 H   0  0  0  0  0  0  0  0  0  0  0  0
    0.6610   23.8390  -27.8450 C   0  0  0  0  0  0  0  0  0  0  0  0
    0.6067   22.7505  -27.9938 H   0  0  0  0  0  0  0  0  0  0  0  0
    0.8622   24.3559  -28.7949 H   0  0  0  0  0  0  0  0  0  0  0  0
    1.8140   24.1540  -26.8710 C   0  0  0  0  0  0  0  0  0  0  0  0
    2.5827   23.3744  -26.9776 H   0  0  0  0  0  0  0  0  0  0  0  0
    2.1941   25.1528  -27.1316 H   0  0  0  0  0  0  0  0  0  0  0  0
    1.3740   24.2070  -25.3940 C   0  0  0  0  0  0  0  0  0  0  0  0
    2.2208   23.9076  -24.7590 H   0  0  0  0  0  0  0  0  0  0  0  0
    1.0557   25.2354  -25.1681 H   0  0  0  0  0  0  0  0  0  0  0  0
    0.1930   23.2710  -25.1200 C   0  0  0  0  0  0  0  0  0  0  0  0
    0.4926   22.2406  -25.3618 H   0  0  0  0  0  0  0  0  0  0  0  0
   -0.0782   23.3668  -24.0583 H   0  0  0  0  0  0  0  0  0  0  0  0
   -1.0450   23.6420  -25.9650 C   0  0  0  0  0  0  0  0  0  0  0  0
   -1.6046   22.7214  -26.1873 H   0  0  0  0  0  0  0  0  0  0  0  0
   -1.6391   24.3564  -25.3761 H   0  0  0  0  0  0  0  0  0  0  0  0
   -0.6410   21.0270  -28.4960 C   0  0  0  0  0  0  0  0  0  0  0  0
    0.0861   21.5743  -29.1138 H   0  0  0  0  0  0  0  0  0  0  0  0
   -0.3120   19.7690  -27.9830 C   0  0  0  0  0  0  0  0  0  0  0  0
    0.6686   19.3240  -28.2074 H   0  0  0  0  0  0  0  0  0  0  0  0
  1  2  1  0
  2  3  2  0
  3  4  1  0
  3  5  1  0
  5  6  1  0
  5  7  2  0
  7  8  1  0
  8  9  2  0
  9 10  1  0
  9 11  1  0
 11 12  2  0
 12 13  1  0
 13 14  1  0
 13 15  1  0
 13 16  1  0
 16 17  1  0
 16 18  1  0
 16 19  1  0
 11 20  1  0
 20 21  1  0
 21 22  1  0
 22 23  1  0
 22 24  1  0
 24 25  1  0
 24 26  1  0
 24 27  1  0
 27 28  1  0
 27 29  1  0
 27 30  1  0
 30 31  1  0
 30 32  1  0
 30 33  1  0
 33 34  1  0
 33 35  1  0
 33 36  1  0
 36 37  1  0
 36 38  1  0
  7 39  1  0
 39 40  1  0
 39 41  2  0
 41 42  1  0
 41  2  1  0
 21  8  1  0
 36 22  1  0
M  CHG  1  20  -1
M  END
>  <UniqueID>  (6) 
5

>  <SMILES>  (6) 
CC/N=c1\cc(-c2ccccc2)n(C2CCCCC2)[n-]1

>  <Energy>  (6) 
78.27643360898969

>  <Genealogy>  (6) 
CCN=c1cc(-c2ccccc2)n(C2CCCCC2)[n-]1 (protonated)
CC/N=c1\cc(-c2ccccc2)n(C2CCCCC2)[n-]1 (cis-trans isomerization)
CC/N=c1\cc(-c2ccccc2)n(C2CCCCC2)[n-]1 (3D coordinates assigned)
CC/N=c1\cc(-c2ccccc2)n(C2CCCCC2)[n-]1 (nonaromatic ring conformer: 78.27643360898969 kcal/mol)

>  <smiles>  (6) 
CCN=c1cc(-c2ccccc2)n(C2CCCCC2)[nH]1

>  <score_type>  (6) 
oracle

>  <origin>  (6) 
adg

>  <m_score__min__energy>  (6) 
-8.75

>  <m_primary>  (6) 
energy

$$$$
6:0
     RDKit          3D

 54 56  0  0  0  0  0  0  0  0999 V2000
   -1.0740   26.1380  -26.8840 C   0  0  0  0  0  0  0  0  0  0  0  0
   -1.0450   25.3760  -28.2090 C   0  0  0  0  0  0  0  0  0  0  0  0
   -2.4090   24.9270  -28.5750 N   0  0  0  0  0  0  0  0  0  0  0  0
   -3.1670   24.5390  -27.3660 C   0  0  0  0  0  0  0  0  0  0  0  0
   -2.3580   23.8050  -29.5440 C   0  0  0  0  0  0  0  0  0  0  0  0
   -3.6200   23.7970  -30.4290 C   0  0  0  0  0  0  0  0  0  0  0  0
   -4.2560   25.1290  -30.5000 N   0  0  0  0  0  0  0  0  0  0  0  0
   -5.6670   25.0340  -30.9100 C   0  0  0  0  0  0  0  0  0  0  0  0
   -6.1150   23.5650  -30.9290 C   0  0  0  0  0  0  0  0  0  0  0  0
   -5.9450   22.9820  -32.2630 N   0  0  0  0  0  0  0  0  0  0  0  0
   -5.8900   21.5570  -32.4610 C   0  0  0  0  0  0  0  0  0  0  0  0
   -7.0610   20.7850  -32.3700 C   0  0  0  0  0  0  0  0  0  0  0  0
   -8.3160   21.3970  -32.1640 C   0  0  0  0  0  0  0  0  0  0  0  0
   -9.4800   20.6340  -32.1200 C   0  0  0  0  0  0  0  0  0  0  0  0
   -9.4180   19.2580  -32.2940 C   0  0  0  0  0  0  0  0  0  0  0  0
   -8.1880   18.6300  -32.4830 C   0  0  0  0  0  0  0  0  0  0  0  0
   -6.9790   19.3720  -32.4860 C   0  0  0  0  0  0  0  0  0  0  0  0
   -5.7460   18.7570  -32.6040 N   0  0  0  0  0  0  0  0  0  0  0  0
   -5.6240   17.2910  -32.4220 C   0  0  0  0  0  0  0  0  0  0  0  0
   -4.6210   19.5120  -32.8830 C   0  0  0  0  0  0  0  0  0  0  0  0
   -3.3990   18.9120  -33.2830 C   0  0  0  0  0  0  0  0  0  0  0  0
   -2.2700   19.6860  -33.5560 C   0  0  0  0  0  0  0  0  0  0  0  0
   -1.1130   19.0870  -33.9350 F   0  0  0  0  0  0  0  0  0  0  0  0
   -2.3340   21.0720  -33.4640 C   0  0  0  0  0  0  0  0  0  0  0  0
   -3.5280   21.6920  -33.1060 C   0  0  0  0  0  0  0  0  0  0  0  0
   -4.6770   20.9300  -32.8030 C   0  0  0  0  0  0  0  0  0  0  0  0
   -1.0468   25.4225  -26.0489 H   0  0  0  0  0  0  0  0  0  0  0  0
   -0.2006   26.8040  -26.8249 H   0  0  0  0  0  0  0  0  0  0  0  0
   -1.9955   26.7357  -26.8249 H   0  0  0  0  0  0  0  0  0  0  0  0
   -0.6563   26.0360  -28.9985 H   0  0  0  0  0  0  0  0  0  0  0  0
   -0.3957   24.4947  -28.1004 H   0  0  0  0  0  0  0  0  0  0  0  0
   -2.6002   24.8291  -26.4690 H   0  0  0  0  0  0  0  0  0  0  0  0
   -4.1416   25.0491  -27.3648 H   0  0  0  0  0  0  0  0  0  0  0  0
   -3.3231   23.4501  -27.3648 H   0  0  0  0  0  0  0  0  0  0  0  0
   -1.4692   23.9182  -30.1822 H   0  0  0  0  0  0  0  0  0  0  0  0
   -2.3079   22.8572  -28.9879 H   0  0  0  0  0  0  0  0  0  0  0  0
   -3.3389   23.4832  -31.4452 H   0  0  0  0  0  0  0  0  0  0  0  0
   -4.3433   23.0990  -29.9822 H   0  0  0  0  0  0  0  0  0  0  0  0
   -4.2040   25.5980  -29.5630 H   0  0  0  0  0  0  0  0  0  0  0  0
   -6.2908   25.5951  -30.1987 H   0  0  0  0  0  0  0  0  0  0  0  0
   -5.7770   25.4564  -31.9197 H   0  0  0  0  0  0  0  0  0  0  0  0
   -5.5109   22.9952  -30.2076 H   0  0  0  0  0  0  0  0  0  0  0  0
   -7.1805   23.5197  -30.6596 H   0  0  0  0  0  0  0  0  0  0  0  0
   -5.9350   23.6140  -33.0970 H   0  0  0  0  0  0  0  0  0  0  0  0
   -8.3752   22.4880  -32.0369 H   0  0  0  0  0  0  0  0  0  0  0  0
  -10.4504   21.1224  -31.9471 H   0  0  0  0  0  0  0  0  0  0  0  0
  -10.3422   18.6616  -32.2827 H   0  0  0  0  0  0  0  0  0  0  0  0
   -8.1543   17.5407  -32.6323 H   0  0  0  0  0  0  0  0  0  0  0  0
   -5.6044   17.0553  -31.3477 H   0  0  0  0  0  0  0  0  0  0  0  0
   -6.4836   16.7904  -32.8916 H   0  0  0  0  0  0  0  0  0  0  0  0
   -4.6935   16.9394  -32.8916 H   0  0  0  0  0  0  0  0  0  0  0  0
   -3.3404   17.8178  -33.3796 H   0  0  0  0  0  0  0  0  0  0  0  0
   -1.4409   21.6788  -33.6742 H   0  0  0  0  0  0  0  0  0  0  0  0
   -3.5767   22.7899  -33.0586 H   0  0  0  0  0  0  0  0  0  0  0  0
  1  2  1  0
  2  3  1  0
  3  4  1  0
  3  5  1  0
  5  6  1  0
  6  7  1  0
  7  8  1  0
  8  9  1  0
  9 10  1  0
 10 11  1  0
 11 12  2  0
 12 13  1  0
 13 14  2  0
 14 15  1  0
 15 16  2  0
 16 17  1  0
 17 18  2  0
 18 19  1  0
 18 20  1  0
 20 21  2  0
 21 22  1  0
 22 23  1  0
 22 24  2  0
 24 25  1  0
 25 26  2  0
 26 11  1  0
 17 12  1  0
 26 20  1  0
  1 27  1  0
  1 28  1  0
  1 29  1  0
  2 30  1  0
  2 31  1  0
  4 32  1  0
  4 33  1  0
  4 34  1  0
  5 35  1  0
  5 36  1  0
  6 37  1  0
  6 38  1  0
  7 39  1  0
  8 40  1  0
  8 41  1  0
  9 42  1  0
  9 43  1  0
 10 44  1  0
 13 45  1  0
 14 46  1  0
 15 47  1  0
 16 48  1  0
 19 49  1  0
 19 50  1  0
 19 51  1  0
 21 52  1  0
 24 53  1  0
 25 54  1  0
M  CHG  1  18   1
M  END
>  <UniqueID>  (7) 
6

>  <SMILES>  (7) 
CCN(C)CCNCCNc1c2ccccc2[n+](C)c2cc(F)ccc12

>  <Energy>  (7) 
77.97904729543845

>  <Genealogy>  (7) 
CCN(C)CCNCCNc1c2ccccc2[n+](C)c2cc(F)ccc12 (3D coordinates assigned)
CCN(C)CCNCCNc1c2ccccc2[n+](C)c2cc(F)ccc12 (optimized conformer: 77.97904729543845 kcal/mol)

>  <smiles>  (7) 
CCN(C)CCNCCNc1c2ccccc2[n+](C)c2cc(F)ccc12

>  <score_type>  (7) 
oracle

>  <origin>  (7) 
adg

>  <m_score__min__energy>  (7) 
-8.7200000000000006

>  <m_primary>  (7) 
energy

$$$$
7:0
     RDKit          3D

 45 47  0  0  0  0  0  0  0  0999 V2000
   -6.3320   25.6690  -29.6160 C   0  0  0  0  0  0  0  0  0  0  0  0
   -5.0910   25.5860  -30.5170 C   0  0  0  0  0  0  0  0  0  0  0  0
   -4.6190   24.2040  -30.7850 N   0  0  0  0  0  0  0  0  0  0  0  0
   -3.2760   23.9510  -30.2140 C   0  0  0  0  0  0  0  0  0  0  0  0
   -3.0250   22.4520  -30.0890 C   0  0  0  0  0  0  0  0  0  0  0  0
   -5.5890   23.1540  -30.3970 C   0  0  0  0  0  0  0  0  0  0  0  0
   -6.3320   22.5700  -31.6110 C   0  0  0  0  0  0  0  0  0  0  0  0
   -5.4270   22.2480  -32.7190 N   0  0  0  0  0  0  0  0  0  0  0  0
   -4.8530   20.9500  -32.9430 C   0  0  0  0  0  0  0  0  0  0  0  0
   -5.5070   19.7250  -32.7990 C   0  0  0  0  0  0  0  0  0  0  0  0
   -6.9260   19.4710  -32.4790 C   0  0  0  0  0  0  0  0  0  0  0  0
   -8.0390   20.1820  -32.9190 C   0  0  0  0  0  0  0  0  0  0  0  0
   -9.2540   19.6490  -32.4730 C   0  0  0  0  0  0  0  0  0  0  0  0
   -9.1120   18.5140  -31.6880 C   0  0  0  0  0  0  0  0  0  0  0  0
   -7.4740   18.1730  -31.5560 S   0  0  0  0  0  0  0  0  0  0  0  0
   -4.6190   18.7350  -33.0480 N   0  0  0  0  0  0  0  0  0  0  0  0
   -3.4610   19.3620  -33.3250 C   0  0  0  0  0  0  0  0  0  0  0  0
   -2.2480   18.7430  -33.6250 C   0  0  0  0  0  0  0  0  0  0  0  0
   -1.1320   19.5640  -33.8400 C   0  0  0  0  0  0  0  0  0  0  0  0
   -1.2510   20.9610  -33.7370 C   0  0  0  0  0  0  0  0  0  0  0  0
   -2.4960   21.5310  -33.4290 C   0  0  0  0  0  0  0  0  0  0  0  0
   -3.5640   20.7040  -33.2600 N   0  0  0  0  0  0  0  0  0  0  0  0
   -6.0212   25.6482  -28.5610 H   0  0  0  0  0  0  0  0  0  0  0  0
   -6.8719   26.6053  -29.8208 H   0  0  0  0  0  0  0  0  0  0  0  0
   -6.9917   24.8130  -29.8208 H   0  0  0  0  0  0  0  0  0  0  0  0
   -5.3326   26.0598  -31.4799 H   0  0  0  0  0  0  0  0  0  0  0  0
   -4.2783   26.0967  -29.9798 H   0  0  0  0  0  0  0  0  0  0  0  0
   -2.5133   24.3925  -30.8723 H   0  0  0  0  0  0  0  0  0  0  0  0
   -3.2219   24.4063  -29.2141 H   0  0  0  0  0  0  0  0  0  0  0  0
   -2.9787   22.1754  -29.0253 H   0  0  0  0  0  0  0  0  0  0  0  0
   -3.8434   21.9013  -30.5757 H   0  0  0  0  0  0  0  0  0  0  0  0
   -2.0718   22.1980  -30.5757 H   0  0  0  0  0  0  0  0  0  0  0  0
   -5.0476   22.3422  -29.8892 H   0  0  0  0  0  0  0  0  0  0  0  0
   -6.3363   23.6140  -29.7337 H   0  0  0  0  0  0  0  0  0  0  0  0
   -6.8499   21.6509  -31.2995 H   0  0  0  0  0  0  0  0  0  0  0  0
   -7.0412   23.3313  -31.9679 H   0  0  0  0  0  0  0  0  0  0  0  0
   -5.0570   23.0470  -33.2820 H   0  0  0  0  0  0  0  0  0  0  0  0
   -7.9703   21.0764  -33.5557 H   0  0  0  0  0  0  0  0  0  0  0  0
  -10.2309   20.0893  -32.7219 H   0  0  0  0  0  0  0  0  0  0  0  0
   -9.9304   17.9379  -31.2316 H   0  0  0  0  0  0  0  0  0  0  0  0
   -4.7900   17.7050  -33.0350 H   0  0  0  0  0  0  0  0  0  0  0  0
   -2.1694   17.6478  -33.6907 H   0  0  0  0  0  0  0  0  0  0  0  0
   -0.1601   19.1136  -34.0901 H   0  0  0  0  0  0  0  0  0  0  0  0
   -0.3729   21.6040  -33.8970 H   0  0  0  0  0  0  0  0  0  0  0  0
   -2.6062   22.6207  -33.3266 H   0  0  0  0  0  0  0  0  0  0  0  0
  1  2  1  0
  2  3  1  0
  3  4  1  0
  4  5  1  0
  3  6  1  0
  6  7  1  0
  7  8  1  0
  8  9  1  0
  9 10  2  0
 10 11  1  0
 11 12  2  0
 12 13  1  0
 13 14  2  0
 14 15  1  0
 10 16  1  0
 16 17  2  0
 17 18  1  0
 18 19  2  0
 19 20  1  0
 20 21  2  0
 21 22  1  0
 22  9  1  0
 15 11  1  0
 22 17  1  0
  1 23  1  0
  1 24  1  0
  1 25  1  0
  2 26  1  0
  2 27  1  0
  4 28  1  0
  4 29  1  0
  5 30  1  0
  5 31  1  0
  5 32  1  0
  6 33  1  0
  6 34  1  0
  7 35  1  0
  7 36  1  0
  8 37  1  0
 12 38  1  0
 13 39  1  0
 14 40  1  0
 16 41  1  0
 18 42  1  0
 19 43  1  0
 20 44  1  0
 21 45  1  0
M  CHG  1  16   1
M  END
>  <UniqueID>  (8) 
7

>  <SMILES>  (8) 
CCN(CC)CCNc1c(-c2cccs2)[nH+]c2ccccn12

>  <Energy>  (8) 
111.79688752398393

>  <Genealogy>  (8) 
CCN(CC)CCNc1c(-c2cccs2)[nH+]c2ccccn12 (protonated)
CCN(CC)CCNc1c(-c2cccs2)[nH+]c2ccccn12 (3D coordinates assigned)
CCN(CC)CCNc1c(-c2cccs2)[nH+]c2ccccn12 (optimized conformer: 111.79688752398393 kcal/mol)

>  <smiles>  (8) 
CCN(CC)CCNc1c(-c2cccs2)nc2ccccn12

>  <score_type>  (8) 
oracle

>  <origin>  (8) 
adg

>  <m_score__min__energy>  (8) 
-7.3099999999999996

>  <m_primary>  (8) 
energy

$$$$
8:0
     RDKit          3D

 37 38  0  0  0  0  0  0  0  0999 V2000
   -0.8620   21.1740  -33.9250 C   0  0  0  0  0  0  0  0  0  0  0  0
   -1.6720   21.1510  -32.6250 C   0  0  0  0  0  0  0  0  0  0  0  0
   -2.9850   21.8020  -32.7730 N   0  0  0  0  0  0  0  0  0  0  0  0
   -4.0760   21.0230  -32.1690 C   0  0  0  0  0  0  0  0  0  0  0  0
   -4.0380   21.1520  -30.6450 C   0  0  0  0  0  0  0  0  0  0  0  0
   -3.2860   22.3000  -30.2590 O   0  0  0  0  0  0  0  0  0  0  0  0
   -3.4320   22.9230  -29.0180 C   0  0  0  0  0  0  0  0  0  0  0  0
   -2.7820   22.5720  -27.8860 N   0  0  0  0  0  0  0  0  0  0  0  0
   -3.1950   23.4120  -26.9760 O   0  0  0  0  0  0  0  0  0  0  0  0
   -4.0550   24.2700  -27.4410 N   0  0  0  0  0  0  0  0  0  0  0  0
   -4.6340   25.2750  -26.6980 O   0  0  0  0  0  0  0  0  0  0  0  0
   -4.2420   23.9980  -28.7420 C   0  0  0  0  0  0  0  0  0  0  0  0
   -5.2850   24.8810  -29.8470 S   0  0  0  0  0  0  0  0  0  0  0  0
   -6.1150   25.8800  -29.0890 O   0  0  0  0  0  0  0  0  0  0  0  0
   -4.4310   25.6200  -30.8380 O   0  0  0  0  0  0  0  0  0  0  0  0
   -6.3560   23.7480  -30.6640 C   0  0  0  0  0  0  0  0  0  0  0  0
   -6.3940   23.6790  -32.0650 C   0  0  0  0  0  0  0  0  0  0  0  0
   -7.2450   22.7680  -32.7000 C   0  0  0  0  0  0  0  0  0  0  0  0
   -8.0590   21.9240  -31.9390 C   0  0  0  0  0  0  0  0  0  0  0  0
   -8.0240   21.9900  -30.5430 C   0  0  0  0  0  0  0  0  0  0  0  0
   -7.1750   22.8990  -29.9070 C   0  0  0  0  0  0  0  0  0  0  0  0
    0.2116   21.2045  -33.6876 H   0  0  0  0  0  0  0  0  0  0  0  0
   -1.0825   20.2692  -34.5105 H   0  0  0  0  0  0  0  0  0  0  0  0
   -1.1335   22.0648  -34.5105 H   0  0  0  0  0  0  0  0  0  0  0  0
   -1.8279   20.1046  -32.3238 H   0  0  0  0  0  0  0  0  0  0  0  0
   -1.1042   21.7075  -31.8648 H   0  0  0  0  0  0  0  0  0  0  0  0
   -2.9570   22.7530  -32.3370 H   0  0  0  0  0  0  0  0  0  0  0  0
   -5.0402   21.3993  -32.5414 H   0  0  0  0  0  0  0  0  0  0  0  0
   -3.9545   19.9644  -32.4423 H   0  0  0  0  0  0  0  0  0  0  0  0
   -5.0655   21.2477  -30.2642 H   0  0  0  0  0  0  0  0  0  0  0  0
   -3.5592   20.2555  -30.2242 H   0  0  0  0  0  0  0  0  0  0  0  0
   -5.0970   26.0570  -27.1430 H   0  0  0  0  0  0  0  0  0  0  0  0
   -5.7536   24.3423  -32.6650 H   0  0  0  0  0  0  0  0  0  0  0  0
   -7.2736   22.7159  -33.7984 H   0  0  0  0  0  0  0  0  0  0  0  0
   -8.7274   21.2075  -32.4389 H   0  0  0  0  0  0  0  0  0  0  0  0
   -8.6653   21.3258  -29.9450 H   0  0  0  0  0  0  0  0  0  0  0  0
   -7.1491   22.9486  -28.8084 H   0  0  0  0  0  0  0  0  0  0  0  0
  1  2  1  0
  2  3  1  0
  3  4  1  0
  4  5  1  0
  5  6  1  0
  6  7  1  0
  7  8  2  0
  8  9  1  0
  9 10  1  0
 10 11  1  0
 10 12  2  0
 12 13  1  0
 13 14  2  0
 13 15  2  0
 13 16  1  0
 16 17  2  0
 17 18  1  0
 18 19  2  0
 19 20  1  0
 20 21  2  0
 12  7  1  0
 21 16  1  0
  1 22  1  0
  1 23  1  0
  1 24  1  0
  2 25  1  0
  2 26  1  0
  3 27  1  0
  4 28  1  0
  4 29  1  0
  5 30  1  0
  5 31  1  0
 11 32  1  0
 17 33  1  0
 18 34  1  0
 19 35  1  0
 20 36  1  0
 21 37  1  0
M  CHG  1  10   1
M  END
>  <UniqueID>  (9) 
8

>  <SMILES>  (9) 
CCNCCOc1no[n+](O)c1S(=O)(=O)c1ccccc1

>  <Energy>  (9) 
72.62019997805317

>  <Genealogy>  (9) 
CCNCCOc1no[n+](O)c1S(=O)(=O)c1ccccc1 (protonated)
CCNCCOc1no[n+](O)c1S(=O)(=O)c1ccccc1 (3D coordinates assigned)
CCNCCOc1no[n+](O)c1S(=O)(=O)c1ccccc1 (optimized conformer: 72.62019997805317 kcal/mol)

>  <smiles>  (9) 
CCNCCOc1no[n+]([O-])c1S(=O)(=O)c1ccccc1

>  <score_type>  (9) 
oracle

>  <origin>  (9) 
adg

>  <m_score__min__energy>  (9) 
-6.9199999999999999

>  <m_primary>  (9) 
energy

$$$$
9:0
     RDKit          3D

 42 43  0  0  0  0  0  0  0  0999 V2000
   -7.9830   18.5450  -31.9550 C   0  0  0  0  0  0  0  0  0  0  0  0
   -8.1870   19.8390  -32.7410 C   0  0  0  0  0  0  0  0  0  0  0  0
   -6.8870   20.6280  -33.0330 C   0  0  0  0  0  0  0  0  0  0  0  0
   -6.7200   21.9550  -32.3750 N   0  0  1  0  0  0  0  0  0  0  0  0
   -7.8760   22.3870  -31.5670 C   0  0  0  0  0  0  0  0  0  0  0  0
   -7.3370   23.1020  -30.3290 C   0  0  0  0  0  0  0  0  0  0  0  0
   -5.8380   23.2620  -30.5660 C   0  0  2  0  0  0  0  0  0  0  0  0
   -5.5030   24.6520  -31.1470 C   0  0  0  0  0  0  0  0  0  0  0  0
   -4.2380   25.1440  -30.5920 N   0  0  0  0  0  0  0  0  0  0  0  0
   -3.9220   24.4550  -29.3380 C   0  0  0  0  0  0  0  0  0  0  0  0
   -2.4390   24.2640  -29.2280 C   0  0  0  0  0  0  0  0  0  0  0  0
   -1.5630   25.0740  -28.5400 C   0  0  0  0  0  0  0  0  0  0  0  0
   -0.3230   24.5460  -28.6050 N   0  0  0  0  0  0  0  0  0  0  0  0
   -0.4720   23.4190  -29.3340 C   0  0  0  0  0  0  0  0  0  0  0  0
   -1.7450   23.2270  -29.7320 N   0  0  0  0  0  0  0  0  0  0  0  0
   -2.2660   22.0620  -30.4430 C   0  0  0  0  0  0  0  0  0  0  0  0
   -5.5170   22.1360  -31.5440 C   0  0  0  0  0  0  0  0  0  0  0  0
   -8.0171   18.7615  -30.8771 H   0  0  0  0  0  0  0  0  0  0  0  0
   -8.7797   17.8310  -32.2110 H   0  0  0  0  0  0  0  0  0  0  0  0
   -7.0053   18.1107  -32.2110 H   0  0  0  0  0  0  0  0  0  0  0  0
   -8.6579   19.5858  -33.7023 H   0  0  0  0  0  0  0  0  0  0  0  0
   -8.8122   20.4902  -32.1124 H   0  0  0  0  0  0  0  0  0  0  0  0
   -6.0422   19.9971  -32.7195 H   0  0  0  0  0  0  0  0  0  0  0  0
   -6.9346   20.8546  -34.1084 H   0  0  0  0  0  0  0  0  0  0  0  0
   -6.6360   22.6490  -33.1580 H   0  0  0  0  0  0  0  0  0  0  0  0
   -8.5059   23.0737  -32.1516 H   0  0  0  0  0  0  0  0  0  0  0  0
   -8.4874   21.5203  -31.2754 H   0  0  0  0  0  0  0  0  0  0  0  0
   -7.8148   24.0863  -30.2158 H   0  0  0  0  0  0  0  0  0  0  0  0
   -7.5450   22.5353  -29.4095 H   0  0  0  0  0  0  0  0  0  0  0  0
   -5.2437   23.2002  -29.6424 H   0  0  0  0  0  0  0  0  0  0  0  0
   -5.4144   24.5764  -32.2408 H   0  0  0  0  0  0  0  0  0  0  0  0
   -6.3073   25.3540  -30.8818 H   0  0  0  0  0  0  0  0  0  0  0  0
   -3.4770   24.9280  -31.2790 H   0  0  0  0  0  0  0  0  0  0  0  0
   -4.2772   25.0582  -28.4895 H   0  0  0  0  0  0  0  0  0  0  0  0
   -4.4183   23.4734  -29.3258 H   0  0  0  0  0  0  0  0  0  0  0  0
   -1.8319   26.0049  -28.0194 H   0  0  0  0  0  0  0  0  0  0  0  0
    0.3539   22.7340  -29.5760 H   0  0  0  0  0  0  0  0  0  0  0  0
   -2.6028   21.3088  -29.7155 H   0  0  0  0  0  0  0  0  0  0  0  0
   -3.1136   22.3666  -31.0744 H   0  0  0  0  0  0  0  0  0  0  0  0
   -1.4738   21.6333  -31.0744 H   0  0  0  0  0  0  0  0  0  0  0  0
   -4.6575   22.4112  -32.1729 H   0  0  0  0  0  0  0  0  0  0  0  0
   -5.2539   21.2088  -31.0139 H   0  0  0  0  0  0  0  0  0  0  0  0
  1  2  1  0
  2  3  1  0
  3  4  1  0
  4  5  1  0
  5  6  1  0
  6  7  1  0
  7  8  1  0
  8  9  1  0
  9 10  1  0
 10 11  1  0
 11 12  2  0
 12 13  1  0
 13 14  2  0
 14 15  1  0
 15 16  1  0
  7 17  1  0
 17  4  1  0
 15 11  1  0
  1 18  1  0
  1 19  1  0
  1 20  1  0
  2 21  1  0
  2 22  1  0
  3 23  1  0
  3 24  1  0
  4 25  1  6
  5 26  1  0
  5 27  1  0
  6 28  1  0
  6 29  1  0
  7 30  1  1
  8 31  1  0
  8 32  1  0
  9 33  1  0
 10 34  1  0
 10 35  1  0
 12 36  1  0
 14 37  1  0
 16 38  1  0
 16 39  1  0
 16 40  1  0
 17 41  1  0
 17 42  1  0
M  CHG  1   4   1
M  END
>  <UniqueID>  (10) 
9

>  <SMILES>  (10) 
CCC[N@H+]1CC[C@H](CNCc2cncn2C)C1

>  <Energy>  (10) 
73.84812362040343

>  <Genealogy>  (10) 
CCC[NH+]1CCC(CNCc2cncn2C)C1 (protonated)
CCC[N@H+]1CC[C@H](CNCc2cncn2C)C1 (chirality)
CCC[N@H+]1CC[C@H](CNCc2cncn2C)C1 (3D coordinates assigned)
CCC[N@H+]1CC[C@H](CNCc2cncn2C)C1 (nonaromatic ring conformer: 73.84812362040343 kcal/mol)

>  <smiles>  (10) 
CCCN1CCC(CNCc2cncn2C)C1

>  <score_type>  (10) 
oracle

>  <origin>  (10) 
adg

>  <m_score__min__energy>  (10) 
-6.0300000000000002

>  <m_primary>  (10) 
energy

$$$$
10:0
     RDKit          3D

 64 66  0  0  0  0  0  0  0  0999 V2000
   -0.8410   21.8930  -30.5340 C   0  0  0  0  0  0  0  0  0  0  0  0
   -2.0550   22.8330  -30.4620 C   0  0  0  0  0  0  0  0  0  0  0  0
   -3.2740   22.2190  -29.8830 N   0  0  0  0  0  0  0  0  0  0  0  0
   -3.1990   20.7790  -29.5520 C   0  0  0  0  0  0  0  0  0  0  0  0
   -2.7420   20.4710  -28.1190 C   0  0  0  0  0  0  0  0  0  0  0  0
   -4.0280   23.0600  -28.9270 C   0  0  0  0  0  0  0  0  0  0  0  0
   -3.9030   24.5370  -29.2990 C   0  0  0  0  0  0  0  0  0  0  0  0
   -4.2160   24.7220  -30.6680 O   0  0  0  0  0  0  0  0  0  0  0  0
   -5.3530   25.5550  -30.7890 C   0  0  0  0  0  0  0  0  0  0  0  0
   -6.5790   24.8760  -30.1740 C   0  0  0  0  0  0  0  0  0  0  0  0
   -7.2220   23.8230  -31.1070 C   0  0  0  0  0  0  0  0  0  0  0  0
   -6.2630   23.3280  -32.2050 C   0  0  0  0  0  0  0  0  0  0  0  0
   -5.2360   22.4320  -31.6530 N   0  0  0  0  0  0  0  0  0  0  0  0
   -5.3060   21.1200  -32.2660 C   0  0  0  0  0  0  0  0  0  0  0  0
   -4.1940   20.6010  -32.9440 C   0  0  0  0  0  0  0  0  0  0  0  0
   -4.2310   19.3660  -33.5380 C   0  0  0  0  0  0  0  0  0  0  0  0
   -5.3490   18.5740  -33.5040 N   0  0  0  0  0  0  0  0  0  0  0  0
   -5.3480   17.2650  -34.1870 C   0  0  0  0  0  0  0  0  0  0  0  0
   -6.4640   19.0120  -32.8080 C   0  0  0  0  0  0  0  0  0  0  0  0
   -7.6180   18.2010  -32.6810 C   0  0  0  0  0  0  0  0  0  0  0  0
   -8.7390   18.6460  -31.9830 C   0  0  0  0  0  0  0  0  0  0  0  0
   -8.7460   19.9040  -31.3960 C   0  0  0  0  0  0  0  0  0  0  0  0
   -7.6280   20.7280  -31.4930 C   0  0  0  0  0  0  0  0  0  0  0  0
   -6.4690   20.3030  -32.1840 C   0  0  0  0  0  0  0  0  0  0  0  0
   -2.9340   19.0440  -34.2040 C   0  0  0  0  0  0  0  0  0  0  0  0
   -2.0060   20.2010  -33.8160 C   0  0  0  0  0  0  0  0  0  0  0  0
   -2.8780   21.2690  -33.1450 C   0  0  0  0  0  0  0  0  0  0  0  0
   -0.5130   21.6390  -29.5152 H   0  0  0  0  0  0  0  0  0  0  0  0
   -1.1205   20.9735  -31.0692 H   0  0  0  0  0  0  0  0  0  0  0  0
   -0.0207   22.3938  -31.0692 H   0  0  0  0  0  0  0  0  0  0  0  0
   -1.7812   23.7013  -29.8447 H   0  0  0  0  0  0  0  0  0  0  0  0
   -2.3032   23.1038  -31.4989 H   0  0  0  0  0  0  0  0  0  0  0  0
   -4.1988   20.3428  -29.6936 H   0  0  0  0  0  0  0  0  0  0  0  0
   -2.4386   20.3470  -30.2192 H   0  0  0  0  0  0  0  0  0  0  0  0
   -3.4356   20.9384  -27.4045 H   0  0  0  0  0  0  0  0  0  0  0  0
   -2.7335   19.3822  -27.9629 H   0  0  0  0  0  0  0  0  0  0  0  0
   -1.7296   20.8717  -27.9629 H   0  0  0  0  0  0  0  0  0  0  0  0
   -5.0888   22.7699  -28.9482 H   0  0  0  0  0  0  0  0  0  0  0  0
   -3.6141   22.9109  -27.9188 H   0  0  0  0  0  0  0  0  0  0  0  0
   -4.5981   25.1273  -28.6838 H   0  0  0  0  0  0  0  0  0  0  0  0
   -2.8697   24.8678  -29.1179 H   0  0  0  0  0  0  0  0  0  0  0  0
   -5.1641   26.5044  -30.2665 H   0  0  0  0  0  0  0  0  0  0  0  0
   -5.5462   25.7427  -31.8555 H   0  0  0  0  0  0  0  0  0  0  0  0
   -6.2726   24.3776  -29.2425 H   0  0  0  0  0  0  0  0  0  0  0  0
   -7.3314   25.6581  -29.9948 H   0  0  0  0  0  0  0  0  0  0  0  0
   -7.5348   22.9608  -30.4998 H   0  0  0  0  0  0  0  0  0  0  0  0
   -8.0757   24.3036  -31.6073 H   0  0  0  0  0  0  0  0  0  0  0  0
   -6.8408   22.7844  -32.9670 H   0  0  0  0  0  0  0  0  0  0  0  0
   -5.7608   24.2012  -32.6470 H   0  0  0  0  0  0  0  0  0  0  0  0
   -5.3920   22.3550  -30.6250 H   0  0  0  0  0  0  0  0  0  0  0  0
   -4.2810   22.8370  -31.7700 H   0  0  0  0  0  0  0  0  0  0  0  0
   -5.3474   16.4602  -33.4372 H   0  0  0  0  0  0  0  0  0  0  0  0
   -6.2461   17.1791  -34.8163 H   0  0  0  0  0  0  0  0  0  0  0  0
   -4.4498   17.1805  -34.8163 H   0  0  0  0  0  0  0  0  0  0  0  0
   -7.6297   17.2021  -33.1415 H   0  0  0  0  0  0  0  0  0  0  0  0
   -9.6230   17.9971  -31.8967 H   0  0  0  0  0  0  0  0  0  0  0  0
   -9.6374   20.2507  -30.8527 H   0  0  0  0  0  0  0  0  0  0  0  0
   -7.6461   21.7236  -31.0257 H   0  0  0  0  0  0  0  0  0  0  0  0
   -2.5358   18.0864  -33.8374 H   0  0  0  0  0  0  0  0  0  0  0  0
   -3.0382   18.9387  -35.2940 H   0  0  0  0  0  0  0  0  0  0  0  0
   -1.2348   19.8481  -33.1155 H   0  0  0  0  0  0  0  0  0  0  0  0
   -1.4964   20.6094  -34.7012 H   0  0  0  0  0  0  0  0  0  0  0  0
   -2.4457   21.5750  -32.1809 H   0  0  0  0  0  0  0  0  0  0  0  0
   -2.9605   22.1837  -33.7505 H   0  0  0  0  0  0  0  0  0  0  0  0
  1  2  1  0
  2  3  1  0
  3  4  1  0
  4  5  1  0
  3  6  1  0
  6  7  1  0
  7  8  1  0
  8  9  1  0
  9 10  1  0
 10 11  1  0
 11 12  1  0
 12 13  1  0
 13 14  1  0
 14 15  2  0
 15 16  1  0
 16 17  2  0
 17 18  1  0
 17 19  1  0
 19 20  2  0
 20 21  1  0
 21 22  2  0
 22 23  1  0
 23 24  2  0
 16 25  1  0
 25 26  1  0
 26 27  1  0
 24 14  1  0
 27 15  1  0
 24 19  1  0
  1 28  1  0
  1 29  1  0
  1 30  1  0
  2 31  1  0
  2 32  1  0
  4 33  1  0
  4 34  1  0
  5 35  1  0
  5 36  1  0
  5 37  1  0
  6 38  1  0
  6 39  1  0
  7 40  1  0
  7 41  1  0
  9 42  1  0
  9 43  1  0
 10 44  1  0
 10 45  1  0
 11 46  1  0
 11 47  1  0
 12 48  1  0
 12 49  1  0
 13 50  1  0
 13 51  1  0
 18 52  1  0
 18 53  1  0
 18 54  1  0
 20 55  1  0
 21 56  1  0
 22 57  1  0
 23 58  1  0
 25 59  1  0
 25 60  1  0
 26 61  1  0
 26 62  1  0
 27 63  1  0
 27 64  1  0
M  CHG  2  13   1  17   1
M  END
>  <UniqueID>  (11) 
10

>  <SMILES>  (11) 
CCN(CC)CCOCCCC[NH2+]c1c2c([n+](C)c3ccccc13)CCC2

>  <Energy>  (11) 
87.64847419693228

>  <Genealogy>  (11) 
CCN(CC)CCOCCCC[NH2+]c1c2c([n+](C)c3ccccc13)CCC2 (protonated)
CCN(CC)CCOCCCC[NH2+]c1c2c([n+](C)c3ccccc13)CCC2 (3D coordinates assigned)
CCN(CC)CCOCCCC[NH2+]c1c2c([n+](C)c3ccccc13)CCC2 (nonaromatic ring conformer: 87.64847419693228 kcal/mol)

>  <smiles>  (11) 
CCN(CC)CCOCCCCNc1c2c([n+](C)c3ccccc13)CCC2

>  <score_type>  (11) 
oracle

>  <origin>  (11) 
adg

>  <m_score__min__energy>  (11) 
-8.1600000000000001

>  <m_primary>  (11) 
energy

$$$$
11:0
     RDKit          3D

 50 52  0  0  0  0  0  0  0  0999 V2000
   -3.0380   23.5880  -29.7400 C   0  0  0  0  0  0  0  0  0  0  0  0
   -3.7480   23.8420  -28.4070 C   0  0  0  0  0  0  0  0  0  0  0  0
   -4.9600   24.6650  -28.5600 N   0  0  0  0  0  0  0  0  0  0  0  0
   -5.4090   24.7430  -29.9600 C   0  0  0  0  0  0  0  0  0  0  0  0
   -6.8510   24.2270  -30.0970 C   0  0  0  0  0  0  0  0  0  0  0  0
   -7.1930   23.7990  -31.5330 C   0  0  0  0  0  0  0  0  0  0  0  0
   -5.9590   23.3590  -32.3310 C   0  0  0  0  0  0  0  0  0  0  0  0
   -5.3370   22.1890  -31.7120 N   0  0  0  0  0  0  0  0  0  0  0  0
   -5.4430   20.8810  -32.3000 C   0  0  0  0  0  0  0  0  0  0  0  0
   -6.6430   20.1560  -32.1960 C   0  0  0  0  0  0  0  0  0  0  0  0
   -7.7220   20.6540  -31.4360 C   0  0  0  0  0  0  0  0  0  0  0  0
   -8.8960   19.9180  -31.3030 C   0  0  0  0  0  0  0  0  0  0  0  0
   -9.0100   18.6720  -31.9110 C   0  0  0  0  0  0  0  0  0  0  0  0
   -7.9600   18.1660  -32.6770 C   0  0  0  0  0  0  0  0  0  0  0  0
   -6.7660   18.9100  -32.8650 C   0  0  0  0  0  0  0  0  0  0  0  0
   -5.7380   18.4470  -33.6640 N   0  0  0  0  0  0  0  0  0  0  0  0
   -5.9700   17.3150  -34.5880 C   0  0  0  0  0  0  0  0  0  0  0  0
   -4.4950   19.0520  -33.6100 C   0  0  0  0  0  0  0  0  0  0  0  0
   -3.3470   18.4520  -34.1870 C   0  0  0  0  0  0  0  0  0  0  0  0
   -2.1060   19.0870  -34.1450 C   0  0  0  0  0  0  0  0  0  0  0  0
   -1.9680   20.3170  -33.5120 C   0  0  0  0  0  0  0  0  0  0  0  0
   -0.2590   21.1700  -33.4430 Br  0  0  0  0  0  0  0  0  0  0  0  0
   -3.0700   20.9140  -32.9030 C   0  0  0  0  0  0  0  0  0  0  0  0
   -4.3390   20.2970  -32.9420 C   0  0  0  0  0  0  0  0  0  0  0  0
   -2.0181   23.2231  -29.5485 H   0  0  0  0  0  0  0  0  0  0  0  0
   -3.5955   22.8336  -30.3145 H   0  0  0  0  0  0  0  0  0  0  0  0
   -2.9904   24.5249  -30.3145 H   0  0  0  0  0  0  0  0  0  0  0  0
   -4.0322   22.8739  -27.9689 H   0  0  0  0  0  0  0  0  0  0  0  0
   -3.0512   24.3917  -27.7572 H   0  0  0  0  0  0  0  0  0  0  0  0
   -5.7190   24.2250  -27.9870 H   0  0  0  0  0  0  0  0  0  0  0  0
   -4.7850   25.6270  -28.1860 H   0  0  0  0  0  0  0  0  0  0  0  0
   -5.3665   25.7898  -30.2952 H   0  0  0  0  0  0  0  0  0  0  0  0
   -4.7489   24.1175  -30.5788 H   0  0  0  0  0  0  0  0  0  0  0  0
   -6.9797   23.3608  -29.4314 H   0  0  0  0  0  0  0  0  0  0  0  0
   -7.5265   25.0517  -29.8259 H   0  0  0  0  0  0  0  0  0  0  0  0
   -7.9019   22.9590  -31.4901 H   0  0  0  0  0  0  0  0  0  0  0  0
   -7.6252   24.6714  -32.0450 H   0  0  0  0  0  0  0  0  0  0  0  0
   -6.2633   23.1063  -33.3574 H   0  0  0  0  0  0  0  0  0  0  0  0
   -5.2311   24.1836  -32.3425 H   0  0  0  0  0  0  0  0  0  0  0  0
   -4.8560   22.2930  -30.7910 H   0  0  0  0  0  0  0  0  0  0  0  0
   -7.6348   21.6337  -30.9435 H   0  0  0  0  0  0  0  0  0  0  0  0
   -9.7344   20.3220  -30.7166 H   0  0  0  0  0  0  0  0  0  0  0  0
   -9.9313   18.0839  -31.7872 H   0  0  0  0  0  0  0  0  0  0  0  0
   -8.0588   17.1744  -33.1429 H   0  0  0  0  0  0  0  0  0  0  0  0
   -6.1575   16.4000  -34.0070 H   0  0  0  0  0  0  0  0  0  0  0  0
   -6.8423   17.5320  -35.2220 H   0  0  0  0  0  0  0  0  0  0  0  0
   -5.0826   17.1714  -35.2220 H   0  0  0  0  0  0  0  0  0  0  0  0
   -3.4367   17.4704  -34.6753 H   0  0  0  0  0  0  0  0  0  0  0  0
   -1.2321   18.6123  -34.6150 H   0  0  0  0  0  0  0  0  0  0  0  0
   -2.9496   21.8773  -32.3858 H   0  0  0  0  0  0  0  0  0  0  0  0
  1  2  1  0
  2  3  1  0
  3  4  1  0
  4  5  1  0
  5  6  1  0
  6  7  1  0
  7  8  1  0
  8  9  1  0
  9 10  2  0
 10 11  1  0
 11 12  2  0
 12 13  1  0
 13 14  2  0
 14 15  1  0
 15 16  2  0
 16 17  1  0
 16 18  1  0
 18 19  2  0
 19 20  1  0
 20 21  2  0
 21 22  1  0
 21 23  1  0
 23 24  2  0
 24  9  1  0
 15 10  1  0
 24 18  1  0
  1 25  1  0
  1 26  1  0
  1 27  1  0
  2 28  1  0
  2 29  1  0
  3 30  1  0
  3 31  1  0
  4 32  1  0
  4 33  1  0
  5 34  1  0
  5 35  1  0
  6 36  1  0
  6 37  1  0
  7 38  1  0
  7 39  1  0
  8 40  1  0
 11 41  1  0
 12 42  1  0
 13 43  1  0
 14 44  1  0
 17 45  1  0
 17 46  1  0
 17 47  1  0
 19 48  1  0
 20 49  1  0
 23 50  1  0
M  CHG  2   3   1  16   1
M  END
>  <UniqueID>  (12) 
11

>  <SMILES>  (12) 
CC[NH2+]CCCCNc1c2ccccc2[n+](C)c2ccc(Br)cc12

>  <Energy>  (12) 
69.52713055949143

>  <Genealogy>  (12) 
CC[NH2+]CCCCNc1c2ccccc2[n+](C)c2ccc(Br)cc12 (protonated)
CC[NH2+]CCCCNc1c2ccccc2[n+](C)c2ccc(Br)cc12 (3D coordinates assigned)
CC[NH2+]CCCCNc1c2ccccc2[n+](C)c2ccc(Br)cc12 (optimized conformer: 69.52713055949143 kcal/mol)

>  <smiles>  (12) 
CCNCCCCNc1c2ccccc2[n+](C)c2ccc(Br)cc12

>  <score_type>  (12) 
oracle

>  <origin>  (12) 
adg

>  <m_score__min__energy>  (12) 
-8.1699999999999999

>  <m_primary>  (12) 
energy

$$$$
12:0
     RDKit          3D

 54 56  0  0  0  0  0  0  0  0999 V2000
    0.5230   22.3330  -35.7400 C   0  0  0  0  0  0  0  0  0  0  0  0
    0.4160   20.8080  -35.7460 C   0  0  0  0  0  0  0  0  0  0  0  0
   -0.5140   20.2740  -34.6490 C   0  0  0  0  0  0  0  0  0  0  0  0
   -1.4180   21.3300  -34.1690 N   0  0  0  0  0  0  0  0  0  0  0  0
   -1.6120   21.2640  -32.7130 C   0  0  0  0  0  0  0  0  0  0  0  0
   -2.9450   21.9360  -32.3020 C   0  0  0  0  0  0  0  0  0  0  0  0
   -4.0470   21.8920  -33.3010 N   0  0  0  0  0  0  0  0  0  0  0  0
   -5.1750   21.0290  -32.9710 C   0  0  0  0  0  0  0  0  0  0  0  0
   -5.1310   19.6510  -33.3230 C   0  0  0  0  0  0  0  0  0  0  0  0
   -3.9520   19.0560  -33.8420 C   0  0  0  0  0  0  0  0  0  0  0  0
   -3.9320   17.7230  -34.2400 C   0  0  0  0  0  0  0  0  0  0  0  0
   -5.0770   16.9490  -34.1380 C   0  0  0  0  0  0  0  0  0  0  0  0
   -6.2400   17.4950  -33.6030 C   0  0  0  0  0  0  0  0  0  0  0  0
   -6.2810   18.8380  -33.1440 C   0  0  0  0  0  0  0  0  0  0  0  0
   -7.4140   19.3560  -32.5560 N   0  0  0  0  0  0  0  0  0  0  0  0
   -8.4920   18.4450  -32.1060 C   0  0  0  0  0  0  0  0  0  0  0  0
   -7.5280   20.7130  -32.3390 C   0  0  0  0  0  0  0  0  0  0  0  0
   -8.7860   21.2900  -32.0430 C   0  0  0  0  0  0  0  0  0  0  0  0
   -8.9040   22.6300  -31.7100 C   0  0  0  0  0  0  0  0  0  0  0  0
   -7.7770   23.4260  -31.6250 C   0  0  0  0  0  0  0  0  0  0  0  0
   -6.5060   22.9130  -31.9410 C   0  0  0  0  0  0  0  0  0  0  0  0
   -5.3640   23.7120  -31.7460 O   0  0  0  0  0  0  0  0  0  0  0  0
   -4.9080   24.2710  -30.5140 C   0  0  0  0  0  0  0  0  0  0  0  0
   -5.7260   25.5020  -30.1410 C   0  0  0  0  0  0  0  0  0  0  0  0
   -6.3840   21.5650  -32.4200 C   0  0  0  0  0  0  0  0  0  0  0  0
    0.5484   22.6947  -34.7015 H   0  0  0  0  0  0  0  0  0  0  0  0
    1.4447   22.6379  -36.2571 H   0  0  0  0  0  0  0  0  0  0  0  0
   -0.3471   22.7637  -36.2571 H   0  0  0  0  0  0  0  0  0  0  0  0
    0.0274   20.4866  -36.7236 H   0  0  0  0  0  0  0  0  0  0  0  0
    1.4211   20.4043  -35.5542 H   0  0  0  0  0  0  0  0  0  0  0  0
   -1.1120   19.4450  -35.0555 H   0  0  0  0  0  0  0  0  0  0  0  0
    0.1003   19.9263  -33.8053 H   0  0  0  0  0  0  0  0  0  0  0  0
   -2.3510   21.1840  -34.6220 H   0  0  0  0  0  0  0  0  0  0  0  0
   -1.6284   20.2098  -32.3993 H   0  0  0  0  0  0  0  0  0  0  0  0
   -0.7839   21.7977  -32.2236 H   0  0  0  0  0  0  0  0  0  0  0  0
   -3.3022   21.4384  -31.3884 H   0  0  0  0  0  0  0  0  0  0  0  0
   -2.7069   23.0028  -32.1783 H   0  0  0  0  0  0  0  0  0  0  0  0
   -4.3660   22.8530  -33.5470 H   0  0  0  0  0  0  0  0  0  0  0  0
   -3.6490   21.6070  -34.2240 H   0  0  0  0  0  0  0  0  0  0  0  0
   -3.0369   19.6598  -33.9313 H   0  0  0  0  0  0  0  0  0  0  0  0
   -3.0053   17.2825  -34.6365 H   0  0  0  0  0  0  0  0  0  0  0  0
   -5.0666   15.9035  -34.4798 H   0  0  0  0  0  0  0  0  0  0  0  0
   -7.1453   16.8739  -33.5344 H   0  0  0  0  0  0  0  0  0  0  0  0
   -8.5182   18.4229  -31.0065 H   0  0  0  0  0  0  0  0  0  0  0  0
   -9.4589   18.8038  -32.4887 H   0  0  0  0  0  0  0  0  0  0  0  0
   -8.2994   17.4318  -32.4887 H   0  0  0  0  0  0  0  0  0  0  0  0
   -9.6884   20.6620  -32.0780 H   0  0  0  0  0  0  0  0  0  0  0  0
   -9.8966   23.0612  -31.5129 H   0  0  0  0  0  0  0  0  0  0  0  0
   -7.8755   24.4742  -31.3061 H   0  0  0  0  0  0  0  0  0  0  0  0
   -5.0067   23.5180  -29.7182 H   0  0  0  0  0  0  0  0  0  0  0  0
   -3.8558   24.5697  -30.6310 H   0  0  0  0  0  0  0  0  0  0  0  0
   -5.7823   25.5867  -29.0457 H   0  0  0  0  0  0  0  0  0  0  0  0
   -5.2449   26.4009  -30.5541 H   0  0  0  0  0  0  0  0  0  0  0  0
   -6.7410   25.4067  -30.5541 H   0  0  0  0  0  0  0  0  0  0  0  0
  1  2  1  0
  2  3  1  0
  3  4  1  0
  4  5  1  0
  5  6  1  0
  6  7  1  0
  7  8  1  0
  8  9  2  0
  9 10  1  0
 10 11  2  0
 11 12  1  0
 12 13  2  0
 13 14  1  0
 14 15  2  0
 15 16  1  0
 15 17  1  0
 17 18  2  0
 18 19  1  0
 19 20  2  0
 20 21  1  0
 21 22  1  0
 22 23  1  0
 23 24  1  0
 21 25  2  0
 25  8  1  0
 14  9  1  0
 25 17  1  0
  1 26  1  0
  1 27  1  0
  1 28  1  0
  2 29  1  0
  2 30  1  0
  3 31  1  0
  3 32  1  0
  4 33  1  0
  5 34  1  0
  5 35  1  0
  6 36  1  0
  6 37  1  0
  7 38  1  0
  7 39  1  0
 10 40  1  0
 11 41  1  0
 12 42  1  0
 13 43  1  0
 16 44  1  0
 16 45  1  0
 16 46  1  0
 18 47  1  0
 19 48  1  0
 20 49  1  0
 23 50  1  0
 23 51  1  0
 24 52  1  0
 24 53  1  0
 24 54  1  0
M  CHG  2   7   1  15   1
M  END
>  <UniqueID>  (13) 
12

>  <SMILES>  (13) 
CCCNCC[NH2+]c1c2ccccc2[n+](C)c2cccc(OCC)c12

>  <Energy>  (13) 
87.26970167441979

>  <Genealogy>  (13) 
CCCNCC[NH2+]c1c2ccccc2[n+](C)c2cccc(OCC)c12 (protonated)
CCCNCC[NH2+]c1c2ccccc2[n+](C)c2cccc(OCC)c12 (3D coordinates assigned)
CCCNCC[NH2+]c1c2ccccc2[n+](C)c2cccc(OCC)c12 (optimized conformer: 87.26970167441979 kcal/mol)

>  <smiles>  (13) 
CCCNCCNc1c2ccccc2[n+](C)c2cccc(OCC)c12

>  <score_type>  (13) 
oracle

>  <origin>  (13) 
adg

>  <m_score__min__energy>  (13) 
-7.6600000000000001

>  <m_primary>  (13) 
energy

$$$$
13:0
     RDKit          3D

 48 48  0  0  0  0  0  0  0  0999 V2000
   -2.7380   20.4280  -27.5420 C   0  0  0  0  0  0  0  0  0  0  0  0
   -2.8480   21.1860  -28.8770 C   0  0  0  0  0  0  0  0  0  0  0  0
   -1.8400   22.2610  -29.0870 N   0  0  2  0  0  0  0  0  0  0  0  0
   -0.5370   21.7880  -29.6000 C   0  0  0  0  0  0  0  0  0  0  0  0
   -1.7040   23.2100  -27.9510 C   0  0  0  0  0  0  0  0  0  0  0  0
   -1.8480   24.7040  -28.3060 C   0  0  0  0  0  0  0  0  0  0  0  0
   -2.8020   24.8950  -29.3360 O   0  0  0  0  0  0  0  0  0  0  0  0
   -4.0510   24.3450  -28.9740 C   0  0  0  0  0  0  0  0  0  0  0  0
   -5.1320   24.9370  -29.8740 C   0  0  0  0  0  0  0  0  0  0  0  0
   -4.9850   24.4720  -31.2160 O   0  0  0  0  0  0  0  0  0  0  0  0
   -5.4310   23.2330  -31.7100 C   0  0  0  0  0  0  0  0  0  0  0  0
   -6.7960   22.9370  -31.8850 C   0  0  0  0  0  0  0  0  0  0  0  0
   -7.1940   21.6940  -32.3820 C   0  0  0  0  0  0  0  0  0  0  0  0
   -8.5190   21.4210  -32.4840 F   0  0  0  0  0  0  0  0  0  0  0  0
   -6.2320   20.7300  -32.7260 C   0  0  0  0  0  0  0  0  0  0  0  0
   -6.6190   19.3950  -33.2360 C   0  0  0  0  0  0  0  0  0  0  0  0
   -7.0130   18.3760  -32.4550 C   0  0  0  0  0  0  0  0  0  0  0  0
   -8.3580   18.2670  -31.9450 C   0  0  0  0  0  0  0  0  0  0  0  0
   -9.4370   18.1800  -31.5350 N   0  0  0  0  0  0  0  0  0  0  0  0
   -6.0960   17.3040  -32.1730 C   0  0  0  0  0  0  0  0  0  0  0  0
   -5.3580   16.4420  -31.9470 N   0  0  0  0  0  0  0  0  0  0  0  0
   -4.8760   21.0080  -32.5180 C   0  0  0  0  0  0  0  0  0  0  0  0
   -4.4670   22.2610  -32.0190 C   0  0  0  0  0  0  0  0  0  0  0  0
   -3.1140   22.5770  -31.8180 O   0  0  0  0  0  0  0  0  0  0  0  0
   -2.0230   21.8240  -32.3370 C   0  0  0  0  0  0  0  0  0  0  0  0
   -2.8410   21.1376  -26.7079 H   0  0  0  0  0  0  0  0  0  0  0  0
   -3.5360   19.6733  -27.4820 H   0  0  0  0  0  0  0  0  0  0  0  0
   -1.7584   19.9313  -27.4820 H   0  0  0  0  0  0  0  0  0  0  0  0
   -2.7392   20.4552  -29.6919 H   0  0  0  0  0  0  0  0  0  0  0  0
   -3.8267   21.6879  -28.8602 H   0  0  0  0  0  0  0  0  0  0  0  0
   -2.2280   22.8480  -29.8650 H   0  0  0  0  0  0  0  0  0  0  0  0
    0.1246   21.5478  -28.7546 H   0  0  0  0  0  0  0  0  0  0  0  0
   -0.6894   20.8878  -30.2136 H   0  0  0  0  0  0  0  0  0  0  0  0
   -0.0765   22.5763  -30.2136 H   0  0  0  0  0  0  0  0  0  0  0  0
   -2.4781   22.9627  -27.2097 H   0  0  0  0  0  0  0  0  0  0  0  0
   -0.6756   23.0880  -27.5801 H   0  0  0  0  0  0  0  0  0  0  0  0
   -2.1705   25.2562  -27.4110 H   0  0  0  0  0  0  0  0  0  0  0  0
   -0.8742   25.0741  -28.6594 H   0  0  0  0  0  0  0  0  0  0  0  0
   -4.0236   23.2525  -29.0995 H   0  0  0  0  0  0  0  0  0  0  0  0
   -4.2713   24.5812  -27.9225 H   0  0  0  0  0  0  0  0  0  0  0  0
   -6.1204   24.6381  -29.4950 H   0  0  0  0  0  0  0  0  0  0  0  0
   -5.0349   26.0327  -29.8678 H   0  0  0  0  0  0  0  0  0  0  0  0
   -7.5551   23.6906  -31.6283 H   0  0  0  0  0  0  0  0  0  0  0  0
   -6.5815   19.2273  -34.3225 H   0  0  0  0  0  0  0  0  0  0  0  0
   -4.1218   20.2405  -32.7464 H   0  0  0  0  0  0  0  0  0  0  0  0
   -1.4308   21.4153  -31.5050 H   0  0  0  0  0  0  0  0  0  0  0  0
   -2.4078   20.9983  -32.9535 H   0  0  0  0  0  0  0  0  0  0  0  0
   -1.3874   22.4766  -32.9535 H   0  0  0  0  0  0  0  0  0  0  0  0
  1  2  1  0
  2  3  1  0
  3  4  1  0
  3  5  1  0
  5  6  1  0
  6  7  1  0
  7  8  1  0
  8  9  1  0
  9 10  1  0
 10 11  1  0
 11 12  2  0
 12 13  1  0
 13 14  1  0
 13 15  2  0
 15 16  1  0
 16 17  2  3
 17 18  1  0
 18 19  3  0
 17 20  1  0
 20 21  3  0
 15 22  1  0
 22 23  2  0
 23 24  1  0
 24 25  1  0
 23 11  1  0
  1 26  1  0
  1 27  1  0
  1 28  1  0
  2 29  1  0
  2 30  1  0
  3 31  1  6
  4 32  1  0
  4 33  1  0
  4 34  1  0
  5 35  1  0
  5 36  1  0
  6 37  1  0
  6 38  1  0
  8 39  1  0
  8 40  1  0
  9 41  1  0
  9 42  1  0
 12 43  1  0
 16 44  1  0
 22 45  1  0
 25 46  1  0
 25 47  1  0
 25 48  1  0
M  CHG  1   3   1
M  END
>  <UniqueID>  (14) 
13

>  <SMILES>  (14) 
CC[N@H+](C)CCOCCOc1cc(F)c(C=C(C#N)C#N)cc1OC

>  <Energy>  (14) 
58.26579460344449

>  <Genealogy>  (14) 
CC[NH+](C)CCOCCOc1cc(F)c(C=C(C#N)C#N)cc1OC (protonated)
CC[N@H+](C)CCOCCOc1cc(F)c(C=C(C#N)C#N)cc1OC (chirality)
CC[N@H+](C)CCOCCOc1cc(F)c(C=C(C#N)C#N)cc1OC (3D coordinates assigned)
CC[N@H+](C)CCOCCOc1cc(F)c(C=C(C#N)C#N)cc1OC (optimized conformer: 58.26579460344449 kcal/mol)

>  <smiles>  (14) 
CCN(C)CCOCCOc1cc(F)c(C=C(C#N)C#N)cc1OC

>  <score_type>  (14) 
oracle

>  <origin>  (14) 
adg

>  <m_score__min__energy>  (14) 
-6.9100000000000001

>  <m_primary>  (14) 
energy

$$$$
14:0
     RDKit          3D

 76 79  0  0  0  0  0  0  0  0999 V2000
   -3.8410   23.9440  -28.4020 C   0  0  0  0  0  0  0  0  0  0  0  0
   -3.3580   24.4480  -29.7620 C   0  0  0  0  0  0  0  0  0  0  0  0
   -4.4680   24.5640  -30.7340 N   0  0  0  0  0  0  0  0  0  0  0  0
   -5.3980   25.6950  -30.4920 C   0  0  0  0  0  0  0  0  0  0  0  0
   -6.7280   25.2900  -29.8380 C   0  0  0  0  0  0  0  0  0  0  0  0
   -5.1770   23.2790  -30.9400 C   0  0  0  0  0  0  0  0  0  0  0  0
   -4.2030   22.2340  -31.4870 C   0  0  0  0  0  0  0  0  0  0  0  0
   -4.5550   21.8510  -32.8540 N   0  0  0  0  0  0  0  0  0  0  0  0
   -5.0840   20.5450  -33.1200 C   0  0  0  0  0  0  0  0  0  0  0  0
   -6.4530   20.3200  -32.8910 C   0  0  0  0  0  0  0  0  0  0  0  0
   -7.3220   21.3970  -32.6040 C   0  0  0  0  0  0  0  0  0  0  0  0
   -8.6690   21.1740  -32.3310 C   0  0  0  0  0  0  0  0  0  0  0  0
   -9.1720   19.8790  -32.3250 C   0  0  0  0  0  0  0  0  0  0  0  0
   -8.3350   18.8000  -32.6080 C   0  0  0  0  0  0  0  0  0  0  0  0
   -6.9650   18.9980  -32.9240 C   0  0  0  0  0  0  0  0  0  0  0  0
   -6.1230   17.9400  -33.2060 N   0  0  0  0  0  0  0  0  0  0  0  0
   -6.6900   16.5950  -33.4560 C   0  0  0  0  0  0  0  0  0  0  0  0
   -4.7590   18.1380  -33.2820 C   0  0  0  0  0  0  0  0  0  0  0  0
   -3.8590   17.0520  -33.2090 C   0  0  0  0  0  0  0  0  0  0  0  0
   -2.4920   17.2430  -33.3360 C   0  0  0  0  0  0  0  0  0  0  0  0
   -1.9860   18.5010  -33.6200 C   0  0  0  0  0  0  0  0  0  0  0  0
   -2.8380   19.6180  -33.7460 C   0  0  0  0  0  0  0  0  0  0  0  0
   -2.3180   20.8970  -34.2170 N   0  0  0  0  0  0  0  0  0  0  0  0
   -1.0810   21.3700  -33.5500 C   0  0  0  0  0  0  0  0  0  0  0  0
   -1.2790   21.5500  -32.0320 C   0  0  0  0  0  0  0  0  0  0  0  0
   -0.4820   20.4900  -31.2410 C   0  0  0  0  0  0  0  0  0  0  0  0
   -1.2270   19.8970  -30.1090 N   0  0  0  0  0  0  0  0  0  0  0  0
   -2.0900   20.8720  -29.4010 C   0  0  0  0  0  0  0  0  0  0  0  0
   -2.5940   20.3080  -28.0700 C   0  0  0  0  0  0  0  0  0  0  0  0
   -1.4210   19.9900  -27.1240 C   0  0  0  0  0  0  0  0  0  0  0  0
   -0.1260   19.6210  -27.8720 C   0  0  0  0  0  0  0  0  0  0  0  0
   -0.4260   18.9970  -29.2420 C   0  0  0  0  0  0  0  0  0  0  0  0
   -4.2220   19.4540  -33.3940 C   0  0  0  0  0  0  0  0  0  0  0  0
   -3.3185   24.4893  -27.6022 H   0  0  0  0  0  0  0  0  0  0  0  0
   -4.9245   24.1115  -28.3126 H   0  0  0  0  0  0  0  0  0  0  0  0
   -3.6276   22.8686  -28.3126 H   0  0  0  0  0  0  0  0  0  0  0  0
   -2.8955   25.4374  -29.6307 H   0  0  0  0  0  0  0  0  0  0  0  0
   -2.6336   23.7207  -30.1573 H   0  0  0  0  0  0  0  0  0  0  0  0
   -4.8962   26.4189  -29.8330 H   0  0  0  0  0  0  0  0  0  0  0  0
   -5.6464   26.1155  -31.4776 H   0  0  0  0  0  0  0  0  0  0  0  0
   -6.6231   25.3219  -28.7435 H   0  0  0  0  0  0  0  0  0  0  0  0
   -7.5182   25.9882  -30.1511 H   0  0  0  0  0  0  0  0  0  0  0  0
   -6.9949   24.2699  -30.1511 H   0  0  0  0  0  0  0  0  0  0  0  0
   -5.5870   22.9299  -29.9808 H   0  0  0  0  0  0  0  0  0  0  0  0
   -5.9953   23.4261  -31.6602 H   0  0  0  0  0  0  0  0  0  0  0  0
   -3.1860   22.6532  -31.4819 H   0  0  0  0  0  0  0  0  0  0  0  0
   -4.2555   21.3395  -30.8489 H   0  0  0  0  0  0  0  0  0  0  0  0
   -4.6210   22.5740  -33.6080 H   0  0  0  0  0  0  0  0  0  0  0  0
   -6.9292   22.4244  -32.5962 H   0  0  0  0  0  0  0  0  0  0  0  0
   -9.3352   22.0235  -32.1200 H   0  0  0  0  0  0  0  0  0  0  0  0
  -10.2337   19.7042  -32.0963 H   0  0  0  0  0  0  0  0  0  0  0  0
   -8.7429   17.7787  -32.5860 H   0  0  0  0  0  0  0  0  0  0  0  0
   -6.8984   16.1007  -32.4957 H   0  0  0  0  0  0  0  0  0  0  0  0
   -7.6240   16.6915  -34.0290 H   0  0  0  0  0  0  0  0  0  0  0  0
   -5.9688   15.9938  -34.0290 H   0  0  0  0  0  0  0  0  0  0  0  0
   -4.2499   16.0364  -33.0485 H   0  0  0  0  0  0  0  0  0  0  0  0
   -1.8061   16.3922  -33.2108 H   0  0  0  0  0  0  0  0  0  0  0  0
   -0.9014   18.6309  -33.7494 H   0  0  0  0  0  0  0  0  0  0  0  0
   -2.0540   20.7880  -35.2230 H   0  0  0  0  0  0  0  0  0  0  0  0
   -3.0690   21.6190  -34.1480 H   0  0  0  0  0  0  0  0  0  0  0  0
   -0.2818   20.6335  -33.7195 H   0  0  0  0  0  0  0  0  0  0  0  0
   -0.8161   22.3483  -33.9775 H   0  0  0  0  0  0  0  0  0  0  0  0
   -0.9325   22.5524  -31.7403 H   0  0  0  0  0  0  0  0  0  0  0  0
   -2.3477   21.4297  -31.8010 H   0  0  0  0  0  0  0  0  0  0  0  0
   -0.2018   19.6813  -31.9320 H   0  0  0  0  0  0  0  0  0  0  0  0
    0.3915   21.0033  -30.8126 H   0  0  0  0  0  0  0  0  0  0  0  0
   -1.5111   21.7868  -29.2059 H   0  0  0  0  0  0  0  0  0  0  0  0
   -2.9608   21.0895  -30.0369 H   0  0  0  0  0  0  0  0  0  0  0  0
   -3.2510   21.0491  -27.5914 H   0  0  0  0  0  0  0  0  0  0  0  0
   -3.1440   19.3767  -28.2705 H   0  0  0  0  0  0  0  0  0  0  0  0
   -1.2250   20.8741  -26.4995 H   0  0  0  0  0  0  0  0  0  0  0  0
   -1.7124   19.1171  -26.5213 H   0  0  0  0  0  0  0  0  0  0  0  0
    0.4744   20.5311  -28.0175 H   0  0  0  0  0  0  0  0  0  0  0  0
    0.4224   18.8824  -27.2689 H   0  0  0  0  0  0  0  0  0  0  0  0
    0.5264   18.7761  -29.7460 H   0  0  0  0  0  0  0  0  0  0  0  0
   -1.0135   18.0825  -29.0733 H   0  0  0  0  0  0  0  0  0  0  0  0
  1  2  1  0
  2  3  1  0
  3  4  1  0
  4  5  1  0
  3  6  1  0
  6  7  1  0
  7  8  1  0
  8  9  1  0
  9 10  2  0
 10 11  1  0
 11 12  2  0
 12 13  1  0
 13 14  2  0
 14 15  1  0
 15 16  2  0
 16 17  1  0
 16 18  1  0
 18 19  2  0
 19 20  1  0
 20 21  2  0
 21 22  1  0
 22 23  1  0
 23 24  1  0
 24 25  1  0
 25 26  1  0
 26 27  1  0
 27 28  1  0
 28 29  1  0
 29 30  1  0
 30 31  1  0
 31 32  1  0
 22 33  2  0
 33  9  1  0
 15 10  1  0
 33 18  1  0
 32 27  1  0
  1 34  1  0
  1 35  1  0
  1 36  1  0
  2 37  1  0
  2 38  1  0
  4 39  1  0
  4 40  1  0
  5 41  1  0
  5 42  1  0
  5 43  1  0
  6 44  1  0
  6 45  1  0
  7 46  1  0
  7 47  1  0
  8 48  1  0
 11 49  1  0
 12 50  1  0
 13 51  1  0
 14 52  1  0
 17 53  1  0
 17 54  1  0
 17 55  1  0
 19 56  1  0
 20 57  1  0
 21 58  1  0
 23 59  1  0
 23 60  1  0
 24 61  1  0
 24 62  1  0
 25 63  1  0
 25 64  1  0
 26 65  1  0
 26 66  1  0
 28 67  1  0
 28 68  1  0
 29 69  1  0
 29 70  1  0
 30 71  1  0
 30 72  1  0
 31 73  1  0
 31 74  1  0
 32 75  1  0
 32 76  1  0
M  CHG  2  16   1  23   1
M  END
>  <UniqueID>  (15) 
14

>  <SMILES>  (15) 
CCN(CC)CCNc1c2ccccc2[n+](C)c2cccc([NH2+]CCCN3CCCCC3)c12

>  <Energy>  (15) 
127.98141498884239

>  <Genealogy>  (15) 
CCN(CC)CCNc1c2ccccc2[n+](C)c2cccc([NH2+]CCCN3CCCCC3)c12 (protonated)
CCN(CC)CCNc1c2ccccc2[n+](C)c2cccc([NH2+]CCCN3CCCCC3)c12 (3D coordinates assigned)
CCN(CC)CCNc1c2ccccc2[n+](C)c2cccc([NH2+]CCCN3CCCCC3)c12 (nonaromatic ring conformer: 127.98141498884239 kcal/mol)

>  <smiles>  (15) 
CCN(CC)CCNc1c2ccccc2[n+](C)c2cccc(NCCCN3CCCCC3)c12

>  <score_type>  (15) 
oracle

>  <origin>  (15) 
adg

>  <m_score__min__energy>  (15) 
-9.4700000000000006

>  <m_primary>  (15) 
energy

$$$$
15:0
     RDKit          3D

 56 58  0  0  0  0  0  0  0  0999 V2000
    2.8900   19.3550  -28.2100 C   0  0  0  0  0  0  0  0  0  0  0  0
    1.9260   19.2890  -29.3930 C   0  0  0  0  0  0  0  0  0  0  0  0
    0.5130   19.3930  -28.9570 N   0  0  0  0  0  0  0  0  0  0  0  0
   -0.4710   19.2680  -30.0620 C   0  0  0  0  0  0  0  0  0  0  0  0
   -0.5060   20.4730  -31.0130 C   0  0  0  0  0  0  0  0  0  0  0  0
    0.2180   18.4720  -27.8370 C   0  0  0  0  0  0  0  0  0  0  0  0
   -1.0850   18.8820  -27.1450 C   0  0  0  0  0  0  0  0  0  0  0  0
   -0.8920   20.0730  -26.3850 O   0  0  0  0  0  0  0  0  0  0  0  0
   -0.6240   21.3190  -26.9640 C   0  0  0  0  0  0  0  0  0  0  0  0
    0.3530   22.0130  -26.5700 O   0  0  0  0  0  0  0  0  0  0  0  0
   -1.5170   21.8250  -28.0620 C   0  0  1  0  0  0  0  0  0  0  0  0
   -2.9820   21.3900  -27.8310 C   0  0  0  0  0  0  0  0  0  0  0  0
   -3.9920   22.3150  -28.5440 C   0  0  0  0  0  0  0  0  0  0  0  0
   -3.3890   22.9550  -29.7330 N   0  0  1  0  0  0  0  0  0  0  0  0
   -4.3910   23.6720  -30.4990 C   0  0  0  0  0  0  0  0  0  0  0  0
   -4.1820   24.8680  -30.8410 O   0  0  0  0  0  0  0  0  0  0  0  0
   -5.6270   22.9920  -30.9590 C   0  0  0  0  0  0  0  0  0  0  0  0
   -7.2000   23.5540  -30.6670 S   0  0  0  0  0  0  0  0  0  0  0  0
   -7.9760   22.2900  -31.4440 C   0  0  0  0  0  0  0  0  0  0  0  0
   -9.3440   22.0890  -31.6040 C   0  0  0  0  0  0  0  0  0  0  0  0
   -9.7700   20.9480  -32.3000 C   0  0  0  0  0  0  0  0  0  0  0  0
   -8.8270   20.0390  -32.8170 C   0  0  0  0  0  0  0  0  0  0  0  0
   -7.4510   20.2630  -32.6430 C   0  0  0  0  0  0  0  0  0  0  0  0
   -7.0330   21.4050  -31.9470 C   0  0  0  0  0  0  0  0  0  0  0  0
   -5.7080   21.7890  -31.6780 C   0  0  0  0  0  0  0  0  0  0  0  0
   -4.3140   20.8550  -32.2180 Cl  0  0  0  0  0  0  0  0  0  0  0  0
   -2.2920   23.8820  -29.3580 C   0  0  0  0  0  0  0  0  0  0  0  0
   -1.4150   23.3520  -28.1980 C   0  0  0  0  0  0  0  0  0  0  0  0
    2.3201   19.3160  -27.2700 H   0  0  0  0  0  0  0  0  0  0  0  0
    3.5834   18.5022  -28.2540 H   0  0  0  0  0  0  0  0  0  0  0  0
    3.4607   20.2943  -28.2540 H   0  0  0  0  0  0  0  0  0  0  0  0
    2.1486   20.1182  -30.0806 H   0  0  0  0  0  0  0  0  0  0  0  0
    2.0602   18.3170  -29.8901 H   0  0  0  0  0  0  0  0  0  0  0  0
   -0.2187   18.3725  -30.6489 H   0  0  0  0  0  0  0  0  0  0  0  0
   -1.4648   19.2052  -29.5947 H   0  0  0  0  0  0  0  0  0  0  0  0
   -0.5330   21.4028  -30.4259 H   0  0  0  0  0  0  0  0  0  0  0  0
    0.3927   20.4658  -31.6472 H   0  0  0  0  0  0  0  0  0  0  0  0
   -1.4028   20.4136  -31.6472 H   0  0  0  0  0  0  0  0  0  0  0  0
    0.1165   17.4480  -28.2257 H   0  0  0  0  0  0  0  0  0  0  0  0
    1.0411   18.5171  -27.1086 H   0  0  0  0  0  0  0  0  0  0  0  0
   -1.8591   19.0594  -27.9061 H   0  0  0  0  0  0  0  0  0  0  0  0
   -1.3983   18.0739  -26.4676 H   0  0  0  0  0  0  0  0  0  0  0  0
   -1.1742   21.3767  -29.0062 H   0  0  0  0  0  0  0  0  0  0  0  0
   -3.1892   21.4073  -26.7508 H   0  0  0  0  0  0  0  0  0  0  0  0
   -3.1009   20.3795  -28.2490 H   0  0  0  0  0  0  0  0  0  0  0  0
   -4.3181   23.0973  -27.8428 H   0  0  0  0  0  0  0  0  0  0  0  0
   -4.8469   21.7064  -28.8737 H   0  0  0  0  0  0  0  0  0  0  0  0
   -2.9990   22.1900  -30.3320 H   0  0  0  0  0  0  0  0  0  0  0  0
  -10.0716   22.8058  -31.1956 H   0  0  0  0  0  0  0  0  0  0  0  0
  -10.8449   20.7626  -32.4425 H   0  0  0  0  0  0  0  0  0  0  0  0
   -9.1703   19.1468  -33.3612 H   0  0  0  0  0  0  0  0  0  0  0  0
   -6.7138   19.5534  -33.0466 H   0  0  0  0  0  0  0  0  0  0  0  0
   -2.7345   24.8413  -29.0515 H   0  0  0  0  0  0  0  0  0  0  0  0
   -1.6402   23.9896  -30.2375 H   0  0  0  0  0  0  0  0  0  0  0  0
   -1.7476   23.8168  -27.2582 H   0  0  0  0  0  0  0  0  0  0  0  0
   -0.3674   23.6083  -28.4146 H   0  0  0  0  0  0  0  0  0  0  0  0
  1  2  1  0
  2  3  1  0
  3  4  1  0
  4  5  1  0
  3  6  1  0
  6  7  1  0
  7  8  1  0
  8  9  1  0
  9 10  2  0
  9 11  1  0
 11 12  1  0
 12 13  1  0
 13 14  1  0
 14 15  1  0
 15 16  2  0
 15 17  1  0
 17 18  1  0
 18 19  1  0
 19 20  2  0
 20 21  1  0
 21 22  2  0
 22 23  1  0
 23 24  2  0
 24 25  1  0
 25 26  1  0
 14 27  1  0
 27 28  1  0
 28 11  1  0
 25 17  2  0
 24 19  1  0
  1 29  1  0
  1 30  1  0
  1 31  1  0
  2 32  1  0
  2 33  1  0
  4 34  1  0
  4 35  1  0
  5 36  1  0
  5 37  1  0
  5 38  1  0
  6 39  1  0
  6 40  1  0
  7 41  1  0
  7 42  1  0
 11 43  1  6
 12 44  1  0
 12 45  1  0
 13 46  1  0
 13 47  1  0
 14 48  1  6
 20 49  1  0
 21 50  1  0
 22 51  1  0
 23 52  1  0
 27 53  1  0
 27 54  1  0
 28 55  1  0
 28 56  1  0
M  CHG  1  14   1
M  END
>  <UniqueID>  (16) 
15

>  <SMILES>  (16) 
CCN(CC)CCOC(=O)C1CC[NH+](C(=O)c2sc3ccccc3c2Cl)CC1

>  <Energy>  (16) 
95.21945731077548

>  <Genealogy>  (16) 
CCN(CC)CCOC(=O)C1CC[NH+](C(=O)c2sc3ccccc3c2Cl)CC1 (protonated)
CCN(CC)CCOC(=O)C1CC[NH+](C(=O)c2sc3ccccc3c2Cl)CC1 (3D coordinates assigned)
CCN(CC)CCOC(=O)C1CC[NH+](C(=O)c2sc3ccccc3c2Cl)CC1 (nonaromatic ring conformer: 95.21945731077548 kcal/mol)

>  <smiles>  (16) 
CCN(CC)CCOC(=O)C1CCN(C(=O)c2sc3ccccc3c2Cl)CC1

>  <score_type>  (16) 
oracle

>  <origin>  (16) 
adg

>  <m_score__min__energy>  (16) 
-7.8799999999999999

>  <m_primary>  (16) 
energy

$$$$
16:0
     RDKit          3D

 79 82  0  0  0  0  0  0  0  0999 V2000
   -4.1380   24.1690  -28.6980 C   0  0  0  0  0  0  0  0  0  0  0  0
   -3.4580   24.3280  -30.0640 C   0  0  0  0  0  0  0  0  0  0  0  0
   -4.3460   24.9310  -31.0720 N   0  0  0  0  0  0  0  0  0  0  0  0
   -5.5580   25.5060  -30.4760 C   0  0  0  0  0  0  0  0  0  0  0  0
   -6.7510   24.5770  -30.7390 C   0  0  0  0  0  0  0  0  0  0  0  0
   -6.3200   23.1140  -30.9830 C   0  0  0  0  0  0  0  0  0  0  0  0
   -5.8610   22.8550  -32.3640 N   0  0  0  0  0  0  0  0  0  0  0  0
   -5.7740   21.4310  -32.6690 C   0  0  0  0  0  0  0  0  0  0  0  0
   -6.9100   20.5730  -32.5650 C   0  0  0  0  0  0  0  0  0  0  0  0
   -8.1780   21.0320  -32.1170 C   0  0  0  0  0  0  0  0  0  0  0  0
   -9.2630   20.1680  -31.9980 C   0  0  0  0  0  0  0  0  0  0  0  0
   -9.1240   18.8280  -32.3120 C   0  0  0  0  0  0  0  0  0  0  0  0
   -7.9040   18.3460  -32.7730 C   0  0  0  0  0  0  0  0  0  0  0  0
   -6.7860   19.2030  -32.9460 C   0  0  0  0  0  0  0  0  0  0  0  0
   -5.6000   18.7250  -33.4670 N   0  0  0  0  0  0  0  0  0  0  0  0
   -5.5730   17.4200  -34.1700 C   0  0  0  0  0  0  0  0  0  0  0  0
   -4.4520   19.4800  -33.3820 C   0  0  0  0  0  0  0  0  0  0  0  0
   -3.1770   18.9030  -33.6190 C   0  0  0  0  0  0  0  0  0  0  0  0
   -2.0200   19.6900  -33.6810 C   0  0  0  0  0  0  0  0  0  0  0  0
   -0.7480   19.1690  -33.9690 O   0  0  0  0  0  0  0  0  0  0  0  0
   -0.3870   17.7880  -33.9880 C   0  0  0  0  0  0  0  0  0  0  0  0
   -0.2100   17.2350  -32.5500 C   0  0  0  0  0  0  0  0  0  0  0  0
    0.8170   17.9440  -31.7110 N   0  0  0  0  0  0  0  0  0  0  0  0
    1.9040   18.4440  -32.5980 C   0  0  0  0  0  0  0  0  0  0  0  0
    1.4250   16.9510  -30.7610 C   0  0  0  0  0  0  0  0  0  0  0  0
    0.7050   16.9230  -29.3990 C   0  0  0  0  0  0  0  0  0  0  0  0
    0.8110   18.2310  -28.6780 N   0  0  0  0  0  0  0  0  0  0  0  0
   -0.3780   18.3980  -27.8060 C   0  0  0  0  0  0  0  0  0  0  0  0
    2.0140   18.2250  -27.8060 C   0  0  0  0  0  0  0  0  0  0  0  0
    0.9080   19.3850  -29.6300 C   0  0  0  0  0  0  0  0  0  0  0  0
    0.1990   19.0920  -30.9680 C   0  0  0  0  0  0  0  0  0  0  0  0
   -2.1190   21.0550  -33.4400 C   0  0  0  0  0  0  0  0  0  0  0  0
   -3.3400   21.6330  -33.1120 C   0  0  0  0  0  0  0  0  0  0  0  0
   -4.5260   20.8610  -33.0520 C   0  0  0  0  0  0  0  0  0  0  0  0
   -3.4014   24.3412  -27.8994 H   0  0  0  0  0  0  0  0  0  0  0  0
   -4.9546   24.9004  -28.6076 H   0  0  0  0  0  0  0  0  0  0  0  0
   -4.5456   23.1513  -28.6076 H   0  0  0  0  0  0  0  0  0  0  0  0
   -2.5733   24.9706  -29.9444 H   0  0  0  0  0  0  0  0  0  0  0  0
   -3.1849   23.3233  -30.4191 H   0  0  0  0  0  0  0  0  0  0  0  0
   -3.8270   25.6810  -31.5840 H   0  0  0  0  0  0  0  0  0  0  0  0
   -5.4143   25.6194  -29.3913 H   0  0  0  0  0  0  0  0  0  0  0  0
   -5.7550   26.4902  -30.9260 H   0  0  0  0  0  0  0  0  0  0  0  0
   -7.4200   24.6066  -29.8664 H   0  0  0  0  0  0  0  0  0  0  0  0
   -7.2566   24.9323  -31.6490 H   0  0  0  0  0  0  0  0  0  0  0  0
   -5.4981   22.8738  -30.2925 H   0  0  0  0  0  0  0  0  0  0  0  0
   -7.2059   22.4842  -30.8140 H   0  0  0  0  0  0  0  0  0  0  0  0
   -4.9860   23.3840  -32.5460 H   0  0  0  0  0  0  0  0  0  0  0  0
   -6.5210   23.3100  -33.0340 H   0  0  0  0  0  0  0  0  0  0  0  0
   -8.3050   22.0936  -31.8585 H   0  0  0  0  0  0  0  0  0  0  0  0
  -10.2343   20.5522  -31.6531 H   0  0  0  0  0  0  0  0  0  0  0  0
   -9.9780   18.1443  -32.1971 H   0  0  0  0  0  0  0  0  0  0  0  0
   -7.8031   17.2764  -33.0089 H   0  0  0  0  0  0  0  0  0  0  0  0
   -5.5562   16.6056  -33.4308 H   0  0  0  0  0  0  0  0  0  0  0  0
   -6.4694   17.3245  -34.8004 H   0  0  0  0  0  0  0  0  0  0  0  0
   -4.6735   17.3617  -34.8004 H   0  0  0  0  0  0  0  0  0  0  0  0
   -3.0958   17.8147  -33.7569 H   0  0  0  0  0  0  0  0  0  0  0  0
   -1.1777   17.2174  -34.4971 H   0  0  0  0  0  0  0  0  0  0  0  0
    0.5697   17.6853  -34.5210 H   0  0  0  0  0  0  0  0  0  0  0  0
   -1.1794   17.3095  -32.0355 H   0  0  0  0  0  0  0  0  0  0  0  0
    0.1504   16.2019  -32.6635 H   0  0  0  0  0  0  0  0  0  0  0  0
    2.7327   18.8252  -31.9832 H   0  0  0  0  0  0  0  0  0  0  0  0
    2.2664   17.6221  -33.2329 H   0  0  0  0  0  0  0  0  0  0  0  0
    1.5157   19.2540  -33.2329 H   0  0  0  0  0  0  0  0  0  0  0  0
    1.3665   15.9494  -31.2120 H   0  0  0  0  0  0  0  0  0  0  0  0
    2.4676   17.2530  -30.5827 H   0  0  0  0  0  0  0  0  0  0  0  0
   -0.3582   16.6946  -29.5646 H   0  0  0  0  0  0  0  0  0  0  0  0
    1.1867   16.1539  -28.7773 H   0  0  0  0  0  0  0  0  0  0  0  0
   -0.0683   18.3545  -26.7514 H   0  0  0  0  0  0  0  0  0  0  0  0
   -0.8486   19.3711  -28.0101 H   0  0  0  0  0  0  0  0  0  0  0  0
   -1.0985   17.5922  -28.0101 H   0  0  0  0  0  0  0  0  0  0  0  0
    1.7022   18.2266  -26.7511 H   0  0  0  0  0  0  0  0  0  0  0  0
    2.6107   17.3239  -28.0107 H   0  0  0  0  0  0  0  0  0  0  0  0
    2.6197   19.1201  -28.0107 H   0  0  0  0  0  0  0  0  0  0  0  0
    0.4420   20.2673  -29.1670 H   0  0  0  0  0  0  0  0  0  0  0  0
    1.9728   19.5620  -29.8416 H   0  0  0  0  0  0  0  0  0  0  0  0
   -0.8547   18.8521  -30.7629 H   0  0  0  0  0  0  0  0  0  0  0  0
    0.2966   19.9876  -31.5991 H   0  0  0  0  0  0  0  0  0  0  0  0
   -1.2204   21.6857  -33.5096 H   0  0  0  0  0  0  0  0  0  0  0  0
   -3.3860   22.7104  -32.8949 H   0  0  0  0  0  0  0  0  0  0  0  0
  1  2  1  0
  2  3  1  0
  3  4  1  0
  4  5  1  0
  5  6  1  0
  6  7  1  0
  7  8  1  0
  8  9  2  0
  9 10  1  0
 10 11  2  0
 11 12  1  0
 12 13  2  0
 13 14  1  0
 14 15  2  0
 15 16  1  0
 15 17  1  0
 17 18  2  0
 18 19  1  0
 19 20  1  0
 20 21  1  0
 21 22  1  0
 22 23  1  0
 23 24  1  0
 23 25  1  0
 25 26  1  0
 26 27  1  0
 27 28  1  0
 27 29  1  0
 27 30  1  0
 30 31  1  0
 19 32  2  0
 32 33  1  0
 33 34  2  0
 34  8  1  0
 14  9  1  0
 34 17  1  0
 31 23  1  0
  1 35  1  0
  1 36  1  0
  1 37  1  0
  2 38  1  0
  2 39  1  0
  3 40  1  0
  4 41  1  0
  4 42  1  0
  5 43  1  0
  5 44  1  0
  6 45  1  0
  6 46  1  0
  7 47  1  0
  7 48  1  0
 10 49  1  0
 11 50  1  0
 12 51  1  0
 13 52  1  0
 16 53  1  0
 16 54  1  0
 16 55  1  0
 18 56  1  0
 21 57  1  0
 21 58  1  0
 22 59  1  0
 22 60  1  0
 24 61  1  0
 24 62  1  0
 24 63  1  0
 25 64  1  0
 25 65  1  0
 26 66  1  0
 26 67  1  0
 28 68  1  0
 28 69  1  0
 28 70  1  0
 29 71  1  0
 29 72  1  0
 29 73  1  0
 30 74  1  0
 30 75  1  0
 31 76  1  0
 31 77  1  0
 32 78  1  0
 33 79  1  0
M  CHG  4   7   1  15   1  23   1  27   1
M  END
>  <UniqueID>  (17) 
16

>  <SMILES>  (17) 
CCNCCC[NH2+]c1c2ccccc2[n+](C)c2cc(OCC[N+]3(C)CC[N+](C)(C)CC3)ccc12

>  <Energy>  (17) 
133.57500185309704

>  <Genealogy>  (17) 
CCNCCC[NH2+]c1c2ccccc2[n+](C)c2cc(OCC[N+]3(C)CC[N+](C)(C)CC3)ccc12 (protonated)
CCNCCC[NH2+]c1c2ccccc2[n+](C)c2cc(OCC[N+]3(C)CC[N+](C)(C)CC3)ccc12 (3D coordinates assigned)
CCNCCC[NH2+]c1c2ccccc2[n+](C)c2cc(OCC[N+]3(C)CC[N+](C)(C)CC3)ccc12 (nonaromatic ring conformer: 133.57500185309704 kcal/mol)

>  <smiles>  (17) 
CCNCCCNc1c2ccccc2[n+](C)c2cc(OCC[N+]3(C)CC[N+](C)(C)CC3)ccc12

>  <score_type>  (17) 
oracle

>  <origin>  (17) 
adg

>  <m_score__min__energy>  (17) 
-7.9900000000000002

>  <m_primary>  (17) 
energy

$$$$
17:0
     RDKit          3D

 35 37  0  0  0  0  0  0  0  0999 V2000
   -3.8860   24.1520  -27.8180 C   0  0  0  0  0  0  0  0  0  0  0  0
   -2.5350   24.5740  -28.9580 S   0  0  0  0  0  0  0  0  0  0  0  0
   -3.2010   23.5930  -30.2990 C   0  0  0  0  0  0  0  0  0  0  0  0
   -4.4690   23.8410  -30.7630 N   0  0  0  0  0  0  0  0  0  0  0  0
   -5.0020   23.1290  -31.7990 C   0  0  0  0  0  0  0  0  0  0  0  0
   -6.6670   23.4670  -32.3720 S   0  0  0  0  0  0  0  0  0  0  0  0
   -7.4950   22.4690  -31.0830 C   0  0  0  0  0  0  0  0  0  0  0  0
   -7.7540   21.0610  -31.5520 C   0  0  0  0  0  0  0  0  0  0  0  0
   -6.7000   20.1330  -31.5840 C   0  0  0  0  0  0  0  0  0  0  0  0
   -6.9260   18.8230  -32.0160 C   0  0  0  0  0  0  0  0  0  0  0  0
   -8.2040   18.4270  -32.4150 C   0  0  0  0  0  0  0  0  0  0  0  0
   -9.2580   19.3440  -32.3890 C   0  0  0  0  0  0  0  0  0  0  0  0
   -9.0380   20.6590  -31.9680 C   0  0  0  0  0  0  0  0  0  0  0  0
  -10.0760   21.5340  -31.9680 F   0  0  0  0  0  0  0  0  0  0  0  0
   -4.2050   22.1500  -32.3800 C   0  0  0  0  0  0  0  0  0  0  0  0
   -4.4750   21.2870  -33.3750 N   0  0  0  0  0  0  0  0  0  0  0  0
   -3.3500   20.5320  -33.4730 C   0  0  0  0  0  0  0  0  0  0  0  0
   -2.3930   20.9110  -32.5870 N   0  0  0  0  0  0  0  0  0  0  0  0
   -1.1120   20.2660  -32.3340 C   0  0  0  0  0  0  0  0  0  0  0  0
   -2.9600   21.9180  -31.9030 C   0  0  0  0  0  0  0  0  0  0  0  0
   -2.4340   22.6150  -30.8680 N   0  0  0  0  0  0  0  0  0  0  0  0
   -3.5376   24.2608  -26.7803 H   0  0  0  0  0  0  0  0  0  0  0  0
   -4.7368   24.8272  -27.9918 H   0  0  0  0  0  0  0  0  0  0  0  0
   -4.2013   23.1126  -27.9918 H   0  0  0  0  0  0  0  0  0  0  0  0
   -6.8530   22.4354  -30.1904 H   0  0  0  0  0  0  0  0  0  0  0  0
   -8.4630   22.9385  -30.8536 H   0  0  0  0  0  0  0  0  0  0  0  0
   -5.6918   20.4387  -31.2675 H   0  0  0  0  0  0  0  0  0  0  0  0
   -6.0952   18.1025  -32.0417 H   0  0  0  0  0  0  0  0  0  0  0  0
   -8.3810   17.3941  -32.7495 H   0  0  0  0  0  0  0  0  0  0  0  0
  -10.2650   19.0300  -32.7010 H   0  0  0  0  0  0  0  0  0  0  0  0
   -5.3550   21.1930  -33.9290 H   0  0  0  0  0  0  0  0  0  0  0  0
   -3.2278   19.7064  -34.1895 H   0  0  0  0  0  0  0  0  0  0  0  0
   -0.9504   20.1846  -31.2490 H   0  0  0  0  0  0  0  0  0  0  0  0
   -1.1129   19.2609  -32.7810 H   0  0  0  0  0  0  0  0  0  0  0  0
   -0.3051   20.8653  -32.7810 H   0  0  0  0  0  0  0  0  0  0  0  0
  1  2  1  0
  2  3  1  0
  3  4  2  0
  4  5  1  0
  5  6  1  0
  6  7  1  0
  7  8  1  0
  8  9  2  0
  9 10  1  0
 10 11  2  0
 11 12  1  0
 12 13  2  0
 13 14  1  0
  5 15  2  0
 15 16  1  0
 16 17  2  0
 17 18  1  0
 18 19  1  0
 18 20  1  0
 20 21  2  0
 21  3  1  0
 13  8  1  0
 20 15  1  0
  1 22  1  0
  1 23  1  0
  1 24  1  0
  7 25  1  0
  7 26  1  0
  9 27  1  0
 10 28  1  0
 11 29  1  0
 12 30  1  0
 16 31  1  0
 17 32  1  0
 19 33  1  0
 19 34  1  0
 19 35  1  0
M  CHG  1  16   1
M  END
>  <UniqueID>  (18) 
17

>  <SMILES>  (18) 
CSc1nc(SCc2ccccc2F)c2[nH+]cn(C)c2n1

>  <Energy>  (18) 
68.70612432591324

>  <Genealogy>  (18) 
CSc1nc(SCc2ccccc2F)c2[nH+]cn(C)c2n1 (protonated)
CSc1nc(SCc2ccccc2F)c2[nH+]cn(C)c2n1 (3D coordinates assigned)
CSc1nc(SCc2ccccc2F)c2[nH+]cn(C)c2n1 (optimized conformer: 68.70612432591324 kcal/mol)

>  <smiles>  (18) 
CSc1nc(SCc2ccccc2F)c2ncn(C)c2n1

>  <score_type>  (18) 
oracle

>  <origin>  (18) 
adg

>  <m_score__min__energy>  (18) 
-6.7800000000000002

>  <m_primary>  (18) 
energy

$$$$
18:0
     RDKit          3D

 62 64  0  0  0  0  0  0  0  0999 V2000
   -0.4160   22.7970  -26.7690 C   0  0  0  0  0  0  0  0  0  0  0  0
    0.2650   22.8290  -28.1330 C   0  0  0  0  0  0  0  0  0  0  0  0
    0.1620   24.1750  -28.7100 N   0  0  0  0  0  0  0  0  0  0  0  0
   -0.1980   25.1770  -27.6950 C   0  0  0  0  0  0  0  0  0  0  0  0
   -1.5190   25.8600  -28.0470 C   0  0  0  0  0  0  0  0  0  0  0  0
   -2.0690   25.2510  -29.1990 O   0  0  0  0  0  0  0  0  0  0  0  0
   -3.1010   24.3490  -28.8460 C   0  0  0  0  0  0  0  0  0  0  0  0
   -2.7810   22.9430  -29.3840 C   0  0  0  0  0  0  0  0  0  0  0  0
   -1.9320   22.9720  -30.5830 N   0  0  0  0  0  0  0  0  0  0  0  0
   -1.2810   21.6810  -30.8510 C   0  0  0  0  0  0  0  0  0  0  0  0
   -2.0030   20.9460  -31.9920 C   0  0  0  0  0  0  0  0  0  0  0  0
   -2.9530   21.7930  -32.7490 N   0  0  0  0  0  0  0  0  0  0  0  0
   -4.3400   21.3430  -32.6530 C   0  0  0  0  0  0  0  0  0  0  0  0
   -4.7290   20.1010  -33.2300 C   0  0  0  0  0  0  0  0  0  0  0  0
   -3.7980   19.2580  -33.8920 C   0  0  0  0  0  0  0  0  0  0  0  0
   -4.2040   18.0820  -34.5180 C   0  0  0  0  0  0  0  0  0  0  0  0
   -5.5410   17.7170  -34.5090 C   0  0  0  0  0  0  0  0  0  0  0  0
   -6.4740   18.5030  -33.8410 C   0  0  0  0  0  0  0  0  0  0  0  0
   -6.0870   19.6810  -33.1500 C   0  0  0  0  0  0  0  0  0  0  0  0
   -7.0010   20.4130  -32.4250 N   0  0  0  0  0  0  0  0  0  0  0  0
   -8.3080   19.8140  -32.0680 C   0  0  0  0  0  0  0  0  0  0  0  0
   -6.6900   21.6870  -31.9980 C   0  0  0  0  0  0  0  0  0  0  0  0
   -7.6990   22.5610  -31.5230 C   0  0  0  0  0  0  0  0  0  0  0  0
   -7.3930   23.8200  -31.0240 C   0  0  0  0  0  0  0  0  0  0  0  0
   -6.0740   24.2560  -30.9850 C   0  0  0  0  0  0  0  0  0  0  0  0
   -5.7530   25.6400  -30.4980 C   0  0  0  0  0  0  0  0  0  0  0  0
   -5.0640   23.4410  -31.5040 C   0  0  0  0  0  0  0  0  0  0  0  0
   -5.3450   22.1580  -32.0480 C   0  0  0  0  0  0  0  0  0  0  0  0
    0.3469   22.8328  -25.9774 H   0  0  0  0  0  0  0  0  0  0  0  0
   -1.0852   23.6647  -26.6728 H   0  0  0  0  0  0  0  0  0  0  0  0
   -1.0009   21.8704  -26.6728 H   0  0  0  0  0  0  0  0  0  0  0  0
    1.3257   22.5615  -28.0177 H   0  0  0  0  0  0  0  0  0  0  0  0
   -0.2288   22.1088  -28.8019 H   0  0  0  0  0  0  0  0  0  0  0  0
   -0.6080   24.1560  -29.4200 H   0  0  0  0  0  0  0  0  0  0  0  0
   -0.2983   24.6805  -26.7186 H   0  0  0  0  0  0  0  0  0  0  0  0
    0.5933   25.9402  -27.6586 H   0  0  0  0  0  0  0  0  0  0  0  0
   -2.2211   25.7570  -27.2065 H   0  0  0  0  0  0  0  0  0  0  0  0
   -1.3402   26.9272  -28.2448 H   0  0  0  0  0  0  0  0  0  0  0  0
   -3.1894   24.3079  -27.7503 H   0  0  0  0  0  0  0  0  0  0  0  0
   -4.0481   24.6957  -29.2850 H   0  0  0  0  0  0  0  0  0  0  0  0
   -2.2603   22.3761  -28.5982 H   0  0  0  0  0  0  0  0  0  0  0  0
   -3.7341   22.4707  -29.6643 H   0  0  0  0  0  0  0  0  0  0  0  0
   -1.1980   23.7100  -30.4690 H   0  0  0  0  0  0  0  0  0  0  0  0
   -0.2334   21.8554  -31.1374 H   0  0  0  0  0  0  0  0  0  0  0  0
   -1.3254   21.0625  -29.9424 H   0  0  0  0  0  0  0  0  0  0  0  0
   -1.2450   20.5657  -32.6925 H   0  0  0  0  0  0  0  0  0  0  0  0
   -2.5936   20.1419  -31.5287 H   0  0  0  0  0  0  0  0  0  0  0  0
   -2.6200   21.9030  -33.7270 H   0  0  0  0  0  0  0  0  0  0  0  0
   -2.8850   22.7730  -32.3960 H   0  0  0  0  0  0  0  0  0  0  0  0
   -2.7347   19.5393  -33.9109 H   0  0  0  0  0  0  0  0  0  0  0  0
   -3.4630   17.4424  -35.0199 H   0  0  0  0  0  0  0  0  0  0  0  0
   -5.8647   16.8044  -35.0309 H   0  0  0  0  0  0  0  0  0  0  0  0
   -7.5331   18.2058  -33.8483 H   0  0  0  0  0  0  0  0  0  0  0  0
   -8.4043   19.7699  -30.9731 H   0  0  0  0  0  0  0  0  0  0  0  0
   -9.1193   20.4302  -32.4829 H   0  0  0  0  0  0  0  0  0  0  0  0
   -8.3709   18.7972  -32.4829 H   0  0  0  0  0  0  0  0  0  0  0  0
   -8.7491   22.2345  -31.5502 H   0  0  0  0  0  0  0  0  0  0  0  0
   -8.1976   24.4748  -30.6582 H   0  0  0  0  0  0  0  0  0  0  0  0
   -5.7506   25.6503  -29.3980 H   0  0  0  0  0  0  0  0  0  0  0  0
   -4.7617   25.9388  -30.8696 H   0  0  0  0  0  0  0  0  0  0  0  0
   -6.5116   26.3446  -30.8696 H   0  0  0  0  0  0  0  0  0  0  0  0
   -4.0249   23.8017  -31.4912 H   0  0  0  0  0  0  0  0  0  0  0  0
  1  2  1  0
  2  3  1  0
  3  4  1  0
  4  5  1  0
  5  6  1  0
  6  7  1  0
  7  8  1  0
  8  9  1  0
  9 10  1  0
 10 11  1  0
 11 12  1  0
 12 13  1  0
 13 14  2  0
 14 15  1  0
 15 16  2  0
 16 17  1  0
 17 18  2  0
 18 19  1  0
 19 20  2  0
 20 21  1  0
 20 22  1  0
 22 23  2  0
 23 24  1  0
 24 25  2  0
 25 26  1  0
 25 27  1  0
 27 28  2  0
 28 13  1  0
 19 14  1  0
 28 22  1  0
  1 29  1  0
  1 30  1  0
  1 31  1  0
  2 32  1  0
  2 33  1  0
  3 34  1  0
  4 35  1  0
  4 36  1  0
  5 37  1  0
  5 38  1  0
  7 39  1  0
  7 40  1  0
  8 41  1  0
  8 42  1  0
  9 43  1  0
 10 44  1  0
 10 45  1  0
 11 46  1  0
 11 47  1  0
 12 48  1  0
 12 49  1  0
 15 50  1  0
 16 51  1  0
 17 52  1  0
 18 53  1  0
 21 54  1  0
 21 55  1  0
 21 56  1  0
 23 57  1  0
 24 58  1  0
 26 59  1  0
 26 60  1  0
 26 61  1  0
 27 62  1  0
M  CHG  2  12   1  20   1
M  END
>  <UniqueID>  (19) 
18

>  <SMILES>  (19) 
CCNCCOCCNCC[NH2+]c1c2ccccc2[n+](C)c2ccc(C)cc12

>  <Energy>  (19) 
83.26536668094032

>  <Genealogy>  (19) 
CCNCCOCCNCC[NH2+]c1c2ccccc2[n+](C)c2ccc(C)cc12 (protonated)
CCNCCOCCNCC[NH2+]c1c2ccccc2[n+](C)c2ccc(C)cc12 (3D coordinates assigned)
CCNCCOCCNCC[NH2+]c1c2ccccc2[n+](C)c2ccc(C)cc12 (optimized conformer: 83.26536668094032 kcal/mol)

>  <smiles>  (19) 
CCNCCOCCNCCNc1c2ccccc2[n+](C)c2ccc(C)cc12

>  <score_type>  (19) 
oracle

>  <origin>  (19) 
adg

>  <m_score__min__energy>  (19) 
-7.9299999999999997

>  <m_primary>  (19) 
energy

$$$$
