0:0
     RDKit          3D

 45 47  0  0  0  0  0  0  0  0999 V2000
    0.1450   26.9210  -26.6540 C   0  0  0  0  0  0  0  0  0  0  0  0
    1.0360   25.8190  -27.1630 C   0  0  0  0  0  0  0  0  0  0  0  0
    0.3450   24.7410  -27.8110 N   0  0  0  0  0  0  0  0  0  0  0  0
    0.9450   23.4850  -27.8110 C   0  0  0  0  0  0  0  0  0  0  0  0
    0.1020   22.4380  -27.0540 C   0  0  0  0  0  0  0  0  0  0  0  0
   -1.0350   24.8740  -27.8980 C   0  0  0  0  0  0  0  0  0  0  0  0
   -1.6940   24.3290  -29.1210 C   0  0  0  0  0  0  0  0  0  0  0  0
   -2.9280   24.9950  -29.4450 N   0  0  0  0  0  0  0  0  0  0  0  0
   -3.9890   24.2230  -29.9400 C   0  0  0  0  0  0  0  0  0  0  0  0
   -4.1070   22.9270  -30.4020 C   0  0  0  0  0  0  0  0  0  0  0  0
   -5.3210   22.5150  -30.7930 C   0  0  0  0  0  0  0  0  0  0  0  0
   -5.6310   21.2520  -31.2830 N   0  0  0  0  0  0  0  0  0  0  0  0
   -6.8760   20.9530  -31.6400 C   0  0  0  0  0  0  0  0  0  0  0  0
   -7.0960   19.6620  -32.1200 C   0  0  0  0  0  0  0  0  0  0  0  0
   -5.9600   18.6930  -32.2140 C   0  0  0  0  0  0  0  0  0  0  0  0
   -8.3800   19.3370  -32.4920 C   0  0  0  0  0  0  0  0  0  0  0  0
   -9.4480   20.2040  -32.4200 C   0  0  0  0  0  0  0  0  0  0  0  0
   -9.2240   21.4950  -31.9390 C   0  0  0  0  0  0  0  0  0  0  0  0
   -7.9550   21.8060  -31.5740 C   0  0  0  0  0  0  0  0  0  0  0  0
   -7.6670   23.0870  -31.0830 C   0  0  0  0  0  0  0  0  0  0  0  0
   -6.3760   23.3570  -30.7260 C   0  0  0  0  0  0  0  0  0  0  0  0
   -5.7440   24.8890  -30.0780 S   0  0  0  0  0  0  0  0  0  0  0  0
    0.1485   26.9167  -25.5540 H   0  0  0  0  0  0  0  0  0  0  0  0
    0.5162   27.8903  -27.0181 H   0  0  0  0  0  0  0  0  0  0  0  0
   -0.8806   26.7610  -27.0181 H   0  0  0  0  0  0  0  0  0  0  0  0
    1.7431   26.2553  -27.8838 H   0  0  0  0  0  0  0  0  0  0  0  0
    1.5299   25.3860  -26.2807 H   0  0  0  0  0  0  0  0  0  0  0  0
    1.0718   23.1527  -28.8519 H   0  0  0  0  0  0  0  0  0  0  0  0
    1.9145   23.5732  -27.2988 H   0  0  0  0  0  0  0  0  0  0  0  0
    0.2208   22.5855  -25.9704 H   0  0  0  0  0  0  0  0  0  0  0  0
   -0.9575   22.5542  -27.3259 H   0  0  0  0  0  0  0  0  0  0  0  0
    0.4416   21.4277  -27.3259 H   0  0  0  0  0  0  0  0  0  0  0  0
   -1.4729   24.3611  -27.0290 H   0  0  0  0  0  0  0  0  0  0  0  0
   -1.2148   25.9585  -27.9367 H   0  0  0  0  0  0  0  0  0  0  0  0
   -1.0031   24.4409  -29.9696 H   0  0  0  0  0  0  0  0  0  0  0  0
   -1.9347   23.2746  -28.9202 H   0  0  0  0  0  0  0  0  0  0  0  0
   -3.0830   26.0370  -29.3380 H   0  0  0  0  0  0  0  0  0  0  0  0
   -3.2359   22.2568  -30.4475 H   0  0  0  0  0  0  0  0  0  0  0  0
   -5.6320   18.4132  -31.2020 H   0  0  0  0  0  0  0  0  0  0  0  0
   -6.2892   17.7933  -32.7546 H   0  0  0  0  0  0  0  0  0  0  0  0
   -5.1235   19.1600  -32.7546 H   0  0  0  0  0  0  0  0  0  0  0  0
   -8.5654   18.3210  -32.8707 H   0  0  0  0  0  0  0  0  0  0  0  0
  -10.4533   19.8865  -32.7340 H   0  0  0  0  0  0  0  0  0  0  0  0
  -10.0404   22.2279  -31.8594 H   0  0  0  0  0  0  0  0  0  0  0  0
   -8.4541   23.8495  -30.9883 H   0  0  0  0  0  0  0  0  0  0  0  0
  1  2  1  0
  2  3  1  0
  3  4  1  0
  4  5  1  0
  3  6  1  0
  6  7  1  0
  7  8  1  0
  8  9  1  0
  9 10  2  0
 10 11  1  0
 11 12  2  0
 12 13  1  0
 13 14  2  0
 14 15  1  0
 14 16  1  0
 16 17  2  0
 17 18  1  0
 18 19  2  0
 19 20  1  0
 20 21  2  0
 21 22  1  0
 22  9  1  0
 21 11  1  0
 19 13  1  0
  1 23  1  0
  1 24  1  0
  1 25  1  0
  2 26  1  0
  2 27  1  0
  4 28  1  0
  4 29  1  0
  5 30  1  0
  5 31  1  0
  5 32  1  0
  6 33  1  0
  6 34  1  0
  7 35  1  0
  7 36  1  0
  8 37  1  0
 10 38  1  0
 15 39  1  0
 15 40  1  0
 15 41  1  0
 16 42  1  0
 17 43  1  0
 18 44  1  0
 20 45  1  0
M  END
>  <smiles>  (1) 
CCN(CC)CCNc1cc2nc3c(C)cccc3cc2s1

>  <score_type>  (1) 
oracle

>  <origin>  (1) 
adg

>  <m_score__min__energy>  (1) 
-8.2799999999999994

>  <m_primary>  (1) 
energy

$$$$
1:0
     RDKit          3D

 68 71  0  0  1  0  0  0  0  0999 V2000
   -6.1410   25.3220  -29.8140 C   0  0  0  0  0  0  0  0  0  0  0  0
   -5.3550   25.0850  -31.1020 C   0  0  0  0  0  0  0  0  0  0  0  0
   -4.4120   24.0050  -30.9440 N   0  0  0  0  0  0  0  0  0  0  0  0
   -4.1750   23.7520  -29.5440 C   0  0  0  0  0  0  0  0  0  0  0  0
   -3.8730   22.3180  -29.3120 C   0  0  0  0  0  0  0  0  0  0  0  0
   -2.4330   22.0690  -29.1400 N   0  0  1  0  0  0  0  0  0  0  0  0
   -1.7590   23.3540  -29.2050 C   0  0  0  0  0  0  0  0  0  0  0  0
   -2.1550   21.5220  -27.8370 C   0  0  0  0  0  0  0  0  0  0  0  0
   -2.7050   20.1560  -27.5970 C   0  0  0  0  0  0  0  0  0  0  0  0
   -2.0340   21.1980  -30.2140 C   0  0  0  0  0  0  0  0  0  0  0  0
   -1.7210   21.9170  -31.5070 C   0  0  0  0  0  0  0  0  0  0  0  0
   -1.6620   20.8370  -32.5880 C   0  0  0  0  0  0  0  0  0  0  0  0
   -2.7310   20.9950  -33.5520 N   0  0  0  0  0  0  0  0  0  0  0  0
   -3.8500   20.1240  -33.4540 C   0  0  0  0  0  0  0  0  0  0  0  0
   -3.7650   18.7790  -33.7840 C   0  0  0  0  0  0  0  0  0  0  0  0
   -2.5330   18.3400  -34.2130 C   0  0  0  0  0  0  0  0  0  0  0  0
   -2.4000   17.0150  -34.5540 C   0  0  0  0  0  0  0  0  0  0  0  0
   -3.4660   16.1580  -34.4680 C   0  0  0  0  0  0  0  0  0  0  0  0
   -4.7020   16.6430  -34.0270 C   0  0  0  0  0  0  0  0  0  0  0  0
   -4.8760   17.9710  -33.6750 C   0  0  0  0  0  0  0  0  0  0  0  0
   -6.0800   18.4000  -33.2570 N   0  0  0  0  0  0  0  0  0  0  0  0
   -7.2340   17.5820  -33.1280 C   0  0  0  0  0  0  0  0  0  0  0  0
   -6.1780   19.7180  -32.9300 C   0  0  0  0  0  0  0  0  0  0  0  0
   -5.0770   20.5720  -33.0260 C   0  0  0  0  0  0  0  0  0  0  0  0
   -5.4260   21.8150  -32.6530 N   0  0  0  0  0  0  0  0  0  0  0  0
   -6.7240   21.8280  -32.3100 C   0  0  0  0  0  0  0  0  0  0  0  0
   -7.5140   22.8680  -31.8690 C   0  0  0  0  0  0  0  0  0  0  0  0
   -8.8400   22.6330  -31.5760 C   0  0  0  0  0  0  0  0  0  0  0  0
   -9.3160   21.3590  -31.7400 C   0  0  0  0  0  0  0  0  0  0  0  0
   -8.5140   20.3170  -32.1830 C   0  0  0  0  0  0  0  0  0  0  0  0
   -7.1930   20.5370  -32.4790 C   0  0  0  0  0  0  0  0  0  0  0  0
   -5.4924   25.1264  -28.9474 H   0  0  0  0  0  0  0  0  0  0  0  0
   -6.4891   26.3650  -29.7835 H   0  0  0  0  0  0  0  0  0  0  0  0
   -7.0076   24.6452  -29.7835 H   0  0  0  0  0  0  0  0  0  0  0  0
   -6.0574   24.8332  -31.9102 H   0  0  0  0  0  0  0  0  0  0  0  0
   -4.7982   26.0020  -31.3451 H   0  0  0  0  0  0  0  0  0  0  0  0
   -3.5520   24.2630  -31.4610 H   0  0  0  0  0  0  0  0  0  0  0  0
   -3.3220   24.3594  -29.2070 H   0  0  0  0  0  0  0  0  0  0  0  0
   -5.0808   24.0177  -28.9792 H   0  0  0  0  0  0  0  0  0  0  0  0
   -4.3995   21.9885  -28.4041 H   0  0  0  0  0  0  0  0  0  0  0  0
   -4.2070   21.7573  -30.1974 H   0  0  0  0  0  0  0  0  0  0  0  0
   -1.5673   23.7195  -28.1854 H   0  0  0  0  0  0  0  0  0  0  0  0
   -0.8043   23.2407  -29.7394 H   0  0  0  0  0  0  0  0  0  0  0  0
   -2.3950   24.0750  -29.7394 H   0  0  0  0  0  0  0  0  0  0  0  0
   -1.0631   21.4773  -27.7114 H   0  0  0  0  0  0  0  0  0  0  0  0
   -2.6508   22.1850  -27.1127 H   0  0  0  0  0  0  0  0  0  0  0  0
   -2.7779   19.9751  -26.5144 H   0  0  0  0  0  0  0  0  0  0  0  0
   -3.7045   20.0784  -28.0498 H   0  0  0  0  0  0  0  0  0  0  0  0
   -2.0382   19.4075  -28.0498 H   0  0  0  0  0  0  0  0  0  0  0  0
   -1.1350   20.6487  -29.8977 H   0  0  0  0  0  0  0  0  0  0  0  0
   -2.8871   20.5342  -30.4182 H   0  0  0  0  0  0  0  0  0  0  0  0
   -2.5106   22.6469  -31.7390 H   0  0  0  0  0  0  0  0  0  0  0  0
   -0.7732   22.4712  -31.4399 H   0  0  0  0  0  0  0  0  0  0  0  0
   -0.6963   20.9057  -33.1101 H   0  0  0  0  0  0  0  0  0  0  0  0
   -1.7751   19.8559  -32.1036 H   0  0  0  0  0  0  0  0  0  0  0  0
   -2.6720   21.7320  -34.2940 H   0  0  0  0  0  0  0  0  0  0  0  0
   -1.6790   19.0300  -34.2810 H   0  0  0  0  0  0  0  0  0  0  0  0
   -1.4263   16.6380  -34.9001 H   0  0  0  0  0  0  0  0  0  0  0  0
   -3.3510   15.0992  -34.7430 H   0  0  0  0  0  0  0  0  0  0  0  0
   -5.5559   15.9530  -33.9582 H   0  0  0  0  0  0  0  0  0  0  0  0
   -7.4551   17.4253  -32.0619 H   0  0  0  0  0  0  0  0  0  0  0  0
   -8.0897   18.0763  -33.6111 H   0  0  0  0  0  0  0  0  0  0  0  0
   -7.0509   16.6109  -33.6111 H   0  0  0  0  0  0  0  0  0  0  0  0
   -4.7890   22.6590  -32.6280 H   0  0  0  0  0  0  0  0  0  0  0  0
   -7.0899   23.8762  -31.7520 H   0  0  0  0  0  0  0  0  0  0  0  0
   -9.4951   23.4425  -31.2218 H   0  0  0  0  0  0  0  0  0  0  0  0
  -10.3726   21.1546  -31.5122 H   0  0  0  0  0  0  0  0  0  0  0  0
   -8.9399   19.3093  -32.2974 H   0  0  0  0  0  0  0  0  0  0  0  0
  1  2  1  0
  2  3  1  0
  3  4  1  0
  4  5  1  0
  6  5  1  1
  6  7  1  0
  6  8  1  0
  8  9  1  0
  6 10  1  0
 10 11  1  0
 11 12  1  0
 12 13  1  0
 13 14  1  0
 14 15  2  0
 15 16  1  0
 16 17  2  0
 17 18  1  0
 18 19  2  0
 19 20  1  0
 20 21  2  0
 21 22  1  0
 21 23  1  0
 23 24  2  0
 24 25  1  0
 25 26  1  0
 26 27  2  0
 27 28  1  0
 28 29  2  0
 29 30  1  0
 30 31  2  0
 24 14  1  0
 31 26  1  0
 20 15  1  0
 31 23  1  0
  1 32  1  0
  1 33  1  0
  1 34  1  0
  2 35  1  0
  2 36  1  0
  3 37  1  0
  4 38  1  0
  4 39  1  0
  5 40  1  0
  5 41  1  0
  7 42  1  0
  7 43  1  0
  7 44  1  0
  8 45  1  0
  8 46  1  0
  9 47  1  0
  9 48  1  0
  9 49  1  0
 10 50  1  0
 10 51  1  0
 11 52  1  0
 11 53  1  0
 12 54  1  0
 12 55  1  0
 13 56  1  0
 16 57  1  0
 17 58  1  0
 18 59  1  0
 19 60  1  0
 22 61  1  0
 22 62  1  0
 22 63  1  0
 25 64  1  0
 27 65  1  0
 28 66  1  0
 29 67  1  0
 30 68  1  0
M  CHG  2   6   1  21   1
M  END
>  <smiles>  (2) 
CCNCC[N+](C)(CC)CCCNc1c2ccccc2[n+](C)c2c1[nH]c1ccccc12

>  <score_type>  (2) 
oracle

>  <origin>  (2) 
adg

>  <m_score__min__energy>  (2) 
-8.7100000000000009

>  <m_primary>  (2) 
energy

$$$$
2:0
     RDKit          3D

 49 51  0  0  0  0  0  0  0  0999 V2000
   -6.0680   18.7210  -34.4070 C   0  0  0  0  0  0  0  0  0  0  0  0
   -6.8540   17.8050  -33.5130 C   0  0  0  0  0  0  0  0  0  0  0  0
   -6.9910   18.3120  -32.1570 N   0  0  0  0  0  0  0  0  0  0  0  0
   -6.3490   17.4700  -31.1980 C   0  0  0  0  0  0  0  0  0  0  0  0
   -5.4480   16.5110  -31.9880 C   0  0  0  0  0  0  0  0  0  0  0  0
   -8.3790   18.5640  -31.9310 C   0  0  0  0  0  0  0  0  0  0  0  0
   -8.9330   19.7560  -32.6640 C   0  0  0  0  0  0  0  0  0  0  0  0
   -9.1610   20.8790  -31.6780 C   0  0  0  0  0  0  0  0  0  0  0  0
   -7.9200   21.5280  -31.3950 N   0  0  0  0  0  0  0  0  0  0  0  0
   -7.0030   21.3570  -32.4690 C   0  0  0  0  0  0  0  0  0  0  0  0
   -5.6280   21.5820  -31.9130 C   0  0  0  0  0  0  0  0  0  0  0  0
   -4.6390   20.6220  -31.9860 C   0  0  0  0  0  0  0  0  0  0  0  0
   -3.4200   20.8910  -31.4590 N   0  0  0  0  0  0  0  0  0  0  0  0
   -3.1370   22.0710  -30.8620 C   0  0  0  0  0  0  0  0  0  0  0  0
   -1.8650   22.3100  -30.3260 C   0  0  0  0  0  0  0  0  0  0  0  0
   -1.5950   23.5240  -29.7180 C   0  0  0  0  0  0  0  0  0  0  0  0
   -2.5660   24.5270  -29.6200 C   0  0  0  0  0  0  0  0  0  0  0  0
   -3.8370   24.2870  -30.1550 C   0  0  0  0  0  0  0  0  0  0  0  0
   -4.1170   23.0620  -30.7720 C   0  0  0  0  0  0  0  0  0  0  0  0
   -5.3770   22.8160  -31.3050 C   0  0  0  0  0  0  0  0  0  0  0  0
   -6.2610   23.7070  -31.2260 O   0  0  0  0  0  0  0  0  0  0  0  0
   -2.0190   25.6350  -28.9590 O   0  0  0  0  0  0  0  0  0  0  0  0
   -0.9590   25.0490  -28.1840 C   0  0  0  0  0  0  0  0  0  0  0  0
   -0.4540   24.0710  -29.0970 O   0  0  0  0  0  0  0  0  0  0  0  0
   -5.4742   19.4131  -33.7919 H   0  0  0  0  0  0  0  0  0  0  0  0
   -5.3955   18.1255  -35.0419 H   0  0  0  0  0  0  0  0  0  0  0  0
   -6.7587   19.2953  -35.0419 H   0  0  0  0  0  0  0  0  0  0  0  0
   -7.8587   17.6747  -33.9414 H   0  0  0  0  0  0  0  0  0  0  0  0
   -6.3054   16.8534  -33.4539 H   0  0  0  0  0  0  0  0  0  0  0  0
   -5.7446   18.0751  -30.5063 H   0  0  0  0  0  0  0  0  0  0  0  0
   -7.0875   16.9168  -30.5991 H   0  0  0  0  0  0  0  0  0  0  0  0
   -4.8672   15.8928  -31.2876 H   0  0  0  0  0  0  0  0  0  0  0  0
   -6.0701   15.8614  -32.6213 H   0  0  0  0  0  0  0  0  0  0  0  0
   -4.7609   17.0914  -32.6213 H   0  0  0  0  0  0  0  0  0  0  0  0
   -8.9439   17.6749  -32.2478 H   0  0  0  0  0  0  0  0  0  0  0  0
   -8.4822   18.7854  -30.8585 H   0  0  0  0  0  0  0  0  0  0  0  0
   -8.2173   20.0808  -33.4336 H   0  0  0  0  0  0  0  0  0  0  0  0
   -9.8843   19.4862  -33.1459 H   0  0  0  0  0  0  0  0  0  0  0  0
   -9.8648   21.6066  -32.1083 H   0  0  0  0  0  0  0  0  0  0  0  0
   -9.5790   20.4684  -30.7471 H   0  0  0  0  0  0  0  0  0  0  0  0
   -7.9570   22.4450  -30.9510 H   0  0  0  0  0  0  0  0  0  0  0  0
   -7.0837   20.3382  -32.8759 H   0  0  0  0  0  0  0  0  0  0  0  0
   -7.2171   22.0643  -33.2838 H   0  0  0  0  0  0  0  0  0  0  0  0
   -4.8376   19.6521  -32.4653 H   0  0  0  0  0  0  0  0  0  0  0  0
   -2.6970   20.1450  -31.5320 H   0  0  0  0  0  0  0  0  0  0  0  0
   -1.0848   21.5370  -30.3879 H   0  0  0  0  0  0  0  0  0  0  0  0
   -4.6159   25.0611  -30.0906 H   0  0  0  0  0  0  0  0  0  0  0  0
   -0.1910   25.7926  -27.9246 H   0  0  0  0  0  0  0  0  0  0  0  0
   -1.2819   24.6382  -27.2160 H   0  0  0  0  0  0  0  0  0  0  0  0
  1  2  1  0
  2  3  1  0
  3  4  1  0
  4  5  1  0
  3  6  1  0
  6  7  1  0
  7  8  1  0
  8  9  1  0
  9 10  1  0
 10 11  1  0
 11 12  2  0
 12 13  1  0
 13 14  1  0
 14 15  2  0
 15 16  1  0
 16 17  2  0
 17 18  1  0
 18 19  2  0
 19 20  1  0
 20 21  2  0
 17 22  1  0
 22 23  1  0
 23 24  1  0
 20 11  1  0
 19 14  1  0
 24 16  1  0
  1 25  1  0
  1 26  1  0
  1 27  1  0
  2 28  1  0
  2 29  1  0
  4 30  1  0
  4 31  1  0
  5 32  1  0
  5 33  1  0
  5 34  1  0
  6 35  1  0
  6 36  1  0
  7 37  1  0
  7 38  1  0
  8 39  1  0
  8 40  1  0
  9 41  1  0
 10 42  1  0
 10 43  1  0
 12 44  1  0
 13 45  1  0
 15 46  1  0
 18 47  1  0
 23 48  1  0
 23 49  1  0
M  END
>  <smiles>  (3) 
CCN(CC)CCCNCc1c[nH]c2cc3c(cc2c1=O)OCO3

>  <score_type>  (3) 
oracle

>  <origin>  (3) 
adg

>  <m_score__min__energy>  (3) 
-7.0499999999999998

>  <m_primary>  (3) 
energy

$$$$
3:0
     RDKit          3D

 55 58  0  0  0  0  0  0  0  0999 V2000
   -6.0630   25.0730  -29.7150 C   0  0  0  0  0  0  0  0  0  0  0  0
   -5.0310   25.2130  -30.7730 C   0  0  0  0  0  0  0  0  0  0  0  0
   -3.8850   24.4050  -30.5340 N   0  0  0  0  0  0  0  0  0  0  0  0
   -3.3000   24.5530  -29.2460 C   0  0  0  0  0  0  0  0  0  0  0  0
   -1.9120   24.0620  -29.0360 C   0  0  0  0  0  0  0  0  0  0  0  0
   -4.1700   22.9870  -30.7180 C   0  0  0  0  0  0  0  0  0  0  0  0
   -3.5460   22.3840  -31.9320 C   0  0  0  0  0  0  0  0  0  0  0  0
   -4.6000   22.2630  -32.9390 N   0  0  0  0  0  0  0  0  0  0  0  0
   -5.5510   21.1840  -32.8990 C   0  0  0  0  0  0  0  0  0  0  0  0
   -5.2340   19.9480  -33.3630 N   0  0  0  0  0  0  0  0  0  0  0  0
   -6.0890   18.9010  -33.3320 C   0  0  0  0  0  0  0  0  0  0  0  0
   -5.7580   17.6080  -33.8140 N   0  0  0  0  0  0  0  0  0  0  0  0
   -5.0180   17.3860  -35.0450 C   0  0  0  0  0  0  0  0  0  0  0  0
   -3.9850   16.3160  -34.6860 C   0  0  0  0  0  0  0  0  0  0  0  0
   -4.5640   15.1140  -34.3790 O   0  0  0  0  0  0  0  0  0  0  0  0
   -5.8580   15.1630  -33.9170 C   0  0  0  0  0  0  0  0  0  0  0  0
   -6.1510   16.3920  -33.0870 C   0  0  0  0  0  0  0  0  0  0  0  0
   -7.3470   19.0760  -32.8080 C   0  0  0  0  0  0  0  0  0  0  0  0
   -8.4500   18.3340  -32.5970 N   0  0  0  0  0  0  0  0  0  0  0  0
   -9.3800   19.0910  -32.0330 O   0  0  0  0  0  0  0  0  0  0  0  0
   -8.9340   20.3140  -31.8620 C   0  0  0  0  0  0  0  0  0  0  0  0
   -7.6620   20.3250  -32.3410 C   0  0  0  0  0  0  0  0  0  0  0  0
   -6.8110   21.4000  -32.3620 C   0  0  0  0  0  0  0  0  0  0  0  0
   -7.2650   22.7070  -31.8360 C   0  0  0  0  0  0  0  0  0  0  0  0
   -8.7950   22.7660  -31.9480 C   0  0  0  0  0  0  0  0  0  0  0  0
   -9.4700   21.5880  -31.3050 C   0  0  0  0  0  0  0  0  0  0  0  0
   -5.5855   25.1378  -28.7262 H   0  0  0  0  0  0  0  0  0  0  0  0
   -6.8048   25.8787  -29.8175 H   0  0  0  0  0  0  0  0  0  0  0  0
   -6.5633   24.0988  -29.8175 H   0  0  0  0  0  0  0  0  0  0  0  0
   -5.4732   24.9199  -31.7366 H   0  0  0  0  0  0  0  0  0  0  0  0
   -4.7016   26.2625  -30.7783 H   0  0  0  0  0  0  0  0  0  0  0  0
   -3.3037   25.6272  -29.0093 H   0  0  0  0  0  0  0  0  0  0  0  0
   -3.9136   23.9114  -28.5964 H   0  0  0  0  0  0  0  0  0  0  0  0
   -1.7079   23.9898  -27.9575 H   0  0  0  0  0  0  0  0  0  0  0  0
   -1.8003   23.0698  -29.4976 H   0  0  0  0  0  0  0  0  0  0  0  0
   -1.2012   24.7633  -29.4976 H   0  0  0  0  0  0  0  0  0  0  0  0
   -3.7996   22.4446  -29.8356 H   0  0  0  0  0  0  0  0  0  0  0  0
   -5.2587   22.9007  -30.8495 H   0  0  0  0  0  0  0  0  0  0  0  0
   -2.7401   23.0333  -32.3047 H   0  0  0  0  0  0  0  0  0  0  0  0
   -3.1083   21.4015  -31.7017 H   0  0  0  0  0  0  0  0  0  0  0  0
   -4.6850   22.9610  -33.7080 H   0  0  0  0  0  0  0  0  0  0  0  0
   -5.6872   17.0282  -35.8413 H   0  0  0  0  0  0  0  0  0  0  0  0
   -4.5506   18.3072  -35.4230 H   0  0  0  0  0  0  0  0  0  0  0  0
   -3.3104   16.1745  -35.5433 H   0  0  0  0  0  0  0  0  0  0  0  0
   -3.4387   16.6622  -33.7962 H   0  0  0  0  0  0  0  0  0  0  0  0
   -6.5379   15.1556  -34.7817 H   0  0  0  0  0  0  0  0  0  0  0  0
   -6.0048   14.2882  -33.2665 H   0  0  0  0  0  0  0  0  0  0  0  0
   -7.2282   16.4330  -32.8681 H   0  0  0  0  0  0  0  0  0  0  0  0
   -5.5765   16.3351  -32.1507 H   0  0  0  0  0  0  0  0  0  0  0  0
   -6.9649   22.8087  -30.7826 H   0  0  0  0  0  0  0  0  0  0  0  0
   -6.8107   23.5263  -32.4126 H   0  0  0  0  0  0  0  0  0  0  0  0
   -9.1484   23.6849  -31.4574 H   0  0  0  0  0  0  0  0  0  0  0  0
   -9.0503   22.7516  -33.0179 H   0  0  0  0  0  0  0  0  0  0  0  0
   -9.2886   21.6140  -30.2204 H   0  0  0  0  0  0  0  0  0  0  0  0
  -10.5496   21.6403  -31.5092 H   0  0  0  0  0  0  0  0  0  0  0  0
  1  2  1  0
  2  3  1  0
  3  4  1  0
  4  5  1  0
  3  6  1  0
  6  7  1  0
  7  8  1  0
  8  9  1  0
  9 10  1  0
 10 11  2  0
 11 12  1  0
 12 13  1  0
 13 14  1  0
 14 15  1  0
 15 16  1  0
 16 17  1  0
 11 18  1  0
 18 19  2  0
 19 20  1  0
 20 21  1  0
 21 22  2  0
 22 23  1  0
 23 24  1  0
 24 25  1  0
 25 26  1  0
 23  9  2  0
 17 12  1  0
 22 18  1  0
 26 21  1  0
  1 27  1  0
  1 28  1  0
  1 29  1  0
  2 30  1  0
  2 31  1  0
  4 32  1  0
  4 33  1  0
  5 34  1  0
  5 35  1  0
  5 36  1  0
  6 37  1  0
  6 38  1  0
  7 39  1  0
  7 40  1  0
  8 41  1  0
 13 42  1  0
 13 43  1  0
 14 44  1  0
 14 45  1  0
 16 46  1  0
 16 47  1  0
 17 48  1  0
 17 49  1  0
 24 50  1  0
 24 51  1  0
 25 52  1  0
 25 53  1  0
 26 54  1  0
 26 55  1  0
M  END
>  <smiles>  (4) 
CCN(CC)CCNc1nc(N2CCOCC2)c2noc3c2c1CCC3

>  <score_type>  (4) 
oracle

>  <origin>  (4) 
adg

>  <m_score__min__energy>  (4) 
-9.3100000000000005

>  <m_primary>  (4) 
energy

$$$$
4:0
     RDKit          3D

 58 60  0  0  0  0  0  0  0  0999 V2000
   -3.1770   20.7020  -33.3980 C   0  0  0  0  0  0  0  0  0  0  0  0
   -3.7630   20.4080  -32.0480 C   0  0  0  0  0  0  0  0  0  0  0  0
   -4.4830   21.5050  -31.4590 N   0  0  0  0  0  0  0  0  0  0  0  0
   -3.7780   22.6330  -30.9940 C   0  0  0  0  0  0  0  0  0  0  0  0
   -2.5120   22.6010  -31.1350 O   0  0  0  0  0  0  0  0  0  0  0  0
   -4.3470   23.8230  -30.3720 C   0  0  0  0  0  0  0  0  0  0  0  0
   -5.3170   24.5500  -31.1530 N   0  0  0  0  0  0  0  0  0  0  0  0
   -6.5040   24.8510  -30.3430 C   0  0  0  0  0  0  0  0  0  0  0  0
   -7.1980   23.6170  -29.8710 C   0  0  0  0  0  0  0  0  0  0  0  0
   -7.3270   22.6830  -30.9360 N   0  0  0  0  0  0  0  0  0  0  0  0
   -8.3960   21.7460  -30.8340 C   0  0  0  0  0  0  0  0  0  0  0  0
   -8.7100   21.0510  -32.1130 C   0  0  0  0  0  0  0  0  0  0  0  0
   -7.8670   19.8910  -32.3380 N   0  0  0  0  0  0  0  0  0  0  0  0
   -6.7440   19.9480  -33.2090 C   0  0  0  0  0  0  0  0  0  0  0  0
   -6.1970   21.0790  -33.4420 O   0  0  0  0  0  0  0  0  0  0  0  0
   -6.2400   18.7270  -33.8180 C   0  0  0  0  0  0  0  0  0  0  0  0
   -6.2480   17.5110  -32.9570 C   0  0  0  0  0  0  0  0  0  0  0  0
   -4.8270   17.2000  -32.4680 C   0  0  0  0  0  0  0  0  0  0  0  0
   -4.2690   16.1550  -33.3920 C   0  0  0  0  0  0  0  0  0  0  0  0
   -5.2110   16.1940  -34.6030 C   0  0  0  0  0  0  0  0  0  0  0  0
   -6.5360   16.3260  -33.8720 C   0  0  0  0  0  0  0  0  0  0  0  0
   -7.2160   17.4660  -31.8480 C   0  0  0  0  0  0  0  0  0  0  0  0
   -8.1120   18.6300  -31.7000 C   0  0  0  0  0  0  0  0  0  0  0  0
   -9.1340   18.4870  -30.9750 O   0  0  0  0  0  0  0  0  0  0  0  0
   -7.1570   23.3170  -32.1980 C   0  0  0  0  0  0  0  0  0  0  0  0
   -5.7270   23.7960  -32.3320 C   0  0  0  0  0  0  0  0  0  0  0  0
   -2.2000   21.1922  -33.2748 H   0  0  0  0  0  0  0  0  0  0  0  0
   -3.0480   19.7619  -33.9544 H   0  0  0  0  0  0  0  0  0  0  0  0
   -3.8535   21.3674  -33.9544 H   0  0  0  0  0  0  0  0  0  0  0  0
   -4.4546   19.5589  -32.1511 H   0  0  0  0  0  0  0  0  0  0  0  0
   -2.9164   20.1941  -31.3791 H   0  0  0  0  0  0  0  0  0  0  0  0
   -5.5160   21.4700  -31.3840 H   0  0  0  0  0  0  0  0  0  0  0  0
   -4.8352   23.5115  -29.4367 H   0  0  0  0  0  0  0  0  0  0  0  0
   -3.5027   24.5147  -30.2350 H   0  0  0  0  0  0  0  0  0  0  0  0
   -6.1939   25.4391  -29.4667 H   0  0  0  0  0  0  0  0  0  0  0  0
   -7.2085   25.4112  -30.9753 H   0  0  0  0  0  0  0  0  0  0  0  0
   -6.6141   23.1612  -29.0578 H   0  0  0  0  0  0  0  0  0  0  0  0
   -8.2012   23.8876  -29.5100 H   0  0  0  0  0  0  0  0  0  0  0  0
   -8.1224   20.9879  -30.0854 H   0  0  0  0  0  0  0  0  0  0  0  0
   -9.2939   22.3140  -30.5492 H   0  0  0  0  0  0  0  0  0  0  0  0
   -9.7600   20.7242  -32.0881 H   0  0  0  0  0  0  0  0  0  0  0  0
   -8.5262   21.7612  -32.9326 H   0  0  0  0  0  0  0  0  0  0  0  0
   -6.8561   18.5148  -34.7042 H   0  0  0  0  0  0  0  0  0  0  0  0
   -5.1807   18.9239  -34.0397 H   0  0  0  0  0  0  0  0  0  0  0  0
   -4.2068   18.1078  -32.5044 H   0  0  0  0  0  0  0  0  0  0  0  0
   -4.8369   16.8424  -31.4278 H   0  0  0  0  0  0  0  0  0  0  0  0
   -3.2394   16.4040  -33.6886 H   0  0  0  0  0  0  0  0  0  0  0  0
   -4.2173   15.1599  -32.9260 H   0  0  0  0  0  0  0  0  0  0  0  0
   -5.0110   17.0586  -35.2530 H   0  0  0  0  0  0  0  0  0  0  0  0
   -5.1335   15.3379  -35.2893 H   0  0  0  0  0  0  0  0  0  0  0  0
   -7.3606   16.5434  -34.5668 H   0  0  0  0  0  0  0  0  0  0  0  0
   -6.8558   15.4145  -33.3457 H   0  0  0  0  0  0  0  0  0  0  0  0
   -7.8468   16.5765  -31.9925 H   0  0  0  0  0  0  0  0  0  0  0  0
   -6.6056   17.4539  -30.9330 H   0  0  0  0  0  0  0  0  0  0  0  0
   -7.3807   22.6002  -33.0018 H   0  0  0  0  0  0  0  0  0  0  0  0
   -7.8405   24.1757  -32.2727 H   0  0  0  0  0  0  0  0  0  0  0  0
   -5.0653   22.9253  -32.4505 H   0  0  0  0  0  0  0  0  0  0  0  0
   -5.6581   24.4539  -33.2108 H   0  0  0  0  0  0  0  0  0  0  0  0
  1  2  1  0
  2  3  1  0
  3  4  1  0
  4  5  2  0
  4  6  1  0
  6  7  1  0
  7  8  1  0
  8  9  1  0
  9 10  1  0
 10 11  1  0
 11 12  1  0
 12 13  1  0
 13 14  1  0
 14 15  2  0
 14 16  1  0
 16 17  1  0
 17 18  1  0
 18 19  1  0
 19 20  1  0
 20 21  1  0
 17 22  1  0
 22 23  1  0
 23 24  2  0
 10 25  1  0
 25 26  1  0
 26  7  1  0
 23 13  1  0
 21 17  1  0
  1 27  1  0
  1 28  1  0
  1 29  1  0
  2 30  1  0
  2 31  1  0
  3 32  1  0
  6 33  1  0
  6 34  1  0
  8 35  1  0
  8 36  1  0
  9 37  1  0
  9 38  1  0
 11 39  1  0
 11 40  1  0
 12 41  1  0
 12 42  1  0
 16 43  1  0
 16 44  1  0
 18 45  1  0
 18 46  1  0
 19 47  1  0
 19 48  1  0
 20 49  1  0
 20 50  1  0
 21 51  1  0
 21 52  1  0
 22 53  1  0
 22 54  1  0
 25 55  1  0
 25 56  1  0
 26 57  1  0
 26 58  1  0
M  END
>  <smiles>  (5) 
CCNC(=O)CN1CCN(CCN2C(=O)CC3(CCCC3)CC2=O)CC1

>  <score_type>  (5) 
oracle

>  <origin>  (5) 
adg

>  <m_score__min__energy>  (5) 
-9.1999999999999993

>  <m_primary>  (5) 
energy

$$$$
5:0
     RDKit          3D

 41 42  0  0  0  0  0  0  0  0999 V2000
   -0.9300   23.3890  -26.2890 C   0  0  0  0  0  0  0  0  0  0  0  0
   -2.0820   23.3300  -27.2240 C   0  0  0  0  0  0  0  0  0  0  0  0
   -2.1570   22.3610  -28.2330 C   0  0  0  0  0  0  0  0  0  0  0  0
   -3.2250   22.3110  -29.0980 C   0  0  0  0  0  0  0  0  0  0  0  0
   -4.2390   23.2380  -28.9610 C   0  0  0  0  0  0  0  0  0  0  0  0
   -5.3200   23.1300  -29.8930 N   0  0  0  0  0  0  0  0  0  0  0  0
   -5.3820   24.1300  -30.9020 C   0  0  0  0  0  0  0  0  0  0  0  0
   -4.4760   25.0270  -30.8890 O   0  0  0  0  0  0  0  0  0  0  0  0
   -6.4550   24.1420  -31.9430 C   0  0  0  0  0  0  0  0  0  0  0  0
   -7.6030   23.3730  -31.3480 C   0  0  0  0  0  0  0  0  0  0  0  0
   -7.5310   21.9690  -31.4370 N   0  0  0  0  0  0  0  0  0  0  0  0
   -6.6030   21.3820  -32.3140 C   0  0  0  0  0  0  0  0  0  0  0  0
   -7.0300   20.0640  -32.9060 C   0  0  0  0  0  0  0  0  0  0  0  0
   -7.7710   19.2990  -32.0260 O   0  0  0  0  0  0  0  0  0  0  0  0
   -8.9760   20.0020  -31.8340 C   0  0  0  0  0  0  0  0  0  0  0  0
   -8.7400   21.3110  -31.1440 C   0  0  0  0  0  0  0  0  0  0  0  0
   -4.1950   24.2040  -27.9790 C   0  0  0  0  0  0  0  0  0  0  0  0
   -3.1230   24.2450  -27.1200 C   0  0  0  0  0  0  0  0  0  0  0  0
   -3.1190   25.2990  -26.0790 C   0  0  0  0  0  0  0  0  0  0  0  0
   -1.2977   23.3702  -25.2525 H   0  0  0  0  0  0  0  0  0  0  0  0
   -0.2735   22.5233  -26.4609 H   0  0  0  0  0  0  0  0  0  0  0  0
   -0.3654   24.3172  -26.4609 H   0  0  0  0  0  0  0  0  0  0  0  0
   -1.3455   21.6255  -28.3354 H   0  0  0  0  0  0  0  0  0  0  0  0
   -3.2706   21.5450  -29.8861 H   0  0  0  0  0  0  0  0  0  0  0  0
   -6.0340   22.3710  -29.8530 H   0  0  0  0  0  0  0  0  0  0  0  0
   -6.7600   25.1745  -32.1684 H   0  0  0  0  0  0  0  0  0  0  0  0
   -6.1113   23.6952  -32.8876 H   0  0  0  0  0  0  0  0  0  0  0  0
   -7.6662   23.6377  -30.2822 H   0  0  0  0  0  0  0  0  0  0  0  0
   -8.4839   23.6580  -31.9419 H   0  0  0  0  0  0  0  0  0  0  0  0
   -6.4234   22.0849  -33.1408 H   0  0  0  0  0  0  0  0  0  0  0  0
   -5.7046   21.1726  -31.7148 H   0  0  0  0  0  0  0  0  0  0  0  0
   -7.6394   20.2609  -33.8003 H   0  0  0  0  0  0  0  0  0  0  0  0
   -6.1185   19.4991  -33.1510 H   0  0  0  0  0  0  0  0  0  0  0  0
   -9.4398   20.1919  -32.8132 H   0  0  0  0  0  0  0  0  0  0  0  0
   -9.6369   19.3910  -31.2016 H   0  0  0  0  0  0  0  0  0  0  0  0
   -9.5630   21.9867  -31.4198 H   0  0  0  0  0  0  0  0  0  0  0  0
   -8.6857   21.0683  -30.0725 H   0  0  0  0  0  0  0  0  0  0  0  0
   -5.0107   24.9358  -27.8836 H   0  0  0  0  0  0  0  0  0  0  0  0
   -3.1208   24.8311  -25.0835 H   0  0  0  0  0  0  0  0  0  0  0  0
   -2.2185   25.9208  -26.1903 H   0  0  0  0  0  0  0  0  0  0  0  0
   -4.0148   25.9277  -26.1903 H   0  0  0  0  0  0  0  0  0  0  0  0
  1  2  1  0
  2  3  2  0
  3  4  1  0
  4  5  2  0
  5  6  1  0
  6  7  1  0
  7  8  2  0
  7  9  1  0
  9 10  1  0
 10 11  1  0
 11 12  1  0
 12 13  1  0
 13 14  1  0
 14 15  1  0
 15 16  1  0
  5 17  1  0
 17 18  2  0
 18 19  1  0
 18  2  1  0
 16 11  1  0
  1 20  1  0
  1 21  1  0
  1 22  1  0
  3 23  1  0
  4 24  1  0
  6 25  1  0
  9 26  1  0
  9 27  1  0
 10 28  1  0
 10 29  1  0
 12 30  1  0
 12 31  1  0
 13 32  1  0
 13 33  1  0
 15 34  1  0
 15 35  1  0
 16 36  1  0
 16 37  1  0
 17 38  1  0
 19 39  1  0
 19 40  1  0
 19 41  1  0
M  END
>  <smiles>  (6) 
Cc1ccc(NC(=O)CCN2CCOCC2)cc1C

>  <score_type>  (6) 
oracle

>  <origin>  (6) 
adg

>  <m_score__min__energy>  (6) 
-7.6900000000000004

>  <m_primary>  (6) 
energy

$$$$
6:0
     RDKit          3D

 64 67  0  0  0  0  0  0  0  0999 V2000
   -4.2480   25.0080  -26.3190 C   0  0  0  0  0  0  0  0  0  0  0  0
   -2.9090   24.9010  -27.0410 C   0  0  0  0  0  0  0  0  0  0  0  0
   -3.0350   23.9200  -28.0650 N   0  0  0  0  0  0  0  0  0  0  0  0
   -2.2550   22.7410  -27.9220 C   0  0  0  0  0  0  0  0  0  0  0  0
   -3.1380   21.4960  -27.8660 C   0  0  0  0  0  0  0  0  0  0  0  0
   -4.3360   23.7400  -28.6110 C   0  0  0  0  0  0  0  0  0  0  0  0
   -4.6530   24.6230  -29.8040 C   0  0  0  0  0  0  0  0  0  0  0  0
   -3.8450   24.1890  -30.8390 O   0  0  0  0  0  0  0  0  0  0  0  0
   -3.7260   22.8400  -30.9110 C   0  0  0  0  0  0  0  0  0  0  0  0
   -3.2000   22.2690  -32.2060 C   0  0  0  0  0  0  0  0  0  0  0  0
   -4.2860   22.0790  -33.1160 N   0  0  0  0  0  0  0  0  0  0  0  0
   -5.3310   21.1220  -32.9600 C   0  0  0  0  0  0  0  0  0  0  0  0
   -5.1050   19.7650  -33.2460 C   0  0  0  0  0  0  0  0  0  0  0  0
   -6.1300   18.8270  -33.0650 C   0  0  0  0  0  0  0  0  0  0  0  0
   -7.3460   19.1840  -32.6120 N   0  0  0  0  0  0  0  0  0  0  0  0
   -8.3670   18.2690  -32.1920 C   0  0  0  0  0  0  0  0  0  0  0  0
   -7.5710   20.5070  -32.3410 C   0  0  0  0  0  0  0  0  0  0  0  0
   -8.8140   20.9480  -31.9090 C   0  0  0  0  0  0  0  0  0  0  0  0
   -9.0730   22.2950  -31.6490 C   0  0  0  0  0  0  0  0  0  0  0  0
   -8.0780   23.2230  -31.8200 C   0  0  0  0  0  0  0  0  0  0  0  0
   -6.8560   22.7580  -32.2510 C   0  0  0  0  0  0  0  0  0  0  0  0
   -6.5820   21.4420  -32.5130 C   0  0  0  0  0  0  0  0  0  0  0  0
   -5.7870   17.4510  -33.3370 C   0  0  0  0  0  0  0  0  0  0  0  0
   -6.7780   16.4980  -33.4190 C   0  0  0  0  0  0  0  0  0  0  0  0
   -6.4910   15.1850  -33.8630 C   0  0  0  0  0  0  0  0  0  0  0  0
   -5.2190   14.8620  -34.2180 C   0  0  0  0  0  0  0  0  0  0  0  0
   -4.2090   15.7860  -34.1530 C   0  0  0  0  0  0  0  0  0  0  0  0
   -4.5240   17.0450  -33.7150 C   0  0  0  0  0  0  0  0  0  0  0  0
   -3.4000   18.0110  -33.5990 C   0  0  0  0  0  0  0  0  0  0  0  0
   -3.7860   19.4420  -33.7960 C   0  0  0  0  0  0  0  0  0  0  0  0
   -4.0805   24.9946  -25.2319 H   0  0  0  0  0  0  0  0  0  0  0  0
   -4.7431   25.9486  -26.6022 H   0  0  0  0  0  0  0  0  0  0  0  0
   -4.8862   24.1580  -26.6022 H   0  0  0  0  0  0  0  0  0  0  0  0
   -2.6466   25.8723  -27.4856 H   0  0  0  0  0  0  0  0  0  0  0  0
   -2.1170   24.6137  -26.3338 H   0  0  0  0  0  0  0  0  0  0  0  0
   -1.5712   22.6573  -28.7796 H   0  0  0  0  0  0  0  0  0  0  0  0
   -1.6907   22.8096  -26.9803 H   0  0  0  0  0  0  0  0  0  0  0  0
   -3.3280   21.2281  -26.8162 H   0  0  0  0  0  0  0  0  0  0  0  0
   -4.0936   21.7012  -28.3708 H   0  0  0  0  0  0  0  0  0  0  0  0
   -2.6284   20.6620  -28.3708 H   0  0  0  0  0  0  0  0  0  0  0  0
   -4.4326   22.6907  -28.9266 H   0  0  0  0  0  0  0  0  0  0  0  0
   -5.0459   24.0221  -27.8195 H   0  0  0  0  0  0  0  0  0  0  0  0
   -5.7127   24.5216  -30.0810 H   0  0  0  0  0  0  0  0  0  0  0  0
   -4.4703   25.6831  -29.5742 H   0  0  0  0  0  0  0  0  0  0  0  0
   -3.0452   22.5230  -30.1072 H   0  0  0  0  0  0  0  0  0  0  0  0
   -4.7533   22.4564  -30.8247 H   0  0  0  0  0  0  0  0  0  0  0  0
   -2.4707   22.9657  -32.6450 H   0  0  0  0  0  0  0  0  0  0  0  0
   -2.7109   21.3034  -32.0104 H   0  0  0  0  0  0  0  0  0  0  0  0
   -4.3620   22.6760  -33.9910 H   0  0  0  0  0  0  0  0  0  0  0  0
   -8.4019   18.2378  -31.0930 H   0  0  0  0  0  0  0  0  0  0  0  0
   -9.3406   18.6025  -32.5804 H   0  0  0  0  0  0  0  0  0  0  0  0
   -8.1418   17.2648  -32.5804 H   0  0  0  0  0  0  0  0  0  0  0  0
   -9.6203   20.2133  -31.7670 H   0  0  0  0  0  0  0  0  0  0  0  0
  -10.0703   22.6104  -31.3086 H   0  0  0  0  0  0  0  0  0  0  0  0
   -8.2487   24.2914  -31.6216 H   0  0  0  0  0  0  0  0  0  0  0  0
   -6.0479   23.4904  -32.3941 H   0  0  0  0  0  0  0  0  0  0  0  0
   -7.8077   16.7612  -33.1353 H   0  0  0  0  0  0  0  0  0  0  0  0
   -7.2908   14.4319  -33.9204 H   0  0  0  0  0  0  0  0  0  0  0  0
   -4.9967   13.8415  -34.5633 H   0  0  0  0  0  0  0  0  0  0  0  0
   -3.1803   15.5254  -34.4427 H   0  0  0  0  0  0  0  0  0  0  0  0
   -2.9621   17.9089  -32.5951 H   0  0  0  0  0  0  0  0  0  0  0  0
   -2.6932   17.7650  -34.4052 H   0  0  0  0  0  0  0  0  0  0  0  0
   -3.0361   20.0775  -33.3022 H   0  0  0  0  0  0  0  0  0  0  0  0
   -3.8309   19.6222  -34.8802 H   0  0  0  0  0  0  0  0  0  0  0  0
  1  2  1  0
  2  3  1  0
  3  4  1  0
  4  5  1  0
  3  6  1  0
  6  7  1  0
  7  8  1  0
  8  9  1  0
  9 10  1  0
 10 11  1  0
 11 12  1  0
 12 13  2  0
 13 14  1  0
 14 15  2  0
 15 16  1  0
 15 17  1  0
 17 18  2  0
 18 19  1  0
 19 20  2  0
 20 21  1  0
 21 22  2  0
 14 23  1  0
 23 24  2  0
 24 25  1  0
 25 26  2  0
 26 27  1  0
 27 28  2  0
 28 29  1  0
 29 30  1  0
 22 12  1  0
 28 23  1  0
 30 13  1  0
 22 17  1  0
  1 31  1  0
  1 32  1  0
  1 33  1  0
  2 34  1  0
  2 35  1  0
  4 36  1  0
  4 37  1  0
  5 38  1  0
  5 39  1  0
  5 40  1  0
  6 41  1  0
  6 42  1  0
  7 43  1  0
  7 44  1  0
  9 45  1  0
  9 46  1  0
 10 47  1  0
 10 48  1  0
 11 49  1  0
 16 50  1  0
 16 51  1  0
 16 52  1  0
 18 53  1  0
 19 54  1  0
 20 55  1  0
 21 56  1  0
 24 57  1  0
 25 58  1  0
 26 59  1  0
 27 60  1  0
 29 61  1  0
 29 62  1  0
 30 63  1  0
 30 64  1  0
M  CHG  1  15   1
M  END
>  <smiles>  (7) 
CCN(CC)CCOCCNc1c2c([n+](C)c3ccccc13)-c1ccccc1CC2

>  <score_type>  (7) 
oracle

>  <origin>  (7) 
adg

>  <m_score__min__energy>  (7) 
-9.7100000000000009

>  <m_primary>  (7) 
energy

$$$$
7:0
     RDKit          3D

 48 50  0  0  0  0  0  0  0  0999 V2000
   -9.6230   21.9130  -31.0290 C   0  0  0  0  0  0  0  0  0  0  0  0
   -9.3620   21.0680  -32.1540 O   0  0  0  0  0  0  0  0  0  0  0  0
   -8.0490   20.6570  -32.3300 C   0  0  0  0  0  0  0  0  0  0  0  0
   -7.7490   19.3060  -32.4780 C   0  0  0  0  0  0  0  0  0  0  0  0
   -6.4610   18.8510  -32.6550 C   0  0  0  0  0  0  0  0  0  0  0  0
   -5.4490   19.7570  -32.6840 C   0  0  0  0  0  0  0  0  0  0  0  0
   -4.0930   19.3620  -32.8620 N   0  0  0  0  0  0  0  0  0  0  0  0
   -3.6650   18.5140  -33.9250 C   0  0  0  0  0  0  0  0  0  0  0  0
   -4.4930   18.0740  -34.7630 O   0  0  0  0  0  0  0  0  0  0  0  0
   -2.2130   18.1380  -34.0520 C   0  0  0  0  0  0  0  0  0  0  0  0
   -1.2380   19.6480  -34.2500 S   0  0  0  0  0  0  0  0  0  0  0  0
   -1.5620   20.7800  -32.9070 C   0  0  0  0  0  0  0  0  0  0  0  0
   -2.6370   21.6170  -32.9230 N   0  0  0  0  0  0  0  0  0  0  0  0
   -2.5750   22.3050  -31.7910 N   0  0  0  0  0  0  0  0  0  0  0  0
   -1.5000   21.9130  -31.0920 C   0  0  0  0  0  0  0  0  0  0  0  0
   -1.1430   22.4950  -29.7670 C   0  0  0  0  0  0  0  0  0  0  0  0
   -1.7120   23.7950  -29.5700 N   0  0  0  0  0  0  0  0  0  0  0  0
   -2.8820   23.7030  -28.7200 C   0  0  0  0  0  0  0  0  0  0  0  0
   -4.0370   24.3220  -29.4530 C   0  0  0  0  0  0  0  0  0  0  0  0
   -5.3750   24.0280  -29.3300 C   0  0  0  0  0  0  0  0  0  0  0  0
   -6.0110   24.8820  -30.2300 C   0  0  0  0  0  0  0  0  0  0  0  0
   -5.0380   25.6490  -30.8520 C   0  0  0  0  0  0  0  0  0  0  0  0
   -3.8750   25.2790  -30.3570 O   0  0  0  0  0  0  0  0  0  0  0  0
   -0.8590   20.9570  -31.7830 N   0  0  0  0  0  0  0  0  0  0  0  0
    0.3390   20.2680  -31.3930 C   0  0  0  0  0  0  0  0  0  0  0  0
   -5.6760   21.1210  -32.5420 C   0  0  0  0  0  0  0  0  0  0  0  0
   -6.9810   21.5310  -32.3680 C   0  0  0  0  0  0  0  0  0  0  0  0
   -9.4493   21.3505  -30.0998 H   0  0  0  0  0  0  0  0  0  0  0  0
   -8.9520   22.7841  -31.0612 H   0  0  0  0  0  0  0  0  0  0  0  0
  -10.6683   22.2540  -31.0612 H   0  0  0  0  0  0  0  0  0  0  0  0
   -8.5705   18.5749  -32.4527 H   0  0  0  0  0  0  0  0  0  0  0  0
   -6.2560   17.7764  -32.7705 H   0  0  0  0  0  0  0  0  0  0  0  0
   -3.4130   19.7360  -32.1570 H   0  0  0  0  0  0  0  0  0  0  0  0
   -1.8884   17.6039  -33.1468 H   0  0  0  0  0  0  0  0  0  0  0  0
   -2.0705   17.4829  -34.9241 H   0  0  0  0  0  0  0  0  0  0  0  0
   -1.5110   21.8248  -28.9761 H   0  0  0  0  0  0  0  0  0  0  0  0
   -0.0485   22.5990  -29.7304 H   0  0  0  0  0  0  0  0  0  0  0  0
   -1.8890   24.3330  -30.4300 H   0  0  0  0  0  0  0  0  0  0  0  0
   -3.1017   22.6479  -28.5000 H   0  0  0  0  0  0  0  0  0  0  0  0
   -2.7065   24.2283  -27.7696 H   0  0  0  0  0  0  0  0  0  0  0  0
   -5.8406   23.2833  -28.6676 H   0  0  0  0  0  0  0  0  0  0  0  0
   -7.0941   24.9374  -30.4141 H   0  0  0  0  0  0  0  0  0  0  0  0
   -5.2060   26.4222  -31.6162 H   0  0  0  0  0  0  0  0  0  0  0  0
    0.4007   20.2325  -30.2953 H   0  0  0  0  0  0  0  0  0  0  0  0
    0.3192   19.2433  -31.7925 H   0  0  0  0  0  0  0  0  0  0  0  0
    1.2148   20.8004  -31.7925 H   0  0  0  0  0  0  0  0  0  0  0  0
   -4.8477   21.8444  -32.5674 H   0  0  0  0  0  0  0  0  0  0  0  0
   -7.1808   22.6067  -32.2539 H   0  0  0  0  0  0  0  0  0  0  0  0
  1  2  1  0
  2  3  1  0
  3  4  2  0
  4  5  1  0
  5  6  2  0
  6  7  1  0
  7  8  1  0
  8  9  2  0
  8 10  1  0
 10 11  1  0
 11 12  1  0
 12 13  2  0
 13 14  1  0
 14 15  2  0
 15 16  1  0
 16 17  1  0
 17 18  1  0
 18 19  1  0
 19 20  2  0
 20 21  1  0
 21 22  2  0
 22 23  1  0
 15 24  1  0
 24 25  1  0
  6 26  1  0
 26 27  2  0
 27  3  1  0
 24 12  1  0
 23 19  1  0
  1 28  1  0
  1 29  1  0
  1 30  1  0
  4 31  1  0
  5 32  1  0
  7 33  1  0
 10 34  1  0
 10 35  1  0
 16 36  1  0
 16 37  1  0
 17 38  1  0
 18 39  1  0
 18 40  1  0
 20 41  1  0
 21 42  1  0
 22 43  1  0
 25 44  1  0
 25 45  1  0
 25 46  1  0
 26 47  1  0
 27 48  1  0
M  END
>  <smiles>  (8) 
COc1ccc(NC(=O)CSc2nnc(CNCc3ccco3)n2C)cc1

>  <score_type>  (8) 
oracle

>  <origin>  (8) 
adg

>  <m_score__min__energy>  (8) 
-7.9699999999999998

>  <m_primary>  (8) 
energy

$$$$
8:0
     RDKit          3D

 53 55  0  0  0  0  0  0  0  0999 V2000
   -0.8450   28.1710  -25.9820 C   0  0  0  0  0  0  0  0  0  0  0  0
   -0.4890   27.7550  -24.5660 C   0  0  0  0  0  0  0  0  0  0  0  0
   -1.1710   26.4440  -24.2300 C   0  0  0  0  0  0  0  0  0  0  0  0
   -1.9670   25.9800  -25.3440 N   0  0  0  0  0  0  0  0  0  0  0  0
   -1.6010   24.8890  -26.1760 C   0  0  0  0  0  0  0  0  0  0  0  0
   -0.5120   24.2990  -25.9130 O   0  0  0  0  0  0  0  0  0  0  0  0
   -2.4140   24.4330  -27.2970 C   0  0  0  0  0  0  0  0  0  0  0  0
   -1.9080   24.1990  -28.5580 C   0  0  0  0  0  0  0  0  0  0  0  0
   -2.7310   23.7670  -29.5820 C   0  0  0  0  0  0  0  0  0  0  0  0
   -4.0810   23.5500  -29.4020 C   0  0  0  0  0  0  0  0  0  0  0  0
   -4.9680   23.1120  -30.3940 N   0  0  0  0  0  0  0  0  0  0  0  0
   -5.4300   24.0940  -31.3400 C   0  0  0  0  0  0  0  0  0  0  0  0
   -4.9810   25.2540  -31.1780 O   0  0  0  0  0  0  0  0  0  0  0  0
   -6.3630   23.6730  -32.3910 C   0  0  0  0  0  0  0  0  0  0  0  0
   -7.7160   23.4210  -31.8690 C   0  0  0  0  0  0  0  0  0  0  0  0
   -8.0470   22.0390  -30.8880 S   0  0  0  0  0  0  0  0  0  0  0  0
   -9.4870   21.9240  -30.4470 O   0  0  0  0  0  0  0  0  0  0  0  0
   -7.2430   22.1230  -29.6000 O   0  0  0  0  0  0  0  0  0  0  0  0
   -7.6620   20.5530  -31.6890 C   0  0  0  0  0  0  0  0  0  0  0  0
   -8.6570   19.5600  -31.7460 C   0  0  0  0  0  0  0  0  0  0  0  0
   -8.4240   18.3380  -32.3380 C   0  0  0  0  0  0  0  0  0  0  0  0
   -7.2110   18.0160  -32.9070 C   0  0  0  0  0  0  0  0  0  0  0  0
   -6.2260   18.9820  -32.8570 C   0  0  0  0  0  0  0  0  0  0  0  0
   -5.0050   18.7000  -33.4300 C   0  0  0  0  0  0  0  0  0  0  0  0
   -4.0030   19.6230  -33.4220 C   0  0  0  0  0  0  0  0  0  0  0  0
   -4.2680   20.8550  -32.8150 C   0  0  0  0  0  0  0  0  0  0  0  0
   -5.4680   21.0920  -32.2700 N   0  0  0  0  0  0  0  0  0  0  0  0
   -6.4680   20.2210  -32.2550 C   0  0  0  0  0  0  0  0  0  0  0  0
   -4.5840   23.7850  -28.1380 C   0  0  0  0  0  0  0  0  0  0  0  0
   -3.7620   24.2160  -27.1170 C   0  0  0  0  0  0  0  0  0  0  0  0
   -1.5599   29.0064  -25.9500 H   0  0  0  0  0  0  0  0  0  0  0  0
    0.0659   28.4880  -26.5110 H   0  0  0  0  0  0  0  0  0  0  0  0
   -1.2989   27.3200  -26.5110 H   0  0  0  0  0  0  0  0  0  0  0  0
    0.6010   27.6311  -24.4848 H   0  0  0  0  0  0  0  0  0  0  0  0
   -0.8269   28.5310  -23.8634 H   0  0  0  0  0  0  0  0  0  0  0  0
   -0.4061   25.6895  -23.9941 H   0  0  0  0  0  0  0  0  0  0  0  0
   -1.8323   26.6017  -23.3652 H   0  0  0  0  0  0  0  0  0  0  0  0
   -2.8620   26.4750  -25.5500 H   0  0  0  0  0  0  0  0  0  0  0  0
   -0.8369   24.3578  -28.7519 H   0  0  0  0  0  0  0  0  0  0  0  0
   -2.2932   23.5902  -30.5755 H   0  0  0  0  0  0  0  0  0  0  0  0
   -5.2770   22.1140  -30.4400 H   0  0  0  0  0  0  0  0  0  0  0  0
   -6.4194   24.4652  -33.1520 H   0  0  0  0  0  0  0  0  0  0  0  0
   -5.9864   22.7318  -32.8179 H   0  0  0  0  0  0  0  0  0  0  0  0
   -7.9895   24.3024  -31.2704 H   0  0  0  0  0  0  0  0  0  0  0  0
   -8.2931   23.2136  -32.7822 H   0  0  0  0  0  0  0  0  0  0  0  0
   -9.6448   19.7642  -31.3073 H   0  0  0  0  0  0  0  0  0  0  0  0
   -9.2339   17.5939  -32.3571 H   0  0  0  0  0  0  0  0  0  0  0  0
   -7.0361   17.0374  -33.3779 H   0  0  0  0  0  0  0  0  0  0  0  0
   -4.8375   17.7191  -33.8989 H   0  0  0  0  0  0  0  0  0  0  0  0
   -3.0240   19.4078  -33.8751 H   0  0  0  0  0  0  0  0  0  0  0  0
   -3.4889   21.6310  -32.7853 H   0  0  0  0  0  0  0  0  0  0  0  0
   -5.6548   23.6265  -27.9421 H   0  0  0  0  0  0  0  0  0  0  0  0
   -4.1993   24.3927  -26.1232 H   0  0  0  0  0  0  0  0  0  0  0  0
  1  2  1  0
  2  3  1  0
  3  4  1  0
  4  5  1  0
  5  6  2  0
  5  7  1  0
  7  8  2  0
  8  9  1  0
  9 10  2  0
 10 11  1  0
 11 12  1  0
 12 13  2  0
 12 14  1  0
 14 15  1  0
 15 16  1  0
 16 17  2  0
 16 18  2  0
 16 19  1  0
 19 20  2  0
 20 21  1  0
 21 22  2  0
 22 23  1  0
 23 24  2  0
 24 25  1  0
 25 26  2  0
 26 27  1  0
 27 28  2  0
 10 29  1  0
 29 30  2  0
 30  7  1  0
 28 19  1  0
 28 23  1  0
  1 31  1  0
  1 32  1  0
  1 33  1  0
  2 34  1  0
  2 35  1  0
  3 36  1  0
  3 37  1  0
  4 38  1  0
  8 39  1  0
  9 40  1  0
 11 41  1  0
 14 42  1  0
 14 43  1  0
 15 44  1  0
 15 45  1  0
 20 46  1  0
 21 47  1  0
 22 48  1  0
 24 49  1  0
 25 50  1  0
 26 51  1  0
 29 52  1  0
 30 53  1  0
M  END
>  <smiles>  (9) 
CCCNC(=O)c1ccc(NC(=O)CCS(=O)(=O)c2cccc3cccnc23)cc1

>  <score_type>  (9) 
oracle

>  <origin>  (9) 
adg

>  <m_score__min__energy>  (9) 
-10.050000000000001

>  <m_primary>  (9) 
energy

$$$$
9:0
     RDKit          3D

 60 63  0  0  0  0  0  0  0  0999 V2000
   -6.2490   25.6630  -29.6360 C   0  0  0  0  0  0  0  0  0  0  0  0
   -5.3770   25.3390  -30.8300 C   0  0  0  0  0  0  0  0  0  0  0  0
   -4.2230   24.5780  -30.4880 N   0  0  0  0  0  0  0  0  0  0  0  0
   -4.0590   24.5430  -29.0590 C   0  0  0  0  0  0  0  0  0  0  0  0
   -4.2850   23.2460  -31.0140 C   0  0  0  0  0  0  0  0  0  0  0  0
   -5.6920   22.7860  -31.2930 C   0  0  0  0  0  0  0  0  0  0  0  0
   -5.8020   22.2400  -32.6460 N   0  0  0  0  0  0  0  0  0  0  0  0
   -5.7810   20.8460  -32.7780 C   0  0  0  0  0  0  0  0  0  0  0  0
   -6.9870   20.1940  -32.5350 C   0  0  0  0  0  0  0  0  0  0  0  0
   -8.1160   20.9430  -32.2370 C   0  0  0  0  0  0  0  0  0  0  0  0
   -9.3100   20.2970  -32.0010 C   0  0  0  0  0  0  0  0  0  0  0  0
   -9.4570   18.9310  -32.0440 C   0  0  0  0  0  0  0  0  0  0  0  0
   -8.3400   18.1850  -32.3400 C   0  0  0  0  0  0  0  0  0  0  0  0
   -7.1500   18.8340  -32.5750 C   0  0  0  0  0  0  0  0  0  0  0  0
   -6.0430   18.1170  -32.8720 N   0  0  0  0  0  0  0  0  0  0  0  0
   -6.1780   16.6770  -32.9220 C   0  0  0  0  0  0  0  0  0  0  0  0
   -4.9270   18.7240  -33.0970 C   0  0  0  0  0  0  0  0  0  0  0  0
   -3.3320   17.9310  -33.4870 S   0  0  0  0  0  0  0  0  0  0  0  0
   -2.4390   19.4910  -33.5990 C   0  0  0  0  0  0  0  0  0  0  0  0
   -1.0260   19.4570  -33.9090 C   0  0  0  0  0  0  0  0  0  0  0  0
   -0.5400   20.3410  -34.8800 C   0  0  0  0  0  0  0  0  0  0  0  0
    0.7930   20.3390  -35.2660 C   0  0  0  0  0  0  0  0  0  0  0  0
    1.6770   19.4760  -34.7110 C   0  0  0  0  0  0  0  0  0  0  0  0
    2.9990   19.4490  -35.0700 O   0  0  0  0  0  0  0  0  0  0  0  0
    4.0650   18.9730  -34.3030 C   0  0  0  0  0  0  0  0  0  0  0  0
    1.2420   18.5920  -33.7560 C   0  0  0  0  0  0  0  0  0  0  0  0
   -0.1050   18.6010  -33.3750 C   0  0  0  0  0  0  0  0  0  0  0  0
   -3.3720   20.4580  -33.3480 C   0  0  0  0  0  0  0  0  0  0  0  0
   -2.9650   21.9210  -33.4470 C   0  0  0  0  0  0  0  0  0  0  0  0
   -4.6370   20.0780  -33.0880 C   0  0  0  0  0  0  0  0  0  0  0  0
   -5.6934   25.4565  -28.7094 H   0  0  0  0  0  0  0  0  0  0  0  0
   -6.5309   26.7259  -29.6654 H   0  0  0  0  0  0  0  0  0  0  0  0
   -7.1565   25.0421  -29.6654 H   0  0  0  0  0  0  0  0  0  0  0  0
   -5.9736   24.7643  -31.5538 H   0  0  0  0  0  0  0  0  0  0  0  0
   -5.0280   26.2937  -31.2503 H   0  0  0  0  0  0  0  0  0  0  0  0
   -5.0245   24.7491  -28.5740 H   0  0  0  0  0  0  0  0  0  0  0  0
   -3.7010   23.5482  -28.7553 H   0  0  0  0  0  0  0  0  0  0  0  0
   -3.3261   25.3050  -28.7553 H   0  0  0  0  0  0  0  0  0  0  0  0
   -3.7133   23.2135  -31.9532 H   0  0  0  0  0  0  0  0  0  0  0  0
   -3.8646   22.5726  -30.2525 H   0  0  0  0  0  0  0  0  0  0  0  0
   -5.9675   22.0073  -30.5665 H   0  0  0  0  0  0  0  0  0  0  0  0
   -6.3687   23.6487  -31.2051 H   0  0  0  0  0  0  0  0  0  0  0  0
   -5.9130   22.9190  -33.4510 H   0  0  0  0  0  0  0  0  0  0  0  0
   -8.0587   22.0405  -32.1896 H   0  0  0  0  0  0  0  0  0  0  0  0
  -10.1939   20.9079  -31.7653 H   0  0  0  0  0  0  0  0  0  0  0  0
  -10.4288   18.4537  -31.8495 H   0  0  0  0  0  0  0  0  0  0  0  0
   -8.3973   17.0875  -32.3880 H   0  0  0  0  0  0  0  0  0  0  0  0
   -6.2155   16.2765  -31.8982 H   0  0  0  0  0  0  0  0  0  0  0  0
   -7.1048   16.4138  -33.4529 H   0  0  0  0  0  0  0  0  0  0  0  0
   -5.3163   16.2462  -33.4529 H   0  0  0  0  0  0  0  0  0  0  0  0
   -1.2326   21.0554  -35.3489 H   0  0  0  0  0  0  0  0  0  0  0  0
    1.1364   21.0483  -36.0335 H   0  0  0  0  0  0  0  0  0  0  0  0
    3.8248   19.0802  -33.2349 H   0  0  0  0  0  0  0  0  0  0  0  0
    4.2386   17.9119  -34.5351 H   0  0  0  0  0  0  0  0  0  0  0  0
    4.9710   19.5521  -34.5351 H   0  0  0  0  0  0  0  0  0  0  0  0
    1.9450   17.8831  -33.2942 H   0  0  0  0  0  0  0  0  0  0  0  0
   -0.4376   17.8848  -32.6092 H   0  0  0  0  0  0  0  0  0  0  0  0
   -2.8489   22.3385  -32.4360 H   0  0  0  0  0  0  0  0  0  0  0  0
   -2.0107   22.0003  -33.9883 H   0  0  0  0  0  0  0  0  0  0  0  0
   -3.7413   22.4817  -33.9883 H   0  0  0  0  0  0  0  0  0  0  0  0
  1  2  1  0
  2  3  1  0
  3  4  1  0
  3  5  1  0
  5  6  1  0
  6  7  1  0
  7  8  1  0
  8  9  2  0
  9 10  1  0
 10 11  2  0
 11 12  1  0
 12 13  2  0
 13 14  1  0
 14 15  2  0
 15 16  1  0
 15 17  1  0
 17 18  1  0
 18 19  1  0
 19 20  1  0
 20 21  2  0
 21 22  1  0
 22 23  2  0
 23 24  1  0
 24 25  1  0
 23 26  1  0
 26 27  2  0
 19 28  2  0
 28 29  1  0
 28 30  1  0
 30  8  1  0
 14  9  1  0
 30 17  2  0
 27 20  1  0
  1 31  1  0
  1 32  1  0
  1 33  1  0
  2 34  1  0
  2 35  1  0
  4 36  1  0
  4 37  1  0
  4 38  1  0
  5 39  1  0
  5 40  1  0
  6 41  1  0
  6 42  1  0
  7 43  1  0
 10 44  1  0
 11 45  1  0
 12 46  1  0
 13 47  1  0
 16 48  1  0
 16 49  1  0
 16 50  1  0
 21 51  1  0
 22 52  1  0
 25 53  1  0
 25 54  1  0
 25 55  1  0
 26 56  1  0
 27 57  1  0
 29 58  1  0
 29 59  1  0
 29 60  1  0
M  CHG  1  15   1
M  END
>  <smiles>  (10) 
CCN(C)CCNc1c2ccccc2[n+](C)c2sc(-c3ccc(OC)cc3)c(C)c12

>  <score_type>  (10) 
oracle

>  <origin>  (10) 
adg

>  <m_score__min__energy>  (10) 
-9.0600000000000005

>  <m_primary>  (10) 
energy

$$$$
10:0
     RDKit          3D

 47 50  0  0  1  0  0  0  0  0999 V2000
   -6.1680   25.9380  -29.3470 C   0  0  0  0  0  0  0  0  0  0  0  0
   -5.3570   25.1440  -30.2920 C   0  0  0  0  0  0  0  0  0  0  0  0
   -4.2950   25.5820  -30.8020 O   0  0  0  0  0  0  0  0  0  0  0  0
   -5.7690   23.8460  -30.6520 N   0  0  0  0  0  0  0  0  0  0  0  0
   -6.9810   23.2130  -30.1370 C   0  0  0  0  0  0  0  0  0  0  0  0
   -7.9020   22.6050  -31.2040 C   0  0  1  0  0  0  0  0  0  0  0  0
   -7.0480   22.8420  -32.4310 C   0  0  0  0  0  0  0  0  0  0  0  0
   -5.8220   22.0730  -31.9900 C   0  0  1  0  0  0  0  0  0  0  0  0
   -5.9200   20.8600  -32.7270 C   0  0  0  0  0  0  0  0  0  0  0  0
   -7.2900   20.4330  -32.3560 N   0  0  0  0  0  0  0  0  0  0  0  0
   -7.6780   19.1800  -32.7430 C   0  0  0  0  0  0  0  0  0  0  0  0
   -6.5860   18.2410  -33.1080 C   0  0  0  0  0  0  0  0  0  0  0  0
   -6.0600   18.1300  -34.3540 N   0  0  0  0  0  0  0  0  0  0  0  0
   -5.0910   17.1960  -34.3740 C   0  0  0  0  0  0  0  0  0  0  0  0
   -4.2440   16.6830  -35.3360 C   0  0  0  0  0  0  0  0  0  0  0  0
   -3.3400   15.7040  -35.0200 C   0  0  0  0  0  0  0  0  0  0  0  0
   -3.2370   15.1910  -33.7390 C   0  0  0  0  0  0  0  0  0  0  0  0
   -4.0870   15.7060  -32.7730 C   0  0  0  0  0  0  0  0  0  0  0  0
   -5.0010   16.6960  -33.0910 C   0  0  0  0  0  0  0  0  0  0  0  0
   -5.9240   17.3520  -32.3470 N   0  0  0  0  0  0  0  0  0  0  0  0
   -6.1340   17.1080  -30.9560 C   0  0  0  0  0  0  0  0  0  0  0  0
   -7.8730   21.0700  -31.2290 C   0  0  0  0  0  0  0  0  0  0  0  0
   -4.9010   23.0910  -31.6170 C   0  0  0  0  0  0  0  0  0  0  0  0
   -5.8952   25.6709  -28.3154 H   0  0  0  0  0  0  0  0  0  0  0  0
   -5.9781   27.0090  -29.5109 H   0  0  0  0  0  0  0  0  0  0  0  0
   -7.2348   25.7255  -29.5109 H   0  0  0  0  0  0  0  0  0  0  0  0
   -6.6797   22.4094  -29.4489 H   0  0  0  0  0  0  0  0  0  0  0  0
   -7.5608   24.0115  -29.6510 H   0  0  0  0  0  0  0  0  0  0  0  0
   -8.9254   22.9917  -31.0900 H   0  0  0  0  0  0  0  0  0  0  0  0
   -7.4997   22.4190  -33.3404 H   0  0  0  0  0  0  0  0  0  0  0  0
   -6.8831   23.8940  -32.7071 H   0  0  0  0  0  0  0  0  0  0  0  0
   -5.4581   21.4902  -31.1310 H   0  0  0  0  0  0  0  0  0  0  0  0
   -5.8270   21.0330  -33.8093 H   0  0  0  0  0  0  0  0  0  0  0  0
   -5.1333   20.1234  -32.5070 H   0  0  0  0  0  0  0  0  0  0  0  0
   -8.2431   18.7317  -31.9125 H   0  0  0  0  0  0  0  0  0  0  0  0
   -8.2642   19.3232  -33.6627 H   0  0  0  0  0  0  0  0  0  0  0  0
   -4.2958   17.0644  -36.3665 H   0  0  0  0  0  0  0  0  0  0  0  0
   -2.6771   15.3145  -35.8067 H   0  0  0  0  0  0  0  0  0  0  0  0
   -2.5078   14.4039  -33.4964 H   0  0  0  0  0  0  0  0  0  0  0  0
   -4.0348   15.3241  -31.7427 H   0  0  0  0  0  0  0  0  0  0  0  0
   -5.5288   17.8111  -30.3649 H   0  0  0  0  0  0  0  0  0  0  0  0
   -7.1982   17.2483  -30.7157 H   0  0  0  0  0  0  0  0  0  0  0  0
   -5.8367   16.0765  -30.7157 H   0  0  0  0  0  0  0  0  0  0  0  0
   -8.9141   20.7219  -31.1586 H   0  0  0  0  0  0  0  0  0  0  0  0
   -7.2195   20.7936  -30.3884 H   0  0  0  0  0  0  0  0  0  0  0  0
   -4.0044   22.6789  -31.1308 H   0  0  0  0  0  0  0  0  0  0  0  0
   -4.4871   23.6834  -32.4463 H   0  0  0  0  0  0  0  0  0  0  0  0
  1  2  1  0
  2  3  2  0
  2  4  1  0
  4  5  1  0
  5  6  1  0
  6  7  1  0
  7  8  1  0
  8  9  1  0
  9 10  1  0
 10 11  1  0
 11 12  1  0
 12 13  2  0
 13 14  1  0
 14 15  2  0
 15 16  1  0
 16 17  2  0
 17 18  1  0
 18 19  2  0
 19 20  1  0
 20 21  1  0
 10 22  1  0
  8 23  1  0
 23  4  1  0
 22  6  1  0
 20 12  1  0
 19 14  1  0
  1 24  1  0
  1 25  1  0
  1 26  1  0
  5 27  1  0
  5 28  1  0
  6 29  1  6
  7 30  1  0
  7 31  1  0
  8 32  1  1
  9 33  1  0
  9 34  1  0
 11 35  1  0
 11 36  1  0
 15 37  1  0
 16 38  1  0
 17 39  1  0
 18 40  1  0
 21 41  1  0
 21 42  1  0
 21 43  1  0
 22 44  1  0
 22 45  1  0
 23 46  1  0
 23 47  1  0
M  END
>  <smiles>  (11) 
CC(=O)N1CC2CC(CN(Cc3nc4ccccc4n3C)C2)C1

>  <score_type>  (11) 
oracle

>  <origin>  (11) 
adg

>  <m_score__min__energy>  (11) 
-9.1300000000000008

>  <m_primary>  (11) 
energy

$$$$
11:0
     RDKit          3D

 47 50  0  0  1  0  0  0  0  0999 V2000
   -6.4790   25.4460  -29.3780 C   0  0  0  0  0  0  0  0  0  0  0  0
   -5.6310   26.0450  -30.4770 C   0  0  0  0  0  0  0  0  0  0  0  0
   -4.5860   25.1910  -30.7950 O   0  0  0  0  0  0  0  0  0  0  0  0
   -4.7470   23.8920  -31.2170 C   0  0  0  0  0  0  0  0  0  0  0  0
   -5.9240   23.4770  -31.8080 C   0  0  0  0  0  0  0  0  0  0  0  0
   -6.1160   22.1690  -32.2450 C   0  0  0  0  0  0  0  0  0  0  0  0
   -5.0880   21.2990  -32.0700 C   0  0  0  0  0  0  0  0  0  0  0  0
   -5.3090   19.9120  -32.5420 C   0  0  0  0  0  0  0  0  0  0  0  0
   -6.1290   19.1130  -32.6950 N   0  0  0  0  0  0  0  0  0  0  0  0
   -6.0460   17.8870  -33.1600 C   0  0  0  0  0  0  0  0  0  0  0  0
   -7.0550   16.9360  -33.3350 C   0  0  0  0  0  0  0  0  0  0  0  0
   -6.7350   15.7170  -33.8400 C   0  0  0  0  0  0  0  0  0  0  0  0
   -5.4770   15.3060  -34.2080 C   0  0  0  0  0  0  0  0  0  0  0  0
   -4.4600   16.2540  -34.0350 C   0  0  0  0  0  0  0  0  0  0  0  0
   -4.7840   17.5020  -33.5200 C   0  0  0  0  0  0  0  0  0  0  0  0
   -3.7940   18.9390  -33.1610 S   0  0  0  0  0  0  0  0  0  0  0  0
   -3.9240   21.7020  -31.4870 C   0  0  0  0  0  0  0  0  0  0  0  0
   -3.7070   23.0110  -31.0380 C   0  0  0  0  0  0  0  0  0  0  0  0
   -2.5000   23.2710  -30.4770 O   0  0  0  0  0  0  0  0  0  0  0  0
   -1.8860   22.8470  -29.3270 C   0  0  2  0  0  0  0  0  0  0  0  0
   -2.8380   23.0380  -28.1280 C   0  0  0  0  0  0  0  0  0  0  0  0
   -2.8170   24.5340  -27.9460 C   0  0  0  0  0  0  0  0  0  0  0  0
   -1.7410   25.0600  -28.7500 N   0  0  0  0  0  0  0  0  0  0  0  0
   -1.0700   26.1820  -28.1380 C   0  0  0  0  0  0  0  0  0  0  0  0
   -0.8490   23.9290  -28.9580 C   0  0  0  0  0  0  0  0  0  0  0  0
   -6.0689   25.7357  -28.3993 H   0  0  0  0  0  0  0  0  0  0  0  0
   -7.5107   25.8168  -29.4676 H   0  0  0  0  0  0  0  0  0  0  0  0
   -6.4744   24.3497  -29.4676 H   0  0  0  0  0  0  0  0  0  0  0  0
   -6.2535   26.2056  -31.3696 H   0  0  0  0  0  0  0  0  0  0  0  0
   -5.2181   27.0036  -30.1296 H   0  0  0  0  0  0  0  0  0  0  0  0
   -6.7382   24.2051  -31.9381 H   0  0  0  0  0  0  0  0  0  0  0  0
   -7.0606   21.8536  -32.7123 H   0  0  0  0  0  0  0  0  0  0  0  0
   -8.0954   17.1721  -33.0670 H   0  0  0  0  0  0  0  0  0  0  0  0
   -7.5553   14.9950  -33.9655 H   0  0  0  0  0  0  0  0  0  0  0  0
   -5.2815   14.3013  -34.6109 H   0  0  0  0  0  0  0  0  0  0  0  0
   -3.4207   16.0132  -34.3031 H   0  0  0  0  0  0  0  0  0  0  0  0
   -3.1170   20.9648  -31.3632 H   0  0  0  0  0  0  0  0  0  0  0  0
   -1.5296   21.8188  -29.4878 H   0  0  0  0  0  0  0  0  0  0  0  0
   -3.8510   22.6779  -28.3607 H   0  0  0  0  0  0  0  0  0  0  0  0
   -2.5380   22.4779  -27.2301 H   0  0  0  0  0  0  0  0  0  0  0  0
   -3.7746   24.9645  -28.2742 H   0  0  0  0  0  0  0  0  0  0  0  0
   -2.6667   24.7906  -26.8869 H   0  0  0  0  0  0  0  0  0  0  0  0
   -1.1252   26.0896  -27.0433 H   0  0  0  0  0  0  0  0  0  0  0  0
   -0.0159   26.1947  -28.4522 H   0  0  0  0  0  0  0  0  0  0  0  0
   -1.5575   27.1167  -28.4522 H   0  0  0  0  0  0  0  0  0  0  0  0
   -0.1388   24.1125  -29.7777 H   0  0  0  0  0  0  0  0  0  0  0  0
   -0.2005   23.6825  -28.1043 H   0  0  0  0  0  0  0  0  0  0  0  0
  1  2  1  0
  2  3  1  0
  3  4  1  0
  4  5  2  0
  5  6  1  0
  6  7  2  0
  7  8  1  0
  8  9  2  0
  9 10  1  0
 10 11  2  0
 11 12  1  0
 12 13  2  0
 13 14  1  0
 14 15  2  0
 15 16  1  0
  7 17  1  0
 17 18  2  0
 18 19  1  0
 19 20  1  0
 20 21  1  0
 21 22  1  0
 22 23  1  0
 23 24  1  0
 23 25  1  0
 18  4  1  0
 25 20  1  0
 16  8  1  0
 15 10  1  0
  1 26  1  0
  1 27  1  0
  1 28  1  0
  2 29  1  0
  2 30  1  0
  5 31  1  0
  6 32  1  0
 11 33  1  0
 12 34  1  0
 13 35  1  0
 14 36  1  0
 17 37  1  0
 20 38  1  6
 21 39  1  0
 21 40  1  0
 22 41  1  0
 22 42  1  0
 24 43  1  0
 24 44  1  0
 24 45  1  0
 25 46  1  0
 25 47  1  0
M  END
>  <smiles>  (12) 
CCOc1ccc(-c2nc3ccccc3s2)cc1OC1CCN(C)C1

>  <score_type>  (12) 
oracle

>  <origin>  (12) 
adg

>  <m_score__min__energy>  (12) 
-8.3699999999999992

>  <m_primary>  (12) 
energy

$$$$
12:0
     RDKit          3D

 46 47  0  0  0  0  0  0  0  0999 V2000
   -2.6650   20.8280  -27.8340 C   0  0  0  0  0  0  0  0  0  0  0  0
   -3.3790   21.9760  -28.4850 C   0  0  0  0  0  0  0  0  0  0  0  0
   -2.9540   23.2860  -28.0590 N   0  0  0  0  0  0  0  0  0  0  0  0
   -3.9890   24.0900  -27.4800 C   0  0  0  0  0  0  0  0  0  0  0  0
   -3.5990   24.9840  -26.3680 C   0  0  0  0  0  0  0  0  0  0  0  0
   -2.5410   23.9810  -29.2910 C   0  0  0  0  0  0  0  0  0  0  0  0
   -3.4960   23.8300  -30.4190 C   0  0  0  0  0  0  0  0  0  0  0  0
   -4.4250   24.9520  -30.4530 N   0  0  0  0  0  0  0  0  0  0  0  0
   -5.7790   24.4550  -30.4590 C   0  0  0  0  0  0  0  0  0  0  0  0
   -6.2350   24.2160  -31.8820 C   0  0  0  0  0  0  0  0  0  0  0  0
   -6.8530   22.8950  -31.9690 C   0  0  0  0  0  0  0  0  0  0  0  0
   -8.2130   22.7920  -31.6480 C   0  0  0  0  0  0  0  0  0  0  0  0
   -8.8850   21.5880  -31.6940 C   0  0  0  0  0  0  0  0  0  0  0  0
   -8.2200   20.4270  -32.0680 C   0  0  0  0  0  0  0  0  0  0  0  0
   -9.1110   18.9150  -32.1180 Cl  0  0  0  0  0  0  0  0  0  0  0  0
   -6.8720   20.5060  -32.3910 C   0  0  0  0  0  0  0  0  0  0  0  0
   -6.2300   19.3330  -32.7560 C   0  0  0  0  0  0  0  0  0  0  0  0
   -4.8890   19.3800  -33.0790 C   0  0  0  0  0  0  0  0  0  0  0  0
   -4.2230   20.5870  -33.0270 C   0  0  0  0  0  0  0  0  0  0  0  0
   -2.5020   20.6200  -33.4400 Cl  0  0  0  0  0  0  0  0  0  0  0  0
   -4.9030   21.7610  -32.6520 C   0  0  0  0  0  0  0  0  0  0  0  0
   -6.2290   21.7290  -32.3330 C   0  0  0  0  0  0  0  0  0  0  0  0
   -2.7282   20.9296  -26.7405 H   0  0  0  0  0  0  0  0  0  0  0  0
   -3.1344   19.8821  -28.1421 H   0  0  0  0  0  0  0  0  0  0  0  0
   -1.6090   20.8308  -28.1421 H   0  0  0  0  0  0  0  0  0  0  0  0
   -3.2200   21.9034  -29.5710 H   0  0  0  0  0  0  0  0  0  0  0  0
   -4.4342   21.8865  -28.1876 H   0  0  0  0  0  0  0  0  0  0  0  0
   -4.4085   24.7180  -28.2797 H   0  0  0  0  0  0  0  0  0  0  0  0
   -4.6953   23.3725  -27.0368 H   0  0  0  0  0  0  0  0  0  0  0  0
   -3.8141   24.4910  -25.4085 H   0  0  0  0  0  0  0  0  0  0  0  0
   -2.5232   25.2038  -26.4343 H   0  0  0  0  0  0  0  0  0  0  0  0
   -4.1697   25.9221  -26.4343 H   0  0  0  0  0  0  0  0  0  0  0  0
   -2.4384   25.0528  -29.0657 H   0  0  0  0  0  0  0  0  0  0  0  0
   -1.5938   23.5232  -29.6124 H   0  0  0  0  0  0  0  0  0  0  0  0
   -2.9362   23.7944  -31.3653 H   0  0  0  0  0  0  0  0  0  0  0  0
   -4.0661   22.8994  -30.2812 H   0  0  0  0  0  0  0  0  0  0  0  0
   -4.3030   25.6280  -29.6960 H   0  0  0  0  0  0  0  0  0  0  0  0
   -5.8227   23.5095  -29.8986 H   0  0  0  0  0  0  0  0  0  0  0  0
   -6.4391   25.1981  -29.9878 H   0  0  0  0  0  0  0  0  0  0  0  0
   -6.9673   24.9852  -32.1685 H   0  0  0  0  0  0  0  0  0  0  0  0
   -5.3719   24.2675  -32.5620 H   0  0  0  0  0  0  0  0  0  0  0  0
   -8.7612   23.6981  -31.3505 H   0  0  0  0  0  0  0  0  0  0  0  0
   -9.9529   21.5471  -31.4332 H   0  0  0  0  0  0  0  0  0  0  0  0
   -6.7800   18.3809  -32.7877 H   0  0  0  0  0  0  0  0  0  0  0  0
   -4.3565   18.4641  -33.3750 H   0  0  0  0  0  0  0  0  0  0  0  0
   -4.3585   22.7161  -32.6157 H   0  0  0  0  0  0  0  0  0  0  0  0
  1  2  1  0
  2  3  1  0
  3  4  1  0
  4  5  1  0
  3  6  1  0
  6  7  1  0
  7  8  1  0
  8  9  1  0
  9 10  1  0
 10 11  1  0
 11 12  2  0
 12 13  1  0
 13 14  2  0
 14 15  1  0
 14 16  1  0
 16 17  2  0
 17 18  1  0
 18 19  2  0
 19 20  1  0
 19 21  1  0
 21 22  2  0
 22 11  1  0
 22 16  1  0
  1 23  1  0
  1 24  1  0
  1 25  1  0
  2 26  1  0
  2 27  1  0
  4 28  1  0
  4 29  1  0
  5 30  1  0
  5 31  1  0
  5 32  1  0
  6 33  1  0
  6 34  1  0
  7 35  1  0
  7 36  1  0
  8 37  1  0
  9 38  1  0
  9 39  1  0
 10 40  1  0
 10 41  1  0
 12 42  1  0
 13 43  1  0
 17 44  1  0
 18 45  1  0
 21 46  1  0
M  END
>  <smiles>  (13) 
CCN(CC)CCNCCc1ccc(Cl)c2ccc(Cl)cc12

>  <score_type>  (13) 
oracle

>  <origin>  (13) 
adg

>  <m_score__min__energy>  (13) 
-8.7400000000000002

>  <m_primary>  (13) 
energy

$$$$
13:0
     RDKit          3D

 54 55  0  0  0  0  0  0  0  0999 V2000
   -6.2080   14.6990  -34.1690 C   0  0  0  0  0  0  0  0  0  0  0  0
   -6.8680   16.0740  -34.1360 C   0  0  0  0  0  0  0  0  0  0  0  0
   -6.2720   16.9470  -33.1640 N   0  0  0  0  0  0  0  0  0  0  0  0
   -5.0950   16.4470  -32.4570 C   0  0  0  0  0  0  0  0  0  0  0  0
   -3.8200   16.9230  -33.1020 C   0  0  0  0  0  0  0  0  0  0  0  0
   -6.7480   18.2420  -32.8360 C   0  0  0  0  0  0  0  0  0  0  0  0
   -7.7970   18.4680  -31.9620 C   0  0  0  0  0  0  0  0  0  0  0  0
   -8.2320   19.7570  -31.6690 C   0  0  0  0  0  0  0  0  0  0  0  0
   -7.6120   20.8380  -32.2590 C   0  0  0  0  0  0  0  0  0  0  0  0
   -8.0030   22.2420  -31.9990 C   0  0  0  0  0  0  0  0  0  0  0  0
   -7.1140   22.9840  -31.1770 N   0  0  0  0  0  0  0  0  0  0  0  0
   -7.1040   22.7010  -29.7930 C   0  0  0  0  0  0  0  0  0  0  0  0
   -5.8800   23.3030  -31.8050 C   0  0  0  0  0  0  0  0  0  0  0  0
   -4.6870   23.1730  -30.9650 C   0  0  0  0  0  0  0  0  0  0  0  0
   -4.2020   21.9130  -30.6600 C   0  0  0  0  0  0  0  0  0  0  0  0
   -3.0760   21.7970  -29.8770 C   0  0  0  0  0  0  0  0  0  0  0  0
   -2.4420   22.9320  -29.4030 C   0  0  0  0  0  0  0  0  0  0  0  0
   -2.9410   24.1770  -29.7180 C   0  0  0  0  0  0  0  0  0  0  0  0
   -2.3010   25.2980  -29.2400 O   0  0  0  0  0  0  0  0  0  0  0  0
   -1.6830   25.2650  -27.9710 C   0  0  0  0  0  0  0  0  0  0  0  0
   -4.0690   24.3320  -30.5010 C   0  0  0  0  0  0  0  0  0  0  0  0
   -4.5300   25.6010  -30.7890 O   0  0  0  0  0  0  0  0  0  0  0  0
   -5.7320   26.0540  -30.1980 C   0  0  0  0  0  0  0  0  0  0  0  0
   -6.5690   20.5980  -33.1290 C   0  0  0  0  0  0  0  0  0  0  0  0
   -6.1830   19.3340  -33.3790 N   0  0  0  0  0  0  0  0  0  0  0  0
   -6.0397   14.3483  -33.1401 H   0  0  0  0  0  0  0  0  0  0  0  0
   -6.8639   13.9900  -34.6954 H   0  0  0  0  0  0  0  0  0  0  0  0
   -5.2445   14.7673  -34.6954 H   0  0  0  0  0  0  0  0  0  0  0  0
   -6.7722   16.5352  -35.1301 H   0  0  0  0  0  0  0  0  0  0  0  0
   -7.9222   15.9320  -33.8558 H   0  0  0  0  0  0  0  0  0  0  0  0
   -5.1243   16.8040  -31.4170 H   0  0  0  0  0  0  0  0  0  0  0  0
   -5.1111   15.3478  -32.4943 H   0  0  0  0  0  0  0  0  0  0  0  0
   -3.0935   17.1942  -32.3219 H   0  0  0  0  0  0  0  0  0  0  0  0
   -3.4035   16.1198  -33.7276 H   0  0  0  0  0  0  0  0  0  0  0  0
   -4.0318   17.8026  -33.7276 H   0  0  0  0  0  0  0  0  0  0  0  0
   -8.2976   17.6104  -31.4888 H   0  0  0  0  0  0  0  0  0  0  0  0
   -9.0668   19.9128  -30.9698 H   0  0  0  0  0  0  0  0  0  0  0  0
   -8.0781   22.7574  -32.9679 H   0  0  0  0  0  0  0  0  0  0  0  0
   -8.9531   22.1926  -31.4469 H   0  0  0  0  0  0  0  0  0  0  0  0
   -7.1373   23.6430  -29.2259 H   0  0  0  0  0  0  0  0  0  0  0  0
   -7.9810   22.0881  -29.5377 H   0  0  0  0  0  0  0  0  0  0  0  0
   -6.1859   22.1516  -29.5377 H   0  0  0  0  0  0  0  0  0  0  0  0
   -5.7585   22.6347  -32.6702 H   0  0  0  0  0  0  0  0  0  0  0  0
   -5.9453   24.3686  -32.0699 H   0  0  0  0  0  0  0  0  0  0  0  0
   -4.7108   21.0144  -31.0391 H   0  0  0  0  0  0  0  0  0  0  0  0
   -2.6799   20.8015  -29.6279 H   0  0  0  0  0  0  0  0  0  0  0  0
   -1.5424   22.8405  -28.7766 H   0  0  0  0  0  0  0  0  0  0  0  0
   -2.4533   25.3061  -27.1868 H   0  0  0  0  0  0  0  0  0  0  0  0
   -1.1050   24.3347  -27.8687 H   0  0  0  0  0  0  0  0  0  0  0  0
   -1.0092   26.1284  -27.8687 H   0  0  0  0  0  0  0  0  0  0  0  0
   -5.6381   26.0186  -29.1026 H   0  0  0  0  0  0  0  0  0  0  0  0
   -5.9298   27.0883  -30.5158 H   0  0  0  0  0  0  0  0  0  0  0  0
   -6.5633   25.4075  -30.5158 H   0  0  0  0  0  0  0  0  0  0  0  0
   -6.0540   21.4384  -33.6173 H   0  0  0  0  0  0  0  0  0  0  0  0
  1  2  1  0
  2  3  1  0
  3  4  1  0
  4  5  1  0
  3  6  1  0
  6  7  2  0
  7  8  1  0
  8  9  2  0
  9 10  1  0
 10 11  1  0
 11 12  1  0
 11 13  1  0
 13 14  1  0
 14 15  2  0
 15 16  1  0
 16 17  2  0
 17 18  1  0
 18 19  1  0
 19 20  1  0
 18 21  2  0
 21 22  1  0
 22 23  1  0
  9 24  1  0
 24 25  2  0
 25  6  1  0
 21 14  1  0
  1 26  1  0
  1 27  1  0
  1 28  1  0
  2 29  1  0
  2 30  1  0
  4 31  1  0
  4 32  1  0
  5 33  1  0
  5 34  1  0
  5 35  1  0
  7 36  1  0
  8 37  1  0
 10 38  1  0
 10 39  1  0
 12 40  1  0
 12 41  1  0
 12 42  1  0
 13 43  1  0
 13 44  1  0
 15 45  1  0
 16 46  1  0
 17 47  1  0
 20 48  1  0
 20 49  1  0
 20 50  1  0
 23 51  1  0
 23 52  1  0
 23 53  1  0
 24 54  1  0
M  END
>  <smiles>  (14) 
CCN(CC)c1ccc(CN(C)Cc2cccc(OC)c2OC)cn1

>  <score_type>  (14) 
oracle

>  <origin>  (14) 
adg

>  <m_score__min__energy>  (14) 
-8.3499999999999996

>  <m_primary>  (14) 
energy

$$$$
14:0
     RDKit          3D

 60 62  0  0  0  0  0  0  0  0999 V2000
   -1.3300   21.9830  -30.5660 C   0  0  0  0  0  0  0  0  0  0  0  0
   -1.4520   22.9330  -29.4200 C   0  0  0  0  0  0  0  0  0  0  0  0
   -2.8120   22.8120  -28.7940 N   0  0  0  0  0  0  0  0  0  0  0  0
   -2.9090   21.4700  -28.3290 C   0  0  0  0  0  0  0  0  0  0  0  0
   -2.0470   21.0890  -27.1920 C   0  0  0  0  0  0  0  0  0  0  0  0
   -2.8700   23.8440  -27.7780 C   0  0  0  0  0  0  0  0  0  0  0  0
   -4.1830   24.5050  -27.7100 C   0  0  0  0  0  0  0  0  0  0  0  0
   -5.1270   23.9860  -28.6160 O   0  0  0  0  0  0  0  0  0  0  0  0
   -5.7270   24.9620  -29.4000 C   0  0  0  0  0  0  0  0  0  0  0  0
   -5.5940   24.4830  -30.8370 C   0  0  0  0  0  0  0  0  0  0  0  0
   -4.9420   23.1810  -30.8060 N   0  0  0  0  0  0  0  0  0  0  0  0
   -5.2620   22.1200  -31.6800 C   0  0  0  0  0  0  0  0  0  0  0  0
   -4.3240   21.5690  -32.5220 C   0  0  0  0  0  0  0  0  0  0  0  0
   -4.6440   20.5480  -33.4030 C   0  0  0  0  0  0  0  0  0  0  0  0
   -5.9010   20.0340  -33.4850 N   0  0  0  0  0  0  0  0  0  0  0  0
   -6.1080   18.9950  -34.4610 C   0  0  0  0  0  0  0  0  0  0  0  0
   -5.5310   17.6890  -34.0910 C   0  0  0  0  0  0  0  0  0  0  0  0
   -5.9020   16.9400  -33.0030 C   0  0  0  0  0  0  0  0  0  0  0  0
   -5.3160   15.7040  -32.7120 C   0  0  0  0  0  0  0  0  0  0  0  0
   -4.3330   15.1990  -33.5280 C   0  0  0  0  0  0  0  0  0  0  0  0
   -3.9420   15.9310  -34.6270 C   0  0  0  0  0  0  0  0  0  0  0  0
   -4.5310   17.1470  -34.8970 C   0  0  0  0  0  0  0  0  0  0  0  0
   -6.8160   20.5500  -32.6820 C   0  0  0  0  0  0  0  0  0  0  0  0
   -8.0970   20.0460  -32.7350 C   0  0  0  0  0  0  0  0  0  0  0  0
   -9.1260   20.5160  -31.9280 C   0  0  0  0  0  0  0  0  0  0  0  0
   -8.8450   21.5270  -31.0440 C   0  0  0  0  0  0  0  0  0  0  0  0
   -7.5530   22.0420  -30.9850 C   0  0  0  0  0  0  0  0  0  0  0  0
   -6.5480   21.5780  -31.7770 C   0  0  0  0  0  0  0  0  0  0  0  0
   -1.1987   20.9605  -30.1823 H   0  0  0  0  0  0  0  0  0  0  0  0
   -2.2416   22.0300  -31.1799 H   0  0  0  0  0  0  0  0  0  0  0  0
   -0.4599   22.2588  -31.1799 H   0  0  0  0  0  0  0  0  0  0  0  0
   -0.6833   22.6983  -28.6690 H   0  0  0  0  0  0  0  0  0  0  0  0
   -1.3140   23.9607  -29.7871 H   0  0  0  0  0  0  0  0  0  0  0  0
   -3.9525   21.2987  -28.0259 H   0  0  0  0  0  0  0  0  0  0  0  0
   -2.5619   20.8513  -29.1697 H   0  0  0  0  0  0  0  0  0  0  0  0
   -2.5633   21.3172  -26.2479 H   0  0  0  0  0  0  0  0  0  0  0  0
   -1.8309   20.0115  -27.2406 H   0  0  0  0  0  0  0  0  0  0  0  0
   -1.1047   21.6545  -27.2406 H   0  0  0  0  0  0  0  0  0  0  0  0
   -2.6556   23.3872  -26.8006 H   0  0  0  0  0  0  0  0  0  0  0  0
   -2.1268   24.6107  -28.0423 H   0  0  0  0  0  0  0  0  0  0  0  0
   -4.5788   24.3864  -26.6906 H   0  0  0  0  0  0  0  0  0  0  0  0
   -4.0255   25.5597  -27.9799 H   0  0  0  0  0  0  0  0  0  0  0  0
   -6.7877   25.0711  -29.1298 H   0  0  0  0  0  0  0  0  0  0  0  0
   -5.2520   25.9437  -29.2562 H   0  0  0  0  0  0  0  0  0  0  0  0
   -6.5893   24.3937  -31.2967 H   0  0  0  0  0  0  0  0  0  0  0  0
   -5.0046   25.1974  -31.4305 H   0  0  0  0  0  0  0  0  0  0  0  0
   -4.1970   23.0940  -30.0590 H   0  0  0  0  0  0  0  0  0  0  0  0
   -3.2921   21.9490  -32.4954 H   0  0  0  0  0  0  0  0  0  0  0  0
   -3.8578   20.1409  -34.0557 H   0  0  0  0  0  0  0  0  0  0  0  0
   -7.1913   18.8654  -34.6013 H   0  0  0  0  0  0  0  0  0  0  0  0
   -5.5930   19.3178  -35.3778 H   0  0  0  0  0  0  0  0  0  0  0  0
   -6.6877   17.3251  -32.3364 H   0  0  0  0  0  0  0  0  0  0  0  0
   -5.6426   15.1355  -31.8287 H   0  0  0  0  0  0  0  0  0  0  0  0
   -3.8666   14.2275  -33.3075 H   0  0  0  0  0  0  0  0  0  0  0  0
   -3.1562   15.5433  -35.2920 H   0  0  0  0  0  0  0  0  0  0  0  0
   -4.1999   17.7111  -35.7814 H   0  0  0  0  0  0  0  0  0  0  0  0
   -8.3148   19.2363  -33.4471 H   0  0  0  0  0  0  0  0  0  0  0  0
  -10.1376   20.0894  -31.9960 H   0  0  0  0  0  0  0  0  0  0  0  0
   -9.6328   21.9266  -30.3884 H   0  0  0  0  0  0  0  0  0  0  0  0
   -7.3367   22.8524  -30.2733 H   0  0  0  0  0  0  0  0  0  0  0  0
  1  2  1  0
  2  3  1  0
  3  4  1  0
  4  5  1  0
  3  6  1  0
  6  7  1  0
  7  8  1  0
  8  9  1  0
  9 10  1  0
 10 11  1  0
 11 12  1  0
 12 13  2  0
 13 14  1  0
 14 15  2  0
 15 16  1  0
 16 17  1  0
 17 18  2  0
 18 19  1  0
 19 20  2  0
 20 21  1  0
 21 22  2  0
 15 23  1  0
 23 24  2  0
 24 25  1  0
 25 26  2  0
 26 27  1  0
 27 28  2  0
 28 12  1  0
 22 17  1  0
 28 23  1  0
  1 29  1  0
  1 30  1  0
  1 31  1  0
  2 32  1  0
  2 33  1  0
  4 34  1  0
  4 35  1  0
  5 36  1  0
  5 37  1  0
  5 38  1  0
  6 39  1  0
  6 40  1  0
  7 41  1  0
  7 42  1  0
  9 43  1  0
  9 44  1  0
 10 45  1  0
 10 46  1  0
 11 47  1  0
 13 48  1  0
 14 49  1  0
 16 50  1  0
 16 51  1  0
 18 52  1  0
 19 53  1  0
 20 54  1  0
 21 55  1  0
 22 56  1  0
 24 57  1  0
 25 58  1  0
 26 59  1  0
 27 60  1  0
M  CHG  1  15   1
M  END
>  <smiles>  (15) 
CCN(CC)CCOCCNc1cc[n+](Cc2ccccc2)c2ccccc12

>  <score_type>  (15) 
oracle

>  <origin>  (15) 
adg

>  <m_score__min__energy>  (15) 
-7.9699999999999998

>  <m_primary>  (15) 
energy

$$$$
15:0
     RDKit          3D

 60 64  0  0  1  0  0  0  0  0999 V2000
   -2.2680   25.2760  -26.5530 C   0  0  0  0  0  0  0  0  0  0  0  0
   -1.3360   25.6160  -27.6890 C   0  0  0  0  0  0  0  0  0  0  0  0
   -1.9740   25.6110  -28.9450 O   0  0  0  0  0  0  0  0  0  0  0  0
   -2.6780   24.5610  -29.4870 C   0  0  0  0  0  0  0  0  0  0  0  0
   -4.0720   24.6320  -29.3960 C   0  0  0  0  0  0  0  0  0  0  0  0
   -4.8750   23.6240  -29.9120 C   0  0  0  0  0  0  0  0  0  0  0  0
   -4.3100   22.5260  -30.5270 C   0  0  0  0  0  0  0  0  0  0  0  0
   -2.9430   22.4650  -30.6110 C   0  0  0  0  0  0  0  0  0  0  0  0
   -2.1260   23.4700  -30.0980 C   0  0  0  0  0  0  0  0  0  0  0  0
   -2.2950   21.2880  -31.2720 C   0  0  0  0  0  0  0  0  0  0  0  0
   -3.2790   20.8720  -32.3700 C   0  0  0  0  0  0  0  0  0  0  0  0
   -4.5160   20.4480  -31.7690 N   0  0  0  0  0  0  0  0  0  0  0  0
   -5.3520   19.7700  -32.7300 C   0  0  0  0  0  0  0  0  0  0  0  0
   -6.7770   19.8200  -32.2510 C   0  0  1  0  0  0  0  0  0  0  0  0
   -7.2700   21.2460  -32.3550 C   0  0  1  0  0  0  0  0  0  0  0  0
   -8.3720   21.3800  -31.3020 C   0  0  0  0  0  0  0  0  0  0  0  0
   -9.1130   20.0380  -31.3250 C   0  0  0  0  0  0  0  0  0  0  0  0
   -9.0140   19.4710  -32.7490 C   0  0  0  0  0  0  0  0  0  0  0  0
   -7.6830   19.0010  -33.0260 N   0  0  0  0  0  0  0  0  0  0  0  0
   -7.5380   17.6100  -32.7860 C   0  0  0  0  0  0  0  0  0  0  0  0
   -6.2730   17.0560  -33.3010 C   0  0  0  0  0  0  0  0  0  0  0  0
   -5.8140   17.2170  -34.5880 C   0  0  0  0  0  0  0  0  0  0  0  0
   -4.5910   16.6650  -34.9750 C   0  0  0  0  0  0  0  0  0  0  0  0
   -3.8060   15.9460  -34.0990 C   0  0  0  0  0  0  0  0  0  0  0  0
   -4.2820   15.7940  -32.8150 C   0  0  0  0  0  0  0  0  0  0  0  0
   -5.4920   16.3300  -32.3960 C   0  0  0  0  0  0  0  0  0  0  0  0
   -6.1250   22.1890  -32.0450 C   0  0  0  0  0  0  0  0  0  0  0  0
   -5.2200   21.4810  -31.0590 C   0  0  2  0  0  0  0  0  0  0  0  0
   -1.7607   25.4611  -25.5946 H   0  0  0  0  0  0  0  0  0  0  0  0
   -3.1693   25.9032  -26.6179 H   0  0  0  0  0  0  0  0  0  0  0  0
   -2.5537   24.2157  -26.6179 H   0  0  0  0  0  0  0  0  0  0  0  0
   -0.9186   26.6182  -27.5119 H   0  0  0  0  0  0  0  0  0  0  0  0
   -0.5532   24.8436  -27.7146 H   0  0  0  0  0  0  0  0  0  0  0  0
   -4.5392   25.5001  -28.9080 H   0  0  0  0  0  0  0  0  0  0  0  0
   -5.9692   23.7013  -29.8299 H   0  0  0  0  0  0  0  0  0  0  0  0
   -1.0327   23.3853  -30.1850 H   0  0  0  0  0  0  0  0  0  0  0  0
   -1.3252   21.5719  -31.7067 H   0  0  0  0  0  0  0  0  0  0  0  0
   -2.0906   20.4717  -30.5636 H   0  0  0  0  0  0  0  0  0  0  0  0
   -3.4687   21.7269  -33.0357 H   0  0  0  0  0  0  0  0  0  0  0  0
   -2.8505   20.0427  -32.9519 H   0  0  0  0  0  0  0  0  0  0  0  0
   -5.2723   20.2691  -33.7070 H   0  0  0  0  0  0  0  0  0  0  0  0
   -5.0288   18.7238  -32.8352 H   0  0  0  0  0  0  0  0  0  0  0  0
   -6.7714   19.4364  -31.2201 H   0  0  0  0  0  0  0  0  0  0  0  0
   -7.6474   21.4893  -33.3592 H   0  0  0  0  0  0  0  0  0  0  0  0
   -7.9365   21.5635  -30.3087 H   0  0  0  0  0  0  0  0  0  0  0  0
   -9.0437   22.2249  -31.5141 H   0  0  0  0  0  0  0  0  0  0  0  0
   -8.6479   19.3415  -30.6118 H   0  0  0  0  0  0  0  0  0  0  0  0
  -10.1661   20.1758  -31.0388 H   0  0  0  0  0  0  0  0  0  0  0  0
   -9.7198   18.6337  -32.8525 H   0  0  0  0  0  0  0  0  0  0  0  0
   -9.2582   20.2718  -33.4625 H   0  0  0  0  0  0  0  0  0  0  0  0
   -7.5779   17.4374  -31.7003 H   0  0  0  0  0  0  0  0  0  0  0  0
   -8.3556   17.1017  -33.3180 H   0  0  0  0  0  0  0  0  0  0  0  0
   -6.4135   17.7834  -35.3159 H   0  0  0  0  0  0  0  0  0  0  0  0
   -4.2439   16.8081  -36.0089 H   0  0  0  0  0  0  0  0  0  0  0  0
   -2.8438   15.5135  -34.4108 H   0  0  0  0  0  0  0  0  0  0  0  0
   -3.6787   15.2248  -32.0925 H   0  0  0  0  0  0  0  0  0  0  0  0
   -5.8338   16.1849  -31.3606 H   0  0  0  0  0  0  0  0  0  0  0  0
   -5.5700   22.4240  -32.9652 H   0  0  0  0  0  0  0  0  0  0  0  0
   -6.4990   23.1341  -31.6245 H   0  0  0  0  0  0  0  0  0  0  0  0
   -5.7548   21.0012  -30.2260 H   0  0  0  0  0  0  0  0  0  0  0  0
  1  2  1  0
  2  3  1  0
  3  4  1  0
  4  5  2  0
  5  6  1  0
  6  7  2  0
  7  8  1  0
  8  9  2  0
  8 10  1  0
 10 11  1  0
 11 12  1  0
 12 13  1  0
 13 14  1  0
 14 15  1  0
 15 16  1  0
 16 17  1  0
 17 18  1  0
 18 19  1  0
 19 20  1  0
 20 21  1  0
 21 22  2  0
 22 23  1  0
 23 24  2  0
 24 25  1  0
 25 26  2  0
 15 27  1  0
 27 28  1  0
  9  4  1  0
 28 12  1  0
 28  7  1  0
 19 14  1  0
 26 21  1  0
  1 29  1  0
  1 30  1  0
  1 31  1  0
  2 32  1  0
  2 33  1  0
  5 34  1  0
  6 35  1  0
  9 36  1  0
 10 37  1  0
 10 38  1  0
 11 39  1  0
 11 40  1  0
 13 41  1  0
 13 42  1  0
 14 43  1  1
 15 44  1  6
 16 45  1  0
 16 46  1  0
 17 47  1  0
 17 48  1  0
 18 49  1  0
 18 50  1  0
 20 51  1  0
 20 52  1  0
 22 53  1  0
 23 54  1  0
 24 55  1  0
 25 56  1  0
 26 57  1  0
 27 58  1  0
 27 59  1  0
 28 60  1  1
M  END
>  <smiles>  (16) 
CCOc1ccc2c(c1)CCN1CC3C(CCCN3Cc3ccccc3)CC21

>  <score_type>  (16) 
oracle

>  <origin>  (16) 
adg

>  <m_score__min__energy>  (16) 
-10.26

>  <m_primary>  (16) 
energy

$$$$
16:0
     RDKit          3D

 81 85  0  0  0  0  0  0  0  0999 V2000
   -6.9720   15.4610  -34.3960 C   0  0  0  0  0  0  0  0  0  0  0  0
   -6.1320   16.7100  -34.6030 C   0  0  0  0  0  0  0  0  0  0  0  0
   -4.7490   16.4790  -34.2630 N   0  0  0  0  0  0  0  0  0  0  0  0
   -3.9360   17.4300  -34.9800 C   0  0  0  0  0  0  0  0  0  0  0  0
   -2.7230   17.8580  -34.2000 C   0  0  0  0  0  0  0  0  0  0  0  0
   -4.5640   16.5940  -32.8190 C   0  0  0  0  0  0  0  0  0  0  0  0
   -5.5640   17.5460  -32.2270 C   0  0  0  0  0  0  0  0  0  0  0  0
   -5.4500   18.8650  -32.7970 N   0  0  0  0  0  0  0  0  0  0  0  0
   -5.9050   20.0510  -32.2150 C   0  0  0  0  0  0  0  0  0  0  0  0
   -7.1970   20.5090  -32.1700 C   0  0  0  0  0  0  0  0  0  0  0  0
   -8.1700   19.6900  -32.7040 C   0  0  0  0  0  0  0  0  0  0  0  0
   -9.4960   20.0590  -32.6930 C   0  0  0  0  0  0  0  0  0  0  0  0
   -9.8220   21.2660  -32.1340 C   0  0  0  0  0  0  0  0  0  0  0  0
   -8.8310   22.0970  -31.5910 C   0  0  0  0  0  0  0  0  0  0  0  0
   -7.4990   21.7320  -31.5990 C   0  0  0  0  0  0  0  0  0  0  0  0
   -6.5860   22.5530  -31.0560 N   0  0  0  0  0  0  0  0  0  0  0  0
   -6.8570   23.8190  -30.4670 C   0  0  0  0  0  0  0  0  0  0  0  0
   -5.3010   22.1160  -31.0890 C   0  0  0  0  0  0  0  0  0  0  0  0
   -4.9450   20.8970  -31.6500 C   0  0  0  0  0  0  0  0  0  0  0  0
   -3.6320   20.7290  -31.5450 O   0  0  0  0  0  0  0  0  0  0  0  0
   -3.0740   21.7530  -30.9490 C   0  0  0  0  0  0  0  0  0  0  0  0
   -1.7520   21.9910  -30.6370 C   0  0  0  0  0  0  0  0  0  0  0  0
   -1.4200   23.1810  -29.9890 C   0  0  0  0  0  0  0  0  0  0  0  0
   -2.4230   24.0780  -29.6840 C   0  0  0  0  0  0  0  0  0  0  0  0
   -2.0970   25.2820  -29.0310 O   0  0  0  0  0  0  0  0  0  0  0  0
   -1.9840   25.2470  -27.6200 C   0  0  0  0  0  0  0  0  0  0  0  0
   -0.7500   24.5500  -27.1680 C   0  0  0  0  0  0  0  0  0  0  0  0
    0.3020   25.3850  -26.6450 N   0  0  0  0  0  0  0  0  0  0  0  0
    1.5520   25.1410  -27.2910 C   0  0  0  0  0  0  0  0  0  0  0  0
   -0.1760   26.7420  -26.8050 C   0  0  0  0  0  0  0  0  0  0  0  0
    0.2130   27.7110  -25.7640 C   0  0  0  0  0  0  0  0  0  0  0  0
   -0.7820   27.8520  -24.6390 C   0  0  0  0  0  0  0  0  0  0  0  0
   -0.7890   26.6860  -23.7070 C   0  0  0  0  0  0  0  0  0  0  0  0
   -0.7990   25.3470  -24.4250 C   0  0  0  0  0  0  0  0  0  0  0  0
    0.4230   25.1070  -25.2450 C   0  0  0  0  0  0  0  0  0  0  0  0
   -3.7320   23.8030  -30.0130 C   0  0  0  0  0  0  0  0  0  0  0  0
   -4.0910   22.6420  -30.6490 C   0  0  0  0  0  0  0  0  0  0  0  0
   -7.0959   15.2768  -33.3186 H   0  0  0  0  0  0  0  0  0  0  0  0
   -7.9594   15.6022  -34.8598 H   0  0  0  0  0  0  0  0  0  0  0  0
   -6.4689   14.5997  -34.8598 H   0  0  0  0  0  0  0  0  0  0  0  0
   -6.1949   17.0122  -35.6588 H   0  0  0  0  0  0  0  0  0  0  0  0
   -6.5217   17.5011  -33.9455 H   0  0  0  0  0  0  0  0  0  0  0  0
   -3.6045   16.9701  -35.9227 H   0  0  0  0  0  0  0  0  0  0  0  0
   -4.5499   18.3250  -35.1592 H   0  0  0  0  0  0  0  0  0  0  0  0
   -2.9344   17.7834  -33.1231 H   0  0  0  0  0  0  0  0  0  0  0  0
   -1.8749   17.2048  -34.4533 H   0  0  0  0  0  0  0  0  0  0  0  0
   -2.4726   18.8988  -34.4533 H   0  0  0  0  0  0  0  0  0  0  0  0
   -4.6931   15.6032  -32.3589 H   0  0  0  0  0  0  0  0  0  0  0  0
   -3.5522   16.9785  -32.6228 H   0  0  0  0  0  0  0  0  0  0  0  0
   -6.5771   17.1621  -32.4175 H   0  0  0  0  0  0  0  0  0  0  0  0
   -5.3664   17.6218  -31.1476 H   0  0  0  0  0  0  0  0  0  0  0  0
   -4.9740   18.9560  -33.7480 H   0  0  0  0  0  0  0  0  0  0  0  0
   -7.8812   18.7252  -33.1463 H   0  0  0  0  0  0  0  0  0  0  0  0
  -10.2701   19.4045  -33.1201 H   0  0  0  0  0  0  0  0  0  0  0  0
  -10.8737   21.5876  -32.1106 H   0  0  0  0  0  0  0  0  0  0  0  0
   -9.1213   23.0614  -31.1487 H   0  0  0  0  0  0  0  0  0  0  0  0
   -6.8370   23.7254  -29.3712 H   0  0  0  0  0  0  0  0  0  0  0  0
   -6.0936   24.5433  -30.7872 H   0  0  0  0  0  0  0  0  0  0  0  0
   -7.8501   24.1673  -30.7872 H   0  0  0  0  0  0  0  0  0  0  0  0
   -0.9743   21.2568  -30.8941 H   0  0  0  0  0  0  0  0  0  0  0  0
   -0.3749   23.4007  -29.7253 H   0  0  0  0  0  0  0  0  0  0  0  0
   -1.9656   26.2795  -27.2412 H   0  0  0  0  0  0  0  0  0  0  0  0
   -2.8474   24.6896  -27.2277 H   0  0  0  0  0  0  0  0  0  0  0  0
   -1.0369   23.8393  -26.3789 H   0  0  0  0  0  0  0  0  0  0  0  0
   -0.3307   24.0826  -28.0711 H   0  0  0  0  0  0  0  0  0  0  0  0
    2.3334   24.9885  -26.5320 H   0  0  0  0  0  0  0  0  0  0  0  0
    1.4707   24.2418  -27.9193 H   0  0  0  0  0  0  0  0  0  0  0  0
    1.8148   26.0048  -27.9193 H   0  0  0  0  0  0  0  0  0  0  0  0
    0.2031   27.1171  -27.7671 H   0  0  0  0  0  0  0  0  0  0  0  0
   -1.2716   26.6711  -26.7372 H   0  0  0  0  0  0  0  0  0  0  0  0
    1.1732   27.3881  -25.3353 H   0  0  0  0  0  0  0  0  0  0  0  0
    0.2709   28.6931  -26.2560 H   0  0  0  0  0  0  0  0  0  0  0  0
   -0.5336   28.7566  -24.0645 H   0  0  0  0  0  0  0  0  0  0  0  0
   -1.7818   27.9113  -25.0940 H   0  0  0  0  0  0  0  0  0  0  0  0
    0.1102   26.7376  -23.0755 H   0  0  0  0  0  0  0  0  0  0  0  0
   -1.7136   26.7464  -23.1142 H   0  0  0  0  0  0  0  0  0  0  0  0
   -0.8768   24.5483  -23.6727 H   0  0  0  0  0  0  0  0  0  0  0  0
   -1.6567   25.3536  -25.1137 H   0  0  0  0  0  0  0  0  0  0  0  0
    1.2277   25.7407  -24.8440 H   0  0  0  0  0  0  0  0  0  0  0  0
    0.6229   24.0278  -25.1722 H   0  0  0  0  0  0  0  0  0  0  0  0
   -4.5120   24.5357  -29.7583 H   0  0  0  0  0  0  0  0  0  0  0  0
  1  2  1  0
  2  3  1  0
  3  4  1  0
  4  5  1  0
  3  6  1  0
  6  7  1  0
  7  8  1  0
  8  9  1  0
  9 10  2  0
 10 11  1  0
 11 12  2  0
 12 13  1  0
 13 14  2  0
 14 15  1  0
 15 16  2  0
 16 17  1  0
 16 18  1  0
 18 19  2  0
 19 20  1  0
 20 21  1  0
 21 22  2  0
 22 23  1  0
 23 24  2  0
 24 25  1  0
 25 26  1  0
 26 27  1  0
 27 28  1  0
 28 29  1  0
 28 30  1  0
 30 31  1  0
 31 32  1  0
 32 33  1  0
 33 34  1  0
 34 35  1  0
 24 36  1  0
 36 37  2  0
 19  9  1  0
 37 21  1  0
 15 10  1  0
 37 18  1  0
 35 28  1  0
  1 38  1  0
  1 39  1  0
  1 40  1  0
  2 41  1  0
  2 42  1  0
  4 43  1  0
  4 44  1  0
  5 45  1  0
  5 46  1  0
  5 47  1  0
  6 48  1  0
  6 49  1  0
  7 50  1  0
  7 51  1  0
  8 52  1  0
 11 53  1  0
 12 54  1  0
 13 55  1  0
 14 56  1  0
 17 57  1  0
 17 58  1  0
 17 59  1  0
 22 60  1  0
 23 61  1  0
 26 62  1  0
 26 63  1  0
 27 64  1  0
 27 65  1  0
 29 66  1  0
 29 67  1  0
 29 68  1  0
 30 69  1  0
 30 70  1  0
 31 71  1  0
 31 72  1  0
 32 73  1  0
 32 74  1  0
 33 75  1  0
 33 76  1  0
 34 77  1  0
 34 78  1  0
 35 79  1  0
 35 80  1  0
 36 81  1  0
M  CHG  2  16   1  28   1
M  END
>  <smiles>  (17) 
CCN(CC)CCNc1c2ccccc2[n+](C)c2c1oc1ccc(OCC[N+]3(C)CCCCCC3)cc12

>  <score_type>  (17) 
oracle

>  <origin>  (17) 
adg

>  <m_score__min__energy>  (17) 
-6.7199999999999998

>  <m_primary>  (17) 
energy

$$$$
17:0
     RDKit          3D

 36 37  0  0  0  0  0  0  0  0999 V2000
   -6.1300   25.3360  -29.8140 C   0  0  0  0  0  0  0  0  0  0  0  0
   -5.1450   24.7010  -30.7910 C   0  0  0  0  0  0  0  0  0  0  0  0
   -3.8620   25.1940  -30.4920 O   0  0  0  0  0  0  0  0  0  0  0  0
   -3.1000   24.5510  -29.5250 C   0  0  0  0  0  0  0  0  0  0  0  0
   -1.9410   25.0120  -29.3200 O   0  0  0  0  0  0  0  0  0  0  0  0
   -3.6120   23.3730  -28.7570 C   0  0  0  0  0  0  0  0  0  0  0  0
   -3.0500   22.1290  -29.3940 C   0  0  0  0  0  0  0  0  0  0  0  0
   -3.6210   21.7880  -30.6590 N   0  0  0  0  0  0  0  0  0  0  0  0
   -4.9130   21.5570  -30.8660 N   0  0  0  0  0  0  0  0  0  0  0  0
   -5.4190   21.2370  -32.0710 C   0  0  0  0  0  0  0  0  0  0  0  0
   -6.8560   21.0080  -32.1660 C   0  0  0  0  0  0  0  0  0  0  0  0
   -7.7070   22.0280  -31.7770 C   0  0  0  0  0  0  0  0  0  0  0  0
   -9.0920   21.8560  -31.8490 C   0  0  0  0  0  0  0  0  0  0  0  0
   -9.6370   20.6680  -32.3090 C   0  0  0  0  0  0  0  0  0  0  0  0
   -8.7790   19.6580  -32.6950 C   0  0  0  0  0  0  0  0  0  0  0  0
   -7.4150   19.8520  -32.6150 C   0  0  0  0  0  0  0  0  0  0  0  0
   -4.5700   21.1450  -33.1340 C   0  0  0  0  0  0  0  0  0  0  0  0
   -3.2200   21.3730  -32.9860 C   0  0  0  0  0  0  0  0  0  0  0  0
   -2.7680   21.6970  -31.7190 C   0  0  0  0  0  0  0  0  0  0  0  0
   -1.5400   21.9080  -31.5660 O   0  0  0  0  0  0  0  0  0  0  0  0
   -5.8086   25.1288  -28.7826 H   0  0  0  0  0  0  0  0  0  0  0  0
   -6.1591   26.4234  -29.9775 H   0  0  0  0  0  0  0  0  0  0  0  0
   -7.1324   24.9136  -29.9775 H   0  0  0  0  0  0  0  0  0  0  0  0
   -5.1605   23.6068  -30.6793 H   0  0  0  0  0  0  0  0  0  0  0  0
   -5.4191   24.9486  -31.8271 H   0  0  0  0  0  0  0  0  0  0  0  0
   -3.2837   23.4380  -27.7092 H   0  0  0  0  0  0  0  0  0  0  0  0
   -4.7116   23.3509  -28.7749 H   0  0  0  0  0  0  0  0  0  0  0  0
   -1.9692   22.2766  -29.5360 H   0  0  0  0  0  0  0  0  0  0  0  0
   -3.2915   21.2990  -28.7137 H   0  0  0  0  0  0  0  0  0  0  0  0
   -7.2914   22.9779  -31.4097 H   0  0  0  0  0  0  0  0  0  0  0  0
   -9.7578   22.6740  -31.5366 H   0  0  0  0  0  0  0  0  0  0  0  0
  -10.7272   20.5330  -32.3652 H   0  0  0  0  0  0  0  0  0  0  0  0
   -9.1806   18.7030  -33.0646 H   0  0  0  0  0  0  0  0  0  0  0  0
   -6.7493   19.0344  -32.9287 H   0  0  0  0  0  0  0  0  0  0  0  0
   -4.9697   20.8846  -34.1252 H   0  0  0  0  0  0  0  0  0  0  0  0
   -2.5298   21.3006  -33.8394 H   0  0  0  0  0  0  0  0  0  0  0  0
  1  2  1  0
  2  3  1  0
  3  4  1  0
  4  5  2  0
  4  6  1  0
  6  7  1  0
  7  8  1  0
  8  9  1  0
  9 10  2  0
 10 11  1  0
 11 12  2  0
 12 13  1  0
 13 14  2  0
 14 15  1  0
 15 16  2  0
 10 17  1  0
 17 18  2  0
 18 19  1  0
 19 20  2  0
 19  8  1  0
 16 11  1  0
  1 21  1  0
  1 22  1  0
  1 23  1  0
  2 24  1  0
  2 25  1  0
  6 26  1  0
  6 27  1  0
  7 28  1  0
  7 29  1  0
 12 30  1  0
 13 31  1  0
 14 32  1  0
 15 33  1  0
 16 34  1  0
 17 35  1  0
 18 36  1  0
M  END
>  <smiles>  (18) 
CCOC(=O)CCn1nc(-c2ccccc2)ccc1=O

>  <score_type>  (18) 
oracle

>  <origin>  (18) 
adg

>  <m_score__min__energy>  (18) 
-8.2400000000000002

>  <m_primary>  (18) 
energy

$$$$
19:0
     RDKit          3D

 46 48  0  0  0  0  0  0  0  0999 V2000
   -3.3890   21.4300  -31.6270 C   0  0  0  0  0  0  0  0  0  0  0  0
   -4.3700   22.1350  -32.5110 C   0  0  0  0  0  0  0  0  0  0  0  0
   -5.6180   22.4610  -31.8690 N   0  0  0  0  0  0  0  0  0  0  0  0
   -5.9170   23.5090  -31.0530 C   0  0  0  0  0  0  0  0  0  0  0  0
   -4.9270   24.5520  -30.6720 C   0  0  0  0  0  0  0  0  0  0  0  0
   -4.9870   24.8970  -29.2650 N   0  0  0  0  0  0  0  0  0  0  0  0
   -4.5570   23.7510  -28.4820 C   0  0  0  0  0  0  0  0  0  0  0  0
   -3.1580   23.9030  -27.9640 C   0  0  0  0  0  0  0  0  0  0  0  0
   -2.3380   24.6550  -28.8500 N   0  0  0  0  0  0  0  0  0  0  0  0
   -1.5250   23.8080  -29.7160 C   0  0  0  0  0  0  0  0  0  0  0  0
   -0.3560   23.2760  -28.8800 C   0  0  0  0  0  0  0  0  0  0  0  0
    0.3290   24.2590  -28.2100 O   0  0  0  0  0  0  0  0  0  0  0  0
   -0.4520   25.0990  -27.4310 C   0  0  0  0  0  0  0  0  0  0  0  0
   -1.5490   25.6950  -28.2880 C   0  0  0  0  0  0  0  0  0  0  0  0
   -7.2350   23.3790  -30.7020 C   0  0  0  0  0  0  0  0  0  0  0  0
   -7.7690   22.2530  -31.2910 C   0  0  0  0  0  0  0  0  0  0  0  0
   -8.9830   21.6110  -31.3170 C   0  0  0  0  0  0  0  0  0  0  0  0
   -9.2480   20.4630  -32.0060 C   0  0  0  0  0  0  0  0  0  0  0  0
   -8.2100   19.9080  -32.7340 C   0  0  0  0  0  0  0  0  0  0  0  0
   -6.9740   20.5280  -32.7280 C   0  0  0  0  0  0  0  0  0  0  0  0
   -6.7330   21.6990  -32.0160 C   0  0  0  0  0  0  0  0  0  0  0  0
   -3.6460   21.6147  -30.5735 H   0  0  0  0  0  0  0  0  0  0  0  0
   -3.4242   20.3493  -31.8289 H   0  0  0  0  0  0  0  0  0  0  0  0
   -2.3759   21.8079  -31.8289 H   0  0  0  0  0  0  0  0  0  0  0  0
   -3.9082   23.0698  -32.8615 H   0  0  0  0  0  0  0  0  0  0  0  0
   -4.6090   21.4427  -33.3318 H   0  0  0  0  0  0  0  0  0  0  0  0
   -3.9177   24.1783  -30.8994 H   0  0  0  0  0  0  0  0  0  0  0  0
   -5.1651   25.4598  -31.2458 H   0  0  0  0  0  0  0  0  0  0  0  0
   -4.3170   25.6610  -29.0940 H   0  0  0  0  0  0  0  0  0  0  0  0
   -5.2389   23.6317  -27.6271 H   0  0  0  0  0  0  0  0  0  0  0  0
   -4.5763   22.8698  -29.1401 H   0  0  0  0  0  0  0  0  0  0  0  0
   -3.1936   24.4164  -26.9918 H   0  0  0  0  0  0  0  0  0  0  0  0
   -2.7210   22.8980  -27.8689 H   0  0  0  0  0  0  0  0  0  0  0  0
   -2.1282   22.9692  -30.0936 H   0  0  0  0  0  0  0  0  0  0  0  0
   -1.1536   24.3812  -30.5782 H   0  0  0  0  0  0  0  0  0  0  0  0
   -0.7517   22.5624  -28.1423 H   0  0  0  0  0  0  0  0  0  0  0  0
    0.3527   22.8048  -29.5770 H   0  0  0  0  0  0  0  0  0  0  0  0
   -0.9000   24.5251  -26.6064 H   0  0  0  0  0  0  0  0  0  0  0  0
    0.1718   25.9044  -27.0160 H   0  0  0  0  0  0  0  0  0  0  0  0
   -2.1861   26.3425  -27.6677 H   0  0  0  0  0  0  0  0  0  0  0  0
   -1.0970   26.2867  -29.0977 H   0  0  0  0  0  0  0  0  0  0  0  0
   -7.7854   24.0706  -30.0473 H   0  0  0  0  0  0  0  0  0  0  0  0
   -9.8052   22.0565  -30.7378 H   0  0  0  0  0  0  0  0  0  0  0  0
  -10.2448   19.9984  -31.9836 H   0  0  0  0  0  0  0  0  0  0  0  0
   -8.3664   18.9844  -33.3107 H   0  0  0  0  0  0  0  0  0  0  0  0
   -6.1526   20.0798  -33.3063 H   0  0  0  0  0  0  0  0  0  0  0  0
  1  2  1  0
  2  3  1  0
  3  4  1  0
  4  5  1  0
  5  6  1  0
  6  7  1  0
  7  8  1  0
  8  9  1  0
  9 10  1  0
 10 11  1  0
 11 12  1  0
 12 13  1  0
 13 14  1  0
  4 15  2  0
 15 16  1  0
 16 17  2  0
 17 18  1  0
 18 19  2  0
 19 20  1  0
 20 21  2  0
 21  3  1  0
 14  9  1  0
 21 16  1  0
  1 22  1  0
  1 23  1  0
  1 24  1  0
  2 25  1  0
  2 26  1  0
  5 27  1  0
  5 28  1  0
  6 29  1  0
  7 30  1  0
  7 31  1  0
  8 32  1  0
  8 33  1  0
 10 34  1  0
 10 35  1  0
 11 36  1  0
 11 37  1  0
 13 38  1  0
 13 39  1  0
 14 40  1  0
 14 41  1  0
 15 42  1  0
 17 43  1  0
 18 44  1  0
 19 45  1  0
 20 46  1  0
M  END
>  <smiles>  (19) 
CCn1c(CNCCN2CCOCC2)cc2ccccc21

>  <score_type>  (19) 
oracle

>  <origin>  (19) 
adg

>  <m_score__min__energy>  (19) 
-7.7599999999999998

>  <m_primary>  (19) 
energy

$$$$
20:0
     RDKit          3D

 43 44  0  0  0  0  0  0  0  0999 V2000
   -5.5300   23.0510  -29.4670 C   0  0  0  0  0  0  0  0  0  0  0  0
   -5.8260   24.1480  -30.8220 S   0  0  0  0  0  0  0  0  0  0  0  0
   -6.9080   25.1430  -30.4630 O   0  0  0  0  0  0  0  0  0  0  0  0
   -4.5690   24.9740  -31.0360 O   0  0  0  0  0  0  0  0  0  0  0  0
   -6.2870   23.3490  -32.2640 N   0  0  0  0  0  0  0  0  0  0  0  0
   -6.9480   22.0930  -32.3270 C   0  0  0  0  0  0  0  0  0  0  0  0
   -8.1880   21.8400  -31.7930 C   0  0  0  0  0  0  0  0  0  0  0  0
   -8.7610   20.5750  -31.9400 C   0  0  0  0  0  0  0  0  0  0  0  0
   -8.0550   19.6120  -32.6240 C   0  0  0  0  0  0  0  0  0  0  0  0
   -6.8130   19.8140  -33.1760 C   0  0  0  0  0  0  0  0  0  0  0  0
   -6.0980   18.7910  -33.9180 C   0  0  0  0  0  0  0  0  0  0  0  0
   -6.1150   18.8160  -35.1640 O   0  0  0  0  0  0  0  0  0  0  0  0
   -5.3560   17.7330  -33.1570 C   0  0  0  0  0  0  0  0  0  0  0  0
   -3.9870   18.0450  -32.9600 N   0  0  0  0  0  0  0  0  0  0  0  0
   -3.4820   18.8800  -34.0080 C   0  0  0  0  0  0  0  0  0  0  0  0
   -2.0440   19.2580  -33.7190 C   0  0  0  0  0  0  0  0  0  0  0  0
   -2.1150   20.3550  -32.7010 C   0  0  0  0  0  0  0  0  0  0  0  0
   -1.1160   20.3770  -31.7300 C   0  0  0  0  0  0  0  0  0  0  0  0
   -1.0770   21.3350  -30.7300 C   0  0  0  0  0  0  0  0  0  0  0  0
   -2.0840   22.3060  -30.7120 C   0  0  0  0  0  0  0  0  0  0  0  0
   -2.0490   23.6280  -29.3340 Br  0  0  0  0  0  0  0  0  0  0  0  0
   -3.0880   22.2880  -31.6840 C   0  0  0  0  0  0  0  0  0  0  0  0
   -3.1010   21.3080  -32.6810 C   0  0  0  0  0  0  0  0  0  0  0  0
   -6.2680   21.0860  -33.0110 C   0  0  0  0  0  0  0  0  0  0  0  0
   -5.6756   23.5908  -28.5197 H   0  0  0  0  0  0  0  0  0  0  0  0
   -6.2322   22.2059  -29.5192 H   0  0  0  0  0  0  0  0  0  0  0  0
   -4.4980   22.6739  -29.5192 H   0  0  0  0  0  0  0  0  0  0  0  0
   -6.0790   23.7940  -33.1960 H   0  0  0  0  0  0  0  0  0  0  0  0
   -8.7277   22.6309  -31.2516 H   0  0  0  0  0  0  0  0  0  0  0  0
   -9.7529   20.3537  -31.5191 H   0  0  0  0  0  0  0  0  0  0  0  0
   -8.5136   18.6184  -32.7359 H   0  0  0  0  0  0  0  0  0  0  0  0
   -5.8322   17.6109  -32.1729 H   0  0  0  0  0  0  0  0  0  0  0  0
   -5.3990   16.8097  -33.7533 H   0  0  0  0  0  0  0  0  0  0  0  0
   -3.7060   18.3260  -32.0310 H   0  0  0  0  0  0  0  0  0  0  0  0
   -3.5313   18.3364  -34.9631 H   0  0  0  0  0  0  0  0  0  0  0  0
   -4.0914   19.7938  -34.0681 H   0  0  0  0  0  0  0  0  0  0  0  0
   -1.4932   18.3951  -33.3165 H   0  0  0  0  0  0  0  0  0  0  0  0
   -1.5159   19.5793  -34.6289 H   0  0  0  0  0  0  0  0  0  0  0  0
   -0.3310   19.6070  -31.7584 H   0  0  0  0  0  0  0  0  0  0  0  0
   -0.2787   21.3323  -29.9733 H   0  0  0  0  0  0  0  0  0  0  0  0
   -3.8773   23.0539  -31.6644 H   0  0  0  0  0  0  0  0  0  0  0  0
   -3.8948   21.3014  -33.4424 H   0  0  0  0  0  0  0  0  0  0  0  0
   -5.2747   21.3014  -33.4317 H   0  0  0  0  0  0  0  0  0  0  0  0
  1  2  1  0
  2  3  2  0
  2  4  2  0
  2  5  1  0
  5  6  1  0
  6  7  2  0
  7  8  1  0
  8  9  2  0
  9 10  1  0
 10 11  1  0
 11 12  2  0
 11 13  1  0
 13 14  1  0
 14 15  1  0
 15 16  1  0
 16 17  1  0
 17 18  2  0
 18 19  1  0
 19 20  2  0
 20 21  1  0
 20 22  1  0
 22 23  2  0
 10 24  2  0
 24  6  1  0
 23 17  1  0
  1 25  1  0
  1 26  1  0
  1 27  1  0
  5 28  1  0
  7 29  1  0
  8 30  1  0
  9 31  1  0
 13 32  1  0
 13 33  1  0
 14 34  1  0
 15 35  1  0
 15 36  1  0
 16 37  1  0
 16 38  1  0
 18 39  1  0
 19 40  1  0
 22 41  1  0
 23 42  1  0
 24 43  1  0
M  END
>  <smiles>  (20) 
CS(=O)(=O)Nc1cccc(C(=O)CNCCc2ccc(Br)cc2)c1

>  <score_type>  (20) 
oracle

>  <origin>  (20) 
adg

>  <m_score__min__energy>  (20) 
-9.5

>  <m_primary>  (20) 
energy

$$$$
21:0
     RDKit          3D

 48 51  0  0  0  0  0  0  0  0999 V2000
   -6.3360   25.6620  -29.4370 C   0  0  0  0  0  0  0  0  0  0  0  0
   -5.6820   25.4180  -30.7700 C   0  0  0  0  0  0  0  0  0  0  0  0
   -4.2800   25.4670  -30.7850 N   0  0  0  0  0  0  0  0  0  0  0  0
   -3.4900   24.5060  -30.1320 C   0  0  0  0  0  0  0  0  0  0  0  0
   -3.5600   23.1440  -30.7080 C   0  0  0  0  0  0  0  0  0  0  0  0
   -4.3100   23.0320  -31.9460 N   0  0  0  0  0  0  0  0  0  0  0  0
   -4.7660   21.7390  -32.3480 C   0  0  0  0  0  0  0  0  0  0  0  0
   -3.9240   20.9020  -32.9150 C   0  0  0  0  0  0  0  0  0  0  0  0
   -2.6860   21.5100  -32.9990 C   0  0  0  0  0  0  0  0  0  0  0  0
   -1.5960   20.8580  -33.5630 C   0  0  0  0  0  0  0  0  0  0  0  0
   -1.8200   19.5850  -34.0260 C   0  0  0  0  0  0  0  0  0  0  0  0
   -3.0610   18.9740  -33.9410 C   0  0  0  0  0  0  0  0  0  0  0  0
   -4.1610   19.6190  -33.3790 C   0  0  0  0  0  0  0  0  0  0  0  0
   -5.1970   18.8490  -33.3430 N   0  0  0  0  0  0  0  0  0  0  0  0
   -5.1430   17.5440  -33.9410 C   0  0  0  0  0  0  0  0  0  0  0  0
   -6.4670   19.1360  -32.7130 C   0  0  0  0  0  0  0  0  0  0  0  0
   -7.3420   18.0880  -32.7180 C   0  0  0  0  0  0  0  0  0  0  0  0
   -8.6360   18.1650  -32.2330 C   0  0  0  0  0  0  0  0  0  0  0  0
   -9.1080   19.3280  -31.7100 C   0  0  0  0  0  0  0  0  0  0  0  0
   -8.2470   20.4220  -31.6810 C   0  0  0  0  0  0  0  0  0  0  0  0
   -8.7580   21.5680  -31.1210 C   0  0  0  0  0  0  0  0  0  0  0  0
   -7.9770   22.6920  -31.0200 C   0  0  0  0  0  0  0  0  0  0  0  0
   -6.7260   22.6170  -31.4790 N   0  0  0  0  0  0  0  0  0  0  0  0
   -6.1930   21.5010  -32.0380 C   0  0  0  0  0  0  0  0  0  0  0  0
   -6.9410   20.3340  -32.1720 C   0  0  0  0  0  0  0  0  0  0  0  0
   -5.6346   25.4003  -28.6311 H   0  0  0  0  0  0  0  0  0  0  0  0
   -6.6118   26.7235  -29.3527 H   0  0  0  0  0  0  0  0  0  0  0  0
   -7.2397   25.0405  -29.3527 H   0  0  0  0  0  0  0  0  0  0  0  0
   -5.9877   24.4200  -31.1173 H   0  0  0  0  0  0  0  0  0  0  0  0
   -6.0146   26.2416  -31.4189 H   0  0  0  0  0  0  0  0  0  0  0  0
   -3.8700   26.4250  -30.8410 H   0  0  0  0  0  0  0  0  0  0  0  0
   -2.4428   24.8403  -30.1722 H   0  0  0  0  0  0  0  0  0  0  0  0
   -3.8839   24.4279  -29.1079 H   0  0  0  0  0  0  0  0  0  0  0  0
   -2.5321   22.8035  -30.9014 H   0  0  0  0  0  0  0  0  0  0  0  0
   -4.0965   22.5289  -29.9705 H   0  0  0  0  0  0  0  0  0  0  0  0
   -4.5450   23.8310  -32.5700 H   0  0  0  0  0  0  0  0  0  0  0  0
   -2.5606   22.5317  -32.6112 H   0  0  0  0  0  0  0  0  0  0  0  0
   -0.6077   21.3357  -33.6346 H   0  0  0  0  0  0  0  0  0  0  0  0
   -0.9854   19.0308  -34.4802 H   0  0  0  0  0  0  0  0  0  0  0  0
   -3.1811   17.9513  -34.3280 H   0  0  0  0  0  0  0  0  0  0  0  0
   -5.1114   16.7795  -33.1507 H   0  0  0  0  0  0  0  0  0  0  0  0
   -6.0355   17.3894  -34.5651 H   0  0  0  0  0  0  0  0  0  0  0  0
   -4.2408   17.4637  -34.5651 H   0  0  0  0  0  0  0  0  0  0  0  0
   -6.9991   17.1279  -33.1310 H   0  0  0  0  0  0  0  0  0  0  0  0
   -9.2871   17.2792  -32.2709 H   0  0  0  0  0  0  0  0  0  0  0  0
  -10.1350   19.4021  -31.3230 H   0  0  0  0  0  0  0  0  0  0  0  0
   -9.7945   21.5846  -30.7531 H   0  0  0  0  0  0  0  0  0  0  0  0
   -8.3675   23.6201  -30.5772 H   0  0  0  0  0  0  0  0  0  0  0  0
  1  2  1  0
  2  3  1  0
  3  4  1  0
  4  5  1  0
  5  6  1  0
  6  7  1  0
  7  8  2  0
  8  9  1  0
  9 10  2  0
 10 11  1  0
 11 12  2  0
 12 13  1  0
 13 14  2  0
 14 15  1  0
 14 16  1  0
 16 17  2  0
 17 18  1  0
 18 19  2  0
 19 20  1  0
 20 21  2  0
 21 22  1  0
 22 23  2  0
 23 24  1  0
 24 25  2  0
 24  7  1  0
 13  8  1  0
 25 16  1  0
 25 20  1  0
  1 26  1  0
  1 27  1  0
  1 28  1  0
  2 29  1  0
  2 30  1  0
  3 31  1  0
  4 32  1  0
  4 33  1  0
  5 34  1  0
  5 35  1  0
  6 36  1  0
  9 37  1  0
 10 38  1  0
 11 39  1  0
 12 40  1  0
 15 41  1  0
 15 42  1  0
 15 43  1  0
 17 44  1  0
 18 45  1  0
 19 46  1  0
 21 47  1  0
 22 48  1  0
M  CHG  1  14   1
M  END
>  <smiles>  (21) 
CCNCCNC1=c2ccccc2=[N+](C)c2cccc3ccnc1c23

>  <score_type>  (21) 
oracle

>  <origin>  (21) 
adg

>  <m_score__min__energy>  (21) 
-9.8900000000000006

>  <m_primary>  (21) 
energy

$$$$
22:0
     RDKit          3D

 47 50  0  0  0  0  0  0  0  0999 V2000
   -3.1580   24.1470  -27.9870 C   0  0  0  0  0  0  0  0  0  0  0  0
   -2.5590   24.5490  -29.3070 C   0  0  0  0  0  0  0  0  0  0  0  0
   -3.4830   25.1880  -30.1480 O   0  0  0  0  0  0  0  0  0  0  0  0
   -4.7310   24.6660  -30.3850 C   0  0  0  0  0  0  0  0  0  0  0  0
   -5.8190   25.4010  -29.9280 C   0  0  0  0  0  0  0  0  0  0  0  0
   -7.1220   24.9950  -30.0970 C   0  0  0  0  0  0  0  0  0  0  0  0
   -7.3720   23.8060  -30.7480 C   0  0  0  0  0  0  0  0  0  0  0  0
   -6.2790   23.0960  -31.1910 C   0  0  0  0  0  0  0  0  0  0  0  0
   -6.4820   21.7980  -31.9050 C   0  0  0  0  0  0  0  0  0  0  0  0
   -5.8170   20.9840  -32.4700 N   0  0  0  0  0  0  0  0  0  0  0  0
   -6.2020   19.8720  -33.0490 C   0  0  0  0  0  0  0  0  0  0  0  0
   -5.3070   18.9350  -33.7200 C   0  0  0  0  0  0  0  0  0  0  0  0
   -5.7710   17.7990  -34.3580 C   0  0  0  0  0  0  0  0  0  0  0  0
   -4.8800   16.9700  -34.9630 C   0  0  0  0  0  0  0  0  0  0  0  0
   -3.5520   17.1820  -34.9850 N   0  0  0  0  0  0  0  0  0  0  0  0
   -3.0670   18.2920  -34.3650 C   0  0  0  0  0  0  0  0  0  0  0  0
   -1.6760   18.4850  -34.4060 N   0  0  0  0  0  0  0  0  0  0  0  0
   -0.8500   17.5010  -35.1190 C   0  0  0  0  0  0  0  0  0  0  0  0
    0.4690   18.2070  -35.4130 C   0  0  0  0  0  0  0  0  0  0  0  0
    0.2120   19.4880  -35.8680 O   0  0  0  0  0  0  0  0  0  0  0  0
   -0.2570   20.3470  -34.9020 C   0  0  0  0  0  0  0  0  0  0  0  0
   -0.9640   19.5860  -33.7990 C   0  0  0  0  0  0  0  0  0  0  0  0
   -3.9460   19.1440  -33.7470 C   0  0  0  0  0  0  0  0  0  0  0  0
   -7.5670   19.6650  -32.9630 C   0  0  0  0  0  0  0  0  0  0  0  0
   -8.2050   21.1150  -32.0370 S   0  0  0  0  0  0  0  0  0  0  0  0
   -4.9870   23.4830  -31.0320 C   0  0  0  0  0  0  0  0  0  0  0  0
   -2.5484   24.5561  -27.1679 H   0  0  0  0  0  0  0  0  0  0  0  0
   -4.1823   24.5412  -27.9139 H   0  0  0  0  0  0  0  0  0  0  0  0
   -3.1813   23.0497  -27.9139 H   0  0  0  0  0  0  0  0  0  0  0  0
   -1.7207   25.2359  -29.1186 H   0  0  0  0  0  0  0  0  0  0  0  0
   -2.2264   23.6315  -29.8145 H   0  0  0  0  0  0  0  0  0  0  0  0
   -5.6288   26.3511  -29.4072 H   0  0  0  0  0  0  0  0  0  0  0  0
   -7.9520   25.6097  -29.7185 H   0  0  0  0  0  0  0  0  0  0  0  0
   -8.3976   23.4413  -30.9062 H   0  0  0  0  0  0  0  0  0  0  0  0
   -6.8467   17.5695  -34.3755 H   0  0  0  0  0  0  0  0  0  0  0  0
   -5.2684   16.0715  -35.4649 H   0  0  0  0  0  0  0  0  0  0  0  0
   -0.6792   16.6153  -34.4895 H   0  0  0  0  0  0  0  0  0  0  0  0
   -1.3384   17.1519  -36.0407 H   0  0  0  0  0  0  0  0  0  0  0  0
    1.0712   18.2577  -34.4939 H   0  0  0  0  0  0  0  0  0  0  0  0
    1.0223   17.6476  -36.1818 H   0  0  0  0  0  0  0  0  0  0  0  0
    0.5897   20.9016  -34.4714 H   0  0  0  0  0  0  0  0  0  0  0  0
   -0.9740   21.0402  -35.3662 H   0  0  0  0  0  0  0  0  0  0  0  0
   -0.2273   19.2026  -33.0777 H   0  0  0  0  0  0  0  0  0  0  0  0
   -1.6627   20.2464  -33.2644 H   0  0  0  0  0  0  0  0  0  0  0  0
   -3.5443   20.0384  -33.2483 H   0  0  0  0  0  0  0  0  0  0  0  0
   -8.1434   18.8173  -33.3621 H   0  0  0  0  0  0  0  0  0  0  0  0
   -4.1634   22.8617  -31.4136 H   0  0  0  0  0  0  0  0  0  0  0  0
  1  2  1  0
  2  3  1  0
  3  4  1  0
  4  5  2  0
  5  6  1  0
  6  7  2  0
  7  8  1  0
  8  9  1  0
  9 10  2  0
 10 11  1  0
 11 12  1  0
 12 13  2  0
 13 14  1  0
 14 15  2  0
 15 16  1  0
 16 17  1  0
 17 18  1  0
 18 19  1  0
 19 20  1  0
 20 21  1  0
 21 22  1  0
 16 23  2  0
 11 24  2  0
 24 25  1  0
  8 26  2  0
 26  4  1  0
 25  9  1  0
 23 12  1  0
 22 17  1  0
  1 27  1  0
  1 28  1  0
  1 29  1  0
  2 30  1  0
  2 31  1  0
  5 32  1  0
  6 33  1  0
  7 34  1  0
 13 35  1  0
 14 36  1  0
 18 37  1  0
 18 38  1  0
 19 39  1  0
 19 40  1  0
 21 41  1  0
 21 42  1  0
 22 43  1  0
 22 44  1  0
 23 45  1  0
 24 46  1  0
 26 47  1  0
M  END
>  <smiles>  (22) 
CCOc1cccc(-c2nc(-c3ccnc(N4CCOCC4)c3)cs2)c1

>  <score_type>  (22) 
oracle

>  <origin>  (22) 
adg

>  <m_score__min__energy>  (22) 
-8.9199999999999999

>  <m_primary>  (22) 
energy

$$$$
23:0
     RDKit          3D

 41 44  0  0  1  0  0  0  0  0999 V2000
   -6.4970   23.5510  -29.8320 C   0  0  0  0  0  0  0  0  0  0  0  0
   -6.3110   24.8880  -29.9270 C   0  0  0  0  0  0  0  0  0  0  0  0
   -5.2170   25.3400  -30.8340 C   0  0  0  0  0  0  0  0  0  0  0  0
   -3.9050   25.2440  -30.2370 N   0  0  0  0  0  0  0  0  0  0  0  0
   -3.1100   24.0590  -30.3050 C   0  0  0  0  0  0  0  0  0  0  0  0
   -2.0880   23.9910  -29.3410 C   0  0  0  0  0  0  0  0  0  0  0  0
   -1.3010   22.8580  -29.3520 C   0  0  0  0  0  0  0  0  0  0  0  0
   -1.5270   21.8590  -30.2720 C   0  0  0  0  0  0  0  0  0  0  0  0
   -0.8530   20.6700  -30.4230 C   0  0  0  0  0  0  0  0  0  0  0  0
   -1.4910   20.0580  -31.4710 N   0  0  0  0  0  0  0  0  0  0  0  0
   -2.4810   20.8550  -31.9030 C   0  0  0  0  0  0  0  0  0  0  0  0
   -3.2580   20.5370  -32.8770 N   0  0  0  0  0  0  0  0  0  0  0  0
   -4.6710   20.5750  -32.7160 C   0  0  0  0  0  0  0  0  0  0  0  0
   -5.4130   21.7300  -32.6720 C   0  0  0  0  0  0  0  0  0  0  0  0
   -6.7720   21.6160  -32.5080 C   0  0  0  0  0  0  0  0  0  0  0  0
   -7.4340   20.4110  -32.3870 C   0  0  0  0  0  0  0  0  0  0  0  0
   -6.6570   19.2500  -32.4370 C   0  0  0  0  0  0  0  0  0  0  0  0
   -7.5720   18.2050  -32.2860 C   0  0  0  0  0  0  0  0  0  0  0  0
   -8.8100   18.7630  -32.1600 N   0  0  0  0  0  0  0  0  0  0  0  0
   -8.7290   20.0860  -32.2200 N   0  0  0  0  0  0  0  0  0  0  0  0
   -9.8760   20.9900  -32.1200 C   0  0  0  0  0  0  0  0  0  0  0  0
   -5.2910   19.3250  -32.5990 C   0  0  0  0  0  0  0  0  0  0  0  0
   -2.5180   21.9880  -31.1620 N   0  0  0  0  0  0  0  0  0  0  0  0
   -3.3100   23.0750  -31.1890 N   0  0  0  0  0  0  0  0  0  0  0  0
   -7.2874   23.1506  -29.1802 H   0  0  0  0  0  0  0  0  0  0  0  0
   -5.8578   22.8646  -30.4066 H   0  0  0  0  0  0  0  0  0  0  0  0
   -6.9323   25.6018  -29.3663 H   0  0  0  0  0  0  0  0  0  0  0  0
   -5.2348   24.7170  -31.7404 H   0  0  0  0  0  0  0  0  0  0  0  0
   -5.3967   26.4018  -31.0581 H   0  0  0  0  0  0  0  0  0  0  0  0
   -3.5040   26.0520  -29.7340 H   0  0  0  0  0  0  0  0  0  0  0  0
   -1.9244   24.8007  -28.6147 H   0  0  0  0  0  0  0  0  0  0  0  0
   -0.4867   22.7520  -28.6201 H   0  0  0  0  0  0  0  0  0  0  0  0
    0.0005   20.2963  -29.8383 H   0  0  0  0  0  0  0  0  0  0  0  0
   -1.2380   19.1220  -31.8620 H   0  0  0  0  0  0  0  0  0  0  0  0
   -4.9338   22.7157  -32.7652 H   0  0  0  0  0  0  0  0  0  0  0  0
   -7.3680   22.5398  -32.4709 H   0  0  0  0  0  0  0  0  0  0  0  0
   -7.3372   17.1305  -32.2714 H   0  0  0  0  0  0  0  0  0  0  0  0
  -10.1077   21.1726  -31.0603 H   0  0  0  0  0  0  0  0  0  0  0  0
   -9.6352   21.9438  -32.6123 H   0  0  0  0  0  0  0  0  0  0  0  0
  -10.7471   20.5330  -32.6123 H   0  0  0  0  0  0  0  0  0  0  0  0
   -4.6889   18.4052  -32.6363 H   0  0  0  0  0  0  0  0  0  0  0  0
  1  2  2  0
  2  3  1  0
  3  4  1  0
  4  5  1  0
  5  6  1  0
  6  7  2  0
  7  8  1  0
  8  9  2  0
  9 10  1  0
 10 11  1  0
 11 12  2  0
 12 13  1  0
 13 14  2  0
 14 15  1  0
 15 16  2  0
 16 17  1  0
 17 18  1  0
 18 19  2  0
 19 20  1  0
 20 21  1  0
 17 22  2  0
 11 23  1  0
 23 24  1  0
 24  5  2  0
 23  8  1  0
 22 13  1  0
 20 16  1  0
  1 25  1  0
  1 26  1  0
  2 27  1  0
  3 28  1  0
  3 29  1  0
  4 30  1  0
  6 31  1  0
  7 32  1  0
  9 33  1  0
 10 34  1  0
 14 35  1  0
 15 36  1  0
 18 37  1  0
 21 38  1  0
 21 39  1  0
 21 40  1  0
 22 41  1  0
M  END
>  <smiles>  (23) 
C=CCNc1ccc2c[nH]c(=Nc3ccc4c(cnn4C)c3)n2n1

>  <score_type>  (23) 
oracle

>  <origin>  (23) 
adg

>  <m_score__min__energy>  (23) 
-8.0199999999999996

>  <m_primary>  (23) 
energy

$$$$
24:0
     RDKit          3D

 36 38  0  0  1  0  0  0  0  0999 V2000
   -2.1900   24.9090  -27.9390 C   0  0  0  0  0  0  0  0  0  0  0  0
   -2.5670   25.2990  -29.2490 O   0  0  0  0  0  0  0  0  0  0  0  0
   -3.5990   24.6810  -29.9380 C   0  0  0  0  0  0  0  0  0  0  0  0
   -4.8500   25.2240  -30.0950 C   0  0  0  0  0  0  0  0  0  0  0  0
   -5.8410   24.5650  -30.7920 C   0  0  0  0  0  0  0  0  0  0  0  0
   -5.5510   23.3250  -31.3390 C   0  0  0  0  0  0  0  0  0  0  0  0
   -6.5750   22.5770  -32.0960 C   0  0  1  0  0  0  0  0  0  0  0  0
   -6.0390   21.3370  -32.7100 C   0  0  0  0  0  0  0  0  0  0  0  0
   -6.9190   20.3530  -32.6520 C   0  0  0  0  0  0  0  0  0  0  0  0
   -6.7450   18.9950  -33.1540 C   0  0  0  0  0  0  0  0  0  0  0  0
   -5.9320   18.7100  -34.2340 C   0  0  0  0  0  0  0  0  0  0  0  0
   -5.7580   17.4330  -34.7190 C   0  0  0  0  0  0  0  0  0  0  0  0
   -6.4220   16.3980  -34.0990 C   0  0  0  0  0  0  0  0  0  0  0  0
   -6.2800   15.1240  -34.5430 F   0  0  0  0  0  0  0  0  0  0  0  0
   -7.2350   16.6730  -33.0190 C   0  0  0  0  0  0  0  0  0  0  0  0
   -7.4070   17.9550  -32.5360 C   0  0  0  0  0  0  0  0  0  0  0  0
   -8.1740   20.8330  -31.9750 C   0  0  0  0  0  0  0  0  0  0  0  0
   -7.6530   22.0450  -31.2370 C   0  0  0  0  0  0  0  0  0  0  0  0
   -8.0170   22.4990  -30.1800 O   0  0  0  0  0  0  0  0  0  0  0  0
   -4.3140   22.7660  -31.1950 C   0  0  0  0  0  0  0  0  0  0  0  0
   -3.3230   23.4400  -30.4920 C   0  0  0  0  0  0  0  0  0  0  0  0
   -2.7585   25.4971  -27.2035 H   0  0  0  0  0  0  0  0  0  0  0  0
   -2.4053   23.8394  -27.7986 H   0  0  0  0  0  0  0  0  0  0  0  0
   -1.1138   25.0879  -27.7986 H   0  0  0  0  0  0  0  0  0  0  0  0
   -5.0672   26.2082  -29.6544 H   0  0  0  0  0  0  0  0  0  0  0  0
   -6.8385   25.0132  -30.9110 H   0  0  0  0  0  0  0  0  0  0  0  0
   -6.9250   23.3193  -32.8285 H   0  0  0  0  0  0  0  0  0  0  0  0
   -5.0375   21.2483  -33.1562 H   0  0  0  0  0  0  0  0  0  0  0  0
   -5.4014   19.5378  -34.7272 H   0  0  0  0  0  0  0  0  0  0  0  0
   -5.1032   17.2438  -35.5824 H   0  0  0  0  0  0  0  0  0  0  0  0
   -7.7637   15.8436  -32.5264 H   0  0  0  0  0  0  0  0  0  0  0  0
   -8.0615   18.1437  -31.6723 H   0  0  0  0  0  0  0  0  0  0  0  0
   -8.9489   21.1066  -32.7062 H   0  0  0  0  0  0  0  0  0  0  0  0
   -8.6600   20.0835  -31.3331 H   0  0  0  0  0  0  0  0  0  0  0  0
   -4.1015   21.7809  -31.6360 H   0  0  0  0  0  0  0  0  0  0  0  0
   -2.3252   22.9918  -30.3755 H   0  0  0  0  0  0  0  0  0  0  0  0
  1  2  1  0
  2  3  1  0
  3  4  2  0
  4  5  1  0
  5  6  2  0
  6  7  1  0
  7  8  1  0
  8  9  2  0
  9 10  1  0
 10 11  2  0
 11 12  1  0
 12 13  2  0
 13 14  1  0
 13 15  1  0
 15 16  2  0
  9 17  1  0
 17 18  1  0
 18 19  2  0
  6 20  1  0
 20 21  2  0
 21  3  1  0
 18  7  1  0
 16 10  1  0
  1 22  1  0
  1 23  1  0
  1 24  1  0
  4 25  1  0
  5 26  1  0
  7 27  1  6
  8 28  1  0
 11 29  1  0
 12 30  1  0
 15 31  1  0
 16 32  1  0
 17 33  1  0
 17 34  1  0
 20 35  1  0
 21 36  1  0
M  END
>  <smiles>  (24) 
COc1ccc(C2C=C(c3ccc(F)cc3)CC2=O)cc1

>  <score_type>  (24) 
oracle

>  <origin>  (24) 
adg

>  <m_score__min__energy>  (24) 
-8.6400000000000006

>  <m_primary>  (24) 
energy

$$$$
25:0
     RDKit          3D

 63 65  0  0  0  0  0  0  0  0999 V2000
   -9.0370   18.5530  -31.6940 C   0  0  0  0  0  0  0  0  0  0  0  0
   -8.8370   20.0180  -31.8700 C   0  0  0  0  0  0  0  0  0  0  0  0
   -7.6130   20.4070  -32.4780 N   0  0  0  0  0  0  0  0  0  0  0  0
   -6.8920   21.4470  -31.8360 C   0  0  0  0  0  0  0  0  0  0  0  0
   -7.5550   22.8030  -31.9400 C   0  0  0  0  0  0  0  0  0  0  0  0
   -6.7760   19.3360  -32.9170 C   0  0  0  0  0  0  0  0  0  0  0  0
   -6.0550   19.6510  -34.2090 C   0  0  0  0  0  0  0  0  0  0  0  0
   -4.7690   18.9750  -34.2730 N   0  0  0  0  0  0  0  0  0  0  0  0
   -3.7590   19.4380  -33.3860 C   0  0  0  0  0  0  0  0  0  0  0  0
   -3.8150   20.5810  -32.7570 O   0  0  0  0  0  0  0  0  0  0  0  0
   -2.7390   20.7360  -32.0070 C   0  0  0  0  0  0  0  0  0  0  0  0
   -2.5280   21.9190  -31.1900 C   0  0  0  0  0  0  0  0  0  0  0  0
   -3.4430   22.9510  -31.2520 C   0  0  0  0  0  0  0  0  0  0  0  0
   -3.2290   24.0640  -30.4620 C   0  0  0  0  0  0  0  0  0  0  0  0
   -4.1140   25.1370  -30.4810 O   0  0  0  0  0  0  0  0  0  0  0  0
   -5.4290   24.8700  -30.0060 C   0  0  0  0  0  0  0  0  0  0  0  0
   -2.1240   24.1690  -29.6140 C   0  0  0  0  0  0  0  0  0  0  0  0
   -1.9540   25.3090  -28.8400 O   0  0  0  0  0  0  0  0  0  0  0  0
   -2.0640   25.3000  -27.4300 C   0  0  0  0  0  0  0  0  0  0  0  0
   -1.2110   23.1380  -29.5530 C   0  0  0  0  0  0  0  0  0  0  0  0
   -0.0990   23.2160  -28.7140 O   0  0  0  0  0  0  0  0  0  0  0  0
    0.1890   22.1610  -27.8180 C   0  0  0  0  0  0  0  0  0  0  0  0
   -1.4270   22.0270  -30.3420 C   0  0  0  0  0  0  0  0  0  0  0  0
   -1.9780   19.6450  -32.1750 N   0  0  0  0  0  0  0  0  0  0  0  0
   -2.5670   18.7960  -33.0290 C   0  0  0  0  0  0  0  0  0  0  0  0
   -2.0960   17.2210  -33.6580 S   0  0  0  0  0  0  0  0  0  0  0  0
   -3.4790   16.1290  -33.8420 C   0  0  0  0  0  0  0  0  0  0  0  0
   -3.5510   15.0840  -34.7160 C   0  0  0  0  0  0  0  0  0  0  0  0
   -4.6680   14.2510  -34.8270 C   0  0  0  0  0  0  0  0  0  0  0  0
   -5.7490   14.4950  -34.0170 C   0  0  0  0  0  0  0  0  0  0  0  0
   -5.6920   15.5470  -33.1280 C   0  0  0  0  0  0  0  0  0  0  0  0
   -4.5860   16.3620  -33.0270 C   0  0  0  0  0  0  0  0  0  0  0  0
   -9.0697   18.3137  -30.6208 H   0  0  0  0  0  0  0  0  0  0  0  0
   -9.9844   18.2530  -32.1656 H   0  0  0  0  0  0  0  0  0  0  0  0
   -8.2046   18.0100  -32.1656 H   0  0  0  0  0  0  0  0  0  0  0  0
   -9.6594   20.3982  -32.4938 H   0  0  0  0  0  0  0  0  0  0  0  0
   -8.8132   20.4401  -30.8545 H   0  0  0  0  0  0  0  0  0  0  0  0
   -6.7893   21.1918  -30.7710 H   0  0  0  0  0  0  0  0  0  0  0  0
   -5.9202   21.5253  -32.3453 H   0  0  0  0  0  0  0  0  0  0  0  0
   -7.7470   23.1957  -30.9306 H   0  0  0  0  0  0  0  0  0  0  0  0
   -6.8932   23.4941  -32.4825 H   0  0  0  0  0  0  0  0  0  0  0  0
   -8.5069   22.7051  -32.4825 H   0  0  0  0  0  0  0  0  0  0  0  0
   -6.0277   19.1317  -32.1371 H   0  0  0  0  0  0  0  0  0  0  0  0
   -7.4208   18.4638  -33.1002 H   0  0  0  0  0  0  0  0  0  0  0  0
   -6.6756   19.3219  -35.0555 H   0  0  0  0  0  0  0  0  0  0  0  0
   -5.8803   20.7361  -34.2543 H   0  0  0  0  0  0  0  0  0  0  0  0
   -4.5990   18.1890  -34.9380 H   0  0  0  0  0  0  0  0  0  0  0  0
   -4.3198   22.8887  -31.9133 H   0  0  0  0  0  0  0  0  0  0  0  0
   -5.4286   24.8701  -28.9060 H   0  0  0  0  0  0  0  0  0  0  0  0
   -6.1160   25.6470  -30.3725 H   0  0  0  0  0  0  0  0  0  0  0  0
   -5.7586   23.8866  -30.3725 H   0  0  0  0  0  0  0  0  0  0  0  0
   -1.0620   25.3820  -26.9835 H   0  0  0  0  0  0  0  0  0  0  0  0
   -2.6810   26.1507  -27.1049 H   0  0  0  0  0  0  0  0  0  0  0  0
   -2.5345   24.3604  -27.1049 H   0  0  0  0  0  0  0  0  0  0  0  0
    0.0906   22.5215  -26.7834 H   0  0  0  0  0  0  0  0  0  0  0  0
   -0.5162   21.3338  -27.9867 H   0  0  0  0  0  0  0  0  0  0  0  0
    1.2167   21.8069  -27.9867 H   0  0  0  0  0  0  0  0  0  0  0  0
   -0.7054   21.1978  -30.3004 H   0  0  0  0  0  0  0  0  0  0  0  0
   -2.6861   14.8869  -35.3664 H   0  0  0  0  0  0  0  0  0  0  0  0
   -4.6805   13.4193  -35.5467 H   0  0  0  0  0  0  0  0  0  0  0  0
   -6.6462   13.8614  -34.0763 H   0  0  0  0  0  0  0  0  0  0  0  0
   -6.5578   15.7420  -32.4781 H   0  0  0  0  0  0  0  0  0  0  0  0
   -4.5762   17.1931  -32.3064 H   0  0  0  0  0  0  0  0  0  0  0  0
  1  2  1  0
  2  3  1  0
  3  4  1  0
  4  5  1  0
  3  6  1  0
  6  7  1  0
  7  8  1  0
  8  9  1  0
  9 10  1  0
 10 11  1  0
 11 12  1  0
 12 13  2  0
 13 14  1  0
 14 15  1  0
 15 16  1  0
 14 17  2  0
 17 18  1  0
 18 19  1  0
 17 20  1  0
 20 21  1  0
 21 22  1  0
 20 23  2  0
 11 24  2  0
 24 25  1  0
 25 26  1  0
 26 27  1  0
 27 28  2  0
 28 29  1  0
 29 30  2  0
 30 31  1  0
 31 32  2  0
 25  9  2  0
 32 27  1  0
 23 12  1  0
  1 33  1  0
  1 34  1  0
  1 35  1  0
  2 36  1  0
  2 37  1  0
  4 38  1  0
  4 39  1  0
  5 40  1  0
  5 41  1  0
  5 42  1  0
  6 43  1  0
  6 44  1  0
  7 45  1  0
  7 46  1  0
  8 47  1  0
 13 48  1  0
 16 49  1  0
 16 50  1  0
 16 51  1  0
 19 52  1  0
 19 53  1  0
 19 54  1  0
 22 55  1  0
 22 56  1  0
 22 57  1  0
 23 58  1  0
 28 59  1  0
 29 60  1  0
 30 61  1  0
 31 62  1  0
 32 63  1  0
M  END
>  <smiles>  (25) 
CCN(CC)CCNc1oc(-c2cc(OC)c(OC)c(OC)c2)nc1Sc1ccccc1

>  <score_type>  (25) 
oracle

>  <origin>  (25) 
adg

>  <m_score__min__energy>  (25) 
-8.0099999999999998

>  <m_primary>  (25) 
energy

$$$$
26:0
     RDKit          3D

 43 47  0  0  0  0  0  0  0  0999 V2000
   -6.4930   25.5920  -29.3550 C   0  0  0  0  0  0  0  0  0  0  0  0
   -5.4970   25.7520  -30.4790 C   0  0  0  0  0  0  0  0  0  0  0  0
   -5.1460   24.4210  -30.9520 N   0  0  0  0  0  0  0  0  0  0  0  0
   -5.9580   23.4710  -31.4550 C   0  0  0  0  0  0  0  0  0  0  0  0
   -5.1920   22.3660  -31.7720 C   0  0  0  0  0  0  0  0  0  0  0  0
   -5.6370   21.0990  -32.3440 C   0  0  0  0  0  0  0  0  0  0  0  0
   -4.9670   20.2410  -33.1930 C   0  0  0  0  0  0  0  0  0  0  0  0
   -5.7680   19.2020  -33.4540 N   0  0  0  0  0  0  0  0  0  0  0  0
   -6.9160   19.4060  -32.7800 C   0  0  0  0  0  0  0  0  0  0  0  0
   -8.0610   18.6310  -32.7140 C   0  0  0  0  0  0  0  0  0  0  0  0
   -9.1190   19.0360  -31.9580 C   0  0  0  0  0  0  0  0  0  0  0  0
   -9.0490   20.2230  -31.2590 C   0  0  0  0  0  0  0  0  0  0  0  0
   -7.8930   20.9670  -31.3500 C   0  0  0  0  0  0  0  0  0  0  0  0
   -6.8460   20.5600  -32.1000 N   0  0  0  0  0  0  0  0  0  0  0  0
   -3.8880   22.6760  -31.4460 C   0  0  0  0  0  0  0  0  0  0  0  0
   -2.6800   21.8700  -31.5760 C   0  0  0  0  0  0  0  0  0  0  0  0
   -1.9580   21.4070  -30.4940 C   0  0  0  0  0  0  0  0  0  0  0  0
   -0.8470   20.6660  -30.6180 N   0  0  0  0  0  0  0  0  0  0  0  0
   -0.4040   20.3530  -31.8570 C   0  0  0  0  0  0  0  0  0  0  0  0
    0.7440   19.5870  -32.0540 C   0  0  0  0  0  0  0  0  0  0  0  0
    1.1800   19.2780  -33.3230 C   0  0  0  0  0  0  0  0  0  0  0  0
    0.4880   19.7210  -34.4420 C   0  0  0  0  0  0  0  0  0  0  0  0
   -0.6540   20.4840  -34.2650 C   0  0  0  0  0  0  0  0  0  0  0  0
   -1.0770   20.7830  -32.9790 C   0  0  0  0  0  0  0  0  0  0  0  0
   -2.2260   21.5490  -32.8520 C   0  0  0  0  0  0  0  0  0  0  0  0
   -3.9250   23.9330  -30.9540 N   0  0  0  0  0  0  0  0  0  0  0  0
   -5.9727   25.6756  -28.3894 H   0  0  0  0  0  0  0  0  0  0  0  0
   -7.2583   26.3787  -29.4285 H   0  0  0  0  0  0  0  0  0  0  0  0
   -6.9734   24.6052  -29.4285 H   0  0  0  0  0  0  0  0  0  0  0  0
   -5.9459   26.3341  -31.2973 H   0  0  0  0  0  0  0  0  0  0  0  0
   -4.6011   26.2845  -30.1270 H   0  0  0  0  0  0  0  0  0  0  0  0
   -7.0460   23.5601  -31.5903 H   0  0  0  0  0  0  0  0  0  0  0  0
   -3.9503   20.3866  -33.5868 H   0  0  0  0  0  0  0  0  0  0  0  0
   -8.1165   17.6856  -33.2736 H   0  0  0  0  0  0  0  0  0  0  0  0
  -10.0273   18.4178  -31.9050 H   0  0  0  0  0  0  0  0  0  0  0  0
   -9.8943   20.5667  -30.6448 H   0  0  0  0  0  0  0  0  0  0  0  0
   -7.8209   21.9159  -30.7982 H   0  0  0  0  0  0  0  0  0  0  0  0
   -2.3106   21.6577  -29.4827 H   0  0  0  0  0  0  0  0  0  0  0  0
    1.3097   19.2242  -31.1831 H   0  0  0  0  0  0  0  0  0  0  0  0
    2.0889   18.6719  -33.4519 H   0  0  0  0  0  0  0  0  0  0  0  0
    0.8412   19.4700  -35.4531 H   0  0  0  0  0  0  0  0  0  0  0  0
   -1.2193   20.8489  -35.1352 H   0  0  0  0  0  0  0  0  0  0  0  0
   -2.7687   21.8966  -33.7434 H   0  0  0  0  0  0  0  0  0  0  0  0
  1  2  1  0
  2  3  1  0
  3  4  1  0
  4  5  2  0
  5  6  1  0
  6  7  2  0
  7  8  1  0
  8  9  2  0
  9 10  1  0
 10 11  2  0
 11 12  1  0
 12 13  2  0
 13 14  1  0
  5 15  1  0
 15 16  1  0
 16 17  2  0
 17 18  1  0
 18 19  2  0
 19 20  1  0
 20 21  2  0
 21 22  1  0
 22 23  2  0
 23 24  1  0
 24 25  2  0
 15 26  2  0
 26  3  1  0
 14  6  1  0
 25 16  1  0
 14  9  1  0
 24 19  1  0
  1 27  1  0
  1 28  1  0
  1 29  1  0
  2 30  1  0
  2 31  1  0
  4 32  1  0
  7 33  1  0
 10 34  1  0
 11 35  1  0
 12 36  1  0
 13 37  1  0
 17 38  1  0
 20 39  1  0
 21 40  1  0
 22 41  1  0
 23 42  1  0
 25 43  1  0
M  END
>  <smiles>  (26) 
CCn1cc(-c2cnc3ccccn23)c(-c2cnc3ccccc3c2)n1

>  <score_type>  (26) 
oracle

>  <origin>  (26) 
adg

>  <m_score__min__energy>  (26) 
-8.7699999999999996

>  <m_primary>  (26) 
energy

$$$$
27:0
     RDKit          3D

 46 48  0  0  0  0  0  0  0  0999 V2000
   -4.4020   14.2440  -32.0000 C   0  0  0  0  0  0  0  0  0  0  0  0
   -4.6050   14.5600  -33.4690 C   0  0  0  0  0  0  0  0  0  0  0  0
   -4.0590   15.8720  -33.6700 O   0  0  0  0  0  0  0  0  0  0  0  0
   -4.9300   16.9420  -33.5090 C   0  0  0  0  0  0  0  0  0  0  0  0
   -4.7210   18.0780  -34.2700 C   0  0  0  0  0  0  0  0  0  0  0  0
   -5.5740   19.1790  -34.1390 C   0  0  0  0  0  0  0  0  0  0  0  0
   -6.6320   19.1150  -33.2360 C   0  0  0  0  0  0  0  0  0  0  0  0
   -7.5010   20.1810  -33.0740 C   0  0  0  0  0  0  0  0  0  0  0  0
   -8.5590   20.1540  -32.1910 C   0  0  0  0  0  0  0  0  0  0  0  0
   -9.5020   21.2770  -31.9980 C   0  0  0  0  0  0  0  0  0  0  0  0
   -8.8930   22.3040  -31.2120 N   0  0  0  0  0  0  0  0  0  0  0  0
   -7.8570   21.8750  -30.3240 C   0  0  0  0  0  0  0  0  0  0  0  0
   -6.8640   23.0280  -30.1660 C   0  0  0  0  0  0  0  0  0  0  0  0
   -6.1430   23.1200  -31.4940 C   0  0  0  0  0  0  0  0  0  0  0  0
   -5.0840   24.0210  -31.4670 O   0  0  0  0  0  0  0  0  0  0  0  0
   -5.4240   24.9870  -30.4990 C   0  0  0  0  0  0  0  0  0  0  0  0
   -7.1490   23.4280  -32.5590 C   0  0  0  0  0  0  0  0  0  0  0  0
   -8.5420   23.4270  -32.0240 C   0  0  0  0  0  0  0  0  0  0  0  0
   -8.7080   18.9750  -31.4560 C   0  0  0  0  0  0  0  0  0  0  0  0
   -7.8590   17.9070  -31.6000 C   0  0  0  0  0  0  0  0  0  0  0  0
   -6.8070   17.9640  -32.4960 C   0  0  0  0  0  0  0  0  0  0  0  0
   -5.9640   16.9280  -32.6510 N   0  0  0  0  0  0  0  0  0  0  0  0
   -4.8960   15.0130  -31.3879 H   0  0  0  0  0  0  0  0  0  0  0  0
   -4.8370   13.2595  -31.7732 H   0  0  0  0  0  0  0  0  0  0  0  0
   -3.3257   14.2303  -31.7732 H   0  0  0  0  0  0  0  0  0  0  0  0
   -4.0762   13.8259  -34.0946 H   0  0  0  0  0  0  0  0  0  0  0  0
   -5.6685   14.5190  -33.7469 H   0  0  0  0  0  0  0  0  0  0  0  0
   -3.8818   18.1158  -34.9801 H   0  0  0  0  0  0  0  0  0  0  0  0
   -5.4109   20.0844  -34.7421 H   0  0  0  0  0  0  0  0  0  0  0  0
   -7.3401   21.0878  -33.6755 H   0  0  0  0  0  0  0  0  0  0  0  0
   -9.7826   21.6884  -32.9788 H   0  0  0  0  0  0  0  0  0  0  0  0
  -10.3969   20.9082  -31.4753 H   0  0  0  0  0  0  0  0  0  0  0  0
   -8.2874   21.6160  -29.3454 H   0  0  0  0  0  0  0  0  0  0  0  0
   -7.3503   20.9863  -30.7282 H   0  0  0  0  0  0  0  0  0  0  0  0
   -7.3950   23.9668  -29.9502 H   0  0  0  0  0  0  0  0  0  0  0  0
   -6.1671   22.8573  -29.3323 H   0  0  0  0  0  0  0  0  0  0  0  0
   -5.6710   22.1525  -31.7200 H   0  0  0  0  0  0  0  0  0  0  0  0
   -5.2759   24.5664  -29.4934 H   0  0  0  0  0  0  0  0  0  0  0  0
   -4.7835   25.8725  -30.6240 H   0  0  0  0  0  0  0  0  0  0  0  0
   -6.4779   25.2762  -30.6240 H   0  0  0  0  0  0  0  0  0  0  0  0
   -6.9299   24.4207  -32.9791 H   0  0  0  0  0  0  0  0  0  0  0  0
   -7.0791   22.6473  -33.3307 H   0  0  0  0  0  0  0  0  0  0  0  0
   -8.6721   24.3360  -31.4183 H   0  0  0  0  0  0  0  0  0  0  0  0
   -9.2011   23.3791  -32.9034 H   0  0  0  0  0  0  0  0  0  0  0  0
   -9.5361   18.9005  -30.7358 H   0  0  0  0  0  0  0  0  0  0  0  0
   -8.0160   16.9993  -30.9988 H   0  0  0  0  0  0  0  0  0  0  0  0
  1  2  1  0
  2  3  1  0
  3  4  1  0
  4  5  2  0
  5  6  1  0
  6  7  2  0
  7  8  1  0
  8  9  2  0
  9 10  1  0
 10 11  1  0
 11 12  1  0
 12 13  1  0
 13 14  1  0
 14 15  1  0
 15 16  1  0
 14 17  1  0
 17 18  1  0
  9 19  1  0
 19 20  2  0
 20 21  1  0
 21 22  2  0
 22  4  1  0
 21  7  1  0
 18 11  1  0
  1 23  1  0
  1 24  1  0
  1 25  1  0
  2 26  1  0
  2 27  1  0
  5 28  1  0
  6 29  1  0
  8 30  1  0
 10 31  1  0
 10 32  1  0
 12 33  1  0
 12 34  1  0
 13 35  1  0
 13 36  1  0
 14 37  1  0
 16 38  1  0
 16 39  1  0
 16 40  1  0
 17 41  1  0
 17 42  1  0
 18 43  1  0
 18 44  1  0
 19 45  1  0
 20 46  1  0
M  END
>  <smiles>  (27) 
CCOc1ccc2cc(CN3CCC(OC)CC3)ccc2n1

>  <score_type>  (27) 
oracle

>  <origin>  (27) 
adg

>  <m_score__min__energy>  (27) 
-9.4499999999999993

>  <m_primary>  (27) 
energy

$$$$
28:0
     RDKit          3D

 46 47  0  0  0  0  0  0  0  0999 V2000
   -3.4410   21.8300  -27.9510 C   0  0  0  0  0  0  0  0  0  0  0  0
   -4.1670   23.1520  -27.9370 C   0  0  0  0  0  0  0  0  0  0  0  0
   -3.6750   24.0610  -28.9490 N   0  0  0  0  0  0  0  0  0  0  0  0
   -2.2740   24.4780  -28.8080 C   0  0  0  0  0  0  0  0  0  0  0  0
   -1.9830   24.9780  -27.4240 C   0  0  0  0  0  0  0  0  0  0  0  0
   -4.4880   24.5420  -30.0340 C   0  0  0  0  0  0  0  0  0  0  0  0
   -3.9130   25.3210  -30.8330 O   0  0  0  0  0  0  0  0  0  0  0  0
   -5.8760   24.0900  -30.1100 C   0  0  0  0  0  0  0  0  0  0  0  0
   -6.0810   23.0550  -31.0770 N   0  0  0  0  0  0  0  0  0  0  0  0
   -7.4990   22.7710  -31.2360 C   0  0  0  0  0  0  0  0  0  0  0  0
   -7.8080   21.3890  -31.5870 C   0  0  0  0  0  0  0  0  0  0  0  0
   -9.1210   21.1060  -31.9870 C   0  0  0  0  0  0  0  0  0  0  0  0
   -9.4920   19.8270  -32.3400 C   0  0  0  0  0  0  0  0  0  0  0  0
   -8.6270   18.7650  -32.3260 C   0  0  0  0  0  0  0  0  0  0  0  0
   -7.3180   19.0380  -31.9290 C   0  0  0  0  0  0  0  0  0  0  0  0
   -6.9470   20.3230  -31.5740 C   0  0  0  0  0  0  0  0  0  0  0  0
   -5.4130   23.1750  -32.3310 C   0  0  0  0  0  0  0  0  0  0  0  0
   -4.4140   22.1360  -32.5370 C   0  0  0  0  0  0  0  0  0  0  0  0
   -4.2670   21.0760  -33.3750 C   0  0  0  0  0  0  0  0  0  0  0  0
   -3.1740   20.3110  -33.2610 C   0  0  0  0  0  0  0  0  0  0  0  0
   -2.2500   20.6260  -32.3080 C   0  0  0  0  0  0  0  0  0  0  0  0
   -2.9340   22.0910  -31.5000 S   0  0  0  0  0  0  0  0  0  0  0  0
   -3.2599   21.5002  -26.9174 H   0  0  0  0  0  0  0  0  0  0  0  0
   -4.0541   21.0805  -28.4729 H   0  0  0  0  0  0  0  0  0  0  0  0
   -2.4796   21.9452  -28.4729 H   0  0  0  0  0  0  0  0  0  0  0  0
   -5.2369   22.9696  -28.1158 H   0  0  0  0  0  0  0  0  0  0  0  0
   -3.9967   23.6183  -26.9554 H   0  0  0  0  0  0  0  0  0  0  0  0
   -1.6224   23.6178  -29.0211 H   0  0  0  0  0  0  0  0  0  0  0  0
   -2.0863   25.2982  -29.5165 H   0  0  0  0  0  0  0  0  0  0  0  0
   -2.3932   24.2732  -26.6857 H   0  0  0  0  0  0  0  0  0  0  0  0
   -0.8950   25.0619  -27.2857 H   0  0  0  0  0  0  0  0  0  0  0  0
   -2.4475   25.9655  -27.2857 H   0  0  0  0  0  0  0  0  0  0  0  0
   -6.1740   23.7091  -29.1220 H   0  0  0  0  0  0  0  0  0  0  0  0
   -6.4835   24.9525  -30.4214 H   0  0  0  0  0  0  0  0  0  0  0  0
   -8.0038   23.0046  -30.2870 H   0  0  0  0  0  0  0  0  0  0  0  0
   -7.8478   23.3904  -32.0755 H   0  0  0  0  0  0  0  0  0  0  0  0
   -9.8650   21.9156  -32.0195 H   0  0  0  0  0  0  0  0  0  0  0  0
  -10.5331   19.6501  -32.6479 H   0  0  0  0  0  0  0  0  0  0  0  0
   -8.9471   17.7523  -32.6122 H   0  0  0  0  0  0  0  0  0  0  0  0
   -6.5759   18.2266  -31.8979 H   0  0  0  0  0  0  0  0  0  0  0  0
   -5.9059   20.4980  -31.2650 H   0  0  0  0  0  0  0  0  0  0  0  0
   -6.1603   23.1092  -33.1355 H   0  0  0  0  0  0  0  0  0  0  0  0
   -4.8916   24.1435  -32.3384 H   0  0  0  0  0  0  0  0  0  0  0  0
   -5.0318   20.8508  -34.1328 H   0  0  0  0  0  0  0  0  0  0  0  0
   -3.0240   19.4453  -33.9229 H   0  0  0  0  0  0  0  0  0  0  0  0
   -1.3061   20.1078  -32.0831 H   0  0  0  0  0  0  0  0  0  0  0  0
  1  2  1  0
  2  3  1  0
  3  4  1  0
  4  5  1  0
  3  6  1  0
  6  7  2  0
  6  8  1  0
  8  9  1  0
  9 10  1  0
 10 11  1  0
 11 12  2  0
 12 13  1  0
 13 14  2  0
 14 15  1  0
 15 16  2  0
  9 17  1  0
 17 18  1  0
 18 19  2  0
 19 20  1  0
 20 21  2  0
 21 22  1  0
 16 11  1  0
 22 18  1  0
  1 23  1  0
  1 24  1  0
  1 25  1  0
  2 26  1  0
  2 27  1  0
  4 28  1  0
  4 29  1  0
  5 30  1  0
  5 31  1  0
  5 32  1  0
  8 33  1  0
  8 34  1  0
 10 35  1  0
 10 36  1  0
 12 37  1  0
 13 38  1  0
 14 39  1  0
 15 40  1  0
 16 41  1  0
 17 42  1  0
 17 43  1  0
 19 44  1  0
 20 45  1  0
 21 46  1  0
M  END
>  <smiles>  (28) 
CCN(CC)C(=O)CN(Cc1ccccc1)Cc1cccs1

>  <score_type>  (28) 
oracle

>  <origin>  (28) 
adg

>  <m_score__min__energy>  (28) 
-7.8099999999999996

>  <m_primary>  (28) 
energy

$$$$
29:0
     RDKit          3D

 58 61  0  0  0  0  0  0  0  0999 V2000
   -6.8440   25.1530  -29.7330 C   0  0  0  0  0  0  0  0  0  0  0  0
   -5.3610   24.9490  -29.5140 C   0  0  0  0  0  0  0  0  0  0  0  0
   -4.6830   24.6580  -30.7870 N   0  0  0  0  0  0  0  0  0  0  0  0
   -5.6750   24.0630  -31.6490 C   0  0  0  0  0  0  0  0  0  0  0  0
   -3.6010   23.7790  -30.4670 C   0  0  0  0  0  0  0  0  0  0  0  0
   -4.0700   22.3920  -30.0760 C   0  0  0  0  0  0  0  0  0  0  0  0
   -3.5040   21.4050  -30.8310 O   0  0  0  0  0  0  0  0  0  0  0  0
   -2.3220   21.8310  -31.4120 C   0  0  0  0  0  0  0  0  0  0  0  0
   -1.7630   20.9450  -32.4700 C   0  0  0  0  0  0  0  0  0  0  0  0
   -2.7110   20.8010  -33.5870 N   0  0  0  0  0  0  0  0  0  0  0  0
   -3.6610   19.7620  -33.6410 C   0  0  0  0  0  0  0  0  0  0  0  0
   -4.9870   19.9490  -33.2520 C   0  0  0  0  0  0  0  0  0  0  0  0
   -5.9160   18.9210  -33.3090 C   0  0  0  0  0  0  0  0  0  0  0  0
   -5.5590   17.6760  -33.7520 N   0  0  0  0  0  0  0  0  0  0  0  0
   -6.5460   16.6200  -33.7750 C   0  0  0  0  0  0  0  0  0  0  0  0
   -4.2840   17.4980  -34.1270 C   0  0  0  0  0  0  0  0  0  0  0  0
   -3.8470   16.2730  -34.5930 C   0  0  0  0  0  0  0  0  0  0  0  0
   -2.5260   16.0600  -34.9950 C   0  0  0  0  0  0  0  0  0  0  0  0
   -1.6160   17.0810  -34.9350 C   0  0  0  0  0  0  0  0  0  0  0  0
   -2.0190   18.3120  -34.4760 C   0  0  0  0  0  0  0  0  0  0  0  0
   -3.3270   18.5020  -34.0850 C   0  0  0  0  0  0  0  0  0  0  0  0
   -7.1760   19.4990  -32.8400 C   0  0  0  0  0  0  0  0  0  0  0  0
   -8.4500   18.9910  -32.6800 C   0  0  0  0  0  0  0  0  0  0  0  0
   -9.4880   19.7860  -32.2130 C   0  0  0  0  0  0  0  0  0  0  0  0
   -9.3040   21.1130  -31.8890 C   0  0  0  0  0  0  0  0  0  0  0  0
   -8.0390   21.6260  -32.0460 C   0  0  0  0  0  0  0  0  0  0  0  0
   -7.0100   20.8280  -32.5110 C   0  0  0  0  0  0  0  0  0  0  0  0
   -5.5970   21.1930  -32.7450 C   0  0  0  0  0  0  0  0  0  0  0  0
   -7.3521   25.2229  -28.7599 H   0  0  0  0  0  0  0  0  0  0  0  0
   -7.0067   26.0820  -30.2992 H   0  0  0  0  0  0  0  0  0  0  0  0
   -7.2515   24.3024  -30.2992 H   0  0  0  0  0  0  0  0  0  0  0  0
   -4.9315   25.8623  -29.0766 H   0  0  0  0  0  0  0  0  0  0  0  0
   -5.2177   24.0965  -28.8338 H   0  0  0  0  0  0  0  0  0  0  0  0
   -6.4586   23.5930  -31.0365 H   0  0  0  0  0  0  0  0  0  0  0  0
   -6.1234   24.8414  -32.2839 H   0  0  0  0  0  0  0  0  0  0  0  0
   -5.1994   23.3009  -32.2839 H   0  0  0  0  0  0  0  0  0  0  0  0
   -2.9451   23.6939  -31.3459 H   0  0  0  0  0  0  0  0  0  0  0  0
   -3.0705   24.2060  -29.6032 H   0  0  0  0  0  0  0  0  0  0  0  0
   -3.8108   22.2187  -29.0211 H   0  0  0  0  0  0  0  0  0  0  0  0
   -5.1564   22.3525  -30.2436 H   0  0  0  0  0  0  0  0  0  0  0  0
   -2.5034   22.8189  -31.8604 H   0  0  0  0  0  0  0  0  0  0  0  0
   -1.5768   21.8364  -30.6029 H   0  0  0  0  0  0  0  0  0  0  0  0
   -0.8256   21.3803  -32.8466 H   0  0  0  0  0  0  0  0  0  0  0  0
   -1.5770   19.9517  -32.0356 H   0  0  0  0  0  0  0  0  0  0  0  0
   -2.6830   21.4970  -34.3760 H   0  0  0  0  0  0  0  0  0  0  0  0
   -6.8076   16.3401  -32.7439 H   0  0  0  0  0  0  0  0  0  0  0  0
   -7.4469   16.9715  -34.2993 H   0  0  0  0  0  0  0  0  0  0  0  0
   -6.1345   15.7449  -34.2993 H   0  0  0  0  0  0  0  0  0  0  0  0
   -4.5618   15.4388  -34.6493 H   0  0  0  0  0  0  0  0  0  0  0  0
   -2.2165   15.0698  -35.3605 H   0  0  0  0  0  0  0  0  0  0  0  0
   -0.5749   16.9180  -35.2504 H   0  0  0  0  0  0  0  0  0  0  0  0
   -1.3002   19.1429  -34.4208 H   0  0  0  0  0  0  0  0  0  0  0  0
   -8.6461   17.9372  -32.9271 H   0  0  0  0  0  0  0  0  0  0  0  0
  -10.4883   19.3431  -32.0980 H   0  0  0  0  0  0  0  0  0  0  0  0
  -10.1337   21.7343  -31.5208 H   0  0  0  0  0  0  0  0  0  0  0  0
   -7.8433   22.6801  -31.7998 H   0  0  0  0  0  0  0  0  0  0  0  0
   -5.5193   21.9986  -33.4900 H   0  0  0  0  0  0  0  0  0  0  0  0
   -5.1008   21.5691  -31.8382 H   0  0  0  0  0  0  0  0  0  0  0  0
  1  2  1  0
  2  3  1  0
  3  4  1  0
  3  5  1  0
  5  6  1  0
  6  7  1  0
  7  8  1  0
  8  9  1  0
  9 10  1  0
 10 11  1  0
 11 12  2  0
 12 13  1  0
 13 14  2  0
 14 15  1  0
 14 16  1  0
 16 17  2  0
 17 18  1  0
 18 19  2  0
 19 20  1  0
 20 21  2  0
 13 22  1  0
 22 23  2  0
 23 24  1  0
 24 25  2  0
 25 26  1  0
 26 27  2  0
 27 28  1  0
 21 11  1  0
 27 22  1  0
 28 12  1  0
 21 16  1  0
  1 29  1  0
  1 30  1  0
  1 31  1  0
  2 32  1  0
  2 33  1  0
  4 34  1  0
  4 35  1  0
  4 36  1  0
  5 37  1  0
  5 38  1  0
  6 39  1  0
  6 40  1  0
  8 41  1  0
  8 42  1  0
  9 43  1  0
  9 44  1  0
 10 45  1  0
 15 46  1  0
 15 47  1  0
 15 48  1  0
 17 49  1  0
 18 50  1  0
 19 51  1  0
 20 52  1  0
 23 53  1  0
 24 54  1  0
 25 55  1  0
 26 56  1  0
 28 57  1  0
 28 58  1  0
M  CHG  1  14   1
M  END
>  <smiles>  (29) 
CCN(C)CCOCCNc1c2c([n+](C)c3ccccc13)-c1ccccc1C2

>  <score_type>  (29) 
oracle

>  <origin>  (29) 
adg

>  <m_score__min__energy>  (29) 
-9.5

>  <m_primary>  (29) 
energy

$$$$
