0:0
     RDKit          3D

 36 37  0  0  0  0  0  0  0  0999 V2000
   -9.5260   20.5280  -32.3460 C   0  0  0  0  0  0  0  0  0  0  0  0
   -8.1960   19.8520  -32.3460 C   0  0  0  0  0  0  0  0  0  0  0  0
   -7.9500   18.5450  -31.9640 C   0  0  0  0  0  0  0  0  0  0  0  0
   -6.6140   18.3450  -32.2650 C   0  0  0  0  0  0  0  0  0  0  0  0
   -5.8690   17.0580  -32.0960 C   0  0  0  0  0  0  0  0  0  0  0  0
   -6.1150   19.4750  -32.8170 N   0  0  0  0  0  0  0  0  0  0  0  0
   -4.7760   19.6760  -33.3760 C   0  0  0  0  0  0  0  0  0  0  0  0
   -4.1800   21.0220  -32.9430 C   0  0  0  0  0  0  0  0  0  0  0  0
   -5.2040   21.9940  -32.7230 O   0  0  0  0  0  0  0  0  0  0  0  0
   -5.2410   22.9420  -31.6850 C   0  0  0  0  0  0  0  0  0  0  0  0
   -4.1230   23.2100  -30.8680 C   0  0  0  0  0  0  0  0  0  0  0  0
   -4.1920   24.1850  -29.8710 C   0  0  0  0  0  0  0  0  0  0  0  0
   -5.3730   24.8980  -29.6690 C   0  0  0  0  0  0  0  0  0  0  0  0
   -6.4940   24.6320  -30.4580 C   0  0  0  0  0  0  0  0  0  0  0  0
   -6.4410   23.6470  -31.4580 C   0  0  0  0  0  0  0  0  0  0  0  0
   -7.6410   23.3940  -32.3250 C   0  0  0  0  0  0  0  0  0  0  0  0
   -7.0750   20.3840  -32.8650 N   0  0  0  0  0  0  0  0  0  0  0  0
   -9.8529   20.6941  -31.3089 H   0  0  0  0  0  0  0  0  0  0  0  0
   -9.4459   21.4948  -32.8645 H   0  0  0  0  0  0  0  0  0  0  0  0
  -10.2598   19.8935  -32.8645 H   0  0  0  0  0  0  0  0  0  0  0  0
   -8.6564   17.8274  -31.5213 H   0  0  0  0  0  0  0  0  0  0  0  0
   -5.7452   16.8441  -31.0241 H   0  0  0  0  0  0  0  0  0  0  0  0
   -6.4345   16.2421  -32.5698 H   0  0  0  0  0  0  0  0  0  0  0  0
   -4.8798   17.1420  -32.5698 H   0  0  0  0  0  0  0  0  0  0  0  0
   -4.1184   18.8658  -33.0279 H   0  0  0  0  0  0  0  0  0  0  0  0
   -4.8567   19.6722  -34.4730 H   0  0  0  0  0  0  0  0  0  0  0  0
   -3.6136   20.8803  -32.0107 H   0  0  0  0  0  0  0  0  0  0  0  0
   -3.5215   21.3855  -33.7456 H   0  0  0  0  0  0  0  0  0  0  0  0
   -3.1900   22.6468  -31.0174 H   0  0  0  0  0  0  0  0  0  0  0  0
   -3.3125   24.3911  -29.2434 H   0  0  0  0  0  0  0  0  0  0  0  0
   -5.4217   25.6706  -28.8875 H   0  0  0  0  0  0  0  0  0  0  0  0
   -7.4237   25.1970  -30.2955 H   0  0  0  0  0  0  0  0  0  0  0  0
   -8.5198   23.2087  -31.6898 H   0  0  0  0  0  0  0  0  0  0  0  0
   -7.8263   24.2728  -32.9601 H   0  0  0  0  0  0  0  0  0  0  0  0
   -7.4558   22.5152  -32.9601 H   0  0  0  0  0  0  0  0  0  0  0  0
   -6.9770   21.3380  -33.2810 H   0  0  0  0  0  0  0  0  0  0  0  0
  1  2  1  0
  2  3  1  0
  3  4  2  0
  4  5  1  0
  4  6  1  0
  6  7  1  0
  7  8  1  0
  8  9  1  0
  9 10  1  0
 10 11  2  0
 11 12  1  0
 12 13  2  0
 13 14  1  0
 14 15  2  0
 15 16  1  0
  6 17  1  0
 17  2  2  0
 15 10  1  0
  1 18  1  0
  1 19  1  0
  1 20  1  0
  3 21  1  0
  5 22  1  0
  5 23  1  0
  5 24  1  0
  7 25  1  0
  7 26  1  0
  8 27  1  0
  8 28  1  0
 11 29  1  0
 12 30  1  0
 13 31  1  0
 14 32  1  0
 16 33  1  0
 16 34  1  0
 16 35  1  0
 17 36  1  0
M  CHG  1  17   1
M  END
>  <UniqueID>  (1) 
1

>  <SMILES>  (1) 
Cc1cc(C)n(CCOc2ccccc2C)[nH+]1

>  <Energy>  (1) 
59.63085611641375

>  <Genealogy>  (1) 
Cc1cc(C)n(CCOc2ccccc2C)[nH+]1 (protonated)
Cc1cc(C)n(CCOc2ccccc2C)[nH+]1 (3D coordinates assigned)
Cc1cc(C)n(CCOc2ccccc2C)[nH+]1 (optimized conformer: 59.63085611641375 kcal/mol)

>  <smiles>  (1) 
Cc1cc(C)n(CCOc2ccccc2C)n1

>  <score_type>  (1) 
oracle

>  <origin>  (1) 
adg

>  <m_score__min__energy>  (1) 
-5.79

>  <m_primary>  (1) 
energy

$$$$
1:0
     RDKit          3D

 78 82  0  0  0  0  0  0  0  0999 V2000
    0.0730   24.2800  -24.2110 O   0  0  0  0  0  0  0  0  0  0  0  0
    0.4470   24.3830  -25.4100 C   0  0  0  0  0  0  0  0  0  0  0  0
    1.8070   24.3150  -25.7160 C   0  0  0  0  0  0  0  0  0  0  0  0
    2.2100   24.4270  -27.0480 C   0  0  0  0  0  0  0  0  0  0  0  0
    1.3130   24.5970  -28.0130 O   0  0  0  0  0  0  0  0  0  0  0  0
    0.0060   24.6700  -27.7720 C   0  0  0  0  0  0  0  0  0  0  0  0
   -0.8850   24.8560  -28.8330 C   0  0  0  0  0  0  0  0  0  0  0  0
   -2.2620   24.9530  -28.5970 C   0  0  0  0  0  0  0  0  0  0  0  0
   -3.1080   25.1750  -29.6930 O   0  0  0  0  0  0  0  0  0  0  0  0
   -3.7840   24.1480  -30.4140 C   0  0  0  0  0  0  0  0  0  0  0  0
   -4.2020   23.0270  -29.4590 C   0  0  0  0  0  0  0  0  0  0  0  0
   -3.5370   21.7000  -29.8420 C   0  0  0  0  0  0  0  0  0  0  0  0
   -2.1000   21.8970  -30.3420 C   0  0  0  0  0  0  0  0  0  0  0  0
   -1.4790   20.5440  -30.7080 C   0  0  0  0  0  0  0  0  0  0  0  0
   -0.4590   20.7000  -31.7690 N   0  0  0  0  0  0  0  0  0  0  0  0
   -0.9330   21.5150  -32.9040 C   0  0  0  0  0  0  0  0  0  0  0  0
   -1.9080   20.7400  -33.8230 C   0  0  0  0  0  0  0  0  0  0  0  0
   -1.5790   19.2990  -33.9830 N   0  0  0  0  0  0  0  0  0  0  0  0
   -2.5540   18.4180  -33.2980 C   0  0  0  0  0  0  0  0  0  0  0  0
   -2.7080   17.0590  -33.9980 C   0  0  0  0  0  0  0  0  0  0  0  0
   -3.9750   16.3350  -33.5120 C   0  0  0  0  0  0  0  0  0  0  0  0
   -4.9480   17.2730  -32.7810 C   0  0  0  0  0  0  0  0  0  0  0  0
   -6.1570   17.7060  -33.6340 C   0  0  0  0  0  0  0  0  0  0  0  0
   -6.9510   18.7640  -32.9650 N   0  0  0  0  0  0  0  0  0  0  0  0
   -8.1960   18.3920  -32.5360 C   0  0  0  0  0  0  0  0  0  0  0  0
   -9.0530   19.2920  -31.9160 C   0  0  0  0  0  0  0  0  0  0  0  0
   -8.6550   20.6100  -31.7150 C   0  0  0  0  0  0  0  0  0  0  0  0
   -9.7170   21.6270  -30.9760 S   0  0  0  0  0  0  0  0  0  0  0  0
   -7.3720   21.0200  -32.1440 C   0  0  0  0  0  0  0  0  0  0  0  0
   -6.9220   22.3470  -31.9580 C   0  0  0  0  0  0  0  0  0  0  0  0
   -5.6510   22.7330  -32.3720 C   0  0  0  0  0  0  0  0  0  0  0  0
   -4.8080   21.8140  -32.9800 C   0  0  0  0  0  0  0  0  0  0  0  0
   -5.2310   20.5040  -33.2020 C   0  0  0  0  0  0  0  0  0  0  0  0
   -6.5140   20.0670  -32.7800 C   0  0  0  0  0  0  0  0  0  0  0  0
   -0.1720   19.0130  -33.6410 C   0  0  0  0  0  0  0  0  0  0  0  0
    0.1730   19.4230  -32.1970 C   0  0  0  0  0  0  0  0  0  0  0  0
   -2.7490   24.8380  -27.2810 C   0  0  0  0  0  0  0  0  0  0  0  0
   -1.8650   24.6460  -26.2150 C   0  0  0  0  0  0  0  0  0  0  0  0
   -0.4820   24.5640  -26.4490 C   0  0  0  0  0  0  0  0  0  0  0  0
    2.5514   24.1750  -24.9184 H   0  0  0  0  0  0  0  0  0  0  0  0
    3.2793   24.3740  -27.3005 H   0  0  0  0  0  0  0  0  0  0  0  0
   -0.5014   24.9267  -29.8615 H   0  0  0  0  0  0  0  0  0  0  0  0
   -4.6789   24.5692  -30.8953 H   0  0  0  0  0  0  0  0  0  0  0  0
   -3.1076   23.7380  -31.1785 H   0  0  0  0  0  0  0  0  0  0  0  0
   -3.9028   23.2967  -28.4354 H   0  0  0  0  0  0  0  0  0  0  0  0
   -5.2931   22.9024  -29.5223 H   0  0  0  0  0  0  0  0  0  0  0  0
   -3.5184   21.0448  -28.9586 H   0  0  0  0  0  0  0  0  0  0  0  0
   -4.1213   21.2521  -30.6593 H   0  0  0  0  0  0  0  0  0  0  0  0
   -2.1097   22.5451  -31.2307 H   0  0  0  0  0  0  0  0  0  0  0  0
   -1.5024   22.3634  -29.5449 H   0  0  0  0  0  0  0  0  0  0  0  0
   -1.0055   20.1116  -29.8142 H   0  0  0  0  0  0  0  0  0  0  0  0
   -2.2745   19.8817  -31.0803 H   0  0  0  0  0  0  0  0  0  0  0  0
   -1.4498   22.4024  -32.5097 H   0  0  0  0  0  0  0  0  0  0  0  0
   -0.0553   21.7927  -33.5060 H   0  0  0  0  0  0  0  0  0  0  0  0
   -2.9191   20.8178  -33.3969 H   0  0  0  0  0  0  0  0  0  0  0  0
   -1.8302   21.1948  -34.8215 H   0  0  0  0  0  0  0  0  0  0  0  0
   -2.2120   18.2473  -32.2665 H   0  0  0  0  0  0  0  0  0  0  0  0
   -3.5327   18.9196  -33.3204 H   0  0  0  0  0  0  0  0  0  0  0  0
   -2.7780   17.2186  -35.0841 H   0  0  0  0  0  0  0  0  0  0  0  0
   -1.8327   16.4375  -33.7580 H   0  0  0  0  0  0  0  0  0  0  0  0
   -4.4896   15.9027  -34.3828 H   0  0  0  0  0  0  0  0  0  0  0  0
   -3.6620   15.5582  -32.7988 H   0  0  0  0  0  0  0  0  0  0  0  0
   -5.3231   16.7543  -31.8865 H   0  0  0  0  0  0  0  0  0  0  0  0
   -4.3870   18.1866  -32.5349 H   0  0  0  0  0  0  0  0  0  0  0  0
   -5.7932   18.0898  -34.5986 H   0  0  0  0  0  0  0  0  0  0  0  0
   -6.8063   16.8297  -33.7772 H   0  0  0  0  0  0  0  0  0  0  0  0
   -8.5265   17.3536  -32.6860 H   0  0  0  0  0  0  0  0  0  0  0  0
  -10.0483   18.9622  -31.5832 H   0  0  0  0  0  0  0  0  0  0  0  0
   -7.5847   23.0835  -31.4801 H   0  0  0  0  0  0  0  0  0  0  0  0
   -5.3139   23.7686  -32.2170 H   0  0  0  0  0  0  0  0  0  0  0  0
   -3.7981   22.1212  -33.2893 H   0  0  0  0  0  0  0  0  0  0  0  0
   -4.5596   19.7978  -33.7124 H   0  0  0  0  0  0  0  0  0  0  0  0
    0.0075   17.9337  -33.7548 H   0  0  0  0  0  0  0  0  0  0  0  0
    0.4653   19.5997  -34.3190 H   0  0  0  0  0  0  0  0  0  0  0  0
   -0.1645   18.6247  -31.5196 H   0  0  0  0  0  0  0  0  0  0  0  0
    1.2617   19.5752  -32.1582 H   0  0  0  0  0  0  0  0  0  0  0  0
   -3.8306   24.8995  -27.0905 H   0  0  0  0  0  0  0  0  0  0  0  0
   -2.2535   24.5588  -25.1896 H   0  0  0  0  0  0  0  0  0  0  0  0
  1  2  2  0
  2  3  1  0
  3  4  2  0
  4  5  1  0
  5  6  1  0
  6  7  2  0
  7  8  1  0
  8  9  1  0
  9 10  1  0
 10 11  1  0
 11 12  1  0
 12 13  1  0
 13 14  1  0
 14 15  1  0
 15 16  1  0
 16 17  1  0
 17 18  1  0
 18 19  1  0
 19 20  1  0
 20 21  1  0
 21 22  1  0
 22 23  1  0
 23 24  1  0
 24 25  1  0
 25 26  2  0
 26 27  1  0
 27 28  2  0
 27 29  1  0
 29 30  2  0
 30 31  1  0
 31 32  2  0
 32 33  1  0
 33 34  2  0
 18 35  1  0
 35 36  1  0
  8 37  2  0
 37 38  1  0
 38 39  2  0
 39  2  1  0
 39  6  1  0
 36 15  1  0
 34 24  1  0
 34 29  1  0
  3 40  1  0
  4 41  1  0
  7 42  1  0
 10 43  1  0
 10 44  1  0
 11 45  1  0
 11 46  1  0
 12 47  1  0
 12 48  1  0
 13 49  1  0
 13 50  1  0
 14 51  1  0
 14 52  1  0
 16 53  1  0
 16 54  1  0
 17 55  1  0
 17 56  1  0
 19 57  1  0
 19 58  1  0
 20 59  1  0
 20 60  1  0
 21 61  1  0
 21 62  1  0
 22 63  1  0
 22 64  1  0
 23 65  1  0
 23 66  1  0
 25 67  1  0
 26 68  1  0
 30 69  1  0
 31 70  1  0
 32 71  1  0
 33 72  1  0
 35 73  1  0
 35 74  1  0
 36 75  1  0
 36 76  1  0
 37 77  1  0
 38 78  1  0
M  END
>  <UniqueID>  (2) 
2

>  <SMILES>  (2) 
O=c1ccoc2cc(OCCCCCN3CCN(CCCCCn4ccc(=S)c5ccccc54)CC3)ccc12

>  <Energy>  (2) 
103.88312846250523

>  <Genealogy>  (2) 
O=c1ccoc2cc(OCCCCCN3CCN(CCCCCn4ccc(=S)c5ccccc54)CC3)ccc12 (3D coordinates assigned)
O=c1ccoc2cc(OCCCCCN3CCN(CCCCCn4ccc(=S)c5ccccc54)CC3)ccc12 (nonaromatic ring conformer: 103.88312846250523 kcal/mol)

>  <smiles>  (2) 
O=c1ccoc2cc(OCCCCCN3CCN(CCCCCn4ccc(=S)c5ccccc54)CC3)ccc12

>  <score_type>  (2) 
oracle

>  <origin>  (2) 
adg

>  <m_score__min__energy>  (2) 
-10.09

>  <m_primary>  (2) 
energy

$$$$
2:0
     RDKit          3D

 46 49  0  0  1  0  0  0  0  0999 V2000
   -6.8910   16.6750  -33.5320 C   0  0  0  0  0  0  0  0  0  0  0  0
   -6.0020   17.8050  -33.1530 C   0  0  0  0  0  0  0  0  0  0  0  0
   -5.1870   18.3190  -34.1480 C   0  0  0  0  0  0  0  0  0  0  0  0
   -4.3590   19.3700  -33.8040 C   0  0  0  0  0  0  0  0  0  0  0  0
   -4.3200   19.9080  -32.5340 C   0  0  0  0  0  0  0  0  0  0  0  0
   -3.4930   20.9740  -32.1430 N   0  0  0  0  0  0  0  0  0  0  0  0
   -2.0400   20.7910  -31.9750 C   0  0  0  0  0  0  0  0  0  0  0  0
   -1.8170   20.9100  -30.4800 C   0  0  0  0  0  0  0  0  0  0  0  0
   -2.2050   22.2840  -30.1040 C   0  0  0  0  0  0  0  0  0  0  0  0
   -1.5640   22.9130  -29.1140 N   0  0  0  0  0  0  0  0  0  0  0  0
   -1.9080   24.1660  -28.7620 C   0  0  0  0  0  0  0  0  0  0  0  0
   -2.8980   24.8550  -29.3670 N   0  0  0  0  0  0  0  0  0  0  0  0
   -3.5490   24.2140  -30.3730 C   0  0  0  0  0  0  0  0  0  0  0  0
   -4.5020   24.8300  -30.9820 N   0  0  0  0  0  0  0  0  0  0  0  0
   -5.4410   25.7060  -30.2600 C   0  0  0  0  0  0  0  0  0  0  0  0
   -6.5010   24.7780  -29.7220 C   0  0  0  0  0  0  0  0  0  0  0  0
   -6.9600   23.7550  -30.6170 C   0  0  0  0  0  0  0  0  0  0  0  0
   -6.8430   23.6000  -32.0390 C   0  0  0  0  0  0  0  0  0  0  0  0
   -7.3720   22.5330  -32.5830 C   0  0  0  0  0  0  0  0  0  0  0  0
   -8.0250   21.5810  -31.8170 C   0  0  0  0  0  0  0  0  0  0  0  0
   -8.7960   20.1130  -32.2530 Cl  0  0  0  0  0  0  0  0  0  0  0  0
   -7.9030   22.2240  -30.1190 S   0  0  0  0  0  0  0  0  0  0  0  0
   -3.2300   22.9340  -30.7660 C   0  0  0  0  0  0  0  0  0  0  0  0
   -3.9940   22.3010  -31.8810 C   0  0  0  0  0  0  0  0  0  0  0  0
   -5.1440   19.3520  -31.6190 N   0  0  0  0  0  0  0  0  0  0  0  0
   -5.9770   18.3310  -31.8740 C   0  0  0  0  0  0  0  0  0  0  0  0
   -7.2737   16.1886  -32.6226 H   0  0  0  0  0  0  0  0  0  0  0  0
   -7.7344   17.0556  -34.1269 H   0  0  0  0  0  0  0  0  0  0  0  0
   -6.3226   15.9449  -34.1269 H   0  0  0  0  0  0  0  0  0  0  0  0
   -5.1985   17.9080  -35.1683 H   0  0  0  0  0  0  0  0  0  0  0  0
   -3.7021   19.7966  -34.5763 H   0  0  0  0  0  0  0  0  0  0  0  0
   -1.7276   19.8007  -32.3378 H   0  0  0  0  0  0  0  0  0  0  0  0
   -1.4552   21.5266  -32.5467 H   0  0  0  0  0  0  0  0  0  0  0  0
   -2.4405   20.1793  -29.9439 H   0  0  0  0  0  0  0  0  0  0  0  0
   -0.7679   20.7081  -30.2180 H   0  0  0  0  0  0  0  0  0  0  0  0
   -0.7870   22.3840  -28.6330 H   0  0  0  0  0  0  0  0  0  0  0  0
   -1.3564   24.6508  -27.9430 H   0  0  0  0  0  0  0  0  0  0  0  0
   -4.9295   26.2275  -29.4376 H   0  0  0  0  0  0  0  0  0  0  0  0
   -5.8642   26.4854  -30.9107 H   0  0  0  0  0  0  0  0  0  0  0  0
   -6.0923   24.2836  -28.8284 H   0  0  0  0  0  0  0  0  0  0  0  0
   -7.3774   25.4135  -29.5266 H   0  0  0  0  0  0  0  0  0  0  0  0
   -6.3258   24.3530  -32.6518 H   0  0  0  0  0  0  0  0  0  0  0  0
   -7.2964   22.3894  -33.6710 H   0  0  0  0  0  0  0  0  0  0  0  0
   -5.0565   22.2391  -31.6032 H   0  0  0  0  0  0  0  0  0  0  0  0
   -3.8757   22.9128  -32.7875 H   0  0  0  0  0  0  0  0  0  0  0  0
   -6.6246   17.9221  -31.0844 H   0  0  0  0  0  0  0  0  0  0  0  0
  1  2  1  0
  2  3  2  0
  3  4  1  0
  4  5  2  0
  5  6  1  0
  6  7  1  0
  7  8  1  0
  8  9  1  0
  9 10  1  0
 10 11  1  0
 11 12  2  0
 12 13  1  0
 13 14  2  0
 14 15  1  0
 15 16  1  0
 16 17  1  0
 17 18  2  0
 18 19  1  0
 19 20  2  0
 20 21  1  0
 20 22  1  0
 13 23  1  0
 23 24  1  0
  5 25  1  0
 25 26  2  0
 26  2  1  0
 24  6  1  0
 23  9  2  0
 22 17  1  0
  1 27  1  0
  1 28  1  0
  1 29  1  0
  3 30  1  0
  4 31  1  0
  7 32  1  0
  7 33  1  0
  8 34  1  0
  8 35  1  0
 10 36  1  0
 11 37  1  0
 15 38  1  0
 15 39  1  0
 16 40  1  0
 16 41  1  0
 18 42  1  0
 19 43  1  0
 24 44  1  0
 24 45  1  0
 26 46  1  0
M  END
>  <smiles>  (3) 
Cc1ccc(N2CCc3[nH]cnc(=NCCc4ccc(Cl)s4)c3C2)nc1

>  <score_type>  (3) 
oracle

>  <origin>  (3) 
adg

>  <m_score__min__energy>  (3) 
-9.25

>  <m_primary>  (3) 
energy

$$$$
3:0
     RDKit          3D

 50 52  0  0  0  0  0  0  0  0999 V2000
   -5.2970   18.5400  -34.1140 C   0  0  0  0  0  0  0  0  0  0  0  0
   -4.9430   19.2070  -32.7860 C   0  0  0  0  0  0  0  0  0  0  0  0
   -5.4200   20.6010  -32.7550 N   0  0  0  0  0  0  0  0  0  0  0  0
   -4.4490   21.6450  -33.1280 C   0  0  0  0  0  0  0  0  0  0  0  0
   -3.4300   21.8780  -31.9900 C   0  0  0  0  0  0  0  0  0  0  0  0
   -4.0440   22.0460  -30.6470 N   0  0  0  0  0  0  0  0  0  0  0  0
   -4.3640   23.4740  -30.3490 C   0  0  0  0  0  0  0  0  0  0  0  0
   -4.1270   23.8400  -28.8870 C   0  0  0  0  0  0  0  0  0  0  0  0
   -2.7420   23.5120  -28.5520 N   0  0  0  0  0  0  0  0  0  0  0  0
   -1.7760   24.5680  -28.3720 C   0  0  0  0  0  0  0  0  0  0  0  0
   -1.9330   25.6680  -28.9690 O   0  0  0  0  0  0  0  0  0  0  0  0
   -0.5800   24.3910  -27.5330 C   0  0  0  0  0  0  0  0  0  0  0  0
   -0.5480   23.9950  -26.2100 C   0  0  0  0  0  0  0  0  0  0  0  0
    0.7840   23.9890  -25.8550 C   0  0  0  0  0  0  0  0  0  0  0  0
    1.4820   24.3870  -26.9770 C   0  0  0  0  0  0  0  0  0  0  0  0
    0.6420   24.6250  -27.9580 O   0  0  0  0  0  0  0  0  0  0  0  0
   -2.2760   22.1420  -28.8060 C   0  0  0  0  0  0  0  0  0  0  0  0
   -3.3250   21.3030  -29.5700 C   0  0  0  0  0  0  0  0  0  0  0  0
   -6.7880   20.9280  -32.3750 C   0  0  0  0  0  0  0  0  0  0  0  0
   -7.1510   22.2440  -32.0050 C   0  0  0  0  0  0  0  0  0  0  0  0
   -8.4660   22.5530  -31.6440 C   0  0  0  0  0  0  0  0  0  0  0  0
   -9.4460   21.5600  -31.6430 C   0  0  0  0  0  0  0  0  0  0  0  0
   -9.1120   20.2560  -32.0030 C   0  0  0  0  0  0  0  0  0  0  0  0
   -7.7990   19.9400  -32.3650 C   0  0  0  0  0  0  0  0  0  0  0  0
   -5.8046   17.5836  -33.9201 H   0  0  0  0  0  0  0  0  0  0  0  0
   -5.9640   19.1991  -34.6891 H   0  0  0  0  0  0  0  0  0  0  0  0
   -4.3773   18.3570  -34.6891 H   0  0  0  0  0  0  0  0  0  0  0  0
   -5.4137   18.6468  -31.9647 H   0  0  0  0  0  0  0  0  0  0  0  0
   -3.8488   19.2070  -32.6729 H   0  0  0  0  0  0  0  0  0  0  0  0
   -3.9115   21.3303  -34.0346 H   0  0  0  0  0  0  0  0  0  0  0  0
   -4.9930   22.5832  -33.3119 H   0  0  0  0  0  0  0  0  0  0  0  0
   -2.7507   21.0136  -31.9530 H   0  0  0  0  0  0  0  0  0  0  0  0
   -2.9098   22.8196  -32.2196 H   0  0  0  0  0  0  0  0  0  0  0  0
   -4.9730   21.5640  -30.7250 H   0  0  0  0  0  0  0  0  0  0  0  0
   -3.7301   24.1152  -30.9791 H   0  0  0  0  0  0  0  0  0  0  0  0
   -5.4332   23.6248  -30.5592 H   0  0  0  0  0  0  0  0  0  0  0  0
   -4.3007   24.9162  -28.7398 H   0  0  0  0  0  0  0  0  0  0  0  0
   -4.8172   23.2802  -28.2388 H   0  0  0  0  0  0  0  0  0  0  0  0
   -1.4067   23.7379  -25.5724 H   0  0  0  0  0  0  0  0  0  0  0  0
    1.2055   23.7210  -24.8750 H   0  0  0  0  0  0  0  0  0  0  0  0
    2.5754   24.4893  -27.0400 H   0  0  0  0  0  0  0  0  0  0  0  0
   -1.3536   22.1863  -29.4038 H   0  0  0  0  0  0  0  0  0  0  0  0
   -2.0990   21.6589  -27.8338 H   0  0  0  0  0  0  0  0  0  0  0  0
   -2.8116   20.4447  -30.0280 H   0  0  0  0  0  0  0  0  0  0  0  0
   -4.0854   21.0048  -28.8332 H   0  0  0  0  0  0  0  0  0  0  0  0
   -6.3876   23.0360  -32.0012 H   0  0  0  0  0  0  0  0  0  0  0  0
   -8.7288   23.5826  -31.3598 H   0  0  0  0  0  0  0  0  0  0  0  0
  -10.4798   21.8059  -31.3587 H   0  0  0  0  0  0  0  0  0  0  0  0
   -9.8840   19.4724  -32.0024 H   0  0  0  0  0  0  0  0  0  0  0  0
   -7.5488   18.9065  -32.6464 H   0  0  0  0  0  0  0  0  0  0  0  0
  1  2  1  0
  2  3  1  0
  3  4  1  0
  4  5  1  0
  5  6  1  0
  6  7  1  0
  7  8  1  0
  8  9  1  0
  9 10  1  0
 10 11  2  0
 10 12  1  0
 12 13  2  0
 13 14  1  0
 14 15  2  0
 15 16  1  0
  9 17  1  0
 17 18  1  0
  3 19  1  0
 19 20  2  0
 20 21  1  0
 21 22  2  0
 22 23  1  0
 23 24  2  0
 18  6  1  0
 24 19  1  0
 16 12  1  0
  1 25  1  0
  1 26  1  0
  1 27  1  0
  2 28  1  0
  2 29  1  0
  4 30  1  0
  4 31  1  0
  5 32  1  0
  5 33  1  0
  6 34  1  0
  7 35  1  0
  7 36  1  0
  8 37  1  0
  8 38  1  0
 13 39  1  0
 14 40  1  0
 15 41  1  0
 17 42  1  0
 17 43  1  0
 18 44  1  0
 18 45  1  0
 20 46  1  0
 21 47  1  0
 22 48  1  0
 23 49  1  0
 24 50  1  0
M  CHG  1   6   1
M  END
>  <UniqueID>  (4) 
3

>  <SMILES>  (4) 
CCN(CC[NH+]1CCN(C(=O)c2ccco2)CC1)c1ccccc1

>  <Energy>  (4) 
93.16454459954264

>  <Genealogy>  (4) 
CCN(CC[NH+]1CCN(C(=O)c2ccco2)CC1)c1ccccc1 (protonated)
CCN(CC[NH+]1CCN(C(=O)c2ccco2)CC1)c1ccccc1 (3D coordinates assigned)
CCN(CC[NH+]1CCN(C(=O)c2ccco2)CC1)c1ccccc1 (nonaromatic ring conformer: 93.16454459954264 kcal/mol)

>  <smiles>  (4) 
CCN(CCN1CCN(C(=O)c2ccco2)CC1)c1ccccc1

>  <score_type>  (4) 
oracle

>  <origin>  (4) 
adg

>  <m_score__min__energy>  (4) 
-7.3799999999999999

>  <m_primary>  (4) 
energy

$$$$
4:0
     RDKit          3D

 35 38  0  0  0  0  0  0  0  0999 V2000
   -3.3188   22.1831  -28.5564 H   0  0  0  0  0  0  0  0  0  0  0  0
   -3.0650   23.0390  -29.1990 C   0  0  0  0  0  0  0  0  0  0  0  0
   -3.5630   23.0220  -30.4530 C   0  0  0  0  0  0  0  0  0  0  0  0
   -4.6110   24.0060  -30.8390 C   0  0  0  0  0  0  0  0  0  0  0  0
   -4.3390   25.2360  -30.8690 O   0  0  0  0  0  0  0  0  0  0  0  0
   -5.9910   23.5930  -31.1440 C   0  0  0  0  0  0  0  0  0  0  0  0
   -7.0230   22.8070  -30.0740 S   0  0  0  0  0  0  0  0  0  0  0  0
   -8.3360   22.6890  -31.1230 C   0  0  0  0  0  0  0  0  0  0  0  0
   -9.3119   22.2397  -30.8869 H   0  0  0  0  0  0  0  0  0  0  0  0
   -7.9740   23.2560  -32.3350 C   0  0  0  0  0  0  0  0  0  0  0  0
   -8.6460   23.2992  -33.2048 H   0  0  0  0  0  0  0  0  0  0  0  0
   -6.6670   23.7700  -32.3460 C   0  0  0  0  0  0  0  0  0  0  0  0
   -6.2211   24.2650  -33.2213 H   0  0  0  0  0  0  0  0  0  0  0  0
   -3.1400   22.0420  -31.4120 N   0  0  0  0  0  0  0  0  0  0  0  0
   -1.9220   21.9310  -32.0020 C   0  0  0  0  0  0  0  0  0  0  0  0
   -1.0632   22.5680  -31.7436 H   0  0  0  0  0  0  0  0  0  0  0  0
   -1.8720   20.9530  -32.9440 N   0  0  0  0  0  0  0  0  0  0  0  0
   -3.1240   20.4510  -32.9320 C   0  0  0  0  0  0  0  0  0  0  0  0
   -3.6360   19.4170  -33.7150 C   0  0  0  0  0  0  0  0  0  0  0  0
   -3.0056   18.8959  -34.4506 H   0  0  0  0  0  0  0  0  0  0  0  0
   -4.9890   19.0610  -33.5330 C   0  0  0  0  0  0  0  0  0  0  0  0
   -5.4262   18.2497  -34.1335 H   0  0  0  0  0  0  0  0  0  0  0  0
   -5.7870   19.7410  -32.5830 C   0  0  0  0  0  0  0  0  0  0  0  0
   -7.6180   19.2400  -32.3500 Br  0  0  0  0  0  0  0  0  0  0  0  0
   -5.2360   20.7800  -31.8060 C   0  0  0  0  0  0  0  0  0  0  0  0
   -5.8415   21.3150  -31.0596 H   0  0  0  0  0  0  0  0  0  0  0  0
   -3.8930   21.1070  -32.0170 C   0  0  0  0  0  0  0  0  0  0  0  0
   -2.2140   24.0880  -28.5990 C   0  0  0  0  0  0  0  0  0  0  0  0
   -1.9750   25.2250  -29.2080 O   0  0  0  0  0  0  0  0  0  0  0  0
   -1.2420   25.9850  -28.4270 C   0  0  0  0  0  0  0  0  0  0  0  0
   -0.8901   26.9968  -28.6769 H   0  0  0  0  0  0  0  0  0  0  0  0
   -0.9810   25.3240  -27.2490 C   0  0  0  0  0  0  0  0  0  0  0  0
   -0.3793   25.6895  -26.4038 H   0  0  0  0  0  0  0  0  0  0  0  0
   -1.6270   24.1110  -27.3440 C   0  0  0  0  0  0  0  0  0  0  0  0
   -1.6684   23.3214  -26.5793 H   0  0  0  0  0  0  0  0  0  0  0  0
  1  2  1  0
  2  3  2  0
  3  4  1  0
  4  5  2  0
  4  6  1  0
  6  7  1  0
  7  8  1  0
  8  9  1  0
  8 10  2  0
 10 11  1  0
 10 12  1  0
 12 13  1  0
  3 14  1  0
 14 15  1  0
 15 16  1  0
 15 17  2  0
 17 18  1  0
 18 19  2  0
 19 20  1  0
 19 21  1  0
 21 22  1  0
 21 23  2  0
 23 24  1  0
 23 25  1  0
 25 26  1  0
 25 27  2  0
  2 28  1  0
 28 29  1  0
 29 30  1  0
 30 31  1  0
 30 32  2  0
 32 33  1  0
 32 34  1  0
 34 35  1  0
 12  6  2  0
 27 14  1  0
 34 28  2  0
 27 18  1  0
M  END
>  <UniqueID>  (5) 
4

>  <SMILES>  (5) 
O=C(/C(=C/c1ccco1)n1cnc2ccc(Br)cc21)c1cccs1

>  <Energy>  (5) 
140.1489912595333

>  <Genealogy>  (5) 
O=C(/C(=C/c1ccco1)n1cnc2ccc(Br)cc21)c1cccs1 (cis-trans isomerization)
O=C(/C(=C/c1ccco1)n1cnc2ccc(Br)cc21)c1cccs1 (3D coordinates assigned)
O=C(/C(=C/c1ccco1)n1cnc2ccc(Br)cc21)c1cccs1 (optimized conformer: 140.1489912595333 kcal/mol)

>  <smiles>  (5) 
O=C(C(=Cc1ccco1)n1cnc2ccc(Br)cc21)c1cccs1

>  <score_type>  (5) 
oracle

>  <origin>  (5) 
adg

>  <m_score__min__energy>  (5) 
-9.0099999999999998

>  <m_primary>  (5) 
energy

$$$$
5:0
     RDKit          3D

 33 34  0  0  0  0  0  0  0  0999 V2000
   -5.1700   17.6820  -34.9460 C   0  0  0  0  0  0  0  0  0  0  0  0
   -4.6660   18.8040  -34.2280 O   0  0  0  0  0  0  0  0  0  0  0  0
   -5.4440   19.6440  -33.4180 C   0  0  0  0  0  0  0  0  0  0  0  0
   -6.8550   19.6290  -33.4600 C   0  0  0  0  0  0  0  0  0  0  0  0
   -7.6080   20.4980  -32.6530 C   0  0  0  0  0  0  0  0  0  0  0  0
   -6.9770   21.4010  -31.7830 C   0  0  0  0  0  0  0  0  0  0  0  0
   -7.9900   22.4830  -30.8400 Cl  0  0  0  0  0  0  0  0  0  0  0  0
   -5.5700   21.4010  -31.7360 C   0  0  0  0  0  0  0  0  0  0  0  0
   -4.6570   22.1570  -31.0010 C   0  0  0  0  0  0  0  0  0  0  0  0
   -4.9430   23.2360  -29.9870 C   0  0  0  0  0  0  0  0  0  0  0  0
   -5.1020   24.5930  -30.6680 C   0  0  0  0  0  0  0  0  0  0  0  0
   -3.8650   25.2480  -30.6990 O   0  0  0  0  0  0  0  0  0  0  0  0
   -3.3920   21.7470  -31.4310 C   0  0  0  0  0  0  0  0  0  0  0  0
   -2.0810   22.3090  -30.9530 C   0  0  0  0  0  0  0  0  0  0  0  0
   -3.5020   20.7410  -32.3360 N   0  0  0  0  0  0  0  0  0  0  0  0
   -2.4040   20.0170  -32.9840 C   0  0  0  0  0  0  0  0  0  0  0  0
   -4.8290   20.5480  -32.5330 C   0  0  0  0  0  0  0  0  0  0  0  0
   -5.5140   16.9162  -34.2352 H   0  0  0  0  0  0  0  0  0  0  0  0
   -6.0119   17.9996  -35.5787 H   0  0  0  0  0  0  0  0  0  0  0  0
   -4.3734   17.2636  -35.5787 H   0  0  0  0  0  0  0  0  0  0  0  0
   -7.3711   18.9283  -34.1328 H   0  0  0  0  0  0  0  0  0  0  0  0
   -8.7065   20.4705  -32.7035 H   0  0  0  0  0  0  0  0  0  0  0  0
   -5.8720   22.9904  -29.4516 H   0  0  0  0  0  0  0  0  0  0  0  0
   -4.0986   23.2915  -29.2842 H   0  0  0  0  0  0  0  0  0  0  0  0
   -5.4653   24.4469  -31.6959 H   0  0  0  0  0  0  0  0  0  0  0  0
   -5.8253   25.2024  -30.1063 H   0  0  0  0  0  0  0  0  0  0  0  0
   -3.8050   25.6830  -31.5890 H   0  0  0  0  0  0  0  0  0  0  0  0
   -2.0643   22.3161  -29.8531 H   0  0  0  0  0  0  0  0  0  0  0  0
   -1.2561   21.6854  -31.3282 H   0  0  0  0  0  0  0  0  0  0  0  0
   -1.9639   23.3364  -31.3282 H   0  0  0  0  0  0  0  0  0  0  0  0
   -1.7468   19.5836  -32.2158 H   0  0  0  0  0  0  0  0  0  0  0  0
   -2.8151   19.2123  -33.6112 H   0  0  0  0  0  0  0  0  0  0  0  0
   -1.8263   20.7119  -33.6112 H   0  0  0  0  0  0  0  0  0  0  0  0
  1  2  1  0
  2  3  1  0
  3  4  2  0
  4  5  1  0
  5  6  2  0
  6  7  1  0
  6  8  1  0
  8  9  1  0
  9 10  1  0
 10 11  1  0
 11 12  1  0
  9 13  2  0
 13 14  1  0
 13 15  1  0
 15 16  1  0
 15 17  1  0
 17  3  1  0
 17  8  2  0
  1 18  1  0
  1 19  1  0
  1 20  1  0
  4 21  1  0
  5 22  1  0
 10 23  1  0
 10 24  1  0
 11 25  1  0
 11 26  1  0
 12 27  1  0
 14 28  1  0
 14 29  1  0
 14 30  1  0
 16 31  1  0
 16 32  1  0
 16 33  1  0
M  END
>  <UniqueID>  (6) 
5

>  <SMILES>  (6) 
COc1ccc(Cl)c2c(CCO)c(C)n(C)c12

>  <Energy>  (6) 
65.79858984695635

>  <Genealogy>  (6) 
COc1ccc(Cl)c2c(CCO)c(C)n(C)c12 (3D coordinates assigned)
COc1ccc(Cl)c2c(CCO)c(C)n(C)c12 (optimized conformer: 65.79858984695635 kcal/mol)

>  <smiles>  (6) 
COc1ccc(Cl)c2c(CCO)c(C)n(C)c12

>  <score_type>  (6) 
oracle

>  <origin>  (6) 
adg

>  <m_score__min__energy>  (6) 
-7.3300000000000001

>  <m_primary>  (6) 
energy

$$$$
6:0
     RDKit          3D

 47 50  0  0  0  0  0  0  0  0999 V2000
   -8.0020   18.4070  -32.3020 Cl  0  0  0  0  0  0  0  0  0  0  0  0
   -7.9980   20.1520  -32.1350 C   0  0  0  0  0  0  0  0  0  0  0  0
   -9.1600   20.8190  -31.7370 C   0  0  0  0  0  0  0  0  0  0  0  0
   -9.1610   22.2120  -31.6160 C   0  0  0  0  0  0  0  0  0  0  0  0
   -7.9990   22.9400  -31.8890 C   0  0  0  0  0  0  0  0  0  0  0  0
   -6.8280   22.2780  -32.2950 C   0  0  0  0  0  0  0  0  0  0  0  0
   -5.5650   23.0550  -32.5600 C   0  0  0  0  0  0  0  0  0  0  0  0
   -5.3800   24.0740  -31.5760 O   0  0  0  0  0  0  0  0  0  0  0  0
   -4.5670   23.9610  -30.4370 C   0  0  0  0  0  0  0  0  0  0  0  0
   -4.8870   24.5760  -29.2110 C   0  0  0  0  0  0  0  0  0  0  0  0
   -4.0400   24.4340  -28.1080 C   0  0  0  0  0  0  0  0  0  0  0  0
   -2.8580   23.6910  -28.2250 C   0  0  0  0  0  0  0  0  0  0  0  0
   -2.5370   23.0760  -29.4360 C   0  0  0  0  0  0  0  0  0  0  0  0
   -3.3950   23.2000  -30.5370 C   0  0  0  0  0  0  0  0  0  0  0  0
   -1.2720   22.2740  -29.5010 C   0  0  0  0  0  0  0  0  0  0  0  0
   -0.1200   23.0420  -28.8220 C   0  0  0  0  0  0  0  0  0  0  0  0
   -0.4910   23.7110  -27.5400 N   0  0  0  0  0  0  0  0  0  0  0  0
   -0.0090   25.1090  -27.4460 C   0  0  0  0  0  0  0  0  0  0  0  0
   -0.1280   25.6830  -26.0550 C   0  0  0  0  0  0  0  0  0  0  0  0
    0.6620   25.1930  -25.0030 C   0  0  0  0  0  0  0  0  0  0  0  0
    0.4970   25.6940  -23.7490 N   0  0  0  0  0  0  0  0  0  0  0  0
   -0.4210   26.6640  -23.4970 C   0  0  0  0  0  0  0  0  0  0  0  0
   -1.2100   27.1530  -24.5390 C   0  0  0  0  0  0  0  0  0  0  0  0
   -1.0460   26.6530  -25.7920 N   0  0  0  0  0  0  0  0  0  0  0  0
   -1.8920   23.5370  -27.0830 C   0  0  0  0  0  0  0  0  0  0  0  0
   -6.8320   20.8780  -32.4080 C   0  0  0  0  0  0  0  0  0  0  0  0
  -10.0743   20.2477  -31.5188 H   0  0  0  0  0  0  0  0  0  0  0  0
  -10.0772   22.7358  -31.3056 H   0  0  0  0  0  0  0  0  0  0  0  0
   -8.0015   24.0351  -31.7856 H   0  0  0  0  0  0  0  0  0  0  0  0
   -4.7065   22.3678  -32.5332 H   0  0  0  0  0  0  0  0  0  0  0  0
   -5.6445   23.5302  -33.5489 H   0  0  0  0  0  0  0  0  0  0  0  0
   -5.8078   25.1709  -29.1210 H   0  0  0  0  0  0  0  0  0  0  0  0
   -4.3013   24.9052  -27.1490 H   0  0  0  0  0  0  0  0  0  0  0  0
   -3.1472   22.6977  -31.4837 H   0  0  0  0  0  0  0  0  0  0  0  0
   -1.4231   21.3144  -28.9849 H   0  0  0  0  0  0  0  0  0  0  0  0
   -1.0131   22.0963  -30.5552 H   0  0  0  0  0  0  0  0  0  0  0  0
    0.6923   22.3298  -28.6150 H   0  0  0  0  0  0  0  0  0  0  0  0
    0.1748   23.8416  -29.5175 H   0  0  0  0  0  0  0  0  0  0  0  0
    1.0488   25.1358  -27.7467 H   0  0  0  0  0  0  0  0  0  0  0  0
   -0.6405   25.7194  -28.1083 H   0  0  0  0  0  0  0  0  0  0  0  0
    1.4099   24.4087  -25.1915 H   0  0  0  0  0  0  0  0  0  0  0  0
    1.0840   25.3260  -22.9680 H   0  0  0  0  0  0  0  0  0  0  0  0
   -0.5413   27.0611  -22.4782 H   0  0  0  0  0  0  0  0  0  0  0  0
   -1.9582   27.9364  -24.3478 H   0  0  0  0  0  0  0  0  0  0  0  0
   -2.0061   22.5326  -26.6491 H   0  0  0  0  0  0  0  0  0  0  0  0
   -2.1128   24.3102  -26.3324 H   0  0  0  0  0  0  0  0  0  0  0  0
   -5.9161   20.3500  -32.7120 H   0  0  0  0  0  0  0  0  0  0  0  0
  1  2  1  0
  2  3  2  0
  3  4  1  0
  4  5  2  0
  5  6  1  0
  6  7  1  0
  7  8  1  0
  8  9  1  0
  9 10  2  0
 10 11  1  0
 11 12  2  0
 12 13  1  0
 13 14  2  0
 13 15  1  0
 15 16  1  0
 16 17  1  0
 17 18  1  0
 18 19  1  0
 19 20  2  0
 20 21  1  0
 21 22  2  0
 22 23  1  0
 23 24  2  0
 17 25  1  0
  6 26  2  0
 26  2  1  0
 14  9  1  0
 24 19  1  0
 25 12  1  0
  3 27  1  0
  4 28  1  0
  5 29  1  0
  7 30  1  0
  7 31  1  0
 10 32  1  0
 11 33  1  0
 14 34  1  0
 15 35  1  0
 15 36  1  0
 16 37  1  0
 16 38  1  0
 18 39  1  0
 18 40  1  0
 20 41  1  0
 21 42  1  0
 22 43  1  0
 23 44  1  0
 25 45  1  0
 25 46  1  0
 26 47  1  0
M  CHG  1  21   1
M  END
>  <UniqueID>  (7) 
6

>  <SMILES>  (7) 
Clc1cccc(COc2ccc3c(c2)CCN(Cc2c[nH+]ccn2)C3)c1

>  <Energy>  (7) 
59.88811648097206

>  <Genealogy>  (7) 
Clc1cccc(COc2ccc3c(c2)CCN(Cc2c[nH+]ccn2)C3)c1 (protonated)
Clc1cccc(COc2ccc3c(c2)CCN(Cc2c[nH+]ccn2)C3)c1 (3D coordinates assigned)
Clc1cccc(COc2ccc3c(c2)CCN(Cc2c[nH+]ccn2)C3)c1 (nonaromatic ring conformer: 59.88811648097206 kcal/mol)

>  <smiles>  (7) 
Clc1cccc(COc2ccc3c(c2)CCN(Cc2cnccn2)C3)c1

>  <score_type>  (7) 
oracle

>  <origin>  (7) 
adg

>  <m_score__min__energy>  (7) 
-9.6500000000000004

>  <m_primary>  (7) 
energy

$$$$
7:0
     RDKit          3D

 50 53  0  0  0  0  0  0  0  0999 V2000
   -5.6180   19.1130  -34.1120 C   0  0  0  0  0  0  0  0  0  0  0  0
   -6.7680   19.2350  -33.1580 C   0  0  0  0  0  0  0  0  0  0  0  0
   -7.4390   18.0880  -32.7080 C   0  0  0  0  0  0  0  0  0  0  0  0
   -8.4930   18.2000  -31.7980 C   0  0  0  0  0  0  0  0  0  0  0  0
   -8.8740   19.4550  -31.3150 C   0  0  0  0  0  0  0  0  0  0  0  0
   -8.1890   20.6090  -31.7290 C   0  0  0  0  0  0  0  0  0  0  0  0
   -8.6150   21.9580  -31.2300 C   0  0  0  0  0  0  0  0  0  0  0  0
   -7.9690   23.2470  -32.3440 S   0  0  0  0  0  0  0  0  0  0  0  0
   -6.8330   23.8970  -31.1210 C   0  0  0  0  0  0  0  0  0  0  0  0
   -7.2310   24.8750  -30.2540 N   0  0  0  0  0  0  0  0  0  0  0  0
   -6.3760   25.3880  -29.3130 C   0  0  0  0  0  0  0  0  0  0  0  0
   -5.0900   24.9280  -29.2190 N   0  0  0  0  0  0  0  0  0  0  0  0
   -4.6960   23.9550  -30.0800 C   0  0  0  0  0  0  0  0  0  0  0  0
   -5.5290   23.4350  -31.0140 C   0  0  0  0  0  0  0  0  0  0  0  0
   -4.7820   22.4950  -31.6950 C   0  0  0  0  0  0  0  0  0  0  0  0
   -3.5360   22.4770  -31.1580 N   0  0  0  0  0  0  0  0  0  0  0  0
   -3.4890   23.3680  -30.1720 N   0  0  0  0  0  0  0  0  0  0  0  0
   -2.2930   23.6540  -29.3790 C   0  0  0  0  0  0  0  0  0  0  0  0
   -2.5680   23.4630  -27.8700 C   0  0  0  0  0  0  0  0  0  0  0  0
   -1.2560   23.3680  -27.0370 C   0  0  0  0  0  0  0  0  0  0  0  0
   -0.9680   21.9630  -26.4800 C   0  0  0  0  0  0  0  0  0  0  0  0
   -1.3030   20.8800  -27.5100 C   0  0  0  0  0  0  0  0  0  0  0  0
   -2.7890   20.9060  -27.9220 C   0  0  0  0  0  0  0  0  0  0  0  0
   -3.4880   22.2470  -27.6280 C   0  0  0  0  0  0  0  0  0  0  0  0
   -7.1400   20.4930  -32.6560 C   0  0  0  0  0  0  0  0  0  0  0  0
   -4.6805   19.0135  -33.5453 H   0  0  0  0  0  0  0  0  0  0  0  0
   -5.7596   18.2248  -34.7453 H   0  0  0  0  0  0  0  0  0  0  0  0
   -5.5701   20.0111  -34.7453 H   0  0  0  0  0  0  0  0  0  0  0  0
   -7.1339   17.0963  -33.0733 H   0  0  0  0  0  0  0  0  0  0  0  0
   -9.0245   17.2980  -31.4607 H   0  0  0  0  0  0  0  0  0  0  0  0
   -9.7129   19.5391  -30.6085 H   0  0  0  0  0  0  0  0  0  0  0  0
   -9.7135   22.0104  -31.2061 H   0  0  0  0  0  0  0  0  0  0  0  0
   -8.2191   22.1165  -30.2160 H   0  0  0  0  0  0  0  0  0  0  0  0
   -6.7258   26.1749  -28.6286 H   0  0  0  0  0  0  0  0  0  0  0  0
   -4.4400   25.3200  -28.5020 H   0  0  0  0  0  0  0  0  0  0  0  0
   -5.1353   21.8694  -32.5280 H   0  0  0  0  0  0  0  0  0  0  0  0
   -1.4864   22.9722  -29.6864 H   0  0  0  0  0  0  0  0  0  0  0  0
   -2.0010   24.7004  -29.5515 H   0  0  0  0  0  0  0  0  0  0  0  0
   -3.0946   24.3620  -27.5172 H   0  0  0  0  0  0  0  0  0  0  0  0
   -0.4150   23.6635  -27.6815 H   0  0  0  0  0  0  0  0  0  0  0  0
   -1.3805   24.0342  -26.1706 H   0  0  0  0  0  0  0  0  0  0  0  0
    0.0981   21.8922  -26.2186 H   0  0  0  0  0  0  0  0  0  0  0  0
   -1.5964   21.8049  -25.5911 H   0  0  0  0  0  0  0  0  0  0  0  0
   -0.6845   21.0396  -28.4055 H   0  0  0  0  0  0  0  0  0  0  0  0
   -1.0976   19.9021  -27.0500 H   0  0  0  0  0  0  0  0  0  0  0  0
   -2.8536   20.7099  -29.0024 H   0  0  0  0  0  0  0  0  0  0  0  0
   -3.3023   20.1375  -27.3254 H   0  0  0  0  0  0  0  0  0  0  0  0
   -4.3683   22.3359  -28.2816 H   0  0  0  0  0  0  0  0  0  0  0  0
   -3.7696   22.2493  -26.5646 H   0  0  0  0  0  0  0  0  0  0  0  0
   -6.6058   21.3942  -32.9913 H   0  0  0  0  0  0  0  0  0  0  0  0
  1  2  1  0
  2  3  2  0
  3  4  1  0
  4  5  2  0
  5  6  1  0
  6  7  1  0
  7  8  1  0
  8  9  1  0
  9 10  2  0
 10 11  1  0
 11 12  2  0
 12 13  1  0
 13 14  2  0
 14 15  1  0
 15 16  2  0
 16 17  1  0
 17 18  1  0
 18 19  1  0
 19 20  1  0
 20 21  1  0
 21 22  1  0
 22 23  1  0
 23 24  1  0
  6 25  2  0
 25  2  1  0
 14  9  1  0
 24 19  1  0
 17 13  1  0
  1 26  1  0
  1 27  1  0
  1 28  1  0
  3 29  1  0
  4 30  1  0
  5 31  1  0
  7 32  1  0
  7 33  1  0
 11 34  1  0
 12 35  1  0
 15 36  1  0
 18 37  1  0
 18 38  1  0
 19 39  1  0
 20 40  1  0
 20 41  1  0
 21 42  1  0
 21 43  1  0
 22 44  1  0
 22 45  1  0
 23 46  1  0
 23 47  1  0
 24 48  1  0
 24 49  1  0
 25 50  1  0
M  CHG  1  12   1
M  END
>  <UniqueID>  (8) 
7

>  <SMILES>  (8) 
Cc1cccc(CSc2nc[nH+]c3c2cnn3CC2CCCCC2)c1

>  <Energy>  (8) 
89.9349027061508

>  <Genealogy>  (8) 
Cc1cccc(CSc2nc[nH+]c3c2cnn3CC2CCCCC2)c1 (protonated)
Cc1cccc(CSc2nc[nH+]c3c2cnn3CC2CCCCC2)c1 (3D coordinates assigned)
Cc1cccc(CSc2nc[nH+]c3c2cnn3CC2CCCCC2)c1 (nonaromatic ring conformer: 89.9349027061508 kcal/mol)

>  <smiles>  (8) 
Cc1cccc(CSc2ncnc3c2cnn3CC2CCCCC2)c1

>  <score_type>  (8) 
oracle

>  <origin>  (8) 
adg

>  <m_score__min__energy>  (8) 
-8.5500000000000007

>  <m_primary>  (8) 
energy

$$$$
8:0
     RDKit          3D

 38 41  0  0  0  0  0  0  0  0999 V2000
    1.4700   25.3670  -25.7720 C   0  0  0  0  0  0  0  0  0  0  0  0
    1.3480   25.2620  -27.1860 O   0  0  0  0  0  0  0  0  0  0  0  0
    0.2090   24.7820  -27.8500 C   0  0  0  0  0  0  0  0  0  0  0  0
   -1.0380   25.4320  -27.7780 C   0  0  0  0  0  0  0  0  0  0  0  0
   -2.1440   24.9150  -28.4580 C   0  0  0  0  0  0  0  0  0  0  0  0
   -2.0230   23.7440  -29.2240 C   0  0  0  0  0  0  0  0  0  0  0  0
   -3.1650   23.2040  -29.9200 N   0  0  0  0  0  0  0  0  0  0  0  0
   -3.3130   21.8400  -30.0020 C   0  0  0  0  0  0  0  0  0  0  0  0
   -4.3840   21.2890  -30.6430 N   0  0  0  0  0  0  0  0  0  0  0  0
   -5.3210   22.0910  -31.2050 C   0  0  0  0  0  0  0  0  0  0  0  0
   -6.4590   21.6610  -31.9120 C   0  0  0  0  0  0  0  0  0  0  0  0
   -6.8420   20.2440  -32.1220 C   0  0  0  0  0  0  0  0  0  0  0  0
   -5.9530   19.3380  -32.7310 C   0  0  0  0  0  0  0  0  0  0  0  0
   -6.3210   18.0030  -32.9180 C   0  0  0  0  0  0  0  0  0  0  0  0
   -7.5760   17.5550  -32.4960 C   0  0  0  0  0  0  0  0  0  0  0  0
   -8.4630   18.4430  -31.8820 C   0  0  0  0  0  0  0  0  0  0  0  0
   -8.0980   19.7790  -31.6920 C   0  0  0  0  0  0  0  0  0  0  0  0
   -7.1980   22.7380  -32.4140 C   0  0  0  0  0  0  0  0  0  0  0  0
   -6.4500   24.1900  -31.9720 S   0  0  0  0  0  0  0  0  0  0  0  0
   -5.1830   23.4600  -31.1490 C   0  0  0  0  0  0  0  0  0  0  0  0
   -4.0950   24.0320  -30.5020 C   0  0  0  0  0  0  0  0  0  0  0  0
   -3.9640   25.2870  -30.4740 O   0  0  0  0  0  0  0  0  0  0  0  0
   -0.7810   23.0950  -29.2900 C   0  0  0  0  0  0  0  0  0  0  0  0
    0.3250   23.6130  -28.6090 C   0  0  0  0  0  0  0  0  0  0  0  0
    0.7204   24.7219  -25.2904 H   0  0  0  0  0  0  0  0  0  0  0  0
    2.4778   25.0494  -25.4663 H   0  0  0  0  0  0  0  0  0  0  0  0
    1.3060   26.4109  -25.4663 H   0  0  0  0  0  0  0  0  0  0  0  0
   -1.1421   26.3516  -27.1834 H   0  0  0  0  0  0  0  0  0  0  0  0
   -3.1148   25.4281  -28.3930 H   0  0  0  0  0  0  0  0  0  0  0  0
   -2.5578   21.1838  -29.5447 H   0  0  0  0  0  0  0  0  0  0  0  0
   -4.9623   19.6832  -33.0617 H   0  0  0  0  0  0  0  0  0  0  0  0
   -5.6215   17.3031  -33.3984 H   0  0  0  0  0  0  0  0  0  0  0  0
   -7.8650   16.5045  -32.6471 H   0  0  0  0  0  0  0  0  0  0  0  0
   -9.4498   18.0903  -31.5477 H   0  0  0  0  0  0  0  0  0  0  0  0
   -8.7983   20.4719  -31.2025 H   0  0  0  0  0  0  0  0  0  0  0  0
   -8.1222   22.6538  -33.0046 H   0  0  0  0  0  0  0  0  0  0  0  0
   -0.6766   22.1731  -29.8810 H   0  0  0  0  0  0  0  0  0  0  0  0
    1.2944   23.0968  -28.6708 H   0  0  0  0  0  0  0  0  0  0  0  0
  1  2  1  0
  2  3  1  0
  3  4  2  0
  4  5  1  0
  5  6  2  0
  6  7  1  0
  7  8  1  0
  8  9  2  0
  9 10  1  0
 10 11  1  0
 11 12  1  0
 12 13  2  0
 13 14  1  0
 14 15  2  0
 15 16  1  0
 16 17  2  0
 11 18  2  0
 18 19  1  0
 19 20  1  0
 20 21  1  0
 21 22  2  0
  6 23  1  0
 23 24  2  0
 24  3  1  0
 21  7  1  0
 20 10  2  0
 17 12  1  0
  1 25  1  0
  1 26  1  0
  1 27  1  0
  4 28  1  0
  5 29  1  0
  8 30  1  0
 13 31  1  0
 14 32  1  0
 15 33  1  0
 16 34  1  0
 17 35  1  0
 18 36  1  0
 23 37  1  0
 24 38  1  0
M  END
>  <UniqueID>  (9) 
8

>  <SMILES>  (9) 
COc1ccc(-n2cnc3c(-c4ccccc4)csc3c2=O)cc1

>  <Energy>  (9) 
88.16541832806021

>  <Genealogy>  (9) 
COc1ccc(-n2cnc3c(-c4ccccc4)csc3c2=O)cc1 (3D coordinates assigned)
COc1ccc(-n2cnc3c(-c4ccccc4)csc3c2=O)cc1 (optimized conformer: 88.16541832806021 kcal/mol)

>  <smiles>  (9) 
COc1ccc(-n2cnc3c(-c4ccccc4)csc3c2=O)cc1

>  <score_type>  (9) 
oracle

>  <origin>  (9) 
adg

>  <m_score__min__energy>  (9) 
-8.2599999999999998

>  <m_primary>  (9) 
energy

$$$$
9:0
     RDKit          3D

 52 57  0  0  0  0  0  0  0  0999 V2000
    0.2370   24.6150  -28.3140 O   0  0  0  0  0  0  0  0  0  0  0  0
   -0.2130   23.4550  -28.5200 C   0  0  0  0  0  0  0  0  0  0  0  0
    0.5740   22.3530  -28.1860 C   0  0  0  0  0  0  0  0  0  0  0  0
    0.0800   21.0580  -28.4100 C   0  0  0  0  0  0  0  0  0  0  0  0
    0.8710   19.8470  -28.0730 C   0  0  0  0  0  0  0  0  0  0  0  0
    0.2060   18.6310  -27.8340 C   0  0  0  0  0  0  0  0  0  0  0  0
    0.9290   17.4750  -27.5240 C   0  0  0  0  0  0  0  0  0  0  0  0
    2.3270   17.5150  -27.4570 C   0  0  0  0  0  0  0  0  0  0  0  0
    3.0560   16.3690  -27.1480 O   0  0  0  0  0  0  0  0  0  0  0  0
    2.9970   18.7150  -27.7060 C   0  0  0  0  0  0  0  0  0  0  0  0
    2.2780   19.8740  -28.0160 C   0  0  0  0  0  0  0  0  0  0  0  0
   -1.1370   20.9030  -28.9270 O   0  0  0  0  0  0  0  0  0  0  0  0
   -1.9240   21.9220  -29.2620 C   0  0  0  0  0  0  0  0  0  0  0  0
   -3.1870   21.6560  -29.8020 C   0  0  0  0  0  0  0  0  0  0  0  0
   -4.0580   22.7040  -30.1740 C   0  0  0  0  0  0  0  0  0  0  0  0
   -5.4570   22.4520  -30.7750 C   0  0  2  0  0  0  0  0  0  0  0  0
   -5.6020   20.9490  -31.1580 C   0  0  0  0  0  0  0  0  0  0  0  0
   -6.9770   20.6850  -31.8120 C   0  0  1  0  0  0  0  0  0  0  0  0
   -8.0990   21.0430  -30.8170 C   0  0  0  0  0  0  0  0  0  0  0  0
   -7.9930   22.5350  -30.4410 C   0  0  2  0  0  0  0  0  0  0  0  0
   -8.1390   23.4010  -31.7090 C   0  0  0  0  0  0  0  0  0  0  0  0
   -7.0170   23.0440  -32.7050 C   0  0  2  0  0  0  0  0  0  0  0  0
   -7.1170   21.5500  -33.0820 C   0  0  0  0  0  0  0  0  0  0  0  0
   -5.6430   23.3210  -32.0560 C   0  0  0  0  0  0  0  0  0  0  0  0
   -6.6200   22.8050  -29.7900 C   0  0  0  0  0  0  0  0  0  0  0  0
   -3.6110   24.0290  -29.9830 C   0  0  0  0  0  0  0  0  0  0  0  0
   -2.3520   24.3080  -29.4420 C   0  0  0  0  0  0  0  0  0  0  0  0
   -1.9750   25.6360  -29.2800 O   0  0  0  0  0  0  0  0  0  0  0  0
   -1.4930   23.2520  -29.0750 C   0  0  0  0  0  0  0  0  0  0  0  0
    1.5738   22.4973  -27.7505 H   0  0  0  0  0  0  0  0  0  0  0  0
   -0.8917   18.5890  -27.8914 H   0  0  0  0  0  0  0  0  0  0  0  0
    0.3978   16.5311  -27.3321 H   0  0  0  0  0  0  0  0  0  0  0  0
    3.2350   15.6530  -27.8410 H   0  0  0  0  0  0  0  0  0  0  0  0
    4.0954   18.7487  -27.6581 H   0  0  0  0  0  0  0  0  0  0  0  0
    2.8150   20.8128  -28.2166 H   0  0  0  0  0  0  0  0  0  0  0  0
   -3.5073   20.6126  -29.9393 H   0  0  0  0  0  0  0  0  0  0  0  0
   -4.8062   20.6783  -31.8675 H   0  0  0  0  0  0  0  0  0  0  0  0
   -5.5207   20.3408  -30.2451 H   0  0  0  0  0  0  0  0  0  0  0  0
   -7.0557   19.6218  -32.0828 H   0  0  0  0  0  0  0  0  0  0  0  0
   -9.0771   20.8502  -31.2819 H   0  0  0  0  0  0  0  0  0  0  0  0
   -7.9970   20.4275  -29.9110 H   0  0  0  0  0  0  0  0  0  0  0  0
   -8.7936   22.7896  -29.7310 H   0  0  0  0  0  0  0  0  0  0  0  0
   -9.1173   23.2090  -32.1739 H   0  0  0  0  0  0  0  0  0  0  0  0
   -8.0652   24.4646  -31.4381 H   0  0  0  0  0  0  0  0  0  0  0  0
   -7.1242   23.6580  -33.6114 H   0  0  0  0  0  0  0  0  0  0  0  0
   -8.0925   21.3555  -33.5517 H   0  0  0  0  0  0  0  0  0  0  0  0
   -6.3116   21.2966  -33.7871 H   0  0  0  0  0  0  0  0  0  0  0  0
   -4.8475   23.0787  -32.7760 H   0  0  0  0  0  0  0  0  0  0  0  0
   -5.5908   24.3832  -31.7750 H   0  0  0  0  0  0  0  0  0  0  0  0
   -6.5525   23.8691  -29.5195 H   0  0  0  0  0  0  0  0  0  0  0  0
   -6.5255   22.1744  -28.8937 H   0  0  0  0  0  0  0  0  0  0  0  0
   -4.2695   24.8632  -30.2668 H   0  0  0  0  0  0  0  0  0  0  0  0
  1  2  2  0
  2  3  1  0
  3  4  2  0
  4  5  1  0
  5  6  2  0
  6  7  1  0
  7  8  2  0
  8  9  1  0
  8 10  1  0
 10 11  2  0
  4 12  1  0
 12 13  1  0
 13 14  2  0
 14 15  1  0
 16 15  1  1
 16 17  1  0
 17 18  1  0
 18 19  1  0
 19 20  1  0
 20 21  1  0
 21 22  1  0
 22 23  1  0
 22 24  1  0
 20 25  1  0
 15 26  2  0
 26 27  1  0
 27 28  1  0
 27 29  2  0
 29  2  1  0
 11  5  1  0
 29 13  1  0
 24 16  1  0
 25 16  1  0
 23 18  1  0
  3 30  1  0
  6 31  1  0
  7 32  1  0
  9 33  1  0
 10 34  1  0
 11 35  1  0
 14 36  1  0
 17 37  1  0
 17 38  1  0
 18 39  1  6
 19 40  1  0
 19 41  1  0
 20 42  1  1
 21 43  1  0
 21 44  1  0
 22 45  1  6
 23 46  1  0
 23 47  1  0
 24 48  1  0
 24 49  1  0
 25 50  1  0
 25 51  1  0
 26 52  1  0
M  CHG  1  28  -1
M  END
>  <UniqueID>  (10) 
9

>  <SMILES>  (10) 
O=c1cc(-c2ccc(O)cc2)oc2cc(C34CC5CC(CC(C5)C3)C4)cc([O-])c12

>  <Energy>  (10) 
72.0721130706636

>  <Genealogy>  (10) 
O=c1cc(-c2ccc(O)cc2)oc2cc(C34CC5CC(CC(C5)C3)C4)cc([O-])c12 (protonated)
O=c1cc(-c2ccc(O)cc2)oc2cc(C34CC5CC(CC(C5)C3)C4)cc([O-])c12 (3D coordinates assigned)
O=c1cc(-c2ccc(O)cc2)oc2cc(C34CC5CC(CC(C5)C3)C4)cc([O-])c12 (nonaromatic ring conformer: 72.0721130706636 kcal/mol)

>  <smiles>  (10) 
O=c1cc(-c2ccc(O)cc2)oc2cc(C34CC5CC(CC(C5)C3)C4)cc(O)c12

>  <score_type>  (10) 
oracle

>  <origin>  (10) 
adg

>  <m_score__min__energy>  (10) 
-11.140000000000001

>  <m_primary>  (10) 
energy

$$$$
10:0
     RDKit          3D

 42 45  0  0  0  0  0  0  0  0999 V2000
   -2.6930   21.8700  -27.6990 C   0  0  0  0  0  0  0  0  0  0  0  0
   -1.9660   22.9260  -28.4070 N   0  0  0  0  0  0  0  0  0  0  0  0
   -0.5440   23.1250  -28.1300 C   0  0  0  0  0  0  0  0  0  0  0  0
   -2.6330   23.8140  -29.3210 C   0  0  0  0  0  0  0  0  0  0  0  0
   -2.3290   25.0370  -29.3330 O   0  0  0  0  0  0  0  0  0  0  0  0
   -3.6560   23.3340  -30.2670 C   0  0  0  0  0  0  0  0  0  0  0  0
   -4.1080   22.0700  -30.3490 N   0  0  0  0  0  0  0  0  0  0  0  0
   -4.9920   22.1370  -31.3620 C   0  0  0  0  0  0  0  0  0  0  0  0
   -5.8290   21.0080  -31.8190 C   0  0  0  0  0  0  0  0  0  0  0  0
   -5.2190   19.8610  -32.1630 C   0  0  0  0  0  0  0  0  0  0  0  0
   -5.9510   18.7180  -32.8310 C   0  0  0  0  0  0  0  0  0  0  0  0
   -5.6960   18.8170  -34.3240 C   0  0  0  0  0  0  0  0  0  0  0  0
   -5.0340   17.8830  -35.0120 C   0  0  0  0  0  0  0  0  0  0  0  0
   -4.5390   16.6780  -34.3420 C   0  0  0  0  0  0  0  0  0  0  0  0
   -3.9030   15.8060  -34.9900 O   0  0  0  0  0  0  0  0  0  0  0  0
   -4.8000   16.4900  -32.9110 C   0  0  0  0  0  0  0  0  0  0  0  0
   -5.4620   17.4210  -32.2180 C   0  0  0  0  0  0  0  0  0  0  0  0
   -7.3650   18.7920  -32.6210 O   0  0  0  0  0  0  0  0  0  0  0  0
   -8.0370   19.9770  -32.3120 C   0  0  0  0  0  0  0  0  0  0  0  0
   -9.4330   20.0100  -32.3720 C   0  0  0  0  0  0  0  0  0  0  0  0
  -10.1220   21.1730  -32.0220 C   0  0  0  0  0  0  0  0  0  0  0  0
   -9.4160   22.2990  -31.5910 C   0  0  0  0  0  0  0  0  0  0  0  0
   -8.0200   22.2680  -31.5220 C   0  0  0  0  0  0  0  0  0  0  0  0
   -7.3120   21.1130  -31.9100 C   0  0  0  0  0  0  0  0  0  0  0  0
   -5.0830   23.3880  -31.8600 N   0  0  0  0  0  0  0  0  0  0  0  0
   -4.2360   24.0920  -31.1670 O   0  0  0  0  0  0  0  0  0  0  0  0
   -2.5907   22.0186  -26.6139 H   0  0  0  0  0  0  0  0  0  0  0  0
   -3.7569   21.9084  -27.9757 H   0  0  0  0  0  0  0  0  0  0  0  0
   -2.2774   20.8898  -27.9757 H   0  0  0  0  0  0  0  0  0  0  0  0
   -0.3820   23.1477  -27.0422 H   0  0  0  0  0  0  0  0  0  0  0  0
    0.0343   22.2990  -28.5697 H   0  0  0  0  0  0  0  0  0  0  0  0
   -0.2146   24.0780  -28.5697 H   0  0  0  0  0  0  0  0  0  0  0  0
   -3.8500   21.2410  -29.7710 H   0  0  0  0  0  0  0  0  0  0  0  0
   -4.1455   19.7489  -31.9505 H   0  0  0  0  0  0  0  0  0  0  0  0
   -6.0735   19.6979  -34.8639 H   0  0  0  0  0  0  0  0  0  0  0  0
   -4.8592   18.0196  -36.0894 H   0  0  0  0  0  0  0  0  0  0  0  0
   -4.4490   15.5781  -32.4058 H   0  0  0  0  0  0  0  0  0  0  0  0
   -5.6616   17.2374  -31.1519 H   0  0  0  0  0  0  0  0  0  0  0  0
   -9.9899   19.1182  -32.6955 H   0  0  0  0  0  0  0  0  0  0  0  0
  -11.2198   21.2026  -32.0856 H   0  0  0  0  0  0  0  0  0  0  0  0
   -9.9596   23.2117  -31.3054 H   0  0  0  0  0  0  0  0  0  0  0  0
   -7.4708   23.1507  -31.1626 H   0  0  0  0  0  0  0  0  0  0  0  0
  1  2  1  0
  2  3  1  0
  2  4  1  0
  4  5  2  0
  4  6  1  0
  6  7  2  0
  7  8  1  0
  8  9  1  0
  9 10  2  0
 10 11  1  0
 11 12  1  0
 12 13  2  0
 13 14  1  0
 14 15  2  0
 14 16  1  0
 16 17  2  0
 11 18  1  0
 18 19  1  0
 19 20  2  0
 20 21  1  0
 21 22  2  0
 22 23  1  0
 23 24  2  0
  8 25  2  0
 25 26  1  0
 26  6  1  0
 24  9  1  0
 17 11  1  0
 24 19  1  0
  1 27  1  0
  1 28  1  0
  1 29  1  0
  3 30  1  0
  3 31  1  0
  3 32  1  0
  7 33  1  0
 10 34  1  0
 12 35  1  0
 13 36  1  0
 16 37  1  0
 17 38  1  0
 20 39  1  0
 21 40  1  0
 22 41  1  0
 23 42  1  0
M  CHG  1   7   1
M  END
>  <UniqueID>  (11) 
10

>  <SMILES>  (11) 
CN(C)C(=O)c1[nH+]c(C2=CC3(C=CC(=O)C=C3)Oc3ccccc32)no1

>  <Energy>  (11) 
90.80385830711971

>  <Genealogy>  (11) 
CN(C)C(=O)c1[nH+]c(C2=CC3(C=CC(=O)C=C3)Oc3ccccc32)no1 (protonated)
CN(C)C(=O)c1[nH+]c(C2=CC3(C=CC(=O)C=C3)Oc3ccccc32)no1 (3D coordinates assigned)
CN(C)C(=O)c1[nH+]c(C2=CC3(C=CC(=O)C=C3)Oc3ccccc32)no1 (nonaromatic ring conformer: 90.80385830711971 kcal/mol)

>  <smiles>  (11) 
CN(C)C(=O)c1nc(C2=CC3(C=CC(=O)C=C3)Oc3ccccc32)no1

>  <score_type>  (11) 
oracle

>  <origin>  (11) 
adg

>  <m_score__min__energy>  (11) 
-8.9399999999999995

>  <m_primary>  (11) 
energy

$$$$
11:0
     RDKit          3D

 51 53  0  0  0  0  0  0  0  0999 V2000
   -4.7946   24.2687  -26.9481 H   0  0  0  0  0  0  0  0  0  0  0  0
   -3.7770   24.5500  -27.2570 C   0  0  0  0  0  0  0  0  0  0  0  0
   -2.9200   25.1660  -26.3400 C   0  0  0  0  0  0  0  0  0  0  0  0
   -3.2632   25.3559  -25.3123 H   0  0  0  0  0  0  0  0  0  0  0  0
   -1.6250   25.5430  -26.7240 C   0  0  0  0  0  0  0  0  0  0  0  0
   -0.6900   26.1750  -25.7280 C   0  0  0  0  0  0  0  0  0  0  0  0
    0.2241   26.4996  -26.2467 H   0  0  0  0  0  0  0  0  0  0  0  0
   -1.1946   27.0371  -25.2674 H   0  0  0  0  0  0  0  0  0  0  0  0
   -0.3160   25.1780  -24.6270 C   0  0  0  0  0  0  0  0  0  0  0  0
    0.6519   25.4650  -24.1901 H   0  0  0  0  0  0  0  0  0  0  0  0
   -1.0958   25.1899  -23.8513 H   0  0  0  0  0  0  0  0  0  0  0  0
   -0.2180   23.8730  -25.1640 O   0  0  0  0  0  0  0  0  0  0  0  0
   -0.1100   22.9210  -24.1300 C   0  0  0  0  0  0  0  0  0  0  0  0
   -0.1677   23.4292  -23.1562 H   0  0  0  0  0  0  0  0  0  0  0  0
   -0.9315   22.1942  -24.2135 H   0  0  0  0  0  0  0  0  0  0  0  0
    0.8534   22.3967  -24.2135 H   0  0  0  0  0  0  0  0  0  0  0  0
   -1.1900   25.2740  -28.0300 C   0  0  0  0  0  0  0  0  0  0  0  0
   -0.1696   25.5501  -28.3344 H   0  0  0  0  0  0  0  0  0  0  0  0
   -2.0460   24.6570  -28.9470 C   0  0  0  0  0  0  0  0  0  0  0  0
   -1.6973   24.4592  -29.9713 H   0  0  0  0  0  0  0  0  0  0  0  0
   -3.3500   24.2870  -28.5700 C   0  0  0  0  0  0  0  0  0  0  0  0
   -4.2390   23.6520  -29.5170 N   0  0  0  0  0  0  0  0  0  0  0  0
   -5.6970   23.7460  -29.3470 C   0  0  0  0  0  0  0  0  0  0  0  0
   -5.9375   24.6612  -28.7861 H   0  0  0  0  0  0  0  0  0  0  0  0
   -6.0483   22.8602  -28.7975 H   0  0  0  0  0  0  0  0  0  0  0  0
   -6.3960   23.7920  -30.7100 C   0  0  0  0  0  0  0  0  0  0  0  0
   -6.1527   24.7487  -31.1952 H   0  0  0  0  0  0  0  0  0  0  0  0
   -7.4752   23.6833  -30.5270 H   0  0  0  0  0  0  0  0  0  0  0  0
   -5.9700   22.6350  -31.6580 C   0  0  0  0  0  0  0  0  0  0  0  0
   -5.6835   23.1244  -32.6006 H   0  0  0  0  0  0  0  0  0  0  0  0
   -7.1160   21.6790  -31.9410 C   0  0  0  0  0  0  0  0  0  0  0  0
   -8.4450   22.0740  -31.7210 C   0  0  0  0  0  0  0  0  0  0  0  0
   -8.6664   23.0863  -31.3519 H   0  0  0  0  0  0  0  0  0  0  0  0
   -9.4820   21.1790  -31.9720 C   0  0  0  0  0  0  0  0  0  0  0  0
  -10.5256   21.4834  -31.8040 H   0  0  0  0  0  0  0  0  0  0  0  0
   -9.1950   19.8980  -32.4360 C   0  0  0  0  0  0  0  0  0  0  0  0
  -10.0109   19.1887  -32.6392 H   0  0  0  0  0  0  0  0  0  0  0  0
   -7.8640   19.5160  -32.6430 C   0  0  0  0  0  0  0  0  0  0  0  0
   -7.6230   18.3090  -33.0730 N   0  0  0  0  0  0  0  0  0  0  0  0
   -6.5620   17.4260  -32.5990 C   0  0  0  0  0  0  0  0  0  0  0  0
   -6.5543   17.4196  -31.4990 H   0  0  0  0  0  0  0  0  0  0  0  0
   -6.7405   16.4061  -32.9704 H   0  0  0  0  0  0  0  0  0  0  0  0
   -5.5915   17.7868  -32.9704 H   0  0  0  0  0  0  0  0  0  0  0  0
   -6.8570   20.4120  -32.3900 N   0  0  0  0  0  0  0  0  0  0  0  0
   -5.8610   20.1340  -32.5360 H   0  0  0  0  0  0  0  0  0  0  0  0
   -4.7340   21.8590  -31.1570 C   0  0  0  0  0  0  0  0  0  0  0  0
   -4.2970   21.2985  -31.9966 H   0  0  0  0  0  0  0  0  0  0  0  0
   -5.0522   21.1729  -30.3582 H   0  0  0  0  0  0  0  0  0  0  0  0
   -3.6780   22.8120  -30.5880 C   0  0  0  0  0  0  0  0  0  0  0  0
   -3.3079   23.4606  -31.3957 H   0  0  0  0  0  0  0  0  0  0  0  0
   -2.8588   22.2113  -30.1659 H   0  0  0  0  0  0  0  0  0  0  0  0
  1  2  1  0
  2  3  2  0
  3  4  1  0
  3  5  1  0
  5  6  1  0
  6  7  1  0
  6  8  1  0
  6  9  1  0
  9 10  1  0
  9 11  1  0
  9 12  1  0
 12 13  1  0
 13 14  1  0
 13 15  1  0
 13 16  1  0
  5 17  2  0
 17 18  1  0
 17 19  1  0
 19 20  1  0
 19 21  2  0
 21 22  1  0
 22 23  1  0
 23 24  1  0
 23 25  1  0
 23 26  1  0
 26 27  1  0
 26 28  1  0
 26 29  1  0
 29 30  1  0
 29 31  1  0
 31 32  2  0
 32 33  1  0
 32 34  1  0
 34 35  1  0
 34 36  2  0
 36 37  1  0
 36 38  1  0
 38 39  2  0
 39 40  1  0
 40 41  1  0
 40 42  1  0
 40 43  1  0
 38 44  1  0
 44 45  1  0
 29 46  1  0
 46 47  1  0
 46 48  1  0
 46 49  1  0
 49 50  1  0
 49 51  1  0
 21  2  1  0
 49 22  1  0
 44 31  1  0
M  END
>  <UniqueID>  (12) 
11

>  <SMILES>  (12) 
C/N=c1/cccc(C2CCN(c3ccc(CCOC)cc3)CC2)[nH]1

>  <Energy>  (12) 
58.15946169278446

>  <Genealogy>  (12) 
C/N=c1/cccc(C2CCN(c3ccc(CCOC)cc3)CC2)[nH]1 (cis-trans isomerization)
C/N=c1/cccc(C2CCN(c3ccc(CCOC)cc3)CC2)[nH]1 (3D coordinates assigned)
C/N=c1/cccc(C2CCN(c3ccc(CCOC)cc3)CC2)[nH]1 (nonaromatic ring conformer: 58.15946169278446 kcal/mol)

>  <smiles>  (12) 
CN=c1cccc(C2CCN(c3ccc(CCOC)cc3)CC2)[nH]1

>  <score_type>  (12) 
oracle

>  <origin>  (12) 
adg

>  <m_score__min__energy>  (12) 
-7.8899999999999997

>  <m_primary>  (12) 
energy

$$$$
12:0
     RDKit          3D

 42 45  0  0  0  0  0  0  0  0999 V2000
  -10.2460   21.1720  -32.0550 N   0  0  0  0  0  0  0  0  0  0  0  0
   -9.2700   21.7210  -31.7600 C   0  0  0  0  0  0  0  0  0  0  0  0
   -8.0580   22.4050  -31.3960 C   0  0  0  0  0  0  0  0  0  0  0  0
   -7.6130   22.3860  -30.0680 C   0  0  0  0  0  0  0  0  0  0  0  0
   -6.4340   23.0500  -29.7150 C   0  0  0  0  0  0  0  0  0  0  0  0
   -5.6940   23.7520  -30.6820 C   0  0  0  0  0  0  0  0  0  0  0  0
   -4.4350   24.4440  -30.3240 C   0  0  0  0  0  0  0  0  0  0  0  0
   -4.2350   25.6140  -30.7500 O   0  0  0  0  0  0  0  0  0  0  0  0
   -3.4030   23.8160  -29.4790 C   0  0  0  0  0  0  0  0  0  0  0  0
   -2.5970   24.5150  -28.6500 N   0  0  0  0  0  0  0  0  0  0  0  0
   -1.8670   23.5450  -28.0560 C   0  0  0  0  0  0  0  0  0  0  0  0
   -0.7750   23.8410  -27.1040 C   0  0  0  0  0  0  0  0  0  0  0  0
    0.3240   24.6310  -27.4840 C   0  0  0  0  0  0  0  0  0  0  0  0
    1.3420   24.9130  -26.5680 C   0  0  0  0  0  0  0  0  0  0  0  0
    1.2640   24.4230  -25.2600 C   0  0  0  0  0  0  0  0  0  0  0  0
    2.5400   24.7790  -24.1120 Cl  0  0  0  0  0  0  0  0  0  0  0  0
    0.1620   23.6570  -24.8680 C   0  0  0  0  0  0  0  0  0  0  0  0
   -0.8560   23.3720  -25.7830 C   0  0  0  0  0  0  0  0  0  0  0  0
   -2.2310   22.3150  -28.4920 N   0  0  0  0  0  0  0  0  0  0  0  0
   -1.8050   21.0250  -28.0230 C   0  0  0  0  0  0  0  0  0  0  0  0
   -0.5830   20.4890  -28.4620 C   0  0  0  0  0  0  0  0  0  0  0  0
   -0.1660   19.2290  -28.0220 C   0  0  0  0  0  0  0  0  0  0  0  0
   -0.9710   18.4900  -27.1490 C   0  0  0  0  0  0  0  0  0  0  0  0
   -0.5660   17.2680  -26.7240 F   0  0  0  0  0  0  0  0  0  0  0  0
   -2.1970   19.0080  -26.7210 C   0  0  0  0  0  0  0  0  0  0  0  0
   -2.6160   20.2670  -27.1600 C   0  0  0  0  0  0  0  0  0  0  0  0
   -3.1900   22.4900  -29.3820 N   0  0  0  0  0  0  0  0  0  0  0  0
   -6.1380   23.7490  -32.0150 C   0  0  0  0  0  0  0  0  0  0  0  0
   -7.3160   23.0850  -32.3690 C   0  0  0  0  0  0  0  0  0  0  0  0
   -8.1914   21.8484  -29.3022 H   0  0  0  0  0  0  0  0  0  0  0  0
   -6.0831   23.0227  -28.6728 H   0  0  0  0  0  0  0  0  0  0  0  0
    0.3834   25.0295  -28.5076 H   0  0  0  0  0  0  0  0  0  0  0  0
    2.2054   25.5209  -26.8762 H   0  0  0  0  0  0  0  0  0  0  0  0
    0.0958   23.2778  -23.8376 H   0  0  0  0  0  0  0  0  0  0  0  0
   -1.7253   22.7770  -25.4662 H   0  0  0  0  0  0  0  0  0  0  0  0
    0.0490   21.0634  -29.1553 H   0  0  0  0  0  0  0  0  0  0  0  0
    0.7960   18.8186  -28.3627 H   0  0  0  0  0  0  0  0  0  0  0  0
   -2.8322   18.4244  -26.0384 H   0  0  0  0  0  0  0  0  0  0  0  0
   -3.5856   20.6671  -26.8285 H   0  0  0  0  0  0  0  0  0  0  0  0
   -3.7230   21.7230  -29.8530 H   0  0  0  0  0  0  0  0  0  0  0  0
   -5.5541   24.2732  -32.7859 H   0  0  0  0  0  0  0  0  0  0  0  0
   -7.6605   23.0968  -33.4136 H   0  0  0  0  0  0  0  0  0  0  0  0
  1  2  3  0
  2  3  1  0
  3  4  2  0
  4  5  1  0
  5  6  2  0
  6  7  1  0
  7  8  2  0
  7  9  1  0
  9 10  1  0
 10 11  2  0
 11 12  1  0
 12 13  2  0
 13 14  1  0
 14 15  2  0
 15 16  1  0
 15 17  1  0
 17 18  2  0
 11 19  1  0
 19 20  1  0
 20 21  2  0
 21 22  1  0
 22 23  2  0
 23 24  1  0
 23 25  1  0
 25 26  2  0
 19 27  1  0
  6 28  1  0
 28 29  2  0
 29  3  1  0
 27  9  2  0
 18 12  1  0
 26 20  1  0
  4 30  1  0
  5 31  1  0
 13 32  1  0
 14 33  1  0
 17 34  1  0
 18 35  1  0
 21 36  1  0
 22 37  1  0
 25 38  1  0
 26 39  1  0
 27 40  1  0
 28 41  1  0
 29 42  1  0
M  CHG  1  27   1
M  END
>  <UniqueID>  (13) 
12

>  <SMILES>  (13) 
N#Cc1ccc(C(=O)c2nc(-c3ccc(Cl)cc3)n(-c3ccc(F)cc3)[nH+]2)cc1

>  <Energy>  (13) 
92.79291571023927

>  <Genealogy>  (13) 
N#Cc1ccc(C(=O)c2nc(-c3ccc(Cl)cc3)n(-c3ccc(F)cc3)[nH+]2)cc1 (protonated)
N#Cc1ccc(C(=O)c2nc(-c3ccc(Cl)cc3)n(-c3ccc(F)cc3)[nH+]2)cc1 (3D coordinates assigned)
N#Cc1ccc(C(=O)c2nc(-c3ccc(Cl)cc3)n(-c3ccc(F)cc3)[nH+]2)cc1 (optimized conformer: 92.79291571023927 kcal/mol)

>  <smiles>  (13) 
N#Cc1ccc(C(=O)c2nc(-c3ccc(Cl)cc3)n(-c3ccc(F)cc3)n2)cc1

>  <score_type>  (13) 
oracle

>  <origin>  (13) 
adg

>  <m_score__min__energy>  (13) 
-8.1500000000000004

>  <m_primary>  (13) 
energy

$$$$
13:0
     RDKit          3D

 42 45  0  0  1  0  0  0  0  0999 V2000
   -6.1050   25.6570  -29.7420 C   0  0  0  0  0  0  0  0  0  0  0  0
   -5.7730   24.5000  -30.5990 C   0  0  0  0  0  0  0  0  0  0  0  0
   -6.7420   23.7450  -31.2180 C   0  0  0  0  0  0  0  0  0  0  0  0
   -6.4310   22.6580  -32.0230 C   0  0  0  0  0  0  0  0  0  0  0  0
   -7.3800   22.0310  -32.5460 N   0  0  0  0  0  0  0  0  0  0  0  0
   -8.0410   20.9390  -31.9290 C   0  0  0  0  0  0  0  0  0  0  0  0
   -7.2740   19.7190  -32.4400 C   0  0  0  0  0  0  0  0  0  0  0  0
   -6.8160   19.6740  -33.7400 C   0  0  0  0  0  0  0  0  0  0  0  0
   -6.1220   18.5840  -34.2250 C   0  0  0  0  0  0  0  0  0  0  0  0
   -5.9120   17.5440  -33.3440 C   0  0  0  0  0  0  0  0  0  0  0  0
   -5.2360   16.4720  -33.8000 F   0  0  0  0  0  0  0  0  0  0  0  0
   -6.3410   17.5320  -32.0460 C   0  0  0  0  0  0  0  0  0  0  0  0
   -7.0330   18.6470  -31.6010 C   0  0  0  0  0  0  0  0  0  0  0  0
   -5.1550   22.3390  -32.1970 N   0  0  0  0  0  0  0  0  0  0  0  0
   -4.5680   21.3740  -32.8950 C   0  0  0  0  0  0  0  0  0  0  0  0
   -3.1960   21.5630  -32.6810 C   0  0  0  0  0  0  0  0  0  0  0  0
   -2.1160   20.7280  -33.2550 C   0  0  0  0  0  0  0  0  0  0  0  0
   -2.3850   19.4380  -33.6280 C   0  0  0  0  0  0  0  0  0  0  0  0
   -1.4140   18.6210  -34.1670 C   0  0  0  0  0  0  0  0  0  0  0  0
   -0.1500   19.1370  -34.3230 C   0  0  0  0  0  0  0  0  0  0  0  0
    0.8340   18.3650  -34.8500 F   0  0  0  0  0  0  0  0  0  0  0  0
    0.1800   20.4360  -33.9640 C   0  0  0  0  0  0  0  0  0  0  0  0
   -0.8390   21.2190  -33.4240 C   0  0  0  0  0  0  0  0  0  0  0  0
   -2.9840   22.6110  -31.8790 N   0  0  0  0  0  0  0  0  0  0  0  0
   -4.2260   23.0870  -31.5840 C   0  0  0  0  0  0  0  0  0  0  0  0
   -4.5010   24.1460  -30.7990 N   0  0  0  0  0  0  0  0  0  0  0  0
   -6.0215   25.3659  -28.6845 H   0  0  0  0  0  0  0  0  0  0  0  0
   -5.4070   26.4809  -29.9518 H   0  0  0  0  0  0  0  0  0  0  0  0
   -7.1336   25.9855  -29.9518 H   0  0  0  0  0  0  0  0  0  0  0  0
   -7.7989   24.0117  -31.0700 H   0  0  0  0  0  0  0  0  0  0  0  0
   -7.9793   21.0110  -30.8331 H   0  0  0  0  0  0  0  0  0  0  0  0
   -9.1143   20.8994  -32.1668 H   0  0  0  0  0  0  0  0  0  0  0  0
   -7.0085   20.5276  -34.4066 H   0  0  0  0  0  0  0  0  0  0  0  0
   -5.7551   18.5467  -35.2613 H   0  0  0  0  0  0  0  0  0  0  0  0
   -6.1455   16.6753  -31.3843 H   0  0  0  0  0  0  0  0  0  0  0  0
   -7.3965   18.6797  -30.5633 H   0  0  0  0  0  0  0  0  0  0  0  0
   -5.0517   20.5978  -33.5061 H   0  0  0  0  0  0  0  0  0  0  0  0
   -3.4029   19.0432  -33.4940 H   0  0  0  0  0  0  0  0  0  0  0  0
   -1.6442   17.5870  -34.4633 H   0  0  0  0  0  0  0  0  0  0  0  0
    1.1982   20.8296  -34.0992 H   0  0  0  0  0  0  0  0  0  0  0  0
   -0.6187   22.2545  -33.1253 H   0  0  0  0  0  0  0  0  0  0  0  0
   -2.0690   23.0050  -31.5350 H   0  0  0  0  0  0  0  0  0  0  0  0
  1  2  1  0
  2  3  2  0
  3  4  1  0
  4  5  2  0
  5  6  1  0
  6  7  1  0
  7  8  2  0
  8  9  1  0
  9 10  2  0
 10 11  1  0
 10 12  1  0
 12 13  2  0
  4 14  1  0
 14 15  1  0
 15 16  2  0
 16 17  1  0
 17 18  2  0
 18 19  1  0
 19 20  2  0
 20 21  1  0
 20 22  1  0
 22 23  2  0
 16 24  1  0
 24 25  1  0
 25 26  2  0
 26  2  1  0
 13  7  1  0
 25 14  1  0
 23 17  1  0
  1 27  1  0
  1 28  1  0
  1 29  1  0
  3 30  1  0
  6 31  1  0
  6 32  1  0
  8 33  1  0
  9 34  1  0
 12 35  1  0
 13 36  1  0
 15 37  1  0
 18 38  1  0
 19 39  1  0
 22 40  1  0
 23 41  1  0
 24 42  1  0
M  END
>  <smiles>  (14) 
Cc1cc(=NCc2ccc(F)cc2)n2cc(-c3ccc(F)cc3)[nH]c2n1

>  <score_type>  (14) 
oracle

>  <origin>  (14) 
adg

>  <m_score__min__energy>  (14) 
-8.1500000000000004

>  <m_primary>  (14) 
energy

$$$$
14:0
     RDKit          3D

 46 48  0  0  0  0  0  0  0  0999 V2000
   -4.7210   19.3180  -33.5240 C   0  0  0  0  0  0  0  0  0  0  0  0
   -4.9830   20.9640  -32.7970 S   0  0  0  0  0  0  0  0  0  0  0  0
   -6.7240   20.6680  -32.4520 C   0  0  0  0  0  0  0  0  0  0  0  0
   -7.2300   19.3810  -32.6770 C   0  0  0  0  0  0  0  0  0  0  0  0
   -8.5840   19.1070  -32.4770 C   0  0  0  0  0  0  0  0  0  0  0  0
   -9.4470   20.1190  -32.0550 C   0  0  0  0  0  0  0  0  0  0  0  0
   -8.9550   21.4060  -31.8230 C   0  0  0  0  0  0  0  0  0  0  0  0
   -7.5910   21.6920  -32.0000 C   0  0  0  0  0  0  0  0  0  0  0  0
   -7.1260   23.0700  -31.7220 C   0  0  0  0  0  0  0  0  0  0  0  0
   -6.8800   23.8160  -32.7080 O   0  0  0  0  0  0  0  0  0  0  0  0
   -6.9210   23.6030  -30.3070 C   0  0  2  0  0  0  0  0  0  0  0  0
   -6.4790   25.0920  -30.2640 C   0  0  0  0  0  0  0  0  0  0  0  0
   -4.9540   25.2690  -30.1490 C   0  0  0  0  0  0  0  0  0  0  0  0
   -4.2020   24.0880  -30.7760 C   0  0  0  0  0  0  0  0  0  0  0  0
   -4.5480   22.7830  -30.1500 N   0  0  0  0  0  0  0  0  0  0  0  0
   -3.5040   22.3450  -29.1990 C   0  0  0  0  0  0  0  0  0  0  0  0
   -3.0740   23.4840  -28.3080 C   0  0  0  0  0  0  0  0  0  0  0  0
   -1.8370   24.1120  -28.5210 C   0  0  0  0  0  0  0  0  0  0  0  0
   -1.4200   25.1510  -27.6810 C   0  0  0  0  0  0  0  0  0  0  0  0
   -2.2340   25.5650  -26.6230 C   0  0  0  0  0  0  0  0  0  0  0  0
   -1.8280   26.5700  -25.8090 F   0  0  0  0  0  0  0  0  0  0  0  0
   -3.4650   24.9390  -26.4010 C   0  0  0  0  0  0  0  0  0  0  0  0
   -3.8840   23.9010  -27.2380 C   0  0  0  0  0  0  0  0  0  0  0  0
   -5.8970   22.7530  -29.5240 C   0  0  0  0  0  0  0  0  0  0  0  0
   -4.6030   18.5766  -32.7200 H   0  0  0  0  0  0  0  0  0  0  0  0
   -5.5877   19.0496  -34.1459 H   0  0  0  0  0  0  0  0  0  0  0  0
   -3.8138   19.3320  -34.1459 H   0  0  0  0  0  0  0  0  0  0  0  0
   -6.5551   18.5804  -33.0138 H   0  0  0  0  0  0  0  0  0  0  0  0
   -8.9710   18.0924  -32.6522 H   0  0  0  0  0  0  0  0  0  0  0  0
  -10.5152   19.9035  -31.9049 H   0  0  0  0  0  0  0  0  0  0  0  0
   -9.6415   22.2021  -31.4990 H   0  0  0  0  0  0  0  0  0  0  0  0
   -7.9096   23.5319  -29.8298 H   0  0  0  0  0  0  0  0  0  0  0  0
   -6.8195   25.5845  -31.1868 H   0  0  0  0  0  0  0  0  0  0  0  0
   -6.9287   25.5406  -29.3660 H   0  0  0  0  0  0  0  0  0  0  0  0
   -4.6615   26.1944  -30.6668 H   0  0  0  0  0  0  0  0  0  0  0  0
   -4.6917   25.3177  -29.0818 H   0  0  0  0  0  0  0  0  0  0  0  0
   -4.4519   24.0411  -31.8462 H   0  0  0  0  0  0  0  0  0  0  0  0
   -3.1273   24.2573  -30.6136 H   0  0  0  0  0  0  0  0  0  0  0  0
   -3.9033   21.5314  -28.5757 H   0  0  0  0  0  0  0  0  0  0  0  0
   -2.6310   21.9982  -29.7713 H   0  0  0  0  0  0  0  0  0  0  0  0
   -1.1929   23.7864  -29.3511 H   0  0  0  0  0  0  0  0  0  0  0  0
   -0.4510   25.6421  -27.8536 H   0  0  0  0  0  0  0  0  0  0  0  0
   -4.1041   25.2640  -25.5667 H   0  0  0  0  0  0  0  0  0  0  0  0
   -4.8512   23.4087  -27.0586 H   0  0  0  0  0  0  0  0  0  0  0  0
   -6.2504   21.7118  -29.4931 H   0  0  0  0  0  0  0  0  0  0  0  0
   -5.8098   23.1757  -28.5122 H   0  0  0  0  0  0  0  0  0  0  0  0
  1  2  1  0
  2  3  1  0
  3  4  2  0
  4  5  1  0
  5  6  2  0
  6  7  1  0
  7  8  2  0
  8  9  1  0
  9 10  2  0
  9 11  1  0
 11 12  1  0
 12 13  1  0
 13 14  1  0
 14 15  1  0
 15 16  1  0
 16 17  1  0
 17 18  2  0
 18 19  1  0
 19 20  2  0
 20 21  1  0
 20 22  1  0
 22 23  2  0
 15 24  1  0
  8  3  1  0
 24 11  1  0
 23 17  1  0
  1 25  1  0
  1 26  1  0
  1 27  1  0
  4 28  1  0
  5 29  1  0
  6 30  1  0
  7 31  1  0
 11 32  1  1
 12 33  1  0
 12 34  1  0
 13 35  1  0
 13 36  1  0
 14 37  1  0
 14 38  1  0
 16 39  1  0
 16 40  1  0
 18 41  1  0
 19 42  1  0
 22 43  1  0
 23 44  1  0
 24 45  1  0
 24 46  1  0
M  END
>  <UniqueID>  (15) 
13

>  <SMILES>  (15) 
CSc1ccccc1C(=O)[C@@H]1CCCN(Cc2ccc(F)cc2)C1

>  <Energy>  (15) 
60.93454517301617

>  <Genealogy>  (15) 
CSc1ccccc1C(=O)[C@@H]1CCCN(Cc2ccc(F)cc2)C1 (chirality)
CSc1ccccc1C(=O)[C@@H]1CCCN(Cc2ccc(F)cc2)C1 (3D coordinates assigned)
CSc1ccccc1C(=O)[C@@H]1CCCN(Cc2ccc(F)cc2)C1 (nonaromatic ring conformer: 60.93454517301617 kcal/mol)

>  <smiles>  (15) 
CSc1ccccc1C(=O)C1CCCN(Cc2ccc(F)cc2)C1

>  <score_type>  (15) 
oracle

>  <origin>  (15) 
adg

>  <m_score__min__energy>  (15) 
-8.6199999999999992

>  <m_primary>  (15) 
energy

$$$$
15:0
     RDKit          3D

 38 39  0  0  0  0  0  0  0  0999 V2000
   -5.3680   25.3190  -30.4510 Br  0  0  0  0  0  0  0  0  0  0  0  0
   -6.2110   23.7830  -31.2120 C   0  0  0  0  0  0  0  0  0  0  0  0
   -5.4370   22.7800  -31.8040 C   0  0  0  0  0  0  0  0  0  0  0  0
   -6.0540   21.6560  -32.3610 C   0  0  0  0  0  0  0  0  0  0  0  0
   -7.4470   21.5220  -32.3320 C   0  0  0  0  0  0  0  0  0  0  0  0
   -8.0190   20.3750  -32.9030 O   0  0  0  0  0  0  0  0  0  0  0  0
   -9.1970   19.7360  -32.4190 C   0  0  0  0  0  0  0  0  0  0  0  0
   -8.8190   18.4120  -31.7580 C   0  0  0  0  0  0  0  0  0  0  0  0
   -7.2990   18.1660  -31.8370 C   0  0  0  0  0  0  0  0  0  0  0  0
   -6.8240   18.0350  -33.2380 N   0  0  0  0  0  0  0  0  0  0  0  0
   -6.8600   16.6150  -33.7050 C   0  0  0  0  0  0  0  0  0  0  0  0
   -5.4790   15.9430  -33.6990 C   0  0  0  0  0  0  0  0  0  0  0  0
   -4.4930   16.6950  -34.6070 C   0  0  0  0  0  0  0  0  0  0  0  0
   -4.7640   18.2090  -34.6460 C   0  0  0  0  0  0  0  0  0  0  0  0
   -5.4860   18.6720  -33.3750 C   0  0  0  0  0  0  0  0  0  0  0  0
   -8.2230   22.5350  -31.7330 C   0  0  0  0  0  0  0  0  0  0  0  0
   -7.6040   23.6590  -31.1770 C   0  0  0  0  0  0  0  0  0  0  0  0
   -4.3415   22.8756  -31.8314 H   0  0  0  0  0  0  0  0  0  0  0  0
   -5.4399   20.8706  -32.8258 H   0  0  0  0  0  0  0  0  0  0  0  0
   -9.6913   20.3863  -31.6823 H   0  0  0  0  0  0  0  0  0  0  0  0
   -9.8836   19.5461  -33.2572 H   0  0  0  0  0  0  0  0  0  0  0  0
   -9.1243   18.4379  -30.7015 H   0  0  0  0  0  0  0  0  0  0  0  0
   -9.3328   17.5972  -32.2891 H   0  0  0  0  0  0  0  0  0  0  0  0
   -6.7782   19.0116  -31.3640 H   0  0  0  0  0  0  0  0  0  0  0  0
   -7.0824   17.2211  -31.3172 H   0  0  0  0  0  0  0  0  0  0  0  0
   -7.4730   18.5840  -33.8530 H   0  0  0  0  0  0  0  0  0  0  0  0
   -7.5291   16.0457  -33.0430 H   0  0  0  0  0  0  0  0  0  0  0  0
   -7.2170   16.6211  -34.7454 H   0  0  0  0  0  0  0  0  0  0  0  0
   -5.0873   15.9365  -32.6711 H   0  0  0  0  0  0  0  0  0  0  0  0
   -5.5888   14.9161  -34.0778 H   0  0  0  0  0  0  0  0  0  0  0  0
   -3.4721   16.5291  -34.2326 H   0  0  0  0  0  0  0  0  0  0  0  0
   -4.6176   16.3071  -35.6288 H   0  0  0  0  0  0  0  0  0  0  0  0
   -3.8064   18.7436  -34.7305 H   0  0  0  0  0  0  0  0  0  0  0  0
   -5.4057   18.4275  -35.5123 H   0  0  0  0  0  0  0  0  0  0  0  0
   -4.8737   18.4065  -32.5006 H   0  0  0  0  0  0  0  0  0  0  0  0
   -5.6299   19.7606  -33.4401 H   0  0  0  0  0  0  0  0  0  0  0  0
   -9.3186   22.4411  -31.7028 H   0  0  0  0  0  0  0  0  0  0  0  0
   -8.2137   24.4472  -30.7112 H   0  0  0  0  0  0  0  0  0  0  0  0
  1  2  1  0
  2  3  2  0
  3  4  1  0
  4  5  2  0
  5  6  1  0
  6  7  1  0
  7  8  1  0
  8  9  1  0
  9 10  1  0
 10 11  1  0
 11 12  1  0
 12 13  1  0
 13 14  1  0
 14 15  1  0
  5 16  1  0
 16 17  2  0
 17  2  1  0
 15 10  1  0
  3 18  1  0
  4 19  1  0
  7 20  1  0
  7 21  1  0
  8 22  1  0
  8 23  1  0
  9 24  1  0
  9 25  1  0
 10 26  1  0
 11 27  1  0
 11 28  1  0
 12 29  1  0
 12 30  1  0
 13 31  1  0
 13 32  1  0
 14 33  1  0
 14 34  1  0
 15 35  1  0
 15 36  1  0
 16 37  1  0
 17 38  1  0
M  CHG  1  10   1
M  END
>  <UniqueID>  (16) 
14

>  <SMILES>  (16) 
Brc1ccc(OCCC[NH+]2CCCCC2)cc1

>  <Energy>  (16) 
41.31102978506302

>  <Genealogy>  (16) 
Brc1ccc(OCCC[NH+]2CCCCC2)cc1 (protonated)
Brc1ccc(OCCC[NH+]2CCCCC2)cc1 (3D coordinates assigned)
Brc1ccc(OCCC[NH+]2CCCCC2)cc1 (nonaromatic ring conformer: 41.31102978506302 kcal/mol)

>  <smiles>  (16) 
Brc1ccc(OCCCN2CCCCC2)cc1

>  <score_type>  (16) 
oracle

>  <origin>  (16) 
adg

>  <m_score__min__energy>  (16) 
-7.0700000000000003

>  <m_primary>  (16) 
energy

$$$$
16:0
     RDKit          3D

 35 37  0  0  0  0  0  0  0  0999 V2000
   -4.8320   15.4787  -33.4914 H   0  0  0  0  0  0  0  0  0  0  0  0
   -5.2850   16.4810  -33.4980 C   0  0  0  0  0  0  0  0  0  0  0  0
   -4.7320   17.4910  -34.2880 C   0  0  0  0  0  0  0  0  0  0  0  0
   -3.8415   17.2846  -34.8998 H   0  0  0  0  0  0  0  0  0  0  0  0
   -5.3090   18.7640  -34.3020 C   0  0  0  0  0  0  0  0  0  0  0  0
   -4.8659   19.5589  -34.9198 H   0  0  0  0  0  0  0  0  0  0  0  0
   -6.4550   19.0340  -33.5290 C   0  0  0  0  0  0  0  0  0  0  0  0
   -7.0510   20.3060  -33.5180 O   0  0  0  0  0  0  0  0  0  0  0  0
   -6.6540   21.3670  -32.6920 C   0  0  0  0  0  0  0  0  0  0  0  0
   -5.2970   21.7020  -32.6380 C   0  0  0  0  0  0  0  0  0  0  0  0
   -4.5694   21.1289  -33.2313 H   0  0  0  0  0  0  0  0  0  0  0  0
   -4.8590   22.7580  -31.8370 C   0  0  0  0  0  0  0  0  0  0  0  0
   -3.7908   23.0194  -31.8104 H   0  0  0  0  0  0  0  0  0  0  0  0
   -5.7740   23.4850  -31.0680 C   0  0  0  0  0  0  0  0  0  0  0  0
   -5.2150   24.8280  -30.0750 S   0  0  0  0  0  0  0  0  0  0  0  0
   -4.2580   25.6950  -30.8450 O   0  0  0  0  0  0  0  0  0  0  0  0
   -6.4000   25.6540  -29.6620 O   0  0  0  0  0  0  0  0  0  0  0  0
   -4.4180   24.2270  -28.6570 N   0  0  0  0  0  0  0  0  0  0  0  0
   -3.1340   24.0750  -28.5490 C   0  0  0  0  0  0  0  0  0  0  0  0
   -2.3850   22.8920  -27.6620 S   0  0  0  0  0  0  0  0  0  0  0  0
   -0.8200   23.3330  -28.0140 N   0  0  0  0  0  0  0  0  0  0  0  0
   -0.9280   24.4170  -28.8330 C   0  0  0  0  0  0  0  0  0  0  0  0
   -0.0379   24.9275  -29.2294 H   0  0  0  0  0  0  0  0  0  0  0  0
   -2.1920   24.8430  -29.1410 N   0  0  0  0  0  0  0  0  0  0  0  0
   -2.3780   25.6640  -29.7570 H   0  0  0  0  0  0  0  0  0  0  0  0
   -7.1310   23.1350  -31.0880 C   0  0  0  0  0  0  0  0  0  0  0  0
   -7.8494   23.6937  -30.4702 H   0  0  0  0  0  0  0  0  0  0  0  0
   -7.5770   22.0770  -31.8910 C   0  0  0  0  0  0  0  0  0  0  0  0
   -8.9680   21.7000  -31.8430 C   0  0  0  0  0  0  0  0  0  0  0  0
  -10.0840   21.3970  -31.8040 N   0  0  0  0  0  0  0  0  0  0  0  0
   -6.9970   18.0150  -32.7250 C   0  0  0  0  0  0  0  0  0  0  0  0
   -8.1620   18.2660  -31.9140 C   0  0  0  0  0  0  0  0  0  0  0  0
   -9.0970   18.4670  -31.2630 N   0  0  0  0  0  0  0  0  0  0  0  0
   -6.4130   16.7420  -32.7160 C   0  0  0  0  0  0  0  0  0  0  0  0
   -6.8437   15.9454  -32.0915 H   0  0  0  0  0  0  0  0  0  0  0  0
  1  2  1  0
  2  3  2  0
  3  4  1  0
  3  5  1  0
  5  6  1  0
  5  7  2  0
  7  8  1  0
  8  9  1  0
  9 10  2  0
 10 11  1  0
 10 12  1  0
 12 13  1  0
 12 14  2  0
 14 15  1  0
 15 16  2  0
 15 17  2  0
 15 18  1  0
 18 19  2  0
 19 20  1  0
 20 21  1  0
 21 22  2  0
 22 23  1  0
 22 24  1  0
 24 25  1  0
 14 26  1  0
 26 27  1  0
 26 28  2  0
 28 29  1  0
 29 30  3  0
  7 31  1  0
 31 32  1  0
 32 33  3  0
 31 34  2  0
 34 35  1  0
 34  2  1  0
 28  9  1  0
 24 19  1  0
M  END
>  <UniqueID>  (17) 
15

>  <SMILES>  (17) 
N#Cc1ccccc1Oc1ccc(S(=O)(=O)/N=c2\[nH]cns2)cc1C#N

>  <Energy>  (17) 
85.88270848429711

>  <Genealogy>  (17) 
N#Cc1ccccc1Oc1ccc(S(=O)(=O)/N=c2\[nH]cns2)cc1C#N (cis-trans isomerization)
N#Cc1ccccc1Oc1ccc(S(=O)(=O)/N=c2\[nH]cns2)cc1C#N (3D coordinates assigned)
N#Cc1ccccc1Oc1ccc(S(=O)(=O)/N=c2\[nH]cns2)cc1C#N (optimized conformer: 85.88270848429711 kcal/mol)

>  <smiles>  (17) 
N#Cc1ccccc1Oc1ccc(S(=O)(=O)N=c2[nH]cns2)cc1C#N

>  <score_type>  (17) 
oracle

>  <origin>  (17) 
adg

>  <m_score__min__energy>  (17) 
-9.9399999999999995

>  <m_primary>  (17) 
energy

$$$$
17:0
     RDKit          3D

 19 21  0  0  0  0  0  0  0  0999 V2000
    0.0560   22.3310  -28.9450 O   0  0  0  0  0  0  0  0  0  0  0  0
   -0.4980   23.4590  -28.8680 C   0  0  0  0  0  0  0  0  0  0  0  0
    0.1110   24.4920  -28.2150 N   0  0  0  0  0  0  0  0  0  0  0  0
   -0.4840   25.7250  -28.1260 C   0  0  0  0  0  0  0  0  0  0  0  0
    0.2730   26.9360  -27.3370 S   0  0  0  0  0  0  0  0  0  0  0  0
   -1.7090   25.9460  -28.6940 N   0  0  0  0  0  0  0  0  0  0  0  0
   -2.3070   24.9170  -29.3420 C   0  0  0  0  0  0  0  0  0  0  0  0
   -3.4970   24.9410  -29.9560 N   0  0  0  0  0  0  0  0  0  0  0  0
   -3.5970   23.6660  -30.4220 C   0  0  0  0  0  0  0  0  0  0  0  0
   -4.7600   23.1910  -31.1840 C   0  0  0  0  0  0  0  0  0  0  0  0
   -4.8780   21.9570  -31.8110 C   0  0  0  0  0  0  0  0  0  0  0  0
   -6.1050   21.7860  -32.4630 C   0  0  0  0  0  0  0  0  0  0  0  0
   -6.9530   22.8800  -32.3510 C   0  0  0  0  0  0  0  0  0  0  0  0
   -6.1760   24.0620  -31.4410 S   0  0  0  0  0  0  0  0  0  0  0  0
   -2.5350   22.8650  -30.1270 N   0  0  0  0  0  0  0  0  0  0  0  0
   -1.7390   23.6970  -29.4410 C   0  0  0  0  0  0  0  0  0  0  0  0
   -4.0877   21.1920  -31.7966 H   0  0  0  0  0  0  0  0  0  0  0  0
   -6.3722   20.8712  -33.0123 H   0  0  0  0  0  0  0  0  0  0  0  0
   -7.9611   22.9599  -32.7837 H   0  0  0  0  0  0  0  0  0  0  0  0
  1  2  2  0
  2  3  1  0
  3  4  1  0
  4  5  2  0
  4  6  1  0
  6  7  1  0
  7  8  1  0
  8  9  2  0
  9 10  1  0
 10 11  2  0
 11 12  1  0
 12 13  2  0
 13 14  1  0
  9 15  1  0
 15 16  1  0
 16  2  1  0
 16  7  2  0
 14 10  1  0
 11 17  1  0
 12 18  1  0
 13 19  1  0
M  CHG  3   3  -1   6  -1  15  -1
M  END
>  <UniqueID>  (18) 
16

>  <SMILES>  (18) 
O=c1[n-]c(=S)[n-]c2nc(-c3cccs3)[n-]c12

>  <Energy>  (18) 
85.28589169243182

>  <Genealogy>  (18) 
O=c1[n-]c(=S)[n-]c2nc(-c3cccs3)[n-]c12 (protonated)
O=c1[n-]c(=S)[n-]c2nc(-c3cccs3)[n-]c12 (3D coordinates assigned)
O=c1[n-]c(=S)[n-]c2nc(-c3cccs3)[n-]c12 (optimized conformer: 85.28589169243182 kcal/mol)

>  <smiles>  (18) 
O=c1[nH]c(=S)[nH]c2nc(-c3cccs3)[nH]c12

>  <score_type>  (18) 
oracle

>  <origin>  (18) 
adg

>  <m_score__min__energy>  (18) 
-9.0099999999999998

>  <m_primary>  (18) 
energy

$$$$
18:0
     RDKit          3D

 42 44  0  0  0  0  0  0  0  0999 V2000
   -6.4560   25.3040  -29.7970 C   0  0  0  0  0  0  0  0  0  0  0  0
   -5.1660   24.5750  -30.1620 C   0  0  0  0  0  0  0  0  0  0  0  0
   -5.2190   23.0680  -29.8580 C   0  0  0  0  0  0  0  0  0  0  0  0
   -4.7310   22.2000  -31.0140 C   0  0  0  0  0  0  0  0  0  0  0  0
   -5.5460   21.3480  -31.6890 C   0  0  0  0  0  0  0  0  0  0  0  0
   -7.0430   21.4110  -31.6960 C   0  0  0  0  0  0  0  0  0  0  0  0
   -7.7180   22.6380  -31.8390 C   0  0  0  0  0  0  0  0  0  0  0  0
   -9.1080   22.6800  -31.9650 C   0  0  0  0  0  0  0  0  0  0  0  0
   -9.8410   21.4940  -32.0160 C   0  0  0  0  0  0  0  0  0  0  0  0
   -9.1810   20.2660  -31.9690 C   0  0  0  0  0  0  0  0  0  0  0  0
   -7.7900   20.2180  -31.8160 C   0  0  0  0  0  0  0  0  0  0  0  0
   -6.9600   18.6330  -31.9480 S   0  0  0  0  0  0  0  0  0  0  0  0
   -5.7970   19.2880  -33.1910 C   0  0  0  0  0  0  0  0  0  0  0  0
   -4.8410   20.2610  -32.4870 C   0  0  1  0  0  0  0  0  0  0  0  0
   -3.8630   20.9290  -33.4620 C   0  0  0  0  0  0  0  0  0  0  0  0
   -2.9100   21.9000  -32.7230 C   0  0  0  0  0  0  0  0  0  0  0  0
   -3.3120   22.1310  -31.3170 N   0  0  0  0  0  0  0  0  0  0  0  0
   -2.3240   21.9120  -30.2470 C   0  0  0  0  0  0  0  0  0  0  0  0
   -1.7720   23.2340  -29.7070 C   0  0  0  0  0  0  0  0  0  0  0  0
   -6.5500   25.3571  -28.7023 H   0  0  0  0  0  0  0  0  0  0  0  0
   -6.4321   26.3221  -30.2128 H   0  0  0  0  0  0  0  0  0  0  0  0
   -7.3158   24.7583  -30.2128 H   0  0  0  0  0  0  0  0  0  0  0  0
   -4.9803   24.7090  -31.2379 H   0  0  0  0  0  0  0  0  0  0  0  0
   -4.3606   25.0056  -29.5489 H   0  0  0  0  0  0  0  0  0  0  0  0
   -4.5876   22.8668  -28.9800 H   0  0  0  0  0  0  0  0  0  0  0  0
   -6.2731   22.8092  -29.6796 H   0  0  0  0  0  0  0  0  0  0  0  0
   -7.1431   23.5757  -31.8516 H   0  0  0  0  0  0  0  0  0  0  0  0
   -9.6255   23.6489  -32.0241 H   0  0  0  0  0  0  0  0  0  0  0  0
  -10.9378   21.5272  -32.0932 H   0  0  0  0  0  0  0  0  0  0  0  0
   -9.7555   19.3317  -32.0525 H   0  0  0  0  0  0  0  0  0  0  0  0
   -5.2249   18.4615  -33.6377 H   0  0  0  0  0  0  0  0  0  0  0  0
   -6.3470   19.8068  -33.9900 H   0  0  0  0  0  0  0  0  0  0  0  0
   -4.2866   19.6233  -31.7828 H   0  0  0  0  0  0  0  0  0  0  0  0
   -3.2663   20.1511  -33.9608 H   0  0  0  0  0  0  0  0  0  0  0  0
   -4.4438   21.5043  -34.1980 H   0  0  0  0  0  0  0  0  0  0  0  0
   -1.8955   21.4749  -32.7342 H   0  0  0  0  0  0  0  0  0  0  0  0
   -2.9497   22.8677  -33.2445 H   0  0  0  0  0  0  0  0  0  0  0  0
   -2.8056   21.3639  -29.4238 H   0  0  0  0  0  0  0  0  0  0  0  0
   -1.4859   21.3362  -30.6666 H   0  0  0  0  0  0  0  0  0  0  0  0
   -1.7807   23.2131  -28.6072 H   0  0  0  0  0  0  0  0  0  0  0  0
   -0.7405   23.3733  -30.0629 H   0  0  0  0  0  0  0  0  0  0  0  0
   -2.3981   24.0654  -30.0629 H   0  0  0  0  0  0  0  0  0  0  0  0
  1  2  1  0
  2  3  1  0
  3  4  1  0
  4  5  2  0
  5  6  1  0
  6  7  2  0
  7  8  1  0
  8  9  2  0
  9 10  1  0
 10 11  2  0
 11 12  1  0
 12 13  1  0
 13 14  1  0
 14 15  1  0
 15 16  1  0
 16 17  1  0
 17 18  1  0
 18 19  1  0
 17  4  1  0
 14  5  1  0
 11  6  1  0
  1 20  1  0
  1 21  1  0
  1 22  1  0
  2 23  1  0
  2 24  1  0
  3 25  1  0
  3 26  1  0
  7 27  1  0
  8 28  1  0
  9 29  1  0
 10 30  1  0
 13 31  1  0
 13 32  1  0
 14 33  1  1
 15 34  1  0
 15 35  1  0
 16 36  1  0
 16 37  1  0
 18 38  1  0
 18 39  1  0
 19 40  1  0
 19 41  1  0
 19 42  1  0
M  END
>  <UniqueID>  (19) 
17

>  <SMILES>  (19) 
CCCC1=C2c3ccccc3SC[C@H]2CCN1CC

>  <Energy>  (19) 
59.47108816325364

>  <Genealogy>  (19) 
CCCC1=C2c3ccccc3SC[C@H]2CCN1CC (chirality)
CCCC1=C2c3ccccc3SC[C@H]2CCN1CC (3D coordinates assigned)
CCCC1=C2c3ccccc3SC[C@H]2CCN1CC (nonaromatic ring conformer: 59.47108816325364 kcal/mol)

>  <smiles>  (19) 
CCCC1=C2c3ccccc3SCC2CCN1CC

>  <score_type>  (19) 
oracle

>  <origin>  (19) 
adg

>  <m_score__min__energy>  (19) 
-7.6900000000000004

>  <m_primary>  (19) 
energy

$$$$
19:0
     RDKit          3D

 30 31  0  0  0  0  0  0  0  0999 V2000
   -5.3940   18.5910  -34.2260 C   0  0  0  0  0  0  0  0  0  0  0  0
   -6.5470   18.8990  -33.3170 C   0  0  0  0  0  0  0  0  0  0  0  0
   -7.2710   17.8660  -32.7130 C   0  0  0  0  0  0  0  0  0  0  0  0
   -8.3660   18.1660  -31.9060 C   0  0  0  0  0  0  0  0  0  0  0  0
   -8.7330   19.4980  -31.7130 C   0  0  0  0  0  0  0  0  0  0  0  0
   -8.0290   20.5080  -32.3090 N   0  0  0  0  0  0  0  0  0  0  0  0
   -8.4410   21.9020  -32.0910 C   0  0  0  0  0  0  0  0  0  0  0  0
   -7.9470   22.4030  -30.7570 C   0  0  0  0  0  0  0  0  0  0  0  0
   -8.5540   22.0250  -29.7180 O   0  0  0  0  0  0  0  0  0  0  0  0
   -6.7500   23.2780  -30.6240 C   0  0  0  0  0  0  0  0  0  0  0  0
   -5.4720   22.7640  -30.9160 C   0  0  0  0  0  0  0  0  0  0  0  0
   -4.3370   23.5730  -30.8050 C   0  0  0  0  0  0  0  0  0  0  0  0
   -4.4620   24.9020  -30.3980 C   0  0  0  0  0  0  0  0  0  0  0  0
   -5.7210   25.4240  -30.0970 C   0  0  0  0  0  0  0  0  0  0  0  0
   -6.8590   24.6190  -30.2050 C   0  0  0  0  0  0  0  0  0  0  0  0
   -6.9600   20.2240  -33.1170 C   0  0  0  0  0  0  0  0  0  0  0  0
   -4.5051   18.3535  -33.6231 H   0  0  0  0  0  0  0  0  0  0  0  0
   -5.6475   17.7291  -34.8607 H   0  0  0  0  0  0  0  0  0  0  0  0
   -5.1840   19.4645  -34.8607 H   0  0  0  0  0  0  0  0  0  0  0  0
   -6.9763   16.8187  -32.8749 H   0  0  0  0  0  0  0  0  0  0  0  0
   -8.9371   17.3586  -31.4244 H   0  0  0  0  0  0  0  0  0  0  0  0
   -9.5966   19.7383  -31.0755 H   0  0  0  0  0  0  0  0  0  0  0  0
   -8.0223   22.5312  -32.8903 H   0  0  0  0  0  0  0  0  0  0  0  0
   -9.5398   21.9511  -32.1017 H   0  0  0  0  0  0  0  0  0  0  0  0
   -5.3656   21.7165  -31.2343 H   0  0  0  0  0  0  0  0  0  0  0  0
   -3.3441   23.1613  -31.0388 H   0  0  0  0  0  0  0  0  0  0  0  0
   -3.5685   25.5381  -30.3144 H   0  0  0  0  0  0  0  0  0  0  0  0
   -5.8181   26.4710  -29.7741 H   0  0  0  0  0  0  0  0  0  0  0  0
   -7.8473   25.0358  -29.9610 H   0  0  0  0  0  0  0  0  0  0  0  0
   -6.4201   21.0435  -33.6139 H   0  0  0  0  0  0  0  0  0  0  0  0
  1  2  1  0
  2  3  2  0
  3  4  1  0
  4  5  2  0
  5  6  1  0
  6  7  1  0
  7  8  1  0
  8  9  2  0
  8 10  1  0
 10 11  2  0
 11 12  1  0
 12 13  2  0
 13 14  1  0
 14 15  2  0
  6 16  2  0
 16  2  1  0
 15 10  1  0
  1 17  1  0
  1 18  1  0
  1 19  1  0
  3 20  1  0
  4 21  1  0
  5 22  1  0
  7 23  1  0
  7 24  1  0
 11 25  1  0
 12 26  1  0
 13 27  1  0
 14 28  1  0
 15 29  1  0
 16 30  1  0
M  CHG  1   6   1
M  END
>  <UniqueID>  (20) 
18

>  <SMILES>  (20) 
Cc1ccc[n+](CC(=O)c2ccccc2)c1

>  <Energy>  (20) 
31.68699591023217

>  <Genealogy>  (20) 
Cc1ccc[n+](CC(=O)c2ccccc2)c1 (3D coordinates assigned)
Cc1ccc[n+](CC(=O)c2ccccc2)c1 (optimized conformer: 31.68699591023217 kcal/mol)

>  <smiles>  (20) 
Cc1ccc[n+](CC(=O)c2ccccc2)c1

>  <score_type>  (20) 
oracle

>  <origin>  (20) 
adg

>  <m_score__min__energy>  (20) 
-6.0599999999999996

>  <m_primary>  (20) 
energy

$$$$
20:0
     RDKit          3D

 40 42  0  0  0  0  0  0  0  0999 V2000
   -9.8078   18.1766  -32.1195 H   0  0  0  0  0  0  0  0  0  0  0  0
   -9.1060   19.0230  -32.1520 C   0  0  0  0  0  0  0  0  0  0  0  0
   -9.4350   20.3160  -31.9620 N   0  0  0  0  0  0  0  0  0  0  0  0
   -8.3330   21.0400  -32.0870 N   0  0  0  0  0  0  0  0  0  0  0  0
   -8.3220   22.4940  -31.9680 C   0  0  0  0  0  0  0  0  0  0  0  0
   -8.3199   22.7748  -30.9045 H   0  0  0  0  0  0  0  0  0  0  0  0
   -7.4208   22.8949  -32.4549 H   0  0  0  0  0  0  0  0  0  0  0  0
   -9.2170   22.9085  -32.4549 H   0  0  0  0  0  0  0  0  0  0  0  0
   -7.2820   20.2300  -32.3480 C   0  0  0  0  0  0  0  0  0  0  0  0
   -5.8870   20.6770  -32.5520 C   0  0  0  0  0  0  0  0  0  0  0  0
   -5.0180   20.0720  -33.4600 C   0  0  0  0  0  0  0  0  0  0  0  0
   -5.2608   19.2258  -34.1195 H   0  0  0  0  0  0  0  0  0  0  0  0
   -3.5330   20.8610  -33.3720 S   0  0  0  0  0  0  0  0  0  0  0  0
   -4.0550   21.9350  -32.1960 C   0  0  0  0  0  0  0  0  0  0  0  0
   -3.2880   22.8370  -31.6560 N   0  0  0  0  0  0  0  0  0  0  0  0
   -3.1150   23.0400  -30.2470 C   0  0  0  0  0  0  0  0  0  0  0  0
   -2.5760   22.0030  -29.4760 C   0  0  0  0  0  0  0  0  0  0  0  0
   -2.3029   21.0512  -29.9550 H   0  0  0  0  0  0  0  0  0  0  0  0
   -2.3830   22.1690  -28.1040 C   0  0  0  0  0  0  0  0  0  0  0  0
   -1.9713   21.3448  -27.5031 H   0  0  0  0  0  0  0  0  0  0  0  0
   -2.7120   23.3800  -27.4940 C   0  0  0  0  0  0  0  0  0  0  0  0
   -2.5704   23.5051  -26.4104 H   0  0  0  0  0  0  0  0  0  0  0  0
   -3.2210   24.4340  -28.2570 C   0  0  0  0  0  0  0  0  0  0  0  0
   -3.4765   25.3872  -27.7711 H   0  0  0  0  0  0  0  0  0  0  0  0
   -3.4090   24.2830  -29.6460 C   0  0  0  0  0  0  0  0  0  0  0  0
   -3.8710   25.3330  -30.4610 O   0  0  0  0  0  0  0  0  0  0  0  0
   -5.2360   25.6030  -30.7780 C   0  0  0  0  0  0  0  0  0  0  0  0
   -5.3784   25.5129  -31.8650 H   0  0  0  0  0  0  0  0  0  0  0  0
   -5.4809   26.6216  -30.4428 H   0  0  0  0  0  0  0  0  0  0  0  0
   -6.1620   24.6190  -30.0690 C   0  0  0  0  0  0  0  0  0  0  0  0
   -6.0543   24.7335  -28.9803 H   0  0  0  0  0  0  0  0  0  0  0  0
   -7.2037   24.8226  -30.3578 H   0  0  0  0  0  0  0  0  0  0  0  0
   -5.8956   23.5916  -30.3578 H   0  0  0  0  0  0  0  0  0  0  0  0
   -5.3430   21.7080  -31.8480 N   0  0  0  0  0  0  0  0  0  0  0  0
   -5.8490   22.2170  -31.0920 H   0  0  0  0  0  0  0  0  0  0  0  0
   -7.7490   18.9270  -32.3940 C   0  0  0  0  0  0  0  0  0  0  0  0
   -6.9830   17.6730  -32.6690 C   0  0  0  0  0  0  0  0  0  0  0  0
   -6.6957   17.2026  -31.7171 H   0  0  0  0  0  0  0  0  0  0  0  0
   -7.6113   16.9786  -33.2461 H   0  0  0  0  0  0  0  0  0  0  0  0
   -6.0784   17.9150  -33.2461 H   0  0  0  0  0  0  0  0  0  0  0  0
  1  2  1  0
  2  3  2  0
  3  4  1  0
  4  5  1  0
  5  6  1  0
  5  7  1  0
  5  8  1  0
  4  9  1  0
  9 10  1  0
 10 11  2  0
 11 12  1  0
 11 13  1  0
 13 14  1  0
 14 15  2  0
 15 16  1  0
 16 17  2  0
 17 18  1  0
 17 19  1  0
 19 20  1  0
 19 21  2  0
 21 22  1  0
 21 23  1  0
 23 24  1  0
 23 25  2  0
 25 26  1  0
 26 27  1  0
 27 28  1  0
 27 29  1  0
 27 30  1  0
 30 31  1  0
 30 32  1  0
 30 33  1  0
 14 34  1  0
 34 35  1  0
  9 36  2  0
 36 37  1  0
 37 38  1  0
 37 39  1  0
 37 40  1  0
 36  2  1  0
 34 10  1  0
 25 16  1  0
M  END
>  <UniqueID>  (21) 
19

>  <SMILES>  (21) 
CCOc1ccccc1/N=c1\[nH]c(-c2c(C)cnn2C)cs1

>  <Energy>  (21) 
109.14249709377457

>  <Genealogy>  (21) 
CCOc1ccccc1/N=c1\[nH]c(-c2c(C)cnn2C)cs1 (cis-trans isomerization)
CCOc1ccccc1/N=c1\[nH]c(-c2c(C)cnn2C)cs1 (3D coordinates assigned)
CCOc1ccccc1/N=c1\[nH]c(-c2c(C)cnn2C)cs1 (optimized conformer: 109.14249709377457 kcal/mol)

>  <smiles>  (21) 
CCOc1ccccc1N=c1[nH]c(-c2c(C)cnn2C)cs1

>  <score_type>  (21) 
oracle

>  <origin>  (21) 
adg

>  <m_score__min__energy>  (21) 
-8.3000000000000007

>  <m_primary>  (21) 
energy

$$$$
21:0
     RDKit          3D

 47 50  0  0  0  0  0  0  0  0999 V2000
   -8.6970   22.1180  -31.5880 Cl  0  0  0  0  0  0  0  0  0  0  0  0
   -8.0440   20.5830  -32.1450 C   0  0  0  0  0  0  0  0  0  0  0  0
   -8.7910   19.4290  -31.8960 C   0  0  0  0  0  0  0  0  0  0  0  0
   -8.2870   18.1720  -32.2340 C   0  0  0  0  0  0  0  0  0  0  0  0
   -7.0190   18.0460  -32.8250 C   0  0  0  0  0  0  0  0  0  0  0  0
   -6.4840   16.6990  -33.1450 C   0  0  0  0  0  0  0  0  0  0  0  0
   -5.2110   16.2810  -32.7180 C   0  0  0  0  0  0  0  0  0  0  0  0
   -4.7640   15.0400  -33.0420 N   0  0  0  0  0  0  0  0  0  0  0  0
   -5.5250   14.1840  -33.7720 C   0  0  0  0  0  0  0  0  0  0  0  0
   -5.0500   12.9110  -34.1020 C   0  0  0  0  0  0  0  0  0  0  0  0
   -5.8470   12.0480  -34.8620 C   0  0  0  0  0  0  0  0  0  0  0  0
   -7.1160   12.4540  -35.2900 C   0  0  0  0  0  0  0  0  0  0  0  0
   -7.5940   13.7280  -34.9640 C   0  0  0  0  0  0  0  0  0  0  0  0
   -6.8000   14.5950  -34.2070 C   0  0  0  0  0  0  0  0  0  0  0  0
   -7.2390   15.8400  -33.8870 N   0  0  0  0  0  0  0  0  0  0  0  0
   -6.2690   19.2100  -33.0730 C   0  0  0  0  0  0  0  0  0  0  0  0
   -6.7760   20.4790  -32.7580 C   0  0  0  0  0  0  0  0  0  0  0  0
   -5.9680   21.6330  -33.0470 N   0  0  0  0  0  0  0  0  0  0  0  0
   -4.5040   21.6380  -32.9670 C   0  0  0  0  0  0  0  0  0  0  0  0
   -4.0060   22.6330  -31.9100 C   0  0  0  0  0  0  0  0  0  0  0  0
   -5.0930   22.9350  -30.9510 N   0  0  0  0  0  0  0  0  0  0  0  0
   -5.8730   24.1300  -31.3370 C   0  0  0  0  0  0  0  0  0  0  0  0
   -5.2060   25.4470  -30.8770 C   0  0  0  0  0  0  0  0  0  0  0  0
   -3.8790   25.2290  -30.4430 O   0  0  0  0  0  0  0  0  0  0  0  0
   -3.8850   24.3910  -29.3000 C   0  0  0  0  0  0  0  0  0  0  0  0
   -4.6100   23.0510  -29.5610 C   0  0  0  0  0  0  0  0  0  0  0  0
   -9.7840   19.5116  -31.4300 H   0  0  0  0  0  0  0  0  0  0  0  0
   -8.8880   17.2723  -32.0358 H   0  0  0  0  0  0  0  0  0  0  0  0
   -4.5791   16.9571  -32.1233 H   0  0  0  0  0  0  0  0  0  0  0  0
   -4.0534   12.5892  -33.7654 H   0  0  0  0  0  0  0  0  0  0  0  0
   -5.4747   11.0466  -35.1241 H   0  0  0  0  0  0  0  0  0  0  0  0
   -7.7394   11.7697  -35.8843 H   0  0  0  0  0  0  0  0  0  0  0  0
   -8.5911   14.0465  -35.3021 H   0  0  0  0  0  0  0  0  0  0  0  0
   -5.2683   19.1234  -33.5214 H   0  0  0  0  0  0  0  0  0  0  0  0
   -6.4420   22.5650  -33.0410 H   0  0  0  0  0  0  0  0  0  0  0  0
   -4.1564   20.6289  -32.7009 H   0  0  0  0  0  0  0  0  0  0  0  0
   -4.1042   21.9423  -33.9455 H   0  0  0  0  0  0  0  0  0  0  0  0
   -3.1539   22.1950  -31.3695 H   0  0  0  0  0  0  0  0  0  0  0  0
   -3.6926   23.5629  -32.4070 H   0  0  0  0  0  0  0  0  0  0  0  0
   -5.9713   24.1483  -32.4324 H   0  0  0  0  0  0  0  0  0  0  0  0
   -6.8539   24.0623  -30.8438 H   0  0  0  0  0  0  0  0  0  0  0  0
   -5.1955   26.1557  -31.7183 H   0  0  0  0  0  0  0  0  0  0  0  0
   -5.7841   25.8513  -30.0330 H   0  0  0  0  0  0  0  0  0  0  0  0
   -2.8450   24.1803  -29.0100 H   0  0  0  0  0  0  0  0  0  0  0  0
   -4.4258   24.9167  -28.4992 H   0  0  0  0  0  0  0  0  0  0  0  0
   -3.9110   22.2259  -29.3597 H   0  0  0  0  0  0  0  0  0  0  0  0
   -5.4856   23.0080  -28.8966 H   0  0  0  0  0  0  0  0  0  0  0  0
  1  2  1  0
  2  3  2  0
  3  4  1  0
  4  5  2  0
  5  6  1  0
  6  7  2  0
  7  8  1  0
  8  9  2  0
  9 10  1  0
 10 11  2  0
 11 12  1  0
 12 13  2  0
 13 14  1  0
 14 15  2  0
  5 16  1  0
 16 17  2  0
 17 18  1  0
 18 19  1  0
 19 20  1  0
 20 21  1  0
 21 22  1  0
 22 23  1  0
 23 24  1  0
 24 25  1  0
 25 26  1  0
 17  2  1  0
 26 21  1  0
 15  6  1  0
 14  9  1  0
  3 27  1  0
  4 28  1  0
  7 29  1  0
 10 30  1  0
 11 31  1  0
 12 32  1  0
 13 33  1  0
 16 34  1  0
 18 35  1  0
 19 36  1  0
 19 37  1  0
 20 38  1  0
 20 39  1  0
 22 40  1  0
 22 41  1  0
 23 42  1  0
 23 43  1  0
 25 44  1  0
 25 45  1  0
 26 46  1  0
 26 47  1  0
M  END
>  <UniqueID>  (22) 
20

>  <SMILES>  (22) 
Clc1ccc(-c2cnc3ccccc3n2)cc1NCCN1CCOCC1

>  <Energy>  (22) 
73.90402885488896

>  <Genealogy>  (22) 
Clc1ccc(-c2cnc3ccccc3n2)cc1NCCN1CCOCC1 (3D coordinates assigned)
Clc1ccc(-c2cnc3ccccc3n2)cc1NCCN1CCOCC1 (nonaromatic ring conformer: 73.90402885488896 kcal/mol)

>  <smiles>  (22) 
Clc1ccc(-c2cnc3ccccc3n2)cc1NCCN1CCOCC1

>  <score_type>  (22) 
oracle

>  <origin>  (22) 
adg

>  <m_score__min__energy>  (22) 
-9.0299999999999994

>  <m_primary>  (22) 
energy

$$$$
22:0
     RDKit          3D

 60 62  0  0  0  0  0  0  0  0999 V2000
   -3.1350   24.1650  -28.4350 C   0  0  0  0  0  0  0  0  0  0  0  0
   -4.6140   24.5250  -28.3540 C   0  0  0  0  0  0  0  0  0  0  0  0
   -5.2840   24.8720  -29.9730 S   0  0  0  0  0  0  0  0  0  0  0  0
   -4.2570   25.6150  -30.7780 O   0  0  0  0  0  0  0  0  0  0  0  0
   -6.5080   25.7370  -29.8470 O   0  0  0  0  0  0  0  0  0  0  0  0
   -5.7000   23.3690  -30.7930 C   0  0  0  0  0  0  0  0  0  0  0  0
   -6.9100   23.2580  -31.4880 C   0  0  0  0  0  0  0  0  0  0  0  0
   -7.2320   22.0730  -32.1570 C   0  0  0  0  0  0  0  0  0  0  0  0
   -6.3470   20.9840  -32.1410 C   0  0  0  0  0  0  0  0  0  0  0  0
   -6.6680   19.7710  -32.8500 N   0  0  0  0  0  0  0  0  0  0  0  0
   -6.1160   19.5420  -34.1940 C   0  0  0  0  0  0  0  0  0  0  0  0
   -6.1590   18.0530  -34.5750 C   0  0  0  0  0  0  0  0  0  0  0  0
   -5.8360   17.1830  -33.3460 C   0  0  0  0  0  0  0  0  0  0  0  0
   -5.6900   15.7060  -33.7490 C   0  0  0  0  0  0  0  0  0  0  0  0
   -4.3910   15.4590  -34.2910 O   0  0  0  0  0  0  0  0  0  0  0  0
   -3.5640   16.4540  -34.8250 C   0  0  0  0  0  0  0  0  0  0  0  0
   -3.7680   16.9010  -35.9850 O   0  0  0  0  0  0  0  0  0  0  0  0
   -2.5300   17.0010  -34.0010 N   0  0  0  0  0  0  0  0  0  0  0  0
   -2.1290   18.3780  -33.9030 C   0  0  0  0  0  0  0  0  0  0  0  0
   -3.0490   19.3970  -33.5880 C   0  0  0  0  0  0  0  0  0  0  0  0
   -2.6170   20.7190  -33.4450 C   0  0  0  0  0  0  0  0  0  0  0  0
   -1.2710   21.0400  -33.6210 C   0  0  0  0  0  0  0  0  0  0  0  0
   -0.3560   20.0450  -33.9700 C   0  0  0  0  0  0  0  0  0  0  0  0
   -0.7800   18.7220  -34.1480 C   0  0  0  0  0  0  0  0  0  0  0  0
    0.1940   17.7250  -34.4890 N   0  0  0  0  0  0  0  0  0  0  0  0
    0.3450   17.1750  -35.6610 C   0  0  0  0  0  0  0  0  0  0  0  0
    1.5710   17.3760  -36.3660 N   0  0  0  0  0  0  0  0  0  0  0  0
   -0.7010   16.4160  -36.2790 N   0  0  0  0  0  0  0  0  0  0  0  0
   -6.8980   17.3770  -32.2340 C   0  0  0  0  0  0  0  0  0  0  0  0
   -7.5630   18.7660  -32.2590 C   0  0  0  0  0  0  0  0  0  0  0  0
   -5.1290   21.1060  -31.4530 C   0  0  0  0  0  0  0  0  0  0  0  0
   -4.8080   22.2890  -30.7830 C   0  0  0  0  0  0  0  0  0  0  0  0
   -2.7257   24.0654  -27.4189 H   0  0  0  0  0  0  0  0  0  0  0  0
   -3.0184   23.2123  -28.9723 H   0  0  0  0  0  0  0  0  0  0  0  0
   -2.5936   24.9576  -28.9723 H   0  0  0  0  0  0  0  0  0  0  0  0
   -5.1647   23.6821  -27.9109 H   0  0  0  0  0  0  0  0  0  0  0  0
   -4.7195   25.4267  -27.7328 H   0  0  0  0  0  0  0  0  0  0  0  0
   -7.6102   24.1061  -31.5080 H   0  0  0  0  0  0  0  0  0  0  0  0
   -8.1856   21.9939  -32.6996 H   0  0  0  0  0  0  0  0  0  0  0  0
   -6.7055   20.1151  -34.9249 H   0  0  0  0  0  0  0  0  0  0  0  0
   -5.0655   19.8683  -34.1957 H   0  0  0  0  0  0  0  0  0  0  0  0
   -7.1637   17.8010  -34.9453 H   0  0  0  0  0  0  0  0  0  0  0  0
   -5.4120   17.8602  -35.3591 H   0  0  0  0  0  0  0  0  0  0  0  0
   -4.8703   17.5092  -32.9325 H   0  0  0  0  0  0  0  0  0  0  0  0
   -5.8380   15.0728  -32.8618 H   0  0  0  0  0  0  0  0  0  0  0  0
   -6.4444   15.4708  -34.5142 H   0  0  0  0  0  0  0  0  0  0  0  0
   -4.1128   19.1514  -33.4538 H   0  0  0  0  0  0  0  0  0  0  0  0
   -3.3406   21.5082  -33.1930 H   0  0  0  0  0  0  0  0  0  0  0  0
   -0.9305   22.0771  -33.4848 H   0  0  0  0  0  0  0  0  0  0  0  0
    0.7049   20.3017  -34.1061 H   0  0  0  0  0  0  0  0  0  0  0  0
    2.3260   17.9710  -35.9570 H   0  0  0  0  0  0  0  0  0  0  0  0
    1.7200   16.9440  -37.3040 H   0  0  0  0  0  0  0  0  0  0  0  0
   -0.5300   15.9330  -37.1890 H   0  0  0  0  0  0  0  0  0  0  0  0
   -1.6720   16.4020  -35.8940 H   0  0  0  0  0  0  0  0  0  0  0  0
   -7.6798   16.6138  -32.3615 H   0  0  0  0  0  0  0  0  0  0  0  0
   -6.3786   17.2829  -31.2689 H   0  0  0  0  0  0  0  0  0  0  0  0
   -8.4857   18.7118  -32.8553 H   0  0  0  0  0  0  0  0  0  0  0  0
   -7.7880   19.0641  -31.2244 H   0  0  0  0  0  0  0  0  0  0  0  0
   -4.4220   20.2634  -31.4415 H   0  0  0  0  0  0  0  0  0  0  0  0
   -3.8517   22.3727  -30.2459 H   0  0  0  0  0  0  0  0  0  0  0  0
  1  2  1  0
  2  3  1  0
  3  4  2  0
  3  5  2  0
  3  6  1  0
  6  7  2  0
  7  8  1  0
  8  9  2  0
  9 10  1  0
 10 11  1  0
 11 12  1  0
 12 13  1  0
 13 14  1  0
 14 15  1  0
 15 16  1  0
 16 17  2  0
 16 18  1  0
 18 19  1  0
 19 20  2  0
 20 21  1  0
 21 22  2  0
 22 23  1  0
 23 24  2  0
 24 25  1  0
 25 26  2  3
 26 27  1  0
 26 28  1  0
 13 29  1  0
 29 30  1  0
  9 31  1  0
 31 32  2  0
 32  6  1  0
 30 10  1  0
 24 19  1  0
  1 33  1  0
  1 34  1  0
  1 35  1  0
  2 36  1  0
  2 37  1  0
  7 38  1  0
  8 39  1  0
 11 40  1  0
 11 41  1  0
 12 42  1  0
 12 43  1  0
 13 44  1  0
 14 45  1  0
 14 46  1  0
 20 47  1  0
 21 48  1  0
 22 49  1  0
 23 50  1  0
 27 51  1  0
 27 52  1  0
 28 53  1  0
 28 54  1  0
 29 55  1  0
 29 56  1  0
 30 57  1  0
 30 58  1  0
 31 59  1  0
 32 60  1  0
M  CHG  1  18  -1
M  END
>  <UniqueID>  (23) 
21

>  <SMILES>  (23) 
CCS(=O)(=O)c1ccc(N2CCC(COC(=O)[N-]c3ccccc3N=C(N)N)CC2)cc1

>  <Energy>  (23) 
69.57981771024637

>  <Genealogy>  (23) 
CCS(=O)(=O)c1ccc(N2CCC(COC(=O)[N-]c3ccccc3N=C(N)N)CC2)cc1 (protonated)
CCS(=O)(=O)c1ccc(N2CCC(COC(=O)[N-]c3ccccc3N=C(N)N)CC2)cc1 (3D coordinates assigned)
CCS(=O)(=O)c1ccc(N2CCC(COC(=O)[N-]c3ccccc3N=C(N)N)CC2)cc1 (nonaromatic ring conformer: 69.57981771024637 kcal/mol)

>  <smiles>  (23) 
CCS(=O)(=O)c1ccc(N2CCC(COC(=O)Nc3ccccc3N=C(N)N)CC2)cc1

>  <score_type>  (23) 
oracle

>  <origin>  (23) 
adg

>  <m_score__min__energy>  (23) 
-9.4900000000000002

>  <m_primary>  (23) 
energy

$$$$
23:0
     RDKit          3D

 39 41  0  0  0  0  0  0  0  0999 V2000
    0.5120   24.1260  -27.1300 C   0  0  0  0  0  0  0  0  0  0  0  0
    0.2160   24.6280  -28.4280 O   0  0  0  0  0  0  0  0  0  0  0  0
   -0.9890   24.3600  -29.0820 C   0  0  0  0  0  0  0  0  0  0  0  0
   -1.8130   25.2860  -29.3130 O   0  0  0  0  0  0  0  0  0  0  0  0
   -1.2860   22.9830  -29.4990 C   0  0  0  0  0  0  0  0  0  0  0  0
   -0.6610   21.9290  -29.0250 O   0  0  0  0  0  0  0  0  0  0  0  0
   -1.1530   20.8490  -29.5970 C   0  0  0  0  0  0  0  0  0  0  0  0
   -2.1480   21.1970  -30.4900 C   0  0  0  0  0  0  0  0  0  0  0  0
   -2.2270   22.5720  -30.4210 C   0  0  0  0  0  0  0  0  0  0  0  0
   -3.1090   23.4230  -31.1590 N   0  0  0  0  0  0  0  0  0  0  0  0
   -4.5510   24.1020  -30.4850 S   0  0  0  0  0  0  0  0  0  0  0  0
   -4.6590   25.5440  -30.8920 O   0  0  0  0  0  0  0  0  0  0  0  0
   -4.4770   24.0260  -28.9850 O   0  0  0  0  0  0  0  0  0  0  0  0
   -5.9530   23.2280  -31.0920 C   0  0  0  0  0  0  0  0  0  0  0  0
   -7.2050   23.8520  -31.0970 C   0  0  0  0  0  0  0  0  0  0  0  0
   -8.3230   23.1770  -31.5880 C   0  0  0  0  0  0  0  0  0  0  0  0
   -8.1970   21.8760  -32.0830 C   0  0  0  0  0  0  0  0  0  0  0  0
   -6.9450   21.2350  -32.0890 C   0  0  0  0  0  0  0  0  0  0  0  0
   -6.8060   19.8580  -32.6260 C   0  0  0  0  0  0  0  0  0  0  0  0
   -7.3640   18.7620  -31.9420 C   0  0  0  0  0  0  0  0  0  0  0  0
   -7.2340   17.4670  -32.4520 C   0  0  0  0  0  0  0  0  0  0  0  0
   -6.5470   17.2510  -33.6490 C   0  0  0  0  0  0  0  0  0  0  0  0
   -5.9900   18.3300  -34.3390 C   0  0  0  0  0  0  0  0  0  0  0  0
   -5.3290   18.1190  -35.5040 F   0  0  0  0  0  0  0  0  0  0  0  0
   -6.1160   19.6270  -33.8330 C   0  0  0  0  0  0  0  0  0  0  0  0
   -5.8240   21.9220  -31.5860 C   0  0  0  0  0  0  0  0  0  0  0  0
    0.1077   24.8116  -26.3707 H   0  0  0  0  0  0  0  0  0  0  0  0
    0.0549   23.1330  -27.0079 H   0  0  0  0  0  0  0  0  0  0  0  0
    1.6022   24.0453  -27.0079 H   0  0  0  0  0  0  0  0  0  0  0  0
   -0.8202   19.8205  -29.3933 H   0  0  0  0  0  0  0  0  0  0  0  0
   -2.7475   20.5232  -31.1197 H   0  0  0  0  0  0  0  0  0  0  0  0
   -7.3083   24.8775  -30.7128 H   0  0  0  0  0  0  0  0  0  0  0  0
   -9.3063   23.6701  -31.5855 H   0  0  0  0  0  0  0  0  0  0  0  0
   -9.0822   21.3502  -32.4702 H   0  0  0  0  0  0  0  0  0  0  0  0
   -7.9064   18.9256  -30.9991 H   0  0  0  0  0  0  0  0  0  0  0  0
   -7.6734   16.6167  -31.9099 H   0  0  0  0  0  0  0  0  0  0  0  0
   -6.4447   16.2311  -34.0481 H   0  0  0  0  0  0  0  0  0  0  0  0
   -5.6739   20.4726  -34.3803 H   0  0  0  0  0  0  0  0  0  0  0  0
   -4.8398   21.4308  -31.5804 H   0  0  0  0  0  0  0  0  0  0  0  0
  1  2  1  0
  2  3  1  0
  3  4  2  0
  3  5  1  0
  5  6  1  0
  6  7  1  0
  7  8  2  0
  8  9  1  0
  9 10  1  0
 10 11  1  0
 11 12  2  0
 11 13  2  0
 11 14  1  0
 14 15  2  0
 15 16  1  0
 16 17  2  0
 17 18  1  0
 18 19  1  0
 19 20  2  0
 20 21  1  0
 21 22  2  0
 22 23  1  0
 23 24  1  0
 23 25  2  0
 18 26  2  0
  9  5  2  0
 26 14  1  0
 25 19  1  0
  1 27  1  0
  1 28  1  0
  1 29  1  0
  7 30  1  0
  8 31  1  0
 15 32  1  0
 16 33  1  0
 17 34  1  0
 20 35  1  0
 21 36  1  0
 22 37  1  0
 25 38  1  0
 26 39  1  0
M  CHG  1  10  -1
M  END
>  <UniqueID>  (24) 
22

>  <SMILES>  (24) 
COC(=O)c1occc1[N-]S(=O)(=O)c1cccc(-c2cccc(F)c2)c1

>  <Energy>  (24) 
73.15337709239328

>  <Genealogy>  (24) 
COC(=O)c1occc1[N-]S(=O)(=O)c1cccc(-c2cccc(F)c2)c1 (protonated)
COC(=O)c1occc1[N-]S(=O)(=O)c1cccc(-c2cccc(F)c2)c1 (3D coordinates assigned)
COC(=O)c1occc1[N-]S(=O)(=O)c1cccc(-c2cccc(F)c2)c1 (optimized conformer: 73.15337709239328 kcal/mol)

>  <smiles>  (24) 
COC(=O)c1occc1NS(=O)(=O)c1cccc(-c2cccc(F)c2)c1

>  <score_type>  (24) 
oracle

>  <origin>  (24) 
adg

>  <m_score__min__energy>  (24) 
-10.06

>  <m_primary>  (24) 
energy

$$$$
24:0
     RDKit          3D

 47 51  0  0  0  0  0  0  0  0999 V2000
   -1.3030   23.1980  -28.2500 O   0  0  0  0  0  0  0  0  0  0  0  0
   -2.4670   23.6480  -28.5100 C   0  0  0  0  0  0  0  0  0  0  0  0
   -2.8220   24.8510  -27.8380 N   0  0  0  0  0  0  0  0  0  0  0  0
   -1.9520   25.5210  -26.9330 C   0  0  0  0  0  0  0  0  0  0  0  0
   -2.1560   25.5500  -25.5680 C   0  0  0  0  0  0  0  0  0  0  0  0
   -1.2490   26.2320  -24.7660 C   0  0  0  0  0  0  0  0  0  0  0  0
   -0.1610   26.8710  -25.3220 C   0  0  0  0  0  0  0  0  0  0  0  0
    0.8160   27.6020  -24.4890 C   0  0  0  0  0  0  0  0  0  0  0  0
    2.0580   27.9170  -24.9030 N   0  0  0  0  0  0  0  0  0  0  0  0
    2.6580   28.5800  -23.8760 C   0  0  0  0  0  0  0  0  0  0  0  0
    3.9010   29.1480  -23.6840 C   0  0  0  0  0  0  0  0  0  0  0  0
    4.2690   29.7780  -22.5200 C   0  0  0  0  0  0  0  0  0  0  0  0
    3.3600   29.8530  -21.4810 C   0  0  0  0  0  0  0  0  0  0  0  0
    2.1000   29.2960  -21.6300 C   0  0  0  0  0  0  0  0  0  0  0  0
    1.7590   28.6640  -22.8280 C   0  0  0  0  0  0  0  0  0  0  0  0
    0.6270   28.0550  -23.2220 N   0  0  0  0  0  0  0  0  0  0  0  0
    0.0290   26.8340  -26.6890 C   0  0  0  0  0  0  0  0  0  0  0  0
   -0.8540   26.1650  -27.5010 C   0  0  0  0  0  0  0  0  0  0  0  0
   -3.3580   22.9710  -29.4310 C   0  0  0  0  0  0  0  0  0  0  0  0
   -4.6780   23.3220  -29.6260 C   0  0  0  0  0  0  0  0  0  0  0  0
   -5.4840   22.6410  -30.5180 C   0  0  0  0  0  0  0  0  0  0  0  0
   -4.9810   21.5920  -31.2320 C   0  0  0  0  0  0  0  0  0  0  0  0
   -5.8580   20.9260  -32.1370 N   0  0  0  0  0  0  0  0  0  0  0  0
   -5.4690   20.2490  -33.2410 C   0  0  0  0  0  0  0  0  0  0  0  0
   -6.5910   19.7490  -33.8550 C   0  0  0  0  0  0  0  0  0  0  0  0
   -7.7020   20.1210  -33.1180 C   0  0  0  0  0  0  0  0  0  0  0  0
   -7.1970   20.8580  -32.0500 C   0  0  0  0  0  0  0  0  0  0  0  0
   -3.6590   21.2130  -31.0600 C   0  0  0  0  0  0  0  0  0  0  0  0
   -2.8630   21.9090  -30.1590 C   0  0  0  0  0  0  0  0  0  0  0  0
   -3.7550   25.2890  -27.9910 H   0  0  0  0  0  0  0  0  0  0  0  0
   -3.0232   25.0410  -25.1220 H   0  0  0  0  0  0  0  0  0  0  0  0
   -1.4005   26.2624  -23.6769 H   0  0  0  0  0  0  0  0  0  0  0  0
    4.6330   29.0936  -24.5032 H   0  0  0  0  0  0  0  0  0  0  0  0
    5.2725   30.2165  -22.4161 H   0  0  0  0  0  0  0  0  0  0  0  0
    3.6357   30.3525  -20.5405 H   0  0  0  0  0  0  0  0  0  0  0  0
    1.3711   29.3513  -20.8080 H   0  0  0  0  0  0  0  0  0  0  0  0
   -0.2510   27.9450  -22.6590 H   0  0  0  0  0  0  0  0  0  0  0  0
    0.8962   27.3454  -27.1323 H   0  0  0  0  0  0  0  0  0  0  0  0
   -0.6962   26.1377  -28.5893 H   0  0  0  0  0  0  0  0  0  0  0  0
   -5.0989   24.1644  -29.0575 H   0  0  0  0  0  0  0  0  0  0  0  0
   -6.5326   22.9446  -30.6530 H   0  0  0  0  0  0  0  0  0  0  0  0
   -4.4329   20.1209  -33.5874 H   0  0  0  0  0  0  0  0  0  0  0  0
   -6.6046   19.1521  -34.7789 H   0  0  0  0  0  0  0  0  0  0  0  0
   -8.7554   19.8855  -33.3300 H   0  0  0  0  0  0  0  0  0  0  0  0
   -7.8033   21.3158  -31.2545 H   0  0  0  0  0  0  0  0  0  0  0  0
   -3.2442   20.3694  -31.6313 H   0  0  0  0  0  0  0  0  0  0  0  0
   -1.8142   21.6064  -30.0230 H   0  0  0  0  0  0  0  0  0  0  0  0
  1  2  2  0
  2  3  1  0
  3  4  1  0
  4  5  2  0
  5  6  1  0
  6  7  2  0
  7  8  1  0
  8  9  2  0
  9 10  1  0
 10 11  2  0
 11 12  1  0
 12 13  2  0
 13 14  1  0
 14 15  2  0
 15 16  1  0
  7 17  1  0
 17 18  2  0
  2 19  1  0
 19 20  2  0
 20 21  1  0
 21 22  2  0
 22 23  1  0
 23 24  1  0
 24 25  2  0
 25 26  1  0
 26 27  2  0
 22 28  1  0
 28 29  2  0
 18  4  1  0
 29 19  1  0
 16  8  1  0
 27 23  1  0
 15 10  1  0
  3 30  1  0
  5 31  1  0
  6 32  1  0
 11 33  1  0
 12 34  1  0
 13 35  1  0
 14 36  1  0
 16 37  1  0
 17 38  1  0
 18 39  1  0
 20 40  1  0
 21 41  1  0
 24 42  1  0
 25 43  1  0
 26 44  1  0
 27 45  1  0
 28 46  1  0
 29 47  1  0
M  END
>  <smiles>  (25) 
O=C(Nc1ccc(-c2nc3ccccc3[nH]2)cc1)c1ccc(-n2cccc2)cc1

>  <score_type>  (25) 
oracle

>  <origin>  (25) 
adg

>  <m_score__min__energy>  (25) 
-8.2699999999999996

>  <m_primary>  (25) 
energy

$$$$
25:0
     RDKit          3D

 45 47  0  0  0  0  0  0  0  0999 V2000
   -4.3281   21.2636  -29.3747 H   0  0  0  0  0  0  0  0  0  0  0  0
   -4.2270   22.3170  -29.6750 C   0  0  0  0  0  0  0  0  0  0  0  0
   -3.3580   23.1330  -29.0230 N   0  0  0  0  0  0  0  0  0  0  0  0
   -3.2030   24.4380  -29.3650 C   0  0  0  0  0  0  0  0  0  0  0  0
   -2.3580   25.1670  -28.6900 N   0  0  0  0  0  0  0  0  0  0  0  0
   -0.9280   25.3380  -28.9560 C   0  0  0  0  0  0  0  0  0  0  0  0
   -0.5616   26.2110  -28.3959 H   0  0  0  0  0  0  0  0  0  0  0  0
   -0.7919   25.4833  -30.0378 H   0  0  0  0  0  0  0  0  0  0  0  0
   -0.1400   24.1190  -28.5370 C   0  0  0  0  0  0  0  0  0  0  0  0
    1.0400   24.2530  -28.2490 O   0  0  0  0  0  0  0  0  0  0  0  0
   -0.7940   22.8250  -28.4110 N   0  0  0  0  0  0  0  0  0  0  0  0
   -1.8240   23.0190  -28.4450 H   0  0  0  0  0  0  0  0  0  0  0  0
   -0.6150   22.1890  -27.0830 C   0  0  0  0  0  0  0  0  0  0  0  0
    0.3888   21.7397  -27.0585 H   0  0  0  0  0  0  0  0  0  0  0  0
   -0.7690   22.9929  -26.3481 H   0  0  0  0  0  0  0  0  0  0  0  0
   -1.6300   21.0920  -26.7130 C   0  0  0  0  0  0  0  0  0  0  0  0
   -1.8416   21.1662  -25.6361 H   0  0  0  0  0  0  0  0  0  0  0  0
   -2.5218   21.2625  -27.3339 H   0  0  0  0  0  0  0  0  0  0  0  0
   -1.1490   19.6680  -27.0120 C   0  0  0  0  0  0  0  0  0  0  0  0
   -0.3239   19.4213  -26.3277 H   0  0  0  0  0  0  0  0  0  0  0  0
   -2.0010   18.9864  -26.8721 H   0  0  0  0  0  0  0  0  0  0  0  0
   -0.6560   19.5170  -28.4550 C   0  0  0  0  0  0  0  0  0  0  0  0
    0.4378   19.6335  -28.4527 H   0  0  0  0  0  0  0  0  0  0  0  0
   -0.9975   18.5255  -28.7870 H   0  0  0  0  0  0  0  0  0  0  0  0
   -1.2380   20.5240  -29.4680 C   0  0  0  0  0  0  0  0  0  0  0  0
   -1.1763   20.0629  -30.4648 H   0  0  0  0  0  0  0  0  0  0  0  0
   -2.2575   20.7281  -29.1088 H   0  0  0  0  0  0  0  0  0  0  0  0
   -0.5650   21.9090  -29.5560 C   0  0  0  0  0  0  0  0  0  0  0  0
    0.5197   21.7495  -29.6459 H   0  0  0  0  0  0  0  0  0  0  0  0
   -1.0247   22.4039  -30.4242 H   0  0  0  0  0  0  0  0  0  0  0  0
   -3.9600   24.9460  -30.4370 C   0  0  0  0  0  0  0  0  0  0  0  0
   -3.8491   25.9960  -30.7456 H   0  0  0  0  0  0  0  0  0  0  0  0
   -4.8280   24.1300  -31.0870 N   0  0  0  0  0  0  0  0  0  0  0  0
   -4.9950   22.8260  -30.7340 C   0  0  0  0  0  0  0  0  0  0  0  0
   -5.9600   21.9820  -31.4870 C   0  0  0  0  0  0  0  0  0  0  0  0
   -7.3410   22.1340  -31.2680 C   0  0  0  0  0  0  0  0  0  0  0  0
   -7.6995   22.8805  -30.5440 H   0  0  0  0  0  0  0  0  0  0  0  0
   -8.2620   21.3440  -31.9630 C   0  0  0  0  0  0  0  0  0  0  0  0
   -9.3401   21.4770  -31.7899 H   0  0  0  0  0  0  0  0  0  0  0  0
   -7.8160   20.3870  -32.8760 C   0  0  0  0  0  0  0  0  0  0  0  0
   -8.5421   19.7672  -33.4225 H   0  0  0  0  0  0  0  0  0  0  0  0
   -6.4480   20.2170  -33.0950 C   0  0  0  0  0  0  0  0  0  0  0  0
   -6.0975   19.4614  -33.8135 H   0  0  0  0  0  0  0  0  0  0  0  0
   -5.5220   21.0040  -32.4040 C   0  0  0  0  0  0  0  0  0  0  0  0
   -4.4452   20.8596  -32.5765 H   0  0  0  0  0  0  0  0  0  0  0  0
  1  2  1  0
  2  3  1  0
  3  4  1  0
  4  5  2  0
  5  6  1  0
  6  7  1  0
  6  8  1  0
  6  9  1  0
  9 10  2  0
  9 11  1  0
 11 12  1  0
 11 13  1  0
 13 14  1  0
 13 15  1  0
 13 16  1  0
 16 17  1  0
 16 18  1  0
 16 19  1  0
 19 20  1  0
 19 21  1  0
 19 22  1  0
 22 23  1  0
 22 24  1  0
 22 25  1  0
 25 26  1  0
 25 27  1  0
 25 28  1  0
 28 29  1  0
 28 30  1  0
  4 31  1  0
 31 32  1  0
 31 33  2  0
 33 34  1  0
 34 35  1  0
 35 36  2  0
 36 37  1  0
 36 38  1  0
 38 39  1  0
 38 40  2  0
 40 41  1  0
 40 42  1  0
 42 43  1  0
 42 44  2  0
 44 45  1  0
 34  2  2  0
 44 35  1  0
 28 11  1  0
M  CHG  2   3  -1  11   1
M  END
>  <UniqueID>  (26) 
23

>  <SMILES>  (26) 
O=C(C/N=c1\cnc(-c2ccccc2)c[n-]1)[NH+]1CCCCCC1

>  <Energy>  (26) 
66.3989419459636

>  <Genealogy>  (26) 
O=C(CN=c1cnc(-c2ccccc2)c[n-]1)[NH+]1CCCCCC1 (protonated)
O=C(C/N=c1\cnc(-c2ccccc2)c[n-]1)[NH+]1CCCCCC1 (cis-trans isomerization)
O=C(C/N=c1\cnc(-c2ccccc2)c[n-]1)[NH+]1CCCCCC1 (3D coordinates assigned)
O=C(C/N=c1\cnc(-c2ccccc2)c[n-]1)[NH+]1CCCCCC1 (nonaromatic ring conformer: 66.3989419459636 kcal/mol)

>  <smiles>  (26) 
O=C(CN=c1cnc(-c2ccccc2)c[nH]1)N1CCCCCC1

>  <score_type>  (26) 
oracle

>  <origin>  (26) 
adg

>  <m_score__min__energy>  (26) 
-7.1600000000000001

>  <m_primary>  (26) 
energy

$$$$
26:0
     RDKit          3D

 23 23  0  0  0  0  0  0  0  0999 V2000
   -9.1180   18.2380  -31.6290 C   0  0  0  0  0  0  0  0  0  0  0  0
   -8.3950   19.4960  -31.8300 N   0  0  0  0  0  0  0  0  0  0  0  0
   -7.2380   19.5040  -32.5570 C   0  0  0  0  0  0  0  0  0  0  0  0
   -6.5160   20.6860  -32.7280 C   0  0  0  0  0  0  0  0  0  0  0  0
   -6.9770   21.8710  -32.1430 C   0  0  0  0  0  0  0  0  0  0  0  0
   -6.1920   23.1500  -32.2920 C   0  0  0  0  0  0  0  0  0  0  0  0
   -4.8130   23.0460  -31.6260 C   0  0  0  0  0  0  0  0  0  0  0  0
   -4.4900   24.2470  -30.8600 N   0  0  0  0  0  0  0  0  0  0  0  0
   -5.3720   24.8730  -30.1880 C   0  0  0  0  0  0  0  0  0  0  0  0
   -6.4900   25.6670  -29.3430 S   0  0  0  0  0  0  0  0  0  0  0  0
   -8.1480   21.8400  -31.3770 C   0  0  0  0  0  0  0  0  0  0  0  0
   -8.8440   20.6380  -31.2280 C   0  0  0  0  0  0  0  0  0  0  0  0
   -9.2281   18.0465  -30.5514 H   0  0  0  0  0  0  0  0  0  0  0  0
  -10.1131   18.3089  -32.0923 H   0  0  0  0  0  0  0  0  0  0  0  0
   -8.5557   17.4139  -32.0923 H   0  0  0  0  0  0  0  0  0  0  0  0
   -6.8727   18.5711  -33.0112 H   0  0  0  0  0  0  0  0  0  0  0  0
   -5.5888   20.6863  -33.3199 H   0  0  0  0  0  0  0  0  0  0  0  0
   -6.0565   23.3633  -33.3626 H   0  0  0  0  0  0  0  0  0  0  0  0
   -6.7527   23.9578  -31.7990 H   0  0  0  0  0  0  0  0  0  0  0  0
   -4.8090   22.1795  -30.9484 H   0  0  0  0  0  0  0  0  0  0  0  0
   -4.0580   22.9314  -32.4178 H   0  0  0  0  0  0  0  0  0  0  0  0
   -8.5181   22.7569  -30.8951 H   0  0  0  0  0  0  0  0  0  0  0  0
   -9.7610   20.6103  -30.6211 H   0  0  0  0  0  0  0  0  0  0  0  0
  1  2  1  0
  2  3  2  0
  3  4  1  0
  4  5  2  0
  5  6  1  0
  6  7  1  0
  7  8  1  0
  8  9  2  0
  9 10  2  0
  5 11  1  0
 11 12  2  0
 12  2  1  0
  1 13  1  0
  1 14  1  0
  1 15  1  0
  3 16  1  0
  4 17  1  0
  6 18  1  0
  6 19  1  0
  7 20  1  0
  7 21  1  0
 11 22  1  0
 12 23  1  0
M  CHG  1   2   1
M  END
>  <UniqueID>  (27) 
24

>  <SMILES>  (27) 
C[n+]1ccc(CCN=C=S)cc1

>  <Energy>  (27) 
17.138436291409455

>  <Genealogy>  (27) 
C[n+]1ccc(CCN=C=S)cc1 (3D coordinates assigned)
C[n+]1ccc(CCN=C=S)cc1 (optimized conformer: 17.138436291409455 kcal/mol)

>  <smiles>  (27) 
C[n+]1ccc(CCN=C=S)cc1

>  <score_type>  (27) 
oracle

>  <origin>  (27) 
adg

>  <m_score__min__energy>  (27) 
-4.8200000000000003

>  <m_primary>  (27) 
energy

$$$$
27:0
     RDKit          3D

 45 46  0  0  0  0  0  0  0  0999 V2000
    0.0560   24.3950  -24.8490 C   0  0  0  0  0  0  0  0  0  0  0  0
    0.1060   23.9650  -26.2070 O   0  0  0  0  0  0  0  0  0  0  0  0
   -0.9850   23.9960  -27.0870 C   0  0  0  0  0  0  0  0  0  0  0  0
   -2.2990   24.2520  -26.6520 C   0  0  0  0  0  0  0  0  0  0  0  0
   -3.3530   24.2700  -27.5710 C   0  0  0  0  0  0  0  0  0  0  0  0
   -3.1180   24.0110  -28.9290 C   0  0  0  0  0  0  0  0  0  0  0  0
   -4.4450   24.0580  -30.0990 S   0  0  0  0  0  0  0  0  0  0  0  0
   -5.7470   24.1860  -29.3590 O   0  0  0  0  0  0  0  0  0  0  0  0
   -4.2750   25.2980  -30.9320 O   0  0  0  0  0  0  0  0  0  0  0  0
   -4.5250   22.6300  -31.2180 C   0  0  1  0  0  0  0  0  0  0  0  0
   -3.8200   21.3850  -30.6400 C   0  0  0  0  0  0  0  0  0  0  0  0
   -2.5040   21.1080  -31.3100 C   0  0  0  0  0  0  0  0  0  0  0  0
   -2.0290   21.9090  -32.1000 O   0  0  0  0  0  0  0  0  0  0  0  0
   -5.8980   22.2910  -31.6760 N   0  0  0  0  0  0  0  0  0  0  0  0
   -5.9720   21.0790  -32.5260 C   0  0  0  0  0  0  0  0  0  0  0  0
   -7.0640   20.1020  -32.0270 C   0  0  0  0  0  0  0  0  0  0  0  0
   -8.2410   20.7870  -31.3040 C   0  0  0  0  0  0  0  0  0  0  0  0
   -8.8480   21.9960  -32.0590 C   0  0  0  0  0  0  0  0  0  0  0  0
   -8.1760   23.3560  -31.7930 C   0  0  0  0  0  0  0  0  0  0  0  0
   -6.6910   23.4220  -32.2040 C   0  0  0  0  0  0  0  0  0  0  0  0
   -1.8050   23.7850  -29.3640 C   0  0  0  0  0  0  0  0  0  0  0  0
   -0.7500   23.7680  -28.4470 C   0  0  0  0  0  0  0  0  0  0  0  0
    0.1573   23.5241  -24.1847 H   0  0  0  0  0  0  0  0  0  0  0  0
    0.8782   25.1001  -24.6571 H   0  0  0  0  0  0  0  0  0  0  0  0
   -0.9061   24.8926  -24.6571 H   0  0  0  0  0  0  0  0  0  0  0  0
   -2.4974   24.4384  -25.5862 H   0  0  0  0  0  0  0  0  0  0  0  0
   -4.3743   24.4890  -27.2259 H   0  0  0  0  0  0  0  0  0  0  0  0
   -3.9718   22.9552  -32.1114 H   0  0  0  0  0  0  0  0  0  0  0  0
   -3.6426   21.5463  -29.5664 H   0  0  0  0  0  0  0  0  0  0  0  0
   -4.4741   20.5181  -30.8152 H   0  0  0  0  0  0  0  0  0  0  0  0
   -1.9639   20.1760  -31.0871 H   0  0  0  0  0  0  0  0  0  0  0  0
   -6.2060   21.3798  -33.5579 H   0  0  0  0  0  0  0  0  0  0  0  0
   -5.0009   20.5645  -32.4788 H   0  0  0  0  0  0  0  0  0  0  0  0
   -7.4625   19.5570  -32.8954 H   0  0  0  0  0  0  0  0  0  0  0  0
   -6.5838   19.4391  -31.2922 H   0  0  0  0  0  0  0  0  0  0  0  0
   -9.0352   20.0400  -31.1582 H   0  0  0  0  0  0  0  0  0  0  0  0
   -7.8389   21.1805  -30.3588 H   0  0  0  0  0  0  0  0  0  0  0  0
   -8.7789   21.7902  -33.1374 H   0  0  0  0  0  0  0  0  0  0  0  0
   -9.8790   22.0937  -31.6883 H   0  0  0  0  0  0  0  0  0  0  0  0
   -8.7236   24.1266  -32.3555 H   0  0  0  0  0  0  0  0  0  0  0  0
   -8.2089   23.5159  -30.7052 H   0  0  0  0  0  0  0  0  0  0  0  0
   -6.6298   23.4114  -33.3022 H   0  0  0  0  0  0  0  0  0  0  0  0
   -6.2715   24.3463  -31.7801 H   0  0  0  0  0  0  0  0  0  0  0  0
   -1.6035   23.6201  -30.4328 H   0  0  0  0  0  0  0  0  0  0  0  0
    0.2742   23.5736  -28.7980 H   0  0  0  0  0  0  0  0  0  0  0  0
  1  2  1  0
  2  3  1  0
  3  4  2  0
  4  5  1  0
  5  6  2  0
  6  7  1  0
  7  8  2  0
  7  9  2  0
  7 10  1  0
 10 11  1  0
 11 12  1  0
 12 13  2  0
 10 14  1  0
 14 15  1  0
 15 16  1  0
 16 17  1  0
 17 18  1  0
 18 19  1  0
 19 20  1  0
  6 21  1  0
 21 22  2  0
 22  3  1  0
 20 14  1  0
  1 23  1  0
  1 24  1  0
  1 25  1  0
  4 26  1  0
  5 27  1  0
 10 28  1  6
 11 29  1  0
 11 30  1  0
 12 31  1  0
 15 32  1  0
 15 33  1  0
 16 34  1  0
 16 35  1  0
 17 36  1  0
 17 37  1  0
 18 38  1  0
 18 39  1  0
 19 40  1  0
 19 41  1  0
 20 42  1  0
 20 43  1  0
 21 44  1  0
 22 45  1  0
M  END
>  <UniqueID>  (28) 
25

>  <SMILES>  (28) 
COc1ccc(S(=O)(=O)[C@@H](CC=O)N2CCCCCC2)cc1

>  <Energy>  (28) 
54.674126005613644

>  <Genealogy>  (28) 
COc1ccc(S(=O)(=O)[C@@H](CC=O)N2CCCCCC2)cc1 (chirality)
COc1ccc(S(=O)(=O)[C@@H](CC=O)N2CCCCCC2)cc1 (3D coordinates assigned)
COc1ccc(S(=O)(=O)[C@@H](CC=O)N2CCCCCC2)cc1 (nonaromatic ring conformer: 54.674126005613644 kcal/mol)

>  <smiles>  (28) 
COc1ccc(S(=O)(=O)C(CC=O)N2CCCCCC2)cc1

>  <score_type>  (28) 
oracle

>  <origin>  (28) 
adg

>  <m_score__min__energy>  (28) 
-5.7999999999999998

>  <m_primary>  (28) 
energy

$$$$
28:0
     RDKit          3D

 42 44  0  0  0  0  0  0  0  0999 V2000
   -3.9702   18.0142  -33.6841 H   0  0  0  0  0  0  0  0  0  0  0  0
   -4.7350   18.7440  -33.3800 C   0  0  0  0  0  0  0  0  0  0  0  0
   -4.3810   20.0820  -33.1910 C   0  0  0  0  0  0  0  0  0  0  0  0
   -2.7200   20.5700  -33.5060 Cl  0  0  0  0  0  0  0  0  0  0  0  0
   -5.3570   21.0120  -32.7810 C   0  0  0  0  0  0  0  0  0  0  0  0
   -5.0300   22.3920  -32.5640 N   0  0  0  0  0  0  0  0  0  0  0  0
   -4.9410   23.0770  -31.4500 C   0  0  0  0  0  0  0  0  0  0  0  0
   -6.1160   23.7040  -30.9880 C   0  0  0  0  0  0  0  0  0  0  0  0
   -7.3910   23.4780  -31.6330 C   0  0  0  0  0  0  0  0  0  0  0  0
   -8.4110   23.2980  -32.1490 N   0  0  0  0  0  0  0  0  0  0  0  0
   -6.0550   24.6230  -29.9420 C   0  0  0  0  0  0  0  0  0  0  0  0
   -6.9745   25.1179  -29.5962 H   0  0  0  0  0  0  0  0  0  0  0  0
   -4.8710   24.9120  -29.3470 N   0  0  0  0  0  0  0  0  0  0  0  0
   -4.8670   25.6280  -28.5860 H   0  0  0  0  0  0  0  0  0  0  0  0
   -3.7220   24.2640  -29.6870 C   0  0  0  0  0  0  0  0  0  0  0  0
   -2.5380   24.5540  -28.9930 C   0  0  0  0  0  0  0  0  0  0  0  0
   -2.5341   25.3521  -28.2360 H   0  0  0  0  0  0  0  0  0  0  0  0
   -1.3580   23.8390  -29.2520 C   0  0  0  0  0  0  0  0  0  0  0  0
   -0.1530   24.1210  -28.5890 O   0  0  0  0  0  0  0  0  0  0  0  0
    0.3740   23.3570  -27.5090 C   0  0  0  0  0  0  0  0  0  0  0  0
    0.0631   23.8077  -26.5550 H   0  0  0  0  0  0  0  0  0  0  0  0
   -0.0063   22.3266  -27.5689 H   0  0  0  0  0  0  0  0  0  0  0  0
    1.4723   23.3465  -27.5689 H   0  0  0  0  0  0  0  0  0  0  0  0
   -1.3750   22.7970  -30.1850 C   0  0  0  0  0  0  0  0  0  0  0  0
   -0.1910   22.0710  -30.3920 O   0  0  0  0  0  0  0  0  0  0  0  0
   -0.1330   20.7460  -30.9100 C   0  0  0  0  0  0  0  0  0  0  0  0
   -0.1016   20.0279  -30.0774 H   0  0  0  0  0  0  0  0  0  0  0  0
   -1.0236   20.5540  -31.5264 H   0  0  0  0  0  0  0  0  0  0  0  0
    0.7710   20.6325  -31.5264 H   0  0  0  0  0  0  0  0  0  0  0  0
   -2.5620   22.5000  -30.8780 C   0  0  0  0  0  0  0  0  0  0  0  0
   -2.5826   21.6421  -31.5662 H   0  0  0  0  0  0  0  0  0  0  0  0
   -3.7290   23.2790  -30.7100 C   0  0  0  0  0  0  0  0  0  0  0  0
   -6.6870   20.6000  -32.6310 C   0  0  0  0  0  0  0  0  0  0  0  0
   -7.4594   21.3368  -32.3655 H   0  0  0  0  0  0  0  0  0  0  0  0
   -7.0440   19.2510  -32.8170 C   0  0  0  0  0  0  0  0  0  0  0  0
   -8.3610   18.7980  -32.6430 O   0  0  0  0  0  0  0  0  0  0  0  0
   -9.4710   19.6380  -32.3440 C   0  0  0  0  0  0  0  0  0  0  0  0
   -9.5832   19.7229  -31.2530 H   0  0  0  0  0  0  0  0  0  0  0  0
   -9.3017   20.6362  -32.7740 H   0  0  0  0  0  0  0  0  0  0  0  0
  -10.3857   19.2039  -32.7740 H   0  0  0  0  0  0  0  0  0  0  0  0
   -6.0560   18.3260  -33.1850 C   0  0  0  0  0  0  0  0  0  0  0  0
   -6.4630   16.6330  -33.4200 Cl  0  0  0  0  0  0  0  0  0  0  0  0
  1  2  1  0
  2  3  2  0
  3  4  1  0
  3  5  1  0
  5  6  1  0
  6  7  2  0
  7  8  1  0
  8  9  1  0
  9 10  3  0
  8 11  2  0
 11 12  1  0
 11 13  1  0
 13 14  1  0
 13 15  1  0
 15 16  2  0
 16 17  1  0
 16 18  1  0
 18 19  1  0
 19 20  1  0
 20 21  1  0
 20 22  1  0
 20 23  1  0
 18 24  2  0
 24 25  1  0
 25 26  1  0
 26 27  1  0
 26 28  1  0
 26 29  1  0
 24 30  1  0
 30 31  1  0
 30 32  2  0
  5 33  2  0
 33 34  1  0
 33 35  1  0
 35 36  1  0
 36 37  1  0
 37 38  1  0
 37 39  1  0
 37 40  1  0
 35 41  2  0
 41 42  1  0
 41  2  1  0
 32  7  1  0
 32 15  1  0
M  END
>  <UniqueID>  (29) 
26

>  <SMILES>  (29) 
COc1cc(/N=c2/c(C#N)c[nH]c3cc(OC)c(OC)cc23)c(Cl)cc1Cl

>  <Energy>  (29) 
67.32789289325027

>  <Genealogy>  (29) 
COc1cc(/N=c2/c(C#N)c[nH]c3cc(OC)c(OC)cc23)c(Cl)cc1Cl (cis-trans isomerization)
COc1cc(/N=c2/c(C#N)c[nH]c3cc(OC)c(OC)cc23)c(Cl)cc1Cl (3D coordinates assigned)
COc1cc(/N=c2/c(C#N)c[nH]c3cc(OC)c(OC)cc23)c(Cl)cc1Cl (optimized conformer: 67.32789289325027 kcal/mol)

>  <smiles>  (29) 
COc1cc(N=c2c(C#N)c[nH]c3cc(OC)c(OC)cc23)c(Cl)cc1Cl

>  <score_type>  (29) 
oracle

>  <origin>  (29) 
adg

>  <m_score__min__energy>  (29) 
-8.1199999999999992

>  <m_primary>  (29) 
energy

$$$$
29:0
     RDKit          3D

 42 45  0  0  0  0  0  0  0  0999 V2000
   -5.3730   26.0130  -30.4530 C   0  0  0  0  0  0  0  0  0  0  0  0
   -4.8190   24.8890  -31.1310 O   0  0  0  0  0  0  0  0  0  0  0  0
   -5.5130   23.6980  -31.3880 C   0  0  0  0  0  0  0  0  0  0  0  0
   -4.7710   22.5340  -31.6040 C   0  0  0  0  0  0  0  0  0  0  0  0
   -5.4070   21.3180  -31.8640 C   0  0  0  0  0  0  0  0  0  0  0  0
   -6.8110   21.2400  -31.9050 C   0  0  0  0  0  0  0  0  0  0  0  0
   -7.4810   20.0200  -32.1710 C   0  0  0  0  0  0  0  0  0  0  0  0
   -6.7470   18.7940  -32.3300 N   0  0  0  0  0  0  0  0  0  0  0  0
   -6.0500   18.4520  -33.5410 C   0  0  0  0  0  0  0  0  0  0  0  0
   -6.0890   19.2350  -34.5300 O   0  0  0  0  0  0  0  0  0  0  0  0
   -5.2790   17.1910  -33.6510 C   0  0  0  0  0  0  0  0  0  0  0  0
   -4.5500   16.8840  -34.8150 C   0  0  0  0  0  0  0  0  0  0  0  0
   -3.8310   15.6890  -34.9110 C   0  0  0  0  0  0  0  0  0  0  0  0
   -3.8350   14.7760  -33.8480 C   0  0  0  0  0  0  0  0  0  0  0  0
   -3.1150   13.5720  -33.9350 C   0  0  0  0  0  0  0  0  0  0  0  0
   -3.1300   12.6680  -32.8700 C   0  0  0  0  0  0  0  0  0  0  0  0
   -3.8600   12.9560  -31.7130 C   0  0  0  0  0  0  0  0  0  0  0  0
   -4.5810   14.1490  -31.6150 C   0  0  0  0  0  0  0  0  0  0  0  0
   -4.5740   15.0660  -32.6780 C   0  0  0  0  0  0  0  0  0  0  0  0
   -5.2940   16.2680  -32.5900 C   0  0  0  0  0  0  0  0  0  0  0  0
   -8.8850   20.0000  -32.2160 C   0  0  0  0  0  0  0  0  0  0  0  0
   -9.6200   21.1670  -32.0170 C   0  0  0  0  0  0  0  0  0  0  0  0
   -8.9700   22.3730  -31.7570 C   0  0  0  0  0  0  0  0  0  0  0  0
   -7.5700   22.4220  -31.6980 C   0  0  0  0  0  0  0  0  0  0  0  0
   -6.9180   23.6380  -31.4380 C   0  0  0  0  0  0  0  0  0  0  0  0
   -5.2974   25.8596  -29.3664 H   0  0  0  0  0  0  0  0  0  0  0  0
   -4.8191   26.9207  -30.7346 H   0  0  0  0  0  0  0  0  0  0  0  0
   -6.4303   26.1265  -30.7346 H   0  0  0  0  0  0  0  0  0  0  0  0
   -3.6724   22.5758  -31.5689 H   0  0  0  0  0  0  0  0  0  0  0  0
   -4.8051   20.4139  -32.0381 H   0  0  0  0  0  0  0  0  0  0  0  0
   -6.7410   18.1280  -31.5270 H   0  0  0  0  0  0  0  0  0  0  0  0
   -4.5459   17.5913  -35.6575 H   0  0  0  0  0  0  0  0  0  0  0  0
   -3.2601   15.4646  -35.8241 H   0  0  0  0  0  0  0  0  0  0  0  0
   -2.5388   13.3412  -34.8431 H   0  0  0  0  0  0  0  0  0  0  0  0
   -2.5656   11.7266  -32.9420 H   0  0  0  0  0  0  0  0  0  0  0  0
   -3.8668   12.2411  -30.8770 H   0  0  0  0  0  0  0  0  0  0  0  0
   -5.1552   14.3700  -30.7032 H   0  0  0  0  0  0  0  0  0  0  0  0
   -5.8752   16.4899  -31.6828 H   0  0  0  0  0  0  0  0  0  0  0  0
   -9.4097   19.0530  -32.4104 H   0  0  0  0  0  0  0  0  0  0  0  0
  -10.7185   21.1368  -32.0652 H   0  0  0  0  0  0  0  0  0  0  0  0
   -9.5577   23.2891  -31.5976 H   0  0  0  0  0  0  0  0  0  0  0  0
   -7.5098   24.5503  -31.2722 H   0  0  0  0  0  0  0  0  0  0  0  0
  1  2  1  0
  2  3  1  0
  3  4  2  0
  4  5  1  0
  5  6  2  0
  6  7  1  0
  7  8  1  0
  8  9  1  0
  9 10  2  0
  9 11  1  0
 11 12  2  0
 12 13  1  0
 13 14  2  0
 14 15  1  0
 15 16  2  0
 16 17  1  0
 17 18  2  0
 18 19  1  0
 19 20  2  0
  7 21  2  0
 21 22  1  0
 22 23  2  0
 23 24  1  0
 24 25  2  0
 25  3  1  0
 24  6  1  0
 20 11  1  0
 19 14  1  0
  1 26  1  0
  1 27  1  0
  1 28  1  0
  4 29  1  0
  5 30  1  0
  8 31  1  0
 12 32  1  0
 13 33  1  0
 15 34  1  0
 16 35  1  0
 17 36  1  0
 18 37  1  0
 20 38  1  0
 21 39  1  0
 22 40  1  0
 23 41  1  0
 25 42  1  0
M  END
>  <UniqueID>  (30) 
27

>  <SMILES>  (30) 
COc1ccc2c(NC(=O)c3ccc4ccccc4c3)cccc2c1

>  <Energy>  (30) 
61.22456462996016

>  <Genealogy>  (30) 
COc1ccc2c(NC(=O)c3ccc4ccccc4c3)cccc2c1 (3D coordinates assigned)
COc1ccc2c(NC(=O)c3ccc4ccccc4c3)cccc2c1 (optimized conformer: 61.22456462996016 kcal/mol)

>  <smiles>  (30) 
COc1ccc2c(NC(=O)c3ccc4ccccc4c3)cccc2c1

>  <score_type>  (30) 
oracle

>  <origin>  (30) 
adg

>  <m_score__min__energy>  (30) 
-8.9800000000000004

>  <m_primary>  (30) 
energy

$$$$
30:0
     RDKit          3D

 42 44  0  0  0  0  0  0  0  0999 V2000
   -7.3540   23.3780  -29.5100 O   0  0  0  0  0  0  0  0  0  0  0  0
   -6.9210   23.2410  -30.6480 C   0  0  0  0  0  0  0  0  0  0  0  0
   -5.5140   23.7000  -30.9880 C   0  0  2  0  0  0  0  0  0  0  0  0
   -4.4700   23.0050  -30.1610 C   0  0  0  0  0  0  0  0  0  0  0  0
   -3.3450   24.0260  -30.1090 C   0  0  0  0  0  0  0  0  0  0  0  0
   -3.8380   25.2980  -30.4730 O   0  0  0  0  0  0  0  0  0  0  0  0
   -5.2210   25.1630  -30.7000 C   0  0  0  0  0  0  0  0  0  0  0  0
   -7.7430   22.6140  -31.6650 N   0  0  0  0  0  0  0  0  0  0  0  0
   -8.7230   21.6980  -31.0310 C   0  0  0  0  0  0  0  0  0  0  0  0
   -9.2370   20.6550  -32.0340 C   0  0  0  0  0  0  0  0  0  0  0  0
   -8.1440   19.7960  -32.5600 N   0  0  0  0  0  0  0  0  0  0  0  0
   -8.1340   18.4710  -31.9030 C   0  0  0  0  0  0  0  0  0  0  0  0
   -7.0070   17.6170  -32.4240 C   0  0  0  0  0  0  0  0  0  0  0  0
   -6.8630   17.3770  -33.7980 C   0  0  0  0  0  0  0  0  0  0  0  0
   -5.8260   16.5620  -34.2580 C   0  0  0  0  0  0  0  0  0  0  0  0
   -4.9460   15.9900  -33.3380 C   0  0  0  0  0  0  0  0  0  0  0  0
   -5.1020   16.2260  -32.0090 N   0  0  0  0  0  0  0  0  0  0  0  0
   -6.1030   17.0160  -31.5360 C   0  0  0  0  0  0  0  0  0  0  0  0
   -6.8080   20.4400  -32.4960 C   0  0  0  0  0  0  0  0  0  0  0  0
   -6.9020   21.9580  -32.7020 C   0  0  0  0  0  0  0  0  0  0  0  0
   -5.4707   23.4790  -32.0647 H   0  0  0  0  0  0  0  0  0  0  0  0
   -4.8482   22.7808  -29.1527 H   0  0  0  0  0  0  0  0  0  0  0  0
   -4.1589   22.0358  -30.5780 H   0  0  0  0  0  0  0  0  0  0  0  0
   -2.9385   24.0702  -29.0878 H   0  0  0  0  0  0  0  0  0  0  0  0
   -2.5515   23.7290  -30.8106 H   0  0  0  0  0  0  0  0  0  0  0  0
   -5.7781   25.4858  -29.8081 H   0  0  0  0  0  0  0  0  0  0  0  0
   -5.5291   25.7872  -31.5518 H   0  0  0  0  0  0  0  0  0  0  0  0
   -8.2950   23.3650  -32.1480 H   0  0  0  0  0  0  0  0  0  0  0  0
   -8.2381   21.1794  -30.1908 H   0  0  0  0  0  0  0  0  0  0  0  0
   -9.5782   22.2929  -30.6778 H   0  0  0  0  0  0  0  0  0  0  0  0
   -9.9791   20.0166  -31.5323 H   0  0  0  0  0  0  0  0  0  0  0  0
   -9.6818   21.1938  -32.8836 H   0  0  0  0  0  0  0  0  0  0  0  0
   -8.0094   18.6083  -30.8187 H   0  0  0  0  0  0  0  0  0  0  0  0
   -9.0861   17.9651  -32.1211 H   0  0  0  0  0  0  0  0  0  0  0  0
   -7.5658   17.8300  -34.5128 H   0  0  0  0  0  0  0  0  0  0  0  0
   -5.7041   16.3729  -35.3347 H   0  0  0  0  0  0  0  0  0  0  0  0
   -4.1252   15.3474  -33.6892 H   0  0  0  0  0  0  0  0  0  0  0  0
   -6.2039   17.1841  -30.4536 H   0  0  0  0  0  0  0  0  0  0  0  0
   -6.3624   20.2404  -31.5103 H   0  0  0  0  0  0  0  0  0  0  0  0
   -6.1855   20.0215  -33.3006 H   0  0  0  0  0  0  0  0  0  0  0  0
   -5.8891   22.3849  -32.6590 H   0  0  0  0  0  0  0  0  0  0  0  0
   -7.3706   22.1379  -33.6808 H   0  0  0  0  0  0  0  0  0  0  0  0
  1  2  2  0
  2  3  1  0
  3  4  1  0
  4  5  1  0
  5  6  1  0
  6  7  1  0
  2  8  1  0
  8  9  1  0
  9 10  1  0
 10 11  1  0
 11 12  1  0
 12 13  1  0
 13 14  2  0
 14 15  1  0
 15 16  2  0
 16 17  1  0
 17 18  2  0
 11 19  1  0
 19 20  1  0
  7  3  1  0
 20  8  1  0
 18 13  1  0
  3 21  1  6
  4 22  1  0
  4 23  1  0
  5 24  1  0
  5 25  1  0
  7 26  1  0
  7 27  1  0
  8 28  1  0
  9 29  1  0
  9 30  1  0
 10 31  1  0
 10 32  1  0
 12 33  1  0
 12 34  1  0
 14 35  1  0
 15 36  1  0
 16 37  1  0
 18 38  1  0
 19 39  1  0
 19 40  1  0
 20 41  1  0
 20 42  1  0
M  CHG  1   8   1
M  END
>  <UniqueID>  (31) 
28

>  <SMILES>  (31) 
O=C([C@@H]1CCOC1)[NH+]1CCN(Cc2cccnc2)CC1

>  <Energy>  (31) 
57.5381037846707

>  <Genealogy>  (31) 
O=C(C1CCOC1)[NH+]1CCN(Cc2cccnc2)CC1 (protonated)
O=C([C@@H]1CCOC1)[NH+]1CCN(Cc2cccnc2)CC1 (chirality)
O=C([C@@H]1CCOC1)[NH+]1CCN(Cc2cccnc2)CC1 (3D coordinates assigned)
O=C([C@@H]1CCOC1)[NH+]1CCN(Cc2cccnc2)CC1 (nonaromatic ring conformer: 57.5381037846707 kcal/mol)

>  <smiles>  (31) 
O=C(C1CCOC1)N1CCN(Cc2cccnc2)CC1

>  <score_type>  (31) 
oracle

>  <origin>  (31) 
adg

>  <m_score__min__energy>  (31) 
-7.4000000000000004

>  <m_primary>  (31) 
energy

$$$$
31:0
     RDKit          3D

 35 37  0  0  0  0  0  0  0  0999 V2000
   -5.3198   26.6926  -30.1642 H   0  0  0  0  0  0  0  0  0  0  0  0
   -5.3680   25.6400  -30.4800 C   0  0  0  0  0  0  0  0  0  0  0  0
   -4.3090   24.8870  -30.8360 N   0  0  0  0  0  0  0  0  0  0  0  0
   -4.7540   23.6820  -31.1540 N   0  0  0  0  0  0  0  0  0  0  0  0
   -3.8880   22.6440  -31.6380 C   0  0  0  0  0  0  0  0  0  0  0  0
   -3.9760   22.2280  -32.9750 C   0  0  0  0  0  0  0  0  0  0  0  0
   -4.6881   22.7179  -33.6554 H   0  0  0  0  0  0  0  0  0  0  0  0
   -3.1620   21.1930  -33.4460 C   0  0  0  0  0  0  0  0  0  0  0  0
   -3.2244   20.8806  -34.4989 H   0  0  0  0  0  0  0  0  0  0  0  0
   -2.2690   20.5550  -32.5800 C   0  0  0  0  0  0  0  0  0  0  0  0
   -1.6254   19.7446  -32.9528 H   0  0  0  0  0  0  0  0  0  0  0  0
   -2.1940   20.9470  -31.2400 C   0  0  0  0  0  0  0  0  0  0  0  0
   -1.4956   20.4407  -30.5575 H   0  0  0  0  0  0  0  0  0  0  0  0
   -3.0060   21.9820  -30.7670 C   0  0  0  0  0  0  0  0  0  0  0  0
   -2.9543   22.2793  -29.7092 H   0  0  0  0  0  0  0  0  0  0  0  0
   -6.1000   23.6450  -30.9960 C   0  0  0  0  0  0  0  0  0  0  0  0
   -6.9740   22.4630  -31.1250 C   0  0  0  0  0  0  0  0  0  0  0  0
   -7.6110   22.0350  -30.1250 O   0  0  0  0  0  0  0  0  0  0  0  0
   -7.0440   21.7810  -32.3890 N   0  0  0  0  0  0  0  0  0  0  0  0
   -6.8940   20.5110  -32.6570 C   0  0  0  0  0  0  0  0  0  0  0  0
   -6.2860   20.0460  -33.8420 C   0  0  0  0  0  0  0  0  0  0  0  0
   -5.9158   20.7611  -34.5913 H   0  0  0  0  0  0  0  0  0  0  0  0
   -6.1570   18.6730  -34.0580 C   0  0  0  0  0  0  0  0  0  0  0  0
   -5.6827   18.3047  -34.9797 H   0  0  0  0  0  0  0  0  0  0  0  0
   -6.6290   17.7650  -33.1060 C   0  0  0  0  0  0  0  0  0  0  0  0
   -6.4560   16.2880  -33.3090 C   0  0  0  0  0  0  0  0  0  0  0  0
   -6.3974   15.7879  -32.3310 H   0  0  0  0  0  0  0  0  0  0  0  0
   -7.3139   15.8923  -33.8724 H   0  0  0  0  0  0  0  0  0  0  0  0
   -5.5298   16.1013  -33.8724 H   0  0  0  0  0  0  0  0  0  0  0  0
   -7.1900   18.2600  -31.9240 C   0  0  0  0  0  0  0  0  0  0  0  0
   -7.5369   17.5610  -31.1487 H   0  0  0  0  0  0  0  0  0  0  0  0
   -7.3090   19.6010  -31.7280 N   0  0  0  0  0  0  0  0  0  0  0  0
   -7.7390   19.9340  -30.8350 H   0  0  0  0  0  0  0  0  0  0  0  0
   -6.5230   24.8890  -30.5720 C   0  0  0  0  0  0  0  0  0  0  0  0
   -7.5524   25.2106  -30.3554 H   0  0  0  0  0  0  0  0  0  0  0  0
  1  2  1  0
  2  3  2  0
  3  4  1  0
  4  5  1  0
  5  6  2  0
  6  7  1  0
  6  8  1  0
  8  9  1  0
  8 10  2  0
 10 11  1  0
 10 12  1  0
 12 13  1  0
 12 14  2  0
 14 15  1  0
  4 16  1  0
 16 17  1  0
 17 18  2  0
 17 19  1  0
 19 20  2  0
 20 21  1  0
 21 22  1  0
 21 23  2  0
 23 24  1  0
 23 25  1  0
 25 26  1  0
 26 27  1  0
 26 28  1  0
 26 29  1  0
 25 30  2  0
 30 31  1  0
 30 32  1  0
 32 33  1  0
 16 34  2  0
 34 35  1  0
 34  2  1  0
 14  5  1  0
 32 20  1  0
M  END
>  <UniqueID>  (32) 
29

>  <SMILES>  (32) 
Cc1cc/c(=N\C(=O)c2ccnn2-c2ccccc2)[nH]c1

>  <Energy>  (32) 
81.49060792760254

>  <Genealogy>  (32) 
Cc1cc/c(=N\C(=O)c2ccnn2-c2ccccc2)[nH]c1 (cis-trans isomerization)
Cc1cc/c(=N\C(=O)c2ccnn2-c2ccccc2)[nH]c1 (3D coordinates assigned)
Cc1cc/c(=N\C(=O)c2ccnn2-c2ccccc2)[nH]c1 (optimized conformer: 81.49060792760254 kcal/mol)

>  <smiles>  (32) 
Cc1ccc(=NC(=O)c2ccnn2-c2ccccc2)[nH]c1

>  <score_type>  (32) 
oracle

>  <origin>  (32) 
adg

>  <m_score__min__energy>  (32) 
-7.6600000000000001

>  <m_primary>  (32) 
energy

$$$$
32:0
     RDKit          3D

 55 57  0  0  0  0  0  0  0  0999 V2000
   -8.1750   20.8730  -31.1380 F   0  0  0  0  0  0  0  0  0  0  0  0
   -8.5950   19.8880  -32.0130 C   0  0  0  0  0  0  0  0  0  0  0  0
   -9.5080   19.0720  -31.3740 F   0  0  0  0  0  0  0  0  0  0  0  0
   -9.2140   20.4880  -33.0980 F   0  0  0  0  0  0  0  0  0  0  0  0
   -7.4120   19.0760  -32.4560 C   0  0  0  0  0  0  0  0  0  0  0  0
   -7.0650   17.9000  -31.7710 C   0  0  0  0  0  0  0  0  0  0  0  0
   -5.9620   17.1580  -32.1910 C   0  0  0  0  0  0  0  0  0  0  0  0
   -5.2030   17.5910  -33.2960 C   0  0  0  0  0  0  0  0  0  0  0  0
   -4.0890   16.8890  -33.7720 O   0  0  0  0  0  0  0  0  0  0  0  0
   -3.5980   16.9710  -35.1070 C   0  0  0  0  0  0  0  0  0  0  0  0
   -2.0640   17.0760  -35.0940 C   0  0  0  0  0  0  0  0  0  0  0  0
   -1.5070   17.3720  -33.7620 N   0  0  0  0  0  0  0  0  0  0  0  0
   -0.9270   18.7270  -33.6700 C   0  0  0  0  0  0  0  0  0  0  0  0
   -1.8880   19.6830  -33.0000 C   0  0  0  0  0  0  0  0  0  0  0  0
   -2.7230   20.5030  -33.7740 C   0  0  0  0  0  0  0  0  0  0  0  0
   -3.5270   21.4730  -33.1620 C   0  0  0  0  0  0  0  0  0  0  0  0
   -3.5270   21.6320  -31.7570 C   0  0  0  0  0  0  0  0  0  0  0  0
   -4.3150   22.6790  -31.1180 N   0  0  0  0  0  0  0  0  0  0  0  0
   -5.7740   22.7360  -31.3500 C   0  0  0  0  0  0  0  0  0  0  0  0
   -6.3000   24.1020  -31.8420 C   0  0  0  0  0  0  0  0  0  0  0  0
   -5.8500   25.2870  -30.9700 C   0  0  0  0  0  0  0  0  0  0  0  0
   -5.7560   24.9070  -29.4840 C   0  0  0  0  0  0  0  0  0  0  0  0
   -4.4660   24.1490  -29.1320 C   0  0  0  0  0  0  0  0  0  0  0  0
   -3.6380   23.7430  -30.3590 C   0  0  0  0  0  0  0  0  0  0  0  0
   -2.7260   20.7610  -30.9890 C   0  0  0  0  0  0  0  0  0  0  0  0
   -1.9090   19.8080  -31.6030 C   0  0  0  0  0  0  0  0  0  0  0  0
   -5.5840   18.7720  -33.9490 C   0  0  0  0  0  0  0  0  0  0  0  0
   -6.6500   19.4880  -33.5110 N   0  0  0  0  0  0  0  0  0  0  0  0
   -7.6601   17.5664  -30.9081 H   0  0  0  0  0  0  0  0  0  0  0  0
   -5.6846   16.2354  -31.6601 H   0  0  0  0  0  0  0  0  0  0  0  0
   -3.8974   16.0696  -35.6619 H   0  0  0  0  0  0  0  0  0  0  0  0
   -4.0183   17.8635  -35.5937 H   0  0  0  0  0  0  0  0  0  0  0  0
   -1.6464   16.1195  -35.4415 H   0  0  0  0  0  0  0  0  0  0  0  0
   -1.7911   17.9137  -35.7526 H   0  0  0  0  0  0  0  0  0  0  0  0
   -2.2880   17.2660  -33.0710 H   0  0  0  0  0  0  0  0  0  0  0  0
   -0.7750   16.6630  -33.5200 H   0  0  0  0  0  0  0  0  0  0  0  0
    0.0026   18.6814  -33.0836 H   0  0  0  0  0  0  0  0  0  0  0  0
   -0.7229   19.0909  -34.6878 H   0  0  0  0  0  0  0  0  0  0  0  0
   -2.7463   20.3834  -34.8672 H   0  0  0  0  0  0  0  0  0  0  0  0
   -4.1662   22.1189  -33.7819 H   0  0  0  0  0  0  0  0  0  0  0  0
   -6.0299   21.9787  -32.1057 H   0  0  0  0  0  0  0  0  0  0  0  0
   -6.2493   22.5549  -30.3747 H   0  0  0  0  0  0  0  0  0  0  0  0
   -5.9352   24.2663  -32.8667 H   0  0  0  0  0  0  0  0  0  0  0  0
   -7.3980   24.0622  -31.7895 H   0  0  0  0  0  0  0  0  0  0  0  0
   -4.8610   25.6247  -31.3132 H   0  0  0  0  0  0  0  0  0  0  0  0
   -6.6003   26.0853  -31.0692 H   0  0  0  0  0  0  0  0  0  0  0  0
   -5.7943   25.8286  -28.8846 H   0  0  0  0  0  0  0  0  0  0  0  0
   -6.5992   24.2355  -29.2649 H   0  0  0  0  0  0  0  0  0  0  0  0
   -3.8465   24.7950  -28.4926 H   0  0  0  0  0  0  0  0  0  0  0  0
   -4.7656   23.2208  -28.6234 H   0  0  0  0  0  0  0  0  0  0  0  0
   -3.5032   24.6199  -31.0093 H   0  0  0  0  0  0  0  0  0  0  0  0
   -2.6628   23.3662  -30.0171 H   0  0  0  0  0  0  0  0  0  0  0  0
   -2.7448   20.8330  -29.8915 H   0  0  0  0  0  0  0  0  0  0  0  0
   -1.2778   19.1511  -30.9864 H   0  0  0  0  0  0  0  0  0  0  0  0
   -5.0143   19.1206  -34.8230 H   0  0  0  0  0  0  0  0  0  0  0  0
  1  2  1  0
  2  3  1  0
  2  4  1  0
  2  5  1  0
  5  6  2  0
  6  7  1  0
  7  8  2  0
  8  9  1  0
  9 10  1  0
 10 11  1  0
 11 12  1  0
 12 13  1  0
 13 14  1  0
 14 15  2  0
 15 16  1  0
 16 17  2  0
 17 18  1  0
 18 19  1  0
 19 20  1  0
 20 21  1  0
 21 22  1  0
 22 23  1  0
 23 24  1  0
 17 25  1  0
 25 26  2  0
  8 27  1  0
 27 28  2  0
 28  5  1  0
 26 14  1  0
 24 18  1  0
  6 29  1  0
  7 30  1  0
 10 31  1  0
 10 32  1  0
 11 33  1  0
 11 34  1  0
 12 35  1  0
 12 36  1  0
 13 37  1  0
 13 38  1  0
 15 39  1  0
 16 40  1  0
 19 41  1  0
 19 42  1  0
 20 43  1  0
 20 44  1  0
 21 45  1  0
 21 46  1  0
 22 47  1  0
 22 48  1  0
 23 49  1  0
 23 50  1  0
 24 51  1  0
 24 52  1  0
 25 53  1  0
 26 54  1  0
 27 55  1  0
M  CHG  1  12   1
M  END
>  <UniqueID>  (33) 
30

>  <SMILES>  (33) 
FC(F)(F)c1ccc(OCC[NH2+]Cc2ccc(N3CCCCCC3)cc2)cn1

>  <Energy>  (33) 
60.52767650828522

>  <Genealogy>  (33) 
FC(F)(F)c1ccc(OCC[NH2+]Cc2ccc(N3CCCCCC3)cc2)cn1 (protonated)
FC(F)(F)c1ccc(OCC[NH2+]Cc2ccc(N3CCCCCC3)cc2)cn1 (3D coordinates assigned)
FC(F)(F)c1ccc(OCC[NH2+]Cc2ccc(N3CCCCCC3)cc2)cn1 (nonaromatic ring conformer: 60.52767650828522 kcal/mol)

>  <smiles>  (33) 
FC(F)(F)c1ccc(OCCNCc2ccc(N3CCCCCC3)cc2)cn1

>  <score_type>  (33) 
oracle

>  <origin>  (33) 
adg

>  <m_score__min__energy>  (33) 
-4.4500000000000002

>  <m_primary>  (33) 
energy

$$$$
33:0
     RDKit          3D

 50 53  0  0  0  0  0  0  0  0999 V2000
   -3.8010   24.5430  -29.5410 C   0  0  0  0  0  0  0  0  0  0  0  0
   -4.2780   25.0160  -30.7790 O   0  0  0  0  0  0  0  0  0  0  0  0
   -5.6180   24.6070  -30.9520 C   0  0  0  0  0  0  0  0  0  0  0  0
   -5.7720   23.8240  -32.2600 C   0  0  0  0  0  0  0  0  0  0  0  0
   -6.0170   22.3750  -32.0780 N   0  0  0  0  0  0  0  0  0  0  0  0
   -5.3460   21.7310  -30.9320 C   0  0  0  0  0  0  0  0  0  0  0  0
   -3.9050   21.4720  -31.2690 C   0  0  0  0  0  0  0  0  0  0  0  0
   -2.9150   21.4920  -30.2570 C   0  0  0  0  0  0  0  0  0  0  0  0
   -1.5650   21.2750  -30.5750 C   0  0  0  0  0  0  0  0  0  0  0  0
   -1.2330   21.0470  -31.9070 C   0  0  0  0  0  0  0  0  0  0  0  0
    0.2840   20.7670  -32.5680 S   0  0  0  0  0  0  0  0  0  0  0  0
   -0.2670   20.6190  -34.1610 C   0  0  0  0  0  0  0  0  0  0  0  0
   -1.6500   20.7900  -34.1830 C   0  0  0  0  0  0  0  0  0  0  0  0
   -2.1840   21.0300  -32.9120 C   0  0  0  0  0  0  0  0  0  0  0  0
   -3.5310   21.2420  -32.6110 C   0  0  0  0  0  0  0  0  0  0  0  0
   -7.2030   21.6990  -32.6670 C   0  0  2  0  0  0  0  0  0  0  0  0
   -8.4810   21.9940  -31.8420 C   0  0  0  0  0  0  0  0  0  0  0  0
   -8.8310   20.8860  -30.8450 C   0  0  0  0  0  0  0  0  0  0  0  0
   -9.0030   19.5550  -31.5680 C   0  0  0  0  0  0  0  0  0  0  0  0
   -7.7970   19.2150  -32.4010 C   0  0  0  0  0  0  0  0  0  0  0  0
   -7.5420   17.8740  -32.7140 C   0  0  0  0  0  0  0  0  0  0  0  0
   -6.4820   17.5380  -33.5520 C   0  0  0  0  0  0  0  0  0  0  0  0
   -5.6940   18.5500  -34.0930 C   0  0  0  0  0  0  0  0  0  0  0  0
   -5.9520   19.8530  -33.7970 N   0  0  0  0  0  0  0  0  0  0  0  0
   -6.9670   20.2200  -32.9570 C   0  0  0  0  0  0  0  0  0  0  0  0
   -4.3241   25.0617  -28.7241 H   0  0  0  0  0  0  0  0  0  0  0  0
   -3.9856   23.4612  -29.4660 H   0  0  0  0  0  0  0  0  0  0  0  0
   -2.7208   24.7367  -29.4660 H   0  0  0  0  0  0  0  0  0  0  0  0
   -5.9131   23.9655  -30.1085 H   0  0  0  0  0  0  0  0  0  0  0  0
   -6.2612   25.4984  -30.9915 H   0  0  0  0  0  0  0  0  0  0  0  0
   -6.6192   24.2491  -32.8182 H   0  0  0  0  0  0  0  0  0  0  0  0
   -4.8164   23.9167  -32.7968 H   0  0  0  0  0  0  0  0  0  0  0  0
   -5.4032   22.3932  -30.0555 H   0  0  0  0  0  0  0  0  0  0  0  0
   -5.8447   20.7767  -30.7072 H   0  0  0  0  0  0  0  0  0  0  0  0
   -3.2061   21.6791  -29.2129 H   0  0  0  0  0  0  0  0  0  0  0  0
   -0.7913   21.2849  -29.7932 H   0  0  0  0  0  0  0  0  0  0  0  0
    0.3652   20.4197  -35.0388 H   0  0  0  0  0  0  0  0  0  0  0  0
   -2.2559   20.7416  -35.0998 H   0  0  0  0  0  0  0  0  0  0  0  0
   -4.2895   21.2300  -33.4076 H   0  0  0  0  0  0  0  0  0  0  0  0
   -7.3749   22.1360  -33.6617 H   0  0  0  0  0  0  0  0  0  0  0  0
   -8.3274   22.9294  -31.2839 H   0  0  0  0  0  0  0  0  0  0  0  0
   -9.3169   22.0664  -32.5533 H   0  0  0  0  0  0  0  0  0  0  0  0
   -8.0216   20.7948  -30.1057 H   0  0  0  0  0  0  0  0  0  0  0  0
   -9.7750   21.1435  -30.3425 H   0  0  0  0  0  0  0  0  0  0  0  0
   -9.1565   18.7612  -30.8221 H   0  0  0  0  0  0  0  0  0  0  0  0
   -9.8709   19.6384  -32.2387 H   0  0  0  0  0  0  0  0  0  0  0  0
   -8.1818   17.0828  -32.2961 H   0  0  0  0  0  0  0  0  0  0  0  0
   -6.2695   16.4840  -33.7841 H   0  0  0  0  0  0  0  0  0  0  0  0
   -4.8592   18.2954  -34.7626 H   0  0  0  0  0  0  0  0  0  0  0  0
   -5.3460   20.5770  -34.2400 H   0  0  0  0  0  0  0  0  0  0  0  0
  1  2  1  0
  2  3  1  0
  3  4  1  0
  4  5  1  0
  5  6  1  0
  6  7  1  0
  7  8  2  0
  8  9  1  0
  9 10  2  0
 10 11  1  0
 11 12  1  0
 12 13  2  0
 13 14  1  0
 14 15  2  0
  5 16  1  0
 16 17  1  0
 17 18  1  0
 18 19  1  0
 19 20  1  0
 20 21  2  0
 21 22  1  0
 22 23  2  0
 23 24  1  0
 24 25  2  0
 15  7  1  0
 25 16  1  0
 14 10  1  0
 25 20  1  0
  1 26  1  0
  1 27  1  0
  1 28  1  0
  3 29  1  0
  3 30  1  0
  4 31  1  0
  4 32  1  0
  6 33  1  0
  6 34  1  0
  8 35  1  0
  9 36  1  0
 12 37  1  0
 13 38  1  0
 15 39  1  0
 16 40  1  6
 17 41  1  0
 17 42  1  0
 18 43  1  0
 18 44  1  0
 19 45  1  0
 19 46  1  0
 21 47  1  0
 22 48  1  0
 23 49  1  0
 24 50  1  0
M  CHG  1  24   1
M  END
>  <UniqueID>  (34) 
31

>  <SMILES>  (34) 
COCCN(Cc1ccc2sccc2c1)[C@@H]1CCCc2ccc[nH+]c21

>  <Energy>  (34) 
98.71430144793611

>  <Genealogy>  (34) 
COCCN(Cc1ccc2sccc2c1)C1CCCc2ccc[nH+]c21 (protonated)
COCCN(Cc1ccc2sccc2c1)[C@@H]1CCCc2ccc[nH+]c21 (chirality)
COCCN(Cc1ccc2sccc2c1)[C@@H]1CCCc2ccc[nH+]c21 (3D coordinates assigned)
COCCN(Cc1ccc2sccc2c1)[C@@H]1CCCc2ccc[nH+]c21 (nonaromatic ring conformer: 98.71430144793611 kcal/mol)

>  <smiles>  (34) 
COCCN(Cc1ccc2sccc2c1)C1CCCc2cccnc21

>  <score_type>  (34) 
oracle

>  <origin>  (34) 
adg

>  <m_score__min__energy>  (34) 
-8.75

>  <m_primary>  (34) 
energy

$$$$
34:0
     RDKit          3D

 39 40  0  0  0  0  0  0  0  0999 V2000
    2.7110   24.6330  -36.5360 C   0  0  0  0  0  0  0  0  0  0  0  0
    1.9430   23.4260  -36.7970 N   0  0  0  0  0  0  0  0  0  0  0  0
    0.8620   23.0030  -35.9620 C   0  0  0  0  0  0  0  0  0  0  0  0
   -0.1080   23.7760  -35.7320 O   0  0  0  0  0  0  0  0  0  0  0  0
    0.8680   21.6180  -35.3800 C   0  0  0  0  0  0  0  0  0  0  0  0
   -0.4890   21.1510  -35.0580 N   0  0  0  0  0  0  0  0  0  0  0  0
   -0.6240   20.8080  -33.6360 C   0  0  0  0  0  0  0  0  0  0  0  0
   -2.0800   20.6470  -33.2930 C   0  0  0  0  0  0  0  0  0  0  0  0
   -2.7060   21.5520  -32.4220 C   0  0  0  0  0  0  0  0  0  0  0  0
   -4.0670   21.4240  -32.1310 C   0  0  0  0  0  0  0  0  0  0  0  0
   -4.8220   20.3880  -32.7050 C   0  0  0  0  0  0  0  0  0  0  0  0
   -6.2270   20.2570  -32.4320 N   0  0  0  0  0  0  0  0  0  0  0  0
   -7.0140   21.2970  -32.2010 N   0  0  0  0  0  0  0  0  0  0  0  0
   -8.2610   20.8280  -31.9910 C   0  0  0  0  0  0  0  0  0  0  0  0
   -9.4540   21.7010  -31.7660 C   0  0  0  0  0  0  0  0  0  0  0  0
   -9.2470   22.9430  -32.3380 F   0  0  0  0  0  0  0  0  0  0  0  0
   -9.6610   21.8540  -30.4080 F   0  0  0  0  0  0  0  0  0  0  0  0
  -10.5750   21.1240  -32.3350 F   0  0  0  0  0  0  0  0  0  0  0  0
   -8.2770   19.4530  -32.1240 C   0  0  0  0  0  0  0  0  0  0  0  0
   -6.9680   19.1240  -32.4100 C   0  0  0  0  0  0  0  0  0  0  0  0
   -6.4740   17.7380  -32.6950 C   0  0  0  0  0  0  0  0  0  0  0  0
   -4.2020   19.5080  -33.6060 C   0  0  0  0  0  0  0  0  0  0  0  0
   -2.8400   19.6350  -33.8960 C   0  0  0  0  0  0  0  0  0  0  0  0
    2.8047   24.7803  -35.4499 H   0  0  0  0  0  0  0  0  0  0  0  0
    3.7124   24.5337  -36.9803 H   0  0  0  0  0  0  0  0  0  0  0  0
    2.1968   25.4980  -36.9803 H   0  0  0  0  0  0  0  0  0  0  0  0
    1.3175   20.9280  -36.1093 H   0  0  0  0  0  0  0  0  0  0  0  0
    1.4495   21.6437  -34.4466 H   0  0  0  0  0  0  0  0  0  0  0  0
   -1.1760   21.9060  -35.2930 H   0  0  0  0  0  0  0  0  0  0  0  0
   -0.0938   19.8655  -33.4346 H   0  0  0  0  0  0  0  0  0  0  0  0
   -0.1905   21.6119  -33.0230 H   0  0  0  0  0  0  0  0  0  0  0  0
   -2.1229   22.3658  -31.9663 H   0  0  0  0  0  0  0  0  0  0  0  0
   -4.5497   22.1388  -31.4484 H   0  0  0  0  0  0  0  0  0  0  0  0
   -9.1374   18.7749  -32.0245 H   0  0  0  0  0  0  0  0  0  0  0  0
   -6.2869   17.2132  -31.7466 H   0  0  0  0  0  0  0  0  0  0  0  0
   -7.2323   17.1903  -33.2738 H   0  0  0  0  0  0  0  0  0  0  0  0
   -5.5402   17.7933  -33.2738 H   0  0  0  0  0  0  0  0  0  0  0  0
   -4.7914   18.7134  -34.0870 H   0  0  0  0  0  0  0  0  0  0  0  0
   -2.3628   18.9378  -34.6004 H   0  0  0  0  0  0  0  0  0  0  0  0
  1  2  1  0
  2  3  1  0
  3  4  2  0
  3  5  1  0
  5  6  1  0
  6  7  1  0
  7  8  1  0
  8  9  2  0
  9 10  1  0
 10 11  2  0
 11 12  1  0
 12 13  1  0
 13 14  2  0
 14 15  1  0
 15 16  1  0
 15 17  1  0
 15 18  1  0
 14 19  1  0
 19 20  2  0
 20 21  1  0
 11 22  1  0
 22 23  2  0
 23  8  1  0
 20 12  1  0
  1 24  1  0
  1 25  1  0
  1 26  1  0
  5 27  1  0
  5 28  1  0
  6 29  1  0
  7 30  1  0
  7 31  1  0
  9 32  1  0
 10 33  1  0
 19 34  1  0
 21 35  1  0
 21 36  1  0
 21 37  1  0
 22 38  1  0
 23 39  1  0
M  CHG  1   2  -1
M  END
>  <UniqueID>  (35) 
32

>  <SMILES>  (35) 
C[N-]C(=O)CNCc1ccc(-n2nc(C(F)(F)F)cc2C)cc1

>  <Energy>  (35) 
67.55716657464603

>  <Genealogy>  (35) 
C[N-]C(=O)CNCc1ccc(-n2nc(C(F)(F)F)cc2C)cc1 (protonated)
C[N-]C(=O)CNCc1ccc(-n2nc(C(F)(F)F)cc2C)cc1 (3D coordinates assigned)
C[N-]C(=O)CNCc1ccc(-n2nc(C(F)(F)F)cc2C)cc1 (optimized conformer: 67.55716657464603 kcal/mol)

>  <smiles>  (35) 
CNC(=O)CNCc1ccc(-n2nc(C(F)(F)F)cc2C)cc1

>  <score_type>  (35) 
oracle

>  <origin>  (35) 
adg

>  <m_score__min__energy>  (35) 
-9.3900000000000006

>  <m_primary>  (35) 
energy

$$$$
35:0
     RDKit          3D

 51 53  0  0  0  0  0  0  0  0999 V2000
   -5.7668   26.6168  -30.1251 H   0  0  0  0  0  0  0  0  0  0  0  0
   -5.3210   25.6740  -30.4750 C   0  0  0  0  0  0  0  0  0  0  0  0
   -6.0020   24.8810  -31.3380 N   0  0  0  0  0  0  0  0  0  0  0  0
   -5.4610   23.7120  -31.7650 C   0  0  0  0  0  0  0  0  0  0  0  0
   -6.1250   22.9780  -32.6100 N   0  0  0  0  0  0  0  0  0  0  0  0
   -7.0880   21.9560  -32.2920 C   0  0  0  0  0  0  0  0  0  0  0  0
   -8.3910   22.2990  -31.8810 C   0  0  0  0  0  0  0  0  0  0  0  0
   -8.6776   23.3581  -31.8022 H   0  0  0  0  0  0  0  0  0  0  0  0
   -9.3210   21.3050  -31.5730 C   0  0  0  0  0  0  0  0  0  0  0  0
  -10.3318   21.5829  -31.2398 H   0  0  0  0  0  0  0  0  0  0  0  0
   -8.9710   19.9610  -31.6870 C   0  0  0  0  0  0  0  0  0  0  0  0
   -9.7028   19.1796  -31.4344 H   0  0  0  0  0  0  0  0  0  0  0  0
   -7.6940   19.6050  -32.1210 C   0  0  0  0  0  0  0  0  0  0  0  0
   -7.4289   18.5416  -32.2157 H   0  0  0  0  0  0  0  0  0  0  0  0
   -6.7410   20.5900  -32.4390 C   0  0  0  0  0  0  0  0  0  0  0  0
   -5.3900   20.1930  -32.9200 C   0  0  0  0  0  0  0  0  0  0  0  0
   -5.3020   19.2850  -33.7920 O   0  0  0  0  0  0  0  0  0  0  0  0
   -4.1840   20.8280  -32.4070 N   0  0  0  0  0  0  0  0  0  0  0  0
   -4.4920   21.7320  -31.9780 H   0  0  0  0  0  0  0  0  0  0  0  0
   -3.5140   20.0810  -31.3050 C   0  0  0  0  0  0  0  0  0  0  0  0
   -2.4825   19.8651  -31.6203 H   0  0  0  0  0  0  0  0  0  0  0  0
   -4.1239   19.1813  -31.1360 H   0  0  0  0  0  0  0  0  0  0  0  0
   -3.4530   20.8090  -29.9530 C   0  0  0  0  0  0  0  0  0  0  0  0
   -3.5146   20.0735  -29.1374 H   0  0  0  0  0  0  0  0  0  0  0  0
   -2.5053   21.3623  -29.8769 H   0  0  0  0  0  0  0  0  0  0  0  0
   -4.2954   21.5123  -29.8769 H   0  0  0  0  0  0  0  0  0  0  0  0
   -3.2710   21.2680  -33.4950 C   0  0  0  0  0  0  0  0  0  0  0  0
   -3.5146   20.6874  -34.3970 H   0  0  0  0  0  0  0  0  0  0  0  0
   -3.4339   22.3502  -33.6059 H   0  0  0  0  0  0  0  0  0  0  0  0
   -1.7710   21.0950  -33.2120 C   0  0  0  0  0  0  0  0  0  0  0  0
   -1.6028   21.0756  -32.1251 H   0  0  0  0  0  0  0  0  0  0  0  0
   -1.4210   20.1505  -33.6541 H   0  0  0  0  0  0  0  0  0  0  0  0
   -1.2152   21.9350  -33.6541 H   0  0  0  0  0  0  0  0  0  0  0  0
   -4.2230   23.3520  -31.3360 N   0  0  0  0  0  0  0  0  0  0  0  0
   -3.5300   24.1440  -30.4790 C   0  0  0  0  0  0  0  0  0  0  0  0
   -2.3590   23.7570  -30.0630 N   0  0  0  0  0  0  0  0  0  0  0  0
   -1.8100   23.9280  -28.7460 C   0  0  0  0  0  0  0  0  0  0  0  0
   -1.6250   22.8420  -27.8690 C   0  0  0  0  0  0  0  0  0  0  0  0
   -1.8698   21.8219  -28.1998 H   0  0  0  0  0  0  0  0  0  0  0  0
   -1.1310   23.0570  -26.5790 C   0  0  0  0  0  0  0  0  0  0  0  0
   -0.9788   22.2042  -25.9011 H   0  0  0  0  0  0  0  0  0  0  0  0
   -0.8300   24.3510  -26.1480 C   0  0  0  0  0  0  0  0  0  0  0  0
   -0.4413   24.5141  -25.1320 H   0  0  0  0  0  0  0  0  0  0  0  0
   -1.0220   25.4430  -27.0070 C   0  0  0  0  0  0  0  0  0  0  0  0
   -0.7530   26.8380  -26.5250 C   0  0  0  0  0  0  0  0  0  0  0  0
   -0.7503   26.8518  -25.4251 H   0  0  0  0  0  0  0  0  0  0  0  0
    0.2262   27.1725  -26.8982 H   0  0  0  0  0  0  0  0  0  0  0  0
   -1.5376   27.5126  -26.8982 H   0  0  0  0  0  0  0  0  0  0  0  0
   -1.5360   25.2260  -28.2950 C   0  0  0  0  0  0  0  0  0  0  0  0
   -1.7256   26.0837  -28.9571 H   0  0  0  0  0  0  0  0  0  0  0  0
   -4.0890   25.3040  -30.0430 N   0  0  0  0  0  0  0  0  0  0  0  0
  1  2  1  0
  2  3  2  0
  3  4  1  0
  4  5  2  3
  5  6  1  0
  6  7  2  0
  7  8  1  0
  7  9  1  0
  9 10  1  0
  9 11  2  0
 11 12  1  0
 11 13  1  0
 13 14  1  0
 13 15  2  0
 15 16  1  0
 16 17  2  0
 16 18  1  0
 18 19  1  0
 18 20  1  0
 20 21  1  0
 20 22  1  0
 20 23  1  0
 23 24  1  0
 23 25  1  0
 23 26  1  0
 18 27  1  0
 27 28  1  0
 27 29  1  0
 27 30  1  0
 30 31  1  0
 30 32  1  0
 30 33  1  0
  4 34  1  0
 34 35  1  0
 35 36  2  0
 36 37  1  0
 37 38  2  0
 38 39  1  0
 38 40  1  0
 40 41  1  0
 40 42  2  0
 42 43  1  0
 42 44  1  0
 44 45  1  0
 45 46  1  0
 45 47  1  0
 45 48  1  0
 44 49  2  0
 49 50  1  0
 35 51  1  0
 51  2  1  0
 15  6  1  0
 49 37  1  0
M  CHG  3  18   1  34  -1  51  -1
M  END
>  <UniqueID>  (36) 
33

>  <SMILES>  (36) 
CC[NH+](CC)C(=O)c1ccccc1N=c1nc[n-]/c(=N\c2cccc(C)c2)[n-]1

>  <Energy>  (36) 
79.96777820815161

>  <Genealogy>  (36) 
CC[NH+](CC)C(=O)c1ccccc1N=c1nc[n-]c(=Nc2cccc(C)c2)[n-]1 (protonated)
CC[NH+](CC)C(=O)c1ccccc1N=c1nc[n-]/c(=N\c2cccc(C)c2)[n-]1 (cis-trans isomerization)
CC[NH+](CC)C(=O)c1ccccc1N=c1nc[n-]/c(=N\c2cccc(C)c2)[n-]1 (3D coordinates assigned)
CC[NH+](CC)C(=O)c1ccccc1N=c1nc[n-]/c(=N\c2cccc(C)c2)[n-]1 (optimized conformer: 79.96777820815161 kcal/mol)

>  <smiles>  (36) 
CCN(CC)C(=O)c1ccccc1N=c1nc[nH]c(=Nc2cccc(C)c2)[nH]1

>  <score_type>  (36) 
oracle

>  <origin>  (36) 
adg

>  <m_score__min__energy>  (36) 
-9.0899999999999999

>  <m_primary>  (36) 
energy

$$$$
36:0
     RDKit          3D

 62 62  0  0  0  0  0  0  0  0999 V2000
   -9.4900   21.7470  -31.9170 C   0  0  0  0  0  0  0  0  0  0  0  0
   -8.8310   20.4480  -31.4650 C   0  0  0  0  0  0  0  0  0  0  0  0
   -8.6700   19.4710  -32.6400 C   0  0  0  0  0  0  0  0  0  0  0  0
   -7.2080   19.3300  -33.0900 C   0  0  0  0  0  0  0  0  0  0  0  0
   -6.2660   18.9580  -31.9310 C   0  0  0  0  0  0  0  0  0  0  0  0
   -4.8700   19.6010  -32.0870 C   0  0  0  0  0  0  0  0  0  0  0  0
   -4.8530   20.8250  -33.0240 C   0  0  0  0  0  0  0  0  0  0  0  0
   -4.7380   22.1840  -32.3140 C   0  0  0  0  0  0  0  0  0  0  0  0
   -6.0560   22.9760  -32.3330 C   0  0  0  0  0  0  0  0  0  0  0  0
   -6.6750   23.1300  -30.9330 C   0  0  0  0  0  0  0  0  0  0  0  0
   -6.6480   24.5620  -30.3650 C   0  0  0  0  0  0  0  0  0  0  0  0
   -5.3260   24.9280  -29.6610 C   0  0  0  0  0  0  0  0  0  0  0  0
   -4.6390   23.7020  -29.0370 C   0  0  0  0  0  0  0  0  0  0  0  0
   -3.2780   23.4170  -29.6830 C   0  0  0  0  0  0  0  0  0  0  0  0
   -2.2330   23.2110  -28.6710 N   0  0  0  0  0  0  0  0  0  0  0  0
   -1.9540   21.8900  -28.1790 C   0  0  0  0  0  0  0  0  0  0  0  0
   -0.6710   21.3390  -28.3160 C   0  0  0  0  0  0  0  0  0  0  0  0
   -0.4030   20.0490  -27.8450 C   0  0  0  0  0  0  0  0  0  0  0  0
   -1.4140   19.3030  -27.2340 C   0  0  0  0  0  0  0  0  0  0  0  0
   -2.6950   19.8460  -27.0930 C   0  0  0  0  0  0  0  0  0  0  0  0
   -2.9660   21.1350  -27.5620 C   0  0  0  0  0  0  0  0  0  0  0  0
   -1.1750   24.5230  -28.2320 S   0  0  0  0  0  0  0  0  0  0  0  0
   -1.2370   24.8410  -26.4810 C   0  0  0  0  0  0  0  0  0  0  0  0
    0.2340   24.1770  -28.6230 O   0  0  0  0  0  0  0  0  0  0  0  0
   -1.5830   25.7670  -28.9710 O   0  0  0  0  0  0  0  0  0  0  0  0
   -9.7875   22.3334  -31.0352 H   0  0  0  0  0  0  0  0  0  0  0  0
   -8.7779   22.3286  -32.5209 H   0  0  0  0  0  0  0  0  0  0  0  0
  -10.3799   21.5159  -32.5209 H   0  0  0  0  0  0  0  0  0  0  0  0
   -7.8387   20.6748  -31.0479 H   0  0  0  0  0  0  0  0  0  0  0  0
   -9.4718   19.9774  -30.7048 H   0  0  0  0  0  0  0  0  0  0  0  0
   -9.0410   18.4827  -32.3307 H   0  0  0  0  0  0  0  0  0  0  0  0
   -9.2445   19.8705  -33.4887 H   0  0  0  0  0  0  0  0  0  0  0  0
   -7.1497   18.5443  -33.8576 H   0  0  0  0  0  0  0  0  0  0  0  0
   -6.8845   20.3052  -33.4828 H   0  0  0  0  0  0  0  0  0  0  0  0
   -6.7120   19.3034  -30.9867 H   0  0  0  0  0  0  0  0  0  0  0  0
   -6.1380   17.8655  -31.9360 H   0  0  0  0  0  0  0  0  0  0  0  0
   -4.5212   19.9193  -31.0935 H   0  0  0  0  0  0  0  0  0  0  0  0
   -4.2147   18.8414  -32.5383 H   0  0  0  0  0  0  0  0  0  0  0  0
   -3.9953   20.7219  -33.7049 H   0  0  0  0  0  0  0  0  0  0  0  0
   -5.8233   20.8295  -33.5423 H   0  0  0  0  0  0  0  0  0  0  0  0
   -4.4463   22.0110  -31.2676 H   0  0  0  0  0  0  0  0  0  0  0  0
   -3.9852   22.7781  -32.8528 H   0  0  0  0  0  0  0  0  0  0  0  0
   -5.8591   23.9775  -32.7431 H   0  0  0  0  0  0  0  0  0  0  0  0
   -6.7715   22.4165  -32.9535 H   0  0  0  0  0  0  0  0  0  0  0  0
   -7.7240   22.8031  -30.9855 H   0  0  0  0  0  0  0  0  0  0  0  0
   -6.0612   22.5181  -30.2556 H   0  0  0  0  0  0  0  0  0  0  0  0
   -6.8058   25.2670  -31.1945 H   0  0  0  0  0  0  0  0  0  0  0  0
   -7.4418   24.6202  -29.6057 H   0  0  0  0  0  0  0  0  0  0  0  0
   -4.6451   25.3780  -30.3985 H   0  0  0  0  0  0  0  0  0  0  0  0
   -5.5605   25.6322  -28.8491 H   0  0  0  0  0  0  0  0  0  0  0  0
   -4.4909   23.8861  -27.9627 H   0  0  0  0  0  0  0  0  0  0  0  0
   -5.2851   22.8277  -29.2048 H   0  0  0  0  0  0  0  0  0  0  0  0
   -3.3591   22.5115  -30.3022 H   0  0  0  0  0  0  0  0  0  0  0  0
   -2.9982   24.2870  -30.2952 H   0  0  0  0  0  0  0  0  0  0  0  0
    0.1277   21.9237  -28.7958 H   0  0  0  0  0  0  0  0  0  0  0  0
    0.6046   19.6218  -27.9559 H   0  0  0  0  0  0  0  0  0  0  0  0
   -1.2025   18.2889  -26.8640 H   0  0  0  0  0  0  0  0  0  0  0  0
   -3.4907   19.2580  -26.6123 H   0  0  0  0  0  0  0  0  0  0  0  0
   -3.9744   21.5594  -27.4477 H   0  0  0  0  0  0  0  0  0  0  0  0
   -1.0546   23.9055  -25.9318 H   0  0  0  0  0  0  0  0  0  0  0  0
   -0.4658   25.5788  -26.2148 H   0  0  0  0  0  0  0  0  0  0  0  0
   -2.2289   25.2351  -26.2148 H   0  0  0  0  0  0  0  0  0  0  0  0
  1  2  1  0
  2  3  1  0
  3  4  1  0
  4  5  1  0
  5  6  1  0
  6  7  1  0
  7  8  1  0
  8  9  1  0
  9 10  1  0
 10 11  1  0
 11 12  1  0
 12 13  1  0
 13 14  1  0
 14 15  1  0
 15 16  1  0
 16 17  2  0
 17 18  1  0
 18 19  2  0
 19 20  1  0
 20 21  2  0
 15 22  1  0
 22 23  1  0
 22 24  2  0
 22 25  2  0
 21 16  1  0
  1 26  1  0
  1 27  1  0
  1 28  1  0
  2 29  1  0
  2 30  1  0
  3 31  1  0
  3 32  1  0
  4 33  1  0
  4 34  1  0
  5 35  1  0
  5 36  1  0
  6 37  1  0
  6 38  1  0
  7 39  1  0
  7 40  1  0
  8 41  1  0
  8 42  1  0
  9 43  1  0
  9 44  1  0
 10 45  1  0
 10 46  1  0
 11 47  1  0
 11 48  1  0
 12 49  1  0
 12 50  1  0
 13 51  1  0
 13 52  1  0
 14 53  1  0
 14 54  1  0
 17 55  1  0
 18 56  1  0
 19 57  1  0
 20 58  1  0
 21 59  1  0
 23 60  1  0
 23 61  1  0
 23 62  1  0
M  END
>  <UniqueID>  (37) 
34

>  <SMILES>  (37) 
CCCCCCCCCCCCCCN(c1ccccc1)S(C)(=O)=O

>  <Energy>  (37) 
41.69450601650867

>  <Genealogy>  (37) 
CCCCCCCCCCCCCCN(c1ccccc1)S(C)(=O)=O (3D coordinates assigned)
CCCCCCCCCCCCCCN(c1ccccc1)S(C)(=O)=O (optimized conformer: 41.69450601650867 kcal/mol)

>  <smiles>  (37) 
CCCCCCCCCCCCCCN(c1ccccc1)S(C)(=O)=O

>  <score_type>  (37) 
oracle

>  <origin>  (37) 
adg

>  <m_score__min__energy>  (37) 
-8.3000000000000007

>  <m_primary>  (37) 
energy

$$$$
37:0
     RDKit          3D

 35 36  0  0  0  0  0  0  0  0999 V2000
   -9.0530   20.0620  -32.2840 C   0  0  0  0  0  0  0  0  0  0  0  0
   -7.6750   19.7630  -31.7020 C   0  0  0  0  0  0  0  0  0  0  0  0
   -6.8510   18.9390  -32.6630 C   0  0  0  0  0  0  0  0  0  0  0  0
   -7.2170   17.6020  -32.8960 C   0  0  0  0  0  0  0  0  0  0  0  0
   -6.4830   16.8090  -33.7810 C   0  0  0  0  0  0  0  0  0  0  0  0
   -5.3700   17.3370  -34.4340 C   0  0  0  0  0  0  0  0  0  0  0  0
   -4.9850   18.6580  -34.2040 C   0  0  0  0  0  0  0  0  0  0  0  0
   -5.7180   19.4730  -33.3230 C   0  0  0  0  0  0  0  0  0  0  0  0
   -5.2840   20.8180  -33.0660 N   0  0  0  0  0  0  0  0  0  0  0  0
   -4.3760   21.1620  -32.0080 C   0  0  0  0  0  0  0  0  0  0  0  0
   -3.8980   20.2690  -31.2580 O   0  0  0  0  0  0  0  0  0  0  0  0
   -3.9260   22.5820  -31.8430 C   0  0  0  0  0  0  0  0  0  0  0  0
   -4.9740   23.3670  -31.1730 N   0  0  0  0  0  0  0  0  0  0  0  0
   -6.2750   22.9400  -31.2440 C   0  0  0  0  0  0  0  0  0  0  0  0
   -7.3010   23.6790  -30.6530 C   0  0  0  0  0  0  0  0  0  0  0  0
   -6.9970   24.8640  -29.9890 C   0  0  0  0  0  0  0  0  0  0  0  0
   -5.6750   25.3010  -29.9240 C   0  0  0  0  0  0  0  0  0  0  0  0
   -4.6670   24.5410  -30.5290 C   0  0  0  0  0  0  0  0  0  0  0  0
   -3.4760   24.9530  -30.4740 O   0  0  0  0  0  0  0  0  0  0  0  0
   -9.7709   20.2178  -31.4652 H   0  0  0  0  0  0  0  0  0  0  0  0
   -9.0004   20.9696  -32.9032 H   0  0  0  0  0  0  0  0  0  0  0  0
   -9.3813   19.2142  -32.9032 H   0  0  0  0  0  0  0  0  0  0  0  0
   -7.1546   20.7115  -31.5030 H   0  0  0  0  0  0  0  0  0  0  0  0
   -7.8033   19.1923  -30.7704 H   0  0  0  0  0  0  0  0  0  0  0  0
   -8.0887   17.1767  -32.3771 H   0  0  0  0  0  0  0  0  0  0  0  0
   -6.7834   15.7666  -33.9630 H   0  0  0  0  0  0  0  0  0  0  0  0
   -4.7945   16.7109  -35.1317 H   0  0  0  0  0  0  0  0  0  0  0  0
   -4.1008   19.0655  -34.7160 H   0  0  0  0  0  0  0  0  0  0  0  0
   -5.5650   21.5700  -33.7330 H   0  0  0  0  0  0  0  0  0  0  0  0
   -3.0090   22.6054  -31.2359 H   0  0  0  0  0  0  0  0  0  0  0  0
   -3.7281   23.0156  -32.8344 H   0  0  0  0  0  0  0  0  0  0  0  0
   -6.5127   22.0050  -31.7724 H   0  0  0  0  0  0  0  0  0  0  0  0
   -8.3418   23.3277  -30.7115 H   0  0  0  0  0  0  0  0  0  0  0  0
   -7.7971   25.4534  -29.5173 H   0  0  0  0  0  0  0  0  0  0  0  0
   -5.4256   26.2361  -29.4012 H   0  0  0  0  0  0  0  0  0  0  0  0
  1  2  1  0
  2  3  1  0
  3  4  2  0
  4  5  1  0
  5  6  2  0
  6  7  1  0
  7  8  2  0
  8  9  1  0
  9 10  1  0
 10 11  2  0
 10 12  1  0
 12 13  1  0
 13 14  1  0
 14 15  2  0
 15 16  1  0
 16 17  2  0
 17 18  1  0
 18 19  2  0
  8  3  1  0
 18 13  1  0
  1 20  1  0
  1 21  1  0
  1 22  1  0
  2 23  1  0
  2 24  1  0
  4 25  1  0
  5 26  1  0
  6 27  1  0
  7 28  1  0
  9 29  1  0
 12 30  1  0
 12 31  1  0
 14 32  1  0
 15 33  1  0
 16 34  1  0
 17 35  1  0
M  END
>  <UniqueID>  (38) 
35

>  <SMILES>  (38) 
CCc1ccccc1NC(=O)Cn1ccccc1=O

>  <Energy>  (38) 
37.26838374830971

>  <Genealogy>  (38) 
CCc1ccccc1NC(=O)Cn1ccccc1=O (3D coordinates assigned)
CCc1ccccc1NC(=O)Cn1ccccc1=O (optimized conformer: 37.26838374830971 kcal/mol)

>  <smiles>  (38) 
CCc1ccccc1NC(=O)Cn1ccccc1=O

>  <score_type>  (38) 
oracle

>  <origin>  (38) 
adg

>  <m_score__min__energy>  (38) 
-7.7199999999999998

>  <m_primary>  (38) 
energy

$$$$
38:0
     RDKit          3D

 33 35  0  0  0  0  0  0  0  0999 V2000
   -3.7210   21.8240  -30.5370 O   0  0  0  0  0  0  0  0  0  0  0  0
   -4.4760   22.4780  -31.3070 C   0  0  0  0  0  0  0  0  0  0  0  0
   -4.7020   22.0340  -32.6540 N   0  0  0  0  0  0  0  0  0  0  0  0
   -4.2220   20.7760  -33.1610 C   0  0  0  0  0  0  0  0  0  0  0  0
   -2.9020   20.6680  -33.6350 C   0  0  0  0  0  0  0  0  0  0  0  0
   -2.3980   19.4360  -34.0570 C   0  0  0  0  0  0  0  0  0  0  0  0
   -3.1980   18.2950  -33.9990 C   0  0  0  0  0  0  0  0  0  0  0  0
   -2.5020   16.6110  -34.5730 Br  0  0  0  0  0  0  0  0  0  0  0  0
   -4.5070   18.3830  -33.5210 C   0  0  0  0  0  0  0  0  0  0  0  0
   -5.0340   19.6170  -33.1010 C   0  0  0  0  0  0  0  0  0  0  0  0
   -6.4410   19.6780  -32.6360 C   0  0  0  0  0  0  0  0  0  0  0  0
   -7.0520   18.5430  -32.0740 C   0  0  0  0  0  0  0  0  0  0  0  0
   -8.3810   18.5970  -31.6420 C   0  0  0  0  0  0  0  0  0  0  0  0
   -9.1130   19.7800  -31.7750 C   0  0  0  0  0  0  0  0  0  0  0  0
   -8.5170   20.9100  -32.3410 C   0  0  0  0  0  0  0  0  0  0  0  0
   -7.1900   20.8610  -32.7740 C   0  0  0  0  0  0  0  0  0  0  0  0
   -5.0990   23.7210  -30.8270 C   0  0  0  0  0  0  0  0  0  0  0  0
   -6.3190   23.8230  -30.1880 C   0  0  0  0  0  0  0  0  0  0  0  0
   -6.4900   25.1660  -29.9270 C   0  0  0  0  0  0  0  0  0  0  0  0
   -5.3670   25.7990  -30.4230 C   0  0  0  0  0  0  0  0  0  0  0  0
   -4.5580   24.9110  -30.9530 O   0  0  0  0  0  0  0  0  0  0  0  0
   -5.1710   22.6880  -33.3190 H   0  0  0  0  0  0  0  0  0  0  0  0
   -2.2615   21.5615  -33.6736 H   0  0  0  0  0  0  0  0  0  0  0  0
   -1.3678   19.3652  -34.4360 H   0  0  0  0  0  0  0  0  0  0  0  0
   -5.1315   17.4788  -33.4726 H   0  0  0  0  0  0  0  0  0  0  0  0
   -6.4816   17.6078  -31.9736 H   0  0  0  0  0  0  0  0  0  0  0  0
   -8.8507   17.7074  -31.1970 H   0  0  0  0  0  0  0  0  0  0  0  0
  -10.1581   19.8216  -31.4342 H   0  0  0  0  0  0  0  0  0  0  0  0
   -9.0943   21.8404  -32.4458 H   0  0  0  0  0  0  0  0  0  0  0  0
   -6.7282   21.7517  -33.2251 H   0  0  0  0  0  0  0  0  0  0  0  0
   -7.0099   23.0040  -29.9392 H   0  0  0  0  0  0  0  0  0  0  0  0
   -7.3475   25.6380  -29.4251 H   0  0  0  0  0  0  0  0  0  0  0  0
   -5.1791   26.8820  -30.3805 H   0  0  0  0  0  0  0  0  0  0  0  0
  1  2  2  0
  2  3  1  0
  3  4  1  0
  4  5  2  0
  5  6  1  0
  6  7  2  0
  7  8  1  0
  7  9  1  0
  9 10  2  0
 10 11  1  0
 11 12  2  0
 12 13  1  0
 13 14  2  0
 14 15  1  0
 15 16  2  0
  2 17  1  0
 17 18  2  0
 18 19  1  0
 19 20  2  0
 20 21  1  0
 10  4  1  0
 16 11  1  0
 21 17  1  0
  3 22  1  0
  5 23  1  0
  6 24  1  0
  9 25  1  0
 12 26  1  0
 13 27  1  0
 14 28  1  0
 15 29  1  0
 16 30  1  0
 18 31  1  0
 19 32  1  0
 20 33  1  0
M  END
>  <UniqueID>  (39) 
36

>  <SMILES>  (39) 
O=C(Nc1ccc(Br)cc1-c1ccccc1)c1ccco1

>  <Energy>  (39) 
70.78290727557614

>  <Genealogy>  (39) 
O=C(Nc1ccc(Br)cc1-c1ccccc1)c1ccco1 (3D coordinates assigned)
O=C(Nc1ccc(Br)cc1-c1ccccc1)c1ccco1 (optimized conformer: 70.78290727557614 kcal/mol)

>  <smiles>  (39) 
O=C(Nc1ccc(Br)cc1-c1ccccc1)c1ccco1

>  <score_type>  (39) 
oracle

>  <origin>  (39) 
adg

>  <m_score__min__energy>  (39) 
-8.8399999999999999

>  <m_primary>  (39) 
energy

$$$$
39:0
     RDKit          3D

 42 45  0  0  0  0  0  0  0  0999 V2000
   -1.2390   17.3960  -32.7800 C   0  0  0  0  0  0  0  0  0  0  0  0
   -2.0380   18.6570  -32.8590 C   0  0  0  0  0  0  0  0  0  0  0  0
   -3.4290   18.6060  -33.0140 C   0  0  0  0  0  0  0  0  0  0  0  0
   -4.1690   19.7960  -33.0900 C   0  0  0  0  0  0  0  0  0  0  0  0
   -3.4900   21.0220  -33.0540 C   0  0  0  0  0  0  0  0  0  0  0  0
   -2.0960   21.0300  -32.9040 C   0  0  0  0  0  0  0  0  0  0  0  0
   -1.4110   19.8610  -32.8130 N   0  0  0  0  0  0  0  0  0  0  0  0
   -4.2550   22.2980  -33.1320 C   0  0  0  0  0  0  0  0  0  0  0  0
   -5.1270   22.3750  -31.9680 N   0  0  0  0  0  0  0  0  0  0  0  0
   -4.5390   23.1660  -30.5290 S   0  0  0  0  0  0  0  0  0  0  0  0
   -5.5840   23.1160  -29.4510 O   0  0  0  0  0  0  0  0  0  0  0  0
   -4.2510   24.6060  -30.8510 O   0  0  0  0  0  0  0  0  0  0  0  0
   -3.0760   22.3720  -29.9540 C   0  0  0  0  0  0  0  0  0  0  0  0
   -3.1390   21.0730  -29.4290 C   0  0  0  0  0  0  0  0  0  0  0  0
   -1.9740   20.4340  -28.9960 C   0  0  0  0  0  0  0  0  0  0  0  0
   -0.7410   21.0900  -29.0850 C   0  0  0  0  0  0  0  0  0  0  0  0
   -0.6740   22.3840  -29.6050 C   0  0  0  0  0  0  0  0  0  0  0  0
   -1.8380   23.0260  -30.0370 C   0  0  0  0  0  0  0  0  0  0  0  0
   -6.4070   21.7150  -31.9740 C   0  0  0  0  0  0  0  0  0  0  0  0
   -7.4950   22.3430  -31.3360 C   0  0  0  0  0  0  0  0  0  0  0  0
   -8.7700   21.7840  -31.3700 C   0  0  0  0  0  0  0  0  0  0  0  0
   -8.9870   20.5910  -32.0480 C   0  0  0  0  0  0  0  0  0  0  0  0
   -7.9290   19.9480  -32.6860 C   0  0  0  0  0  0  0  0  0  0  0  0
   -6.6250   20.4800  -32.6570 C   0  0  0  0  0  0  0  0  0  0  0  0
   -5.5890   19.7190  -33.3200 N   0  0  0  0  0  0  0  0  0  0  0  0
   -1.0724   17.1330  -31.7250 H   0  0  0  0  0  0  0  0  0  0  0  0
   -1.7870   16.5828  -33.2784 H   0  0  0  0  0  0  0  0  0  0  0  0
   -0.2697   17.5443  -33.2784 H   0  0  0  0  0  0  0  0  0  0  0  0
   -3.9409   17.6343  -33.0761 H   0  0  0  0  0  0  0  0  0  0  0  0
   -1.5552   21.9868  -32.8599 H   0  0  0  0  0  0  0  0  0  0  0  0
   -3.5594   23.1502  -33.1337 H   0  0  0  0  0  0  0  0  0  0  0  0
   -4.8501   22.3295  -34.0566 H   0  0  0  0  0  0  0  0  0  0  0  0
   -4.1074   20.5561  -29.3579 H   0  0  0  0  0  0  0  0  0  0  0  0
   -2.0262   19.4150  -28.5851 H   0  0  0  0  0  0  0  0  0  0  0  0
    0.1757   20.5859  -28.7451 H   0  0  0  0  0  0  0  0  0  0  0  0
    0.2957   22.8987  -29.6748 H   0  0  0  0  0  0  0  0  0  0  0  0
   -1.7830   24.0468  -30.4431 H   0  0  0  0  0  0  0  0  0  0  0  0
   -7.3345   23.2911  -30.8019 H   0  0  0  0  0  0  0  0  0  0  0  0
   -9.6050   22.2869  -30.8602 H   0  0  0  0  0  0  0  0  0  0  0  0
   -9.9958   20.1536  -32.0810 H   0  0  0  0  0  0  0  0  0  0  0  0
   -8.1153   19.0063  -33.2231 H   0  0  0  0  0  0  0  0  0  0  0  0
   -5.9060   18.8870  -33.8740 H   0  0  0  0  0  0  0  0  0  0  0  0
  1  2  1  0
  2  3  2  0
  3  4  1  0
  4  5  2  0
  5  6  1  0
  6  7  2  0
  5  8  1  0
  8  9  1  0
  9 10  1  0
 10 11  2  0
 10 12  2  0
 10 13  1  0
 13 14  2  0
 14 15  1  0
 15 16  2  0
 16 17  1  0
 17 18  2  0
  9 19  1  0
 19 20  2  0
 20 21  1  0
 21 22  2  0
 22 23  1  0
 23 24  2  0
 24 25  1  0
  7  2  1  0
 18 13  1  0
 24 19  1  0
 25  4  1  0
  1 26  1  0
  1 27  1  0
  1 28  1  0
  3 29  1  0
  6 30  1  0
  8 31  1  0
  8 32  1  0
 14 33  1  0
 15 34  1  0
 16 35  1  0
 17 36  1  0
 18 37  1  0
 20 38  1  0
 21 39  1  0
 22 40  1  0
 23 41  1  0
 25 42  1  0
M  END
>  <UniqueID>  (40) 
37

>  <SMILES>  (40) 
Cc1cc2c(cn1)CN(S(=O)(=O)c1ccccc1)c1ccccc1N2

>  <Energy>  (40) 
61.43476913404073

>  <Genealogy>  (40) 
Cc1cc2c(cn1)CN(S(=O)(=O)c1ccccc1)c1ccccc1N2 (3D coordinates assigned)
Cc1cc2c(cn1)CN(S(=O)(=O)c1ccccc1)c1ccccc1N2 (nonaromatic ring conformer: 61.43476913404073 kcal/mol)

>  <smiles>  (40) 
Cc1cc2c(cn1)CN(S(=O)(=O)c1ccccc1)c1ccccc1N2

>  <score_type>  (40) 
oracle

>  <origin>  (40) 
adg

>  <m_score__min__energy>  (40) 
-8.1899999999999995

>  <m_primary>  (40) 
energy

$$$$
40:0
     RDKit          3D

 46 48  0  0  0  0  0  0  0  0999 V2000
   -5.3820   14.9030  -33.4480 C   0  0  0  0  0  0  0  0  0  0  0  0
   -6.5560   15.6630  -33.7190 O   0  0  0  0  0  0  0  0  0  0  0  0
   -6.6120   17.0580  -33.6170 C   0  0  0  0  0  0  0  0  0  0  0  0
   -7.5580   17.6180  -32.7500 C   0  0  0  0  0  0  0  0  0  0  0  0
   -7.6370   19.0040  -32.5840 C   0  0  0  0  0  0  0  0  0  0  0  0
   -8.5370   19.5750  -31.6790 C   0  0  0  0  0  0  0  0  0  0  0  0
   -8.5420   20.9600  -31.4680 C   0  0  0  0  0  0  0  0  0  0  0  0
   -9.4680   21.5630  -30.4510 C   0  0  0  0  0  0  0  0  0  0  0  0
   -7.6340   21.7560  -32.1820 C   0  0  0  0  0  0  0  0  0  0  0  0
   -7.4880   23.5230  -31.8810 S   0  0  0  0  0  0  0  0  0  0  0  0
   -6.3490   23.3440  -30.4660 C   0  0  0  0  0  0  0  0  0  0  0  0
   -4.9320   23.3860  -30.9540 C   0  0  0  0  0  0  0  0  0  0  0  0
   -4.3400   24.4970  -30.9820 O   0  0  0  0  0  0  0  0  0  0  0  0
   -4.2720   22.2160  -31.4690 N   0  0  0  0  0  0  0  0  0  0  0  0
   -3.1100   22.2900  -32.3330 C   0  0  0  0  0  0  0  0  0  0  0  0
   -2.8540   20.8550  -32.7790 C   0  0  0  0  0  0  0  0  0  0  0  0
   -3.5620   19.9680  -31.7620 C   0  0  0  0  0  0  0  0  0  0  0  0
   -4.6180   20.8490  -31.1100 C   0  0  0  0  0  0  0  0  0  0  0  0
   -6.8070   21.1850  -33.0960 N   0  0  0  0  0  0  0  0  0  0  0  0
   -6.7790   19.8430  -33.3080 C   0  0  0  0  0  0  0  0  0  0  0  0
   -5.8380   19.2910  -34.1850 C   0  0  0  0  0  0  0  0  0  0  0  0
   -5.7200   17.8970  -34.3210 C   0  0  0  0  0  0  0  0  0  0  0  0
   -4.7050   17.3140  -35.1000 O   0  0  0  0  0  0  0  0  0  0  0  0
   -3.3180   17.3370  -34.7920 C   0  0  0  0  0  0  0  0  0  0  0  0
   -5.2454   14.8146  -32.3601 H   0  0  0  0  0  0  0  0  0  0  0  0
   -5.4851   13.8998  -33.8873 H   0  0  0  0  0  0  0  0  0  0  0  0
   -4.5089   15.4077  -33.8873 H   0  0  0  0  0  0  0  0  0  0  0  0
   -8.2448   16.9621  -32.1948 H   0  0  0  0  0  0  0  0  0  0  0  0
   -9.2436   18.9345  -31.1308 H   0  0  0  0  0  0  0  0  0  0  0  0
   -9.1056   21.3270  -29.4396 H   0  0  0  0  0  0  0  0  0  0  0  0
   -9.4982   22.6545  -30.5842 H   0  0  0  0  0  0  0  0  0  0  0  0
  -10.4785   21.1492  -30.5842 H   0  0  0  0  0  0  0  0  0  0  0  0
   -6.5161   24.1665  -29.7550 H   0  0  0  0  0  0  0  0  0  0  0  0
   -6.5353   22.3821  -29.9659 H   0  0  0  0  0  0  0  0  0  0  0  0
   -3.3149   22.9334  -33.2013 H   0  0  0  0  0  0  0  0  0  0  0  0
   -2.2400   22.7224  -31.8171 H   0  0  0  0  0  0  0  0  0  0  0  0
   -3.2664   20.6878  -33.7850 H   0  0  0  0  0  0  0  0  0  0  0  0
   -1.7776   20.6335  -32.8275 H   0  0  0  0  0  0  0  0  0  0  0  0
   -4.0346   19.1109  -32.2641 H   0  0  0  0  0  0  0  0  0  0  0  0
   -2.8592   19.5608  -31.0202 H   0  0  0  0  0  0  0  0  0  0  0  0
   -5.6178   20.5943  -31.4915 H   0  0  0  0  0  0  0  0  0  0  0  0
   -4.6422   20.7112  -30.0189 H   0  0  0  0  0  0  0  0  0  0  0  0
   -5.1855   19.9536  -34.7726 H   0  0  0  0  0  0  0  0  0  0  0  0
   -3.1849   17.3392  -33.7001 H   0  0  0  0  0  0  0  0  0  0  0  0
   -2.8328   16.4468  -35.2187 H   0  0  0  0  0  0  0  0  0  0  0  0
   -2.8626   18.2428  -35.2187 H   0  0  0  0  0  0  0  0  0  0  0  0
  1  2  1  0
  2  3  1  0
  3  4  2  0
  4  5  1  0
  5  6  2  0
  6  7  1  0
  7  8  1  0
  7  9  2  0
  9 10  1  0
 10 11  1  0
 11 12  1  0
 12 13  2  0
 12 14  1  0
 14 15  1  0
 15 16  1  0
 16 17  1  0
 17 18  1  0
  9 19  1  0
 19 20  2  0
 20 21  1  0
 21 22  2  0
 22 23  1  0
 23 24  1  0
 22  3  1  0
 20  5  1  0
 18 14  1  0
  1 25  1  0
  1 26  1  0
  1 27  1  0
  4 28  1  0
  6 29  1  0
  8 30  1  0
  8 31  1  0
  8 32  1  0
 11 33  1  0
 11 34  1  0
 15 35  1  0
 15 36  1  0
 16 37  1  0
 16 38  1  0
 17 39  1  0
 17 40  1  0
 18 41  1  0
 18 42  1  0
 21 43  1  0
 24 44  1  0
 24 45  1  0
 24 46  1  0
M  END
>  <UniqueID>  (41) 
38

>  <SMILES>  (41) 
COc1cc2cc(C)c(SCC(=O)N3CCCC3)nc2cc1OC

>  <Energy>  (41) 
48.13742837348625

>  <Genealogy>  (41) 
COc1cc2cc(C)c(SCC(=O)N3CCCC3)nc2cc1OC (3D coordinates assigned)
COc1cc2cc(C)c(SCC(=O)N3CCCC3)nc2cc1OC (nonaromatic ring conformer: 48.13742837348625 kcal/mol)

>  <smiles>  (41) 
COc1cc2cc(C)c(SCC(=O)N3CCCC3)nc2cc1OC

>  <score_type>  (41) 
oracle

>  <origin>  (41) 
adg

>  <m_score__min__energy>  (41) 
-8.2699999999999996

>  <m_primary>  (41) 
energy

$$$$
41:0
     RDKit          3D

 41 44  0  0  0  0  0  0  0  0999 V2000
   -7.9660   17.9380  -31.9690 C   0  0  0  0  0  0  0  0  0  0  0  0
   -7.8760   19.4340  -31.9140 C   0  0  0  0  0  0  0  0  0  0  0  0
   -6.9700   20.1190  -32.7380 C   0  0  0  0  0  0  0  0  0  0  0  0
   -6.9140   21.5150  -32.7160 C   0  0  0  0  0  0  0  0  0  0  0  0
   -7.7650   22.2450  -31.8730 C   0  0  0  0  0  0  0  0  0  0  0  0
   -7.7350   23.7480  -31.8880 C   0  0  0  0  0  0  0  0  0  0  0  0
   -6.6680   24.2330  -31.0200 N   0  0  0  0  0  0  0  0  0  0  0  0
   -6.8230   25.1120  -30.0300 N   0  0  0  0  0  0  0  0  0  0  0  0
   -5.6710   25.2830  -29.3810 N   0  0  0  0  0  0  0  0  0  0  0  0
   -4.7720   24.4780  -29.9720 C   0  0  0  0  0  0  0  0  0  0  0  0
   -3.4440   24.2140  -29.6850 C   0  0  0  0  0  0  0  0  0  0  0  0
   -2.8420   24.7980  -28.7460 O   0  0  0  0  0  0  0  0  0  0  0  0
   -2.8040   23.2850  -30.4580 N   0  0  0  0  0  0  0  0  0  0  0  0
   -3.4500   22.6270  -31.4820 C   0  0  0  0  0  0  0  0  0  0  0  0
   -2.7260   21.6140  -32.2910 C   0  0  0  0  0  0  0  0  0  0  0  0
   -1.3200   21.5560  -32.2760 C   0  0  0  0  0  0  0  0  0  0  0  0
   -0.6410   20.5990  -33.0370 C   0  0  0  0  0  0  0  0  0  0  0  0
   -1.3530   19.6860  -33.8230 C   0  0  0  0  0  0  0  0  0  0  0  0
   -0.6580   18.7080  -34.6000 N   0  0  0  0  0  0  0  0  0  0  0  0
   -2.7530   19.7360  -33.8430 C   0  0  0  0  0  0  0  0  0  0  0  0
   -3.4350   20.6910  -33.0840 C   0  0  0  0  0  0  0  0  0  0  0  0
   -4.7690   22.9010  -31.7450 N   0  0  0  0  0  0  0  0  0  0  0  0
   -5.3880   23.8300  -30.9810 C   0  0  0  0  0  0  0  0  0  0  0  0
   -8.6910   21.5610  -31.0700 C   0  0  0  0  0  0  0  0  0  0  0  0
   -8.7490   20.1640  -31.0920 C   0  0  0  0  0  0  0  0  0  0  0  0
   -7.9903   17.5343  -30.9461 H   0  0  0  0  0  0  0  0  0  0  0  0
   -8.8834   17.6452  -32.5006 H   0  0  0  0  0  0  0  0  0  0  0  0
   -7.0903   17.5373  -32.5006 H   0  0  0  0  0  0  0  0  0  0  0  0
   -6.3010   19.5545  -33.4042 H   0  0  0  0  0  0  0  0  0  0  0  0
   -6.1990   22.0442  -33.3630 H   0  0  0  0  0  0  0  0  0  0  0  0
   -7.5570   24.0988  -32.9153 H   0  0  0  0  0  0  0  0  0  0  0  0
   -8.6995   24.1326  -31.5250 H   0  0  0  0  0  0  0  0  0  0  0  0
   -5.5290   25.9110  -28.5600 H   0  0  0  0  0  0  0  0  0  0  0  0
   -0.7508   22.2687  -31.6611 H   0  0  0  0  0  0  0  0  0  0  0  0
    0.4583   20.5638  -33.0176 H   0  0  0  0  0  0  0  0  0  0  0  0
    0.3000   18.3910  -34.3290 H   0  0  0  0  0  0  0  0  0  0  0  0
   -1.0950   18.2920  -35.4530 H   0  0  0  0  0  0  0  0  0  0  0  0
   -3.3178   19.0205  -34.4587 H   0  0  0  0  0  0  0  0  0  0  0  0
   -4.5343   20.7220  -33.1062 H   0  0  0  0  0  0  0  0  0  0  0  0
   -9.3746   22.1268  -30.4200 H   0  0  0  0  0  0  0  0  0  0  0  0
   -9.4808   19.6355  -30.4634 H   0  0  0  0  0  0  0  0  0  0  0  0
  1  2  1  0
  2  3  2  0
  3  4  1  0
  4  5  2  0
  5  6  1  0
  6  7  1  0
  7  8  1  0
  8  9  2  0
  9 10  1  0
 10 11  1  0
 11 12  2  0
 11 13  1  0
 13 14  1  0
 14 15  1  0
 15 16  2  0
 16 17  1  0
 17 18  2  0
 18 19  1  0
 18 20  1  0
 20 21  2  0
 14 22  2  0
 22 23  1  0
  5 24  1  0
 24 25  2  0
 25  2  1  0
 23  7  1  0
 23 10  2  0
 21 15  1  0
  1 26  1  0
  1 27  1  0
  1 28  1  0
  3 29  1  0
  4 30  1  0
  6 31  1  0
  6 32  1  0
  9 33  1  0
 16 34  1  0
 17 35  1  0
 19 36  1  0
 19 37  1  0
 20 38  1  0
 21 39  1  0
 24 40  1  0
 25 41  1  0
M  CHG  2   9   1  13  -1
M  END
>  <UniqueID>  (42) 
39

>  <SMILES>  (42) 
Cc1ccc(Cn2n[nH+]c3c(=O)[n-]c(-c4ccc(N)cc4)nc32)cc1

>  <Energy>  (42) 
92.92854865805137

>  <Genealogy>  (42) 
Cc1ccc(Cn2n[nH+]c3c(=O)[n-]c(-c4ccc(N)cc4)nc32)cc1 (protonated)
Cc1ccc(Cn2n[nH+]c3c(=O)[n-]c(-c4ccc(N)cc4)nc32)cc1 (3D coordinates assigned)
Cc1ccc(Cn2n[nH+]c3c(=O)[n-]c(-c4ccc(N)cc4)nc32)cc1 (optimized conformer: 92.92854865805137 kcal/mol)

>  <smiles>  (42) 
Cc1ccc(Cn2nnc3c(=O)[nH]c(-c4ccc(N)cc4)nc32)cc1

>  <score_type>  (42) 
oracle

>  <origin>  (42) 
adg

>  <m_score__min__energy>  (42) 
-8.6400000000000006

>  <m_primary>  (42) 
energy

$$$$
42:0
     RDKit          3D

 35 36  0  0  0  0  0  0  0  0999 V2000
   -2.1980   25.0100  -27.1020 C   0  0  0  0  0  0  0  0  0  0  0  0
   -2.0400   25.0000  -28.5160 O   0  0  0  0  0  0  0  0  0  0  0  0
   -2.5340   23.9950  -29.3630 C   0  0  0  0  0  0  0  0  0  0  0  0
   -2.1370   22.6490  -29.2430 C   0  0  0  0  0  0  0  0  0  0  0  0
   -2.6560   21.6810  -30.1080 C   0  0  0  0  0  0  0  0  0  0  0  0
   -3.5760   22.0400  -31.1050 C   0  0  0  0  0  0  0  0  0  0  0  0
   -4.1660   20.9890  -32.0150 C   0  0  0  0  0  0  0  0  0  0  0  0
   -5.3440   21.4900  -32.7490 N   0  0  0  0  0  0  0  0  0  0  0  0
   -6.5170   20.6730  -32.5030 C   0  0  0  0  0  0  0  0  0  0  0  0
   -6.4160   19.2780  -32.6790 C   0  0  0  0  0  0  0  0  0  0  0  0
   -7.5180   18.4490  -32.4920 C   0  0  0  0  0  0  0  0  0  0  0  0
   -8.7420   18.9910  -32.1110 C   0  0  0  0  0  0  0  0  0  0  0  0
   -9.8110   18.1800  -31.9220 F   0  0  0  0  0  0  0  0  0  0  0  0
   -8.8660   20.3670  -31.9110 C   0  0  0  0  0  0  0  0  0  0  0  0
   -7.7680   21.2330  -32.1060 C   0  0  0  0  0  0  0  0  0  0  0  0
   -7.9340   22.7130  -31.8030 C   0  0  0  0  0  0  0  0  0  0  0  0
   -9.2490   23.1240  -31.9510 F   0  0  0  0  0  0  0  0  0  0  0  0
   -7.1610   23.4760  -32.6560 F   0  0  0  0  0  0  0  0  0  0  0  0
   -7.5520   22.9600  -30.4970 F   0  0  0  0  0  0  0  0  0  0  0  0
   -3.9740   23.3800  -31.2220 C   0  0  0  0  0  0  0  0  0  0  0  0
   -3.4550   24.3500  -30.3590 C   0  0  0  0  0  0  0  0  0  0  0  0
   -3.8600   25.6740  -30.4910 O   0  0  0  0  0  0  0  0  0  0  0  0
   -1.2101   24.9475  -26.6222 H   0  0  0  0  0  0  0  0  0  0  0  0
   -2.6963   25.9415  -26.7953 H   0  0  0  0  0  0  0  0  0  0  0  0
   -2.8097   24.1488  -26.7953 H   0  0  0  0  0  0  0  0  0  0  0  0
   -1.4155   22.3581  -28.4653 H   0  0  0  0  0  0  0  0  0  0  0  0
   -2.3414   20.6319  -30.0065 H   0  0  0  0  0  0  0  0  0  0  0  0
   -3.4007   20.6785  -32.7416 H   0  0  0  0  0  0  0  0  0  0  0  0
   -4.4896   20.1429  -31.3910 H   0  0  0  0  0  0  0  0  0  0  0  0
   -5.5390   22.4820  -32.4750 H   0  0  0  0  0  0  0  0  0  0  0  0
   -5.1210   21.5220  -33.7680 H   0  0  0  0  0  0  0  0  0  0  0  0
   -5.4506   18.8376  -32.9688 H   0  0  0  0  0  0  0  0  0  0  0  0
   -7.4216   17.3640  -32.6455 H   0  0  0  0  0  0  0  0  0  0  0  0
   -9.8345   20.7832  -31.5965 H   0  0  0  0  0  0  0  0  0  0  0  0
   -4.6987   23.6694  -31.9973 H   0  0  0  0  0  0  0  0  0  0  0  0
  1  2  1  0
  2  3  1  0
  3  4  2  0
  4  5  1  0
  5  6  2  0
  6  7  1  0
  7  8  1  0
  8  9  1  0
  9 10  2  0
 10 11  1  0
 11 12  2  0
 12 13  1  0
 12 14  1  0
 14 15  2  0
 15 16  1  0
 16 17  1  0
 16 18  1  0
 16 19  1  0
  6 20  1  0
 20 21  2  0
 21 22  1  0
 21  3  1  0
 15  9  1  0
  1 23  1  0
  1 24  1  0
  1 25  1  0
  4 26  1  0
  5 27  1  0
  7 28  1  0
  7 29  1  0
  8 30  1  0
  8 31  1  0
 10 32  1  0
 11 33  1  0
 14 34  1  0
 20 35  1  0
M  CHG  2   8   1  22  -1
M  END
>  <UniqueID>  (43) 
40

>  <SMILES>  (43) 
COc1ccc(C[NH2+]c2ccc(F)cc2C(F)(F)F)cc1[O-]

>  <Energy>  (43) 
39.94385636938562

>  <Genealogy>  (43) 
COc1ccc(C[NH2+]c2ccc(F)cc2C(F)(F)F)cc1[O-] (protonated)
COc1ccc(C[NH2+]c2ccc(F)cc2C(F)(F)F)cc1[O-] (3D coordinates assigned)
COc1ccc(C[NH2+]c2ccc(F)cc2C(F)(F)F)cc1[O-] (optimized conformer: 39.94385636938562 kcal/mol)

>  <smiles>  (43) 
COc1ccc(CNc2ccc(F)cc2C(F)(F)F)cc1O

>  <score_type>  (43) 
oracle

>  <origin>  (43) 
adg

>  <m_score__min__energy>  (43) 
-9.4399999999999995

>  <m_primary>  (43) 
energy

$$$$
43:0
     RDKit          3D

 51 54  0  0  0  0  0  0  0  0999 V2000
   -0.8910   20.2320  -33.1930 C   0  0  0  0  0  0  0  0  0  0  0  0
   -1.7210   21.4750  -33.4960 C   0  0  0  0  0  0  0  0  0  0  0  0
   -3.1680   21.2480  -33.1670 C   0  0  0  0  0  0  0  0  0  0  0  0
   -3.9270   22.2880  -32.7530 N   0  0  0  0  0  0  0  0  0  0  0  0
   -5.2340   22.1400  -32.4300 C   0  0  0  0  0  0  0  0  0  0  0  0
   -6.1130   23.6440  -31.9570 S   0  0  0  0  0  0  0  0  0  0  0  0
   -5.5130   23.6970  -30.2270 C   0  0  0  0  0  0  0  0  0  0  0  0
   -4.1500   24.3190  -30.1040 C   0  0  0  0  0  0  0  0  0  0  0  0
   -3.8630   25.3100  -30.8270 O   0  0  0  0  0  0  0  0  0  0  0  0
   -3.1990   23.8560  -29.1290 N   0  0  0  0  0  0  0  0  0  0  0  0
   -2.9260   24.5710  -27.8830 C   0  0  0  0  0  0  0  0  0  0  0  0
   -2.2170   23.5610  -26.9500 C   0  0  0  0  0  0  0  0  0  0  0  0
   -2.0310   22.3670  -27.8190 C   0  0  0  0  0  0  0  0  0  0  0  0
   -1.3450   21.1890  -27.5180 C   0  0  0  0  0  0  0  0  0  0  0  0
   -1.2170   20.2150  -28.5200 C   0  0  0  0  0  0  0  0  0  0  0  0
   -1.7490   20.4450  -29.8040 C   0  0  0  0  0  0  0  0  0  0  0  0
   -2.4310   21.6400  -30.0830 C   0  0  0  0  0  0  0  0  0  0  0  0
   -2.5930   22.5740  -29.0500 C   0  0  0  0  0  0  0  0  0  0  0  0
   -5.8350   20.8560  -32.5230 C   0  0  0  0  0  0  0  0  0  0  0  0
   -7.1570   20.5730  -32.1270 C   0  0  0  0  0  0  0  0  0  0  0  0
   -7.8370   21.4390  -31.5130 O   0  0  0  0  0  0  0  0  0  0  0  0
   -7.7030   19.3440  -32.3750 N   0  0  0  0  0  0  0  0  0  0  0  0
   -9.0990   19.0740  -31.9800 C   0  0  0  0  0  0  0  0  0  0  0  0
   -6.9430   18.3430  -32.9180 C   0  0  0  0  0  0  0  0  0  0  0  0
   -7.4540   17.2000  -33.0860 O   0  0  0  0  0  0  0  0  0  0  0  0
   -5.6330   18.5640  -33.2680 N   0  0  0  0  0  0  0  0  0  0  0  0
   -4.8470   17.4750  -33.8850 C   0  0  0  0  0  0  0  0  0  0  0  0
   -5.0580   19.7980  -33.0520 C   0  0  0  0  0  0  0  0  0  0  0  0
   -3.7330   20.0230  -33.3340 N   0  0  0  0  0  0  0  0  0  0  0  0
   -0.8059   20.1045  -32.1037 H   0  0  0  0  0  0  0  0  0  0  0  0
   -1.3812   19.3487  -33.6284 H   0  0  0  0  0  0  0  0  0  0  0  0
    0.1127   20.3462  -33.6284 H   0  0  0  0  0  0  0  0  0  0  0  0
   -1.3429   22.3154  -32.8954 H   0  0  0  0  0  0  0  0  0  0  0  0
   -1.6364   21.7002  -34.5694 H   0  0  0  0  0  0  0  0  0  0  0  0
   -6.2232   24.2841  -29.6261 H   0  0  0  0  0  0  0  0  0  0  0  0
   -5.4380   22.6594  -29.8696 H   0  0  0  0  0  0  0  0  0  0  0  0
   -2.2734   25.4354  -28.0749 H   0  0  0  0  0  0  0  0  0  0  0  0
   -3.8527   24.9524  -27.4293 H   0  0  0  0  0  0  0  0  0  0  0  0
   -1.2485   23.9538  -26.6069 H   0  0  0  0  0  0  0  0  0  0  0  0
   -2.7887   23.3439  -26.0357 H   0  0  0  0  0  0  0  0  0  0  0  0
   -0.9148   21.0280  -26.5185 H   0  0  0  0  0  0  0  0  0  0  0  0
   -0.6997   19.2690  -28.3022 H   0  0  0  0  0  0  0  0  0  0  0  0
   -1.6296   19.6856  -30.5908 H   0  0  0  0  0  0  0  0  0  0  0  0
   -2.8291   21.8389  -31.0889 H   0  0  0  0  0  0  0  0  0  0  0  0
   -9.1733   19.0596  -30.8826 H   0  0  0  0  0  0  0  0  0  0  0  0
   -9.7527   19.8624  -32.3815 H   0  0  0  0  0  0  0  0  0  0  0  0
   -9.4116   18.0988  -32.3815 H   0  0  0  0  0  0  0  0  0  0  0  0
   -4.3986   16.8538  -33.0957 H   0  0  0  0  0  0  0  0  0  0  0  0
   -5.5070   16.8547  -34.5093 H   0  0  0  0  0  0  0  0  0  0  0  0
   -4.0504   17.9060  -34.5093 H   0  0  0  0  0  0  0  0  0  0  0  0
   -3.1130   19.2590  -33.6800 H   0  0  0  0  0  0  0  0  0  0  0  0
  1  2  1  0
  2  3  1  0
  3  4  2  0
  4  5  1  0
  5  6  1  0
  6  7  1  0
  7  8  1  0
  8  9  2  0
  8 10  1  0
 10 11  1  0
 11 12  1  0
 12 13  1  0
 13 14  2  0
 14 15  1  0
 15 16  2  0
 16 17  1  0
 17 18  2  0
  5 19  2  0
 19 20  1  0
 20 21  2  0
 20 22  1  0
 22 23  1  0
 22 24  1  0
 24 25  2  0
 24 26  1  0
 26 27  1  0
 26 28  1  0
 28 29  2  0
 29  3  1  0
 18 10  1  0
 28 19  1  0
 18 13  1  0
  1 30  1  0
  1 31  1  0
  1 32  1  0
  2 33  1  0
  2 34  1  0
  7 35  1  0
  7 36  1  0
 11 37  1  0
 11 38  1  0
 12 39  1  0
 12 40  1  0
 14 41  1  0
 15 42  1  0
 16 43  1  0
 17 44  1  0
 23 45  1  0
 23 46  1  0
 23 47  1  0
 27 48  1  0
 27 49  1  0
 27 50  1  0
 29 51  1  0
M  CHG  1  29   1
M  END
>  <UniqueID>  (44) 
41

>  <SMILES>  (44) 
CCc1nc(SCC(=O)N2CCc3ccccc32)c2c(=O)n(C)c(=O)n(C)c2[nH+]1

>  <Energy>  (44) 
81.05618228158446

>  <Genealogy>  (44) 
CCc1nc(SCC(=O)N2CCc3ccccc32)c2c(=O)n(C)c(=O)n(C)c2[nH+]1 (protonated)
CCc1nc(SCC(=O)N2CCc3ccccc32)c2c(=O)n(C)c(=O)n(C)c2[nH+]1 (3D coordinates assigned)
CCc1nc(SCC(=O)N2CCc3ccccc32)c2c(=O)n(C)c(=O)n(C)c2[nH+]1 (nonaromatic ring conformer: 81.05618228158446 kcal/mol)

>  <smiles>  (44) 
CCc1nc(SCC(=O)N2CCc3ccccc32)c2c(=O)n(C)c(=O)n(C)c2n1

>  <score_type>  (44) 
oracle

>  <origin>  (44) 
adg

>  <m_score__min__energy>  (44) 
-8.9000000000000004

>  <m_primary>  (44) 
energy

$$$$
44:0
     RDKit          3D

 32 34  0  0  1  0  0  0  0  0999 V2000
   -4.4580   21.0710  -33.0840 Br  0  0  0  0  0  0  0  0  0  0  0  0
   -5.1710   19.3400  -33.3940 C   0  0  0  0  0  0  0  0  0  0  0  0
   -4.2990   18.4120  -33.9750 C   0  0  0  0  0  0  0  0  0  0  0  0
   -4.7080   17.1310  -34.2430 C   0  0  0  0  0  0  0  0  0  0  0  0
   -5.9990   16.7950  -33.9220 C   0  0  0  0  0  0  0  0  0  0  0  0
   -6.8680   17.7300  -33.3390 C   0  0  0  0  0  0  0  0  0  0  0  0
   -6.4680   19.0200  -33.0640 C   0  0  0  0  0  0  0  0  0  0  0  0
   -7.3990   19.9810  -32.4530 C   0  0  0  0  0  0  0  0  0  0  0  0
   -7.0280   20.8660  -31.5210 N   0  0  0  0  0  0  0  0  0  0  0  0
   -7.9220   21.7180  -31.0010 C   0  0  0  0  0  0  0  0  0  0  0  0
   -7.6290   22.5990  -30.0960 N   0  0  0  0  0  0  0  0  0  0  0  0
   -6.9190   23.8250  -30.3620 C   0  0  0  0  0  0  0  0  0  0  0  0
   -5.4550   23.6650  -30.1070 C   0  0  0  0  0  0  0  0  0  0  0  0
   -4.7780   22.5240  -29.7440 C   0  0  0  0  0  0  0  0  0  0  0  0
   -3.4610   22.5950  -29.5630 C   0  0  0  0  0  0  0  0  0  0  0  0
   -2.8490   23.8180  -29.7480 C   0  0  0  0  0  0  0  0  0  0  0  0
   -4.2080   24.9140  -30.2030 S   0  0  0  0  0  0  0  0  0  0  0  0
   -9.2650   21.7310  -31.3910 C   0  0  0  0  0  0  0  0  0  0  0  0
   -9.6240   20.8190  -32.3440 C   0  0  0  0  0  0  0  0  0  0  0  0
   -8.6790   19.9780  -32.8400 N   0  0  0  0  0  0  0  0  0  0  0  0
   -3.2703   18.7149  -34.2202 H   0  0  0  0  0  0  0  0  0  0  0  0
   -4.0255   16.3988  -34.6991 H   0  0  0  0  0  0  0  0  0  0  0  0
   -6.3589   15.7756  -34.1251 H   0  0  0  0  0  0  0  0  0  0  0  0
   -7.8963   17.4251  -33.0949 H   0  0  0  0  0  0  0  0  0  0  0  0
   -7.0717   24.1076  -31.4141 H   0  0  0  0  0  0  0  0  0  0  0  0
   -7.3071   24.6061  -29.6917 H   0  0  0  0  0  0  0  0  0  0  0  0
   -5.3134   21.5730  -29.6062 H   0  0  0  0  0  0  0  0  0  0  0  0
   -2.8791   21.7070  -29.2751 H   0  0  0  0  0  0  0  0  0  0  0  0
   -1.7826   24.0664  -29.6427 H   0  0  0  0  0  0  0  0  0  0  0  0
   -9.9904   22.4343  -30.9561 H   0  0  0  0  0  0  0  0  0  0  0  0
  -10.6622   20.7668  -32.7039 H   0  0  0  0  0  0  0  0  0  0  0  0
   -9.0740   19.3180  -33.5720 H   0  0  0  0  0  0  0  0  0  0  0  0
  1  2  1  0
  2  3  2  0
  3  4  1  0
  4  5  2  0
  5  6  1  0
  6  7  2  0
  7  8  1  0
  8  9  2  0
  9 10  1  0
 10 11  2  0
 11 12  1  0
 12 13  1  0
 13 14  2  0
 14 15  1  0
 15 16  2  0
 16 17  1  0
 10 18  1  0
 18 19  2  0
 19 20  1  0
  7  2  1  0
 20  8  1  0
 17 13  1  0
  3 21  1  0
  4 22  1  0
  5 23  1  0
  6 24  1  0
 12 25  1  0
 12 26  1  0
 14 27  1  0
 15 28  1  0
 16 29  1  0
 18 30  1  0
 19 31  1  0
 20 32  1  0
M  END
>  <smiles>  (45) 
Brc1ccccc1-c1nc(=NCc2cccs2)cc[nH]1

>  <score_type>  (45) 
oracle

>  <origin>  (45) 
adg

>  <m_score__min__energy>  (45) 
-7.9699999999999998

>  <m_primary>  (45) 
energy

$$$$
45:0
     RDKit          3D

 39 42  0  0  0  0  0  0  0  0999 V2000
   -3.1870   21.9370  -31.5760 O   0  0  0  0  0  0  0  0  0  0  0  0
   -4.4010   21.9900  -31.2310 C   0  0  0  0  0  0  0  0  0  0  0  0
   -4.7490   22.6060  -30.0100 C   0  0  0  0  0  0  0  0  0  0  0  0
   -3.7140   23.1600  -29.1040 C   0  0  0  0  0  0  0  0  0  0  0  0
   -3.2640   22.3960  -28.0150 C   0  0  0  0  0  0  0  0  0  0  0  0
   -2.2830   22.9000  -27.1560 C   0  0  0  0  0  0  0  0  0  0  0  0
   -1.7380   24.1660  -27.3820 C   0  0  0  0  0  0  0  0  0  0  0  0
   -2.1680   24.9280  -28.4710 C   0  0  0  0  0  0  0  0  0  0  0  0
   -3.1500   24.4300  -29.3340 C   0  0  0  0  0  0  0  0  0  0  0  0
   -3.5230   25.1710  -30.4080 F   0  0  0  0  0  0  0  0  0  0  0  0
   -6.0630   22.7090  -29.6660 N   0  0  0  0  0  0  0  0  0  0  0  0
   -7.0370   22.2070  -30.4640 C   0  0  0  0  0  0  0  0  0  0  0  0
   -8.3440   22.3020  -30.1000 N   0  0  0  0  0  0  0  0  0  0  0  0
   -9.3310   21.7960  -30.8840 C   0  0  0  0  0  0  0  0  0  0  0  0
   -8.9990   21.1650  -32.0850 C   0  0  0  0  0  0  0  0  0  0  0  0
   -7.6950   21.0690  -32.4520 N   0  0  0  0  0  0  0  0  0  0  0  0
   -6.6960   21.5730  -31.6730 C   0  0  0  0  0  0  0  0  0  0  0  0
   -5.3790   21.4740  -32.0490 N   0  0  0  0  0  0  0  0  0  0  0  0
   -5.0170   20.7790  -33.3020 C   0  0  0  0  0  0  0  0  0  0  0  0
   -5.4590   19.3380  -33.2510 C   0  0  0  0  0  0  0  0  0  0  0  0
   -5.6430   18.6990  -32.0150 C   0  0  0  0  0  0  0  0  0  0  0  0
   -6.0810   17.3720  -31.9650 C   0  0  0  0  0  0  0  0  0  0  0  0
   -6.3410   16.6750  -33.1480 C   0  0  0  0  0  0  0  0  0  0  0  0
   -6.1630   17.3050  -34.3830 C   0  0  0  0  0  0  0  0  0  0  0  0
   -5.7260   18.6320  -34.4360 C   0  0  0  0  0  0  0  0  0  0  0  0
   -3.6856   21.3957  -27.8370 H   0  0  0  0  0  0  0  0  0  0  0  0
   -1.9399   22.2988  -26.3011 H   0  0  0  0  0  0  0  0  0  0  0  0
   -0.9698   24.5632  -26.7022 H   0  0  0  0  0  0  0  0  0  0  0  0
   -1.7332   25.9224  -28.6504 H   0  0  0  0  0  0  0  0  0  0  0  0
   -6.3300   23.1670  -28.7640 H   0  0  0  0  0  0  0  0  0  0  0  0
  -10.3833   21.8825  -30.5756 H   0  0  0  0  0  0  0  0  0  0  0  0
   -9.7879   20.7489  -32.7288 H   0  0  0  0  0  0  0  0  0  0  0  0
   -5.5092   21.2792  -34.1491 H   0  0  0  0  0  0  0  0  0  0  0  0
   -3.9245   20.8128  -33.4257 H   0  0  0  0  0  0  0  0  0  0  0  0
   -5.4417   19.2446  -31.0813 H   0  0  0  0  0  0  0  0  0  0  0  0
   -6.2211   16.8761  -30.9932 H   0  0  0  0  0  0  0  0  0  0  0  0
   -6.6855   15.6311  -33.1073 H   0  0  0  0  0  0  0  0  0  0  0  0
   -6.3670   16.7561  -35.3142 H   0  0  0  0  0  0  0  0  0  0  0  0
   -5.5906   19.1255  -35.4097 H   0  0  0  0  0  0  0  0  0  0  0  0
  1  2  2  0
  2  3  1  0
  3  4  1  0
  4  5  2  0
  5  6  1  0
  6  7  2  0
  7  8  1  0
  8  9  2  0
  9 10  1  0
  3 11  2  0
 11 12  1  0
 12 13  2  0
 13 14  1  0
 14 15  2  0
 15 16  1  0
 16 17  2  0
 17 18  1  0
 18 19  1  0
 19 20  1  0
 20 21  2  0
 21 22  1  0
 22 23  2  0
 23 24  1  0
 24 25  2  0
 18  2  1  0
 25 20  1  0
  9  4  1  0
 17 12  1  0
  5 26  1  0
  6 27  1  0
  7 28  1  0
  8 29  1  0
 11 30  1  0
 14 31  1  0
 15 32  1  0
 19 33  1  0
 19 34  1  0
 21 35  1  0
 22 36  1  0
 23 37  1  0
 24 38  1  0
 25 39  1  0
M  CHG  1  11   1
M  END
>  <UniqueID>  (46) 
42

>  <SMILES>  (46) 
O=c1c(-c2ccccc2F)[nH+]c2nccnc2n1Cc1ccccc1

>  <Energy>  (46) 
59.165390505441245

>  <Genealogy>  (46) 
O=c1c(-c2ccccc2F)[nH+]c2nccnc2n1Cc1ccccc1 (protonated)
O=c1c(-c2ccccc2F)[nH+]c2nccnc2n1Cc1ccccc1 (3D coordinates assigned)
O=c1c(-c2ccccc2F)[nH+]c2nccnc2n1Cc1ccccc1 (optimized conformer: 59.165390505441245 kcal/mol)

>  <smiles>  (46) 
O=c1c(-c2ccccc2F)nc2nccnc2n1Cc1ccccc1

>  <score_type>  (46) 
oracle

>  <origin>  (46) 
adg

>  <m_score__min__energy>  (46) 
-7.4900000000000002

>  <m_primary>  (46) 
energy

$$$$
46:0
     RDKit          3D

 47 50  0  0  0  0  0  0  0  0999 V2000
    0.1100   18.0900  -31.3460 C   0  0  0  0  0  0  0  0  0  0  0  0
    0.1790   19.4460  -31.7730 O   0  0  0  0  0  0  0  0  0  0  0  0
   -0.8090   20.4090  -31.5170 C   0  0  0  0  0  0  0  0  0  0  0  0
   -0.5060   21.6800  -30.9960 C   0  0  0  0  0  0  0  0  0  0  0  0
   -1.5220   22.6100  -30.7610 C   0  0  0  0  0  0  0  0  0  0  0  0
   -2.8660   22.2960  -31.0550 C   0  0  0  0  0  0  0  0  0  0  0  0
   -3.9340   23.2050  -30.8460 C   0  0  0  0  0  0  0  0  0  0  0  0
   -3.7290   24.6070  -30.4190 C   0  0  0  0  0  0  0  0  0  0  0  0
   -4.4840   25.5200  -30.8520 O   0  0  0  0  0  0  0  0  0  0  0  0
   -2.7050   24.9160  -29.4670 N   0  0  0  0  0  0  0  0  0  0  0  0
   -2.8030   24.6000  -28.0470 C   0  0  0  0  0  0  0  0  0  0  0  0
   -2.4460   23.1590  -27.8080 C   0  0  0  0  0  0  0  0  0  0  0  0
   -3.4360   22.1620  -27.8280 C   0  0  0  0  0  0  0  0  0  0  0  0
   -3.0990   20.8290  -27.5750 C   0  0  0  0  0  0  0  0  0  0  0  0
   -1.7730   20.4820  -27.2990 C   0  0  0  0  0  0  0  0  0  0  0  0
   -0.7830   21.4690  -27.2720 C   0  0  0  0  0  0  0  0  0  0  0  0
   -1.1170   22.8030  -27.5230 C   0  0  0  0  0  0  0  0  0  0  0  0
   -5.2500   22.7760  -31.0810 C   0  0  0  0  0  0  0  0  0  0  0  0
   -5.5010   21.4760  -31.5470 C   0  0  0  0  0  0  0  0  0  0  0  0
   -6.8810   20.9980  -31.8230 C   0  0  0  0  0  0  0  0  0  0  0  0
   -7.9950   21.8480  -31.6730 C   0  0  0  0  0  0  0  0  0  0  0  0
   -9.2860   21.3750  -31.9290 C   0  0  0  0  0  0  0  0  0  0  0  0
   -9.4820   20.0530  -32.3290 C   0  0  0  0  0  0  0  0  0  0  0  0
   -8.3880   19.1970  -32.4710 C   0  0  0  0  0  0  0  0  0  0  0  0
   -7.0950   19.6630  -32.2160 C   0  0  0  0  0  0  0  0  0  0  0  0
   -4.4530   20.6420  -31.7790 N   0  0  0  0  0  0  0  0  0  0  0  0
   -3.1650   21.0030  -31.5470 C   0  0  0  0  0  0  0  0  0  0  0  0
   -2.1400   20.0820  -31.7840 C   0  0  0  0  0  0  0  0  0  0  0  0
    0.1080   18.0514  -30.2467 H   0  0  0  0  0  0  0  0  0  0  0  0
   -0.8127   17.6310  -31.7307 H   0  0  0  0  0  0  0  0  0  0  0  0
    0.9813   17.5397  -31.7307 H   0  0  0  0  0  0  0  0  0  0  0  0
    0.5382   21.9436  -30.7720 H   0  0  0  0  0  0  0  0  0  0  0  0
   -1.2718   23.5962  -30.3429 H   0  0  0  0  0  0  0  0  0  0  0  0
   -2.1116   25.2436  -27.4833 H   0  0  0  0  0  0  0  0  0  0  0  0
   -3.8363   24.7733  -27.7120 H   0  0  0  0  0  0  0  0  0  0  0  0
   -4.4805   22.4315  -28.0436 H   0  0  0  0  0  0  0  0  0  0  0  0
   -3.8778   20.0524  -27.5931 H   0  0  0  0  0  0  0  0  0  0  0  0
   -1.5086   19.4324  -27.1031 H   0  0  0  0  0  0  0  0  0  0  0  0
    0.2597   21.1955  -27.0530 H   0  0  0  0  0  0  0  0  0  0  0  0
   -0.3361   23.5773  -27.4973 H   0  0  0  0  0  0  0  0  0  0  0  0
   -6.0896   23.4629  -30.8988 H   0  0  0  0  0  0  0  0  0  0  0  0
   -7.8482   22.8900  -31.3526 H   0  0  0  0  0  0  0  0  0  0  0  0
  -10.1492   22.0472  -31.8146 H   0  0  0  0  0  0  0  0  0  0  0  0
  -10.4984   19.6849  -32.5325 H   0  0  0  0  0  0  0  0  0  0  0  0
   -8.5439   18.1541  -32.7841 H   0  0  0  0  0  0  0  0  0  0  0  0
   -6.2382   18.9815  -32.3232 H   0  0  0  0  0  0  0  0  0  0  0  0
   -2.3851   19.0877  -32.1857 H   0  0  0  0  0  0  0  0  0  0  0  0
  1  2  1  0
  2  3  1  0
  3  4  2  0
  4  5  1  0
  5  6  2  0
  6  7  1  0
  7  8  1  0
  8  9  2  0
  8 10  1  0
 10 11  1  0
 11 12  1  0
 12 13  2  0
 13 14  1  0
 14 15  2  0
 15 16  1  0
 16 17  2  0
  7 18  2  0
 18 19  1  0
 19 20  1  0
 20 21  2  0
 21 22  1  0
 22 23  2  0
 23 24  1  0
 24 25  2  0
 19 26  2  0
 26 27  1  0
 27 28  2  0
 28  3  1  0
 27  6  1  0
 17 12  1  0
 25 20  1  0
  1 29  1  0
  1 30  1  0
  1 31  1  0
  4 32  1  0
  5 33  1  0
 11 34  1  0
 11 35  1  0
 13 36  1  0
 14 37  1  0
 15 38  1  0
 16 39  1  0
 17 40  1  0
 18 41  1  0
 21 42  1  0
 22 43  1  0
 23 44  1  0
 24 45  1  0
 25 46  1  0
 28 47  1  0
M  CHG  1  10  -1
M  END
>  <UniqueID>  (47) 
43

>  <SMILES>  (47) 
COc1ccc2c(C(=O)[N-]Cc3ccccc3)cc(-c3ccccc3)nc2c1

>  <Energy>  (47) 
62.42407322764794

>  <Genealogy>  (47) 
COc1ccc2c(C(=O)[N-]Cc3ccccc3)cc(-c3ccccc3)nc2c1 (protonated)
COc1ccc2c(C(=O)[N-]Cc3ccccc3)cc(-c3ccccc3)nc2c1 (3D coordinates assigned)
COc1ccc2c(C(=O)[N-]Cc3ccccc3)cc(-c3ccccc3)nc2c1 (optimized conformer: 62.42407322764794 kcal/mol)

>  <smiles>  (47) 
COc1ccc2c(C(=O)NCc3ccccc3)cc(-c3ccccc3)nc2c1

>  <score_type>  (47) 
oracle

>  <origin>  (47) 
adg

>  <m_score__min__energy>  (47) 
-10.19

>  <m_primary>  (47) 
energy

$$$$
