0:0
     RDKit          3D

 52 55  0  0  0  0  0  0  0  0999 V2000
   -4.9250   15.6330  -32.2410 C   0  0  0  0  0  0  0  0  0  0  0  0
   -5.7380   16.7680  -31.6000 C   0  0  0  0  0  0  0  0  0  0  0  0
   -6.8670   17.2750  -32.4290 N   0  0  0  0  0  0  0  0  0  0  0  0
   -7.3730   18.5750  -31.9090 C   0  0  0  0  0  0  0  0  0  0  0  0
   -8.9040   18.6660  -31.9580 C   0  0  0  0  0  0  0  0  0  0  0  0
   -6.5340   17.3740  -33.8780 C   0  0  0  0  0  0  0  0  0  0  0  0
   -6.0100   18.7610  -34.3030 C   0  0  0  0  0  0  0  0  0  0  0  0
   -4.5570   18.8700  -34.1100 N   0  0  0  0  0  0  0  0  0  0  0  0
   -3.8580   19.7590  -33.3450 C   0  0  0  0  0  0  0  0  0  0  0  0
   -4.4410   20.9220  -32.6630 C   0  0  0  0  0  0  0  0  0  0  0  0
   -3.7620   21.8180  -31.8360 C   0  0  0  0  0  0  0  0  0  0  0  0
   -4.6060   22.8060  -31.3160 C   0  0  0  0  0  0  0  0  0  0  0  0
   -4.2210   23.8470  -30.4700 C   0  0  0  0  0  0  0  0  0  0  0  0
   -5.1940   24.7580  -30.0330 C   0  0  0  0  0  0  0  0  0  0  0  0
   -6.5350   24.6240  -30.4380 C   0  0  0  0  0  0  0  0  0  0  0  0
   -6.9230   23.5700  -31.2910 C   0  0  0  0  0  0  0  0  0  0  0  0
   -8.3480   23.4140  -31.7330 C   0  0  0  0  0  0  0  0  0  0  0  0
   -5.9310   22.6760  -31.7120 C   0  0  0  0  0  0  0  0  0  0  0  0
   -6.0790   21.3310  -32.7110 S   0  0  0  0  0  0  0  0  0  0  0  0
   -2.5430   19.4460  -33.2190 N   0  0  0  0  0  0  0  0  0  0  0  0
   -2.4220   18.3260  -33.9510 C   0  0  0  0  0  0  0  0  0  0  0  0
   -1.2740   17.5650  -34.1520 C   0  0  0  0  0  0  0  0  0  0  0  0
   -1.3870   16.4010  -34.9360 C   0  0  0  0  0  0  0  0  0  0  0  0
   -2.6340   16.0310  -35.4890 C   0  0  0  0  0  0  0  0  0  0  0  0
   -3.7760   16.8210  -35.2640 C   0  0  0  0  0  0  0  0  0  0  0  0
   -3.6270   17.9730  -34.4870 C   0  0  0  0  0  0  0  0  0  0  0  0
   -4.4790   15.0103  -31.4515 H   0  0  0  0  0  0  0  0  0  0  0  0
   -5.5871   15.0150  -32.8652 H   0  0  0  0  0  0  0  0  0  0  0  0
   -4.1268   16.0610  -32.8652 H   0  0  0  0  0  0  0  0  0  0  0  0
   -6.1507   16.3985  -30.6497 H   0  0  0  0  0  0  0  0  0  0  0  0
   -5.0440   17.6120  -31.4738 H   0  0  0  0  0  0  0  0  0  0  0  0
   -7.6370   16.5770  -32.3160 H   0  0  0  0  0  0  0  0  0  0  0  0
   -7.0451   18.6902  -30.8654 H   0  0  0  0  0  0  0  0  0  0  0  0
   -6.9680   19.3735  -32.5480 H   0  0  0  0  0  0  0  0  0  0  0  0
   -9.3029   18.6897  -30.9331 H   0  0  0  0  0  0  0  0  0  0  0  0
   -9.2000   19.5833  -32.4880 H   0  0  0  0  0  0  0  0  0  0  0  0
   -9.3066   17.7902  -32.4880 H   0  0  0  0  0  0  0  0  0  0  0  0
   -5.7611   16.6259  -34.1081 H   0  0  0  0  0  0  0  0  0  0  0  0
   -7.4672   17.2000  -34.4338 H   0  0  0  0  0  0  0  0  0  0  0  0
   -6.2423   18.9205  -35.3663 H   0  0  0  0  0  0  0  0  0  0  0  0
   -6.4994   19.5216  -33.6770 H   0  0  0  0  0  0  0  0  0  0  0  0
   -2.6857   21.7549  -31.6177 H   0  0  0  0  0  0  0  0  0  0  0  0
   -3.1733   23.9513  -30.1516 H   0  0  0  0  0  0  0  0  0  0  0  0
   -4.9060   25.5850  -29.3674 H   0  0  0  0  0  0  0  0  0  0  0  0
   -7.2862   25.3467  -30.0867 H   0  0  0  0  0  0  0  0  0  0  0  0
   -9.0001   23.3426  -30.8500 H   0  0  0  0  0  0  0  0  0  0  0  0
   -8.6422   24.2853  -32.3366 H   0  0  0  0  0  0  0  0  0  0  0  0
   -8.4467   22.4997  -32.3366 H   0  0  0  0  0  0  0  0  0  0  0  0
   -0.3105   17.8631  -33.7129 H   0  0  0  0  0  0  0  0  0  0  0  0
   -0.5003   15.7764  -35.1191 H   0  0  0  0  0  0  0  0  0  0  0  0
   -2.7120   15.1192  -36.0994 H   0  0  0  0  0  0  0  0  0  0  0  0
   -4.7529   16.5415  -35.6853 H   0  0  0  0  0  0  0  0  0  0  0  0
  1  2  1  0
  2  3  1  0
  3  4  1  0
  4  5  1  0
  3  6  1  0
  6  7  1  0
  7  8  1  0
  8  9  1  0
  9 10  1  0
 10 11  2  0
 11 12  1  0
 12 13  2  0
 13 14  1  0
 14 15  2  0
 15 16  1  0
 16 17  1  0
 16 18  2  0
 18 19  1  0
  9 20  2  0
 20 21  1  0
 21 22  2  0
 22 23  1  0
 23 24  2  0
 24 25  1  0
 25 26  2  0
 26  8  1  0
 19 10  1  0
 26 21  1  0
 18 12  1  0
  1 27  1  0
  1 28  1  0
  1 29  1  0
  2 30  1  0
  2 31  1  0
  3 32  1  0
  4 33  1  0
  4 34  1  0
  5 35  1  0
  5 36  1  0
  5 37  1  0
  6 38  1  0
  6 39  1  0
  7 40  1  0
  7 41  1  0
 11 42  1  0
 13 43  1  0
 14 44  1  0
 15 45  1  0
 17 46  1  0
 17 47  1  0
 17 48  1  0
 22 49  1  0
 23 50  1  0
 24 51  1  0
 25 52  1  0
M  CHG  1   3   1
M  END
>  <UniqueID>  (1) 
1

>  <SMILES>  (1) 
CC[NH+](CC)CCn1c(-c2cc3cccc(C)c3s2)nc2ccccc21

>  <Energy>  (1) 
127.39691725475552

>  <Genealogy>  (1) 
CC[NH+](CC)CCn1c(-c2cc3cccc(C)c3s2)nc2ccccc21 (protonated)
CC[NH+](CC)CCn1c(-c2cc3cccc(C)c3s2)nc2ccccc21 (3D coordinates assigned)
CC[NH+](CC)CCn1c(-c2cc3cccc(C)c3s2)nc2ccccc21 (optimized conformer: 127.39691725475552 kcal/mol)

>  <smiles>  (1) 
CCN(CC)CCn1c(-c2cc3cccc(C)c3s2)nc2ccccc21

>  <score_type>  (1) 
oracle

>  <origin>  (1) 
adg

>  <m_score__min__energy>  (1) 
-7.71

>  <m_primary>  (1) 
energy

$$$$
1:0
     RDKit          3D

 54 56  0  0  0  0  0  0  0  0999 V2000
   -2.7390   19.0620  -26.6890 C   0  0  0  0  0  0  0  0  0  0  0  0
   -1.7000   20.0600  -27.2130 C   0  0  0  0  0  0  0  0  0  0  0  0
   -2.2120   20.9170  -28.3100 N   0  0  0  0  0  0  0  0  0  0  0  0
   -3.4670   21.5830  -27.8720 C   0  0  0  0  0  0  0  0  0  0  0  0
   -3.3740   23.1110  -27.8450 C   0  0  0  0  0  0  0  0  0  0  0  0
   -1.1870   21.8470  -28.8730 C   0  0  0  0  0  0  0  0  0  0  0  0
   -0.9160   21.7330  -30.3880 C   0  0  0  0  0  0  0  0  0  0  0  0
   -1.2630   20.4460  -30.8660 O   0  0  0  0  0  0  0  0  0  0  0  0
   -1.3290   20.4080  -32.2780 C   0  0  0  0  0  0  0  0  0  0  0  0
   -2.7520   20.6240  -32.8130 C   0  0  0  0  0  0  0  0  0  0  0  0
   -3.7470   20.3520  -31.7760 N   0  0  0  0  0  0  0  0  0  0  0  0
   -5.0120   21.0350  -31.7440 C   0  0  0  0  0  0  0  0  0  0  0  0
   -6.2470   20.3790  -31.9850 C   0  0  0  0  0  0  0  0  0  0  0  0
   -6.3120   18.9780  -32.1140 C   0  0  0  0  0  0  0  0  0  0  0  0
   -7.5280   18.3410  -32.3550 C   0  0  0  0  0  0  0  0  0  0  0  0
   -8.7030   19.0810  -32.4470 C   0  0  0  0  0  0  0  0  0  0  0  0
   -8.6780   20.4660  -32.2840 C   0  0  0  0  0  0  0  0  0  0  0  0
   -7.4610   21.1510  -32.0450 C   0  0  0  0  0  0  0  0  0  0  0  0
   -7.4280   22.5250  -31.8500 N   0  0  0  0  0  0  0  0  0  0  0  0
   -8.6430   23.3500  -31.9670 C   0  0  0  0  0  0  0  0  0  0  0  0
   -6.2310   23.0950  -31.5130 C   0  0  0  0  0  0  0  0  0  0  0  0
   -5.9070   24.4130  -31.2250 C   0  0  0  0  0  0  0  0  0  0  0  0
   -4.6040   24.4880  -31.0210 O   0  0  0  0  0  0  0  0  0  0  0  0
   -4.0630   23.2940  -31.1600 C   0  0  0  0  0  0  0  0  0  0  0  0
   -5.0620   22.3930  -31.4660 C   0  0  0  0  0  0  0  0  0  0  0  0
   -2.7319   19.0689  -25.5890 H   0  0  0  0  0  0  0  0  0  0  0  0
   -3.7375   19.3482  -27.0510 H   0  0  0  0  0  0  0  0  0  0  0  0
   -2.4932   18.0528  -27.0510 H   0  0  0  0  0  0  0  0  0  0  0  0
   -1.3870   20.7077  -26.3808 H   0  0  0  0  0  0  0  0  0  0  0  0
   -0.8621   19.4750  -27.6201 H   0  0  0  0  0  0  0  0  0  0  0  0
   -2.4820   20.2700  -29.0900 H   0  0  0  0  0  0  0  0  0  0  0  0
   -4.2725   21.2960  -28.5639 H   0  0  0  0  0  0  0  0  0  0  0  0
   -3.6634   21.2539  -26.8409 H   0  0  0  0  0  0  0  0  0  0  0  0
   -3.3528   23.4587  -26.8016 H   0  0  0  0  0  0  0  0  0  0  0  0
   -2.4547   23.4315  -28.3570 H   0  0  0  0  0  0  0  0  0  0  0  0
   -4.2477   23.5406  -28.3570 H   0  0  0  0  0  0  0  0  0  0  0  0
   -1.5200   22.8753  -28.6690 H   0  0  0  0  0  0  0  0  0  0  0  0
   -0.2410   21.5695  -28.3851 H   0  0  0  0  0  0  0  0  0  0  0  0
   -1.5141   22.4882  -30.9191 H   0  0  0  0  0  0  0  0  0  0  0  0
    0.1566   21.8981  -30.5675 H   0  0  0  0  0  0  0  0  0  0  0  0
   -0.6781   21.1975  -32.6817 H   0  0  0  0  0  0  0  0  0  0  0  0
   -1.0031   19.4073  -32.5981 H   0  0  0  0  0  0  0  0  0  0  0  0
   -2.8565   21.6667  -33.1476 H   0  0  0  0  0  0  0  0  0  0  0  0
   -2.9207   19.9324  -33.6516 H   0  0  0  0  0  0  0  0  0  0  0  0
   -3.4040   19.9070  -30.8950 H   0  0  0  0  0  0  0  0  0  0  0  0
   -5.3931   18.3801  -32.0236 H   0  0  0  0  0  0  0  0  0  0  0  0
   -7.5591   17.2478  -32.4731 H   0  0  0  0  0  0  0  0  0  0  0  0
   -9.6564   18.5710  -32.6493 H   0  0  0  0  0  0  0  0  0  0  0  0
   -9.6175   21.0352  -32.3419 H   0  0  0  0  0  0  0  0  0  0  0  0
   -9.0135   23.6016  -30.9623 H   0  0  0  0  0  0  0  0  0  0  0  0
   -8.4068   24.2752  -32.5130 H   0  0  0  0  0  0  0  0  0  0  0  0
   -9.4159   22.7892  -32.5130 H   0  0  0  0  0  0  0  0  0  0  0  0
   -6.6152   25.2532  -31.1750 H   0  0  0  0  0  0  0  0  0  0  0  0
   -2.9947   23.0560  -31.0504 H   0  0  0  0  0  0  0  0  0  0  0  0
  1  2  1  0
  2  3  1  0
  3  4  1  0
  4  5  1  0
  3  6  1  0
  6  7  1  0
  7  8  1  0
  8  9  1  0
  9 10  1  0
 10 11  1  0
 11 12  1  0
 12 13  2  0
 13 14  1  0
 14 15  2  0
 15 16  1  0
 16 17  2  0
 17 18  1  0
 18 19  2  0
 19 20  1  0
 19 21  1  0
 21 22  2  0
 22 23  1  0
 23 24  1  0
 24 25  2  0
 25 12  1  0
 18 13  1  0
 25 21  1  0
  1 26  1  0
  1 27  1  0
  1 28  1  0
  2 29  1  0
  2 30  1  0
  3 31  1  0
  4 32  1  0
  4 33  1  0
  5 34  1  0
  5 35  1  0
  5 36  1  0
  6 37  1  0
  6 38  1  0
  7 39  1  0
  7 40  1  0
  9 41  1  0
  9 42  1  0
 10 43  1  0
 10 44  1  0
 11 45  1  0
 14 46  1  0
 15 47  1  0
 16 48  1  0
 17 49  1  0
 20 50  1  0
 20 51  1  0
 20 52  1  0
 22 53  1  0
 24 54  1  0
M  CHG  2   3   1  19   1
M  END
>  <UniqueID>  (2) 
2

>  <SMILES>  (2) 
CC[NH+](CC)CCOCCNc1c2ccccc2[n+](C)c2cocc12

>  <Energy>  (2) 
106.10563079946041

>  <Genealogy>  (2) 
CC[NH+](CC)CCOCCNc1c2ccccc2[n+](C)c2cocc12 (protonated)
CC[NH+](CC)CCOCCNc1c2ccccc2[n+](C)c2cocc12 (3D coordinates assigned)
CC[NH+](CC)CCOCCNc1c2ccccc2[n+](C)c2cocc12 (optimized conformer: 106.10563079946041 kcal/mol)

>  <smiles>  (2) 
CCN(CC)CCOCCNc1c2ccccc2[n+](C)c2cocc12

>  <score_type>  (2) 
oracle

>  <origin>  (2) 
adg

>  <m_score__min__energy>  (2) 
-6.4400000000000004

>  <m_primary>  (2) 
energy

$$$$
2:0
     RDKit          3D

 61 63  0  0  0  0  0  0  0  0999 V2000
   -2.7140   20.1380  -27.7660 C   0  0  0  0  0  0  0  0  0  0  0  0
   -3.0190   20.8480  -29.0870 C   0  0  0  0  0  0  0  0  0  0  0  0
   -2.7200   22.3010  -29.0830 N   0  0  0  0  0  0  0  0  0  0  0  0
   -1.5020   22.6790  -29.8410 C   0  0  0  0  0  0  0  0  0  0  0  0
   -0.4110   23.3630  -29.0030 C   0  0  0  0  0  0  0  0  0  0  0  0
   -3.8750   23.2120  -29.2660 C   0  0  0  0  0  0  0  0  0  0  0  0
   -3.4760   24.5420  -29.9260 C   0  0  0  0  0  0  0  0  0  0  0  0
   -4.4320   24.9190  -30.9750 N   0  0  0  0  0  0  0  0  0  0  0  0
   -5.7080   25.4060  -30.4120 C   0  0  0  0  0  0  0  0  0  0  0  0
   -6.9100   24.5230  -30.7910 C   0  0  0  0  0  0  0  0  0  0  0  0
   -6.5130   23.0530  -31.0140 C   0  0  0  0  0  0  0  0  0  0  0  0
   -5.9010   22.8320  -32.3380 N   0  0  0  0  0  0  0  0  0  0  0  0
   -5.7020   21.4160  -32.6240 C   0  0  0  0  0  0  0  0  0  0  0  0
   -6.7870   20.4900  -32.5800 C   0  0  0  0  0  0  0  0  0  0  0  0
   -8.1180   20.8930  -32.2910 C   0  0  0  0  0  0  0  0  0  0  0  0
   -9.1450   19.9620  -32.1700 C   0  0  0  0  0  0  0  0  0  0  0  0
   -8.8820   18.6110  -32.3240 C   0  0  0  0  0  0  0  0  0  0  0  0
   -7.6000   18.1850  -32.6480 C   0  0  0  0  0  0  0  0  0  0  0  0
   -6.5390   19.1090  -32.8330 C   0  0  0  0  0  0  0  0  0  0  0  0
   -5.2900   18.6850  -33.2380 N   0  0  0  0  0  0  0  0  0  0  0  0
   -5.1220   17.3320  -33.8160 C   0  0  0  0  0  0  0  0  0  0  0  0
   -4.2060   19.5310  -33.1450 C   0  0  0  0  0  0  0  0  0  0  0  0
   -2.8800   19.0420  -33.2840 C   0  0  0  0  0  0  0  0  0  0  0  0
   -1.7870   19.9030  -33.2650 C   0  0  0  0  0  0  0  0  0  0  0  0
   -1.9790   21.2650  -33.0980 C   0  0  0  0  0  0  0  0  0  0  0  0
   -3.2610   21.7710  -32.9090 C   0  0  0  0  0  0  0  0  0  0  0  0
   -4.3960   20.9180  -32.8910 C   0  0  0  0  0  0  0  0  0  0  0  0
   -2.9943   20.7904  -26.9259 H   0  0  0  0  0  0  0  0  0  0  0  0
   -3.2895   19.2021  -27.7113 H   0  0  0  0  0  0  0  0  0  0  0  0
   -1.6390   19.9111  -27.7113 H   0  0  0  0  0  0  0  0  0  0  0  0
   -2.4192   20.3751  -29.8786 H   0  0  0  0  0  0  0  0  0  0  0  0
   -4.1018   20.7499  -29.2543 H   0  0  0  0  0  0  0  0  0  0  0  0
   -1.0745   21.7656  -30.2802 H   0  0  0  0  0  0  0  0  0  0  0  0
   -1.8208   23.4135  -30.5952 H   0  0  0  0  0  0  0  0  0  0  0  0
   -0.6299   23.2258  -27.9338 H   0  0  0  0  0  0  0  0  0  0  0  0
    0.5661   22.9155  -29.2376 H   0  0  0  0  0  0  0  0  0  0  0  0
   -0.3881   24.4374  -29.2376 H   0  0  0  0  0  0  0  0  0  0  0  0
   -4.6212   22.7126  -29.9014 H   0  0  0  0  0  0  0  0  0  0  0  0
   -4.2813   23.4414  -28.2699 H   0  0  0  0  0  0  0  0  0  0  0  0
   -3.4537   25.3309  -29.1598 H   0  0  0  0  0  0  0  0  0  0  0  0
   -2.4836   24.4207  -30.3847 H   0  0  0  0  0  0  0  0  0  0  0  0
   -3.9980   25.6380  -31.6010 H   0  0  0  0  0  0  0  0  0  0  0  0
   -5.6214   25.4280  -29.3156 H   0  0  0  0  0  0  0  0  0  0  0  0
   -5.8908   26.4068  -30.8303 H   0  0  0  0  0  0  0  0  0  0  0  0
   -7.6515   24.5692  -29.9798 H   0  0  0  0  0  0  0  0  0  0  0  0
   -7.3214   24.9057  -31.7367 H   0  0  0  0  0  0  0  0  0  0  0  0
   -5.7911   22.7600  -30.2375 H   0  0  0  0  0  0  0  0  0  0  0  0
   -7.4288   22.4459  -30.9615 H   0  0  0  0  0  0  0  0  0  0  0  0
   -5.0370   23.4020  -32.4340 H   0  0  0  0  0  0  0  0  0  0  0  0
   -6.5100   23.2560  -33.0730 H   0  0  0  0  0  0  0  0  0  0  0  0
   -8.3413   21.9621  -32.1603 H   0  0  0  0  0  0  0  0  0  0  0  0
  -10.1687   20.3000  -31.9514 H   0  0  0  0  0  0  0  0  0  0  0  0
   -9.6884   17.8751  -32.1897 H   0  0  0  0  0  0  0  0  0  0  0  0
   -7.4032   17.1089  -32.7636 H   0  0  0  0  0  0  0  0  0  0  0  0
   -5.0305   16.5953  -33.0043 H   0  0  0  0  0  0  0  0  0  0  0  0
   -5.9966   17.0872  -34.4365 H   0  0  0  0  0  0  0  0  0  0  0  0
   -4.2140   17.3085  -34.4365 H   0  0  0  0  0  0  0  0  0  0  0  0
   -2.7137   17.9619  -33.4091 H   0  0  0  0  0  0  0  0  0  0  0  0
   -0.7695   19.5019  -33.3827 H   0  0  0  0  0  0  0  0  0  0  0  0
   -1.1163   21.9473  -33.1149 H   0  0  0  0  0  0  0  0  0  0  0  0
   -3.3982   22.8536  -32.7707 H   0  0  0  0  0  0  0  0  0  0  0  0
  1  2  1  0
  2  3  1  0
  3  4  1  0
  4  5  1  0
  3  6  1  0
  6  7  1  0
  7  8  1  0
  8  9  1  0
  9 10  1  0
 10 11  1  0
 11 12  1  0
 12 13  1  0
 13 14  2  0
 14 15  1  0
 15 16  2  0
 16 17  1  0
 17 18  2  0
 18 19  1  0
 19 20  2  0
 20 21  1  0
 20 22  1  0
 22 23  2  0
 23 24  1  0
 24 25  2  0
 25 26  1  0
 26 27  2  0
 27 13  1  0
 19 14  1  0
 27 22  1  0
  1 28  1  0
  1 29  1  0
  1 30  1  0
  2 31  1  0
  2 32  1  0
  4 33  1  0
  4 34  1  0
  5 35  1  0
  5 36  1  0
  5 37  1  0
  6 38  1  0
  6 39  1  0
  7 40  1  0
  7 41  1  0
  8 42  1  0
  9 43  1  0
  9 44  1  0
 10 45  1  0
 10 46  1  0
 11 47  1  0
 11 48  1  0
 12 49  1  0
 12 50  1  0
 15 51  1  0
 16 52  1  0
 17 53  1  0
 18 54  1  0
 21 55  1  0
 21 56  1  0
 21 57  1  0
 23 58  1  0
 24 59  1  0
 25 60  1  0
 26 61  1  0
M  CHG  2  12   1  20   1
M  END
>  <UniqueID>  (3) 
3

>  <SMILES>  (3) 
CCN(CC)CCNCCC[NH2+]c1c2ccccc2[n+](C)c2ccccc12

>  <Energy>  (3) 
97.5284582042732

>  <Genealogy>  (3) 
CCN(CC)CCNCCC[NH2+]c1c2ccccc2[n+](C)c2ccccc12 (protonated)
CCN(CC)CCNCCC[NH2+]c1c2ccccc2[n+](C)c2ccccc12 (3D coordinates assigned)
CCN(CC)CCNCCC[NH2+]c1c2ccccc2[n+](C)c2ccccc12 (optimized conformer: 97.5284582042732 kcal/mol)

>  <smiles>  (3) 
CCN(CC)CCNCCCNc1c2ccccc2[n+](C)c2ccccc12

>  <score_type>  (3) 
oracle

>  <origin>  (3) 
adg

>  <m_score__min__energy>  (3) 
-8.6199999999999992

>  <m_primary>  (3) 
energy

$$$$
3:0
     RDKit          3D

 59 62  0  0  0  0  0  0  0  0999 V2000
   -4.6170   22.7480  -28.6990 C   0  0  0  0  0  0  0  0  0  0  0  0
   -5.6900   23.0220  -29.7530 C   0  0  0  0  0  0  0  0  0  0  0  0
   -5.0940   23.7550  -30.8990 N   0  0  0  0  0  0  0  0  0  0  0  0
   -5.3980   25.2120  -30.8550 C   0  0  0  0  0  0  0  0  0  0  0  0
   -6.2910   25.6440  -29.6760 C   0  0  0  0  0  0  0  0  0  0  0  0
   -3.6620   23.4210  -31.0850 C   0  0  0  0  0  0  0  0  0  0  0  0
   -3.4720   22.2460  -32.0700 C   0  0  0  0  0  0  0  0  0  0  0  0
   -4.5730   22.1120  -33.0500 N   0  0  0  0  0  0  0  0  0  0  0  0
   -5.1350   20.7750  -33.1070 C   0  0  0  0  0  0  0  0  0  0  0  0
   -6.4980   20.5290  -32.7440 C   0  0  0  0  0  0  0  0  0  0  0  0
   -7.3530   21.5740  -32.3140 C   0  0  0  0  0  0  0  0  0  0  0  0
   -8.6630   21.3180  -31.9150 C   0  0  0  0  0  0  0  0  0  0  0  0
   -9.1570   20.0210  -31.9240 C   0  0  0  0  0  0  0  0  0  0  0  0
   -8.3540   18.9700  -32.3580 C   0  0  0  0  0  0  0  0  0  0  0  0
   -7.0270   19.1940  -32.8080 C   0  0  0  0  0  0  0  0  0  0  0  0
   -6.2510   18.1540  -33.2860 N   0  0  0  0  0  0  0  0  0  0  0  0
   -6.8180   16.8080  -33.5100 C   0  0  0  0  0  0  0  0  0  0  0  0
   -4.9280   18.3880  -33.5470 C   0  0  0  0  0  0  0  0  0  0  0  0
   -4.0170   17.4430  -33.8800 N   0  0  0  0  0  0  0  0  0  0  0  0
   -2.8630   18.1020  -34.0600 C   0  0  0  0  0  0  0  0  0  0  0  0
   -1.6450   17.5240  -34.4060 C   0  0  0  0  0  0  0  0  0  0  0  0
   -0.5270   18.3560  -34.5420 C   0  0  0  0  0  0  0  0  0  0  0  0
   -0.6390   19.7530  -34.3330 C   0  0  0  0  0  0  0  0  0  0  0  0
    0.5000   20.6270  -34.4590 N   0  0  0  0  0  0  0  0  0  0  0  0
    0.5610   21.7430  -35.3990 C   0  0  0  0  0  0  0  0  0  0  0  0
   -1.8910   20.3080  -33.9870 C   0  0  0  0  0  0  0  0  0  0  0  0
   -3.0060   19.4590  -33.8440 C   0  0  0  0  0  0  0  0  0  0  0  0
   -4.3580   19.6530  -33.4900 C   0  0  0  0  0  0  0  0  0  0  0  0
   -5.0524   22.8592  -27.6950 H   0  0  0  0  0  0  0  0  0  0  0  0
   -4.2355   21.7236  -28.8218 H   0  0  0  0  0  0  0  0  0  0  0  0
   -3.7911   23.4641  -28.8218 H   0  0  0  0  0  0  0  0  0  0  0  0
   -6.1064   22.0674  -30.1069 H   0  0  0  0  0  0  0  0  0  0  0  0
   -6.4892   23.6326  -29.3075 H   0  0  0  0  0  0  0  0  0  0  0  0
   -4.4465   25.7593  -30.7836 H   0  0  0  0  0  0  0  0  0  0  0  0
   -5.9593   25.4419  -31.7727 H   0  0  0  0  0  0  0  0  0  0  0  0
   -5.7891   25.4012  -28.7277 H   0  0  0  0  0  0  0  0  0  0  0  0
   -6.4696   26.7281  -29.7293 H   0  0  0  0  0  0  0  0  0  0  0  0
   -7.2518   25.1111  -29.7293 H   0  0  0  0  0  0  0  0  0  0  0  0
   -3.1382   24.3045  -31.4789 H   0  0  0  0  0  0  0  0  0  0  0  0
   -3.2507   23.1207  -30.1100 H   0  0  0  0  0  0  0  0  0  0  0  0
   -2.5328   22.4022  -32.6209 H   0  0  0  0  0  0  0  0  0  0  0  0
   -3.4571   21.3226  -31.4724 H   0  0  0  0  0  0  0  0  0  0  0  0
   -4.2770   22.4420  -33.9850 H   0  0  0  0  0  0  0  0  0  0  0  0
   -5.3260   22.7930  -32.8060 H   0  0  0  0  0  0  0  0  0  0  0  0
   -6.9752   22.6069  -32.2949 H   0  0  0  0  0  0  0  0  0  0  0  0
   -9.3088   22.1476  -31.5914 H   0  0  0  0  0  0  0  0  0  0  0  0
  -10.1854   19.8231  -31.5874 H   0  0  0  0  0  0  0  0  0  0  0  0
   -8.7559   17.9461  -32.3520 H   0  0  0  0  0  0  0  0  0  0  0  0
   -7.0197   16.3291  -32.5405 H   0  0  0  0  0  0  0  0  0  0  0  0
   -7.7559   16.8951  -34.0781 H   0  0  0  0  0  0  0  0  0  0  0  0
   -6.1005   16.1978  -34.0781 H   0  0  0  0  0  0  0  0  0  0  0  0
   -4.1380   16.4090  -33.9470 H   0  0  0  0  0  0  0  0  0  0  0  0
   -1.5626   16.4392  -34.5688 H   0  0  0  0  0  0  0  0  0  0  0  0
    0.4464   17.9215  -34.8134 H   0  0  0  0  0  0  0  0  0  0  0  0
    1.3400   20.4520  -33.8600 H   0  0  0  0  0  0  0  0  0  0  0  0
    0.6127   22.6897  -34.8413 H   0  0  0  0  0  0  0  0  0  0  0  0
    1.4549   21.6409  -36.0319 H   0  0  0  0  0  0  0  0  0  0  0  0
   -0.3387   21.7389  -36.0319 H   0  0  0  0  0  0  0  0  0  0  0  0
   -1.9943   21.3919  -33.8308 H   0  0  0  0  0  0  0  0  0  0  0  0
  1  2  1  0
  2  3  1  0
  3  4  1  0
  4  5  1  0
  3  6  1  0
  6  7  1  0
  7  8  1  0
  8  9  1  0
  9 10  2  0
 10 11  1  0
 11 12  2  0
 12 13  1  0
 13 14  2  0
 14 15  1  0
 15 16  2  0
 16 17  1  0
 16 18  1  0
 18 19  1  0
 19 20  1  0
 20 21  2  0
 21 22  1  0
 22 23  2  0
 23 24  1  0
 24 25  1  0
 23 26  1  0
 26 27  2  0
 27 28  1  0
 28  9  1  0
 15 10  1  0
 28 18  2  0
 27 20  1  0
  1 29  1  0
  1 30  1  0
  1 31  1  0
  2 32  1  0
  2 33  1  0
  4 34  1  0
  4 35  1  0
  5 36  1  0
  5 37  1  0
  5 38  1  0
  6 39  1  0
  6 40  1  0
  7 41  1  0
  7 42  1  0
  8 43  1  0
  8 44  1  0
 11 45  1  0
 12 46  1  0
 13 47  1  0
 14 48  1  0
 17 49  1  0
 17 50  1  0
 17 51  1  0
 19 52  1  0
 21 53  1  0
 22 54  1  0
 24 55  1  0
 25 56  1  0
 25 57  1  0
 25 58  1  0
 26 59  1  0
M  CHG  2   8   1  16   1
M  END
>  <UniqueID>  (4) 
4

>  <SMILES>  (4) 
CCN(CC)CC[NH2+]c1c2ccccc2[n+](C)c2[nH]c3ccc(NC)cc3c12

>  <Energy>  (4) 
124.70631969021443

>  <Genealogy>  (4) 
CCN(CC)CC[NH2+]c1c2ccccc2[n+](C)c2[nH]c3ccc(NC)cc3c12 (protonated)
CCN(CC)CC[NH2+]c1c2ccccc2[n+](C)c2[nH]c3ccc(NC)cc3c12 (3D coordinates assigned)
CCN(CC)CC[NH2+]c1c2ccccc2[n+](C)c2[nH]c3ccc(NC)cc3c12 (optimized conformer: 124.70631969021443 kcal/mol)

>  <smiles>  (4) 
CCN(CC)CCNc1c2ccccc2[n+](C)c2[nH]c3ccc(NC)cc3c12

>  <score_type>  (4) 
oracle

>  <origin>  (4) 
adg

>  <m_score__min__energy>  (4) 
-8.6099999999999994

>  <m_primary>  (4) 
energy

$$$$
4:0
     RDKit          3D

 35 36  0  0  0  0  0  0  0  0999 V2000
   -2.0320   25.3440  -28.8790 O   0  0  0  0  0  0  0  0  0  0  0  0
   -2.7720   24.5550  -29.5270 C   0  0  0  0  0  0  0  0  0  0  0  0
   -3.6890   25.0580  -30.5030 N   0  0  0  0  0  0  0  0  0  0  0  0
   -5.0960   25.3250  -30.2290 C   0  0  0  0  0  0  0  0  0  0  0  0
   -5.9100   24.0310  -30.2800 C   0  0  0  0  0  0  0  0  0  0  0  0
   -6.2970   23.7420  -31.6820 N   0  0  0  0  0  0  0  0  0  0  0  0
   -5.4230   22.7400  -32.3260 C   0  0  0  0  0  0  0  0  0  0  0  0
   -5.6400   21.3120  -31.7760 C   0  0  0  0  0  0  0  0  0  0  0  0
   -7.0470   21.1030  -31.1960 C   0  0  0  0  0  0  0  0  0  0  0  0
   -8.0770   21.9450  -31.9440 C   0  0  0  0  0  0  0  0  0  0  0  0
   -7.7420   23.4510  -31.8750 C   0  0  0  0  0  0  0  0  0  0  0  0
   -2.6910   23.1100  -29.2890 C   0  0  0  0  0  0  0  0  0  0  0  0
   -2.6340   22.1260  -30.2620 C   0  0  0  0  0  0  0  0  0  0  0  0
   -2.5670   20.9270  -29.5830 C   0  0  0  0  0  0  0  0  0  0  0  0
   -2.5890   21.2640  -28.2430 C   0  0  0  0  0  0  0  0  0  0  0  0
   -2.5380   20.3440  -27.1510 N   0  0  0  0  0  0  0  0  0  0  0  0
   -3.4620   19.5240  -26.9670 O   0  0  0  0  0  0  0  0  0  0  0  0
   -1.4670   20.3610  -26.2890 O   0  0  0  0  0  0  0  0  0  0  0  0
   -2.6620   22.5660  -28.0930 O   0  0  0  0  0  0  0  0  0  0  0  0
   -5.1908   25.7724  -29.2286 H   0  0  0  0  0  0  0  0  0  0  0  0
   -5.4809   26.0162  -30.9933 H   0  0  0  0  0  0  0  0  0  0  0  0
   -5.3031   23.2010  -29.8892 H   0  0  0  0  0  0  0  0  0  0  0  0
   -6.8161   24.1449  -29.6669 H   0  0  0  0  0  0  0  0  0  0  0  0
   -5.6305   22.7356  -33.4063 H   0  0  0  0  0  0  0  0  0  0  0  0
   -4.3819   23.0224  -32.1108 H   0  0  0  0  0  0  0  0  0  0  0  0
   -5.4874   20.5934  -32.5948 H   0  0  0  0  0  0  0  0  0  0  0  0
   -4.9197   21.1597  -30.9587 H   0  0  0  0  0  0  0  0  0  0  0  0
   -7.3183   20.0406  -31.2841 H   0  0  0  0  0  0  0  0  0  0  0  0
   -7.0408   21.4127  -30.1405 H   0  0  0  0  0  0  0  0  0  0  0  0
   -8.0956   21.6318  -32.9983 H   0  0  0  0  0  0  0  0  0  0  0  0
   -9.0571   21.7895  -31.4694 H   0  0  0  0  0  0  0  0  0  0  0  0
   -8.0666   23.9208  -32.8152 H   0  0  0  0  0  0  0  0  0  0  0  0
   -8.2672   23.8534  -30.9962 H   0  0  0  0  0  0  0  0  0  0  0  0
   -2.6408   22.2708  -31.3524 H   0  0  0  0  0  0  0  0  0  0  0  0
   -2.5085   19.9175  -30.0161 H   0  0  0  0  0  0  0  0  0  0  0  0
  1  2  2  0
  2  3  1  0
  3  4  1  0
  4  5  1  0
  5  6  1  0
  6  7  1  0
  7  8  1  0
  8  9  1  0
  9 10  1  0
 10 11  1  0
  2 12  1  0
 12 13  2  0
 13 14  1  0
 14 15  2  0
 15 16  1  0
 16 17  2  0
 16 18  1  0
 15 19  1  0
 11  6  1  0
 19 12  1  0
  4 20  1  0
  4 21  1  0
  5 22  1  0
  5 23  1  0
  7 24  1  0
  7 25  1  0
  8 26  1  0
  8 27  1  0
  9 28  1  0
  9 29  1  0
 10 30  1  0
 10 31  1  0
 11 32  1  0
 11 33  1  0
 13 34  1  0
 14 35  1  0
M  CHG  3   3  -1  16   1  18  -1
M  END
>  <UniqueID>  (5) 
5

>  <SMILES>  (5) 
O=C([N-]CCN1CCCCC1)c1ccc([N+](=O)[O-])o1

>  <Energy>  (5) 
65.08722353898888

>  <Genealogy>  (5) 
O=C([N-]CCN1CCCCC1)c1ccc([N+](=O)[O-])o1 (protonated)
O=C([N-]CCN1CCCCC1)c1ccc([N+](=O)[O-])o1 (3D coordinates assigned)
O=C([N-]CCN1CCCCC1)c1ccc([N+](=O)[O-])o1 (nonaromatic ring conformer: 65.08722353898888 kcal/mol)

>  <smiles>  (5) 
O=C(NCCN1CCCCC1)c1ccc([N+](=O)[O-])o1

>  <score_type>  (5) 
oracle

>  <origin>  (5) 
adg

>  <m_score__min__energy>  (5) 
-8.1600000000000001

>  <m_primary>  (5) 
energy

$$$$
5:0
     RDKit          3D

 32 33  0  0  0  0  0  0  0  0999 V2000
   -6.2920   24.5790  -30.2550 C   0  0  0  0  0  0  0  0  0  0  0  0
   -4.8420   24.5430  -30.6360 C   0  0  0  0  0  0  0  0  0  0  0  0
   -4.2560   25.6400  -30.8440 O   0  0  0  0  0  0  0  0  0  0  0  0
   -4.1150   23.2520  -30.8090 C   0  0  0  0  0  0  0  0  0  0  0  0
   -2.9610   23.0010  -30.0370 C   0  0  0  0  0  0  0  0  0  0  0  0
   -2.2280   21.8250  -30.2040 C   0  0  0  0  0  0  0  0  0  0  0  0
   -2.6290   20.8790  -31.1440 C   0  0  0  0  0  0  0  0  0  0  0  0
   -3.7660   21.1030  -31.9180 C   0  0  0  0  0  0  0  0  0  0  0  0
   -4.5190   22.2800  -31.7630 C   0  0  0  0  0  0  0  0  0  0  0  0
   -5.6820   22.4750  -32.5830 N   0  0  0  0  0  0  0  0  0  0  0  0
   -6.8910   21.7180  -32.4060 C   0  0  0  0  0  0  0  0  0  0  0  0
   -7.9530   22.2990  -31.6940 C   0  0  0  0  0  0  0  0  0  0  0  0
   -9.1340   21.5890  -31.4740 C   0  0  0  0  0  0  0  0  0  0  0  0
   -9.2720   20.2920  -31.9690 C   0  0  0  0  0  0  0  0  0  0  0  0
   -8.2370   19.7070  -32.7020 C   0  0  0  0  0  0  0  0  0  0  0  0
   -7.0480   20.4150  -32.9480 C   0  0  0  0  0  0  0  0  0  0  0  0
   -5.9750   19.7700  -33.7840 C   0  0  0  0  0  0  0  0  0  0  0  0
   -6.3831   24.5813  -29.1588 H   0  0  0  0  0  0  0  0  0  0  0  0
   -6.7559   25.4889  -30.6634 H   0  0  0  0  0  0  0  0  0  0  0  0
   -6.8005   23.6932  -30.6634 H   0  0  0  0  0  0  0  0  0  0  0  0
   -2.6344   23.7425  -29.2931 H   0  0  0  0  0  0  0  0  0  0  0  0
   -1.3319   21.6451  -29.5920 H   0  0  0  0  0  0  0  0  0  0  0  0
   -2.0479   19.9543  -31.2756 H   0  0  0  0  0  0  0  0  0  0  0  0
   -4.0775   20.3510  -32.6579 H   0  0  0  0  0  0  0  0  0  0  0  0
   -5.7470   23.3750  -33.1110 H   0  0  0  0  0  0  0  0  0  0  0  0
   -7.8529   23.3234  -31.3061 H   0  0  0  0  0  0  0  0  0  0  0  0
   -9.9568   22.0524  -30.9098 H   0  0  0  0  0  0  0  0  0  0  0  0
  -10.1981   19.7288  -31.7816 H   0  0  0  0  0  0  0  0  0  0  0  0
   -8.3533   18.6842  -33.0898 H   0  0  0  0  0  0  0  0  0  0  0  0
   -5.2200   19.3162  -33.1251 H   0  0  0  0  0  0  0  0  0  0  0  0
   -6.4232   18.9915  -34.4189 H   0  0  0  0  0  0  0  0  0  0  0  0
   -5.4977   20.5310  -34.4189 H   0  0  0  0  0  0  0  0  0  0  0  0
  1  2  1  0
  2  3  2  0
  2  4  1  0
  4  5  2  0
  5  6  1  0
  6  7  2  0
  7  8  1  0
  8  9  2  0
  9 10  1  0
 10 11  1  0
 11 12  2  0
 12 13  1  0
 13 14  2  0
 14 15  1  0
 15 16  2  0
 16 17  1  0
  9  4  1  0
 16 11  1  0
  1 18  1  0
  1 19  1  0
  1 20  1  0
  5 21  1  0
  6 22  1  0
  7 23  1  0
  8 24  1  0
 10 25  1  0
 12 26  1  0
 13 27  1  0
 14 28  1  0
 15 29  1  0
 17 30  1  0
 17 31  1  0
 17 32  1  0
M  END
>  <UniqueID>  (6) 
6

>  <SMILES>  (6) 
CC(=O)c1ccccc1Nc1ccccc1C

>  <Energy>  (6) 
44.46029073708477

>  <Genealogy>  (6) 
CC(=O)c1ccccc1Nc1ccccc1C (3D coordinates assigned)
CC(=O)c1ccccc1Nc1ccccc1C (optimized conformer: 44.46029073708477 kcal/mol)

>  <smiles>  (6) 
CC(=O)c1ccccc1Nc1ccccc1C

>  <score_type>  (6) 
oracle

>  <origin>  (6) 
adg

>  <m_score__min__energy>  (6) 
-7.8399999999999999

>  <m_primary>  (6) 
energy

$$$$
6:0
     RDKit          3D

 53 55  0  0  0  0  0  0  0  0999 V2000
   -4.2170   24.9280  -26.4450 C   0  0  0  0  0  0  0  0  0  0  0  0
   -4.1940   23.7970  -27.4880 C   0  0  0  0  0  0  0  0  0  0  0  0
   -4.2960   24.2650  -28.8950 N   0  0  0  0  0  0  0  0  0  0  0  0
   -5.7110   24.2700  -29.3740 C   0  0  0  0  0  0  0  0  0  0  0  0
   -6.1830   25.6720  -29.7770 C   0  0  0  0  0  0  0  0  0  0  0  0
   -3.3940   23.4860  -29.7840 C   0  0  0  0  0  0  0  0  0  0  0  0
   -4.1190   22.3210  -30.4850 C   0  0  0  0  0  0  0  0  0  0  0  0
   -3.4420   21.9380  -31.8080 C   0  0  0  0  0  0  0  0  0  0  0  0
   -4.4110   21.8450  -32.9010 N   0  0  0  0  0  0  0  0  0  0  0  0
   -5.5280   20.9550  -32.7970 C   0  0  0  0  0  0  0  0  0  0  0  0
   -6.7780   21.4810  -32.4270 C   0  0  0  0  0  0  0  0  0  0  0  0
   -6.9660   22.8760  -32.3030 C   0  0  0  0  0  0  0  0  0  0  0  0
   -8.2150   23.4000  -31.9790 C   0  0  0  0  0  0  0  0  0  0  0  0
   -9.2970   22.5490  -31.7860 C   0  0  0  0  0  0  0  0  0  0  0  0
   -9.1310   21.1690  -31.8920 C   0  0  0  0  0  0  0  0  0  0  0  0
   -7.8620   20.6040  -32.1820 C   0  0  0  0  0  0  0  0  0  0  0  0
   -7.6690   19.2390  -32.2350 N   0  0  0  0  0  0  0  0  0  0  0  0
   -8.6880   18.3300  -31.6650 C   0  0  0  0  0  0  0  0  0  0  0  0
   -6.5160   18.7230  -32.7990 C   0  0  0  0  0  0  0  0  0  0  0  0
   -6.4240   17.3500  -33.1350 C   0  0  0  0  0  0  0  0  0  0  0  0
   -5.2560   16.8120  -33.6600 C   0  0  0  0  0  0  0  0  0  0  0  0
   -4.1580   17.6230  -33.8910 C   0  0  0  0  0  0  0  0  0  0  0  0
   -4.2100   18.9920  -33.6240 C   0  0  0  0  0  0  0  0  0  0  0  0
   -2.7590   19.8870  -34.0790 Cl  0  0  0  0  0  0  0  0  0  0  0  0
   -5.3980   19.5720  -33.0750 C   0  0  0  0  0  0  0  0  0  0  0  0
   -4.2082   24.4947  -25.4340 H   0  0  0  0  0  0  0  0  0  0  0  0
   -3.3317   25.5672  -26.5777 H   0  0  0  0  0  0  0  0  0  0  0  0
   -5.1276   25.5307  -26.5777 H   0  0  0  0  0  0  0  0  0  0  0  0
   -3.2501   23.2433  -27.3760 H   0  0  0  0  0  0  0  0  0  0  0  0
   -5.0791   23.1724  -27.2972 H   0  0  0  0  0  0  0  0  0  0  0  0
   -3.9330   25.2490  -28.8750 H   0  0  0  0  0  0  0  0  0  0  0  0
   -5.7916   23.6050  -30.2465 H   0  0  0  0  0  0  0  0  0  0  0  0
   -6.3481   23.9250  -28.5463 H   0  0  0  0  0  0  0  0  0  0  0  0
   -6.3829   26.2656  -28.8727 H   0  0  0  0  0  0  0  0  0  0  0  0
   -5.4012   26.1647  -30.3737 H   0  0  0  0  0  0  0  0  0  0  0  0
   -7.1036   25.5915  -30.3737 H   0  0  0  0  0  0  0  0  0  0  0  0
   -2.9861   24.1605  -30.5513 H   0  0  0  0  0  0  0  0  0  0  0  0
   -2.5975   23.0564  -29.1587 H   0  0  0  0  0  0  0  0  0  0  0  0
   -4.1151   21.4467  -29.8175 H   0  0  0  0  0  0  0  0  0  0  0  0
   -5.1462   22.6446  -30.7092 H   0  0  0  0  0  0  0  0  0  0  0  0
   -2.6920   22.7023  -32.0597 H   0  0  0  0  0  0  0  0  0  0  0  0
   -2.9705   20.9523  -31.6809 H   0  0  0  0  0  0  0  0  0  0  0  0
   -4.3620   22.4870  -33.7230 H   0  0  0  0  0  0  0  0  0  0  0  0
   -6.1163   23.5557  -32.4642 H   0  0  0  0  0  0  0  0  0  0  0  0
   -8.3453   24.4874  -31.8758 H   0  0  0  0  0  0  0  0  0  0  0  0
  -10.2870   22.9657  -31.5490 H   0  0  0  0  0  0  0  0  0  0  0  0
   -9.9979   20.5072  -31.7485 H   0  0  0  0  0  0  0  0  0  0  0  0
   -8.6424   18.3707  -30.5667 H   0  0  0  0  0  0  0  0  0  0  0  0
   -9.6874   18.6420  -32.0023 H   0  0  0  0  0  0  0  0  0  0  0  0
   -8.4917   17.3016  -32.0023 H   0  0  0  0  0  0  0  0  0  0  0  0
   -7.2949   16.6968  -32.9770 H   0  0  0  0  0  0  0  0  0  0  0  0
   -5.2033   15.7382  -33.8930 H   0  0  0  0  0  0  0  0  0  0  0  0
   -3.2324   17.1827  -34.2902 H   0  0  0  0  0  0  0  0  0  0  0  0
  1  2  1  0
  2  3  1  0
  3  4  1  0
  4  5  1  0
  3  6  1  0
  6  7  1  0
  7  8  1  0
  8  9  1  0
  9 10  1  0
 10 11  2  0
 11 12  1  0
 12 13  2  0
 13 14  1  0
 14 15  2  0
 15 16  1  0
 16 17  2  0
 17 18  1  0
 17 19  1  0
 19 20  2  0
 20 21  1  0
 21 22  2  0
 22 23  1  0
 23 24  1  0
 23 25  2  0
 25 10  1  0
 16 11  1  0
 25 19  1  0
  1 26  1  0
  1 27  1  0
  1 28  1  0
  2 29  1  0
  2 30  1  0
  3 31  1  0
  4 32  1  0
  4 33  1  0
  5 34  1  0
  5 35  1  0
  5 36  1  0
  6 37  1  0
  6 38  1  0
  7 39  1  0
  7 40  1  0
  8 41  1  0
  8 42  1  0
  9 43  1  0
 12 44  1  0
 13 45  1  0
 14 46  1  0
 15 47  1  0
 18 48  1  0
 18 49  1  0
 18 50  1  0
 20 51  1  0
 21 52  1  0
 22 53  1  0
M  CHG  2   3   1  17   1
M  END
>  <UniqueID>  (7) 
7

>  <SMILES>  (7) 
CC[NH+](CC)CCCNc1c2ccccc2[n+](C)c2cccc(Cl)c12

>  <Energy>  (7) 
87.65964264910477

>  <Genealogy>  (7) 
CC[NH+](CC)CCCNc1c2ccccc2[n+](C)c2cccc(Cl)c12 (protonated)
CC[NH+](CC)CCCNc1c2ccccc2[n+](C)c2cccc(Cl)c12 (3D coordinates assigned)
CC[NH+](CC)CCCNc1c2ccccc2[n+](C)c2cccc(Cl)c12 (optimized conformer: 87.65964264910477 kcal/mol)

>  <smiles>  (7) 
CCN(CC)CCCNc1c2ccccc2[n+](C)c2cccc(Cl)c12

>  <score_type>  (7) 
oracle

>  <origin>  (7) 
adg

>  <m_score__min__energy>  (7) 
-7.8300000000000001

>  <m_primary>  (7) 
energy

$$$$
7:0
     RDKit          3D

 55 59  0  0  0  0  0  0  0  0999 V2000
   -4.7730   24.8990  -30.4510 C   0  0  0  0  0  0  0  0  0  0  0  0
   -4.4920   23.4920  -30.9630 C   0  0  0  0  0  0  0  0  0  0  0  0
   -5.7400   22.8240  -31.3160 N   0  0  0  0  0  0  0  0  0  0  0  0
   -6.9810   23.3390  -31.1580 C   0  0  0  0  0  0  0  0  0  0  0  0
   -7.8710   22.3670  -31.5480 C   0  0  0  0  0  0  0  0  0  0  0  0
   -9.2600   22.3400  -31.5670 C   0  0  0  0  0  0  0  0  0  0  0  0
   -9.8810   21.1530  -31.9940 C   0  0  0  0  0  0  0  0  0  0  0  0
   -9.1070   20.0370  -32.3840 C   0  0  0  0  0  0  0  0  0  0  0  0
   -7.6920   20.0910  -32.3590 C   0  0  0  0  0  0  0  0  0  0  0  0
   -6.8960   18.9530  -32.7480 N   0  0  0  0  0  0  0  0  0  0  0  0
   -6.7830   17.7980  -31.8500 C   0  0  0  0  0  0  0  0  0  0  0  0
   -5.5930   16.9210  -32.2520 C   0  0  0  0  0  0  0  0  0  0  0  0
   -5.6980   16.4670  -33.6620 N   0  0  0  0  0  0  0  0  0  0  0  0
   -4.4260   15.8080  -34.0750 C   0  0  0  0  0  0  0  0  0  0  0  0
   -3.1740   16.6740  -33.8140 C   0  0  1  0  0  0  0  0  0  0  0  0
   -2.1580   16.6500  -34.9760 C   0  0  0  0  0  0  0  0  0  0  0  0
   -1.1310   17.6200  -34.7550 O   0  0  0  0  0  0  0  0  0  0  0  0
   -1.4280   18.8760  -34.2180 C   0  0  0  0  0  0  0  0  0  0  0  0
   -0.4900   19.9130  -34.2590 C   0  0  0  0  0  0  0  0  0  0  0  0
   -0.8230   21.1720  -33.7450 C   0  0  0  0  0  0  0  0  0  0  0  0
   -2.0900   21.3910  -33.1890 C   0  0  0  0  0  0  0  0  0  0  0  0
   -3.0230   20.3490  -33.1360 C   0  0  0  0  0  0  0  0  0  0  0  0
   -2.6840   19.0870  -33.6360 C   0  0  0  0  0  0  0  0  0  0  0  0
   -3.5880   18.0230  -33.5660 O   0  0  0  0  0  0  0  0  0  0  0  0
   -6.1040   17.5540  -34.6110 C   0  0  0  0  0  0  0  0  0  0  0  0
   -6.1200   18.9600  -33.9920 C   0  0  0  0  0  0  0  0  0  0  0  0
   -7.1110   21.2920  -31.9260 C   0  0  0  0  0  0  0  0  0  0  0  0
   -5.8030   21.5750  -31.7680 N   0  0  0  0  0  0  0  0  0  0  0  0
   -4.7724   24.8958  -29.3510 H   0  0  0  0  0  0  0  0  0  0  0  0
   -3.9940   25.5845  -30.8161 H   0  0  0  0  0  0  0  0  0  0  0  0
   -5.7555   25.2327  -30.8161 H   0  0  0  0  0  0  0  0  0  0  0  0
   -3.8477   23.5513  -31.8526 H   0  0  0  0  0  0  0  0  0  0  0  0
   -3.9891   22.9167  -30.1718 H   0  0  0  0  0  0  0  0  0  0  0  0
   -7.2303   24.3444  -30.7878 H   0  0  0  0  0  0  0  0  0  0  0  0
   -9.8518   23.2147  -31.2594 H   0  0  0  0  0  0  0  0  0  0  0  0
  -10.9789   21.0926  -32.0247 H   0  0  0  0  0  0  0  0  0  0  0  0
   -9.6097   19.1149  -32.7111 H   0  0  0  0  0  0  0  0  0  0  0  0
   -6.6388   18.1536  -30.8191 H   0  0  0  0  0  0  0  0  0  0  0  0
   -7.7045   17.2014  -31.9197 H   0  0  0  0  0  0  0  0  0  0  0  0
   -4.6660   17.5009  -32.1321 H   0  0  0  0  0  0  0  0  0  0  0  0
   -5.5877   16.0318  -31.6045 H   0  0  0  0  0  0  0  0  0  0  0  0
   -6.4590   15.7450  -33.6690 H   0  0  0  0  0  0  0  0  0  0  0  0
   -4.3225   14.8674  -33.5142 H   0  0  0  0  0  0  0  0  0  0  0  0
   -4.4845   15.6404  -35.1606 H   0  0  0  0  0  0  0  0  0  0  0  0
   -2.6589   16.2477  -32.9405 H   0  0  0  0  0  0  0  0  0  0  0  0
   -1.7049   15.6498  -35.0417 H   0  0  0  0  0  0  0  0  0  0  0  0
   -2.6805   16.8883  -35.9142 H   0  0  0  0  0  0  0  0  0  0  0  0
    0.5056   19.7399  -34.6935 H   0  0  0  0  0  0  0  0  0  0  0  0
   -0.0887   21.9904  -33.7778 H   0  0  0  0  0  0  0  0  0  0  0  0
   -2.3521   22.3834  -32.7934 H   0  0  0  0  0  0  0  0  0  0  0  0
   -4.0192   20.5217  -32.7028 H   0  0  0  0  0  0  0  0  0  0  0  0
   -5.3976   17.5568  -35.4542 H   0  0  0  0  0  0  0  0  0  0  0  0
   -7.1367   17.3337  -34.9193 H   0  0  0  0  0  0  0  0  0  0  0  0
   -5.0883   19.2742  -33.7757 H   0  0  0  0  0  0  0  0  0  0  0  0
   -6.5832   19.6611  -34.7018 H   0  0  0  0  0  0  0  0  0  0  0  0
  1  2  1  0
  2  3  1  0
  3  4  1  0
  4  5  2  0
  5  6  1  0
  6  7  2  0
  7  8  1  0
  8  9  2  0
  9 10  1  0
 10 11  1  0
 11 12  1  0
 12 13  1  0
 13 14  1  0
 14 15  1  0
 15 16  1  0
 16 17  1  0
 17 18  1  0
 18 19  2  0
 19 20  1  0
 20 21  2  0
 21 22  1  0
 22 23  2  0
 23 24  1  0
 13 25  1  0
 25 26  1  0
  9 27  1  0
 27 28  2  0
 28  3  1  0
 27  5  1  0
 26 10  1  0
 24 15  1  0
 23 18  1  0
  1 29  1  0
  1 30  1  0
  1 31  1  0
  2 32  1  0
  2 33  1  0
  4 34  1  0
  6 35  1  0
  7 36  1  0
  8 37  1  0
 11 38  1  0
 11 39  1  0
 12 40  1  0
 12 41  1  0
 13 42  1  0
 14 43  1  0
 14 44  1  0
 15 45  1  1
 16 46  1  0
 16 47  1  0
 19 48  1  0
 20 49  1  0
 21 50  1  0
 22 51  1  0
 25 52  1  0
 25 53  1  0
 26 54  1  0
 26 55  1  0
M  CHG  1  13   1
M  END
>  <UniqueID>  (8) 
8

>  <SMILES>  (8) 
CCn1cc2cccc(N3CC[NH+](C[C@H]4COc5ccccc5O4)CC3)c2n1

>  <Energy>  (8) 
108.34277614147443

>  <Genealogy>  (8) 
CCn1cc2cccc(N3CC[NH+](CC4COc5ccccc5O4)CC3)c2n1 (protonated)
CCn1cc2cccc(N3CC[NH+](C[C@H]4COc5ccccc5O4)CC3)c2n1 (chirality)
CCn1cc2cccc(N3CC[NH+](C[C@H]4COc5ccccc5O4)CC3)c2n1 (3D coordinates assigned)
CCn1cc2cccc(N3CC[NH+](C[C@H]4COc5ccccc5O4)CC3)c2n1 (nonaromatic ring conformer: 108.34277614147443 kcal/mol)

>  <smiles>  (8) 
CCn1cc2cccc(N3CCN(CC4COc5ccccc5O4)CC3)c2n1

>  <score_type>  (8) 
oracle

>  <origin>  (8) 
adg

>  <m_score__min__energy>  (8) 
-7.7000000000000002

>  <m_primary>  (8) 
energy

$$$$
8:0
     RDKit          3D

 54 57  0  0  0  0  0  0  0  0999 V2000
   -6.6830   24.9660  -30.0760 C   0  0  0  0  0  0  0  0  0  0  0  0
   -5.3110   25.6120  -30.3190 C   0  0  0  0  0  0  0  0  0  0  0  0
   -4.2200   24.6080  -30.4800 N   0  0  0  0  0  0  0  0  0  0  0  0
   -3.4370   24.5030  -29.2170 C   0  0  0  0  0  0  0  0  0  0  0  0
   -4.1790   23.6990  -28.1420 C   0  0  0  0  0  0  0  0  0  0  0  0
   -4.7900   23.2850  -30.8540 C   0  0  0  0  0  0  0  0  0  0  0  0
   -3.9000   22.4800  -31.8310 C   0  0  0  0  0  0  0  0  0  0  0  0
   -4.6320   21.9340  -32.9820 N   0  0  0  0  0  0  0  0  0  0  0  0
   -5.1370   20.5900  -33.0560 C   0  0  0  0  0  0  0  0  0  0  0  0
   -6.4670   20.2610  -32.6930 C   0  0  0  0  0  0  0  0  0  0  0  0
   -7.2970   21.2010  -32.0490 C   0  0  0  0  0  0  0  0  0  0  0  0
   -8.6040   20.8760  -31.6950 C   0  0  0  0  0  0  0  0  0  0  0  0
   -9.1010   19.6020  -31.9410 C   0  0  0  0  0  0  0  0  0  0  0  0
   -8.2900   18.6330  -32.5310 C   0  0  0  0  0  0  0  0  0  0  0  0
   -6.9610   18.9300  -32.9240 C   0  0  0  0  0  0  0  0  0  0  0  0
   -6.1390   17.9650  -33.4850 N   0  0  0  0  0  0  0  0  0  0  0  0
   -6.6510   16.6290  -33.8420 C   0  0  0  0  0  0  0  0  0  0  0  0
   -4.8170   18.2710  -33.6760 C   0  0  0  0  0  0  0  0  0  0  0  0
   -3.8470   17.4150  -34.0840 N   0  0  0  0  0  0  0  0  0  0  0  0
   -2.7290   18.1630  -34.1640 C   0  0  0  0  0  0  0  0  0  0  0  0
   -1.4650   17.7240  -34.5550 C   0  0  0  0  0  0  0  0  0  0  0  0
   -0.4210   18.6630  -34.5890 C   0  0  0  0  0  0  0  0  0  0  0  0
   -0.6570   20.0090  -34.2350 C   0  0  0  0  0  0  0  0  0  0  0  0
    0.6550   21.1700  -34.3020 Cl  0  0  0  0  0  0  0  0  0  0  0  0
   -1.9400   20.4260  -33.8340 C   0  0  0  0  0  0  0  0  0  0  0  0
   -2.9660   19.4750  -33.8090 C   0  0  0  0  0  0  0  0  0  0  0  0
   -4.3150   19.5440  -33.4820 C   0  0  0  0  0  0  0  0  0  0  0  0
   -6.8621   24.8817  -28.9940 H   0  0  0  0  0  0  0  0  0  0  0  0
   -7.4674   25.5894  -30.5300 H   0  0  0  0  0  0  0  0  0  0  0  0
   -6.7022   23.9642  -30.5300 H   0  0  0  0  0  0  0  0  0  0  0  0
   -5.3662   26.2208  -31.2335 H   0  0  0  0  0  0  0  0  0  0  0  0
   -5.0714   26.2228  -29.4361 H   0  0  0  0  0  0  0  0  0  0  0  0
   -3.5870   24.9230  -31.2470 H   0  0  0  0  0  0  0  0  0  0  0  0
   -2.4798   24.0062  -29.4336 H   0  0  0  0  0  0  0  0  0  0  0  0
   -3.2806   25.5209  -28.8304 H   0  0  0  0  0  0  0  0  0  0  0  0
   -3.8634   24.0410  -27.1453 H   0  0  0  0  0  0  0  0  0  0  0  0
   -5.2629   23.8488  -28.2549 H   0  0  0  0  0  0  0  0  0  0  0  0
   -3.9428   22.6306  -28.2549 H   0  0  0  0  0  0  0  0  0  0  0  0
   -4.9238   22.6924  -29.9370 H   0  0  0  0  0  0  0  0  0  0  0  0
   -5.7419   23.4785  -31.3702 H   0  0  0  0  0  0  0  0  0  0  0  0
   -3.1075   23.1440  -32.2065 H   0  0  0  0  0  0  0  0  0  0  0  0
   -3.4983   21.6237  -31.2694 H   0  0  0  0  0  0  0  0  0  0  0  0
   -4.8340   22.5750  -33.7800 H   0  0  0  0  0  0  0  0  0  0  0  0
   -6.9071   22.2045  -31.8231 H   0  0  0  0  0  0  0  0  0  0  0  0
   -9.2460   21.6314  -31.2184 H   0  0  0  0  0  0  0  0  0  0  0  0
  -10.1383   19.3568  -31.6693 H   0  0  0  0  0  0  0  0  0  0  0  0
   -8.6886   17.6208  -32.6942 H   0  0  0  0  0  0  0  0  0  0  0  0
   -6.8682   16.0624  -32.9245 H   0  0  0  0  0  0  0  0  0  0  0  0
   -7.5721   16.7354  -34.4339 H   0  0  0  0  0  0  0  0  0  0  0  0
   -5.8947   16.0926  -34.4339 H   0  0  0  0  0  0  0  0  0  0  0  0
   -3.9080   16.3920  -34.2780 H   0  0  0  0  0  0  0  0  0  0  0  0
   -1.2903   16.6731  -34.8289 H   0  0  0  0  0  0  0  0  0  0  0  0
    0.5877   18.3473  -34.8937 H   0  0  0  0  0  0  0  0  0  0  0  0
   -2.1309   21.4709  -33.5481 H   0  0  0  0  0  0  0  0  0  0  0  0
  1  2  1  0
  2  3  1  0
  3  4  1  0
  4  5  1  0
  3  6  1  0
  6  7  1  0
  7  8  1  0
  8  9  1  0
  9 10  2  0
 10 11  1  0
 11 12  2  0
 12 13  1  0
 13 14  2  0
 14 15  1  0
 15 16  2  0
 16 17  1  0
 16 18  1  0
 18 19  1  0
 19 20  1  0
 20 21  2  0
 21 22  1  0
 22 23  2  0
 23 24  1  0
 23 25  1  0
 25 26  2  0
 26 27  1  0
 27  9  1  0
 15 10  1  0
 27 18  2  0
 26 20  1  0
  1 28  1  0
  1 29  1  0
  1 30  1  0
  2 31  1  0
  2 32  1  0
  3 33  1  0
  4 34  1  0
  4 35  1  0
  5 36  1  0
  5 37  1  0
  5 38  1  0
  6 39  1  0
  6 40  1  0
  7 41  1  0
  7 42  1  0
  8 43  1  0
 11 44  1  0
 12 45  1  0
 13 46  1  0
 14 47  1  0
 17 48  1  0
 17 49  1  0
 17 50  1  0
 19 51  1  0
 21 52  1  0
 22 53  1  0
 25 54  1  0
M  CHG  2   3   1  16   1
M  END
>  <UniqueID>  (9) 
9

>  <SMILES>  (9) 
CC[NH+](CC)CCNc1c2ccccc2[n+](C)c2[nH]c3ccc(Cl)cc3c12

>  <Energy>  (9) 
114.07229239568592

>  <Genealogy>  (9) 
CC[NH+](CC)CCNc1c2ccccc2[n+](C)c2[nH]c3ccc(Cl)cc3c12 (protonated)
CC[NH+](CC)CCNc1c2ccccc2[n+](C)c2[nH]c3ccc(Cl)cc3c12 (3D coordinates assigned)
CC[NH+](CC)CCNc1c2ccccc2[n+](C)c2[nH]c3ccc(Cl)cc3c12 (optimized conformer: 114.07229239568592 kcal/mol)

>  <smiles>  (9) 
CCN(CC)CCNc1c2ccccc2[n+](C)c2[nH]c3ccc(Cl)cc3c12

>  <score_type>  (9) 
oracle

>  <origin>  (9) 
adg

>  <m_score__min__energy>  (9) 
-7.75

>  <m_primary>  (9) 
energy

$$$$
9:0
     RDKit          3D

 46 47  0  0  0  0  0  0  0  0999 V2000
   -8.7550   20.3580  -32.3400 C   0  0  0  0  0  0  0  0  0  0  0  0
   -7.6440   19.6930  -33.1680 C   0  0  0  0  0  0  0  0  0  0  0  0
   -7.5270   18.2240  -32.9780 N   0  0  0  0  0  0  0  0  0  0  0  0
   -7.5090   17.8360  -31.5490 C   0  0  0  0  0  0  0  0  0  0  0  0
   -6.1070   17.3890  -31.1540 C   0  0  0  0  0  0  0  0  0  0  0  0
   -6.4380   17.5790  -33.7470 C   0  0  0  0  0  0  0  0  0  0  0  0
   -5.7320   18.5720  -34.6840 C   0  0  0  0  0  0  0  0  0  0  0  0
   -4.4130   18.9280  -34.1660 N   0  0  0  0  0  0  0  0  0  0  0  0
   -4.1850   20.1590  -33.4690 C   0  0  0  0  0  0  0  0  0  0  0  0
   -5.1170   20.8650  -32.8740 O   0  0  0  0  0  0  0  0  0  0  0  0
   -4.5230   21.9180  -32.3500 C   0  0  0  0  0  0  0  0  0  0  0  0
   -5.2350   22.9590  -31.5770 C   0  0  0  0  0  0  0  0  0  0  0  0
   -6.6400   23.0120  -31.5990 C   0  0  0  0  0  0  0  0  0  0  0  0
   -7.3250   23.9770  -30.8590 C   0  0  0  0  0  0  0  0  0  0  0  0
   -6.6190   24.8990  -30.0890 C   0  0  0  0  0  0  0  0  0  0  0  0
   -5.2230   24.8660  -30.0610 C   0  0  0  0  0  0  0  0  0  0  0  0
   -4.5170   23.9030  -30.8080 C   0  0  0  0  0  0  0  0  0  0  0  0
   -3.1110   23.8700  -30.8240 O   0  0  0  0  0  0  0  0  0  0  0  0
   -2.2990   23.3910  -29.7580 C   0  0  0  0  0  0  0  0  0  0  0  0
   -3.1930   21.9220  -32.5990 N   0  0  0  0  0  0  0  0  0  0  0  0
   -2.9780   20.7990  -33.3060 C   0  0  0  0  0  0  0  0  0  0  0  0
   -1.6940   20.3700  -33.7920 C   0  0  0  0  0  0  0  0  0  0  0  0
   -0.6610   20.0250  -34.1820 N   0  0  0  0  0  0  0  0  0  0  0  0
   -8.5406   20.2297  -31.2687 H   0  0  0  0  0  0  0  0  0  0  0  0
   -8.7985   21.4308  -32.5793 H   0  0  0  0  0  0  0  0  0  0  0  0
   -9.7210   19.8895  -32.5793 H   0  0  0  0  0  0  0  0  0  0  0  0
   -7.8462   19.8865  -34.2318 H   0  0  0  0  0  0  0  0  0  0  0  0
   -6.6946   20.1288  -32.8234 H   0  0  0  0  0  0  0  0  0  0  0  0
   -7.8049   18.6978  -30.9327 H   0  0  0  0  0  0  0  0  0  0  0  0
   -8.2137   17.0067  -31.3886 H   0  0  0  0  0  0  0  0  0  0  0  0
   -6.0258   17.3631  -30.0573 H   0  0  0  0  0  0  0  0  0  0  0  0
   -5.9143   16.3849  -31.5598 H   0  0  0  0  0  0  0  0  0  0  0  0
   -5.3687   18.0963  -31.5598 H   0  0  0  0  0  0  0  0  0  0  0  0
   -5.6998   17.1687  -33.0423 H   0  0  0  0  0  0  0  0  0  0  0  0
   -6.8814   16.7839  -34.3645 H   0  0  0  0  0  0  0  0  0  0  0  0
   -5.6172   18.1118  -35.6765 H   0  0  0  0  0  0  0  0  0  0  0  0
   -6.3414   19.4852  -34.7529 H   0  0  0  0  0  0  0  0  0  0  0  0
   -3.6010   18.3130  -34.3940 H   0  0  0  0  0  0  0  0  0  0  0  0
   -7.2038   22.2870  -32.2044 H   0  0  0  0  0  0  0  0  0  0  0  0
   -8.4242   24.0097  -30.8837 H   0  0  0  0  0  0  0  0  0  0  0  0
   -7.1621   25.6543  -29.5021 H   0  0  0  0  0  0  0  0  0  0  0  0
   -4.6713   25.5969  -29.4516 H   0  0  0  0  0  0  0  0  0  0  0  0
   -2.7589   23.6623  -28.7963 H   0  0  0  0  0  0  0  0  0  0  0  0
   -2.2116   22.2966  -29.8269 H   0  0  0  0  0  0  0  0  0  0  0  0
   -1.2989   23.8438  -29.8269 H   0  0  0  0  0  0  0  0  0  0  0  0
   -2.4780   22.6190  -32.2910 H   0  0  0  0  0  0  0  0  0  0  0  0
  1  2  1  0
  2  3  1  0
  3  4  1  0
  4  5  1  0
  3  6  1  0
  6  7  1  0
  7  8  1  0
  8  9  1  0
  9 10  1  0
 10 11  1  0
 11 12  1  0
 12 13  2  0
 13 14  1  0
 14 15  2  0
 15 16  1  0
 16 17  2  0
 17 18  1  0
 18 19  1  0
 11 20  2  0
 20 21  1  0
 21 22  1  0
 22 23  3  0
 21  9  2  0
 17 12  1  0
  1 24  1  0
  1 25  1  0
  1 26  1  0
  2 27  1  0
  2 28  1  0
  4 29  1  0
  4 30  1  0
  5 31  1  0
  5 32  1  0
  5 33  1  0
  6 34  1  0
  6 35  1  0
  7 36  1  0
  7 37  1  0
  8 38  1  0
 13 39  1  0
 14 40  1  0
 15 41  1  0
 16 42  1  0
 19 43  1  0
 19 44  1  0
 19 45  1  0
 20 46  1  0
M  CHG  1  20   1
M  END
>  <UniqueID>  (10) 
10

>  <SMILES>  (10) 
CCN(CC)CCNc1oc(-c2ccccc2OC)[nH+]c1C#N

>  <Energy>  (10) 
75.89443701806695

>  <Genealogy>  (10) 
CCN(CC)CCNc1oc(-c2ccccc2OC)[nH+]c1C#N (protonated)
CCN(CC)CCNc1oc(-c2ccccc2OC)[nH+]c1C#N (3D coordinates assigned)
CCN(CC)CCNc1oc(-c2ccccc2OC)[nH+]c1C#N (optimized conformer: 75.89443701806695 kcal/mol)

>  <smiles>  (10) 
CCN(CC)CCNc1oc(-c2ccccc2OC)nc1C#N

>  <score_type>  (10) 
oracle

>  <origin>  (10) 
adg

>  <m_score__min__energy>  (10) 
-5.5300000000000002

>  <m_primary>  (10) 
energy

$$$$
10:0
     RDKit          3D

 39 40  0  0  0  0  0  0  0  0999 V2000
   -6.3340   24.7770  -30.0990 C   0  0  0  0  0  0  0  0  0  0  0  0
   -5.2970   25.6380  -30.8070 C   0  0  0  0  0  0  0  0  0  0  0  0
   -4.0050   25.1670  -30.4850 O   0  0  0  0  0  0  0  0  0  0  0  0
   -4.0750   24.1960  -29.4570 C   0  0  0  0  0  0  0  0  0  0  0  0
   -3.0600   23.0680  -29.7310 C   0  0  0  0  0  0  0  0  0  0  0  0
   -2.9030   22.7380  -31.1640 N   0  0  0  0  0  0  0  0  0  0  0  0
   -1.7240   21.8900  -31.4660 C   0  0  0  0  0  0  0  0  0  0  0  0
   -2.1120   20.5600  -32.1290 C   0  0  0  0  0  0  0  0  0  0  0  0
   -2.8980   20.7790  -33.3680 N   0  0  0  0  0  0  0  0  0  0  0  0
   -3.5430   19.5280  -33.8200 C   0  0  0  0  0  0  0  0  0  0  0  0
   -4.8890   19.3540  -33.1830 C   0  0  0  0  0  0  0  0  0  0  0  0
   -5.1380   18.7040  -31.9800 C   0  0  0  0  0  0  0  0  0  0  0  0
   -6.4880   18.7340  -31.6090 C   0  0  0  0  0  0  0  0  0  0  0  0
   -7.2900   19.4110  -32.5180 C   0  0  0  0  0  0  0  0  0  0  0  0
   -9.1710   19.6750  -32.3640 Br  0  0  0  0  0  0  0  0  0  0  0  0
   -6.3350   19.9760  -33.7800 S   0  0  0  0  0  0  0  0  0  0  0  0
   -3.8840   21.8890  -33.2600 C   0  0  0  0  0  0  0  0  0  0  0  0
   -4.1570   22.3060  -31.8100 C   0  0  0  0  0  0  0  0  0  0  0  0
   -6.2127   24.8777  -29.0104 H   0  0  0  0  0  0  0  0  0  0  0  0
   -7.3430   25.1066  -30.3876 H   0  0  0  0  0  0  0  0  0  0  0  0
   -6.1955   23.7246  -30.3876 H   0  0  0  0  0  0  0  0  0  0  0  0
   -5.4499   25.5785  -31.8947 H   0  0  0  0  0  0  0  0  0  0  0  0
   -5.4009   26.6839  -30.4824 H   0  0  0  0  0  0  0  0  0  0  0  0
   -3.8425   24.6694  -28.4917 H   0  0  0  0  0  0  0  0  0  0  0  0
   -5.0894   23.7715  -29.4281 H   0  0  0  0  0  0  0  0  0  0  0  0
   -2.0811   23.3801  -29.3382 H   0  0  0  0  0  0  0  0  0  0  0  0
   -3.4454   22.1646  -29.2357 H   0  0  0  0  0  0  0  0  0  0  0  0
   -1.0571   22.4416  -32.1450 H   0  0  0  0  0  0  0  0  0  0  0  0
   -1.2267   21.6565  -30.5130 H   0  0  0  0  0  0  0  0  0  0  0  0
   -1.1960   20.0052  -32.3802 H   0  0  0  0  0  0  0  0  0  0  0  0
   -2.7334   19.9904  -31.4223 H   0  0  0  0  0  0  0  0  0  0  0  0
   -3.6643   19.5608  -34.9128 H   0  0  0  0  0  0  0  0  0  0  0  0
   -2.9057   18.6807  -33.5270 H   0  0  0  0  0  0  0  0  0  0  0  0
   -4.3551   18.2161  -31.3809 H   0  0  0  0  0  0  0  0  0  0  0  0
   -6.8740   18.2683  -30.6903 H   0  0  0  0  0  0  0  0  0  0  0  0
   -3.4940   22.7594  -33.8080 H   0  0  0  0  0  0  0  0  0  0  0  0
   -4.8331   21.5297  -33.6843 H   0  0  0  0  0  0  0  0  0  0  0  0
   -4.8772   23.1374  -31.7996 H   0  0  0  0  0  0  0  0  0  0  0  0
   -4.5695   21.4478  -31.2593 H   0  0  0  0  0  0  0  0  0  0  0  0
  1  2  1  0
  2  3  1  0
  3  4  1  0
  4  5  1  0
  5  6  1  0
  6  7  1  0
  7  8  1  0
  8  9  1  0
  9 10  1  0
 10 11  1  0
 11 12  2  0
 12 13  1  0
 13 14  2  0
 14 15  1  0
 14 16  1  0
  9 17  1  0
 17 18  1  0
 18  6  1  0
 16 11  1  0
  1 19  1  0
  1 20  1  0
  1 21  1  0
  2 22  1  0
  2 23  1  0
  4 24  1  0
  4 25  1  0
  5 26  1  0
  5 27  1  0
  7 28  1  0
  7 29  1  0
  8 30  1  0
  8 31  1  0
 10 32  1  0
 10 33  1  0
 12 34  1  0
 13 35  1  0
 17 36  1  0
 17 37  1  0
 18 38  1  0
 18 39  1  0
M  END
>  <UniqueID>  (11) 
11

>  <SMILES>  (11) 
CCOCCN1CCN(Cc2ccc(Br)s2)CC1

>  <Energy>  (11) 
76.57572918238743

>  <Genealogy>  (11) 
CCOCCN1CCN(Cc2ccc(Br)s2)CC1 (3D coordinates assigned)
CCOCCN1CCN(Cc2ccc(Br)s2)CC1 (nonaromatic ring conformer: 76.57572918238743 kcal/mol)

>  <smiles>  (11) 
CCOCCN1CCN(Cc2ccc(Br)s2)CC1

>  <score_type>  (11) 
oracle

>  <origin>  (11) 
adg

>  <m_score__min__energy>  (11) 
-7.5899999999999999

>  <m_primary>  (11) 
energy

$$$$
11:0
     RDKit          3D

 50 51  0  0  0  0  0  0  0  0999 V2000
   -2.4750   24.3030  -28.8380 C   0  0  0  0  0  0  0  0  0  0  0  0
   -3.9420   24.5440  -29.1780 C   0  0  0  0  0  0  0  0  0  0  0  0
   -4.0780   24.8850  -30.5450 O   0  0  0  0  0  0  0  0  0  0  0  0
   -5.3850   25.3510  -30.8120 C   0  0  0  0  0  0  0  0  0  0  0  0
   -6.3220   24.9460  -29.6730 C   0  0  0  0  0  0  0  0  0  0  0  0
   -6.7360   23.4740  -29.7710 C   0  0  0  0  0  0  0  0  0  0  0  0
   -6.3100   22.9210  -31.0630 N   0  0  0  0  0  0  0  0  0  0  0  0
   -7.4620   22.5700  -31.9100 C   0  0  0  0  0  0  0  0  0  0  0  0
   -7.6870   21.0730  -31.9920 C   0  0  0  0  0  0  0  0  0  0  0  0
   -8.9650   20.6270  -32.3850 C   0  0  0  0  0  0  0  0  0  0  0  0
   -9.2780   19.2670  -32.3980 C   0  0  0  0  0  0  0  0  0  0  0  0
   -8.3260   18.3290  -32.0080 C   0  0  0  0  0  0  0  0  0  0  0  0
   -7.0560   18.7470  -31.6140 C   0  0  0  0  0  0  0  0  0  0  0  0
   -6.7080   20.1050  -31.6180 C   0  0  0  0  0  0  0  0  0  0  0  0
   -5.3970   20.4090  -31.2120 O   0  0  0  0  0  0  0  0  0  0  0  0
   -4.1730   20.0660  -31.8760 C   0  0  0  0  0  0  0  0  0  0  0  0
   -4.1540   20.7610  -33.2410 C   0  0  0  0  0  0  0  0  0  0  0  0
   -4.1200   22.3010  -33.1020 C   0  0  0  0  0  0  0  0  0  0  0  0
   -3.5270   22.7630  -31.8300 N   0  0  0  0  0  0  0  0  0  0  0  0
   -2.4260   21.8980  -31.3840 C   0  0  0  0  0  0  0  0  0  0  0  0
   -2.9220   20.4740  -31.0570 C   0  0  0  0  0  0  0  0  0  0  0  0
   -2.3504   24.2825  -27.7453 H   0  0  0  0  0  0  0  0  0  0  0  0
   -2.1538   23.3400  -29.2617 H   0  0  0  0  0  0  0  0  0  0  0  0
   -1.8626   25.1126  -29.2617 H   0  0  0  0  0  0  0  0  0  0  0  0
   -4.5174   23.6292  -28.9729 H   0  0  0  0  0  0  0  0  0  0  0  0
   -4.3214   25.3728  -28.5622 H   0  0  0  0  0  0  0  0  0  0  0  0
   -5.3708   26.4473  -30.9009 H   0  0  0  0  0  0  0  0  0  0  0  0
   -5.7437   24.9076  -31.7526 H   0  0  0  0  0  0  0  0  0  0  0  0
   -5.8074   25.1078  -28.7144 H   0  0  0  0  0  0  0  0  0  0  0  0
   -7.2309   25.5616  -29.7435 H   0  0  0  0  0  0  0  0  0  0  0  0
   -6.2615   22.9065  -28.9569 H   0  0  0  0  0  0  0  0  0  0  0  0
   -7.8302   23.3988  -29.6874 H   0  0  0  0  0  0  0  0  0  0  0  0
   -5.7300   22.0690  -30.8860 H   0  0  0  0  0  0  0  0  0  0  0  0
   -8.3641   23.0400  -31.4912 H   0  0  0  0  0  0  0  0  0  0  0  0
   -7.2522   22.9329  -32.9270 H   0  0  0  0  0  0  0  0  0  0  0  0
   -9.7267   21.3614  -32.6858 H   0  0  0  0  0  0  0  0  0  0  0  0
  -10.2775   18.9360  -32.7166 H   0  0  0  0  0  0  0  0  0  0  0  0
   -8.5761   17.2578  -32.0108 H   0  0  0  0  0  0  0  0  0  0  0  0
   -6.3150   17.9993  -31.2948 H   0  0  0  0  0  0  0  0  0  0  0  0
   -4.1342   18.9727  -31.9907 H   0  0  0  0  0  0  0  0  0  0  0  0
   -3.2615   20.4338  -33.7946 H   0  0  0  0  0  0  0  0  0  0  0  0
   -5.0747   20.4867  -33.7768 H   0  0  0  0  0  0  0  0  0  0  0  0
   -3.5279   22.7130  -33.9325 H   0  0  0  0  0  0  0  0  0  0  0  0
   -5.1625   22.6515  -33.1202 H   0  0  0  0  0  0  0  0  0  0  0  0
   -4.2620   22.8040  -31.0860 H   0  0  0  0  0  0  0  0  0  0  0  0
   -3.1580   23.7340  -31.9640 H   0  0  0  0  0  0  0  0  0  0  0  0
   -1.6718   21.8391  -32.1826 H   0  0  0  0  0  0  0  0  0  0  0  0
   -1.9953   22.3318  -30.4695 H   0  0  0  0  0  0  0  0  0  0  0  0
   -2.1125   19.7620  -31.2753 H   0  0  0  0  0  0  0  0  0  0  0  0
   -3.2053   20.4600  -29.9942 H   0  0  0  0  0  0  0  0  0  0  0  0
  1  2  1  0
  2  3  1  0
  3  4  1  0
  4  5  1  0
  5  6  1  0
  6  7  1  0
  7  8  1  0
  8  9  1  0
  9 10  2  0
 10 11  1  0
 11 12  2  0
 12 13  1  0
 13 14  2  0
 14 15  1  0
 15 16  1  0
 16 17  1  0
 17 18  1  0
 18 19  1  0
 19 20  1  0
 20 21  1  0
 14  9  1  0
 21 16  1  0
  1 22  1  0
  1 23  1  0
  1 24  1  0
  2 25  1  0
  2 26  1  0
  4 27  1  0
  4 28  1  0
  5 29  1  0
  5 30  1  0
  6 31  1  0
  6 32  1  0
  7 33  1  0
  8 34  1  0
  8 35  1  0
 10 36  1  0
 11 37  1  0
 12 38  1  0
 13 39  1  0
 16 40  1  0
 17 41  1  0
 17 42  1  0
 18 43  1  0
 18 44  1  0
 19 45  1  0
 19 46  1  0
 20 47  1  0
 20 48  1  0
 21 49  1  0
 21 50  1  0
M  CHG  1  19   1
M  END
>  <UniqueID>  (12) 
12

>  <SMILES>  (12) 
CCOCCCNCc1ccccc1OC1CC[NH2+]CC1

>  <Energy>  (12) 
57.13748430358987

>  <Genealogy>  (12) 
CCOCCCNCc1ccccc1OC1CC[NH2+]CC1 (protonated)
CCOCCCNCc1ccccc1OC1CC[NH2+]CC1 (3D coordinates assigned)
CCOCCCNCc1ccccc1OC1CC[NH2+]CC1 (nonaromatic ring conformer: 57.13748430358987 kcal/mol)

>  <smiles>  (12) 
CCOCCCNCc1ccccc1OC1CCNCC1

>  <score_type>  (12) 
oracle

>  <origin>  (12) 
adg

>  <m_score__min__energy>  (12) 
-6.9199999999999999

>  <m_primary>  (12) 
energy

$$$$
12:0
     RDKit          3D

 51 53  0  0  0  0  0  0  0  0999 V2000
   -7.6520   23.4680  -31.4030 C   0  0  0  0  0  0  0  0  0  0  0  0
   -7.0210   22.8260  -30.1620 C   0  0  0  0  0  0  0  0  0  0  0  0
   -6.1010   23.7550  -29.4520 N   0  0  0  0  0  0  0  0  0  0  0  0
   -6.4910   25.1670  -29.7170 C   0  0  0  0  0  0  0  0  0  0  0  0
   -5.3990   25.9440  -30.4620 C   0  0  0  0  0  0  0  0  0  0  0  0
   -4.6960   23.5210  -29.8830 C   0  0  0  0  0  0  0  0  0  0  0  0
   -4.5120   22.1840  -30.6390 C   0  0  0  0  0  0  0  0  0  0  0  0
   -3.7410   22.3210  -31.9690 C   0  0  0  0  0  0  0  0  0  0  0  0
   -4.3880   21.6340  -33.0940 N   0  0  0  0  0  0  0  0  0  0  0  0
   -4.6900   20.2220  -33.1360 C   0  0  0  0  0  0  0  0  0  0  0  0
   -5.9980   19.7330  -32.8640 C   0  0  0  0  0  0  0  0  0  0  0  0
   -7.0740   20.6170  -32.6300 C   0  0  0  0  0  0  0  0  0  0  0  0
   -8.3510   20.1330  -32.3610 C   0  0  0  0  0  0  0  0  0  0  0  0
   -8.5910   18.7650  -32.3370 C   0  0  0  0  0  0  0  0  0  0  0  0
   -7.5540   17.8640  -32.5660 C   0  0  0  0  0  0  0  0  0  0  0  0
   -6.2350   18.3160  -32.8140 C   0  0  0  0  0  0  0  0  0  0  0  0
   -5.1930   17.4230  -33.0140 N   0  0  0  0  0  0  0  0  0  0  0  0
   -5.3790   15.9690  -32.8550 C   0  0  0  0  0  0  0  0  0  0  0  0
   -3.9760   17.9240  -33.3930 C   0  0  0  0  0  0  0  0  0  0  0  0
   -2.9120   17.2110  -33.8190 N   0  0  0  0  0  0  0  0  0  0  0  0
   -1.9730   18.1150  -34.1640 C   0  0  0  0  0  0  0  0  0  0  0  0
   -2.4360   19.4040  -33.9630 C   0  0  0  0  0  0  0  0  0  0  0  0
   -3.7180   19.2700  -33.4580 C   0  0  0  0  0  0  0  0  0  0  0  0
   -8.3914   24.2203  -31.0909 H   0  0  0  0  0  0  0  0  0  0  0  0
   -6.8681   23.9518  -32.0043 H   0  0  0  0  0  0  0  0  0  0  0  0
   -8.1492   22.6926  -32.0043 H   0  0  0  0  0  0  0  0  0  0  0  0
   -7.8235   22.5266  -29.4718 H   0  0  0  0  0  0  0  0  0  0  0  0
   -6.4325   21.9581  -30.4943 H   0  0  0  0  0  0  0  0  0  0  0  0
   -6.1680   23.5760  -28.4260 H   0  0  0  0  0  0  0  0  0  0  0  0
   -7.4068   25.1723  -30.3263 H   0  0  0  0  0  0  0  0  0  0  0  0
   -6.6505   25.6592  -28.7463 H   0  0  0  0  0  0  0  0  0  0  0  0
   -4.7273   26.4219  -29.7337 H   0  0  0  0  0  0  0  0  0  0  0  0
   -4.8224   25.2519  -31.0934 H   0  0  0  0  0  0  0  0  0  0  0  0
   -5.8639   26.7155  -31.0934 H   0  0  0  0  0  0  0  0  0  0  0  0
   -4.3908   24.3439  -30.5461 H   0  0  0  0  0  0  0  0  0  0  0  0
   -4.0761   23.4746  -28.9755 H   0  0  0  0  0  0  0  0  0  0  0  0
   -3.9596   21.4906  -29.9878 H   0  0  0  0  0  0  0  0  0  0  0  0
   -5.5182   21.8162  -30.8886 H   0  0  0  0  0  0  0  0  0  0  0  0
   -3.6580   23.3899  -32.2149 H   0  0  0  0  0  0  0  0  0  0  0  0
   -2.7581   21.8491  -31.8235 H   0  0  0  0  0  0  0  0  0  0  0  0
   -4.6850   22.2340  -33.8940 H   0  0  0  0  0  0  0  0  0  0  0  0
   -6.9006   21.7028  -32.6607 H   0  0  0  0  0  0  0  0  0  0  0  0
   -9.1737   20.8368  -32.1666 H   0  0  0  0  0  0  0  0  0  0  0  0
   -9.6058   18.3912  -32.1360 H   0  0  0  0  0  0  0  0  0  0  0  0
   -7.7628   16.7841  -32.5541 H   0  0  0  0  0  0  0  0  0  0  0  0
   -5.4111   15.7184  -31.7844 H   0  0  0  0  0  0  0  0  0  0  0  0
   -6.3232   15.6659  -33.3310 H   0  0  0  0  0  0  0  0  0  0  0  0
   -4.5415   15.4380  -33.3310 H   0  0  0  0  0  0  0  0  0  0  0  0
   -2.8210   16.1800  -33.9380 H   0  0  0  0  0  0  0  0  0  0  0  0
   -0.9752   17.8627  -34.5522 H   0  0  0  0  0  0  0  0  0  0  0  0
   -1.8965   20.3415  -34.1633 H   0  0  0  0  0  0  0  0  0  0  0  0
  1  2  1  0
  2  3  1  0
  3  4  1  0
  4  5  1  0
  3  6  1  0
  6  7  1  0
  7  8  1  0
  8  9  1  0
  9 10  1  0
 10 11  2  0
 11 12  1  0
 12 13  2  0
 13 14  1  0
 14 15  2  0
 15 16  1  0
 16 17  2  0
 17 18  1  0
 17 19  1  0
 19 20  1  0
 20 21  1  0
 21 22  2  0
 22 23  1  0
 23 10  1  0
 16 11  1  0
 23 19  2  0
  1 24  1  0
  1 25  1  0
  1 26  1  0
  2 27  1  0
  2 28  1  0
  3 29  1  0
  4 30  1  0
  4 31  1  0
  5 32  1  0
  5 33  1  0
  5 34  1  0
  6 35  1  0
  6 36  1  0
  7 37  1  0
  7 38  1  0
  8 39  1  0
  8 40  1  0
  9 41  1  0
 12 42  1  0
 13 43  1  0
 14 44  1  0
 15 45  1  0
 18 46  1  0
 18 47  1  0
 18 48  1  0
 20 49  1  0
 21 50  1  0
 22 51  1  0
M  CHG  2   3   1  17   1
M  END
>  <UniqueID>  (13) 
13

>  <SMILES>  (13) 
CC[NH+](CC)CCCNc1c2ccccc2[n+](C)c2[nH]ccc12

>  <Energy>  (13) 
100.2160578295028

>  <Genealogy>  (13) 
CC[NH+](CC)CCCNc1c2ccccc2[n+](C)c2[nH]ccc12 (protonated)
CC[NH+](CC)CCCNc1c2ccccc2[n+](C)c2[nH]ccc12 (3D coordinates assigned)
CC[NH+](CC)CCCNc1c2ccccc2[n+](C)c2[nH]ccc12 (optimized conformer: 100.2160578295028 kcal/mol)

>  <smiles>  (13) 
CCN(CC)CCCNc1c2ccccc2[n+](C)c2[nH]ccc12

>  <score_type>  (13) 
oracle

>  <origin>  (13) 
adg

>  <m_score__min__energy>  (13) 
-6.8200000000000003

>  <m_primary>  (13) 
energy

$$$$
13:0
     RDKit          3D

 72 75  0  0  0  0  0  0  0  0999 V2000
    0.2490   20.9930  -35.9920 C   0  0  0  0  0  0  0  0  0  0  0  0
    0.2110   21.5840  -34.5730 C   0  0  0  0  0  0  0  0  0  0  0  0
   -0.2570   20.6310  -33.5340 N   0  0  0  0  0  0  0  0  0  0  0  0
    0.7420   19.6130  -33.1350 C   0  0  0  0  0  0  0  0  0  0  0  0
    0.4040   18.9610  -31.7920 C   0  0  0  0  0  0  0  0  0  0  0  0
   -0.8590   21.3060  -32.3580 C   0  0  0  0  0  0  0  0  0  0  0  0
   -2.3910   21.2430  -32.4400 C   0  0  0  0  0  0  0  0  0  0  0  0
   -2.8480   20.8870  -33.7950 N   0  0  0  0  0  0  0  0  0  0  0  0
   -3.7990   19.7980  -33.7440 C   0  0  0  0  0  0  0  0  0  0  0  0
   -3.4150   18.4570  -34.0520 C   0  0  0  0  0  0  0  0  0  0  0  0
   -2.0620   18.1100  -34.2740 C   0  0  0  0  0  0  0  0  0  0  0  0
   -1.6920   16.7960  -34.5440 C   0  0  0  0  0  0  0  0  0  0  0  0
   -2.6510   15.7880  -34.5720 C   0  0  0  0  0  0  0  0  0  0  0  0
   -3.9940   16.0890  -34.3500 C   0  0  0  0  0  0  0  0  0  0  0  0
   -4.4130   17.4230  -34.1080 C   0  0  0  0  0  0  0  0  0  0  0  0
   -5.7470   17.7250  -33.8970 N   0  0  0  0  0  0  0  0  0  0  0  0
   -6.8160   16.7320  -34.1160 C   0  0  0  0  0  0  0  0  0  0  0  0
   -6.0700   18.9850  -33.4660 C   0  0  0  0  0  0  0  0  0  0  0  0
   -7.2880   19.3760  -33.0240 N   0  0  0  0  0  0  0  0  0  0  0  0
   -7.1340   20.6560  -32.6430 C   0  0  0  0  0  0  0  0  0  0  0  0
   -8.1080   21.4560  -32.0550 C   0  0  0  0  0  0  0  0  0  0  0  0
   -7.7430   22.7450  -31.6400 C   0  0  0  0  0  0  0  0  0  0  0  0
   -6.4150   23.2100  -31.8120 C   0  0  0  0  0  0  0  0  0  0  0  0
   -6.0220   24.4850  -31.3860 O   0  0  0  0  0  0  0  0  0  0  0  0
   -5.0410   24.7240  -30.4140 C   0  0  0  0  0  0  0  0  0  0  0  0
   -4.2220   25.6740  -30.5440 O   0  0  0  0  0  0  0  0  0  0  0  0
   -4.9700   23.8440  -29.2050 C   0  0  0  0  0  0  0  0  0  0  0  0
   -3.8210   22.8150  -29.2860 C   0  0  0  0  0  0  0  0  0  0  0  0
   -2.5520   23.3650  -29.8030 N   0  0  0  0  0  0  0  0  0  0  0  0
   -1.4520   23.3440  -28.8260 C   0  0  0  0  0  0  0  0  0  0  0  0
   -1.1390   24.7600  -28.3490 C   0  0  0  0  0  0  0  0  0  0  0  0
   -2.0140   25.6750  -28.9510 O   0  0  0  0  0  0  0  0  0  0  0  0
   -5.4610   22.3890  -32.4400 C   0  0  0  0  0  0  0  0  0  0  0  0
   -5.8390   21.0990  -32.8420 C   0  0  0  0  0  0  0  0  0  0  0  0
   -5.1410   20.0100  -33.3770 C   0  0  0  0  0  0  0  0  0  0  0  0
    0.3195   19.8970  -35.9309 H   0  0  0  0  0  0  0  0  0  0  0  0
   -0.6689   21.2720  -36.5301 H   0  0  0  0  0  0  0  0  0  0  0  0
    1.1237   21.3873  -36.5301 H   0  0  0  0  0  0  0  0  0  0  0  0
    1.2266   21.9133  -34.3081 H   0  0  0  0  0  0  0  0  0  0  0  0
   -0.5114   22.4133  -34.5928 H   0  0  0  0  0  0  0  0  0  0  0  0
    0.7785   18.8314  -33.9082 H   0  0  0  0  0  0  0  0  0  0  0  0
    1.7129   20.1188  -33.0281 H   0  0  0  0  0  0  0  0  0  0  0  0
    0.7418   19.6126  -30.9727 H   0  0  0  0  0  0  0  0  0  0  0  0
   -0.6837   18.8143  -31.7191 H   0  0  0  0  0  0  0  0  0  0  0  0
    0.9110   17.9875  -31.7191 H   0  0  0  0  0  0  0  0  0  0  0  0
   -0.5230   20.8038  -31.4388 H   0  0  0  0  0  0  0  0  0  0  0  0
   -0.5422   22.3593  -32.3464 H   0  0  0  0  0  0  0  0  0  0  0  0
   -2.7556   20.4860  -31.7300 H   0  0  0  0  0  0  0  0  0  0  0  0
   -2.7898   22.2380  -32.1930 H   0  0  0  0  0  0  0  0  0  0  0  0
   -3.2700   21.7090  -34.2770 H   0  0  0  0  0  0  0  0  0  0  0  0
   -2.0380   20.6260  -34.4030 H   0  0  0  0  0  0  0  0  0  0  0  0
   -1.2893   18.8918  -34.2325 H   0  0  0  0  0  0  0  0  0  0  0  0
   -0.6365   16.5529  -34.7362 H   0  0  0  0  0  0  0  0  0  0  0  0
   -2.3481   14.7493  -34.7701 H   0  0  0  0  0  0  0  0  0  0  0  0
   -4.7398   15.2806  -34.3626 H   0  0  0  0  0  0  0  0  0  0  0  0
   -7.1945   16.3805  -33.1448 H   0  0  0  0  0  0  0  0  0  0  0  0
   -7.6365   17.1956  -34.6832 H   0  0  0  0  0  0  0  0  0  0  0  0
   -6.4140   15.8796  -34.6832 H   0  0  0  0  0  0  0  0  0  0  0  0
   -8.1540   18.8050  -32.9170 H   0  0  0  0  0  0  0  0  0  0  0  0
   -9.1357   21.0881  -31.9193 H   0  0  0  0  0  0  0  0  0  0  0  0
   -8.4943   23.4014  -31.1767 H   0  0  0  0  0  0  0  0  0  0  0  0
   -4.8152   24.4758  -28.3180 H   0  0  0  0  0  0  0  0  0  0  0  0
   -5.9149   23.2842  -29.1445 H   0  0  0  0  0  0  0  0  0  0  0  0
   -3.6396   22.4200  -28.2755 H   0  0  0  0  0  0  0  0  0  0  0  0
   -4.1415   22.0381  -29.9958 H   0  0  0  0  0  0  0  0  0  0  0  0
   -2.6950   24.3370  -30.1600 H   0  0  0  0  0  0  0  0  0  0  0  0
   -1.7446   22.7271  -27.9636 H   0  0  0  0  0  0  0  0  0  0  0  0
   -0.5563   22.9220  -29.3051 H   0  0  0  0  0  0  0  0  0  0  0  0
   -1.2554   24.8100  -27.2563 H   0  0  0  0  0  0  0  0  0  0  0  0
   -0.1054   25.0136  -28.6270 H   0  0  0  0  0  0  0  0  0  0  0  0
   -2.9290   25.3000  -28.8470 H   0  0  0  0  0  0  0  0  0  0  0  0
   -4.4370   22.7518  -32.6128 H   0  0  0  0  0  0  0  0  0  0  0  0
  1  2  1  0
  2  3  1  0
  3  4  1  0
  4  5  1  0
  3  6  1  0
  6  7  1  0
  7  8  1  0
  8  9  1  0
  9 10  2  0
 10 11  1  0
 11 12  2  0
 12 13  1  0
 13 14  2  0
 14 15  1  0
 15 16  2  0
 16 17  1  0
 16 18  1  0
 18 19  1  0
 19 20  1  0
 20 21  2  0
 21 22  1  0
 22 23  2  0
 23 24  1  0
 24 25  1  0
 25 26  2  0
 25 27  1  0
 27 28  1  0
 28 29  1  0
 29 30  1  0
 30 31  1  0
 31 32  1  0
 23 33  1  0
 33 34  2  0
 34 35  1  0
 35  9  1  0
 15 10  1  0
 35 18  2  0
 34 20  1  0
  1 36  1  0
  1 37  1  0
  1 38  1  0
  2 39  1  0
  2 40  1  0
  4 41  1  0
  4 42  1  0
  5 43  1  0
  5 44  1  0
  5 45  1  0
  6 46  1  0
  6 47  1  0
  7 48  1  0
  7 49  1  0
  8 50  1  0
  8 51  1  0
 11 52  1  0
 12 53  1  0
 13 54  1  0
 14 55  1  0
 17 56  1  0
 17 57  1  0
 17 58  1  0
 19 59  1  0
 21 60  1  0
 22 61  1  0
 27 62  1  0
 27 63  1  0
 28 64  1  0
 28 65  1  0
 29 66  1  0
 30 67  1  0
 30 68  1  0
 31 69  1  0
 31 70  1  0
 32 71  1  0
 33 72  1  0
M  CHG  2   8   1  16   1
M  END
>  <UniqueID>  (14) 
14

>  <SMILES>  (14) 
CCN(CC)CC[NH2+]c1c2ccccc2[n+](C)c2[nH]c3ccc(OC(=O)CCNCCO)cc3c12

>  <Energy>  (14) 
136.79457411710806

>  <Genealogy>  (14) 
CCN(CC)CC[NH2+]c1c2ccccc2[n+](C)c2[nH]c3ccc(OC(=O)CCNCCO)cc3c12 (protonated)
CCN(CC)CC[NH2+]c1c2ccccc2[n+](C)c2[nH]c3ccc(OC(=O)CCNCCO)cc3c12 (3D coordinates assigned)
CCN(CC)CC[NH2+]c1c2ccccc2[n+](C)c2[nH]c3ccc(OC(=O)CCNCCO)cc3c12 (optimized conformer: 136.79457411710806 kcal/mol)

>  <smiles>  (14) 
CCN(CC)CCNc1c2ccccc2[n+](C)c2[nH]c3ccc(OC(=O)CCNCCO)cc3c12

>  <score_type>  (14) 
oracle

>  <origin>  (14) 
adg

>  <m_score__min__energy>  (14) 
-8.8100000000000005

>  <m_primary>  (14) 
energy

$$$$
14:0
     RDKit          3D

 49 51  0  0  0  0  0  0  0  0999 V2000
   -1.1090   20.4240  -28.1750 C   0  0  0  0  0  0  0  0  0  0  0  0
   -0.8090   21.8300  -28.6870 C   0  0  0  0  0  0  0  0  0  0  0  0
   -2.0180   22.7240  -28.5440 C   0  0  0  0  0  0  0  0  0  0  0  0
   -3.0260   22.6650  -29.5210 C   0  0  0  0  0  0  0  0  0  0  0  0
   -4.1410   23.5090  -29.4510 C   0  0  0  0  0  0  0  0  0  0  0  0
   -5.3640   23.4370  -30.7140 S   0  0  0  0  0  0  0  0  0  0  0  0
   -5.3510   24.6910  -31.5440 O   0  0  0  0  0  0  0  0  0  0  0  0
   -6.7170   23.2900  -30.0740 O   0  0  0  0  0  0  0  0  0  0  0  0
   -5.0370   22.0600  -31.7480 C   0  0  0  0  0  0  0  0  0  0  0  0
   -3.8840   21.8680  -32.4910 C   0  0  0  0  0  0  0  0  0  0  0  0
   -3.8920   20.6650  -33.2090 C   0  0  0  0  0  0  0  0  0  0  0  0
   -5.0500   19.9170  -33.0290 C   0  0  0  0  0  0  0  0  0  0  0  0
   -6.0640   20.7500  -31.9750 S   0  0  0  0  0  0  0  0  0  0  0  0
   -4.2520   24.4250  -28.3970 C   0  0  0  0  0  0  0  0  0  0  0  0
   -3.2560   24.4950  -27.4220 C   0  0  0  0  0  0  0  0  0  0  0  0
   -2.1360   23.6550  -27.4870 C   0  0  0  0  0  0  0  0  0  0  0  0
   -1.1330   23.7530  -26.4710 N   0  0  0  0  0  0  0  0  0  0  0  0
   -0.8450   22.6650  -25.5530 C   0  0  0  0  0  0  0  0  0  0  0  0
   -0.0720   23.2910  -24.3950 C   0  0  0  0  0  0  0  0  0  0  0  0
    0.3840   24.6750  -24.9050 C   0  0  2  0  0  0  0  0  0  0  0  0
    0.4560   25.7510  -23.8730 N   0  0  0  0  0  0  0  0  0  0  0  0
    1.4380   26.8220  -24.1550 C   0  0  0  0  0  0  0  0  0  0  0  0
   -0.8750   26.3430  -23.6450 C   0  0  0  0  0  0  0  0  0  0  0  0
   -0.5420   25.0170  -26.0780 C   0  0  0  0  0  0  0  0  0  0  0  0
   -1.1085   20.4265  -27.0750 H   0  0  0  0  0  0  0  0  0  0  0  0
   -2.0958   20.1035  -28.5405 H   0  0  0  0  0  0  0  0  0  0  0  0
   -0.3390   19.7286  -28.5405 H   0  0  0  0  0  0  0  0  0  0  0  0
    0.0237   22.2546  -28.1071 H   0  0  0  0  0  0  0  0  0  0  0  0
   -0.5420   21.7670  -29.7522 H   0  0  0  0  0  0  0  0  0  0  0  0
   -2.9382   21.9476  -30.3503 H   0  0  0  0  0  0  0  0  0  0  0  0
   -3.0498   22.5846  -32.5148 H   0  0  0  0  0  0  0  0  0  0  0  0
   -3.0611   20.3429  -33.8538 H   0  0  0  0  0  0  0  0  0  0  0  0
   -5.2669   18.9451  -33.4964 H   0  0  0  0  0  0  0  0  0  0  0  0
   -5.1259   25.0904  -28.3377 H   0  0  0  0  0  0  0  0  0  0  0  0
   -3.3507   25.2152  -26.5959 H   0  0  0  0  0  0  0  0  0  0  0  0
   -1.7797   22.2130  -25.1896 H   0  0  0  0  0  0  0  0  0  0  0  0
   -0.2669   21.8663  -26.0407 H   0  0  0  0  0  0  0  0  0  0  0  0
   -0.7213   23.4006  -23.5139 H   0  0  0  0  0  0  0  0  0  0  0  0
    0.7807   22.6673  -24.0886 H   0  0  0  0  0  0  0  0  0  0  0  0
    1.4357   24.6163  -25.2221 H   0  0  0  0  0  0  0  0  0  0  0  0
    0.7390   25.2990  -22.9710 H   0  0  0  0  0  0  0  0  0  0  0  0
    1.8148   27.2329  -23.2068 H   0  0  0  0  0  0  0  0  0  0  0  0
    2.2765   26.4075  -24.7339 H   0  0  0  0  0  0  0  0  0  0  0  0
    0.9525   27.6215  -24.7339 H   0  0  0  0  0  0  0  0  0  0  0  0
   -1.0595   26.4250  -22.5637 H   0  0  0  0  0  0  0  0  0  0  0  0
   -0.9143   27.3434  -24.1006 H   0  0  0  0  0  0  0  0  0  0  0  0
   -1.6443   25.7022  -24.1006 H   0  0  0  0  0  0  0  0  0  0  0  0
   -1.3211   25.7261  -25.7614 H   0  0  0  0  0  0  0  0  0  0  0  0
    0.0008   25.4946  -26.9070 H   0  0  0  0  0  0  0  0  0  0  0  0
  1  2  1  0
  2  3  1  0
  3  4  2  0
  4  5  1  0
  5  6  1  0
  6  7  2  0
  6  8  2  0
  6  9  1  0
  9 10  2  0
 10 11  1  0
 11 12  2  0
 12 13  1  0
  5 14  2  0
 14 15  1  0
 15 16  2  0
 16 17  1  0
 17 18  1  0
 18 19  1  0
 19 20  1  0
 20 21  1  0
 21 22  1  0
 21 23  1  0
 20 24  1  0
 16  3  1  0
 24 17  1  0
 13  9  1  0
  1 25  1  0
  1 26  1  0
  1 27  1  0
  2 28  1  0
  2 29  1  0
  4 30  1  0
 10 31  1  0
 11 32  1  0
 12 33  1  0
 14 34  1  0
 15 35  1  0
 18 36  1  0
 18 37  1  0
 19 38  1  0
 19 39  1  0
 20 40  1  6
 21 41  1  0
 22 42  1  0
 22 43  1  0
 22 44  1  0
 23 45  1  0
 23 46  1  0
 23 47  1  0
 24 48  1  0
 24 49  1  0
M  CHG  1  21   1
M  END
>  <UniqueID>  (15) 
15

>  <SMILES>  (15) 
CCc1cc(S(=O)(=O)c2cccs2)ccc1N1CC[C@H]([NH+](C)C)C1

>  <Energy>  (15) 
88.24881121819398

>  <Genealogy>  (15) 
CCc1cc(S(=O)(=O)c2cccs2)ccc1N1CCC([NH+](C)C)C1 (protonated)
CCc1cc(S(=O)(=O)c2cccs2)ccc1N1CC[C@H]([NH+](C)C)C1 (chirality)
CCc1cc(S(=O)(=O)c2cccs2)ccc1N1CC[C@H]([NH+](C)C)C1 (3D coordinates assigned)
CCc1cc(S(=O)(=O)c2cccs2)ccc1N1CC[C@H]([NH+](C)C)C1 (nonaromatic ring conformer: 88.24881121819398 kcal/mol)

>  <smiles>  (15) 
CCc1cc(S(=O)(=O)c2cccs2)ccc1N1CCC(N(C)C)C1

>  <score_type>  (15) 
oracle

>  <origin>  (15) 
adg

>  <m_score__min__energy>  (15) 
-8.4000000000000004

>  <m_primary>  (15) 
energy

$$$$
15:0
     RDKit          3D

 69 72  0  0  0  0  0  0  0  0999 V2000
   -3.4780   21.4600  -29.8330 C   0  0  0  0  0  0  0  0  0  0  0  0
   -4.5290   22.5690  -29.7680 C   0  0  0  0  0  0  0  0  0  0  0  0
   -3.9890   23.8320  -30.3320 N   0  0  0  0  0  0  0  0  0  0  0  0
   -3.1770   24.5330  -29.3040 C   0  0  0  0  0  0  0  0  0  0  0  0
   -1.7320   24.0490  -29.3170 C   0  0  0  0  0  0  0  0  0  0  0  0
   -5.0830   24.7220  -30.8040 C   0  0  0  0  0  0  0  0  0  0  0  0
   -6.3170   23.9500  -31.3080 C   0  0  0  0  0  0  0  0  0  0  0  0
   -6.0720   23.2620  -32.5790 N   0  0  0  0  0  0  0  0  0  0  0  0
   -5.9860   21.8300  -32.6960 C   0  0  0  0  0  0  0  0  0  0  0  0
   -7.1200   21.0390  -32.4500 C   0  0  0  0  0  0  0  0  0  0  0  0
   -8.3020   21.5930  -31.9150 C   0  0  0  0  0  0  0  0  0  0  0  0
   -9.4300   20.7980  -31.7160 C   0  0  0  0  0  0  0  0  0  0  0  0
   -9.4060   19.4510  -32.0590 C   0  0  0  0  0  0  0  0  0  0  0  0
   -8.2520   18.8880  -32.6030 C   0  0  0  0  0  0  0  0  0  0  0  0
   -7.0890   19.6670  -32.8050 C   0  0  0  0  0  0  0  0  0  0  0  0
   -5.9550   19.1300  -33.3730 N   0  0  0  0  0  0  0  0  0  0  0  0
   -6.1110   17.9940  -34.3060 C   0  0  0  0  0  0  0  0  0  0  0  0
   -4.7490   19.7970  -33.2570 C   0  0  0  0  0  0  0  0  0  0  0  0
   -4.7660   21.1960  -33.0110 C   0  0  0  0  0  0  0  0  0  0  0  0
   -3.5670   21.9240  -33.0570 C   0  0  0  0  0  0  0  0  0  0  0  0
   -2.3720   21.3110  -33.4020 C   0  0  0  0  0  0  0  0  0  0  0  0
   -2.2990   19.9240  -33.5600 C   0  0  0  0  0  0  0  0  0  0  0  0
   -1.0580   19.2870  -33.8090 C   0  0  0  0  0  0  0  0  0  0  0  0
    0.1400   20.0380  -34.0860 N   0  0  0  0  0  0  0  0  0  0  0  0
    0.4340   20.4010  -35.4820 C   0  0  0  0  0  0  0  0  0  0  0  0
    0.2990   21.9040  -35.7060 C   0  0  0  0  0  0  0  0  0  0  0  0
    1.2180   20.0390  -33.0820 C   0  0  0  0  0  0  0  0  0  0  0  0
    0.6480   20.0540  -31.6710 C   0  0  0  0  0  0  0  0  0  0  0  0
   -0.9800   17.8900  -33.7820 C   0  0  0  0  0  0  0  0  0  0  0  0
   -2.1010   17.1300  -33.4710 C   0  0  0  0  0  0  0  0  0  0  0  0
   -3.3310   17.7460  -33.2570 C   0  0  0  0  0  0  0  0  0  0  0  0
   -3.4800   19.1450  -33.3940 C   0  0  0  0  0  0  0  0  0  0  0  0
   -3.1957   21.1621  -28.8124 H   0  0  0  0  0  0  0  0  0  0  0  0
   -3.8931   20.5923  -30.3667 H   0  0  0  0  0  0  0  0  0  0  0  0
   -2.5893   21.8279  -30.3667 H   0  0  0  0  0  0  0  0  0  0  0  0
   -5.4135   22.2636  -30.3462 H   0  0  0  0  0  0  0  0  0  0  0  0
   -4.8028   22.7379  -28.7161 H   0  0  0  0  0  0  0  0  0  0  0  0
   -3.1950   25.6137  -29.5084 H   0  0  0  0  0  0  0  0  0  0  0  0
   -3.6070   24.3175  -28.3147 H   0  0  0  0  0  0  0  0  0  0  0  0
   -1.3759   23.9297  -28.2831 H   0  0  0  0  0  0  0  0  0  0  0  0
   -1.6738   23.0823  -29.8387 H   0  0  0  0  0  0  0  0  0  0  0  0
   -1.1033   24.7856  -29.8387 H   0  0  0  0  0  0  0  0  0  0  0  0
   -5.3919   25.3692  -29.9699 H   0  0  0  0  0  0  0  0  0  0  0  0
   -4.6904   25.3016  -31.6525 H   0  0  0  0  0  0  0  0  0  0  0  0
   -6.5980   23.2026  -30.5514 H   0  0  0  0  0  0  0  0  0  0  0  0
   -7.1217   24.6812  -31.4750 H   0  0  0  0  0  0  0  0  0  0  0  0
   -5.9190   23.8420  -33.4350 H   0  0  0  0  0  0  0  0  0  0  0  0
   -8.3340   22.6608  -31.6527 H   0  0  0  0  0  0  0  0  0  0  0  0
  -10.3419   21.2381  -31.2862 H   0  0  0  0  0  0  0  0  0  0  0  0
  -10.2988   18.8282  -31.9010 H   0  0  0  0  0  0  0  0  0  0  0  0
   -8.2462   17.8232  -32.8789 H   0  0  0  0  0  0  0  0  0  0  0  0
   -6.2387   17.0638  -33.7330 H   0  0  0  0  0  0  0  0  0  0  0  0
   -6.9950   18.1587  -34.9396 H   0  0  0  0  0  0  0  0  0  0  0  0
   -5.2154   17.9143  -34.9396 H   0  0  0  0  0  0  0  0  0  0  0  0
   -3.5753   22.9972  -32.8157 H   0  0  0  0  0  0  0  0  0  0  0  0
   -1.4708   21.9234  -33.5531 H   0  0  0  0  0  0  0  0  0  0  0  0
    1.4625   20.0941  -35.7227 H   0  0  0  0  0  0  0  0  0  0  0  0
   -0.2887   19.8874  -36.1331 H   0  0  0  0  0  0  0  0  0  0  0  0
    0.2529   22.4169  -34.7340 H   0  0  0  0  0  0  0  0  0  0  0  0
    1.1679   22.2698  -36.2728 H   0  0  0  0  0  0  0  0  0  0  0  0
   -0.6212   22.1091  -36.2728 H   0  0  0  0  0  0  0  0  0  0  0  0
    1.8321   19.1358  -33.2125 H   0  0  0  0  0  0  0  0  0  0  0  0
    1.8283   20.9432  -33.2234 H   0  0  0  0  0  0  0  0  0  0  0  0
    1.4719   20.0323  -30.9425 H   0  0  0  0  0  0  0  0  0  0  0  0
    0.0537   20.9681  -31.5253 H   0  0  0  0  0  0  0  0  0  0  0  0
    0.0064   19.1724  -31.5253 H   0  0  0  0  0  0  0  0  0  0  0  0
   -0.0262   17.3909  -34.0082 H   0  0  0  0  0  0  0  0  0  0  0  0
   -2.0161   16.0360  -33.3935 H   0  0  0  0  0  0  0  0  0  0  0  0
   -4.2011   17.1341  -32.9767 H   0  0  0  0  0  0  0  0  0  0  0  0
  1  2  1  0
  2  3  1  0
  3  4  1  0
  4  5  1  0
  3  6  1  0
  6  7  1  0
  7  8  1  0
  8  9  1  0
  9 10  2  0
 10 11  1  0
 11 12  2  0
 12 13  1  0
 13 14  2  0
 14 15  1  0
 15 16  2  0
 16 17  1  0
 16 18  1  0
 18 19  2  0
 19 20  1  0
 20 21  2  0
 21 22  1  0
 22 23  2  0
 23 24  1  0
 24 25  1  0
 25 26  1  0
 24 27  1  0
 27 28  1  0
 23 29  1  0
 29 30  2  0
 30 31  1  0
 31 32  2  0
 19  9  1  0
 32 22  1  0
 15 10  1  0
 32 18  1  0
  1 33  1  0
  1 34  1  0
  1 35  1  0
  2 36  1  0
  2 37  1  0
  4 38  1  0
  4 39  1  0
  5 40  1  0
  5 41  1  0
  5 42  1  0
  6 43  1  0
  6 44  1  0
  7 45  1  0
  7 46  1  0
  8 47  1  0
 11 48  1  0
 12 49  1  0
 13 50  1  0
 14 51  1  0
 17 52  1  0
 17 53  1  0
 17 54  1  0
 20 55  1  0
 21 56  1  0
 25 57  1  0
 25 58  1  0
 26 59  1  0
 26 60  1  0
 26 61  1  0
 27 62  1  0
 27 63  1  0
 28 64  1  0
 28 65  1  0
 28 66  1  0
 29 67  1  0
 30 68  1  0
 31 69  1  0
M  CHG  1  16   1
M  END
>  <UniqueID>  (16) 
16

>  <SMILES>  (16) 
CCN(CC)CCNc1c2ccccc2[n+](C)c2c1ccc1c(N(CC)CC)cccc12

>  <Energy>  (16) 
108.66035187547813

>  <Genealogy>  (16) 
CCN(CC)CCNc1c2ccccc2[n+](C)c2c1ccc1c(N(CC)CC)cccc12 (3D coordinates assigned)
CCN(CC)CCNc1c2ccccc2[n+](C)c2c1ccc1c(N(CC)CC)cccc12 (optimized conformer: 108.66035187547813 kcal/mol)

>  <smiles>  (16) 
CCN(CC)CCNc1c2ccccc2[n+](C)c2c1ccc1c(N(CC)CC)cccc12

>  <score_type>  (16) 
oracle

>  <origin>  (16) 
adg

>  <m_score__min__energy>  (16) 
-9.2599999999999998

>  <m_primary>  (16) 
energy

$$$$
16:0
     RDKit          3D

 38 39  0  0  0  0  0  0  0  0999 V2000
   -1.3920   26.4370  -26.5400 C   0  0  0  0  0  0  0  0  0  0  0  0
   -0.8690   26.7710  -27.9320 C   0  0  0  0  0  0  0  0  0  0  0  0
   -1.5900   26.0480  -28.9310 O   0  0  0  0  0  0  0  0  0  0  0  0
   -1.8050   24.6590  -28.9470 C   0  0  0  0  0  0  0  0  0  0  0  0
   -1.0100   23.7630  -28.2080 C   0  0  0  0  0  0  0  0  0  0  0  0
   -1.2510   22.3830  -28.2540 C   0  0  0  0  0  0  0  0  0  0  0  0
   -2.3230   21.8900  -29.0210 C   0  0  0  0  0  0  0  0  0  0  0  0
   -3.1070   22.7790  -29.7680 C   0  0  0  0  0  0  0  0  0  0  0  0
   -2.8610   24.1650  -29.7270 C   0  0  0  0  0  0  0  0  0  0  0  0
   -3.6330   25.0890  -30.4540 O   0  0  0  0  0  0  0  0  0  0  0  0
   -5.0050   24.9310  -30.8140 C   0  0  0  0  0  0  0  0  0  0  0  0
   -5.9170   25.2900  -29.6440 C   0  0  0  0  0  0  0  0  0  0  0  0
   -2.5760   20.4040  -29.1370 C   0  0  0  0  0  0  0  0  0  0  0  0
   -2.0050   19.6310  -28.0170 N   0  0  0  0  0  0  0  0  0  0  0  0
   -2.8250   19.7360  -26.7980 C   0  0  0  0  0  0  0  0  0  0  0  0
   -0.5910   19.9870  -27.7840 C   0  0  0  0  0  0  0  0  0  0  0  0
   -0.4130   21.4650  -27.4020 C   0  0  0  0  0  0  0  0  0  0  0  0
   -0.7195   26.8665  -25.7828 H   0  0  0  0  0  0  0  0  0  0  0  0
   -2.4004   26.8587  -26.4162 H   0  0  0  0  0  0  0  0  0  0  0  0
   -1.4336   25.3448  -26.4162 H   0  0  0  0  0  0  0  0  0  0  0  0
   -0.9863   27.8498  -28.1122 H   0  0  0  0  0  0  0  0  0  0  0  0
    0.1922   26.4870  -27.9878 H   0  0  0  0  0  0  0  0  0  0  0  0
   -0.1893   24.1506  -27.5866 H   0  0  0  0  0  0  0  0  0  0  0  0
   -3.9239   22.3900  -30.3936 H   0  0  0  0  0  0  0  0  0  0  0  0
   -5.2329   25.5903  -31.6645 H   0  0  0  0  0  0  0  0  0  0  0  0
   -5.1791   23.8798  -31.0872 H   0  0  0  0  0  0  0  0  0  0  0  0
   -5.3963   25.0850  -28.6969 H   0  0  0  0  0  0  0  0  0  0  0  0
   -6.1770   26.3576  -29.6959 H   0  0  0  0  0  0  0  0  0  0  0  0
   -6.8349   24.6861  -29.6959 H   0  0  0  0  0  0  0  0  0  0  0  0
   -3.6626   20.2346  -29.1614 H   0  0  0  0  0  0  0  0  0  0  0  0
   -2.0848   20.0583  -30.0586 H   0  0  0  0  0  0  0  0  0  0  0  0
   -2.1778   19.6531  -25.9124 H   0  0  0  0  0  0  0  0  0  0  0  0
   -3.3407   20.7075  -26.7856 H   0  0  0  0  0  0  0  0  0  0  0  0
   -3.5689   18.9258  -26.7856 H   0  0  0  0  0  0  0  0  0  0  0  0
   -0.1994   19.3618  -26.9680 H   0  0  0  0  0  0  0  0  0  0  0  0
   -0.0434   19.8154  -28.7225 H   0  0  0  0  0  0  0  0  0  0  0  0
   -0.7047   21.5955  -26.3495 H   0  0  0  0  0  0  0  0  0  0  0  0
    0.6428   21.7284  -27.5630 H   0  0  0  0  0  0  0  0  0  0  0  0
  1  2  1  0
  2  3  1  0
  3  4  1  0
  4  5  2  0
  5  6  1  0
  6  7  2  0
  7  8  1  0
  8  9  2  0
  9 10  1  0
 10 11  1  0
 11 12  1  0
  7 13  1  0
 13 14  1  0
 14 15  1  0
 14 16  1  0
 16 17  1  0
  9  4  1  0
 17  6  1  0
  1 18  1  0
  1 19  1  0
  1 20  1  0
  2 21  1  0
  2 22  1  0
  5 23  1  0
  8 24  1  0
 11 25  1  0
 11 26  1  0
 12 27  1  0
 12 28  1  0
 12 29  1  0
 13 30  1  0
 13 31  1  0
 15 32  1  0
 15 33  1  0
 15 34  1  0
 16 35  1  0
 16 36  1  0
 17 37  1  0
 17 38  1  0
M  END
>  <UniqueID>  (17) 
17

>  <SMILES>  (17) 
CCOc1cc2c(cc1OCC)CN(C)CC2

>  <Energy>  (17) 
38.04391135260968

>  <Genealogy>  (17) 
CCOc1cc2c(cc1OCC)CN(C)CC2 (3D coordinates assigned)
CCOc1cc2c(cc1OCC)CN(C)CC2 (nonaromatic ring conformer: 38.04391135260968 kcal/mol)

>  <smiles>  (17) 
CCOc1cc2c(cc1OCC)CN(C)CC2

>  <score_type>  (17) 
oracle

>  <origin>  (17) 
adg

>  <m_score__min__energy>  (17) 
-6.6100000000000003

>  <m_primary>  (17) 
energy

$$$$
17:0
     RDKit          3D

 66 69  0  0  0  0  0  0  0  0999 V2000
   -3.2970   22.1930  -28.1180 C   0  0  0  0  0  0  0  0  0  0  0  0
   -3.0270   20.6990  -28.2740 C   0  0  0  0  0  0  0  0  0  0  0  0
   -1.7570   20.3360  -27.6050 N   0  0  0  0  0  0  0  0  0  0  0  0
   -2.0000   19.5960  -26.3450 C   0  0  0  0  0  0  0  0  0  0  0  0
   -3.3610   18.9010  -26.3400 C   0  0  0  0  0  0  0  0  0  0  0  0
   -0.8060   19.6690  -28.5300 C   0  0  0  0  0  0  0  0  0  0  0  0
   -0.1540   20.6130  -29.5540 C   0  0  0  0  0  0  0  0  0  0  0  0
   -1.1390   21.0430  -30.4710 O   0  0  0  0  0  0  0  0  0  0  0  0
   -1.0630   20.2990  -31.6720 C   0  0  0  0  0  0  0  0  0  0  0  0
   -1.9380   20.9570  -32.7530 C   0  0  0  0  0  0  0  0  0  0  0  0
   -2.8810   21.9340  -32.1910 N   0  0  0  0  0  0  0  0  0  0  0  0
   -4.1710   21.9390  -32.9000 C   0  0  0  0  0  0  0  0  0  0  0  0
   -5.3470   21.9320  -31.9320 C   0  0  0  0  0  0  0  0  0  0  0  0
   -5.5770   23.0970  -31.1470 C   0  0  0  0  0  0  0  0  0  0  0  0
   -4.5650   24.0530  -30.8900 C   0  0  0  0  0  0  0  0  0  0  0  0
   -4.8320   25.1890  -30.1230 C   0  0  0  0  0  0  0  0  0  0  0  0
   -6.1090   25.4040  -29.6090 C   0  0  0  0  0  0  0  0  0  0  0  0
   -7.1260   24.4870  -29.8660 C   0  0  0  0  0  0  0  0  0  0  0  0
   -6.8720   23.3350  -30.6310 C   0  0  0  0  0  0  0  0  0  0  0  0
   -7.8890   22.4850  -30.9240 N   0  0  0  0  0  0  0  0  0  0  0  0
   -7.6880   21.3290  -31.6130 C   0  0  0  0  0  0  0  0  0  0  0  0
   -8.7890   20.5200  -31.9140 C   0  0  0  0  0  0  0  0  0  0  0  0
   -8.6190   19.3120  -32.5740 C   0  0  0  0  0  0  0  0  0  0  0  0
   -7.3380   18.8250  -32.8420 C   0  0  0  0  0  0  0  0  0  0  0  0
   -6.1960   19.6000  -32.4940 C   0  0  0  0  0  0  0  0  0  0  0  0
   -6.3820   20.9460  -32.0250 C   0  0  0  0  0  0  0  0  0  0  0  0
   -4.8380   18.9130  -32.4250 C   0  0  0  0  0  0  0  0  0  0  0  0
   -4.9290   17.3860  -32.4290 C   0  0  0  0  0  0  0  0  0  0  0  0
   -5.8040   16.9320  -33.5890 C   0  0  0  0  0  0  0  0  0  0  0  0
   -7.2390   17.4110  -33.3800 C   0  0  0  0  0  0  0  0  0  0  0  0
   -3.3430   22.4476  -27.0489 H   0  0  0  0  0  0  0  0  0  0  0  0
   -2.4875   22.7638  -28.5964 H   0  0  0  0  0  0  0  0  0  0  0  0
   -4.2551   22.4444  -28.5964 H   0  0  0  0  0  0  0  0  0  0  0  0
   -3.8523   20.1313  -27.8194 H   0  0  0  0  0  0  0  0  0  0  0  0
   -2.9502   20.4581  -29.3446 H   0  0  0  0  0  0  0  0  0  0  0  0
   -1.2136   18.8368  -26.2222 H   0  0  0  0  0  0  0  0  0  0  0  0
   -1.9870   20.3214  -25.5182 H   0  0  0  0  0  0  0  0  0  0  0  0
   -3.6845   18.7358  -25.3017 H   0  0  0  0  0  0  0  0  0  0  0  0
   -4.0975   19.5334  -26.8573 H   0  0  0  0  0  0  0  0  0  0  0  0
   -3.2806   17.9336  -26.8573 H   0  0  0  0  0  0  0  0  0  0  0  0
   -0.0081   19.2071  -27.9300 H   0  0  0  0  0  0  0  0  0  0  0  0
   -1.3880   18.9335  -29.1047 H   0  0  0  0  0  0  0  0  0  0  0  0
    0.2723   21.4838  -29.0345 H   0  0  0  0  0  0  0  0  0  0  0  0
    0.6490   20.0852  -30.0894 H   0  0  0  0  0  0  0  0  0  0  0  0
   -0.0188   20.2688  -32.0167 H   0  0  0  0  0  0  0  0  0  0  0  0
   -1.4239   19.2764  -31.4875 H   0  0  0  0  0  0  0  0  0  0  0  0
   -1.2838   21.4708  -33.4728 H   0  0  0  0  0  0  0  0  0  0  0  0
   -2.5257   20.1637  -33.2381 H   0  0  0  0  0  0  0  0  0  0  0  0
   -3.0090   21.7570  -31.1720 H   0  0  0  0  0  0  0  0  0  0  0  0
   -4.2301   22.8416  -33.5259 H   0  0  0  0  0  0  0  0  0  0  0  0
   -4.2277   21.0283  -33.5144 H   0  0  0  0  0  0  0  0  0  0  0  0
   -3.5558   23.8991  -31.2996 H   0  0  0  0  0  0  0  0  0  0  0  0
   -4.0314   25.9166  -29.9240 H   0  0  0  0  0  0  0  0  0  0  0  0
   -6.3142   26.2972  -29.0006 H   0  0  0  0  0  0  0  0  0  0  0  0
   -8.1355   24.6657  -29.4673 H   0  0  0  0  0  0  0  0  0  0  0  0
   -8.8550   22.7190  -30.5930 H   0  0  0  0  0  0  0  0  0  0  0  0
   -9.7992   20.8451  -31.6244 H   0  0  0  0  0  0  0  0  0  0  0  0
   -9.4999   18.7332  -32.8887 H   0  0  0  0  0  0  0  0  0  0  0  0
   -4.2427   19.2291  -33.2943 H   0  0  0  0  0  0  0  0  0  0  0  0
   -4.3727   19.2082  -31.4730 H   0  0  0  0  0  0  0  0  0  0  0  0
   -3.9214   16.9591  -32.5410 H   0  0  0  0  0  0  0  0  0  0  0  0
   -5.3699   17.0428  -31.4814 H   0  0  0  0  0  0  0  0  0  0  0  0
   -5.4125   17.3528  -34.5269 H   0  0  0  0  0  0  0  0  0  0  0  0
   -5.7941   15.8332  -33.6401 H   0  0  0  0  0  0  0  0  0  0  0  0
   -7.7630   17.3698  -34.3463 H   0  0  0  0  0  0  0  0  0  0  0  0
   -7.6923   16.7487  -32.6278 H   0  0  0  0  0  0  0  0  0  0  0  0
  1  2  1  0
  2  3  1  0
  3  4  1  0
  4  5  1  0
  3  6  1  0
  6  7  1  0
  7  8  1  0
  8  9  1  0
  9 10  1  0
 10 11  1  0
 11 12  1  0
 12 13  1  0
 13 14  2  0
 14 15  1  0
 15 16  2  0
 16 17  1  0
 17 18  2  0
 18 19  1  0
 19 20  2  0
 20 21  1  0
 21 22  2  0
 22 23  1  0
 23 24  2  0
 24 25  1  0
 25 26  2  0
 25 27  1  0
 27 28  1  0
 28 29  1  0
 29 30  1  0
 26 13  1  0
 19 14  1  0
 26 21  1  0
 30 24  1  0
  1 31  1  0
  1 32  1  0
  1 33  1  0
  2 34  1  0
  2 35  1  0
  4 36  1  0
  4 37  1  0
  5 38  1  0
  5 39  1  0
  5 40  1  0
  6 41  1  0
  6 42  1  0
  7 43  1  0
  7 44  1  0
  9 45  1  0
  9 46  1  0
 10 47  1  0
 10 48  1  0
 11 49  1  0
 12 50  1  0
 12 51  1  0
 15 52  1  0
 16 53  1  0
 17 54  1  0
 18 55  1  0
 20 56  1  0
 22 57  1  0
 23 58  1  0
 27 59  1  0
 27 60  1  0
 28 61  1  0
 28 62  1  0
 29 63  1  0
 29 64  1  0
 30 65  1  0
 30 66  1  0
M  CHG  1  20   1
M  END
>  <UniqueID>  (18) 
18

>  <SMILES>  (18) 
CCN(CC)CCOCCNCc1c2ccccc2[nH+]c2ccc3c(c12)CCCC3

>  <Energy>  (18) 
99.04984033949756

>  <Genealogy>  (18) 
CCN(CC)CCOCCNCc1c2ccccc2[nH+]c2ccc3c(c12)CCCC3 (protonated)
CCN(CC)CCOCCNCc1c2ccccc2[nH+]c2ccc3c(c12)CCCC3 (3D coordinates assigned)
CCN(CC)CCOCCNCc1c2ccccc2[nH+]c2ccc3c(c12)CCCC3 (nonaromatic ring conformer: 99.04984033949756 kcal/mol)

>  <smiles>  (18) 
CCN(CC)CCOCCNCc1c2ccccc2nc2ccc3c(c12)CCCC3

>  <score_type>  (18) 
oracle

>  <origin>  (18) 
adg

>  <m_score__min__energy>  (18) 
-9.0700000000000003

>  <m_primary>  (18) 
energy

$$$$
18:0
     RDKit          3D

 55 57  0  0  0  0  0  0  0  0999 V2000
   -2.7850   19.0630  -26.5720 C   0  0  0  0  0  0  0  0  0  0  0  0
   -2.2150   20.3730  -27.1290 C   0  0  0  0  0  0  0  0  0  0  0  0
   -0.8490   20.1980  -27.6940 N   0  0  0  0  0  0  0  0  0  0  0  0
   -0.3710   18.8060  -27.4670 C   0  0  0  0  0  0  0  0  0  0  0  0
    0.3000   18.2150  -28.7120 C   0  0  0  0  0  0  0  0  0  0  0  0
    0.0970   21.1720  -27.0830 C   0  0  0  0  0  0  0  0  0  0  0  0
    0.1180   22.5060  -27.8480 C   0  0  0  0  0  0  0  0  0  0  0  0
   -0.0900   22.2890  -29.2440 O   0  0  0  0  0  0  0  0  0  0  0  0
   -1.3340   22.3250  -29.8990 C   0  0  0  0  0  0  0  0  0  0  0  0
   -1.7080   21.2110  -30.6610 C   0  0  0  0  0  0  0  0  0  0  0  0
   -2.9220   21.1960  -31.3560 C   0  0  0  0  0  0  0  0  0  0  0  0
   -3.7750   22.3040  -31.2980 C   0  0  0  0  0  0  0  0  0  0  0  0
   -4.9860   22.3330  -31.9940 C   0  0  0  0  0  0  0  0  0  0  0  0
   -5.8060   23.4640  -31.9120 C   0  0  0  0  0  0  0  0  0  0  0  0
   -7.1360   23.4890  -32.6320 C   0  0  0  0  0  0  0  0  0  0  0  0
   -8.2240   22.7440  -31.8490 C   0  0  0  0  0  0  0  0  0  0  0  0
   -8.0970   21.2500  -32.0000 C   0  0  0  0  0  0  0  0  0  0  0  0
   -7.2590   20.7030  -32.9840 C   0  0  0  0  0  0  0  0  0  0  0  0
   -7.1780   19.3160  -33.1490 C   0  0  0  0  0  0  0  0  0  0  0  0
   -7.9350   18.4670  -32.3380 C   0  0  0  0  0  0  0  0  0  0  0  0
   -8.7770   19.0030  -31.3620 C   0  0  0  0  0  0  0  0  0  0  0  0
   -8.8620   20.3890  -31.1940 C   0  0  0  0  0  0  0  0  0  0  0  0
   -5.3850   24.5370  -31.1030 C   0  0  0  0  0  0  0  0  0  0  0  0
   -6.1010   25.5640  -30.9810 O   0  0  0  0  0  0  0  0  0  0  0  0
   -4.2240   24.4780  -30.4560 O   0  0  0  0  0  0  0  0  0  0  0  0
   -3.4150   23.4250  -30.5250 C   0  0  0  0  0  0  0  0  0  0  0  0
   -2.2020   23.4330  -29.8280 C   0  0  0  0  0  0  0  0  0  0  0  0
   -2.7710   19.0952  -25.4726 H   0  0  0  0  0  0  0  0  0  0  0  0
   -3.8200   18.9354  -26.9219 H   0  0  0  0  0  0  0  0  0  0  0  0
   -2.1729   18.2187  -26.9219 H   0  0  0  0  0  0  0  0  0  0  0  0
   -2.8821   20.7401  -27.9229 H   0  0  0  0  0  0  0  0  0  0  0  0
   -2.1469   21.0911  -26.2985 H   0  0  0  0  0  0  0  0  0  0  0  0
   -0.8890   20.3720  -28.7280 H   0  0  0  0  0  0  0  0  0  0  0  0
    0.3558   18.8110  -26.6413 H   0  0  0  0  0  0  0  0  0  0  0  0
   -1.2453   18.1833  -27.2263 H   0  0  0  0  0  0  0  0  0  0  0  0
    1.0926   17.5169  -28.4048 H   0  0  0  0  0  0  0  0  0  0  0  0
   -0.4492   17.6780  -29.3123 H   0  0  0  0  0  0  0  0  0  0  0  0
    0.7381   19.0260  -29.3123 H   0  0  0  0  0  0  0  0  0  0  0  0
   -0.2100   21.3624  -26.0440 H   0  0  0  0  0  0  0  0  0  0  0  0
    1.1072   20.7387  -27.1242 H   0  0  0  0  0  0  0  0  0  0  0  0
   -0.6795   23.1572  -27.4608 H   0  0  0  0  0  0  0  0  0  0  0  0
    1.1001   22.9806  -27.7057 H   0  0  0  0  0  0  0  0  0  0  0  0
   -1.0401   20.3386  -30.7136 H   0  0  0  0  0  0  0  0  0  0  0  0
   -3.2061   20.3135  -31.9480 H   0  0  0  0  0  0  0  0  0  0  0  0
   -5.2936   21.4707  -32.6037 H   0  0  0  0  0  0  0  0  0  0  0  0
   -7.4479   24.5352  -32.7666 H   0  0  0  0  0  0  0  0  0  0  0  0
   -7.0084   22.9855  -33.6016 H   0  0  0  0  0  0  0  0  0  0  0  0
   -8.1368   23.0031  -30.7835 H   0  0  0  0  0  0  0  0  0  0  0  0
   -9.2025   23.0467  -32.2501 H   0  0  0  0  0  0  0  0  0  0  0  0
   -6.6637   21.3672  -33.6279 H   0  0  0  0  0  0  0  0  0  0  0  0
   -6.5165   18.8929  -33.9193 H   0  0  0  0  0  0  0  0  0  0  0  0
   -7.8676   17.3768  -32.4684 H   0  0  0  0  0  0  0  0  0  0  0  0
   -9.3743   18.3346  -30.7244 H   0  0  0  0  0  0  0  0  0  0  0  0
   -9.5308   20.8073  -30.4274 H   0  0  0  0  0  0  0  0  0  0  0  0
   -1.9245   24.3080  -29.2219 H   0  0  0  0  0  0  0  0  0  0  0  0
  1  2  1  0
  2  3  1  0
  3  4  1  0
  4  5  1  0
  3  6  1  0
  6  7  1  0
  7  8  1  0
  8  9  1  0
  9 10  2  0
 10 11  1  0
 11 12  2  0
 12 13  1  0
 13 14  2  0
 14 15  1  0
 15 16  1  0
 16 17  1  0
 17 18  2  0
 18 19  1  0
 19 20  2  0
 20 21  1  0
 21 22  2  0
 14 23  1  0
 23 24  2  0
 23 25  1  0
 25 26  1  0
 26 27  2  0
 27  9  1  0
 26 12  1  0
 22 17  1  0
  1 28  1  0
  1 29  1  0
  1 30  1  0
  2 31  1  0
  2 32  1  0
  3 33  1  0
  4 34  1  0
  4 35  1  0
  5 36  1  0
  5 37  1  0
  5 38  1  0
  6 39  1  0
  6 40  1  0
  7 41  1  0
  7 42  1  0
 10 43  1  0
 11 44  1  0
 13 45  1  0
 15 46  1  0
 15 47  1  0
 16 48  1  0
 16 49  1  0
 18 50  1  0
 19 51  1  0
 20 52  1  0
 21 53  1  0
 22 54  1  0
 27 55  1  0
M  CHG  1   3   1
M  END
>  <UniqueID>  (19) 
19

>  <SMILES>  (19) 
CC[NH+](CC)CCOc1ccc2cc(CCc3ccccc3)c(=O)oc2c1

>  <Energy>  (19) 
58.36766039175449

>  <Genealogy>  (19) 
CC[NH+](CC)CCOc1ccc2cc(CCc3ccccc3)c(=O)oc2c1 (protonated)
CC[NH+](CC)CCOc1ccc2cc(CCc3ccccc3)c(=O)oc2c1 (3D coordinates assigned)
CC[NH+](CC)CCOc1ccc2cc(CCc3ccccc3)c(=O)oc2c1 (optimized conformer: 58.36766039175449 kcal/mol)

>  <smiles>  (19) 
CCN(CC)CCOc1ccc2cc(CCc3ccccc3)c(=O)oc2c1

>  <score_type>  (19) 
oracle

>  <origin>  (19) 
adg

>  <m_score__min__energy>  (19) 
-9.9199999999999999

>  <m_primary>  (19) 
energy

$$$$
19:0
     RDKit          3D

 58 60  0  0  0  0  0  0  0  0999 V2000
   -9.5590   20.4130  -32.3110 C   0  0  0  0  0  0  0  0  0  0  0  0
   -8.1840   19.9610  -32.5890 N   0  0  0  0  0  0  0  0  0  0  0  0
   -7.2510   21.0900  -32.4040 C   0  0  0  0  0  0  0  0  0  0  0  0
   -7.8390   18.8190  -31.7050 C   0  0  0  0  0  0  0  0  0  0  0  0
   -6.8430   17.8330  -32.3490 C   0  0  0  0  0  0  0  0  0  0  0  0
   -6.8430   17.9310  -33.8170 N   0  0  0  0  0  0  0  0  0  0  0  0
   -5.9000   18.9450  -34.3230 C   0  0  0  0  0  0  0  0  0  0  0  0
   -4.4690   18.4200  -34.1930 C   0  0  0  0  0  0  0  0  0  0  0  0
   -3.6090   19.3910  -33.4320 C   0  0  0  0  0  0  0  0  0  0  0  0
   -3.9410   20.7550  -33.3880 C   0  0  0  0  0  0  0  0  0  0  0  0
   -3.1480   21.6520  -32.6660 C   0  0  0  0  0  0  0  0  0  0  0  0
   -2.0240   21.1920  -31.9570 C   0  0  0  0  0  0  0  0  0  0  0  0
   -1.1880   22.0600  -31.2400 O   0  0  0  0  0  0  0  0  0  0  0  0
   -1.5370   22.7590  -30.0750 C   0  0  0  0  0  0  0  0  0  0  0  0
   -2.8630   23.1730  -29.9140 C   0  0  0  0  0  0  0  0  0  0  0  0
   -3.2490   23.8930  -28.7810 C   0  0  0  0  0  0  0  0  0  0  0  0
   -2.3090   24.2130  -27.7850 C   0  0  0  0  0  0  0  0  0  0  0  0
   -2.7000   25.0070  -26.5940 C   0  0  0  0  0  0  0  0  0  0  0  0
   -3.9110   25.0160  -26.2390 O   0  0  0  0  0  0  0  0  0  0  0  0
   -1.7180   25.7860  -25.8010 C   0  0  0  0  0  0  0  0  0  0  0  0
   -1.2260   25.2970  -24.5770 C   0  0  0  0  0  0  0  0  0  0  0  0
   -0.2950   26.0380  -23.8430 C   0  0  0  0  0  0  0  0  0  0  0  0
    0.1620   27.2680  -24.3260 C   0  0  0  0  0  0  0  0  0  0  0  0
    1.4310   28.2810  -23.3200 Br  0  0  0  0  0  0  0  0  0  0  0  0
   -0.3090   27.7540  -25.5490 C   0  0  0  0  0  0  0  0  0  0  0  0
   -1.2380   27.0150  -26.2870 C   0  0  0  0  0  0  0  0  0  0  0  0
   -0.9700   23.8220  -27.9620 C   0  0  0  0  0  0  0  0  0  0  0  0
   -0.5870   23.1020  -29.0970 C   0  0  0  0  0  0  0  0  0  0  0  0
   -1.6940   19.8330  -32.0040 C   0  0  0  0  0  0  0  0  0  0  0  0
   -2.4850   18.9350  -32.7270 C   0  0  0  0  0  0  0  0  0  0  0  0
   -9.7152   20.4644  -31.2234 H   0  0  0  0  0  0  0  0  0  0  0  0
   -9.7135   21.4092  -32.7511 H   0  0  0  0  0  0  0  0  0  0  0  0
  -10.2745   19.7028  -32.7511 H   0  0  0  0  0  0  0  0  0  0  0  0
   -8.1460   19.6650  -33.5920 H   0  0  0  0  0  0  0  0  0  0  0  0
   -7.1021   21.2702  -31.3291 H   0  0  0  0  0  0  0  0  0  0  0  0
   -6.2855   20.8484  -32.8725 H   0  0  0  0  0  0  0  0  0  0  0  0
   -7.6702   21.9926  -32.8725 H   0  0  0  0  0  0  0  0  0  0  0  0
   -7.3919   19.2144  -30.7810 H   0  0  0  0  0  0  0  0  0  0  0  0
   -8.7684   18.2643  -31.5090 H   0  0  0  0  0  0  0  0  0  0  0  0
   -5.8318   18.0563  -31.9780 H   0  0  0  0  0  0  0  0  0  0  0  0
   -7.1501   16.8126  -32.0762 H   0  0  0  0  0  0  0  0  0  0  0  0
   -7.8100   18.2040  -34.1140 H   0  0  0  0  0  0  0  0  0  0  0  0
   -6.1192   19.1544  -35.3804 H   0  0  0  0  0  0  0  0  0  0  0  0
   -6.0062   19.8696  -33.7367 H   0  0  0  0  0  0  0  0  0  0  0  0
   -4.4852   17.4582  -33.6595 H   0  0  0  0  0  0  0  0  0  0  0  0
   -4.0481   18.2926  -35.2013 H   0  0  0  0  0  0  0  0  0  0  0  0
   -4.8295   21.1194  -33.9244 H   0  0  0  0  0  0  0  0  0  0  0  0
   -3.4043   22.7216  -32.6525 H   0  0  0  0  0  0  0  0  0  0  0  0
   -3.6081   22.9297  -30.6858 H   0  0  0  0  0  0  0  0  0  0  0  0
   -4.2955   24.2120  -28.6670 H   0  0  0  0  0  0  0  0  0  0  0  0
   -1.5757   24.3264  -24.1954 H   0  0  0  0  0  0  0  0  0  0  0  0
    0.0789   25.6524  -22.8831 H   0  0  0  0  0  0  0  0  0  0  0  0
    0.0522   28.7201  -25.9315 H   0  0  0  0  0  0  0  0  0  0  0  0
   -1.5959   27.3974  -27.2543 H   0  0  0  0  0  0  0  0  0  0  0  0
   -0.2191   24.0845  -27.2022 H   0  0  0  0  0  0  0  0  0  0  0  0
    0.4634   22.8020  -29.2258 H   0  0  0  0  0  0  0  0  0  0  0  0
   -0.8054   19.4683  -31.4680 H   0  0  0  0  0  0  0  0  0  0  0  0
   -2.2249   17.8663  -32.7431 H   0  0  0  0  0  0  0  0  0  0  0  0
  1  2  1  0
  2  3  1  0
  2  4  1  0
  4  5  1  0
  5  6  1  0
  6  7  1  0
  7  8  1  0
  8  9  1  0
  9 10  2  0
 10 11  1  0
 11 12  2  0
 12 13  1  0
 13 14  1  0
 14 15  2  0
 15 16  1  0
 16 17  2  0
 17 18  1  0
 18 19  2  0
 18 20  1  0
 20 21  2  0
 21 22  1  0
 22 23  2  0
 23 24  1  0
 23 25  1  0
 25 26  2  0
 17 27  1  0
 27 28  2  0
 12 29  1  0
 29 30  2  0
 30  9  1  0
 28 14  1  0
 26 20  1  0
  1 31  1  0
  1 32  1  0
  1 33  1  0
  2 34  1  0
  3 35  1  0
  3 36  1  0
  3 37  1  0
  4 38  1  0
  4 39  1  0
  5 40  1  0
  5 41  1  0
  6 42  1  0
  7 43  1  0
  7 44  1  0
  8 45  1  0
  8 46  1  0
 10 47  1  0
 11 48  1  0
 15 49  1  0
 16 50  1  0
 21 51  1  0
 22 52  1  0
 25 53  1  0
 26 54  1  0
 27 55  1  0
 28 56  1  0
 29 57  1  0
 30 58  1  0
M  CHG  1   2   1
M  END
>  <UniqueID>  (20) 
20

>  <SMILES>  (20) 
C[NH+](C)CCNCCc1ccc(Oc2ccc(C(=O)c3ccc(Br)cc3)cc2)cc1

>  <Energy>  (20) 
70.57020651542346

>  <Genealogy>  (20) 
C[NH+](C)CCNCCc1ccc(Oc2ccc(C(=O)c3ccc(Br)cc3)cc2)cc1 (protonated)
C[NH+](C)CCNCCc1ccc(Oc2ccc(C(=O)c3ccc(Br)cc3)cc2)cc1 (3D coordinates assigned)
C[NH+](C)CCNCCc1ccc(Oc2ccc(C(=O)c3ccc(Br)cc3)cc2)cc1 (optimized conformer: 70.57020651542346 kcal/mol)

>  <smiles>  (20) 
CN(C)CCNCCc1ccc(Oc2ccc(C(=O)c3ccc(Br)cc3)cc2)cc1

>  <score_type>  (20) 
oracle

>  <origin>  (20) 
adg

>  <m_score__min__energy>  (20) 
-10.960000000000001

>  <m_primary>  (20) 
energy

$$$$
20:0
     RDKit          3D

 54 57  0  0  0  0  0  0  0  0999 V2000
   -3.6140   23.0020  -29.5560 C   0  0  0  0  0  0  0  0  0  0  0  0
   -3.5200   24.4940  -29.8910 C   0  0  0  0  0  0  0  0  0  0  0  0
   -4.4050   24.8730  -31.0070 N   0  0  0  0  0  0  0  0  0  0  0  0
   -5.7420   25.2970  -30.5570 C   0  0  0  0  0  0  0  0  0  0  0  0
   -6.5860   24.0890  -30.1320 C   0  0  0  0  0  0  0  0  0  0  0  0
   -7.2870   23.4220  -31.3390 C   0  0  0  0  0  0  0  0  0  0  0  0
   -6.4000   23.0450  -32.4720 N   0  0  0  0  0  0  0  0  0  0  0  0
   -6.1270   21.6210  -32.6120 C   0  0  0  0  0  0  0  0  0  0  0  0
   -4.8020   21.1500  -32.8210 C   0  0  0  0  0  0  0  0  0  0  0  0
   -4.5820   19.7790  -33.1110 C   0  0  0  0  0  0  0  0  0  0  0  0
   -5.6680   18.9460  -33.3110 N   0  0  0  0  0  0  0  0  0  0  0  0
   -5.5290   17.6980  -34.0890 C   0  0  0  0  0  0  0  0  0  0  0  0
   -6.9130   19.3170  -32.8490 C   0  0  0  0  0  0  0  0  0  0  0  0
   -7.9530   18.3670  -32.6920 C   0  0  0  0  0  0  0  0  0  0  0  0
   -9.2220   18.7530  -32.2660 C   0  0  0  0  0  0  0  0  0  0  0  0
   -9.4840   20.0850  -31.9800 C   0  0  0  0  0  0  0  0  0  0  0  0
   -8.4750   21.0370  -32.0960 C   0  0  0  0  0  0  0  0  0  0  0  0
   -7.1730   20.6720  -32.5140 C   0  0  0  0  0  0  0  0  0  0  0  0
   -3.1570   19.2770  -33.1370 C   0  0  0  0  0  0  0  0  0  0  0  0
   -2.8620   17.9850  -33.4610 N   0  0  0  0  0  0  0  0  0  0  0  0
   -1.5960   17.4940  -33.4630 C   0  0  0  0  0  0  0  0  0  0  0  0
   -0.5310   18.3130  -33.1030 C   0  0  0  0  0  0  0  0  0  0  0  0
   -0.7870   19.6310  -32.7290 C   0  0  0  0  0  0  0  0  0  0  0  0
   -2.0980   20.1250  -32.7440 C   0  0  0  0  0  0  0  0  0  0  0  0
   -2.3810   21.4910  -32.2020 C   0  0  0  0  0  0  0  0  0  0  0  0
   -3.6130   22.0990  -32.8630 C   0  0  0  0  0  0  0  0  0  0  0  0
   -3.6222   22.8712  -28.4638 H   0  0  0  0  0  0  0  0  0  0  0  0
   -4.5400   22.5882  -29.9818 H   0  0  0  0  0  0  0  0  0  0  0  0
   -2.7473   22.4753  -29.9818 H   0  0  0  0  0  0  0  0  0  0  0  0
   -3.8040   25.0750  -29.0012 H   0  0  0  0  0  0  0  0  0  0  0  0
   -2.4845   24.7062  -30.1954 H   0  0  0  0  0  0  0  0  0  0  0  0
   -3.9670   25.6490  -31.5580 H   0  0  0  0  0  0  0  0  0  0  0  0
   -5.6341   25.9797  -29.7013 H   0  0  0  0  0  0  0  0  0  0  0  0
   -6.2491   25.8034  -31.3915 H   0  0  0  0  0  0  0  0  0  0  0  0
   -5.9306   23.3497  -29.6483 H   0  0  0  0  0  0  0  0  0  0  0  0
   -7.3635   24.4431  -29.4391 H   0  0  0  0  0  0  0  0  0  0  0  0
   -7.7829   22.5083  -30.9794 H   0  0  0  0  0  0  0  0  0  0  0  0
   -7.9796   24.1773  -31.7387 H   0  0  0  0  0  0  0  0  0  0  0  0
   -6.8160   23.4030  -33.3610 H   0  0  0  0  0  0  0  0  0  0  0  0
   -5.5100   23.5900  -32.4220 H   0  0  0  0  0  0  0  0  0  0  0  0
   -5.4340   16.8454  -33.4005 H   0  0  0  0  0  0  0  0  0  0  0  0
   -6.4174   17.5602  -34.7229 H   0  0  0  0  0  0  0  0  0  0  0  0
   -4.6321   17.7591  -34.7229 H   0  0  0  0  0  0  0  0  0  0  0  0
   -7.7549   17.3072  -32.9102 H   0  0  0  0  0  0  0  0  0  0  0  0
  -10.0171   18.0008  -32.1563 H   0  0  0  0  0  0  0  0  0  0  0  0
  -10.4916   20.3896  -31.6608 H   0  0  0  0  0  0  0  0  0  0  0  0
   -8.6929   22.0889  -31.8592 H   0  0  0  0  0  0  0  0  0  0  0  0
   -1.4126   16.4479  -33.7495 H   0  0  0  0  0  0  0  0  0  0  0  0
    0.4986   17.9260  -33.1133 H   0  0  0  0  0  0  0  0  0  0  0  0
    0.0423   20.2850  -32.4213 H   0  0  0  0  0  0  0  0  0  0  0  0
   -2.5535   21.4188  -31.1180 H   0  0  0  0  0  0  0  0  0  0  0  0
   -1.5162   22.1370  -32.4135 H   0  0  0  0  0  0  0  0  0  0  0  0
   -3.8790   23.0269  -32.3355 H   0  0  0  0  0  0  0  0  0  0  0  0
   -3.3720   22.2995  -33.9174 H   0  0  0  0  0  0  0  0  0  0  0  0
  1  2  1  0
  2  3  1  0
  3  4  1  0
  4  5  1  0
  5  6  1  0
  6  7  1  0
  7  8  1  0
  8  9  2  0
  9 10  1  0
 10 11  2  0
 11 12  1  0
 11 13  1  0
 13 14  2  0
 14 15  1  0
 15 16  2  0
 16 17  1  0
 17 18  2  0
 10 19  1  0
 19 20  2  0
 20 21  1  0
 21 22  2  0
 22 23  1  0
 23 24  2  0
 24 25  1  0
 25 26  1  0
 18  8  1  0
 24 19  1  0
 26  9  1  0
 18 13  1  0
  1 27  1  0
  1 28  1  0
  1 29  1  0
  2 30  1  0
  2 31  1  0
  3 32  1  0
  4 33  1  0
  4 34  1  0
  5 35  1  0
  5 36  1  0
  6 37  1  0
  6 38  1  0
  7 39  1  0
  7 40  1  0
 12 41  1  0
 12 42  1  0
 12 43  1  0
 14 44  1  0
 15 45  1  0
 16 46  1  0
 17 47  1  0
 21 48  1  0
 22 49  1  0
 23 50  1  0
 25 51  1  0
 25 52  1  0
 26 53  1  0
 26 54  1  0
M  CHG  2   7   1  11   1
M  END
>  <UniqueID>  (21) 
21

>  <SMILES>  (21) 
CCNCCC[NH2+]c1c2c([n+](C)c3ccccc13)-c1ncccc1CC2

>  <Energy>  (21) 
90.96288476931225

>  <Genealogy>  (21) 
CCNCCC[NH2+]c1c2c([n+](C)c3ccccc13)-c1ncccc1CC2 (protonated)
CCNCCC[NH2+]c1c2c([n+](C)c3ccccc13)-c1ncccc1CC2 (3D coordinates assigned)
CCNCCC[NH2+]c1c2c([n+](C)c3ccccc13)-c1ncccc1CC2 (nonaromatic ring conformer: 90.96288476931225 kcal/mol)

>  <smiles>  (21) 
CCNCCCNc1c2c([n+](C)c3ccccc13)-c1ncccc1CC2

>  <score_type>  (21) 
oracle

>  <origin>  (21) 
adg

>  <m_score__min__energy>  (21) 
-8.8000000000000007

>  <m_primary>  (21) 
energy

$$$$
21:0
     RDKit          3D

 75 77  0  0  0  0  0  0  0  0999 V2000
   -2.7220   20.3950  -27.4840 C   0  0  0  0  0  0  0  0  0  0  0  0
   -3.4060   21.7140  -27.8450 C   0  0  0  0  0  0  0  0  0  0  0  0
   -2.9390   22.1910  -29.1700 N   0  0  0  0  0  0  0  0  0  0  0  0
   -1.8580   21.3260  -29.6980 C   0  0  0  0  0  0  0  0  0  0  0  0
   -0.8030   22.1790  -30.3970 C   0  0  0  0  0  0  0  0  0  0  0  0
   -2.5110   23.6070  -29.1100 C   0  0  0  0  0  0  0  0  0  0  0  0
   -3.7250   24.5510  -29.1970 C   0  0  0  0  0  0  0  0  0  0  0  0
   -3.8690   25.1010  -30.4940 O   0  0  0  0  0  0  0  0  0  0  0  0
   -5.2270   25.3860  -30.7660 C   0  0  0  0  0  0  0  0  0  0  0  0
   -5.8220   24.2470  -31.5900 C   0  0  0  0  0  0  0  0  0  0  0  0
   -5.2210   22.9690  -31.2060 N   0  0  0  0  0  0  0  0  0  0  0  0
   -5.5050   21.7670  -31.9480 C   0  0  0  0  0  0  0  0  0  0  0  0
   -6.8180   21.2750  -32.0150 C   0  0  0  0  0  0  0  0  0  0  0  0
   -7.8970   22.0260  -31.5030 C   0  0  0  0  0  0  0  0  0  0  0  0
   -9.2020   21.5510  -31.5920 C   0  0  0  0  0  0  0  0  0  0  0  0
   -9.4550   20.3300  -32.2040 C   0  0  0  0  0  0  0  0  0  0  0  0
   -8.4040   19.5670  -32.7170 C   0  0  0  0  0  0  0  0  0  0  0  0
   -7.0560   20.0030  -32.5990 C   0  0  0  0  0  0  0  0  0  0  0  0
   -5.9950   19.2360  -33.0490 N   0  0  0  0  0  0  0  0  0  0  0  0
   -6.2160   17.8160  -33.4160 C   0  0  0  0  0  0  0  0  0  0  0  0
   -4.7310   19.7970  -33.1570 C   0  0  0  0  0  0  0  0  0  0  0  0
   -3.6700   19.1350  -33.8300 C   0  0  0  0  0  0  0  0  0  0  0  0
   -2.3950   19.7010  -33.9280 C   0  0  0  0  0  0  0  0  0  0  0  0
   -1.3970   18.9660  -34.5850 O   0  0  0  0  0  0  0  0  0  0  0  0
   -0.1740   18.5190  -33.9930 C   0  0  0  0  0  0  0  0  0  0  0  0
    0.8210   19.6980  -33.8930 C   0  0  0  0  0  0  0  0  0  0  0  0
    1.2120   20.3210  -35.1990 N   0  0  0  0  0  0  0  0  0  0  0  0
    1.0840   19.2890  -36.2590 C   0  0  0  0  0  0  0  0  0  0  0  0
    0.3060   21.4460  -35.5470 C   0  0  0  0  0  0  0  0  0  0  0  0
    2.6170   20.7990  -35.1790 C   0  0  0  0  0  0  0  0  0  0  0  0
   -2.1580   20.9600  -33.3580 C   0  0  0  0  0  0  0  0  0  0  0  0
   -3.1820   21.6330  -32.6960 C   0  0  0  0  0  0  0  0  0  0  0  0
   -4.4690   21.0700  -32.5910 C   0  0  0  0  0  0  0  0  0  0  0  0
   -2.6707   20.2961  -26.3897 H   0  0  0  0  0  0  0  0  0  0  0  0
   -3.2989   19.5565  -27.9013 H   0  0  0  0  0  0  0  0  0  0  0  0
   -1.7043   20.3835  -27.9013 H   0  0  0  0  0  0  0  0  0  0  0  0
   -4.4948   21.5610  -27.8776 H   0  0  0  0  0  0  0  0  0  0  0  0
   -3.1537   22.4675  -27.0844 H   0  0  0  0  0  0  0  0  0  0  0  0
   -1.3911   20.7777  -28.8666 H   0  0  0  0  0  0  0  0  0  0  0  0
   -2.2845   20.6146  -30.4205 H   0  0  0  0  0  0  0  0  0  0  0  0
   -0.1802   22.6826  -29.6430 H   0  0  0  0  0  0  0  0  0  0  0  0
   -0.1695   21.5362  -31.0259 H   0  0  0  0  0  0  0  0  0  0  0  0
   -1.2989   22.9330  -31.0259 H   0  0  0  0  0  0  0  0  0  0  0  0
   -1.9839   23.7843  -28.1609 H   0  0  0  0  0  0  0  0  0  0  0  0
   -1.8455   23.8100  -29.9620 H   0  0  0  0  0  0  0  0  0  0  0  0
   -4.6348   23.9857  -28.9465 H   0  0  0  0  0  0  0  0  0  0  0  0
   -3.5675   25.3783  -28.4893 H   0  0  0  0  0  0  0  0  0  0  0  0
   -5.7794   25.4835  -29.8198 H   0  0  0  0  0  0  0  0  0  0  0  0
   -5.3021   26.3283  -31.3285 H   0  0  0  0  0  0  0  0  0  0  0  0
   -6.9074   24.2033  -31.4167 H   0  0  0  0  0  0  0  0  0  0  0  0
   -5.6154   24.4320  -32.6545 H   0  0  0  0  0  0  0  0  0  0  0  0
   -4.5340   22.9380  -30.4190 H   0  0  0  0  0  0  0  0  0  0  0  0
   -7.7044   22.9991  -31.0276 H   0  0  0  0  0  0  0  0  0  0  0  0
  -10.0324   22.1419  -31.1781 H   0  0  0  0  0  0  0  0  0  0  0  0
  -10.4885   19.9622  -32.2850 H   0  0  0  0  0  0  0  0  0  0  0  0
   -8.6225   18.6136  -33.2203 H   0  0  0  0  0  0  0  0  0  0  0  0
   -6.3101   17.2114  -32.5019 H   0  0  0  0  0  0  0  0  0  0  0  0
   -7.1384   17.7299  -34.0091 H   0  0  0  0  0  0  0  0  0  0  0  0
   -5.3634   17.4536  -34.0091 H   0  0  0  0  0  0  0  0  0  0  0  0
   -3.8560   18.1514  -34.2861 H   0  0  0  0  0  0  0  0  0  0  0  0
   -0.3778   18.1267  -32.9857 H   0  0  0  0  0  0  0  0  0  0  0  0
    0.2636   17.7265  -34.6178 H   0  0  0  0  0  0  0  0  0  0  0  0
    0.3611   20.4783  -33.2688 H   0  0  0  0  0  0  0  0  0  0  0  0
    1.7452   19.2798  -33.4677 H   0  0  0  0  0  0  0  0  0  0  0  0
    0.9613   18.2995  -35.7945 H   0  0  0  0  0  0  0  0  0  0  0  0
    0.2066   19.5121  -36.8839 H   0  0  0  0  0  0  0  0  0  0  0  0
    1.9893   19.2910  -36.8839 H   0  0  0  0  0  0  0  0  0  0  0  0
   -0.0699   21.9128  -34.6246 H   0  0  0  0  0  0  0  0  0  0  0  0
    0.8581   22.1924  -36.1370 H   0  0  0  0  0  0  0  0  0  0  0  0
   -0.5409   21.0657  -36.1370 H   0  0  0  0  0  0  0  0  0  0  0  0
    2.9509   20.9126  -34.1371 H   0  0  0  0  0  0  0  0  0  0  0  0
    3.2600   20.0691  -35.6926 H   0  0  0  0  0  0  0  0  0  0  0  0
    2.6814   21.7696  -35.6926 H   0  0  0  0  0  0  0  0  0  0  0  0
   -1.1605   21.4174  -33.4339 H   0  0  0  0  0  0  0  0  0  0  0  0
   -2.9830   22.6181  -32.2488 H   0  0  0  0  0  0  0  0  0  0  0  0
  1  2  1  0
  2  3  1  0
  3  4  1  0
  4  5  1  0
  3  6  1  0
  6  7  1  0
  7  8  1  0
  8  9  1  0
  9 10  1  0
 10 11  1  0
 11 12  1  0
 12 13  2  0
 13 14  1  0
 14 15  2  0
 15 16  1  0
 16 17  2  0
 17 18  1  0
 18 19  2  0
 19 20  1  0
 19 21  1  0
 21 22  2  0
 22 23  1  0
 23 24  1  0
 24 25  1  0
 25 26  1  0
 26 27  1  0
 27 28  1  0
 27 29  1  0
 27 30  1  0
 23 31  2  0
 31 32  1  0
 32 33  2  0
 33 12  1  0
 18 13  1  0
 33 21  1  0
  1 34  1  0
  1 35  1  0
  1 36  1  0
  2 37  1  0
  2 38  1  0
  4 39  1  0
  4 40  1  0
  5 41  1  0
  5 42  1  0
  5 43  1  0
  6 44  1  0
  6 45  1  0
  7 46  1  0
  7 47  1  0
  9 48  1  0
  9 49  1  0
 10 50  1  0
 10 51  1  0
 11 52  1  0
 14 53  1  0
 15 54  1  0
 16 55  1  0
 17 56  1  0
 20 57  1  0
 20 58  1  0
 20 59  1  0
 22 60  1  0
 25 61  1  0
 25 62  1  0
 26 63  1  0
 26 64  1  0
 28 65  1  0
 28 66  1  0
 28 67  1  0
 29 68  1  0
 29 69  1  0
 29 70  1  0
 30 71  1  0
 30 72  1  0
 30 73  1  0
 31 74  1  0
 32 75  1  0
M  CHG  2  19   1  27   1
M  END
>  <UniqueID>  (22) 
22

>  <SMILES>  (22) 
CCN(CC)CCOCCNc1c2ccccc2[n+](C)c2cc(OCC[N+](C)(C)C)ccc12

>  <Energy>  (22) 
103.13216776826911

>  <Genealogy>  (22) 
CCN(CC)CCOCCNc1c2ccccc2[n+](C)c2cc(OCC[N+](C)(C)C)ccc12 (3D coordinates assigned)
CCN(CC)CCOCCNc1c2ccccc2[n+](C)c2cc(OCC[N+](C)(C)C)ccc12 (optimized conformer: 103.13216776826911 kcal/mol)

>  <smiles>  (22) 
CCN(CC)CCOCCNc1c2ccccc2[n+](C)c2cc(OCC[N+](C)(C)C)ccc12

>  <score_type>  (22) 
oracle

>  <origin>  (22) 
adg

>  <m_score__min__energy>  (22) 
-7.9000000000000004

>  <m_primary>  (22) 
energy

$$$$
