0:0
     RDKit          3D

 61 63  0  0  0  0  0  0  0  0999 V2000
   -1.2380   30.7320  -25.8750 C   0  0  0  0  0  0  0  0  0  0  0  0
   -0.2210   30.5850  -24.7420 C   0  0  0  0  0  0  0  0  0  0  0  0
    0.5940   29.2890  -24.8490 C   0  0  0  0  0  0  0  0  0  0  0  0
   -0.2710   28.1060  -25.1590 C   0  0  0  0  0  0  0  0  0  0  0  0
   -0.8460   27.2560  -24.2220 C   0  0  0  0  0  0  0  0  0  0  0  0
   -1.5800   26.2130  -24.7990 C   0  0  0  0  0  0  0  0  0  0  0  0
   -1.5700   26.2350  -26.1920 C   0  0  0  0  0  0  0  0  0  0  0  0
   -2.2340   25.2680  -27.0830 C   0  0  0  0  0  0  0  0  0  0  0  0
   -3.4120   24.5770  -26.8150 C   0  0  0  0  0  0  0  0  0  0  0  0
   -3.7960   23.7070  -27.8430 C   0  0  0  0  0  0  0  0  0  0  0  0
   -2.9170   23.7040  -28.9280 C   0  0  0  0  0  0  0  0  0  0  0  0
   -3.0280   22.8640  -30.1420 C   0  0  0  0  0  0  0  0  0  0  0  0
   -1.9620   22.0370  -30.5340 C   0  0  0  0  0  0  0  0  0  0  0  0
   -2.0770   21.2140  -31.6570 C   0  0  0  0  0  0  0  0  0  0  0  0
   -3.2540   21.2120  -32.4190 C   0  0  0  0  0  0  0  0  0  0  0  0
   -3.4010   20.2770  -33.5980 C   0  0  0  0  0  0  0  0  0  0  0  0
   -4.5560   19.3760  -33.4500 N   0  0  0  0  0  0  0  0  0  0  0  0
   -4.4280   18.1650  -34.2800 C   0  0  0  0  0  0  0  0  0  0  0  0
   -5.7960   17.5000  -34.5060 C   0  0  0  0  0  0  0  0  0  0  0  0
   -6.8300   18.2290  -33.8700 O   0  0  0  0  0  0  0  0  0  0  0  0
   -7.2270   17.6360  -32.6450 C   0  0  0  0  0  0  0  0  0  0  0  0
   -7.3890   18.7210  -31.5830 C   0  0  0  0  0  0  0  0  0  0  0  0
   -6.6440   19.8600  -31.9610 O   0  0  0  0  0  0  0  0  0  0  0  0
   -7.5280   20.9190  -32.2570 C   0  0  0  0  0  0  0  0  0  0  0  0
   -8.9490   20.4970  -31.9190 C   0  0  0  0  0  0  0  0  0  0  0  0
   -4.3140   22.0510  -32.0430 C   0  0  0  0  0  0  0  0  0  0  0  0
   -4.2050   22.8680  -30.9140 C   0  0  0  0  0  0  0  0  0  0  0  0
   -1.6700   24.7900  -28.5940 S   0  0  0  0  0  0  0  0  0  0  0  0
   -0.6530   27.5530  -26.7020 S   0  0  0  0  0  0  0  0  0  0  0  0
   -2.2421   30.8771  -25.4499 H   0  0  0  0  0  0  0  0  0  0  0  0
   -0.9732   31.6012  -26.4950 H   0  0  0  0  0  0  0  0  0  0  0  0
   -1.2301   29.8234  -26.4950 H   0  0  0  0  0  0  0  0  0  0  0  0
    0.4701   31.4402  -24.7750 H   0  0  0  0  0  0  0  0  0  0  0  0
   -0.7785   30.5522  -23.7943 H   0  0  0  0  0  0  0  0  0  0  0  0
    1.3395   29.4034  -25.6497 H   0  0  0  0  0  0  0  0  0  0  0  0
    1.0778   29.1108  -23.8773 H   0  0  0  0  0  0  0  0  0  0  0  0
   -0.7354   27.3894  -23.1357 H   0  0  0  0  0  0  0  0  0  0  0  0
   -2.1122   25.4511  -24.2106 H   0  0  0  0  0  0  0  0  0  0  0  0
   -3.9862   24.7022  -25.8851 H   0  0  0  0  0  0  0  0  0  0  0  0
   -4.7028   23.0858  -27.7999 H   0  0  0  0  0  0  0  0  0  0  0  0
   -1.0288   22.0375  -29.9517 H   0  0  0  0  0  0  0  0  0  0  0  0
   -1.2384   20.5631  -31.9454 H   0  0  0  0  0  0  0  0  0  0  0  0
   -3.5331   20.8758  -34.5112 H   0  0  0  0  0  0  0  0  0  0  0  0
   -2.4936   19.6578  -33.6544 H   0  0  0  0  0  0  0  0  0  0  0  0
   -5.4170   19.8990  -33.7350 H   0  0  0  0  0  0  0  0  0  0  0  0
   -4.6730   19.1090  -32.4430 H   0  0  0  0  0  0  0  0  0  0  0  0
   -3.9978   18.4411  -35.2540 H   0  0  0  0  0  0  0  0  0  0  0  0
   -3.7752   17.4509  -33.7567 H   0  0  0  0  0  0  0  0  0  0  0  0
   -5.9997   17.4560  -35.5861 H   0  0  0  0  0  0  0  0  0  0  0  0
   -5.7672   16.4881  -34.0757 H   0  0  0  0  0  0  0  0  0  0  0  0
   -8.1848   17.1133  -32.7842 H   0  0  0  0  0  0  0  0  0  0  0  0
   -6.4605   16.9169  -32.3204 H   0  0  0  0  0  0  0  0  0  0  0  0
   -8.4516   18.9906  -31.4924 H   0  0  0  0  0  0  0  0  0  0  0  0
   -7.0237   18.3466  -30.6153 H   0  0  0  0  0  0  0  0  0  0  0  0
   -7.2555   21.8025  -31.6610 H   0  0  0  0  0  0  0  0  0  0  0  0
   -7.4617   21.1661  -33.3268 H   0  0  0  0  0  0  0  0  0  0  0  0
   -9.0707   20.4609  -30.8263 H   0  0  0  0  0  0  0  0  0  0  0  0
   -9.6579   21.2234  -32.3431 H   0  0  0  0  0  0  0  0  0  0  0  0
   -9.1465   19.5014  -32.3431 H   0  0  0  0  0  0  0  0  0  0  0  0
   -5.2372   22.0659  -32.6409 H   0  0  0  0  0  0  0  0  0  0  0  0
   -5.0445   23.5183  -30.6270 H   0  0  0  0  0  0  0  0  0  0  0  0
  1  2  1  0
  2  3  1  0
  3  4  1  0
  4  5  2  0
  5  6  1  0
  6  7  2  0
  7  8  1  0
  8  9  2  0
  9 10  1  0
 10 11  2  0
 11 12  1  0
 12 13  2  0
 13 14  1  0
 14 15  2  0
 15 16  1  0
 16 17  1  0
 17 18  1  0
 18 19  1  0
 19 20  1  0
 20 21  1  0
 21 22  1  0
 22 23  1  0
 23 24  1  0
 24 25  1  0
 15 26  1  0
 26 27  2  0
 11 28  1  0
  7 29  1  0
 29  4  1  0
 28  8  1  0
 27 12  1  0
  1 30  1  0
  1 31  1  0
  1 32  1  0
  2 33  1  0
  2 34  1  0
  3 35  1  0
  3 36  1  0
  5 37  1  0
  6 38  1  0
  9 39  1  0
 10 40  1  0
 13 41  1  0
 14 42  1  0
 16 43  1  0
 16 44  1  0
 17 45  1  0
 17 46  1  0
 18 47  1  0
 18 48  1  0
 19 49  1  0
 19 50  1  0
 21 51  1  0
 21 52  1  0
 22 53  1  0
 22 54  1  0
 24 55  1  0
 24 56  1  0
 25 57  1  0
 25 58  1  0
 25 59  1  0
 26 60  1  0
 27 61  1  0
M  CHG  1  17   1
M  END
>  <UniqueID>  (1) 
1

>  <SMILES>  (1) 
CCCc1ccc(-c2ccc(-c3ccc(C[NH2+]CCOCCOCC)cc3)s2)s1

>  <Energy>  (1) 
109.12362757455588

>  <Genealogy>  (1) 
CCCc1ccc(-c2ccc(-c3ccc(C[NH2+]CCOCCOCC)cc3)s2)s1 (protonated)
CCCc1ccc(-c2ccc(-c3ccc(C[NH2+]CCOCCOCC)cc3)s2)s1 (3D coordinates assigned)
CCCc1ccc(-c2ccc(-c3ccc(C[NH2+]CCOCCOCC)cc3)s2)s1 (optimized conformer: 109.12362757455588 kcal/mol)

>  <smiles>  (1) 
CCCc1ccc(-c2ccc(-c3ccc(CNCCOCCOCC)cc3)s2)s1

>  <score_type>  (1) 
oracle

>  <origin>  (1) 
adg

>  <m_score__min__energy>  (1) 
-8.2100000000000009

>  <m_primary>  (1) 
energy

$$$$
1:0
     RDKit          3D

 44 45  0  0  0  0  0  0  0  0999 V2000
   -0.8720   25.9150  -27.9080 C   0  0  0  0  0  0  0  0  0  0  0  0
   -1.7460   25.5760  -28.9600 O   0  0  0  0  0  0  0  0  0  0  0  0
   -2.3590   24.3360  -28.6810 C   0  0  0  0  0  0  0  0  0  0  0  0
   -3.3720   24.0080  -29.7760 C   0  0  0  0  0  0  0  0  0  0  0  0
   -3.8630   25.2400  -30.4100 N   0  0  0  0  0  0  0  0  0  0  0  0
   -5.3320   25.3140  -30.3670 C   0  0  0  0  0  0  0  0  0  0  0  0
   -5.9600   23.9200  -30.3060 C   0  0  0  0  0  0  0  0  0  0  0  0
   -5.6520   23.1720  -31.4830 O   0  0  0  0  0  0  0  0  0  0  0  0
   -6.2720   21.9800  -31.9020 C   0  0  0  0  0  0  0  0  0  0  0  0
   -7.6740   21.8420  -31.9490 C   0  0  0  0  0  0  0  0  0  0  0  0
   -8.2530   20.6360  -32.3500 C   0  0  0  0  0  0  0  0  0  0  0  0
   -7.4480   19.5560  -32.7070 C   0  0  0  0  0  0  0  0  0  0  0  0
   -6.0590   19.6800  -32.6780 C   0  0  0  0  0  0  0  0  0  0  0  0
   -5.4590   20.8910  -32.2890 C   0  0  0  0  0  0  0  0  0  0  0  0
   -3.9810   20.9980  -32.2730 C   0  0  0  0  0  0  0  0  0  0  0  0
   -3.2550   21.0490  -33.4760 C   0  0  0  0  0  0  0  0  0  0  0  0
   -1.8620   21.1350  -33.4560 C   0  0  0  0  0  0  0  0  0  0  0  0
   -1.1770   21.1700  -32.2390 C   0  0  0  0  0  0  0  0  0  0  0  0
   -1.8850   21.1310  -31.0300 C   0  0  0  0  0  0  0  0  0  0  0  0
   -1.1490   21.1270  -29.7230 C   0  0  0  0  0  0  0  0  0  0  0  0
   -3.2850   21.0250  -31.0510 C   0  0  0  0  0  0  0  0  0  0  0  0
   -1.3665   25.7232  -26.9443 H   0  0  0  0  0  0  0  0  0  0  0  0
    0.0412   25.3059  -27.9792 H   0  0  0  0  0  0  0  0  0  0  0  0
   -0.6084   26.9806  -27.9792 H   0  0  0  0  0  0  0  0  0  0  0  0
   -1.5920   23.5484  -28.6439 H   0  0  0  0  0  0  0  0  0  0  0  0
   -2.8748   24.3932  -27.7111 H   0  0  0  0  0  0  0  0  0  0  0  0
   -2.8904   23.3765  -30.5371 H   0  0  0  0  0  0  0  0  0  0  0  0
   -4.2232   23.4767  -29.3252 H   0  0  0  0  0  0  0  0  0  0  0  0
   -3.4920   26.0480  -29.8570 H   0  0  0  0  0  0  0  0  0  0  0  0
   -5.6357   25.8826  -29.4757 H   0  0  0  0  0  0  0  0  0  0  0  0
   -5.6805   25.8107  -31.2845 H   0  0  0  0  0  0  0  0  0  0  0  0
   -5.5687   23.3865  -29.4272 H   0  0  0  0  0  0  0  0  0  0  0  0
   -7.0522   24.0287  -30.2336 H   0  0  0  0  0  0  0  0  0  0  0  0
   -8.3162   22.6897  -31.6680 H   0  0  0  0  0  0  0  0  0  0  0  0
   -9.3481   20.5383  -32.3841 H   0  0  0  0  0  0  0  0  0  0  0  0
   -7.9084   18.6047  -33.0120 H   0  0  0  0  0  0  0  0  0  0  0  0
   -5.4284   18.8244  -32.9614 H   0  0  0  0  0  0  0  0  0  0  0  0
   -3.7876   21.0210  -34.4380 H   0  0  0  0  0  0  0  0  0  0  0  0
   -1.3017   21.1754  -34.4017 H   0  0  0  0  0  0  0  0  0  0  0  0
   -0.0786   21.2283  -32.2295 H   0  0  0  0  0  0  0  0  0  0  0  0
   -1.8727   21.1309  -28.8946 H   0  0  0  0  0  0  0  0  0  0  0  0
   -0.5221   20.2254  -29.6579 H   0  0  0  0  0  0  0  0  0  0  0  0
   -0.5124   22.0217  -29.6579 H   0  0  0  0  0  0  0  0  0  0  0  0
   -3.8418   20.9626  -30.1044 H   0  0  0  0  0  0  0  0  0  0  0  0
  1  2  1  0
  2  3  1  0
  3  4  1  0
  4  5  1  0
  5  6  1  0
  6  7  1  0
  7  8  1  0
  8  9  1  0
  9 10  2  0
 10 11  1  0
 11 12  2  0
 12 13  1  0
 13 14  2  0
 14 15  1  0
 15 16  2  0
 16 17  1  0
 17 18  2  0
 18 19  1  0
 19 20  1  0
 19 21  2  0
 14  9  1  0
 21 15  1  0
  1 22  1  0
  1 23  1  0
  1 24  1  0
  3 25  1  0
  3 26  1  0
  4 27  1  0
  4 28  1  0
  5 29  1  0
  6 30  1  0
  6 31  1  0
  7 32  1  0
  7 33  1  0
 10 34  1  0
 11 35  1  0
 12 36  1  0
 13 37  1  0
 16 38  1  0
 17 39  1  0
 18 40  1  0
 20 41  1  0
 20 42  1  0
 20 43  1  0
 21 44  1  0
M  END
>  <UniqueID>  (2) 
2

>  <SMILES>  (2) 
COCCNCCOc1ccccc1-c1cccc(C)c1

>  <Energy>  (2) 
45.787540250045765

>  <Genealogy>  (2) 
COCCNCCOc1ccccc1-c1cccc(C)c1 (3D coordinates assigned)
COCCNCCOc1ccccc1-c1cccc(C)c1 (optimized conformer: 45.787540250045765 kcal/mol)

>  <smiles>  (2) 
COCCNCCOc1ccccc1-c1cccc(C)c1

>  <score_type>  (2) 
oracle

>  <origin>  (2) 
adg

>  <m_score__min__energy>  (2) 
-8.1999999999999993

>  <m_primary>  (2) 
energy

$$$$
2:0
     RDKit          3D

 38 39  0  0  0  0  0  0  0  0999 V2000
   -6.0490   17.0560  -31.6360 C   0  0  0  0  0  0  0  0  0  0  0  0
   -5.9610   16.8530  -33.1550 C   0  0  0  0  0  0  0  0  0  0  0  0
   -5.2550   17.9310  -33.8830 N   0  0  0  0  0  0  0  0  0  0  0  0
   -3.9690   18.3450  -33.2990 C   0  0  0  0  0  0  0  0  0  0  0  0
   -6.1050   19.0490  -34.3460 C   0  0  0  0  0  0  0  0  0  0  0  0
   -6.4980   20.0050  -33.2510 C   0  0  0  0  0  0  0  0  0  0  0  0
   -5.7760   21.0870  -32.9050 N   0  0  0  0  0  0  0  0  0  0  0  0
   -6.4960   21.6460  -31.9060 C   0  0  0  0  0  0  0  0  0  0  0  0
   -6.1140   22.8910  -31.1910 C   0  0  0  0  0  0  0  0  0  0  0  0
   -7.1500   23.7260  -30.7350 C   0  0  0  0  0  0  0  0  0  0  0  0
   -6.8670   24.9270  -30.0850 C   0  0  0  0  0  0  0  0  0  0  0  0
   -5.5460   25.3140  -29.8780 C   0  0  0  0  0  0  0  0  0  0  0  0
   -4.4980   24.4970  -30.3060 C   0  0  0  0  0  0  0  0  0  0  0  0
   -3.2230   24.9060  -30.0820 F   0  0  0  0  0  0  0  0  0  0  0  0
   -4.7630   23.2690  -30.9490 C   0  0  0  0  0  0  0  0  0  0  0  0
   -3.6070   22.3860  -31.3510 C   0  0  0  0  0  0  0  0  0  0  0  0
   -7.6010   20.9790  -31.6500 O   0  0  0  0  0  0  0  0  0  0  0  0
   -7.6340   19.9570  -32.4670 C   0  0  0  0  0  0  0  0  0  0  0  0
   -8.7270   18.9410  -32.5020 C   0  0  0  0  0  0  0  0  0  0  0  0
   -5.6618   16.1629  -31.1237 H   0  0  0  0  0  0  0  0  0  0  0  0
   -5.4501   17.9325  -31.3479 H   0  0  0  0  0  0  0  0  0  0  0  0
   -7.0982   17.2181  -31.3479 H   0  0  0  0  0  0  0  0  0  0  0  0
   -5.4312   15.9078  -33.3443 H   0  0  0  0  0  0  0  0  0  0  0  0
   -6.9956   16.8515  -33.5288 H   0  0  0  0  0  0  0  0  0  0  0  0
   -4.0403   18.3220  -32.2016 H   0  0  0  0  0  0  0  0  0  0  0  0
   -3.1775   17.6563  -33.6295 H   0  0  0  0  0  0  0  0  0  0  0  0
   -3.7280   19.3661  -33.6295 H   0  0  0  0  0  0  0  0  0  0  0  0
   -5.5529   19.6096  -35.1147 H   0  0  0  0  0  0  0  0  0  0  0  0
   -7.0340   18.6066  -34.7349 H   0  0  0  0  0  0  0  0  0  0  0  0
   -8.1970   23.4279  -30.8931 H   0  0  0  0  0  0  0  0  0  0  0  0
   -7.6887   25.5693  -29.7354 H   0  0  0  0  0  0  0  0  0  0  0  0
   -5.3270   26.2675  -29.3751 H   0  0  0  0  0  0  0  0  0  0  0  0
   -3.1066   22.0038  -30.4490 H   0  0  0  0  0  0  0  0  0  0  0  0
   -3.9811   21.5416  -31.9485 H   0  0  0  0  0  0  0  0  0  0  0  0
   -2.8907   22.9691  -31.9485 H   0  0  0  0  0  0  0  0  0  0  0  0
   -9.0133   18.6749  -31.4738 H   0  0  0  0  0  0  0  0  0  0  0  0
   -9.5981   19.3575  -33.0290 H   0  0  0  0  0  0  0  0  0  0  0  0
   -8.3751   18.0419  -33.0290 H   0  0  0  0  0  0  0  0  0  0  0  0
  1  2  1  0
  2  3  1  0
  3  4  1  0
  3  5  1  0
  5  6  1  0
  6  7  1  0
  7  8  2  0
  8  9  1  0
  9 10  2  0
 10 11  1  0
 11 12  2  0
 12 13  1  0
 13 14  1  0
 13 15  2  0
 15 16  1  0
  8 17  1  0
 17 18  1  0
 18 19  1  0
 18  6  2  0
 15  9  1  0
  1 20  1  0
  1 21  1  0
  1 22  1  0
  2 23  1  0
  2 24  1  0
  4 25  1  0
  4 26  1  0
  4 27  1  0
  5 28  1  0
  5 29  1  0
 10 30  1  0
 11 31  1  0
 12 32  1  0
 16 33  1  0
 16 34  1  0
 16 35  1  0
 19 36  1  0
 19 37  1  0
 19 38  1  0
M  END
>  <UniqueID>  (3) 
3

>  <SMILES>  (3) 
CCN(C)Cc1nc(-c2cccc(F)c2C)oc1C

>  <Energy>  (3) 
74.82713376831725

>  <Genealogy>  (3) 
CCN(C)Cc1nc(-c2cccc(F)c2C)oc1C (3D coordinates assigned)
CCN(C)Cc1nc(-c2cccc(F)c2C)oc1C (optimized conformer: 74.82713376831725 kcal/mol)

>  <smiles>  (3) 
CCN(C)Cc1nc(-c2cccc(F)c2C)oc1C

>  <score_type>  (3) 
oracle

>  <origin>  (3) 
adg

>  <m_score__min__energy>  (3) 
-6.7699999999999996

>  <m_primary>  (3) 
energy

$$$$
3:0
     RDKit          3D

 35 36  0  0  0  0  0  0  0  0999 V2000
   -5.7340   25.8000  -30.4820 C   0  0  0  0  0  0  0  0  0  0  0  0
   -4.8760   24.6830  -29.9070 C   0  0  0  0  0  0  0  0  0  0  0  0
   -3.4820   24.8980  -30.2700 N   0  0  0  0  0  0  0  0  0  0  0  0
   -2.4060   24.7230  -29.3440 C   0  0  0  0  0  0  0  0  0  0  0  0
   -1.7450   25.7160  -28.9380 O   0  0  0  0  0  0  0  0  0  0  0  0
   -2.0340   23.3490  -28.8950 C   0  0  0  0  0  0  0  0  0  0  0  0
   -0.8240   22.6420  -30.0580 S   0  0  0  0  0  0  0  0  0  0  0  0
   -2.0790   21.8280  -31.0400 C   0  0  0  0  0  0  0  0  0  0  0  0
   -3.3330   22.3080  -31.2010 N   0  0  0  0  0  0  0  0  0  0  0  0
   -4.0790   21.4990  -31.9950 C   0  0  0  0  0  0  0  0  0  0  0  0
   -5.4100   21.7280  -32.3450 C   0  0  0  0  0  0  0  0  0  0  0  0
   -6.0600   20.8010  -33.1780 C   0  0  0  0  0  0  0  0  0  0  0  0
   -5.3770   19.6530  -33.6580 C   0  0  0  0  0  0  0  0  0  0  0  0
   -5.9860   18.7000  -34.4910 O   0  0  0  0  0  0  0  0  0  0  0  0
   -6.4460   17.4120  -34.0810 C   0  0  0  0  0  0  0  0  0  0  0  0
   -6.9500   17.4510  -32.6420 C   0  0  0  0  0  0  0  0  0  0  0  0
   -4.0370   19.4420  -33.2880 C   0  0  0  0  0  0  0  0  0  0  0  0
   -3.4170   20.3750  -32.4620 C   0  0  0  0  0  0  0  0  0  0  0  0
   -1.8410   20.3750  -31.8740 S   0  0  0  0  0  0  0  0  0  0  0  0
   -6.1796   26.3801  -29.6604 H   0  0  0  0  0  0  0  0  0  0  0  0
   -5.1091   26.4609  -31.1007 H   0  0  0  0  0  0  0  0  0  0  0  0
   -6.5337   25.3667  -31.1007 H   0  0  0  0  0  0  0  0  0  0  0  0
   -4.9715   24.6758  -28.8112 H   0  0  0  0  0  0  0  0  0  0  0  0
   -5.2136   23.7183  -30.3137 H   0  0  0  0  0  0  0  0  0  0  0  0
   -1.5913   23.3985  -27.8892 H   0  0  0  0  0  0  0  0  0  0  0  0
   -2.9323   22.7148  -28.8674 H   0  0  0  0  0  0  0  0  0  0  0  0
   -3.6810   23.1950  -30.7690 H   0  0  0  0  0  0  0  0  0  0  0  0
   -5.9410   22.6178  -31.9758 H   0  0  0  0  0  0  0  0  0  0  0  0
   -7.1099   20.9671  -33.4611 H   0  0  0  0  0  0  0  0  0  0  0  0
   -7.2659   17.0944  -34.7420 H   0  0  0  0  0  0  0  0  0  0  0  0
   -5.6083   16.7018  -34.1426 H   0  0  0  0  0  0  0  0  0  0  0  0
   -6.0956   17.3849  -31.9523 H   0  0  0  0  0  0  0  0  0  0  0  0
   -7.4897   18.3936  -32.4679 H   0  0  0  0  0  0  0  0  0  0  0  0
   -7.6282   16.6027  -32.4679 H   0  0  0  0  0  0  0  0  0  0  0  0
   -3.4895   18.5570  -33.6443 H   0  0  0  0  0  0  0  0  0  0  0  0
  1  2  1  0
  2  3  1  0
  3  4  1  0
  4  5  2  0
  4  6  1  0
  6  7  1  0
  7  8  1  0
  8  9  2  0
  9 10  1  0
 10 11  2  0
 11 12  1  0
 12 13  2  0
 13 14  1  0
 14 15  1  0
 15 16  1  0
 13 17  1  0
 17 18  2  0
 18 19  1  0
 19  8  1  0
 18 10  1  0
  1 20  1  0
  1 21  1  0
  1 22  1  0
  2 23  1  0
  2 24  1  0
  6 25  1  0
  6 26  1  0
  9 27  1  0
 11 28  1  0
 12 29  1  0
 15 30  1  0
 15 31  1  0
 16 32  1  0
 16 33  1  0
 16 34  1  0
 17 35  1  0
M  CHG  2   3  -1   9   1
M  END
>  <UniqueID>  (4) 
4

>  <SMILES>  (4) 
CC[N-]C(=O)CSc1[nH+]c2ccc(OCC)cc2s1

>  <Energy>  (4) 
56.124814604107854

>  <Genealogy>  (4) 
CC[N-]C(=O)CSc1[nH+]c2ccc(OCC)cc2s1 (protonated)
CC[N-]C(=O)CSc1[nH+]c2ccc(OCC)cc2s1 (3D coordinates assigned)
CC[N-]C(=O)CSc1[nH+]c2ccc(OCC)cc2s1 (optimized conformer: 56.124814604107854 kcal/mol)

>  <smiles>  (4) 
CCNC(=O)CSc1nc2ccc(OCC)cc2s1

>  <score_type>  (4) 
oracle

>  <origin>  (4) 
adg

>  <m_score__min__energy>  (4) 
-8.2899999999999991

>  <m_primary>  (4) 
energy

$$$$
4:0
     RDKit          3D

 40 42  0  0  0  0  0  0  0  0999 V2000
   -5.7290   18.6770  -32.5160 C   0  0  0  0  0  0  0  0  0  0  0  0
   -6.1100   19.8610  -33.4000 C   0  0  0  0  0  0  0  0  0  0  0  0
   -6.9640   20.8150  -32.6460 N   0  0  0  0  0  0  0  0  0  0  0  0
   -6.4670   22.0220  -32.1650 C   0  0  0  0  0  0  0  0  0  0  0  0
   -7.2390   22.7460  -31.2060 C   0  0  0  0  0  0  0  0  0  0  0  0
   -8.5390   22.3250  -30.9180 C   0  0  0  0  0  0  0  0  0  0  0  0
   -9.0470   21.1760  -31.4940 C   0  0  0  0  0  0  0  0  0  0  0  0
   -8.2410   20.4090  -32.3260 C   0  0  0  0  0  0  0  0  0  0  0  0
   -8.7080   19.3240  -32.7700 O   0  0  0  0  0  0  0  0  0  0  0  0
   -6.7010   23.9270  -30.4360 C   0  0  0  0  0  0  0  0  0  0  0  0
   -5.4350   24.5050  -31.0810 C   0  0  0  0  0  0  0  0  0  0  0  0
   -4.2150   23.7580  -30.7010 N   0  0  0  0  0  0  0  0  0  0  0  0
   -4.3190   23.2420  -29.3200 C   0  0  0  0  0  0  0  0  0  0  0  0
   -3.4760   24.0570  -28.3790 C   0  0  0  0  0  0  0  0  0  0  0  0
   -3.9240   24.5000  -27.1250 C   0  0  0  0  0  0  0  0  0  0  0  0
   -2.9880   25.2640  -26.4420 C   0  0  0  0  0  0  0  0  0  0  0  0
   -1.6160   25.3900  -27.4030 S   0  0  0  0  0  0  0  0  0  0  0  0
   -2.1880   24.4780  -28.6920 C   0  0  0  0  0  0  0  0  0  0  0  0
   -3.9410   22.6730  -31.6650 C   0  0  0  0  0  0  0  0  0  0  0  0
   -5.1040   22.5350  -32.6650 C   0  0  0  0  0  0  0  0  0  0  0  0
   -5.8215   18.9644  -31.4582 H   0  0  0  0  0  0  0  0  0  0  0  0
   -6.4004   17.8314  -32.7262 H   0  0  0  0  0  0  0  0  0  0  0  0
   -4.6905   18.3817  -32.7262 H   0  0  0  0  0  0  0  0  0  0  0  0
   -5.1958   20.3757  -33.7306 H   0  0  0  0  0  0  0  0  0  0  0  0
   -6.6706   19.4909  -34.2710 H   0  0  0  0  0  0  0  0  0  0  0  0
   -9.1630   22.9119  -30.2279 H   0  0  0  0  0  0  0  0  0  0  0  0
  -10.0847   20.8702  -31.2946 H   0  0  0  0  0  0  0  0  0  0  0  0
   -7.4723   24.7106  -30.4030 H   0  0  0  0  0  0  0  0  0  0  0  0
   -6.4401   23.5827  -29.4244 H   0  0  0  0  0  0  0  0  0  0  0  0
   -5.5466   24.4658  -32.1746 H   0  0  0  0  0  0  0  0  0  0  0  0
   -5.3194   25.5389  -30.7237 H   0  0  0  0  0  0  0  0  0  0  0  0
   -5.3691   23.2891  -28.9958 H   0  0  0  0  0  0  0  0  0  0  0  0
   -3.9590   22.2027  -29.3046 H   0  0  0  0  0  0  0  0  0  0  0  0
   -4.9203   24.2646  -26.7225 H   0  0  0  0  0  0  0  0  0  0  0  0
   -3.1214   25.7094  -25.4451 H   0  0  0  0  0  0  0  0  0  0  0  0
   -1.6409   24.2534  -29.6195 H   0  0  0  0  0  0  0  0  0  0  0  0
   -3.0160   22.9018  -32.2146 H   0  0  0  0  0  0  0  0  0  0  0  0
   -3.8303   21.7270  -31.1146 H   0  0  0  0  0  0  0  0  0  0  0  0
   -5.2749   23.5313  -33.0988 H   0  0  0  0  0  0  0  0  0  0  0  0
   -4.7647   21.7477  -33.3542 H   0  0  0  0  0  0  0  0  0  0  0  0
  1  2  1  0
  2  3  1  0
  3  4  1  0
  4  5  2  0
  5  6  1  0
  6  7  2  0
  7  8  1  0
  8  9  2  0
  5 10  1  0
 10 11  1  0
 11 12  1  0
 12 13  1  0
 13 14  1  0
 14 15  1  0
 15 16  2  0
 16 17  1  0
 17 18  1  0
 12 19  1  0
 19 20  1  0
  8  3  1  0
 18 14  2  0
 20  4  1  0
  1 21  1  0
  1 22  1  0
  1 23  1  0
  2 24  1  0
  2 25  1  0
  6 26  1  0
  7 27  1  0
 10 28  1  0
 10 29  1  0
 11 30  1  0
 11 31  1  0
 13 32  1  0
 13 33  1  0
 15 34  1  0
 16 35  1  0
 18 36  1  0
 19 37  1  0
 19 38  1  0
 20 39  1  0
 20 40  1  0
M  END
>  <UniqueID>  (5) 
5

>  <SMILES>  (5) 
CCn1c2c(ccc1=O)CCN(Cc1ccsc1)CC2

>  <Energy>  (5) 
86.54221887779553

>  <Genealogy>  (5) 
CCn1c2c(ccc1=O)CCN(Cc1ccsc1)CC2 (3D coordinates assigned)
CCn1c2c(ccc1=O)CCN(Cc1ccsc1)CC2 (nonaromatic ring conformer: 86.54221887779553 kcal/mol)

>  <smiles>  (5) 
CCn1c2c(ccc1=O)CCN(Cc1ccsc1)CC2

>  <score_type>  (5) 
oracle

>  <origin>  (5) 
adg

>  <m_score__min__energy>  (5) 
-6.2599999999999998

>  <m_primary>  (5) 
energy

$$$$
5:0
     RDKit          3D

 21 21  0  0  0  0  0  0  0  0999 V2000
   -4.2110   24.1590  -28.2030 C   0  0  0  0  0  0  0  0  0  0  0  0
   -3.1520   24.1670  -29.3000 C   0  0  0  0  0  0  0  0  0  0  0  0
   -3.6380   24.8360  -30.4630 O   0  0  0  0  0  0  0  0  0  0  0  0
   -4.9980   24.9530  -30.7730 C   0  0  0  0  0  0  0  0  0  0  0  0
   -5.5850   26.0630  -30.6540 O   0  0  0  0  0  0  0  0  0  0  0  0
   -5.7310   23.7670  -31.2490 C   0  0  0  0  0  0  0  0  0  0  0  0
   -7.4060   23.6190  -31.2000 S   0  0  0  0  0  0  0  0  0  0  0  0
   -7.4910   22.0850  -31.8770 C   0  0  0  0  0  0  0  0  0  0  0  0
   -6.1990   21.6610  -32.1550 C   0  0  0  0  0  0  0  0  0  0  0  0
   -5.2080   22.5960  -31.8080 C   0  0  0  0  0  0  0  0  0  0  0  0
   -3.7480   22.3340  -32.0260 C   0  0  0  0  0  0  0  0  0  0  0  0
   -3.7195   24.1627  -27.2189 H   0  0  0  0  0  0  0  0  0  0  0  0
   -4.8455   25.0524  -28.2994 H   0  0  0  0  0  0  0  0  0  0  0  0
   -4.8319   23.2561  -28.2994 H   0  0  0  0  0  0  0  0  0  0  0  0
   -2.2549   24.6867  -28.9325 H   0  0  0  0  0  0  0  0  0  0  0  0
   -2.9082   23.1276  -29.5649 H   0  0  0  0  0  0  0  0  0  0  0  0
   -8.4119   21.5143  -32.0674 H   0  0  0  0  0  0  0  0  0  0  0  0
   -5.9714   20.6835  -32.6053 H   0  0  0  0  0  0  0  0  0  0  0  0
   -3.2425   22.2433  -31.0532 H   0  0  0  0  0  0  0  0  0  0  0  0
   -3.6238   21.3992  -32.5924 H   0  0  0  0  0  0  0  0  0  0  0  0
   -3.3065   23.1673  -32.5924 H   0  0  0  0  0  0  0  0  0  0  0  0
  1  2  1  0
  2  3  1  0
  3  4  1  0
  4  5  2  0
  4  6  1  0
  6  7  1  0
  7  8  1  0
  8  9  2  0
  9 10  1  0
 10 11  1  0
 10  6  2  0
  1 12  1  0
  1 13  1  0
  1 14  1  0
  2 15  1  0
  2 16  1  0
  8 17  1  0
  9 18  1  0
 11 19  1  0
 11 20  1  0
 11 21  1  0
M  END
>  <UniqueID>  (6) 
6

>  <SMILES>  (6) 
CCOC(=O)c1sccc1C

>  <Energy>  (6) 
40.08139343050726

>  <Genealogy>  (6) 
CCOC(=O)c1sccc1C (3D coordinates assigned)
CCOC(=O)c1sccc1C (optimized conformer: 40.08139343050726 kcal/mol)

>  <smiles>  (6) 
CCOC(=O)c1sccc1C

>  <score_type>  (6) 
oracle

>  <origin>  (6) 
adg

>  <m_score__min__energy>  (6) 
-4.8300000000000001

>  <m_primary>  (6) 
energy

$$$$
6:0
     RDKit          3D

 61 64  0  0  0  0  0  0  0  0999 V2000
   -1.7090   20.0550  -32.1070 F   0  0  0  0  0  0  0  0  0  0  0  0
   -0.8210   21.1060  -32.2350 C   0  0  0  0  0  0  0  0  0  0  0  0
    0.4420   20.5950  -32.4760 F   0  0  0  0  0  0  0  0  0  0  0  0
   -1.2200   21.8980  -33.2970 F   0  0  0  0  0  0  0  0  0  0  0  0
   -0.8240   21.8630  -31.0280 O   0  0  0  0  0  0  0  0  0  0  0  0
   -1.4880   21.5080  -29.8390 C   0  0  0  0  0  0  0  0  0  0  0  0
   -1.2850   20.2590  -29.2180 C   0  0  0  0  0  0  0  0  0  0  0  0
   -1.9530   19.9380  -28.0360 C   0  0  0  0  0  0  0  0  0  0  0  0
   -2.8150   20.8590  -27.4470 C   0  0  0  0  0  0  0  0  0  0  0  0
   -3.0190   22.1040  -28.0430 C   0  0  0  0  0  0  0  0  0  0  0  0
   -2.3820   22.4350  -29.2520 C   0  0  0  0  0  0  0  0  0  0  0  0
   -2.6270   23.7950  -29.8850 C   0  0  0  0  0  0  0  0  0  0  0  0
   -3.7600   23.8180  -30.8380 N   0  0  0  0  0  0  0  0  0  0  0  0
   -3.7980   22.6630  -31.7650 C   0  0  0  0  0  0  0  0  0  0  0  0
   -5.1710   22.5060  -32.4190 C   0  0  0  0  0  0  0  0  0  0  0  0
   -6.1780   22.3250  -31.3710 N   0  0  0  0  0  0  0  0  0  0  0  0
   -7.4090   21.6510  -31.6800 C   0  0  0  0  0  0  0  0  0  0  0  0
   -8.6230   22.2860  -31.3690 C   0  0  0  0  0  0  0  0  0  0  0  0
   -9.8420   21.6900  -31.6960 C   0  0  0  0  0  0  0  0  0  0  0  0
   -9.8620   20.4570  -32.3470 C   0  0  0  0  0  0  0  0  0  0  0  0
   -8.6650   19.8120  -32.6640 C   0  0  0  0  0  0  0  0  0  0  0  0
   -7.4260   20.3870  -32.3250 C   0  0  0  0  0  0  0  0  0  0  0  0
   -6.1540   19.6310  -32.6710 C   0  0  0  0  0  0  0  0  0  0  0  0
   -6.3570   18.6510  -33.7690 N   0  0  0  0  0  0  0  0  0  0  0  0
   -5.1240   18.5270  -34.5980 C   0  0  0  0  0  0  0  0  0  0  0  0
   -4.2700   17.3190  -34.1880 C   0  0  0  0  0  0  0  0  0  0  0  0
   -5.0040   16.0480  -34.3340 N   0  0  0  0  0  0  0  0  0  0  0  0
   -6.4640   16.1850  -34.1740 C   0  0  0  0  0  0  0  0  0  0  0  0
   -6.8230   17.3430  -33.2350 C   0  0  0  0  0  0  0  0  0  0  0  0
   -6.0440   23.0580  -30.1040 C   0  0  0  0  0  0  0  0  0  0  0  0
   -5.0600   24.2280  -30.2530 C   0  0  0  0  0  0  0  0  0  0  0  0
   -0.5942   19.5314  -29.6690 H   0  0  0  0  0  0  0  0  0  0  0  0
   -1.7982   18.9546  -27.5682 H   0  0  0  0  0  0  0  0  0  0  0  0
   -3.3353   20.6052  -26.5117 H   0  0  0  0  0  0  0  0  0  0  0  0
   -3.6856   22.8347  -27.5617 H   0  0  0  0  0  0  0  0  0  0  0  0
   -2.8347   24.5181  -29.0825 H   0  0  0  0  0  0  0  0  0  0  0  0
   -1.7227   24.0480  -30.4580 H   0  0  0  0  0  0  0  0  0  0  0  0
   -3.0438   22.8126  -32.5516 H   0  0  0  0  0  0  0  0  0  0  0  0
   -3.5887   21.7518  -31.1854 H   0  0  0  0  0  0  0  0  0  0  0  0
   -5.4059   23.4067  -33.0052 H   0  0  0  0  0  0  0  0  0  0  0  0
   -5.1676   21.6324  -33.0874 H   0  0  0  0  0  0  0  0  0  0  0  0
   -8.6127   23.2625  -30.8628 H   0  0  0  0  0  0  0  0  0  0  0  0
  -10.7864   22.1927  -31.4403 H   0  0  0  0  0  0  0  0  0  0  0  0
  -10.8230   19.9915  -32.6114 H   0  0  0  0  0  0  0  0  0  0  0  0
   -8.6906   18.8434  -33.1847 H   0  0  0  0  0  0  0  0  0  0  0  0
   -5.3864   20.3551  -32.9816 H   0  0  0  0  0  0  0  0  0  0  0  0
   -5.8430   19.0717  -31.7763 H   0  0  0  0  0  0  0  0  0  0  0  0
   -7.1050   19.0220  -34.4030 H   0  0  0  0  0  0  0  0  0  0  0  0
   -5.4158   18.4133  -35.6525 H   0  0  0  0  0  0  0  0  0  0  0  0
   -4.5214   19.4345  -34.4456 H   0  0  0  0  0  0  0  0  0  0  0  0
   -3.3730   17.2861  -34.8239 H   0  0  0  0  0  0  0  0  0  0  0  0
   -4.0021   17.4366  -33.1276 H   0  0  0  0  0  0  0  0  0  0  0  0
   -4.8170   15.6620  -35.2890 H   0  0  0  0  0  0  0  0  0  0  0  0
   -6.9151   16.3718  -35.1597 H   0  0  0  0  0  0  0  0  0  0  0  0
   -6.8508   15.2536  -33.7349 H   0  0  0  0  0  0  0  0  0  0  0  0
   -7.9157   17.3770  -33.1129 H   0  0  0  0  0  0  0  0  0  0  0  0
   -6.3231   17.1693  -32.2707 H   0  0  0  0  0  0  0  0  0  0  0  0
   -7.0283   23.4499  -29.8081 H   0  0  0  0  0  0  0  0  0  0  0  0
   -5.6600   22.3695  -29.3369 H   0  0  0  0  0  0  0  0  0  0  0  0
   -5.5145   24.9879  -30.9056 H   0  0  0  0  0  0  0  0  0  0  0  0
   -4.8593   24.6209  -29.2453 H   0  0  0  0  0  0  0  0  0  0  0  0
  1  2  1  0
  2  3  1  0
  2  4  1  0
  2  5  1  0
  5  6  1  0
  6  7  2  0
  7  8  1  0
  8  9  2  0
  9 10  1  0
 10 11  2  0
 11 12  1  0
 12 13  1  0
 13 14  1  0
 14 15  1  0
 15 16  1  0
 16 17  1  0
 17 18  2  0
 18 19  1  0
 19 20  2  0
 20 21  1  0
 21 22  2  0
 22 23  1  0
 23 24  1  0
 24 25  1  0
 25 26  1  0
 26 27  1  0
 27 28  1  0
 28 29  1  0
 16 30  1  0
 30 31  1  0
 11  6  1  0
 31 13  1  0
 22 17  1  0
 29 24  1  0
  7 32  1  0
  8 33  1  0
  9 34  1  0
 10 35  1  0
 12 36  1  0
 12 37  1  0
 14 38  1  0
 14 39  1  0
 15 40  1  0
 15 41  1  0
 18 42  1  0
 19 43  1  0
 20 44  1  0
 21 45  1  0
 23 46  1  0
 23 47  1  0
 24 48  1  0
 25 49  1  0
 25 50  1  0
 26 51  1  0
 26 52  1  0
 27 53  1  0
 28 54  1  0
 28 55  1  0
 29 56  1  0
 29 57  1  0
 30 58  1  0
 30 59  1  0
 31 60  1  0
 31 61  1  0
M  CHG  1  24   1
M  END
>  <UniqueID>  (7) 
7

>  <SMILES>  (7) 
FC(F)(F)Oc1ccccc1CN1CCN(c2ccccc2C[NH+]2CCNCC2)CC1

>  <Energy>  (7) 
87.6076382388035

>  <Genealogy>  (7) 
FC(F)(F)Oc1ccccc1CN1CCN(c2ccccc2C[NH+]2CCNCC2)CC1 (protonated)
FC(F)(F)Oc1ccccc1CN1CCN(c2ccccc2C[NH+]2CCNCC2)CC1 (3D coordinates assigned)
FC(F)(F)Oc1ccccc1CN1CCN(c2ccccc2C[NH+]2CCNCC2)CC1 (nonaromatic ring conformer: 87.6076382388035 kcal/mol)

>  <smiles>  (7) 
FC(F)(F)Oc1ccccc1CN1CCN(c2ccccc2CN2CCNCC2)CC1

>  <score_type>  (7) 
oracle

>  <origin>  (7) 
adg

>  <m_score__min__energy>  (7) 
-8.3800000000000008

>  <m_primary>  (7) 
energy

$$$$
7:0
     RDKit          3D

 51 53  0  0  0  0  0  0  0  0999 V2000
  -10.0748   23.2555  -32.1664 H   0  0  0  0  0  0  0  0  0  0  0  0
   -9.1750   22.6520  -31.9760 C   0  0  0  0  0  0  0  0  0  0  0  0
   -8.0140   23.2660  -31.5080 C   0  0  0  0  0  0  0  0  0  0  0  0
   -8.0028   24.3518  -31.3320 H   0  0  0  0  0  0  0  0  0  0  0  0
   -6.8590   22.5070  -31.2600 C   0  0  0  0  0  0  0  0  0  0  0  0
   -5.6220   23.1590  -30.7620 C   0  0  0  0  0  0  0  0  0  0  0  0
   -5.5250   24.5620  -30.7170 C   0  0  0  0  0  0  0  0  0  0  0  0
   -6.3724   25.1781  -31.0522 H   0  0  0  0  0  0  0  0  0  0  0  0
   -4.3610   25.1800  -30.2500 C   0  0  0  0  0  0  0  0  0  0  0  0
   -4.2988   26.2778  -30.2199 H   0  0  0  0  0  0  0  0  0  0  0  0
   -3.2730   24.4080  -29.8200 C   0  0  0  0  0  0  0  0  0  0  0  0
   -3.3600   23.0010  -29.8610 C   0  0  0  0  0  0  0  0  0  0  0  0
   -4.5300   22.3840  -30.3310 C   0  0  0  0  0  0  0  0  0  0  0  0
   -4.5934   21.2863  -30.3625 H   0  0  0  0  0  0  0  0  0  0  0  0
   -2.2700   22.2420  -29.4280 C   0  0  0  0  0  0  0  0  0  0  0  0
   -2.3210   21.1434  -29.4517 H   0  0  0  0  0  0  0  0  0  0  0  0
   -1.1180   22.8760  -28.9660 C   0  0  0  0  0  0  0  0  0  0  0  0
   -0.2572   22.2794  -28.6296 H   0  0  0  0  0  0  0  0  0  0  0  0
   -1.0590   24.2860  -28.9310 C   0  0  0  0  0  0  0  0  0  0  0  0
   -0.0040   24.9280  -28.5070 N   0  0  0  0  0  0  0  0  0  0  0  0
    0.3900   25.1770  -27.1190 C   0  0  0  0  0  0  0  0  0  0  0  0
    0.6291   26.2437  -26.9969 H   0  0  0  0  0  0  0  0  0  0  0  0
    1.2701   24.5604  -26.8842 H   0  0  0  0  0  0  0  0  0  0  0  0
   -0.7470   24.8020  -26.1590 C   0  0  0  0  0  0  0  0  0  0  0  0
   -0.3346   24.6538  -25.1500 H   0  0  0  0  0  0  0  0  0  0  0  0
   -1.2217   23.8757  -26.5149 H   0  0  0  0  0  0  0  0  0  0  0  0
   -1.7650   25.8750  -26.1160 N   0  0  0  0  0  0  0  0  0  0  0  0
   -3.1180   25.2970  -26.1550 C   0  0  0  0  0  0  0  0  0  0  0  0
   -3.4803   25.1422  -25.1280 H   0  0  0  0  0  0  0  0  0  0  0  0
   -3.7953   25.9843  -26.6831 H   0  0  0  0  0  0  0  0  0  0  0  0
   -3.0896   24.3325  -26.6831 H   0  0  0  0  0  0  0  0  0  0  0  0
   -1.6180   26.6900  -24.8960 C   0  0  0  0  0  0  0  0  0  0  0  0
   -1.7338   26.0482  -24.0102 H   0  0  0  0  0  0  0  0  0  0  0  0
   -0.6214   27.1555  -24.8839 H   0  0  0  0  0  0  0  0  0  0  0  0
   -2.3892   27.4743  -24.8839 H   0  0  0  0  0  0  0  0  0  0  0  0
   -2.1350   25.0070  -29.3620 N   0  0  0  0  0  0  0  0  0  0  0  0
   -2.0820   26.0530  -29.3360 H   0  0  0  0  0  0  0  0  0  0  0  0
   -6.8910   21.1190  -31.4940 C   0  0  0  0  0  0  0  0  0  0  0  0
   -5.9887   20.5187  -31.3053 H   0  0  0  0  0  0  0  0  0  0  0  0
   -8.0590   20.4840  -31.9660 C   0  0  0  0  0  0  0  0  0  0  0  0
   -8.0840   19.0530  -32.2040 N   0  0  0  0  0  0  0  0  0  0  0  0
   -7.0690   18.4190  -33.0550 C   0  0  0  0  0  0  0  0  0  0  0  0
   -6.3058   17.9423  -32.4223 H   0  0  0  0  0  0  0  0  0  0  0  0
   -7.5462   17.6581  -33.6901 H   0  0  0  0  0  0  0  0  0  0  0  0
   -6.5946   19.1816  -33.6901 H   0  0  0  0  0  0  0  0  0  0  0  0
   -9.1280   18.2140  -31.6010 C   0  0  0  0  0  0  0  0  0  0  0  0
   -9.0567   18.2713  -30.5048 H   0  0  0  0  0  0  0  0  0  0  0  0
  -10.1172   18.5713  -31.9233 H   0  0  0  0  0  0  0  0  0  0  0  0
   -8.9919   17.1711  -31.9233 H   0  0  0  0  0  0  0  0  0  0  0  0
   -9.2010   21.2760  -32.2040 C   0  0  0  0  0  0  0  0  0  0  0  0
  -10.1230   20.8035  -32.5737 H   0  0  0  0  0  0  0  0  0  0  0  0
  1  2  1  0
  2  3  2  0
  3  4  1  0
  3  5  1  0
  5  6  1  0
  6  7  2  0
  7  8  1  0
  7  9  1  0
  9 10  1  0
  9 11  2  0
 11 12  1  0
 12 13  2  0
 13 14  1  0
 12 15  1  0
 15 16  1  0
 15 17  2  0
 17 18  1  0
 17 19  1  0
 19 20  2  0
 20 21  1  0
 21 22  1  0
 21 23  1  0
 21 24  1  0
 24 25  1  0
 24 26  1  0
 24 27  1  0
 27 28  1  0
 28 29  1  0
 28 30  1  0
 28 31  1  0
 27 32  1  0
 32 33  1  0
 32 34  1  0
 32 35  1  0
 19 36  1  0
 36 37  1  0
  5 38  2  0
 38 39  1  0
 38 40  1  0
 40 41  1  0
 41 42  1  0
 42 43  1  0
 42 44  1  0
 42 45  1  0
 41 46  1  0
 46 47  1  0
 46 48  1  0
 46 49  1  0
 40 50  2  0
 50 51  1  0
 50  2  1  0
 13  6  1  0
 36 11  1  0
M  END
>  <UniqueID>  (8) 
8

>  <SMILES>  (8) 
CN(C)CC/N=c1\ccc2cc(-c3cccc(N(C)C)c3)ccc2[nH]1

>  <Energy>  (8) 
63.855897984782864

>  <Genealogy>  (8) 
CN(C)CC/N=c1\ccc2cc(-c3cccc(N(C)C)c3)ccc2[nH]1 (cis-trans isomerization)
CN(C)CC/N=c1\ccc2cc(-c3cccc(N(C)C)c3)ccc2[nH]1 (3D coordinates assigned)
CN(C)CC/N=c1\ccc2cc(-c3cccc(N(C)C)c3)ccc2[nH]1 (optimized conformer: 63.855897984782864 kcal/mol)

>  <smiles>  (8) 
CN(C)CCN=c1ccc2cc(-c3cccc(N(C)C)c3)ccc2[nH]1

>  <score_type>  (8) 
oracle

>  <origin>  (8) 
adg

>  <m_score__min__energy>  (8) 
-9.0099999999999998

>  <m_primary>  (8) 
energy

$$$$
8:0
     RDKit          3D

 46 47  0  0  0  0  0  0  0  0999 V2000
    0.8320   24.0580  -27.3500 C   0  0  0  0  0  0  0  0  0  0  0  0
    0.0220   24.8990  -28.2470 N   0  0  0  0  0  0  0  0  0  0  0  0
   -0.5860   25.9970  -27.4740 C   0  0  0  0  0  0  0  0  0  0  0  0
   -1.0150   24.0820  -28.9150 C   0  0  0  0  0  0  0  0  0  0  0  0
   -2.4230   24.5550  -28.5290 C   0  0  0  0  0  0  0  0  0  0  0  0
   -3.1270   25.0590  -29.6650 O   0  0  0  0  0  0  0  0  0  0  0  0
   -4.2230   24.4400  -30.2880 C   0  0  0  0  0  0  0  0  0  0  0  0
   -5.5560   24.8070  -30.0250 C   0  0  0  0  0  0  0  0  0  0  0  0
   -6.6060   24.1520  -30.6720 C   0  0  0  0  0  0  0  0  0  0  0  0
   -6.3420   23.1280  -31.5850 C   0  0  0  0  0  0  0  0  0  0  0  0
   -5.0150   22.7480  -31.8600 C   0  0  0  0  0  0  0  0  0  0  0  0
   -4.7020   21.6960  -32.7950 N   0  0  0  0  0  0  0  0  0  0  0  0
   -3.7490   20.6140  -32.5410 C   0  0  0  0  0  0  0  0  0  0  0  0
   -4.0330   19.4130  -33.4430 C   0  0  0  0  0  0  0  0  0  0  0  0
   -5.3490   19.5180  -33.9810 O   0  0  0  0  0  0  0  0  0  0  0  0
   -6.5240   19.2740  -33.2560 C   0  0  0  0  0  0  0  0  0  0  0  0
   -7.4390   20.3240  -33.0980 C   0  0  0  0  0  0  0  0  0  0  0  0
   -8.6260   20.1290  -32.3850 C   0  0  0  0  0  0  0  0  0  0  0  0
   -8.9060   18.8810  -31.8220 C   0  0  0  0  0  0  0  0  0  0  0  0
   -8.0020   17.8270  -31.9730 C   0  0  0  0  0  0  0  0  0  0  0  0
   -6.8130   18.0180  -32.6850 C   0  0  0  0  0  0  0  0  0  0  0  0
   -3.9670   23.4210  -31.2120 C   0  0  0  0  0  0  0  0  0  0  0  0
    0.5954   24.3036  -26.3042 H   0  0  0  0  0  0  0  0  0  0  0  0
    0.6060   22.9980  -27.5378 H   0  0  0  0  0  0  0  0  0  0  0  0
    1.8997   24.2441  -27.5378 H   0  0  0  0  0  0  0  0  0  0  0  0
   -0.4738   25.7943  -26.3987 H   0  0  0  0  0  0  0  0  0  0  0  0
   -0.0832   26.9431  -27.7232 H   0  0  0  0  0  0  0  0  0  0  0  0
   -1.6547   26.0729  -27.7232 H   0  0  0  0  0  0  0  0  0  0  0  0
   -0.8932   24.1676  -30.0049 H   0  0  0  0  0  0  0  0  0  0  0  0
   -0.8970   23.0364  -28.5943 H   0  0  0  0  0  0  0  0  0  0  0  0
   -2.9831   23.7078  -28.1064 H   0  0  0  0  0  0  0  0  0  0  0  0
   -2.3287   25.3642  -27.7899 H   0  0  0  0  0  0  0  0  0  0  0  0
   -5.7715   25.6124  -29.3075 H   0  0  0  0  0  0  0  0  0  0  0  0
   -7.6456   24.4436  -30.4618 H   0  0  0  0  0  0  0  0  0  0  0  0
   -7.1744   22.6168  -32.0908 H   0  0  0  0  0  0  0  0  0  0  0  0
   -5.1580   21.7150  -33.7350 H   0  0  0  0  0  0  0  0  0  0  0  0
   -2.7298   20.9785  -32.7371 H   0  0  0  0  0  0  0  0  0  0  0  0
   -3.8490   20.2970  -31.4924 H   0  0  0  0  0  0  0  0  0  0  0  0
   -3.3023   19.3919  -34.2650 H   0  0  0  0  0  0  0  0  0  0  0  0
   -3.9525   18.4874  -32.8541 H   0  0  0  0  0  0  0  0  0  0  0  0
   -7.2218   21.3085  -33.5380 H   0  0  0  0  0  0  0  0  0  0  0  0
   -9.3394   20.9580  -32.2673 H   0  0  0  0  0  0  0  0  0  0  0  0
   -9.8390   18.7286  -31.2595 H   0  0  0  0  0  0  0  0  0  0  0  0
   -8.2254   16.8447  -31.5312 H   0  0  0  0  0  0  0  0  0  0  0  0
   -6.1022   17.1864  -32.7995 H   0  0  0  0  0  0  0  0  0  0  0  0
   -2.9264   23.1423  -31.4346 H   0  0  0  0  0  0  0  0  0  0  0  0
  1  2  1  0
  2  3  1  0
  2  4  1  0
  4  5  1  0
  5  6  1  0
  6  7  1  0
  7  8  2  0
  8  9  1  0
  9 10  2  0
 10 11  1  0
 11 12  1  0
 12 13  1  0
 13 14  1  0
 14 15  1  0
 15 16  1  0
 16 17  2  0
 17 18  1  0
 18 19  2  0
 19 20  1  0
 20 21  2  0
 11 22  2  0
 22  7  1  0
 21 16  1  0
  1 23  1  0
  1 24  1  0
  1 25  1  0
  3 26  1  0
  3 27  1  0
  3 28  1  0
  4 29  1  0
  4 30  1  0
  5 31  1  0
  5 32  1  0
  8 33  1  0
  9 34  1  0
 10 35  1  0
 12 36  1  0
 13 37  1  0
 13 38  1  0
 14 39  1  0
 14 40  1  0
 17 41  1  0
 18 42  1  0
 19 43  1  0
 20 44  1  0
 21 45  1  0
 22 46  1  0
M  END
>  <UniqueID>  (9) 
9

>  <SMILES>  (9) 
CN(C)CCOc1cccc(NCCOc2ccccc2)c1

>  <Energy>  (9) 
42.02405646785423

>  <Genealogy>  (9) 
CN(C)CCOc1cccc(NCCOc2ccccc2)c1 (3D coordinates assigned)
CN(C)CCOc1cccc(NCCOc2ccccc2)c1 (optimized conformer: 42.02405646785423 kcal/mol)

>  <smiles>  (9) 
CN(C)CCOc1cccc(NCCOc2ccccc2)c1

>  <score_type>  (9) 
oracle

>  <origin>  (9) 
adg

>  <m_score__min__energy>  (9) 
-7.4699999999999998

>  <m_primary>  (9) 
energy

$$$$
9:0
     RDKit          3D

 45 47  0  0  0  0  0  0  0  0999 V2000
   -5.7320   25.6540  -30.2070 C   0  0  0  0  0  0  0  0  0  0  0  0
   -6.4760   24.3550  -29.9050 C   0  0  0  0  0  0  0  0  0  0  0  0
   -6.3710   23.3930  -31.0300 N   0  0  0  0  0  0  0  0  0  0  0  0
   -4.9630   23.2770  -31.4790 C   0  0  0  0  0  0  0  0  0  0  0  0
   -4.2360   22.2040  -30.6720 C   0  0  0  0  0  0  0  0  0  0  0  0
   -7.2900   23.7390  -32.1470 C   0  0  0  0  0  0  0  0  0  0  0  0
   -8.6510   23.0440  -31.9630 C   0  0  0  0  0  0  0  0  0  0  0  0
   -8.6100   21.9310  -30.9960 N   0  0  0  0  0  0  0  0  0  0  0  0
   -8.1930   20.6900  -31.6060 C   0  0  0  0  0  0  0  0  0  0  0  0
   -9.0990   19.6030  -31.7110 C   0  0  0  0  0  0  0  0  0  0  0  0
   -8.7070   18.3910  -32.3050 C   0  0  0  0  0  0  0  0  0  0  0  0
   -7.4090   18.2900  -32.7990 C   0  0  0  0  0  0  0  0  0  0  0  0
   -6.5230   19.3490  -32.7230 C   0  0  0  0  0  0  0  0  0  0  0  0
   -6.8880   20.5610  -32.1400 C   0  0  0  0  0  0  0  0  0  0  0  0
   -5.2600   18.9390  -33.3370 C   0  0  0  0  0  0  0  0  0  0  0  0
   -4.0680   19.6450  -33.5050 C   0  0  0  0  0  0  0  0  0  0  0  0
   -2.9960   18.9940  -34.1410 C   0  0  0  0  0  0  0  0  0  0  0  0
   -3.1330   17.6640  -34.5930 C   0  0  0  0  0  0  0  0  0  0  0  0
   -4.3430   16.9700  -34.4130 C   0  0  0  0  0  0  0  0  0  0  0  0
   -5.3920   17.6350  -33.7810 C   0  0  0  0  0  0  0  0  0  0  0  0
   -6.7410   17.1750  -33.4640 C   0  0  0  0  0  0  0  0  0  0  0  0
   -7.2310   16.0430  -33.7150 O   0  0  0  0  0  0  0  0  0  0  0  0
   -5.4514   26.1439  -29.2629 H   0  0  0  0  0  0  0  0  0  0  0  0
   -4.8250   25.4305  -30.7878 H   0  0  0  0  0  0  0  0  0  0  0  0
   -6.3837   26.3233  -30.7878 H   0  0  0  0  0  0  0  0  0  0  0  0
   -6.0445   23.8977  -29.0024 H   0  0  0  0  0  0  0  0  0  0  0  0
   -7.5391   24.5937  -29.7536 H   0  0  0  0  0  0  0  0  0  0  0  0
   -4.9432   23.0052  -32.5447 H   0  0  0  0  0  0  0  0  0  0  0  0
   -4.4583   24.2425  -31.3268 H   0  0  0  0  0  0  0  0  0  0  0  0
   -4.3689   22.4001  -29.5978 H   0  0  0  0  0  0  0  0  0  0  0  0
   -4.6512   21.2156  -30.9184 H   0  0  0  0  0  0  0  0  0  0  0  0
   -3.1641   22.2232  -30.9184 H   0  0  0  0  0  0  0  0  0  0  0  0
   -7.4402   24.8285  -32.1675 H   0  0  0  0  0  0  0  0  0  0  0  0
   -6.8429   23.3990  -33.0928 H   0  0  0  0  0  0  0  0  0  0  0  0
   -9.3785   23.7888  -31.6079 H   0  0  0  0  0  0  0  0  0  0  0  0
   -8.9353   22.6198  -32.9373 H   0  0  0  0  0  0  0  0  0  0  0  0
   -7.9880   22.1840  -30.1920 H   0  0  0  0  0  0  0  0  0  0  0  0
   -9.5720   21.7950  -30.6070 H   0  0  0  0  0  0  0  0  0  0  0  0
  -10.1223   19.7104  -31.3221 H   0  0  0  0  0  0  0  0  0  0  0  0
   -9.4065   17.5452  -32.3777 H   0  0  0  0  0  0  0  0  0  0  0  0
   -6.1775   21.3995  -32.0956 H   0  0  0  0  0  0  0  0  0  0  0  0
   -3.9698   20.6815  -33.1499 H   0  0  0  0  0  0  0  0  0  0  0  0
   -2.0439   19.5251  -34.2873 H   0  0  0  0  0  0  0  0  0  0  0  0
   -2.2871   17.1664  -35.0898 H   0  0  0  0  0  0  0  0  0  0  0  0
   -4.4580   15.9328  -34.7609 H   0  0  0  0  0  0  0  0  0  0  0  0
  1  2  1  0
  2  3  1  0
  3  4  1  0
  4  5  1  0
  3  6  1  0
  6  7  1  0
  7  8  1  0
  8  9  1  0
  9 10  2  0
 10 11  1  0
 11 12  2  0
 12 13  1  0
 13 14  2  0
 13 15  1  0
 15 16  2  0
 16 17  1  0
 17 18  2  0
 18 19  1  0
 19 20  2  0
 20 21  1  0
 21 22  2  0
 14  9  1  0
 20 15  1  0
 21 12  1  0
  1 23  1  0
  1 24  1  0
  1 25  1  0
  2 26  1  0
  2 27  1  0
  4 28  1  0
  4 29  1  0
  5 30  1  0
  5 31  1  0
  5 32  1  0
  6 33  1  0
  6 34  1  0
  7 35  1  0
  7 36  1  0
  8 37  1  0
  8 38  1  0
 10 39  1  0
 11 40  1  0
 14 41  1  0
 16 42  1  0
 17 43  1  0
 18 44  1  0
 19 45  1  0
M  CHG  1   8   1
M  END
>  <UniqueID>  (10) 
10

>  <SMILES>  (10) 
CCN(CC)CC[NH2+]c1ccc2c(c1)-c1ccccc1C2=O

>  <Energy>  (10) 
81.33778149316295

>  <Genealogy>  (10) 
CCN(CC)CC[NH2+]c1ccc2c(c1)-c1ccccc1C2=O (protonated)
CCN(CC)CC[NH2+]c1ccc2c(c1)-c1ccccc1C2=O (3D coordinates assigned)
CCN(CC)CC[NH2+]c1ccc2c(c1)-c1ccccc1C2=O (nonaromatic ring conformer: 81.33778149316295 kcal/mol)

>  <smiles>  (10) 
CCN(CC)CCNc1ccc2c(c1)-c1ccccc1C2=O

>  <score_type>  (10) 
oracle

>  <origin>  (10) 
adg

>  <m_score__min__energy>  (10) 
-7.8700000000000001

>  <m_primary>  (10) 
energy

$$$$
10:0
     RDKit          3D

 37 39  0  0  0  0  0  0  0  0999 V2000
   -0.2710   25.1170  -25.7340 C   0  0  0  0  0  0  0  0  0  0  0  0
   -0.1120   24.4870  -27.1140 C   0  0  0  0  0  0  0  0  0  0  0  0
   -1.4260   24.1210  -27.6680 N   0  0  0  0  0  0  0  0  0  0  0  0
   -2.1130   23.0850  -27.0960 C   0  0  0  0  0  0  0  0  0  0  0  0
   -3.3410   22.6730  -27.6140 C   0  0  0  0  0  0  0  0  0  0  0  0
   -3.8740   23.3310  -28.7180 C   0  0  0  0  0  0  0  0  0  0  0  0
   -3.1900   24.4010  -29.2940 C   0  0  0  0  0  0  0  0  0  0  0  0
   -3.7640   25.0430  -30.4420 N   0  0  0  0  0  0  0  0  0  0  0  0
   -4.9870   24.6630  -31.0840 C   0  0  0  0  0  0  0  0  0  0  0  0
   -5.9640   25.4600  -31.1040 O   0  0  0  0  0  0  0  0  0  0  0  0
   -5.1340   23.2940  -31.6260 C   0  0  0  0  0  0  0  0  0  0  0  0
   -3.9660   22.6120  -32.0110 C   0  0  0  0  0  0  0  0  0  0  0  0
   -4.0230   21.2960  -32.4670 C   0  0  0  0  0  0  0  0  0  0  0  0
   -5.2450   20.6340  -32.5540 C   0  0  0  0  0  0  0  0  0  0  0  0
   -6.4310   21.2920  -32.2050 C   0  0  0  0  0  0  0  0  0  0  0  0
   -7.6600   20.6240  -32.3210 C   0  0  0  0  0  0  0  0  0  0  0  0
   -8.8510   21.2820  -32.0100 C   0  0  0  0  0  0  0  0  0  0  0  0
   -8.8270   22.6110  -31.5930 C   0  0  0  0  0  0  0  0  0  0  0  0
   -7.6130   23.2900  -31.4680 C   0  0  0  0  0  0  0  0  0  0  0  0
   -6.3910   22.6400  -31.7470 C   0  0  0  0  0  0  0  0  0  0  0  0
   -1.9290   24.7650  -28.7730 C   0  0  0  0  0  0  0  0  0  0  0  0
   -1.2520   25.6620  -29.3460 O   0  0  0  0  0  0  0  0  0  0  0  0
   -0.0796   24.3587  -24.9605 H   0  0  0  0  0  0  0  0  0  0  0  0
    0.4468   25.9431  -25.6232 H   0  0  0  0  0  0  0  0  0  0  0  0
   -1.2949   25.5035  -25.6232 H   0  0  0  0  0  0  0  0  0  0  0  0
    0.3766   25.2073  -27.7867 H   0  0  0  0  0  0  0  0  0  0  0  0
    0.5010   23.5783  -27.0218 H   0  0  0  0  0  0  0  0  0  0  0  0
   -1.6926   22.5717  -26.2186 H   0  0  0  0  0  0  0  0  0  0  0  0
   -3.8837   21.8344  -27.1532 H   0  0  0  0  0  0  0  0  0  0  0  0
   -4.8376   23.0063  -29.1376 H   0  0  0  0  0  0  0  0  0  0  0  0
   -2.9942   23.1240  -31.9515 H   0  0  0  0  0  0  0  0  0  0  0  0
   -3.0979   20.7778  -32.7596 H   0  0  0  0  0  0  0  0  0  0  0  0
   -5.2789   19.5898  -32.8983 H   0  0  0  0  0  0  0  0  0  0  0  0
   -7.6846   19.5773  -32.6585 H   0  0  0  0  0  0  0  0  0  0  0  0
   -9.8102   20.7503  -32.0943 H   0  0  0  0  0  0  0  0  0  0  0  0
   -9.7695   23.1285  -31.3609 H   0  0  0  0  0  0  0  0  0  0  0  0
   -7.6088   24.3426  -31.1487 H   0  0  0  0  0  0  0  0  0  0  0  0
  1  2  1  0
  2  3  1  0
  3  4  1  0
  4  5  2  0
  5  6  1  0
  6  7  2  0
  7  8  1  0
  8  9  1  0
  9 10  2  0
  9 11  1  0
 11 12  2  0
 12 13  1  0
 13 14  2  0
 14 15  1  0
 15 16  2  0
 16 17  1  0
 17 18  2  0
 18 19  1  0
 19 20  2  0
  7 21  1  0
 21 22  2  0
 21  3  1  0
 20 11  1  0
 20 15  1  0
  1 23  1  0
  1 24  1  0
  1 25  1  0
  2 26  1  0
  2 27  1  0
  4 28  1  0
  5 29  1  0
  6 30  1  0
 12 31  1  0
 13 32  1  0
 14 33  1  0
 16 34  1  0
 17 35  1  0
 18 36  1  0
 19 37  1  0
M  CHG  1   8  -1
M  END
>  <UniqueID>  (11) 
11

>  <SMILES>  (11) 
CCn1cccc([N-]C(=O)c2cccc3ccccc23)c1=O

>  <Energy>  (11) 
54.767077582255396

>  <Genealogy>  (11) 
CCn1cccc([N-]C(=O)c2cccc3ccccc23)c1=O (protonated)
CCn1cccc([N-]C(=O)c2cccc3ccccc23)c1=O (3D coordinates assigned)
CCn1cccc([N-]C(=O)c2cccc3ccccc23)c1=O (optimized conformer: 54.767077582255396 kcal/mol)

>  <smiles>  (11) 
CCn1cccc(NC(=O)c2cccc3ccccc23)c1=O

>  <score_type>  (11) 
oracle

>  <origin>  (11) 
adg

>  <m_score__min__energy>  (11) 
-9.9000000000000004

>  <m_primary>  (11) 
energy

$$$$
11:0
     RDKit          3D

 58 60  0  0  0  0  0  0  0  0999 V2000
    0.8560   27.1580  -24.2680 C   0  0  0  0  0  0  0  0  0  0  0  0
   -0.3510   27.1780  -23.3320 C   0  0  0  0  0  0  0  0  0  0  0  0
   -1.5920   26.8950  -24.0700 N   0  0  0  0  0  0  0  0  0  0  0  0
   -1.4600   25.6490  -24.8440 C   0  0  0  0  0  0  0  0  0  0  0  0
   -2.0230   25.7900  -26.2720 C   0  0  0  0  0  0  0  0  0  0  0  0
   -1.0100   25.5120  -27.4010 C   0  0  0  0  0  0  0  0  0  0  0  0
   -1.4920   24.4860  -28.4370 C   0  0  0  0  0  0  0  0  0  0  0  0
   -2.5210   25.0690  -29.3070 N   0  0  0  0  0  0  0  0  0  0  0  0
   -3.2350   24.0130  -30.0330 C   0  0  0  0  0  0  0  0  0  0  0  0
   -4.4620   24.6010  -30.7320 C   0  0  0  0  0  0  0  0  0  0  0  0
   -5.5470   23.5400  -30.9380 C   0  0  0  0  0  0  0  0  0  0  0  0
   -5.5140   23.0500  -32.3140 N   0  0  0  0  0  0  0  0  0  0  0  0
   -5.5990   21.6450  -32.5940 C   0  0  0  0  0  0  0  0  0  0  0  0
   -6.8080   20.9270  -32.4820 C   0  0  0  0  0  0  0  0  0  0  0  0
   -7.9750   21.5530  -32.0010 C   0  0  0  0  0  0  0  0  0  0  0  0
   -9.1590   20.8340  -31.8560 C   0  0  0  0  0  0  0  0  0  0  0  0
   -9.1970   19.4790  -32.1660 C   0  0  0  0  0  0  0  0  0  0  0  0
   -8.0530   18.8300  -32.6310 C   0  0  0  0  0  0  0  0  0  0  0  0
   -6.8370   19.5330  -32.8170 C   0  0  0  0  0  0  0  0  0  0  0  0
   -5.6920   18.9010  -33.2860 N   0  0  0  0  0  0  0  0  0  0  0  0
   -5.7390   17.5060  -33.7650 C   0  0  0  0  0  0  0  0  0  0  0  0
   -4.5030   19.5930  -33.2820 C   0  0  0  0  0  0  0  0  0  0  0  0
   -3.2250   19.0770  -33.5910 C   0  0  0  0  0  0  0  0  0  0  0  0
   -2.2150   20.0320  -33.5270 C   0  0  0  0  0  0  0  0  0  0  0  0
   -2.8850   21.5090  -33.0760 S   0  0  0  0  0  0  0  0  0  0  0  0
   -4.4620   20.9390  -32.9550 C   0  0  0  0  0  0  0  0  0  0  0  0
    1.7811   27.1427  -23.6731 H   0  0  0  0  0  0  0  0  0  0  0  0
    0.8132   26.2604  -24.9025 H   0  0  0  0  0  0  0  0  0  0  0  0
    0.8429   28.0565  -24.9025 H   0  0  0  0  0  0  0  0  0  0  0  0
   -0.2142   26.4151  -22.5514 H   0  0  0  0  0  0  0  0  0  0  0  0
   -0.4301   28.1784  -22.8816 H   0  0  0  0  0  0  0  0  0  0  0  0
   -2.3830   26.8020  -23.3910 H   0  0  0  0  0  0  0  0  0  0  0  0
   -1.7820   27.6910  -24.7230 H   0  0  0  0  0  0  0  0  0  0  0  0
   -0.3947   25.3823  -24.9076 H   0  0  0  0  0  0  0  0  0  0  0  0
   -2.0374   24.8675  -24.3283 H   0  0  0  0  0  0  0  0  0  0  0  0
   -2.8584   25.0828  -26.3810 H   0  0  0  0  0  0  0  0  0  0  0  0
   -2.3251   26.8420  -26.3814 H   0  0  0  0  0  0  0  0  0  0  0  0
   -0.8049   26.4588  -27.9220 H   0  0  0  0  0  0  0  0  0  0  0  0
   -0.1141   25.0860  -26.9257 H   0  0  0  0  0  0  0  0  0  0  0  0
   -0.6381   24.1661  -29.0523 H   0  0  0  0  0  0  0  0  0  0  0  0
   -1.9247   23.6251  -27.9064 H   0  0  0  0  0  0  0  0  0  0  0  0
   -2.0380   25.6740  -30.0140 H   0  0  0  0  0  0  0  0  0  0  0  0
   -2.5649   23.5694  -30.7841 H   0  0  0  0  0  0  0  0  0  0  0  0
   -3.5592   23.2394  -29.3213 H   0  0  0  0  0  0  0  0  0  0  0  0
   -4.8698   25.4154  -30.1152 H   0  0  0  0  0  0  0  0  0  0  0  0
   -4.1526   24.9772  -31.7183 H   0  0  0  0  0  0  0  0  0  0  0  0
   -5.3713   22.7011  -30.2486 H   0  0  0  0  0  0  0  0  0  0  0  0
   -6.5316   23.9879  -30.7384 H   0  0  0  0  0  0  0  0  0  0  0  0
   -5.8070   23.7160  -33.0630 H   0  0  0  0  0  0  0  0  0  0  0  0
   -7.9507   22.6206  -31.7373 H   0  0  0  0  0  0  0  0  0  0  0  0
  -10.0668   21.3396  -31.4951 H   0  0  0  0  0  0  0  0  0  0  0  0
  -10.1340   18.9159  -32.0439 H   0  0  0  0  0  0  0  0  0  0  0  0
   -8.0957   17.7543  -32.8571 H   0  0  0  0  0  0  0  0  0  0  0  0
   -5.7620   16.8229  -32.9031 H   0  0  0  0  0  0  0  0  0  0  0  0
   -6.6426   17.3578  -34.3745 H   0  0  0  0  0  0  0  0  0  0  0  0
   -4.8474   17.2974  -34.3745 H   0  0  0  0  0  0  0  0  0  0  0  0
   -3.0459   18.0245  -33.8560 H   0  0  0  0  0  0  0  0  0  0  0  0
   -1.1505   19.8510  -33.7372 H   0  0  0  0  0  0  0  0  0  0  0  0
  1  2  1  0
  2  3  1  0
  3  4  1  0
  4  5  1  0
  5  6  1  0
  6  7  1  0
  7  8  1  0
  8  9  1  0
  9 10  1  0
 10 11  1  0
 11 12  1  0
 12 13  1  0
 13 14  2  0
 14 15  1  0
 15 16  2  0
 16 17  1  0
 17 18  2  0
 18 19  1  0
 19 20  2  0
 20 21  1  0
 20 22  1  0
 22 23  1  0
 23 24  2  0
 24 25  1  0
 25 26  1  0
 26 13  1  0
 19 14  1  0
 26 22  2  0
  1 27  1  0
  1 28  1  0
  1 29  1  0
  2 30  1  0
  2 31  1  0
  3 32  1  0
  3 33  1  0
  4 34  1  0
  4 35  1  0
  5 36  1  0
  5 37  1  0
  6 38  1  0
  6 39  1  0
  7 40  1  0
  7 41  1  0
  8 42  1  0
  9 43  1  0
  9 44  1  0
 10 45  1  0
 10 46  1  0
 11 47  1  0
 11 48  1  0
 12 49  1  0
 15 50  1  0
 16 51  1  0
 17 52  1  0
 18 53  1  0
 21 54  1  0
 21 55  1  0
 21 56  1  0
 23 57  1  0
 24 58  1  0
M  CHG  2   3   1  20   1
M  END
>  <UniqueID>  (12) 
12

>  <SMILES>  (12) 
CC[NH2+]CCCCNCCCNc1c2ccccc2[n+](C)c2ccsc12

>  <Energy>  (12) 
92.71156300418077

>  <Genealogy>  (12) 
CC[NH2+]CCCCNCCCNc1c2ccccc2[n+](C)c2ccsc12 (protonated)
CC[NH2+]CCCCNCCCNc1c2ccccc2[n+](C)c2ccsc12 (3D coordinates assigned)
CC[NH2+]CCCCNCCCNc1c2ccccc2[n+](C)c2ccsc12 (optimized conformer: 92.71156300418077 kcal/mol)

>  <smiles>  (12) 
CCNCCCCNCCCNc1c2ccccc2[n+](C)c2ccsc12

>  <score_type>  (12) 
oracle

>  <origin>  (12) 
adg

>  <m_score__min__energy>  (12) 
-8.4800000000000004

>  <m_primary>  (12) 
energy

$$$$
12:0
     RDKit          3D

 41 42  0  0  0  0  0  0  0  0999 V2000
   -7.5750   19.9840  -33.0700 C   0  0  0  0  0  0  0  0  0  0  0  0
   -7.4940   18.9330  -32.0430 N   0  0  0  0  0  0  0  0  0  0  0  0
   -8.7350   18.9240  -31.2500 C   0  0  0  0  0  0  0  0  0  0  0  0
   -7.2530   17.6170  -32.6730 C   0  0  0  0  0  0  0  0  0  0  0  0
   -6.4240   17.7320  -33.9730 C   0  0  0  0  0  0  0  0  0  0  0  0
   -5.3190   16.7500  -34.1230 N   0  0  0  0  0  0  0  0  0  0  0  0
   -5.7460   15.3570  -33.9190 C   0  0  0  0  0  0  0  0  0  0  0  0
   -4.1000   17.0530  -33.3440 C   0  0  0  0  0  0  0  0  0  0  0  0
   -3.9130   18.5320  -33.1810 C   0  0  0  0  0  0  0  0  0  0  0  0
   -3.0320   19.3260  -33.8830 C   0  0  0  0  0  0  0  0  0  0  0  0
   -3.1920   20.5600  -33.4660 O   0  0  0  0  0  0  0  0  0  0  0  0
   -4.1330   20.5520  -32.5430 C   0  0  0  0  0  0  0  0  0  0  0  0
   -4.5940   21.7720  -31.8390 C   0  0  0  0  0  0  0  0  0  0  0  0
   -5.7070   22.4770  -32.3320 C   0  0  0  0  0  0  0  0  0  0  0  0
   -6.1610   23.6290  -31.6860 C   0  0  0  0  0  0  0  0  0  0  0  0
   -5.5100   24.0940  -30.5400 C   0  0  0  0  0  0  0  0  0  0  0  0
   -6.1320   25.6700  -29.6580 Br  0  0  0  0  0  0  0  0  0  0  0  0
   -4.4040   23.4020  -30.0400 C   0  0  0  0  0  0  0  0  0  0  0  0
   -3.9460   22.2480  -30.6840 C   0  0  0  0  0  0  0  0  0  0  0  0
   -4.6120   19.3050  -32.3330 N   0  0  0  0  0  0  0  0  0  0  0  0
   -7.6508   20.9674  -32.5830 H   0  0  0  0  0  0  0  0  0  0  0  0
   -6.6719   19.9541  -33.6973 H   0  0  0  0  0  0  0  0  0  0  0  0
   -8.4629   19.8160  -33.6973 H   0  0  0  0  0  0  0  0  0  0  0  0
   -8.4856   18.9258  -30.1787 H   0  0  0  0  0  0  0  0  0  0  0  0
   -9.3297   19.8179  -31.4895 H   0  0  0  0  0  0  0  0  0  0  0  0
   -9.3167   18.0216  -31.4895 H   0  0  0  0  0  0  0  0  0  0  0  0
   -6.7086   16.9786  -31.9616 H   0  0  0  0  0  0  0  0  0  0  0  0
   -8.2303   17.1848  -32.9341 H   0  0  0  0  0  0  0  0  0  0  0  0
   -7.1095   17.6015  -34.8233 H   0  0  0  0  0  0  0  0  0  0  0  0
   -5.9428   18.7204  -33.9346 H   0  0  0  0  0  0  0  0  0  0  0  0
   -5.8103   15.1473  -32.8411 H   0  0  0  0  0  0  0  0  0  0  0  0
   -6.7322   15.2043  -34.3817 H   0  0  0  0  0  0  0  0  0  0  0  0
   -5.0148   14.6778  -34.3817 H   0  0  0  0  0  0  0  0  0  0  0  0
   -4.1857   16.5906  -32.3496 H   0  0  0  0  0  0  0  0  0  0  0  0
   -3.2317   16.6502  -33.8860 H   0  0  0  0  0  0  0  0  0  0  0  0
   -2.3234   18.9870  -34.6530 H   0  0  0  0  0  0  0  0  0  0  0  0
   -6.2242   22.1179  -33.2340 H   0  0  0  0  0  0  0  0  0  0  0  0
   -7.0329   24.1716  -32.0801 H   0  0  0  0  0  0  0  0  0  0  0  0
   -3.8919   23.7659  -29.1371 H   0  0  0  0  0  0  0  0  0  0  0  0
   -3.0739   21.7091  -30.2852 H   0  0  0  0  0  0  0  0  0  0  0  0
   -5.3520   18.9920  -31.6700 H   0  0  0  0  0  0  0  0  0  0  0  0
  1  2  1  0
  2  3  1  0
  2  4  1  0
  4  5  1  0
  5  6  1  0
  6  7  1  0
  6  8  1  0
  8  9  1  0
  9 10  2  0
 10 11  1  0
 11 12  1  0
 12 13  1  0
 13 14  2  0
 14 15  1  0
 15 16  2  0
 16 17  1  0
 16 18  1  0
 18 19  2  0
 12 20  2  0
 20  9  1  0
 19 13  1  0
  1 21  1  0
  1 22  1  0
  1 23  1  0
  3 24  1  0
  3 25  1  0
  3 26  1  0
  4 27  1  0
  4 28  1  0
  5 29  1  0
  5 30  1  0
  7 31  1  0
  7 32  1  0
  7 33  1  0
  8 34  1  0
  8 35  1  0
 10 36  1  0
 14 37  1  0
 15 38  1  0
 18 39  1  0
 19 40  1  0
 20 41  1  0
M  CHG  1  20   1
M  END
>  <UniqueID>  (13) 
13

>  <SMILES>  (13) 
CN(C)CCN(C)Cc1coc(-c2ccc(Br)cc2)[nH+]1

>  <Energy>  (13) 
76.1645589506645

>  <Genealogy>  (13) 
CN(C)CCN(C)Cc1coc(-c2ccc(Br)cc2)[nH+]1 (protonated)
CN(C)CCN(C)Cc1coc(-c2ccc(Br)cc2)[nH+]1 (3D coordinates assigned)
CN(C)CCN(C)Cc1coc(-c2ccc(Br)cc2)[nH+]1 (optimized conformer: 76.1645589506645 kcal/mol)

>  <smiles>  (13) 
CN(C)CCN(C)Cc1coc(-c2ccc(Br)cc2)n1

>  <score_type>  (13) 
oracle

>  <origin>  (13) 
adg

>  <m_score__min__energy>  (13) 
-5.6299999999999999

>  <m_primary>  (13) 
energy

$$$$
13:0
     RDKit          3D

 38 40  0  0  0  0  0  0  0  0999 V2000
   -4.1530   19.7320  -33.5840 N   0  0  0  0  0  0  0  0  0  0  0  0
   -4.9970   20.3850  -33.1350 C   0  0  0  0  0  0  0  0  0  0  0  0
   -6.0460   21.1980  -32.5760 C   0  0  0  0  0  0  0  0  0  0  0  0
   -7.4060   20.9270  -32.7390 C   0  0  0  0  0  0  0  0  0  0  0  0
   -7.9680   19.7830  -33.4070 N   0  0  0  0  0  0  0  0  0  0  0  0
   -8.1600   18.6560  -32.4790 C   0  0  0  0  0  0  0  0  0  0  0  0
   -7.0420   17.6470  -32.5800 C   0  0  0  0  0  0  0  0  0  0  0  0
   -6.7210   17.0590  -33.8120 C   0  0  0  0  0  0  0  0  0  0  0  0
   -5.7150   16.0940  -33.8850 C   0  0  0  0  0  0  0  0  0  0  0  0
   -5.0280   15.7250  -32.7210 C   0  0  0  0  0  0  0  0  0  0  0  0
   -3.9760   14.6590  -32.7620 C   0  0  0  0  0  0  0  0  0  0  0  0
   -2.7230   15.2330  -32.8870 F   0  0  0  0  0  0  0  0  0  0  0  0
   -4.0230   13.9220  -31.5930 F   0  0  0  0  0  0  0  0  0  0  0  0
   -5.3700   16.2900  -31.5310 N   0  0  0  0  0  0  0  0  0  0  0  0
   -6.3450   17.2330  -31.4350 C   0  0  0  0  0  0  0  0  0  0  0  0
   -8.3110   22.1050  -31.9390 S   0  0  0  0  0  0  0  0  0  0  0  0
   -6.9830   22.9870  -31.4040 C   0  0  0  0  0  0  0  0  0  0  0  0
   -5.8110   22.3490  -31.8030 C   0  0  0  0  0  0  0  0  0  0  0  0
   -4.4520   22.9240  -31.4990 C   0  0  0  0  0  0  0  0  0  0  0  0
   -4.5100   23.9230  -30.3290 C   0  0  0  0  0  0  0  0  0  0  0  0
   -5.6760   24.9120  -30.4960 C   0  0  0  0  0  0  0  0  0  0  0  0
   -7.0290   24.1820  -30.5030 C   0  0  0  0  0  0  0  0  0  0  0  0
   -7.3210   19.4860  -34.1740 H   0  0  0  0  0  0  0  0  0  0  0  0
   -8.8820   20.0460  -33.8430 H   0  0  0  0  0  0  0  0  0  0  0  0
   -8.1966   19.0445  -31.4505 H   0  0  0  0  0  0  0  0  0  0  0  0
   -9.1001   18.1510  -32.7459 H   0  0  0  0  0  0  0  0  0  0  0  0
   -7.2624   17.3584  -34.7215 H   0  0  0  0  0  0  0  0  0  0  0  0
   -5.4636   15.6270  -34.8487 H   0  0  0  0  0  0  0  0  0  0  0  0
   -4.1629   14.0041  -33.6258 H   0  0  0  0  0  0  0  0  0  0  0  0
   -6.5880   17.6726  -30.4564 H   0  0  0  0  0  0  0  0  0  0  0  0
   -3.7680   22.1040  -31.2351 H   0  0  0  0  0  0  0  0  0  0  0  0
   -4.0964   23.4590  -32.3919 H   0  0  0  0  0  0  0  0  0  0  0  0
   -4.6435   23.3670  -29.3893 H   0  0  0  0  0  0  0  0  0  0  0  0
   -3.5699   24.4940  -30.3130 H   0  0  0  0  0  0  0  0  0  0  0  0
   -5.6599   25.6294  -29.6623 H   0  0  0  0  0  0  0  0  0  0  0  0
   -5.5562   25.4317  -31.4580 H   0  0  0  0  0  0  0  0  0  0  0  0
   -7.2672   23.8539  -29.4805 H   0  0  0  0  0  0  0  0  0  0  0  0
   -7.8009   24.8731  -30.8726 H   0  0  0  0  0  0  0  0  0  0  0  0
  1  2  3  0
  2  3  1  0
  3  4  2  0
  4  5  1  0
  5  6  1  0
  6  7  1  0
  7  8  2  0
  8  9  1  0
  9 10  2  0
 10 11  1  0
 11 12  1  0
 11 13  1  0
 10 14  1  0
 14 15  2  0
  4 16  1  0
 16 17  1  0
 17 18  2  0
 18 19  1  0
 19 20  1  0
 20 21  1  0
 21 22  1  0
 18  3  1  0
 15  7  1  0
 22 17  1  0
  5 23  1  0
  5 24  1  0
  6 25  1  0
  6 26  1  0
  8 27  1  0
  9 28  1  0
 11 29  1  0
 15 30  1  0
 19 31  1  0
 19 32  1  0
 20 33  1  0
 20 34  1  0
 21 35  1  0
 21 36  1  0
 22 37  1  0
 22 38  1  0
M  CHG  1   5   1
M  END
>  <UniqueID>  (14) 
14

>  <SMILES>  (14) 
N#Cc1c([NH2+]Cc2ccc(C(F)F)nc2)sc2c1CCCC2

>  <Energy>  (14) 
62.80151348255324

>  <Genealogy>  (14) 
N#Cc1c([NH2+]Cc2ccc(C(F)F)nc2)sc2c1CCCC2 (protonated)
N#Cc1c([NH2+]Cc2ccc(C(F)F)nc2)sc2c1CCCC2 (3D coordinates assigned)
N#Cc1c([NH2+]Cc2ccc(C(F)F)nc2)sc2c1CCCC2 (nonaromatic ring conformer: 62.80151348255324 kcal/mol)

>  <smiles>  (14) 
N#Cc1c(NCc2ccc(C(F)F)nc2)sc2c1CCCC2

>  <score_type>  (14) 
oracle

>  <origin>  (14) 
adg

>  <m_score__min__energy>  (14) 
-7.4699999999999998

>  <m_primary>  (14) 
energy

$$$$
14:0
     RDKit          3D

 33 35  0  0  0  0  0  0  0  0999 V2000
   -5.3351   26.6843  -30.9586 H   0  0  0  0  0  0  0  0  0  0  0  0
   -5.0690   25.6290  -30.7990 C   0  0  0  0  0  0  0  0  0  0  0  0
   -3.8120   25.2990  -30.4210 N   0  0  0  0  0  0  0  0  0  0  0  0
   -3.4500   24.0160  -30.1660 C   0  0  0  0  0  0  0  0  0  0  0  0
   -2.1480   23.7550  -29.7220 C   0  0  0  0  0  0  0  0  0  0  0  0
   -1.4158   24.5742  -29.6695 H   0  0  0  0  0  0  0  0  0  0  0  0
   -1.7680   22.4570  -29.3430 C   0  0  0  0  0  0  0  0  0  0  0  0
   -0.4370   22.1610  -28.8800 N   0  0  0  0  0  0  0  0  0  0  0  0
    0.0750   21.3520  -29.2990 H   0  0  0  0  0  0  0  0  0  0  0  0
    0.2560   22.9430  -27.8610 C   0  0  0  0  0  0  0  0  0  0  0  0
   -0.0501   22.5975  -26.8625 H   0  0  0  0  0  0  0  0  0  0  0  0
    1.3424   22.8147  -27.9762 H   0  0  0  0  0  0  0  0  0  0  0  0
   -0.0020   24.0061  -27.9762 H   0  0  0  0  0  0  0  0  0  0  0  0
   -2.7240   21.4360  -29.3790 C   0  0  0  0  0  0  0  0  0  0  0  0
   -2.4489   20.4237  -29.0481 H   0  0  0  0  0  0  0  0  0  0  0  0
   -4.0220   21.6840  -29.8290 C   0  0  0  0  0  0  0  0  0  0  0  0
   -4.7652   20.8732  -29.8135 H   0  0  0  0  0  0  0  0  0  0  0  0
   -4.3950   22.9610  -30.3040 C   0  0  0  0  0  0  0  0  0  0  0  0
   -5.6910   23.2840  -30.8210 C   0  0  0  0  0  0  0  0  0  0  0  0
   -6.5930   22.4160  -31.2000 N   0  0  0  0  0  0  0  0  0  0  0  0
   -6.4410   21.1580  -31.8700 C   0  0  0  0  0  0  0  0  0  0  0  0
   -7.4060   20.1610  -31.6810 C   0  0  0  0  0  0  0  0  0  0  0  0
   -8.2496   20.3374  -30.9975 H   0  0  0  0  0  0  0  0  0  0  0  0
   -7.3010   18.9420  -32.3580 C   0  0  0  0  0  0  0  0  0  0  0  0
   -8.0508   18.1547  -32.1907 H   0  0  0  0  0  0  0  0  0  0  0  0
   -6.2450   18.7220  -33.2470 C   0  0  0  0  0  0  0  0  0  0  0  0
   -6.1030   17.0560  -34.1710 Br  0  0  0  0  0  0  0  0  0  0  0  0
   -5.2990   19.7290  -33.4700 C   0  0  0  0  0  0  0  0  0  0  0  0
   -4.4738   19.5603  -34.1776 H   0  0  0  0  0  0  0  0  0  0  0  0
   -5.4010   20.9490  -32.7950 C   0  0  0  0  0  0  0  0  0  0  0  0
   -4.4980   21.9290  -33.0500 F   0  0  0  0  0  0  0  0  0  0  0  0
   -6.0250   24.6360  -30.9860 C   0  0  0  0  0  0  0  0  0  0  0  0
   -7.0520   24.9137  -31.2657 H   0  0  0  0  0  0  0  0  0  0  0  0
  1  2  1  0
  2  3  1  0
  3  4  1  0
  4  5  2  0
  5  6  1  0
  5  7  1  0
  7  8  1  0
  8  9  1  0
  8 10  1  0
 10 11  1  0
 10 12  1  0
 10 13  1  0
  7 14  2  0
 14 15  1  0
 14 16  1  0
 16 17  1  0
 16 18  2  0
 18 19  1  0
 19 20  2  0
 20 21  1  0
 21 22  2  0
 22 23  1  0
 22 24  1  0
 24 25  1  0
 24 26  2  0
 26 27  1  0
 26 28  1  0
 28 29  1  0
 28 30  2  0
 30 31  1  0
 19 32  1  0
 32 33  1  0
 32  2  2  0
 18  4  1  0
 30 21  1  0
M  CHG  1   3  -1
M  END
>  <UniqueID>  (15) 
15

>  <SMILES>  (15) 
CNc1ccc2/c(=N\c3ccc(Br)cc3F)cc[n-]c2c1

>  <Energy>  (15) 
58.085079890365776

>  <Genealogy>  (15) 
CNc1ccc2c(=Nc3ccc(Br)cc3F)cc[n-]c2c1 (protonated)
CNc1ccc2/c(=N\c3ccc(Br)cc3F)cc[n-]c2c1 (cis-trans isomerization)
CNc1ccc2/c(=N\c3ccc(Br)cc3F)cc[n-]c2c1 (3D coordinates assigned)
CNc1ccc2/c(=N\c3ccc(Br)cc3F)cc[n-]c2c1 (optimized conformer: 58.085079890365776 kcal/mol)

>  <smiles>  (15) 
CNc1ccc2c(=Nc3ccc(Br)cc3F)cc[nH]c2c1

>  <score_type>  (15) 
oracle

>  <origin>  (15) 
adg

>  <m_score__min__energy>  (15) 
-9.0199999999999996

>  <m_primary>  (15) 
energy

$$$$
15:0
     RDKit          3D

 30 30  0  0  0  0  0  0  0  0999 V2000
   -2.6360   25.6020  -25.6590 C   0  0  0  0  0  0  0  0  0  0  0  0
   -2.5390   25.1560  -27.0470 N   0  0  0  0  0  0  0  0  0  0  0  0
   -1.2190   25.2130  -27.4610 O   0  0  0  0  0  0  0  0  0  0  0  0
   -0.7170   24.4210  -28.5020 C   0  0  0  0  0  0  0  0  0  0  0  0
    0.5190   24.1940  -28.5990 O   0  0  0  0  0  0  0  0  0  0  0  0
   -1.6620   23.8210  -29.4950 C   0  0  0  0  0  0  0  0  0  0  0  0
   -3.0000   24.3880  -29.3480 N   0  0  0  0  0  0  0  0  0  0  0  0
   -3.9830   24.5220  -30.3870 C   0  0  0  0  0  0  0  0  0  0  0  0
   -4.2750   25.6760  -30.7960 O   0  0  0  0  0  0  0  0  0  0  0  0
   -4.6280   23.3550  -31.0200 C   0  0  0  0  0  0  0  0  0  0  0  0
   -6.0190   23.2010  -30.9360 C   0  0  0  0  0  0  0  0  0  0  0  0
   -6.6450   22.1180  -31.5560 C   0  0  0  0  0  0  0  0  0  0  0  0
   -5.8860   21.1650  -32.2410 C   0  0  0  0  0  0  0  0  0  0  0  0
   -4.4850   21.2720  -32.2860 C   0  0  0  0  0  0  0  0  0  0  0  0
   -3.6640   20.2660  -33.0510 C   0  0  0  0  0  0  0  0  0  0  0  0
   -2.7360   20.9050  -33.8540 F   0  0  0  0  0  0  0  0  0  0  0  0
   -4.5020   19.5070  -33.8470 F   0  0  0  0  0  0  0  0  0  0  0  0
   -2.9820   19.4260  -32.1860 F   0  0  0  0  0  0  0  0  0  0  0  0
   -3.8650   22.3800  -31.6820 C   0  0  0  0  0  0  0  0  0  0  0  0
   -2.4510   24.7512  -24.9867 H   0  0  0  0  0  0  0  0  0  0  0  0
   -1.8874   26.3861  -25.4727 H   0  0  0  0  0  0  0  0  0  0  0  0
   -3.6427   26.0044  -25.4727 H   0  0  0  0  0  0  0  0  0  0  0  0
   -3.0910   25.8070  -27.6520 H   0  0  0  0  0  0  0  0  0  0  0  0
   -2.9110   24.1830  -27.1540 H   0  0  0  0  0  0  0  0  0  0  0  0
   -1.2940   24.0247  -30.5114 H   0  0  0  0  0  0  0  0  0  0  0  0
   -1.7177   22.7369  -29.3173 H   0  0  0  0  0  0  0  0  0  0  0  0
   -6.6192   23.9360  -30.3797 H   0  0  0  0  0  0  0  0  0  0  0  0
   -7.7389   22.0144  -31.5052 H   0  0  0  0  0  0  0  0  0  0  0  0
   -6.3874   20.3271  -32.7474 H   0  0  0  0  0  0  0  0  0  0  0  0
   -2.7709   22.4840  -31.7286 H   0  0  0  0  0  0  0  0  0  0  0  0
  1  2  1  0
  2  3  1  0
  3  4  1  0
  4  5  2  0
  4  6  1  0
  6  7  1  0
  7  8  1  0
  8  9  2  0
  8 10  1  0
 10 11  2  0
 11 12  1  0
 12 13  2  0
 13 14  1  0
 14 15  1  0
 15 16  1  0
 15 17  1  0
 15 18  1  0
 14 19  2  0
 19 10  1  0
  1 20  1  0
  1 21  1  0
  1 22  1  0
  2 23  1  0
  2 24  1  0
  6 25  1  0
  6 26  1  0
 11 27  1  0
 12 28  1  0
 13 29  1  0
 19 30  1  0
M  CHG  2   2   1   7  -1
M  END
>  <UniqueID>  (16) 
16

>  <SMILES>  (16) 
C[NH2+]OC(=O)C[N-]C(=O)c1cccc(C(F)(F)F)c1

>  <Energy>  (16) 
28.297965534978147

>  <Genealogy>  (16) 
C[NH2+]OC(=O)C[N-]C(=O)c1cccc(C(F)(F)F)c1 (protonated)
C[NH2+]OC(=O)C[N-]C(=O)c1cccc(C(F)(F)F)c1 (3D coordinates assigned)
C[NH2+]OC(=O)C[N-]C(=O)c1cccc(C(F)(F)F)c1 (optimized conformer: 28.297965534978147 kcal/mol)

>  <smiles>  (16) 
CNOC(=O)CNC(=O)c1cccc(C(F)(F)F)c1

>  <score_type>  (16) 
oracle

>  <origin>  (16) 
adg

>  <m_score__min__energy>  (16) 
-6.8799999999999999

>  <m_primary>  (16) 
energy

$$$$
16:0
     RDKit          3D

 41 43  0  0  0  0  0  0  0  0999 V2000
   -1.1710   19.8910  -28.7150 C   0  0  0  0  0  0  0  0  0  0  0  0
   -1.8650   20.0930  -30.0620 C   0  0  0  0  0  0  0  0  0  0  0  0
   -2.4100   21.4610  -30.1690 N   0  0  0  0  0  0  0  0  0  0  0  0
   -1.6540   22.4740  -29.6410 C   0  0  0  0  0  0  0  0  0  0  0  0
   -2.0750   23.8100  -29.6760 C   0  0  0  0  0  0  0  0  0  0  0  0
   -1.2110   24.8610  -29.0730 C   0  0  0  0  0  0  0  0  0  0  0  0
   -1.6160   26.0490  -28.9570 O   0  0  0  0  0  0  0  0  0  0  0  0
    0.0680   24.5490  -28.6260 O   0  0  0  0  0  0  0  0  0  0  0  0
   -3.3080   24.1100  -30.2830 C   0  0  0  0  0  0  0  0  0  0  0  0
   -3.7210   25.3020  -30.3250 O   0  0  0  0  0  0  0  0  0  0  0  0
   -4.0790   23.0800  -30.8510 C   0  0  0  0  0  0  0  0  0  0  0  0
   -5.3070   23.3670  -31.4790 C   0  0  0  0  0  0  0  0  0  0  0  0
   -6.0660   22.3540  -32.0600 C   0  0  0  0  0  0  0  0  0  0  0  0
   -7.2250   22.6720  -32.6860 F   0  0  0  0  0  0  0  0  0  0  0  0
   -5.6120   21.0300  -32.0300 C   0  0  0  0  0  0  0  0  0  0  0  0
   -6.3860   19.9770  -32.6300 N   0  0  0  0  0  0  0  0  0  0  0  0
   -7.5740   19.4580  -31.9320 C   0  0  0  0  0  0  0  0  0  0  0  0
   -8.0030   18.0950  -32.4930 C   0  0  0  0  0  0  0  0  0  0  0  0
   -6.7790   17.1950  -32.7010 C   0  0  0  0  0  0  0  0  0  0  0  0
   -5.7280   17.8230  -33.6450 C   0  0  0  0  0  0  0  0  0  0  0  0
   -5.9250   19.3310  -33.8650 C   0  0  0  0  0  0  0  0  0  0  0  0
   -4.3940   20.7300  -31.4030 C   0  0  0  0  0  0  0  0  0  0  0  0
   -3.6090   21.7420  -30.7970 C   0  0  0  0  0  0  0  0  0  0  0  0
   -1.8820   20.0979  -27.9015 H   0  0  0  0  0  0  0  0  0  0  0  0
   -0.8168   18.8525  -28.6371 H   0  0  0  0  0  0  0  0  0  0  0  0
   -0.3148   20.5772  -28.6371 H   0  0  0  0  0  0  0  0  0  0  0  0
   -1.1376   19.9299  -30.8709 H   0  0  0  0  0  0  0  0  0  0  0  0
   -2.6942   19.3749  -30.1435 H   0  0  0  0  0  0  0  0  0  0  0  0
   -0.6873   22.2313  -29.1755 H   0  0  0  0  0  0  0  0  0  0  0  0
   -5.6711   24.4045  -31.5109 H   0  0  0  0  0  0  0  0  0  0  0  0
   -7.3409   19.3475  -30.8627 H   0  0  0  0  0  0  0  0  0  0  0  0
   -8.4004   20.1687  -32.0802 H   0  0  0  0  0  0  0  0  0  0  0  0
   -8.6923   17.6119  -31.7848 H   0  0  0  0  0  0  0  0  0  0  0  0
   -8.5027   18.2481  -33.4609 H   0  0  0  0  0  0  0  0  0  0  0  0
   -6.3083   17.0103  -31.7241 H   0  0  0  0  0  0  0  0  0  0  0  0
   -7.1288   16.2624  -33.1679 H   0  0  0  0  0  0  0  0  0  0  0  0
   -4.7300   17.6619  -33.2113 H   0  0  0  0  0  0  0  0  0  0  0  0
   -5.8408   17.3357  -34.6247 H   0  0  0  0  0  0  0  0  0  0  0  0
   -4.9688   19.7795  -34.1725 H   0  0  0  0  0  0  0  0  0  0  0  0
   -6.6837   19.4793  -34.6475 H   0  0  0  0  0  0  0  0  0  0  0  0
   -4.0411   19.6884  -31.3812 H   0  0  0  0  0  0  0  0  0  0  0  0
  1  2  1  0
  2  3  1  0
  3  4  1  0
  4  5  2  0
  5  6  1  0
  6  7  2  0
  6  8  1  0
  5  9  1  0
  9 10  2  0
  9 11  1  0
 11 12  2  0
 12 13  1  0
 13 14  1  0
 13 15  2  0
 15 16  1  0
 16 17  1  0
 17 18  1  0
 18 19  1  0
 19 20  1  0
 20 21  1  0
 15 22  1  0
 22 23  2  0
 23  3  1  0
 23 11  1  0
 21 16  1  0
  1 24  1  0
  1 25  1  0
  1 26  1  0
  2 27  1  0
  2 28  1  0
  4 29  1  0
 12 30  1  0
 17 31  1  0
 17 32  1  0
 18 33  1  0
 18 34  1  0
 19 35  1  0
 19 36  1  0
 20 37  1  0
 20 38  1  0
 21 39  1  0
 21 40  1  0
 22 41  1  0
M  CHG  1   8  -1
M  END
>  <UniqueID>  (17) 
17

>  <SMILES>  (17) 
CCn1cc(C(=O)[O-])c(=O)c2cc(F)c(N3CCCCC3)cc21

>  <Energy>  (17) 
57.868927275162434

>  <Genealogy>  (17) 
CCn1cc(C(=O)[O-])c(=O)c2cc(F)c(N3CCCCC3)cc21 (protonated)
CCn1cc(C(=O)[O-])c(=O)c2cc(F)c(N3CCCCC3)cc21 (3D coordinates assigned)
CCn1cc(C(=O)[O-])c(=O)c2cc(F)c(N3CCCCC3)cc21 (nonaromatic ring conformer: 57.868927275162434 kcal/mol)

>  <smiles>  (17) 
CCn1cc(C(=O)O)c(=O)c2cc(F)c(N3CCCCC3)cc21

>  <score_type>  (17) 
oracle

>  <origin>  (17) 
adg

>  <m_score__min__energy>  (17) 
-10.06

>  <m_primary>  (17) 
energy

$$$$
17:0
     RDKit          3D

 33 32  0  0  0  0  0  0  0  0999 V2000
    2.3360   29.1190  -21.9020 C   0  0  0  0  0  0  0  0  0  0  0  0
    2.5730   28.1790  -23.0850 C   0  0  0  0  0  0  0  0  0  0  0  0
    1.5940   27.0780  -23.1370 N   0  0  0  0  0  0  0  0  0  0  0  0
    0.1940   27.5340  -22.9780 C   0  0  0  0  0  0  0  0  0  0  0  0
   -0.8130   26.4530  -23.4100 C   0  0  0  0  0  0  0  0  0  0  0  0
   -0.3870   25.7940  -24.7270 C   0  0  0  0  0  0  0  0  0  0  0  0
    0.5820   24.7180  -24.4720 N   0  0  0  0  0  0  0  0  0  0  0  0
    1.6460   24.6990  -25.4870 C   0  0  0  0  0  0  0  0  0  0  0  0
    3.0190   24.6560  -24.8160 C   0  0  0  0  0  0  0  0  0  0  0  0
    2.8840   24.8260  -23.3640 N   0  0  0  0  0  0  0  0  0  0  0  0
    4.1010   24.3800  -22.6860 C   0  0  0  0  0  0  0  0  0  0  0  0
    2.4753   28.5665  -20.9611 H   0  0  0  0  0  0  0  0  0  0  0  0
    3.0520   29.9528  -21.9471 H   0  0  0  0  0  0  0  0  0  0  0  0
    1.3102   29.5137  -21.9471 H   0  0  0  0  0  0  0  0  0  0  0  0
    2.5007   28.7594  -24.0166 H   0  0  0  0  0  0  0  0  0  0  0  0
    3.5710   27.7329  -22.9624 H   0  0  0  0  0  0  0  0  0  0  0  0
    1.7280   26.5290  -24.0180 H   0  0  0  0  0  0  0  0  0  0  0  0
    1.8180   26.4300  -22.3460 H   0  0  0  0  0  0  0  0  0  0  0  0
    0.0184   27.7818  -21.9208 H   0  0  0  0  0  0  0  0  0  0  0  0
    0.0466   28.4144  -23.6208 H   0  0  0  0  0  0  0  0  0  0  0  0
   -0.8718   25.6835  -22.6262 H   0  0  0  0  0  0  0  0  0  0  0  0
   -1.7931   26.9294  -23.5597 H   0  0  0  0  0  0  0  0  0  0  0  0
   -1.2730   25.3733  -25.2249 H   0  0  0  0  0  0  0  0  0  0  0  0
    0.0834   26.5527  -25.3698 H   0  0  0  0  0  0  0  0  0  0  0  0
    1.0350   24.9100  -23.5470 H   0  0  0  0  0  0  0  0  0  0  0  0
    1.5249   23.8097  -26.1229 H   0  0  0  0  0  0  0  0  0  0  0  0
    1.5745   25.6114  -26.0973 H   0  0  0  0  0  0  0  0  0  0  0  0
    3.4944   23.6863  -25.0248 H   0  0  0  0  0  0  0  0  0  0  0  0
    3.6373   25.4735  -25.2152 H   0  0  0  0  0  0  0  0  0  0  0  0
    2.1000   24.2140  -23.0360 H   0  0  0  0  0  0  0  0  0  0  0  0
    3.9547   24.4336  -21.5971 H   0  0  0  0  0  0  0  0  0  0  0  0
    4.3227   23.3422  -22.9755 H   0  0  0  0  0  0  0  0  0  0  0  0
    4.9408   25.0288  -22.9755 H   0  0  0  0  0  0  0  0  0  0  0  0
  1  2  1  0
  2  3  1  0
  3  4  1  0
  4  5  1  0
  5  6  1  0
  6  7  1  0
  7  8  1  0
  8  9  1  0
  9 10  1  0
 10 11  1  0
  1 12  1  0
  1 13  1  0
  1 14  1  0
  2 15  1  0
  2 16  1  0
  3 17  1  0
  3 18  1  0
  4 19  1  0
  4 20  1  0
  5 21  1  0
  5 22  1  0
  6 23  1  0
  6 24  1  0
  7 25  1  0
  8 26  1  0
  8 27  1  0
  9 28  1  0
  9 29  1  0
 10 30  1  0
 11 31  1  0
 11 32  1  0
 11 33  1  0
M  CHG  1   3   1
M  END
>  <UniqueID>  (18) 
18

>  <SMILES>  (18) 
CC[NH2+]CCCNCCNC

>  <Energy>  (18) 
19.9809486185421

>  <Genealogy>  (18) 
CC[NH2+]CCCNCCNC (protonated)
CC[NH2+]CCCNCCNC (3D coordinates assigned)
CC[NH2+]CCCNCCNC (optimized conformer: 19.9809486185421 kcal/mol)

>  <smiles>  (18) 
CCNCCCNCCNC

>  <score_type>  (18) 
oracle

>  <origin>  (18) 
adg

>  <m_score__min__energy>  (18) 
-3.21

>  <m_primary>  (18) 
energy

$$$$
18:0
     RDKit          3D

 62 66  0  0  0  0  0  0  0  0999 V2000
   -1.2330   25.0330  -28.9510 C   0  0  0  0  0  0  0  0  0  0  0  0
   -1.9170   23.9460  -29.5620 O   0  0  0  0  0  0  0  0  0  0  0  0
   -2.1520   22.7060  -28.9490 C   0  0  0  0  0  0  0  0  0  0  0  0
   -1.7510   22.4350  -27.6270 C   0  0  0  0  0  0  0  0  0  0  0  0
   -2.0090   21.1870  -27.0550 C   0  0  0  0  0  0  0  0  0  0  0  0
   -2.6630   20.1980  -27.7950 C   0  0  0  0  0  0  0  0  0  0  0  0
   -3.0610   20.4560  -29.1070 C   0  0  0  0  0  0  0  0  0  0  0  0
   -2.8110   21.7060  -29.6870 C   0  0  0  0  0  0  0  0  0  0  0  0
   -3.2540   21.9770  -31.0210 N   0  0  0  0  0  0  0  0  0  0  0  0
   -2.9040   21.3190  -32.1450 C   0  0  0  0  0  0  0  0  0  0  0  0
   -1.6460   20.0460  -32.2300 S   0  0  0  0  0  0  0  0  0  0  0  0
   -2.1170   19.5530  -33.9240 C   0  0  0  0  0  0  0  0  0  0  0  0
   -1.5200   18.1920  -34.2930 C   0  0  0  0  0  0  0  0  0  0  0  0
   -2.1870   16.9730  -33.6170 C   0  0  0  0  0  0  0  0  0  0  0  0
   -3.6410   16.7880  -33.8310 N   0  0  0  0  0  0  0  0  0  0  0  0
   -4.2130   17.1420  -35.1390 C   0  0  0  0  0  0  0  0  0  0  0  0
   -5.6800   17.4900  -34.9170 C   0  0  1  0  0  0  0  0  0  0  0  0
   -6.5340   16.4630  -34.1820 C   0  0  0  0  0  0  0  0  0  0  0  0
   -5.8580   17.5970  -33.4180 C   0  0  2  0  0  0  0  0  0  0  0  0
   -6.7070   18.7410  -32.9300 C   0  0  0  0  0  0  0  0  0  0  0  0
   -6.3200   20.0710  -33.1560 C   0  0  0  0  0  0  0  0  0  0  0  0
   -7.0900   21.1230  -32.6540 C   0  0  0  0  0  0  0  0  0  0  0  0
   -8.2470   20.8650  -31.9010 C   0  0  0  0  0  0  0  0  0  0  0  0
   -9.0280   22.0200  -31.3240 C   0  0  0  0  0  0  0  0  0  0  0  0
   -8.2410   22.6890  -30.4040 F   0  0  0  0  0  0  0  0  0  0  0  0
  -10.1810   21.5920  -30.6940 F   0  0  0  0  0  0  0  0  0  0  0  0
   -9.3800   22.8980  -32.3350 F   0  0  0  0  0  0  0  0  0  0  0  0
   -8.6150   19.5340  -31.6530 C   0  0  0  0  0  0  0  0  0  0  0  0
   -7.8530   18.4790  -32.1660 C   0  0  0  0  0  0  0  0  0  0  0  0
   -4.5110   17.3140  -32.7750 C   0  0  0  0  0  0  0  0  0  0  0  0
   -3.6210   21.7310  -33.2070 N   0  0  0  0  0  0  0  0  0  0  0  0
   -4.4460   22.6610  -32.7520 N   0  0  0  0  0  0  0  0  0  0  0  0
   -4.2250   22.8160  -31.4340 C   0  0  0  0  0  0  0  0  0  0  0  0
   -5.0680   23.6710  -30.5360 C   0  0  0  0  0  0  0  0  0  0  0  0
   -4.3500   24.7970  -30.1750 F   0  0  0  0  0  0  0  0  0  0  0  0
   -6.2220   24.0590  -31.1910 F   0  0  0  0  0  0  0  0  0  0  0  0
   -5.4170   22.9690  -29.3970 F   0  0  0  0  0  0  0  0  0  0  0  0
   -1.2939   24.9361  -27.8570 H   0  0  0  0  0  0  0  0  0  0  0  0
   -0.1778   25.0235  -29.2617 H   0  0  0  0  0  0  0  0  0  0  0  0
   -1.6982   25.9801  -29.2617 H   0  0  0  0  0  0  0  0  0  0  0  0
   -1.2325   23.2090  -27.0422 H   0  0  0  0  0  0  0  0  0  0  0  0
   -1.6969   20.9822  -26.0203 H   0  0  0  0  0  0  0  0  0  0  0  0
   -2.8640   19.2157  -27.3427 H   0  0  0  0  0  0  0  0  0  0  0  0
   -3.5730   19.6748  -29.6880 H   0  0  0  0  0  0  0  0  0  0  0  0
   -3.2135   19.4927  -33.9880 H   0  0  0  0  0  0  0  0  0  0  0  0
   -1.7273   20.3051  -34.6258 H   0  0  0  0  0  0  0  0  0  0  0  0
   -1.6076   18.0666  -35.3823 H   0  0  0  0  0  0  0  0  0  0  0  0
   -0.4806   18.2082  -33.9333 H   0  0  0  0  0  0  0  0  0  0  0  0
   -1.6808   16.0704  -33.9900 H   0  0  0  0  0  0  0  0  0  0  0  0
   -2.0818   17.1565  -32.5375 H   0  0  0  0  0  0  0  0  0  0  0  0
   -3.6809   18.0079  -35.5599 H   0  0  0  0  0  0  0  0  0  0  0  0
   -4.1156   16.3038  -35.8447 H   0  0  0  0  0  0  0  0  0  0  0  0
   -5.8769   18.0645  -35.8341 H   0  0  0  0  0  0  0  0  0  0  0  0
   -7.6263   16.4599  -34.3118 H   0  0  0  0  0  0  0  0  0  0  0  0
   -6.5420   15.3657  -34.1050 H   0  0  0  0  0  0  0  0  0  0  0  0
   -5.4069   20.2859  -33.7306 H   0  0  0  0  0  0  0  0  0  0  0  0
   -6.7875   22.1622  -32.8502 H   0  0  0  0  0  0  0  0  0  0  0  0
   -9.5097   19.3184  -31.0505 H   0  0  0  0  0  0  0  0  0  0  0  0
   -8.1542   17.4395  -31.9692 H   0  0  0  0  0  0  0  0  0  0  0  0
   -4.0866   18.2406  -32.3610 H   0  0  0  0  0  0  0  0  0  0  0  0
   -4.6106   16.5936  -31.9497 H   0  0  0  0  0  0  0  0  0  0  0  0
   -5.1600   23.1520  -33.3340 H   0  0  0  0  0  0  0  0  0  0  0  0
  1  2  1  0
  2  3  1  0
  3  4  2  0
  4  5  1  0
  5  6  2  0
  6  7  1  0
  7  8  2  0
  8  9  1  0
  9 10  1  0
 10 11  1  0
 11 12  1  0
 12 13  1  0
 13 14  1  0
 14 15  1  0
 15 16  1  0
 16 17  1  0
 17 18  1  0
 18 19  1  0
 19 20  1  6
 20 21  2  0
 21 22  1  0
 22 23  2  0
 23 24  1  0
 24 25  1  0
 24 26  1  0
 24 27  1  0
 23 28  1  0
 28 29  2  0
 19 30  1  0
 10 31  2  0
 31 32  1  0
 32 33  2  0
 33 34  1  0
 34 35  1  0
 34 36  1  0
 34 37  1  0
  8  3  1  0
 33  9  1  0
 30 15  1  0
 19 17  1  0
 29 20  1  0
  1 38  1  0
  1 39  1  0
  1 40  1  0
  4 41  1  0
  5 42  1  0
  6 43  1  0
  7 44  1  0
 12 45  1  0
 12 46  1  0
 13 47  1  0
 13 48  1  0
 14 49  1  0
 14 50  1  0
 16 51  1  0
 16 52  1  0
 17 53  1  6
 18 54  1  0
 18 55  1  0
 21 56  1  0
 22 57  1  0
 28 58  1  0
 29 59  1  0
 30 60  1  0
 30 61  1  0
 32 62  1  0
M  CHG  1  32   1
M  END
>  <UniqueID>  (19) 
19

>  <SMILES>  (19) 
COc1ccccc1-n1c(SCCCN2C[C@H]3C[C@@]3(c3ccc(C(F)(F)F)cc3)C2)n[nH+]c1C(F)(F)F

>  <Energy>  (19) 
378.0504687866332

>  <Genealogy>  (19) 
COc1ccccc1-n1c(SCCCN2CC3CC3(c3ccc(C(F)(F)F)cc3)C2)n[nH+]c1C(F)(F)F (protonated)
COc1ccccc1-n1c(SCCCN2C[C@H]3C[C@@]3(c3ccc(C(F)(F)F)cc3)C2)n[nH+]c1C(F)(F)F (chirality)
COc1ccccc1-n1c(SCCCN2C[C@H]3C[C@@]3(c3ccc(C(F)(F)F)cc3)C2)n[nH+]c1C(F)(F)F (3D coordinates assigned)
COc1ccccc1-n1c(SCCCN2C[C@H]3C[C@@]3(c3ccc(C(F)(F)F)cc3)C2)n[nH+]c1C(F)(F)F (nonaromatic ring conformer: 378.0504687866332 kcal/mol)

>  <smiles>  (19) 
COc1ccccc1-n1c(SCCCN2CC3CC3(c3ccc(C(F)(F)F)cc3)C2)nnc1C(F)(F)F

>  <score_type>  (19) 
oracle

>  <origin>  (19) 
adg

>  <m_score__min__energy>  (19) 
-8.7100000000000009

>  <m_primary>  (19) 
energy

$$$$
19:0
     RDKit          3D

 59 60  0  0  0  0  0  0  0  0999 V2000
   -1.6550   25.3380  -27.5420 C   0  0  0  0  0  0  0  0  0  0  0  0
   -2.0010   25.3460  -28.9230 O   0  0  0  0  0  0  0  0  0  0  0  0
   -2.4340   24.2220  -29.6430 C   0  0  0  0  0  0  0  0  0  0  0  0
   -1.7660   22.9850  -29.5690 C   0  0  0  0  0  0  0  0  0  0  0  0
   -2.2300   21.8880  -30.2990 C   0  0  0  0  0  0  0  0  0  0  0  0
   -3.3470   22.0130  -31.1350 C   0  0  0  0  0  0  0  0  0  0  0  0
   -3.8360   20.8310  -31.9360 C   0  0  0  0  0  0  0  0  0  0  0  0
   -3.7540   21.0770  -33.4530 C   0  0  0  0  0  0  0  0  0  0  0  0
   -2.6990   20.2600  -34.0790 N   0  0  0  0  0  0  0  0  0  0  0  0
   -1.4980   20.1230  -33.2330 C   0  0  0  0  0  0  0  0  0  0  0  0
   -1.2280   18.6860  -32.7300 C   0  0  0  0  0  0  0  0  0  0  0  0
   -1.7100   17.5560  -33.6570 C   0  0  0  0  0  0  0  0  0  0  0  0
   -3.2050   17.2450  -33.5260 C   0  0  0  0  0  0  0  0  0  0  0  0
   -3.8340   17.3300  -34.8540 N   0  0  0  0  0  0  0  0  0  0  0  0
   -5.0970   18.0860  -34.8260 C   0  0  0  0  0  0  0  0  0  0  0  0
   -6.0940   17.4440  -33.8490 C   0  0  0  0  0  0  0  0  0  0  0  0
   -6.8990   18.4910  -33.1240 C   0  0  0  0  0  0  0  0  0  0  0  0
   -6.6670   19.8550  -33.3690 C   0  0  0  0  0  0  0  0  0  0  0  0
   -7.4310   20.8270  -32.7170 C   0  0  0  0  0  0  0  0  0  0  0  0
   -8.4400   20.4460  -31.8260 C   0  0  0  0  0  0  0  0  0  0  0  0
   -9.3900   21.6690  -31.0000 Cl  0  0  0  0  0  0  0  0  0  0  0  0
   -8.6830   19.0910  -31.5850 C   0  0  0  0  0  0  0  0  0  0  0  0
   -7.9170   18.1180  -32.2310 C   0  0  0  0  0  0  0  0  0  0  0  0
   -4.0150   23.2450  -31.2070 C   0  0  0  0  0  0  0  0  0  0  0  0
   -3.5750   24.3470  -30.4490 C   0  0  0  0  0  0  0  0  0  0  0  0
   -4.2450   25.5800  -30.4670 O   0  0  0  0  0  0  0  0  0  0  0  0
   -5.6490   25.7390  -30.2840 C   0  0  0  0  0  0  0  0  0  0  0  0
   -2.5716   25.3592  -26.9342 H   0  0  0  0  0  0  0  0  0  0  0  0
   -1.0838   24.4264  -27.3124 H   0  0  0  0  0  0  0  0  0  0  0  0
   -1.0423   26.2222  -27.3124 H   0  0  0  0  0  0  0  0  0  0  0  0
   -0.8743   22.8817  -28.9332 H   0  0  0  0  0  0  0  0  0  0  0  0
   -1.7148   20.9196  -30.2168 H   0  0  0  0  0  0  0  0  0  0  0  0
   -3.2191   19.9552  -31.6861 H   0  0  0  0  0  0  0  0  0  0  0  0
   -4.8928   20.6656  -31.6793 H   0  0  0  0  0  0  0  0  0  0  0  0
   -4.7217   20.8208  -33.9090 H   0  0  0  0  0  0  0  0  0  0  0  0
   -3.5109   22.1372  -33.6169 H   0  0  0  0  0  0  0  0  0  0  0  0
   -3.0730   19.3170  -34.3250 H   0  0  0  0  0  0  0  0  0  0  0  0
   -2.3960   20.7210  -34.9700 H   0  0  0  0  0  0  0  0  0  0  0  0
   -0.6264   20.4516  -33.8181 H   0  0  0  0  0  0  0  0  0  0  0  0
   -1.6733   20.7394  -32.3390 H   0  0  0  0  0  0  0  0  0  0  0  0
   -0.1422   18.5731  -32.5949 H   0  0  0  0  0  0  0  0  0  0  0  0
   -1.8052   18.5792  -31.7997 H   0  0  0  0  0  0  0  0  0  0  0  0
   -1.5066   17.8501  -34.6973 H   0  0  0  0  0  0  0  0  0  0  0  0
   -1.1661   16.6461  -33.3632 H   0  0  0  0  0  0  0  0  0  0  0  0
   -3.3359   16.2307  -33.1209 H   0  0  0  0  0  0  0  0  0  0  0  0
   -3.6758   17.9706  -32.8464 H   0  0  0  0  0  0  0  0  0  0  0  0
   -3.1700   17.8200  -35.4970 H   0  0  0  0  0  0  0  0  0  0  0  0
   -4.8926   19.1185  -34.5064 H   0  0  0  0  0  0  0  0  0  0  0  0
   -5.5359   18.0779  -35.8346 H   0  0  0  0  0  0  0  0  0  0  0  0
   -6.7780   16.7917  -34.4117 H   0  0  0  0  0  0  0  0  0  0  0  0
   -5.5278   16.8639  -33.1054 H   0  0  0  0  0  0  0  0  0  0  0  0
   -5.8814   20.1589  -34.0764 H   0  0  0  0  0  0  0  0  0  0  0  0
   -7.2385   21.8936  -32.9048 H   0  0  0  0  0  0  0  0  0  0  0  0
   -9.4778   18.7907  -30.8863 H   0  0  0  0  0  0  0  0  0  0  0  0
   -8.1122   17.0526  -32.0392 H   0  0  0  0  0  0  0  0  0  0  0  0
   -4.8918   23.3510  -31.8627 H   0  0  0  0  0  0  0  0  0  0  0  0
   -5.8780   25.7649  -29.2084 H   0  0  0  0  0  0  0  0  0  0  0  0
   -5.9754   26.6799  -30.7512 H   0  0  0  0  0  0  0  0  0  0  0  0
   -6.1776   24.8950  -30.7512 H   0  0  0  0  0  0  0  0  0  0  0  0
  1  2  1  0
  2  3  1  0
  3  4  2  0
  4  5  1  0
  5  6  2  0
  6  7  1  0
  7  8  1  0
  8  9  1  0
  9 10  1  0
 10 11  1  0
 11 12  1  0
 12 13  1  0
 13 14  1  0
 14 15  1  0
 15 16  1  0
 16 17  1  0
 17 18  2  0
 18 19  1  0
 19 20  2  0
 20 21  1  0
 20 22  1  0
 22 23  2  0
  6 24  1  0
 24 25  2  0
 25 26  1  0
 26 27  1  0
 25  3  1  0
 23 17  1  0
  1 28  1  0
  1 29  1  0
  1 30  1  0
  4 31  1  0
  5 32  1  0
  7 33  1  0
  7 34  1  0
  8 35  1  0
  8 36  1  0
  9 37  1  0
  9 38  1  0
 10 39  1  0
 10 40  1  0
 11 41  1  0
 11 42  1  0
 12 43  1  0
 12 44  1  0
 13 45  1  0
 13 46  1  0
 14 47  1  0
 15 48  1  0
 15 49  1  0
 16 50  1  0
 16 51  1  0
 18 52  1  0
 19 53  1  0
 22 54  1  0
 23 55  1  0
 24 56  1  0
 27 57  1  0
 27 58  1  0
 27 59  1  0
M  CHG  1   9   1
M  END
>  <UniqueID>  (20) 
20

>  <SMILES>  (20) 
COc1ccc(CC[NH2+]CCCCNCCc2ccc(Cl)cc2)cc1OC

>  <Energy>  (20) 
42.57828794604047

>  <Genealogy>  (20) 
COc1ccc(CC[NH2+]CCCCNCCc2ccc(Cl)cc2)cc1OC (protonated)
COc1ccc(CC[NH2+]CCCCNCCc2ccc(Cl)cc2)cc1OC (3D coordinates assigned)
COc1ccc(CC[NH2+]CCCCNCCc2ccc(Cl)cc2)cc1OC (optimized conformer: 42.57828794604047 kcal/mol)

>  <smiles>  (20) 
COc1ccc(CCNCCCCNCCc2ccc(Cl)cc2)cc1OC

>  <score_type>  (20) 
oracle

>  <origin>  (20) 
adg

>  <m_score__min__energy>  (20) 
-8.0199999999999996

>  <m_primary>  (20) 
energy

$$$$
20:0
     RDKit          3D

 49 52  0  0  0  0  0  0  0  0999 V2000
   -1.1310   23.9860  -29.3160 C   0  0  0  0  0  0  0  0  0  0  0  0
   -2.5860   23.9720  -29.6670 C   0  0  0  0  0  0  0  0  0  0  0  0
   -3.3790   25.0690  -29.6120 N   0  0  0  0  0  0  0  0  0  0  0  0
   -4.6040   24.6550  -29.9820 C   0  0  0  0  0  0  0  0  0  0  0  0
   -5.7620   25.4250  -30.0710 C   0  0  0  0  0  0  0  0  0  0  0  0
   -6.9500   24.7840  -30.4710 C   0  0  0  0  0  0  0  0  0  0  0  0
   -6.9510   23.4030  -30.7670 C   0  0  0  0  0  0  0  0  0  0  0  0
   -5.7670   22.6510  -30.6670 C   0  0  0  0  0  0  0  0  0  0  0  0
   -4.6060   23.3140  -30.2710 C   0  0  0  0  0  0  0  0  0  0  0  0
   -3.3180   22.8550  -30.0760 C   0  0  0  0  0  0  0  0  0  0  0  0
   -2.8330   21.4400  -30.2340 C   0  0  0  0  0  0  0  0  0  0  0  0
   -2.2160   21.2370  -31.5610 N   0  0  0  0  0  0  0  0  0  0  0  0
   -1.4960   19.9400  -31.6340 C   0  0  0  0  0  0  0  0  0  0  0  0
   -2.3160   18.8620  -32.3570 C   0  0  0  0  0  0  0  0  0  0  0  0
   -2.6120   19.2500  -33.7590 N   0  0  0  0  0  0  0  0  0  0  0  0
   -3.7890   18.5220  -34.2810 C   0  0  0  0  0  0  0  0  0  0  0  0
   -5.0180   18.8250  -33.4620 C   0  0  0  0  0  0  0  0  0  0  0  0
   -5.3680   18.0130  -32.3700 C   0  0  0  0  0  0  0  0  0  0  0  0
   -6.5240   18.2850  -31.6330 C   0  0  0  0  0  0  0  0  0  0  0  0
   -7.3400   19.3650  -31.9810 C   0  0  0  0  0  0  0  0  0  0  0  0
   -7.0010   20.1740  -33.0700 C   0  0  0  0  0  0  0  0  0  0  0  0
   -5.8470   19.9040  -33.8110 C   0  0  0  0  0  0  0  0  0  0  0  0
   -2.7570   20.7170  -33.9410 C   0  0  0  0  0  0  0  0  0  0  0  0
   -3.2060   21.4180  -32.6510 C   0  0  0  0  0  0  0  0  0  0  0  0
   -1.0178   23.9871  -28.2218 H   0  0  0  0  0  0  0  0  0  0  0  0
   -0.6443   23.0925  -29.7341 H   0  0  0  0  0  0  0  0  0  0  0  0
   -0.6616   24.8887  -29.7341 H   0  0  0  0  0  0  0  0  0  0  0  0
   -3.1000   26.0360  -29.3350 H   0  0  0  0  0  0  0  0  0  0  0  0
   -5.7484   26.4996  -29.8362 H   0  0  0  0  0  0  0  0  0  0  0  0
   -7.8824   25.3618  -30.5534 H   0  0  0  0  0  0  0  0  0  0  0  0
   -7.8849   22.9120  -31.0781 H   0  0  0  0  0  0  0  0  0  0  0  0
   -5.7570   21.5747  -30.8938 H   0  0  0  0  0  0  0  0  0  0  0  0
   -2.0874   21.2261  -29.4541 H   0  0  0  0  0  0  0  0  0  0  0  0
   -3.6940   20.7618  -30.1403 H   0  0  0  0  0  0  0  0  0  0  0  0
   -0.5508   20.0895  -32.1764 H   0  0  0  0  0  0  0  0  0  0  0  0
   -1.3165   19.5947  -30.6051 H   0  0  0  0  0  0  0  0  0  0  0  0
   -1.7457   17.9214  -32.3596 H   0  0  0  0  0  0  0  0  0  0  0  0
   -3.2708   18.7407  -31.8244 H   0  0  0  0  0  0  0  0  0  0  0  0
   -3.9671   18.8260  -35.3230 H   0  0  0  0  0  0  0  0  0  0  0  0
   -3.5871   17.4422  -34.2240 H   0  0  0  0  0  0  0  0  0  0  0  0
   -4.7301   17.1604  -32.0942 H   0  0  0  0  0  0  0  0  0  0  0  0
   -6.7921   17.6478  -30.7774 H   0  0  0  0  0  0  0  0  0  0  0  0
   -8.2484   19.5785  -31.3986 H   0  0  0  0  0  0  0  0  0  0  0  0
   -7.6433   21.0240  -33.3439 H   0  0  0  0  0  0  0  0  0  0  0  0
   -5.5870   20.5389  -34.6708 H   0  0  0  0  0  0  0  0  0  0  0  0
   -1.7874   21.1333  -34.2517 H   0  0  0  0  0  0  0  0  0  0  0  0
   -3.5289   20.8885  -34.7057 H   0  0  0  0  0  0  0  0  0  0  0  0
   -3.3247   22.4931  -32.8511 H   0  0  0  0  0  0  0  0  0  0  0  0
   -4.1587   20.9720  -32.3295 H   0  0  0  0  0  0  0  0  0  0  0  0
  1  2  1  0
  2  3  1  0
  3  4  1  0
  4  5  2  0
  5  6  1  0
  6  7  2  0
  7  8  1  0
  8  9  2  0
  9 10  1  0
 10 11  1  0
 11 12  1  0
 12 13  1  0
 13 14  1  0
 14 15  1  0
 15 16  1  0
 16 17  1  0
 17 18  2  0
 18 19  1  0
 19 20  2  0
 20 21  1  0
 21 22  2  0
 15 23  1  0
 23 24  1  0
 10  2  2  0
 24 12  1  0
  9  4  1  0
 22 17  1  0
  1 25  1  0
  1 26  1  0
  1 27  1  0
  3 28  1  0
  5 29  1  0
  6 30  1  0
  7 31  1  0
  8 32  1  0
 11 33  1  0
 11 34  1  0
 13 35  1  0
 13 36  1  0
 14 37  1  0
 14 38  1  0
 16 39  1  0
 16 40  1  0
 18 41  1  0
 19 42  1  0
 20 43  1  0
 21 44  1  0
 22 45  1  0
 23 46  1  0
 23 47  1  0
 24 48  1  0
 24 49  1  0
M  END
>  <UniqueID>  (21) 
21

>  <SMILES>  (21) 
Cc1[nH]c2ccccc2c1CN1CCN(Cc2ccccc2)CC1

>  <Energy>  (21) 
95.98372165130739

>  <Genealogy>  (21) 
Cc1[nH]c2ccccc2c1CN1CCN(Cc2ccccc2)CC1 (3D coordinates assigned)
Cc1[nH]c2ccccc2c1CN1CCN(Cc2ccccc2)CC1 (nonaromatic ring conformer: 95.98372165130739 kcal/mol)

>  <smiles>  (21) 
Cc1[nH]c2ccccc2c1CN1CCN(Cc2ccccc2)CC1

>  <score_type>  (21) 
oracle

>  <origin>  (21) 
adg

>  <m_score__min__energy>  (21) 
-8.1999999999999993

>  <m_primary>  (21) 
energy

$$$$
21:0
     RDKit          3D

 53 56  0  0  0  0  0  0  0  0999 V2000
   -0.5240   25.3950  -27.1560 C   0  0  0  0  0  0  0  0  0  0  0  0
   -0.2260   24.9180  -28.4650 O   0  0  0  0  0  0  0  0  0  0  0  0
   -0.9830   23.9550  -29.1490 C   0  0  0  0  0  0  0  0  0  0  0  0
   -0.4140   22.7740  -29.6600 C   0  0  0  0  0  0  0  0  0  0  0  0
   -1.2070   21.8420  -30.3330 C   0  0  0  0  0  0  0  0  0  0  0  0
   -2.5800   22.0770  -30.5090 C   0  0  0  0  0  0  0  0  0  0  0  0
   -3.3830   21.1400  -31.1640 C   0  0  0  0  0  0  0  0  0  0  0  0
   -4.7630   21.3680  -31.3440 C   0  0  0  0  0  0  0  0  0  0  0  0
   -5.5740   20.3970  -31.9600 C   0  0  0  0  0  0  0  0  0  0  0  0
   -4.9980   19.1880  -32.4770 N   0  0  0  0  0  0  0  0  0  0  0  0
   -4.5160   19.1380  -33.8570 C   0  0  0  0  0  0  0  0  0  0  0  0
   -4.7480   17.7600  -34.4990 C   0  0  0  0  0  0  0  0  0  0  0  0
   -5.3450   16.8070  -33.5360 N   0  0  0  0  0  0  0  0  0  0  0  0
   -4.6220   15.5250  -33.5780 C   0  0  0  0  0  0  0  0  0  0  0  0
   -6.7700   16.5700  -33.8270 C   0  0  0  0  0  0  0  0  0  0  0  0
   -6.9650   20.5880  -32.0050 C   0  0  0  0  0  0  0  0  0  0  0  0
   -7.8140   19.5870  -32.5250 C   0  0  0  0  0  0  0  0  0  0  0  0
   -9.1960   19.7560  -32.5240 C   0  0  0  0  0  0  0  0  0  0  0  0
   -9.7550   20.9150  -31.9980 C   0  0  0  0  0  0  0  0  0  0  0  0
   -8.9350   21.9260  -31.4990 C   0  0  0  0  0  0  0  0  0  0  0  0
   -7.5220   21.8030  -31.5260 C   0  0  0  0  0  0  0  0  0  0  0  0
   -6.6930   22.8200  -31.0910 N   0  0  0  0  0  0  0  0  0  0  0  0
   -7.2390   24.1790  -30.8800 C   0  0  0  0  0  0  0  0  0  0  0  0
   -5.3480   22.5740  -30.8780 C   0  0  0  0  0  0  0  0  0  0  0  0
   -4.5250   23.4930  -30.1790 C   0  0  0  0  0  0  0  0  0  0  0  0
   -3.1550   23.2580  -30.0040 C   0  0  0  0  0  0  0  0  0  0  0  0
   -2.3510   24.1870  -29.3240 C   0  0  0  0  0  0  0  0  0  0  0  0
   -0.0958   24.7096  -26.4097 H   0  0  0  0  0  0  0  0  0  0  0  0
   -0.0914   26.3977  -27.0238 H   0  0  0  0  0  0  0  0  0  0  0  0
   -1.6148   25.4460  -27.0238 H   0  0  0  0  0  0  0  0  0  0  0  0
    0.6614   22.5837  -29.5287 H   0  0  0  0  0  0  0  0  0  0  0  0
   -0.7541   20.9201  -30.7268 H   0  0  0  0  0  0  0  0  0  0  0  0
   -2.9326   20.2114  -31.5446 H   0  0  0  0  0  0  0  0  0  0  0  0
   -5.1350   18.3080  -31.9300 H   0  0  0  0  0  0  0  0  0  0  0  0
   -5.0484   19.8987  -34.4468 H   0  0  0  0  0  0  0  0  0  0  0  0
   -3.4328   19.3293  -33.8456 H   0  0  0  0  0  0  0  0  0  0  0  0
   -5.4275   17.8748  -35.3563 H   0  0  0  0  0  0  0  0  0  0  0  0
   -3.7750   17.3610  -34.8216 H   0  0  0  0  0  0  0  0  0  0  0  0
   -4.4274   15.1800  -32.5518 H   0  0  0  0  0  0  0  0  0  0  0  0
   -5.2315   14.7774  -34.1068 H   0  0  0  0  0  0  0  0  0  0  0  0
   -3.6669   15.6598  -34.1068 H   0  0  0  0  0  0  0  0  0  0  0  0
   -7.3266   16.4774  -32.8827 H   0  0  0  0  0  0  0  0  0  0  0  0
   -7.1709   17.4138  -34.4077 H   0  0  0  0  0  0  0  0  0  0  0  0
   -6.8762   15.6419  -34.4077 H   0  0  0  0  0  0  0  0  0  0  0  0
   -7.3790   18.6637  -32.9353 H   0  0  0  0  0  0  0  0  0  0  0  0
   -9.8459   18.9719  -32.9397 H   0  0  0  0  0  0  0  0  0  0  0  0
  -10.8482   21.0348  -31.9754 H   0  0  0  0  0  0  0  0  0  0  0  0
   -9.3911   22.8339  -31.0775 H   0  0  0  0  0  0  0  0  0  0  0  0
   -7.3192   24.3785  -29.8012 H   0  0  0  0  0  0  0  0  0  0  0  0
   -6.5685   24.9192  -31.3410 H   0  0  0  0  0  0  0  0  0  0  0  0
   -8.2353   24.2495  -31.3410 H   0  0  0  0  0  0  0  0  0  0  0  0
   -4.9714   24.4094  -29.7656 H   0  0  0  0  0  0  0  0  0  0  0  0
   -2.8021   25.1073  -28.9246 H   0  0  0  0  0  0  0  0  0  0  0  0
  1  2  1  0
  2  3  1  0
  3  4  2  0
  4  5  1  0
  5  6  2  0
  6  7  1  0
  7  8  2  0
  8  9  1  0
  9 10  1  0
 10 11  1  0
 11 12  1  0
 12 13  1  0
 13 14  1  0
 13 15  1  0
  9 16  2  0
 16 17  1  0
 17 18  2  0
 18 19  1  0
 19 20  2  0
 20 21  1  0
 21 22  2  0
 22 23  1  0
 22 24  1  0
 24 25  2  0
 25 26  1  0
 26 27  2  0
 27  3  1  0
 26  6  1  0
 24  8  1  0
 21 16  1  0
  1 28  1  0
  1 29  1  0
  1 30  1  0
  4 31  1  0
  5 32  1  0
  7 33  1  0
 10 34  1  0
 11 35  1  0
 11 36  1  0
 12 37  1  0
 12 38  1  0
 14 39  1  0
 14 40  1  0
 14 41  1  0
 15 42  1  0
 15 43  1  0
 15 44  1  0
 17 45  1  0
 18 46  1  0
 19 47  1  0
 20 48  1  0
 23 49  1  0
 23 50  1  0
 23 51  1  0
 25 52  1  0
 27 53  1  0
M  CHG  1  22   1
M  END
>  <UniqueID>  (22) 
22

>  <SMILES>  (22) 
COc1ccc2cc3c(NCCN(C)C)c4ccccc4[n+](C)c3cc2c1

>  <Energy>  (22) 
85.58608760961863

>  <Genealogy>  (22) 
COc1ccc2cc3c(NCCN(C)C)c4ccccc4[n+](C)c3cc2c1 (3D coordinates assigned)
COc1ccc2cc3c(NCCN(C)C)c4ccccc4[n+](C)c3cc2c1 (optimized conformer: 85.58608760961863 kcal/mol)

>  <smiles>  (22) 
COc1ccc2cc3c(NCCN(C)C)c4ccccc4[n+](C)c3cc2c1

>  <score_type>  (22) 
oracle

>  <origin>  (22) 
adg

>  <m_score__min__energy>  (22) 
-8.8399999999999999

>  <m_primary>  (22) 
energy

$$$$
22:0
     RDKit          3D

 53 56  0  0  0  0  0  0  0  0999 V2000
    0.2700   20.7820  -36.1050 C   0  0  0  0  0  0  0  0  0  0  0  0
    0.6890   21.8430  -35.0890 C   0  0  0  0  0  0  0  0  0  0  0  0
    0.6450   21.3160  -33.7100 N   0  0  0  0  0  0  0  0  0  0  0  0
    1.1640   19.9400  -33.6420 C   0  0  0  0  0  0  0  0  0  0  0  0
   -0.6620   21.4700  -33.0230 C   0  0  0  0  0  0  0  0  0  0  0  0
   -1.2440   20.1770  -32.3970 C   0  0  0  0  0  0  0  0  0  0  0  0
   -2.3170   19.5960  -33.2090 N   0  0  0  0  0  0  0  0  0  0  0  0
   -2.2130   18.4270  -33.8440 N   0  0  0  0  0  0  0  0  0  0  0  0
   -3.4110   18.1890  -34.4310 C   0  0  0  0  0  0  0  0  0  0  0  0
   -3.8320   16.8580  -34.9580 C   0  0  0  0  0  0  0  0  0  0  0  0
   -4.2380   19.2190  -34.1980 N   0  0  0  0  0  0  0  0  0  0  0  0
   -5.5280   19.2610  -33.9360 N   0  0  0  0  0  0  0  0  0  0  0  0
   -5.7050   20.2670  -33.0450 C   0  0  0  0  0  0  0  0  0  0  0  0
   -7.0040   20.5710  -32.4120 C   0  0  0  0  0  0  0  0  0  0  0  0
   -7.3950   21.9130  -32.2750 C   0  0  0  0  0  0  0  0  0  0  0  0
   -8.6320   22.2340  -31.7090 C   0  0  0  0  0  0  0  0  0  0  0  0
   -9.4830   21.2200  -31.2660 C   0  0  0  0  0  0  0  0  0  0  0  0
   -9.0970   19.8830  -31.3800 C   0  0  0  0  0  0  0  0  0  0  0  0
   -7.8600   19.5490  -31.9450 C   0  0  0  0  0  0  0  0  0  0  0  0
   -7.3920   17.8530  -31.9840 Cl  0  0  0  0  0  0  0  0  0  0  0  0
   -4.4520   20.8120  -32.6880 C   0  0  0  0  0  0  0  0  0  0  0  0
   -4.1680   21.7390  -31.5760 C   0  0  0  0  0  0  0  0  0  0  0  0
   -3.3790   21.3160  -30.4950 C   0  0  0  0  0  0  0  0  0  0  0  0
   -3.0760   22.2020  -29.4570 C   0  0  0  0  0  0  0  0  0  0  0  0
   -3.5460   23.5170  -29.4980 C   0  0  0  0  0  0  0  0  0  0  0  0
   -3.2510   24.3750  -28.4910 F   0  0  0  0  0  0  0  0  0  0  0  0
   -4.3200   23.9490  -30.5790 C   0  0  0  0  0  0  0  0  0  0  0  0
   -4.6290   23.0650  -31.6170 C   0  0  0  0  0  0  0  0  0  0  0  0
   -3.5620   20.0680  -33.4570 C   0  0  0  0  0  0  0  0  0  0  0  0
   -0.0839   19.8858  -35.5744 H   0  0  0  0  0  0  0  0  0  0  0  0
   -0.5393   21.1780  -36.7361 H   0  0  0  0  0  0  0  0  0  0  0  0
    1.1315   20.5182  -36.7361 H   0  0  0  0  0  0  0  0  0  0  0  0
    1.7149   22.1693  -35.3148 H   0  0  0  0  0  0  0  0  0  0  0  0
   -0.0135   22.6865  -35.1598 H   0  0  0  0  0  0  0  0  0  0  0  0
    1.2764   19.6421  -32.5891 H   0  0  0  0  0  0  0  0  0  0  0  0
    0.4614   19.2579  -34.1431 H   0  0  0  0  0  0  0  0  0  0  0  0
    2.1421   19.8918  -34.1431 H   0  0  0  0  0  0  0  0  0  0  0  0
   -0.5366   22.2093  -32.2182 H   0  0  0  0  0  0  0  0  0  0  0  0
   -1.3771   21.7772  -33.8004 H   0  0  0  0  0  0  0  0  0  0  0  0
   -0.4356   19.4375  -32.2987 H   0  0  0  0  0  0  0  0  0  0  0  0
   -1.6704   20.4413  -31.4180 H   0  0  0  0  0  0  0  0  0  0  0  0
   -4.0459   16.1817  -34.1172 H   0  0  0  0  0  0  0  0  0  0  0  0
   -4.7366   16.9764  -35.5726 H   0  0  0  0  0  0  0  0  0  0  0  0
   -3.0239   16.4347  -35.5726 H   0  0  0  0  0  0  0  0  0  0  0  0
   -6.2350   18.5580  -34.2510 H   0  0  0  0  0  0  0  0  0  0  0  0
   -6.7241   22.7157  -32.6150 H   0  0  0  0  0  0  0  0  0  0  0  0
   -8.9353   23.2869  -31.6125 H   0  0  0  0  0  0  0  0  0  0  0  0
  -10.4588   21.4746  -30.8266 H   0  0  0  0  0  0  0  0  0  0  0  0
   -9.7683   19.0876  -31.0240 H   0  0  0  0  0  0  0  0  0  0  0  0
   -2.9980   20.2845  -30.4645 H   0  0  0  0  0  0  0  0  0  0  0  0
   -2.4664   21.8632  -28.6064 H   0  0  0  0  0  0  0  0  0  0  0  0
   -4.6863   24.9857  -30.6129 H   0  0  0  0  0  0  0  0  0  0  0  0
   -5.2349   23.4089  -32.4682 H   0  0  0  0  0  0  0  0  0  0  0  0
  1  2  1  0
  2  3  1  0
  3  4  1  0
  3  5  1  0
  5  6  1  0
  6  7  1  0
  7  8  1  0
  8  9  2  0
  9 10  1  0
  9 11  1  0
 11 12  1  0
 12 13  2  0
 13 14  1  0
 14 15  2  0
 15 16  1  0
 16 17  2  0
 17 18  1  0
 18 19  2  0
 19 20  1  0
 13 21  1  0
 21 22  1  0
 22 23  2  0
 23 24  1  0
 24 25  2  0
 25 26  1  0
 25 27  1  0
 27 28  2  0
 21 29  2  0
 29  7  1  0
 29 11  1  0
 19 14  1  0
 28 22  1  0
  1 30  1  0
  1 31  1  0
  1 32  1  0
  2 33  1  0
  2 34  1  0
  4 35  1  0
  4 36  1  0
  4 37  1  0
  5 38  1  0
  5 39  1  0
  6 40  1  0
  6 41  1  0
 10 42  1  0
 10 43  1  0
 10 44  1  0
 12 45  1  0
 15 46  1  0
 16 47  1  0
 17 48  1  0
 18 49  1  0
 23 50  1  0
 24 51  1  0
 27 52  1  0
 28 53  1  0
M  CHG  1  12   1
M  END
>  <UniqueID>  (23) 
23

>  <SMILES>  (23) 
CCN(C)CCn1nc(C)n2[nH+]c(-c3ccccc3Cl)c(-c3ccc(F)cc3)c12

>  <Energy>  (23) 
165.79914258494927

>  <Genealogy>  (23) 
CCN(C)CCn1nc(C)n2[nH+]c(-c3ccccc3Cl)c(-c3ccc(F)cc3)c12 (protonated)
CCN(C)CCn1nc(C)n2[nH+]c(-c3ccccc3Cl)c(-c3ccc(F)cc3)c12 (3D coordinates assigned)
CCN(C)CCn1nc(C)n2[nH+]c(-c3ccccc3Cl)c(-c3ccc(F)cc3)c12 (optimized conformer: 165.79914258494927 kcal/mol)

>  <smiles>  (23) 
CCN(C)CCn1nc(C)n2nc(-c3ccccc3Cl)c(-c3ccc(F)cc3)c12

>  <score_type>  (23) 
oracle

>  <origin>  (23) 
adg

>  <m_score__min__energy>  (23) 
-8

>  <m_primary>  (23) 
energy

$$$$
23:0
     RDKit          3D

 65 68  0  0  0  0  0  0  0  0999 V2000
    1.6420   23.2190  -35.7590 C   0  0  0  0  0  0  0  0  0  0  0  0
    0.7280   22.0450  -36.0990 C   0  0  0  0  0  0  0  0  0  0  0  0
    1.3850   20.7640  -35.7510 N   0  0  0  0  0  0  0  0  0  0  0  0
    2.8580   20.9170  -35.6980 C   0  0  0  0  0  0  0  0  0  0  0  0
    3.4270   20.1450  -34.5120 C   0  0  0  0  0  0  0  0  0  0  0  0
    0.9940   19.6880  -36.6920 C   0  0  0  0  0  0  0  0  0  0  0  0
    0.2290   18.5850  -35.9400 C   0  0  0  0  0  0  0  0  0  0  0  0
    0.2780   18.7670  -34.4790 N   0  0  0  0  0  0  0  0  0  0  0  0
   -0.8760   19.4890  -33.9980 C   0  0  0  0  0  0  0  0  0  0  0  0
   -0.7620   20.8290  -33.5930 C   0  0  0  0  0  0  0  0  0  0  0  0
   -1.8830   21.5370  -33.1540 C   0  0  0  0  0  0  0  0  0  0  0  0
   -3.1450   20.9130  -33.1110 C   0  0  0  0  0  0  0  0  0  0  0  0
   -4.3000   21.5920  -32.6800 C   0  0  0  0  0  0  0  0  0  0  0  0
   -4.1960   22.7930  -32.3120 O   0  0  0  0  0  0  0  0  0  0  0  0
   -5.5510   20.9170  -32.6610 C   0  0  0  0  0  0  0  0  0  0  0  0
   -6.7950   21.5070  -32.2550 C   0  0  0  0  0  0  0  0  0  0  0  0
   -6.9630   22.9620  -31.8500 C   0  0  0  0  0  0  0  0  0  0  0  0
   -7.3690   23.0960  -30.3720 C   0  0  0  0  0  0  0  0  0  0  0  0
   -6.3340   23.8030  -29.5830 N   0  0  0  0  0  0  0  0  0  0  0  0
   -6.3180   25.2590  -29.8680 C   0  0  0  0  0  0  0  0  0  0  0  0
   -5.2000   25.6340  -30.8570 C   0  0  0  0  0  0  0  0  0  0  0  0
   -3.8950   25.2990  -30.4020 O   0  0  0  0  0  0  0  0  0  0  0  0
   -3.8710   24.1980  -29.5030 C   0  0  0  0  0  0  0  0  0  0  0  0
   -4.9970   23.1810  -29.7500 C   0  0  0  0  0  0  0  0  0  0  0  0
   -7.9620   20.7190  -32.2760 C   0  0  0  0  0  0  0  0  0  0  0  0
   -7.9300   19.3890  -32.6810 C   0  0  0  0  0  0  0  0  0  0  0  0
   -6.7330   18.8120  -33.0840 C   0  0  0  0  0  0  0  0  0  0  0  0
   -5.5520   19.5560  -33.0790 C   0  0  0  0  0  0  0  0  0  0  0  0
   -4.4360   18.9590  -33.4770 O   0  0  0  0  0  0  0  0  0  0  0  0
   -3.2600   19.5690  -33.5120 C   0  0  0  0  0  0  0  0  0  0  0  0
   -2.1340   18.8670  -33.9520 C   0  0  0  0  0  0  0  0  0  0  0  0
    1.7197   23.3187  -34.6663 H   0  0  0  0  0  0  0  0  0  0  0  0
    2.6412   23.0405  -36.1828 H   0  0  0  0  0  0  0  0  0  0  0  0
    1.2239   24.1439  -36.1828 H   0  0  0  0  0  0  0  0  0  0  0  0
   -0.2091   22.1383  -35.5305 H   0  0  0  0  0  0  0  0  0  0  0  0
    0.5169   22.0570  -37.1785 H   0  0  0  0  0  0  0  0  0  0  0  0
    3.2971   20.5283  -36.6286 H   0  0  0  0  0  0  0  0  0  0  0  0
    3.1035   21.9830  -35.5826 H   0  0  0  0  0  0  0  0  0  0  0  0
    3.0853   20.6086  -33.5748 H   0  0  0  0  0  0  0  0  0  0  0  0
    3.0800   19.1020  -34.5529 H   0  0  0  0  0  0  0  0  0  0  0  0
    4.5260   20.1677  -34.5529 H   0  0  0  0  0  0  0  0  0  0  0  0
    0.3491   20.1078  -37.4780 H   0  0  0  0  0  0  0  0  0  0  0  0
    1.8992   19.2563  -37.1439 H   0  0  0  0  0  0  0  0  0  0  0  0
   -0.8223   18.6003  -36.2633 H   0  0  0  0  0  0  0  0  0  0  0  0
    0.7078   17.6231  -36.1755 H   0  0  0  0  0  0  0  0  0  0  0  0
    1.1640   19.2560  -34.2070 H   0  0  0  0  0  0  0  0  0  0  0  0
    0.2990   17.8230  -34.0250 H   0  0  0  0  0  0  0  0  0  0  0  0
    0.2192   21.3254  -33.6218 H   0  0  0  0  0  0  0  0  0  0  0  0
   -1.7799   22.5863  -32.8405 H   0  0  0  0  0  0  0  0  0  0  0  0
   -6.0101   23.4885  -32.0075 H   0  0  0  0  0  0  0  0  0  0  0  0
   -7.7612   23.4006  -32.4669 H   0  0  0  0  0  0  0  0  0  0  0  0
   -8.3115   23.6599  -30.3106 H   0  0  0  0  0  0  0  0  0  0  0  0
   -7.4876   22.0849  -29.9553 H   0  0  0  0  0  0  0  0  0  0  0  0
   -7.2875   25.5483  -30.2998 H   0  0  0  0  0  0  0  0  0  0  0  0
   -6.1323   25.7910  -28.9233 H   0  0  0  0  0  0  0  0  0  0  0  0
   -5.3833   25.1056  -31.8042 H   0  0  0  0  0  0  0  0  0  0  0  0
   -5.2281   26.7275  -30.9726 H   0  0  0  0  0  0  0  0  0  0  0  0
   -2.9056   23.6817  -29.6103 H   0  0  0  0  0  0  0  0  0  0  0  0
   -4.0168   24.6031  -28.4908 H   0  0  0  0  0  0  0  0  0  0  0  0
   -4.9090   22.7913  -30.7749 H   0  0  0  0  0  0  0  0  0  0  0  0
   -4.8982   22.3693  -29.0142 H   0  0  0  0  0  0  0  0  0  0  0  0
   -8.9186   21.1647  -31.9657 H   0  0  0  0  0  0  0  0  0  0  0  0
   -8.8546   18.7930  -32.6821 H   0  0  0  0  0  0  0  0  0  0  0  0
   -6.7153   17.7614  -33.4094 H   0  0  0  0  0  0  0  0  0  0  0  0
   -2.2345   17.8173  -34.2652 H   0  0  0  0  0  0  0  0  0  0  0  0
  1  2  1  0
  2  3  1  0
  3  4  1  0
  4  5  1  0
  3  6  1  0
  6  7  1  0
  7  8  1  0
  8  9  1  0
  9 10  2  0
 10 11  1  0
 11 12  2  0
 12 13  1  0
 13 14  2  0
 13 15  1  0
 15 16  2  0
 16 17  1  0
 17 18  1  0
 18 19  1  0
 19 20  1  0
 20 21  1  0
 21 22  1  0
 22 23  1  0
 23 24  1  0
 16 25  1  0
 25 26  2  0
 26 27  1  0
 27 28  2  0
 28 29  1  0
 29 30  1  0
 30 31  2  0
 31  9  1  0
 30 12  1  0
 28 15  1  0
 24 19  1  0
  1 32  1  0
  1 33  1  0
  1 34  1  0
  2 35  1  0
  2 36  1  0
  4 37  1  0
  4 38  1  0
  5 39  1  0
  5 40  1  0
  5 41  1  0
  6 42  1  0
  6 43  1  0
  7 44  1  0
  7 45  1  0
  8 46  1  0
  8 47  1  0
 10 48  1  0
 11 49  1  0
 17 50  1  0
 17 51  1  0
 18 52  1  0
 18 53  1  0
 20 54  1  0
 20 55  1  0
 21 56  1  0
 21 57  1  0
 23 58  1  0
 23 59  1  0
 24 60  1  0
 24 61  1  0
 25 62  1  0
 26 63  1  0
 27 64  1  0
 31 65  1  0
M  CHG  1   8   1
M  END
>  <UniqueID>  (24) 
24

>  <SMILES>  (24) 
CCN(CC)CC[NH2+]c1ccc2c(=O)c3c(CCN4CCOCC4)cccc3oc2c1

>  <Energy>  (24) 
93.72222404986181

>  <Genealogy>  (24) 
CCN(CC)CC[NH2+]c1ccc2c(=O)c3c(CCN4CCOCC4)cccc3oc2c1 (protonated)
CCN(CC)CC[NH2+]c1ccc2c(=O)c3c(CCN4CCOCC4)cccc3oc2c1 (3D coordinates assigned)
CCN(CC)CC[NH2+]c1ccc2c(=O)c3c(CCN4CCOCC4)cccc3oc2c1 (nonaromatic ring conformer: 93.72222404986181 kcal/mol)

>  <smiles>  (24) 
CCN(CC)CCNc1ccc2c(=O)c3c(CCN4CCOCC4)cccc3oc2c1

>  <score_type>  (24) 
oracle

>  <origin>  (24) 
adg

>  <m_score__min__energy>  (24) 
-8.6600000000000001

>  <m_primary>  (24) 
energy

$$$$
24:0
     RDKit          3D

 47 49  0  0  0  0  0  0  0  0999 V2000
   -3.8920   25.3820  -30.6960 O   0  0  0  0  0  0  0  0  0  0  0  0
   -5.1140   25.2070  -30.0330 C   0  0  0  0  0  0  0  0  0  0  0  0
   -5.8740   24.0340  -30.5960 C   0  0  0  0  0  0  0  0  0  0  0  0
   -6.6290   23.2080  -29.7490 C   0  0  0  0  0  0  0  0  0  0  0  0
   -7.4100   22.1780  -30.2790 C   0  0  0  0  0  0  0  0  0  0  0  0
   -7.4570   21.9570  -31.6660 C   0  0  0  0  0  0  0  0  0  0  0  0
   -8.4330   20.9550  -32.2470 C   0  0  0  0  0  0  0  0  0  0  0  0
   -7.8230   19.7210  -32.8080 N   0  0  0  0  0  0  0  0  0  0  0  0
   -7.3450   18.7540  -31.7830 C   0  0  0  0  0  0  0  0  0  0  0  0
   -5.8210   18.5760  -31.7580 C   0  0  0  0  0  0  0  0  0  0  0  0
   -5.1510   19.8480  -32.0600 N   0  0  0  0  0  0  0  0  0  0  0  0
   -3.6970   19.7090  -31.8080 C   0  0  0  0  0  0  0  0  0  0  0  0
   -3.1590   20.8520  -30.9740 C   0  0  0  0  0  0  0  0  0  0  0  0
   -3.8780   21.2460  -29.8320 C   0  0  0  0  0  0  0  0  0  0  0  0
   -3.4310   22.3090  -29.0420 C   0  0  0  0  0  0  0  0  0  0  0  0
   -2.2660   22.9930  -29.3850 C   0  0  0  0  0  0  0  0  0  0  0  0
   -1.5390   22.6130  -30.5130 C   0  0  0  0  0  0  0  0  0  0  0  0
   -1.9710   21.5460  -31.3110 C   0  0  0  0  0  0  0  0  0  0  0  0
   -0.8840   21.0840  -32.8240 Br  0  0  0  0  0  0  0  0  0  0  0  0
   -5.4100   20.2220  -33.4680 C   0  0  0  0  0  0  0  0  0  0  0  0
   -6.8670   19.9700  -33.9150 C   0  0  0  0  0  0  0  0  0  0  0  0
   -6.7070   22.7900  -32.5120 C   0  0  0  0  0  0  0  0  0  0  0  0
   -5.9200   23.8170  -31.9820 C   0  0  0  0  0  0  0  0  0  0  0  0
   -4.1050   25.6960  -31.6120 H   0  0  0  0  0  0  0  0  0  0  0  0
   -4.9209   25.0305  -28.9646 H   0  0  0  0  0  0  0  0  0  0  0  0
   -5.7197   26.1147  -30.1718 H   0  0  0  0  0  0  0  0  0  0  0  0
   -6.6057   23.3725  -28.6616 H   0  0  0  0  0  0  0  0  0  0  0  0
   -7.9935   21.5341  -29.6045 H   0  0  0  0  0  0  0  0  0  0  0  0
   -9.1285   20.6568  -31.4487 H   0  0  0  0  0  0  0  0  0  0  0  0
   -8.9208   21.4627  -33.0922 H   0  0  0  0  0  0  0  0  0  0  0  0
   -8.6350   19.2460  -33.2730 H   0  0  0  0  0  0  0  0  0  0  0  0
   -7.6683   19.1101  -30.7937 H   0  0  0  0  0  0  0  0  0  0  0  0
   -7.7762   17.7757  -32.0418 H   0  0  0  0  0  0  0  0  0  0  0  0
   -5.5127   18.2323  -30.7596 H   0  0  0  0  0  0  0  0  0  0  0  0
   -5.5363   17.8338  -32.5183 H   0  0  0  0  0  0  0  0  0  0  0  0
   -3.5168   18.7638  -31.2750 H   0  0  0  0  0  0  0  0  0  0  0  0
   -3.1792   19.7207  -32.7785 H   0  0  0  0  0  0  0  0  0  0  0  0
   -4.8004   20.7131  -29.5577 H   0  0  0  0  0  0  0  0  0  0  0  0
   -3.9994   22.6061  -28.1484 H   0  0  0  0  0  0  0  0  0  0  0  0
   -1.9196   23.8333  -28.7655 H   0  0  0  0  0  0  0  0  0  0  0  0
   -0.6194   23.1554  -30.7779 H   0  0  0  0  0  0  0  0  0  0  0  0
   -5.1887   21.2926  -33.5901 H   0  0  0  0  0  0  0  0  0  0  0  0
   -4.7653   19.5883  -34.0947 H   0  0  0  0  0  0  0  0  0  0  0  0
   -7.2116   20.8534  -34.4726 H   0  0  0  0  0  0  0  0  0  0  0  0
   -6.8505   19.0529  -34.5222 H   0  0  0  0  0  0  0  0  0  0  0  0
   -6.7389   22.6333  -33.6003 H   0  0  0  0  0  0  0  0  0  0  0  0
   -5.3332   24.4590  -32.6555 H   0  0  0  0  0  0  0  0  0  0  0  0
  1  2  1  0
  2  3  1  0
  3  4  2  0
  4  5  1  0
  5  6  2  0
  6  7  1  0
  7  8  1  0
  8  9  1  0
  9 10  1  0
 10 11  1  0
 11 12  1  0
 12 13  1  0
 13 14  2  0
 14 15  1  0
 15 16  2  0
 16 17  1  0
 17 18  2  0
 18 19  1  0
 11 20  1  0
 20 21  1  0
  6 22  1  0
 22 23  2  0
 23  3  1  0
 21  8  1  0
 18 13  1  0
  1 24  1  0
  2 25  1  0
  2 26  1  0
  4 27  1  0
  5 28  1  0
  7 29  1  0
  7 30  1  0
  8 31  1  0
  9 32  1  0
  9 33  1  0
 10 34  1  0
 10 35  1  0
 12 36  1  0
 12 37  1  0
 14 38  1  0
 15 39  1  0
 16 40  1  0
 17 41  1  0
 20 42  1  0
 20 43  1  0
 21 44  1  0
 21 45  1  0
 22 46  1  0
 23 47  1  0
M  CHG  1   8   1
M  END
>  <UniqueID>  (25) 
25

>  <SMILES>  (25) 
OCc1ccc(C[NH+]2CCN(Cc3ccccc3Br)CC2)cc1

>  <Energy>  (25) 
64.27592921799487

>  <Genealogy>  (25) 
OCc1ccc(C[NH+]2CCN(Cc3ccccc3Br)CC2)cc1 (protonated)
OCc1ccc(C[NH+]2CCN(Cc3ccccc3Br)CC2)cc1 (3D coordinates assigned)
OCc1ccc(C[NH+]2CCN(Cc3ccccc3Br)CC2)cc1 (nonaromatic ring conformer: 64.27592921799487 kcal/mol)

>  <smiles>  (25) 
OCc1ccc(CN2CCN(Cc3ccccc3Br)CC2)cc1

>  <score_type>  (25) 
oracle

>  <origin>  (25) 
adg

>  <m_score__min__energy>  (25) 
-7.9900000000000002

>  <m_primary>  (25) 
energy

$$$$
25:0
     RDKit          3D

 61 64  0  0  0  0  0  0  0  0999 V2000
   -0.8710   26.7950  -23.3450 C   0  0  0  0  0  0  0  0  0  0  0  0
    0.5340   26.8970  -23.9450 C   0  0  0  0  0  0  0  0  0  0  0  0
    0.5300   27.7260  -25.1720 N   0  0  0  0  0  0  0  0  0  0  0  0
   -0.8320   28.2280  -25.4730 C   0  0  0  0  0  0  0  0  0  0  0  0
   -0.8500   29.7530  -25.4300 C   0  0  0  0  0  0  0  0  0  0  0  0
    1.0680   26.9610  -26.3220 C   0  0  0  0  0  0  0  0  0  0  0  0
    0.7890   25.4610  -26.1490 C   0  0  0  0  0  0  0  0  0  0  0  0
   -0.5230   25.1250  -26.7130 N   0  0  0  0  0  0  0  0  0  0  0  0
   -1.6050   25.3720  -25.9680 N   0  0  0  0  0  0  0  0  0  0  0  0
   -2.8580   25.0330  -26.3630 C   0  0  0  0  0  0  0  0  0  0  0  0
   -3.8330   25.3060  -25.6140 O   0  0  0  0  0  0  0  0  0  0  0  0
   -3.0460   24.3830  -27.5890 C   0  0  0  0  0  0  0  0  0  0  0  0
   -4.3280   23.9600  -28.0160 C   0  0  0  0  0  0  0  0  0  0  0  0
   -4.4310   23.3060  -29.2400 C   0  0  0  0  0  0  0  0  0  0  0  0
   -3.3410   23.0820  -30.0310 C   0  0  0  0  0  0  0  0  0  0  0  0
   -2.0640   23.4800  -29.6510 C   0  0  0  0  0  0  0  0  0  0  0  0
   -1.9070   24.1310  -28.4040 C   0  0  0  0  0  0  0  0  0  0  0  0
   -0.6370   24.5060  -27.9290 C   0  0  0  0  0  0  0  0  0  0  0  0
    0.3960   24.2620  -28.6170 O   0  0  0  0  0  0  0  0  0  0  0  0
   -3.8020   22.3630  -31.2090 C   0  0  0  0  0  0  0  0  0  0  0  0
   -3.0490   21.9600  -32.1380 O   0  0  0  0  0  0  0  0  0  0  0  0
   -5.2240   22.1180  -31.1760 N   0  0  2  0  0  0  0  0  0  0  0  0
   -5.9330   22.7320  -32.3190 C   0  0  0  0  0  0  0  0  0  0  0  0
   -7.2590   22.0180  -32.7090 C   0  0  0  0  0  0  0  0  0  0  0  0
   -7.3160   20.5900  -32.3270 N   0  0  0  0  0  0  0  0  0  0  0  0
   -6.4600   19.7260  -33.1690 C   0  0  0  0  0  0  0  0  0  0  0  0
   -6.8350   18.2420  -33.0010 C   0  0  0  0  0  0  0  0  0  0  0  0
   -7.3570   18.0140  -31.7070 O   0  0  0  0  0  0  0  0  0  0  0  0
   -8.6230   18.6450  -31.5630 C   0  0  0  0  0  0  0  0  0  0  0  0
   -8.6810   20.0540  -32.1900 C   0  0  0  0  0  0  0  0  0  0  0  0
   -5.5780   22.7130  -29.9090 C   0  0  0  0  0  0  0  0  0  0  0  0
   -6.7400   22.6720  -29.4230 O   0  0  0  0  0  0  0  0  0  0  0  0
   -0.8021   26.8000  -22.2472 H   0  0  0  0  0  0  0  0  0  0  0  0
   -1.4752   27.6516  -23.6784 H   0  0  0  0  0  0  0  0  0  0  0  0
   -1.3451   25.8601  -23.6784 H   0  0  0  0  0  0  0  0  0  0  0  0
    1.2084   27.3531  -23.2053 H   0  0  0  0  0  0  0  0  0  0  0  0
    0.8764   25.8852  -24.2077 H   0  0  0  0  0  0  0  0  0  0  0  0
   -1.1315   27.8887  -26.4756 H   0  0  0  0  0  0  0  0  0  0  0  0
   -1.5338   27.8383  -24.7209 H   0  0  0  0  0  0  0  0  0  0  0  0
   -0.8540   30.0903  -24.3830 H   0  0  0  0  0  0  0  0  0  0  0  0
    0.0436   30.1447  -25.9380 H   0  0  0  0  0  0  0  0  0  0  0  0
   -1.7526   30.1235  -25.9380 H   0  0  0  0  0  0  0  0  0  0  0  0
    0.5889   27.3138  -27.2472 H   0  0  0  0  0  0  0  0  0  0  0  0
    2.1557   27.1164  -26.3746 H   0  0  0  0  0  0  0  0  0  0  0  0
    1.5675   24.8836  -26.6691 H   0  0  0  0  0  0  0  0  0  0  0  0
    0.7944   25.2146  -25.0770 H   0  0  0  0  0  0  0  0  0  0  0  0
   -5.2185   24.1434  -27.3969 H   0  0  0  0  0  0  0  0  0  0  0  0
   -1.1978   23.2937  -30.3029 H   0  0  0  0  0  0  0  0  0  0  0  0
   -5.4020   21.0860  -31.1420 H   0  0  0  0  0  0  0  0  0  0  0  0
   -6.1670   23.7749  -32.0591 H   0  0  0  0  0  0  0  0  0  0  0  0
   -5.2629   22.6474  -33.1872 H   0  0  0  0  0  0  0  0  0  0  0  0
   -8.0905   22.5407  -32.2136 H   0  0  0  0  0  0  0  0  0  0  0  0
   -7.3253   22.0537  -33.8064 H   0  0  0  0  0  0  0  0  0  0  0  0
   -6.5879   20.0118  -34.2235 H   0  0  0  0  0  0  0  0  0  0  0  0
   -5.4138   19.8596  -32.8565 H   0  0  0  0  0  0  0  0  0  0  0  0
   -7.5925   17.9714  -33.7513 H   0  0  0  0  0  0  0  0  0  0  0  0
   -5.9339   17.6262  -33.1383 H   0  0  0  0  0  0  0  0  0  0  0  0
   -9.3834   18.0158  -32.0487 H   0  0  0  0  0  0  0  0  0  0  0  0
   -8.8066   18.7618  -30.4847 H   0  0  0  0  0  0  0  0  0  0  0  0
   -9.1522   19.9941  -33.1822 H   0  0  0  0  0  0  0  0  0  0  0  0
   -9.2712   20.7185  -31.5418 H   0  0  0  0  0  0  0  0  0  0  0  0
  1  2  1  0
  2  3  1  0
  3  4  1  0
  4  5  1  0
  3  6  1  0
  6  7  1  0
  7  8  1  0
  8  9  1  0
  9 10  1  0
 10 11  2  0
 10 12  1  0
 12 13  2  0
 13 14  1  0
 14 15  2  0
 15 16  1  0
 16 17  2  0
 17 18  1  0
 18 19  2  0
 15 20  1  0
 20 21  2  0
 20 22  1  0
 22 23  1  0
 23 24  1  0
 24 25  1  0
 25 26  1  0
 26 27  1  0
 27 28  1  0
 28 29  1  0
 29 30  1  0
 22 31  1  0
 31 32  2  0
 18  8  1  0
 30 25  1  0
 17 12  1  0
 31 14  1  0
  1 33  1  0
  1 34  1  0
  1 35  1  0
  2 36  1  0
  2 37  1  0
  4 38  1  0
  4 39  1  0
  5 40  1  0
  5 41  1  0
  5 42  1  0
  6 43  1  0
  6 44  1  0
  7 45  1  0
  7 46  1  0
 13 47  1  0
 16 48  1  0
 22 49  1  1
 23 50  1  0
 23 51  1  0
 24 52  1  0
 24 53  1  0
 26 54  1  0
 26 55  1  0
 27 56  1  0
 27 57  1  0
 29 58  1  0
 29 59  1  0
 30 60  1  0
 30 61  1  0
M  CHG  2   9  -1  22   1
M  END
>  <UniqueID>  (26) 
26

>  <SMILES>  (26) 
CCN(CC)CCn1[n-]c(=O)c2cc3c(cc2c1=O)C(=O)[N@H+](CCN1CCOCC1)C3=O

>  <Energy>  (26) 
107.4509342310978

>  <Genealogy>  (26) 
CCN(CC)CCn1[n-]c(=O)c2cc3c(cc2c1=O)C(=O)[NH+](CCN1CCOCC1)C3=O (protonated)
CCN(CC)CCn1[n-]c(=O)c2cc3c(cc2c1=O)C(=O)[N@H+](CCN1CCOCC1)C3=O (chirality)
CCN(CC)CCn1[n-]c(=O)c2cc3c(cc2c1=O)C(=O)[N@H+](CCN1CCOCC1)C3=O (3D coordinates assigned)
CCN(CC)CCn1[n-]c(=O)c2cc3c(cc2c1=O)C(=O)[N@H+](CCN1CCOCC1)C3=O (nonaromatic ring conformer: 107.4509342310978 kcal/mol)

>  <smiles>  (26) 
CCN(CC)CCn1[nH]c(=O)c2cc3c(cc2c1=O)C(=O)N(CCN1CCOCC1)C3=O

>  <score_type>  (26) 
oracle

>  <origin>  (26) 
adg

>  <m_score__min__energy>  (26) 
-9.3300000000000001

>  <m_primary>  (26) 
energy

$$$$
26:0
     RDKit          3D

 46 49  0  0  0  0  0  0  0  0999 V2000
   -3.4080   20.6770  -33.4650 C   0  0  0  0  0  0  0  0  0  0  0  0
   -4.8110   20.4860  -33.0990 N   0  0  0  0  0  0  0  0  0  0  0  0
   -5.6520   21.4150  -32.5830 C   0  0  0  0  0  0  0  0  0  0  0  0
   -6.8830   20.8610  -32.2930 C   0  0  0  0  0  0  0  0  0  0  0  0
   -6.7740   19.5200  -32.5850 C   0  0  0  0  0  0  0  0  0  0  0  0
   -7.6790   18.4720  -32.4270 C   0  0  0  0  0  0  0  0  0  0  0  0
   -7.2550   17.1810  -32.7880 C   0  0  0  0  0  0  0  0  0  0  0  0
   -5.9490   16.9680  -33.2820 C   0  0  0  0  0  0  0  0  0  0  0  0
   -5.0540   18.0450  -33.4250 C   0  0  0  0  0  0  0  0  0  0  0  0
   -5.5000   19.3220  -33.0710 C   0  0  0  0  0  0  0  0  0  0  0  0
   -7.9930   21.6140  -31.6340 C   0  0  0  0  0  0  0  0  0  0  0  0
   -7.7320   23.1250  -31.7690 C   0  0  0  0  0  0  0  0  0  0  0  0
   -6.3280   23.4460  -31.3990 N   0  0  0  0  0  0  0  0  0  0  0  0
   -6.1290   24.9040  -31.2620 C   0  0  0  0  0  0  0  0  0  0  0  0
   -5.2920   25.2360  -30.0120 C   0  0  0  0  0  0  0  0  0  0  0  0
   -3.8400   25.2760  -30.2800 N   0  0  0  0  0  0  0  0  0  0  0  0
   -3.0450   24.5370  -29.2890 C   0  0  0  0  0  0  0  0  0  0  0  0
   -2.8930   23.1010  -29.6840 C   0  0  0  0  0  0  0  0  0  0  0  0
   -3.8400   22.1020  -29.5100 C   0  0  0  0  0  0  0  0  0  0  0  0
   -3.4130   20.8540  -29.9740 C   0  0  0  0  0  0  0  0  0  0  0  0
   -2.1320   20.8660  -30.5100 C   0  0  0  0  0  0  0  0  0  0  0  0
   -1.5300   22.4330  -30.4070 S   0  0  0  0  0  0  0  0  0  0  0  0
   -5.3700   22.8740  -32.3740 C   0  0  0  0  0  0  0  0  0  0  0  0
   -2.7991   20.7599  -32.5527 H   0  0  0  0  0  0  0  0  0  0  0  0
   -3.0637   19.8174  -34.0588 H   0  0  0  0  0  0  0  0  0  0  0  0
   -3.3060   21.5973  -34.0588 H   0  0  0  0  0  0  0  0  0  0  0  0
   -8.6907   18.6489  -32.0332 H   0  0  0  0  0  0  0  0  0  0  0  0
   -7.9453   16.3308  -32.6850 H   0  0  0  0  0  0  0  0  0  0  0  0
   -5.6287   15.9523  -33.5572 H   0  0  0  0  0  0  0  0  0  0  0  0
   -4.0336   17.8866  -33.8041 H   0  0  0  0  0  0  0  0  0  0  0  0
   -8.9474   21.3611  -32.1189 H   0  0  0  0  0  0  0  0  0  0  0  0
   -8.0421   21.3419  -30.5693 H   0  0  0  0  0  0  0  0  0  0  0  0
   -7.9112   23.4317  -32.8101 H   0  0  0  0  0  0  0  0  0  0  0  0
   -8.4106   23.6651  -31.0924 H   0  0  0  0  0  0  0  0  0  0  0  0
   -5.6069   25.2804  -32.1540 H   0  0  0  0  0  0  0  0  0  0  0  0
   -7.1142   25.3823  -31.1591 H   0  0  0  0  0  0  0  0  0  0  0  0
   -5.6050   26.2198  -29.6324 H   0  0  0  0  0  0  0  0  0  0  0  0
   -5.4678   24.4359  -29.2779 H   0  0  0  0  0  0  0  0  0  0  0  0
   -3.6370   24.8880  -31.2310 H   0  0  0  0  0  0  0  0  0  0  0  0
   -2.0484   24.9963  -29.2129 H   0  0  0  0  0  0  0  0  0  0  0  0
   -3.5650   24.5803  -28.3207 H   0  0  0  0  0  0  0  0  0  0  0  0
   -4.8260   22.2742  -29.0537 H   0  0  0  0  0  0  0  0  0  0  0  0
   -4.0337   19.9475  -29.9195 H   0  0  0  0  0  0  0  0  0  0  0  0
   -1.6016   19.9987  -30.9302 H   0  0  0  0  0  0  0  0  0  0  0  0
   -5.4676   23.4039  -33.3330 H   0  0  0  0  0  0  0  0  0  0  0  0
   -4.3483   22.9896  -31.9833 H   0  0  0  0  0  0  0  0  0  0  0  0
  1  2  1  0
  2  3  1  0
  3  4  2  0
  4  5  1  0
  5  6  2  0
  6  7  1  0
  7  8  2  0
  8  9  1  0
  9 10  2  0
  4 11  1  0
 11 12  1  0
 12 13  1  0
 13 14  1  0
 14 15  1  0
 15 16  1  0
 16 17  1  0
 17 18  1  0
 18 19  2  0
 19 20  1  0
 20 21  2  0
 21 22  1  0
 13 23  1  0
 10  2  1  0
 22 18  1  0
 23  3  1  0
 10  5  1  0
  1 24  1  0
  1 25  1  0
  1 26  1  0
  6 27  1  0
  7 28  1  0
  8 29  1  0
  9 30  1  0
 11 31  1  0
 11 32  1  0
 12 33  1  0
 12 34  1  0
 14 35  1  0
 14 36  1  0
 15 37  1  0
 15 38  1  0
 16 39  1  0
 17 40  1  0
 17 41  1  0
 19 42  1  0
 20 43  1  0
 21 44  1  0
 23 45  1  0
 23 46  1  0
M  END
>  <UniqueID>  (27) 
27

>  <SMILES>  (27) 
Cn1c2c(c3ccccc31)CCN(CCNCc1cccs1)C2

>  <Energy>  (27) 
112.51785280650299

>  <Genealogy>  (27) 
Cn1c2c(c3ccccc31)CCN(CCNCc1cccs1)C2 (3D coordinates assigned)
Cn1c2c(c3ccccc31)CCN(CCNCc1cccs1)C2 (nonaromatic ring conformer: 112.51785280650299 kcal/mol)

>  <smiles>  (27) 
Cn1c2c(c3ccccc31)CCN(CCNCc1cccs1)C2

>  <score_type>  (27) 
oracle

>  <origin>  (27) 
adg

>  <m_score__min__energy>  (27) 
-9.4900000000000002

>  <m_primary>  (27) 
energy

$$$$
27:0
     RDKit          3D

 47 50  0  0  0  0  0  0  0  0999 V2000
   -2.6500   22.6680  -30.3540 C   0  0  0  0  0  0  0  0  0  0  0  0
   -3.4980   23.7290  -29.6700 C   0  0  0  0  0  0  0  0  0  0  0  0
   -3.8850   24.6980  -30.6210 O   0  0  0  0  0  0  0  0  0  0  0  0
   -5.2920   24.8620  -30.6220 C   0  0  0  0  0  0  0  0  0  0  0  0
   -5.9490   23.7640  -29.7650 C   0  0  0  0  0  0  0  0  0  0  0  0
   -6.4020   22.6100  -30.5880 N   0  0  1  0  0  0  0  0  0  0  0  0
   -7.8760   22.5070  -30.5960 C   0  0  1  0  0  0  0  0  0  0  0  0
   -8.3680   23.4200  -31.7220 C   0  0  0  0  0  0  0  0  0  0  0  0
   -7.2270   23.4420  -32.7260 C   0  0  0  0  0  0  0  0  0  0  0  0
   -6.0390   22.7710  -32.0150 C   0  0  2  0  0  0  0  0  0  0  0  0
   -5.6890   21.4150  -32.6310 C   0  0  0  0  0  0  0  0  0  0  0  0
   -4.4020   21.2450  -33.1650 C   0  0  0  0  0  0  0  0  0  0  0  0
   -4.0060   20.0280  -33.7110 C   0  0  0  0  0  0  0  0  0  0  0  0
   -4.8800   18.9380  -33.7180 C   0  0  0  0  0  0  0  0  0  0  0  0
   -4.4560   17.7110  -34.2530 C   0  0  0  0  0  0  0  0  0  0  0  0
   -5.3080   16.6070  -34.2420 C   0  0  0  0  0  0  0  0  0  0  0  0
   -6.5830   16.7150  -33.6920 C   0  0  0  0  0  0  0  0  0  0  0  0
   -7.0200   17.9300  -33.1580 C   0  0  0  0  0  0  0  0  0  0  0  0
   -6.1850   19.0700  -33.1760 C   0  0  0  0  0  0  0  0  0  0  0  0
   -6.6030   20.3230  -32.6450 C   0  0  0  0  0  0  0  0  0  0  0  0
   -8.0030   20.5150  -32.1850 C   0  0  0  0  0  0  0  0  0  0  0  0
   -8.9500   20.2580  -32.9780 O   0  0  0  0  0  0  0  0  0  0  0  0
   -8.3270   21.0410  -30.8110 C   0  0  0  0  0  0  0  0  0  0  0  0
   -2.1543   22.0478  -29.5926 H   0  0  0  0  0  0  0  0  0  0  0  0
   -3.2927   22.0336  -30.9821 H   0  0  0  0  0  0  0  0  0  0  0  0
   -1.8896   23.1551  -30.9821 H   0  0  0  0  0  0  0  0  0  0  0  0
   -4.3939   23.2607  -29.2363 H   0  0  0  0  0  0  0  0  0  0  0  0
   -2.9153   24.2086  -28.8698 H   0  0  0  0  0  0  0  0  0  0  0  0
   -5.5444   25.8487  -30.2065 H   0  0  0  0  0  0  0  0  0  0  0  0
   -5.6644   24.7866  -31.6543 H   0  0  0  0  0  0  0  0  0  0  0  0
   -5.2182   23.4068  -29.0245 H   0  0  0  0  0  0  0  0  0  0  0  0
   -6.8325   24.1990  -29.2749 H   0  0  0  0  0  0  0  0  0  0  0  0
   -5.9800   21.7420  -30.1770 H   0  0  0  0  0  0  0  0  0  0  0  0
   -8.3034   22.8183  -29.6314 H   0  0  0  0  0  0  0  0  0  0  0  0
   -9.2810   23.0127  -32.1809 H   0  0  0  0  0  0  0  0  0  0  0  0
   -8.6240   24.4268  -31.3602 H   0  0  0  0  0  0  0  0  0  0  0  0
   -7.5006   22.8796  -33.6309 H   0  0  0  0  0  0  0  0  0  0  0  0
   -6.9850   24.4664  -33.0455 H   0  0  0  0  0  0  0  0  0  0  0  0
   -5.1462   23.4038  -32.1267 H   0  0  0  0  0  0  0  0  0  0  0  0
   -3.6950   22.0876  -33.1516 H   0  0  0  0  0  0  0  0  0  0  0  0
   -2.9985   19.9234  -34.1398 H   0  0  0  0  0  0  0  0  0  0  0  0
   -3.4475   17.6202  -34.6826 H   0  0  0  0  0  0  0  0  0  0  0  0
   -4.9727   15.6499  -34.6681 H   0  0  0  0  0  0  0  0  0  0  0  0
   -7.2491   15.8397  -33.6779 H   0  0  0  0  0  0  0  0  0  0  0  0
   -8.0259   18.0000  -32.7184 H   0  0  0  0  0  0  0  0  0  0  0  0
   -9.4156   20.9850  -30.6631 H   0  0  0  0  0  0  0  0  0  0  0  0
   -7.7787   20.4211  -30.0864 H   0  0  0  0  0  0  0  0  0  0  0  0
  1  2  1  0
  2  3  1  0
  3  4  1  0
  4  5  1  0
  5  6  1  0
  6  7  1  0
  7  8  1  0
  8  9  1  0
  9 10  1  0
 10 11  1  0
 11 12  2  0
 12 13  1  0
 13 14  2  0
 14 15  1  0
 15 16  2  0
 16 17  1  0
 17 18  2  0
 18 19  1  0
 19 20  2  0
 20 21  1  0
 21 22  2  0
 21 23  1  0
 10  6  1  0
 20 11  1  0
 23  7  1  0
 19 14  1  0
  1 24  1  0
  1 25  1  0
  1 26  1  0
  2 27  1  0
  2 28  1  0
  4 29  1  0
  4 30  1  0
  5 31  1  0
  5 32  1  0
  6 33  1  1
  7 34  1  1
  8 35  1  0
  8 36  1  0
  9 37  1  0
  9 38  1  0
 10 39  1  1
 12 40  1  0
 13 41  1  0
 15 42  1  0
 16 43  1  0
 17 44  1  0
 18 45  1  0
 23 46  1  0
 23 47  1  0
M  CHG  1   6   1
M  END
>  <UniqueID>  (28) 
28

>  <SMILES>  (28) 
CCOCC[N@@H+]1C2CC[C@H]1CC(=O)c1c2ccc2ccccc12

>  <Energy>  (28) 
73.45260938794713

>  <Genealogy>  (28) 
CCOCC[NH+]1C2CCC1c1ccc3ccccc3c1C(=O)C2 (protonated)
CCOCC[N@@H+]1C2CC[C@H]1CC(=O)c1c2ccc2ccccc12 (chirality)
CCOCC[N@@H+]1C2CC[C@H]1CC(=O)c1c2ccc2ccccc12 (3D coordinates assigned)
CCOCC[N@@H+]1C2CC[C@H]1CC(=O)c1c2ccc2ccccc12 (nonaromatic ring conformer: 73.45260938794713 kcal/mol)

>  <smiles>  (28) 
CCOCCN1C2CCC1c1ccc3ccccc3c1C(=O)C2

>  <score_type>  (28) 
oracle

>  <origin>  (28) 
adg

>  <m_score__min__energy>  (28) 
-7.7300000000000004

>  <m_primary>  (28) 
energy

$$$$
28:0
     RDKit          3D

 51 52  0  0  0  0  0  0  0  0999 V2000
   -6.1270   25.6460  -29.8540 C   0  0  0  0  0  0  0  0  0  0  0  0
   -4.9900   25.3280  -30.8190 C   0  0  0  0  0  0  0  0  0  0  0  0
   -4.3920   24.0920  -30.4800 O   0  0  0  0  0  0  0  0  0  0  0  0
   -5.0380   23.5180  -29.3620 C   0  0  0  0  0  0  0  0  0  0  0  0
   -4.0030   23.1730  -28.2900 C   0  0  0  0  0  0  0  0  0  0  0  0
   -2.8440   22.3440  -28.8670 C   0  0  0  0  0  0  0  0  0  0  0  0
   -3.2300   21.7270  -30.1470 N   0  0  0  0  0  0  0  0  0  0  0  0
   -2.4430   20.5170  -30.4470 C   0  0  0  0  0  0  0  0  0  0  0  0
   -1.3100   20.7830  -31.4510 C   0  0  0  0  0  0  0  0  0  0  0  0
   -1.7560   21.6610  -32.4680 O   0  0  0  0  0  0  0  0  0  0  0  0
   -2.7680   21.0670  -33.2590 C   0  0  0  0  0  0  0  0  0  0  0  0
   -4.0170   21.9520  -33.3190 C   0  0  0  0  0  0  0  0  0  0  0  0
   -4.8070   21.8020  -32.1370 O   0  0  0  0  0  0  0  0  0  0  0  0
   -6.2120   21.8190  -32.0660 C   0  0  0  0  0  0  0  0  0  0  0  0
   -6.9450   23.0220  -32.0260 C   0  0  0  0  0  0  0  0  0  0  0  0
   -8.3390   23.0050  -31.9510 C   0  0  0  0  0  0  0  0  0  0  0  0
   -9.0290   21.7940  -31.9230 C   0  0  0  0  0  0  0  0  0  0  0  0
   -8.3270   20.5830  -31.9760 C   0  0  0  0  0  0  0  0  0  0  0  0
   -9.0200   19.3630  -31.9540 C   0  0  0  0  0  0  0  0  0  0  0  0
   -8.3190   18.1560  -32.0040 C   0  0  0  0  0  0  0  0  0  0  0  0
   -6.9260   18.1560  -32.0770 C   0  0  0  0  0  0  0  0  0  0  0  0
   -6.2220   19.3630  -32.0990 C   0  0  0  0  0  0  0  0  0  0  0  0
   -6.9100   20.5910  -32.0510 C   0  0  0  0  0  0  0  0  0  0  0  0
   -5.7683   25.5457  -28.8190 H   0  0  0  0  0  0  0  0  0  0  0  0
   -6.4745   26.6758  -30.0234 H   0  0  0  0  0  0  0  0  0  0  0  0
   -6.9584   24.9459  -30.0234 H   0  0  0  0  0  0  0  0  0  0  0  0
   -5.3880   25.2702  -31.8428 H   0  0  0  0  0  0  0  0  0  0  0  0
   -4.2321   26.1227  -30.7546 H   0  0  0  0  0  0  0  0  0  0  0  0
   -5.7646   24.2347  -28.9516 H   0  0  0  0  0  0  0  0  0  0  0  0
   -5.5596   22.6010  -29.6736 H   0  0  0  0  0  0  0  0  0  0  0  0
   -3.5997   24.1062  -27.8700 H   0  0  0  0  0  0  0  0  0  0  0  0
   -4.5000   22.5743  -27.5125 H   0  0  0  0  0  0  0  0  0  0  0  0
   -1.9768   23.0008  -29.0301 H   0  0  0  0  0  0  0  0  0  0  0  0
   -2.5908   21.5465  -28.1529 H   0  0  0  0  0  0  0  0  0  0  0  0
   -3.0610   22.4150  -30.9170 H   0  0  0  0  0  0  0  0  0  0  0  0
   -4.2510   21.4950  -30.1370 H   0  0  0  0  0  0  0  0  0  0  0  0
   -2.0035   20.1415  -29.5111 H   0  0  0  0  0  0  0  0  0  0  0  0
   -3.1234   19.7807  -30.8997 H   0  0  0  0  0  0  0  0  0  0  0  0
   -0.4578   21.2385  -30.9253 H   0  0  0  0  0  0  0  0  0  0  0  0
   -1.0031   19.8304  -31.9075 H   0  0  0  0  0  0  0  0  0  0  0  0
   -2.3846   20.9182  -34.2792 H   0  0  0  0  0  0  0  0  0  0  0  0
   -3.0452   20.1047  -32.8039 H   0  0  0  0  0  0  0  0  0  0  0  0
   -3.7088   23.0036  -33.4149 H   0  0  0  0  0  0  0  0  0  0  0  0
   -4.6215   21.6476  -34.1862 H   0  0  0  0  0  0  0  0  0  0  0  0
   -6.4132   23.9845  -32.0542 H   0  0  0  0  0  0  0  0  0  0  0  0
   -8.8962   23.9527  -31.9138 H   0  0  0  0  0  0  0  0  0  0  0  0
  -10.1271   21.7894  -31.8591 H   0  0  0  0  0  0  0  0  0  0  0  0
  -10.1185   19.3572  -31.8972 H   0  0  0  0  0  0  0  0  0  0  0  0
   -8.8671   17.2025  -31.9858 H   0  0  0  0  0  0  0  0  0  0  0  0
   -6.3795   17.2022  -32.1174 H   0  0  0  0  0  0  0  0  0  0  0  0
   -5.1234   19.3539  -32.1542 H   0  0  0  0  0  0  0  0  0  0  0  0
  1  2  1  0
  2  3  1  0
  3  4  1  0
  4  5  1  0
  5  6  1  0
  6  7  1  0
  7  8  1  0
  8  9  1  0
  9 10  1  0
 10 11  1  0
 11 12  1  0
 12 13  1  0
 13 14  1  0
 14 15  2  0
 15 16  1  0
 16 17  2  0
 17 18  1  0
 18 19  2  0
 19 20  1  0
 20 21  2  0
 21 22  1  0
 22 23  2  0
 23 14  1  0
 23 18  1  0
  1 24  1  0
  1 25  1  0
  1 26  1  0
  2 27  1  0
  2 28  1  0
  4 29  1  0
  4 30  1  0
  5 31  1  0
  5 32  1  0
  6 33  1  0
  6 34  1  0
  7 35  1  0
  7 36  1  0
  8 37  1  0
  8 38  1  0
  9 39  1  0
  9 40  1  0
 11 41  1  0
 11 42  1  0
 12 43  1  0
 12 44  1  0
 15 45  1  0
 16 46  1  0
 17 47  1  0
 19 48  1  0
 20 49  1  0
 21 50  1  0
 22 51  1  0
M  CHG  1   7   1
M  END
>  <UniqueID>  (29) 
29

>  <SMILES>  (29) 
CCOCCC[NH2+]CCOCCOc1cccc2ccccc12

>  <Energy>  (29) 
50.80635953454337

>  <Genealogy>  (29) 
CCOCCC[NH2+]CCOCCOc1cccc2ccccc12 (protonated)
CCOCCC[NH2+]CCOCCOc1cccc2ccccc12 (3D coordinates assigned)
CCOCCC[NH2+]CCOCCOc1cccc2ccccc12 (optimized conformer: 50.80635953454337 kcal/mol)

>  <smiles>  (29) 
CCOCCCNCCOCCOc1cccc2ccccc12

>  <score_type>  (29) 
oracle

>  <origin>  (29) 
adg

>  <m_score__min__energy>  (29) 
-6.9800000000000004

>  <m_primary>  (29) 
energy

$$$$
29:0
     RDKit          3D

 33 34  0  0  0  0  0  0  0  0999 V2000
   -9.5240   21.1570  -32.0060 C   0  0  0  0  0  0  0  0  0  0  0  0
   -8.4810   22.1560  -31.4880 C   0  0  0  0  0  0  0  0  0  0  0  0
   -7.1620   22.0040  -32.1640 N   0  0  2  0  0  0  0  0  0  0  0  0
   -6.9940   20.6300  -32.6810 C   0  0  0  0  0  0  0  0  0  0  0  0
   -6.0530   22.4730  -31.2750 C   0  0  1  0  0  0  0  0  0  0  0  0
   -5.0030   23.4120  -31.9460 C   0  0  0  0  0  0  0  0  0  0  0  0
   -4.5360   24.4480  -30.9880 N   0  0  0  0  0  0  0  0  0  0  0  0
   -4.0760   23.8090  -29.7260 C   0  0  0  0  0  0  0  0  0  0  0  0
   -5.2360   23.0640  -29.0060 C   0  0  0  0  0  0  0  0  0  0  0  0
   -6.4890   23.1030  -29.9120 C   0  0  0  0  0  0  0  0  0  0  0  0
   -6.8440   24.6070  -30.0470 C   0  0  0  0  0  0  0  0  0  0  0  0
   -5.6600   25.3660  -30.6930 C   0  0  0  0  0  0  0  0  0  0  0  0
  -10.0261   20.6761  -31.1536 H   0  0  0  0  0  0  0  0  0  0  0  0
  -10.2681   21.6880  -32.6179 H   0  0  0  0  0  0  0  0  0  0  0  0
   -9.0256   20.3907  -32.6179 H   0  0  0  0  0  0  0  0  0  0  0  0
   -8.8521   23.1765  -31.6635 H   0  0  0  0  0  0  0  0  0  0  0  0
   -8.3324   21.9591  -30.4160 H   0  0  0  0  0  0  0  0  0  0  0  0
   -7.1530   22.6410  -32.9960 H   0  0  0  0  0  0  0  0  0  0  0  0
   -6.9083   19.9289  -31.8377 H   0  0  0  0  0  0  0  0  0  0  0  0
   -7.8658   20.3601  -33.2951 H   0  0  0  0  0  0  0  0  0  0  0  0
   -6.0828   20.5781  -33.2951 H   0  0  0  0  0  0  0  0  0  0  0  0
   -5.5690   21.5083  -31.0625 H   0  0  0  0  0  0  0  0  0  0  0  0
   -4.1423   22.8126  -32.2774 H   0  0  0  0  0  0  0  0  0  0  0  0
   -5.4739   23.9118  -32.8054 H   0  0  0  0  0  0  0  0  0  0  0  0
   -3.2796   23.0874  -29.9608 H   0  0  0  0  0  0  0  0  0  0  0  0
   -3.7054   24.5985  -29.0556 H   0  0  0  0  0  0  0  0  0  0  0  0
   -4.9460   22.0193  -28.8203 H   0  0  0  0  0  0  0  0  0  0  0  0
   -5.4540   23.5510  -28.0441 H   0  0  0  0  0  0  0  0  0  0  0  0
   -7.3629   22.5529  -29.5330 H   0  0  0  0  0  0  0  0  0  0  0  0
   -7.7373   24.7166  -30.6794 H   0  0  0  0  0  0  0  0  0  0  0  0
   -7.0443   25.0252  -29.0495 H   0  0  0  0  0  0  0  0  0  0  0  0
   -5.9997   25.8309  -31.6303 H   0  0  0  0  0  0  0  0  0  0  0  0
   -5.3090   26.1325  -29.9864 H   0  0  0  0  0  0  0  0  0  0  0  0
  1  2  1  0
  2  3  1  0
  3  4  1  0
  3  5  1  0
  5  6  1  0
  6  7  1  0
  7  8  1  0
  8  9  1  0
  9 10  1  0
 10 11  1  0
 11 12  1  0
 10  5  1  0
 12  7  1  0
  1 13  1  0
  1 14  1  0
  1 15  1  0
  2 16  1  0
  2 17  1  0
  3 18  1  6
  4 19  1  0
  4 20  1  0
  4 21  1  0
  5 22  1  1
  6 23  1  0
  6 24  1  0
  8 25  1  0
  8 26  1  0
  9 27  1  0
  9 28  1  0
 10 29  1  0
 11 30  1  0
 11 31  1  0
 12 32  1  0
 12 33  1  0
M  CHG  1   3   1
M  END
>  <UniqueID>  (30) 
30

>  <SMILES>  (30) 
CC[N@H+](C)[C@H]1CN2CCC1CC2

>  <Energy>  (30) 
58.132041714416864

>  <Genealogy>  (30) 
CC[NH+](C)C1CN2CCC1CC2 (protonated)
CC[N@H+](C)[C@H]1CN2CCC1CC2 (chirality)
CC[N@H+](C)[C@H]1CN2CCC1CC2 (3D coordinates assigned)
CC[N@H+](C)[C@H]1CN2CCC1CC2 (nonaromatic ring conformer: 58.132041714416864 kcal/mol)

>  <smiles>  (30) 
CCN(C)C1CN2CCC1CC2

>  <score_type>  (30) 
oracle

>  <origin>  (30) 
adg

>  <m_score__min__energy>  (30) 
-4.9000000000000004

>  <m_primary>  (30) 
energy

$$$$
30:0
     RDKit          3D

 53 55  0  0  0  0  0  0  0  0999 V2000
   -2.6490   23.4870  -29.6200 C   0  0  0  0  0  0  0  0  0  0  0  0
   -1.7450   22.4330  -30.2950 C   0  0  0  0  0  0  0  0  0  0  0  0
   -2.0910   20.9850  -30.0330 N   0  0  0  0  0  0  0  0  0  0  0  0
   -0.8980   20.1390  -29.7420 C   0  0  0  0  0  0  0  0  0  0  0  0
   -3.0710   20.8670  -28.9000 C   0  0  0  0  0  0  0  0  0  0  0  0
   -2.5600   20.1840  -27.6180 C   0  0  0  0  0  0  0  0  0  0  0  0
   -2.8030   20.4370  -31.2400 C   0  0  0  0  0  0  0  0  0  0  0  0
   -2.3970   21.0580  -32.6030 C   0  0  0  0  0  0  0  0  0  0  0  0
   -3.5680   21.2960  -33.4510 N   0  0  0  0  0  0  0  0  0  0  0  0
   -4.8800   20.8040  -33.1180 C   0  0  0  0  0  0  0  0  0  0  0  0
   -5.2400   19.4860  -33.4540 C   0  0  0  0  0  0  0  0  0  0  0  0
   -4.3100   18.6160  -34.0630 C   0  0  0  0  0  0  0  0  0  0  0  0
   -4.6560   17.3000  -34.3570 C   0  0  0  0  0  0  0  0  0  0  0  0
   -5.9230   16.8250  -34.0430 C   0  0  0  0  0  0  0  0  0  0  0  0
   -6.8630   17.6710  -33.4560 C   0  0  0  0  0  0  0  0  0  0  0  0
   -6.5550   19.0280  -33.1800 C   0  0  0  0  0  0  0  0  0  0  0  0
   -7.4920   19.8910  -32.6410 N   0  0  0  0  0  0  0  0  0  0  0  0
   -8.9260   19.5140  -32.6180 C   0  0  0  0  0  0  0  0  0  0  0  0
   -7.0930   21.1120  -32.1300 C   0  0  0  0  0  0  0  0  0  0  0  0
   -7.9490   21.8940  -31.3140 C   0  0  0  0  0  0  0  0  0  0  0  0
   -7.5400   23.1310  -30.8200 C   0  0  0  0  0  0  0  0  0  0  0  0
   -6.2710   23.6180  -31.1080 C   0  0  0  0  0  0  0  0  0  0  0  0
   -5.7160   25.3090  -30.4110 Br  0  0  0  0  0  0  0  0  0  0  0  0
   -5.3920   22.8560  -31.8760 C   0  0  0  0  0  0  0  0  0  0  0  0
   -5.7840   21.6010  -32.3910 C   0  0  0  0  0  0  0  0  0  0  0  0
   -2.5685   23.3931  -28.5270 H   0  0  0  0  0  0  0  0  0  0  0  0
   -2.3295   24.4941  -29.9261 H   0  0  0  0  0  0  0  0  0  0  0  0
   -3.6930   23.3247  -29.9261 H   0  0  0  0  0  0  0  0  0  0  0  0
   -1.7929   22.5974  -31.3816 H   0  0  0  0  0  0  0  0  0  0  0  0
   -0.7470   22.5793  -29.8561 H   0  0  0  0  0  0  0  0  0  0  0  0
   -0.7697   20.0481  -28.6533 H   0  0  0  0  0  0  0  0  0  0  0  0
   -1.0416   19.1398  -30.1790 H   0  0  0  0  0  0  0  0  0  0  0  0
   -0.0026   20.6051  -30.1790 H   0  0  0  0  0  0  0  0  0  0  0  0
   -3.3948   21.8833  -28.6310 H   0  0  0  0  0  0  0  0  0  0  0  0
   -3.8741   20.2163  -29.2763 H   0  0  0  0  0  0  0  0  0  0  0  0
   -2.9556   20.7127  -26.7382 H   0  0  0  0  0  0  0  0  0  0  0  0
   -2.8988   19.1376  -27.6000 H   0  0  0  0  0  0  0  0  0  0  0  0
   -1.4605   20.2137  -27.6000 H   0  0  0  0  0  0  0  0  0  0  0  0
   -2.6028   19.3565  -31.2883 H   0  0  0  0  0  0  0  0  0  0  0  0
   -3.8646   20.6894  -31.1009 H   0  0  0  0  0  0  0  0  0  0  0  0
   -1.8853   22.0148  -32.4223 H   0  0  0  0  0  0  0  0  0  0  0  0
   -1.7316   20.3518  -33.1212 H   0  0  0  0  0  0  0  0  0  0  0  0
   -3.4810   21.9760  -34.2380 H   0  0  0  0  0  0  0  0  0  0  0  0
   -3.3018   18.9816  -34.3077 H   0  0  0  0  0  0  0  0  0  0  0  0
   -3.9244   16.6348  -34.8390 H   0  0  0  0  0  0  0  0  0  0  0  0
   -6.1854   15.7786  -34.2580 H   0  0  0  0  0  0  0  0  0  0  0  0
   -7.8595   17.2800  -33.2028 H   0  0  0  0  0  0  0  0  0  0  0  0
   -9.2650   19.4249  -31.5753 H   0  0  0  0  0  0  0  0  0  0  0  0
   -9.5167   20.2874  -33.1308 H   0  0  0  0  0  0  0  0  0  0  0  0
   -9.0600   18.5501  -33.1308 H   0  0  0  0  0  0  0  0  0  0  0  0
   -8.9527   21.5179  -31.0668 H   0  0  0  0  0  0  0  0  0  0  0  0
   -8.2258   23.7254  -30.1984 H   0  0  0  0  0  0  0  0  0  0  0  0
   -4.3811   23.2368  -32.0833 H   0  0  0  0  0  0  0  0  0  0  0  0
  1  2  1  0
  2  3  1  0
  3  4  1  0
  3  5  1  0
  5  6  1  0
  3  7  1  0
  7  8  1  0
  8  9  1  0
  9 10  1  0
 10 11  2  0
 11 12  1  0
 12 13  2  0
 13 14  1  0
 14 15  2  0
 15 16  1  0
 16 17  2  0
 17 18  1  0
 17 19  1  0
 19 20  2  0
 20 21  1  0
 21 22  2  0
 22 23  1  0
 22 24  1  0
 24 25  2  0
 25 10  1  0
 16 11  1  0
 25 19  1  0
  1 26  1  0
  1 27  1  0
  1 28  1  0
  2 29  1  0
  2 30  1  0
  4 31  1  0
  4 32  1  0
  4 33  1  0
  5 34  1  0
  5 35  1  0
  6 36  1  0
  6 37  1  0
  6 38  1  0
  7 39  1  0
  7 40  1  0
  8 41  1  0
  8 42  1  0
  9 43  1  0
 12 44  1  0
 13 45  1  0
 14 46  1  0
 15 47  1  0
 18 48  1  0
 18 49  1  0
 18 50  1  0
 20 51  1  0
 21 52  1  0
 24 53  1  0
M  CHG  2   3   1  17   1
M  END
>  <UniqueID>  (31) 
31

>  <SMILES>  (31) 
CC[N+](C)(CC)CCNc1c2ccccc2[n+](C)c2ccc(Br)cc12

>  <Energy>  (31) 
97.78169558196372

>  <Genealogy>  (31) 
CC[N+](C)(CC)CCNc1c2ccccc2[n+](C)c2ccc(Br)cc12 (3D coordinates assigned)
CC[N+](C)(CC)CCNc1c2ccccc2[n+](C)c2ccc(Br)cc12 (optimized conformer: 97.78169558196372 kcal/mol)

>  <smiles>  (31) 
CC[N+](C)(CC)CCNc1c2ccccc2[n+](C)c2ccc(Br)cc12

>  <score_type>  (31) 
oracle

>  <origin>  (31) 
adg

>  <m_score__min__energy>  (31) 
-7.5099999999999998

>  <m_primary>  (31) 
energy

$$$$
31:0
     RDKit          3D

 57 60  0  0  0  0  0  0  0  0999 V2000
   -0.9200   26.2930  -27.8420 C   0  0  0  0  0  0  0  0  0  0  0  0
   -0.9670   25.3950  -28.9450 O   0  0  0  0  0  0  0  0  0  0  0  0
   -0.8490   23.9990  -28.8460 C   0  0  0  0  0  0  0  0  0  0  0  0
    0.1440   23.3950  -28.0480 C   0  0  0  0  0  0  0  0  0  0  0  0
    0.2530   22.0040  -27.9850 C   0  0  0  0  0  0  0  0  0  0  0  0
   -0.6220   21.1990  -28.7150 C   0  0  0  0  0  0  0  0  0  0  0  0
   -1.6120   21.7820  -29.5070 C   0  0  0  0  0  0  0  0  0  0  0  0
   -1.7420   23.1790  -29.5730 C   0  0  0  0  0  0  0  0  0  0  0  0
   -2.8160   23.7760  -30.4520 C   0  0  0  0  0  0  0  0  0  0  0  0
   -3.7570   24.5980  -29.6590 N   0  0  0  0  0  0  0  0  0  0  0  0
   -4.2560   23.9040  -28.4510 C   0  0  0  0  0  0  0  0  0  0  0  0
   -5.3470   22.8600  -28.7760 C   0  0  0  0  0  0  0  0  0  0  0  0
   -6.3230   23.2960  -29.8150 N   0  0  0  0  0  0  0  0  0  0  0  0
   -6.3480   22.3840  -31.0090 C   0  0  2  0  0  0  0  0  0  0  0  0
   -5.9540   23.0440  -32.3670 C   0  0  0  0  0  0  0  0  0  0  0  0
   -7.1900   23.5470  -32.9220 N   0  0  0  0  0  0  0  0  0  0  0  0
   -8.2580   22.8400  -32.3340 C   0  0  0  0  0  0  0  0  0  0  0  0
   -9.4540   23.0000  -32.7000 O   0  0  0  0  0  0  0  0  0  0  0  0
   -7.8110   21.8610  -31.2890 C   0  0  2  0  0  0  0  0  0  0  0  0
   -8.7880   21.9330  -30.0910 C   0  0  0  0  0  0  0  0  0  0  0  0
   -7.7580   20.4170  -31.8210 C   0  0  0  0  0  0  0  0  0  0  0  0
   -8.6970   19.4260  -31.4440 C   0  0  0  0  0  0  0  0  0  0  0  0
   -8.6140   18.1290  -31.9600 C   0  0  0  0  0  0  0  0  0  0  0  0
   -7.6020   17.7940  -32.8580 C   0  0  0  0  0  0  0  0  0  0  0  0
   -6.6680   18.7540  -33.2450 C   0  0  0  0  0  0  0  0  0  0  0  0
   -5.4010   18.3320  -34.3840 Cl  0  0  0  0  0  0  0  0  0  0  0  0
   -6.7430   20.0530  -32.7330 C   0  0  0  0  0  0  0  0  0  0  0  0
   -6.2540   24.7530  -30.0430 C   0  0  0  0  0  0  0  0  0  0  0  0
   -4.8430   25.1850  -30.4870 C   0  0  0  0  0  0  0  0  0  0  0  0
   -0.9499   25.7217  -26.9025 H   0  0  0  0  0  0  0  0  0  0  0  0
    0.0100   26.8788  -27.8855 H   0  0  0  0  0  0  0  0  0  0  0  0
   -1.7838   26.9727  -27.8855 H   0  0  0  0  0  0  0  0  0  0  0  0
    0.8379   24.0238  -27.4708 H   0  0  0  0  0  0  0  0  0  0  0  0
    1.0303   21.5422  -27.3585 H   0  0  0  0  0  0  0  0  0  0  0  0
   -0.5314   20.1038  -28.6662 H   0  0  0  0  0  0  0  0  0  0  0  0
   -2.2960   21.1425  -30.0842 H   0  0  0  0  0  0  0  0  0  0  0  0
   -2.3432   24.4088  -31.2175 H   0  0  0  0  0  0  0  0  0  0  0  0
   -3.3787   22.9560  -30.9221 H   0  0  0  0  0  0  0  0  0  0  0  0
   -3.4124   23.3926  -27.9643 H   0  0  0  0  0  0  0  0  0  0  0  0
   -4.7047   24.6618  -27.7919 H   0  0  0  0  0  0  0  0  0  0  0  0
   -4.8523   21.9438  -29.1308 H   0  0  0  0  0  0  0  0  0  0  0  0
   -5.9205   22.7050  -27.8502 H   0  0  0  0  0  0  0  0  0  0  0  0
   -5.6190   21.6095  -30.7285 H   0  0  0  0  0  0  0  0  0  0  0  0
   -5.2427   23.8669  -32.2030 H   0  0  0  0  0  0  0  0  0  0  0  0
   -5.4635   22.3280  -33.0428 H   0  0  0  0  0  0  0  0  0  0  0  0
   -7.2630   24.1100  -33.7990 H   0  0  0  0  0  0  0  0  0  0  0  0
   -8.2188   21.8911  -29.1506 H   0  0  0  0  0  0  0  0  0  0  0  0
   -9.3538   22.8753  -30.1354 H   0  0  0  0  0  0  0  0  0  0  0  0
   -9.4858   21.0838  -30.1354 H   0  0  0  0  0  0  0  0  0  0  0  0
   -9.5008   19.6795  -30.7372 H   0  0  0  0  0  0  0  0  0  0  0  0
   -9.3501   17.3702  -31.6561 H   0  0  0  0  0  0  0  0  0  0  0  0
   -7.5403   16.7724  -33.2613 H   0  0  0  0  0  0  0  0  0  0  0  0
   -6.0006   20.8023  -33.0451 H   0  0  0  0  0  0  0  0  0  0  0  0
   -6.9757   25.0275  -30.8264 H   0  0  0  0  0  0  0  0  0  0  0  0
   -6.4917   25.2635  -29.0981 H   0  0  0  0  0  0  0  0  0  0  0  0
   -4.6944   24.8704  -31.5305 H   0  0  0  0  0  0  0  0  0  0  0  0
   -4.7862   26.2772  -30.3694 H   0  0  0  0  0  0  0  0  0  0  0  0
  1  2  1  0
  2  3  1  0
  3  4  2  0
  4  5  1  0
  5  6  2  0
  6  7  1  0
  7  8  2  0
  8  9  1  0
  9 10  1  0
 10 11  1  0
 11 12  1  0
 12 13  1  0
 13 14  1  0
 14 15  1  0
 15 16  1  0
 16 17  1  0
 17 18  2  0
 17 19  1  0
 19 20  1  1
 19 21  1  0
 21 22  2  0
 22 23  1  0
 23 24  2  0
 24 25  1  0
 25 26  1  0
 25 27  2  0
 13 28  1  0
 28 29  1  0
  8  3  1  0
 29 10  1  0
 19 14  1  0
 27 21  1  0
  1 30  1  0
  1 31  1  0
  1 32  1  0
  4 33  1  0
  5 34  1  0
  6 35  1  0
  7 36  1  0
  9 37  1  0
  9 38  1  0
 11 39  1  0
 11 40  1  0
 12 41  1  0
 12 42  1  0
 14 43  1  1
 15 44  1  0
 15 45  1  0
 16 46  1  0
 20 47  1  0
 20 48  1  0
 20 49  1  0
 22 50  1  0
 23 51  1  0
 24 52  1  0
 27 53  1  0
 28 54  1  0
 28 55  1  0
 29 56  1  0
 29 57  1  0
M  END
>  <UniqueID>  (32) 
32

>  <SMILES>  (32) 
COc1ccccc1CN1CCN([C@@H]2CNC(=O)[C@@]2(C)c2cccc(Cl)c2)CC1

>  <Energy>  (32) 
101.20888680002183

>  <Genealogy>  (32) 
COc1ccccc1CN1CCN([C@@H]2CNC(=O)[C@@]2(C)c2cccc(Cl)c2)CC1 (chirality)
COc1ccccc1CN1CCN([C@@H]2CNC(=O)[C@@]2(C)c2cccc(Cl)c2)CC1 (3D coordinates assigned)
COc1ccccc1CN1CCN([C@@H]2CNC(=O)[C@@]2(C)c2cccc(Cl)c2)CC1 (nonaromatic ring conformer: 101.20888680002183 kcal/mol)

>  <smiles>  (32) 
COc1ccccc1CN1CCN(C2CNC(=O)C2(C)c2cccc(Cl)c2)CC1

>  <score_type>  (32) 
oracle

>  <origin>  (32) 
adg

>  <m_score__min__energy>  (32) 
-9.7699999999999996

>  <m_primary>  (32) 
energy

$$$$
32:0
     RDKit          3D

 52 55  0  0  0  0  0  0  0  0999 V2000
   -1.7550   24.1760  -28.5920 C   0  0  0  0  0  0  0  0  0  0  0  0
   -2.9690   23.3950  -28.1050 C   0  0  0  0  0  0  0  0  0  0  0  0
   -4.1670   23.8130  -28.8300 N   0  0  0  0  0  0  0  0  0  0  0  0
   -4.9850   24.7660  -28.4040 N   0  0  0  0  0  0  0  0  0  0  0  0
   -5.9230   24.9680  -29.3560 C   0  0  0  0  0  0  0  0  0  0  0  0
   -5.6660   24.1240  -30.4180 C   0  0  0  0  0  0  0  0  0  0  0  0
   -4.5680   23.3990  -30.0500 C   0  0  0  0  0  0  0  0  0  0  0  0
   -3.8630   22.4650  -30.9870 C   0  0  0  0  0  0  0  0  0  0  0  0
   -4.7860   22.0310  -32.0670 N   0  0  2  0  0  0  0  0  0  0  0  0
   -4.1050   21.1580  -33.0530 C   0  0  0  0  0  0  0  0  0  0  0  0
   -4.6310   19.7480  -33.0760 C   0  0  0  0  0  0  0  0  0  0  0  0
   -4.4560   18.8340  -34.0990 C   0  0  0  0  0  0  0  0  0  0  0  0
   -5.1180   17.6930  -33.6990 C   0  0  0  0  0  0  0  0  0  0  0  0
   -5.6490   17.9840  -32.4570 C   0  0  0  0  0  0  0  0  0  0  0  0
   -6.4710   17.0590  -31.6260 C   0  0  0  0  0  0  0  0  0  0  0  0
   -5.3450   19.2140  -32.1120 O   0  0  0  0  0  0  0  0  0  0  0  0
   -5.4650   23.1880  -32.7180 C   0  0  0  0  0  0  0  0  0  0  0  0
   -6.3770   23.9740  -31.7290 C   0  0  1  0  0  0  0  0  0  0  0  0
   -7.7410   23.2950  -31.5200 C   0  0  0  0  0  0  0  0  0  0  0  0
   -7.5470   21.9530  -31.1240 O   0  0  0  0  0  0  0  0  0  0  0  0
   -8.7910   21.3140  -30.8850 C   0  0  0  0  0  0  0  0  0  0  0  0
   -9.3090   20.5440  -32.1140 C   0  0  0  0  0  0  0  0  0  0  0  0
   -9.0120   19.0510  -32.1150 C   0  0  0  0  0  0  0  0  0  0  0  0
   -8.2930   19.9690  -33.0930 C   0  0  0  0  0  0  0  0  0  0  0  0
   -1.1840   24.5433  -27.7265 H   0  0  0  0  0  0  0  0  0  0  0  0
   -1.1163   23.5190  -29.2005 H   0  0  0  0  0  0  0  0  0  0  0  0
   -2.0881   25.0296  -29.2005 H   0  0  0  0  0  0  0  0  0  0  0  0
   -2.8002   22.3210  -28.2723 H   0  0  0  0  0  0  0  0  0  0  0  0
   -3.1137   23.5919  -27.0325 H   0  0  0  0  0  0  0  0  0  0  0  0
   -6.7539   25.6862  -29.2948 H   0  0  0  0  0  0  0  0  0  0  0  0
   -2.9990   22.9801  -31.4322 H   0  0  0  0  0  0  0  0  0  0  0  0
   -3.5244   21.5811  -30.4266 H   0  0  0  0  0  0  0  0  0  0  0  0
   -5.5230   21.4340  -31.6240 H   0  0  0  0  0  0  0  0  0  0  0  0
   -4.2377   21.5947  -34.0538 H   0  0  0  0  0  0  0  0  0  0  0  0
   -3.0471   21.1022  -32.7570 H   0  0  0  0  0  0  0  0  0  0  0  0
   -3.9030   18.9861  -35.0376 H   0  0  0  0  0  0  0  0  0  0  0  0
   -5.2054   16.7470  -34.2535 H   0  0  0  0  0  0  0  0  0  0  0  0
   -6.2891   17.2636  -30.5606 H   0  0  0  0  0  0  0  0  0  0  0  0
   -7.5366   17.2120  -31.8521 H   0  0  0  0  0  0  0  0  0  0  0  0
   -6.1939   16.0188  -31.8521 H   0  0  0  0  0  0  0  0  0  0  0  0
   -4.6985   23.8719  -33.1114 H   0  0  0  0  0  0  0  0  0  0  0  0
   -6.1036   22.7934  -33.5220 H   0  0  0  0  0  0  0  0  0  0  0  0
   -6.5788   24.9622  -32.1680 H   0  0  0  0  0  0  0  0  0  0  0  0
   -8.3003   23.8301  -30.7384 H   0  0  0  0  0  0  0  0  0  0  0  0
   -8.3091   23.3193  -32.4616 H   0  0  0  0  0  0  0  0  0  0  0  0
   -8.6688   20.6061  -30.0520 H   0  0  0  0  0  0  0  0  0  0  0  0
   -9.5268   22.0968  -30.6488 H   0  0  0  0  0  0  0  0  0  0  0  0
  -10.1984   21.1810  -32.2289 H   0  0  0  0  0  0  0  0  0  0  0  0
   -8.4601   18.5996  -31.2773 H   0  0  0  0  0  0  0  0  0  0  0  0
   -9.6182   18.1378  -32.2080 H   0  0  0  0  0  0  0  0  0  0  0  0
   -7.2217   20.1814  -32.9620 H   0  0  0  0  0  0  0  0  0  0  0  0
   -8.1644   19.9944  -34.1852 H   0  0  0  0  0  0  0  0  0  0  0  0
  1  2  1  0
  2  3  1  0
  3  4  1  0
  4  5  2  0
  5  6  1  0
  6  7  2  0
  7  8  1  0
  8  9  1  0
  9 10  1  0
 10 11  1  0
 11 12  2  0
 12 13  1  0
 13 14  2  0
 14 15  1  0
 14 16  1  0
  9 17  1  0
 17 18  1  0
 18 19  1  0
 19 20  1  0
 20 21  1  0
 21 22  1  0
 22 23  1  0
 23 24  1  0
  7  3  1  0
 16 11  1  0
 24 22  1  0
 18  6  1  0
  1 25  1  0
  1 26  1  0
  1 27  1  0
  2 28  1  0
  2 29  1  0
  5 30  1  0
  8 31  1  0
  8 32  1  0
  9 33  1  1
 10 34  1  0
 10 35  1  0
 12 36  1  0
 13 37  1  0
 15 38  1  0
 15 39  1  0
 15 40  1  0
 17 41  1  0
 17 42  1  0
 18 43  1  6
 19 44  1  0
 19 45  1  0
 21 46  1  0
 21 47  1  0
 22 48  1  0
 23 49  1  0
 23 50  1  0
 24 51  1  0
 24 52  1  0
M  CHG  1   9   1
M  END
>  <UniqueID>  (33) 
33

>  <SMILES>  (33) 
CCn1ncc2c1C[N@H+](Cc1ccc(C)o1)C[C@H]2COCC1CC1

>  <Energy>  (33) 
378.06156685613644

>  <Genealogy>  (33) 
CCn1ncc2c1C[NH+](Cc1ccc(C)o1)CC2COCC1CC1 (protonated)
CCn1ncc2c1C[N@H+](Cc1ccc(C)o1)C[C@H]2COCC1CC1 (chirality)
CCn1ncc2c1C[N@H+](Cc1ccc(C)o1)C[C@H]2COCC1CC1 (3D coordinates assigned)
CCn1ncc2c1C[N@H+](Cc1ccc(C)o1)C[C@H]2COCC1CC1 (nonaromatic ring conformer: 378.06156685613644 kcal/mol)

>  <smiles>  (33) 
CCn1ncc2c1CN(Cc1ccc(C)o1)CC2COCC1CC1

>  <score_type>  (33) 
oracle

>  <origin>  (33) 
adg

>  <m_score__min__energy>  (33) 
-6.7699999999999996

>  <m_primary>  (33) 
energy

$$$$
33:0
     RDKit          3D

 38 37  0  0  0  0  0  0  0  0999 V2000
   -6.1940   25.5860  -29.4890 C   0  0  0  0  0  0  0  0  0  0  0  0
   -5.3540   25.6070  -30.7610 C   0  0  0  0  0  0  0  0  0  0  0  0
   -3.9560   25.2910  -30.4390 N   0  0  0  0  0  0  0  0  0  0  0  0
   -3.8600   24.2460  -29.4070 C   0  0  0  0  0  0  0  0  0  0  0  0
   -2.7500   23.2350  -29.7400 C   0  0  0  0  0  0  0  0  0  0  0  0
   -3.1320   22.2470  -30.8530 C   0  0  0  0  0  0  0  0  0  0  0  0
   -3.9660   22.8980  -31.8760 N   0  0  0  0  0  0  0  0  0  0  0  0
   -4.6960   21.9140  -32.6940 C   0  0  0  0  0  0  0  0  0  0  0  0
   -5.9990   21.5070  -32.0050 C   0  0  0  0  0  0  0  0  0  0  0  0
   -6.6450   22.6910  -31.3920 N   0  0  0  0  0  0  0  0  0  0  0  0
   -7.2250   22.3960  -30.0710 C   0  0  0  0  0  0  0  0  0  0  0  0
   -7.5930   23.3810  -32.2940 C   0  0  0  0  0  0  0  0  0  0  0  0
   -9.0670   23.0430  -32.0250 C   0  0  0  0  0  0  0  0  0  0  0  0
   -5.5310   25.6026  -28.6114 H   0  0  0  0  0  0  0  0  0  0  0  0
   -6.8510   26.4680  -29.4689 H   0  0  0  0  0  0  0  0  0  0  0  0
   -6.8061   24.6723  -29.4689 H   0  0  0  0  0  0  0  0  0  0  0  0
   -5.7437   24.8602  -31.4684 H   0  0  0  0  0  0  0  0  0  0  0  0
   -5.4052   26.6082  -31.2137 H   0  0  0  0  0  0  0  0  0  0  0  0
   -3.5060   24.9210  -31.3100 H   0  0  0  0  0  0  0  0  0  0  0  0
   -3.6369   24.7176  -28.4386 H   0  0  0  0  0  0  0  0  0  0  0  0
   -4.8190   23.7088  -29.3653 H   0  0  0  0  0  0  0  0  0  0  0  0
   -1.8571   23.7918  -30.0606 H   0  0  0  0  0  0  0  0  0  0  0  0
   -2.5695   22.6428  -28.8308 H   0  0  0  0  0  0  0  0  0  0  0  0
   -2.2147   21.8666  -31.3261 H   0  0  0  0  0  0  0  0  0  0  0  0
   -3.7071   21.4226  -30.4062 H   0  0  0  0  0  0  0  0  0  0  0  0
   -4.6750   23.4850  -31.3790 H   0  0  0  0  0  0  0  0  0  0  0  0
   -4.9276   22.3579  -33.6734 H   0  0  0  0  0  0  0  0  0  0  0  0
   -4.0669   21.0208  -32.8221 H   0  0  0  0  0  0  0  0  0  0  0  0
   -6.6799   21.0651  -32.7473 H   0  0  0  0  0  0  0  0  0  0  0  0
   -5.7744   20.7726  -31.2174 H   0  0  0  0  0  0  0  0  0  0  0  0
   -6.5402   22.7443  -29.2838 H   0  0  0  0  0  0  0  0  0  0  0  0
   -8.1912   22.9122  -29.9712 H   0  0  0  0  0  0  0  0  0  0  0  0
   -7.3769   21.3111  -29.9712 H   0  0  0  0  0  0  0  0  0  0  0  0
   -7.4589   24.4660  -32.1728 H   0  0  0  0  0  0  0  0  0  0  0  0
   -7.3684   23.0389  -33.3150 H   0  0  0  0  0  0  0  0  0  0  0  0
   -9.2418   23.0029  -30.9397 H   0  0  0  0  0  0  0  0  0  0  0  0
   -9.7081   23.8174  -32.4713 H   0  0  0  0  0  0  0  0  0  0  0  0
   -9.3066   22.0666  -32.4713 H   0  0  0  0  0  0  0  0  0  0  0  0
  1  2  1  0
  2  3  1  0
  3  4  1  0
  4  5  1  0
  5  6  1  0
  6  7  1  0
  7  8  1  0
  8  9  1  0
  9 10  1  0
 10 11  1  0
 10 12  1  0
 12 13  1  0
  1 14  1  0
  1 15  1  0
  1 16  1  0
  2 17  1  0
  2 18  1  0
  3 19  1  0
  4 20  1  0
  4 21  1  0
  5 22  1  0
  5 23  1  0
  6 24  1  0
  6 25  1  0
  7 26  1  0
  8 27  1  0
  8 28  1  0
  9 29  1  0
  9 30  1  0
 11 31  1  0
 11 32  1  0
 11 33  1  0
 12 34  1  0
 12 35  1  0
 13 36  1  0
 13 37  1  0
 13 38  1  0
M  END
>  <UniqueID>  (34) 
34

>  <SMILES>  (34) 
CCNCCCNCCN(C)CC

>  <Energy>  (34) 
28.208010017605158

>  <Genealogy>  (34) 
CCNCCCNCCN(C)CC (3D coordinates assigned)
CCNCCCNCCN(C)CC (optimized conformer: 28.208010017605158 kcal/mol)

>  <smiles>  (34) 
CCNCCCNCCN(C)CC

>  <score_type>  (34) 
oracle

>  <origin>  (34) 
adg

>  <m_score__min__energy>  (34) 
-4.2400000000000002

>  <m_primary>  (34) 
energy

$$$$
34:0
     RDKit          3D

 64 67  0  0  0  0  0  0  0  0999 V2000
   -1.9320   20.2120  -27.0590 C   0  0  0  0  0  0  0  0  0  0  0  0
   -3.1030   20.9050  -27.7660 C   0  0  0  0  0  0  0  0  0  0  0  0
   -2.7440   22.2480  -28.2960 N   0  0  0  0  0  0  0  0  0  0  0  0
   -1.2680   22.4450  -28.4170 C   0  0  0  0  0  0  0  0  0  0  0  0
   -0.8910   23.2850  -29.6430 C   0  0  0  0  0  0  0  0  0  0  0  0
   -3.3750   23.3260  -27.4880 C   0  0  0  0  0  0  0  0  0  0  0  0
   -4.3780   24.1950  -28.2760 C   0  0  0  0  0  0  0  0  0  0  0  0
   -3.9660   24.3120  -29.6260 O   0  0  0  0  0  0  0  0  0  0  0  0
   -4.9680   24.9220  -30.4220 C   0  0  0  0  0  0  0  0  0  0  0  0
   -5.4530   23.9500  -31.5030 C   0  0  0  0  0  0  0  0  0  0  0  0
   -5.0460   22.5730  -31.2040 N   0  0  0  0  0  0  0  0  0  0  0  0
   -5.6670   21.4470  -31.8430 C   0  0  0  0  0  0  0  0  0  0  0  0
   -7.0760   21.3180  -31.8900 C   0  0  0  0  0  0  0  0  0  0  0  0
   -7.9110   22.3930  -31.5240 C   0  0  0  0  0  0  0  0  0  0  0  0
   -9.2970   22.2730  -31.5910 C   0  0  0  0  0  0  0  0  0  0  0  0
   -9.8760   21.0930  -32.0460 C   0  0  0  0  0  0  0  0  0  0  0  0
   -9.0760   20.0200  -32.4390 C   0  0  0  0  0  0  0  0  0  0  0  0
   -7.6640   20.0970  -32.3580 C   0  0  0  0  0  0  0  0  0  0  0  0
   -6.8580   19.0390  -32.7430 N   0  0  0  0  0  0  0  0  0  0  0  0
   -7.4080   17.6870  -32.9350 C   0  0  0  0  0  0  0  0  0  0  0  0
   -5.5130   19.2720  -32.8840 C   0  0  0  0  0  0  0  0  0  0  0  0
   -4.5120   18.5060  -33.4770 C   0  0  0  0  0  0  0  0  0  0  0  0
   -4.5420   17.3250  -34.2340 C   0  0  0  0  0  0  0  0  0  0  0  0
   -3.3370   16.8450  -34.7700 C   0  0  0  0  0  0  0  0  0  0  0  0
   -2.1380   17.5530  -34.5770 C   0  0  0  0  0  0  0  0  0  0  0  0
   -2.1310   18.7610  -33.8640 C   0  0  0  0  0  0  0  0  0  0  0  0
   -3.3390   19.2260  -33.3210 C   0  0  0  0  0  0  0  0  0  0  0  0
   -3.5610   20.3970  -32.6700 N   0  0  0  0  0  0  0  0  0  0  0  0
   -2.5950   21.4830  -32.4720 C   0  0  0  0  0  0  0  0  0  0  0  0
   -4.9020   20.4260  -32.4270 C   0  0  0  0  0  0  0  0  0  0  0  0
   -2.0635   20.2898  -25.9697 H   0  0  0  0  0  0  0  0  0  0  0  0
   -1.9037   19.1516  -27.3501 H   0  0  0  0  0  0  0  0  0  0  0  0
   -0.9888   20.6975  -27.3501 H   0  0  0  0  0  0  0  0  0  0  0  0
   -3.4312   20.2727  -28.6042 H   0  0  0  0  0  0  0  0  0  0  0  0
   -3.9019   21.0452  -27.0230 H   0  0  0  0  0  0  0  0  0  0  0  0
   -3.1840   22.3330  -29.2440 H   0  0  0  0  0  0  0  0  0  0  0  0
   -0.9041   22.9555  -27.5131 H   0  0  0  0  0  0  0  0  0  0  0  0
   -0.8049   21.4540  -28.5331 H   0  0  0  0  0  0  0  0  0  0  0  0
   -0.4613   24.2425  -29.3134 H   0  0  0  0  0  0  0  0  0  0  0  0
   -0.1512   22.7398  -30.2476 H   0  0  0  0  0  0  0  0  0  0  0  0
   -1.7900   23.4754  -30.2476 H   0  0  0  0  0  0  0  0  0  0  0  0
   -3.9077   22.8604  -26.6457 H   0  0  0  0  0  0  0  0  0  0  0  0
   -2.5648   23.9935  -27.1593 H   0  0  0  0  0  0  0  0  0  0  0  0
   -5.3727   23.7268  -28.2386 H   0  0  0  0  0  0  0  0  0  0  0  0
   -4.4184   25.1971  -27.8241 H   0  0  0  0  0  0  0  0  0  0  0  0
   -5.8166   25.2063  -29.7824 H   0  0  0  0  0  0  0  0  0  0  0  0
   -4.5460   25.8148  -30.9066 H   0  0  0  0  0  0  0  0  0  0  0  0
   -6.5507   23.9950  -31.5587 H   0  0  0  0  0  0  0  0  0  0  0  0
   -5.0018   24.2446  -32.4620 H   0  0  0  0  0  0  0  0  0  0  0  0
   -4.2190   22.4090  -30.5890 H   0  0  0  0  0  0  0  0  0  0  0  0
   -7.4629   23.3374  -31.1816 H   0  0  0  0  0  0  0  0  0  0  0  0
   -9.9357   23.1140  -31.2831 H   0  0  0  0  0  0  0  0  0  0  0  0
  -10.9714   21.0054  -32.0962 H   0  0  0  0  0  0  0  0  0  0  0  0
   -9.5483   19.1013  -32.8171 H   0  0  0  0  0  0  0  0  0  0  0  0
   -7.5960   17.2250  -31.9546 H   0  0  0  0  0  0  0  0  0  0  0  0
   -8.3514   17.7513  -33.4969 H   0  0  0  0  0  0  0  0  0  0  0  0
   -6.6876   17.0745  -33.4969 H   0  0  0  0  0  0  0  0  0  0  0  0
   -5.4871   16.7883  -34.4033 H   0  0  0  0  0  0  0  0  0  0  0  0
   -3.3307   15.9076  -35.3455 H   0  0  0  0  0  0  0  0  0  0  0  0
   -1.1979   17.1566  -34.9883 H   0  0  0  0  0  0  0  0  0  0  0  0
   -1.1995   19.3313  -33.7333 H   0  0  0  0  0  0  0  0  0  0  0  0
   -2.4466   21.6499  -31.3949 H   0  0  0  0  0  0  0  0  0  0  0  0
   -1.6359   21.2098  -32.9363 H   0  0  0  0  0  0  0  0  0  0  0  0
   -2.9781   22.4037  -32.9363 H   0  0  0  0  0  0  0  0  0  0  0  0
  1  2  1  0
  2  3  1  0
  3  4  1  0
  4  5  1  0
  3  6  1  0
  6  7  1  0
  7  8  1  0
  8  9  1  0
  9 10  1  0
 10 11  1  0
 11 12  1  0
 12 13  2  0
 13 14  1  0
 14 15  2  0
 15 16  1  0
 16 17  2  0
 17 18  1  0
 18 19  2  0
 19 20  1  0
 19 21  1  0
 21 22  1  0
 22 23  2  0
 23 24  1  0
 24 25  2  0
 25 26  1  0
 26 27  2  0
 27 28  1  0
 28 29  1  0
 28 30  1  0
 30 12  1  0
 18 13  1  0
 30 21  2  0
 27 22  1  0
  1 31  1  0
  1 32  1  0
  1 33  1  0
  2 34  1  0
  2 35  1  0
  3 36  1  0
  4 37  1  0
  4 38  1  0
  5 39  1  0
  5 40  1  0
  5 41  1  0
  6 42  1  0
  6 43  1  0
  7 44  1  0
  7 45  1  0
  9 46  1  0
  9 47  1  0
 10 48  1  0
 10 49  1  0
 11 50  1  0
 14 51  1  0
 15 52  1  0
 16 53  1  0
 17 54  1  0
 20 55  1  0
 20 56  1  0
 20 57  1  0
 23 58  1  0
 24 59  1  0
 25 60  1  0
 26 61  1  0
 29 62  1  0
 29 63  1  0
 29 64  1  0
M  CHG  2   3   1  19   1
M  END
>  <UniqueID>  (35) 
35

>  <SMILES>  (35) 
CC[NH+](CC)CCOCCNc1c2ccccc2[n+](C)c2c3ccccc3n(C)c12

>  <Energy>  (35) 
137.50526521131152

>  <Genealogy>  (35) 
CC[NH+](CC)CCOCCNc1c2ccccc2[n+](C)c2c3ccccc3n(C)c12 (protonated)
CC[NH+](CC)CCOCCNc1c2ccccc2[n+](C)c2c3ccccc3n(C)c12 (3D coordinates assigned)
CC[NH+](CC)CCOCCNc1c2ccccc2[n+](C)c2c3ccccc3n(C)c12 (optimized conformer: 137.50526521131152 kcal/mol)

>  <smiles>  (35) 
CCN(CC)CCOCCNc1c2ccccc2[n+](C)c2c3ccccc3n(C)c12

>  <score_type>  (35) 
oracle

>  <origin>  (35) 
adg

>  <m_score__min__energy>  (35) 
-7.6900000000000004

>  <m_primary>  (35) 
energy

$$$$
35:0
     RDKit          3D

 29 31  0  0  0  0  0  0  0  0999 V2000
   -3.1100   24.5090  -27.4020 C   0  0  0  0  0  0  0  0  0  0  0  0
   -2.2810   24.8610  -28.6320 C   0  0  0  0  0  0  0  0  0  0  0  0
   -3.1240   25.2530  -29.7160 O   0  0  0  0  0  0  0  0  0  0  0  0
   -4.3110   24.6100  -30.1040 C   0  0  0  0  0  0  0  0  0  0  0  0
   -5.4990   25.3520  -30.0810 C   0  0  0  0  0  0  0  0  0  0  0  0
   -6.7140   24.7710  -30.4550 C   0  0  0  0  0  0  0  0  0  0  0  0
   -6.7540   23.4330  -30.8560 C   0  0  0  0  0  0  0  0  0  0  0  0
   -7.9350   22.8640  -31.2210 N   0  0  0  0  0  0  0  0  0  0  0  0
   -7.9740   21.5660  -31.6090 C   0  0  0  0  0  0  0  0  0  0  0  0
   -9.1620   20.9470  -31.9900 C   0  0  0  0  0  0  0  0  0  0  0  0
   -9.1470   19.6030  -32.3820 C   0  0  0  0  0  0  0  0  0  0  0  0
   -7.9500   18.8650  -32.3980 C   0  0  0  0  0  0  0  0  0  0  0  0
   -7.9680   17.6570  -32.7560 O   0  0  0  0  0  0  0  0  0  0  0  0
   -6.7370   19.4580  -32.0200 C   0  0  0  0  0  0  0  0  0  0  0  0
   -6.7130   20.7950  -31.6240 C   0  0  0  0  0  0  0  0  0  0  0  0
   -5.5860   21.3910  -31.2590 O   0  0  0  0  0  0  0  0  0  0  0  0
   -5.5620   22.6680  -30.8810 C   0  0  0  0  0  0  0  0  0  0  0  0
   -4.3500   23.2580  -30.5040 C   0  0  0  0  0  0  0  0  0  0  0  0
   -2.5392   24.7514  -26.4935 H   0  0  0  0  0  0  0  0  0  0  0  0
   -4.0455   25.0875  -27.4125 H   0  0  0  0  0  0  0  0  0  0  0  0
   -3.3435   23.4341  -27.4125 H   0  0  0  0  0  0  0  0  0  0  0  0
   -1.6026   25.6907  -28.3844 H   0  0  0  0  0  0  0  0  0  0  0  0
   -1.7058   23.9738  -28.9354 H   0  0  0  0  0  0  0  0  0  0  0  0
   -5.4754   26.4052  -29.7646 H   0  0  0  0  0  0  0  0  0  0  0  0
   -7.6384   25.3668  -30.4337 H   0  0  0  0  0  0  0  0  0  0  0  0
  -10.1065   21.5107  -31.9830 H   0  0  0  0  0  0  0  0  0  0  0  0
  -10.0867   19.1164  -32.6823 H   0  0  0  0  0  0  0  0  0  0  0  0
   -5.8072   18.8705  -32.0357 H   0  0  0  0  0  0  0  0  0  0  0  0
   -3.4239   22.6647  -30.5197 H   0  0  0  0  0  0  0  0  0  0  0  0
  1  2  1  0
  2  3  1  0
  3  4  1  0
  4  5  2  0
  5  6  1  0
  6  7  2  0
  7  8  1  0
  8  9  2  0
  9 10  1  0
 10 11  2  0
 11 12  1  0
 12 13  2  0
 12 14  1  0
 14 15  2  0
 15 16  1  0
 16 17  1  0
 17 18  2  0
 18  4  1  0
 17  7  1  0
 15  9  1  0
  1 19  1  0
  1 20  1  0
  1 21  1  0
  2 22  1  0
  2 23  1  0
  5 24  1  0
  6 25  1  0
 10 26  1  0
 11 27  1  0
 14 28  1  0
 18 29  1  0
M  END
>  <UniqueID>  (36) 
36

>  <SMILES>  (36) 
CCOc1ccc2nc3ccc(=O)cc-3oc2c1

>  <Energy>  (36) 
34.58339313046658

>  <Genealogy>  (36) 
CCOc1ccc2nc3ccc(=O)cc-3oc2c1 (3D coordinates assigned)
CCOc1ccc2nc3ccc(=O)cc-3oc2c1 (optimized conformer: 34.58339313046658 kcal/mol)

>  <smiles>  (36) 
CCOc1ccc2nc3ccc(=O)cc-3oc2c1

>  <score_type>  (36) 
oracle

>  <origin>  (36) 
adg

>  <m_score__min__energy>  (36) 
-7.4500000000000002

>  <m_primary>  (36) 
energy

$$$$
36:0
     RDKit          3D

 45 47  0  0  0  0  0  0  0  0999 V2000
   -5.5627   26.2509  -31.0945 H   0  0  0  0  0  0  0  0  0  0  0  0
   -5.0370   25.3020  -30.9120 C   0  0  0  0  0  0  0  0  0  0  0  0
   -3.8460   25.3040  -30.2620 N   0  0  0  0  0  0  0  0  0  0  0  0
   -3.1620   24.1570  -30.0170 C   0  0  0  0  0  0  0  0  0  0  0  0
   -1.9390   24.2130  -29.3410 C   0  0  0  0  0  0  0  0  0  0  0  0
   -1.5411   25.1827  -29.0074 H   0  0  0  0  0  0  0  0  0  0  0  0
   -1.2210   23.0420  -29.0880 C   0  0  0  0  0  0  0  0  0  0  0  0
   -0.2654   23.0938  -28.5456 H   0  0  0  0  0  0  0  0  0  0  0  0
   -1.7080   21.8050  -29.5190 C   0  0  0  0  0  0  0  0  0  0  0  0
   -0.9500   20.6220  -29.2260 N   0  0  0  0  0  0  0  0  0  0  0  0
    0.1760   20.1250  -29.9600 C   0  0  0  0  0  0  0  0  0  0  0  0
    1.0770   19.4990  -29.3420 O   0  0  0  0  0  0  0  0  0  0  0  0
    0.3330   20.3640  -31.4390 C   0  0  0  0  0  0  0  0  0  0  0  0
    1.1294   19.7128  -31.8286 H   0  0  0  0  0  0  0  0  0  0  0  0
    0.5930   21.4201  -31.6036 H   0  0  0  0  0  0  0  0  0  0  0  0
   -0.9290   20.0660  -32.1470 N   0  0  0  0  0  0  0  0  0  0  0  0
   -0.9130   18.7200  -32.7490 C   0  0  0  0  0  0  0  0  0  0  0  0
   -0.9040   17.9619  -31.9520 H   0  0  0  0  0  0  0  0  0  0  0  0
   -1.8096   18.5863  -33.3721 H   0  0  0  0  0  0  0  0  0  0  0  0
   -0.0135   18.6077  -33.3721 H   0  0  0  0  0  0  0  0  0  0  0  0
   -1.2990   21.1150  -33.1230 C   0  0  0  0  0  0  0  0  0  0  0  0
   -0.7417   20.9322  -34.0536 H   0  0  0  0  0  0  0  0  0  0  0  0
   -1.0492   22.0805  -32.6589 H   0  0  0  0  0  0  0  0  0  0  0  0
   -2.7970   21.1620  -33.4600 C   0  0  0  0  0  0  0  0  0  0  0  0
   -3.3820   21.1804  -32.5286 H   0  0  0  0  0  0  0  0  0  0  0  0
   -3.0127   22.0674  -34.0464 H   0  0  0  0  0  0  0  0  0  0  0  0
   -3.0690   20.2719  -34.0464 H   0  0  0  0  0  0  0  0  0  0  0  0
   -2.9540   21.7370  -30.1660 C   0  0  0  0  0  0  0  0  0  0  0  0
   -3.3620   20.7597  -30.4632 H   0  0  0  0  0  0  0  0  0  0  0  0
   -3.6850   22.9120  -30.4370 C   0  0  0  0  0  0  0  0  0  0  0  0
   -4.9300   22.8830  -31.1090 C   0  0  0  0  0  0  0  0  0  0  0  0
   -5.4200   21.7410  -31.5150 N   0  0  0  0  0  0  0  0  0  0  0  0
   -6.8080   21.4110  -31.6590 C   0  0  0  0  0  0  0  0  0  0  0  0
   -7.7560   22.1150  -30.9040 C   0  0  0  0  0  0  0  0  0  0  0  0
   -7.4276   22.8969  -30.2035 H   0  0  0  0  0  0  0  0  0  0  0  0
   -9.1180   21.8270  -31.0380 C   0  0  0  0  0  0  0  0  0  0  0  0
   -9.8570   22.3729  -30.4331 H   0  0  0  0  0  0  0  0  0  0  0  0
   -9.5410   20.8470  -31.9390 C   0  0  0  0  0  0  0  0  0  0  0  0
  -10.6120   20.6161  -32.0376 H   0  0  0  0  0  0  0  0  0  0  0  0
   -8.6040   20.1600  -32.7150 C   0  0  0  0  0  0  0  0  0  0  0  0
   -8.9408   19.3948  -33.4299 H   0  0  0  0  0  0  0  0  0  0  0  0
   -7.2380   20.4410  -32.5870 C   0  0  0  0  0  0  0  0  0  0  0  0
   -6.0940   19.6000  -33.6240 Cl  0  0  0  0  0  0  0  0  0  0  0  0
   -5.5980   24.1020  -31.3500 C   0  0  0  0  0  0  0  0  0  0  0  0
   -6.5603   24.1064  -31.8828 H   0  0  0  0  0  0  0  0  0  0  0  0
  1  2  1  0
  2  3  1  0
  3  4  1  0
  4  5  2  0
  5  6  1  0
  5  7  1  0
  7  8  1  0
  7  9  2  0
  9 10  1  0
 10 11  1  0
 11 12  2  0
 11 13  1  0
 13 14  1  0
 13 15  1  0
 13 16  1  0
 16 17  1  0
 17 18  1  0
 17 19  1  0
 17 20  1  0
 16 21  1  0
 21 22  1  0
 21 23  1  0
 21 24  1  0
 24 25  1  0
 24 26  1  0
 24 27  1  0
  9 28  1  0
 28 29  1  0
 28 30  2  0
 30 31  1  0
 31 32  2  0
 32 33  1  0
 33 34  2  0
 34 35  1  0
 34 36  1  0
 36 37  1  0
 36 38  2  0
 38 39  1  0
 38 40  1  0
 40 41  1  0
 40 42  2  0
 42 43  1  0
 31 44  1  0
 44 45  1  0
 44  2  2  0
 30  4  1  0
 42 33  1  0
M  CHG  2   3  -1  10  -1
M  END
>  <UniqueID>  (37) 
37

>  <SMILES>  (37) 
CCN(C)CC(=O)[N-]c1ccc2[n-]cc/c(=N\c3ccccc3Cl)c2c1

>  <Energy>  (37) 
68.26737918392118

>  <Genealogy>  (37) 
CCN(C)CC(=O)[N-]c1ccc2[n-]ccc(=Nc3ccccc3Cl)c2c1 (protonated)
CCN(C)CC(=O)[N-]c1ccc2[n-]cc/c(=N\c3ccccc3Cl)c2c1 (cis-trans isomerization)
CCN(C)CC(=O)[N-]c1ccc2[n-]cc/c(=N\c3ccccc3Cl)c2c1 (3D coordinates assigned)
CCN(C)CC(=O)[N-]c1ccc2[n-]cc/c(=N\c3ccccc3Cl)c2c1 (optimized conformer: 68.26737918392118 kcal/mol)

>  <smiles>  (37) 
CCN(C)CC(=O)Nc1ccc2[nH]ccc(=Nc3ccccc3Cl)c2c1

>  <score_type>  (37) 
oracle

>  <origin>  (37) 
adg

>  <m_score__min__energy>  (37) 
-10.17

>  <m_primary>  (37) 
energy

$$$$
37:0
     RDKit          3D

 42 43  0  0  0  0  0  0  0  0999 V2000
   -2.9190   21.3980  -33.1740 C   0  0  0  0  0  0  0  0  0  0  0  0
   -3.2540   21.5380  -31.6930 C   0  0  0  0  0  0  0  0  0  0  0  0
   -3.2610   22.9570  -31.3050 N   0  0  0  0  0  0  0  0  0  0  0  0
   -3.1550   23.1490  -29.8480 C   0  0  0  0  0  0  0  0  0  0  0  0
   -3.7710   24.4800  -29.3890 C   0  0  0  0  0  0  0  0  0  0  0  0
   -4.0340   25.3020  -30.5090 O   0  0  0  0  0  0  0  0  0  0  0  0
   -5.3540   25.8010  -30.4650 C   0  0  0  0  0  0  0  0  0  0  0  0
   -6.3480   24.6440  -30.3820 C   0  0  0  0  0  0  0  0  0  0  0  0
   -6.2890   23.8300  -31.5540 O   0  0  0  0  0  0  0  0  0  0  0  0
   -6.8600   22.5540  -31.7060 C   0  0  0  0  0  0  0  0  0  0  0  0
   -8.0300   22.1540  -31.0310 C   0  0  0  0  0  0  0  0  0  0  0  0
   -8.5520   20.8710  -31.2250 C   0  0  0  0  0  0  0  0  0  0  0  0
   -7.9100   19.9660  -32.0800 C   0  0  0  0  0  0  0  0  0  0  0  0
   -6.7500   20.3670  -32.7700 C   0  0  0  0  0  0  0  0  0  0  0  0
   -6.2360   21.6570  -32.5800 C   0  0  0  0  0  0  0  0  0  0  0  0
   -6.0930   19.4510  -33.6570 N   0  0  0  0  0  0  0  0  0  0  0  0
   -6.4730   18.0720  -33.6820 C   0  0  0  0  0  0  0  0  0  0  0  0
   -5.9320   17.2830  -34.5000 O   0  0  0  0  0  0  0  0  0  0  0  0
   -7.4600   17.5540  -32.6760 C   0  0  0  0  0  0  0  0  0  0  0  0
   -8.5240   18.6150  -32.3600 C   0  0  0  0  0  0  0  0  0  0  0  0
   -1.9091   20.9759  -33.2832 H   0  0  0  0  0  0  0  0  0  0  0  0
   -3.6494   20.7298  -33.6536 H   0  0  0  0  0  0  0  0  0  0  0  0
   -2.9568   22.3872  -33.6536 H   0  0  0  0  0  0  0  0  0  0  0  0
   -4.2469   21.1045  -31.5026 H   0  0  0  0  0  0  0  0  0  0  0  0
   -2.4928   21.0082  -31.1015 H   0  0  0  0  0  0  0  0  0  0  0  0
   -4.1390   23.4060  -31.6580 H   0  0  0  0  0  0  0  0  0  0  0  0
   -3.6791   22.3240  -29.3434 H   0  0  0  0  0  0  0  0  0  0  0  0
   -2.0864   23.1650  -29.5875 H   0  0  0  0  0  0  0  0  0  0  0  0
   -4.7114   24.2811  -28.8541 H   0  0  0  0  0  0  0  0  0  0  0  0
   -3.0641   24.9942  -28.7213 H   0  0  0  0  0  0  0  0  0  0  0  0
   -5.4705   26.4453  -29.5811 H   0  0  0  0  0  0  0  0  0  0  0  0
   -5.5511   26.3812  -31.3785 H   0  0  0  0  0  0  0  0  0  0  0  0
   -6.1083   24.0268  -29.5036 H   0  0  0  0  0  0  0  0  0  0  0  0
   -7.3625   25.0606  -30.2968 H   0  0  0  0  0  0  0  0  0  0  0  0
   -8.5351   22.8535  -30.3486 H   0  0  0  0  0  0  0  0  0  0  0  0
   -9.4725   20.5707  -30.7029 H   0  0  0  0  0  0  0  0  0  0  0  0
   -5.3319   21.9678  -33.1241 H   0  0  0  0  0  0  0  0  0  0  0  0
   -5.3150   19.7800  -34.2720 H   0  0  0  0  0  0  0  0  0  0  0  0
   -7.9531   16.6587  -33.0825 H   0  0  0  0  0  0  0  0  0  0  0  0
   -6.9219   17.3071  -31.7489 H   0  0  0  0  0  0  0  0  0  0  0  0
   -9.2026   18.7049  -33.2211 H   0  0  0  0  0  0  0  0  0  0  0  0
   -9.0660   18.2946  -31.4580 H   0  0  0  0  0  0  0  0  0  0  0  0
  1  2  1  0
  2  3  1  0
  3  4  1  0
  4  5  1  0
  5  6  1  0
  6  7  1  0
  7  8  1  0
  8  9  1  0
  9 10  1  0
 10 11  2  0
 11 12  1  0
 12 13  2  0
 13 14  1  0
 14 15  2  0
 14 16  1  0
 16 17  1  0
 17 18  2  0
 17 19  1  0
 19 20  1  0
 15 10  1  0
 20 13  1  0
  1 21  1  0
  1 22  1  0
  1 23  1  0
  2 24  1  0
  2 25  1  0
  3 26  1  0
  4 27  1  0
  4 28  1  0
  5 29  1  0
  5 30  1  0
  7 31  1  0
  7 32  1  0
  8 33  1  0
  8 34  1  0
 11 35  1  0
 12 36  1  0
 15 37  1  0
 16 38  1  0
 19 39  1  0
 19 40  1  0
 20 41  1  0
 20 42  1  0
M  END
>  <UniqueID>  (38) 
38

>  <SMILES>  (38) 
CCNCCOCCOc1ccc2c(c1)NC(=O)CC2

>  <Energy>  (38) 
39.33318856646872

>  <Genealogy>  (38) 
CCNCCOCCOc1ccc2c(c1)NC(=O)CC2 (3D coordinates assigned)
CCNCCOCCOc1ccc2c(c1)NC(=O)CC2 (nonaromatic ring conformer: 39.33318856646872 kcal/mol)

>  <smiles>  (38) 
CCNCCOCCOc1ccc2c(c1)NC(=O)CC2

>  <score_type>  (38) 
oracle

>  <origin>  (38) 
adg

>  <m_score__min__energy>  (38) 
-7.6799999999999997

>  <m_primary>  (38) 
energy

$$$$
38:0
     RDKit          3D

 63 65  0  0  0  0  0  0  0  0999 V2000
   -3.8680   23.2150  -27.5840 C   0  0  0  0  0  0  0  0  0  0  0  0
   -3.6550   22.5530  -28.9550 C   0  0  0  0  0  0  0  0  0  0  0  0
   -2.7950   23.3250  -29.8850 N   0  0  0  0  0  0  0  0  0  0  0  0
   -1.8560   24.2430  -29.1940 C   0  0  0  0  0  0  0  0  0  0  0  0
   -0.5420   23.5360  -28.8730 C   0  0  0  0  0  0  0  0  0  0  0  0
   -2.1140   22.4640  -30.8780 C   0  0  0  0  0  0  0  0  0  0  0  0
   -3.0120   21.2860  -31.2960 C   0  0  0  0  0  0  0  0  0  0  0  0
   -2.9070   20.9530  -32.7910 C   0  0  0  0  0  0  0  0  0  0  0  0
   -4.1650   21.2080  -33.4900 N   0  0  0  0  0  0  0  0  0  0  0  0
   -5.3500   20.4840  -33.1290 C   0  0  0  0  0  0  0  0  0  0  0  0
   -5.5260   19.1620  -33.5640 C   0  0  0  0  0  0  0  0  0  0  0  0
   -4.5780   18.5510  -34.4110 C   0  0  0  0  0  0  0  0  0  0  0  0
   -4.7720   17.2540  -34.8760 C   0  0  0  0  0  0  0  0  0  0  0  0
   -5.9170   16.5510  -34.5190 C   0  0  0  0  0  0  0  0  0  0  0  0
   -6.8640   17.1310  -33.6740 C   0  0  0  0  0  0  0  0  0  0  0  0
   -6.6750   18.4360  -33.1500 C   0  0  0  0  0  0  0  0  0  0  0  0
   -7.5760   19.0080  -32.2720 N   0  0  0  0  0  0  0  0  0  0  0  0
   -8.6040   18.1690  -31.6150 C   0  0  0  0  0  0  0  0  0  0  0  0
   -7.5040   20.3600  -31.9890 C   0  0  0  0  0  0  0  0  0  0  0  0
   -8.5480   21.0400  -31.3140 C   0  0  0  0  0  0  0  0  0  0  0  0
   -8.4430   22.3920  -30.9990 C   0  0  0  0  0  0  0  0  0  0  0  0
   -7.3110   23.1240  -31.3680 C   0  0  0  0  0  0  0  0  0  0  0  0
   -7.1860   24.5100  -30.9900 N   0  0  0  0  0  0  0  0  0  0  0  0
   -6.4840   24.6460  -29.6930 C   0  0  0  0  0  0  0  0  0  0  0  0
   -5.1110   25.3210  -29.8590 C   0  0  0  0  0  0  0  0  0  0  0  0
   -4.6130   25.1920  -31.2260 N   0  0  0  0  0  0  0  0  0  0  0  0
   -6.2770   22.4800  -32.0590 C   0  0  0  0  0  0  0  0  0  0  0  0
   -6.3670   21.1110  -32.3900 C   0  0  0  0  0  0  0  0  0  0  0  0
   -3.6355   22.4924  -26.7878 H   0  0  0  0  0  0  0  0  0  0  0  0
   -3.2055   24.0882  -27.4916 H   0  0  0  0  0  0  0  0  0  0  0  0
   -4.9154   23.5380  -27.4916 H   0  0  0  0  0  0  0  0  0  0  0  0
   -3.1893   21.5697  -28.7929 H   0  0  0  0  0  0  0  0  0  0  0  0
   -4.6461   22.4875  -29.4276 H   0  0  0  0  0  0  0  0  0  0  0  0
   -1.6513   25.1059  -29.8448 H   0  0  0  0  0  0  0  0  0  0  0  0
   -2.3169   24.5739  -28.2516 H   0  0  0  0  0  0  0  0  0  0  0  0
   -0.4184   23.4695  -27.7820 H   0  0  0  0  0  0  0  0  0  0  0  0
   -0.5558   22.5235  -29.3028 H   0  0  0  0  0  0  0  0  0  0  0  0
    0.2953   24.1054  -29.3028 H   0  0  0  0  0  0  0  0  0  0  0  0
   -1.8708   23.0639  -31.7673 H   0  0  0  0  0  0  0  0  0  0  0  0
   -1.1977   22.0610  -30.4220 H   0  0  0  0  0  0  0  0  0  0  0  0
   -2.7173   20.3980  -30.7175 H   0  0  0  0  0  0  0  0  0  0  0  0
   -4.0533   21.5790  -31.0964 H   0  0  0  0  0  0  0  0  0  0  0  0
   -2.1173   21.5733  -33.2400 H   0  0  0  0  0  0  0  0  0  0  0  0
   -2.6705   19.8832  -32.8888 H   0  0  0  0  0  0  0  0  0  0  0  0
   -4.2150   21.8800  -34.2850 H   0  0  0  0  0  0  0  0  0  0  0  0
   -3.6755   19.1058  -34.7072 H   0  0  0  0  0  0  0  0  0  0  0  0
   -4.0191   16.7847  -35.5263 H   0  0  0  0  0  0  0  0  0  0  0  0
   -6.0772   15.5332  -34.9043 H   0  0  0  0  0  0  0  0  0  0  0  0
   -7.7712   16.5677  -33.4100 H   0  0  0  0  0  0  0  0  0  0  0  0
   -8.5021   18.2522  -30.5229 H   0  0  0  0  0  0  0  0  0  0  0  0
   -9.6047   18.5116  -31.9170 H   0  0  0  0  0  0  0  0  0  0  0  0
   -8.4689   17.1199  -31.9170 H   0  0  0  0  0  0  0  0  0  0  0  0
   -9.4582   20.4895  -31.0337 H   0  0  0  0  0  0  0  0  0  0  0  0
   -9.2591   22.8891  -30.4542 H   0  0  0  0  0  0  0  0  0  0  0  0
   -8.1410   24.9430  -30.9630 H   0  0  0  0  0  0  0  0  0  0  0  0
   -6.6510   25.0280  -31.7280 H   0  0  0  0  0  0  0  0  0  0  0  0
   -7.1011   25.2543  -29.0154 H   0  0  0  0  0  0  0  0  0  0  0  0
   -6.3241   23.6385  -29.2814 H   0  0  0  0  0  0  0  0  0  0  0  0
   -5.2055   26.3888  -29.6122 H   0  0  0  0  0  0  0  0  0  0  0  0
   -4.3985   24.8247  -29.1838 H   0  0  0  0  0  0  0  0  0  0  0  0
   -3.6020   24.9210  -31.1970 H   0  0  0  0  0  0  0  0  0  0  0  0
   -4.6790   26.1230  -31.6990 H   0  0  0  0  0  0  0  0  0  0  0  0
   -5.3815   23.0496  -32.3480 H   0  0  0  0  0  0  0  0  0  0  0  0
  1  2  1  0
  2  3  1  0
  3  4  1  0
  4  5  1  0
  3  6  1  0
  6  7  1  0
  7  8  1  0
  8  9  1  0
  9 10  1  0
 10 11  2  0
 11 12  1  0
 12 13  2  0
 13 14  1  0
 14 15  2  0
 15 16  1  0
 16 17  2  0
 17 18  1  0
 17 19  1  0
 19 20  2  0
 20 21  1  0
 21 22  2  0
 22 23  1  0
 23 24  1  0
 24 25  1  0
 25 26  1  0
 22 27  1  0
 27 28  2  0
 28 10  1  0
 16 11  1  0
 28 19  1  0
  1 29  1  0
  1 30  1  0
  1 31  1  0
  2 32  1  0
  2 33  1  0
  4 34  1  0
  4 35  1  0
  5 36  1  0
  5 37  1  0
  5 38  1  0
  6 39  1  0
  6 40  1  0
  7 41  1  0
  7 42  1  0
  8 43  1  0
  8 44  1  0
  9 45  1  0
 12 46  1  0
 13 47  1  0
 14 48  1  0
 15 49  1  0
 18 50  1  0
 18 51  1  0
 18 52  1  0
 20 53  1  0
 21 54  1  0
 23 55  1  0
 23 56  1  0
 24 57  1  0
 24 58  1  0
 25 59  1  0
 25 60  1  0
 26 61  1  0
 26 62  1  0
 27 63  1  0
M  CHG  2  17   1  23   1
M  END
>  <UniqueID>  (39) 
39

>  <SMILES>  (39) 
CCN(CC)CCCNc1c2ccccc2[n+](C)c2ccc([NH2+]CCN)cc12

>  <Energy>  (39) 
89.34720952936308

>  <Genealogy>  (39) 
CCN(CC)CCCNc1c2ccccc2[n+](C)c2ccc([NH2+]CCN)cc12 (protonated)
CCN(CC)CCCNc1c2ccccc2[n+](C)c2ccc([NH2+]CCN)cc12 (3D coordinates assigned)
CCN(CC)CCCNc1c2ccccc2[n+](C)c2ccc([NH2+]CCN)cc12 (optimized conformer: 89.34720952936308 kcal/mol)

>  <smiles>  (39) 
CCN(CC)CCCNc1c2ccccc2[n+](C)c2ccc(NCCN)cc12

>  <score_type>  (39) 
oracle

>  <origin>  (39) 
adg

>  <m_score__min__energy>  (39) 
-7.9900000000000002

>  <m_primary>  (39) 
energy

$$$$
39:0
     RDKit          3D

 24 23  0  0  0  0  0  0  0  0999 V2000
   -8.4080   21.9610  -31.1560 C   0  0  0  0  0  0  0  0  0  0  0  0
   -7.6200   22.7540  -31.6040 C   0  0  0  0  0  0  0  0  0  0  0  0
   -6.6590   23.7230  -32.1500 C   0  0  0  0  0  0  0  0  0  0  0  0
   -5.2250   23.3990  -31.7050 C   0  0  0  0  0  0  0  0  0  0  0  0
   -4.6380   24.4410  -30.8270 N   0  0  0  0  0  0  0  0  0  0  0  0
   -5.4950   25.6450  -30.6590 C   0  0  0  0  0  0  0  0  0  0  0  0
   -6.3330   25.6680  -29.3720 C   0  0  0  0  0  0  0  0  0  0  0  0
   -4.1870   23.8510  -29.5430 C   0  0  0  0  0  0  0  0  0  0  0  0
   -2.6780   23.5560  -29.5340 C   0  0  0  0  0  0  0  0  0  0  0  0
   -1.6830   24.9270  -28.5830 Br  0  0  0  0  0  0  0  0  0  0  0  0
   -9.1277   21.2367  -30.7468 H   0  0  0  0  0  0  0  0  0  0  0  0
   -6.7079   23.6959  -33.2486 H   0  0  0  0  0  0  0  0  0  0  0  0
   -6.9218   24.7224  -31.7730 H   0  0  0  0  0  0  0  0  0  0  0  0
   -5.2356   22.4451  -31.1572 H   0  0  0  0  0  0  0  0  0  0  0  0
   -4.6044   23.3467  -32.6117 H   0  0  0  0  0  0  0  0  0  0  0  0
   -4.8431   26.5310  -30.6581 H   0  0  0  0  0  0  0  0  0  0  0  0
   -6.2116   25.6324  -31.4935 H   0  0  0  0  0  0  0  0  0  0  0  0
   -5.6644   25.6496  -28.4987 H   0  0  0  0  0  0  0  0  0  0  0  0
   -6.9427   26.5832  -29.3478 H   0  0  0  0  0  0  0  0  0  0  0  0
   -6.9920   24.7876  -29.3478 H   0  0  0  0  0  0  0  0  0  0  0  0
   -4.4143   24.5567  -28.7304 H   0  0  0  0  0  0  0  0  0  0  0  0
   -4.7171   22.8968  -29.4067 H   0  0  0  0  0  0  0  0  0  0  0  0
   -2.5073   22.5865  -29.0431 H   0  0  0  0  0  0  0  0  0  0  0  0
   -2.3261   23.5378  -30.5760 H   0  0  0  0  0  0  0  0  0  0  0  0
  1  2  3  0
  2  3  1  0
  3  4  1  0
  4  5  1  0
  5  6  1  0
  6  7  1  0
  5  8  1  0
  8  9  1  0
  9 10  1  0
  1 11  1  0
  3 12  1  0
  3 13  1  0
  4 14  1  0
  4 15  1  0
  6 16  1  0
  6 17  1  0
  7 18  1  0
  7 19  1  0
  7 20  1  0
  8 21  1  0
  8 22  1  0
  9 23  1  0
  9 24  1  0
M  END
>  <UniqueID>  (40) 
40

>  <SMILES>  (40) 
C#CCCN(CC)CCBr

>  <Energy>  (40) 
20.73345513822125

>  <Genealogy>  (40) 
C#CCCN(CC)CCBr (3D coordinates assigned)
C#CCCN(CC)CCBr (optimized conformer: 20.73345513822125 kcal/mol)

>  <smiles>  (40) 
C#CCCN(CC)CCBr

>  <score_type>  (40) 
oracle

>  <origin>  (40) 
adg

>  <m_score__min__energy>  (40) 
-4.0899999999999999

>  <m_primary>  (40) 
energy

$$$$
