0:0
     RDKit          3D

 44 45  0  0  0  0  0  0  0  0999 V2000
   -2.5840   22.3490  -27.4650 C   0  0  0  0  0  0  0  0  0  0  0  0
   -2.4180   23.5140  -27.7250 C   0  0  0  0  0  0  0  0  0  0  0  0
   -2.2140   24.9320  -28.0460 C   0  0  0  0  0  0  0  0  0  0  0  0
   -2.7430   25.2310  -29.3370 O   0  0  0  0  0  0  0  0  0  0  0  0
   -3.5840   24.3920  -30.0860 C   0  0  0  0  0  0  0  0  0  0  0  0
   -4.9460   24.7110  -30.1470 C   0  0  0  0  0  0  0  0  0  0  0  0
   -5.8340   23.9170  -30.8770 C   0  0  0  0  0  0  0  0  0  0  0  0
   -5.3690   22.7850  -31.5590 C   0  0  0  0  0  0  0  0  0  0  0  0
   -6.2520   21.9840  -32.2990 C   0  0  0  0  0  0  0  0  0  0  0  0
   -5.7790   20.8580  -32.9920 C   0  0  0  0  0  0  0  0  0  0  0  0
   -6.7150   20.0480  -33.8520 C   0  0  0  0  0  0  0  0  0  0  0  0
   -6.6090   18.5500  -33.5450 C   0  0  0  0  0  0  0  0  0  0  0  0
   -7.6260   18.1610  -32.5380 N   0  0  0  0  0  0  0  0  0  0  0  0
   -7.0210   17.8180  -31.2310 C   0  0  0  0  0  0  0  0  0  0  0  0
   -5.8440   16.8580  -31.3900 C   0  0  0  0  0  0  0  0  0  0  0  0
   -8.7570   19.1170  -32.4620 C   0  0  0  0  0  0  0  0  0  0  0  0
   -8.7450   19.9990  -31.2060 C   0  0  0  0  0  0  0  0  0  0  0  0
   -4.4130   20.5380  -32.9410 C   0  0  0  0  0  0  0  0  0  0  0  0
   -3.5290   21.3250  -32.2000 C   0  0  0  0  0  0  0  0  0  0  0  0
   -3.9950   22.4520  -31.5070 C   0  0  0  0  0  0  0  0  0  0  0  0
   -3.1120   23.2550  -30.7700 C   0  0  0  0  0  0  0  0  0  0  0  0
   -2.7355   21.2856  -27.2277 H   0  0  0  0  0  0  0  0  0  0  0  0
   -2.7239   25.5510  -27.2931 H   0  0  0  0  0  0  0  0  0  0  0  0
   -1.1351   25.1466  -28.0441 H   0  0  0  0  0  0  0  0  0  0  0  0
   -5.3212   25.5971  -29.6140 H   0  0  0  0  0  0  0  0  0  0  0  0
   -6.9010   24.1813  -30.9164 H   0  0  0  0  0  0  0  0  0  0  0  0
   -7.3212   22.2397  -32.3365 H   0  0  0  0  0  0  0  0  0  0  0  0
   -7.7474   20.3785  -33.6653 H   0  0  0  0  0  0  0  0  0  0  0  0
   -6.4369   20.2041  -34.9048 H   0  0  0  0  0  0  0  0  0  0  0  0
   -6.7748   17.9769  -34.4692 H   0  0  0  0  0  0  0  0  0  0  0  0
   -5.6070   18.3353  -33.1451 H   0  0  0  0  0  0  0  0  0  0  0  0
   -6.6661   18.7408  -30.7489 H   0  0  0  0  0  0  0  0  0  0  0  0
   -7.7876   17.3231  -30.6167 H   0  0  0  0  0  0  0  0  0  0  0  0
   -5.4777   16.5593  -30.3967 H   0  0  0  0  0  0  0  0  0  0  0  0
   -6.1709   15.9656  -31.9439 H   0  0  0  0  0  0  0  0  0  0  0  0
   -5.0356   17.3576  -31.9439 H   0  0  0  0  0  0  0  0  0  0  0  0
   -8.7165   19.7718  -33.3450 H   0  0  0  0  0  0  0  0  0  0  0  0
   -9.6784   18.5176  -32.4214 H   0  0  0  0  0  0  0  0  0  0  0  0
   -8.7537   19.3611  -30.3099 H   0  0  0  0  0  0  0  0  0  0  0  0
   -7.8383   20.6218  -31.2040 H   0  0  0  0  0  0  0  0  0  0  0  0
   -9.6344   20.6462  -31.2040 H   0  0  0  0  0  0  0  0  0  0  0  0
   -4.0365   19.6614  -33.4885 H   0  0  0  0  0  0  0  0  0  0  0  0
   -2.4622   21.0599  -32.1595 H   0  0  0  0  0  0  0  0  0  0  0  0
   -2.0441   22.9950  -30.7260 H   0  0  0  0  0  0  0  0  0  0  0  0
  1  2  3  0
  2  3  1  0
  3  4  1  0
  4  5  1  0
  5  6  2  0
  6  7  1  0
  7  8  2  0
  8  9  1  0
  9 10  2  0
 10 11  1  0
 11 12  1  0
 12 13  1  0
 13 14  1  0
 14 15  1  0
 13 16  1  0
 16 17  1  0
 10 18  1  0
 18 19  2  0
 19 20  1  0
 20 21  2  0
 21  5  1  0
 20  8  1  0
  1 22  1  0
  3 23  1  0
  3 24  1  0
  6 25  1  0
  7 26  1  0
  9 27  1  0
 11 28  1  0
 11 29  1  0
 12 30  1  0
 12 31  1  0
 14 32  1  0
 14 33  1  0
 15 34  1  0
 15 35  1  0
 15 36  1  0
 16 37  1  0
 16 38  1  0
 17 39  1  0
 17 40  1  0
 17 41  1  0
 18 42  1  0
 19 43  1  0
 21 44  1  0
M  END
>  <UniqueID>  (1) 
1

>  <SMILES>  (1) 
C#CCOc1ccc2cc(CCN(CC)CC)ccc2c1

>  <Energy>  (1) 
43.38859976528242

>  <Genealogy>  (1) 
C#CCOc1ccc2cc(CCN(CC)CC)ccc2c1 (3D coordinates assigned)
C#CCOc1ccc2cc(CCN(CC)CC)ccc2c1 (optimized conformer: 43.38859976528242 kcal/mol)

>  <smiles>  (1) 
C#CCOc1ccc2cc(CCN(CC)CC)ccc2c1

>  <score_type>  (1) 
oracle

>  <origin>  (1) 
adg

>  <m_score__min__energy>  (1) 
-7.54

>  <m_primary>  (1) 
energy

$$$$
1:0
     RDKit          3D

 47 48  0  0  0  0  0  0  0  0999 V2000
   -4.1420   20.9490  -33.4490 C   0  0  0  0  0  0  0  0  0  0  0  0
   -4.6130   19.4970  -33.4520 C   0  0  0  0  0  0  0  0  0  0  0  0
   -5.9760   19.4070  -33.0850 O   0  0  0  0  0  0  0  0  0  0  0  0
   -6.2140   18.3130  -32.2160 C   0  0  0  0  0  0  0  0  0  0  0  0
   -7.5860   17.7000  -32.5070 C   0  0  0  0  0  0  0  0  0  0  0  0
   -8.7260   18.7060  -32.2630 C   0  0  0  0  0  0  0  0  0  0  0  0
   -8.4930   19.9880  -32.9650 N   0  0  0  0  0  0  0  0  0  0  0  0
   -9.0100   21.1550  -32.2280 C   0  0  0  0  0  0  0  0  0  0  0  0
   -7.9050   22.0480  -31.7460 C   0  0  0  0  0  0  0  0  0  0  0  0
   -7.8780   23.4210  -31.8270 C   0  0  0  0  0  0  0  0  0  0  0  0
   -6.7130   23.8150  -31.3770 O   0  0  0  0  0  0  0  0  0  0  0  0
   -6.0370   22.7360  -31.0400 C   0  0  0  0  0  0  0  0  0  0  0  0
   -4.6630   22.7650  -30.4990 C   0  0  0  0  0  0  0  0  0  0  0  0
   -3.9380   21.5750  -30.3250 C   0  0  0  0  0  0  0  0  0  0  0  0
   -2.6390   21.6100  -29.8180 C   0  0  0  0  0  0  0  0  0  0  0  0
   -2.0480   22.8300  -29.4810 C   0  0  0  0  0  0  0  0  0  0  0  0
   -2.7580   24.0330  -29.6540 C   0  0  0  0  0  0  0  0  0  0  0  0
   -2.2170   25.2890  -29.3320 O   0  0  0  0  0  0  0  0  0  0  0  0
   -1.4080   25.5780  -28.1910 C   0  0  0  0  0  0  0  0  0  0  0  0
   -2.1350   25.2040  -26.9040 C   0  0  0  0  0  0  0  0  0  0  0  0
   -4.0630   23.9890  -30.1600 C   0  0  0  0  0  0  0  0  0  0  0  0
   -6.7360   21.5990  -31.2530 N   0  0  0  0  0  0  0  0  0  0  0  0
   -4.0295   21.2958  -32.4112 H   0  0  0  0  0  0  0  0  0  0  0  0
   -3.1742   21.0216  -33.9668 H   0  0  0  0  0  0  0  0  0  0  0  0
   -4.8829   21.5759  -33.9668 H   0  0  0  0  0  0  0  0  0  0  0  0
   -4.4835   19.0786  -34.4610 H   0  0  0  0  0  0  0  0  0  0  0  0
   -4.0147   18.9323  -32.7218 H   0  0  0  0  0  0  0  0  0  0  0  0
   -5.4353   17.5512  -32.3682 H   0  0  0  0  0  0  0  0  0  0  0  0
   -6.1913   18.6680  -31.1751 H   0  0  0  0  0  0  0  0  0  0  0  0
   -7.6156   17.3765  -33.5579 H   0  0  0  0  0  0  0  0  0  0  0  0
   -7.7308   16.8480  -31.8265 H   0  0  0  0  0  0  0  0  0  0  0  0
   -9.6686   18.2692  -32.6245 H   0  0  0  0  0  0  0  0  0  0  0  0
   -8.7718   18.9128  -31.1836 H   0  0  0  0  0  0  0  0  0  0  0  0
   -8.9970   19.9560  -33.8830 H   0  0  0  0  0  0  0  0  0  0  0  0
   -7.4780   20.1300  -33.1830 H   0  0  0  0  0  0  0  0  0  0  0  0
   -9.6688   21.7322  -32.8934 H   0  0  0  0  0  0  0  0  0  0  0  0
   -9.5582   20.7866  -31.3484 H   0  0  0  0  0  0  0  0  0  0  0  0
   -8.6854   24.0680  -32.2005 H   0  0  0  0  0  0  0  0  0  0  0  0
   -4.3966   20.6108  -30.5897 H   0  0  0  0  0  0  0  0  0  0  0  0
   -2.0780   20.6735  -29.6831 H   0  0  0  0  0  0  0  0  0  0  0  0
   -1.0243   22.8507  -29.0791 H   0  0  0  0  0  0  0  0  0  0  0  0
   -0.4725   25.0031  -28.2571 H   0  0  0  0  0  0  0  0  0  0  0  0
   -1.1936   26.6568  -28.1745 H   0  0  0  0  0  0  0  0  0  0  0  0
   -1.5314   25.5145  -26.0384 H   0  0  0  0  0  0  0  0  0  0  0  0
   -3.1099   25.7125  -26.8725 H   0  0  0  0  0  0  0  0  0  0  0  0
   -2.2882   24.1152  -26.8725 H   0  0  0  0  0  0  0  0  0  0  0  0
   -4.6254   24.9249  -30.2937 H   0  0  0  0  0  0  0  0  0  0  0  0
  1  2  1  0
  2  3  1  0
  3  4  1  0
  4  5  1  0
  5  6  1  0
  6  7  1  0
  7  8  1  0
  8  9  1  0
  9 10  2  0
 10 11  1  0
 11 12  1  0
 12 13  1  0
 13 14  2  0
 14 15  1  0
 15 16  2  0
 16 17  1  0
 17 18  1  0
 18 19  1  0
 19 20  1  0
 17 21  2  0
 12 22  2  0
 22  9  1  0
 21 13  1  0
  1 23  1  0
  1 24  1  0
  1 25  1  0
  2 26  1  0
  2 27  1  0
  4 28  1  0
  4 29  1  0
  5 30  1  0
  5 31  1  0
  6 32  1  0
  6 33  1  0
  7 34  1  0
  7 35  1  0
  8 36  1  0
  8 37  1  0
 10 38  1  0
 14 39  1  0
 15 40  1  0
 16 41  1  0
 19 42  1  0
 19 43  1  0
 20 44  1  0
 20 45  1  0
 20 46  1  0
 21 47  1  0
M  CHG  1   7   1
M  END
>  <UniqueID>  (2) 
2

>  <SMILES>  (2) 
CCOCCC[NH2+]Cc1coc(-c2cccc(OCC)c2)n1

>  <Energy>  (2) 
72.03928103615414

>  <Genealogy>  (2) 
CCOCCC[NH2+]Cc1coc(-c2cccc(OCC)c2)n1 (protonated)
CCOCCC[NH2+]Cc1coc(-c2cccc(OCC)c2)n1 (3D coordinates assigned)
CCOCCC[NH2+]Cc1coc(-c2cccc(OCC)c2)n1 (optimized conformer: 72.03928103615414 kcal/mol)

>  <smiles>  (2) 
CCOCCCNCc1coc(-c2cccc(OCC)c2)n1

>  <score_type>  (2) 
oracle

>  <origin>  (2) 
adg

>  <m_score__min__energy>  (2) 
-6.9400000000000004

>  <m_primary>  (2) 
energy

$$$$
2:0
     RDKit          3D

 51 54  0  0  0  0  0  0  0  0999 V2000
    0.0640   20.8680  -34.8200 C   0  0  0  0  0  0  0  0  0  0  0  0
   -0.7760   19.6980  -34.2970 C   0  0  0  0  0  0  0  0  0  0  0  0
   -2.0910   20.1310  -33.7900 N   0  0  0  0  0  0  0  0  0  0  0  0
   -2.0970   21.5520  -33.4040 C   0  0  0  0  0  0  0  0  0  0  0  0
   -3.1570   21.8180  -32.3260 C   0  0  0  0  0  0  0  0  0  0  0  0
   -4.4770   22.0200  -32.9250 N   0  0  0  0  0  0  0  0  0  0  0  0
   -5.5870   21.1130  -32.7600 C   0  0  0  0  0  0  0  0  0  0  0  0
   -6.8800   21.5720  -32.4020 C   0  0  0  0  0  0  0  0  0  0  0  0
   -7.1510   22.9520  -32.2870 C   0  0  0  0  0  0  0  0  0  0  0  0
   -8.4370   23.4030  -32.0010 C   0  0  0  0  0  0  0  0  0  0  0  0
   -9.4810   22.4990  -31.8550 C   0  0  0  0  0  0  0  0  0  0  0  0
   -9.2500   21.1290  -31.9730 C   0  0  0  0  0  0  0  0  0  0  0  0
   -7.9470   20.6250  -32.2140 C   0  0  0  0  0  0  0  0  0  0  0  0
   -7.6980   19.2620  -32.3090 N   0  0  0  0  0  0  0  0  0  0  0  0
   -8.6740   18.2520  -31.8660 C   0  0  0  0  0  0  0  0  0  0  0  0
   -6.4700   18.8640  -32.7680 C   0  0  0  0  0  0  0  0  0  0  0  0
   -5.9840   17.6070  -33.1360 C   0  0  0  0  0  0  0  0  0  0  0  0
   -4.6860   17.8530  -33.5580 C   0  0  0  0  0  0  0  0  0  0  0  0
   -4.3770   19.1240  -33.4290 O   0  0  0  0  0  0  0  0  0  0  0  0
   -5.4400   19.7470  -32.9790 C   0  0  0  0  0  0  0  0  0  0  0  0
   -3.7760   16.8030  -34.1140 C   0  0  0  0  0  0  0  0  0  0  0  0
   -4.5990   15.6620  -34.7300 C   0  0  0  0  0  0  0  0  0  0  0  0
   -5.6990   15.1850  -33.7640 C   0  0  0  0  0  0  0  0  0  0  0  0
   -6.6990   16.3090  -33.4230 C   0  0  0  0  0  0  0  0  0  0  0  0
    0.4714   21.4355  -33.9703 H   0  0  0  0  0  0  0  0  0  0  0  0
    0.8914   20.4804  -35.4326 H   0  0  0  0  0  0  0  0  0  0  0  0
   -0.5678   21.5280  -35.4326 H   0  0  0  0  0  0  0  0  0  0  0  0
   -0.9322   18.9814  -35.1168 H   0  0  0  0  0  0  0  0  0  0  0  0
   -0.2284   19.2406  -33.4598 H   0  0  0  0  0  0  0  0  0  0  0  0
   -2.8280   19.9540  -34.5130 H   0  0  0  0  0  0  0  0  0  0  0  0
   -2.3170   19.5530  -32.9460 H   0  0  0  0  0  0  0  0  0  0  0  0
   -1.1062   21.8233  -33.0106 H   0  0  0  0  0  0  0  0  0  0  0  0
   -2.3352   22.1579  -34.2907 H   0  0  0  0  0  0  0  0  0  0  0  0
   -3.1999   20.9562  -31.6437 H   0  0  0  0  0  0  0  0  0  0  0  0
   -2.8779   22.7304  -31.7785 H   0  0  0  0  0  0  0  0  0  0  0  0
   -4.5990   22.8600  -33.5340 H   0  0  0  0  0  0  0  0  0  0  0  0
   -6.3375   23.6795  -32.4248 H   0  0  0  0  0  0  0  0  0  0  0  0
   -8.6269   24.4808  -31.8902 H   0  0  0  0  0  0  0  0  0  0  0  0
  -10.4965   22.8660  -31.6450 H   0  0  0  0  0  0  0  0  0  0  0  0
  -10.0923   20.4280  -31.8776 H   0  0  0  0  0  0  0  0  0  0  0  0
   -8.7002   18.2249  -30.7666 H   0  0  0  0  0  0  0  0  0  0  0  0
   -9.6712   18.5125  -32.2502 H   0  0  0  0  0  0  0  0  0  0  0  0
   -8.3795   17.2643  -32.2502 H   0  0  0  0  0  0  0  0  0  0  0  0
   -3.1364   17.2497  -34.8895 H   0  0  0  0  0  0  0  0  0  0  0  0
   -3.1539   16.3995  -33.3015 H   0  0  0  0  0  0  0  0  0  0  0  0
   -5.0673   16.0185  -35.6593 H   0  0  0  0  0  0  0  0  0  0  0  0
   -3.9249   14.8173  -34.9349 H   0  0  0  0  0  0  0  0  0  0  0  0
   -6.2461   14.3535  -34.2322 H   0  0  0  0  0  0  0  0  0  0  0  0
   -5.2144   14.8675  -32.8289 H   0  0  0  0  0  0  0  0  0  0  0  0
   -7.3792   16.4548  -34.2751 H   0  0  0  0  0  0  0  0  0  0  0  0
   -7.2608   16.0146  -32.5243 H   0  0  0  0  0  0  0  0  0  0  0  0
  1  2  1  0
  2  3  1  0
  3  4  1  0
  4  5  1  0
  5  6  1  0
  6  7  1  0
  7  8  2  0
  8  9  1  0
  9 10  2  0
 10 11  1  0
 11 12  2  0
 12 13  1  0
 13 14  2  0
 14 15  1  0
 14 16  1  0
 16 17  1  0
 17 18  2  0
 18 19  1  0
 19 20  1  0
 18 21  1  0
 21 22  1  0
 22 23  1  0
 23 24  1  0
 20  7  1  0
 13  8  1  0
 20 16  2  0
 24 17  1  0
  1 25  1  0
  1 26  1  0
  1 27  1  0
  2 28  1  0
  2 29  1  0
  3 30  1  0
  3 31  1  0
  4 32  1  0
  4 33  1  0
  5 34  1  0
  5 35  1  0
  6 36  1  0
  9 37  1  0
 10 38  1  0
 11 39  1  0
 12 40  1  0
 15 41  1  0
 15 42  1  0
 15 43  1  0
 21 44  1  0
 21 45  1  0
 22 46  1  0
 22 47  1  0
 23 48  1  0
 23 49  1  0
 24 50  1  0
 24 51  1  0
M  CHG  2   3   1  14   1
M  END
>  <UniqueID>  (3) 
3

>  <SMILES>  (3) 
CC[NH2+]CCNc1c2ccccc2[n+](C)c2c3c(oc12)CCCC3

>  <Energy>  (3) 
101.85355989799803

>  <Genealogy>  (3) 
CC[NH2+]CCNc1c2ccccc2[n+](C)c2c3c(oc12)CCCC3 (protonated)
CC[NH2+]CCNc1c2ccccc2[n+](C)c2c3c(oc12)CCCC3 (3D coordinates assigned)
CC[NH2+]CCNc1c2ccccc2[n+](C)c2c3c(oc12)CCCC3 (nonaromatic ring conformer: 101.85355989799803 kcal/mol)

>  <smiles>  (3) 
CCNCCNc1c2ccccc2[n+](C)c2c3c(oc12)CCCC3

>  <score_type>  (3) 
oracle

>  <origin>  (3) 
adg

>  <m_score__min__energy>  (3) 
-7.3700000000000001

>  <m_primary>  (3) 
energy

$$$$
3:0
     RDKit          3D

 18 17  0  0  0  0  0  0  0  0999 V2000
   -1.1840   26.8800  -24.7980 C   0  0  0  0  0  0  0  0  0  0  0  0
   -0.8630   26.4360  -23.3670 C   0  0  0  0  0  0  0  0  0  0  0  0
    0.2940   27.1520  -22.8010 N   0  0  0  0  0  0  0  0  0  0  0  0
    1.1800   27.6930  -23.8450 C   0  0  0  0  0  0  0  0  0  0  0  0
    2.2700   28.5880  -23.2420 C   0  0  0  0  0  0  0  0  0  0  0  0
    2.1170   28.6940  -21.8520 O   0  0  0  0  0  0  0  0  0  0  0  0
   -1.8283   27.7711  -24.7696 H   0  0  0  0  0  0  0  0  0  0  0  0
   -0.2492   27.1200  -25.3258 H   0  0  0  0  0  0  0  0  0  0  0  0
   -1.7049   26.0676  -25.3258 H   0  0  0  0  0  0  0  0  0  0  0  0
   -1.7412   26.6273  -22.7328 H   0  0  0  0  0  0  0  0  0  0  0  0
   -0.6119   25.3655  -23.3972 H   0  0  0  0  0  0  0  0  0  0  0  0
    0.8340   26.4710  -22.2170 H   0  0  0  0  0  0  0  0  0  0  0  0
   -0.0390   27.9240  -22.1760 H   0  0  0  0  0  0  0  0  0  0  0  0
    1.6569   26.8576  -24.3785 H   0  0  0  0  0  0  0  0  0  0  0  0
    0.5744   28.2998  -24.5342 H   0  0  0  0  0  0  0  0  0  0  0  0
    3.2561   28.1540  -23.4639 H   0  0  0  0  0  0  0  0  0  0  0  0
    2.1846   29.5921  -23.6830 H   0  0  0  0  0  0  0  0  0  0  0  0
    2.3220   27.7990  -21.4740 H   0  0  0  0  0  0  0  0  0  0  0  0
  1  2  1  0
  2  3  1  0
  3  4  1  0
  4  5  1  0
  5  6  1  0
  1  7  1  0
  1  8  1  0
  1  9  1  0
  2 10  1  0
  2 11  1  0
  3 12  1  0
  3 13  1  0
  4 14  1  0
  4 15  1  0
  5 16  1  0
  5 17  1  0
  6 18  1  0
M  CHG  1   3   1
M  END
>  <UniqueID>  (4) 
4

>  <SMILES>  (4) 
CC[NH2+]CCO

>  <Energy>  (4) 
9.315386965872463

>  <Genealogy>  (4) 
CC[NH2+]CCO (protonated)
CC[NH2+]CCO (3D coordinates assigned)
CC[NH2+]CCO (optimized conformer: 9.315386965872463 kcal/mol)

>  <smiles>  (4) 
CCNCCO

>  <score_type>  (4) 
oracle

>  <origin>  (4) 
adg

>  <m_score__min__energy>  (4) 
-3.29

>  <m_primary>  (4) 
energy

$$$$
4:0
     RDKit          3D

 55 57  0  0  0  0  0  0  0  0999 V2000
   -6.1170   25.2440  -29.7270 C   0  0  0  0  0  0  0  0  0  0  0  0
   -4.8090   24.5440  -30.0750 C   0  0  0  0  0  0  0  0  0  0  0  0
   -4.6250   23.2720  -29.2410 C   0  0  0  0  0  0  0  0  0  0  0  0
   -4.1150   22.1610  -30.0930 N   0  0  0  0  0  0  0  0  0  0  0  0
   -2.9870   21.4870  -29.4040 C   0  0  0  0  0  0  0  0  0  0  0  0
   -3.1500   21.4170  -27.8720 C   0  0  0  0  0  0  0  0  0  0  0  0
   -2.7150   20.0760  -27.2840 C   0  0  0  0  0  0  0  0  0  0  0  0
   -3.7080   22.6710  -31.4270 C   0  0  0  0  0  0  0  0  0  0  0  0
   -3.4160   21.5170  -32.4000 C   0  0  0  0  0  0  0  0  0  0  0  0
   -4.4780   21.3830  -33.3990 N   0  0  0  0  0  0  0  0  0  0  0  0
   -5.6530   20.6090  -33.1000 C   0  0  0  0  0  0  0  0  0  0  0  0
   -6.7950   21.2260  -32.5610 C   0  0  0  0  0  0  0  0  0  0  0  0
   -6.8550   22.6280  -32.3990 C   0  0  0  0  0  0  0  0  0  0  0  0
   -7.9990   23.2360  -31.8820 C   0  0  0  0  0  0  0  0  0  0  0  0
   -9.1030   22.4660  -31.5380 C   0  0  0  0  0  0  0  0  0  0  0  0
   -9.0680   21.0780  -31.6930 C   0  0  0  0  0  0  0  0  0  0  0  0
   -7.9040   20.4230  -32.1760 C   0  0  0  0  0  0  0  0  0  0  0  0
   -7.8350   19.0470  -32.2850 N   0  0  0  0  0  0  0  0  0  0  0  0
   -8.8570   18.2020  -31.6290 C   0  0  0  0  0  0  0  0  0  0  0  0
   -6.8070   18.4610  -33.0010 C   0  0  0  0  0  0  0  0  0  0  0  0
   -6.8470   17.0950  -33.3850 C   0  0  0  0  0  0  0  0  0  0  0  0
   -5.7820   16.5100  -34.0690 C   0  0  0  0  0  0  0  0  0  0  0  0
   -4.6610   17.2670  -34.3930 C   0  0  0  0  0  0  0  0  0  0  0  0
   -4.6110   18.6190  -34.0650 C   0  0  0  0  0  0  0  0  0  0  0  0
   -5.6800   19.2340  -33.3860 C   0  0  0  0  0  0  0  0  0  0  0  0
   -6.2229   25.3007  -28.6336 H   0  0  0  0  0  0  0  0  0  0  0  0
   -6.1124   26.2602  -30.1481 H   0  0  0  0  0  0  0  0  0  0  0  0
   -6.9599   24.6764  -30.1481 H   0  0  0  0  0  0  0  0  0  0  0  0
   -4.8178   24.2759  -31.1418 H   0  0  0  0  0  0  0  0  0  0  0  0
   -3.9770   25.2291  -29.8553 H   0  0  0  0  0  0  0  0  0  0  0  0
   -3.9047   23.4693  -28.4333 H   0  0  0  0  0  0  0  0  0  0  0  0
   -5.5972   22.9794  -28.8176 H   0  0  0  0  0  0  0  0  0  0  0  0
   -2.9062   20.4609  -29.7920 H   0  0  0  0  0  0  0  0  0  0  0  0
   -2.0848   22.0835  -29.6047 H   0  0  0  0  0  0  0  0  0  0  0  0
   -2.5405   22.2124  -27.4183 H   0  0  0  0  0  0  0  0  0  0  0  0
   -4.2202   21.5409  -27.6499 H   0  0  0  0  0  0  0  0  0  0  0  0
   -2.7338   20.1338  -26.1857 H   0  0  0  0  0  0  0  0  0  0  0  0
   -3.4033   19.2871  -27.6214 H   0  0  0  0  0  0  0  0  0  0  0  0
   -1.6947   19.8414  -27.6214 H   0  0  0  0  0  0  0  0  0  0  0  0
   -4.5200   23.2892  -31.8375 H   0  0  0  0  0  0  0  0  0  0  0  0
   -2.7900   23.2649  -31.3067 H   0  0  0  0  0  0  0  0  0  0  0  0
   -2.4634   21.7135  -32.9137 H   0  0  0  0  0  0  0  0  0  0  0  0
   -3.3611   20.5818  -31.8235 H   0  0  0  0  0  0  0  0  0  0  0  0
   -4.5720   22.1320  -34.1210 H   0  0  0  0  0  0  0  0  0  0  0  0
   -5.9909   23.2465  -32.6834 H   0  0  0  0  0  0  0  0  0  0  0  0
   -8.0271   24.3273  -31.7464 H   0  0  0  0  0  0  0  0  0  0  0  0
  -10.0077   22.9508  -31.1423 H   0  0  0  0  0  0  0  0  0  0  0  0
   -9.9567   20.4826  -31.4367 H   0  0  0  0  0  0  0  0  0  0  0  0
   -8.7559   18.2856  -30.5369 H   0  0  0  0  0  0  0  0  0  0  0  0
   -9.8598   18.5383  -31.9312 H   0  0  0  0  0  0  0  0  0  0  0  0
   -8.7152   17.1539  -31.9312 H   0  0  0  0  0  0  0  0  0  0  0  0
   -7.7314   16.4889  -33.1393 H   0  0  0  0  0  0  0  0  0  0  0  0
   -5.8284   15.4483  -34.3528 H   0  0  0  0  0  0  0  0  0  0  0  0
   -3.8117   16.7961  -34.9098 H   0  0  0  0  0  0  0  0  0  0  0  0
   -3.7268   19.2131  -34.3393 H   0  0  0  0  0  0  0  0  0  0  0  0
  1  2  1  0
  2  3  1  0
  3  4  1  0
  4  5  1  0
  5  6  1  0
  6  7  1  0
  4  8  1  0
  8  9  1  0
  9 10  1  0
 10 11  1  0
 11 12  2  0
 12 13  1  0
 13 14  2  0
 14 15  1  0
 15 16  2  0
 16 17  1  0
 17 18  2  0
 18 19  1  0
 18 20  1  0
 20 21  2  0
 21 22  1  0
 22 23  2  0
 23 24  1  0
 24 25  2  0
 25 11  1  0
 17 12  1  0
 25 20  1  0
  1 26  1  0
  1 27  1  0
  1 28  1  0
  2 29  1  0
  2 30  1  0
  3 31  1  0
  3 32  1  0
  5 33  1  0
  5 34  1  0
  6 35  1  0
  6 36  1  0
  7 37  1  0
  7 38  1  0
  7 39  1  0
  8 40  1  0
  8 41  1  0
  9 42  1  0
  9 43  1  0
 10 44  1  0
 13 45  1  0
 14 46  1  0
 15 47  1  0
 16 48  1  0
 19 49  1  0
 19 50  1  0
 19 51  1  0
 21 52  1  0
 22 53  1  0
 23 54  1  0
 24 55  1  0
M  CHG  1  18   1
M  END
>  <UniqueID>  (5) 
5

>  <SMILES>  (5) 
CCCN(CCC)CCNc1c2ccccc2[n+](C)c2ccccc12

>  <Energy>  (5) 
76.28630794349863

>  <Genealogy>  (5) 
CCCN(CCC)CCNc1c2ccccc2[n+](C)c2ccccc12 (3D coordinates assigned)
CCCN(CCC)CCNc1c2ccccc2[n+](C)c2ccccc12 (optimized conformer: 76.28630794349863 kcal/mol)

>  <smiles>  (5) 
CCCN(CCC)CCNc1c2ccccc2[n+](C)c2ccccc12

>  <score_type>  (5) 
oracle

>  <origin>  (5) 
adg

>  <m_score__min__energy>  (5) 
-9

>  <m_primary>  (5) 
energy

$$$$
5:0
     RDKit          3D

 48 49  0  0  0  0  0  0  0  0999 V2000
   -4.4000   20.7520  -31.3810 C   0  0  0  0  0  0  0  0  0  0  0  0
   -3.6780   21.7100  -32.3240 C   0  0  0  0  0  0  0  0  0  0  0  0
   -3.2750   22.8770  -31.6310 O   0  0  0  0  0  0  0  0  0  0  0  0
   -3.3330   22.6720  -30.2320 C   0  0  0  0  0  0  0  0  0  0  0  0
   -3.7580   23.9700  -29.5280 C   0  0  0  0  0  0  0  0  0  0  0  0
   -3.9860   25.0880  -30.4680 N   0  0  0  0  0  0  0  0  0  0  0  0
   -5.4040   25.4160  -30.6790 C   0  0  0  0  0  0  0  0  0  0  0  0
   -6.2410   24.1990  -31.0000 C   0  0  0  0  0  0  0  0  0  0  0  0
   -6.3650   23.7550  -32.3250 C   0  0  0  0  0  0  0  0  0  0  0  0
   -7.1620   22.6450  -32.6230 C   0  0  0  0  0  0  0  0  0  0  0  0
   -7.8540   21.9690  -31.6030 C   0  0  0  0  0  0  0  0  0  0  0  0
   -8.7450   20.7930  -31.9290 C   0  0  0  0  0  0  0  0  0  0  0  0
   -8.2360   19.9930  -33.0530 N   0  0  0  0  0  0  0  0  0  0  0  0
   -8.0230   18.5900  -32.6760 C   0  0  0  0  0  0  0  0  0  0  0  0
   -6.8350   18.0510  -33.4250 C   0  0  0  0  0  0  0  0  0  0  0  0
   -6.5940   16.6680  -33.4720 C   0  0  0  0  0  0  0  0  0  0  0  0
   -5.4440   16.1750  -34.0990 C   0  0  0  0  0  0  0  0  0  0  0  0
   -4.5120   17.0600  -34.6450 C   0  0  0  0  0  0  0  0  0  0  0  0
   -3.3840   16.5840  -35.2280 F   0  0  0  0  0  0  0  0  0  0  0  0
   -4.7410   18.4410  -34.5910 C   0  0  0  0  0  0  0  0  0  0  0  0
   -5.8950   18.9350  -33.9780 C   0  0  0  0  0  0  0  0  0  0  0  0
   -7.7320   22.4190  -30.2820 C   0  0  0  0  0  0  0  0  0  0  0  0
   -6.9200   23.5160  -29.9790 C   0  0  0  0  0  0  0  0  0  0  0  0
   -4.1877   21.0336  -30.3391 H   0  0  0  0  0  0  0  0  0  0  0  0
   -5.4836   20.8064  -31.5621 H   0  0  0  0  0  0  0  0  0  0  0  0
   -4.0491   19.7253  -31.5621 H   0  0  0  0  0  0  0  0  0  0  0  0
   -2.7901   21.2099  -32.7382 H   0  0  0  0  0  0  0  0  0  0  0  0
   -4.3642   21.9963  -33.1347 H   0  0  0  0  0  0  0  0  0  0  0  0
   -4.0642   21.8808  -30.0097 H   0  0  0  0  0  0  0  0  0  0  0  0
   -2.3384   22.3734  -29.8692 H   0  0  0  0  0  0  0  0  0  0  0  0
   -4.6903   23.7804  -28.9758 H   0  0  0  0  0  0  0  0  0  0  0  0
   -2.9372   24.2653  -28.8579 H   0  0  0  0  0  0  0  0  0  0  0  0
   -3.4950   24.9460  -31.3860 H   0  0  0  0  0  0  0  0  0  0  0  0
   -5.7975   25.8827  -29.7640 H   0  0  0  0  0  0  0  0  0  0  0  0
   -5.4635   26.0977  -31.5403 H   0  0  0  0  0  0  0  0  0  0  0  0
   -5.8339   24.2813  -33.1318 H   0  0  0  0  0  0  0  0  0  0  0  0
   -7.2480   22.2983  -33.6634 H   0  0  0  0  0  0  0  0  0  0  0  0
   -8.8160   20.1478  -31.0409 H   0  0  0  0  0  0  0  0  0  0  0  0
   -9.7282   21.1905  -32.2210 H   0  0  0  0  0  0  0  0  0  0  0  0
   -8.9160   20.0300  -33.8510 H   0  0  0  0  0  0  0  0  0  0  0  0
   -7.8364   18.5241  -31.5939 H   0  0  0  0  0  0  0  0  0  0  0  0
   -8.9168   18.0002  -32.9274 H   0  0  0  0  0  0  0  0  0  0  0  0
   -7.3112   15.9705  -33.0147 H   0  0  0  0  0  0  0  0  0  0  0  0
   -5.2742   15.0900  -34.1617 H   0  0  0  0  0  0  0  0  0  0  0  0
   -4.0117   19.1368  -35.0315 H   0  0  0  0  0  0  0  0  0  0  0  0
   -6.0677   20.0202  -33.9285 H   0  0  0  0  0  0  0  0  0  0  0  0
   -8.2789   21.9056  -29.4775 H   0  0  0  0  0  0  0  0  0  0  0  0
   -6.8127   23.8455  -28.9350 H   0  0  0  0  0  0  0  0  0  0  0  0
  1  2  1  0
  2  3  1  0
  3  4  1  0
  4  5  1  0
  5  6  1  0
  6  7  1  0
  7  8  1  0
  8  9  2  0
  9 10  1  0
 10 11  2  0
 11 12  1  0
 12 13  1  0
 13 14  1  0
 14 15  1  0
 15 16  2  0
 16 17  1  0
 17 18  2  0
 18 19  1  0
 18 20  1  0
 20 21  2  0
 11 22  1  0
 22 23  2  0
 23  8  1  0
 21 15  1  0
  1 24  1  0
  1 25  1  0
  1 26  1  0
  2 27  1  0
  2 28  1  0
  4 29  1  0
  4 30  1  0
  5 31  1  0
  5 32  1  0
  6 33  1  0
  7 34  1  0
  7 35  1  0
  9 36  1  0
 10 37  1  0
 12 38  1  0
 12 39  1  0
 13 40  1  0
 14 41  1  0
 14 42  1  0
 16 43  1  0
 17 44  1  0
 20 45  1  0
 21 46  1  0
 22 47  1  0
 23 48  1  0
M  END
>  <UniqueID>  (6) 
6

>  <SMILES>  (6) 
CCOCCNCc1ccc(CNCc2ccc(F)cc2)cc1

>  <Energy>  (6) 
44.67775350603676

>  <Genealogy>  (6) 
CCOCCNCc1ccc(CNCc2ccc(F)cc2)cc1 (3D coordinates assigned)
CCOCCNCc1ccc(CNCc2ccc(F)cc2)cc1 (optimized conformer: 44.67775350603676 kcal/mol)

>  <smiles>  (6) 
CCOCCNCc1ccc(CNCc2ccc(F)cc2)cc1

>  <score_type>  (6) 
oracle

>  <origin>  (6) 
adg

>  <m_score__min__energy>  (6) 
-8.1799999999999997

>  <m_primary>  (6) 
energy

$$$$
6:0
     RDKit          3D

 36 37  0  0  0  0  0  0  0  0999 V2000
   -2.4220   20.9650  -33.4000 C   0  0  0  0  0  0  0  0  0  0  0  0
   -2.4080   21.5140  -31.9790 C   0  0  0  0  0  0  0  0  0  0  0  0
   -3.4390   22.5510  -31.8300 N   0  0  0  0  0  0  0  0  0  0  0  0
   -3.2980   23.2680  -30.5550 C   0  0  0  0  0  0  0  0  0  0  0  0
   -4.5340   24.1230  -30.2830 C   0  0  0  0  0  0  0  0  0  0  0  0
   -5.4140   24.0270  -31.3840 O   0  0  0  0  0  0  0  0  0  0  0  0
   -6.7630   24.1130  -30.9620 C   0  0  0  0  0  0  0  0  0  0  0  0
   -7.6750   23.4060  -31.9660 C   0  0  0  0  0  0  0  0  0  0  0  0
   -7.1030   22.1240  -32.3770 N   0  0  0  0  0  0  0  0  0  0  0  0
   -5.8810   21.9620  -32.8770 N   0  0  0  0  0  0  0  0  0  0  0  0
   -5.5800   20.6750  -33.0440 N   0  0  0  0  0  0  0  0  0  0  0  0
   -6.6680   20.0020  -32.6250 C   0  0  0  0  0  0  0  0  0  0  0  0
   -6.8610   18.6270  -32.5420 C   0  0  0  0  0  0  0  0  0  0  0  0
   -8.0850   18.1770  -32.0080 C   0  0  0  0  0  0  0  0  0  0  0  0
   -9.0620   19.1010  -31.5680 C   0  0  0  0  0  0  0  0  0  0  0  0
   -8.8280   20.4880  -31.6600 C   0  0  0  0  0  0  0  0  0  0  0  0
   -7.6110   20.8930  -32.2060 C   0  0  0  0  0  0  0  0  0  0  0  0
   -2.4500   19.8658  -33.3682 H   0  0  0  0  0  0  0  0  0  0  0  0
   -3.3109   21.3393  -33.9289 H   0  0  0  0  0  0  0  0  0  0  0  0
   -1.5152   21.2935  -33.9289 H   0  0  0  0  0  0  0  0  0  0  0  0
   -2.6086   20.6966  -31.2708 H   0  0  0  0  0  0  0  0  0  0  0  0
   -1.4213   21.9538  -31.7717 H   0  0  0  0  0  0  0  0  0  0  0  0
   -4.3700   22.0700  -31.8230 H   0  0  0  0  0  0  0  0  0  0  0  0
   -3.1762   22.5384  -29.7409 H   0  0  0  0  0  0  0  0  0  0  0  0
   -2.4168   23.9240  -30.6111 H   0  0  0  0  0  0  0  0  0  0  0  0
   -5.0392   23.7618  -29.3751 H   0  0  0  0  0  0  0  0  0  0  0  0
   -4.2347   25.1715  -30.1382 H   0  0  0  0  0  0  0  0  0  0  0  0
   -6.8670   23.6349  -29.9768 H   0  0  0  0  0  0  0  0  0  0  0  0
   -7.0526   25.1722  -30.8970 H   0  0  0  0  0  0  0  0  0  0  0  0
   -8.6558   23.2301  -31.5001 H   0  0  0  0  0  0  0  0  0  0  0  0
   -7.7814   24.0449  -32.8551 H   0  0  0  0  0  0  0  0  0  0  0  0
   -5.2220   22.7430  -33.0880 H   0  0  0  0  0  0  0  0  0  0  0  0
   -6.0894   17.9195  -32.8796 H   0  0  0  0  0  0  0  0  0  0  0  0
   -8.2827   17.0975  -31.9326 H   0  0  0  0  0  0  0  0  0  0  0  0
  -10.0115   18.7342  -31.1509 H   0  0  0  0  0  0  0  0  0  0  0  0
   -9.5739   21.2195  -31.3157 H   0  0  0  0  0  0  0  0  0  0  0  0
  1  2  1  0
  2  3  1  0
  3  4  1  0
  4  5  1  0
  5  6  1  0
  6  7  1  0
  7  8  1  0
  8  9  1  0
  9 10  1  0
 10 11  2  0
 11 12  1  0
 12 13  2  0
 13 14  1  0
 14 15  2  0
 15 16  1  0
 16 17  2  0
 17  9  1  0
 17 12  1  0
  1 18  1  0
  1 19  1  0
  1 20  1  0
  2 21  1  0
  2 22  1  0
  3 23  1  0
  4 24  1  0
  4 25  1  0
  5 26  1  0
  5 27  1  0
  7 28  1  0
  7 29  1  0
  8 30  1  0
  8 31  1  0
 10 32  1  0
 13 33  1  0
 14 34  1  0
 15 35  1  0
 16 36  1  0
M  CHG  1  10   1
M  END
>  <UniqueID>  (7) 
7

>  <SMILES>  (7) 
CCNCCOCCn1[nH+]nc2ccccc21

>  <Energy>  (7) 
72.31130611660413

>  <Genealogy>  (7) 
CCNCCOCCn1[nH+]nc2ccccc21 (protonated)
CCNCCOCCn1[nH+]nc2ccccc21 (3D coordinates assigned)
CCNCCOCCn1[nH+]nc2ccccc21 (optimized conformer: 72.31130611660413 kcal/mol)

>  <smiles>  (7) 
CCNCCOCCn1nnc2ccccc21

>  <score_type>  (7) 
oracle

>  <origin>  (7) 
adg

>  <m_score__min__energy>  (7) 
-6.3600000000000003

>  <m_primary>  (7) 
energy

$$$$
7:0
     RDKit          3D

 53 55  0  0  0  0  0  0  0  0999 V2000
   -1.6170   20.4110  -30.0270 C   0  0  0  0  0  0  0  0  0  0  0  0
   -2.8990   21.1600  -29.6870 C   0  0  0  0  0  0  0  0  0  0  0  0
   -2.6830   22.6150  -29.8450 N   0  0  0  0  0  0  0  0  0  0  0  0
   -1.2690   22.9520  -30.0780 C   0  0  0  0  0  0  0  0  0  0  0  0
   -3.2980   23.4150  -28.7590 C   0  0  0  0  0  0  0  0  0  0  0  0
   -4.5030   24.2620  -29.2070 C   0  0  0  0  0  0  0  0  0  0  0  0
   -4.2540   24.7600  -30.5050 O   0  0  0  0  0  0  0  0  0  0  0  0
   -5.4620   25.0020  -31.1980 C   0  0  0  0  0  0  0  0  0  0  0  0
   -5.8770   23.7970  -32.0530 C   0  0  0  0  0  0  0  0  0  0  0  0
   -5.0550   22.6220  -31.7580 N   0  0  0  0  0  0  0  0  0  0  0  0
   -5.3350   21.3310  -32.3370 C   0  0  0  0  0  0  0  0  0  0  0  0
   -6.6070   20.7440  -32.1910 C   0  0  0  0  0  0  0  0  0  0  0  0
   -7.6610   21.4380  -31.5580 C   0  0  0  0  0  0  0  0  0  0  0  0
   -8.8890   20.8200  -31.3350 C   0  0  0  0  0  0  0  0  0  0  0  0
   -9.0900   19.5070  -31.7400 C   0  0  0  0  0  0  0  0  0  0  0  0
   -8.0850   18.8210  -32.4210 C   0  0  0  0  0  0  0  0  0  0  0  0
   -6.8430   19.4420  -32.7100 C   0  0  0  0  0  0  0  0  0  0  0  0
   -5.8760   18.8120  -33.4700 N   0  0  0  0  0  0  0  0  0  0  0  0
   -6.2280   17.6150  -34.2670 C   0  0  0  0  0  0  0  0  0  0  0  0
   -4.5960   19.3260  -33.5250 C   0  0  0  0  0  0  0  0  0  0  0  0
   -3.5190   18.5790  -34.0710 C   0  0  0  0  0  0  0  0  0  0  0  0
   -2.2390   19.1210  -34.1600 C   0  0  0  0  0  0  0  0  0  0  0  0
   -1.9910   20.4110  -33.7050 C   0  0  0  0  0  0  0  0  0  0  0  0
   -0.2320   21.1450  -33.8290 Br  0  0  0  0  0  0  0  0  0  0  0  0
   -3.0180   21.1550  -33.1290 C   0  0  0  0  0  0  0  0  0  0  0  0
   -4.3190   20.6180  -33.0030 C   0  0  0  0  0  0  0  0  0  0  0  0
   -1.1085   20.1139  -29.0979 H   0  0  0  0  0  0  0  0  0  0  0  0
   -1.8614   19.5136  -30.6143 H   0  0  0  0  0  0  0  0  0  0  0  0
   -0.9553   21.0646  -30.6143 H   0  0  0  0  0  0  0  0  0  0  0  0
   -3.7032   20.8341  -30.3631 H   0  0  0  0  0  0  0  0  0  0  0  0
   -3.1817   20.9445  -28.6460 H   0  0  0  0  0  0  0  0  0  0  0  0
   -0.7572   23.0740  -29.1120 H   0  0  0  0  0  0  0  0  0  0  0  0
   -0.7884   22.1432  -30.6480 H   0  0  0  0  0  0  0  0  0  0  0  0
   -1.2049   23.8906  -30.6480 H   0  0  0  0  0  0  0  0  0  0  0  0
   -3.6343   22.7259  -27.9703 H   0  0  0  0  0  0  0  0  0  0  0  0
   -2.5285   24.1187  -28.4087 H   0  0  0  0  0  0  0  0  0  0  0  0
   -5.4091   23.6384  -29.2181 H   0  0  0  0  0  0  0  0  0  0  0  0
   -4.6511   25.0988  -28.5085 H   0  0  0  0  0  0  0  0  0  0  0  0
   -6.2568   25.2109  -30.4668 H   0  0  0  0  0  0  0  0  0  0  0  0
   -5.3070   25.8607  -31.8678 H   0  0  0  0  0  0  0  0  0  0  0  0
   -6.9305   23.5575  -31.8459 H   0  0  0  0  0  0  0  0  0  0  0  0
   -5.7363   24.0599  -33.1118 H   0  0  0  0  0  0  0  0  0  0  0  0
   -4.4160   22.6710  -30.9330 H   0  0  0  0  0  0  0  0  0  0  0  0
   -7.5105   22.4793  -31.2371 H   0  0  0  0  0  0  0  0  0  0  0  0
   -9.7001   21.3722  -30.8378 H   0  0  0  0  0  0  0  0  0  0  0  0
  -10.0452   19.0065  -31.5229 H   0  0  0  0  0  0  0  0  0  0  0  0
   -8.2581   17.7823  -32.7390 H   0  0  0  0  0  0  0  0  0  0  0  0
   -6.4727   16.7829  -33.5904 H   0  0  0  0  0  0  0  0  0  0  0  0
   -7.0981   17.8397  -34.9014 H   0  0  0  0  0  0  0  0  0  0  0  0
   -5.3748   17.3330  -34.9014 H   0  0  0  0  0  0  0  0  0  0  0  0
   -3.6986   17.5548  -34.4298 H   0  0  0  0  0  0  0  0  0  0  0  0
   -1.4210   18.5259  -34.5921 H   0  0  0  0  0  0  0  0  0  0  0  0
   -2.8137   22.1736  -32.7676 H   0  0  0  0  0  0  0  0  0  0  0  0
  1  2  1  0
  2  3  1  0
  3  4  1  0
  3  5  1  0
  5  6  1  0
  6  7  1  0
  7  8  1  0
  8  9  1  0
  9 10  1  0
 10 11  1  0
 11 12  2  0
 12 13  1  0
 13 14  2  0
 14 15  1  0
 15 16  2  0
 16 17  1  0
 17 18  2  0
 18 19  1  0
 18 20  1  0
 20 21  2  0
 21 22  1  0
 22 23  2  0
 23 24  1  0
 23 25  1  0
 25 26  2  0
 26 11  1  0
 17 12  1  0
 26 20  1  0
  1 27  1  0
  1 28  1  0
  1 29  1  0
  2 30  1  0
  2 31  1  0
  4 32  1  0
  4 33  1  0
  4 34  1  0
  5 35  1  0
  5 36  1  0
  6 37  1  0
  6 38  1  0
  8 39  1  0
  8 40  1  0
  9 41  1  0
  9 42  1  0
 10 43  1  0
 13 44  1  0
 14 45  1  0
 15 46  1  0
 16 47  1  0
 19 48  1  0
 19 49  1  0
 19 50  1  0
 21 51  1  0
 22 52  1  0
 25 53  1  0
M  CHG  1  18   1
M  END
>  <UniqueID>  (8) 
8

>  <SMILES>  (8) 
CCN(C)CCOCCNc1c2ccccc2[n+](C)c2ccc(Br)cc12

>  <Energy>  (8) 
76.47754975258933

>  <Genealogy>  (8) 
CCN(C)CCOCCNc1c2ccccc2[n+](C)c2ccc(Br)cc12 (3D coordinates assigned)
CCN(C)CCOCCNc1c2ccccc2[n+](C)c2ccc(Br)cc12 (optimized conformer: 76.47754975258933 kcal/mol)

>  <smiles>  (8) 
CCN(C)CCOCCNc1c2ccccc2[n+](C)c2ccc(Br)cc12

>  <score_type>  (8) 
oracle

>  <origin>  (8) 
adg

>  <m_score__min__energy>  (8) 
-8.6600000000000001

>  <m_primary>  (8) 
energy

$$$$
8:0
     RDKit          3D

 55 57  0  0  0  0  0  0  0  0999 V2000
   -1.7260   23.6310  -29.3690 C   0  0  0  0  0  0  0  0  0  0  0  0
   -3.0890   23.5840  -30.0560 C   0  0  0  0  0  0  0  0  0  0  0  0
   -3.5520   24.9280  -30.4380 N   0  0  0  0  0  0  0  0  0  0  0  0
   -5.0180   25.0990  -30.4550 C   0  0  0  0  0  0  0  0  0  0  0  0
   -5.8450   23.8000  -30.2960 C   0  0  0  0  0  0  0  0  0  0  0  0
   -6.8980   23.5200  -31.3940 C   0  0  0  0  0  0  0  0  0  0  0  0
   -6.3220   23.0370  -32.6660 N   0  0  0  0  0  0  0  0  0  0  0  0
   -6.1720   21.5870  -32.7030 C   0  0  0  0  0  0  0  0  0  0  0  0
   -7.2940   20.7150  -32.5660 C   0  0  0  0  0  0  0  0  0  0  0  0
   -8.6290   21.1900  -32.4430 C   0  0  0  0  0  0  0  0  0  0  0  0
   -9.7010   20.3100  -32.3170 C   0  0  0  0  0  0  0  0  0  0  0  0
   -9.4850   18.9410  -32.3060 C   0  0  0  0  0  0  0  0  0  0  0  0
   -8.1910   18.4430  -32.3960 C   0  0  0  0  0  0  0  0  0  0  0  0
   -7.0740   19.3100  -32.5000 C   0  0  0  0  0  0  0  0  0  0  0  0
   -5.7950   18.8030  -32.5240 N   0  0  0  0  0  0  0  0  0  0  0  0
   -5.5420   17.4630  -31.9500 C   0  0  0  0  0  0  0  0  0  0  0  0
   -4.7470   19.5910  -32.9480 C   0  0  0  0  0  0  0  0  0  0  0  0
   -3.5080   19.0280  -33.3910 C   0  0  0  0  0  0  0  0  0  0  0  0
   -3.4020   17.6440  -33.7750 N   0  0  0  0  0  0  0  0  0  0  0  0
   -4.1180   17.1920  -34.9680 C   0  0  0  0  0  0  0  0  0  0  0  0
   -2.2720   16.8440  -33.3010 C   0  0  0  0  0  0  0  0  0  0  0  0
   -2.4060   19.8590  -33.6220 C   0  0  0  0  0  0  0  0  0  0  0  0
   -2.5190   21.2320  -33.4900 C   0  0  0  0  0  0  0  0  0  0  0  0
   -3.7470   21.8060  -33.1840 C   0  0  0  0  0  0  0  0  0  0  0  0
   -4.8900   21.0080  -32.9410 C   0  0  0  0  0  0  0  0  0  0  0  0
   -1.8650   23.6262  -28.2778 H   0  0  0  0  0  0  0  0  0  0  0  0
   -1.1346   22.7527  -29.6671 H   0  0  0  0  0  0  0  0  0  0  0  0
   -1.1965   24.5479  -29.6671 H   0  0  0  0  0  0  0  0  0  0  0  0
   -3.0111   22.9631  -30.9607 H   0  0  0  0  0  0  0  0  0  0  0  0
   -3.8157   23.1590  -29.3480 H   0  0  0  0  0  0  0  0  0  0  0  0
   -3.1160   25.6420  -29.8130 H   0  0  0  0  0  0  0  0  0  0  0  0
   -5.2893   25.7758  -29.6314 H   0  0  0  0  0  0  0  0  0  0  0  0
   -5.2635   25.4917  -31.4527 H   0  0  0  0  0  0  0  0  0  0  0  0
   -5.1417   22.9543  -30.2825 H   0  0  0  0  0  0  0  0  0  0  0  0
   -6.4179   23.9287  -29.3658 H   0  0  0  0  0  0  0  0  0  0  0  0
   -7.5961   22.7575  -31.0182 H   0  0  0  0  0  0  0  0  0  0  0  0
   -7.3952   24.4769  -31.6113 H   0  0  0  0  0  0  0  0  0  0  0  0
   -5.3870   23.4800  -32.8060 H   0  0  0  0  0  0  0  0  0  0  0  0
   -6.8570   23.4330  -33.4620 H   0  0  0  0  0  0  0  0  0  0  0  0
   -8.8184   22.2736  -32.4475 H   0  0  0  0  0  0  0  0  0  0  0  0
  -10.7242   20.7034  -32.2258 H   0  0  0  0  0  0  0  0  0  0  0  0
  -10.3369   18.2497  -32.2261 H   0  0  0  0  0  0  0  0  0  0  0  0
   -8.0300   17.3549  -32.3864 H   0  0  0  0  0  0  0  0  0  0  0  0
   -5.5539   17.5263  -30.8519 H   0  0  0  0  0  0  0  0  0  0  0  0
   -6.3245   16.7666  -32.2857 H   0  0  0  0  0  0  0  0  0  0  0  0
   -4.5594   17.0999  -32.2857 H   0  0  0  0  0  0  0  0  0  0  0  0
   -5.0126   16.6273  -34.6667 H   0  0  0  0  0  0  0  0  0  0  0  0
   -4.4193   18.0639  -35.5671 H   0  0  0  0  0  0  0  0  0  0  0  0
   -3.4604   16.5450  -35.5671 H   0  0  0  0  0  0  0  0  0  0  0  0
   -2.2630   16.8377  -32.2011 H   0  0  0  0  0  0  0  0  0  0  0  0
   -2.3708   15.8135  -33.6728 H   0  0  0  0  0  0  0  0  0  0  0  0
   -1.3328   17.2795  -33.6728 H   0  0  0  0  0  0  0  0  0  0  0  0
   -1.4412   19.4169  -33.9111 H   0  0  0  0  0  0  0  0  0  0  0  0
   -1.6342   21.8708  -33.6277 H   0  0  0  0  0  0  0  0  0  0  0  0
   -3.8321   22.9014  -33.1296 H   0  0  0  0  0  0  0  0  0  0  0  0
  1  2  1  0
  2  3  1  0
  3  4  1  0
  4  5  1  0
  5  6  1  0
  6  7  1  0
  7  8  1  0
  8  9  2  0
  9 10  1  0
 10 11  2  0
 11 12  1  0
 12 13  2  0
 13 14  1  0
 14 15  2  0
 15 16  1  0
 15 17  1  0
 17 18  2  0
 18 19  1  0
 19 20  1  0
 19 21  1  0
 18 22  1  0
 22 23  2  0
 23 24  1  0
 24 25  2  0
 25  8  1  0
 14  9  1  0
 25 17  1  0
  1 26  1  0
  1 27  1  0
  1 28  1  0
  2 29  1  0
  2 30  1  0
  3 31  1  0
  4 32  1  0
  4 33  1  0
  5 34  1  0
  5 35  1  0
  6 36  1  0
  6 37  1  0
  7 38  1  0
  7 39  1  0
 10 40  1  0
 11 41  1  0
 12 42  1  0
 13 43  1  0
 16 44  1  0
 16 45  1  0
 16 46  1  0
 20 47  1  0
 20 48  1  0
 20 49  1  0
 21 50  1  0
 21 51  1  0
 21 52  1  0
 22 53  1  0
 23 54  1  0
 24 55  1  0
M  CHG  2   7   1  15   1
M  END
>  <UniqueID>  (9) 
9

>  <SMILES>  (9) 
CCNCCC[NH2+]c1c2ccccc2[n+](C)c2c(N(C)C)cccc12

>  <Energy>  (9) 
95.77396962305951

>  <Genealogy>  (9) 
CCNCCC[NH2+]c1c2ccccc2[n+](C)c2c(N(C)C)cccc12 (protonated)
CCNCCC[NH2+]c1c2ccccc2[n+](C)c2c(N(C)C)cccc12 (3D coordinates assigned)
CCNCCC[NH2+]c1c2ccccc2[n+](C)c2c(N(C)C)cccc12 (optimized conformer: 95.77396962305951 kcal/mol)

>  <smiles>  (9) 
CCNCCCNc1c2ccccc2[n+](C)c2c(N(C)C)cccc12

>  <score_type>  (9) 
oracle

>  <origin>  (9) 
adg

>  <m_score__min__energy>  (9) 
-8.2899999999999991

>  <m_primary>  (9) 
energy

$$$$
9:0
     RDKit          3D

 40 42  0  0  0  0  0  0  0  0999 V2000
   -6.0530   24.7420  -31.0760 C   0  0  0  0  0  0  0  0  0  0  0  0
   -5.4020   25.0480  -29.7300 C   0  0  0  0  0  0  0  0  0  0  0  0
   -3.9410   25.1080  -29.8490 N   0  0  0  0  0  0  0  0  0  0  0  0
   -3.1200   23.9450  -30.1000 C   0  0  0  0  0  0  0  0  0  0  0  0
   -3.4540   23.0370  -31.1270 C   0  0  0  0  0  0  0  0  0  0  0  0
   -2.6760   21.9040  -31.3760 C   0  0  0  0  0  0  0  0  0  0  0  0
   -3.0510   21.0460  -32.4210 O   0  0  0  0  0  0  0  0  0  0  0  0
   -4.2560   20.3330  -32.4960 C   0  0  0  0  0  0  0  0  0  0  0  0
   -4.2910   18.9640  -32.8190 C   0  0  0  0  0  0  0  0  0  0  0  0
   -5.5080   18.2800  -32.8700 C   0  0  0  0  0  0  0  0  0  0  0  0
   -6.7070   18.9500  -32.5880 C   0  0  0  0  0  0  0  0  0  0  0  0
   -7.9350   18.2720  -32.6390 C   0  0  0  0  0  0  0  0  0  0  0  0
   -9.1220   18.9510  -32.3490 C   0  0  0  0  0  0  0  0  0  0  0  0
   -9.0930   20.3060  -32.0080 C   0  0  0  0  0  0  0  0  0  0  0  0
   -7.8760   20.9910  -31.9540 C   0  0  0  0  0  0  0  0  0  0  0  0
   -6.6770   20.3220  -32.2440 C   0  0  0  0  0  0  0  0  0  0  0  0
   -5.4490   21.0010  -32.1940 C   0  0  0  0  0  0  0  0  0  0  0  0
   -1.5220   21.6810  -30.6140 C   0  0  0  0  0  0  0  0  0  0  0  0
   -1.1720   22.5640  -29.5940 C   0  0  0  0  0  0  0  0  0  0  0  0
   -1.9600   23.6940  -29.3210 C   0  0  0  0  0  0  0  0  0  0  0  0
   -1.5420   24.6180  -28.2070 C   0  0  0  0  0  0  0  0  0  0  0  0
   -7.0372   24.2794  -30.9106 H   0  0  0  0  0  0  0  0  0  0  0  0
   -6.1776   25.6759  -31.6438 H   0  0  0  0  0  0  0  0  0  0  0  0
   -5.4134   24.0502  -31.6438 H   0  0  0  0  0  0  0  0  0  0  0  0
   -5.7724   26.0171  -29.3643 H   0  0  0  0  0  0  0  0  0  0  0  0
   -5.6615   24.2432  -29.0265 H   0  0  0  0  0  0  0  0  0  0  0  0
   -3.4880   26.0430  -29.7500 H   0  0  0  0  0  0  0  0  0  0  0  0
   -4.3450   23.2252  -31.7440 H   0  0  0  0  0  0  0  0  0  0  0  0
   -3.3540   18.4289  -33.0327 H   0  0  0  0  0  0  0  0  0  0  0  0
   -5.5257   17.2119  -33.1323 H   0  0  0  0  0  0  0  0  0  0  0  0
   -7.9633   17.2056  -32.9074 H   0  0  0  0  0  0  0  0  0  0  0  0
  -10.0827   18.4167  -32.3894 H   0  0  0  0  0  0  0  0  0  0  0  0
  -10.0306   20.8348  -31.7815 H   0  0  0  0  0  0  0  0  0  0  0  0
   -7.8579   22.0571  -31.6835 H   0  0  0  0  0  0  0  0  0  0  0  0
   -5.4240   22.0649  -31.9157 H   0  0  0  0  0  0  0  0  0  0  0  0
   -0.8894   20.8054  -30.8215 H   0  0  0  0  0  0  0  0  0  0  0  0
   -0.2685   22.3737  -28.9961 H   0  0  0  0  0  0  0  0  0  0  0  0
   -1.7564   24.1442  -27.2377 H   0  0  0  0  0  0  0  0  0  0  0  0
   -0.4639   24.8221  -28.2849 H   0  0  0  0  0  0  0  0  0  0  0  0
   -2.1005   25.5624  -28.2849 H   0  0  0  0  0  0  0  0  0  0  0  0
  1  2  1  0
  2  3  1  0
  3  4  1  0
  4  5  2  0
  5  6  1  0
  6  7  1  0
  7  8  1  0
  8  9  2  0
  9 10  1  0
 10 11  2  0
 11 12  1  0
 12 13  2  0
 13 14  1  0
 14 15  2  0
 15 16  1  0
 16 17  2  0
  6 18  2  0
 18 19  1  0
 19 20  2  0
 20 21  1  0
 20  4  1  0
 17  8  1  0
 16 11  1  0
  1 22  1  0
  1 23  1  0
  1 24  1  0
  2 25  1  0
  2 26  1  0
  3 27  1  0
  5 28  1  0
  9 29  1  0
 10 30  1  0
 12 31  1  0
 13 32  1  0
 14 33  1  0
 15 34  1  0
 17 35  1  0
 18 36  1  0
 19 37  1  0
 21 38  1  0
 21 39  1  0
 21 40  1  0
M  END
>  <UniqueID>  (10) 
10

>  <SMILES>  (10) 
CCNc1cc(Oc2ccc3ccccc3c2)ccc1C

>  <Energy>  (10) 
49.99398420997729

>  <Genealogy>  (10) 
CCNc1cc(Oc2ccc3ccccc3c2)ccc1C (3D coordinates assigned)
CCNc1cc(Oc2ccc3ccccc3c2)ccc1C (optimized conformer: 49.99398420997729 kcal/mol)

>  <smiles>  (10) 
CCNc1cc(Oc2ccc3ccccc3c2)ccc1C

>  <score_type>  (10) 
oracle

>  <origin>  (10) 
adg

>  <m_score__min__energy>  (10) 
-8.0600000000000005

>  <m_primary>  (10) 
energy

$$$$
10:0
     RDKit          3D

 77 80  0  0  0  0  0  0  0  0999 V2000
   -6.4930   16.6410  -33.5930 C   0  0  0  0  0  0  0  0  0  0  0  0
   -6.1270   17.3220  -32.2780 C   0  0  0  0  0  0  0  0  0  0  0  0
   -6.6780   18.6970  -32.2330 N   0  0  0  0  0  0  0  0  0  0  0  0
   -6.2100   19.5190  -33.3740 C   0  0  0  0  0  0  0  0  0  0  0  0
   -4.6860   19.6950  -33.4420 C   0  0  0  0  0  0  0  0  0  0  0  0
   -8.1500   18.6890  -32.0660 C   0  0  0  0  0  0  0  0  0  0  0  0
   -8.8250   19.8440  -32.8260 C   0  0  0  0  0  0  0  0  0  0  0  0
   -9.8090   20.4560  -32.0170 O   0  0  0  0  0  0  0  0  0  0  0  0
   -9.4150   21.7610  -31.6430 C   0  0  0  0  0  0  0  0  0  0  0  0
   -8.1160   21.6840  -30.8450 C   0  0  0  0  0  0  0  0  0  0  0  0
   -7.0050   22.3040  -31.6010 N   0  0  0  0  0  0  0  0  0  0  0  0
   -5.7010   21.9790  -30.9790 C   0  0  0  0  0  0  0  0  0  0  0  0
   -4.5940   22.9180  -31.4750 C   0  0  0  0  0  0  0  0  0  0  0  0
   -4.8790   24.3470  -31.1760 N   0  0  0  0  0  0  0  0  0  0  0  0
   -4.0650   24.8730  -30.0590 C   0  0  0  0  0  0  0  0  0  0  0  0
   -3.2460   23.7720  -29.3630 C   0  0  0  0  0  0  0  0  0  0  0  0
   -2.0170   23.4630  -30.1000 N   0  0  0  0  0  0  0  0  0  0  0  0
   -1.1760   22.3800  -29.6850 C   0  0  0  0  0  0  0  0  0  0  0  0
   -0.2660   22.4640  -28.6190 C   0  0  0  0  0  0  0  0  0  0  0  0
   -0.0220   23.6190  -27.7360 C   0  0  0  0  0  0  0  0  0  0  0  0
    0.7850   24.5110  -28.1130 O   0  0  0  0  0  0  0  0  0  0  0  0
   -0.6410   23.7070  -26.4410 N   0  0  0  0  0  0  0  0  0  0  0  0
   -0.7340   24.9260  -25.6830 C   0  0  0  0  0  0  0  0  0  0  0  0
   -1.1170   26.1400  -26.2830 C   0  0  0  0  0  0  0  0  0  0  0  0
   -1.2010   27.3100  -25.5170 C   0  0  0  0  0  0  0  0  0  0  0  0
   -0.9190   27.2750  -24.1500 C   0  0  0  0  0  0  0  0  0  0  0  0
   -0.5690   26.0690  -23.5420 C   0  0  0  0  0  0  0  0  0  0  0  0
   -0.4830   24.8980  -24.3030 C   0  0  0  0  0  0  0  0  0  0  0  0
    0.5770   20.9970  -28.4900 S   0  0  0  0  0  0  0  0  0  0  0  0
   -0.2140   20.2690  -29.7720 C   0  0  0  0  0  0  0  0  0  0  0  0
    0.0090   19.0220  -30.2580 N   0  0  0  0  0  0  0  0  0  0  0  0
   -0.6640   18.6030  -31.3640 C   0  0  0  0  0  0  0  0  0  0  0  0
   -1.5600   19.4660  -32.0210 C   0  0  0  0  0  0  0  0  0  0  0  0
   -1.7790   20.7570  -31.5220 C   0  0  0  0  0  0  0  0  0  0  0  0
   -1.1150   21.1430  -30.3520 C   0  0  0  0  0  0  0  0  0  0  0  0
   -6.3160   24.6230  -30.9270 C   0  0  0  0  0  0  0  0  0  0  0  0
   -7.2180   23.7590  -31.8190 C   0  0  0  0  0  0  0  0  0  0  0  0
   -7.0042   15.6898  -33.3835 H   0  0  0  0  0  0  0  0  0  0  0  0
   -7.1605   17.2962  -34.1719 H   0  0  0  0  0  0  0  0  0  0  0  0
   -5.5782   16.4459  -34.1719 H   0  0  0  0  0  0  0  0  0  0  0  0
   -6.5402   16.7392  -31.4416 H   0  0  0  0  0  0  0  0  0  0  0  0
   -5.0312   17.3758  -32.1989 H   0  0  0  0  0  0  0  0  0  0  0  0
   -6.5432   19.0375  -34.3052 H   0  0  0  0  0  0  0  0  0  0  0  0
   -6.6375   20.5230  -33.2356 H   0  0  0  0  0  0  0  0  0  0  0  0
   -4.2765   19.7423  -32.4222 H   0  0  0  0  0  0  0  0  0  0  0  0
   -4.2419   18.8422  -33.9763 H   0  0  0  0  0  0  0  0  0  0  0  0
   -4.4480   20.6266  -33.9763 H   0  0  0  0  0  0  0  0  0  0  0  0
   -8.5449   17.7354  -32.4464 H   0  0  0  0  0  0  0  0  0  0  0  0
   -8.3701   18.8135  -30.9955 H   0  0  0  0  0  0  0  0  0  0  0  0
   -8.0652   20.5907  -33.1003 H   0  0  0  0  0  0  0  0  0  0  0  0
   -9.3049   19.4439  -33.7313 H   0  0  0  0  0  0  0  0  0  0  0  0
   -9.2570   22.3703  -32.5451 H   0  0  0  0  0  0  0  0  0  0  0  0
  -10.2007   22.2217  -31.0263 H   0  0  0  0  0  0  0  0  0  0  0  0
   -8.2454   22.2157  -29.8908 H   0  0  0  0  0  0  0  0  0  0  0  0
   -7.8742   20.6269  -30.6607 H   0  0  0  0  0  0  0  0  0  0  0  0
   -5.7910   22.0774  -29.8871 H   0  0  0  0  0  0  0  0  0  0  0  0
   -5.4319   20.9495  -31.2576 H   0  0  0  0  0  0  0  0  0  0  0  0
   -3.6492   22.6376  -30.9865 H   0  0  0  0  0  0  0  0  0  0  0  0
   -4.5327   22.8123  -32.5682 H   0  0  0  0  0  0  0  0  0  0  0  0
   -3.3736   25.6327  -30.4525 H   0  0  0  0  0  0  0  0  0  0  0  0
   -4.7525   25.3017  -29.3149 H   0  0  0  0  0  0  0  0  0  0  0  0
   -2.9792   24.1117  -28.3514 H   0  0  0  0  0  0  0  0  0  0  0  0
   -3.8606   22.8605  -29.3233 H   0  0  0  0  0  0  0  0  0  0  0  0
   -1.6240   24.1580  -30.7790 H   0  0  0  0  0  0  0  0  0  0  0  0
   -0.8960   22.8120  -25.9670 H   0  0  0  0  0  0  0  0  0  0  0  0
   -1.3513   26.1704  -27.3573 H   0  0  0  0  0  0  0  0  0  0  0  0
   -1.4898   28.2584  -25.9936 H   0  0  0  0  0  0  0  0  0  0  0  0
   -0.9727   28.1973  -23.5530 H   0  0  0  0  0  0  0  0  0  0  0  0
   -0.3603   26.0387  -22.4624 H   0  0  0  0  0  0  0  0  0  0  0  0
   -0.2166   23.9485  -23.8157 H   0  0  0  0  0  0  0  0  0  0  0  0
   -0.5066   17.5837  -31.7465 H   0  0  0  0  0  0  0  0  0  0  0  0
   -2.0878   19.1279  -32.9249 H   0  0  0  0  0  0  0  0  0  0  0  0
   -2.4578   21.4517  -32.0384 H   0  0  0  0  0  0  0  0  0  0  0  0
   -6.5439   24.4072  -29.8727 H   0  0  0  0  0  0  0  0  0  0  0  0
   -6.5099   25.6801  -31.1614 H   0  0  0  0  0  0  0  0  0  0  0  0
   -8.2683   23.9993  -31.5973 H   0  0  0  0  0  0  0  0  0  0  0  0
   -6.9657   23.9815  -32.8663 H   0  0  0  0  0  0  0  0  0  0  0  0
  1  2  1  0
  2  3  1  0
  3  4  1  0
  4  5  1  0
  3  6  1  0
  6  7  1  0
  7  8  1  0
  8  9  1  0
  9 10  1  0
 10 11  1  0
 11 12  1  0
 12 13  1  0
 13 14  1  0
 14 15  1  0
 15 16  1  0
 16 17  1  0
 17 18  1  0
 18 19  2  0
 19 20  1  0
 20 21  2  0
 20 22  1  0
 22 23  1  0
 23 24  2  0
 24 25  1  0
 25 26  2  0
 26 27  1  0
 27 28  2  0
 19 29  1  0
 29 30  1  0
 30 31  2  0
 31 32  1  0
 32 33  2  0
 33 34  1  0
 34 35  2  0
 14 36  1  0
 36 37  1  0
 37 11  1  0
 35 18  1  0
 28 23  1  0
 35 30  1  0
  1 38  1  0
  1 39  1  0
  1 40  1  0
  2 41  1  0
  2 42  1  0
  4 43  1  0
  4 44  1  0
  5 45  1  0
  5 46  1  0
  5 47  1  0
  6 48  1  0
  6 49  1  0
  7 50  1  0
  7 51  1  0
  9 52  1  0
  9 53  1  0
 10 54  1  0
 10 55  1  0
 12 56  1  0
 12 57  1  0
 13 58  1  0
 13 59  1  0
 15 60  1  0
 15 61  1  0
 16 62  1  0
 16 63  1  0
 17 64  1  0
 22 65  1  0
 24 66  1  0
 25 67  1  0
 26 68  1  0
 27 69  1  0
 28 70  1  0
 32 71  1  0
 33 72  1  0
 34 73  1  0
 36 74  1  0
 36 75  1  0
 37 76  1  0
 37 77  1  0
M  END
>  <UniqueID>  (11) 
11

>  <SMILES>  (11) 
CCN(CC)CCOCCN1CCN(CCNc2c(C(=O)Nc3ccccc3)sc3ncccc23)CC1

>  <Energy>  (11) 
134.61941782885725

>  <Genealogy>  (11) 
CCN(CC)CCOCCN1CCN(CCNc2c(C(=O)Nc3ccccc3)sc3ncccc23)CC1 (3D coordinates assigned)
CCN(CC)CCOCCN1CCN(CCNc2c(C(=O)Nc3ccccc3)sc3ncccc23)CC1 (nonaromatic ring conformer: 134.61941782885725 kcal/mol)

>  <smiles>  (11) 
CCN(CC)CCOCCN1CCN(CCNc2c(C(=O)Nc3ccccc3)sc3ncccc23)CC1

>  <score_type>  (11) 
oracle

>  <origin>  (11) 
adg

>  <m_score__min__energy>  (11) 
-10.890000000000001

>  <m_primary>  (11) 
energy

$$$$
11:0
     RDKit          3D

 99101  0  0  0  0  0  0  0  0999 V2000
   -8.6650   18.4720  -31.5690 C   0  0  0  0  0  0  0  0  0  0  0  0
   -9.4100   19.2840  -32.6210 C   0  0  0  0  0  0  0  0  0  0  0  0
   -8.5720   20.3920  -33.0900 N   0  0  0  0  0  0  0  0  0  0  0  0
   -7.6900   20.8800  -32.0180 C   0  0  0  0  0  0  0  0  0  0  0  0
   -7.9960   22.3500  -31.7230 C   0  0  0  0  0  0  0  0  0  0  0  0
   -7.1570   22.9050  -30.5590 C   0  0  0  0  0  0  0  0  0  0  0  0
   -7.2540   24.3160  -30.4850 O   0  0  0  0  0  0  0  0  0  0  0  0
   -6.0780   24.9420  -30.9580 C   0  0  0  0  0  0  0  0  0  0  0  0
   -4.9720   24.6850  -30.0310 C   0  0  0  0  0  0  0  0  0  0  0  0
   -4.0650   24.4740  -29.2650 C   0  0  0  0  0  0  0  0  0  0  0  0
   -2.9460   24.2140  -28.3410 C   0  0  0  0  0  0  0  0  0  0  0  0
   -1.6200   24.4340  -28.9630 N   0  0  0  0  0  0  0  0  0  0  0  0
   -0.6660   25.0460  -28.0230 C   0  0  0  0  0  0  0  0  0  0  0  0
   -1.0590   23.2150  -29.5870 C   0  0  0  0  0  0  0  0  0  0  0  0
   -2.1460   22.1510  -29.8350 C   0  0  0  0  0  0  0  0  0  0  0  0
   -2.7430   22.1830  -31.2530 C   0  0  0  0  0  0  0  0  0  0  0  0
   -4.0330   21.3540  -31.3770 C   0  0  0  0  0  0  0  0  0  0  0  0
   -4.5900   21.3380  -32.8100 C   0  0  0  0  0  0  0  0  0  0  0  0
   -4.5710   19.9530  -33.4630 C   0  0  0  0  0  0  0  0  0  0  0  0
   -5.8300   19.6750  -34.0350 O   0  0  0  0  0  0  0  0  0  0  0  0
   -6.0980   18.2920  -33.9470 C   0  0  0  0  0  0  0  0  0  0  0  0
   -5.1340   17.6400  -32.9490 C   0  0  0  0  0  0  0  0  0  0  0  0
   -4.2170   16.5840  -33.5940 C   0  0  0  0  0  0  0  0  0  0  0  0
   -3.0150   16.1830  -32.7260 C   0  0  0  0  0  0  0  0  0  0  0  0
   -1.8010   16.8730  -33.1580 N   0  0  0  0  0  0  0  0  0  0  0  0
   -0.7630   17.3610  -32.2710 C   0  0  0  0  0  0  0  0  0  0  0  0
    0.2620   18.0360  -33.1160 N   0  0  0  0  0  0  0  0  0  0  0  0
    0.8300   19.2860  -32.5460 C   0  0  2  0  0  0  0  0  0  0  0  0
    1.5500   19.0610  -31.2280 C   0  0  0  0  0  0  0  0  0  0  0  0
    2.8030   19.2050  -31.1550 O   0  0  0  0  0  0  0  0  0  0  0  0
    0.8220   18.6900  -30.0430 N   0  0  0  0  0  0  0  0  0  0  0  0
   -0.3970   19.4190  -29.6730 C   0  0  0  0  0  0  0  0  0  0  0  0
   -0.8690   18.9930  -28.2870 C   0  0  0  0  0  0  0  0  0  0  0  0
    0.2450   18.9050  -27.4280 O   0  0  0  0  0  0  0  0  0  0  0  0
    1.0080   17.7510  -27.7300 C   0  0  0  0  0  0  0  0  0  0  0  0
    1.2830   17.5520  -29.2420 C   0  0  0  0  0  0  0  0  0  0  0  0
   -0.2300   20.4110  -32.4240 C   0  0  0  0  0  0  0  0  0  0  0  0
   -1.2520   20.3920  -33.5740 C   0  0  0  0  0  0  0  0  0  0  0  0
   -0.7000   19.6740  -34.8080 C   0  0  0  0  0  0  0  0  0  0  0  0
   -0.3270   18.2090  -34.4750 C   0  0  2  0  0  0  0  0  0  0  0  0
   -1.5390   17.3620  -34.4530 C   0  0  0  0  0  0  0  0  0  0  0  0
   -2.2590   17.1100  -35.4590 O   0  0  0  0  0  0  0  0  0  0  0  0
   -8.9698   18.8043  -30.5657 H   0  0  0  0  0  0  0  0  0  0  0  0
   -8.9054   17.4055  -31.6909 H   0  0  0  0  0  0  0  0  0  0  0  0
   -7.5818   18.6199  -31.6909 H   0  0  0  0  0  0  0  0  0  0  0  0
   -9.6620   18.6334  -33.4714 H   0  0  0  0  0  0  0  0  0  0  0  0
  -10.3295   19.6919  -32.1759 H   0  0  0  0  0  0  0  0  0  0  0  0
   -7.9680   20.0470  -33.8760 H   0  0  0  0  0  0  0  0  0  0  0  0
   -7.8555   20.2831  -31.1090 H   0  0  0  0  0  0  0  0  0  0  0  0
   -6.6421   20.7847  -32.3386 H   0  0  0  0  0  0  0  0  0  0  0  0
   -7.7831   22.9424  -32.6250 H   0  0  0  0  0  0  0  0  0  0  0  0
   -9.0551   22.4192  -31.4340 H   0  0  0  0  0  0  0  0  0  0  0  0
   -7.5200   22.4704  -29.6159 H   0  0  0  0  0  0  0  0  0  0  0  0
   -6.1040   22.6367  -30.7297 H   0  0  0  0  0  0  0  0  0  0  0  0
   -5.8240   24.5402  -31.9500 H   0  0  0  0  0  0  0  0  0  0  0  0
   -6.2474   26.0265  -31.0299 H   0  0  0  0  0  0  0  0  0  0  0  0
   -3.0429   24.8854  -27.4751 H   0  0  0  0  0  0  0  0  0  0  0  0
   -3.0005   23.1554  -28.0472 H   0  0  0  0  0  0  0  0  0  0  0  0
   -0.9857   24.8409  -26.9907 H   0  0  0  0  0  0  0  0  0  0  0  0
    0.3351   24.6212  -28.1881 H   0  0  0  0  0  0  0  0  0  0  0  0
   -0.6348   26.1331  -28.1881 H   0  0  0  0  0  0  0  0  0  0  0  0
   -0.5991   23.4860  -30.5488 H   0  0  0  0  0  0  0  0  0  0  0  0
   -0.3128   22.7898  -28.8998 H   0  0  0  0  0  0  0  0  0  0  0  0
   -1.7022   21.1583  -29.6691 H   0  0  0  0  0  0  0  0  0  0  0  0
   -2.9691   22.3694  -29.1387 H   0  0  0  0  0  0  0  0  0  0  0  0
   -2.9699   23.2270  -31.5151 H   0  0  0  0  0  0  0  0  0  0  0  0
   -2.0002   21.7426  -31.9345 H   0  0  0  0  0  0  0  0  0  0  0  0
   -3.8178   20.3195  -31.0711 H   0  0  0  0  0  0  0  0  0  0  0  0
   -4.7914   21.8190  -30.7299 H   0  0  0  0  0  0  0  0  0  0  0  0
   -5.6303   21.6944  -32.7821 H   0  0  0  0  0  0  0  0  0  0  0  0
   -3.9397   21.9872  -33.4147 H   0  0  0  0  0  0  0  0  0  0  0  0
   -3.8007   19.9303  -34.2479 H   0  0  0  0  0  0  0  0  0  0  0  0
   -4.3451   19.1951  -32.6985 H   0  0  0  0  0  0  0  0  0  0  0  0
   -7.1332   18.1413  -33.6069 H   0  0  0  0  0  0  0  0  0  0  0  0
   -5.9630   17.8316  -34.9369 H   0  0  0  0  0  0  0  0  0  0  0  0
   -4.5047   18.4260  -32.5060 H   0  0  0  0  0  0  0  0  0  0  0  0
   -5.7447   17.1251  -32.1928 H   0  0  0  0  0  0  0  0  0  0  0  0
   -4.8151   15.6826  -33.7934 H   0  0  0  0  0  0  0  0  0  0  0  0
   -3.8097   17.0351  -34.5109 H   0  0  0  0  0  0  0  0  0  0  0  0
   -3.2244   16.4460  -31.6786 H   0  0  0  0  0  0  0  0  0  0  0  0
   -2.8562   15.0993  -32.8280 H   0  0  0  0  0  0  0  0  0  0  0  0
   -1.1883   18.0765  -31.5519 H   0  0  0  0  0  0  0  0  0  0  0  0
   -0.3148   16.5321  -31.7035 H   0  0  0  0  0  0  0  0  0  0  0  0
    1.5883   19.6236  -33.2678 H   0  0  0  0  0  0  0  0  0  0  0  0
   -0.1868   20.4987  -29.6687 H   0  0  0  0  0  0  0  0  0  0  0  0
   -1.1859   19.1913  -30.4050 H   0  0  0  0  0  0  0  0  0  0  0  0
   -1.5788   19.7362  -27.8949 H   0  0  0  0  0  0  0  0  0  0  0  0
   -1.3674   18.0144  -28.3495 H   0  0  0  0  0  0  0  0  0  0  0  0
    1.9744   17.8302  -27.2106 H   0  0  0  0  0  0  0  0  0  0  0  0
    0.4172   16.8844  -27.3984 H   0  0  0  0  0  0  0  0  0  0  0  0
    2.3657   17.4287  -29.3919 H   0  0  0  0  0  0  0  0  0  0  0  0
    0.7292   16.6606  -29.5716 H   0  0  0  0  0  0  0  0  0  0  0  0
    0.2860   21.3825  -32.4279 H   0  0  0  0  0  0  0  0  0  0  0  0
   -0.7819   20.2469  -31.4867 H   0  0  0  0  0  0  0  0  0  0  0  0
   -1.5021   21.4280  -33.8462 H   0  0  0  0  0  0  0  0  0  0  0  0
   -2.1450   19.8488  -33.2312 H   0  0  0  0  0  0  0  0  0  0  0  0
    0.1978   20.2028  -35.1606 H   0  0  0  0  0  0  0  0  0  0  0  0
   -1.4755   19.6702  -35.5882 H   0  0  0  0  0  0  0  0  0  0  0  0
    0.3997   17.9277  -35.2514 H   0  0  0  0  0  0  0  0  0  0  0  0
  1  2  1  0
  2  3  1  0
  3  4  1  0
  4  5  1  0
  5  6  1  0
  6  7  1  0
  7  8  1  0
  8  9  1  0
  9 10  3  0
 10 11  1  0
 11 12  1  0
 12 13  1  0
 12 14  1  0
 14 15  1  0
 15 16  1  0
 16 17  1  0
 17 18  1  0
 18 19  1  0
 19 20  1  0
 20 21  1  0
 21 22  1  0
 22 23  1  0
 23 24  1  0
 24 25  1  0
 25 26  1  0
 26 27  1  0
 27 28  1  0
 28 29  1  0
 29 30  2  0
 29 31  1  0
 31 32  1  0
 32 33  1  0
 33 34  1  0
 34 35  1  0
 35 36  1  0
 28 37  1  0
 37 38  1  0
 38 39  1  0
 39 40  1  0
 40 41  1  0
 41 42  2  0
 41 25  1  0
 40 27  1  0
 36 31  1  0
  1 43  1  0
  1 44  1  0
  1 45  1  0
  2 46  1  0
  2 47  1  0
  3 48  1  0
  4 49  1  0
  4 50  1  0
  5 51  1  0
  5 52  1  0
  6 53  1  0
  6 54  1  0
  8 55  1  0
  8 56  1  0
 11 57  1  0
 11 58  1  0
 13 59  1  0
 13 60  1  0
 13 61  1  0
 14 62  1  0
 14 63  1  0
 15 64  1  0
 15 65  1  0
 16 66  1  0
 16 67  1  0
 17 68  1  0
 17 69  1  0
 18 70  1  0
 18 71  1  0
 19 72  1  0
 19 73  1  0
 21 74  1  0
 21 75  1  0
 22 76  1  0
 22 77  1  0
 23 78  1  0
 23 79  1  0
 24 80  1  0
 24 81  1  0
 26 82  1  0
 26 83  1  0
 28 84  1  6
 32 85  1  0
 32 86  1  0
 33 87  1  0
 33 88  1  0
 35 89  1  0
 35 90  1  0
 36 91  1  0
 36 92  1  0
 37 93  1  0
 37 94  1  0
 38 95  1  0
 38 96  1  0
 39 97  1  0
 39 98  1  0
 40 99  1  6
M  END
>  <UniqueID>  (12) 
12

>  <SMILES>  (12) 
CCNCCCOCC#CCN(C)CCCCCCOCCCCN1CN2[C@H](CCC[C@H]2C(=O)N2CCOCC2)C1=O

>  <Energy>  (12) 
108.25085509622247

>  <Genealogy>  (12) 
CCNCCCOCC#CCN(C)CCCCCCOCCCCN1CN2[C@H](CCC[C@H]2C(=O)N2CCOCC2)C1=O (chirality)
CCNCCCOCC#CCN(C)CCCCCCOCCCCN1CN2[C@H](CCC[C@H]2C(=O)N2CCOCC2)C1=O (3D coordinates assigned)
CCNCCCOCC#CCN(C)CCCCCCOCCCCN1CN2[C@H](CCC[C@H]2C(=O)N2CCOCC2)C1=O (nonaromatic ring conformer: 108.25085509622247 kcal/mol)

>  <smiles>  (12) 
CCNCCCOCC#CCN(C)CCCCCCOCCCCN1CN2C(C(=O)N3CCOCC3)CCCC2C1=O

>  <score_type>  (12) 
oracle

>  <origin>  (12) 
adg

>  <m_score__min__energy>  (12) 
-9

>  <m_primary>  (12) 
energy

$$$$
12:0
     RDKit          3D

 58 60  0  0  0  0  0  0  0  0999 V2000
    0.8987   21.2245  -33.1955 H   0  0  0  0  0  0  0  0  0  0  0  0
   -0.0490   21.4190  -33.7190 C   0  0  0  0  0  0  0  0  0  0  0  0
   -0.0350   21.8910  -34.9160 N   0  0  0  0  0  0  0  0  0  0  0  0
    1.1970   22.1780  -35.6080 C   0  0  0  0  0  0  0  0  0  0  0  0
    1.9950   22.3639  -34.8741 H   0  0  0  0  0  0  0  0  0  0  0  0
    1.4717   21.3198  -36.2389 H   0  0  0  0  0  0  0  0  0  0  0  0
    1.0641   23.0692  -36.2389 H   0  0  0  0  0  0  0  0  0  0  0  0
   -1.3530   21.1330  -33.0350 C   0  0  0  0  0  0  0  0  0  0  0  0
   -1.5943   21.9651  -32.3572 H   0  0  0  0  0  0  0  0  0  0  0  0
   -1.2553   20.1938  -32.4708 H   0  0  0  0  0  0  0  0  0  0  0  0
   -2.4380   20.9810  -34.0160 N   0  0  0  0  0  0  0  0  0  0  0  0
   -2.0080   20.8290  -34.9590 H   0  0  0  0  0  0  0  0  0  0  0  0
   -3.0070   21.8480  -34.1170 H   0  0  0  0  0  0  0  0  0  0  0  0
   -3.2720   19.8400  -33.6980 C   0  0  0  0  0  0  0  0  0  0  0  0
   -2.8500   18.5830  -34.1580 C   0  0  0  0  0  0  0  0  0  0  0  0
   -1.8268   18.4628  -34.5435 H   0  0  0  0  0  0  0  0  0  0  0  0
   -3.7020   17.4920  -34.1340 C   0  0  0  0  0  0  0  0  0  0  0  0
   -3.3458   16.5114  -34.4825 H   0  0  0  0  0  0  0  0  0  0  0  0
   -5.0040   17.6300  -33.6720 C   0  0  0  0  0  0  0  0  0  0  0  0
   -5.6891   16.7708  -33.7219 H   0  0  0  0  0  0  0  0  0  0  0  0
   -5.4650   18.8570  -33.1380 C   0  0  0  0  0  0  0  0  0  0  0  0
   -4.5640   19.9650  -33.0910 C   0  0  0  0  0  0  0  0  0  0  0  0
   -5.0010   21.1360  -32.4240 C   0  0  0  0  0  0  0  0  0  0  0  0
   -4.0700   22.0060  -31.7470 N   0  0  0  0  0  0  0  0  0  0  0  0
   -4.0630   23.0140  -32.0190 H   0  0  0  0  0  0  0  0  0  0  0  0
   -3.6190   21.7150  -30.3780 C   0  0  0  0  0  0  0  0  0  0  0  0
   -2.5244   21.6063  -30.3853 H   0  0  0  0  0  0  0  0  0  0  0  0
   -4.1216   20.7911  -30.0557 H   0  0  0  0  0  0  0  0  0  0  0  0
   -3.9950   22.8170  -29.3740 C   0  0  0  0  0  0  0  0  0  0  0  0
   -3.5281   22.5712  -28.4088 H   0  0  0  0  0  0  0  0  0  0  0  0
   -5.0943   22.8352  -29.3395 H   0  0  0  0  0  0  0  0  0  0  0  0
   -3.5580   24.2380  -29.7650 C   0  0  0  0  0  0  0  0  0  0  0  0
   -2.5115   24.2091  -30.1025 H   0  0  0  0  0  0  0  0  0  0  0  0
   -3.6696   24.8863  -28.8834 H   0  0  0  0  0  0  0  0  0  0  0  0
   -4.3930   24.7850  -30.8460 N   0  0  0  0  0  0  0  0  0  0  0  0
   -4.9470   23.9980  -31.2520 H   0  0  0  0  0  0  0  0  0  0  0  0
   -5.3650   25.7580  -30.3280 C   0  0  0  0  0  0  0  0  0  0  0  0
   -5.7027   26.4046  -31.1513 H   0  0  0  0  0  0  0  0  0  0  0  0
   -4.8806   26.3596  -29.5448 H   0  0  0  0  0  0  0  0  0  0  0  0
   -6.5710   25.0450  -29.7240 C   0  0  0  0  0  0  0  0  0  0  0  0
   -6.5074   25.0826  -28.6265 H   0  0  0  0  0  0  0  0  0  0  0  0
   -7.4946   25.5423  -30.0550 H   0  0  0  0  0  0  0  0  0  0  0  0
   -6.5805   23.9960  -30.0550 H   0  0  0  0  0  0  0  0  0  0  0  0
   -6.3800   21.3390  -32.2490 C   0  0  0  0  0  0  0  0  0  0  0  0
   -6.8850   22.6080  -31.9030 C   0  0  0  0  0  0  0  0  0  0  0  0
   -6.1907   23.4472  -31.7490 H   0  0  0  0  0  0  0  0  0  0  0  0
   -8.2560   22.8100  -31.7540 C   0  0  0  0  0  0  0  0  0  0  0  0
   -8.6387   23.8029  -31.4751 H   0  0  0  0  0  0  0  0  0  0  0  0
   -9.1400   21.7560  -31.9580 C   0  0  0  0  0  0  0  0  0  0  0  0
  -10.2227   21.9213  -31.8556 H   0  0  0  0  0  0  0  0  0  0  0  0
   -8.6590   20.4900  -32.2920 C   0  0  0  0  0  0  0  0  0  0  0  0
   -9.3690   19.6666  -32.4592 H   0  0  0  0  0  0  0  0  0  0  0  0
   -7.2670   20.2500  -32.4190 C   0  0  0  0  0  0  0  0  0  0  0  0
   -6.7620   18.9930  -32.6790 N   0  0  0  0  0  0  0  0  0  0  0  0
   -7.6090   17.7990  -32.4630 C   0  0  0  0  0  0  0  0  0  0  0  0
   -7.7313   17.6266  -31.3835 H   0  0  0  0  0  0  0  0  0  0  0  0
   -8.5952   17.9611  -32.9225 H   0  0  0  0  0  0  0  0  0  0  0  0
   -7.1301   16.9218  -32.9225 H   0  0  0  0  0  0  0  0  0  0  0  0
  1  2  1  0
  2  3  2  0
  3  4  1  0
  4  5  1  0
  4  6  1  0
  4  7  1  0
  2  8  1  0
  8  9  1  0
  8 10  1  0
  8 11  1  0
 11 12  1  0
 11 13  1  0
 11 14  1  0
 14 15  2  0
 15 16  1  0
 15 17  1  0
 17 18  1  0
 17 19  2  0
 19 20  1  0
 19 21  1  0
 21 22  2  0
 22 23  1  0
 23 24  1  0
 24 25  1  0
 24 26  1  0
 26 27  1  0
 26 28  1  0
 26 29  1  0
 29 30  1  0
 29 31  1  0
 29 32  1  0
 32 33  1  0
 32 34  1  0
 32 35  1  0
 35 36  1  0
 35 37  1  0
 37 38  1  0
 37 39  1  0
 37 40  1  0
 40 41  1  0
 40 42  1  0
 40 43  1  0
 23 44  2  0
 44 45  1  0
 45 46  1  0
 45 47  2  0
 47 48  1  0
 47 49  1  0
 49 50  1  0
 49 51  2  0
 51 52  1  0
 51 53  1  0
 53 54  2  0
 54 55  1  0
 55 56  1  0
 55 57  1  0
 55 58  1  0
 22 14  1  0
 53 44  1  0
 54 21  1  0
M  CHG  2  11   1  54   1
M  END
>  <UniqueID>  (13) 
13

>  <SMILES>  (13) 
CCNCCCNc1c2ccccc2[n+](C)c2cccc([NH2+]C/C=N/C)c12

>  <Energy>  (13) 
88.18627969276096

>  <Genealogy>  (13) 
CCNCCCNc1c2ccccc2[n+](C)c2cccc([NH2+]CC=NC)c12 (protonated)
CCNCCCNc1c2ccccc2[n+](C)c2cccc([NH2+]C/C=N/C)c12 (cis-trans isomerization)
CCNCCCNc1c2ccccc2[n+](C)c2cccc([NH2+]C/C=N/C)c12 (3D coordinates assigned)
CCNCCCNc1c2ccccc2[n+](C)c2cccc([NH2+]C/C=N/C)c12 (optimized conformer: 88.18627969276096 kcal/mol)

>  <smiles>  (13) 
CCNCCCNc1c2ccccc2[n+](C)c2cccc(NCC=NC)c12

>  <score_type>  (13) 
oracle

>  <origin>  (13) 
adg

>  <m_score__min__energy>  (13) 
-8.4299999999999997

>  <m_primary>  (13) 
energy

$$$$
13:0
     RDKit          3D

 44 46  0  0  0  0  0  0  0  0999 V2000
   -6.2100   25.3260  -29.5220 C   0  0  0  0  0  0  0  0  0  0  0  0
   -5.3770   25.3160  -30.8010 C   0  0  0  0  0  0  0  0  0  0  0  0
   -3.9430   25.3010  -30.4830 N   0  0  0  0  0  0  0  0  0  0  0  0
   -3.6680   24.5040  -29.2810 C   0  0  0  0  0  0  0  0  0  0  0  0
   -3.4860   23.0330  -29.6600 C   0  0  0  0  0  0  0  0  0  0  0  0
   -2.8110   22.9300  -30.8990 O   0  0  0  0  0  0  0  0  0  0  0  0
   -2.0440   21.7460  -30.9520 C   0  0  0  0  0  0  0  0  0  0  0  0
   -1.5020   21.5360  -32.3660 C   0  0  0  0  0  0  0  0  0  0  0  0
   -2.5870   21.5260  -33.3500 N   0  0  0  0  0  0  0  0  0  0  0  0
   -3.6560   20.5580  -33.3860 C   0  0  0  0  0  0  0  0  0  0  0  0
   -3.4580   19.2390  -33.8380 C   0  0  0  0  0  0  0  0  0  0  0  0
   -4.5190   18.3250  -33.8490 C   0  0  0  0  0  0  0  0  0  0  0  0
   -5.7830   18.7210  -33.4040 C   0  0  0  0  0  0  0  0  0  0  0  0
   -5.9680   19.9980  -32.9600 N   0  0  0  0  0  0  0  0  0  0  0  0
   -4.9440   20.8980  -32.9430 C   0  0  0  0  0  0  0  0  0  0  0  0
   -5.4460   22.4080  -32.3600 S   0  0  0  0  0  0  0  0  0  0  0  0
   -7.0240   21.8790  -32.1190 C   0  0  0  0  0  0  0  0  0  0  0  0
   -8.1040   22.6040  -31.6250 C   0  0  0  0  0  0  0  0  0  0  0  0
   -9.3410   21.9560  -31.5100 C   0  0  0  0  0  0  0  0  0  0  0  0
   -9.4750   20.6070  -31.8870 C   0  0  0  0  0  0  0  0  0  0  0  0
   -8.3730   19.8910  -32.3830 C   0  0  0  0  0  0  0  0  0  0  0  0
   -7.1340   20.5440  -32.4980 C   0  0  0  0  0  0  0  0  0  0  0  0
   -5.5412   25.3180  -28.6487 H   0  0  0  0  0  0  0  0  0  0  0  0
   -6.8338   26.2317  -29.4978 H   0  0  0  0  0  0  0  0  0  0  0  0
   -6.8554   24.4355  -29.4978 H   0  0  0  0  0  0  0  0  0  0  0  0
   -5.6266   24.4199  -31.3882 H   0  0  0  0  0  0  0  0  0  0  0  0
   -5.6030   26.2243  -31.3789 H   0  0  0  0  0  0  0  0  0  0  0  0
   -3.4460   24.8430  -31.2840 H   0  0  0  0  0  0  0  0  0  0  0  0
   -2.7495   24.8731  -28.8013 H   0  0  0  0  0  0  0  0  0  0  0  0
   -4.5147   24.5958  -28.5849 H   0  0  0  0  0  0  0  0  0  0  0  0
   -2.8964   22.5270  -28.8813 H   0  0  0  0  0  0  0  0  0  0  0  0
   -4.4747   22.5590  -29.7482 H   0  0  0  0  0  0  0  0  0  0  0  0
   -1.2028   21.8252  -30.2476 H   0  0  0  0  0  0  0  0  0  0  0  0
   -2.6805   20.8914  -30.6790 H   0  0  0  0  0  0  0  0  0  0  0  0
   -0.8046   22.3514  -32.6083 H   0  0  0  0  0  0  0  0  0  0  0  0
   -0.9879   20.5642  -32.4026 H   0  0  0  0  0  0  0  0  0  0  0  0
   -2.5560   22.2660  -34.0870 H   0  0  0  0  0  0  0  0  0  0  0  0
   -2.4627   18.9244  -34.1849 H   0  0  0  0  0  0  0  0  0  0  0  0
   -4.3577   17.2975  -34.2072 H   0  0  0  0  0  0  0  0  0  0  0  0
   -6.6218   18.0094  -33.4115 H   0  0  0  0  0  0  0  0  0  0  0  0
   -7.9897   23.6582  -31.3324 H   0  0  0  0  0  0  0  0  0  0  0  0
  -10.2121   22.5049  -31.1229 H   0  0  0  0  0  0  0  0  0  0  0  0
  -10.4512   20.1088  -31.7925 H   0  0  0  0  0  0  0  0  0  0  0  0
   -8.4782   18.8362  -32.6767 H   0  0  0  0  0  0  0  0  0  0  0  0
  1  2  1  0
  2  3  1  0
  3  4  1  0
  4  5  1  0
  5  6  1  0
  6  7  1  0
  7  8  1  0
  8  9  1  0
  9 10  1  0
 10 11  2  0
 11 12  1  0
 12 13  2  0
 13 14  1  0
 14 15  2  0
 15 16  1  0
 16 17  1  0
 17 18  2  0
 18 19  1  0
 19 20  2  0
 20 21  1  0
 21 22  2  0
 15 10  1  0
 22 17  1  0
 22 14  1  0
  1 23  1  0
  1 24  1  0
  1 25  1  0
  2 26  1  0
  2 27  1  0
  3 28  1  0
  4 29  1  0
  4 30  1  0
  5 31  1  0
  5 32  1  0
  7 33  1  0
  7 34  1  0
  8 35  1  0
  8 36  1  0
  9 37  1  0
 11 38  1  0
 12 39  1  0
 13 40  1  0
 18 41  1  0
 19 42  1  0
 20 43  1  0
 21 44  1  0
M  CHG  1  14   1
M  END
>  <UniqueID>  (14) 
14

>  <SMILES>  (14) 
CCNCCOCCNc1ccc[n+]2c1sc1ccccc12

>  <Energy>  (14) 
81.29071024753326

>  <Genealogy>  (14) 
CCNCCOCCNc1ccc[n+]2c1sc1ccccc12 (3D coordinates assigned)
CCNCCOCCNc1ccc[n+]2c1sc1ccccc12 (optimized conformer: 81.29071024753326 kcal/mol)

>  <smiles>  (14) 
CCNCCOCCNc1ccc[n+]2c1sc1ccccc12

>  <score_type>  (14) 
oracle

>  <origin>  (14) 
adg

>  <m_score__min__energy>  (14) 
-8.0899999999999999

>  <m_primary>  (14) 
energy

$$$$
14:0
     RDKit          3D

 58 60  0  0  0  0  0  0  0  0999 V2000
   -6.1750   25.4490  -29.6620 C   0  0  0  0  0  0  0  0  0  0  0  0
   -5.2160   25.4860  -30.8420 C   0  0  0  0  0  0  0  0  0  0  0  0
   -4.3300   24.3920  -30.7510 O   0  0  0  0  0  0  0  0  0  0  0  0
   -4.4200   23.8170  -29.4650 C   0  0  0  0  0  0  0  0  0  0  0  0
   -3.1360   23.0540  -29.1650 C   0  0  0  0  0  0  0  0  0  0  0  0
   -2.7040   22.3900  -30.3360 O   0  0  0  0  0  0  0  0  0  0  0  0
   -1.8050   21.3470  -30.0130 C   0  0  0  0  0  0  0  0  0  0  0  0
   -1.3260   20.6500  -31.2870 C   0  0  0  0  0  0  0  0  0  0  0  0
   -1.3750   21.5880  -32.4160 N   0  0  0  0  0  0  0  0  0  0  0  0
   -2.1640   21.0640  -33.5430 C   0  0  0  0  0  0  0  0  0  0  0  0
   -3.6120   21.5890  -33.5450 C   0  0  0  0  0  0  0  0  0  0  0  0
   -4.2010   21.5010  -32.1990 N   0  0  0  0  0  0  0  0  0  0  0  0
   -5.4490   20.7530  -32.2380 C   0  0  0  0  0  0  0  0  0  0  0  0
   -6.6930   21.4100  -32.0420 C   0  0  0  0  0  0  0  0  0  0  0  0
   -6.7640   22.7790  -31.6790 C   0  0  0  0  0  0  0  0  0  0  0  0
   -7.9870   23.4370  -31.5890 C   0  0  0  0  0  0  0  0  0  0  0  0
   -9.1640   22.7580  -31.8630 C   0  0  0  0  0  0  0  0  0  0  0  0
   -9.1310   21.4010  -32.1710 C   0  0  0  0  0  0  0  0  0  0  0  0
   -7.9050   20.6840  -32.2110 C   0  0  0  0  0  0  0  0  0  0  0  0
   -7.8800   19.3200  -32.4150 N   0  0  0  0  0  0  0  0  0  0  0  0
   -9.1280   18.5300  -32.2830 C   0  0  0  0  0  0  0  0  0  0  0  0
   -6.6880   18.6770  -32.6840 C   0  0  0  0  0  0  0  0  0  0  0  0
   -6.6610   17.3300  -33.1310 C   0  0  0  0  0  0  0  0  0  0  0  0
   -5.4580   16.6490  -33.3040 C   0  0  0  0  0  0  0  0  0  0  0  0
   -5.4600   14.9770  -33.8380 Cl  0  0  0  0  0  0  0  0  0  0  0  0
   -4.2550   17.2900  -33.0430 C   0  0  0  0  0  0  0  0  0  0  0  0
   -4.2440   18.6290  -32.6630 C   0  0  0  0  0  0  0  0  0  0  0  0
   -5.4510   19.3620  -32.5270 C   0  0  0  0  0  0  0  0  0  0  0  0
   -5.6022   25.4711  -28.7232 H   0  0  0  0  0  0  0  0  0  0  0  0
   -6.8428   26.3220  -29.7047 H   0  0  0  0  0  0  0  0  0  0  0  0
   -6.7736   24.5271  -29.7047 H   0  0  0  0  0  0  0  0  0  0  0  0
   -5.7850   25.4221  -31.7813 H   0  0  0  0  0  0  0  0  0  0  0  0
   -4.6461   26.4267  -30.8271 H   0  0  0  0  0  0  0  0  0  0  0  0
   -4.5595   24.6107  -28.7163 H   0  0  0  0  0  0  0  0  0  0  0  0
   -5.2762   23.1274  -29.4282 H   0  0  0  0  0  0  0  0  0  0  0  0
   -2.3587   23.7583  -28.8337 H   0  0  0  0  0  0  0  0  0  0  0  0
   -3.3220   22.3168  -28.3701 H   0  0  0  0  0  0  0  0  0  0  0  0
   -0.9386   21.7659  -29.4802 H   0  0  0  0  0  0  0  0  0  0  0  0
   -2.3198   20.6140  -29.3744 H   0  0  0  0  0  0  0  0  0  0  0  0
   -0.2921   20.3019  -31.1461 H   0  0  0  0  0  0  0  0  0  0  0  0
   -1.9805   19.7918  -31.4993 H   0  0  0  0  0  0  0  0  0  0  0  0
   -1.7910   22.4940  -32.0920 H   0  0  0  0  0  0  0  0  0  0  0  0
   -1.6786   21.3647  -34.4832 H   0  0  0  0  0  0  0  0  0  0  0  0
   -2.2058   19.9695  -33.4409 H   0  0  0  0  0  0  0  0  0  0  0  0
   -3.6145   22.6393  -33.8719 H   0  0  0  0  0  0  0  0  0  0  0  0
   -4.2098   20.9729  -34.2328 H   0  0  0  0  0  0  0  0  0  0  0  0
   -3.5240   21.0720  -31.5310 H   0  0  0  0  0  0  0  0  0  0  0  0
   -4.3450   22.4540  -31.8010 H   0  0  0  0  0  0  0  0  0  0  0  0
   -5.8365   23.3303  -31.4649 H   0  0  0  0  0  0  0  0  0  0  0  0
   -8.0197   24.4978  -31.2999 H   0  0  0  0  0  0  0  0  0  0  0  0
  -10.1252   23.2922  -31.8370 H   0  0  0  0  0  0  0  0  0  0  0  0
  -10.0718   20.8737  -32.3875 H   0  0  0  0  0  0  0  0  0  0  0  0
   -9.3586   18.3840  -31.2174 H   0  0  0  0  0  0  0  0  0  0  0  0
   -9.9560   19.0689  -32.7668 H   0  0  0  0  0  0  0  0  0  0  0  0
   -8.9952   17.5511  -32.7668 H   0  0  0  0  0  0  0  0  0  0  0  0
   -7.6085   16.8138  -33.3450 H   0  0  0  0  0  0  0  0  0  0  0  0
   -3.3079   16.7385  -33.1367 H   0  0  0  0  0  0  0  0  0  0  0  0
   -3.2835   19.1271  -32.4648 H   0  0  0  0  0  0  0  0  0  0  0  0
  1  2  1  0
  2  3  1  0
  3  4  1  0
  4  5  1  0
  5  6  1  0
  6  7  1  0
  7  8  1  0
  8  9  1  0
  9 10  1  0
 10 11  1  0
 11 12  1  0
 12 13  1  0
 13 14  2  0
 14 15  1  0
 15 16  2  0
 16 17  1  0
 17 18  2  0
 18 19  1  0
 19 20  2  0
 20 21  1  0
 20 22  1  0
 22 23  2  0
 23 24  1  0
 24 25  1  0
 24 26  2  0
 26 27  1  0
 27 28  2  0
 28 13  1  0
 19 14  1  0
 28 22  1  0
  1 29  1  0
  1 30  1  0
  1 31  1  0
  2 32  1  0
  2 33  1  0
  4 34  1  0
  4 35  1  0
  5 36  1  0
  5 37  1  0
  7 38  1  0
  7 39  1  0
  8 40  1  0
  8 41  1  0
  9 42  1  0
 10 43  1  0
 10 44  1  0
 11 45  1  0
 11 46  1  0
 12 47  1  0
 12 48  1  0
 15 49  1  0
 16 50  1  0
 17 51  1  0
 18 52  1  0
 21 53  1  0
 21 54  1  0
 21 55  1  0
 23 56  1  0
 26 57  1  0
 27 58  1  0
M  CHG  2  12   1  20   1
M  END
>  <UniqueID>  (15) 
15

>  <SMILES>  (15) 
CCOCCOCCNCC[NH2+]c1c2ccccc2[n+](C)c2cc(Cl)ccc12

>  <Energy>  (15) 
81.60307110069063

>  <Genealogy>  (15) 
CCOCCOCCNCC[NH2+]c1c2ccccc2[n+](C)c2cc(Cl)ccc12 (protonated)
CCOCCOCCNCC[NH2+]c1c2ccccc2[n+](C)c2cc(Cl)ccc12 (3D coordinates assigned)
CCOCCOCCNCC[NH2+]c1c2ccccc2[n+](C)c2cc(Cl)ccc12 (optimized conformer: 81.60307110069063 kcal/mol)

>  <smiles>  (15) 
CCOCCOCCNCCNc1c2ccccc2[n+](C)c2cc(Cl)ccc12

>  <score_type>  (15) 
oracle

>  <origin>  (15) 
adg

>  <m_score__min__energy>  (15) 
-8.7400000000000002

>  <m_primary>  (15) 
energy

$$$$
15:0
     RDKit          3D

 65 67  0  0  0  0  0  0  0  0999 V2000
   -4.2130   24.5180  -27.1880 C   0  0  0  0  0  0  0  0  0  0  0  0
   -3.8800   23.2600  -27.9830 C   0  0  0  0  0  0  0  0  0  0  0  0
   -3.4200   23.6300  -29.3420 N   0  0  0  0  0  0  0  0  0  0  0  0
   -2.0600   24.2150  -29.3340 C   0  0  0  0  0  0  0  0  0  0  0  0
   -1.2540   23.7780  -28.1100 C   0  0  0  0  0  0  0  0  0  0  0  0
   -4.4330   24.4160  -30.0920 C   0  0  0  0  0  0  0  0  0  0  0  0
   -5.2700   23.5880  -31.0860 C   0  0  0  0  0  0  0  0  0  0  0  0
   -4.9530   22.1670  -30.9510 N   0  0  0  0  0  0  0  0  0  0  0  0
   -5.5470   21.2150  -31.8480 C   0  0  0  0  0  0  0  0  0  0  0  0
   -6.9450   21.0750  -31.8760 C   0  0  0  0  0  0  0  0  0  0  0  0
   -7.7900   22.0750  -31.3490 C   0  0  0  0  0  0  0  0  0  0  0  0
   -9.1750   21.9480  -31.4220 C   0  0  0  0  0  0  0  0  0  0  0  0
   -9.7400   20.8310  -32.0270 C   0  0  0  0  0  0  0  0  0  0  0  0
   -8.9240   19.8200  -32.5310 C   0  0  0  0  0  0  0  0  0  0  0  0
   -7.5120   19.9010  -32.4310 C   0  0  0  0  0  0  0  0  0  0  0  0
   -6.6920   18.8680  -32.8350 N   0  0  0  0  0  0  0  0  0  0  0  0
   -7.2600   17.5180  -33.0530 C   0  0  0  0  0  0  0  0  0  0  0  0
   -5.3390   19.0920  -33.0200 C   0  0  0  0  0  0  0  0  0  0  0  0
   -4.5210   18.1360  -33.6700 C   0  0  0  0  0  0  0  0  0  0  0  0
   -3.1600   18.3500  -33.8420 C   0  0  0  0  0  0  0  0  0  0  0  0
   -2.5880   19.5500  -33.4510 C   0  0  0  0  0  0  0  0  0  0  0  0
   -3.3640   20.5630  -32.8710 C   0  0  0  0  0  0  0  0  0  0  0  0
   -2.6980   21.9230  -32.7410 C   0  0  0  0  0  0  0  0  0  0  0  0
   -2.0650   22.0940  -31.4210 N   0  0  0  0  0  0  0  0  0  0  0  0
   -0.9610   21.1430  -31.2060 C   0  0  0  0  0  0  0  0  0  0  0  0
   -0.5720   21.0050  -29.7250 C   0  0  0  0  0  0  0  0  0  0  0  0
   -1.6720   20.3400  -28.8910 C   0  0  0  0  0  0  0  0  0  0  0  0
   -2.9860   20.6880  -29.4230 N   0  0  0  0  0  0  0  0  0  0  0  0
   -4.7400   20.3070  -32.5690 C   0  0  0  0  0  0  0  0  0  0  0  0
   -4.1547   24.2978  -26.1118 H   0  0  0  0  0  0  0  0  0  0  0  0
   -3.4940   25.3116  -27.4393 H   0  0  0  0  0  0  0  0  0  0  0  0
   -5.2305   24.8520  -27.4393 H   0  0  0  0  0  0  0  0  0  0  0  0
   -3.0840   22.7027  -27.4675 H   0  0  0  0  0  0  0  0  0  0  0  0
   -4.7803   22.6331  -28.0633 H   0  0  0  0  0  0  0  0  0  0  0  0
   -1.5295   23.8922  -30.2420 H   0  0  0  0  0  0  0  0  0  0  0  0
   -2.1619   25.3097  -29.2998 H   0  0  0  0  0  0  0  0  0  0  0  0
   -1.7905   24.0689  -27.1948 H   0  0  0  0  0  0  0  0  0  0  0  0
   -1.1240   22.6858  -28.1274 H   0  0  0  0  0  0  0  0  0  0  0  0
   -0.2678   24.2650  -28.1274 H   0  0  0  0  0  0  0  0  0  0  0  0
   -5.1181   24.8772  -29.3654 H   0  0  0  0  0  0  0  0  0  0  0  0
   -3.8791   25.1567  -30.6874 H   0  0  0  0  0  0  0  0  0  0  0  0
   -6.3390   23.7432  -30.8785 H   0  0  0  0  0  0  0  0  0  0  0  0
   -5.0356   23.9126  -32.1106 H   0  0  0  0  0  0  0  0  0  0  0  0
   -4.0860   21.8990  -30.4340 H   0  0  0  0  0  0  0  0  0  0  0  0
   -7.3497   22.9648  -30.8752 H   0  0  0  0  0  0  0  0  0  0  0  0
   -9.8220   22.7316  -31.0009 H   0  0  0  0  0  0  0  0  0  0  0  0
  -10.8336   20.7451  -32.1080 H   0  0  0  0  0  0  0  0  0  0  0  0
   -9.3828   18.9448  -33.0143 H   0  0  0  0  0  0  0  0  0  0  0  0
   -7.4599   17.0430  -32.0812 H   0  0  0  0  0  0  0  0  0  0  0  0
   -8.1989   17.6024  -33.6199 H   0  0  0  0  0  0  0  0  0  0  0  0
   -6.5432   16.9058  -33.6199 H   0  0  0  0  0  0  0  0  0  0  0  0
   -4.9726   17.2060  -34.0458 H   0  0  0  0  0  0  0  0  0  0  0  0
   -2.5338   17.5644  -34.2901 H   0  0  0  0  0  0  0  0  0  0  0  0
   -1.5096   19.7099  -33.5979 H   0  0  0  0  0  0  0  0  0  0  0  0
   -1.9284   22.0195  -33.5210 H   0  0  0  0  0  0  0  0  0  0  0  0
   -3.4716   22.6968  -32.8541 H   0  0  0  0  0  0  0  0  0  0  0  0
   -2.7740   21.8960  -30.6770 H   0  0  0  0  0  0  0  0  0  0  0  0
   -1.2693   20.1562  -31.5816 H   0  0  0  0  0  0  0  0  0  0  0  0
   -0.0826   21.5289  -31.7441 H   0  0  0  0  0  0  0  0  0  0  0  0
    0.3412   20.3958  -29.6550 H   0  0  0  0  0  0  0  0  0  0  0  0
   -0.4134   22.0171  -29.3245 H   0  0  0  0  0  0  0  0  0  0  0  0
   -1.5437   19.2480  -28.9245 H   0  0  0  0  0  0  0  0  0  0  0  0
   -1.5994   20.6943  -27.8522 H   0  0  0  0  0  0  0  0  0  0  0  0
   -3.0150   20.3850  -30.4230 H   0  0  0  0  0  0  0  0  0  0  0  0
   -3.0710   21.7300  -29.4260 H   0  0  0  0  0  0  0  0  0  0  0  0
  1  2  1  0
  2  3  1  0
  3  4  1  0
  4  5  1  0
  3  6  1  0
  6  7  1  0
  7  8  1  0
  8  9  1  0
  9 10  2  0
 10 11  1  0
 11 12  2  0
 12 13  1  0
 13 14  2  0
 14 15  1  0
 15 16  2  0
 16 17  1  0
 16 18  1  0
 18 19  2  0
 19 20  1  0
 20 21  2  0
 21 22  1  0
 22 23  1  0
 23 24  1  0
 24 25  1  0
 25 26  1  0
 26 27  1  0
 27 28  1  0
 22 29  2  0
 29  9  1  0
 15 10  1  0
 29 18  1  0
  1 30  1  0
  1 31  1  0
  1 32  1  0
  2 33  1  0
  2 34  1  0
  4 35  1  0
  4 36  1  0
  5 37  1  0
  5 38  1  0
  5 39  1  0
  6 40  1  0
  6 41  1  0
  7 42  1  0
  7 43  1  0
  8 44  1  0
 11 45  1  0
 12 46  1  0
 13 47  1  0
 14 48  1  0
 17 49  1  0
 17 50  1  0
 17 51  1  0
 19 52  1  0
 20 53  1  0
 21 54  1  0
 23 55  1  0
 23 56  1  0
 24 57  1  0
 25 58  1  0
 25 59  1  0
 26 60  1  0
 26 61  1  0
 27 62  1  0
 27 63  1  0
 28 64  1  0
 28 65  1  0
M  CHG  1  16   1
M  END
>  <UniqueID>  (16) 
16

>  <SMILES>  (16) 
CCN(CC)CCNc1c2ccccc2[n+](C)c2cccc(CNCCCN)c12

>  <Energy>  (16) 
96.47757381748622

>  <Genealogy>  (16) 
CCN(CC)CCNc1c2ccccc2[n+](C)c2cccc(CNCCCN)c12 (3D coordinates assigned)
CCN(CC)CCNc1c2ccccc2[n+](C)c2cccc(CNCCCN)c12 (optimized conformer: 96.47757381748622 kcal/mol)

>  <smiles>  (16) 
CCN(CC)CCNc1c2ccccc2[n+](C)c2cccc(CNCCCN)c12

>  <score_type>  (16) 
oracle

>  <origin>  (16) 
adg

>  <m_score__min__energy>  (16) 
-8.4900000000000002

>  <m_primary>  (16) 
energy

$$$$
16:0
     RDKit          3D

 31 31  0  0  0  0  0  0  0  0999 V2000
   -0.8620   26.4370  -27.8100 C   0  0  0  0  0  0  0  0  0  0  0  0
   -1.5090   25.9270  -28.9560 O   0  0  0  0  0  0  0  0  0  0  0  0
   -1.4330   24.5150  -28.9730 C   0  0  0  0  0  0  0  0  0  0  0  0
   -2.6490   23.9300  -29.6320 C   0  0  0  0  0  0  0  0  0  0  0  0
   -3.8760   24.4680  -29.5610 N   0  0  0  0  0  0  0  0  0  0  0  0
   -4.6640   23.6620  -30.3030 C   0  0  0  0  0  0  0  0  0  0  0  0
   -6.1500   23.8980  -30.5090 C   0  0  0  0  0  0  0  0  0  0  0  0
   -6.5200   25.2980  -29.9850 C   0  0  0  0  0  0  0  0  0  0  0  0
   -6.9830   22.8430  -29.7520 C   0  0  0  0  0  0  0  0  0  0  0  0
   -6.4740   23.8050  -32.0120 C   0  0  0  0  0  0  0  0  0  0  0  0
   -3.9830   22.6260  -30.8500 N   0  0  0  0  0  0  0  0  0  0  0  0
   -2.7150   22.8020  -30.4260 C   0  0  0  0  0  0  0  0  0  0  0  0
   -1.5870   21.8890  -30.7790 C   0  0  0  0  0  0  0  0  0  0  0  0
   -1.3552   26.0482  -26.9069 H   0  0  0  0  0  0  0  0  0  0  0  0
    0.1927   26.1248  -27.8150 H   0  0  0  0  0  0  0  0  0  0  0  0
   -0.9193   27.5355  -27.8150 H   0  0  0  0  0  0  0  0  0  0  0  0
   -0.5360   24.2076  -29.5306 H   0  0  0  0  0  0  0  0  0  0  0  0
   -1.3797   24.1494  -27.9369 H   0  0  0  0  0  0  0  0  0  0  0  0
   -4.1520   25.3340  -29.0440 H   0  0  0  0  0  0  0  0  0  0  0  0
   -6.5179   25.2902  -28.8850 H   0  0  0  0  0  0  0  0  0  0  0  0
   -5.7849   26.0314  -30.3478 H   0  0  0  0  0  0  0  0  0  0  0  0
   -7.5215   25.5724  -30.3478 H   0  0  0  0  0  0  0  0  0  0  0  0
   -6.8656   22.9917  -28.6684 H   0  0  0  0  0  0  0  0  0  0  0  0
   -8.0436   22.9491  -30.0239 H   0  0  0  0  0  0  0  0  0  0  0  0
   -6.6338   21.8360  -30.0239 H   0  0  0  0  0  0  0  0  0  0  0  0
   -7.5238   23.5037  -32.1428 H   0  0  0  0  0  0  0  0  0  0  0  0
   -6.3126   24.7857  -32.4833 H   0  0  0  0  0  0  0  0  0  0  0  0
   -5.8170   23.0592  -32.4833 H   0  0  0  0  0  0  0  0  0  0  0  0
   -1.1195   21.5106  -29.8580 H   0  0  0  0  0  0  0  0  0  0  0  0
   -1.9704   21.0438  -31.3695 H   0  0  0  0  0  0  0  0  0  0  0  0
   -0.8403   22.4401  -31.3695 H   0  0  0  0  0  0  0  0  0  0  0  0
  1  2  1  0
  2  3  1  0
  3  4  1  0
  4  5  1  0
  5  6  1  0
  6  7  1  0
  7  8  1  0
  7  9  1  0
  7 10  1  0
  6 11  2  0
 11 12  1  0
 12 13  1  0
 12  4  2  0
  1 14  1  0
  1 15  1  0
  1 16  1  0
  3 17  1  0
  3 18  1  0
  5 19  1  0
  8 20  1  0
  8 21  1  0
  8 22  1  0
  9 23  1  0
  9 24  1  0
  9 25  1  0
 10 26  1  0
 10 27  1  0
 10 28  1  0
 13 29  1  0
 13 30  1  0
 13 31  1  0
M  END
>  <UniqueID>  (17) 
17

>  <SMILES>  (17) 
COCc1[nH]c(C(C)(C)C)nc1C

>  <Energy>  (17) 
52.20752321433538

>  <Genealogy>  (17) 
COCc1[nH]c(C(C)(C)C)nc1C (3D coordinates assigned)
COCc1[nH]c(C(C)(C)C)nc1C (optimized conformer: 52.20752321433538 kcal/mol)

>  <smiles>  (17) 
COCc1[nH]c(C(C)(C)C)nc1C

>  <score_type>  (17) 
oracle

>  <origin>  (17) 
adg

>  <m_score__min__energy>  (17) 
-5.3899999999999997

>  <m_primary>  (17) 
energy

$$$$
17:0
     RDKit          3D

 72 74  0  0  0  0  0  0  0  0999 V2000
   -6.1780   17.3530  -31.6480 C   0  0  0  0  0  0  0  0  0  0  0  0
   -7.4840   17.9070  -32.2100 C   0  0  0  0  0  0  0  0  0  0  0  0
   -7.7670   19.2370  -31.6250 N   0  0  0  0  0  0  0  0  0  0  0  0
   -9.0620   19.7700  -32.1090 C   0  0  0  0  0  0  0  0  0  0  0  0
   -9.0940   21.2900  -31.9720 C   0  0  0  0  0  0  0  0  0  0  0  0
   -6.6630   20.1880  -31.8930 C   0  0  0  0  0  0  0  0  0  0  0  0
   -6.2330   20.0940  -33.3580 C   0  0  0  0  0  0  0  0  0  0  0  0
   -4.9910   20.8360  -33.5760 N   0  0  0  0  0  0  0  0  0  0  0  0
   -3.8250   20.5960  -32.7690 C   0  0  0  0  0  0  0  0  0  0  0  0
   -3.0840   19.4110  -32.9320 C   0  0  0  0  0  0  0  0  0  0  0  0
   -3.4790   18.4330  -33.8710 C   0  0  0  0  0  0  0  0  0  0  0  0
   -2.7070   17.2930  -34.0810 C   0  0  0  0  0  0  0  0  0  0  0  0
   -1.5250   17.1150  -33.3740 C   0  0  0  0  0  0  0  0  0  0  0  0
   -1.1220   18.0590  -32.4300 C   0  0  0  0  0  0  0  0  0  0  0  0
   -1.9100   19.2080  -32.1590 C   0  0  0  0  0  0  0  0  0  0  0  0
   -1.5470   20.1270  -31.1920 N   0  0  0  0  0  0  0  0  0  0  0  0
   -0.5010   19.7800  -30.2020 C   0  0  0  0  0  0  0  0  0  0  0  0
   -2.1880   21.3500  -31.1210 C   0  0  0  0  0  0  0  0  0  0  0  0
   -1.6840   22.4110  -30.3280 C   0  0  0  0  0  0  0  0  0  0  0  0
   -2.3790   23.6260  -30.1860 C   0  0  0  0  0  0  0  0  0  0  0  0
   -1.8530   24.6980  -29.3720 N   0  0  0  0  0  0  0  0  0  0  0  0
   -1.1190   24.4790  -28.1210 C   0  0  0  0  0  0  0  0  0  0  0  0
   -1.9690   23.7260  -27.0890 C   0  0  0  0  0  0  0  0  0  0  0  0
   -1.3880   22.3250  -26.7880 C   0  0  0  0  0  0  0  0  0  0  0  0
   -2.0700   21.2180  -27.4960 N   0  0  0  0  0  0  0  0  0  0  0  0
   -3.4730   21.5170  -27.8160 C   0  0  0  0  0  0  0  0  0  0  0  0
   -1.9440   19.9290  -26.7980 C   0  0  0  0  0  0  0  0  0  0  0  0
   -3.6080   23.7940  -30.8450 C   0  0  0  0  0  0  0  0  0  0  0  0
   -4.3150   24.9970  -30.6680 O   0  0  0  0  0  0  0  0  0  0  0  0
   -5.6180   25.1000  -30.1040 C   0  0  0  0  0  0  0  0  0  0  0  0
   -4.0930   22.7720  -31.6740 C   0  0  0  0  0  0  0  0  0  0  0  0
   -3.3720   21.5760  -31.8630 C   0  0  0  0  0  0  0  0  0  0  0  0
   -6.2158   17.3690  -30.5488 H   0  0  0  0  0  0  0  0  0  0  0  0
   -6.0391   16.3185  -31.9950 H   0  0  0  0  0  0  0  0  0  0  0  0
   -5.3376   17.9721  -31.9950 H   0  0  0  0  0  0  0  0  0  0  0  0
   -7.3988   18.0010  -33.3027 H   0  0  0  0  0  0  0  0  0  0  0  0
   -8.3049   17.2203  -31.9558 H   0  0  0  0  0  0  0  0  0  0  0  0
   -9.1937   19.4982  -33.1667 H   0  0  0  0  0  0  0  0  0  0  0  0
   -9.8743   19.3392  -31.5051 H   0  0  0  0  0  0  0  0  0  0  0  0
   -9.0997   21.5620  -30.9062 H   0  0  0  0  0  0  0  0  0  0  0  0
   -8.2047   21.7205  -32.4555 H   0  0  0  0  0  0  0  0  0  0  0  0
  -10.0006   21.6827  -32.4555 H   0  0  0  0  0  0  0  0  0  0  0  0
   -7.0043   21.2115  -31.6789 H   0  0  0  0  0  0  0  0  0  0  0  0
   -5.8070   19.9369  -31.2494 H   0  0  0  0  0  0  0  0  0  0  0  0
   -6.0748   19.0379  -33.6218 H   0  0  0  0  0  0  0  0  0  0  0  0
   -7.0224   20.5283  -33.9891 H   0  0  0  0  0  0  0  0  0  0  0  0
   -5.0380   21.7150  -34.1410 H   0  0  0  0  0  0  0  0  0  0  0  0
   -4.4077   18.5733  -34.4435 H   0  0  0  0  0  0  0  0  0  0  0  0
   -3.0335   16.5336  -34.8068 H   0  0  0  0  0  0  0  0  0  0  0  0
   -0.9043   16.2260  -33.5593 H   0  0  0  0  0  0  0  0  0  0  0  0
   -0.1774   17.9106  -31.8862 H   0  0  0  0  0  0  0  0  0  0  0  0
   -0.8999   19.9123  -29.1855 H   0  0  0  0  0  0  0  0  0  0  0  0
   -0.1960   18.7325  -30.3427 H   0  0  0  0  0  0  0  0  0  0  0  0
    0.3696   20.4375  -30.3427 H   0  0  0  0  0  0  0  0  0  0  0  0
   -0.7228   22.2809  -29.8092 H   0  0  0  0  0  0  0  0  0  0  0  0
   -1.9950   25.6830  -29.6920 H   0  0  0  0  0  0  0  0  0  0  0  0
   -0.2152   23.8902  -28.3363 H   0  0  0  0  0  0  0  0  0  0  0  0
   -0.8584   25.4612  -27.6998 H   0  0  0  0  0  0  0  0  0  0  0  0
   -1.9977   24.3087  -26.1564 H   0  0  0  0  0  0  0  0  0  0  0  0
   -2.9801   23.5980  -27.5029 H   0  0  0  0  0  0  0  0  0  0  0  0
   -0.3281   22.3210  -27.0823 H   0  0  0  0  0  0  0  0  0  0  0  0
   -1.5335   22.1480  -25.7121 H   0  0  0  0  0  0  0  0  0  0  0  0
   -4.0438   21.6387  -26.8836 H   0  0  0  0  0  0  0  0  0  0  0  0
   -3.5254   22.4465  -28.4019 H   0  0  0  0  0  0  0  0  0  0  0  0
   -3.8998   20.6896  -28.4019 H   0  0  0  0  0  0  0  0  0  0  0  0
   -1.9605   20.0974  -25.7111 H   0  0  0  0  0  0  0  0  0  0  0  0
   -2.7825   19.2755  -27.0805 H   0  0  0  0  0  0  0  0  0  0  0  0
   -0.9948   19.4503  -27.0805 H   0  0  0  0  0  0  0  0  0  0  0  0
   -5.5440   25.0942  -29.0065 H   0  0  0  0  0  0  0  0  0  0  0  0
   -6.0876   26.0381  -30.4348 H   0  0  0  0  0  0  0  0  0  0  0  0
   -6.2292   24.2474  -30.4348 H   0  0  0  0  0  0  0  0  0  0  0  0
   -5.0564   22.9068  -32.1875 H   0  0  0  0  0  0  0  0  0  0  0  0
  1  2  1  0
  2  3  1  0
  3  4  1  0
  4  5  1  0
  3  6  1  0
  6  7  1  0
  7  8  1  0
  8  9  1  0
  9 10  2  0
 10 11  1  0
 11 12  2  0
 12 13  1  0
 13 14  2  0
 14 15  1  0
 15 16  2  0
 16 17  1  0
 16 18  1  0
 18 19  2  0
 19 20  1  0
 20 21  1  0
 21 22  1  0
 22 23  1  0
 23 24  1  0
 24 25  1  0
 25 26  1  0
 25 27  1  0
 20 28  2  0
 28 29  1  0
 29 30  1  0
 28 31  1  0
 31 32  2  0
 32  9  1  0
 15 10  1  0
 32 18  1  0
  1 33  1  0
  1 34  1  0
  1 35  1  0
  2 36  1  0
  2 37  1  0
  4 38  1  0
  4 39  1  0
  5 40  1  0
  5 41  1  0
  5 42  1  0
  6 43  1  0
  6 44  1  0
  7 45  1  0
  7 46  1  0
  8 47  1  0
 11 48  1  0
 12 49  1  0
 13 50  1  0
 14 51  1  0
 17 52  1  0
 17 53  1  0
 17 54  1  0
 19 55  1  0
 21 56  1  0
 22 57  1  0
 22 58  1  0
 23 59  1  0
 23 60  1  0
 24 61  1  0
 24 62  1  0
 26 63  1  0
 26 64  1  0
 26 65  1  0
 27 66  1  0
 27 67  1  0
 27 68  1  0
 30 69  1  0
 30 70  1  0
 30 71  1  0
 31 72  1  0
M  CHG  1  16   1
M  END
>  <UniqueID>  (18) 
18

>  <SMILES>  (18) 
CCN(CC)CCNc1c2ccccc2[n+](C)c2cc(NCCCN(C)C)c(OC)cc12

>  <Energy>  (18) 
95.30393712390489

>  <Genealogy>  (18) 
CCN(CC)CCNc1c2ccccc2[n+](C)c2cc(NCCCN(C)C)c(OC)cc12 (3D coordinates assigned)
CCN(CC)CCNc1c2ccccc2[n+](C)c2cc(NCCCN(C)C)c(OC)cc12 (optimized conformer: 95.30393712390489 kcal/mol)

>  <smiles>  (18) 
CCN(CC)CCNc1c2ccccc2[n+](C)c2cc(NCCCN(C)C)c(OC)cc12

>  <score_type>  (18) 
oracle

>  <origin>  (18) 
adg

>  <m_score__min__energy>  (18) 
-8.3100000000000005

>  <m_primary>  (18) 
energy

$$$$
18:0
     RDKit          3D

 39 41  0  0  0  0  0  0  0  0999 V2000
   -3.8680   24.1090  -27.4730 C   0  0  0  0  0  0  0  0  0  0  0  0
   -4.5390   24.0000  -28.8450 C   0  0  0  0  0  0  0  0  0  0  0  0
   -5.6970   24.9040  -28.9680 N   0  0  0  0  0  0  0  0  0  0  0  0
   -6.2780   24.9150  -30.3310 C   0  0  0  0  0  0  0  0  0  0  0  0
   -5.3680   24.2500  -31.3770 C   0  0  0  0  0  0  0  0  0  0  0  0
   -6.1500   23.6300  -32.4500 N   0  0  0  0  0  0  0  0  0  0  0  0
   -6.9510   22.4440  -32.2880 C   0  0  0  0  0  0  0  0  0  0  0  0
   -8.2830   22.5290  -31.7960 C   0  0  0  0  0  0  0  0  0  0  0  0
   -9.0690   21.3720  -31.6170 C   0  0  0  0  0  0  0  0  0  0  0  0
   -8.5100   20.1330  -31.9220 C   0  0  0  0  0  0  0  0  0  0  0  0
   -7.2340   20.0550  -32.3770 C   0  0  0  0  0  0  0  0  0  0  0  0
   -6.8570   18.7750  -32.6310 C   0  0  0  0  0  0  0  0  0  0  0  0
   -5.5800   18.5050  -33.1260 C   0  0  0  0  0  0  0  0  0  0  0  0
   -4.7060   19.5880  -33.3540 C   0  0  0  0  0  0  0  0  0  0  0  0
   -5.1160   20.9140  -33.0850 C   0  0  0  0  0  0  0  0  0  0  0  0
   -6.4120   21.1620  -32.5770 C   0  0  0  0  0  0  0  0  0  0  0  0
   -7.9750   17.8300  -32.3200 C   0  0  0  0  0  0  0  0  0  0  0  0
   -9.1160   18.7670  -31.8300 C   0  0  0  0  0  0  0  0  0  0  0  0
   -4.6246   23.9861  -26.6840 H   0  0  0  0  0  0  0  0  0  0  0  0
   -3.1047   23.3231  -27.3747 H   0  0  0  0  0  0  0  0  0  0  0  0
   -3.3927   25.0961  -27.3747 H   0  0  0  0  0  0  0  0  0  0  0  0
   -3.8035   24.2577  -29.6213 H   0  0  0  0  0  0  0  0  0  0  0  0
   -4.9000   22.9679  -28.9651 H   0  0  0  0  0  0  0  0  0  0  0  0
   -6.4350   24.6170  -28.2800 H   0  0  0  0  0  0  0  0  0  0  0  0
   -5.3990   25.8650  -28.6810 H   0  0  0  0  0  0  0  0  0  0  0  0
   -7.2370   24.3767  -30.3077 H   0  0  0  0  0  0  0  0  0  0  0  0
   -6.4049   25.9670  -30.6263 H   0  0  0  0  0  0  0  0  0  0  0  0
   -4.7058   25.0131  -31.8119 H   0  0  0  0  0  0  0  0  0  0  0  0
   -4.7829   23.4641  -30.8769 H   0  0  0  0  0  0  0  0  0  0  0  0
   -6.1540   24.1170  -33.3730 H   0  0  0  0  0  0  0  0  0  0  0  0
   -8.7071   23.5140  -31.5510 H   0  0  0  0  0  0  0  0  0  0  0  0
  -10.1014   21.4462  -31.2445 H   0  0  0  0  0  0  0  0  0  0  0  0
   -5.2631   17.4722  -33.3332 H   0  0  0  0  0  0  0  0  0  0  0  0
   -3.6953   19.3992  -33.7450 H   0  0  0  0  0  0  0  0  0  0  0  0
   -4.4277   21.7517  -33.2707 H   0  0  0  0  0  0  0  0  0  0  0  0
   -8.2813   17.2739  -33.2183 H   0  0  0  0  0  0  0  0  0  0  0  0
   -7.6977   17.0675  -31.5772 H   0  0  0  0  0  0  0  0  0  0  0  0
   -9.9994   18.6841  -32.4802 H   0  0  0  0  0  0  0  0  0  0  0  0
   -9.4669   18.5213  -30.8169 H   0  0  0  0  0  0  0  0  0  0  0  0
  1  2  1  0
  2  3  1  0
  3  4  1  0
  4  5  1  0
  5  6  1  0
  6  7  1  0
  7  8  2  0
  8  9  1  0
  9 10  2  0
 10 11  1  0
 11 12  2  0
 12 13  1  0
 13 14  2  0
 14 15  1  0
 15 16  2  0
 12 17  1  0
 17 18  1  0
 16  7  1  0
 18 10  1  0
 16 11  1  0
  1 19  1  0
  1 20  1  0
  1 21  1  0
  2 22  1  0
  2 23  1  0
  3 24  1  0
  3 25  1  0
  4 26  1  0
  4 27  1  0
  5 28  1  0
  5 29  1  0
  6 30  1  0
  8 31  1  0
  9 32  1  0
 13 33  1  0
 14 34  1  0
 15 35  1  0
 17 36  1  0
 17 37  1  0
 18 38  1  0
 18 39  1  0
M  CHG  1   3   1
M  END
>  <UniqueID>  (19) 
19

>  <SMILES>  (19) 
CC[NH2+]CCNc1ccc2c3c(cccc13)CC2

>  <Energy>  (19) 
62.50547570132274

>  <Genealogy>  (19) 
CC[NH2+]CCNc1ccc2c3c(cccc13)CC2 (protonated)
CC[NH2+]CCNc1ccc2c3c(cccc13)CC2 (3D coordinates assigned)
CC[NH2+]CCNc1ccc2c3c(cccc13)CC2 (nonaromatic ring conformer: 62.50547570132274 kcal/mol)

>  <smiles>  (19) 
CCNCCNc1ccc2c3c(cccc13)CC2

>  <score_type>  (19) 
oracle

>  <origin>  (19) 
adg

>  <m_score__min__energy>  (19) 
-7.54

>  <m_primary>  (19) 
energy

$$$$
19:0
     RDKit          3D

 56 59  0  0  0  0  0  0  0  0999 V2000
   -2.4090   25.0050  -26.7190 C   0  0  0  0  0  0  0  0  0  0  0  0
   -1.3940   25.7220  -27.6020 C   0  0  0  0  0  0  0  0  0  0  0  0
   -1.7080   25.5410  -28.9830 O   0  0  0  0  0  0  0  0  0  0  0  0
   -2.5630   24.5570  -29.5060 C   0  0  0  0  0  0  0  0  0  0  0  0
   -3.8790   24.9210  -29.8110 C   0  0  0  0  0  0  0  0  0  0  0  0
   -4.7760   23.9860  -30.3330 C   0  0  0  0  0  0  0  0  0  0  0  0
   -4.3710   22.6580  -30.5560 C   0  0  0  0  0  0  0  0  0  0  0  0
   -5.3230   21.6620  -31.1120 C   0  0  0  0  0  0  0  0  0  0  0  0
   -4.8640   20.4100  -31.5530 C   0  0  0  0  0  0  0  0  0  0  0  0
   -5.7540   19.4560  -32.0840 C   0  0  0  0  0  0  0  0  0  0  0  0
   -5.3080   18.2010  -32.5300 O   0  0  0  0  0  0  0  0  0  0  0  0
   -5.1620   17.8240  -33.8970 C   0  0  0  0  0  0  0  0  0  0  0  0
   -3.6920   17.9840  -34.3340 C   0  0  0  0  0  0  0  0  0  0  0  0
   -2.8470   18.8110  -33.4330 N   0  0  0  0  0  0  0  0  0  0  0  0
   -1.5320   18.2060  -33.1350 C   0  0  0  0  0  0  0  0  0  0  0  0
   -0.7750   19.0530  -32.0850 C   0  0  0  0  0  0  0  0  0  0  0  0
   -1.3330   20.3440  -31.9090 O   0  0  0  0  0  0  0  0  0  0  0  0
   -1.5720   20.9440  -33.1670 C   0  0  0  0  0  0  0  0  0  0  0  0
   -2.6970   20.2030  -33.9190 C   0  0  0  0  0  0  0  0  0  0  0  0
   -7.1260   19.7660  -32.1700 C   0  0  0  0  0  0  0  0  0  0  0  0
   -8.0470   18.8400  -32.6990 C   0  0  0  0  0  0  0  0  0  0  0  0
   -9.4040   19.1630  -32.7810 C   0  0  0  0  0  0  0  0  0  0  0  0
   -9.8590   20.4080  -32.3430 C   0  0  0  0  0  0  0  0  0  0  0  0
   -8.9590   21.3380  -31.8160 C   0  0  0  0  0  0  0  0  0  0  0  0
   -7.5930   21.0270  -31.7250 C   0  0  0  0  0  0  0  0  0  0  0  0
   -6.6900   21.9620  -31.2010 C   0  0  0  0  0  0  0  0  0  0  0  0
   -3.0510   22.2900  -30.2440 C   0  0  0  0  0  0  0  0  0  0  0  0
   -2.1550   23.2280  -29.7240 C   0  0  0  0  0  0  0  0  0  0  0  0
   -2.1625   25.1791  -25.6612 H   0  0  0  0  0  0  0  0  0  0  0  0
   -3.4166   25.3928  -26.9293 H   0  0  0  0  0  0  0  0  0  0  0  0
   -2.3802   23.9257  -26.9293 H   0  0  0  0  0  0  0  0  0  0  0  0
   -1.4065   26.7965  -27.3669 H   0  0  0  0  0  0  0  0  0  0  0  0
   -0.3968   25.2999  -27.4083 H   0  0  0  0  0  0  0  0  0  0  0  0
   -4.2111   25.9553  -29.6378 H   0  0  0  0  0  0  0  0  0  0  0  0
   -5.8058   24.2905  -30.5711 H   0  0  0  0  0  0  0  0  0  0  0  0
   -3.7927   20.1707  -31.4826 H   0  0  0  0  0  0  0  0  0  0  0  0
   -5.4663   16.7741  -34.0198 H   0  0  0  0  0  0  0  0  0  0  0  0
   -5.7964   18.4716  -34.5199 H   0  0  0  0  0  0  0  0  0  0  0  0
   -3.2443   16.9810  -34.3937 H   0  0  0  0  0  0  0  0  0  0  0  0
   -3.7175   18.5138  -35.2977 H   0  0  0  0  0  0  0  0  0  0  0  0
   -3.3700   18.8620  -32.5250 H   0  0  0  0  0  0  0  0  0  0  0  0
   -1.6813   17.1896  -32.7417 H   0  0  0  0  0  0  0  0  0  0  0  0
   -0.9378   18.1695  -34.0600 H   0  0  0  0  0  0  0  0  0  0  0  0
   -0.8039   18.5241  -31.1209 H   0  0  0  0  0  0  0  0  0  0  0  0
    0.2544   19.1860  -32.4493 H   0  0  0  0  0  0  0  0  0  0  0  0
   -1.8679   21.9927  -33.0166 H   0  0  0  0  0  0  0  0  0  0  0  0
   -0.6508   20.8898  -33.7657 H   0  0  0  0  0  0  0  0  0  0  0  0
   -3.6446   20.7400  -33.7647 H   0  0  0  0  0  0  0  0  0  0  0  0
   -2.4361   20.1704  -34.9871 H   0  0  0  0  0  0  0  0  0  0  0  0
   -7.6960   17.8581  -33.0491 H   0  0  0  0  0  0  0  0  0  0  0  0
  -10.1168   18.4332  -33.1924 H   0  0  0  0  0  0  0  0  0  0  0  0
  -10.9281   20.6574  -32.4129 H   0  0  0  0  0  0  0  0  0  0  0  0
   -9.3222   22.3174  -31.4712 H   0  0  0  0  0  0  0  0  0  0  0  0
   -7.0569   22.9401  -30.8564 H   0  0  0  0  0  0  0  0  0  0  0  0
   -2.7201   21.2543  -30.4106 H   0  0  0  0  0  0  0  0  0  0  0  0
   -1.1250   22.9257  -29.4838 H   0  0  0  0  0  0  0  0  0  0  0  0
  1  2  1  0
  2  3  1  0
  3  4  1  0
  4  5  2  0
  5  6  1  0
  6  7  2  0
  7  8  1  0
  8  9  2  0
  9 10  1  0
 10 11  1  0
 11 12  1  0
 12 13  1  0
 13 14  1  0
 14 15  1  0
 15 16  1  0
 16 17  1  0
 17 18  1  0
 18 19  1  0
 10 20  2  0
 20 21  1  0
 21 22  2  0
 22 23  1  0
 23 24  2  0
 24 25  1  0
 25 26  2  0
  7 27  1  0
 27 28  2  0
 28  4  1  0
 26  8  1  0
 19 14  1  0
 25 20  1  0
  1 29  1  0
  1 30  1  0
  1 31  1  0
  2 32  1  0
  2 33  1  0
  5 34  1  0
  6 35  1  0
  9 36  1  0
 12 37  1  0
 12 38  1  0
 13 39  1  0
 13 40  1  0
 14 41  1  0
 15 42  1  0
 15 43  1  0
 16 44  1  0
 16 45  1  0
 18 46  1  0
 18 47  1  0
 19 48  1  0
 19 49  1  0
 21 50  1  0
 22 51  1  0
 23 52  1  0
 24 53  1  0
 26 54  1  0
 27 55  1  0
 28 56  1  0
M  CHG  1  14   1
M  END
>  <UniqueID>  (20) 
20

>  <SMILES>  (20) 
CCOc1ccc(-c2cc(OCC[NH+]3CCOCC3)c3ccccc3c2)cc1

>  <Energy>  (20) 
77.9618239794679

>  <Genealogy>  (20) 
CCOc1ccc(-c2cc(OCC[NH+]3CCOCC3)c3ccccc3c2)cc1 (protonated)
CCOc1ccc(-c2cc(OCC[NH+]3CCOCC3)c3ccccc3c2)cc1 (3D coordinates assigned)
CCOc1ccc(-c2cc(OCC[NH+]3CCOCC3)c3ccccc3c2)cc1 (nonaromatic ring conformer: 77.9618239794679 kcal/mol)

>  <smiles>  (20) 
CCOc1ccc(-c2cc(OCCN3CCOCC3)c3ccccc3c2)cc1

>  <score_type>  (20) 
oracle

>  <origin>  (20) 
adg

>  <m_score__min__energy>  (20) 
-7.5099999999999998

>  <m_primary>  (20) 
energy

$$$$
20:0
     RDKit          3D

 85 90  0  0  0  0  0  0  0  0999 V2000
   -6.1674   25.8753  -31.3285 H   0  0  0  0  0  0  0  0  0  0  0  0
   -5.7810   24.8490  -31.2430 C   0  0  0  0  0  0  0  0  0  0  0  0
   -4.9090   24.5780  -30.3310 N   0  0  0  0  0  0  0  0  0  0  0  0
   -5.2740   24.0450  -29.0360 C   0  0  0  0  0  0  0  0  0  0  0  0
   -4.9754   24.7614  -28.2566 H   0  0  0  0  0  0  0  0  0  0  0  0
   -6.3621   23.8844  -29.0208 H   0  0  0  0  0  0  0  0  0  0  0  0
   -4.5850   22.7060  -28.7720 C   0  0  0  0  0  0  0  0  0  0  0  0
   -4.2235   22.6793  -27.7334 H   0  0  0  0  0  0  0  0  0  0  0  0
   -5.3029   21.8885  -28.9343 H   0  0  0  0  0  0  0  0  0  0  0  0
   -3.4920   22.5510  -29.6540 O   0  0  0  0  0  0  0  0  0  0  0  0
   -2.2850   22.9380  -29.0270 C   0  0  0  0  0  0  0  0  0  0  0  0
   -2.2102   22.4414  -28.0483 H   0  0  0  0  0  0  0  0  0  0  0  0
   -1.4410   22.6429  -29.6677 H   0  0  0  0  0  0  0  0  0  0  0  0
   -2.2470   24.4570  -28.8260 C   0  0  0  0  0  0  0  0  0  0  0  0
   -1.9044   24.9376  -29.7542 H   0  0  0  0  0  0  0  0  0  0  0  0
   -3.2569   24.8100  -28.5701 H   0  0  0  0  0  0  0  0  0  0  0  0
   -1.3270   24.8030  -27.7320 N   0  0  0  0  0  0  0  0  0  0  0  0
    0.0920   24.6070  -27.8810 C   0  0  0  0  0  0  0  0  0  0  0  0
    0.5560   24.1180  -28.9490 O   0  0  0  0  0  0  0  0  0  0  0  0
    1.0110   24.9850  -26.7830 C   0  0  0  0  0  0  0  0  0  0  0  0
    2.3940   24.7570  -26.8970 C   0  0  0  0  0  0  0  0  0  0  0  0
    2.7965   24.2902  -27.8081 H   0  0  0  0  0  0  0  0  0  0  0  0
    3.2600   25.1180  -25.8640 C   0  0  0  0  0  0  0  0  0  0  0  0
    4.3396   24.9323  -25.9645 H   0  0  0  0  0  0  0  0  0  0  0  0
    2.7630   25.7130  -24.7050 C   0  0  0  0  0  0  0  0  0  0  0  0
    3.4522   25.9966  -23.8959 H   0  0  0  0  0  0  0  0  0  0  0  0
    1.3890   25.9510  -24.5670 C   0  0  0  0  0  0  0  0  0  0  0  0
    0.8900   26.5550  -23.4050 C   0  0  0  0  0  0  0  0  0  0  0  0
    1.5796   26.8425  -22.5977 H   0  0  0  0  0  0  0  0  0  0  0  0
   -0.4770   26.7930  -23.2680 C   0  0  0  0  0  0  0  0  0  0  0  0
   -0.8609   27.2692  -22.3537 H   0  0  0  0  0  0  0  0  0  0  0  0
   -1.3600   26.4300  -24.2850 C   0  0  0  0  0  0  0  0  0  0  0  0
   -2.4369   26.6198  -24.1654 H   0  0  0  0  0  0  0  0  0  0  0  0
   -0.8860   25.8240  -25.4610 C   0  0  0  0  0  0  0  0  0  0  0  0
    0.4980   25.5830  -25.6090 C   0  0  0  0  0  0  0  0  0  0  0  0
   -1.8250   25.4370  -26.5380 C   0  0  0  0  0  0  0  0  0  0  0  0
   -3.0600   25.6620  -26.4110 O   0  0  0  0  0  0  0  0  0  0  0  0
   -6.2820   23.7930  -32.1930 C   0  0  0  0  0  0  0  0  0  0  0  0
   -6.3222   24.2212  -33.2054 H   0  0  0  0  0  0  0  0  0  0  0  0
   -7.2765   23.4778  -31.8443 H   0  0  0  0  0  0  0  0  0  0  0  0
   -5.4210   22.5970  -32.2210 N   0  0  0  0  0  0  0  0  0  0  0  0
   -4.8770   22.4670  -31.3470 H   0  0  0  0  0  0  0  0  0  0  0  0
   -4.6910   22.7510  -32.9570 H   0  0  0  0  0  0  0  0  0  0  0  0
   -6.2060   21.4170  -32.5370 C   0  0  0  0  0  0  0  0  0  0  0  0
   -7.5900   21.4920  -32.3040 C   0  0  0  0  0  0  0  0  0  0  0  0
   -8.0440   22.4652  -32.0657 H   0  0  0  0  0  0  0  0  0  0  0  0
   -8.3930   20.3680  -32.3680 C   0  0  0  0  0  0  0  0  0  0  0  0
   -9.4749   20.4570  -32.1902 H   0  0  0  0  0  0  0  0  0  0  0  0
   -7.8410   19.1310  -32.6550 C   0  0  0  0  0  0  0  0  0  0  0  0
   -8.4863   18.2401  -32.6541 H   0  0  0  0  0  0  0  0  0  0  0  0
   -6.4660   18.9890  -32.9490 C   0  0  0  0  0  0  0  0  0  0  0  0
   -5.6270   20.1490  -32.9110 C   0  0  0  0  0  0  0  0  0  0  0  0
   -4.2520   19.9700  -33.2280 C   0  0  0  0  0  0  0  0  0  0  0  0
   -3.4160   21.0710  -33.6120 N   0  0  0  0  0  0  0  0  0  0  0  0
   -3.5160   21.4680  -34.5730 H   0  0  0  0  0  0  0  0  0  0  0  0
   -2.7190   21.8690  -32.6030 C   0  0  0  0  0  0  0  0  0  0  0  0
   -3.3786   22.0041  -31.7331 H   0  0  0  0  0  0  0  0  0  0  0  0
   -2.4588   22.8420  -33.0453 H   0  0  0  0  0  0  0  0  0  0  0  0
   -1.4280   21.1790  -32.1500 C   0  0  0  0  0  0  0  0  0  0  0  0
   -0.6686   21.9421  -31.9240 H   0  0  0  0  0  0  0  0  0  0  0  0
   -1.0720   20.5207  -32.9561 H   0  0  0  0  0  0  0  0  0  0  0  0
   -1.6770   20.3710  -30.9470 N   0  0  0  0  0  0  0  0  0  0  0  0
   -2.4260   20.8490  -30.3910 H   0  0  0  0  0  0  0  0  0  0  0  0
   -0.4800   20.2900  -30.0980 C   0  0  0  0  0  0  0  0  0  0  0  0
   -0.0021   21.2794  -30.0466 H   0  0  0  0  0  0  0  0  0  0  0  0
    0.2203   19.5597  -30.5295 H   0  0  0  0  0  0  0  0  0  0  0  0
   -0.8670   19.8430  -28.6940 C   0  0  0  0  0  0  0  0  0  0  0  0
   -0.3345   20.4580  -27.9536 H   0  0  0  0  0  0  0  0  0  0  0  0
   -1.9520   19.9620  -28.5573 H   0  0  0  0  0  0  0  0  0  0  0  0
   -0.5939   18.7862  -28.5573 H   0  0  0  0  0  0  0  0  0  0  0  0
   -3.7080   18.6750  -33.2650 C   0  0  0  0  0  0  0  0  0  0  0  0
   -2.3120   18.4790  -33.3340 C   0  0  0  0  0  0  0  0  0  0  0  0
   -1.6428   19.3504  -33.3876 H   0  0  0  0  0  0  0  0  0  0  0  0
   -1.7720   17.1960  -33.3350 C   0  0  0  0  0  0  0  0  0  0  0  0
   -0.6827   17.0572  -33.3998 H   0  0  0  0  0  0  0  0  0  0  0  0
   -2.6110   16.0900  -33.2540 C   0  0  0  0  0  0  0  0  0  0  0  0
   -2.1826   15.0771  -33.2341 H   0  0  0  0  0  0  0  0  0  0  0  0
   -3.9930   16.2610  -33.1980 C   0  0  0  0  0  0  0  0  0  0  0  0
   -4.6458   15.3785  -33.1264 H   0  0  0  0  0  0  0  0  0  0  0  0
   -4.5700   17.5560  -33.2320 C   0  0  0  0  0  0  0  0  0  0  0  0
   -5.9360   17.7450  -33.2460 N   0  0  0  0  0  0  0  0  0  0  0  0
   -6.8280   16.6140  -33.5840 C   0  0  0  0  0  0  0  0  0  0  0  0
   -7.1958   16.1477  -32.6581 H   0  0  0  0  0  0  0  0  0  0  0  0
   -7.6809   16.9829  -34.1726 H   0  0  0  0  0  0  0  0  0  0  0  0
   -6.2705   15.8705  -34.1726 H   0  0  0  0  0  0  0  0  0  0  0  0
  1  2  1  0
  2  3  2  0
  3  4  1  0
  4  5  1  0
  4  6  1  0
  4  7  1  0
  7  8  1  0
  7  9  1  0
  7 10  1  0
 10 11  1  0
 11 12  1  0
 11 13  1  0
 11 14  1  0
 14 15  1  0
 14 16  1  0
 14 17  1  0
 17 18  1  0
 18 19  2  0
 18 20  1  0
 20 21  2  0
 21 22  1  0
 21 23  1  0
 23 24  1  0
 23 25  2  0
 25 26  1  0
 25 27  1  0
 27 28  2  0
 28 29  1  0
 28 30  1  0
 30 31  1  0
 30 32  2  0
 32 33  1  0
 32 34  1  0
 34 35  2  0
 34 36  1  0
 36 37  2  0
  2 38  1  0
 38 39  1  0
 38 40  1  0
 38 41  1  0
 41 42  1  0
 41 43  1  0
 41 44  1  0
 44 45  2  0
 45 46  1  0
 45 47  1  0
 47 48  1  0
 47 49  2  0
 49 50  1  0
 49 51  1  0
 51 52  2  0
 52 53  1  0
 53 54  1  0
 54 55  1  0
 54 56  1  0
 56 57  1  0
 56 58  1  0
 56 59  1  0
 59 60  1  0
 59 61  1  0
 59 62  1  0
 62 63  1  0
 62 64  1  0
 64 65  1  0
 64 66  1  0
 64 67  1  0
 67 68  1  0
 67 69  1  0
 67 70  1  0
 53 71  2  0
 71 72  1  0
 72 73  1  0
 72 74  2  0
 74 75  1  0
 74 76  1  0
 76 77  1  0
 76 78  2  0
 78 79  1  0
 78 80  1  0
 80 81  2  0
 81 82  1  0
 82 83  1  0
 82 84  1  0
 82 85  1  0
 36 17  1  0
 52 44  1  0
 80 71  1  0
 35 20  1  0
 81 51  1  0
 35 27  1  0
M  CHG  2  41   1  81   1
M  END
>  <UniqueID>  (21) 
21

>  <SMILES>  (21) 
CCNCCNc1c2ccccc2[n+](C)c2cccc([NH2+]C/C=N/CCOCCN3C(=O)c4cccc5cccc(c45)C3=O)c12

>  <Energy>  (21) 
128.03604016460275

>  <Genealogy>  (21) 
CCNCCNc1c2ccccc2[n+](C)c2cccc([NH2+]CC=NCCOCCN3C(=O)c4cccc5cccc(c45)C3=O)c12 (protonated)
CCNCCNc1c2ccccc2[n+](C)c2cccc([NH2+]C/C=N/CCOCCN3C(=O)c4cccc5cccc(c45)C3=O)c12 (cis-trans isomerization)
CCNCCNc1c2ccccc2[n+](C)c2cccc([NH2+]C/C=N/CCOCCN3C(=O)c4cccc5cccc(c45)C3=O)c12 (3D coordinates assigned)
CCNCCNc1c2ccccc2[n+](C)c2cccc([NH2+]C/C=N/CCOCCN3C(=O)c4cccc5cccc(c45)C3=O)c12 (nonaromatic ring conformer: 128.03604016460275 kcal/mol)

>  <smiles>  (21) 
CCNCCNc1c2ccccc2[n+](C)c2cccc(NCC=NCCOCCN3C(=O)c4cccc5cccc(c45)C3=O)c12

>  <score_type>  (21) 
oracle

>  <origin>  (21) 
adg

>  <m_score__min__energy>  (21) 
-11.31

>  <m_primary>  (21) 
energy

$$$$
21:0
     RDKit          3D

 29 31  0  0  0  0  0  0  0  0999 V2000
   -7.4590   17.9130  -33.0490 C   0  0  0  0  0  0  0  0  0  0  0  0
   -8.0340   19.2020  -32.6900 N   0  0  0  0  0  0  0  0  0  0  0  0
   -9.3300   19.5030  -32.7450 N   0  0  0  0  0  0  0  0  0  0  0  0
   -9.5000   20.7610  -32.2470 C   0  0  0  0  0  0  0  0  0  0  0  0
   -8.2610   21.2280  -31.8630 C   0  0  0  0  0  0  0  0  0  0  0  0
   -7.7010   22.3470  -31.2670 C   0  0  0  0  0  0  0  0  0  0  0  0
   -6.3140   22.1550  -31.1020 C   0  0  0  0  0  0  0  0  0  0  0  0
   -5.4010   23.1460  -30.5050 C   0  0  0  0  0  0  0  0  0  0  0  0
   -4.7420   23.9110  -31.2620 O   0  0  0  0  0  0  0  0  0  0  0  0
   -5.2870   23.2690  -29.0780 N   0  0  0  0  0  0  0  0  0  0  0  0
   -4.2280   23.9840  -28.4170 C   0  0  0  0  0  0  0  0  0  0  0  0
   -4.2010   24.1410  -27.0220 C   0  0  0  0  0  0  0  0  0  0  0  0
   -3.1700   24.8640  -26.4210 C   0  0  0  0  0  0  0  0  0  0  0  0
   -2.1800   25.4370  -27.2200 C   0  0  0  0  0  0  0  0  0  0  0  0
   -2.2240   25.2980  -28.5730 N   0  0  0  0  0  0  0  0  0  0  0  0
   -1.2440   25.8800  -29.3430 O   0  0  0  0  0  0  0  0  0  0  0  0
   -3.2220   24.5970  -29.1800 C   0  0  0  0  0  0  0  0  0  0  0  0
   -5.8350   20.6110  -31.6960 S   0  0  0  0  0  0  0  0  0  0  0  0
   -7.4050   20.2490  -32.1460 C   0  0  0  0  0  0  0  0  0  0  0  0
   -7.2101   17.3550  -32.1343 H   0  0  0  0  0  0  0  0  0  0  0  0
   -8.1865   17.3393  -33.6419 H   0  0  0  0  0  0  0  0  0  0  0  0
   -6.5461   18.0711  -33.6419 H   0  0  0  0  0  0  0  0  0  0  0  0
  -10.4529   21.3046  -32.1663 H   0  0  0  0  0  0  0  0  0  0  0  0
   -8.2551   23.2489  -30.9678 H   0  0  0  0  0  0  0  0  0  0  0  0
   -6.0640   22.8990  -28.4850 H   0  0  0  0  0  0  0  0  0  0  0  0
   -4.9927   23.6940  -26.4028 H   0  0  0  0  0  0  0  0  0  0  0  0
   -3.1380   24.9811  -25.3277 H   0  0  0  0  0  0  0  0  0  0  0  0
   -1.3603   26.0036  -26.7542 H   0  0  0  0  0  0  0  0  0  0  0  0
   -3.2396   24.5107  -30.2765 H   0  0  0  0  0  0  0  0  0  0  0  0
  1  2  1  0
  2  3  1  0
  3  4  2  0
  4  5  1  0
  5  6  1  0
  6  7  2  0
  7  8  1  0
  8  9  2  0
  8 10  1  0
 10 11  1  0
 11 12  2  0
 12 13  1  0
 13 14  2  0
 14 15  1  0
 15 16  1  0
 15 17  2  0
  7 18  1  0
 18 19  1  0
 19  2  1  0
 19  5  2  0
 17 11  1  0
  1 20  1  0
  1 21  1  0
  1 22  1  0
  4 23  1  0
  6 24  1  0
 10 25  1  0
 12 26  1  0
 13 27  1  0
 14 28  1  0
 17 29  1  0
M  CHG  2  15   1  16  -1
M  END
>  <UniqueID>  (22) 
22

>  <SMILES>  (22) 
Cn1ncc2cc(C(=O)Nc3ccc[n+]([O-])c3)sc21

>  <Energy>  (22) 
115.45155118905059

>  <Genealogy>  (22) 
Cn1ncc2cc(C(=O)Nc3ccc[n+]([O-])c3)sc21 (3D coordinates assigned)
Cn1ncc2cc(C(=O)Nc3ccc[n+]([O-])c3)sc21 (optimized conformer: 115.45155118905059 kcal/mol)

>  <smiles>  (22) 
Cn1ncc2cc(C(=O)Nc3ccc[n+]([O-])c3)sc21

>  <score_type>  (22) 
oracle

>  <origin>  (22) 
adg

>  <m_score__min__energy>  (22) 
-8.4100000000000001

>  <m_primary>  (22) 
energy

$$$$
22:0
     RDKit          3D

 49 52  0  0  0  0  0  0  0  0999 V2000
   -2.7500   21.0340  -28.6160 C   0  0  0  0  0  0  0  0  0  0  0  0
   -3.2680   22.3400  -29.0250 C   0  0  0  0  0  0  0  0  0  0  0  0
   -3.6950   23.4150  -29.3620 C   0  0  0  0  0  0  0  0  0  0  0  0
   -4.2170   24.7230  -29.7750 C   0  0  0  0  0  0  0  0  0  0  0  0
   -4.5080   24.7220  -31.2140 N   0  0  0  0  0  0  0  0  0  0  0  0
   -5.9450   24.5430  -31.4670 C   0  0  0  0  0  0  0  0  0  0  0  0
   -6.1840   23.3080  -32.3390 C   0  0  0  0  0  0  0  0  0  0  0  0
   -5.2310   22.2440  -32.0320 N   0  0  0  0  0  0  0  0  0  0  0  0
   -5.4610   20.9130  -32.5030 C   0  0  0  0  0  0  0  0  0  0  0  0
   -6.7240   20.2920  -32.3790 C   0  0  0  0  0  0  0  0  0  0  0  0
   -7.7920   20.9640  -31.7530 C   0  0  0  0  0  0  0  0  0  0  0  0
   -9.0300   20.3420  -31.6030 C   0  0  0  0  0  0  0  0  0  0  0  0
   -9.2200   19.0410  -32.0590 C   0  0  0  0  0  0  0  0  0  0  0  0
   -8.1780   18.3510  -32.6810 C   0  0  0  0  0  0  0  0  0  0  0  0
   -6.9130   18.9570  -32.8730 C   0  0  0  0  0  0  0  0  0  0  0  0
   -5.8720   18.2860  -33.5000 N   0  0  0  0  0  0  0  0  0  0  0  0
   -6.0700   16.9540  -34.1000 C   0  0  0  0  0  0  0  0  0  0  0  0
   -4.6400   18.8890  -33.5370 C   0  0  0  0  0  0  0  0  0  0  0  0
   -3.4870   18.3500  -34.0120 N   0  0  0  0  0  0  0  0  0  0  0  0
   -2.5560   19.3090  -33.8450 C   0  0  0  0  0  0  0  0  0  0  0  0
   -1.2040   19.2290  -34.1800 C   0  0  0  0  0  0  0  0  0  0  0  0
   -0.3910   20.3440  -33.9170 C   0  0  0  0  0  0  0  0  0  0  0  0
   -0.9370   21.5060  -33.3290 C   0  0  0  0  0  0  0  0  0  0  0  0
   -2.3030   21.5650  -32.9960 C   0  0  0  0  0  0  0  0  0  0  0  0
   -3.0900   20.4430  -33.2700 C   0  0  0  0  0  0  0  0  0  0  0  0
   -4.4300   20.1680  -33.0640 C   0  0  0  0  0  0  0  0  0  0  0  0
   -2.7271   20.9762  -27.5178 H   0  0  0  0  0  0  0  0  0  0  0  0
   -3.4016   20.2409  -29.0114 H   0  0  0  0  0  0  0  0  0  0  0  0
   -1.7319   20.9032  -29.0114 H   0  0  0  0  0  0  0  0  0  0  0  0
   -5.1407   24.9379  -29.2177 H   0  0  0  0  0  0  0  0  0  0  0  0
   -3.4618   25.4940  -29.5623 H   0  0  0  0  0  0  0  0  0  0  0  0
   -4.2290   25.6590  -31.5880 H   0  0  0  0  0  0  0  0  0  0  0  0
   -6.4687   24.4163  -30.5080 H   0  0  0  0  0  0  0  0  0  0  0  0
   -6.3278   25.4302  -31.9927 H   0  0  0  0  0  0  0  0  0  0  0  0
   -7.2040   22.9367  -32.1611 H   0  0  0  0  0  0  0  0  0  0  0  0
   -6.0511   23.5976  -33.3918 H   0  0  0  0  0  0  0  0  0  0  0  0
   -4.3220   22.4520  -31.5600 H   0  0  0  0  0  0  0  0  0  0  0  0
   -7.6476   21.9885  -31.3794 H   0  0  0  0  0  0  0  0  0  0  0  0
   -9.8598   20.8812  -31.1226 H   0  0  0  0  0  0  0  0  0  0  0  0
  -10.1973   18.5533  -31.9285 H   0  0  0  0  0  0  0  0  0  0  0  0
   -8.3424   17.3200  -33.0275 H   0  0  0  0  0  0  0  0  0  0  0  0
   -6.1813   16.2052  -33.3019 H   0  0  0  0  0  0  0  0  0  0  0  0
   -6.9766   16.9635  -34.7229 H   0  0  0  0  0  0  0  0  0  0  0  0
   -5.1998   16.6994  -34.7229 H   0  0  0  0  0  0  0  0  0  0  0  0
   -3.3140   17.3960  -34.3980 H   0  0  0  0  0  0  0  0  0  0  0  0
   -0.7868   18.3194  -34.6367 H   0  0  0  0  0  0  0  0  0  0  0  0
    0.6788   20.3117  -34.1710 H   0  0  0  0  0  0  0  0  0  0  0  0
   -0.2891   22.3723  -33.1296 H   0  0  0  0  0  0  0  0  0  0  0  0
   -2.7371   22.4646  -32.5352 H   0  0  0  0  0  0  0  0  0  0  0  0
  1  2  1  0
  2  3  3  0
  3  4  1  0
  4  5  1  0
  5  6  1  0
  6  7  1  0
  7  8  1  0
  8  9  1  0
  9 10  2  0
 10 11  1  0
 11 12  2  0
 12 13  1  0
 13 14  2  0
 14 15  1  0
 15 16  2  0
 16 17  1  0
 16 18  1  0
 18 19  1  0
 19 20  1  0
 20 21  2  0
 21 22  1  0
 22 23  2  0
 23 24  1  0
 24 25  2  0
 25 26  1  0
 26  9  1  0
 15 10  1  0
 26 18  2  0
 25 20  1  0
  1 27  1  0
  1 28  1  0
  1 29  1  0
  4 30  1  0
  4 31  1  0
  5 32  1  0
  6 33  1  0
  6 34  1  0
  7 35  1  0
  7 36  1  0
  8 37  1  0
 11 38  1  0
 12 39  1  0
 13 40  1  0
 14 41  1  0
 17 42  1  0
 17 43  1  0
 17 44  1  0
 19 45  1  0
 21 46  1  0
 22 47  1  0
 23 48  1  0
 24 49  1  0
M  CHG  1  16   1
M  END
>  <UniqueID>  (23) 
23

>  <SMILES>  (23) 
CC#CCNCCNc1c2ccccc2[n+](C)c2[nH]c3ccccc3c12

>  <Energy>  (23) 
101.49630501504797

>  <Genealogy>  (23) 
CC#CCNCCNc1c2ccccc2[n+](C)c2[nH]c3ccccc3c12 (3D coordinates assigned)
CC#CCNCCNc1c2ccccc2[n+](C)c2[nH]c3ccccc3c12 (optimized conformer: 101.49630501504797 kcal/mol)

>  <smiles>  (23) 
CC#CCNCCNc1c2ccccc2[n+](C)c2[nH]c3ccccc3c12

>  <score_type>  (23) 
oracle

>  <origin>  (23) 
adg

>  <m_score__min__energy>  (23) 
-8.8399999999999999

>  <m_primary>  (23) 
energy

$$$$
23:0
     RDKit          3D

 44 46  0  0  0  0  0  0  0  0999 V2000
   -2.5610   18.7660  -33.7790 C   0  0  0  0  0  0  0  0  0  0  0  0
   -1.5900   19.8570  -34.2420 C   0  0  0  0  0  0  0  0  0  0  0  0
   -2.0470   21.2110  -33.8790 N   0  0  0  0  0  0  0  0  0  0  0  0
   -1.8370   21.5070  -32.4510 C   0  0  0  0  0  0  0  0  0  0  0  0
   -3.1010   21.2350  -31.6220 C   0  0  0  0  0  0  0  0  0  0  0  0
   -4.2740   21.2710  -32.4390 O   0  0  0  0  0  0  0  0  0  0  0  0
   -5.5520   21.5870  -31.9550 C   0  0  0  0  0  0  0  0  0  0  0  0
   -6.6300   20.6780  -32.0870 C   0  0  0  0  0  0  0  0  0  0  0  0
   -6.4950   19.4170  -32.8560 C   0  0  0  0  0  0  0  0  0  0  0  0
   -5.8630   19.4160  -34.1130 C   0  0  0  0  0  0  0  0  0  0  0  0
   -5.7390   18.2280  -34.8400 C   0  0  0  0  0  0  0  0  0  0  0  0
   -6.2390   17.0330  -34.3180 C   0  0  0  0  0  0  0  0  0  0  0  0
   -6.8610   17.0210  -33.0670 C   0  0  0  0  0  0  0  0  0  0  0  0
   -6.9880   18.2070  -32.3360 C   0  0  0  0  0  0  0  0  0  0  0  0
   -7.8760   20.9990  -31.5230 C   0  0  0  0  0  0  0  0  0  0  0  0
   -8.0710   22.2120  -30.8670 C   0  0  0  0  0  0  0  0  0  0  0  0
   -7.0270   23.1380  -30.7700 C   0  0  0  0  0  0  0  0  0  0  0  0
   -7.2280   24.3670  -30.1210 C   0  0  0  0  0  0  0  0  0  0  0  0
   -6.1830   25.2880  -30.0190 C   0  0  0  0  0  0  0  0  0  0  0  0
   -4.9330   24.9920  -30.5640 C   0  0  0  0  0  0  0  0  0  0  0  0
   -4.7180   23.7730  -31.2140 C   0  0  0  0  0  0  0  0  0  0  0  0
   -5.7600   22.8330  -31.3250 C   0  0  0  0  0  0  0  0  0  0  0  0
   -2.5850   18.7390  -32.6796 H   0  0  0  0  0  0  0  0  0  0  0  0
   -3.5685   18.9850  -34.1625 H   0  0  0  0  0  0  0  0  0  0  0  0
   -2.2266   17.7907  -34.1625 H   0  0  0  0  0  0  0  0  0  0  0  0
   -0.6102   19.6784  -33.7751 H   0  0  0  0  0  0  0  0  0  0  0  0
   -1.5303   19.8075  -35.3393 H   0  0  0  0  0  0  0  0  0  0  0  0
   -3.0670   21.2630  -34.0990 H   0  0  0  0  0  0  0  0  0  0  0  0
   -1.5530   21.9230  -34.4680 H   0  0  0  0  0  0  0  0  0  0  0  0
   -1.0198   20.8753  -32.0725 H   0  0  0  0  0  0  0  0  0  0  0  0
   -1.5875   22.5741  -32.3553 H   0  0  0  0  0  0  0  0  0  0  0  0
   -3.0181   20.2415  -31.1571 H   0  0  0  0  0  0  0  0  0  0  0  0
   -3.1881   22.0173  -30.8536 H   0  0  0  0  0  0  0  0  0  0  0  0
   -5.4644   20.3544  -34.5259 H   0  0  0  0  0  0  0  0  0  0  0  0
   -5.2472   18.2347  -35.8239 H   0  0  0  0  0  0  0  0  0  0  0  0
   -6.1430   16.0999  -34.8926 H   0  0  0  0  0  0  0  0  0  0  0  0
   -7.2512   16.0781  -32.6564 H   0  0  0  0  0  0  0  0  0  0  0  0
   -7.4757   18.1930  -31.3501 H   0  0  0  0  0  0  0  0  0  0  0  0
   -8.7079   20.2835  -31.6005 H   0  0  0  0  0  0  0  0  0  0  0  0
   -9.0506   22.4430  -30.4231 H   0  0  0  0  0  0  0  0  0  0  0  0
   -8.2122   24.6052  -29.6913 H   0  0  0  0  0  0  0  0  0  0  0  0
   -6.3456   26.2485  -29.5081 H   0  0  0  0  0  0  0  0  0  0  0  0
   -4.1133   25.7209  -30.4819 H   0  0  0  0  0  0  0  0  0  0  0  0
   -3.7296   23.5473  -31.6408 H   0  0  0  0  0  0  0  0  0  0  0  0
  1  2  1  0
  2  3  1  0
  3  4  1  0
  4  5  1  0
  5  6  1  0
  6  7  1  0
  7  8  2  0
  8  9  1  0
  9 10  2  0
 10 11  1  0
 11 12  2  0
 12 13  1  0
 13 14  2  0
  8 15  1  0
 15 16  2  0
 16 17  1  0
 17 18  2  0
 18 19  1  0
 19 20  2  0
 20 21  1  0
 21 22  2  0
 22  7  1  0
 14  9  1  0
 22 17  1  0
  1 23  1  0
  1 24  1  0
  1 25  1  0
  2 26  1  0
  2 27  1  0
  3 28  1  0
  3 29  1  0
  4 30  1  0
  4 31  1  0
  5 32  1  0
  5 33  1  0
 10 34  1  0
 11 35  1  0
 12 36  1  0
 13 37  1  0
 14 38  1  0
 15 39  1  0
 16 40  1  0
 18 41  1  0
 19 42  1  0
 20 43  1  0
 21 44  1  0
M  CHG  1   3   1
M  END
>  <UniqueID>  (24) 
24

>  <SMILES>  (24) 
CC[NH2+]CCOc1c(-c2ccccc2)ccc2ccccc12

>  <Energy>  (24) 
57.78557081028806

>  <Genealogy>  (24) 
CC[NH2+]CCOc1c(-c2ccccc2)ccc2ccccc12 (protonated)
CC[NH2+]CCOc1c(-c2ccccc2)ccc2ccccc12 (3D coordinates assigned)
CC[NH2+]CCOc1c(-c2ccccc2)ccc2ccccc12 (optimized conformer: 57.78557081028806 kcal/mol)

>  <smiles>  (24) 
CCNCCOc1c(-c2ccccc2)ccc2ccccc12

>  <score_type>  (24) 
oracle

>  <origin>  (24) 
adg

>  <m_score__min__energy>  (24) 
-7.1100000000000003

>  <m_primary>  (24) 
energy

$$$$
