0:0
     RDKit          3D

 54 55  0  0  0  0  0  0  0  0999 V2000
   -3.5990   19.4950  -33.4630 C   0  0  0  0  0  0  0  0  0  0  0  0
   -4.8790   20.3360  -33.3870 C   0  0  0  0  0  0  0  0  0  0  0  0
   -5.9680   19.6380  -32.6510 N   0  0  0  0  0  0  0  0  0  0  0  0
   -5.5860   18.2240  -32.3870 C   0  0  0  0  0  0  0  0  0  0  0  0
   -6.4500   17.5870  -31.2910 C   0  0  0  0  0  0  0  0  0  0  0  0
   -7.2360   19.6970  -33.4310 C   0  0  0  0  0  0  0  0  0  0  0  0
   -8.4280   20.1780  -32.5810 C   0  0  0  0  0  0  0  0  0  0  0  0
   -7.9820   20.5310  -31.2260 N   0  0  0  0  0  0  0  0  0  0  0  0
   -8.5030   21.8400  -30.8030 C   0  0  0  0  0  0  0  0  0  0  0  0
   -7.9510   22.9750  -31.6840 C   0  0  0  0  0  0  0  0  0  0  0  0
   -6.6150   23.4920  -31.2070 C   0  0  0  0  0  0  0  0  0  0  0  0
   -6.4980   24.8140  -30.7530 C   0  0  0  0  0  0  0  0  0  0  0  0
   -5.2830   25.2890  -30.2600 C   0  0  0  0  0  0  0  0  0  0  0  0
   -4.1610   24.4420  -30.1870 C   0  0  0  0  0  0  0  0  0  0  0  0
   -2.9220   24.9000  -29.7060 O   0  0  0  0  0  0  0  0  0  0  0  0
   -2.3950   24.6070  -28.4170 C   0  0  0  0  0  0  0  0  0  0  0  0
   -4.2770   23.1030  -30.6160 C   0  0  0  0  0  0  0  0  0  0  0  0
   -3.1340   22.1680  -30.5020 C   0  0  0  0  0  0  0  0  0  0  0  0
   -2.2300   22.0030  -31.5630 C   0  0  0  0  0  0  0  0  0  0  0  0
   -1.1510   21.1280  -31.4330 C   0  0  0  0  0  0  0  0  0  0  0  0
   -0.9810   20.4240  -30.2390 C   0  0  0  0  0  0  0  0  0  0  0  0
   -1.8620   20.5940  -29.2170 N   0  0  0  0  0  0  0  0  0  0  0  0
   -2.9200   21.4420  -29.3200 C   0  0  0  0  0  0  0  0  0  0  0  0
   -5.4990   22.6440  -31.1390 C   0  0  0  0  0  0  0  0  0  0  0  0
   -3.2500   19.2657  -32.4454 H   0  0  0  0  0  0  0  0  0  0  0  0
   -3.8076   18.5574  -33.9991 H   0  0  0  0  0  0  0  0  0  0  0  0
   -2.8212   20.0586  -33.9991 H   0  0  0  0  0  0  0  0  0  0  0  0
   -4.6520   21.2807  -32.8712 H   0  0  0  0  0  0  0  0  0  0  0  0
   -5.2271   20.5145  -34.4151 H   0  0  0  0  0  0  0  0  0  0  0  0
   -6.1070   20.1200  -31.7310 H   0  0  0  0  0  0  0  0  0  0  0  0
   -5.7063   17.6451  -33.3146 H   0  0  0  0  0  0  0  0  0  0  0  0
   -4.5413   18.2143  -32.0427 H   0  0  0  0  0  0  0  0  0  0  0  0
   -6.0601   17.8744  -30.3034 H   0  0  0  0  0  0  0  0  0  0  0  0
   -7.4877   17.9378  -31.3919 H   0  0  0  0  0  0  0  0  0  0  0  0
   -6.4217   16.4920  -31.3919 H   0  0  0  0  0  0  0  0  0  0  0  0
   -7.1003   20.3911  -34.2735 H   0  0  0  0  0  0  0  0  0  0  0  0
   -7.4625   18.6786  -33.7795 H   0  0  0  0  0  0  0  0  0  0  0  0
   -8.8785   21.0620  -33.0560 H   0  0  0  0  0  0  0  0  0  0  0  0
   -9.1679   19.3669  -32.5130 H   0  0  0  0  0  0  0  0  0  0  0  0
   -8.3680   19.8130  -30.5680 H   0  0  0  0  0  0  0  0  0  0  0  0
   -9.6004   21.8298  -30.8783 H   0  0  0  0  0  0  0  0  0  0  0  0
   -8.1848   22.0207  -29.7657 H   0  0  0  0  0  0  0  0  0  0  0  0
   -7.8351   22.5977  -32.7107 H   0  0  0  0  0  0  0  0  0  0  0  0
   -8.6654   23.8098  -31.6330 H   0  0  0  0  0  0  0  0  0  0  0  0
   -7.3717   25.4815  -30.7861 H   0  0  0  0  0  0  0  0  0  0  0  0
   -5.2008   26.3337  -29.9256 H   0  0  0  0  0  0  0  0  0  0  0  0
   -3.0802   24.9880  -27.6454 H   0  0  0  0  0  0  0  0  0  0  0  0
   -2.2851   23.5183  -28.3046 H   0  0  0  0  0  0  0  0  0  0  0  0
   -1.4123   25.0882  -28.3046 H   0  0  0  0  0  0  0  0  0  0  0  0
   -2.3724   22.5643  -32.4982 H   0  0  0  0  0  0  0  0  0  0  0  0
   -0.4413   20.9940  -32.2627 H   0  0  0  0  0  0  0  0  0  0  0  0
   -0.1340   19.7315  -30.1250 H   0  0  0  0  0  0  0  0  0  0  0  0
   -3.6116   21.5596  -28.4727 H   0  0  0  0  0  0  0  0  0  0  0  0
   -5.5811   21.6079  -31.4991 H   0  0  0  0  0  0  0  0  0  0  0  0
  1  2  1  0
  2  3  1  0
  3  4  1  0
  4  5  1  0
  3  6  1  0
  6  7  1  0
  7  8  1  0
  8  9  1  0
  9 10  1  0
 10 11  1  0
 11 12  2  0
 12 13  1  0
 13 14  2  0
 14 15  1  0
 15 16  1  0
 14 17  1  0
 17 18  1  0
 18 19  2  0
 19 20  1  0
 20 21  2  0
 21 22  1  0
 22 23  2  0
 17 24  2  0
 24 11  1  0
 23 18  1  0
  1 25  1  0
  1 26  1  0
  1 27  1  0
  2 28  1  0
  2 29  1  0
  3 30  1  0
  4 31  1  0
  4 32  1  0
  5 33  1  0
  5 34  1  0
  5 35  1  0
  6 36  1  0
  6 37  1  0
  7 38  1  0
  7 39  1  0
  8 40  1  0
  9 41  1  0
  9 42  1  0
 10 43  1  0
 10 44  1  0
 12 45  1  0
 13 46  1  0
 16 47  1  0
 16 48  1  0
 16 49  1  0
 19 50  1  0
 20 51  1  0
 21 52  1  0
 23 53  1  0
 24 54  1  0
M  CHG  1   3   1
M  END
>  <UniqueID>  (1) 
1

>  <SMILES>  (1) 
CC[NH+](CC)CCNCCc1ccc(OC)c(-c2cccnc2)c1

>  <Energy>  (1) 
57.889186050899966

>  <Genealogy>  (1) 
CC[NH+](CC)CCNCCc1ccc(OC)c(-c2cccnc2)c1 (protonated)
CC[NH+](CC)CCNCCc1ccc(OC)c(-c2cccnc2)c1 (3D coordinates assigned)
CC[NH+](CC)CCNCCc1ccc(OC)c(-c2cccnc2)c1 (optimized conformer: 57.889186050899966 kcal/mol)

>  <smiles>  (1) 
CCN(CC)CCNCCc1ccc(OC)c(-c2cccnc2)c1

>  <score_type>  (1) 
oracle

>  <origin>  (1) 
adg

>  <m_score__min__energy>  (1) 
-7.3200000000000003

>  <m_primary>  (1) 
energy

$$$$
1:0
     RDKit          3D

 56 56  0  0  0  0  0  0  0  0999 V2000
   -4.1740   18.7630  -34.1410 C   0  0  0  0  0  0  0  0  0  0  0  0
   -5.6760   18.5590  -34.3180 C   0  0  0  0  0  0  0  0  0  0  0  0
   -6.0380   17.0690  -34.2980 C   0  0  0  0  0  0  0  0  0  0  0  0
   -6.8970   16.7290  -33.0710 C   0  0  0  0  0  0  0  0  0  0  0  0
   -7.2070   17.9600  -32.2050 C   0  0  0  0  0  0  0  0  0  0  0  0
   -8.7140   18.1580  -31.9780 C   0  0  0  0  0  0  0  0  0  0  0  0
   -9.1920   19.5520  -32.4020 C   0  0  0  0  0  0  0  0  0  0  0  0
   -8.1120   20.3070  -33.0430 N   0  0  0  0  0  0  0  0  0  0  0  0
   -7.2690   21.2890  -32.4030 C   0  0  0  0  0  0  0  0  0  0  0  0
   -5.8650   21.1770  -32.3670 C   0  0  0  0  0  0  0  0  0  0  0  0
   -5.0900   22.1530  -31.7350 C   0  0  0  0  0  0  0  0  0  0  0  0
   -5.6970   23.2640  -31.1250 C   0  0  0  0  0  0  0  0  0  0  0  0
   -4.8800   24.3000  -30.4570 C   0  0  0  0  0  0  0  0  0  0  0  0
   -4.4600   25.2960  -31.1090 O   0  0  0  0  0  0  0  0  0  0  0  0
   -4.5720   24.1720  -29.0990 O   0  0  0  0  0  0  0  0  0  0  0  0
   -3.7940   23.0980  -28.5810 C   0  0  0  0  0  0  0  0  0  0  0  0
   -3.0690   23.5390  -27.2980 C   0  0  0  0  0  0  0  0  0  0  0  0
   -3.4060   24.9220  -26.8700 N   0  0  1  0  0  0  0  0  0  0  0  0
   -4.5880   24.9220  -25.9800 C   0  0  0  0  0  0  0  0  0  0  0  0
   -2.2330   25.5250  -26.1850 C   0  0  0  0  0  0  0  0  0  0  0  0
   -1.1480   25.9970  -27.1620 C   0  0  0  0  0  0  0  0  0  0  0  0
   -7.0960   23.3780  -31.1610 C   0  0  0  0  0  0  0  0  0  0  0  0
   -7.8710   22.4020  -31.7930 C   0  0  0  0  0  0  0  0  0  0  0  0
   -3.9323   18.7958  -33.0684 H   0  0  0  0  0  0  0  0  0  0  0  0
   -3.6326   17.9301  -34.6135 H   0  0  0  0  0  0  0  0  0  0  0  0
   -3.8744   19.7101  -34.6135 H   0  0  0  0  0  0  0  0  0  0  0  0
   -6.2064   19.0684  -33.5000 H   0  0  0  0  0  0  0  0  0  0  0  0
   -5.9726   18.9771  -35.2913 H   0  0  0  0  0  0  0  0  0  0  0  0
   -6.6006   16.8230  -35.2106 H   0  0  0  0  0  0  0  0  0  0  0  0
   -5.1086   16.4826  -34.2492 H   0  0  0  0  0  0  0  0  0  0  0  0
   -7.8463   16.2931  -33.4158 H   0  0  0  0  0  0  0  0  0  0  0  0
   -6.3262   16.0218  -32.4513 H   0  0  0  0  0  0  0  0  0  0  0  0
   -6.7168   17.8361  -31.2281 H   0  0  0  0  0  0  0  0  0  0  0  0
   -6.8310   18.8458  -32.7380 H   0  0  0  0  0  0  0  0  0  0  0  0
   -9.2612   17.4041  -32.5630 H   0  0  0  0  0  0  0  0  0  0  0  0
   -8.9072   18.0511  -30.9004 H   0  0  0  0  0  0  0  0  0  0  0  0
  -10.0261   19.4456  -33.1112 H   0  0  0  0  0  0  0  0  0  0  0  0
   -9.5157   20.0988  -31.5041 H   0  0  0  0  0  0  0  0  0  0  0  0
   -8.0130   20.1760  -34.0740 H   0  0  0  0  0  0  0  0  0  0  0  0
   -5.3746   20.3137  -32.8405 H   0  0  0  0  0  0  0  0  0  0  0  0
   -3.9949   22.0507  -31.7148 H   0  0  0  0  0  0  0  0  0  0  0  0
   -4.4541   22.2485  -28.3518 H   0  0  0  0  0  0  0  0  0  0  0  0
   -3.0470   22.8007  -29.3317 H   0  0  0  0  0  0  0  0  0  0  0  0
   -3.3439   22.8475  -26.4879 H   0  0  0  0  0  0  0  0  0  0  0  0
   -1.9906   23.5219  -27.5145 H   0  0  0  0  0  0  0  0  0  0  0  0
   -3.6250   25.4980  -27.7180 H   0  0  0  0  0  0  0  0  0  0  0  0
   -4.8809   23.8849  -25.7594 H   0  0  0  0  0  0  0  0  0  0  0  0
   -4.3407   25.4405  -25.0419 H   0  0  0  0  0  0  0  0  0  0  0  0
   -5.4212   25.4405  -26.4769 H   0  0  0  0  0  0  0  0  0  0  0  0
   -2.5759   26.3892  -25.5972 H   0  0  0  0  0  0  0  0  0  0  0  0
   -1.7873   24.7471  -25.5477 H   0  0  0  0  0  0  0  0  0  0  0  0
   -0.2832   26.3732  -26.5958 H   0  0  0  0  0  0  0  0  0  0  0  0
   -0.8332   25.1545  -27.7953 H   0  0  0  0  0  0  0  0  0  0  0  0
   -1.5498   26.8017  -27.7953 H   0  0  0  0  0  0  0  0  0  0  0  0
   -7.5856   24.2421  -30.6881 H   0  0  0  0  0  0  0  0  0  0  0  0
   -8.9658   22.5065  -31.8131 H   0  0  0  0  0  0  0  0  0  0  0  0
  1  2  1  0
  2  3  1  0
  3  4  1  0
  4  5  1  0
  5  6  1  0
  6  7  1  0
  7  8  1  0
  8  9  1  0
  9 10  2  0
 10 11  1  0
 11 12  2  0
 12 13  1  0
 13 14  2  0
 13 15  1  0
 15 16  1  0
 16 17  1  0
 17 18  1  0
 18 19  1  0
 18 20  1  0
 20 21  1  0
 12 22  1  0
 22 23  2  0
 23  9  1  0
  1 24  1  0
  1 25  1  0
  1 26  1  0
  2 27  1  0
  2 28  1  0
  3 29  1  0
  3 30  1  0
  4 31  1  0
  4 32  1  0
  5 33  1  0
  5 34  1  0
  6 35  1  0
  6 36  1  0
  7 37  1  0
  7 38  1  0
  8 39  1  0
 10 40  1  0
 11 41  1  0
 16 42  1  0
 16 43  1  0
 17 44  1  0
 17 45  1  0
 18 46  1  6
 19 47  1  0
 19 48  1  0
 19 49  1  0
 20 50  1  0
 20 51  1  0
 21 52  1  0
 21 53  1  0
 21 54  1  0
 22 55  1  0
 23 56  1  0
M  CHG  1  18   1
M  END
>  <UniqueID>  (2) 
2

>  <SMILES>  (2) 
CCCCCCCNc1ccc(C(=O)OCC[N@@H+](C)CC)cc1

>  <Energy>  (2) 
40.55608104077561

>  <Genealogy>  (2) 
CCCCCCCNc1ccc(C(=O)OCC[NH+](C)CC)cc1 (protonated)
CCCCCCCNc1ccc(C(=O)OCC[N@@H+](C)CC)cc1 (chirality)
CCCCCCCNc1ccc(C(=O)OCC[N@@H+](C)CC)cc1 (3D coordinates assigned)
CCCCCCCNc1ccc(C(=O)OCC[N@@H+](C)CC)cc1 (optimized conformer: 40.55608104077561 kcal/mol)

>  <smiles>  (2) 
CCCCCCCNc1ccc(C(=O)OCCN(C)CC)cc1

>  <score_type>  (2) 
oracle

>  <origin>  (2) 
adg

>  <m_score__min__energy>  (2) 
-6.5700000000000003

>  <m_primary>  (2) 
energy

$$$$
2:0
     RDKit          3D

 47 49  0  0  0  0  0  0  0  0999 V2000
   -1.3470   18.0520  -33.0630 C   0  0  0  0  0  0  0  0  0  0  0  0
   -1.3200   19.0370  -34.2280 C   0  0  0  0  0  0  0  0  0  0  0  0
   -1.4730   20.4260  -33.7330 N   0  0  0  0  0  0  0  0  0  0  0  0
   -0.4840   21.3120  -34.3740 C   0  0  0  0  0  0  0  0  0  0  0  0
   -1.3340   20.4930  -32.2620 C   0  0  0  0  0  0  0  0  0  0  0  0
   -2.6920   20.8050  -31.6120 C   0  0  0  0  0  0  0  0  0  0  0  0
   -3.4180   21.9830  -32.2870 C   0  0  0  0  0  0  0  0  0  0  0  0
   -4.1570   21.5600  -33.4890 N   0  0  0  0  0  0  0  0  0  0  0  0
   -5.3640   20.8520  -33.1120 C   0  0  0  0  0  0  0  0  0  0  0  0
   -5.5670   19.4740  -33.3960 C   0  0  0  0  0  0  0  0  0  0  0  0
   -4.5940   18.7110  -34.0810 C   0  0  0  0  0  0  0  0  0  0  0  0
   -4.7740   17.3480  -34.2950 C   0  0  0  0  0  0  0  0  0  0  0  0
   -5.9170   16.7120  -33.8290 C   0  0  0  0  0  0  0  0  0  0  0  0
   -6.9090   17.4390  -33.1760 C   0  0  0  0  0  0  0  0  0  0  0  0
   -6.7840   18.8370  -32.9750 C   0  0  0  0  0  0  0  0  0  0  0  0
   -7.7980   19.5740  -32.3810 N   0  0  0  0  0  0  0  0  0  0  0  0
   -9.1090   18.9600  -32.0860 C   0  0  0  0  0  0  0  0  0  0  0  0
   -7.5700   20.8960  -32.0760 C   0  0  0  0  0  0  0  0  0  0  0  0
   -8.4440   21.7560  -31.3720 C   0  0  0  0  0  0  0  0  0  0  0  0
   -7.9540   23.0500  -31.2350 C   0  0  0  0  0  0  0  0  0  0  0  0
   -6.4390   23.1330  -31.9580 S   0  0  0  0  0  0  0  0  0  0  0  0
   -6.3930   21.5240  -32.4490 C   0  0  0  0  0  0  0  0  0  0  0  0
   -1.3318   18.6068  -32.1133 H   0  0  0  0  0  0  0  0  0  0  0  0
   -2.2621   17.4441  -33.1179 H   0  0  0  0  0  0  0  0  0  0  0  0
   -0.4665   17.3949  -33.1179 H   0  0  0  0  0  0  0  0  0  0  0  0
   -0.3609   18.9448  -34.7587 H   0  0  0  0  0  0  0  0  0  0  0  0
   -2.1522   18.8070  -34.9095 H   0  0  0  0  0  0  0  0  0  0  0  0
    0.0978   21.8332  -33.5994 H   0  0  0  0  0  0  0  0  0  0  0  0
    0.1933   20.7129  -35.0004 H   0  0  0  0  0  0  0  0  0  0  0  0
   -1.0053   22.0509  -35.0004 H   0  0  0  0  0  0  0  0  0  0  0  0
   -0.9660   19.5263  -31.8878 H   0  0  0  0  0  0  0  0  0  0  0  0
   -0.6223   21.2916  -32.0056 H   0  0  0  0  0  0  0  0  0  0  0  0
   -3.3296   19.9115  -31.6832 H   0  0  0  0  0  0  0  0  0  0  0  0
   -2.5022   21.0875  -30.5660 H   0  0  0  0  0  0  0  0  0  0  0  0
   -4.1276   22.4209  -31.5696 H   0  0  0  0  0  0  0  0  0  0  0  0
   -2.6597   22.7177  -32.5954 H   0  0  0  0  0  0  0  0  0  0  0  0
   -3.5480   20.9390  -34.0660 H   0  0  0  0  0  0  0  0  0  0  0  0
   -4.3810   22.3760  -34.1020 H   0  0  0  0  0  0  0  0  0  0  0  0
   -3.6814   19.2018  -34.4502 H   0  0  0  0  0  0  0  0  0  0  0  0
   -4.0081   16.7722  -34.8353 H   0  0  0  0  0  0  0  0  0  0  0  0
   -6.0394   15.6288  -33.9764 H   0  0  0  0  0  0  0  0  0  0  0  0
   -7.8063   16.9191  -32.8093 H   0  0  0  0  0  0  0  0  0  0  0  0
   -9.2468   18.8954  -30.9966 H   0  0  0  0  0  0  0  0  0  0  0  0
   -9.9091   19.5771  -32.5209 H   0  0  0  0  0  0  0  0  0  0  0  0
   -9.1472   17.9503  -32.5209 H   0  0  0  0  0  0  0  0  0  0  0  0
   -9.4164   21.4330  -30.9719 H   0  0  0  0  0  0  0  0  0  0  0  0
   -8.4723   23.8820  -30.7359 H   0  0  0  0  0  0  0  0  0  0  0  0
  1  2  1  0
  2  3  1  0
  3  4  1  0
  3  5  1  0
  5  6  1  0
  6  7  1  0
  7  8  1  0
  8  9  1  0
  9 10  2  0
 10 11  1  0
 11 12  2  0
 12 13  1  0
 13 14  2  0
 14 15  1  0
 15 16  2  0
 16 17  1  0
 16 18  1  0
 18 19  1  0
 19 20  2  0
 20 21  1  0
 21 22  1  0
 22  9  1  0
 15 10  1  0
 22 18  2  0
  1 23  1  0
  1 24  1  0
  1 25  1  0
  2 26  1  0
  2 27  1  0
  4 28  1  0
  4 29  1  0
  4 30  1  0
  5 31  1  0
  5 32  1  0
  6 33  1  0
  6 34  1  0
  7 35  1  0
  7 36  1  0
  8 37  1  0
  8 38  1  0
 11 39  1  0
 12 40  1  0
 13 41  1  0
 14 42  1  0
 17 43  1  0
 17 44  1  0
 17 45  1  0
 19 46  1  0
 20 47  1  0
M  CHG  2   8   1  16   1
M  END
>  <UniqueID>  (3) 
3

>  <SMILES>  (3) 
CCN(C)CCC[NH2+]c1c2ccccc2[n+](C)c2ccsc12

>  <Energy>  (3) 
92.05656659730188

>  <Genealogy>  (3) 
CCN(C)CCC[NH2+]c1c2ccccc2[n+](C)c2ccsc12 (protonated)
CCN(C)CCC[NH2+]c1c2ccccc2[n+](C)c2ccsc12 (3D coordinates assigned)
CCN(C)CCC[NH2+]c1c2ccccc2[n+](C)c2ccsc12 (optimized conformer: 92.05656659730188 kcal/mol)

>  <smiles>  (3) 
CCN(C)CCCNc1c2ccccc2[n+](C)c2ccsc12

>  <score_type>  (3) 
oracle

>  <origin>  (3) 
adg

>  <m_score__min__energy>  (3) 
-7.6200000000000001

>  <m_primary>  (3) 
energy

$$$$
3:0
     RDKit          3D

 62 65  0  0  0  0  0  0  0  0999 V2000
    0.9640   22.8540  -36.0010 C   0  0  0  0  0  0  0  0  0  0  0  0
    0.5090   21.5840  -35.2910 C   0  0  0  0  0  0  0  0  0  0  0  0
   -0.4840   21.9080  -34.2560 N   0  0  0  0  0  0  0  0  0  0  0  0
   -0.3380   21.0760  -33.0480 C   0  0  0  0  0  0  0  0  0  0  0  0
   -1.6360   20.9880  -32.2290 C   0  0  0  0  0  0  0  0  0  0  0  0
   -2.7630   21.5800  -32.9490 N   0  0  0  0  0  0  0  0  0  0  0  0
   -4.0670   21.6180  -32.3510 C   0  0  0  0  0  0  0  0  0  0  0  0
   -5.0490   20.6920  -32.7410 C   0  0  0  0  0  0  0  0  0  0  0  0
   -4.7790   19.7270  -33.7360 C   0  0  0  0  0  0  0  0  0  0  0  0
   -5.7300   18.7670  -34.0720 C   0  0  0  0  0  0  0  0  0  0  0  0
   -6.9590   18.7490  -33.4230 C   0  0  0  0  0  0  0  0  0  0  0  0
   -7.2600   19.7130  -32.4610 C   0  0  0  0  0  0  0  0  0  0  0  0
   -6.3310   20.7320  -32.1290 C   0  0  0  0  0  0  0  0  0  0  0  0
   -6.6400   21.7370  -31.2320 N   0  0  0  0  0  0  0  0  0  0  0  0
   -8.0440   21.9500  -30.8170 C   0  0  0  0  0  0  0  0  0  0  0  0
   -5.6430   22.5670  -30.7500 C   0  0  0  0  0  0  0  0  0  0  0  0
   -5.8620   23.4390  -29.6560 C   0  0  0  0  0  0  0  0  0  0  0  0
   -4.8690   24.3130  -29.2190 C   0  0  0  0  0  0  0  0  0  0  0  0
   -3.6230   24.3440  -29.8380 C   0  0  0  0  0  0  0  0  0  0  0  0
   -2.6800   25.2710  -29.3570 O   0  0  0  0  0  0  0  0  0  0  0  0
   -1.4580   24.9690  -28.6800 C   0  0  0  0  0  0  0  0  0  0  0  0
   -1.2630   25.8870  -27.4540 C   0  0  0  0  0  0  0  0  0  0  0  0
   -1.9340   25.4120  -26.2140 N   0  0  1  0  0  0  0  0  0  0  0  0
   -3.2400   25.1140  -26.5050 O   0  0  0  0  0  0  0  0  0  0  0  0
   -1.2360   24.2720  -25.6000 C   0  0  0  0  0  0  0  0  0  0  0  0
   -0.5260   24.8390  -24.3870 C   0  0  0  0  0  0  0  0  0  0  0  0
   -0.7480   26.2240  -24.3550 O   0  0  0  0  0  0  0  0  0  0  0  0
   -1.8720   26.4530  -25.1660 C   0  0  0  0  0  0  0  0  0  0  0  0
   -3.3570   23.4420  -30.8810 C   0  0  0  0  0  0  0  0  0  0  0  0
   -4.3500   22.5460  -31.3360 C   0  0  0  0  0  0  0  0  0  0  0  0
    1.2363   23.6142  -35.2540 H   0  0  0  0  0  0  0  0  0  0  0  0
    1.8375   22.6292  -36.6306 H   0  0  0  0  0  0  0  0  0  0  0  0
    0.1465   23.2350  -36.6306 H   0  0  0  0  0  0  0  0  0  0  0  0
    0.0587   20.8992  -36.0247 H   0  0  0  0  0  0  0  0  0  0  0  0
    1.3792   21.1071  -34.8163 H   0  0  0  0  0  0  0  0  0  0  0  0
   -1.4450   21.7920  -34.6570 H   0  0  0  0  0  0  0  0  0  0  0  0
   -0.0447   20.0607  -33.3531 H   0  0  0  0  0  0  0  0  0  0  0  0
    0.4261   21.5455  -32.4110 H   0  0  0  0  0  0  0  0  0  0  0  0
   -1.8584   19.9305  -32.0235 H   0  0  0  0  0  0  0  0  0  0  0  0
   -1.4924   21.5461  -31.2921 H   0  0  0  0  0  0  0  0  0  0  0  0
   -2.6070   22.1320  -33.8230 H   0  0  0  0  0  0  0  0  0  0  0  0
   -3.8071   19.7338  -34.2511 H   0  0  0  0  0  0  0  0  0  0  0  0
   -5.5086   18.0228  -34.8512 H   0  0  0  0  0  0  0  0  0  0  0  0
   -7.6971   17.9714  -33.6691 H   0  0  0  0  0  0  0  0  0  0  0  0
   -8.2343   19.6825  -31.9512 H   0  0  0  0  0  0  0  0  0  0  0  0
   -8.1043   21.9592  -29.7187 H   0  0  0  0  0  0  0  0  0  0  0  0
   -8.4011   22.9126  -31.2119 H   0  0  0  0  0  0  0  0  0  0  0  0
   -8.6705   21.1366  -31.2119 H   0  0  0  0  0  0  0  0  0  0  0  0
   -6.8343   23.4261  -29.1416 H   0  0  0  0  0  0  0  0  0  0  0  0
   -5.0724   24.9872  -28.3739 H   0  0  0  0  0  0  0  0  0  0  0  0
   -1.4818   23.9216  -28.3449 H   0  0  0  0  0  0  0  0  0  0  0  0
   -0.6222   25.1320  -29.3763 H   0  0  0  0  0  0  0  0  0  0  0  0
   -0.1846   25.9661  -27.2522 H   0  0  0  0  0  0  0  0  0  0  0  0
   -1.7250   26.8520  -27.7094 H   0  0  0  0  0  0  0  0  0  0  0  0
   -3.4940   25.5610  -27.3560 H   0  0  0  0  0  0  0  0  0  0  0  0
   -1.9563   23.4978  -25.2971 H   0  0  0  0  0  0  0  0  0  0  0  0
   -0.5327   23.7981  -26.3006 H   0  0  0  0  0  0  0  0  0  0  0  0
   -0.9255   24.3769  -23.4722 H   0  0  0  0  0  0  0  0  0  0  0  0
    0.5521   24.6289  -24.4459 H   0  0  0  0  0  0  0  0  0  0  0  0
   -2.7836   26.4118  -24.5518 H   0  0  0  0  0  0  0  0  0  0  0  0
   -1.7945   27.4454  -25.6342 H   0  0  0  0  0  0  0  0  0  0  0  0
   -2.3620   23.4330  -31.3500 H   0  0  0  0  0  0  0  0  0  0  0  0
  1  2  1  0
  2  3  1  0
  3  4  1  0
  4  5  1  0
  5  6  1  0
  6  7  1  0
  7  8  2  0
  8  9  1  0
  9 10  2  0
 10 11  1  0
 11 12  2  0
 12 13  1  0
 13 14  2  0
 14 15  1  0
 14 16  1  0
 16 17  2  0
 17 18  1  0
 18 19  2  0
 19 20  1  0
 20 21  1  0
 21 22  1  0
 22 23  1  0
 23 24  1  6
 23 25  1  0
 25 26  1  0
 26 27  1  0
 27 28  1  0
 19 29  1  0
 29 30  2  0
 30  7  1  0
 13  8  1  0
 30 16  1  0
 28 23  1  0
  1 31  1  0
  1 32  1  0
  1 33  1  0
  2 34  1  0
  2 35  1  0
  3 36  1  0
  4 37  1  0
  4 38  1  0
  5 39  1  0
  5 40  1  0
  6 41  1  0
  9 42  1  0
 10 43  1  0
 11 44  1  0
 12 45  1  0
 15 46  1  0
 15 47  1  0
 15 48  1  0
 17 49  1  0
 18 50  1  0
 21 51  1  0
 21 52  1  0
 22 53  1  0
 22 54  1  0
 24 55  1  0
 25 56  1  0
 25 57  1  0
 26 58  1  0
 26 59  1  0
 28 60  1  0
 28 61  1  0
 29 62  1  0
M  CHG  2  14   1  23   1
M  END
>  <UniqueID>  (4) 
4

>  <SMILES>  (4) 
CCNCCNc1c2ccccc2[n+](C)c2ccc(OCC[N@@+]3(O)CCOC3)cc12

>  <Energy>  (4) 
99.61534587040859

>  <Genealogy>  (4) 
CCNCCNc1c2ccccc2[n+](C)c2ccc(OCC[N+]3(O)CCOC3)cc12 (protonated)
CCNCCNc1c2ccccc2[n+](C)c2ccc(OCC[N@@+]3(O)CCOC3)cc12 (chirality)
CCNCCNc1c2ccccc2[n+](C)c2ccc(OCC[N@@+]3(O)CCOC3)cc12 (3D coordinates assigned)
CCNCCNc1c2ccccc2[n+](C)c2ccc(OCC[N@@+]3(O)CCOC3)cc12 (nonaromatic ring conformer: 99.61534587040859 kcal/mol)

>  <smiles>  (4) 
CCNCCNc1c2ccccc2[n+](C)c2ccc(OCC[N+]3([O-])CCOC3)cc12

>  <score_type>  (4) 
oracle

>  <origin>  (4) 
adg

>  <m_score__min__energy>  (4) 
-8.4700000000000006

>  <m_primary>  (4) 
energy

$$$$
4:0
     RDKit          3D

 44 45  0  0  0  0  0  0  0  0999 V2000
   -4.1950   23.7840  -28.3340 C   0  0  0  0  0  0  0  0  0  0  0  0
   -3.6890   24.5670  -29.5570 C   0  0  0  0  0  0  0  0  0  0  0  0
   -4.2350   24.0860  -30.8490 N   0  0  0  0  0  0  0  0  0  0  0  0
   -4.2500   22.6080  -30.9530 C   0  0  0  0  0  0  0  0  0  0  0  0
   -3.4360   22.1720  -32.1630 C   0  0  0  0  0  0  0  0  0  0  0  0
   -5.5180   24.7280  -31.2170 C   0  0  0  0  0  0  0  0  0  0  0  0
   -6.6570   23.7000  -31.2500 C   0  0  0  0  0  0  0  0  0  0  0  0
   -6.6760   22.9490  -32.5030 N   0  0  0  0  0  0  0  0  0  0  0  0
   -6.9010   21.5350  -32.5320 C   0  0  0  0  0  0  0  0  0  0  0  0
   -6.0910   20.6610  -33.0690 O   0  0  0  0  0  0  0  0  0  0  0  0
   -6.6470   19.4760  -32.9060 C   0  0  0  0  0  0  0  0  0  0  0  0
   -6.0310   18.2180  -33.4050 C   0  0  0  0  0  0  0  0  0  0  0  0
   -6.8470   17.0710  -33.4690 C   0  0  0  0  0  0  0  0  0  0  0  0
   -6.3350   15.8510  -33.9090 C   0  0  0  0  0  0  0  0  0  0  0  0
   -5.0010   15.7510  -34.2940 C   0  0  0  0  0  0  0  0  0  0  0  0
   -4.1750   16.8740  -34.2500 C   0  0  0  0  0  0  0  0  0  0  0  0
   -4.6720   18.1170  -33.8170 C   0  0  0  0  0  0  0  0  0  0  0  0
   -3.7360   19.2980  -33.8190 C   0  0  0  0  0  0  0  0  0  0  0  0
   -7.8380   19.5500  -32.2630 N   0  0  0  0  0  0  0  0  0  0  0  0
   -7.9860   20.8660  -32.0260 C   0  0  0  0  0  0  0  0  0  0  0  0
   -9.1260   21.4440  -31.3690 C   0  0  0  0  0  0  0  0  0  0  0  0
  -10.0430   21.9110  -30.8400 N   0  0  0  0  0  0  0  0  0  0  0  0
   -3.8680   24.2900  -27.4137 H   0  0  0  0  0  0  0  0  0  0  0  0
   -5.2938   23.7384  -28.3568 H   0  0  0  0  0  0  0  0  0  0  0  0
   -3.7851   22.7635  -28.3568 H   0  0  0  0  0  0  0  0  0  0  0  0
   -3.9723   25.6227  -29.4333 H   0  0  0  0  0  0  0  0  0  0  0  0
   -2.5993   24.4230  -29.5986 H   0  0  0  0  0  0  0  0  0  0  0  0
   -3.8133   22.1726  -30.0421 H   0  0  0  0  0  0  0  0  0  0  0  0
   -5.2875   22.2607  -31.0668 H   0  0  0  0  0  0  0  0  0  0  0  0
   -2.5132   21.6777  -31.8253 H   0  0  0  0  0  0  0  0  0  0  0  0
   -4.0274   21.4699  -32.7691 H   0  0  0  0  0  0  0  0  0  0  0  0
   -3.1792   23.0533  -32.7691 H   0  0  0  0  0  0  0  0  0  0  0  0
   -5.7566   25.5058  -30.4766 H   0  0  0  0  0  0  0  0  0  0  0  0
   -5.4146   25.1693  -32.2193 H   0  0  0  0  0  0  0  0  0  0  0  0
   -6.5251   22.9959  -30.4152 H   0  0  0  0  0  0  0  0  0  0  0  0
   -7.6096   24.2433  -31.1633 H   0  0  0  0  0  0  0  0  0  0  0  0
   -6.5850   23.4700  -33.4030 H   0  0  0  0  0  0  0  0  0  0  0  0
   -7.9027   17.1390  -33.1676 H   0  0  0  0  0  0  0  0  0  0  0  0
   -6.9865   14.9658  -33.9520 H   0  0  0  0  0  0  0  0  0  0  0  0
   -4.5979   14.7854  -34.6333 H   0  0  0  0  0  0  0  0  0  0  0  0
   -3.1225   16.7868  -34.5575 H   0  0  0  0  0  0  0  0  0  0  0  0
   -3.5074   19.5864  -32.7824 H   0  0  0  0  0  0  0  0  0  0  0  0
   -2.8048   19.0270  -34.3380 H   0  0  0  0  0  0  0  0  0  0  0  0
   -4.2126   20.1427  -34.3380 H   0  0  0  0  0  0  0  0  0  0  0  0
  1  2  1  0
  2  3  1  0
  3  4  1  0
  4  5  1  0
  3  6  1  0
  6  7  1  0
  7  8  1  0
  8  9  1  0
  9 10  1  0
 10 11  1  0
 11 12  1  0
 12 13  2  0
 13 14  1  0
 14 15  2  0
 15 16  1  0
 16 17  2  0
 17 18  1  0
 11 19  2  0
 19 20  1  0
 20 21  1  0
 21 22  3  0
 20  9  2  0
 17 12  1  0
  1 23  1  0
  1 24  1  0
  1 25  1  0
  2 26  1  0
  2 27  1  0
  4 28  1  0
  4 29  1  0
  5 30  1  0
  5 31  1  0
  5 32  1  0
  6 33  1  0
  6 34  1  0
  7 35  1  0
  7 36  1  0
  8 37  1  0
 13 38  1  0
 14 39  1  0
 15 40  1  0
 16 41  1  0
 18 42  1  0
 18 43  1  0
 18 44  1  0
M  END
>  <UniqueID>  (5) 
5

>  <SMILES>  (5) 
CCN(CC)CCNc1oc(-c2ccccc2C)nc1C#N

>  <Energy>  (5) 
74.61382049501849

>  <Genealogy>  (5) 
CCN(CC)CCNc1oc(-c2ccccc2C)nc1C#N (3D coordinates assigned)
CCN(CC)CCNc1oc(-c2ccccc2C)nc1C#N (optimized conformer: 74.61382049501849 kcal/mol)

>  <smiles>  (5) 
CCN(CC)CCNc1oc(-c2ccccc2C)nc1C#N

>  <score_type>  (5) 
oracle

>  <origin>  (5) 
adg

>  <m_score__min__energy>  (5) 
-6.79

>  <m_primary>  (5) 
energy

$$$$
5:0
     RDKit          3D

 49 51  0  0  0  0  0  0  0  0999 V2000
   -5.6680   17.8930  -34.8680 C   0  0  0  0  0  0  0  0  0  0  0  0
   -6.4070   17.9740  -33.5260 C   0  0  0  0  0  0  0  0  0  0  0  0
   -7.2050   19.2230  -33.3970 N   0  0  0  0  0  0  0  0  0  0  0  0
   -7.9880   19.2070  -32.1310 C   0  0  0  0  0  0  0  0  0  0  0  0
   -9.4720   19.5140  -32.3630 C   0  0  0  0  0  0  0  0  0  0  0  0
   -6.3070   20.4110  -33.4330 C   0  0  0  0  0  0  0  0  0  0  0  0
   -6.8840   21.5950  -32.6370 C   0  0  0  0  0  0  0  0  0  0  0  0
   -5.8940   22.6680  -32.5430 N   0  0  0  0  0  0  0  0  0  0  0  0
   -5.4980   23.2820  -31.2990 C   0  0  0  0  0  0  0  0  0  0  0  0
   -6.0750   24.4910  -30.8980 C   0  0  0  0  0  0  0  0  0  0  0  0
   -5.6970   25.0770  -29.7010 C   0  0  0  0  0  0  0  0  0  0  0  0
   -4.6850   24.5020  -28.9410 C   0  0  0  0  0  0  0  0  0  0  0  0
   -4.0170   23.3780  -29.3650 N   0  0  0  0  0  0  0  0  0  0  0  0
   -4.5010   22.6950  -30.4740 C   0  0  0  0  0  0  0  0  0  0  0  0
   -4.0640   21.3820  -30.7260 C   0  0  0  0  0  0  0  0  0  0  0  0
   -3.1660   20.7710  -29.8680 C   0  0  0  0  0  0  0  0  0  0  0  0
   -2.5990   21.4940  -28.8220 C   0  0  0  0  0  0  0  0  0  0  0  0
   -1.6740   20.8730  -27.9730 C   0  0  0  0  0  0  0  0  0  0  0  0
   -1.0470   21.6020  -26.9680 C   0  0  0  0  0  0  0  0  0  0  0  0
   -1.2710   22.9700  -26.8590 C   0  0  0  0  0  0  0  0  0  0  0  0
   -2.1680   23.6260  -27.7210 C   0  0  0  0  0  0  0  0  0  0  0  0
   -2.1070   25.0610  -27.7850 N   0  0  0  0  0  0  0  0  0  0  0  0
   -2.2150   25.7430  -26.7450 O   0  0  0  0  0  0  0  0  0  0  0  0
   -1.7150   25.6790  -28.9510 O   0  0  0  0  0  0  0  0  0  0  0  0
   -2.9530   22.8570  -28.6400 C   0  0  0  0  0  0  0  0  0  0  0  0
   -4.5896   17.7748  -34.6862 H   0  0  0  0  0  0  0  0  0  0  0  0
   -6.0401   17.0303  -35.4400 H   0  0  0  0  0  0  0  0  0  0  0  0
   -5.8444   18.8159  -35.4400 H   0  0  0  0  0  0  0  0  0  0  0  0
   -7.0840   17.1111  -33.4420 H   0  0  0  0  0  0  0  0  0  0  0  0
   -5.6529   17.9715  -32.7252 H   0  0  0  0  0  0  0  0  0  0  0  0
   -7.8710   19.2820  -34.2040 H   0  0  0  0  0  0  0  0  0  0  0  0
   -7.8999   18.2109  -31.6727 H   0  0  0  0  0  0  0  0  0  0  0  0
   -7.5808   19.9885  -31.4726 H   0  0  0  0  0  0  0  0  0  0  0  0
   -9.9806   19.6192  -31.3933 H   0  0  0  0  0  0  0  0  0  0  0  0
   -9.5681   20.4511  -32.9311 H   0  0  0  0  0  0  0  0  0  0  0  0
   -9.9320   18.6920  -32.9311 H   0  0  0  0  0  0  0  0  0  0  0  0
   -5.3339   20.1337  -33.0015 H   0  0  0  0  0  0  0  0  0  0  0  0
   -6.2024   20.7258  -34.4818 H   0  0  0  0  0  0  0  0  0  0  0  0
   -7.7825   21.9727  -33.1468 H   0  0  0  0  0  0  0  0  0  0  0  0
   -7.1436   21.2550  -31.6236 H   0  0  0  0  0  0  0  0  0  0  0  0
   -5.5330   23.0600  -33.4410 H   0  0  0  0  0  0  0  0  0  0  0  0
   -6.8297   24.9772  -31.5336 H   0  0  0  0  0  0  0  0  0  0  0  0
   -6.1957   25.9937  -29.3533 H   0  0  0  0  0  0  0  0  0  0  0  0
   -4.4123   24.9573  -27.9775 H   0  0  0  0  0  0  0  0  0  0  0  0
   -4.4369   20.8393  -31.6072 H   0  0  0  0  0  0  0  0  0  0  0  0
   -2.9001   19.7135  -30.0127 H   0  0  0  0  0  0  0  0  0  0  0  0
   -1.4427   19.8053  -28.1015 H   0  0  0  0  0  0  0  0  0  0  0  0
   -0.3742   21.0965  -26.2597 H   0  0  0  0  0  0  0  0  0  0  0  0
   -0.7394   23.5470  -26.0880 H   0  0  0  0  0  0  0  0  0  0  0  0
  1  2  1  0
  2  3  1  0
  3  4  1  0
  4  5  1  0
  3  6  1  0
  6  7  1  0
  7  8  1  0
  8  9  1  0
  9 10  2  0
 10 11  1  0
 11 12  2  0
 12 13  1  0
 13 14  2  0
 14 15  1  0
 15 16  2  0
 16 17  1  0
 17 18  2  0
 18 19  1  0
 19 20  2  0
 20 21  1  0
 21 22  1  0
 22 23  2  0
 22 24  1  0
 21 25  2  0
 14  9  1  0
 25 17  1  0
 25 13  1  0
  1 26  1  0
  1 27  1  0
  1 28  1  0
  2 29  1  0
  2 30  1  0
  3 31  1  0
  4 32  1  0
  4 33  1  0
  5 34  1  0
  5 35  1  0
  5 36  1  0
  6 37  1  0
  6 38  1  0
  7 39  1  0
  7 40  1  0
  8 41  1  0
 10 42  1  0
 11 43  1  0
 12 44  1  0
 15 45  1  0
 16 46  1  0
 18 47  1  0
 19 48  1  0
 20 49  1  0
M  CHG  4   3   1  13   1  22   1  24  -1
M  END
>  <UniqueID>  (6) 
6

>  <SMILES>  (6) 
CC[NH+](CC)CCNc1ccc[n+]2c1ccc1cccc([N+](=O)[O-])c12

>  <Energy>  (6) 
82.98106819747193

>  <Genealogy>  (6) 
CC[NH+](CC)CCNc1ccc[n+]2c1ccc1cccc([N+](=O)[O-])c12 (protonated)
CC[NH+](CC)CCNc1ccc[n+]2c1ccc1cccc([N+](=O)[O-])c12 (3D coordinates assigned)
CC[NH+](CC)CCNc1ccc[n+]2c1ccc1cccc([N+](=O)[O-])c12 (optimized conformer: 82.98106819747193 kcal/mol)

>  <smiles>  (6) 
CCN(CC)CCNc1ccc[n+]2c1ccc1cccc([N+](=O)[O-])c12

>  <score_type>  (6) 
oracle

>  <origin>  (6) 
adg

>  <m_score__min__energy>  (6) 
-6.8300000000000001

>  <m_primary>  (6) 
energy

$$$$
6:0
     RDKit          3D

 61 65  0  0  0  0  0  0  0  0999 V2000
   -9.9160   21.2710  -32.0000 C   0  0  0  0  0  0  0  0  0  0  0  0
   -8.4690   21.0770  -31.9380 N   0  0  0  0  0  0  0  0  0  0  0  0
   -7.7640   19.9470  -32.2160 C   0  0  0  0  0  0  0  0  0  0  0  0
   -8.3720   18.6740  -32.7370 C   0  0  0  0  0  0  0  0  0  0  0  0
   -7.6300   17.5400  -32.2880 O   0  0  0  0  0  0  0  0  0  0  0  0
   -6.4460   17.0660  -32.8780 C   0  0  0  0  0  0  0  0  0  0  0  0
   -5.6740   16.0310  -32.3110 C   0  0  0  0  0  0  0  0  0  0  0  0
   -4.4970   15.6080  -32.9360 C   0  0  0  0  0  0  0  0  0  0  0  0
   -4.0810   16.2070  -34.1270 C   0  0  0  0  0  0  0  0  0  0  0  0
   -4.8420   17.2300  -34.6970 C   0  0  0  0  0  0  0  0  0  0  0  0
   -6.0200   17.6560  -34.0750 C   0  0  0  0  0  0  0  0  0  0  0  0
   -6.4290   20.0780  -31.9990 N   0  0  0  0  0  0  0  0  0  0  0  0
   -6.3180   21.3340  -31.5340 C   0  0  0  0  0  0  0  0  0  0  0  0
   -5.1590   21.9830  -31.1210 C   0  0  0  0  0  0  0  0  0  0  0  0
   -5.2700   23.3070  -30.6350 C   0  0  0  0  0  0  0  0  0  0  0  0
   -4.0640   24.0290  -30.1660 C   0  0  0  0  0  0  0  0  0  0  0  0
   -3.8620   25.2130  -30.5500 O   0  0  0  0  0  0  0  0  0  0  0  0
   -3.1020   23.3980  -29.3020 N   0  0  0  0  0  0  0  0  0  0  0  0
   -3.5490   22.8230  -28.0240 C   0  0  0  0  0  0  0  0  0  0  0  0
   -2.7360   21.5740  -27.6600 C   0  0  0  0  0  0  0  0  0  0  0  0
   -2.4330   20.6430  -28.8460 C   0  0  0  0  0  0  0  0  0  0  0  0
   -1.2080   21.0270  -29.5660 N   0  0  0  0  0  0  0  0  0  0  0  0
   -0.0450   20.1920  -29.4630 C   0  0  0  0  0  0  0  0  0  0  0  0
    0.6360   19.7880  -30.6210 C   0  0  0  0  0  0  0  0  0  0  0  0
    1.7730   18.9800  -30.5260 C   0  0  0  0  0  0  0  0  0  0  0  0
    2.2350   18.5670  -29.2730 C   0  0  0  0  0  0  0  0  0  0  0  0
    1.5620   18.9630  -28.1140 C   0  0  0  0  0  0  0  0  0  0  0  0
    0.4250   19.7750  -28.2050 C   0  0  0  0  0  0  0  0  0  0  0  0
   -0.2260   20.1310  -27.0720 F   0  0  0  0  0  0  0  0  0  0  0  0
   -1.0970   22.2750  -30.3440 C   0  0  0  0  0  0  0  0  0  0  0  0
   -1.6780   23.5200  -29.6590 C   0  0  0  0  0  0  0  0  0  0  0  0
   -6.5520   23.9190  -30.5640 C   0  0  0  0  0  0  0  0  0  0  0  0
   -7.7020   23.2350  -30.9970 C   0  0  0  0  0  0  0  0  0  0  0  0
   -7.5410   21.9370  -31.4830 C   0  0  0  0  0  0  0  0  0  0  0  0
  -10.3227   21.3255  -30.9794 H   0  0  0  0  0  0  0  0  0  0  0  0
  -10.1379   22.2069  -32.5336 H   0  0  0  0  0  0  0  0  0  0  0  0
  -10.3766   20.4266  -32.5336 H   0  0  0  0  0  0  0  0  0  0  0  0
   -9.4078   18.5941  -32.3754 H   0  0  0  0  0  0  0  0  0  0  0  0
   -8.3525   18.6968  -33.8366 H   0  0  0  0  0  0  0  0  0  0  0  0
   -5.9988   15.5550  -31.3741 H   0  0  0  0  0  0  0  0  0  0  0  0
   -3.8973   14.8016  -32.4886 H   0  0  0  0  0  0  0  0  0  0  0  0
   -3.1540   15.8731  -34.6161 H   0  0  0  0  0  0  0  0  0  0  0  0
   -4.5147   17.7009  -35.6357 H   0  0  0  0  0  0  0  0  0  0  0  0
   -6.6167   18.4607  -34.5293 H   0  0  0  0  0  0  0  0  0  0  0  0
   -4.1820   21.4800  -31.1710 H   0  0  0  0  0  0  0  0  0  0  0  0
   -3.4258   23.5746  -27.2303 H   0  0  0  0  0  0  0  0  0  0  0  0
   -4.6052   22.5326  -28.1245 H   0  0  0  0  0  0  0  0  0  0  0  0
   -1.7793   21.9009  -27.2266 H   0  0  0  0  0  0  0  0  0  0  0  0
   -3.3510   20.9942  -26.9560 H   0  0  0  0  0  0  0  0  0  0  0  0
   -2.3127   19.6173  -28.4674 H   0  0  0  0  0  0  0  0  0  0  0  0
   -3.2729   20.7177  -29.5524 H   0  0  0  0  0  0  0  0  0  0  0  0
    0.2735   20.1086  -31.6089 H   0  0  0  0  0  0  0  0  0  0  0  0
    2.3043   18.6691  -31.4377 H   0  0  0  0  0  0  0  0  0  0  0  0
    3.1287   17.9300  -29.1992 H   0  0  0  0  0  0  0  0  0  0  0  0
    1.9261   18.6363  -27.1288 H   0  0  0  0  0  0  0  0  0  0  0  0
   -0.0309   22.4604  -30.5415 H   0  0  0  0  0  0  0  0  0  0  0  0
   -1.6901   22.1217  -31.2577 H   0  0  0  0  0  0  0  0  0  0  0  0
   -1.1055   23.7073  -28.7386 H   0  0  0  0  0  0  0  0  0  0  0  0
   -1.6007   24.3459  -30.3814 H   0  0  0  0  0  0  0  0  0  0  0  0
   -6.6451   24.9400  -30.1654 H   0  0  0  0  0  0  0  0  0  0  0  0
   -8.6946   23.7072  -30.9540 H   0  0  0  0  0  0  0  0  0  0  0  0
  1  2  1  0
  2  3  1  0
  3  4  1  0
  4  5  1  0
  5  6  1  0
  6  7  2  0
  7  8  1  0
  8  9  2  0
  9 10  1  0
 10 11  2  0
  3 12  2  0
 12 13  1  0
 13 14  2  0
 14 15  1  0
 15 16  1  0
 16 17  2  0
 16 18  1  0
 18 19  1  0
 19 20  1  0
 20 21  1  0
 21 22  1  0
 22 23  1  0
 23 24  2  0
 24 25  1  0
 25 26  2  0
 26 27  1  0
 27 28  2  0
 28 29  1  0
 22 30  1  0
 30 31  1  0
 15 32  2  0
 32 33  1  0
 33 34  2  0
 34  2  1  0
 11  6  1  0
 34 13  1  0
 31 18  1  0
 28 23  1  0
  1 35  1  0
  1 36  1  0
  1 37  1  0
  4 38  1  0
  4 39  1  0
  7 40  1  0
  8 41  1  0
  9 42  1  0
 10 43  1  0
 11 44  1  0
 14 45  1  0
 19 46  1  0
 19 47  1  0
 20 48  1  0
 20 49  1  0
 21 50  1  0
 21 51  1  0
 24 52  1  0
 25 53  1  0
 26 54  1  0
 27 55  1  0
 30 56  1  0
 30 57  1  0
 31 58  1  0
 31 59  1  0
 32 60  1  0
 33 61  1  0
M  END
>  <UniqueID>  (7) 
7

>  <SMILES>  (7) 
Cn1c(COc2ccccc2)nc2cc(C(=O)N3CCCN(c4ccccc4F)CC3)ccc21

>  <Energy>  (7) 
117.66790747781025

>  <Genealogy>  (7) 
Cn1c(COc2ccccc2)nc2cc(C(=O)N3CCCN(c4ccccc4F)CC3)ccc21 (3D coordinates assigned)
Cn1c(COc2ccccc2)nc2cc(C(=O)N3CCCN(c4ccccc4F)CC3)ccc21 (nonaromatic ring conformer: 117.66790747781025 kcal/mol)

>  <smiles>  (7) 
Cn1c(COc2ccccc2)nc2cc(C(=O)N3CCCN(c4ccccc4F)CC3)ccc21

>  <score_type>  (7) 
oracle

>  <origin>  (7) 
adg

>  <m_score__min__energy>  (7) 
-6.4299999999999997

>  <m_primary>  (7) 
energy

$$$$
7:0
     RDKit          3D

 66 72  0  0  0  0  0  0  0  0999 V2000
   -4.0710   13.0130  -38.8510 C   0  0  0  0  0  0  0  0  0  0  0  0
   -3.5870   12.9600  -37.4060 C   0  0  0  0  0  0  0  0  0  0  0  0
   -2.5750   13.9900  -37.1710 N   0  0  0  0  0  0  0  0  0  0  0  0
   -1.4300   14.1540  -37.8750 C   0  0  0  0  0  0  0  0  0  0  0  0
   -0.6680   15.1830  -37.3340 C   0  0  0  0  0  0  0  0  0  0  0  0
   -1.3900   15.6410  -36.2530 C   0  0  0  0  0  0  0  0  0  0  0  0
   -1.0960   16.6450  -35.3360 C   0  0  0  0  0  0  0  0  0  0  0  0
   -2.0140   16.8900  -34.2910 C   0  0  0  0  0  0  0  0  0  0  0  0
   -1.6910   17.9400  -33.2990 C   0  0  0  0  0  0  0  0  0  0  0  0
   -0.4170   18.0230  -32.7090 C   0  0  0  0  0  0  0  0  0  0  0  0
   -0.1490   19.0330  -31.7810 C   0  0  0  0  0  0  0  0  0  0  0  0
   -1.1440   19.9540  -31.4530 C   0  0  0  0  0  0  0  0  0  0  0  0
   -2.3930   19.8500  -32.0730 C   0  0  0  0  0  0  0  0  0  0  0  0
   -2.6390   18.8660  -32.9760 N   0  0  0  0  0  0  0  0  0  0  0  0
   -3.3900   20.8580  -31.7370 C   0  0  0  0  0  0  0  0  0  0  0  0
   -4.6040   20.9900  -32.3170 N   0  0  0  0  0  0  0  0  0  0  0  0
   -5.1300   22.0690  -31.7120 C   0  0  0  0  0  0  0  0  0  0  0  0
   -6.3600   22.6650  -31.9680 C   0  0  0  0  0  0  0  0  0  0  0  0
   -6.6890   23.8210  -31.2420 C   0  0  0  0  0  0  0  0  0  0  0  0
   -5.7960   24.3460  -30.2860 C   0  0  0  0  0  0  0  0  0  0  0  0
   -4.5580   23.7160  -30.0270 C   0  0  0  0  0  0  0  0  0  0  0  0
   -3.6700   24.2760  -29.0000 C   0  0  0  0  0  0  0  0  0  0  0  0
   -2.4710   24.8110  -29.3490 N   0  0  0  0  0  0  0  0  0  0  0  0
   -1.6200   25.2970  -28.4060 C   0  0  0  0  0  0  0  0  0  0  0  0
   -1.9700   25.2380  -27.0590 C   0  0  0  0  0  0  0  0  0  0  0  0
   -3.1940   24.6680  -26.7150 C   0  0  0  0  0  0  0  0  0  0  0  0
   -4.0160   24.1930  -27.6870 N   0  0  0  0  0  0  0  0  0  0  0  0
   -4.2500   22.5670  -30.7810 C   0  0  0  0  0  0  0  0  0  0  0  0
   -3.1330   21.8050  -30.8090 N   0  0  0  0  0  0  0  0  0  0  0  0
   -1.9060   21.8550  -30.0040 C   0  0  0  0  0  0  0  0  0  0  0  0
   -0.8880   20.9900  -30.5400 O   0  0  0  0  0  0  0  0  0  0  0  0
   -3.2220   16.1290  -34.2190 C   0  0  0  0  0  0  0  0  0  0  0  0
   -4.2190   16.4210  -33.2280 N   0  0  0  0  0  0  0  0  0  0  0  0
   -4.5810   15.4020  -32.2470 C   0  0  0  0  0  0  0  0  0  0  0  0
   -5.3190   17.7340  -33.5070 S   0  0  0  0  0  0  0  0  0  0  0  0
   -6.8560   17.0940  -34.1350 C   0  0  0  0  0  0  0  0  0  0  0  0
   -5.5620   18.4700  -32.2190 O   0  0  0  0  0  0  0  0  0  0  0  0
   -4.7400   18.6910  -34.5110 O   0  0  0  0  0  0  0  0  0  0  0  0
   -3.4750   15.1150  -35.1660 C   0  0  0  0  0  0  0  0  0  0  0  0
   -2.5350   14.8980  -36.1740 C   0  0  0  0  0  0  0  0  0  0  0  0
   -5.1643   13.1327  -38.8673 H   0  0  0  0  0  0  0  0  0  0  0  0
   -3.6011   13.8651  -39.3641 H   0  0  0  0  0  0  0  0  0  0  0  0
   -3.7967   12.0794  -39.3641 H   0  0  0  0  0  0  0  0  0  0  0  0
   -4.4394   13.1283  -36.7315 H   0  0  0  0  0  0  0  0  0  0  0  0
   -3.1432   11.9721  -37.2135 H   0  0  0  0  0  0  0  0  0  0  0  0
   -1.1429   13.5563  -38.7527 H   0  0  0  0  0  0  0  0  0  0  0  0
    0.3040   15.5529  -37.6923 H   0  0  0  0  0  0  0  0  0  0  0  0
   -0.1709   17.2338  -35.4227 H   0  0  0  0  0  0  0  0  0  0  0  0
    0.3645   17.2966  -32.9766 H   0  0  0  0  0  0  0  0  0  0  0  0
    0.8431   19.1015  -31.3109 H   0  0  0  0  0  0  0  0  0  0  0  0
   -5.0270   20.4050  -33.0720 H   0  0  0  0  0  0  0  0  0  0  0  0
   -7.0514   22.2453  -32.7135 H   0  0  0  0  0  0  0  0  0  0  0  0
   -7.6521   24.3214  -31.4209 H   0  0  0  0  0  0  0  0  0  0  0  0
   -6.0665   25.2583  -29.7342 H   0  0  0  0  0  0  0  0  0  0  0  0
   -0.6571   25.7359  -28.7064 H   0  0  0  0  0  0  0  0  0  0  0  0
   -1.2956   25.6324  -26.2847 H   0  0  0  0  0  0  0  0  0  0  0  0
   -3.4942   24.6027  -25.6588 H   0  0  0  0  0  0  0  0  0  0  0  0
   -1.5278   22.8879  -29.9926 H   0  0  0  0  0  0  0  0  0  0  0  0
   -2.1469   21.5150  -28.9860 H   0  0  0  0  0  0  0  0  0  0  0  0
   -4.4386   15.8027  -31.2325 H   0  0  0  0  0  0  0  0  0  0  0  0
   -5.6349   15.1184  -32.3847 H   0  0  0  0  0  0  0  0  0  0  0  0
   -3.9422   14.5171  -32.3847 H   0  0  0  0  0  0  0  0  0  0  0  0
   -7.5106   16.8214  -33.2940 H   0  0  0  0  0  0  0  0  0  0  0  0
   -7.3490   17.8616  -34.7496 H   0  0  0  0  0  0  0  0  0  0  0  0
   -6.6585   16.2033  -34.7496 H   0  0  0  0  0  0  0  0  0  0  0  0
   -4.3917   14.5095  -35.1112 H   0  0  0  0  0  0  0  0  0  0  0  0
  1  2  1  0
  2  3  1  0
  3  4  1  0
  4  5  2  0
  5  6  1  0
  6  7  2  0
  7  8  1  0
  8  9  1  0
  9 10  2  0
 10 11  1  0
 11 12  2  0
 12 13  1  0
 13 14  2  0
 13 15  1  0
 15 16  2  0
 16 17  1  0
 17 18  2  0
 18 19  1  0
 19 20  2  0
 20 21  1  0
 21 22  1  0
 22 23  2  0
 23 24  1  0
 24 25  2  0
 25 26  1  0
 26 27  2  0
 21 28  2  0
 28 29  1  0
 29 30  1  0
 30 31  1  0
  8 32  2  0
 32 33  1  0
 33 34  1  0
 33 35  1  0
 35 36  1  0
 35 37  2  0
 35 38  2  0
 32 39  1  0
 39 40  2  0
 40  3  1  0
 40  6  1  0
 14  9  1  0
 29 15  1  0
 31 12  1  0
 28 17  1  0
 27 22  1  0
  1 41  1  0
  1 42  1  0
  1 43  1  0
  2 44  1  0
  2 45  1  0
  4 46  1  0
  5 47  1  0
  7 48  1  0
 10 49  1  0
 11 50  1  0
 16 51  1  0
 18 52  1  0
 19 53  1  0
 20 54  1  0
 24 55  1  0
 25 56  1  0
 26 57  1  0
 30 58  1  0
 30 59  1  0
 34 60  1  0
 34 61  1  0
 34 62  1  0
 36 63  1  0
 36 64  1  0
 36 65  1  0
 39 66  1  0
M  CHG  1  16   1
M  END
>  <UniqueID>  (8) 
8

>  <SMILES>  (8) 
CCn1ccc2cc(-c3ccc4c(n3)-c3[nH+]c5cccc(-c6ncccn6)c5n3CO4)c(N(C)S(C)(=O)=O)cc21

>  <Energy>  (8) 
164.5195583496064

>  <Genealogy>  (8) 
CCn1ccc2cc(-c3ccc4c(n3)-c3[nH+]c5cccc(-c6ncccn6)c5n3CO4)c(N(C)S(C)(=O)=O)cc21 (protonated)
CCn1ccc2cc(-c3ccc4c(n3)-c3[nH+]c5cccc(-c6ncccn6)c5n3CO4)c(N(C)S(C)(=O)=O)cc21 (3D coordinates assigned)
CCn1ccc2cc(-c3ccc4c(n3)-c3[nH+]c5cccc(-c6ncccn6)c5n3CO4)c(N(C)S(C)(=O)=O)cc21 (nonaromatic ring conformer: 164.5195583496064 kcal/mol)

>  <smiles>  (8) 
CCn1ccc2cc(-c3ccc4c(n3)-c3nc5cccc(-c6ncccn6)c5n3CO4)c(N(C)S(C)(=O)=O)cc21

>  <score_type>  (8) 
oracle

>  <origin>  (8) 
adg

>  <m_score__min__energy>  (8) 
-8.5600000000000005

>  <m_primary>  (8) 
energy

$$$$
8:0
     RDKit          3D

 43 45  0  0  0  0  0  0  0  0999 V2000
   -4.0010   24.3820  -26.8360 C   0  0  0  0  0  0  0  0  0  0  0  0
   -4.2280   23.0240  -27.4870 C   0  0  0  0  0  0  0  0  0  0  0  0
   -2.9910   22.5390  -28.1070 N   0  0  0  0  0  0  0  0  0  0  0  0
   -2.1740   23.1720  -28.9990 C   0  0  0  0  0  0  0  0  0  0  0  0
   -2.3830   24.5410  -29.5210 C   0  0  0  0  0  0  0  0  0  0  0  0
   -1.5960   25.4670  -29.1940 O   0  0  0  0  0  0  0  0  0  0  0  0
   -3.4340   24.8320  -30.4510 N   0  0  0  0  0  0  0  0  0  0  0  0
   -4.5620   23.9810  -30.7110 C   0  0  0  0  0  0  0  0  0  0  0  0
   -4.4130   22.7560  -31.4040 C   0  0  0  0  0  0  0  0  0  0  0  0
   -3.0650   22.2530  -31.8520 C   0  0  0  0  0  0  0  0  0  0  0  0
   -5.5490   21.9870  -31.6990 C   0  0  0  0  0  0  0  0  0  0  0  0
   -6.8210   22.4020  -31.2840 C   0  0  0  0  0  0  0  0  0  0  0  0
   -8.0230   21.5490  -31.5700 C   0  0  0  0  0  0  0  0  0  0  0  0
   -6.9540   23.5770  -30.5360 C   0  0  0  0  0  0  0  0  0  0  0  0
   -5.8330   24.3680  -30.2410 C   0  0  0  0  0  0  0  0  0  0  0  0
   -6.0070   25.6540  -29.4800 C   0  0  0  0  0  0  0  0  0  0  0  0
   -1.1110   22.4140  -29.3780 N   0  0  0  0  0  0  0  0  0  0  0  0
   -1.2790   21.2750  -28.6850 C   0  0  0  0  0  0  0  0  0  0  0  0
   -0.4630   20.1470  -28.6990 C   0  0  0  0  0  0  0  0  0  0  0  0
   -0.8320   19.0630  -27.8820 C   0  0  0  0  0  0  0  0  0  0  0  0
   -1.9920   19.1330  -27.0790 C   0  0  0  0  0  0  0  0  0  0  0  0
   -2.7960   20.2890  -27.0900 C   0  0  0  0  0  0  0  0  0  0  0  0
   -2.4020   21.3460  -27.9140 C   0  0  0  0  0  0  0  0  0  0  0  0
   -4.0194   24.2717  -25.7417 H   0  0  0  0  0  0  0  0  0  0  0  0
   -3.0240   24.7795  -27.1481 H   0  0  0  0  0  0  0  0  0  0  0  0
   -4.7957   25.0756  -27.1481 H   0  0  0  0  0  0  0  0  0  0  0  0
   -4.5550   22.3054  -26.7210 H   0  0  0  0  0  0  0  0  0  0  0  0
   -4.9994   23.1265  -28.2645 H   0  0  0  0  0  0  0  0  0  0  0  0
   -2.4481   22.0228  -30.9708 H   0  0  0  0  0  0  0  0  0  0  0  0
   -3.1954   21.3430  -32.4561 H   0  0  0  0  0  0  0  0  0  0  0  0
   -2.5674   23.0260  -32.4561 H   0  0  0  0  0  0  0  0  0  0  0  0
   -5.4396   21.0484  -32.2621 H   0  0  0  0  0  0  0  0  0  0  0  0
   -8.4777   21.2264  -30.6217 H   0  0  0  0  0  0  0  0  0  0  0  0
   -8.7558   22.1303  -32.1489 H   0  0  0  0  0  0  0  0  0  0  0  0
   -7.7162   20.6654  -32.1489 H   0  0  0  0  0  0  0  0  0  0  0  0
   -7.9470   23.8837  -30.1756 H   0  0  0  0  0  0  0  0  0  0  0  0
   -5.9791   25.4476  -28.3999 H   0  0  0  0  0  0  0  0  0  0  0  0
   -5.1945   26.3478  -29.7418 H   0  0  0  0  0  0  0  0  0  0  0  0
   -6.9746   26.1070  -29.7418 H   0  0  0  0  0  0  0  0  0  0  0  0
    0.4390   20.1049  -29.3272 H   0  0  0  0  0  0  0  0  0  0  0  0
   -0.2126   18.1541  -27.8683 H   0  0  0  0  0  0  0  0  0  0  0  0
   -2.2687   18.2801  -26.4418 H   0  0  0  0  0  0  0  0  0  0  0  0
   -3.7029   20.3573  -26.4712 H   0  0  0  0  0  0  0  0  0  0  0  0
  1  2  1  0
  2  3  1  0
  3  4  1  0
  4  5  1  0
  5  6  2  0
  5  7  1  0
  7  8  1  0
  8  9  2  0
  9 10  1  0
  9 11  1  0
 11 12  2  0
 12 13  1  0
 12 14  1  0
 14 15  2  0
 15 16  1  0
  4 17  2  0
 17 18  1  0
 18 19  2  0
 19 20  1  0
 20 21  2  0
 21 22  1  0
 22 23  2  0
 23  3  1  0
 15  8  1  0
 23 18  1  0
  1 24  1  0
  1 25  1  0
  1 26  1  0
  2 27  1  0
  2 28  1  0
 10 29  1  0
 10 30  1  0
 10 31  1  0
 11 32  1  0
 13 33  1  0
 13 34  1  0
 13 35  1  0
 14 36  1  0
 16 37  1  0
 16 38  1  0
 16 39  1  0
 19 40  1  0
 20 41  1  0
 21 42  1  0
 22 43  1  0
M  CHG  1   7  -1
M  END
>  <UniqueID>  (9) 
9

>  <SMILES>  (9) 
CCn1c(C(=O)[N-]c2c(C)cc(C)cc2C)nc2ccccc21

>  <Energy>  (9) 
86.57962339335452

>  <Genealogy>  (9) 
CCn1c(C(=O)[N-]c2c(C)cc(C)cc2C)nc2ccccc21 (protonated)
CCn1c(C(=O)[N-]c2c(C)cc(C)cc2C)nc2ccccc21 (3D coordinates assigned)
CCn1c(C(=O)[N-]c2c(C)cc(C)cc2C)nc2ccccc21 (optimized conformer: 86.57962339335452 kcal/mol)

>  <smiles>  (9) 
CCn1c(C(=O)Nc2c(C)cc(C)cc2C)nc2ccccc21

>  <score_type>  (9) 
oracle

>  <origin>  (9) 
adg

>  <m_score__min__energy>  (9) 
-9.6400000000000006

>  <m_primary>  (9) 
energy

$$$$
9:0
     RDKit          3D

 70 73  0  0  0  0  0  0  0  0999 V2000
   -5.4340   16.1620  -33.1480 C   0  0  0  0  0  0  0  0  0  0  0  0
   -6.1790   17.0650  -32.1670 C   0  0  0  0  0  0  0  0  0  0  0  0
   -7.1600   17.9150  -32.8780 N   0  0  0  0  0  0  0  0  0  0  0  0
   -8.1130   18.5580  -31.9420 C   0  0  0  0  0  0  0  0  0  0  0  0
   -9.0300   19.5420  -32.6710 C   0  0  0  0  0  0  0  0  0  0  0  0
   -6.5070   18.8700  -33.8110 C   0  0  0  0  0  0  0  0  0  0  0  0
   -5.5020   19.7960  -33.1500 C   0  0  0  0  0  0  0  0  0  0  0  0
   -4.1400   19.5350  -33.2440 C   0  0  0  0  0  0  0  0  0  0  0  0
   -3.2160   20.3520  -32.6040 C   0  0  0  0  0  0  0  0  0  0  0  0
   -3.6190   21.4850  -31.8520 C   0  0  0  0  0  0  0  0  0  0  0  0
   -5.0110   21.8070  -31.8210 C   0  0  0  0  0  0  0  0  0  0  0  0
   -5.9290   20.9360  -32.4600 C   0  0  0  0  0  0  0  0  0  0  0  0
   -5.4380   22.9770  -31.1330 C   0  0  0  0  0  0  0  0  0  0  0  0
   -6.7860   23.4270  -31.1320 C   0  0  0  0  0  0  0  0  0  0  0  0
   -7.1600   24.5740  -30.4300 C   0  0  0  0  0  0  0  0  0  0  0  0
   -6.2150   25.3010  -29.7200 C   0  0  0  0  0  0  0  0  0  0  0  0
   -4.8840   24.8940  -29.7180 C   0  0  0  0  0  0  0  0  0  0  0  0
   -4.4800   23.7420  -30.4270 C   0  0  0  0  0  0  0  0  0  0  0  0
   -3.1290   23.3550  -30.4360 C   0  0  0  0  0  0  0  0  0  0  0  0
   -2.2960   24.0310  -29.7640 O   0  0  0  0  0  0  0  0  0  0  0  0
   -2.7040   22.2640  -31.1580 N   0  0  0  0  0  0  0  0  0  0  0  0
   -1.2590   21.9200  -31.0840 C   0  0  0  0  0  0  0  0  0  0  0  0
   -0.9580   21.0460  -29.8590 C   0  0  0  0  0  0  0  0  0  0  0  0
   -2.0320   21.1530  -28.8670 N   0  0  0  0  0  0  0  0  0  0  0  0
   -1.6740   20.4510  -27.6280 C   0  0  0  0  0  0  0  0  0  0  0  0
   -1.2800   21.4600  -26.5420 C   0  0  0  0  0  0  0  0  0  0  0  0
   -1.3150   22.8360  -27.0460 N   0  0  0  0  0  0  0  0  0  0  0  0
   -1.1520   24.0110  -26.2240 C   0  0  0  0  0  0  0  0  0  0  0  0
    0.0690   24.2640  -25.5660 C   0  0  0  0  0  0  0  0  0  0  0  0
    0.2340   25.4100  -24.7860 C   0  0  0  0  0  0  0  0  0  0  0  0
   -0.8090   26.3230  -24.6530 C   0  0  0  0  0  0  0  0  0  0  0  0
   -2.0270   26.0910  -25.2930 C   0  0  0  0  0  0  0  0  0  0  0  0
   -2.2150   24.9390  -26.0760 C   0  0  0  0  0  0  0  0  0  0  0  0
   -3.5500   24.7080  -26.7320 C   0  0  0  0  0  0  0  0  0  0  0  0
   -4.8312   15.4314  -32.5886 H   0  0  0  0  0  0  0  0  0  0  0  0
   -6.1599   15.6306  -33.7810 H   0  0  0  0  0  0  0  0  0  0  0  0
   -4.7743   16.7737  -33.7810 H   0  0  0  0  0  0  0  0  0  0  0  0
   -6.7082   16.4405  -31.4322 H   0  0  0  0  0  0  0  0  0  0  0  0
   -5.4495   17.7149  -31.6615 H   0  0  0  0  0  0  0  0  0  0  0  0
   -8.7282   17.7800  -31.4664 H   0  0  0  0  0  0  0  0  0  0  0  0
   -7.5370   19.1140  -31.1876 H   0  0  0  0  0  0  0  0  0  0  0  0
   -9.5867   20.1394  -31.9339 H   0  0  0  0  0  0  0  0  0  0  0  0
   -8.4243   20.2094  -33.3016 H   0  0  0  0  0  0  0  0  0  0  0  0
   -9.7384   18.9847  -33.3016 H   0  0  0  0  0  0  0  0  0  0  0  0
   -5.9847   18.2915  -34.5873 H   0  0  0  0  0  0  0  0  0  0  0  0
   -7.3042   19.5083  -34.2196 H   0  0  0  0  0  0  0  0  0  0  0  0
   -3.7901   18.6730  -33.8309 H   0  0  0  0  0  0  0  0  0  0  0  0
   -2.1449   20.1140  -32.6826 H   0  0  0  0  0  0  0  0  0  0  0  0
   -7.0045   21.1621  -32.4122 H   0  0  0  0  0  0  0  0  0  0  0  0
   -7.5459   22.8630  -31.6928 H   0  0  0  0  0  0  0  0  0  0  0  0
   -8.2095   24.9034  -30.4396 H   0  0  0  0  0  0  0  0  0  0  0  0
   -6.5175   26.1978  -29.1595 H   0  0  0  0  0  0  0  0  0  0  0  0
   -4.1382   25.4767  -29.1575 H   0  0  0  0  0  0  0  0  0  0  0  0
   -0.9736   21.3723  -31.9943 H   0  0  0  0  0  0  0  0  0  0  0  0
   -0.6832   22.8531  -30.9958 H   0  0  0  0  0  0  0  0  0  0  0  0
   -0.8649   19.9974  -30.1781 H   0  0  0  0  0  0  0  0  0  0  0  0
   -0.0193   21.3915  -29.4013 H   0  0  0  0  0  0  0  0  0  0  0  0
   -2.8730   20.6710  -29.2650 H   0  0  0  0  0  0  0  0  0  0  0  0
   -2.5365   19.8627  -27.2816 H   0  0  0  0  0  0  0  0  0  0  0  0
   -0.8207   19.7858  -27.8263 H   0  0  0  0  0  0  0  0  0  0  0  0
   -1.9819   21.3703  -25.6998 H   0  0  0  0  0  0  0  0  0  0  0  0
   -0.2516   21.2369  -26.2217 H   0  0  0  0  0  0  0  0  0  0  0  0
   -1.5150   22.9510  -28.0630 H   0  0  0  0  0  0  0  0  0  0  0  0
    0.9003   23.5509  -25.6683 H   0  0  0  0  0  0  0  0  0  0  0  0
    1.1908   25.5923  -24.2749 H   0  0  0  0  0  0  0  0  0  0  0  0
   -0.6726   27.2280  -24.0428 H   0  0  0  0  0  0  0  0  0  0  0  0
   -2.8471   26.8159  -25.1838 H   0  0  0  0  0  0  0  0  0  0  0  0
   -4.3205   24.5747  -25.9584 H   0  0  0  0  0  0  0  0  0  0  0  0
   -3.8056   25.5753  -27.3585 H   0  0  0  0  0  0  0  0  0  0  0  0
   -3.4994   23.8053  -27.3585 H   0  0  0  0  0  0  0  0  0  0  0  0
  1  2  1  0
  2  3  1  0
  3  4  1  0
  4  5  1  0
  3  6  1  0
  6  7  1  0
  7  8  2  0
  8  9  1  0
  9 10  2  0
 10 11  1  0
 11 12  2  0
 11 13  1  0
 13 14  2  0
 14 15  1  0
 15 16  2  0
 16 17  1  0
 17 18  2  0
 18 19  1  0
 19 20  2  0
 19 21  1  0
 21 22  1  0
 22 23  1  0
 23 24  1  0
 24 25  1  0
 25 26  1  0
 26 27  1  0
 27 28  1  0
 28 29  2  0
 29 30  1  0
 30 31  2  0
 31 32  1  0
 32 33  2  0
 33 34  1  0
 12  7  1  0
 18 13  1  0
 33 28  1  0
 21 10  1  0
  1 35  1  0
  1 36  1  0
  1 37  1  0
  2 38  1  0
  2 39  1  0
  4 40  1  0
  4 41  1  0
  5 42  1  0
  5 43  1  0
  5 44  1  0
  6 45  1  0
  6 46  1  0
  8 47  1  0
  9 48  1  0
 12 49  1  0
 14 50  1  0
 15 51  1  0
 16 52  1  0
 17 53  1  0
 22 54  1  0
 22 55  1  0
 23 56  1  0
 23 57  1  0
 24 58  1  0
 25 59  1  0
 25 60  1  0
 26 61  1  0
 26 62  1  0
 27 63  1  0
 29 64  1  0
 30 65  1  0
 31 66  1  0
 32 67  1  0
 34 68  1  0
 34 69  1  0
 34 70  1  0
M  END
>  <UniqueID>  (10) 
10

>  <SMILES>  (10) 
CCN(CC)Cc1ccc2c(c1)c1ccccc1c(=O)n2CCNCCNc1ccccc1C

>  <Energy>  (10) 
89.6353090558953

>  <Genealogy>  (10) 
CCN(CC)Cc1ccc2c(c1)c1ccccc1c(=O)n2CCNCCNc1ccccc1C (3D coordinates assigned)
CCN(CC)Cc1ccc2c(c1)c1ccccc1c(=O)n2CCNCCNc1ccccc1C (optimized conformer: 89.6353090558953 kcal/mol)

>  <smiles>  (10) 
CCN(CC)Cc1ccc2c(c1)c1ccccc1c(=O)n2CCNCCNc1ccccc1C

>  <score_type>  (10) 
oracle

>  <origin>  (10) 
adg

>  <m_score__min__energy>  (10) 
-10.720000000000001

>  <m_primary>  (10) 
energy

$$$$
10:0
     RDKit          3D

 53 56  0  0  0  0  0  0  0  0999 V2000
    2.5760   18.8070  -31.0670 C   0  0  0  0  0  0  0  0  0  0  0  0
    2.4700   18.8790  -32.5850 C   0  0  0  0  0  0  0  0  0  0  0  0
    1.3790   19.7710  -32.9780 N   0  0  0  0  0  0  0  0  0  0  0  0
    0.1150   19.7450  -32.4880 C   0  0  0  0  0  0  0  0  0  0  0  0
   -0.6810   20.6940  -33.1330 C   0  0  0  0  0  0  0  0  0  0  0  0
   -2.1130   20.9850  -32.8850 C   0  0  0  0  0  0  0  0  0  0  0  0
   -3.1020   20.3730  -33.6740 C   0  0  0  0  0  0  0  0  0  0  0  0
   -4.4550   20.6430  -33.4530 C   0  0  0  0  0  0  0  0  0  0  0  0
   -4.8420   21.5190  -32.4310 C   0  0  0  0  0  0  0  0  0  0  0  0
   -6.2720   21.8190  -32.2060 C   0  0  0  0  0  0  0  0  0  0  0  0
   -6.6700   23.1660  -32.1780 C   0  0  0  0  0  0  0  0  0  0  0  0
   -8.0100   23.5060  -31.9870 C   0  0  0  0  0  0  0  0  0  0  0  0
   -8.9670   22.5070  -31.8180 C   0  0  0  0  0  0  0  0  0  0  0  0
   -8.5870   21.1640  -31.8320 C   0  0  0  0  0  0  0  0  0  0  0  0
   -7.2420   20.7990  -32.0210 C   0  0  0  0  0  0  0  0  0  0  0  0
   -6.8830   19.3240  -31.9510 C   0  0  0  0  0  0  0  0  0  0  0  0
   -7.8500   18.4810  -32.6920 N   0  0  0  0  0  0  0  0  0  0  0  0
   -9.0360   18.1740  -31.8720 C   0  0  0  0  0  0  0  0  0  0  0  0
   -7.2020   17.2280  -33.1160 C   0  0  0  0  0  0  0  0  0  0  0  0
   -3.8610   22.1490  -31.6540 C   0  0  0  0  0  0  0  0  0  0  0  0
   -2.5060   21.8810  -31.8720 C   0  0  0  0  0  0  0  0  0  0  0  0
   -1.5880   22.4710  -31.0660 F   0  0  0  0  0  0  0  0  0  0  0  0
    0.1600   21.2940  -34.0510 C   0  0  0  0  0  0  0  0  0  0  0  0
   -0.1140   22.2520  -34.9730 N   0  0  0  0  0  0  0  0  0  0  0  0
    0.8820   22.6660  -35.8130 C   0  0  0  0  0  0  0  0  0  0  0  0
    2.1730   22.0970  -35.7320 C   0  0  0  0  0  0  0  0  0  0  0  0
    2.4380   21.0970  -34.7810 C   0  0  0  0  0  0  0  0  0  0  0  0
    1.3920   20.7130  -33.9420 C   0  0  0  0  0  0  0  0  0  0  0  0
    1.7467   19.3703  -30.6144 H   0  0  0  0  0  0  0  0  0  0  0  0
    2.5243   17.7564  -30.7452 H   0  0  0  0  0  0  0  0  0  0  0  0
    3.5336   19.2423  -30.7452 H   0  0  0  0  0  0  0  0  0  0  0  0
    3.4161   19.2602  -32.9968 H   0  0  0  0  0  0  0  0  0  0  0  0
    2.2661   17.8716  -32.9768 H   0  0  0  0  0  0  0  0  0  0  0  0
   -0.2348   19.0702  -31.6929 H   0  0  0  0  0  0  0  0  0  0  0  0
   -2.8084   19.6755  -34.4723 H   0  0  0  0  0  0  0  0  0  0  0  0
   -5.2191   20.1657  -34.0841 H   0  0  0  0  0  0  0  0  0  0  0  0
   -5.9192   23.9594  -32.3077 H   0  0  0  0  0  0  0  0  0  0  0  0
   -8.3112   24.5638  -31.9698 H   0  0  0  0  0  0  0  0  0  0  0  0
  -10.0234   22.7773  -31.6734 H   0  0  0  0  0  0  0  0  0  0  0  0
   -9.3482   20.3821  -31.6936 H   0  0  0  0  0  0  0  0  0  0  0  0
   -5.8823   19.1812  -32.3848 H   0  0  0  0  0  0  0  0  0  0  0  0
   -6.9064   19.0187  -30.8945 H   0  0  0  0  0  0  0  0  0  0  0  0
   -8.1630   18.9850  -33.5570 H   0  0  0  0  0  0  0  0  0  0  0  0
   -8.7725   18.2422  -30.8062 H   0  0  0  0  0  0  0  0  0  0  0  0
   -9.8353   18.8948  -32.0990 H   0  0  0  0  0  0  0  0  0  0  0  0
   -9.3851   17.1559  -32.0990 H   0  0  0  0  0  0  0  0  0  0  0  0
   -6.9036   16.6509  -32.2283 H   0  0  0  0  0  0  0  0  0  0  0  0
   -7.9070   16.6361  -33.7181 H   0  0  0  0  0  0  0  0  0  0  0  0
   -6.3115   17.4613  -33.7181 H   0  0  0  0  0  0  0  0  0  0  0  0
   -4.1584   22.8586  -30.8679 H   0  0  0  0  0  0  0  0  0  0  0  0
    0.6767   23.4486  -36.5582 H   0  0  0  0  0  0  0  0  0  0  0  0
    2.9686   22.4361  -36.4118 H   0  0  0  0  0  0  0  0  0  0  0  0
    3.4328   20.6345  -34.7012 H   0  0  0  0  0  0  0  0  0  0  0  0
  1  2  1  0
  2  3  1  0
  3  4  1  0
  4  5  2  0
  5  6  1  0
  6  7  2  0
  7  8  1  0
  8  9  2  0
  9 10  1  0
 10 11  2  0
 11 12  1  0
 12 13  2  0
 13 14  1  0
 14 15  2  0
 15 16  1  0
 16 17  1  0
 17 18  1  0
 17 19  1  0
  9 20  1  0
 20 21  2  0
 21 22  1  0
  5 23  1  0
 23 24  2  0
 24 25  1  0
 25 26  2  0
 26 27  1  0
 27 28  2  0
 28  3  1  0
 21  6  1  0
 28 23  1  0
 15 10  1  0
  1 29  1  0
  1 30  1  0
  1 31  1  0
  2 32  1  0
  2 33  1  0
  4 34  1  0
  7 35  1  0
  8 36  1  0
 11 37  1  0
 12 38  1  0
 13 39  1  0
 14 40  1  0
 16 41  1  0
 16 42  1  0
 17 43  1  0
 18 44  1  0
 18 45  1  0
 18 46  1  0
 19 47  1  0
 19 48  1  0
 19 49  1  0
 20 50  1  0
 25 51  1  0
 26 52  1  0
 27 53  1  0
M  CHG  1  17   1
M  END
>  <UniqueID>  (11) 
11

>  <SMILES>  (11) 
CCn1cc(-c2ccc(-c3ccccc3C[NH+](C)C)cc2F)c2ncccc21

>  <Energy>  (11) 
102.40639567731301

>  <Genealogy>  (11) 
CCn1cc(-c2ccc(-c3ccccc3C[NH+](C)C)cc2F)c2ncccc21 (protonated)
CCn1cc(-c2ccc(-c3ccccc3C[NH+](C)C)cc2F)c2ncccc21 (3D coordinates assigned)
CCn1cc(-c2ccc(-c3ccccc3C[NH+](C)C)cc2F)c2ncccc21 (optimized conformer: 102.40639567731301 kcal/mol)

>  <smiles>  (11) 
CCn1cc(-c2ccc(-c3ccccc3CN(C)C)cc2F)c2ncccc21

>  <score_type>  (11) 
oracle

>  <origin>  (11) 
adg

>  <m_score__min__energy>  (11) 
-7.8600000000000003

>  <m_primary>  (11) 
energy

$$$$
11:0
     RDKit          3D

 65 67  0  0  0  0  0  0  0  0999 V2000
   -0.3380   22.6670  -26.4130 C   0  0  0  0  0  0  0  0  0  0  0  0
   -1.2450   22.7090  -27.6410 C   0  0  0  0  0  0  0  0  0  0  0  0
   -2.6690   22.7530  -27.2360 N   0  0  0  0  0  0  0  0  0  0  0  0
   -3.4150   21.6260  -27.8380 C   0  0  0  0  0  0  0  0  0  0  0  0
   -2.7370   20.3060  -27.4720 C   0  0  0  0  0  0  0  0  0  0  0  0
   -3.2820   24.0610  -27.5890 C   0  0  0  0  0  0  0  0  0  0  0  0
   -2.3720   24.8560  -28.5380 C   0  0  0  0  0  0  0  0  0  0  0  0
   -2.9910   24.9170  -29.8200 O   0  0  0  0  0  0  0  0  0  0  0  0
   -3.5300   23.7890  -30.4440 C   0  0  0  0  0  0  0  0  0  0  0  0
   -2.7170   22.7300  -30.8200 C   0  0  0  0  0  0  0  0  0  0  0  0
   -3.2690   21.5770  -31.3590 C   0  0  0  0  0  0  0  0  0  0  0  0
   -4.6650   21.4630  -31.5860 C   0  0  0  0  0  0  0  0  0  0  0  0
   -5.2450   20.2620  -32.0770 C   0  0  0  0  0  0  0  0  0  0  0  0
   -4.3980   19.1280  -32.4300 N   0  0  0  0  0  0  0  0  0  0  0  0
   -4.1230   19.1030  -33.8850 C   0  0  0  0  0  0  0  0  0  0  0  0
   -4.7610   17.8740  -34.5660 C   0  0  0  0  0  0  0  0  0  0  0  0
   -5.3400   16.9330  -33.5770 N   0  0  0  0  0  0  0  0  0  0  0  0
   -6.5330   16.2860  -34.1540 C   0  0  0  0  0  0  0  0  0  0  0  0
   -4.3680   15.8890  -33.1900 C   0  0  0  0  0  0  0  0  0  0  0  0
   -6.6640   20.1580  -32.0980 C   0  0  0  0  0  0  0  0  0  0  0  0
   -7.3130   18.9230  -32.3330 C   0  0  0  0  0  0  0  0  0  0  0  0
   -8.7000   18.8410  -32.3620 C   0  0  0  0  0  0  0  0  0  0  0  0
   -9.4790   19.9750  -32.1400 C   0  0  0  0  0  0  0  0  0  0  0  0
   -8.8660   21.1960  -31.8840 C   0  0  0  0  0  0  0  0  0  0  0  0
   -7.4480   21.3200  -31.8700 C   0  0  0  0  0  0  0  0  0  0  0  0
   -6.8400   22.5300  -31.5950 N   0  0  0  0  0  0  0  0  0  0  0  0
   -7.6380   23.7790  -31.6470 C   0  0  0  0  0  0  0  0  0  0  0  0
   -5.4980   22.5740  -31.2860 C   0  0  0  0  0  0  0  0  0  0  0  0
   -4.9120   23.7060  -30.6620 C   0  0  0  0  0  0  0  0  0  0  0  0
   -0.9533   22.6955  -25.5016 H   0  0  0  0  0  0  0  0  0  0  0  0
    0.2547   21.7404  -26.4265 H   0  0  0  0  0  0  0  0  0  0  0  0
    0.3378   23.5348  -26.4265 H   0  0  0  0  0  0  0  0  0  0  0  0
   -1.0098   23.6054  -28.2336 H   0  0  0  0  0  0  0  0  0  0  0  0
   -1.0743   21.8018  -28.2392 H   0  0  0  0  0  0  0  0  0  0  0  0
   -4.4468   21.6252  -27.4567 H   0  0  0  0  0  0  0  0  0  0  0  0
   -3.4258   21.7391  -28.9321 H   0  0  0  0  0  0  0  0  0  0  0  0
   -2.6878   20.2102  -26.3773 H   0  0  0  0  0  0  0  0  0  0  0  0
   -3.3165   19.4685  -27.8877 H   0  0  0  0  0  0  0  0  0  0  0  0
   -1.7187   20.2892  -27.8877 H   0  0  0  0  0  0  0  0  0  0  0  0
   -4.2492   23.8838  -28.0821 H   0  0  0  0  0  0  0  0  0  0  0  0
   -3.4214   24.6436  -26.6664 H   0  0  0  0  0  0  0  0  0  0  0  0
   -2.2290   25.8742  -28.1472 H   0  0  0  0  0  0  0  0  0  0  0  0
   -1.3919   24.3630  -28.6181 H   0  0  0  0  0  0  0  0  0  0  0  0
   -1.6273   22.8049  -30.6900 H   0  0  0  0  0  0  0  0  0  0  0  0
   -2.6109   20.7338  -31.6157 H   0  0  0  0  0  0  0  0  0  0  0  0
   -3.5000   19.1490  -31.8980 H   0  0  0  0  0  0  0  0  0  0  0  0
   -4.8310   18.2410  -32.0870 H   0  0  0  0  0  0  0  0  0  0  0  0
   -4.5333   20.0161  -34.3410 H   0  0  0  0  0  0  0  0  0  0  0  0
   -3.0337   19.0464  -34.0269 H   0  0  0  0  0  0  0  0  0  0  0  0
   -5.5591   18.2159  -35.2413 H   0  0  0  0  0  0  0  0  0  0  0  0
   -3.9728   17.3438  -35.1206 H   0  0  0  0  0  0  0  0  0  0  0  0
   -7.1863   15.9317  -33.3430 H   0  0  0  0  0  0  0  0  0  0  0  0
   -7.0795   17.0114  -34.7747 H   0  0  0  0  0  0  0  0  0  0  0  0
   -6.2231   15.4323  -34.7747 H   0  0  0  0  0  0  0  0  0  0  0  0
   -4.3119   15.8288  -32.0931 H   0  0  0  0  0  0  0  0  0  0  0  0
   -4.6917   14.9186  -33.5944 H   0  0  0  0  0  0  0  0  0  0  0  0
   -3.3770   16.1426  -33.5944 H   0  0  0  0  0  0  0  0  0  0  0  0
   -6.7120   18.0160  -32.4948 H   0  0  0  0  0  0  0  0  0  0  0  0
   -9.1862   17.8746  -32.5615 H   0  0  0  0  0  0  0  0  0  0  0  0
  -10.5764   19.9040  -32.1673 H   0  0  0  0  0  0  0  0  0  0  0  0
   -9.4877   22.0822  -31.6888 H   0  0  0  0  0  0  0  0  0  0  0  0
   -7.8549   24.1184  -30.6234 H   0  0  0  0  0  0  0  0  0  0  0  0
   -7.0686   24.5560  -32.1781 H   0  0  0  0  0  0  0  0  0  0  0  0
   -8.5824   23.5889  -32.1781 H   0  0  0  0  0  0  0  0  0  0  0  0
   -5.5573   24.5374  -30.3421 H   0  0  0  0  0  0  0  0  0  0  0  0
  1  2  1  0
  2  3  1  0
  3  4  1  0
  4  5  1  0
  3  6  1  0
  6  7  1  0
  7  8  1  0
  8  9  1  0
  9 10  2  0
 10 11  1  0
 11 12  2  0
 12 13  1  0
 13 14  1  0
 14 15  1  0
 15 16  1  0
 16 17  1  0
 17 18  1  0
 17 19  1  0
 13 20  2  0
 20 21  1  0
 21 22  2  0
 22 23  1  0
 23 24  2  0
 24 25  1  0
 25 26  2  0
 26 27  1  0
 26 28  1  0
 28 29  2  0
 29  9  1  0
 28 12  1  0
 25 20  1  0
  1 30  1  0
  1 31  1  0
  1 32  1  0
  2 33  1  0
  2 34  1  0
  4 35  1  0
  4 36  1  0
  5 37  1  0
  5 38  1  0
  5 39  1  0
  6 40  1  0
  6 41  1  0
  7 42  1  0
  7 43  1  0
 10 44  1  0
 11 45  1  0
 14 46  1  0
 14 47  1  0
 15 48  1  0
 15 49  1  0
 16 50  1  0
 16 51  1  0
 18 52  1  0
 18 53  1  0
 18 54  1  0
 19 55  1  0
 19 56  1  0
 19 57  1  0
 21 58  1  0
 22 59  1  0
 23 60  1  0
 24 61  1  0
 27 62  1  0
 27 63  1  0
 27 64  1  0
 29 65  1  0
M  CHG  2  14   1  26   1
M  END
>  <UniqueID>  (12) 
12

>  <SMILES>  (12) 
CCN(CC)CCOc1ccc2c([NH2+]CCN(C)C)c3ccccc3[n+](C)c2c1

>  <Energy>  (12) 
98.96473976647775

>  <Genealogy>  (12) 
CCN(CC)CCOc1ccc2c([NH2+]CCN(C)C)c3ccccc3[n+](C)c2c1 (protonated)
CCN(CC)CCOc1ccc2c([NH2+]CCN(C)C)c3ccccc3[n+](C)c2c1 (3D coordinates assigned)
CCN(CC)CCOc1ccc2c([NH2+]CCN(C)C)c3ccccc3[n+](C)c2c1 (optimized conformer: 98.96473976647775 kcal/mol)

>  <smiles>  (12) 
CCN(CC)CCOc1ccc2c(NCCN(C)C)c3ccccc3[n+](C)c2c1

>  <score_type>  (12) 
oracle

>  <origin>  (12) 
adg

>  <m_score__min__energy>  (12) 
-7.2199999999999998

>  <m_primary>  (12) 
energy

$$$$
12:0
     RDKit          3D

 63 65  0  0  0  0  0  0  0  0999 V2000
   -2.4170   25.5490  -25.9920 C   0  0  0  0  0  0  0  0  0  0  0  0
   -1.6220   24.5850  -26.8790 C   0  0  0  0  0  0  0  0  0  0  0  0
   -2.4210   23.5150  -27.5410 N   0  0  0  0  0  0  0  0  0  0  0  0
   -1.8710   22.1340  -27.4270 C   0  0  0  0  0  0  0  0  0  0  0  0
   -2.7920   21.0050  -27.9070 C   0  0  0  0  0  0  0  0  0  0  0  0
   -3.9080   23.6410  -27.4630 C   0  0  0  0  0  0  0  0  0  0  0  0
   -4.6040   24.5240  -28.5200 C   0  0  0  0  0  0  0  0  0  0  0  0
   -3.8360   24.5930  -29.7060 O   0  0  0  0  0  0  0  0  0  0  0  0
   -4.5780   24.1820  -30.8400 C   0  0  0  0  0  0  0  0  0  0  0  0
   -3.9560   22.9660  -31.5400 C   0  0  0  0  0  0  0  0  0  0  0  0
   -4.8290   22.4500  -32.5950 N   0  0  0  0  0  0  0  0  0  0  0  0
   -5.0930   21.0400  -32.6690 C   0  0  0  0  0  0  0  0  0  0  0  0
   -4.0810   20.1830  -33.1310 C   0  0  0  0  0  0  0  0  0  0  0  0
   -2.7430   20.6250  -33.2300 C   0  0  0  0  0  0  0  0  0  0  0  0
   -1.7340   19.7520  -33.6310 C   0  0  0  0  0  0  0  0  0  0  0  0
   -2.0370   18.4300  -33.9360 C   0  0  0  0  0  0  0  0  0  0  0  0
   -3.3570   17.9830  -33.8770 C   0  0  0  0  0  0  0  0  0  0  0  0
   -4.4110   18.8610  -33.5180 C   0  0  0  0  0  0  0  0  0  0  0  0
   -5.7330   18.4690  -33.5610 N   0  0  0  0  0  0  0  0  0  0  0  0
   -6.1150   17.2500  -34.3110 C   0  0  0  0  0  0  0  0  0  0  0  0
   -6.7010   19.2280  -32.9250 C   0  0  0  0  0  0  0  0  0  0  0  0
   -8.0150   18.7370  -32.7530 C   0  0  0  0  0  0  0  0  0  0  0  0
   -9.0070   19.5150  -32.1740 C   0  0  0  0  0  0  0  0  0  0  0  0
   -8.7150   20.7730  -31.6530 C   0  0  0  0  0  0  0  0  0  0  0  0
   -9.8320   21.5520  -31.0050 C   0  0  0  0  0  0  0  0  0  0  0  0
   -7.3770   21.2410  -31.6690 C   0  0  0  0  0  0  0  0  0  0  0  0
   -7.0110   22.4270  -30.8010 C   0  0  0  0  0  0  0  0  0  0  0  0
   -6.3880   20.5230  -32.4170 C   0  0  0  0  0  0  0  0  0  0  0  0
   -2.2253   25.3165  -24.9341 H   0  0  0  0  0  0  0  0  0  0  0  0
   -2.1053   26.5827  -26.2026 H   0  0  0  0  0  0  0  0  0  0  0  0
   -3.4911   25.4398  -26.2026 H   0  0  0  0  0  0  0  0  0  0  0  0
   -1.1297   25.1759  -27.6654 H   0  0  0  0  0  0  0  0  0  0  0  0
   -0.9204   24.0669  -26.2087 H   0  0  0  0  0  0  0  0  0  0  0  0
   -2.2410   23.7230  -28.5550 H   0  0  0  0  0  0  0  0  0  0  0  0
   -0.9457   22.0895  -28.0202 H   0  0  0  0  0  0  0  0  0  0  0  0
   -1.7225   21.9603  -26.3510 H   0  0  0  0  0  0  0  0  0  0  0  0
   -3.2173   20.4837  -27.0367 H   0  0  0  0  0  0  0  0  0  0  0  0
   -3.6055   21.4286  -28.5142 H   0  0  0  0  0  0  0  0  0  0  0  0
   -2.2136   20.2931  -28.5142 H   0  0  0  0  0  0  0  0  0  0  0  0
   -4.3296   22.6287  -27.5499 H   0  0  0  0  0  0  0  0  0  0  0  0
   -4.0967   24.1483  -26.5054 H   0  0  0  0  0  0  0  0  0  0  0  0
   -5.5899   24.0960  -28.7539 H   0  0  0  0  0  0  0  0  0  0  0  0
   -4.7127   25.5399  -28.1124 H   0  0  0  0  0  0  0  0  0  0  0  0
   -5.5973   23.9212  -30.5191 H   0  0  0  0  0  0  0  0  0  0  0  0
   -4.5809   25.0156  -31.5577 H   0  0  0  0  0  0  0  0  0  0  0  0
   -2.9946   23.2626  -31.9848 H   0  0  0  0  0  0  0  0  0  0  0  0
   -3.8130   22.1727  -30.7916 H   0  0  0  0  0  0  0  0  0  0  0  0
   -5.4670   23.1010  -33.1070 H   0  0  0  0  0  0  0  0  0  0  0  0
   -2.4952   21.6691  -32.9880 H   0  0  0  0  0  0  0  0  0  0  0  0
   -0.6964   20.1092  -33.7064 H   0  0  0  0  0  0  0  0  0  0  0  0
   -1.2344   17.7352  -34.2244 H   0  0  0  0  0  0  0  0  0  0  0  0
   -3.5839   16.9328  -34.1127 H   0  0  0  0  0  0  0  0  0  0  0  0
   -6.3666   16.4472  -33.6023 H   0  0  0  0  0  0  0  0  0  0  0  0
   -6.9881   17.4674  -34.9438 H   0  0  0  0  0  0  0  0  0  0  0  0
   -5.2740   16.9302  -34.9438 H   0  0  0  0  0  0  0  0  0  0  0  0
   -8.2563   17.7165  -33.0852 H   0  0  0  0  0  0  0  0  0  0  0  0
  -10.0375   19.1333  -32.1258 H   0  0  0  0  0  0  0  0  0  0  0  0
   -9.7381   21.4865  -29.9110 H   0  0  0  0  0  0  0  0  0  0  0  0
   -9.7726   22.6055  -31.3157 H   0  0  0  0  0  0  0  0  0  0  0  0
  -10.8001   21.1322  -31.3157 H   0  0  0  0  0  0  0  0  0  0  0  0
   -7.0977   22.1462  -29.7410 H   0  0  0  0  0  0  0  0  0  0  0  0
   -5.9766   22.7332  -31.0158 H   0  0  0  0  0  0  0  0  0  0  0  0
   -7.6930   23.2629  -31.0158 H   0  0  0  0  0  0  0  0  0  0  0  0
  1  2  1  0
  2  3  1  0
  3  4  1  0
  4  5  1  0
  3  6  1  0
  6  7  1  0
  7  8  1  0
  8  9  1  0
  9 10  1  0
 10 11  1  0
 11 12  1  0
 12 13  2  0
 13 14  1  0
 14 15  2  0
 15 16  1  0
 16 17  2  0
 17 18  1  0
 18 19  2  0
 19 20  1  0
 19 21  1  0
 21 22  2  0
 22 23  1  0
 23 24  2  0
 24 25  1  0
 24 26  1  0
 26 27  1  0
 26 28  2  0
 28 12  1  0
 18 13  1  0
 28 21  1  0
  1 29  1  0
  1 30  1  0
  1 31  1  0
  2 32  1  0
  2 33  1  0
  3 34  1  0
  4 35  1  0
  4 36  1  0
  5 37  1  0
  5 38  1  0
  5 39  1  0
  6 40  1  0
  6 41  1  0
  7 42  1  0
  7 43  1  0
  9 44  1  0
  9 45  1  0
 10 46  1  0
 10 47  1  0
 11 48  1  0
 14 49  1  0
 15 50  1  0
 16 51  1  0
 17 52  1  0
 20 53  1  0
 20 54  1  0
 20 55  1  0
 22 56  1  0
 23 57  1  0
 25 58  1  0
 25 59  1  0
 25 60  1  0
 27 61  1  0
 27 62  1  0
 27 63  1  0
M  CHG  2   3   1  19   1
M  END
>  <UniqueID>  (13) 
13

>  <SMILES>  (13) 
CC[NH+](CC)CCOCCNc1c2ccccc2[n+](C)c2ccc(C)c(C)c12

>  <Energy>  (13) 
117.9047827013036

>  <Genealogy>  (13) 
CC[NH+](CC)CCOCCNc1c2ccccc2[n+](C)c2ccc(C)c(C)c12 (protonated)
CC[NH+](CC)CCOCCNc1c2ccccc2[n+](C)c2ccc(C)c(C)c12 (3D coordinates assigned)
CC[NH+](CC)CCOCCNc1c2ccccc2[n+](C)c2ccc(C)c(C)c12 (optimized conformer: 117.9047827013036 kcal/mol)

>  <smiles>  (13) 
CCN(CC)CCOCCNc1c2ccccc2[n+](C)c2ccc(C)c(C)c12

>  <score_type>  (13) 
oracle

>  <origin>  (13) 
adg

>  <m_score__min__energy>  (13) 
-7.3700000000000001

>  <m_primary>  (13) 
energy

$$$$
13:0
     RDKit          3D

 41 42  0  0  0  0  0  0  0  0999 V2000
    0.6330   24.9130  -36.1830 C   0  0  0  0  0  0  0  0  0  0  0  0
    1.4490   23.6790  -35.8380 C   0  0  0  0  0  0  0  0  0  0  0  0
    0.5990   22.6900  -35.2670 O   0  0  0  0  0  0  0  0  0  0  0  0
    0.5270   21.3830  -35.7550 C   0  0  0  0  0  0  0  0  0  0  0  0
   -0.0840   21.1280  -36.8290 O   0  0  0  0  0  0  0  0  0  0  0  0
    1.1260   20.2660  -34.9540 C   0  0  0  0  0  0  0  0  0  0  0  0
    0.9860   20.5170  -33.4490 C   0  0  0  0  0  0  0  0  0  0  0  0
   -0.4460   20.4310  -33.0050 C   0  0  0  0  0  0  0  0  0  0  0  0
   -0.7100   19.9540  -31.8670 O   0  0  0  0  0  0  0  0  0  0  0  0
   -1.4870   20.9790  -33.8310 N   0  0  0  0  0  0  0  0  0  0  0  0
   -2.8860   20.9430  -33.4990 C   0  0  0  0  0  0  0  0  0  0  0  0
   -3.6840   19.8270  -33.8040 C   0  0  0  0  0  0  0  0  0  0  0  0
   -5.0450   19.8240  -33.4830 C   0  0  0  0  0  0  0  0  0  0  0  0
   -5.6350   20.9380  -32.8600 C   0  0  0  0  0  0  0  0  0  0  0  0
   -7.0790   20.9330  -32.5130 C   0  0  0  0  0  0  0  0  0  0  0  0
   -7.8610   19.7800  -32.7200 C   0  0  0  0  0  0  0  0  0  0  0  0
   -9.2210   19.7780  -32.3940 C   0  0  0  0  0  0  0  0  0  0  0  0
   -9.8150   20.9230  -31.8590 C   0  0  0  0  0  0  0  0  0  0  0  0
   -9.0510   22.0720  -31.6480 C   0  0  0  0  0  0  0  0  0  0  0  0
   -7.6910   22.0810  -31.9720 C   0  0  0  0  0  0  0  0  0  0  0  0
   -4.8370   22.0610  -32.5790 C   0  0  0  0  0  0  0  0  0  0  0  0
   -3.4790   22.0650  -32.9050 C   0  0  0  0  0  0  0  0  0  0  0  0
    0.3061   25.4073  -35.2563 H   0  0  0  0  0  0  0  0  0  0  0  0
    1.2502   25.6080  -36.7713 H   0  0  0  0  0  0  0  0  0  0  0  0
   -0.2482   24.6172  -36.7713 H   0  0  0  0  0  0  0  0  0  0  0  0
    1.9133   23.2797  -36.7518 H   0  0  0  0  0  0  0  0  0  0  0  0
    2.2329   23.9492  -35.1151 H   0  0  0  0  0  0  0  0  0  0  0  0
    0.6121   19.3275  -35.2093 H   0  0  0  0  0  0  0  0  0  0  0  0
    2.1974   20.2038  -35.1955 H   0  0  0  0  0  0  0  0  0  0  0  0
    1.5742   19.7632  -32.9052 H   0  0  0  0  0  0  0  0  0  0  0  0
    1.3525   21.5316  -33.2339 H   0  0  0  0  0  0  0  0  0  0  0  0
   -1.1990   21.5510  -34.6570 H   0  0  0  0  0  0  0  0  0  0  0  0
   -3.2359   18.9519  -34.2975 H   0  0  0  0  0  0  0  0  0  0  0  0
   -5.6592   18.9428  -33.7198 H   0  0  0  0  0  0  0  0  0  0  0  0
   -7.3989   18.8749  -33.1410 H   0  0  0  0  0  0  0  0  0  0  0  0
   -9.8239   18.8729  -32.5593 H   0  0  0  0  0  0  0  0  0  0  0  0
  -10.8850   20.9195  -31.6038 H   0  0  0  0  0  0  0  0  0  0  0  0
   -9.5202   22.9728  -31.2257 H   0  0  0  0  0  0  0  0  0  0  0  0
   -7.0950   22.9901  -31.8035 H   0  0  0  0  0  0  0  0  0  0  0  0
   -5.2857   22.9431  -32.0988 H   0  0  0  0  0  0  0  0  0  0  0  0
   -2.8699   22.9563  -32.6937 H   0  0  0  0  0  0  0  0  0  0  0  0
  1  2  1  0
  2  3  1  0
  3  4  1  0
  4  5  2  0
  4  6  1  0
  6  7  1  0
  7  8  1  0
  8  9  2  0
  8 10  1  0
 10 11  1  0
 11 12  2  0
 12 13  1  0
 13 14  2  0
 14 15  1  0
 15 16  2  0
 16 17  1  0
 17 18  2  0
 18 19  1  0
 19 20  2  0
 14 21  1  0
 21 22  2  0
 22 11  1  0
 20 15  1  0
  1 23  1  0
  1 24  1  0
  1 25  1  0
  2 26  1  0
  2 27  1  0
  6 28  1  0
  6 29  1  0
  7 30  1  0
  7 31  1  0
 10 32  1  0
 12 33  1  0
 13 34  1  0
 16 35  1  0
 17 36  1  0
 18 37  1  0
 19 38  1  0
 20 39  1  0
 21 40  1  0
 22 41  1  0
M  END
>  <UniqueID>  (14) 
14

>  <SMILES>  (14) 
CCOC(=O)CCC(=O)Nc1ccc(-c2ccccc2)cc1

>  <Energy>  (14) 
38.518808074467685

>  <Genealogy>  (14) 
CCOC(=O)CCC(=O)Nc1ccc(-c2ccccc2)cc1 (3D coordinates assigned)
CCOC(=O)CCC(=O)Nc1ccc(-c2ccccc2)cc1 (optimized conformer: 38.518808074467685 kcal/mol)

>  <smiles>  (14) 
CCOC(=O)CCC(=O)Nc1ccc(-c2ccccc2)cc1

>  <score_type>  (14) 
oracle

>  <origin>  (14) 
adg

>  <m_score__min__energy>  (14) 
-7.6699999999999999

>  <m_primary>  (14) 
energy

$$$$
14:0
     RDKit          3D

 39 43  0  0  0  0  0  0  0  0999 V2000
   -1.5920   15.1740  -36.2440 C   0  0  0  0  0  0  0  0  0  0  0  0
   -2.9130   15.4710  -35.8030 O   0  0  0  0  0  0  0  0  0  0  0  0
   -3.2740   16.6320  -35.1040 C   0  0  0  0  0  0  0  0  0  0  0  0
   -2.2520   17.4490  -34.6030 C   0  0  0  0  0  0  0  0  0  0  0  0
   -2.5540   18.6170  -33.8990 C   0  0  0  0  0  0  0  0  0  0  0  0
   -3.8910   18.9870  -33.6880 C   0  0  0  0  0  0  0  0  0  0  0  0
   -4.2070   20.1560  -32.9900 C   0  0  0  0  0  0  0  0  0  0  0  0
   -5.5560   20.5150  -32.7940 C   0  0  0  0  0  0  0  0  0  0  0  0
   -6.5520   19.6810  -33.2500 N   0  0  0  0  0  0  0  0  0  0  0  0
   -6.2540   18.5460  -33.9520 C   0  0  0  0  0  0  0  0  0  0  0  0
   -4.9250   18.1720  -34.1820 C   0  0  0  0  0  0  0  0  0  0  0  0
   -4.6160   17.0000  -34.8900 C   0  0  0  0  0  0  0  0  0  0  0  0
   -7.9680   20.0470  -33.0700 C   0  0  0  0  0  0  0  0  0  0  0  0
   -8.2000   20.7090  -31.7090 C   0  0  0  0  0  0  0  0  0  0  0  0
   -7.2450   21.8520  -31.5230 C   0  0  0  0  0  0  0  0  0  0  0  0
   -7.6390   22.9910  -30.7870 C   0  0  0  0  0  0  0  0  0  0  0  0
   -6.7140   24.0160  -30.6310 C   0  0  0  0  0  0  0  0  0  0  0  0
   -5.4670   23.9450  -31.1540 C   0  0  0  0  0  0  0  0  0  0  0  0
   -5.0270   22.8370  -31.8720 C   0  0  0  0  0  0  0  0  0  0  0  0
   -5.9240   21.7540  -32.0450 C   0  0  0  0  0  0  0  0  0  0  0  0
   -4.7750   25.1030  -30.8540 O   0  0  0  0  0  0  0  0  0  0  0  0
   -5.6440   25.9540  -30.0920 C   0  0  0  0  0  0  0  0  0  0  0  0
   -6.8710   25.2210  -29.9720 O   0  0  0  0  0  0  0  0  0  0  0  0
   -0.9385   15.0271  -35.3714 H   0  0  0  0  0  0  0  0  0  0  0  0
   -1.6055   14.2565  -36.8506 H   0  0  0  0  0  0  0  0  0  0  0  0
   -1.2115   16.0090  -36.8506 H   0  0  0  0  0  0  0  0  0  0  0  0
   -1.2011   17.1678  -34.7657 H   0  0  0  0  0  0  0  0  0  0  0  0
   -1.7419   19.2482  -33.5091 H   0  0  0  0  0  0  0  0  0  0  0  0
   -3.4040   20.7951  -32.5941 H   0  0  0  0  0  0  0  0  0  0  0  0
   -7.0695   17.9186  -34.3411 H   0  0  0  0  0  0  0  0  0  0  0  0
   -5.4262   16.3661  -35.2795 H   0  0  0  0  0  0  0  0  0  0  0  0
   -8.2611   20.7486  -33.8649 H   0  0  0  0  0  0  0  0  0  0  0  0
   -8.5738   19.1301  -33.1192 H   0  0  0  0  0  0  0  0  0  0  0  0
   -9.2324   21.0853  -31.6585 H   0  0  0  0  0  0  0  0  0  0  0  0
   -8.0333   19.9670  -30.9142 H   0  0  0  0  0  0  0  0  0  0  0  0
   -8.6462   23.0644  -30.3510 H   0  0  0  0  0  0  0  0  0  0  0  0
   -4.0115   22.8030  -32.2933 H   0  0  0  0  0  0  0  0  0  0  0  0
   -5.2151   26.1548  -29.0992 H   0  0  0  0  0  0  0  0  0  0  0  0
   -5.7924   26.9312  -30.5749 H   0  0  0  0  0  0  0  0  0  0  0  0
  1  2  1  0
  2  3  1  0
  3  4  2  0
  4  5  1  0
  5  6  2  0
  6  7  1  0
  7  8  2  0
  8  9  1  0
  9 10  2  0
 10 11  1  0
 11 12  2  0
  9 13  1  0
 13 14  1  0
 14 15  1  0
 15 16  2  0
 16 17  1  0
 17 18  2  0
 18 19  1  0
 19 20  2  0
 18 21  1  0
 21 22  1  0
 22 23  1  0
 12  3  1  0
 20 15  1  0
 11  6  1  0
 23 17  1  0
 20  8  1  0
  1 24  1  0
  1 25  1  0
  1 26  1  0
  4 27  1  0
  5 28  1  0
  7 29  1  0
 10 30  1  0
 12 31  1  0
 13 32  1  0
 13 33  1  0
 14 34  1  0
 14 35  1  0
 16 36  1  0
 19 37  1  0
 22 38  1  0
 22 39  1  0
M  CHG  1   9   1
M  END
>  <UniqueID>  (15) 
15

>  <SMILES>  (15) 
COc1ccc2cc3[n+](cc2c1)CCc1cc2c(cc1-3)OCO2

>  <Energy>  (15) 
81.36635659095623

>  <Genealogy>  (15) 
COc1ccc2cc3[n+](cc2c1)CCc1cc2c(cc1-3)OCO2 (3D coordinates assigned)
COc1ccc2cc3[n+](cc2c1)CCc1cc2c(cc1-3)OCO2 (nonaromatic ring conformer: 81.36635659095623 kcal/mol)

>  <smiles>  (15) 
COc1ccc2cc3[n+](cc2c1)CCc1cc2c(cc1-3)OCO2

>  <score_type>  (15) 
oracle

>  <origin>  (15) 
adg

>  <m_score__min__energy>  (15) 
-7.5999999999999996

>  <m_primary>  (15) 
energy

$$$$
15:0
     RDKit          3D

 47 49  0  0  0  0  0  0  0  0999 V2000
   -1.6420   22.5330  -28.8850 C   0  0  0  0  0  0  0  0  0  0  0  0
   -2.3830   23.6520  -28.1570 C   0  0  0  0  0  0  0  0  0  0  0  0
   -2.3890   24.9120  -28.9810 C   0  0  0  0  0  0  0  0  0  0  0  0
   -1.3590   25.6370  -28.9840 O   0  0  0  0  0  0  0  0  0  0  0  0
   -3.5010   25.2990  -29.8010 N   0  0  0  0  0  0  0  0  0  0  0  0
   -4.7420   24.5510  -29.9950 C   0  0  1  0  0  0  0  0  0  0  0  0
   -5.9260   25.5120  -30.1370 C   0  0  0  0  0  0  0  0  0  0  0  0
   -4.6270   23.7120  -31.2320 C   0  0  0  0  0  0  0  0  0  0  0  0
   -5.6160   23.5920  -32.0040 O   0  0  0  0  0  0  0  0  0  0  0  0
   -3.3990   23.0200  -31.5040 N   0  0  0  0  0  0  0  0  0  0  0  0
   -3.1690   22.0670  -32.5930 C   0  0  1  0  0  0  0  0  0  0  0  0
   -2.2530   20.9120  -32.1480 C   0  0  0  0  0  0  0  0  0  0  0  0
   -3.1250   19.6610  -32.0880 C   0  0  0  0  0  0  0  0  0  0  0  0
   -4.3900   20.0350  -32.6920 N   0  0  0  0  0  0  0  0  0  0  0  0
   -5.4890   19.1260  -32.8230 C   0  0  0  0  0  0  0  0  0  0  0  0
   -5.2440   17.8080  -33.2280 C   0  0  0  0  0  0  0  0  0  0  0  0
   -6.3080   16.9150  -33.3700 C   0  0  0  0  0  0  0  0  0  0  0  0
   -7.5780   17.3210  -33.1110 N   0  0  0  0  0  0  0  0  0  0  0  0
   -7.8590   18.5900  -32.7120 C   0  0  0  0  0  0  0  0  0  0  0  0
   -9.1840   18.9620  -32.4510 C   0  0  0  0  0  0  0  0  0  0  0  0
   -9.4800   20.2630  -32.0330 C   0  0  0  0  0  0  0  0  0  0  0  0
   -8.4540   21.1960  -31.8650 C   0  0  0  0  0  0  0  0  0  0  0  0
   -7.1240   20.8380  -32.1220 C   0  0  0  0  0  0  0  0  0  0  0  0
   -6.8130   19.5330  -32.5540 C   0  0  0  0  0  0  0  0  0  0  0  0
   -4.4740   21.4300  -33.0760 C   0  0  0  0  0  0  0  0  0  0  0  0
   -1.1910   21.8520  -28.1482 H   0  0  0  0  0  0  0  0  0  0  0  0
   -2.3494   21.9745  -29.5156 H   0  0  0  0  0  0  0  0  0  0  0  0
   -0.8517   22.9663  -29.5156 H   0  0  0  0  0  0  0  0  0  0  0  0
   -3.4205   23.3369  -27.9719 H   0  0  0  0  0  0  0  0  0  0  0  0
   -1.8696   23.8548  -27.2056 H   0  0  0  0  0  0  0  0  0  0  0  0
   -4.9118   23.9056  -29.1205 H   0  0  0  0  0  0  0  0  0  0  0  0
   -6.2841   25.8027  -29.1384 H   0  0  0  0  0  0  0  0  0  0  0  0
   -5.6061   26.4091  -30.6873 H   0  0  0  0  0  0  0  0  0  0  0  0
   -6.7381   25.0144  -30.6873 H   0  0  0  0  0  0  0  0  0  0  0  0
   -2.7013   22.6487  -33.4010 H   0  0  0  0  0  0  0  0  0  0  0  0
   -1.4386   20.7723  -32.8741 H   0  0  0  0  0  0  0  0  0  0  0  0
   -1.7953   21.1233  -31.1703 H   0  0  0  0  0  0  0  0  0  0  0  0
   -2.6581   18.8405  -32.6527 H   0  0  0  0  0  0  0  0  0  0  0  0
   -3.2572   19.3074  -31.0548 H   0  0  0  0  0  0  0  0  0  0  0  0
   -4.2154   17.4769  -33.4338 H   0  0  0  0  0  0  0  0  0  0  0  0
   -6.1173   15.8807  -33.6922 H   0  0  0  0  0  0  0  0  0  0  0  0
   -9.9941   18.2283  -32.5753 H   0  0  0  0  0  0  0  0  0  0  0  0
  -10.5228   20.5524  -31.8361 H   0  0  0  0  0  0  0  0  0  0  0  0
   -8.6913   22.2163  -31.5294 H   0  0  0  0  0  0  0  0  0  0  0  0
   -6.3207   21.5771  -31.9863 H   0  0  0  0  0  0  0  0  0  0  0  0
   -4.5659   21.5231  -34.1682 H   0  0  0  0  0  0  0  0  0  0  0  0
   -5.3547   21.9215  -32.6370 H   0  0  0  0  0  0  0  0  0  0  0  0
  1  2  1  0
  2  3  1  0
  3  4  2  0
  3  5  1  0
  5  6  1  0
  6  7  1  0
  6  8  1  0
  8  9  2  0
  8 10  1  0
 10 11  1  0
 11 12  1  0
 12 13  1  0
 13 14  1  0
 14 15  1  0
 15 16  2  0
 16 17  1  0
 17 18  2  0
 18 19  1  0
 19 20  2  0
 20 21  1  0
 21 22  2  0
 22 23  1  0
 23 24  2  0
 14 25  1  0
 25 11  1  0
 24 15  1  0
 24 19  1  0
  1 26  1  0
  1 27  1  0
  1 28  1  0
  2 29  1  0
  2 30  1  0
  6 31  1  1
  7 32  1  0
  7 33  1  0
  7 34  1  0
 11 35  1  6
 12 36  1  0
 12 37  1  0
 13 38  1  0
 13 39  1  0
 16 40  1  0
 17 41  1  0
 20 42  1  0
 21 43  1  0
 22 44  1  0
 23 45  1  0
 25 46  1  0
 25 47  1  0
M  CHG  2   5  -1  10  -1
M  END
>  <UniqueID>  (16) 
16

>  <SMILES>  (16) 
CCC(=O)[N-][C@@H](C)C(=O)[N-][C@H]1CCN(c2ccnc3ccccc23)C1

>  <Energy>  (16) 
51.32182471971275

>  <Genealogy>  (16) 
CCC(=O)[N-]C(C)C(=O)[N-]C1CCN(c2ccnc3ccccc23)C1 (protonated)
CCC(=O)[N-][C@@H](C)C(=O)[N-][C@H]1CCN(c2ccnc3ccccc23)C1 (chirality)
CCC(=O)[N-][C@@H](C)C(=O)[N-][C@H]1CCN(c2ccnc3ccccc23)C1 (3D coordinates assigned)
CCC(=O)[N-][C@@H](C)C(=O)[N-][C@H]1CCN(c2ccnc3ccccc23)C1 (nonaromatic ring conformer: 51.32182471971275 kcal/mol)

>  <smiles>  (16) 
CCC(=O)NC(C)C(=O)NC1CCN(c2ccnc3ccccc23)C1

>  <score_type>  (16) 
oracle

>  <origin>  (16) 
adg

>  <m_score__min__energy>  (16) 
-12.08

>  <m_primary>  (16) 
energy

$$$$
16:0
     RDKit          3D

 27 28  0  0  0  0  0  0  0  0999 V2000
   -6.4930   25.3190  -29.6890 C   0  0  0  0  0  0  0  0  0  0  0  0
   -5.6410   24.5880  -30.7370 C   0  0  0  0  0  0  0  0  0  0  0  0
   -4.9750   23.3590  -30.1050 C   0  0  0  0  0  0  0  0  0  0  0  0
   -6.4830   24.1670  -31.9590 C   0  0  0  0  0  0  0  0  0  0  0  0
   -6.8400   22.7110  -31.9120 C   0  0  0  0  0  0  0  0  0  0  0  0
   -7.7750   22.1890  -31.0940 N   0  0  0  0  0  0  0  0  0  0  0  0
   -7.8120   20.9230  -31.3870 O   0  0  0  0  0  0  0  0  0  0  0  0
   -6.9500   20.6590  -32.3410 C   0  0  0  0  0  0  0  0  0  0  0  0
   -6.7350   19.3250  -32.9150 C   0  0  0  0  0  0  0  0  0  0  0  0
   -7.2710   18.1300  -32.4530 C   0  0  0  0  0  0  0  0  0  0  0  0
   -6.8800   17.0210  -33.2130 C   0  0  0  0  0  0  0  0  0  0  0  0
   -6.0390   17.3390  -34.2720 C   0  0  0  0  0  0  0  0  0  0  0  0
   -5.7810   19.0000  -34.2610 S   0  0  0  0  0  0  0  0  0  0  0  0
   -6.3000   21.7760  -32.7150 N   0  0  0  0  0  0  0  0  0  0  0  0
   -6.1593   25.0327  -28.6807 H   0  0  0  0  0  0  0  0  0  0  0  0
   -6.3801   26.4056  -29.8178 H   0  0  0  0  0  0  0  0  0  0  0  0
   -7.5498   25.0423  -29.8178 H   0  0  0  0  0  0  0  0  0  0  0  0
   -4.8653   25.2841  -31.0887 H   0  0  0  0  0  0  0  0  0  0  0  0
   -5.0194   23.4409  -29.0090 H   0  0  0  0  0  0  0  0  0  0  0  0
   -5.5037   22.4495  -30.4264 H   0  0  0  0  0  0  0  0  0  0  0  0
   -3.9244   23.3053  -30.4264 H   0  0  0  0  0  0  0  0  0  0  0  0
   -7.4089   24.7607  -31.9755 H   0  0  0  0  0  0  0  0  0  0  0  0
   -5.8848   24.3442  -32.8649 H   0  0  0  0  0  0  0  0  0  0  0  0
   -7.9352   18.0617  -31.5788 H   0  0  0  0  0  0  0  0  0  0  0  0
   -7.2079   15.9945  -32.9923 H   0  0  0  0  0  0  0  0  0  0  0  0
   -5.6146   16.6259  -34.9941 H   0  0  0  0  0  0  0  0  0  0  0  0
   -5.5690   21.8960  -33.4500 H   0  0  0  0  0  0  0  0  0  0  0  0
  1  2  1  0
  2  3  1  0
  2  4  1  0
  4  5  1  0
  5  6  2  0
  6  7  1  0
  7  8  1  0
  8  9  1  0
  9 10  2  0
 10 11  1  0
 11 12  2  0
 12 13  1  0
  8 14  2  0
 14  5  1  0
 13  9  1  0
  1 15  1  0
  1 16  1  0
  1 17  1  0
  2 18  1  0
  3 19  1  0
  3 20  1  0
  3 21  1  0
  4 22  1  0
  4 23  1  0
 10 24  1  0
 11 25  1  0
 12 26  1  0
 14 27  1  0
M  CHG  1  14   1
M  END
>  <UniqueID>  (17) 
17

>  <SMILES>  (17) 
CC(C)Cc1noc(-c2cccs2)[nH+]1

>  <Energy>  (17) 
80.0292859922997

>  <Genealogy>  (17) 
CC(C)Cc1noc(-c2cccs2)[nH+]1 (protonated)
CC(C)Cc1noc(-c2cccs2)[nH+]1 (3D coordinates assigned)
CC(C)Cc1noc(-c2cccs2)[nH+]1 (optimized conformer: 80.0292859922997 kcal/mol)

>  <smiles>  (17) 
CC(C)Cc1noc(-c2cccs2)n1

>  <score_type>  (17) 
oracle

>  <origin>  (17) 
adg

>  <m_score__min__energy>  (17) 
-5.9299999999999997

>  <m_primary>  (17) 
energy

$$$$
17:0
     RDKit          3D

 56 58  0  0  0  0  0  0  0  0999 V2000
   -4.2320   24.8830  -26.6080 C   0  0  0  0  0  0  0  0  0  0  0  0
   -4.2250   23.7640  -27.6590 C   0  0  0  0  0  0  0  0  0  0  0  0
   -4.4660   24.2830  -29.0350 N   0  0  0  0  0  0  0  0  0  0  0  0
   -5.9090   24.2770  -29.3930 C   0  0  0  0  0  0  0  0  0  0  0  0
   -6.4920   25.6560  -29.7070 C   0  0  0  0  0  0  0  0  0  0  0  0
   -3.5890   23.7530  -30.1350 C   0  0  0  0  0  0  0  0  0  0  0  0
   -3.9110   22.3550  -30.7250 C   0  0  0  0  0  0  0  0  0  0  0  0
   -3.3110   22.1070  -32.1150 C   0  0  0  0  0  0  0  0  0  0  0  0
   -4.3670   21.9010  -33.1070 N   0  0  0  0  0  0  0  0  0  0  0  0
   -5.4380   20.9660  -32.8850 C   0  0  0  0  0  0  0  0  0  0  0  0
   -6.6960   21.4150  -32.4440 C   0  0  0  0  0  0  0  0  0  0  0  0
   -6.9780   22.7940  -32.3400 C   0  0  0  0  0  0  0  0  0  0  0  0
   -8.1900   23.2350  -31.8180 C   0  0  0  0  0  0  0  0  0  0  0  0
   -9.1430   22.3150  -31.3970 C   0  0  0  0  0  0  0  0  0  0  0  0
   -8.9070   20.9480  -31.5390 C   0  0  0  0  0  0  0  0  0  0  0  0
   -7.7020   20.4680  -32.1130 C   0  0  0  0  0  0  0  0  0  0  0  0
   -7.4900   19.1210  -32.3400 N   0  0  0  0  0  0  0  0  0  0  0  0
   -8.6240   18.1710  -32.2690 C   0  0  0  0  0  0  0  0  0  0  0  0
   -6.2280   18.6640  -32.6800 C   0  0  0  0  0  0  0  0  0  0  0  0
   -5.9130   17.2800  -32.6860 C   0  0  0  0  0  0  0  0  0  0  0  0
   -4.6530   16.8220  -33.0950 C   0  0  0  0  0  0  0  0  0  0  0  0
   -4.3360   15.3560  -33.0640 C   0  0  0  0  0  0  0  0  0  0  0  0
   -3.6720   17.7430  -33.4610 C   0  0  0  0  0  0  0  0  0  0  0  0
   -3.9390   19.1080  -33.4180 C   0  0  0  0  0  0  0  0  0  0  0  0
   -5.2000   19.5860  -33.0070 C   0  0  0  0  0  0  0  0  0  0  0  0
   -4.2292   24.4403  -25.6010 H   0  0  0  0  0  0  0  0  0  0  0  0
   -3.3378   25.5109  -26.7350 H   0  0  0  0  0  0  0  0  0  0  0  0
   -5.1340   25.4996  -26.7350 H   0  0  0  0  0  0  0  0  0  0  0  0
   -3.2463   23.2624  -27.6359 H   0  0  0  0  0  0  0  0  0  0  0  0
   -5.0386   23.0654  -27.4141 H   0  0  0  0  0  0  0  0  0  0  0  0
   -4.2510   25.3090  -28.9850 H   0  0  0  0  0  0  0  0  0  0  0  0
   -6.0401   23.6389  -30.2794 H   0  0  0  0  0  0  0  0  0  0  0  0
   -6.4482   23.9039  -28.5098 H   0  0  0  0  0  0  0  0  0  0  0  0
   -6.7146   26.1826  -28.7673 H   0  0  0  0  0  0  0  0  0  0  0  0
   -5.7630   26.2382  -30.2898 H   0  0  0  0  0  0  0  0  0  0  0  0
   -7.4175   25.5388  -30.2898 H   0  0  0  0  0  0  0  0  0  0  0  0
   -3.6350   24.4745  -30.9640 H   0  0  0  0  0  0  0  0  0  0  0  0
   -2.6051   23.6263  -29.6597 H   0  0  0  0  0  0  0  0  0  0  0  0
   -3.5175   21.5914  -30.0379 H   0  0  0  0  0  0  0  0  0  0  0  0
   -5.0039   22.3031  -30.8381 H   0  0  0  0  0  0  0  0  0  0  0  0
   -2.7062   22.9780  -32.4075 H   0  0  0  0  0  0  0  0  0  0  0  0
   -2.6852   21.2034  -32.0731 H   0  0  0  0  0  0  0  0  0  0  0  0
   -4.2940   22.3750  -34.0350 H   0  0  0  0  0  0  0  0  0  0  0  0
   -6.2310   23.5285  -32.6755 H   0  0  0  0  0  0  0  0  0  0  0  0
   -8.3942   24.3129  -31.7384 H   0  0  0  0  0  0  0  0  0  0  0  0
  -10.0853   22.6659  -30.9509 H   0  0  0  0  0  0  0  0  0  0  0  0
   -9.6682   20.2298  -31.2002 H   0  0  0  0  0  0  0  0  0  0  0  0
   -8.8666   17.9677  -31.2155 H   0  0  0  0  0  0  0  0  0  0  0  0
   -9.5006   18.6083  -32.7694 H   0  0  0  0  0  0  0  0  0  0  0  0
   -8.3470   17.2314  -32.7694 H   0  0  0  0  0  0  0  0  0  0  0  0
   -6.6725   16.5527  -32.3634 H   0  0  0  0  0  0  0  0  0  0  0  0
   -4.2631   15.0186  -32.0196 H   0  0  0  0  0  0  0  0  0  0  0  0
   -5.1341   14.7974  -33.5749 H   0  0  0  0  0  0  0  0  0  0  0  0
   -3.3784   15.1770  -33.5749 H   0  0  0  0  0  0  0  0  0  0  0  0
   -2.6824   17.3888  -33.7853 H   0  0  0  0  0  0  0  0  0  0  0  0
   -3.1557   19.8236  -33.7086 H   0  0  0  0  0  0  0  0  0  0  0  0
  1  2  1  0
  2  3  1  0
  3  4  1  0
  4  5  1  0
  3  6  1  0
  6  7  1  0
  7  8  1  0
  8  9  1  0
  9 10  1  0
 10 11  2  0
 11 12  1  0
 12 13  2  0
 13 14  1  0
 14 15  2  0
 15 16  1  0
 16 17  2  0
 17 18  1  0
 17 19  1  0
 19 20  2  0
 20 21  1  0
 21 22  1  0
 21 23  2  0
 23 24  1  0
 24 25  2  0
 25 10  1  0
 16 11  1  0
 25 19  1  0
  1 26  1  0
  1 27  1  0
  1 28  1  0
  2 29  1  0
  2 30  1  0
  3 31  1  0
  4 32  1  0
  4 33  1  0
  5 34  1  0
  5 35  1  0
  5 36  1  0
  6 37  1  0
  6 38  1  0
  7 39  1  0
  7 40  1  0
  8 41  1  0
  8 42  1  0
  9 43  1  0
 12 44  1  0
 13 45  1  0
 14 46  1  0
 15 47  1  0
 18 48  1  0
 18 49  1  0
 18 50  1  0
 20 51  1  0
 22 52  1  0
 22 53  1  0
 22 54  1  0
 23 55  1  0
 24 56  1  0
M  CHG  2   3   1  17   1
M  END
>  <UniqueID>  (18) 
18

>  <SMILES>  (18) 
CC[NH+](CC)CCCNc1c2ccccc2[n+](C)c2cc(C)ccc12

>  <Energy>  (18) 
92.53783759737931

>  <Genealogy>  (18) 
CC[NH+](CC)CCCNc1c2ccccc2[n+](C)c2cc(C)ccc12 (protonated)
CC[NH+](CC)CCCNc1c2ccccc2[n+](C)c2cc(C)ccc12 (3D coordinates assigned)
CC[NH+](CC)CCCNc1c2ccccc2[n+](C)c2cc(C)ccc12 (optimized conformer: 92.53783759737931 kcal/mol)

>  <smiles>  (18) 
CCN(CC)CCCNc1c2ccccc2[n+](C)c2cc(C)ccc12

>  <score_type>  (18) 
oracle

>  <origin>  (18) 
adg

>  <m_score__min__energy>  (18) 
-7.2400000000000002

>  <m_primary>  (18) 
energy

$$$$
18:0
     RDKit          3D

 53 55  0  0  0  0  0  0  0  0999 V2000
   -1.9370   19.8570  -27.5210 C   0  0  0  0  0  0  0  0  0  0  0  0
   -3.0920   20.8720  -27.5040 C   0  0  0  0  0  0  0  0  0  0  0  0
   -3.1080   21.8090  -28.6620 N   0  0  0  0  0  0  0  0  0  0  0  0
   -2.3820   21.2250  -29.8230 C   0  0  0  0  0  0  0  0  0  0  0  0
   -1.4530   22.2350  -30.5100 C   0  0  0  0  0  0  0  0  0  0  0  0
   -2.5830   23.1600  -28.3340 C   0  0  0  0  0  0  0  0  0  0  0  0
   -3.6820   24.1770  -27.9760 C   0  0  0  0  0  0  0  0  0  0  0  0
   -4.9090   23.8730  -28.7370 N   0  0  0  0  0  0  0  0  0  0  0  0
   -4.8800   24.3970  -30.1140 C   0  0  0  0  0  0  0  0  0  0  0  0
   -6.1240   23.9750  -30.9230 C   0  0  0  0  0  0  0  0  0  0  0  0
   -6.0290   22.6010  -31.5890 C   0  0  0  0  0  0  0  0  0  0  0  0
   -4.7690   22.1240  -31.9770 C   0  0  0  0  0  0  0  0  0  0  0  0
   -4.6240   20.9350  -32.6900 C   0  0  0  0  0  0  0  0  0  0  0  0
   -3.3380   20.5350  -33.0970 C   0  0  0  0  0  0  0  0  0  0  0  0
   -3.1610   19.3640  -33.8290 C   0  0  0  0  0  0  0  0  0  0  0  0
   -4.2610   18.5820  -34.1630 C   0  0  0  0  0  0  0  0  0  0  0  0
   -5.5450   18.9600  -33.7650 C   0  0  0  0  0  0  0  0  0  0  0  0
   -5.7580   20.1460  -33.0150 C   0  0  0  0  0  0  0  0  0  0  0  0
   -7.0450   20.5640  -32.5600 C   0  0  0  0  0  0  0  0  0  0  0  0
   -8.2180   19.8100  -32.8210 C   0  0  0  0  0  0  0  0  0  0  0  0
   -9.4580   20.2080  -32.3290 C   0  0  0  0  0  0  0  0  0  0  0  0
   -9.5640   21.3480  -31.5460 C   0  0  0  0  0  0  0  0  0  0  0  0
   -8.4380   22.1170  -31.2740 C   0  0  0  0  0  0  0  0  0  0  0  0
   -7.1690   21.7730  -31.8030 C   0  0  0  0  0  0  0  0  0  0  0  0
   -1.6530   19.6074  -26.4880 H   0  0  0  0  0  0  0  0  0  0  0  0
   -2.2588   18.9441  -28.0436 H   0  0  0  0  0  0  0  0  0  0  0  0
   -1.0730   20.2934  -28.0436 H   0  0  0  0  0  0  0  0  0  0  0  0
   -4.0399   20.3138  -27.5005 H   0  0  0  0  0  0  0  0  0  0  0  0
   -2.9530   21.4891  -26.6041 H   0  0  0  0  0  0  0  0  0  0  0  0
   -4.1140   21.9170  -28.9320 H   0  0  0  0  0  0  0  0  0  0  0  0
   -1.7787   20.3758  -29.4697 H   0  0  0  0  0  0  0  0  0  0  0  0
   -3.1345   20.9105  -30.5611 H   0  0  0  0  0  0  0  0  0  0  0  0
   -0.9167   22.8180  -29.7468 H   0  0  0  0  0  0  0  0  0  0  0  0
   -0.7271   21.6974  -31.1378 H   0  0  0  0  0  0  0  0  0  0  0  0
   -2.0492   22.9135  -31.1378 H   0  0  0  0  0  0  0  0  0  0  0  0
   -1.9002   23.0692  -27.4763 H   0  0  0  0  0  0  0  0  0  0  0  0
   -2.0753   23.5366  -29.2342 H   0  0  0  0  0  0  0  0  0  0  0  0
   -3.8964   24.1194  -26.8986 H   0  0  0  0  0  0  0  0  0  0  0  0
   -3.3373   25.1901  -28.2308 H   0  0  0  0  0  0  0  0  0  0  0  0
   -5.7160   24.3270  -28.2500 H   0  0  0  0  0  0  0  0  0  0  0  0
   -4.8387   25.4955  -30.0745 H   0  0  0  0  0  0  0  0  0  0  0  0
   -3.9935   23.9815  -30.6154 H   0  0  0  0  0  0  0  0  0  0  0  0
   -6.9868   23.9641  -30.2407 H   0  0  0  0  0  0  0  0  0  0  0  0
   -6.2209   24.7055  -31.7397 H   0  0  0  0  0  0  0  0  0  0  0  0
   -3.8719   22.7028  -31.7120 H   0  0  0  0  0  0  0  0  0  0  0  0
   -2.4659   21.1520  -32.8349 H   0  0  0  0  0  0  0  0  0  0  0  0
   -2.1521   19.0579  -34.1427 H   0  0  0  0  0  0  0  0  0  0  0  0
   -4.1189   17.6593  -34.7447 H   0  0  0  0  0  0  0  0  0  0  0  0
   -6.4042   18.3292  -34.0368 H   0  0  0  0  0  0  0  0  0  0  0  0
   -8.1463   18.8928  -33.4240 H   0  0  0  0  0  0  0  0  0  0  0  0
  -10.3560   19.6169  -32.5618 H   0  0  0  0  0  0  0  0  0  0  0  0
  -10.5419   21.6446  -31.1390 H   0  0  0  0  0  0  0  0  0  0  0  0
   -8.5339   23.0085  -30.6367 H   0  0  0  0  0  0  0  0  0  0  0  0
  1  2  1  0
  2  3  1  0
  3  4  1  0
  4  5  1  0
  3  6  1  0
  6  7  1  0
  7  8  1  0
  8  9  1  0
  9 10  1  0
 10 11  1  0
 11 12  2  0
 12 13  1  0
 13 14  2  0
 14 15  1  0
 15 16  2  0
 16 17  1  0
 17 18  2  0
 18 19  1  0
 19 20  2  0
 20 21  1  0
 21 22  2  0
 22 23  1  0
 23 24  2  0
 24 11  1  0
 18 13  1  0
 24 19  1  0
  1 25  1  0
  1 26  1  0
  1 27  1  0
  2 28  1  0
  2 29  1  0
  3 30  1  0
  4 31  1  0
  4 32  1  0
  5 33  1  0
  5 34  1  0
  5 35  1  0
  6 36  1  0
  6 37  1  0
  7 38  1  0
  7 39  1  0
  8 40  1  0
  9 41  1  0
  9 42  1  0
 10 43  1  0
 10 44  1  0
 12 45  1  0
 14 46  1  0
 15 47  1  0
 16 48  1  0
 17 49  1  0
 20 50  1  0
 21 51  1  0
 22 52  1  0
 23 53  1  0
M  CHG  1   3   1
M  END
>  <UniqueID>  (19) 
19

>  <SMILES>  (19) 
CC[NH+](CC)CCNCCc1cc2ccccc2c2ccccc12

>  <Energy>  (19) 
72.18066650559429

>  <Genealogy>  (19) 
CC[NH+](CC)CCNCCc1cc2ccccc2c2ccccc12 (protonated)
CC[NH+](CC)CCNCCc1cc2ccccc2c2ccccc12 (3D coordinates assigned)
CC[NH+](CC)CCNCCc1cc2ccccc2c2ccccc12 (optimized conformer: 72.18066650559429 kcal/mol)

>  <smiles>  (19) 
CCN(CC)CCNCCc1cc2ccccc2c2ccccc12

>  <score_type>  (19) 
oracle

>  <origin>  (19) 
adg

>  <m_score__min__energy>  (19) 
-8.0299999999999994

>  <m_primary>  (19) 
energy

$$$$
19:0
     RDKit          3D

 46 48  0  0  0  0  0  0  0  0999 V2000
   -6.6620   25.3030  -29.6870 C   0  0  0  0  0  0  0  0  0  0  0  0
   -5.1710   25.3100  -30.0080 C   0  0  0  0  0  0  0  0  0  0  0  0
   -4.6380   23.8990  -30.1270 C   0  0  0  0  0  0  0  0  0  0  0  0
   -5.1700   22.9260  -30.9950 C   0  0  0  0  0  0  0  0  0  0  0  0
   -6.2130   23.0650  -32.0350 C   0  0  0  0  0  0  0  0  0  0  0  0
   -7.1990   21.9840  -32.3400 C   0  0  0  0  0  0  0  0  0  0  0  0
   -6.2940   24.1510  -32.6710 O   0  0  0  0  0  0  0  0  0  0  0  0
   -4.4910   21.4400  -30.6040 S   0  0  0  0  0  0  0  0  0  0  0  0
   -3.4960   21.9790  -29.3660 C   0  0  0  0  0  0  0  0  0  0  0  0
   -2.5980   21.1030  -28.5800 C   0  0  0  0  0  0  0  0  0  0  0  0
   -1.2320   21.0270  -28.9020 C   0  0  0  0  0  0  0  0  0  0  0  0
   -0.3770   20.1990  -28.1670 C   0  0  0  0  0  0  0  0  0  0  0  0
   -0.8760   19.4480  -27.1010 C   0  0  0  0  0  0  0  0  0  0  0  0
   -2.2300   19.5280  -26.7620 C   0  0  0  0  0  0  0  0  0  0  0  0
   -2.7100   18.8090  -25.7180 F   0  0  0  0  0  0  0  0  0  0  0  0
   -3.0870   20.3560  -27.4930 C   0  0  0  0  0  0  0  0  0  0  0  0
   -3.6950   23.3570  -29.2130 C   0  0  0  0  0  0  0  0  0  0  0  0
   -3.0720   24.1340  -28.1220 C   0  0  0  0  0  0  0  0  0  0  0  0
   -1.6980   24.4170  -28.1490 C   0  0  0  0  0  0  0  0  0  0  0  0
   -1.1030   25.1200  -27.0970 C   0  0  0  0  0  0  0  0  0  0  0  0
   -1.8760   25.5390  -26.0090 C   0  0  0  0  0  0  0  0  0  0  0  0
   -1.1220   26.4080  -24.6840 S   0  0  0  0  0  0  0  0  0  0  0  0
   -0.7970   28.1050  -25.1070 C   0  0  0  0  0  0  0  0  0  0  0  0
    0.2630   25.6220  -24.1500 O   0  0  0  0  0  0  0  0  0  0  0  0
   -3.2470   25.2550  -25.9760 C   0  0  0  0  0  0  0  0  0  0  0  0
   -3.8430   24.5540  -27.0280 C   0  0  0  0  0  0  0  0  0  0  0  0
   -6.8022   25.3023  -28.5960 H   0  0  0  0  0  0  0  0  0  0  0  0
   -7.1338   26.1989  -30.1168 H   0  0  0  0  0  0  0  0  0  0  0  0
   -7.1254   24.4027  -30.1168 H   0  0  0  0  0  0  0  0  0  0  0  0
   -5.0099   25.8373  -30.9598 H   0  0  0  0  0  0  0  0  0  0  0  0
   -4.6380   25.8195  -29.1917 H   0  0  0  0  0  0  0  0  0  0  0  0
   -7.5835   21.5624  -31.3996 H   0  0  0  0  0  0  0  0  0  0  0  0
   -8.0332   22.4022  -32.9225 H   0  0  0  0  0  0  0  0  0  0  0  0
   -6.7060   21.1917  -32.9225 H   0  0  0  0  0  0  0  0  0  0  0  0
   -0.8330   21.6220  -29.7367 H   0  0  0  0  0  0  0  0  0  0  0  0
    0.6896   20.1395  -28.4292 H   0  0  0  0  0  0  0  0  0  0  0  0
   -0.2035   18.7931  -26.5276 H   0  0  0  0  0  0  0  0  0  0  0  0
   -4.1496   20.4237  -27.2166 H   0  0  0  0  0  0  0  0  0  0  0  0
   -1.0867   24.0846  -29.0009 H   0  0  0  0  0  0  0  0  0  0  0  0
   -0.0264   25.3437  -27.1249 H   0  0  0  0  0  0  0  0  0  0  0  0
   -0.6836   28.6970  -24.1868 H   0  0  0  0  0  0  0  0  0  0  0  0
    0.1289   28.1648  -25.6979 H   0  0  0  0  0  0  0  0  0  0  0  0
   -1.6353   28.5026  -25.6979 H   0  0  0  0  0  0  0  0  0  0  0  0
    0.0240   25.2640  -23.2570 H   0  0  0  0  0  0  0  0  0  0  0  0
   -3.8556   25.5841  -25.1209 H   0  0  0  0  0  0  0  0  0  0  0  0
   -4.9197   24.3310  -26.9980 H   0  0  0  0  0  0  0  0  0  0  0  0
  1  2  1  0
  2  3  1  0
  3  4  2  0
  4  5  1  0
  5  6  1  0
  5  7  2  0
  4  8  1  0
  8  9  1  0
  9 10  1  0
 10 11  2  0
 11 12  1  0
 12 13  2  0
 13 14  1  0
 14 15  1  0
 14 16  2  0
  9 17  2  0
 17 18  1  0
 18 19  2  0
 19 20  1  0
 20 21  2  0
 21 22  1  0
 22 23  1  0
 22 24  1  6
 21 25  1  0
 25 26  2  0
 17  3  1  0
 26 18  1  0
 16 10  1  0
  1 27  1  0
  1 28  1  0
  1 29  1  0
  2 30  1  0
  2 31  1  0
  6 32  1  0
  6 33  1  0
  6 34  1  0
 11 35  1  0
 12 36  1  0
 13 37  1  0
 16 38  1  0
 19 39  1  0
 20 40  1  0
 23 41  1  0
 23 42  1  0
 23 43  1  0
 24 44  1  0
 25 45  1  0
 26 46  1  0
M  CHG  1  22   1
M  END
>  <UniqueID>  (20) 
20

>  <SMILES>  (20) 
CCc1c(C(C)=O)sc(-c2cccc(F)c2)c1-c1ccc([S@+](C)O)cc1

>  <Energy>  (20) 
79.8507422618693

>  <Genealogy>  (20) 
CCc1c(C(C)=O)sc(-c2cccc(F)c2)c1-c1ccc([S+](C)O)cc1 (protonated)
CCc1c(C(C)=O)sc(-c2cccc(F)c2)c1-c1ccc([S@+](C)O)cc1 (chirality)
CCc1c(C(C)=O)sc(-c2cccc(F)c2)c1-c1ccc([S@+](C)O)cc1 (3D coordinates assigned)
CCc1c(C(C)=O)sc(-c2cccc(F)c2)c1-c1ccc([S@+](C)O)cc1 (optimized conformer: 79.8507422618693 kcal/mol)

>  <smiles>  (20) 
CCc1c(C(C)=O)sc(-c2cccc(F)c2)c1-c1ccc([S+](C)[O-])cc1

>  <score_type>  (20) 
oracle

>  <origin>  (20) 
adg

>  <m_score__min__energy>  (20) 
-8.2200000000000006

>  <m_primary>  (20) 
energy

$$$$
20:0
     RDKit          3D

 41 44  0  0  0  0  0  0  0  0999 V2000
   -9.4800   22.1030  -31.6440 C   0  0  0  0  0  0  0  0  0  0  0  0
   -8.0800   22.4960  -31.8050 N   0  0  0  0  0  0  0  0  0  0  0  0
   -7.6250   23.7380  -31.5120 C   0  0  0  0  0  0  0  0  0  0  0  0
   -6.2670   23.8350  -31.7430 C   0  0  0  0  0  0  0  0  0  0  0  0
   -5.8900   22.5950  -32.2000 C   0  0  0  0  0  0  0  0  0  0  0  0
   -4.6260   22.1580  -32.5510 C   0  0  0  0  0  0  0  0  0  0  0  0
   -4.4770   20.8340  -32.9610 C   0  0  0  0  0  0  0  0  0  0  0  0
   -3.2370   20.3950  -33.3010 F   0  0  0  0  0  0  0  0  0  0  0  0
   -5.5930   19.9640  -33.0390 C   0  0  0  0  0  0  0  0  0  0  0  0
   -6.9070   20.4320  -32.6950 C   0  0  0  0  0  0  0  0  0  0  0  0
   -7.0030   21.7830  -32.2470 C   0  0  0  0  0  0  0  0  0  0  0  0
   -8.1510   19.5460  -32.7440 C   0  0  0  0  0  0  0  0  0  0  0  0
   -8.0710   18.1310  -32.1530 C   0  0  0  0  0  0  0  0  0  0  0  0
   -6.6750   17.8150  -31.5840 C   0  0  0  0  0  0  0  0  0  0  0  0
   -5.7140   17.4390  -32.6470 N   0  0  1  0  0  0  0  0  0  0  0  0
   -6.2510   16.3800  -33.5300 C   0  0  0  0  0  0  0  0  0  0  0  0
   -5.4120   15.0880  -33.4470 C   0  0  0  0  0  0  0  0  0  0  0  0
   -4.5910   14.7610  -34.6840 C   0  0  0  0  0  0  0  0  0  0  0  0
   -5.8530   13.9680  -34.3770 C   0  0  0  0  0  0  0  0  0  0  0  0
   -5.3200   18.5720  -33.4560 C   0  0  0  0  0  0  0  0  0  0  0  0
   -4.8040   18.3740  -34.5910 O   0  0  0  0  0  0  0  0  0  0  0  0
   -9.7210   22.0354  -30.5729 H   0  0  0  0  0  0  0  0  0  0  0  0
  -10.1286   22.8538  -32.1190 H   0  0  0  0  0  0  0  0  0  0  0  0
   -9.6431   21.1244  -32.1190 H   0  0  0  0  0  0  0  0  0  0  0  0
   -8.2539   24.5601  -31.1395 H   0  0  0  0  0  0  0  0  0  0  0  0
   -5.6250   24.7156  -31.5934 H   0  0  0  0  0  0  0  0  0  0  0  0
   -3.7614   22.8367  -32.5079 H   0  0  0  0  0  0  0  0  0  0  0  0
   -8.9489   20.0777  -32.2048 H   0  0  0  0  0  0  0  0  0  0  0  0
   -8.3178   19.3782  -33.8183 H   0  0  0  0  0  0  0  0  0  0  0  0
   -8.8113   18.0428  -31.3442 H   0  0  0  0  0  0  0  0  0  0  0  0
   -8.2750   17.4152  -32.9630 H   0  0  0  0  0  0  0  0  0  0  0  0
   -6.2952   18.7048  -31.0605 H   0  0  0  0  0  0  0  0  0  0  0  0
   -6.7734   16.9610  -30.8976 H   0  0  0  0  0  0  0  0  0  0  0  0
   -4.8520   17.0680  -32.1790 H   0  0  0  0  0  0  0  0  0  0  0  0
   -7.2843   16.1540  -33.2280 H   0  0  0  0  0  0  0  0  0  0  0  0
   -6.2144   16.7466  -34.5665 H   0  0  0  0  0  0  0  0  0  0  0  0
   -5.1983   15.1709  -32.3711 H   0  0  0  0  0  0  0  0  0  0  0  0
   -4.5736   15.4600  -35.5332 H   0  0  0  0  0  0  0  0  0  0  0  0
   -3.5382   14.5047  -34.8734 H   0  0  0  0  0  0  0  0  0  0  0  0
   -6.7480   14.0939  -35.0040 H   0  0  0  0  0  0  0  0  0  0  0  0
   -6.0906   12.9012  -34.2523 H   0  0  0  0  0  0  0  0  0  0  0  0
  1  2  1  0
  2  3  1  0
  3  4  2  0
  4  5  1  0
  5  6  2  0
  6  7  1  0
  7  8  1  0
  7  9  2  0
  9 10  1  0
 10 11  2  0
 10 12  1  0
 12 13  1  0
 13 14  1  0
 14 15  1  0
 15 16  1  0
 16 17  1  0
 17 18  1  0
 18 19  1  0
 15 20  1  0
 20 21  2  0
 11  2  1  0
 19 17  1  0
 11  5  1  0
 20  9  1  0
  1 22  1  0
  1 23  1  0
  1 24  1  0
  3 25  1  0
  4 26  1  0
  6 27  1  0
 12 28  1  0
 12 29  1  0
 13 30  1  0
 13 31  1  0
 14 32  1  0
 14 33  1  0
 15 34  1  1
 16 35  1  0
 16 36  1  0
 17 37  1  0
 18 38  1  0
 18 39  1  0
 19 40  1  0
 19 41  1  0
M  CHG  1  15   1
M  END
>  <UniqueID>  (21) 
21

>  <SMILES>  (21) 
Cn1ccc2cc(F)c3c(c21)CCC[N@@H+](CC1CC1)C3=O

>  <Energy>  (21) 
364.0229630868536

>  <Genealogy>  (21) 
Cn1ccc2cc(F)c3c(c21)CCC[NH+](CC1CC1)C3=O (protonated)
Cn1ccc2cc(F)c3c(c21)CCC[N@@H+](CC1CC1)C3=O (chirality)
Cn1ccc2cc(F)c3c(c21)CCC[N@@H+](CC1CC1)C3=O (3D coordinates assigned)
Cn1ccc2cc(F)c3c(c21)CCC[N@@H+](CC1CC1)C3=O (nonaromatic ring conformer: 364.0229630868536 kcal/mol)

>  <smiles>  (21) 
Cn1ccc2cc(F)c3c(c21)CCCN(CC1CC1)C3=O

>  <score_type>  (21) 
oracle

>  <origin>  (21) 
adg

>  <m_score__min__energy>  (21) 
-5.6100000000000003

>  <m_primary>  (21) 
energy

$$$$
21:0
     RDKit          3D

 57 59  0  0  0  0  0  0  0  0999 V2000
   -6.4370   17.4530  -30.9220 C   0  0  0  0  0  0  0  0  0  0  0  0
   -6.4940   16.9970  -32.3790 C   0  0  0  0  0  0  0  0  0  0  0  0
   -5.2880   17.4080  -33.1320 N   0  0  0  0  0  0  0  0  0  0  0  0
   -5.5200   17.4400  -34.5910 C   0  0  0  0  0  0  0  0  0  0  0  0
   -4.2400   17.0560  -35.3240 C   0  0  0  0  0  0  0  0  0  0  0  0
   -4.5930   18.6130  -32.6130 C   0  0  0  0  0  0  0  0  0  0  0  0
   -4.6970   19.8800  -33.4910 C   0  0  0  0  0  0  0  0  0  0  0  0
   -5.5100   20.9300  -32.8730 N   0  0  0  0  0  0  0  0  0  0  0  0
   -5.0850   22.1760  -32.5540 C   0  0  0  0  0  0  0  0  0  0  0  0
   -6.1370   22.9240  -32.0440 C   0  0  0  0  0  0  0  0  0  0  0  0
   -6.0710   24.6460  -31.5470 S   0  0  0  0  0  0  0  0  0  0  0  0
   -6.4670   24.3270  -29.7930 C   0  0  0  0  0  0  0  0  0  0  0  0
   -5.3710   24.8990  -28.8800 C   0  0  0  0  0  0  0  0  0  0  0  0
   -4.4090   23.8930  -28.3570 N   0  0  0  0  0  0  0  0  0  0  0  0
   -3.4820   24.4320  -27.3300 C   0  0  0  0  0  0  0  0  0  0  0  0
   -2.1740   25.0230  -27.9120 C   0  0  0  0  0  0  0  0  0  0  0  0
   -2.0230   24.7990  -29.2980 O   0  0  0  0  0  0  0  0  0  0  0  0
   -2.2480   23.4400  -29.5820 C   0  0  0  0  0  0  0  0  0  0  0  0
   -3.7380   23.1040  -29.4270 C   0  0  0  0  0  0  0  0  0  0  0  0
   -7.2430   22.1010  -32.0750 C   0  0  0  0  0  0  0  0  0  0  0  0
   -8.5720   22.3420  -31.7300 C   0  0  0  0  0  0  0  0  0  0  0  0
   -9.4970   21.2980  -31.9100 C   0  0  0  0  0  0  0  0  0  0  0  0
   -9.0790   20.0580  -32.4400 C   0  0  0  0  0  0  0  0  0  0  0  0
   -7.7330   19.8480  -32.7930 C   0  0  0  0  0  0  0  0  0  0  0  0
   -6.8310   20.8960  -32.5880 C   0  0  0  0  0  0  0  0  0  0  0  0
   -6.5460   16.5810  -30.2604 H   0  0  0  0  0  0  0  0  0  0  0  0
   -5.4708   17.9418  -30.7283 H   0  0  0  0  0  0  0  0  0  0  0  0
   -7.2532   18.1646  -30.7283 H   0  0  0  0  0  0  0  0  0  0  0  0
   -6.5737   15.9002  -32.4058 H   0  0  0  0  0  0  0  0  0  0  0  0
   -7.3685   17.4690  -32.8506 H   0  0  0  0  0  0  0  0  0  0  0  0
   -6.3173   16.7278  -34.8500 H   0  0  0  0  0  0  0  0  0  0  0  0
   -5.8198   18.4553  -34.8897 H   0  0  0  0  0  0  0  0  0  0  0  0
   -3.4544   16.8203  -34.5910 H   0  0  0  0  0  0  0  0  0  0  0  0
   -4.4290   16.1750  -35.9550 H   0  0  0  0  0  0  0  0  0  0  0  0
   -3.9129   17.8955  -35.9550 H   0  0  0  0  0  0  0  0  0  0  0  0
   -5.0192   18.8499  -31.6270 H   0  0  0  0  0  0  0  0  0  0  0  0
   -3.5243   18.3538  -32.5882 H   0  0  0  0  0  0  0  0  0  0  0  0
   -3.6843   20.2738  -33.6622 H   0  0  0  0  0  0  0  0  0  0  0  0
   -5.1859   19.5923  -34.4335 H   0  0  0  0  0  0  0  0  0  0  0  0
   -4.0554   22.5419  -32.6808 H   0  0  0  0  0  0  0  0  0  0  0  0
   -7.4278   24.8027  -29.5467 H   0  0  0  0  0  0  0  0  0  0  0  0
   -6.5298   23.2402  -29.6349 H   0  0  0  0  0  0  0  0  0  0  0  0
   -4.8051   25.6486  -29.4525 H   0  0  0  0  0  0  0  0  0  0  0  0
   -5.8857   25.3207  -28.0041 H   0  0  0  0  0  0  0  0  0  0  0  0
   -5.0170   23.2100  -27.8420 H   0  0  0  0  0  0  0  0  0  0  0  0
   -4.0037   25.2258  -26.7753 H   0  0  0  0  0  0  0  0  0  0  0  0
   -3.1921   23.5875  -26.6875 H   0  0  0  0  0  0  0  0  0  0  0  0
   -2.1720   26.1082  -27.7324 H   0  0  0  0  0  0  0  0  0  0  0  0
   -1.3376   24.5156  -27.4090 H   0  0  0  0  0  0  0  0  0  0  0  0
   -1.9335   23.2279  -30.6145 H   0  0  0  0  0  0  0  0  0  0  0  0
   -1.6671   22.8259  -28.8781 H   0  0  0  0  0  0  0  0  0  0  0  0
   -4.2438   23.3091  -30.3820 H   0  0  0  0  0  0  0  0  0  0  0  0
   -3.8061   22.0435  -29.1428 H   0  0  0  0  0  0  0  0  0  0  0  0
   -8.8870   23.3171  -31.3300 H   0  0  0  0  0  0  0  0  0  0  0  0
  -10.5518   21.4484  -31.6364 H   0  0  0  0  0  0  0  0  0  0  0  0
   -9.8116   19.2492  -32.5782 H   0  0  0  0  0  0  0  0  0  0  0  0
   -7.4010   18.8889  -33.2171 H   0  0  0  0  0  0  0  0  0  0  0  0
  1  2  1  0
  2  3  1  0
  3  4  1  0
  4  5  1  0
  3  6  1  0
  6  7  1  0
  7  8  1  0
  8  9  1  0
  9 10  2  0
 10 11  1  0
 11 12  1  0
 12 13  1  0
 13 14  1  0
 14 15  1  0
 15 16  1  0
 16 17  1  0
 17 18  1  0
 18 19  1  0
 10 20  1  0
 20 21  2  0
 21 22  1  0
 22 23  2  0
 23 24  1  0
 24 25  2  0
 25  8  1  0
 19 14  1  0
 25 20  1  0
  1 26  1  0
  1 27  1  0
  1 28  1  0
  2 29  1  0
  2 30  1  0
  4 31  1  0
  4 32  1  0
  5 33  1  0
  5 34  1  0
  5 35  1  0
  6 36  1  0
  6 37  1  0
  7 38  1  0
  7 39  1  0
  9 40  1  0
 12 41  1  0
 12 42  1  0
 13 43  1  0
 13 44  1  0
 14 45  1  0
 15 46  1  0
 15 47  1  0
 16 48  1  0
 16 49  1  0
 18 50  1  0
 18 51  1  0
 19 52  1  0
 19 53  1  0
 21 54  1  0
 22 55  1  0
 23 56  1  0
 24 57  1  0
M  CHG  1  14   1
M  END
>  <UniqueID>  (22) 
22

>  <SMILES>  (22) 
CCN(CC)CCn1cc(SCC[NH+]2CCOCC2)c2ccccc21

>  <Energy>  (22) 
100.32392149823941

>  <Genealogy>  (22) 
CCN(CC)CCn1cc(SCC[NH+]2CCOCC2)c2ccccc21 (protonated)
CCN(CC)CCn1cc(SCC[NH+]2CCOCC2)c2ccccc21 (3D coordinates assigned)
CCN(CC)CCn1cc(SCC[NH+]2CCOCC2)c2ccccc21 (nonaromatic ring conformer: 100.32392149823941 kcal/mol)

>  <smiles>  (22) 
CCN(CC)CCn1cc(SCCN2CCOCC2)c2ccccc21

>  <score_type>  (22) 
oracle

>  <origin>  (22) 
adg

>  <m_score__min__energy>  (22) 
-7.5800000000000001

>  <m_primary>  (22) 
energy

$$$$
22:0
     RDKit          3D

 44 46  0  0  0  0  0  0  0  0999 V2000
   -2.9000   19.5740  -33.9560 C   0  0  0  0  0  0  0  0  0  0  0  0
   -4.2240   19.0010  -33.5260 C   0  0  0  0  0  0  0  0  0  0  0  0
   -4.3780   17.6140  -33.5450 C   0  0  0  0  0  0  0  0  0  0  0  0
   -5.9120   17.2180  -33.0220 S   0  0  0  0  0  0  0  0  0  0  0  0
   -6.4230   18.8000  -32.7460 C   0  0  0  0  0  0  0  0  0  0  0  0
   -5.3930   19.6940  -33.0580 C   0  0  0  0  0  0  0  0  0  0  0  0
   -5.6240   21.0900  -32.8780 C   0  0  0  0  0  0  0  0  0  0  0  0
   -4.5870   22.0760  -33.1190 N   0  0  0  0  0  0  0  0  0  0  0  0
   -3.4780   21.9130  -32.1600 C   0  0  0  0  0  0  0  0  0  0  0  0
   -3.4260   23.0740  -31.1560 C   0  0  0  0  0  0  0  0  0  0  0  0
   -4.7540   23.7070  -30.9910 N   0  0  0  0  0  0  0  0  0  0  0  0
   -5.4500   23.1300  -29.8300 C   0  0  0  0  0  0  0  0  0  0  0  0
   -4.6300   25.1640  -30.8130 C   0  0  0  0  0  0  0  0  0  0  0  0
   -6.9320   21.5060  -32.4710 C   0  0  0  0  0  0  0  0  0  0  0  0
   -7.2730   22.8780  -32.3510 C   0  0  0  0  0  0  0  0  0  0  0  0
   -8.5460   23.2750  -31.9530 C   0  0  0  0  0  0  0  0  0  0  0  0
   -9.5160   22.3280  -31.6680 C   0  0  0  0  0  0  0  0  0  0  0  0
   -9.2230   20.9730  -31.7800 C   0  0  0  0  0  0  0  0  0  0  0  0
   -7.9370   20.5280  -32.1790 C   0  0  0  0  0  0  0  0  0  0  0  0
   -7.6540   19.1830  -32.2910 N   0  0  0  0  0  0  0  0  0  0  0  0
   -8.6720   18.1670  -31.9510 C   0  0  0  0  0  0  0  0  0  0  0  0
   -2.3057   19.8312  -33.0669 H   0  0  0  0  0  0  0  0  0  0  0  0
   -2.3567   18.8305  -34.5577 H   0  0  0  0  0  0  0  0  0  0  0  0
   -3.0702   20.4790  -34.5577 H   0  0  0  0  0  0  0  0  0  0  0  0
   -3.6074   16.8935  -33.8565 H   0  0  0  0  0  0  0  0  0  0  0  0
   -4.9690   23.0390  -33.0940 H   0  0  0  0  0  0  0  0  0  0  0  0
   -4.2350   22.0020  -34.0980 H   0  0  0  0  0  0  0  0  0  0  0  0
   -3.6170   20.9707  -31.6097 H   0  0  0  0  0  0  0  0  0  0  0  0
   -2.5335   21.9020  -32.7237 H   0  0  0  0  0  0  0  0  0  0  0  0
   -3.0895   22.6896  -30.1818 H   0  0  0  0  0  0  0  0  0  0  0  0
   -2.7272   23.8318  -31.5399 H   0  0  0  0  0  0  0  0  0  0  0  0
   -4.9935   23.5085  -28.9035 H   0  0  0  0  0  0  0  0  0  0  0  0
   -6.5116   23.4165  -29.8593 H   0  0  0  0  0  0  0  0  0  0  0  0
   -5.3652   22.0337  -29.8593 H   0  0  0  0  0  0  0  0  0  0  0  0
   -4.6098   25.4018  -29.7392 H   0  0  0  0  0  0  0  0  0  0  0  0
   -3.6989   25.5129  -31.2834 H   0  0  0  0  0  0  0  0  0  0  0  0
   -5.4887   25.6653  -31.2834 H   0  0  0  0  0  0  0  0  0  0  0  0
   -6.5159   23.6433  -32.5771 H   0  0  0  0  0  0  0  0  0  0  0  0
   -8.7830   24.3455  -31.8643 H   0  0  0  0  0  0  0  0  0  0  0  0
  -10.5199   22.6483  -31.3525 H   0  0  0  0  0  0  0  0  0  0  0  0
  -10.0041   20.2320  -31.5547 H   0  0  0  0  0  0  0  0  0  0  0  0
   -8.7557   18.0835  -30.8574 H   0  0  0  0  0  0  0  0  0  0  0  0
   -9.6435   18.4664  -32.3713 H   0  0  0  0  0  0  0  0  0  0  0  0
   -8.3745   17.1949  -32.3713 H   0  0  0  0  0  0  0  0  0  0  0  0
  1  2  1  0
  2  3  2  0
  3  4  1  0
  4  5  1  0
  5  6  2  0
  6  7  1  0
  7  8  1  0
  8  9  1  0
  9 10  1  0
 10 11  1  0
 11 12  1  0
 11 13  1  0
  7 14  2  0
 14 15  1  0
 15 16  2  0
 16 17  1  0
 17 18  2  0
 18 19  1  0
 19 20  2  0
 20 21  1  0
  6  2  1  0
 19 14  1  0
 20  5  1  0
  1 22  1  0
  1 23  1  0
  1 24  1  0
  3 25  1  0
  8 26  1  0
  8 27  1  0
  9 28  1  0
  9 29  1  0
 10 30  1  0
 10 31  1  0
 12 32  1  0
 12 33  1  0
 12 34  1  0
 13 35  1  0
 13 36  1  0
 13 37  1  0
 15 38  1  0
 16 39  1  0
 17 40  1  0
 18 41  1  0
 21 42  1  0
 21 43  1  0
 21 44  1  0
M  CHG  2   8   1  20   1
M  END
>  <UniqueID>  (23) 
23

>  <SMILES>  (23) 
Cc1csc2c1c([NH2+]CCN(C)C)c1ccccc1[n+]2C

>  <Energy>  (23) 
96.98890422315037

>  <Genealogy>  (23) 
Cc1csc2c1c([NH2+]CCN(C)C)c1ccccc1[n+]2C (protonated)
Cc1csc2c1c([NH2+]CCN(C)C)c1ccccc1[n+]2C (3D coordinates assigned)
Cc1csc2c1c([NH2+]CCN(C)C)c1ccccc1[n+]2C (optimized conformer: 96.98890422315037 kcal/mol)

>  <smiles>  (23) 
Cc1csc2c1c(NCCN(C)C)c1ccccc1[n+]2C

>  <score_type>  (23) 
oracle

>  <origin>  (23) 
adg

>  <m_score__min__energy>  (23) 
-7.46

>  <m_primary>  (23) 
energy

$$$$
23:0
     RDKit          3D

 45 46  0  0  0  0  0  0  0  0999 V2000
   -4.0290   20.0710  -33.2210 C   0  0  0  0  0  0  0  0  0  0  0  0
   -3.6710   18.5800  -33.3030 C   0  0  0  0  0  0  0  0  0  0  0  0
   -4.8030   17.6960  -33.6760 N   0  0  2  0  0  0  0  0  0  0  0  0
   -5.4750   18.1610  -34.9070 C   0  0  0  0  0  0  0  0  0  0  0  0
   -5.7560   17.5150  -32.5490 C   0  0  0  0  0  0  0  0  0  0  0  0
   -7.2290   17.7020  -32.9660 C   0  0  0  0  0  0  0  0  0  0  0  0
   -8.1980   18.4390  -31.6600 S   0  0  0  0  0  0  0  0  0  0  0  0
   -9.7490   17.7940  -31.5840 O   0  0  0  0  0  0  0  0  0  0  0  0
   -8.2400   20.1870  -31.7850 C   0  0  0  0  0  0  0  0  0  0  0  0
   -9.4620   20.8670  -31.7520 C   0  0  0  0  0  0  0  0  0  0  0  0
   -9.4910   22.2590  -31.8670 C   0  0  0  0  0  0  0  0  0  0  0  0
   -8.2990   22.9760  -32.0090 C   0  0  0  0  0  0  0  0  0  0  0  0
   -7.0640   22.3040  -32.0220 C   0  0  0  0  0  0  0  0  0  0  0  0
   -5.8270   23.0160  -32.1960 N   0  0  0  0  0  0  0  0  0  0  0  0
   -4.9620   23.4170  -31.1200 C   0  0  0  0  0  0  0  0  0  0  0  0
   -5.4420   24.1850  -30.0430 C   0  0  0  0  0  0  0  0  0  0  0  0
   -4.5880   24.5380  -28.9930 C   0  0  0  0  0  0  0  0  0  0  0  0
   -3.2550   24.1170  -29.0010 C   0  0  0  0  0  0  0  0  0  0  0  0
   -2.7770   23.3350  -30.0560 C   0  0  0  0  0  0  0  0  0  0  0  0
   -3.6280   22.9790  -31.1070 C   0  0  0  0  0  0  0  0  0  0  0  0
   -7.0460   20.9030  -31.9290 C   0  0  0  0  0  0  0  0  0  0  0  0
   -4.1016   20.3732  -32.1658 H   0  0  0  0  0  0  0  0  0  0  0  0
   -3.2476   20.6636  -33.7192 H   0  0  0  0  0  0  0  0  0  0  0  0
   -4.9943   20.2443  -33.7192 H   0  0  0  0  0  0  0  0  0  0  0  0
   -2.8773   18.4579  -34.0547 H   0  0  0  0  0  0  0  0  0  0  0  0
   -3.3566   18.2773  -32.2933 H   0  0  0  0  0  0  0  0  0  0  0  0
   -4.3750   16.7640  -33.8930 H   0  0  0  0  0  0  0  0  0  0  0  0
   -6.3523   18.7680  -34.6389 H   0  0  0  0  0  0  0  0  0  0  0  0
   -4.7754   18.7691  -35.4993 H   0  0  0  0  0  0  0  0  0  0  0  0
   -5.7976   17.2920  -35.4993 H   0  0  0  0  0  0  0  0  0  0  0  0
   -5.6326   16.4990  -32.1460 H   0  0  0  0  0  0  0  0  0  0  0  0
   -5.5271   18.2864  -31.7989 H   0  0  0  0  0  0  0  0  0  0  0  0
   -7.2687   18.3545  -33.8507 H   0  0  0  0  0  0  0  0  0  0  0  0
   -7.6507   16.7105  -33.1874 H   0  0  0  0  0  0  0  0  0  0  0  0
   -9.8440   17.4710  -30.6530 H   0  0  0  0  0  0  0  0  0  0  0  0
  -10.4006   20.3054  -31.6354 H   0  0  0  0  0  0  0  0  0  0  0  0
  -10.4531   22.7918  -31.8458 H   0  0  0  0  0  0  0  0  0  0  0  0
   -8.3276   24.0709  -32.1110 H   0  0  0  0  0  0  0  0  0  0  0  0
   -5.5370   23.2590  -33.1710 H   0  0  0  0  0  0  0  0  0  0  0  0
   -6.4931   24.5090  -30.0268 H   0  0  0  0  0  0  0  0  0  0  0  0
   -4.9660   25.1480  -28.1594 H   0  0  0  0  0  0  0  0  0  0  0  0
   -2.5830   24.4010  -28.1777 H   0  0  0  0  0  0  0  0  0  0  0  0
   -1.7296   22.9989  -30.0597 H   0  0  0  0  0  0  0  0  0  0  0  0
   -3.2502   22.3523  -31.9282 H   0  0  0  0  0  0  0  0  0  0  0  0
   -6.0875   20.3648  -31.9696 H   0  0  0  0  0  0  0  0  0  0  0  0
  1  2  1  0
  2  3  1  0
  3  4  1  0
  3  5  1  0
  5  6  1  0
  6  7  1  0
  7  8  1  6
  7  9  1  0
  9 10  2  0
 10 11  1  0
 11 12  2  0
 12 13  1  0
 13 14  1  0
 14 15  1  0
 15 16  2  0
 16 17  1  0
 17 18  2  0
 18 19  1  0
 19 20  2  0
 13 21  2  0
 21  9  1  0
 20 15  1  0
  1 22  1  0
  1 23  1  0
  1 24  1  0
  2 25  1  0
  2 26  1  0
  3 27  1  6
  4 28  1  0
  4 29  1  0
  4 30  1  0
  5 31  1  0
  5 32  1  0
  6 33  1  0
  6 34  1  0
  8 35  1  0
 10 36  1  0
 11 37  1  0
 12 38  1  0
 14 39  1  0
 16 40  1  0
 17 41  1  0
 18 42  1  0
 19 43  1  0
 20 44  1  0
 21 45  1  0
M  CHG  2   3   1   7   1
M  END
>  <UniqueID>  (24) 
24

>  <SMILES>  (24) 
CC[N@H+](C)CC[S@+](O)c1cccc(Nc2ccccc2)c1

>  <Energy>  (24) 
48.32157086521884

>  <Genealogy>  (24) 
CC[NH+](C)CC[S+](O)c1cccc(Nc2ccccc2)c1 (protonated)
CC[N@H+](C)CC[S@+](O)c1cccc(Nc2ccccc2)c1 (chirality)
CC[N@H+](C)CC[S@+](O)c1cccc(Nc2ccccc2)c1 (3D coordinates assigned)
CC[N@H+](C)CC[S@+](O)c1cccc(Nc2ccccc2)c1 (optimized conformer: 48.32157086521884 kcal/mol)

>  <smiles>  (24) 
CCN(C)CC[S+]([O-])c1cccc(Nc2ccccc2)c1

>  <score_type>  (24) 
oracle

>  <origin>  (24) 
adg

>  <m_score__min__energy>  (24) 
-7.2199999999999998

>  <m_primary>  (24) 
energy

$$$$
24:0
     RDKit          3D

 55 57  0  0  0  0  0  0  0  0999 V2000
   -1.5630   21.2070  -31.5510 C   0  0  0  0  0  0  0  0  0  0  0  0
   -1.5310   20.9280  -30.0510 C   0  0  0  0  0  0  0  0  0  0  0  0
   -1.8780   22.1350  -29.2840 N   0  0  0  0  0  0  0  0  0  0  0  0
   -1.4660   23.4530  -29.7980 C   0  0  0  0  0  0  0  0  0  0  0  0
   -1.3200   24.4670  -28.6950 C   0  0  0  0  0  0  0  0  0  0  0  0
   -1.6290   25.6680  -28.9280 O   0  0  0  0  0  0  0  0  0  0  0  0
   -0.8370   24.0790  -27.3980 N   0  0  0  0  0  0  0  0  0  0  0  0
   -0.5750   25.0200  -26.3440 C   0  0  0  0  0  0  0  0  0  0  0  0
    0.7460   25.3480  -25.9930 C   0  0  0  0  0  0  0  0  0  0  0  0
    0.9980   26.2830  -24.9850 C   0  0  0  0  0  0  0  0  0  0  0  0
   -0.0630   26.9030  -24.3210 C   0  0  0  0  0  0  0  0  0  0  0  0
   -1.3810   26.5940  -24.6710 C   0  0  0  0  0  0  0  0  0  0  0  0
   -1.6430   25.6600  -25.6820 C   0  0  0  0  0  0  0  0  0  0  0  0
   -3.3190   25.2840  -26.0750 Cl  0  0  0  0  0  0  0  0  0  0  0  0
   -2.5580   21.9930  -28.0150 C   0  0  0  0  0  0  0  0  0  0  0  0
   -1.9470   21.4770  -27.0400 O   0  0  0  0  0  0  0  0  0  0  0  0
   -3.9940   22.4250  -27.8410 C   0  0  0  0  0  0  0  0  0  0  0  0
   -4.4600   23.1930  -28.9950 N   0  0  0  0  0  0  0  0  0  0  0  0
   -4.9830   24.5550  -28.9330 C   0  0  0  0  0  0  0  0  0  0  0  0
   -5.6740   24.8060  -30.2990 C   0  0  0  0  0  0  0  0  0  0  0  0
   -5.5620   23.5510  -31.0330 N   0  0  0  0  0  0  0  0  0  0  0  0
   -6.1500   23.2770  -32.3430 C   0  0  0  0  0  0  0  0  0  0  0  0
   -7.0480   22.0730  -32.2640 C   0  0  0  0  0  0  0  0  0  0  0  0
   -6.6310   20.8370  -32.7880 C   0  0  0  0  0  0  0  0  0  0  0  0
   -7.4500   19.7100  -32.6680 C   0  0  0  0  0  0  0  0  0  0  0  0
   -8.6850   19.8070  -32.0190 C   0  0  0  0  0  0  0  0  0  0  0  0
   -9.4780   18.7110  -31.9020 F   0  0  0  0  0  0  0  0  0  0  0  0
   -9.1030   21.0310  -31.4890 C   0  0  0  0  0  0  0  0  0  0  0  0
   -8.2860   22.1600  -31.6060 C   0  0  0  0  0  0  0  0  0  0  0  0
   -4.8410   22.6380  -30.2370 C   0  0  0  0  0  0  0  0  0  0  0  0
   -4.5730   21.4590  -30.5890 O   0  0  0  0  0  0  0  0  0  0  0  0
   -1.6868   22.2868  -31.7206 H   0  0  0  0  0  0  0  0  0  0  0  0
   -0.6203   20.8700  -32.0068 H   0  0  0  0  0  0  0  0  0  0  0  0
   -2.4049   20.6653  -32.0068 H   0  0  0  0  0  0  0  0  0  0  0  0
   -2.2541   20.1327  -29.8173 H   0  0  0  0  0  0  0  0  0  0  0  0
   -0.5133   20.6162  -29.7735 H   0  0  0  0  0  0  0  0  0  0  0  0
   -0.5001   23.3472  -30.3135 H   0  0  0  0  0  0  0  0  0  0  0  0
   -2.2469   23.8090  -30.4861 H   0  0  0  0  0  0  0  0  0  0  0  0
   -0.5210   23.0940  -27.2580 H   0  0  0  0  0  0  0  0  0  0  0  0
    1.5862   24.8662  -26.5145 H   0  0  0  0  0  0  0  0  0  0  0  0
    2.0348   26.5312  -24.7139 H   0  0  0  0  0  0  0  0  0  0  0  0
    0.1381   27.6336  -23.5236 H   0  0  0  0  0  0  0  0  0  0  0  0
   -2.2157   27.0863  -24.1504 H   0  0  0  0  0  0  0  0  0  0  0  0
   -4.6257   21.5319  -27.7259 H   0  0  0  0  0  0  0  0  0  0  0  0
   -4.0591   23.0645  -26.9484 H   0  0  0  0  0  0  0  0  0  0  0  0
   -5.7102   24.6489  -28.1131 H   0  0  0  0  0  0  0  0  0  0  0  0
   -4.1840   25.2869  -28.7434 H   0  0  0  0  0  0  0  0  0  0  0  0
   -6.7313   25.0711  -30.1512 H   0  0  0  0  0  0  0  0  0  0  0  0
   -5.2061   25.6390  -30.8442 H   0  0  0  0  0  0  0  0  0  0  0  0
   -6.7374   24.1485  -32.6678 H   0  0  0  0  0  0  0  0  0  0  0  0
   -5.3444   23.0789  -33.0653 H   0  0  0  0  0  0  0  0  0  0  0  0
   -5.6576   20.7562  -33.2939 H   0  0  0  0  0  0  0  0  0  0  0  0
   -7.1225   18.7460  -33.0845 H   0  0  0  0  0  0  0  0  0  0  0  0
  -10.0750   21.1063  -30.9796 H   0  0  0  0  0  0  0  0  0  0  0  0
   -8.6142   23.1201  -31.1810 H   0  0  0  0  0  0  0  0  0  0  0  0
  1  2  1  0
  2  3  1  0
  3  4  1  0
  4  5  1  0
  5  6  2  0
  5  7  1  0
  7  8  1  0
  8  9  2  0
  9 10  1  0
 10 11  2  0
 11 12  1  0
 12 13  2  0
 13 14  1  0
  3 15  1  0
 15 16  2  0
 15 17  1  0
 17 18  1  0
 18 19  1  0
 19 20  1  0
 20 21  1  0
 21 22  1  0
 22 23  1  0
 23 24  2  0
 24 25  1  0
 25 26  2  0
 26 27  1  0
 26 28  1  0
 28 29  2  0
 21 30  1  0
 30 31  2  0
 13  8  1  0
 30 18  1  0
 29 23  1  0
  1 32  1  0
  1 33  1  0
  1 34  1  0
  2 35  1  0
  2 36  1  0
  4 37  1  0
  4 38  1  0
  7 39  1  0
  9 40  1  0
 10 41  1  0
 11 42  1  0
 12 43  1  0
 17 44  1  0
 17 45  1  0
 19 46  1  0
 19 47  1  0
 20 48  1  0
 20 49  1  0
 22 50  1  0
 22 51  1  0
 24 52  1  0
 25 53  1  0
 28 54  1  0
 29 55  1  0
M  END
>  <UniqueID>  (25) 
25

>  <SMILES>  (25) 
CCN(CC(=O)Nc1ccccc1Cl)C(=O)CN1CCN(Cc2ccc(F)cc2)C1=O

>  <Energy>  (25) 
64.60802109117898

>  <Genealogy>  (25) 
CCN(CC(=O)Nc1ccccc1Cl)C(=O)CN1CCN(Cc2ccc(F)cc2)C1=O (3D coordinates assigned)
CCN(CC(=O)Nc1ccccc1Cl)C(=O)CN1CCN(Cc2ccc(F)cc2)C1=O (nonaromatic ring conformer: 64.60802109117898 kcal/mol)

>  <smiles>  (25) 
CCN(CC(=O)Nc1ccccc1Cl)C(=O)CN1CCN(Cc2ccc(F)cc2)C1=O

>  <score_type>  (25) 
oracle

>  <origin>  (25) 
adg

>  <m_score__min__energy>  (25) 
-9.3800000000000008

>  <m_primary>  (25) 
energy

$$$$
25:0
     RDKit          3D

 30 31  0  0  0  0  0  0  0  0999 V2000
   -3.3650   23.9320  -27.3730 C   0  0  0  0  0  0  0  0  0  0  0  0
   -3.2230   24.5530  -28.7270 C   0  0  0  0  0  0  0  0  0  0  0  0
   -2.2340   25.2930  -28.9720 O   0  0  0  0  0  0  0  0  0  0  0  0
   -4.2220   24.3130  -29.7800 C   0  0  0  0  0  0  0  0  0  0  0  0
   -5.5860   24.1770  -29.6150 C   0  0  0  0  0  0  0  0  0  0  0  0
   -6.0430   23.9690  -30.8980 C   0  0  0  0  0  0  0  0  0  0  0  0
   -7.4590   23.7000  -31.2960 C   0  0  0  0  0  0  0  0  0  0  0  0
   -7.5670   22.3690  -31.8940 N   0  0  0  0  0  0  0  0  0  0  0  0
   -6.6640   21.8650  -32.7210 N   0  0  0  0  0  0  0  0  0  0  0  0
   -7.0000   20.5920  -33.0060 C   0  0  0  0  0  0  0  0  0  0  0  0
   -6.1650   19.6640  -33.8250 C   0  0  0  0  0  0  0  0  0  0  0  0
   -8.1490   20.2660  -32.3100 C   0  0  0  0  0  0  0  0  0  0  0  0
   -8.9390   18.6990  -32.2370 Cl  0  0  0  0  0  0  0  0  0  0  0  0
   -8.4930   21.4190  -31.6220 C   0  0  0  0  0  0  0  0  0  0  0  0
   -9.6010   21.5470  -30.6210 C   0  0  0  0  0  0  0  0  0  0  0  0
   -5.0080   23.9730  -31.7600 N   0  0  0  0  0  0  0  0  0  0  0  0
   -3.9350   24.1870  -31.0560 O   0  0  0  0  0  0  0  0  0  0  0  0
   -3.1906   24.6946  -26.5997 H   0  0  0  0  0  0  0  0  0  0  0  0
   -4.3799   23.5226  -27.2620 H   0  0  0  0  0  0  0  0  0  0  0  0
   -2.6288   23.1222  -27.2620 H   0  0  0  0  0  0  0  0  0  0  0  0
   -6.1682   24.2235  -28.6828 H   0  0  0  0  0  0  0  0  0  0  0  0
   -8.1037   23.7529  -30.4063 H   0  0  0  0  0  0  0  0  0  0  0  0
   -7.7762   24.4532  -32.0322 H   0  0  0  0  0  0  0  0  0  0  0  0
   -5.8130   22.3700  -33.0580 H   0  0  0  0  0  0  0  0  0  0  0  0
   -5.5794   19.0132  -33.1590 H   0  0  0  0  0  0  0  0  0  0  0  0
   -6.8179   19.0468  -34.4597 H   0  0  0  0  0  0  0  0  0  0  0  0
   -5.4825   20.2483  -34.4597 H   0  0  0  0  0  0  0  0  0  0  0  0
   -9.1840   21.4988  -29.6043 H   0  0  0  0  0  0  0  0  0  0  0  0
  -10.1131   22.5103  -30.7620 H   0  0  0  0  0  0  0  0  0  0  0  0
  -10.3192   20.7259  -30.7620 H   0  0  0  0  0  0  0  0  0  0  0  0
  1  2  1  0
  2  3  2  0
  2  4  1  0
  4  5  2  0
  5  6  1  0
  6  7  1  0
  7  8  1  0
  8  9  1  0
  9 10  2  0
 10 11  1  0
 10 12  1  0
 12 13  1  0
 12 14  2  0
 14 15  1  0
  6 16  2  0
 16 17  1  0
 17  4  1  0
 14  8  1  0
  1 18  1  0
  1 19  1  0
  1 20  1  0
  5 21  1  0
  7 22  1  0
  7 23  1  0
  9 24  1  0
 11 25  1  0
 11 26  1  0
 11 27  1  0
 15 28  1  0
 15 29  1  0
 15 30  1  0
M  CHG  1   9   1
M  END
>  <UniqueID>  (26) 
26

>  <SMILES>  (26) 
CC(=O)c1cc(Cn2[nH+]c(C)c(Cl)c2C)no1

>  <Energy>  (26) 
84.83571484909135

>  <Genealogy>  (26) 
CC(=O)c1cc(Cn2[nH+]c(C)c(Cl)c2C)no1 (protonated)
CC(=O)c1cc(Cn2[nH+]c(C)c(Cl)c2C)no1 (3D coordinates assigned)
CC(=O)c1cc(Cn2[nH+]c(C)c(Cl)c2C)no1 (optimized conformer: 84.83571484909135 kcal/mol)

>  <smiles>  (26) 
CC(=O)c1cc(Cn2nc(C)c(Cl)c2C)no1

>  <score_type>  (26) 
oracle

>  <origin>  (26) 
adg

>  <m_score__min__energy>  (26) 
-7.8899999999999997

>  <m_primary>  (26) 
energy

$$$$
26:0
     RDKit          3D

 41 41  0  0  0  0  0  0  0  0999 V2000
   -9.1090   18.3020  -31.6570 C   0  0  0  0  0  0  0  0  0  0  0  0
   -9.3730   19.5950  -32.4400 C   0  0  0  0  0  0  0  0  0  0  0  0
   -8.2860   20.6000  -32.3310 N   0  0  0  0  0  0  0  0  0  0  0  0
   -8.5280   21.6500  -31.3150 C   0  0  0  0  0  0  0  0  0  0  0  0
   -8.5770   23.0490  -31.9320 C   0  0  0  0  0  0  0  0  0  0  0  0
   -6.9550   19.9710  -32.1600 C   0  0  0  0  0  0  0  0  0  0  0  0
   -6.1130   20.1240  -33.4330 C   0  0  0  0  0  0  0  0  0  0  0  0
   -4.6840   20.4760  -33.1040 C   0  0  0  0  0  0  0  0  0  0  0  0
   -3.7670   19.8030  -33.6510 O   0  0  0  0  0  0  0  0  0  0  0  0
   -4.3170   21.6280  -32.2370 C   0  0  0  0  0  0  0  0  0  0  0  0
   -3.0310   21.6910  -31.6720 C   0  0  0  0  0  0  0  0  0  0  0  0
   -2.6530   22.7810  -30.8830 C   0  0  0  0  0  0  0  0  0  0  0  0
   -3.5470   23.8280  -30.6400 C   0  0  0  0  0  0  0  0  0  0  0  0
   -3.1060   24.9360  -29.8450 N   0  0  0  0  0  0  0  0  0  0  0  0
   -1.6960   24.9610  -28.8360 S   0  0  0  0  0  0  0  0  0  0  0  0
   -2.0830   24.3030  -27.2270 C   0  0  0  0  0  0  0  0  0  0  0  0
   -1.2410   26.3830  -28.6760 O   0  0  0  0  0  0  0  0  0  0  0  0
   -0.5910   24.1680  -29.4750 O   0  0  0  0  0  0  0  0  0  0  0  0
   -4.8420   23.7590  -31.1790 C   0  0  0  0  0  0  0  0  0  0  0  0
   -5.2240   22.6710  -31.9690 C   0  0  0  0  0  0  0  0  0  0  0  0
   -9.1518   18.5115  -30.5780 H   0  0  0  0  0  0  0  0  0  0  0  0
   -9.8730   17.5541  -31.9159 H   0  0  0  0  0  0  0  0  0  0  0  0
   -8.1130   17.9135  -31.9159 H   0  0  0  0  0  0  0  0  0  0  0  0
   -9.4998   19.3366  -33.5017 H   0  0  0  0  0  0  0  0  0  0  0  0
  -10.2737   20.0522  -32.0045 H   0  0  0  0  0  0  0  0  0  0  0  0
   -9.4883   21.4479  -30.8181 H   0  0  0  0  0  0  0  0  0  0  0  0
   -7.6941   21.6255  -30.5981 H   0  0  0  0  0  0  0  0  0  0  0  0
   -8.6034   23.8023  -31.1309 H   0  0  0  0  0  0  0  0  0  0  0  0
   -7.6838   23.2067  -32.5544 H   0  0  0  0  0  0  0  0  0  0  0  0
   -9.4790   23.1439  -32.5544 H   0  0  0  0  0  0  0  0  0  0  0  0
   -6.4325   20.4548  -31.3216 H   0  0  0  0  0  0  0  0  0  0  0  0
   -7.0950   18.8991  -31.9564 H   0  0  0  0  0  0  0  0  0  0  0  0
   -6.1296   19.1756  -33.9900 H   0  0  0  0  0  0  0  0  0  0  0  0
   -6.5412   20.9371  -34.0376 H   0  0  0  0  0  0  0  0  0  0  0  0
   -2.3159   20.8749  -31.8526 H   0  0  0  0  0  0  0  0  0  0  0  0
   -1.6427   22.8154  -30.4492 H   0  0  0  0  0  0  0  0  0  0  0  0
   -1.6877   24.9752  -26.4512 H   0  0  0  0  0  0  0  0  0  0  0  0
   -3.1744   24.2190  -27.1180 H   0  0  0  0  0  0  0  0  0  0  0  0
   -1.6260   23.3084  -27.1180 H   0  0  0  0  0  0  0  0  0  0  0  0
   -5.5609   24.5670  -30.9780 H   0  0  0  0  0  0  0  0  0  0  0  0
   -6.2416   22.6293  -32.3847 H   0  0  0  0  0  0  0  0  0  0  0  0
  1  2  1  0
  2  3  1  0
  3  4  1  0
  4  5  1  0
  3  6  1  0
  6  7  1  0
  7  8  1  0
  8  9  2  0
  8 10  1  0
 10 11  2  0
 11 12  1  0
 12 13  2  0
 13 14  1  0
 14 15  1  0
 15 16  1  0
 15 17  2  0
 15 18  2  0
 13 19  1  0
 19 20  2  0
 20 10  1  0
  1 21  1  0
  1 22  1  0
  1 23  1  0
  2 24  1  0
  2 25  1  0
  4 26  1  0
  4 27  1  0
  5 28  1  0
  5 29  1  0
  5 30  1  0
  6 31  1  0
  6 32  1  0
  7 33  1  0
  7 34  1  0
 11 35  1  0
 12 36  1  0
 16 37  1  0
 16 38  1  0
 16 39  1  0
 19 40  1  0
 20 41  1  0
M  CHG  1  14  -1
M  END
>  <UniqueID>  (27) 
27

>  <SMILES>  (27) 
CCN(CC)CCC(=O)c1ccc([N-]S(C)(=O)=O)cc1

>  <Energy>  (27) 
37.66180273671857

>  <Genealogy>  (27) 
CCN(CC)CCC(=O)c1ccc([N-]S(C)(=O)=O)cc1 (protonated)
CCN(CC)CCC(=O)c1ccc([N-]S(C)(=O)=O)cc1 (3D coordinates assigned)
CCN(CC)CCC(=O)c1ccc([N-]S(C)(=O)=O)cc1 (optimized conformer: 37.66180273671857 kcal/mol)

>  <smiles>  (27) 
CCN(CC)CCC(=O)c1ccc(NS(C)(=O)=O)cc1

>  <score_type>  (27) 
oracle

>  <origin>  (27) 
adg

>  <m_score__min__energy>  (27) 
-9.4900000000000002

>  <m_primary>  (27) 
energy

$$$$
27:0
     RDKit          3D

 53 55  0  0  0  0  0  0  0  0999 V2000
   -4.3820   22.7500  -28.3770 C   0  0  0  0  0  0  0  0  0  0  0  0
   -5.4580   23.1490  -29.3970 C   0  0  0  0  0  0  0  0  0  0  0  0
   -4.9180   23.8340  -30.5950 N   0  0  0  0  0  0  0  0  0  0  0  0
   -5.1940   25.2880  -30.5750 C   0  0  0  0  0  0  0  0  0  0  0  0
   -6.3630   25.6190  -29.6510 C   0  0  0  0  0  0  0  0  0  0  0  0
   -3.4930   23.5030  -30.8510 C   0  0  0  0  0  0  0  0  0  0  0  0
   -3.3880   22.3220  -31.8220 C   0  0  0  0  0  0  0  0  0  0  0  0
   -4.5170   22.2940  -32.7520 N   0  0  0  0  0  0  0  0  0  0  0  0
   -5.4290   21.1870  -32.7410 C   0  0  0  0  0  0  0  0  0  0  0  0
   -6.7850   21.3910  -32.4430 C   0  0  0  0  0  0  0  0  0  0  0  0
   -7.2950   22.6900  -32.2360 C   0  0  0  0  0  0  0  0  0  0  0  0
   -8.6430   22.8820  -31.9380 C   0  0  0  0  0  0  0  0  0  0  0  0
   -9.5000   21.7900  -31.8470 C   0  0  0  0  0  0  0  0  0  0  0  0
   -9.0140   20.4980  -32.0470 C   0  0  0  0  0  0  0  0  0  0  0  0
   -7.6450   20.2700  -32.3380 C   0  0  0  0  0  0  0  0  0  0  0  0
   -7.1470   18.9950  -32.5130 N   0  0  0  0  0  0  0  0  0  0  0  0
   -7.8860   17.8590  -31.9260 C   0  0  0  0  0  0  0  0  0  0  0  0
   -5.8930   18.8110  -33.0680 C   0  0  0  0  0  0  0  0  0  0  0  0
   -5.4630   17.5680  -33.6330 C   0  0  0  0  0  0  0  0  0  0  0  0
   -6.6840   16.1900  -34.2210 Br  0  0  0  0  0  0  0  0  0  0  0  0
   -4.1160   17.3760  -33.9900 C   0  0  0  0  0  0  0  0  0  0  0  0
   -3.7210   16.1240  -34.4910 O   0  0  0  0  0  0  0  0  0  0  0  0
   -2.9900   15.9270  -35.6970 C   0  0  0  0  0  0  0  0  0  0  0  0
   -3.2060   18.4320  -33.8580 C   0  0  0  0  0  0  0  0  0  0  0  0
   -3.6400   19.6860  -33.4500 C   0  0  0  0  0  0  0  0  0  0  0  0
   -4.9810   19.9000  -33.0860 C   0  0  0  0  0  0  0  0  0  0  0  0
   -4.7710   22.8943  -27.3583 H   0  0  0  0  0  0  0  0  0  0  0  0
   -4.1143   21.6928  -28.5210 H   0  0  0  0  0  0  0  0  0  0  0  0
   -3.4898   23.3771  -28.5210 H   0  0  0  0  0  0  0  0  0  0  0  0
   -5.9814   22.2384  -29.7239 H   0  0  0  0  0  0  0  0  0  0  0  0
   -6.1291   23.8611  -28.8945 H   0  0  0  0  0  0  0  0  0  0  0  0
   -4.2971   25.8179  -30.2218 H   0  0  0  0  0  0  0  0  0  0  0  0
   -5.4576   25.6050  -31.5948 H   0  0  0  0  0  0  0  0  0  0  0  0
   -6.0398   25.5275  -28.6036 H   0  0  0  0  0  0  0  0  0  0  0  0
   -6.7012   26.6482  -29.8418 H   0  0  0  0  0  0  0  0  0  0  0  0
   -7.1905   24.9199  -29.8418 H   0  0  0  0  0  0  0  0  0  0  0  0
   -2.9900   24.3781  -31.2881 H   0  0  0  0  0  0  0  0  0  0  0  0
   -3.0128   23.2286  -29.9002 H   0  0  0  0  0  0  0  0  0  0  0  0
   -2.4538   22.4123  -32.3957 H   0  0  0  0  0  0  0  0  0  0  0  0
   -3.3981   21.3906  -31.2369 H   0  0  0  0  0  0  0  0  0  0  0  0
   -4.5730   22.9690  -33.5460 H   0  0  0  0  0  0  0  0  0  0  0  0
   -6.6236   23.5581  -32.3104 H   0  0  0  0  0  0  0  0  0  0  0  0
   -9.0298   23.8987  -31.7745 H   0  0  0  0  0  0  0  0  0  0  0  0
  -10.5642   21.9459  -31.6166 H   0  0  0  0  0  0  0  0  0  0  0  0
   -9.7029   19.6432  -31.9780 H   0  0  0  0  0  0  0  0  0  0  0  0
   -7.8447   17.9225  -30.8286 H   0  0  0  0  0  0  0  0  0  0  0  0
   -8.9347   17.8940  -32.2561 H   0  0  0  0  0  0  0  0  0  0  0  0
   -7.4290   16.9144  -32.2561 H   0  0  0  0  0  0  0  0  0  0  0  0
   -1.9537   15.6477  -35.4561 H   0  0  0  0  0  0  0  0  0  0  0  0
   -3.4595   15.1233  -36.2832 H   0  0  0  0  0  0  0  0  0  0  0  0
   -2.9921   16.8578  -36.2832 H   0  0  0  0  0  0  0  0  0  0  0  0
   -2.1411   18.2670  -34.0789 H   0  0  0  0  0  0  0  0  0  0  0  0
   -2.9262   20.5221  -33.4111 H   0  0  0  0  0  0  0  0  0  0  0  0
  1  2  1  0
  2  3  1  0
  3  4  1  0
  4  5  1  0
  3  6  1  0
  6  7  1  0
  7  8  1  0
  8  9  1  0
  9 10  2  0
 10 11  1  0
 11 12  2  0
 12 13  1  0
 13 14  2  0
 14 15  1  0
 15 16  2  0
 16 17  1  0
 16 18  1  0
 18 19  2  0
 19 20  1  0
 19 21  1  0
 21 22  1  0
 22 23  1  0
 21 24  2  0
 24 25  1  0
 25 26  2  0
 26  9  1  0
 15 10  1  0
 26 18  1  0
  1 27  1  0
  1 28  1  0
  1 29  1  0
  2 30  1  0
  2 31  1  0
  4 32  1  0
  4 33  1  0
  5 34  1  0
  5 35  1  0
  5 36  1  0
  6 37  1  0
  6 38  1  0
  7 39  1  0
  7 40  1  0
  8 41  1  0
 11 42  1  0
 12 43  1  0
 13 44  1  0
 14 45  1  0
 17 46  1  0
 17 47  1  0
 17 48  1  0
 23 49  1  0
 23 50  1  0
 23 51  1  0
 24 52  1  0
 25 53  1  0
M  CHG  1  16   1
M  END
>  <UniqueID>  (28) 
28

>  <SMILES>  (28) 
CCN(CC)CCNc1c2ccccc2[n+](C)c2c(Br)c(OC)ccc12

>  <Energy>  (28) 
89.09729167861852

>  <Genealogy>  (28) 
CCN(CC)CCNc1c2ccccc2[n+](C)c2c(Br)c(OC)ccc12 (3D coordinates assigned)
CCN(CC)CCNc1c2ccccc2[n+](C)c2c(Br)c(OC)ccc12 (optimized conformer: 89.09729167861852 kcal/mol)

>  <smiles>  (28) 
CCN(CC)CCNc1c2ccccc2[n+](C)c2c(Br)c(OC)ccc12

>  <score_type>  (28) 
oracle

>  <origin>  (28) 
adg

>  <m_score__min__energy>  (28) 
-8.7400000000000002

>  <m_primary>  (28) 
energy

$$$$
28:0
     RDKit          3D

 52 54  0  0  0  0  0  0  0  0999 V2000
   -1.5240   17.1700  -32.7330 C   0  0  0  0  0  0  0  0  0  0  0  0
   -0.2910   17.8830  -33.2970 C   0  0  0  0  0  0  0  0  0  0  0  0
   -0.4750   18.3270  -34.7010 N   0  0  2  0  0  0  0  0  0  0  0  0
   -0.4970   17.1590  -35.6030 C   0  0  0  0  0  0  0  0  0  0  0  0
    0.4990   19.3540  -35.1590 C   0  0  0  0  0  0  0  0  0  0  0  0
    0.0350   20.8140  -34.9740 C   0  0  0  0  0  0  0  0  0  0  0  0
   -1.2870   20.8380  -34.3340 N   0  0  0  0  0  0  0  0  0  0  0  0
   -1.2060   21.1990  -32.9070 C   0  0  0  0  0  0  0  0  0  0  0  0
   -2.5770   21.5350  -32.2920 C   0  0  0  0  0  0  0  0  0  0  0  0
   -3.6210   21.5650  -33.3140 N   0  0  0  0  0  0  0  0  0  0  0  0
   -4.9240   21.0370  -33.0330 C   0  0  0  0  0  0  0  0  0  0  0  0
   -5.2820   19.7160  -33.3770 C   0  0  0  0  0  0  0  0  0  0  0  0
   -4.3440   18.8470  -33.9670 C   0  0  0  0  0  0  0  0  0  0  0  0
   -4.6830   17.5290  -34.2600 C   0  0  0  0  0  0  0  0  0  0  0  0
   -5.9530   17.0500  -33.9570 C   0  0  0  0  0  0  0  0  0  0  0  0
   -6.9020   17.8880  -33.3710 C   0  0  0  0  0  0  0  0  0  0  0  0
   -6.6040   19.2430  -33.0850 C   0  0  0  0  0  0  0  0  0  0  0  0
   -7.5460   20.0950  -32.5220 N   0  0  0  0  0  0  0  0  0  0  0  0
   -8.9470   19.6620  -32.3440 C   0  0  0  0  0  0  0  0  0  0  0  0
   -7.1520   21.3530  -32.1250 C   0  0  0  0  0  0  0  0  0  0  0  0
   -7.9370   22.3020  -31.4310 C   0  0  0  0  0  0  0  0  0  0  0  0
   -7.2710   23.5020  -31.2000 C   0  0  0  0  0  0  0  0  0  0  0  0
   -5.7150   23.3920  -31.8300 S   0  0  0  0  0  0  0  0  0  0  0  0
   -5.8750   21.8170  -32.3900 C   0  0  0  0  0  0  0  0  0  0  0  0
   -1.4886   17.1905  -31.6338 H   0  0  0  0  0  0  0  0  0  0  0  0
   -2.4340   17.6813  -33.0801 H   0  0  0  0  0  0  0  0  0  0  0  0
   -1.5348   16.1263  -33.0801 H   0  0  0  0  0  0  0  0  0  0  0  0
   -0.0796   18.7649  -32.6744 H   0  0  0  0  0  0  0  0  0  0  0  0
    0.5419   17.1646  -33.2835 H   0  0  0  0  0  0  0  0  0  0  0  0
   -1.4270   18.7640  -34.7690 H   0  0  0  0  0  0  0  0  0  0  0  0
   -0.5144   16.2351  -35.0062 H   0  0  0  0  0  0  0  0  0  0  0  0
   -1.3945   17.2026  -36.2375 H   0  0  0  0  0  0  0  0  0  0  0  0
    0.4015   17.1688  -36.2375 H   0  0  0  0  0  0  0  0  0  0  0  0
    1.4321   19.2172  -34.5929 H   0  0  0  0  0  0  0  0  0  0  0  0
    0.6220   19.2030  -36.2416 H   0  0  0  0  0  0  0  0  0  0  0  0
    0.7574   21.3494  -34.3403 H   0  0  0  0  0  0  0  0  0  0  0  0
   -0.0284   21.3026  -35.9575 H   0  0  0  0  0  0  0  0  0  0  0  0
   -1.9090   21.5140  -34.8350 H   0  0  0  0  0  0  0  0  0  0  0  0
   -0.7726   20.3518  -32.3553 H   0  0  0  0  0  0  0  0  0  0  0  0
   -0.5816   22.1014  -32.8311 H   0  0  0  0  0  0  0  0  0  0  0  0
   -2.8308   20.7714  -31.5420 H   0  0  0  0  0  0  0  0  0  0  0  0
   -2.5159   22.5299  -31.8268 H   0  0  0  0  0  0  0  0  0  0  0  0
   -3.3220   21.6110  -34.3140 H   0  0  0  0  0  0  0  0  0  0  0  0
   -3.3330   19.2134  -34.1987 H   0  0  0  0  0  0  0  0  0  0  0  0
   -3.9444   16.8647  -34.7324 H   0  0  0  0  0  0  0  0  0  0  0  0
   -6.2107   16.0043  -34.1807 H   0  0  0  0  0  0  0  0  0  0  0  0
   -7.8980   17.4900  -33.1270 H   0  0  0  0  0  0  0  0  0  0  0  0
   -9.1754   19.5914  -31.2703 H   0  0  0  0  0  0  0  0  0  0  0  0
   -9.6197   20.3942  -32.8146 H   0  0  0  0  0  0  0  0  0  0  0  0
   -9.0893   18.6780  -32.8146 H   0  0  0  0  0  0  0  0  0  0  0  0
   -8.9705   22.1111  -31.1062 H   0  0  0  0  0  0  0  0  0  0  0  0
   -7.6933   24.3796  -30.6887 H   0  0  0  0  0  0  0  0  0  0  0  0
  1  2  1  0
  2  3  1  0
  3  4  1  0
  3  5  1  0
  5  6  1  0
  6  7  1  0
  7  8  1  0
  8  9  1  0
  9 10  1  0
 10 11  1  0
 11 12  2  0
 12 13  1  0
 13 14  2  0
 14 15  1  0
 15 16  2  0
 16 17  1  0
 17 18  2  0
 18 19  1  0
 18 20  1  0
 20 21  1  0
 21 22  2  0
 22 23  1  0
 23 24  1  0
 24 11  1  0
 17 12  1  0
 24 20  2  0
  1 25  1  0
  1 26  1  0
  1 27  1  0
  2 28  1  0
  2 29  1  0
  3 30  1  1
  4 31  1  0
  4 32  1  0
  4 33  1  0
  5 34  1  0
  5 35  1  0
  6 36  1  0
  6 37  1  0
  7 38  1  0
  8 39  1  0
  8 40  1  0
  9 41  1  0
  9 42  1  0
 10 43  1  0
 13 44  1  0
 14 45  1  0
 15 46  1  0
 16 47  1  0
 19 48  1  0
 19 49  1  0
 19 50  1  0
 21 51  1  0
 22 52  1  0
M  CHG  2   3   1  18   1
M  END
>  <UniqueID>  (29) 
29

>  <SMILES>  (29) 
CC[N@H+](C)CCNCCNc1c2ccccc2[n+](C)c2ccsc12

>  <Energy>  (29) 
100.1962340613394

>  <Genealogy>  (29) 
CC[NH+](C)CCNCCNc1c2ccccc2[n+](C)c2ccsc12 (protonated)
CC[N@H+](C)CCNCCNc1c2ccccc2[n+](C)c2ccsc12 (chirality)
CC[N@H+](C)CCNCCNc1c2ccccc2[n+](C)c2ccsc12 (3D coordinates assigned)
CC[N@H+](C)CCNCCNc1c2ccccc2[n+](C)c2ccsc12 (optimized conformer: 100.1962340613394 kcal/mol)

>  <smiles>  (29) 
CCN(C)CCNCCNc1c2ccccc2[n+](C)c2ccsc12

>  <score_type>  (29) 
oracle

>  <origin>  (29) 
adg

>  <m_score__min__energy>  (29) 
-7.5199999999999996

>  <m_primary>  (29) 
energy

$$$$
29:0
     RDKit          3D

 58 61  0  0  0  0  0  0  0  0999 V2000
   -6.1120   25.6890  -29.7360 C   0  0  0  0  0  0  0  0  0  0  0  0
   -5.1500   25.2120  -30.8340 C   0  0  0  0  0  0  0  0  0  0  0  0
   -5.0820   23.7380  -30.9770 N   0  0  0  0  0  0  0  0  0  0  0  0
   -5.8930   23.0450  -29.9570 C   0  0  0  0  0  0  0  0  0  0  0  0
   -3.6880   23.2390  -31.0240 C   0  0  0  0  0  0  0  0  0  0  0  0
   -3.4630   22.2910  -32.2250 C   0  0  0  0  0  0  0  0  0  0  0  0
   -4.6470   22.1740  -33.1000 N   0  0  0  0  0  0  0  0  0  0  0  0
   -5.2220   20.8410  -33.0710 C   0  0  0  0  0  0  0  0  0  0  0  0
   -4.4070   19.7480  -33.3710 C   0  0  0  0  0  0  0  0  0  0  0  0
   -4.9110   18.4360  -33.3960 C   0  0  0  0  0  0  0  0  0  0  0  0
   -4.0470   17.3160  -33.6240 C   0  0  0  0  0  0  0  0  0  0  0  0
   -2.6460   17.3210  -33.3480 C   0  0  0  0  0  0  0  0  0  0  0  0
   -2.0920   18.3970  -32.6300 O   0  0  0  0  0  0  0  0  0  0  0  0
   -1.0340   19.2410  -33.0720 C   0  0  0  0  0  0  0  0  0  0  0  0
   -1.8490   16.2170  -33.7450 C   0  0  0  0  0  0  0  0  0  0  0  0
   -0.4550   16.2780  -33.5930 O   0  0  0  0  0  0  0  0  0  0  0  0
    0.2490   16.0040  -32.3860 C   0  0  0  0  0  0  0  0  0  0  0  0
   -2.4640   15.0800  -34.2930 C   0  0  0  0  0  0  0  0  0  0  0  0
   -3.8440   15.0180  -34.4240 C   0  0  0  0  0  0  0  0  0  0  0  0
   -4.6380   16.1130  -34.0720 C   0  0  0  0  0  0  0  0  0  0  0  0
   -6.0210   16.0110  -34.1570 C   0  0  0  0  0  0  0  0  0  0  0  0
   -6.8200   17.0620  -33.7320 C   0  0  0  0  0  0  0  0  0  0  0  0
   -6.2810   18.2510  -33.3030 N   0  0  0  0  0  0  0  0  0  0  0  0
   -7.0910   19.2770  -32.8420 C   0  0  0  0  0  0  0  0  0  0  0  0
   -8.4300   19.0480  -32.4240 C   0  0  0  0  0  0  0  0  0  0  0  0
   -9.2390   20.0930  -31.9840 C   0  0  0  0  0  0  0  0  0  0  0  0
   -8.7410   21.3860  -31.9270 C   0  0  0  0  0  0  0  0  0  0  0  0
   -7.4200   21.6420  -32.2870 C   0  0  0  0  0  0  0  0  0  0  0  0
   -6.5740   20.6010  -32.7320 C   0  0  0  0  0  0  0  0  0  0  0  0
   -5.6774   25.4735  -28.7487 H   0  0  0  0  0  0  0  0  0  0  0  0
   -6.2748   26.7722  -29.8364 H   0  0  0  0  0  0  0  0  0  0  0  0
   -7.0728   25.1629  -29.8364 H   0  0  0  0  0  0  0  0  0  0  0  0
   -5.4809   25.6377  -31.7928 H   0  0  0  0  0  0  0  0  0  0  0  0
   -4.1441   25.5506  -30.5451 H   0  0  0  0  0  0  0  0  0  0  0  0
   -5.5496   23.3384  -28.9540 H   0  0  0  0  0  0  0  0  0  0  0  0
   -6.9504   23.3228  -30.0784 H   0  0  0  0  0  0  0  0  0  0  0  0
   -5.7835   21.9572  -30.0784 H   0  0  0  0  0  0  0  0  0  0  0  0
   -3.0047   24.0964  -31.1131 H   0  0  0  0  0  0  0  0  0  0  0  0
   -3.4928   22.6756  -30.0996 H   0  0  0  0  0  0  0  0  0  0  0  0
   -2.6230   22.6756  -32.8221 H   0  0  0  0  0  0  0  0  0  0  0  0
   -3.2551   21.2902  -31.8186 H   0  0  0  0  0  0  0  0  0  0  0  0
   -4.3870   22.4250  -34.0810 H   0  0  0  0  0  0  0  0  0  0  0  0
   -5.3590   22.8870  -32.8210 H   0  0  0  0  0  0  0  0  0  0  0  0
   -3.3432   19.9178  -33.5935 H   0  0  0  0  0  0  0  0  0  0  0  0
   -0.5098   19.6591  -32.2000 H   0  0  0  0  0  0  0  0  0  0  0  0
   -0.3273   18.6559  -33.6788 H   0  0  0  0  0  0  0  0  0  0  0  0
   -1.4475   20.0601  -33.6788 H   0  0  0  0  0  0  0  0  0  0  0  0
   -0.3890   16.2523  -31.5250 H   0  0  0  0  0  0  0  0  0  0  0  0
    0.5141   14.9370  -32.3503 H   0  0  0  0  0  0  0  0  0  0  0  0
    1.1657   16.6110  -32.3503 H   0  0  0  0  0  0  0  0  0  0  0  0
   -1.8465   14.2310  -34.6213 H   0  0  0  0  0  0  0  0  0  0  0  0
   -4.3160   14.1013  -34.8073 H   0  0  0  0  0  0  0  0  0  0  0  0
   -6.4818   15.0975  -34.5610 H   0  0  0  0  0  0  0  0  0  0  0  0
   -7.9133   16.9406  -33.7385 H   0  0  0  0  0  0  0  0  0  0  0  0
   -8.8353   18.0257  -32.4484 H   0  0  0  0  0  0  0  0  0  0  0  0
  -10.2770   19.8919  -31.6805 H   0  0  0  0  0  0  0  0  0  0  0  0
   -9.3900   22.2105  -31.5971 H   0  0  0  0  0  0  0  0  0  0  0  0
   -7.0299   22.6686  -32.2241 H   0  0  0  0  0  0  0  0  0  0  0  0
  1  2  1  0
  2  3  1  0
  3  4  1  0
  3  5  1  0
  5  6  1  0
  6  7  1  0
  7  8  1  0
  8  9  2  0
  9 10  1  0
 10 11  2  0
 11 12  1  0
 12 13  1  0
 13 14  1  0
 12 15  2  0
 15 16  1  0
 16 17  1  0
 15 18  1  0
 18 19  2  0
 19 20  1  0
 20 21  2  0
 21 22  1  0
 22 23  2  0
 23 24  1  0
 24 25  2  0
 25 26  1  0
 26 27  2  0
 27 28  1  0
 28 29  2  0
 29  8  1  0
 23 10  1  0
 29 24  1  0
 20 11  1  0
  1 30  1  0
  1 31  1  0
  1 32  1  0
  2 33  1  0
  2 34  1  0
  4 35  1  0
  4 36  1  0
  4 37  1  0
  5 38  1  0
  5 39  1  0
  6 40  1  0
  6 41  1  0
  7 42  1  0
  7 43  1  0
  9 44  1  0
 14 45  1  0
 14 46  1  0
 14 47  1  0
 17 48  1  0
 17 49  1  0
 17 50  1  0
 18 51  1  0
 19 52  1  0
 21 53  1  0
 22 54  1  0
 25 55  1  0
 26 56  1  0
 27 57  1  0
 28 58  1  0
M  CHG  2   7   1  23   1
M  END
>  <UniqueID>  (30) 
30

>  <SMILES>  (30) 
CCN(C)CC[NH2+]c1cc2c3c(OC)c(OC)ccc3cc[n+]2c2ccccc12

>  <Energy>  (30) 
104.11994941785085

>  <Genealogy>  (30) 
CCN(C)CC[NH2+]c1cc2c3c(OC)c(OC)ccc3cc[n+]2c2ccccc12 (protonated)
CCN(C)CC[NH2+]c1cc2c3c(OC)c(OC)ccc3cc[n+]2c2ccccc12 (3D coordinates assigned)
CCN(C)CC[NH2+]c1cc2c3c(OC)c(OC)ccc3cc[n+]2c2ccccc12 (optimized conformer: 104.11994941785085 kcal/mol)

>  <smiles>  (30) 
CCN(C)CCNc1cc2c3c(OC)c(OC)ccc3cc[n+]2c2ccccc12

>  <score_type>  (30) 
oracle

>  <origin>  (30) 
adg

>  <m_score__min__energy>  (30) 
-7.7999999999999998

>  <m_primary>  (30) 
energy

$$$$
30:0
     RDKit          3D

 65 68  0  0  0  0  0  0  0  0999 V2000
   -0.8720   26.3710  -27.8240 C   0  0  0  0  0  0  0  0  0  0  0  0
   -1.5510   25.8730  -28.9730 O   0  0  0  0  0  0  0  0  0  0  0  0
   -1.9110   24.5300  -29.1610 C   0  0  0  0  0  0  0  0  0  0  0  0
   -1.1160   23.4670  -28.6940 C   0  0  0  0  0  0  0  0  0  0  0  0
   -1.5100   22.1430  -28.9070 C   0  0  0  0  0  0  0  0  0  0  0  0
   -2.7020   21.8640  -29.5790 C   0  0  0  0  0  0  0  0  0  0  0  0
   -3.5140   22.9100  -30.0350 C   0  0  0  0  0  0  0  0  0  0  0  0
   -3.1050   24.2460  -29.8410 C   0  0  0  0  0  0  0  0  0  0  0  0
   -3.9030   25.3020  -30.3040 O   0  0  0  0  0  0  0  0  0  0  0  0
   -5.0310   25.0870  -31.1520 C   0  0  0  0  0  0  0  0  0  0  0  0
   -5.7630   23.8010  -30.7320 C   0  0  1  0  0  0  0  0  0  0  0  0
   -7.0740   23.5580  -31.5170 C   0  0  0  0  0  0  0  0  0  0  0  0
   -8.0700   22.5900  -30.8490 C   0  0  0  0  0  0  0  0  0  0  0  0
   -7.7960   21.1910  -31.2420 N   0  0  0  0  0  0  0  0  0  0  0  0
   -7.0610   21.1220  -32.5320 C   0  0  0  0  0  0  0  0  0  0  0  0
   -7.0750   19.7040  -33.1340 C   0  0  0  0  0  0  0  0  0  0  0  0
   -7.4070   18.7310  -32.0840 N   0  0  0  0  0  0  0  0  0  0  0  0
   -7.0590   17.3260  -32.3970 C   0  0  0  0  0  0  0  0  0  0  0  0
   -6.8420   17.0080  -33.8940 C   0  0  0  0  0  0  0  0  0  0  0  0
   -5.4090   16.8650  -34.2240 N   0  0  0  0  0  0  0  0  0  0  0  0
   -4.6270   16.4660  -33.0310 C   0  0  0  0  0  0  0  0  0  0  0  0
   -3.1240   16.6430  -33.2650 C   0  0  0  0  0  0  0  0  0  0  0  0
   -2.7730   18.1200  -33.5180 C   0  0  0  0  0  0  0  0  0  0  0  0
   -3.9590   18.9240  -34.0760 C   0  0  0  0  0  0  0  0  0  0  0  0
   -4.8650   18.0460  -34.9510 C   0  0  0  0  0  0  0  0  0  0  0  0
   -8.7790   18.9300  -31.5790 C   0  0  0  0  0  0  0  0  0  0  0  0
   -9.0580   20.4250  -31.3190 C   0  0  0  0  0  0  0  0  0  0  0  0
   -4.7850   22.6090  -30.7910 C   0  0  0  0  0  0  0  0  0  0  0  0
   -1.3718   26.0045  -26.9152 H   0  0  0  0  0  0  0  0  0  0  0  0
    0.1712   26.0223  -27.8348 H   0  0  0  0  0  0  0  0  0  0  0  0
   -0.8911   27.4708  -27.8348 H   0  0  0  0  0  0  0  0  0  0  0  0
   -0.1790   23.6792  -28.1582 H   0  0  0  0  0  0  0  0  0  0  0  0
   -0.8792   21.3181  -28.5442 H   0  0  0  0  0  0  0  0  0  0  0  0
   -3.0038   20.8202  -29.7506 H   0  0  0  0  0  0  0  0  0  0  0  0
   -5.7183   25.9418  -31.0688 H   0  0  0  0  0  0  0  0  0  0  0  0
   -4.6884   24.9858  -32.1924 H   0  0  0  0  0  0  0  0  0  0  0  0
   -6.0968   23.9200  -29.6906 H   0  0  0  0  0  0  0  0  0  0  0  0
   -7.5772   24.5275  -31.6472 H   0  0  0  0  0  0  0  0  0  0  0  0
   -6.7784   23.0850  -32.4651 H   0  0  0  0  0  0  0  0  0  0  0  0
   -7.9812   22.6804  -29.7563 H   0  0  0  0  0  0  0  0  0  0  0  0
   -9.0866   22.8528  -31.1768 H   0  0  0  0  0  0  0  0  0  0  0  0
   -7.5316   21.8145  -33.2454 H   0  0  0  0  0  0  0  0  0  0  0  0
   -6.0135   21.3969  -32.3392 H   0  0  0  0  0  0  0  0  0  0  0  0
   -7.8285   19.6523  -33.9337 H   0  0  0  0  0  0  0  0  0  0  0  0
   -6.0835   19.4717  -33.5499 H   0  0  0  0  0  0  0  0  0  0  0  0
   -6.1304   17.0801  -31.8610 H   0  0  0  0  0  0  0  0  0  0  0  0
   -7.9259   16.7252  -32.0849 H   0  0  0  0  0  0  0  0  0  0  0  0
   -7.3585   16.0675  -34.1364 H   0  0  0  0  0  0  0  0  0  0  0  0
   -7.2459   17.8449  -34.4827 H   0  0  0  0  0  0  0  0  0  0  0  0
   -4.9325   17.0893  -32.1776 H   0  0  0  0  0  0  0  0  0  0  0  0
   -4.8234   15.4030  -32.8272 H   0  0  0  0  0  0  0  0  0  0  0  0
   -2.5782   16.2910  -32.3772 H   0  0  0  0  0  0  0  0  0  0  0  0
   -2.8372   16.0588  -34.1518 H   0  0  0  0  0  0  0  0  0  0  0  0
   -2.4558   18.5742  -32.5677 H   0  0  0  0  0  0  0  0  0  0  0  0
   -1.9701   18.1470  -34.2694 H   0  0  0  0  0  0  0  0  0  0  0  0
   -4.5482   19.3227  -33.2370 H   0  0  0  0  0  0  0  0  0  0  0  0
   -3.5633   19.7416  -34.6964 H   0  0  0  0  0  0  0  0  0  0  0  0
   -5.7075   18.6571  -35.3069 H   0  0  0  0  0  0  0  0  0  0  0  0
   -4.2525   17.6671  -35.7824 H   0  0  0  0  0  0  0  0  0  0  0  0
   -9.4953   18.5542  -32.3244 H   0  0  0  0  0  0  0  0  0  0  0  0
   -8.8879   18.3820  -30.6315 H   0  0  0  0  0  0  0  0  0  0  0  0
   -9.6726   20.8247  -32.1391 H   0  0  0  0  0  0  0  0  0  0  0  0
   -9.5875   20.5223  -30.3598 H   0  0  0  0  0  0  0  0  0  0  0  0
   -5.2673   21.7264  -30.3456 H   0  0  0  0  0  0  0  0  0  0  0  0
   -4.5284   22.4199  -31.8438 H   0  0  0  0  0  0  0  0  0  0  0  0
  1  2  1  0
  2  3  1  0
  3  4  2  0
  4  5  1  0
  5  6  2  0
  6  7  1  0
  7  8  2  0
  8  9  1  0
  9 10  1  0
 10 11  1  0
 11 12  1  0
 12 13  1  0
 13 14  1  0
 14 15  1  0
 15 16  1  0
 16 17  1  0
 17 18  1  0
 18 19  1  0
 19 20  1  0
 20 21  1  0
 21 22  1  0
 22 23  1  0
 23 24  1  0
 24 25  1  0
 17 26  1  0
 26 27  1  0
 11 28  1  0
  8  3  1  0
 27 14  1  0
 28  7  1  0
 25 20  1  0
  1 29  1  0
  1 30  1  0
  1 31  1  0
  4 32  1  0
  5 33  1  0
  6 34  1  0
 10 35  1  0
 10 36  1  0
 11 37  1  1
 12 38  1  0
 12 39  1  0
 13 40  1  0
 13 41  1  0
 15 42  1  0
 15 43  1  0
 16 44  1  0
 16 45  1  0
 18 46  1  0
 18 47  1  0
 19 48  1  0
 19 49  1  0
 21 50  1  0
 21 51  1  0
 22 52  1  0
 22 53  1  0
 23 54  1  0
 23 55  1  0
 24 56  1  0
 24 57  1  0
 25 58  1  0
 25 59  1  0
 26 60  1  0
 26 61  1  0
 27 62  1  0
 27 63  1  0
 28 64  1  0
 28 65  1  0
M  END
>  <UniqueID>  (31) 
31

>  <SMILES>  (31) 
COc1cccc2c1OC[C@@H](CCN1CCN(CCN3CCCCC3)CC1)C2

>  <Energy>  (31) 
85.0067131228279

>  <Genealogy>  (31) 
COc1cccc2c1OC[C@@H](CCN1CCN(CCN3CCCCC3)CC1)C2 (chirality)
COc1cccc2c1OC[C@@H](CCN1CCN(CCN3CCCCC3)CC1)C2 (3D coordinates assigned)
COc1cccc2c1OC[C@@H](CCN1CCN(CCN3CCCCC3)CC1)C2 (nonaromatic ring conformer: 85.0067131228279 kcal/mol)

>  <smiles>  (31) 
COc1cccc2c1OCC(CCN1CCN(CCN3CCCCC3)CC1)C2

>  <score_type>  (31) 
oracle

>  <origin>  (31) 
adg

>  <m_score__min__energy>  (31) 
-10.31

>  <m_primary>  (31) 
energy

$$$$
31:0
     RDKit          3D

 42 44  0  0  0  0  0  0  0  0999 V2000
   -2.9250   21.5640  -32.3350 C   0  0  0  0  0  0  0  0  0  0  0  0
   -3.2060   22.2840  -31.0180 C   0  0  0  0  0  0  0  0  0  0  0  0
   -4.6060   22.7550  -30.9740 N   0  0  0  0  0  0  0  0  0  0  0  0
   -4.7370   24.0020  -30.1980 C   0  0  0  0  0  0  0  0  0  0  0  0
   -6.2270   24.3390  -29.9810 C   0  0  0  0  0  0  0  0  0  0  0  0
   -7.1090   23.7710  -31.0290 N   0  0  0  0  0  0  0  0  0  0  0  0
   -7.6560   22.4440  -30.6640 C   0  0  0  0  0  0  0  0  0  0  0  0
   -8.4710   21.8670  -31.8240 C   0  0  0  0  0  0  0  0  0  0  0  0
   -8.3010   20.4150  -31.9020 N   0  0  0  0  0  0  0  0  0  0  0  0
   -9.0950   19.4900  -31.3100 C   0  0  0  0  0  0  0  0  0  0  0  0
   -8.6930   18.2050  -31.6580 C   0  0  0  0  0  0  0  0  0  0  0  0
   -7.6170   18.3770  -32.5040 C   0  0  0  0  0  0  0  0  0  0  0  0
   -6.8340   17.4360  -33.1690 C   0  0  0  0  0  0  0  0  0  0  0  0
   -5.8000   17.9110  -33.9950 C   0  0  0  0  0  0  0  0  0  0  0  0
   -5.5790   19.2980  -34.1390 C   0  0  0  0  0  0  0  0  0  0  0  0
   -6.3880   20.2240  -33.4560 C   0  0  0  0  0  0  0  0  0  0  0  0
   -7.4060   19.7250  -32.6370 C   0  0  0  0  0  0  0  0  0  0  0  0
   -6.4480   23.7640  -32.3490 C   0  0  0  0  0  0  0  0  0  0  0  0
   -5.1380   22.9440  -32.3410 C   0  0  0  0  0  0  0  0  0  0  0  0
   -2.5323   20.5579  -32.1263 H   0  0  0  0  0  0  0  0  0  0  0  0
   -3.8568   21.4812  -32.9137 H   0  0  0  0  0  0  0  0  0  0  0  0
   -2.1834   22.1343  -32.9137 H   0  0  0  0  0  0  0  0  0  0  0  0
   -3.0308   21.5909  -30.1820 H   0  0  0  0  0  0  0  0  0  0  0  0
   -2.5358   23.1525  -30.9374 H   0  0  0  0  0  0  0  0  0  0  0  0
   -4.2468   23.8757  -29.2214 H   0  0  0  0  0  0  0  0  0  0  0  0
   -4.2600   24.8229  -30.7535 H   0  0  0  0  0  0  0  0  0  0  0  0
   -6.5386   23.9375  -29.0054 H   0  0  0  0  0  0  0  0  0  0  0  0
   -6.3263   25.4336  -30.0257 H   0  0  0  0  0  0  0  0  0  0  0  0
   -6.8258   21.7616  -30.4292 H   0  0  0  0  0  0  0  0  0  0  0  0
   -8.3114   22.5563  -29.7877 H   0  0  0  0  0  0  0  0  0  0  0  0
   -9.5351   22.0984  -31.6684 H   0  0  0  0  0  0  0  0  0  0  0  0
   -8.1170   22.3162  -32.7636 H   0  0  0  0  0  0  0  0  0  0  0  0
   -9.9405   19.7233  -30.6461 H   0  0  0  0  0  0  0  0  0  0  0  0
   -9.1380   17.2544  -31.3289 H   0  0  0  0  0  0  0  0  0  0  0  0
   -7.0184   16.3579  -33.0518 H   0  0  0  0  0  0  0  0  0  0  0  0
   -5.1588   17.1970  -34.5327 H   0  0  0  0  0  0  0  0  0  0  0  0
   -4.7683   19.6571  -34.7900 H   0  0  0  0  0  0  0  0  0  0  0  0
   -6.2251   21.3066  -33.5627 H   0  0  0  0  0  0  0  0  0  0  0  0
   -7.1357   23.3260  -33.0873 H   0  0  0  0  0  0  0  0  0  0  0  0
   -6.1946   24.8032  -32.6055 H   0  0  0  0  0  0  0  0  0  0  0  0
   -5.3353   21.9567  -32.7841 H   0  0  0  0  0  0  0  0  0  0  0  0
   -4.3875   23.5004  -32.9217 H   0  0  0  0  0  0  0  0  0  0  0  0
  1  2  1  0
  2  3  1  0
  3  4  1  0
  4  5  1  0
  5  6  1  0
  6  7  1  0
  7  8  1  0
  8  9  1  0
  9 10  1  0
 10 11  2  0
 11 12  1  0
 12 13  2  0
 13 14  1  0
 14 15  2  0
 15 16  1  0
 16 17  2  0
  6 18  1  0
 18 19  1  0
 19  3  1  0
 17  9  1  0
 17 12  1  0
  1 20  1  0
  1 21  1  0
  1 22  1  0
  2 23  1  0
  2 24  1  0
  4 25  1  0
  4 26  1  0
  5 27  1  0
  5 28  1  0
  7 29  1  0
  7 30  1  0
  8 31  1  0
  8 32  1  0
 10 33  1  0
 11 34  1  0
 13 35  1  0
 14 36  1  0
 15 37  1  0
 16 38  1  0
 18 39  1  0
 18 40  1  0
 19 41  1  0
 19 42  1  0
M  END
>  <UniqueID>  (32) 
32

>  <SMILES>  (32) 
CCN1CCN(CCn2ccc3ccccc32)CC1

>  <Energy>  (32) 
82.85274810825514

>  <Genealogy>  (32) 
CCN1CCN(CCn2ccc3ccccc32)CC1 (3D coordinates assigned)
CCN1CCN(CCn2ccc3ccccc32)CC1 (nonaromatic ring conformer: 82.85274810825514 kcal/mol)

>  <smiles>  (32) 
CCN1CCN(CCn2ccc3ccccc32)CC1

>  <score_type>  (32) 
oracle

>  <origin>  (32) 
adg

>  <m_score__min__energy>  (32) 
-7.2000000000000002

>  <m_primary>  (32) 
energy

$$$$
