0:0
     RDKit          3D

 54 56  0  0  0  0  0  0  0  0999 V2000
   -1.4560   21.6730  -28.7200 C   0  0  0  0  0  0  0  0  0  0  0  0
   -0.5540   22.5750  -29.5470 C   0  0  0  0  0  0  0  0  0  0  0  0
    0.2600   23.3650  -28.6830 O   0  0  0  0  0  0  0  0  0  0  0  0
   -0.0720   23.6860  -27.3570 C   0  0  0  0  0  0  0  0  0  0  0  0
    0.3060   22.8590  -26.2800 C   0  0  0  0  0  0  0  0  0  0  0  0
   -0.0590   23.1880  -24.9720 C   0  0  0  0  0  0  0  0  0  0  0  0
   -0.8130   24.3350  -24.7220 C   0  0  0  0  0  0  0  0  0  0  0  0
   -1.1980   25.1620  -25.7790 C   0  0  0  0  0  0  0  0  0  0  0  0
   -0.8200   24.8550  -27.0960 C   0  0  0  0  0  0  0  0  0  0  0  0
   -1.2280   25.7550  -28.1880 C   0  0  0  0  0  0  0  0  0  0  0  0
   -0.8170   26.9460  -28.2030 O   0  0  0  0  0  0  0  0  0  0  0  0
   -2.0520   25.2630  -29.2500 N   0  0  0  0  0  0  0  0  0  0  0  0
   -3.2860   24.5200  -29.0260 C   0  0  0  0  0  0  0  0  0  0  0  0
   -4.2580   24.7940  -30.1350 C   0  0  0  0  0  0  0  0  0  0  0  0
   -3.9660   25.6710  -30.9930 O   0  0  0  0  0  0  0  0  0  0  0  0
   -5.5010   24.0680  -30.2450 N   0  0  0  0  0  0  0  0  0  0  0  0
   -6.6620   24.6720  -30.9030 C   0  0  0  0  0  0  0  0  0  0  0  0
   -7.1380   23.7740  -32.0520 C   0  0  0  0  0  0  0  0  0  0  0  0
   -7.0740   22.3270  -31.7340 N   0  0  0  0  0  0  0  0  0  0  0  0
   -6.3810   21.4860  -32.7360 C   0  0  0  0  0  0  0  0  0  0  0  0
   -6.8020   20.0320  -32.7130 C   0  0  0  0  0  0  0  0  0  0  0  0
   -5.9490   19.0440  -33.2390 C   0  0  0  0  0  0  0  0  0  0  0  0
   -6.3170   17.6960  -33.1940 C   0  0  0  0  0  0  0  0  0  0  0  0
   -7.5440   17.3220  -32.6390 C   0  0  0  0  0  0  0  0  0  0  0  0
   -8.4000   18.2960  -32.1190 C   0  0  0  0  0  0  0  0  0  0  0  0
   -8.0290   19.6430  -32.1440 C   0  0  0  0  0  0  0  0  0  0  0  0
   -6.8390   21.9740  -30.3170 C   0  0  0  0  0  0  0  0  0  0  0  0
   -5.6220   22.7050  -29.7190 C   0  0  0  0  0  0  0  0  0  0  0  0
   -1.2746   21.8544  -27.6503 H   0  0  0  0  0  0  0  0  0  0  0  0
   -2.5081   21.8911  -28.9556 H   0  0  0  0  0  0  0  0  0  0  0  0
   -1.2379   20.6209  -28.9556 H   0  0  0  0  0  0  0  0  0  0  0  0
    0.0891   21.9573  -30.1911 H   0  0  0  0  0  0  0  0  0  0  0  0
   -1.1737   23.2374  -30.1692 H   0  0  0  0  0  0  0  0  0  0  0  0
    0.8925   21.9481  -26.4706 H   0  0  0  0  0  0  0  0  0  0  0  0
    0.2489   22.5411  -24.1373 H   0  0  0  0  0  0  0  0  0  0  0  0
   -1.1042   24.5878  -23.6918 H   0  0  0  0  0  0  0  0  0  0  0  0
   -1.8013   26.0598  -25.5788 H   0  0  0  0  0  0  0  0  0  0  0  0
   -3.0625   23.4434  -28.9951 H   0  0  0  0  0  0  0  0  0  0  0  0
   -3.7297   24.8364  -28.0705 H   0  0  0  0  0  0  0  0  0  0  0  0
   -7.4751   24.7899  -30.1716 H   0  0  0  0  0  0  0  0  0  0  0  0
   -6.3783   25.6554  -31.3061 H   0  0  0  0  0  0  0  0  0  0  0  0
   -8.1806   24.0333  -32.2882 H   0  0  0  0  0  0  0  0  0  0  0  0
   -6.4629   23.9497  -32.9025 H   0  0  0  0  0  0  0  0  0  0  0  0
   -6.5936   21.8924  -33.7358 H   0  0  0  0  0  0  0  0  0  0  0  0
   -5.3095   21.5121  -32.4886 H   0  0  0  0  0  0  0  0  0  0  0  0
   -4.9875   19.3339  -33.6880 H   0  0  0  0  0  0  0  0  0  0  0  0
   -5.6396   16.9283  -33.5962 H   0  0  0  0  0  0  0  0  0  0  0  0
   -7.8355   16.2617  -32.6116 H   0  0  0  0  0  0  0  0  0  0  0  0
   -9.3686   18.0018  -31.6887 H   0  0  0  0  0  0  0  0  0  0  0  0
   -8.6995   20.4032  -31.7167 H   0  0  0  0  0  0  0  0  0  0  0  0
   -7.7325   22.2421  -29.7342 H   0  0  0  0  0  0  0  0  0  0  0  0
   -6.6346   20.8941  -30.2719 H   0  0  0  0  0  0  0  0  0  0  0  0
   -5.7355   22.7527  -28.6259 H   0  0  0  0  0  0  0  0  0  0  0  0
   -4.7150   22.1472  -29.9950 H   0  0  0  0  0  0  0  0  0  0  0  0
  1  2  1  0
  2  3  1  0
  3  4  1  0
  4  5  2  0
  5  6  1  0
  6  7  2  0
  7  8  1  0
  8  9  2  0
  9 10  1  0
 10 11  2  0
 10 12  1  0
 12 13  1  0
 13 14  1  0
 14 15  2  0
 14 16  1  0
 16 17  1  0
 17 18  1  0
 18 19  1  0
 19 20  1  0
 20 21  1  0
 21 22  2  0
 22 23  1  0
 23 24  2  0
 24 25  1  0
 25 26  2  0
 19 27  1  0
 27 28  1  0
  9  4  1  0
 28 16  1  0
 26 21  1  0
  1 29  1  0
  1 30  1  0
  1 31  1  0
  2 32  1  0
  2 33  1  0
  5 34  1  0
  6 35  1  0
  7 36  1  0
  8 37  1  0
 13 38  1  0
 13 39  1  0
 17 40  1  0
 17 41  1  0
 18 42  1  0
 18 43  1  0
 20 44  1  0
 20 45  1  0
 22 46  1  0
 23 47  1  0
 24 48  1  0
 25 49  1  0
 26 50  1  0
 27 51  1  0
 27 52  1  0
 28 53  1  0
 28 54  1  0
M  CHG  1  12  -1
M  END
>  <UniqueID>  (1) 
1

>  <SMILES>  (1) 
CCOc1ccccc1C(=O)[N-]CC(=O)N1CCN(Cc2ccccc2)CC1

>  <Energy>  (1) 
60.373439958447605

>  <Genealogy>  (1) 
CCOc1ccccc1C(=O)[N-]CC(=O)N1CCN(Cc2ccccc2)CC1 (protonated)
CCOc1ccccc1C(=O)[N-]CC(=O)N1CCN(Cc2ccccc2)CC1 (3D coordinates assigned)
CCOc1ccccc1C(=O)[N-]CC(=O)N1CCN(Cc2ccccc2)CC1 (nonaromatic ring conformer: 60.373439958447605 kcal/mol)

>  <smiles>  (1) 
CCOc1ccccc1C(=O)NCC(=O)N1CCN(Cc2ccccc2)CC1

>  <score_type>  (1) 
oracle

>  <origin>  (1) 
adg

>  <m_score__min__energy>  (1) 
-10.49

>  <m_primary>  (1) 
energy

$$$$
1:0
     RDKit          3D

 60 62  0  0  0  0  0  0  0  0999 V2000
   -1.2510   26.7580  -24.3320 C   0  0  0  0  0  0  0  0  0  0  0  0
   -0.6180   25.3760  -24.4590 C   0  0  0  0  0  0  0  0  0  0  0  0
   -1.0900   24.7070  -25.6940 N   0  0  0  0  0  0  0  0  0  0  0  0
    0.0400   24.0970  -26.4180 C   0  0  0  0  0  0  0  0  0  0  0  0
   -1.8120   25.6480  -26.5790 C   0  0  0  0  0  0  0  0  0  0  0  0
   -0.9380   26.0440  -27.7760 C   0  0  0  0  0  0  0  0  0  0  0  0
   -1.5620   25.6780  -28.9920 O   0  0  0  0  0  0  0  0  0  0  0  0
   -2.1940   24.4140  -28.8920 C   0  0  0  0  0  0  0  0  0  0  0  0
   -3.6930   24.5480  -29.1700 C   0  0  0  0  0  0  0  0  0  0  0  0
   -3.9080   25.0120  -30.4900 O   0  0  0  0  0  0  0  0  0  0  0  0
   -5.2740   25.3100  -30.7160 C   0  0  0  0  0  0  0  0  0  0  0  0
   -5.9650   24.1330  -31.4050 C   0  0  0  0  0  0  0  0  0  0  0  0
   -5.3170   22.8760  -31.0320 N   0  0  0  0  0  0  0  0  0  0  0  0
   -5.4850   21.7040  -31.8450 C   0  0  0  0  0  0  0  0  0  0  0  0
   -4.3760   21.1190  -32.4810 C   0  0  0  0  0  0  0  0  0  0  0  0
   -3.0840   21.6690  -32.3330 C   0  0  0  0  0  0  0  0  0  0  0  0
   -1.9770   21.0520  -32.9100 C   0  0  0  0  0  0  0  0  0  0  0  0
   -2.1360   19.8770  -33.6370 C   0  0  0  0  0  0  0  0  0  0  0  0
   -3.4060   19.3330  -33.8220 C   0  0  0  0  0  0  0  0  0  0  0  0
   -4.5580   19.9620  -33.2860 C   0  0  0  0  0  0  0  0  0  0  0  0
   -5.8310   19.4730  -33.5180 N   0  0  0  0  0  0  0  0  0  0  0  0
   -6.0530   18.4620  -34.5760 C   0  0  0  0  0  0  0  0  0  0  0  0
   -6.9020   19.9490  -32.7820 C   0  0  0  0  0  0  0  0  0  0  0  0
   -8.1650   19.3040  -32.7990 C   0  0  0  0  0  0  0  0  0  0  0  0
   -9.2460   19.8170  -32.0830 C   0  0  0  0  0  0  0  0  0  0  0  0
   -9.0970   20.9690  -31.3210 C   0  0  0  0  0  0  0  0  0  0  0  0
   -7.8590   21.6040  -31.2510 C   0  0  0  0  0  0  0  0  0  0  0  0
   -6.7490   21.0990  -31.9620 C   0  0  0  0  0  0  0  0  0  0  0  0
   -1.3672   27.0117  -23.2680 H   0  0  0  0  0  0  0  0  0  0  0  0
   -0.6046   27.5035  -24.8182 H   0  0  0  0  0  0  0  0  0  0  0  0
   -2.2377   26.7554  -24.8182 H   0  0  0  0  0  0  0  0  0  0  0  0
    0.4764   25.4801  -24.4980 H   0  0  0  0  0  0  0  0  0  0  0  0
   -0.9074   24.7680  -23.5891 H   0  0  0  0  0  0  0  0  0  0  0  0
    0.7693   23.7033  -25.6947 H   0  0  0  0  0  0  0  0  0  0  0  0
   -0.3297   23.2759  -27.0498 H   0  0  0  0  0  0  0  0  0  0  0  0
    0.5236   24.8566  -27.0498 H   0  0  0  0  0  0  0  0  0  0  0  0
   -2.7304   25.1664  -26.9459 H   0  0  0  0  0  0  0  0  0  0  0  0
   -2.0593   26.5539  -26.0061 H   0  0  0  0  0  0  0  0  0  0  0  0
   -0.7805   27.1326  -27.7640 H   0  0  0  0  0  0  0  0  0  0  0  0
    0.0256   25.5188  -27.7002 H   0  0  0  0  0  0  0  0  0  0  0  0
   -1.7486   23.7262  -29.6259 H   0  0  0  0  0  0  0  0  0  0  0  0
   -2.0518   24.0216  -27.8743 H   0  0  0  0  0  0  0  0  0  0  0  0
   -4.1740   23.5664  -29.0475 H   0  0  0  0  0  0  0  0  0  0  0  0
   -4.1252   25.2703  -28.4618 H   0  0  0  0  0  0  0  0  0  0  0  0
   -5.7669   25.5072  -29.7526 H   0  0  0  0  0  0  0  0  0  0  0  0
   -5.3453   26.1966  -31.3632 H   0  0  0  0  0  0  0  0  0  0  0  0
   -7.0210   24.1020  -31.0985 H   0  0  0  0  0  0  0  0  0  0  0  0
   -5.8931   24.2635  -32.4949 H   0  0  0  0  0  0  0  0  0  0  0  0
   -4.4740   22.9260  -30.4170 H   0  0  0  0  0  0  0  0  0  0  0  0
   -2.9504   22.5955  -31.7553 H   0  0  0  0  0  0  0  0  0  0  0  0
   -0.9767   21.4939  -32.7908 H   0  0  0  0  0  0  0  0  0  0  0  0
   -1.2567   19.3754  -34.0674 H   0  0  0  0  0  0  0  0  0  0  0  0
   -3.5163   18.3997  -34.3936 H   0  0  0  0  0  0  0  0  0  0  0  0
   -6.2670   17.4875  -34.1128 H   0  0  0  0  0  0  0  0  0  0  0  0
   -6.9057   18.7662  -35.2007 H   0  0  0  0  0  0  0  0  0  0  0  0
   -5.1513   18.3810  -35.2007 H   0  0  0  0  0  0  0  0  0  0  0  0
   -8.2940   18.3834  -33.3870 H   0  0  0  0  0  0  0  0  0  0  0  0
  -10.2202   19.3077  -32.1217 H   0  0  0  0  0  0  0  0  0  0  0  0
   -9.9573   21.3801  -30.7724 H   0  0  0  0  0  0  0  0  0  0  0  0
   -7.7453   22.5084  -30.6352 H   0  0  0  0  0  0  0  0  0  0  0  0
  1  2  1  0
  2  3  1  0
  3  4  1  0
  3  5  1  0
  5  6  1  0
  6  7  1  0
  7  8  1  0
  8  9  1  0
  9 10  1  0
 10 11  1  0
 11 12  1  0
 12 13  1  0
 13 14  1  0
 14 15  2  0
 15 16  1  0
 16 17  2  0
 17 18  1  0
 18 19  2  0
 19 20  1  0
 20 21  2  0
 21 22  1  0
 21 23  1  0
 23 24  2  0
 24 25  1  0
 25 26  2  0
 26 27  1  0
 27 28  2  0
 28 14  1  0
 20 15  1  0
 28 23  1  0
  1 29  1  0
  1 30  1  0
  1 31  1  0
  2 32  1  0
  2 33  1  0
  4 34  1  0
  4 35  1  0
  4 36  1  0
  5 37  1  0
  5 38  1  0
  6 39  1  0
  6 40  1  0
  8 41  1  0
  8 42  1  0
  9 43  1  0
  9 44  1  0
 11 45  1  0
 11 46  1  0
 12 47  1  0
 12 48  1  0
 13 49  1  0
 16 50  1  0
 17 51  1  0
 18 52  1  0
 19 53  1  0
 22 54  1  0
 22 55  1  0
 22 56  1  0
 24 57  1  0
 25 58  1  0
 26 59  1  0
 27 60  1  0
M  CHG  1  21   1
M  END
>  <UniqueID>  (2) 
2

>  <SMILES>  (2) 
CCN(C)CCOCCOCCNc1c2ccccc2[n+](C)c2ccccc12

>  <Energy>  (2) 
88.330319220367

>  <Genealogy>  (2) 
CCN(C)CCOCCOCCNc1c2ccccc2[n+](C)c2ccccc12 (3D coordinates assigned)
CCN(C)CCOCCOCCNc1c2ccccc2[n+](C)c2ccccc12 (optimized conformer: 88.330319220367 kcal/mol)

>  <smiles>  (2) 
CCN(C)CCOCCOCCNc1c2ccccc2[n+](C)c2ccccc12

>  <score_type>  (2) 
oracle

>  <origin>  (2) 
adg

>  <m_score__min__energy>  (2) 
-9.2200000000000006

>  <m_primary>  (2) 
energy

$$$$
2:0
     RDKit          3D

 48 49  0  0  0  0  0  0  0  0999 V2000
   -6.8690   24.9270  -30.0440 C   0  0  0  0  0  0  0  0  0  0  0  0
   -5.3810   25.2960  -30.1080 C   0  0  0  0  0  0  0  0  0  0  0  0
   -4.5470   24.3360  -30.8750 N   0  0  0  0  0  0  0  0  0  0  0  0
   -3.3730   23.8280  -30.1260 C   0  0  0  0  0  0  0  0  0  0  0  0
   -3.6340   23.7640  -28.6220 C   0  0  0  0  0  0  0  0  0  0  0  0
   -5.3500   23.2240  -31.4350 C   0  0  0  0  0  0  0  0  0  0  0  0
   -4.6790   22.6330  -32.6930 C   0  0  0  0  0  0  0  0  0  0  0  0
   -4.2920   21.1320  -32.5510 C   0  0  1  0  0  0  0  0  0  0  0  0
   -5.1700   20.1650  -33.4010 C   0  0  0  0  0  0  0  0  0  0  0  0
   -6.5400   19.7700  -32.8680 C   0  0  0  0  0  0  0  0  0  0  0  0
   -6.8750   18.4530  -32.4900 C   0  0  0  0  0  0  0  0  0  0  0  0
   -8.1280   18.1690  -31.9360 C   0  0  0  0  0  0  0  0  0  0  0  0
   -9.0540   19.1930  -31.7310 C   0  0  0  0  0  0  0  0  0  0  0  0
   -8.7310   20.5030  -32.0850 C   0  0  0  0  0  0  0  0  0  0  0  0
   -7.4830   20.7910  -32.6440 C   0  0  0  0  0  0  0  0  0  0  0  0
   -2.7780   20.9150  -32.6610 C   0  0  0  0  0  0  0  0  0  0  0  0
   -1.9860   21.0810  -31.5040 C   0  0  0  0  0  0  0  0  0  0  0  0
   -0.6040   20.8780  -31.5420 C   0  0  0  0  0  0  0  0  0  0  0  0
    0.0140   20.4850  -32.7300 C   0  0  0  0  0  0  0  0  0  0  0  0
    1.3540   20.2850  -32.7640 F   0  0  0  0  0  0  0  0  0  0  0  0
   -0.7520   20.2830  -33.8770 C   0  0  0  0  0  0  0  0  0  0  0  0
   -2.1360   20.4840  -33.8460 C   0  0  0  0  0  0  0  0  0  0  0  0
   -7.1826   24.8492  -28.9925 H   0  0  0  0  0  0  0  0  0  0  0  0
   -7.4617   25.7054  -30.5468 H   0  0  0  0  0  0  0  0  0  0  0  0
   -7.0294   23.9619  -30.5468 H   0  0  0  0  0  0  0  0  0  0  0  0
   -5.2911   26.2851  -30.5808 H   0  0  0  0  0  0  0  0  0  0  0  0
   -5.0076   25.2819  -29.0734 H   0  0  0  0  0  0  0  0  0  0  0  0
   -3.1320   22.8174  -30.4874 H   0  0  0  0  0  0  0  0  0  0  0  0
   -2.5370   24.5226  -30.2953 H   0  0  0  0  0  0  0  0  0  0  0  0
   -2.7051   23.9918  -28.0786 H   0  0  0  0  0  0  0  0  0  0  0  0
   -4.4063   24.4994  -28.3523 H   0  0  0  0  0  0  0  0  0  0  0  0
   -3.9785   22.7548  -28.3523 H   0  0  0  0  0  0  0  0  0  0  0  0
   -5.4486   22.4342  -30.6758 H   0  0  0  0  0  0  0  0  0  0  0  0
   -6.3389   23.6146  -31.7172 H   0  0  0  0  0  0  0  0  0  0  0  0
   -5.3764   22.7331  -33.5377 H   0  0  0  0  0  0  0  0  0  0  0  0
   -3.7446   23.1917  -32.8506 H   0  0  0  0  0  0  0  0  0  0  0  0
   -4.5466   20.8382  -31.5220 H   0  0  0  0  0  0  0  0  0  0  0  0
   -5.3277   20.6441  -34.3785 H   0  0  0  0  0  0  0  0  0  0  0  0
   -4.6023   19.2228  -33.4092 H   0  0  0  0  0  0  0  0  0  0  0  0
   -6.1450   17.6424  -32.6320 H   0  0  0  0  0  0  0  0  0  0  0  0
   -8.3842   17.1352  -31.6611 H   0  0  0  0  0  0  0  0  0  0  0  0
  -10.0367   18.9674  -31.2911 H   0  0  0  0  0  0  0  0  0  0  0  0
   -9.4600   21.3108  -31.9238 H   0  0  0  0  0  0  0  0  0  0  0  0
   -7.2344   21.8284  -32.9123 H   0  0  0  0  0  0  0  0  0  0  0  0
   -2.4643   21.3747  -30.5580 H   0  0  0  0  0  0  0  0  0  0  0  0
   -0.0020   21.0283  -30.6337 H   0  0  0  0  0  0  0  0  0  0  0  0
   -0.2659   19.9641  -34.8108 H   0  0  0  0  0  0  0  0  0  0  0  0
   -2.7319   20.3050  -34.7531 H   0  0  0  0  0  0  0  0  0  0  0  0
  1  2  1  0
  2  3  1  0
  3  4  1  0
  4  5  1  0
  3  6  1  0
  6  7  1  0
  7  8  1  0
  8  9  1  0
  9 10  1  0
 10 11  2  0
 11 12  1  0
 12 13  2  0
 13 14  1  0
 14 15  2  0
  8 16  1  0
 16 17  2  0
 17 18  1  0
 18 19  2  0
 19 20  1  0
 19 21  1  0
 21 22  2  0
 15 10  1  0
 22 16  1  0
  1 23  1  0
  1 24  1  0
  1 25  1  0
  2 26  1  0
  2 27  1  0
  4 28  1  0
  4 29  1  0
  5 30  1  0
  5 31  1  0
  5 32  1  0
  6 33  1  0
  6 34  1  0
  7 35  1  0
  7 36  1  0
  8 37  1  1
  9 38  1  0
  9 39  1  0
 11 40  1  0
 12 41  1  0
 13 42  1  0
 14 43  1  0
 15 44  1  0
 17 45  1  0
 18 46  1  0
 21 47  1  0
 22 48  1  0
M  END
>  <UniqueID>  (3) 
3

>  <SMILES>  (3) 
CCN(CC)CC[C@@H](Cc1ccccc1)c1ccc(F)cc1

>  <Energy>  (3) 
56.42620643393976

>  <Genealogy>  (3) 
CCN(CC)CC[C@@H](Cc1ccccc1)c1ccc(F)cc1 (chirality)
CCN(CC)CC[C@@H](Cc1ccccc1)c1ccc(F)cc1 (3D coordinates assigned)
CCN(CC)CC[C@@H](Cc1ccccc1)c1ccc(F)cc1 (optimized conformer: 56.42620643393976 kcal/mol)

>  <smiles>  (3) 
CCN(CC)CCC(Cc1ccccc1)c1ccc(F)cc1

>  <score_type>  (3) 
oracle

>  <origin>  (3) 
adg

>  <m_score__min__energy>  (3) 
-7.7000000000000002

>  <m_primary>  (3) 
energy

$$$$
3:0
     RDKit          3D

 49 48  0  0  0  0  0  0  0  0999 V2000
   -6.7798   20.5778  -33.9379 H   0  0  0  0  0  0  0  0  0  0  0  0
   -6.8630   20.4230  -32.8520 C   0  0  0  0  0  0  0  0  0  0  0  0
   -7.9010   19.6830  -32.3990 C   0  0  0  0  0  0  0  0  0  0  0  0
   -9.2800   20.2910  -32.3410 C   0  0  0  0  0  0  0  0  0  0  0  0
   -9.5788   20.4227  -31.2906 H   0  0  0  0  0  0  0  0  0  0  0  0
   -9.2712   21.2687  -32.8451 H   0  0  0  0  0  0  0  0  0  0  0  0
   -9.9958   19.6250  -32.8451 H   0  0  0  0  0  0  0  0  0  0  0  0
   -7.7470   18.2290  -32.0280 C   0  0  0  0  0  0  0  0  0  0  0  0
   -7.7364   18.1292  -30.9326 H   0  0  0  0  0  0  0  0  0  0  0  0
   -8.5893   17.6541  -32.4404 H   0  0  0  0  0  0  0  0  0  0  0  0
   -6.8030   17.8433  -32.4404 H   0  0  0  0  0  0  0  0  0  0  0  0
   -5.8110   21.0510  -31.9700 C   0  0  0  0  0  0  0  0  0  0  0  0
   -4.8597   20.5188  -32.1173 H   0  0  0  0  0  0  0  0  0  0  0  0
   -6.1513   20.9745  -30.9268 H   0  0  0  0  0  0  0  0  0  0  0  0
   -5.6030   22.5400  -32.2950 C   0  0  0  0  0  0  0  0  0  0  0  0
   -5.7908   22.6985  -33.3672 H   0  0  0  0  0  0  0  0  0  0  0  0
   -4.5692   22.8037  -32.0273 H   0  0  0  0  0  0  0  0  0  0  0  0
   -6.5330   23.4330  -31.4990 C   0  0  0  0  0  0  0  0  0  0  0  0
   -6.0220   24.2210  -30.5260 C   0  0  0  0  0  0  0  0  0  0  0  0
   -6.1830   23.9216  -29.4798 H   0  0  0  0  0  0  0  0  0  0  0  0
   -5.2450   25.4850  -30.7900 C   0  0  0  0  0  0  0  0  0  0  0  0
   -5.6385   26.2904  -30.1524 H   0  0  0  0  0  0  0  0  0  0  0  0
   -5.3532   25.7510  -31.8519 H   0  0  0  0  0  0  0  0  0  0  0  0
   -3.8710   25.2970  -30.5060 O   0  0  0  0  0  0  0  0  0  0  0  0
   -3.6840   24.3410  -29.4790 C   0  0  0  0  0  0  0  0  0  0  0  0
   -4.5711   23.6930  -29.4227 H   0  0  0  0  0  0  0  0  0  0  0  0
   -3.5371   24.8695  -28.5255 H   0  0  0  0  0  0  0  0  0  0  0  0
   -2.4490   23.4800  -29.7610 C   0  0  0  0  0  0  0  0  0  0  0  0
   -1.9869   23.1871  -28.8067 H   0  0  0  0  0  0  0  0  0  0  0  0
   -1.7389   24.0651  -30.3639 H   0  0  0  0  0  0  0  0  0  0  0  0
   -2.8240   22.2620  -30.5140 N   0  0  0  0  0  0  0  0  0  0  0  0
   -3.1720   21.1300  -29.6180 C   0  0  0  0  0  0  0  0  0  0  0  0
   -2.6594   20.2287  -29.9853 H   0  0  0  0  0  0  0  0  0  0  0  0
   -4.2676   21.0345  -29.6390 H   0  0  0  0  0  0  0  0  0  0  0  0
   -2.7750   21.3460  -28.1510 C   0  0  0  0  0  0  0  0  0  0  0  0
   -3.5508   20.9239  -27.4952 H   0  0  0  0  0  0  0  0  0  0  0  0
   -1.8156   20.8455  -27.9533 H   0  0  0  0  0  0  0  0  0  0  0  0
   -2.6741   22.4234  -27.9533 H   0  0  0  0  0  0  0  0  0  0  0  0
   -1.8180   21.9260  -31.5510 C   0  0  0  0  0  0  0  0  0  0  0  0
   -1.3324   22.8527  -31.8907 H   0  0  0  0  0  0  0  0  0  0  0  0
   -1.0838   21.2373  -31.1075 H   0  0  0  0  0  0  0  0  0  0  0  0
   -2.4580   21.2330  -32.7520 C   0  0  0  0  0  0  0  0  0  0  0  0
   -3.1650   20.4674  -32.3997 H   0  0  0  0  0  0  0  0  0  0  0  0
   -2.9948   21.9755  -33.3607 H   0  0  0  0  0  0  0  0  0  0  0  0
   -1.6752   20.7568  -33.3607 H   0  0  0  0  0  0  0  0  0  0  0  0
   -8.0090   23.4270  -31.8160 C   0  0  0  0  0  0  0  0  0  0  0  0
   -8.5853   23.4247  -30.8790 H   0  0  0  0  0  0  0  0  0  0  0  0
   -8.2623   24.3241  -32.4000 H   0  0  0  0  0  0  0  0  0  0  0  0
   -8.2550   22.5278  -32.4000 H   0  0  0  0  0  0  0  0  0  0  0  0
  1  2  1  0
  2  3  2  3
  3  4  1  0
  4  5  1  0
  4  6  1  0
  4  7  1  0
  3  8  1  0
  8  9  1  0
  8 10  1  0
  8 11  1  0
  2 12  1  0
 12 13  1  0
 12 14  1  0
 12 15  1  0
 15 16  1  0
 15 17  1  0
 15 18  1  0
 18 19  2  0
 19 20  1  0
 19 21  1  0
 21 22  1  0
 21 23  1  0
 21 24  1  0
 24 25  1  0
 25 26  1  0
 25 27  1  0
 25 28  1  0
 28 29  1  0
 28 30  1  0
 28 31  1  0
 31 32  1  0
 32 33  1  0
 32 34  1  0
 32 35  1  0
 35 36  1  0
 35 37  1  0
 35 38  1  0
 31 39  1  0
 39 40  1  0
 39 41  1  0
 39 42  1  0
 42 43  1  0
 42 44  1  0
 42 45  1  0
 18 46  1  0
 46 47  1  0
 46 48  1  0
 46 49  1  0
M  END
>  <UniqueID>  (4) 
4

>  <SMILES>  (4) 
CCN(CC)CCOC/C=C(\C)CCC=C(C)C

>  <Energy>  (4) 
37.15125469376256

>  <Genealogy>  (4) 
CCN(CC)CCOC/C=C(\C)CCC=C(C)C (cis-trans isomerization)
CCN(CC)CCOC/C=C(\C)CCC=C(C)C (3D coordinates assigned)
CCN(CC)CCOC/C=C(\C)CCC=C(C)C (optimized conformer: 37.15125469376256 kcal/mol)

>  <smiles>  (4) 
CCN(CC)CCOCC=C(C)CCC=C(C)C

>  <score_type>  (4) 
oracle

>  <origin>  (4) 
adg

>  <m_score__min__energy>  (4) 
-6.4900000000000002

>  <m_primary>  (4) 
energy

$$$$
4:0
     RDKit          3D

 50 53  0  0  0  0  0  0  0  0999 V2000
   -6.5380   24.7290  -30.0910 C   0  0  0  0  0  0  0  0  0  0  0  0
   -5.2510   25.4180  -30.5440 C   0  0  0  0  0  0  0  0  0  0  0  0
   -4.1330   24.4540  -30.6270 N   0  0  0  0  0  0  0  0  0  0  0  0
   -3.3070   24.5320  -29.4110 C   0  0  0  0  0  0  0  0  0  0  0  0
   -4.5970   23.0640  -30.8650 C   0  0  0  0  0  0  0  0  0  0  0  0
   -3.6360   22.3500  -31.8170 C   0  0  0  0  0  0  0  0  0  0  0  0
   -4.3310   21.9050  -33.0230 N   0  0  0  0  0  0  0  0  0  0  0  0
   -4.7110   20.5300  -33.1660 C   0  0  0  0  0  0  0  0  0  0  0  0
   -3.7890   19.5500  -33.5990 C   0  0  0  0  0  0  0  0  0  0  0  0
   -2.4510   19.8950  -33.8750 C   0  0  0  0  0  0  0  0  0  0  0  0
   -1.5530   18.9420  -34.3470 C   0  0  0  0  0  0  0  0  0  0  0  0
   -1.9680   17.6300  -34.5510 C   0  0  0  0  0  0  0  0  0  0  0  0
   -3.2800   17.2530  -34.2620 C   0  0  0  0  0  0  0  0  0  0  0  0
   -4.2150   18.1880  -33.7540 C   0  0  0  0  0  0  0  0  0  0  0  0
   -5.5100   17.8160  -33.4230 N   0  0  0  0  0  0  0  0  0  0  0  0
   -5.9400   16.4060  -33.4790 C   0  0  0  0  0  0  0  0  0  0  0  0
   -6.3940   18.7960  -33.0500 C   0  0  0  0  0  0  0  0  0  0  0  0
   -7.7190   18.6360  -32.8040 N   0  0  0  0  0  0  0  0  0  0  0  0
   -8.1710   19.8680  -32.5000 C   0  0  0  0  0  0  0  0  0  0  0  0
   -9.4840   20.2200  -32.1900 C   0  0  0  0  0  0  0  0  0  0  0  0
   -9.7630   21.5710  -31.9260 C   0  0  0  0  0  0  0  0  0  0  0  0
   -8.7360   22.5370  -31.9850 C   0  0  0  0  0  0  0  0  0  0  0  0
   -7.4190   22.1620  -32.3040 C   0  0  0  0  0  0  0  0  0  0  0  0
   -7.1640   20.8100  -32.5540 C   0  0  0  0  0  0  0  0  0  0  0  0
   -6.0170   20.1180  -32.9100 C   0  0  0  0  0  0  0  0  0  0  0  0
   -6.5758   24.7088  -28.9918 H   0  0  0  0  0  0  0  0  0  0  0  0
   -7.4061   25.2830  -30.4776 H   0  0  0  0  0  0  0  0  0  0  0  0
   -6.5583   23.6994  -30.4776 H   0  0  0  0  0  0  0  0  0  0  0  0
   -5.4132   25.8666  -31.5352 H   0  0  0  0  0  0  0  0  0  0  0  0
   -4.9910   26.1926  -29.8075 H   0  0  0  0  0  0  0  0  0  0  0  0
   -3.9541   24.4709  -28.5236 H   0  0  0  0  0  0  0  0  0  0  0  0
   -2.5904   23.6975  -29.4004 H   0  0  0  0  0  0  0  0  0  0  0  0
   -2.7593   25.4859  -29.4004 H   0  0  0  0  0  0  0  0  0  0  0  0
   -4.6321   22.5224  -29.9082 H   0  0  0  0  0  0  0  0  0  0  0  0
   -5.6004   23.0893  -31.3151 H   0  0  0  0  0  0  0  0  0  0  0  0
   -2.8296   23.0423  -32.1008 H   0  0  0  0  0  0  0  0  0  0  0  0
   -3.2232   21.4688  -31.3040 H   0  0  0  0  0  0  0  0  0  0  0  0
   -4.2380   22.4720  -33.8950 H   0  0  0  0  0  0  0  0  0  0  0  0
   -2.1123   20.9293  -33.7156 H   0  0  0  0  0  0  0  0  0  0  0  0
   -0.5120   19.2272  -34.5593 H   0  0  0  0  0  0  0  0  0  0  0  0
   -1.2583   16.8861  -34.9421 H   0  0  0  0  0  0  0  0  0  0  0  0
   -3.5935   16.2123  -34.4315 H   0  0  0  0  0  0  0  0  0  0  0  0
   -6.0584   16.0179  -32.4566 H   0  0  0  0  0  0  0  0  0  0  0  0
   -6.9002   16.3363  -34.0111 H   0  0  0  0  0  0  0  0  0  0  0  0
   -5.1821   15.8124  -34.0111 H   0  0  0  0  0  0  0  0  0  0  0  0
   -8.3050   17.7760  -32.8700 H   0  0  0  0  0  0  0  0  0  0  0  0
  -10.2792   19.4608  -32.1532 H   0  0  0  0  0  0  0  0  0  0  0  0
  -10.7882   21.8779  -31.6717 H   0  0  0  0  0  0  0  0  0  0  0  0
   -8.9678   23.5925  -31.7796 H   0  0  0  0  0  0  0  0  0  0  0  0
   -6.6136   22.9095  -32.3554 H   0  0  0  0  0  0  0  0  0  0  0  0
  1  2  1  0
  2  3  1  0
  3  4  1  0
  3  5  1  0
  5  6  1  0
  6  7  1  0
  7  8  1  0
  8  9  2  0
  9 10  1  0
 10 11  2  0
 11 12  1  0
 12 13  2  0
 13 14  1  0
 14 15  2  0
 15 16  1  0
 15 17  1  0
 17 18  1  0
 18 19  1  0
 19 20  2  0
 20 21  1  0
 21 22  2  0
 22 23  1  0
 23 24  2  0
 24 25  1  0
 25  8  1  0
 14  9  1  0
 25 17  2  0
 24 19  1  0
  1 26  1  0
  1 27  1  0
  1 28  1  0
  2 29  1  0
  2 30  1  0
  4 31  1  0
  4 32  1  0
  4 33  1  0
  5 34  1  0
  5 35  1  0
  6 36  1  0
  6 37  1  0
  7 38  1  0
 10 39  1  0
 11 40  1  0
 12 41  1  0
 13 42  1  0
 16 43  1  0
 16 44  1  0
 16 45  1  0
 18 46  1  0
 20 47  1  0
 21 48  1  0
 22 49  1  0
 23 50  1  0
M  CHG  1  15   1
M  END
>  <UniqueID>  (5) 
5

>  <SMILES>  (5) 
CCN(C)CCNc1c2ccccc2[n+](C)c2[nH]c3ccccc3c12

>  <Energy>  (5) 
108.83047831257737

>  <Genealogy>  (5) 
CCN(C)CCNc1c2ccccc2[n+](C)c2[nH]c3ccccc3c12 (3D coordinates assigned)
CCN(C)CCNc1c2ccccc2[n+](C)c2[nH]c3ccccc3c12 (optimized conformer: 108.83047831257737 kcal/mol)

>  <smiles>  (5) 
CCN(C)CCNc1c2ccccc2[n+](C)c2[nH]c3ccccc3c12

>  <score_type>  (5) 
oracle

>  <origin>  (5) 
adg

>  <m_score__min__energy>  (5) 
-8.7799999999999994

>  <m_primary>  (5) 
energy

$$$$
5:0
     RDKit          3D

 38 40  0  0  0  0  0  0  0  0999 V2000
    0.6620   22.2700  -35.7060 C   0  0  0  0  0  0  0  0  0  0  0  0
    0.4420   21.1630  -34.6620 C   0  0  0  0  0  0  0  0  0  0  0  0
   -0.9690   20.9880  -34.2350 N   0  0  0  0  0  0  0  0  0  0  0  0
   -1.4540   19.5960  -34.4520 C   0  0  0  0  0  0  0  0  0  0  0  0
   -2.5760   19.1640  -33.4820 C   0  0  0  0  0  0  0  0  0  0  0  0
   -3.3870   20.3100  -33.0440 N   0  0  0  0  0  0  0  0  0  0  0  0
   -4.8110   20.1740  -32.8760 C   0  0  0  0  0  0  0  0  0  0  0  0
   -5.6100   21.1880  -32.4590 N   0  0  0  0  0  0  0  0  0  0  0  0
   -6.9100   20.7950  -32.3880 C   0  0  0  0  0  0  0  0  0  0  0  0
   -7.9720   21.6200  -31.9920 C   0  0  0  0  0  0  0  0  0  0  0  0
   -7.7340   23.0470  -31.5910 C   0  0  0  0  0  0  0  0  0  0  0  0
   -9.2680   21.0630  -31.9460 C   0  0  0  0  0  0  0  0  0  0  0  0
   -9.4850   19.7180  -32.3080 C   0  0  0  0  0  0  0  0  0  0  0  0
   -8.4130   18.9100  -32.7140 C   0  0  0  0  0  0  0  0  0  0  0  0
   -7.1420   19.4740  -32.7430 C   0  0  0  0  0  0  0  0  0  0  0  0
   -5.6890   18.7510  -33.1690 S   0  0  0  0  0  0  0  0  0  0  0  0
   -2.7190   21.5360  -32.5890 C   0  0  0  0  0  0  0  0  0  0  0  0
   -1.2120   21.4740  -32.8610 C   0  0  0  0  0  0  0  0  0  0  0  0
    0.8517   23.2247  -35.1937 H   0  0  0  0  0  0  0  0  0  0  0  0
    1.5267   22.0136  -36.3356 H   0  0  0  0  0  0  0  0  0  0  0  0
   -0.2351   22.3637  -36.3356 H   0  0  0  0  0  0  0  0  0  0  0  0
    0.7910   20.2123  -35.0913 H   0  0  0  0  0  0  0  0  0  0  0  0
    1.0041   21.4637  -33.7655 H   0  0  0  0  0  0  0  0  0  0  0  0
   -1.5300   21.6040  -34.8750 H   0  0  0  0  0  0  0  0  0  0  0  0
   -1.8371   19.5194  -35.4803 H   0  0  0  0  0  0  0  0  0  0  0  0
   -0.5993   18.9285  -34.2680 H   0  0  0  0  0  0  0  0  0  0  0  0
   -3.2284   18.4395  -33.9914 H   0  0  0  0  0  0  0  0  0  0  0  0
   -2.1075   18.7157  -32.5934 H   0  0  0  0  0  0  0  0  0  0  0  0
   -7.7214   23.1223  -30.4937 H   0  0  0  0  0  0  0  0  0  0  0  0
   -6.7672   23.3844  -31.9928 H   0  0  0  0  0  0  0  0  0  0  0  0
   -8.5390   23.6799  -31.9928 H   0  0  0  0  0  0  0  0  0  0  0  0
  -10.1169   21.6844  -31.6246 H   0  0  0  0  0  0  0  0  0  0  0  0
  -10.5016   19.2995  -32.2718 H   0  0  0  0  0  0  0  0  0  0  0  0
   -8.5728   17.8603  -33.0013 H   0  0  0  0  0  0  0  0  0  0  0  0
   -3.1458   22.3976  -33.1233 H   0  0  0  0  0  0  0  0  0  0  0  0
   -2.8754   21.6386  -31.5050 H   0  0  0  0  0  0  0  0  0  0  0  0
   -0.7792   22.4789  -32.7476 H   0  0  0  0  0  0  0  0  0  0  0  0
   -0.7425   20.7841  -32.1443 H   0  0  0  0  0  0  0  0  0  0  0  0
  1  2  1  0
  2  3  1  0
  3  4  1  0
  4  5  1  0
  5  6  1  0
  6  7  1  0
  7  8  2  0
  8  9  1  0
  9 10  2  0
 10 11  1  0
 10 12  1  0
 12 13  2  0
 13 14  1  0
 14 15  2  0
 15 16  1  0
  6 17  1  0
 17 18  1  0
 18  3  1  0
 16  7  1  0
 15  9  1  0
  1 19  1  0
  1 20  1  0
  1 21  1  0
  2 22  1  0
  2 23  1  0
  3 24  1  0
  4 25  1  0
  4 26  1  0
  5 27  1  0
  5 28  1  0
 11 29  1  0
 11 30  1  0
 11 31  1  0
 12 32  1  0
 13 33  1  0
 14 34  1  0
 17 35  1  0
 17 36  1  0
 18 37  1  0
 18 38  1  0
M  CHG  1   3   1
M  END
>  <UniqueID>  (6) 
6

>  <SMILES>  (6) 
CC[NH+]1CCN(c2nc3c(C)cccc3s2)CC1

>  <Energy>  (6) 
80.57881587697085

>  <Genealogy>  (6) 
CC[NH+]1CCN(c2nc3c(C)cccc3s2)CC1 (protonated)
CC[NH+]1CCN(c2nc3c(C)cccc3s2)CC1 (3D coordinates assigned)
CC[NH+]1CCN(c2nc3c(C)cccc3s2)CC1 (nonaromatic ring conformer: 80.57881587697085 kcal/mol)

>  <smiles>  (6) 
CCN1CCN(c2nc3c(C)cccc3s2)CC1

>  <score_type>  (6) 
oracle

>  <origin>  (6) 
adg

>  <m_score__min__energy>  (6) 
-6.3200000000000003

>  <m_primary>  (6) 
energy

$$$$
6:0
     RDKit          3D

 52 54  0  0  0  0  0  0  0  0999 V2000
   -6.4070   16.3270  -33.8790 C   0  0  0  0  0  0  0  0  0  0  0  0
   -6.1590   17.8070  -34.1920 C   0  0  0  0  0  0  0  0  0  0  0  0
   -6.4950   18.7120  -33.0620 N   0  0  0  0  0  0  0  0  0  0  0  0
   -7.5230   18.1550  -32.1380 C   0  0  0  0  0  0  0  0  0  0  0  0
   -8.7530   19.0500  -31.9210 C   0  0  0  0  0  0  0  0  0  0  0  0
   -5.2440   19.1180  -32.3690 C   0  0  0  0  0  0  0  0  0  0  0  0
   -4.4880   20.2520  -33.0940 C   0  0  0  0  0  0  0  0  0  0  0  0
   -4.5640   21.5080  -32.3200 N   0  0  0  0  0  0  0  0  0  0  0  0
   -3.4260   22.1700  -31.9060 C   0  0  0  0  0  0  0  0  0  0  0  0
   -1.7580   21.5960  -32.2930 S   0  0  0  0  0  0  0  0  0  0  0  0
   -1.4160   20.8230  -30.6680 C   0  0  0  0  0  0  0  0  0  0  0  0
   -1.9330   21.6590  -29.5270 C   0  0  0  0  0  0  0  0  0  0  0  0
   -3.1120   21.2860  -28.8580 C   0  0  0  0  0  0  0  0  0  0  0  0
   -3.6350   22.0950  -27.8450 C   0  0  0  0  0  0  0  0  0  0  0  0
   -2.9840   23.2780  -27.4900 C   0  0  0  0  0  0  0  0  0  0  0  0
   -1.8090   23.6560  -28.1450 C   0  0  0  0  0  0  0  0  0  0  0  0
   -1.2830   22.8510  -29.1620 C   0  0  0  0  0  0  0  0  0  0  0  0
   -0.1490   23.2420  -29.7990 F   0  0  0  0  0  0  0  0  0  0  0  0
   -3.5270   23.3230  -31.1970 N   0  0  0  0  0  0  0  0  0  0  0  0
   -4.7240   23.8430  -30.8430 C   0  0  0  0  0  0  0  0  0  0  0  0
   -4.7790   25.0190  -30.0850 C   0  0  0  0  0  0  0  0  0  0  0  0
   -6.0140   25.5550  -29.7140 C   0  0  0  0  0  0  0  0  0  0  0  0
   -7.1970   24.9160  -30.0980 C   0  0  0  0  0  0  0  0  0  0  0  0
   -7.1490   23.7410  -30.8530 C   0  0  0  0  0  0  0  0  0  0  0  0
   -5.9070   23.1940  -31.2300 C   0  0  0  0  0  0  0  0  0  0  0  0
   -5.8000   22.0140  -31.9850 C   0  0  0  0  0  0  0  0  0  0  0  0
   -6.8510   21.4180  -32.3560 O   0  0  0  0  0  0  0  0  0  0  0  0
   -6.4313   16.1818  -32.7889 H   0  0  0  0  0  0  0  0  0  0  0  0
   -7.3696   16.0170  -34.3118 H   0  0  0  0  0  0  0  0  0  0  0  0
   -5.5980   15.7201  -34.3118 H   0  0  0  0  0  0  0  0  0  0  0  0
   -5.0952   17.9379  -34.4395 H   0  0  0  0  0  0  0  0  0  0  0  0
   -6.8166   18.0767  -35.0316 H   0  0  0  0  0  0  0  0  0  0  0  0
   -6.9030   19.5810  -33.4840 H   0  0  0  0  0  0  0  0  0  0  0  0
   -7.8677   17.1949  -32.5496 H   0  0  0  0  0  0  0  0  0  0  0  0
   -7.0352   18.0590  -31.1568 H   0  0  0  0  0  0  0  0  0  0  0  0
   -8.9281   19.1774  -30.8425 H   0  0  0  0  0  0  0  0  0  0  0  0
   -8.5773   20.0329  -32.3826 H   0  0  0  0  0  0  0  0  0  0  0  0
   -9.6342   18.5804  -32.3826 H   0  0  0  0  0  0  0  0  0  0  0  0
   -5.5010   19.4610  -31.3559 H   0  0  0  0  0  0  0  0  0  0  0  0
   -4.5801   18.2411  -32.3522 H   0  0  0  0  0  0  0  0  0  0  0  0
   -3.4330   19.9643  -33.2128 H   0  0  0  0  0  0  0  0  0  0  0  0
   -4.9524   20.4141  -34.0779 H   0  0  0  0  0  0  0  0  0  0  0  0
   -1.9017   19.8366  -30.6344 H   0  0  0  0  0  0  0  0  0  0  0  0
   -0.3254   20.7327  -30.5569 H   0  0  0  0  0  0  0  0  0  0  0  0
   -3.6255   20.3529  -29.1331 H   0  0  0  0  0  0  0  0  0  0  0  0
   -4.5596   21.7995  -27.3275 H   0  0  0  0  0  0  0  0  0  0  0  0
   -3.3969   23.9138  -26.6930 H   0  0  0  0  0  0  0  0  0  0  0  0
   -1.2969   24.5872  -27.8611 H   0  0  0  0  0  0  0  0  0  0  0  0
   -3.8485   25.5211  -29.7815 H   0  0  0  0  0  0  0  0  0  0  0  0
   -6.0562   26.4797  -29.1198 H   0  0  0  0  0  0  0  0  0  0  0  0
   -8.1688   25.3397  -29.8048 H   0  0  0  0  0  0  0  0  0  0  0  0
   -8.0825   23.2426  -31.1533 H   0  0  0  0  0  0  0  0  0  0  0  0
  1  2  1  0
  2  3  1  0
  3  4  1  0
  4  5  1  0
  3  6  1  0
  6  7  1  0
  7  8  1  0
  8  9  1  0
  9 10  1  0
 10 11  1  0
 11 12  1  0
 12 13  2  0
 13 14  1  0
 14 15  2  0
 15 16  1  0
 16 17  2  0
 17 18  1  0
  9 19  2  0
 19 20  1  0
 20 21  2  0
 21 22  1  0
 22 23  2  0
 23 24  1  0
 24 25  2  0
 25 26  1  0
 26 27  2  0
 26  8  1  0
 17 12  1  0
 25 20  1  0
  1 28  1  0
  1 29  1  0
  1 30  1  0
  2 31  1  0
  2 32  1  0
  3 33  1  0
  4 34  1  0
  4 35  1  0
  5 36  1  0
  5 37  1  0
  5 38  1  0
  6 39  1  0
  6 40  1  0
  7 41  1  0
  7 42  1  0
 11 43  1  0
 11 44  1  0
 13 45  1  0
 14 46  1  0
 15 47  1  0
 16 48  1  0
 21 49  1  0
 22 50  1  0
 23 51  1  0
 24 52  1  0
M  CHG  1   3   1
M  END
>  <UniqueID>  (7) 
7

>  <SMILES>  (7) 
CC[NH+](CC)CCn1c(SCc2ccccc2F)nc2ccccc2c1=O

>  <Energy>  (7) 
60.14355148200172

>  <Genealogy>  (7) 
CC[NH+](CC)CCn1c(SCc2ccccc2F)nc2ccccc2c1=O (protonated)
CC[NH+](CC)CCn1c(SCc2ccccc2F)nc2ccccc2c1=O (3D coordinates assigned)
CC[NH+](CC)CCn1c(SCc2ccccc2F)nc2ccccc2c1=O (optimized conformer: 60.14355148200172 kcal/mol)

>  <smiles>  (7) 
CCN(CC)CCn1c(SCc2ccccc2F)nc2ccccc2c1=O

>  <score_type>  (7) 
oracle

>  <origin>  (7) 
adg

>  <m_score__min__energy>  (7) 
-7.0999999999999996

>  <m_primary>  (7) 
energy

$$$$
7:0
     RDKit          3D

 83 85  0  0  1  0  0  0  0  0999 V2000
   -0.8270   30.4940  -27.1490 C   0  0  0  0  0  0  0  0  0  0  0  0
    0.2020   29.4290  -27.4550 C   0  0  0  0  0  0  0  0  0  0  0  0
   -0.1070   28.1950  -26.9480 O   0  0  0  0  0  0  0  0  0  0  0  0
   -0.4310   28.1490  -25.6160 C   0  0  0  0  0  0  0  0  0  0  0  0
   -1.1690   26.8900  -25.1970 C   0  0  0  0  0  0  0  0  0  0  0  0
   -1.4980   26.1010  -26.2620 O   0  0  0  0  0  0  0  0  0  0  0  0
   -2.2050   24.9590  -26.0070 C   0  0  0  0  0  0  0  0  0  0  0  0
   -3.2610   24.7530  -27.0790 C   0  0  0  0  0  0  0  0  0  0  0  0
   -2.9570   23.7260  -27.9830 N   0  0  0  0  0  0  0  0  0  0  0  0
   -3.7910   22.6170  -28.0880 C   0  0  0  0  0  0  0  0  0  0  0  0
   -3.0900   21.2780  -28.2520 C   0  0  0  0  0  0  0  0  0  0  0  0
   -2.3990   20.8550  -27.1720 O   0  0  0  0  0  0  0  0  0  0  0  0
   -1.0360   20.9440  -27.1790 C   0  0  0  0  0  0  0  0  0  0  0  0
   -0.3930   20.9250  -28.5270 C   0  0  0  0  0  0  0  0  0  0  0  0
   -0.4870   19.7480  -29.1990 O   0  0  0  0  0  0  0  0  0  0  0  0
   -0.5700   19.9260  -30.5510 C   0  0  0  0  0  0  0  0  0  0  0  0
   -1.2960   21.1530  -31.0200 C   0  0  0  0  0  0  0  0  0  0  0  0
   -1.8470   20.9370  -32.2800 N   0  0  0  0  0  0  0  0  0  0  0  0
   -1.1870   20.2810  -33.3050 C   0  0  0  0  0  0  0  0  0  0  0  0
   -2.9080   21.8910  -32.6940 C   0  0  0  0  0  0  0  0  0  0  0  0
   -4.2130   21.2050  -32.5640 C   0  0  0  0  0  0  0  0  0  0  0  0
   -4.0860   20.0570  -33.1450 O   0  0  0  0  0  0  0  0  0  0  0  0
   -5.4370   21.5680  -31.9700 N   0  0  0  0  0  0  0  0  0  0  0  0
   -5.6510   22.8100  -31.2920 C   0  0  0  0  0  0  0  0  0  0  0  0
   -4.6180   23.7560  -31.2210 C   0  0  0  0  0  0  0  0  0  0  0  0
   -4.7730   24.9830  -30.5850 C   0  0  0  0  0  0  0  0  0  0  0  0
   -5.9480   25.3350  -29.9910 C   0  0  0  0  0  0  0  0  0  0  0  0
   -6.9700   24.4310  -30.0470 C   0  0  0  0  0  0  0  0  0  0  0  0
   -6.8050   23.2170  -30.6810 C   0  0  0  0  0  0  0  0  0  0  0  0
   -8.2090   22.1610  -30.6600 S   0  0  0  0  0  0  0  0  0  0  0  0
   -7.7510   20.7020  -31.5580 C   0  0  0  0  0  0  0  0  0  0  0  0
   -8.7440   19.7560  -31.6760 C   0  0  0  0  0  0  0  0  0  0  0  0
   -8.5170   18.5880  -32.3440 C   0  0  0  0  0  0  0  0  0  0  0  0
   -7.2780   18.4050  -32.8800 C   0  0  0  0  0  0  0  0  0  0  0  0
   -6.2840   19.3690  -32.7530 C   0  0  0  0  0  0  0  0  0  0  0  0
   -6.4890   20.5780  -32.0730 C   0  0  0  0  0  0  0  0  0  0  0  0
   -2.0520   23.9480  -29.0330 C   0  0  0  0  0  0  0  0  0  0  0  0
   -0.9640   24.8970  -28.7680 C   0  0  0  0  0  0  0  0  0  0  0  0
   -1.2580   26.2620  -28.9710 O   0  0  0  0  0  0  0  0  0  0  0  0
    0.2150   24.6280  -28.3810 N   0  0  0  0  0  0  0  0  0  0  0  0
    1.0030   25.3370  -27.5440 O   0  0  0  0  0  0  0  0  0  0  0  0
   -0.9307   30.6013  -26.0592 H   0  0  0  0  0  0  0  0  0  0  0  0
   -0.5035   31.4518  -27.5826 H   0  0  0  0  0  0  0  0  0  0  0  0
   -1.7953   30.2036  -27.5826 H   0  0  0  0  0  0  0  0  0  0  0  0
    0.2945   29.3410  -28.5476 H   0  0  0  0  0  0  0  0  0  0  0  0
    1.1400   29.7449  -26.9750 H   0  0  0  0  0  0  0  0  0  0  0  0
    0.4992   28.2137  -25.0325 H   0  0  0  0  0  0  0  0  0  0  0  0
   -1.1124   28.9917  -25.4277 H   0  0  0  0  0  0  0  0  0  0  0  0
   -0.5259   26.3137  -24.5156 H   0  0  0  0  0  0  0  0  0  0  0  0
   -2.1039   27.1970  -24.7053 H   0  0  0  0  0  0  0  0  0  0  0  0
   -1.5189   24.0992  -26.0012 H   0  0  0  0  0  0  0  0  0  0  0  0
   -2.6971   25.0495  -25.0274 H   0  0  0  0  0  0  0  0  0  0  0  0
   -4.2134   24.5097  -26.5853 H   0  0  0  0  0  0  0  0  0  0  0  0
   -3.3138   25.6856  -27.6598 H   0  0  0  0  0  0  0  0  0  0  0  0
   -4.4044   22.5679  -27.1762 H   0  0  0  0  0  0  0  0  0  0  0  0
   -4.3728   22.7656  -29.0096 H   0  0  0  0  0  0  0  0  0  0  0  0
   -3.8529   20.5208  -28.4859 H   0  0  0  0  0  0  0  0  0  0  0  0
   -2.3492   21.4173  -29.0531 H   0  0  0  0  0  0  0  0  0  0  0  0
   -0.7562   21.8858  -26.6842 H   0  0  0  0  0  0  0  0  0  0  0  0
   -0.6739   20.0436  -26.6612 H   0  0  0  0  0  0  0  0  0  0  0  0
   -0.8670   21.7053  -29.1405 H   0  0  0  0  0  0  0  0  0  0  0  0
    0.6805   21.0914  -28.3541 H   0  0  0  0  0  0  0  0  0  0  0  0
    0.4556   19.9728  -30.9458 H   0  0  0  0  0  0  0  0  0  0  0  0
   -1.1629   19.0767  -30.9213 H   0  0  0  0  0  0  0  0  0  0  0  0
   -2.1001   21.3928  -30.3087 H   0  0  0  0  0  0  0  0  0  0  0  0
   -0.5836   21.9890  -31.0798 H   0  0  0  0  0  0  0  0  0  0  0  0
   -0.4676   19.5660  -32.8794 H   0  0  0  0  0  0  0  0  0  0  0  0
   -1.9176   19.7409  -33.9250 H   0  0  0  0  0  0  0  0  0  0  0  0
   -0.6513   21.0149  -33.9250 H   0  0  0  0  0  0  0  0  0  0  0  0
   -2.8862   22.7788  -32.0449 H   0  0  0  0  0  0  0  0  0  0  0  0
   -2.7475   22.2152  -33.7328 H   0  0  0  0  0  0  0  0  0  0  0  0
   -3.6495   23.5187  -31.6855 H   0  0  0  0  0  0  0  0  0  0  0  0
   -3.9273   25.6860  -30.5608 H   0  0  0  0  0  0  0  0  0  0  0  0
   -6.0680   26.3058  -29.4879 H   0  0  0  0  0  0  0  0  0  0  0  0
   -7.9364   24.6738  -29.5810 H   0  0  0  0  0  0  0  0  0  0  0  0
   -9.7306   19.9435  -31.2272 H   0  0  0  0  0  0  0  0  0  0  0  0
   -9.3028   17.8250  -32.4456 H   0  0  0  0  0  0  0  0  0  0  0  0
   -7.0593   17.4748  -33.4249 H   0  0  0  0  0  0  0  0  0  0  0  0
   -5.2991   19.1758  -33.2032 H   0  0  0  0  0  0  0  0  0  0  0  0
   -1.5966   22.9808  -29.2923 H   0  0  0  0  0  0  0  0  0  0  0  0
   -2.6462   24.4029  -29.8393 H   0  0  0  0  0  0  0  0  0  0  0  0
   -1.1420   26.9620  -28.2470 H   0  0  0  0  0  0  0  0  0  0  0  0
    0.5420   26.1210  -27.0530 H   0  0  0  0  0  0  0  0  0  0  0  0
  1  2  1  0
  2  3  1  0
  3  4  1  0
  4  5  1  0
  5  6  1  0
  6  7  1  0
  7  8  1  0
  8  9  1  0
  9 10  1  0
 10 11  1  0
 11 12  1  0
 12 13  1  0
 13 14  1  0
 14 15  1  0
 15 16  1  0
 16 17  1  0
 17 18  1  0
 18 19  1  0
 18 20  1  0
 20 21  1  0
 21 22  2  0
 21 23  1  0
 23 24  1  0
 24 25  2  0
 25 26  1  0
 26 27  2  0
 27 28  1  0
 28 29  2  0
 29 30  1  0
 30 31  1  0
 31 32  2  0
 32 33  1  0
 33 34  2  0
 34 35  1  0
 35 36  2  0
  9 37  1  0
 37 38  1  0
 38 39  1  0
 38 40  2  0
 40 41  1  0
 36 23  1  0
 29 24  1  0
 36 31  1  0
  1 42  1  0
  1 43  1  0
  1 44  1  0
  2 45  1  0
  2 46  1  0
  4 47  1  0
  4 48  1  0
  5 49  1  0
  5 50  1  0
  7 51  1  0
  7 52  1  0
  8 53  1  0
  8 54  1  0
 10 55  1  0
 10 56  1  0
 11 57  1  0
 11 58  1  0
 13 59  1  0
 13 60  1  0
 14 61  1  0
 14 62  1  0
 16 63  1  0
 16 64  1  0
 17 65  1  0
 17 66  1  0
 19 67  1  0
 19 68  1  0
 19 69  1  0
 20 70  1  0
 20 71  1  0
 25 72  1  0
 26 73  1  0
 27 74  1  0
 28 75  1  0
 32 76  1  0
 33 77  1  0
 34 78  1  0
 35 79  1  0
 37 80  1  0
 37 81  1  0
 39 82  1  0
 41 83  1  0
M  END
>  <smiles>  (8) 
CCOCCOCCN(CCOCCOCCN(C)CC(=O)N1c2ccccc2Sc2ccccc21)CC(O)=NO

>  <score_type>  (8) 
oracle

>  <origin>  (8) 
adg

>  <m_score__min__energy>  (8) 
-10.710000000000001

>  <m_primary>  (8) 
energy

$$$$
8:0
     RDKit          3D

 51 52  0  0  0  0  0  0  0  0999 V2000
   -6.1610   17.0550  -31.9520 C   0  0  0  0  0  0  0  0  0  0  0  0
   -5.9250   18.5310  -31.6020 C   0  0  0  0  0  0  0  0  0  0  0  0
   -6.4500   19.4650  -32.6310 N   0  0  1  0  0  0  0  0  0  0  0  0
   -5.8540   19.1700  -33.9520 C   0  0  0  0  0  0  0  0  0  0  0  0
   -7.9390   19.3730  -32.6870 C   0  0  0  0  0  0  0  0  0  0  0  0
   -8.6420   20.6830  -32.2730 C   0  0  0  0  0  0  0  0  0  0  0  0
   -7.7250   21.5730  -31.5290 N   0  0  0  0  0  0  0  0  0  0  0  0
   -8.3230   21.9660  -30.2400 C   0  0  0  0  0  0  0  0  0  0  0  0
   -7.3350   22.7640  -32.3210 C   0  0  0  0  0  0  0  0  0  0  0  0
   -6.1090   23.3960  -31.7150 C   0  0  0  0  0  0  0  0  0  0  0  0
   -6.2040   24.6280  -31.0450 C   0  0  0  0  0  0  0  0  0  0  0  0
   -5.1030   25.1460  -30.3560 C   0  0  0  0  0  0  0  0  0  0  0  0
   -3.8990   24.4350  -30.3150 C   0  0  0  0  0  0  0  0  0  0  0  0
   -2.8160   24.9320  -29.5160 N   0  0  0  0  0  0  0  0  0  0  0  0
   -1.6900   24.1560  -29.0820 C   0  0  0  0  0  0  0  0  0  0  0  0
   -0.5310   24.6190  -29.2570 O   0  0  0  0  0  0  0  0  0  0  0  0
   -1.8570   22.8450  -28.4100 C   0  0  0  0  0  0  0  0  0  0  0  0
   -0.7350   22.0420  -28.1390 C   0  0  0  0  0  0  0  0  0  0  0  0
   -0.8940   20.7830  -27.5530 C   0  0  0  0  0  0  0  0  0  0  0  0
   -2.1710   20.3180  -27.2210 C   0  0  0  0  0  0  0  0  0  0  0  0
   -2.3720   18.7270  -26.5100 Cl  0  0  0  0  0  0  0  0  0  0  0  0
   -3.2880   21.1220  -27.4600 C   0  0  0  0  0  0  0  0  0  0  0  0
   -3.1340   22.3820  -28.0450 C   0  0  0  0  0  0  0  0  0  0  0  0
   -3.7770   23.2430  -31.0460 C   0  0  0  0  0  0  0  0  0  0  0  0
   -4.8750   22.7220  -31.7350 C   0  0  0  0  0  0  0  0  0  0  0  0
   -4.7300   21.5550  -32.4110 F   0  0  0  0  0  0  0  0  0  0  0  0
   -6.2547   16.4690  -31.0258 H   0  0  0  0  0  0  0  0  0  0  0  0
   -7.0856   16.9610  -32.5405 H   0  0  0  0  0  0  0  0  0  0  0  0
   -5.3118   16.6774  -32.5405 H   0  0  0  0  0  0  0  0  0  0  0  0
   -6.4231   18.7480  -30.6455 H   0  0  0  0  0  0  0  0  0  0  0  0
   -4.8373   18.6845  -31.5440 H   0  0  0  0  0  0  0  0  0  0  0  0
   -6.1710   20.4370  -32.3550 H   0  0  0  0  0  0  0  0  0  0  0  0
   -4.8760   18.6859  -33.8132 H   0  0  0  0  0  0  0  0  0  0  0  0
   -6.5198   18.4974  -34.5127 H   0  0  0  0  0  0  0  0  0  0  0  0
   -5.7229   20.1073  -34.5127 H   0  0  0  0  0  0  0  0  0  0  0  0
   -8.2361   19.1265  -33.7170 H   0  0  0  0  0  0  0  0  0  0  0  0
   -8.2469   18.5953  -31.9725 H   0  0  0  0  0  0  0  0  0  0  0  0
   -8.9913   21.2033  -33.1770 H   0  0  0  0  0  0  0  0  0  0  0  0
   -9.4886   20.4305  -31.6176 H   0  0  0  0  0  0  0  0  0  0  0  0
   -7.7140   21.5658  -29.4161 H   0  0  0  0  0  0  0  0  0  0  0  0
   -8.3573   23.0633  -30.1711 H   0  0  0  0  0  0  0  0  0  0  0  0
   -9.3439   21.5622  -30.1711 H   0  0  0  0  0  0  0  0  0  0  0  0
   -7.1167   22.4601  -33.3554 H   0  0  0  0  0  0  0  0  0  0  0  0
   -8.1603   23.4912  -32.3167 H   0  0  0  0  0  0  0  0  0  0  0  0
   -7.1505   25.1882  -31.0628 H   0  0  0  0  0  0  0  0  0  0  0  0
   -5.1840   26.1163  -29.8443 H   0  0  0  0  0  0  0  0  0  0  0  0
    0.2723   22.4062  -28.3893 H   0  0  0  0  0  0  0  0  0  0  0  0
   -0.0127   20.1561  -27.3523 H   0  0  0  0  0  0  0  0  0  0  0  0
   -4.2912   20.7626  -27.1872 H   0  0  0  0  0  0  0  0  0  0  0  0
   -4.0163   23.0150  -28.2209 H   0  0  0  0  0  0  0  0  0  0  0  0
   -2.8118   22.7163  -31.0765 H   0  0  0  0  0  0  0  0  0  0  0  0
  1  2  1  0
  2  3  1  0
  3  4  1  0
  3  5  1  0
  5  6  1  0
  6  7  1  0
  7  8  1  0
  7  9  1  0
  9 10  1  0
 10 11  2  0
 11 12  1  0
 12 13  2  0
 13 14  1  0
 14 15  1  0
 15 16  2  0
 15 17  1  0
 17 18  2  0
 18 19  1  0
 19 20  2  0
 20 21  1  0
 20 22  1  0
 22 23  2  0
 13 24  1  0
 24 25  2  0
 25 26  1  0
 25 10  1  0
 23 17  1  0
  1 27  1  0
  1 28  1  0
  1 29  1  0
  2 30  1  0
  2 31  1  0
  3 32  1  1
  4 33  1  0
  4 34  1  0
  4 35  1  0
  5 36  1  0
  5 37  1  0
  6 38  1  0
  6 39  1  0
  8 40  1  0
  8 41  1  0
  8 42  1  0
  9 43  1  0
  9 44  1  0
 11 45  1  0
 12 46  1  0
 18 47  1  0
 19 48  1  0
 22 49  1  0
 23 50  1  0
 24 51  1  0
M  CHG  2   3   1  14  -1
M  END
>  <UniqueID>  (9) 
8

>  <SMILES>  (9) 
CC[N@@H+](C)CCN(C)Cc1ccc([N-]C(=O)c2ccc(Cl)cc2)cc1F

>  <Energy>  (9) 
60.18162781674936

>  <Genealogy>  (9) 
CC[NH+](C)CCN(C)Cc1ccc([N-]C(=O)c2ccc(Cl)cc2)cc1F (protonated)
CC[N@@H+](C)CCN(C)Cc1ccc([N-]C(=O)c2ccc(Cl)cc2)cc1F (chirality)
CC[N@@H+](C)CCN(C)Cc1ccc([N-]C(=O)c2ccc(Cl)cc2)cc1F (3D coordinates assigned)
CC[N@@H+](C)CCN(C)Cc1ccc([N-]C(=O)c2ccc(Cl)cc2)cc1F (optimized conformer: 60.18162781674936 kcal/mol)

>  <smiles>  (9) 
CCN(C)CCN(C)Cc1ccc(NC(=O)c2ccc(Cl)cc2)cc1F

>  <score_type>  (9) 
oracle

>  <origin>  (9) 
adg

>  <m_score__min__energy>  (9) 
-9.6899999999999995

>  <m_primary>  (9) 
energy

$$$$
9:0
     RDKit          3D

 45 49  0  0  0  0  0  0  0  0999 V2000
   -1.3300   22.9950  -30.4440 F   0  0  0  0  0  0  0  0  0  0  0  0
   -0.9720   21.7200  -30.7330 C   0  0  0  0  0  0  0  0  0  0  0  0
   -0.5750   20.8530  -29.7150 C   0  0  0  0  0  0  0  0  0  0  0  0
   -0.2170   19.5430  -30.0250 C   0  0  0  0  0  0  0  0  0  0  0  0
   -0.2570   19.1160  -31.3550 C   0  0  0  0  0  0  0  0  0  0  0  0
   -0.6380   19.9750  -32.3490 N   0  0  0  0  0  0  0  0  0  0  0  0
   -0.7070   19.4990  -33.7350 C   0  0  0  0  0  0  0  0  0  0  0  0
   -2.0220   18.8060  -33.9780 C   0  0  0  0  0  0  0  0  0  0  0  0
   -2.0510   17.5490  -34.5940 C   0  0  0  0  0  0  0  0  0  0  0  0
   -3.2600   16.8750  -34.7630 C   0  0  0  0  0  0  0  0  0  0  0  0
   -4.4580   17.4430  -34.3060 C   0  0  0  0  0  0  0  0  0  0  0  0
   -4.4500   18.7260  -33.7110 C   0  0  0  0  0  0  0  0  0  0  0  0
   -3.2190   19.3830  -33.5240 C   0  0  0  0  0  0  0  0  0  0  0  0
   -5.7430   19.3130  -33.2470 C   0  0  0  0  0  0  0  0  0  0  0  0
   -5.8840   20.6560  -33.0170 N   0  0  0  0  0  0  0  0  0  0  0  0
   -7.0620   21.1910  -32.5810 C   0  0  0  0  0  0  0  0  0  0  0  0
   -7.1730   22.5710  -32.3410 C   0  0  0  0  0  0  0  0  0  0  0  0
   -8.3800   23.1120  -31.8900 C   0  0  0  0  0  0  0  0  0  0  0  0
   -9.4850   22.2830  -31.6760 C   0  0  0  0  0  0  0  0  0  0  0  0
   -9.3890   20.9090  -31.9140 C   0  0  0  0  0  0  0  0  0  0  0  0
   -8.1810   20.3570  -32.3680 C   0  0  0  0  0  0  0  0  0  0  0  0
   -8.0670   18.9890  -32.6240 C   0  0  0  0  0  0  0  0  0  0  0  0
   -6.8570   18.4610  -33.0870 C   0  0  0  0  0  0  0  0  0  0  0  0
   -6.7240   16.9810  -33.3430 C   0  0  0  0  0  0  0  0  0  0  0  0
   -5.7630   16.7130  -34.5060 C   0  0  0  0  0  0  0  0  0  0  0  0
   -1.0010   21.2610  -32.0520 C   0  0  0  0  0  0  0  0  0  0  0  0
   -0.5448   21.2021  -28.6723 H   0  0  0  0  0  0  0  0  0  0  0  0
    0.0946   18.8503  -29.2294 H   0  0  0  0  0  0  0  0  0  0  0  0
    0.0200   18.0811  -31.6045 H   0  0  0  0  0  0  0  0  0  0  0  0
   -0.6150   20.3555  -34.4191 H   0  0  0  0  0  0  0  0  0  0  0  0
    0.1135   18.7884  -33.9135 H   0  0  0  0  0  0  0  0  0  0  0  0
   -1.1152   17.0907  -34.9465 H   0  0  0  0  0  0  0  0  0  0  0  0
   -3.2741   15.8925  -35.2574 H   0  0  0  0  0  0  0  0  0  0  0  0
   -3.1946   20.3588  -33.0168 H   0  0  0  0  0  0  0  0  0  0  0  0
   -5.0870   21.3040  -33.2010 H   0  0  0  0  0  0  0  0  0  0  0  0
   -6.3067   23.2279  -32.5087 H   0  0  0  0  0  0  0  0  0  0  0  0
   -8.4607   24.1930  -31.7029 H   0  0  0  0  0  0  0  0  0  0  0  0
  -10.4326   22.7131  -31.3194 H   0  0  0  0  0  0  0  0  0  0  0  0
  -10.2608   20.2598  -31.7454 H   0  0  0  0  0  0  0  0  0  0  0  0
   -8.9295   18.3259  -32.4615 H   0  0  0  0  0  0  0  0  0  0  0  0
   -6.3381   16.4917  -32.4365 H   0  0  0  0  0  0  0  0  0  0  0  0
   -7.7138   16.5785  -33.6043 H   0  0  0  0  0  0  0  0  0  0  0  0
   -5.5654   15.6327  -34.5681 H   0  0  0  0  0  0  0  0  0  0  0  0
   -6.2278   17.0729  -35.4357 H   0  0  0  0  0  0  0  0  0  0  0  0
   -1.3181   21.9385  -32.8585 H   0  0  0  0  0  0  0  0  0  0  0  0
  1  2  1  0
  2  3  2  0
  3  4  1  0
  4  5  2  0
  5  6  1  0
  6  7  1  0
  7  8  1  0
  8  9  2  0
  9 10  1  0
 10 11  2  0
 11 12  1  0
 12 13  2  0
 12 14  1  0
 14 15  2  0
 15 16  1  0
 16 17  2  0
 17 18  1  0
 18 19  2  0
 19 20  1  0
 20 21  2  0
 21 22  1  0
 22 23  2  0
 23 24  1  0
 24 25  1  0
  6 26  2  0
 26  2  1  0
 13  8  1  0
 23 14  1  0
 25 11  1  0
 21 16  1  0
  3 27  1  0
  4 28  1  0
  5 29  1  0
  7 30  1  0
  7 31  1  0
  9 32  1  0
 10 33  1  0
 13 34  1  0
 15 35  1  0
 17 36  1  0
 18 37  1  0
 19 38  1  0
 20 39  1  0
 22 40  1  0
 24 41  1  0
 24 42  1  0
 25 43  1  0
 25 44  1  0
 26 45  1  0
M  CHG  2   6   1  15   1
M  END
>  <UniqueID>  (10) 
9

>  <SMILES>  (10) 
Fc1ccc[n+](Cc2ccc3c(c2)-c2[nH+]c4ccccc4cc2CC3)c1

>  <Energy>  (10) 
59.531593572017606

>  <Genealogy>  (10) 
Fc1ccc[n+](Cc2ccc3c(c2)-c2[nH+]c4ccccc4cc2CC3)c1 (protonated)
Fc1ccc[n+](Cc2ccc3c(c2)-c2[nH+]c4ccccc4cc2CC3)c1 (3D coordinates assigned)
Fc1ccc[n+](Cc2ccc3c(c2)-c2[nH+]c4ccccc4cc2CC3)c1 (nonaromatic ring conformer: 59.531593572017606 kcal/mol)

>  <smiles>  (10) 
Fc1ccc[n+](Cc2ccc3c(c2)-c2nc4ccccc4cc2CC3)c1

>  <score_type>  (10) 
oracle

>  <origin>  (10) 
adg

>  <m_score__min__energy>  (10) 
-7.9100000000000001

>  <m_primary>  (10) 
energy

$$$$
10:0
     RDKit          3D

 56 58  0  0  0  0  0  0  0  0999 V2000
   -0.8480   17.5340  -34.0740 C   0  0  0  0  0  0  0  0  0  0  0  0
   -1.8790   17.6850  -32.9560 C   0  0  0  0  0  0  0  0  0  0  0  0
   -3.1440   18.2570  -33.4710 N   0  0  0  0  0  0  0  0  0  0  0  0
   -3.8000   17.3500  -34.4510 C   0  0  0  0  0  0  0  0  0  0  0  0
   -4.1710   16.0400  -33.7660 C   0  0  0  0  0  0  0  0  0  0  0  0
   -2.9090   19.6030  -34.0430 C   0  0  0  0  0  0  0  0  0  0  0  0
   -3.0750   20.6890  -32.9650 C   0  0  0  0  0  0  0  0  0  0  0  0
   -3.7160   20.1730  -31.7390 N   0  0  0  0  0  0  0  0  0  0  0  0
   -5.0910   20.6410  -31.6020 C   0  0  0  0  0  0  0  0  0  0  0  0
   -6.1970   19.7990  -31.9230 C   0  0  0  0  0  0  0  0  0  0  0  0
   -6.0300   18.4610  -32.3670 C   0  0  0  0  0  0  0  0  0  0  0  0
   -7.1180   17.6870  -32.7590 C   0  0  0  0  0  0  0  0  0  0  0  0
   -8.3980   18.2180  -32.7270 C   0  0  0  0  0  0  0  0  0  0  0  0
   -8.6030   19.5080  -32.2550 C   0  0  0  0  0  0  0  0  0  0  0  0
   -7.5240   20.3060  -31.7950 C   0  0  0  0  0  0  0  0  0  0  0  0
   -7.7460   21.5500  -31.2400 N   0  0  0  0  0  0  0  0  0  0  0  0
   -9.1100   21.9280  -30.8020 C   0  0  0  0  0  0  0  0  0  0  0  0
   -6.6970   22.4240  -31.0520 C   0  0  0  0  0  0  0  0  0  0  0  0
   -6.9290   23.7900  -30.7440 C   0  0  0  0  0  0  0  0  0  0  0  0
   -5.8780   24.6540  -30.4540 C   0  0  0  0  0  0  0  0  0  0  0  0
   -4.5680   24.1940  -30.4640 C   0  0  0  0  0  0  0  0  0  0  0  0
   -3.5090   25.1050  -30.1360 N   0  0  0  0  0  0  0  0  0  0  0  0
   -2.4680   24.8870  -29.1730 C   0  0  0  0  0  0  0  0  0  0  0  0
   -2.6730   24.0440  -27.9510 C   0  0  0  0  0  0  0  0  0  0  0  0
   -1.3540   25.4480  -29.3460 O   0  0  0  0  0  0  0  0  0  0  0  0
   -4.3060   22.8810  -30.8710 C   0  0  0  0  0  0  0  0  0  0  0  0
   -5.3540   21.9760  -31.1780 C   0  0  0  0  0  0  0  0  0  0  0  0
    0.1500   17.3878  -33.6351 H   0  0  0  0  0  0  0  0  0  0  0  0
   -1.1061   16.6641  -34.6958 H   0  0  0  0  0  0  0  0  0  0  0  0
   -0.8458   18.4414  -34.6958 H   0  0  0  0  0  0  0  0  0  0  0  0
   -2.0833   16.6961  -32.5197 H   0  0  0  0  0  0  0  0  0  0  0  0
   -1.4717   18.3667  -32.1949 H   0  0  0  0  0  0  0  0  0  0  0  0
   -4.7097   17.8294  -34.8416 H   0  0  0  0  0  0  0  0  0  0  0  0
   -3.1068   17.1452  -35.2802 H   0  0  0  0  0  0  0  0  0  0  0  0
   -4.1332   16.1733  -32.6748 H   0  0  0  0  0  0  0  0  0  0  0  0
   -5.1879   15.7453  -34.0644 H   0  0  0  0  0  0  0  0  0  0  0  0
   -3.4596   15.2559  -34.0644 H   0  0  0  0  0  0  0  0  0  0  0  0
   -1.8875   19.6497  -34.4483 H   0  0  0  0  0  0  0  0  0  0  0  0
   -3.6448   19.7815  -34.8409 H   0  0  0  0  0  0  0  0  0  0  0  0
   -2.0815   21.0831  -32.7049 H   0  0  0  0  0  0  0  0  0  0  0  0
   -3.7252   21.4743  -33.3779 H   0  0  0  0  0  0  0  0  0  0  0  0
   -3.1200   20.3740  -30.9120 H   0  0  0  0  0  0  0  0  0  0  0  0
   -3.7010   19.1290  -31.7560 H   0  0  0  0  0  0  0  0  0  0  0  0
   -5.0198   18.0271  -32.4019 H   0  0  0  0  0  0  0  0  0  0  0  0
   -6.9619   16.6513  -33.0951 H   0  0  0  0  0  0  0  0  0  0  0  0
   -9.2514   17.6177  -33.0754 H   0  0  0  0  0  0  0  0  0  0  0  0
   -9.6230   19.9194  -32.2375 H   0  0  0  0  0  0  0  0  0  0  0  0
   -9.1521   21.9397  -29.7029 H   0  0  0  0  0  0  0  0  0  0  0  0
   -9.3554   22.9280  -31.1890 H   0  0  0  0  0  0  0  0  0  0  0  0
   -9.8351   21.1970  -31.1890 H   0  0  0  0  0  0  0  0  0  0  0  0
   -7.9601   24.1730  -30.7344 H   0  0  0  0  0  0  0  0  0  0  0  0
   -6.0859   25.7075  -30.2154 H   0  0  0  0  0  0  0  0  0  0  0  0
   -2.5233   24.6594  -27.0517 H   0  0  0  0  0  0  0  0  0  0  0  0
   -3.6958   23.6391  -27.9522 H   0  0  0  0  0  0  0  0  0  0  0  0
   -1.9504   23.2147  -27.9522 H   0  0  0  0  0  0  0  0  0  0  0  0
   -3.2626   22.5428  -30.9548 H   0  0  0  0  0  0  0  0  0  0  0  0
  1  2  1  0
  2  3  1  0
  3  4  1  0
  4  5  1  0
  3  6  1  0
  6  7  1  0
  7  8  1  0
  8  9  1  0
  9 10  2  0
 10 11  1  0
 11 12  2  0
 12 13  1  0
 13 14  2  0
 14 15  1  0
 15 16  2  0
 16 17  1  0
 16 18  1  0
 18 19  2  0
 19 20  1  0
 20 21  2  0
 21 22  1  0
 22 23  1  0
 23 24  1  0
 23 25  2  0
 21 26  1  0
 26 27  2  0
 27  9  1  0
 15 10  1  0
 27 18  1  0
  1 28  1  0
  1 29  1  0
  1 30  1  0
  2 31  1  0
  2 32  1  0
  4 33  1  0
  4 34  1  0
  5 35  1  0
  5 36  1  0
  5 37  1  0
  6 38  1  0
  6 39  1  0
  7 40  1  0
  7 41  1  0
  8 42  1  0
  8 43  1  0
 11 44  1  0
 12 45  1  0
 13 46  1  0
 14 47  1  0
 17 48  1  0
 17 49  1  0
 17 50  1  0
 19 51  1  0
 20 52  1  0
 24 53  1  0
 24 54  1  0
 24 55  1  0
 26 56  1  0
M  CHG  3   8   1  16   1  22  -1
M  END
>  <UniqueID>  (11) 
10

>  <SMILES>  (11) 
CCN(CC)CC[NH2+]c1c2ccccc2[n+](C)c2ccc([N-]C(C)=O)cc12

>  <Energy>  (11) 
87.78735027468804

>  <Genealogy>  (11) 
CCN(CC)CC[NH2+]c1c2ccccc2[n+](C)c2ccc([N-]C(C)=O)cc12 (protonated)
CCN(CC)CC[NH2+]c1c2ccccc2[n+](C)c2ccc([N-]C(C)=O)cc12 (3D coordinates assigned)
CCN(CC)CC[NH2+]c1c2ccccc2[n+](C)c2ccc([N-]C(C)=O)cc12 (optimized conformer: 87.78735027468804 kcal/mol)

>  <smiles>  (11) 
CCN(CC)CCNc1c2ccccc2[n+](C)c2ccc(NC(C)=O)cc12

>  <score_type>  (11) 
oracle

>  <origin>  (11) 
adg

>  <m_score__min__energy>  (11) 
-8.8900000000000006

>  <m_primary>  (11) 
energy

$$$$
11:0
     RDKit          3D

 47 48  0  0  0  0  0  0  0  0999 V2000
   -0.9020   21.5070  -31.6450 C   0  0  0  0  0  0  0  0  0  0  0  0
   -2.3430   21.4820  -32.1500 C   0  0  0  0  0  0  0  0  0  0  0  0
   -3.3240   21.1290  -31.0100 C   0  0  0  0  0  0  0  0  0  0  0  0
   -4.6100   21.8790  -31.0380 N   0  0  0  0  0  0  0  0  0  0  0  0
   -4.6620   22.9820  -30.0400 C   0  0  0  0  0  0  0  0  0  0  0  0
   -3.4820   23.9740  -30.0970 C   0  0  0  0  0  0  0  0  0  0  0  0
   -3.9230   25.2770  -30.6320 N   0  0  0  0  0  0  0  0  0  0  0  0
   -5.3780   25.3500  -30.8400 C   0  0  0  0  0  0  0  0  0  0  0  0
   -6.1150   25.6740  -29.5440 C   0  0  0  0  0  0  0  0  0  0  0  0
   -5.1950   22.1440  -32.3910 C   0  0  2  0  0  0  0  0  0  0  0  0
   -6.5380   22.9130  -32.3410 C   0  0  0  0  0  0  0  0  0  0  0  0
   -7.6370   22.1400  -31.5900 C   0  0  0  0  0  0  0  0  0  0  0  0
   -7.6560   20.6620  -31.8990 C   0  0  0  0  0  0  0  0  0  0  0  0
   -8.7240   19.8860  -31.4190 C   0  0  0  0  0  0  0  0  0  0  0  0
   -8.7510   18.5070  -31.6310 C   0  0  0  0  0  0  0  0  0  0  0  0
   -7.7090   17.8850  -32.3210 C   0  0  0  0  0  0  0  0  0  0  0  0
   -6.6360   18.6420  -32.7980 C   0  0  0  0  0  0  0  0  0  0  0  0
   -6.5900   20.0280  -32.5760 C   0  0  0  0  0  0  0  0  0  0  0  0
   -5.4620   20.8330  -33.1700 C   0  0  0  0  0  0  0  0  0  0  0  0
   -0.8989   21.5071  -30.5450 H   0  0  0  0  0  0  0  0  0  0  0  0
   -0.3690   20.6180  -32.0131 H   0  0  0  0  0  0  0  0  0  0  0  0
   -0.4001   22.4140  -32.0131 H   0  0  0  0  0  0  0  0  0  0  0  0
   -2.6004   22.4731  -32.5519 H   0  0  0  0  0  0  0  0  0  0  0  0
   -2.4261   20.7145  -32.9336 H   0  0  0  0  0  0  0  0  0  0  0  0
   -3.5527   20.0551  -31.0757 H   0  0  0  0  0  0  0  0  0  0  0  0
   -2.8224   21.4094  -30.0720 H   0  0  0  0  0  0  0  0  0  0  0  0
   -5.5907   23.5477  -30.2058 H   0  0  0  0  0  0  0  0  0  0  0  0
   -4.6108   22.5025  -29.0514 H   0  0  0  0  0  0  0  0  0  0  0  0
   -3.0807   24.1169  -29.0828 H   0  0  0  0  0  0  0  0  0  0  0  0
   -2.7057   23.5634  -30.7595 H   0  0  0  0  0  0  0  0  0  0  0  0
   -3.4850   25.4000  -31.5760 H   0  0  0  0  0  0  0  0  0  0  0  0
   -5.5940   26.1353  -31.5794 H   0  0  0  0  0  0  0  0  0  0  0  0
   -5.7243   24.3687  -31.1966 H   0  0  0  0  0  0  0  0  0  0  0  0
   -5.4857   25.3973  -28.6853 H   0  0  0  0  0  0  0  0  0  0  0  0
   -6.3339   26.7513  -29.5062 H   0  0  0  0  0  0  0  0  0  0  0  0
   -7.0568   25.1069  -29.5062 H   0  0  0  0  0  0  0  0  0  0  0  0
   -4.4365   22.7598  -32.8963 H   0  0  0  0  0  0  0  0  0  0  0  0
   -6.3742   23.8747  -31.8329 H   0  0  0  0  0  0  0  0  0  0  0  0
   -6.8794   23.0536  -33.3772 H   0  0  0  0  0  0  0  0  0  0  0  0
   -7.4750   22.2672  -30.5095 H   0  0  0  0  0  0  0  0  0  0  0  0
   -8.6027   22.5507  -31.9198 H   0  0  0  0  0  0  0  0  0  0  0  0
   -9.5462   20.3696  -30.8712 H   0  0  0  0  0  0  0  0  0  0  0  0
   -9.5942   17.9095  -31.2540 H   0  0  0  0  0  0  0  0  0  0  0  0
   -7.7328   16.7982  -32.4892 H   0  0  0  0  0  0  0  0  0  0  0  0
   -5.8224   18.1495  -33.3507 H   0  0  0  0  0  0  0  0  0  0  0  0
   -4.5473   20.2221  -33.1564 H   0  0  0  0  0  0  0  0  0  0  0  0
   -5.7505   21.1065  -34.1957 H   0  0  0  0  0  0  0  0  0  0  0  0
  1  2  1  0
  2  3  1  0
  3  4  1  0
  4  5  1  0
  5  6  1  0
  6  7  1  0
  7  8  1  0
  8  9  1  0
  4 10  1  0
 10 11  1  0
 11 12  1  0
 12 13  1  0
 13 14  2  0
 14 15  1  0
 15 16  2  0
 16 17  1  0
 17 18  2  0
 18 19  1  0
 19 10  1  0
 18 13  1  0
  1 20  1  0
  1 21  1  0
  1 22  1  0
  2 23  1  0
  2 24  1  0
  3 25  1  0
  3 26  1  0
  5 27  1  0
  5 28  1  0
  6 29  1  0
  6 30  1  0
  7 31  1  0
  8 32  1  0
  8 33  1  0
  9 34  1  0
  9 35  1  0
  9 36  1  0
 10 37  1  6
 11 38  1  0
 11 39  1  0
 12 40  1  0
 12 41  1  0
 14 42  1  0
 15 43  1  0
 16 44  1  0
 17 45  1  0
 19 46  1  0
 19 47  1  0
M  END
>  <UniqueID>  (12) 
11

>  <SMILES>  (12) 
CCCN(CCNCC)[C@@H]1CCc2ccccc2C1

>  <Energy>  (12) 
57.49239877832212

>  <Genealogy>  (12) 
CCCN(CCNCC)[C@@H]1CCc2ccccc2C1 (chirality)
CCCN(CCNCC)[C@@H]1CCc2ccccc2C1 (3D coordinates assigned)
CCCN(CCNCC)[C@@H]1CCc2ccccc2C1 (nonaromatic ring conformer: 57.49239877832212 kcal/mol)

>  <smiles>  (12) 
CCCN(CCNCC)C1CCc2ccccc2C1

>  <score_type>  (12) 
oracle

>  <origin>  (12) 
adg

>  <m_score__min__energy>  (12) 
-8.0700000000000003

>  <m_primary>  (12) 
energy

$$$$
12:0
     RDKit          3D

 46 48  0  0  0  0  0  0  0  0999 V2000
   -5.8130   25.8290  -30.1210 C   0  0  0  0  0  0  0  0  0  0  0  0
   -4.6090   24.9250  -30.3680 C   0  0  0  0  0  0  0  0  0  0  0  0
   -4.9830   23.8080  -31.2670 N   0  0  0  0  0  0  0  0  0  0  0  0
   -6.4520   23.5950  -31.3100 C   0  0  0  0  0  0  0  0  0  0  0  0
   -7.0220   22.8930  -30.0690 C   0  0  0  0  0  0  0  0  0  0  0  0
   -4.2040   22.5840  -30.9630 C   0  0  0  0  0  0  0  0  0  0  0  0
   -3.5910   21.9630  -32.2340 C   0  0  0  0  0  0  0  0  0  0  0  0
   -4.5990   21.7350  -33.2840 N   0  0  0  0  0  0  0  0  0  0  0  0
   -4.9650   20.3340  -33.3830 C   0  0  0  0  0  0  0  0  0  0  0  0
   -4.0060   19.4160  -33.8440 C   0  0  0  0  0  0  0  0  0  0  0  0
   -4.2930   18.0490  -33.9320 C   0  0  0  0  0  0  0  0  0  0  0  0
   -3.3150   17.1520  -34.3930 C   0  0  0  0  0  0  0  0  0  0  0  0
   -3.5990   15.7870  -34.4810 C   0  0  0  0  0  0  0  0  0  0  0  0
   -4.8560   15.3080  -34.1120 C   0  0  0  0  0  0  0  0  0  0  0  0
   -5.8380   16.1900  -33.6510 C   0  0  0  0  0  0  0  0  0  0  0  0
   -5.5680   17.5690  -33.5550 C   0  0  0  0  0  0  0  0  0  0  0  0
   -6.5430   18.4710  -33.0910 C   0  0  0  0  0  0  0  0  0  0  0  0
   -7.7450   18.0180  -32.7320 O   0  0  0  0  0  0  0  0  0  0  0  0
   -8.7130   18.8070  -32.2820 C   0  0  0  0  0  0  0  0  0  0  0  0
   -9.8240   18.3100  -31.9620 O   0  0  0  0  0  0  0  0  0  0  0  0
   -8.5030   20.1790  -32.1630 C   0  0  0  0  0  0  0  0  0  0  0  0
   -7.2670   20.7060  -32.5240 C   0  0  0  0  0  0  0  0  0  0  0  0
   -6.2490   19.8570  -33.0000 C   0  0  0  0  0  0  0  0  0  0  0  0
   -5.9681   25.9454  -29.0382 H   0  0  0  0  0  0  0  0  0  0  0  0
   -5.6302   26.8149  -30.5733 H   0  0  0  0  0  0  0  0  0  0  0  0
   -6.7088   25.3784  -30.5733 H   0  0  0  0  0  0  0  0  0  0  0  0
   -3.8035   25.5119  -30.8336 H   0  0  0  0  0  0  0  0  0  0  0  0
   -4.2667   24.5130  -29.4072 H   0  0  0  0  0  0  0  0  0  0  0  0
   -6.9403   24.5760  -31.4064 H   0  0  0  0  0  0  0  0  0  0  0  0
   -6.6510   22.9343  -32.1667 H   0  0  0  0  0  0  0  0  0  0  0  0
   -6.6298   23.3761  -29.1619 H   0  0  0  0  0  0  0  0  0  0  0  0
   -8.1195   22.9662  -30.0780 H   0  0  0  0  0  0  0  0  0  0  0  0
   -6.7250   21.8339  -30.0780 H   0  0  0  0  0  0  0  0  0  0  0  0
   -3.3928   22.8425  -30.2665 H   0  0  0  0  0  0  0  0  0  0  0  0
   -4.8879   21.8460  -30.5184 H   0  0  0  0  0  0  0  0  0  0  0  0
   -2.8204   22.6438  -32.6246 H   0  0  0  0  0  0  0  0  0  0  0  0
   -3.1622   20.9877  -31.9602 H   0  0  0  0  0  0  0  0  0  0  0  0
   -5.4480   22.3140  -33.0900 H   0  0  0  0  0  0  0  0  0  0  0  0
   -4.2320   22.0840  -34.2010 H   0  0  0  0  0  0  0  0  0  0  0  0
   -3.0110   19.7787  -34.1413 H   0  0  0  0  0  0  0  0  0  0  0  0
   -2.3226   17.5256  -34.6856 H   0  0  0  0  0  0  0  0  0  0  0  0
   -2.8297   15.0885  -34.8420 H   0  0  0  0  0  0  0  0  0  0  0  0
   -5.0755   14.2325  -34.1840 H   0  0  0  0  0  0  0  0  0  0  0  0
   -6.8269   15.8048  -33.3617 H   0  0  0  0  0  0  0  0  0  0  0  0
   -9.3023   20.8358  -31.7893 H   0  0  0  0  0  0  0  0  0  0  0  0
   -7.0846   21.7873  -32.4375 H   0  0  0  0  0  0  0  0  0  0  0  0
  1  2  1  0
  2  3  1  0
  3  4  1  0
  4  5  1  0
  3  6  1  0
  6  7  1  0
  7  8  1  0
  8  9  1  0
  9 10  2  0
 10 11  1  0
 11 12  2  0
 12 13  1  0
 13 14  2  0
 14 15  1  0
 15 16  2  0
 16 17  1  0
 17 18  1  0
 18 19  1  0
 19 20  2  0
 19 21  1  0
 21 22  2  0
 22 23  1  0
 23  9  1  0
 16 11  1  0
 23 17  2  0
  1 24  1  0
  1 25  1  0
  1 26  1  0
  2 27  1  0
  2 28  1  0
  4 29  1  0
  4 30  1  0
  5 31  1  0
  5 32  1  0
  5 33  1  0
  6 34  1  0
  6 35  1  0
  7 36  1  0
  7 37  1  0
  8 38  1  0
  8 39  1  0
 10 40  1  0
 12 41  1  0
 13 42  1  0
 14 43  1  0
 15 44  1  0
 21 45  1  0
 22 46  1  0
M  CHG  1   8   1
M  END
>  <UniqueID>  (13) 
12

>  <SMILES>  (13) 
CCN(CC)CC[NH2+]c1cc2ccccc2c2oc(=O)ccc12

>  <Energy>  (13) 
59.54839382074012

>  <Genealogy>  (13) 
CCN(CC)CC[NH2+]c1cc2ccccc2c2oc(=O)ccc12 (protonated)
CCN(CC)CC[NH2+]c1cc2ccccc2c2oc(=O)ccc12 (3D coordinates assigned)
CCN(CC)CC[NH2+]c1cc2ccccc2c2oc(=O)ccc12 (optimized conformer: 59.54839382074012 kcal/mol)

>  <smiles>  (13) 
CCN(CC)CCNc1cc2ccccc2c2oc(=O)ccc12

>  <score_type>  (13) 
oracle

>  <origin>  (13) 
adg

>  <m_score__min__energy>  (13) 
-7.7800000000000002

>  <m_primary>  (13) 
energy

$$$$
13:0
     RDKit          3D

 44 47  0  0  0  0  0  0  0  0999 V2000
    2.1980   19.6860  -34.6460 C   0  0  0  0  0  0  0  0  0  0  0  0
    0.8960   19.5130  -35.1950 O   0  0  0  0  0  0  0  0  0  0  0  0
   -0.2940   19.8590  -34.5360 C   0  0  0  0  0  0  0  0  0  0  0  0
   -0.3950   21.1360  -33.9730 C   0  0  0  0  0  0  0  0  0  0  0  0
   -1.5590   21.5290  -33.3070 C   0  0  0  0  0  0  0  0  0  0  0  0
   -2.6450   20.6450  -33.1910 C   0  0  0  0  0  0  0  0  0  0  0  0
   -3.8770   21.0580  -32.4860 C   0  0  0  0  0  0  0  0  0  0  0  0
   -5.1180   20.6740  -32.8500 N   0  0  0  0  0  0  0  0  0  0  0  0
   -5.8950   21.2790  -31.9280 C   0  0  0  0  0  0  0  0  0  0  0  0
   -7.3620   21.1270  -31.9220 C   0  0  0  0  0  0  0  0  0  0  0  0
   -8.0940   19.9700  -32.1680 C   0  0  0  0  0  0  0  0  0  0  0  0
   -9.4780   20.1780  -32.1700 C   0  0  0  0  0  0  0  0  0  0  0  0
   -9.8450   21.4980  -31.9440 C   0  0  0  0  0  0  0  0  0  0  0  0
   -8.4430   22.4040  -31.7510 S   0  0  0  0  0  0  0  0  0  0  0  0
   -5.1540   22.0120  -31.0650 N   0  0  0  0  0  0  0  0  0  0  0  0
   -5.6100   22.8620  -29.9520 C   0  0  0  0  0  0  0  0  0  0  0  0
   -6.1640   24.2080  -30.4650 C   0  0  0  0  0  0  0  0  0  0  0  0
   -5.0660   25.1880  -30.9410 C   0  0  0  0  0  0  0  0  0  0  0  0
   -3.7230   24.8240  -30.4640 N   0  0  0  0  0  0  0  0  0  0  0  0
   -3.7600   24.4140  -29.0580 C   0  0  0  0  0  0  0  0  0  0  0  0
   -4.4760   23.0620  -28.9170 C   0  0  0  0  0  0  0  0  0  0  0  0
   -3.8860   21.8640  -31.4070 N   0  0  0  0  0  0  0  0  0  0  0  0
   -2.5440   19.3620  -33.7550 C   0  0  0  0  0  0  0  0  0  0  0  0
   -1.3790   18.9710  -34.4220 C   0  0  0  0  0  0  0  0  0  0  0  0
    2.1369   19.6779  -33.5477 H   0  0  0  0  0  0  0  0  0  0  0  0
    2.8499   18.8666  -34.9830 H   0  0  0  0  0  0  0  0  0  0  0  0
    2.6133   20.6472  -34.9830 H   0  0  0  0  0  0  0  0  0  0  0  0
    0.4491   21.8366  -34.0553 H   0  0  0  0  0  0  0  0  0  0  0  0
   -1.6255   22.5367  -32.8709 H   0  0  0  0  0  0  0  0  0  0  0  0
   -7.6306   18.9880  -32.3437 H   0  0  0  0  0  0  0  0  0  0  0  0
  -10.2071   19.3711  -32.3352 H   0  0  0  0  0  0  0  0  0  0  0  0
  -10.8743   21.8835  -31.8991 H   0  0  0  0  0  0  0  0  0  0  0  0
   -6.4384   22.3475  -29.4431 H   0  0  0  0  0  0  0  0  0  0  0  0
   -6.8403   24.0068  -31.3089 H   0  0  0  0  0  0  0  0  0  0  0  0
   -6.6805   24.6874  -29.6204 H   0  0  0  0  0  0  0  0  0  0  0  0
   -5.0568   25.1963  -32.0409 H   0  0  0  0  0  0  0  0  0  0  0  0
   -5.3056   26.1774  -30.5243 H   0  0  0  0  0  0  0  0  0  0  0  0
   -3.1110   25.6700  -30.5410 H   0  0  0  0  0  0  0  0  0  0  0  0
   -2.7313   24.3213  -28.6796 H   0  0  0  0  0  0  0  0  0  0  0  0
   -4.3073   25.1716  -28.4780 H   0  0  0  0  0  0  0  0  0  0  0  0
   -3.7360   22.2589  -29.0495 H   0  0  0  0  0  0  0  0  0  0  0  0
   -4.9367   23.0385  -27.9184 H   0  0  0  0  0  0  0  0  0  0  0  0
   -3.3871   18.6605  -33.6712 H   0  0  0  0  0  0  0  0  0  0  0  0
   -1.3106   17.9642  -34.8597 H   0  0  0  0  0  0  0  0  0  0  0  0
  1  2  1  0
  2  3  1  0
  3  4  2  0
  4  5  1  0
  5  6  2  0
  6  7  1  0
  7  8  1  0
  8  9  2  0
  9 10  1  0
 10 11  2  0
 11 12  1  0
 12 13  2  0
 13 14  1  0
  9 15  1  0
 15 16  1  0
 16 17  1  0
 17 18  1  0
 18 19  1  0
 19 20  1  0
 20 21  1  0
 15 22  1  0
  6 23  1  0
 23 24  2  0
 24  3  1  0
 22  7  2  0
 14 10  1  0
 21 16  1  0
  1 25  1  0
  1 26  1  0
  1 27  1  0
  4 28  1  0
  5 29  1  0
 11 30  1  0
 12 31  1  0
 13 32  1  0
 16 33  1  0
 17 34  1  0
 17 35  1  0
 18 36  1  0
 18 37  1  0
 19 38  1  0
 20 39  1  0
 20 40  1  0
 21 41  1  0
 21 42  1  0
 23 43  1  0
 24 44  1  0
M  END
>  <UniqueID>  (14) 
13

>  <SMILES>  (14) 
COc1ccc(-c2nc(-c3cccs3)n(C3CCNCC3)n2)cc1

>  <Energy>  (14) 
114.18030903457553

>  <Genealogy>  (14) 
COc1ccc(-c2nc(-c3cccs3)n(C3CCNCC3)n2)cc1 (3D coordinates assigned)
COc1ccc(-c2nc(-c3cccs3)n(C3CCNCC3)n2)cc1 (nonaromatic ring conformer: 114.18030903457553 kcal/mol)

>  <smiles>  (14) 
COc1ccc(-c2nc(-c3cccs3)n(C3CCNCC3)n2)cc1

>  <score_type>  (14) 
oracle

>  <origin>  (14) 
adg

>  <m_score__min__energy>  (14) 
-8.3499999999999996

>  <m_primary>  (14) 
energy

$$$$
14:0
     RDKit          3D

 50 52  0  0  0  0  0  0  0  0999 V2000
   -9.4160   19.5170  -32.7230 C   0  0  0  0  0  0  0  0  0  0  0  0
   -9.0940   18.5510  -31.5890 C   0  0  0  0  0  0  0  0  0  0  0  0
   -7.7270   18.1890  -31.6290 O   0  0  0  0  0  0  0  0  0  0  0  0
   -7.4690   17.3480  -32.7350 C   0  0  0  0  0  0  0  0  0  0  0  0
   -6.0770   17.6490  -33.2980 C   0  0  0  0  0  0  0  0  0  0  0  0
   -5.4990   18.8510  -32.6730 N   0  0  0  0  0  0  0  0  0  0  0  0
   -5.9770   20.0880  -33.3150 C   0  0  0  0  0  0  0  0  0  0  0  0
   -5.5070   21.3270  -32.5820 C   0  0  0  0  0  0  0  0  0  0  0  0
   -4.1780   21.6240  -32.2720 C   0  0  0  0  0  0  0  0  0  0  0  0
   -3.0170   20.8640  -32.6330 N   0  0  0  0  0  0  0  0  0  0  0  0
   -2.0500   20.4450  -31.7930 C   0  0  0  0  0  0  0  0  0  0  0  0
   -1.0960   19.7390  -32.4970 C   0  0  0  0  0  0  0  0  0  0  0  0
   -1.5020   19.7360  -33.8180 C   0  0  0  0  0  0  0  0  0  0  0  0
   -2.6890   20.4380  -33.8680 C   0  0  0  0  0  0  0  0  0  0  0  0
   -4.2080   22.7240  -31.4420 C   0  0  0  0  0  0  0  0  0  0  0  0
   -3.1760   23.4320  -30.8250 C   0  0  0  0  0  0  0  0  0  0  0  0
   -3.5190   24.5270  -29.9980 C   0  0  0  0  0  0  0  0  0  0  0  0
   -2.5500   25.2950  -29.3340 O   0  0  0  0  0  0  0  0  0  0  0  0
   -1.9670   24.9440  -28.0840 C   0  0  0  0  0  0  0  0  0  0  0  0
   -4.8780   24.8690  -29.8240 C   0  0  0  0  0  0  0  0  0  0  0  0
   -5.8970   24.1430  -30.4650 C   0  0  0  0  0  0  0  0  0  0  0  0
   -5.5280   23.0690  -31.2840 C   0  0  0  0  0  0  0  0  0  0  0  0
   -6.3300   22.2330  -31.9850 N   0  0  0  0  0  0  0  0  0  0  0  0
   -7.7950   22.2310  -32.0110 C   0  0  0  0  0  0  0  0  0  0  0  0
   -9.7375   20.4815  -32.3029 H   0  0  0  0  0  0  0  0  0  0  0  0
   -8.5194   19.6674  -33.3423 H   0  0  0  0  0  0  0  0  0  0  0  0
  -10.2235   19.0994  -33.3423 H   0  0  0  0  0  0  0  0  0  0  0  0
   -9.3137   19.0350  -30.6260 H   0  0  0  0  0  0  0  0  0  0  0  0
   -9.7085   17.6458  -31.7032 H   0  0  0  0  0  0  0  0  0  0  0  0
   -7.5141   16.2970  -32.4136 H   0  0  0  0  0  0  0  0  0  0  0  0
   -8.2242   17.5285  -33.5142 H   0  0  0  0  0  0  0  0  0  0  0  0
   -5.4175   16.7905  -33.1028 H   0  0  0  0  0  0  0  0  0  0  0  0
   -6.1696   17.8285  -34.3793 H   0  0  0  0  0  0  0  0  0  0  0  0
   -5.7260   18.8660  -31.6520 H   0  0  0  0  0  0  0  0  0  0  0  0
   -4.4580   18.8210  -32.7740 H   0  0  0  0  0  0  0  0  0  0  0  0
   -5.5985   20.1213  -34.3473 H   0  0  0  0  0  0  0  0  0  0  0  0
   -7.0768   20.0781  -33.2940 H   0  0  0  0  0  0  0  0  0  0  0  0
   -2.0250   20.6368  -30.7101 H   0  0  0  0  0  0  0  0  0  0  0  0
   -0.1894   19.2702  -32.0868 H   0  0  0  0  0  0  0  0  0  0  0  0
   -0.9805   19.2657  -34.6647 H   0  0  0  0  0  0  0  0  0  0  0  0
   -3.2781   20.6219  -34.7786 H   0  0  0  0  0  0  0  0  0  0  0  0
   -2.1247   23.1464  -30.9775 H   0  0  0  0  0  0  0  0  0  0  0  0
   -2.5971   25.3234  -27.2661 H   0  0  0  0  0  0  0  0  0  0  0  0
   -1.8899   23.8492  -28.0099 H   0  0  0  0  0  0  0  0  0  0  0  0
   -0.9634   25.3881  -28.0099 H   0  0  0  0  0  0  0  0  0  0  0  0
   -5.1437   25.7174  -29.1762 H   0  0  0  0  0  0  0  0  0  0  0  0
   -6.9548   24.4112  -30.3270 H   0  0  0  0  0  0  0  0  0  0  0  0
   -8.1800   22.2305  -30.9806 H   0  0  0  0  0  0  0  0  0  0  0  0
   -8.1536   23.1287  -32.5360 H   0  0  0  0  0  0  0  0  0  0  0  0
   -8.1512   21.3324  -32.5360 H   0  0  0  0  0  0  0  0  0  0  0  0
  1  2  1  0
  2  3  1  0
  3  4  1  0
  4  5  1  0
  5  6  1  0
  6  7  1  0
  7  8  1  0
  8  9  2  0
  9 10  1  0
 10 11  1  0
 11 12  2  0
 12 13  1  0
 13 14  2  0
  9 15  1  0
 15 16  2  0
 16 17  1  0
 17 18  1  0
 18 19  1  0
 17 20  2  0
 20 21  1  0
 21 22  2  0
 22 23  1  0
 23 24  1  0
 23  8  1  0
 14 10  1  0
 22 15  1  0
  1 25  1  0
  1 26  1  0
  1 27  1  0
  2 28  1  0
  2 29  1  0
  4 30  1  0
  4 31  1  0
  5 32  1  0
  5 33  1  0
  6 34  1  0
  6 35  1  0
  7 36  1  0
  7 37  1  0
 11 38  1  0
 12 39  1  0
 13 40  1  0
 14 41  1  0
 16 42  1  0
 19 43  1  0
 19 44  1  0
 19 45  1  0
 20 46  1  0
 21 47  1  0
 24 48  1  0
 24 49  1  0
 24 50  1  0
M  CHG  1   6   1
M  END
>  <UniqueID>  (15) 
14

>  <SMILES>  (15) 
CCOCC[NH2+]Cc1c(-n2cccc2)c2cc(OC)ccc2n1C

>  <Energy>  (15) 
112.40718985499085

>  <Genealogy>  (15) 
CCOCC[NH2+]Cc1c(-n2cccc2)c2cc(OC)ccc2n1C (protonated)
CCOCC[NH2+]Cc1c(-n2cccc2)c2cc(OC)ccc2n1C (3D coordinates assigned)
CCOCC[NH2+]Cc1c(-n2cccc2)c2cc(OC)ccc2n1C (optimized conformer: 112.40718985499085 kcal/mol)

>  <smiles>  (15) 
CCOCCNCc1c(-n2cccc2)c2cc(OC)ccc2n1C

>  <score_type>  (15) 
oracle

>  <origin>  (15) 
adg

>  <m_score__min__energy>  (15) 
-6.7999999999999998

>  <m_primary>  (15) 
energy

$$$$
15:0
     RDKit          3D

 53 55  0  0  0  0  0  0  0  0999 V2000
   -9.0140   19.3180  -31.9660 C   0  0  0  0  0  0  0  0  0  0  0  0
   -9.2310   20.7890  -32.3170 C   0  0  0  0  0  0  0  0  0  0  0  0
   -8.9550   21.7140  -31.1220 C   0  0  0  0  0  0  0  0  0  0  0  0
   -7.4930   21.9040  -30.9310 N   0  0  0  0  0  0  0  0  0  0  0  0
   -7.2270   22.9510  -29.9170 C   0  0  0  0  0  0  0  0  0  0  0  0
   -6.7820   24.2530  -30.5960 C   0  0  0  0  0  0  0  0  0  0  0  0
   -5.7290   24.9800  -29.7640 C   0  0  0  0  0  0  0  0  0  0  0  0
   -6.8540   22.2380  -32.2260 C   0  0  0  0  0  0  0  0  0  0  0  0
   -5.4640   21.6670  -32.3400 C   0  0  0  0  0  0  0  0  0  0  0  0
   -4.1050   22.3500  -31.5990 S   0  0  0  0  0  0  0  0  0  0  0  0
   -2.9900   21.3570  -32.3590 C   0  0  0  0  0  0  0  0  0  0  0  0
   -1.6040   21.3680  -32.2260 C   0  0  0  0  0  0  0  0  0  0  0  0
   -0.8560   20.4690  -32.9990 C   0  0  0  0  0  0  0  0  0  0  0  0
   -1.5030   19.5930  -33.8930 C   0  0  0  0  0  0  0  0  0  0  0  0
   -0.7690   18.7390  -34.6480 F   0  0  0  0  0  0  0  0  0  0  0  0
   -2.9020   19.6050  -34.0120 C   0  0  0  0  0  0  0  0  0  0  0  0
   -3.6470   20.4900  -33.2210 C   0  0  0  0  0  0  0  0  0  0  0  0
   -5.0450   20.6410  -33.2020 C   0  0  0  0  0  0  0  0  0  0  0  0
   -6.1780   19.6620  -34.2040 S   0  0  0  0  0  0  0  0  0  0  0  0
   -5.7370   18.1060  -33.4180 C   0  0  0  0  0  0  0  0  0  0  0  0
   -5.0410   17.1260  -34.1310 C   0  0  0  0  0  0  0  0  0  0  0  0
   -4.6990   15.9160  -33.5230 C   0  0  0  0  0  0  0  0  0  0  0  0
   -5.0460   15.6770  -32.1790 C   0  0  0  0  0  0  0  0  0  0  0  0
   -4.7270   14.4800  -31.5210 O   0  0  0  0  0  0  0  0  0  0  0  0
   -3.8100   13.5100  -32.0170 C   0  0  0  0  0  0  0  0  0  0  0  0
   -5.7330   16.6670  -31.4650 C   0  0  0  0  0  0  0  0  0  0  0  0
   -6.0730   17.8760  -32.0790 C   0  0  0  0  0  0  0  0  0  0  0  0
   -8.9967   19.2007  -30.8724 H   0  0  0  0  0  0  0  0  0  0  0  0
   -9.8331   18.7160  -32.3864 H   0  0  0  0  0  0  0  0  0  0  0  0
   -8.0560   18.9782  -32.3864 H   0  0  0  0  0  0  0  0  0  0  0  0
   -8.5539   21.0610  -33.1401 H   0  0  0  0  0  0  0  0  0  0  0  0
  -10.2840   20.9164  -32.6084 H   0  0  0  0  0  0  0  0  0  0  0  0
   -9.4251   22.6913  -31.3058 H   0  0  0  0  0  0  0  0  0  0  0  0
   -9.3732   21.2538  -30.2147 H   0  0  0  0  0  0  0  0  0  0  0  0
   -8.1447   23.1384  -29.3403 H   0  0  0  0  0  0  0  0  0  0  0  0
   -6.4246   22.6048  -29.2490 H   0  0  0  0  0  0  0  0  0  0  0  0
   -6.3580   24.0158  -31.5829 H   0  0  0  0  0  0  0  0  0  0  0  0
   -7.6589   24.9094  -30.6970 H   0  0  0  0  0  0  0  0  0  0  0  0
   -5.9413   24.8335  -28.6947 H   0  0  0  0  0  0  0  0  0  0  0  0
   -4.7331   24.5761  -29.9989 H   0  0  0  0  0  0  0  0  0  0  0  0
   -5.7537   26.0544  -29.9989 H   0  0  0  0  0  0  0  0  0  0  0  0
   -7.4715   21.8319  -33.0407 H   0  0  0  0  0  0  0  0  0  0  0  0
   -6.7751   23.3333  -32.2906 H   0  0  0  0  0  0  0  0  0  0  0  0
   -1.1090   22.0638  -31.5326 H   0  0  0  0  0  0  0  0  0  0  0  0
    0.2400   20.4474  -32.9073 H   0  0  0  0  0  0  0  0  0  0  0  0
   -3.4068   18.9283  -34.7172 H   0  0  0  0  0  0  0  0  0  0  0  0
   -4.7605   17.3090  -35.1788 H   0  0  0  0  0  0  0  0  0  0  0  0
   -4.1575   15.1481  -34.0950 H   0  0  0  0  0  0  0  0  0  0  0  0
   -3.3257   12.9977  -31.1726 H   0  0  0  0  0  0  0  0  0  0  0  0
   -4.3506   12.7745  -32.6308 H   0  0  0  0  0  0  0  0  0  0  0  0
   -3.0453   14.0085  -32.6308 H   0  0  0  0  0  0  0  0  0  0  0  0
   -6.0068   16.4920  -30.4141 H   0  0  0  0  0  0  0  0  0  0  0  0
   -6.6067   18.6496  -31.5075 H   0  0  0  0  0  0  0  0  0  0  0  0
  1  2  1  0
  2  3  1  0
  3  4  1  0
  4  5  1  0
  5  6  1  0
  6  7  1  0
  4  8  1  0
  8  9  1  0
  9 10  1  0
 10 11  1  0
 11 12  2  0
 12 13  1  0
 13 14  2  0
 14 15  1  0
 14 16  1  0
 16 17  2  0
 17 18  1  0
 18 19  1  0
 19 20  1  0
 20 21  2  0
 21 22  1  0
 22 23  2  0
 23 24  1  0
 24 25  1  0
 23 26  1  0
 26 27  2  0
 18  9  2  0
 27 20  1  0
 17 11  1  0
  1 28  1  0
  1 29  1  0
  1 30  1  0
  2 31  1  0
  2 32  1  0
  3 33  1  0
  3 34  1  0
  5 35  1  0
  5 36  1  0
  6 37  1  0
  6 38  1  0
  7 39  1  0
  7 40  1  0
  7 41  1  0
  8 42  1  0
  8 43  1  0
 12 44  1  0
 13 45  1  0
 16 46  1  0
 21 47  1  0
 22 48  1  0
 25 49  1  0
 25 50  1  0
 25 51  1  0
 26 52  1  0
 27 53  1  0
M  END
>  <UniqueID>  (16) 
15

>  <SMILES>  (16) 
CCCN(CCC)Cc1sc2ccc(F)cc2c1Sc1ccc(OC)cc1

>  <Energy>  (16) 
75.20966454168568

>  <Genealogy>  (16) 
CCCN(CCC)Cc1sc2ccc(F)cc2c1Sc1ccc(OC)cc1 (3D coordinates assigned)
CCCN(CCC)Cc1sc2ccc(F)cc2c1Sc1ccc(OC)cc1 (optimized conformer: 75.20966454168568 kcal/mol)

>  <smiles>  (16) 
CCCN(CCC)Cc1sc2ccc(F)cc2c1Sc1ccc(OC)cc1

>  <score_type>  (16) 
oracle

>  <origin>  (16) 
adg

>  <m_score__min__energy>  (16) 
-7.79

>  <m_primary>  (16) 
energy

$$$$
16:0
     RDKit          3D

 86 87  0  0  0  0  0  0  0  0999 V2000
   -2.0900   25.6329  -29.1282 H   0  0  0  0  0  0  0  0  0  0  0  0
   -2.3870   24.5870  -28.9610 C   0  0  0  0  0  0  0  0  0  0  0  0
   -1.4350   23.7110  -28.5840 C   0  0  0  0  0  0  0  0  0  0  0  0
   -0.9190   23.7420  -27.1890 C   0  0  0  0  0  0  0  0  0  0  0  0
   -0.4360   24.9430  -26.6470 C   0  0  0  0  0  0  0  0  0  0  0  0
   -0.4082   25.8506  -27.2679 H   0  0  0  0  0  0  0  0  0  0  0  0
    0.0080   24.9930  -25.3290 C   0  0  0  0  0  0  0  0  0  0  0  0
    0.3906   25.9368  -24.9131 H   0  0  0  0  0  0  0  0  0  0  0  0
   -0.0320   23.8450  -24.5340 C   0  0  0  0  0  0  0  0  0  0  0  0
    0.3103   23.8890  -23.4895 H   0  0  0  0  0  0  0  0  0  0  0  0
   -0.5040   22.6450  -25.0600 C   0  0  0  0  0  0  0  0  0  0  0  0
   -0.5428   21.7477  -24.4249 H   0  0  0  0  0  0  0  0  0  0  0  0
   -0.9320   22.5730  -26.4000 C   0  0  0  0  0  0  0  0  0  0  0  0
   -1.3460   21.3670  -26.9840 O   0  0  0  0  0  0  0  0  0  0  0  0
   -1.7710   20.2140  -26.2680 C   0  0  0  0  0  0  0  0  0  0  0  0
   -1.0556   20.0026  -25.4596 H   0  0  0  0  0  0  0  0  0  0  0  0
   -2.7686   20.3992  -25.8432 H   0  0  0  0  0  0  0  0  0  0  0  0
   -1.8410   19.0070  -27.2140 C   0  0  0  0  0  0  0  0  0  0  0  0
   -2.4772   18.2370  -26.7532 H   0  0  0  0  0  0  0  0  0  0  0  0
   -2.2529   19.3621  -28.1702 H   0  0  0  0  0  0  0  0  0  0  0  0
   -0.4600   18.3910  -27.5080 C   0  0  0  0  0  0  0  0  0  0  0  0
    0.1604   18.4723  -26.6033 H   0  0  0  0  0  0  0  0  0  0  0  0
   -0.6215   17.3430  -27.8007 H   0  0  0  0  0  0  0  0  0  0  0  0
    0.2750   19.0910  -28.6750 C   0  0  0  0  0  0  0  0  0  0  0  0
   -0.2114   20.0596  -28.8628 H   0  0  0  0  0  0  0  0  0  0  0  0
    1.3269   19.2061  -28.3746 H   0  0  0  0  0  0  0  0  0  0  0  0
    0.2610   18.2780  -29.9780 C   0  0  0  0  0  0  0  0  0  0  0  0
    1.1143   17.5838  -29.9722 H   0  0  0  0  0  0  0  0  0  0  0  0
   -0.6945   17.7353  -30.0286 H   0  0  0  0  0  0  0  0  0  0  0  0
    0.3620   19.1810  -31.2270 C   0  0  0  0  0  0  0  0  0  0  0  0
    1.2142   19.8635  -31.0933 H   0  0  0  0  0  0  0  0  0  0  0  0
    0.4871   18.5155  -32.0939 H   0  0  0  0  0  0  0  0  0  0  0  0
   -0.8980   20.0240  -31.4880 C   0  0  0  0  0  0  0  0  0  0  0  0
   -1.6819   19.3673  -31.8932 H   0  0  0  0  0  0  0  0  0  0  0  0
   -1.1968   20.4759  -30.5307 H   0  0  0  0  0  0  0  0  0  0  0  0
   -0.6540   21.1780  -32.4900 C   0  0  0  0  0  0  0  0  0  0  0  0
   -0.8868   22.1307  -31.9919 H   0  0  0  0  0  0  0  0  0  0  0  0
    0.3994   21.1271  -32.8028 H   0  0  0  0  0  0  0  0  0  0  0  0
   -1.5250   21.0610  -33.7660 C   0  0  0  0  0  0  0  0  0  0  0  0
   -1.2529   21.8724  -34.4570 H   0  0  0  0  0  0  0  0  0  0  0  0
   -1.3372   20.0748  -34.2155 H   0  0  0  0  0  0  0  0  0  0  0  0
   -3.0230   21.1600  -33.4520 C   0  0  0  0  0  0  0  0  0  0  0  0
   -3.1618   21.3950  -32.3864 H   0  0  0  0  0  0  0  0  0  0  0  0
   -3.4785   21.9561  -34.0593 H   0  0  0  0  0  0  0  0  0  0  0  0
   -3.6430   19.9110  -33.7510 O   0  0  0  0  0  0  0  0  0  0  0  0
   -4.9710   19.5870  -33.4530 C   0  0  0  0  0  0  0  0  0  0  0  0
   -5.8280   20.6240  -33.0850 C   0  0  0  0  0  0  0  0  0  0  0  0
   -5.4599   21.6606  -33.0819 H   0  0  0  0  0  0  0  0  0  0  0  0
   -7.1620   20.3550  -32.7170 C   0  0  0  0  0  0  0  0  0  0  0  0
   -8.0560   21.3700  -32.3350 O   0  0  0  0  0  0  0  0  0  0  0  0
   -8.9380   21.2910  -31.2230 C   0  0  0  0  0  0  0  0  0  0  0  0
   -8.3575   21.3430  -30.2901 H   0  0  0  0  0  0  0  0  0  0  0  0
   -9.6497   22.1290  -31.2592 H   0  0  0  0  0  0  0  0  0  0  0  0
   -9.4894   20.3399  -31.2592 H   0  0  0  0  0  0  0  0  0  0  0  0
   -7.6230   19.0340  -32.7360 C   0  0  0  0  0  0  0  0  0  0  0  0
   -8.6602   18.8175  -32.4403 H   0  0  0  0  0  0  0  0  0  0  0  0
   -6.7810   17.9810  -33.1270 C   0  0  0  0  0  0  0  0  0  0  0  0
   -7.2070   16.6450  -33.1570 O   0  0  0  0  0  0  0  0  0  0  0  0
   -6.5210   15.6070  -33.8420 C   0  0  0  0  0  0  0  0  0  0  0  0
   -6.0681   14.9217  -33.1103 H   0  0  0  0  0  0  0  0  0  0  0  0
   -7.2311   15.0525  -34.4731 H   0  0  0  0  0  0  0  0  0  0  0  0
   -5.7325   16.0429  -34.4731 H   0  0  0  0  0  0  0  0  0  0  0  0
   -5.4550   18.2670  -33.4830 C   0  0  0  0  0  0  0  0  0  0  0  0
   -4.7859   17.4494  -33.7892 H   0  0  0  0  0  0  0  0  0  0  0  0
   -0.8640   22.7050  -29.5510 C   0  0  0  0  0  0  0  0  0  0  0  0
   -0.3968   21.8819  -28.9905 H   0  0  0  0  0  0  0  0  0  0  0  0
   -1.6704   22.3062  -30.1840 H   0  0  0  0  0  0  0  0  0  0  0  0
   -0.1082   23.1929  -30.1840 H   0  0  0  0  0  0  0  0  0  0  0  0
   -3.8310   24.2210  -29.1670 C   0  0  0  0  0  0  0  0  0  0  0  0
   -4.4575   24.8462  -28.5138 H   0  0  0  0  0  0  0  0  0  0  0  0
   -3.9617   23.1567  -28.9217 H   0  0  0  0  0  0  0  0  0  0  0  0
   -4.2350   24.4340  -30.5730 N   0  0  0  0  0  0  0  0  0  0  0  0
   -5.3420   25.4230  -30.6680 C   0  0  0  0  0  0  0  0  0  0  0  0
   -5.6016   25.5824  -31.7250 H   0  0  0  0  0  0  0  0  0  0  0  0
   -5.0218   26.3759  -30.2214 H   0  0  0  0  0  0  0  0  0  0  0  0
   -6.5580   24.8960  -29.9210 C   0  0  0  0  0  0  0  0  0  0  0  0
   -6.3838   24.9715  -28.8375 H   0  0  0  0  0  0  0  0  0  0  0  0
   -7.4419   25.4918  -30.1927 H   0  0  0  0  0  0  0  0  0  0  0  0
   -6.7276   23.8437  -30.1927 H   0  0  0  0  0  0  0  0  0  0  0  0
   -4.5810   23.1540  -31.2330 C   0  0  0  0  0  0  0  0  0  0  0  0
   -5.6555   23.1472  -31.4682 H   0  0  0  0  0  0  0  0  0  0  0  0
   -3.9895   23.0589  -32.1555 H   0  0  0  0  0  0  0  0  0  0  0  0
   -4.2600   21.9750  -30.3180 C   0  0  0  0  0  0  0  0  0  0  0  0
   -4.3462   22.2916  -29.2681 H   0  0  0  0  0  0  0  0  0  0  0  0
   -4.9678   21.1560  -30.5133 H   0  0  0  0  0  0  0  0  0  0  0  0
   -3.2346   21.6279  -30.5133 H   0  0  0  0  0  0  0  0  0  0  0  0
  1  2  1  0
  2  3  2  0
  3  4  1  0
  4  5  2  0
  5  6  1  0
  5  7  1  0
  7  8  1  0
  7  9  2  0
  9 10  1  0
  9 11  1  0
 11 12  1  0
 11 13  2  0
 13 14  1  0
 14 15  1  0
 15 16  1  0
 15 17  1  0
 15 18  1  0
 18 19  1  0
 18 20  1  0
 18 21  1  0
 21 22  1  0
 21 23  1  0
 21 24  1  0
 24 25  1  0
 24 26  1  0
 24 27  1  0
 27 28  1  0
 27 29  1  0
 27 30  1  0
 30 31  1  0
 30 32  1  0
 30 33  1  0
 33 34  1  0
 33 35  1  0
 33 36  1  0
 36 37  1  0
 36 38  1  0
 36 39  1  0
 39 40  1  0
 39 41  1  0
 39 42  1  0
 42 43  1  0
 42 44  1  0
 42 45  1  0
 45 46  1  0
 46 47  2  0
 47 48  1  0
 47 49  1  0
 49 50  1  0
 50 51  1  0
 51 52  1  0
 51 53  1  0
 51 54  1  0
 49 55  2  0
 55 56  1  0
 55 57  1  0
 57 58  1  0
 58 59  1  0
 59 60  1  0
 59 61  1  0
 59 62  1  0
 57 63  2  0
 63 64  1  0
  3 65  1  0
 65 66  1  0
 65 67  1  0
 65 68  1  0
  2 69  1  0
 69 70  1  0
 69 71  1  0
 69 72  1  0
 72 73  1  0
 73 74  1  0
 73 75  1  0
 73 76  1  0
 76 77  1  0
 76 78  1  0
 76 79  1  0
 72 80  1  0
 80 81  1  0
 80 82  1  0
 80 83  1  0
 83 84  1  0
 83 85  1  0
 83 86  1  0
 13  4  1  0
 63 46  1  0
M  END
>  <UniqueID>  (17) 
16

>  <SMILES>  (17) 
CCN(CC)C/C=C(\C)c1ccccc1OCCCCCCCCCCOc1cc(OC)cc(OC)c1

>  <Energy>  (17) 
79.89105221236579

>  <Genealogy>  (17) 
CCN(CC)C/C=C(\C)c1ccccc1OCCCCCCCCCCOc1cc(OC)cc(OC)c1 (cis-trans isomerization)
CCN(CC)C/C=C(\C)c1ccccc1OCCCCCCCCCCOc1cc(OC)cc(OC)c1 (3D coordinates assigned)
CCN(CC)C/C=C(\C)c1ccccc1OCCCCCCCCCCOc1cc(OC)cc(OC)c1 (optimized conformer: 79.89105221236579 kcal/mol)

>  <smiles>  (17) 
CCN(CC)CC=C(C)c1ccccc1OCCCCCCCCCCOc1cc(OC)cc(OC)c1

>  <score_type>  (17) 
oracle

>  <origin>  (17) 
adg

>  <m_score__min__energy>  (17) 
-8.7400000000000002

>  <m_primary>  (17) 
energy

$$$$
17:0
     RDKit          3D

 40 42  0  0  0  0  0  0  0  0999 V2000
   -0.0700   25.9510  -26.6200 C   0  0  0  0  0  0  0  0  0  0  0  0
    0.4420   25.0630  -27.6080 O   0  0  0  0  0  0  0  0  0  0  0  0
   -0.3470   24.1990  -28.3830 C   0  0  0  0  0  0  0  0  0  0  0  0
    0.0080   22.8550  -28.6140 C   0  0  0  0  0  0  0  0  0  0  0  0
   -0.8100   22.0320  -29.3930 C   0  0  0  0  0  0  0  0  0  0  0  0
   -1.9910   22.5400  -29.9520 C   0  0  0  0  0  0  0  0  0  0  0  0
   -2.8280   21.7380  -30.7360 C   0  0  0  0  0  0  0  0  0  0  0  0
   -4.0100   22.2690  -31.2740 C   0  0  0  0  0  0  0  0  0  0  0  0
   -4.8910   21.4110  -32.1490 C   0  0  0  0  0  0  0  0  0  0  0  0
   -6.2390   21.9880  -32.2450 N   0  0  0  0  0  0  0  0  0  0  0  0
   -7.2220   20.9370  -32.3220 C   0  0  0  0  0  0  0  0  0  0  0  0
   -6.8450   19.6240  -32.6490 C   0  0  0  0  0  0  0  0  0  0  0  0
   -7.8040   18.6110  -32.6920 C   0  0  0  0  0  0  0  0  0  0  0  0
   -9.1340   18.9150  -32.3960 C   0  0  0  0  0  0  0  0  0  0  0  0
   -9.4850   20.1860  -32.0660 N   0  0  0  0  0  0  0  0  0  0  0  0
   -8.5700   21.1920  -32.0190 C   0  0  0  0  0  0  0  0  0  0  0  0
   -4.3200   23.6210  -31.0360 C   0  0  0  0  0  0  0  0  0  0  0  0
   -5.4780   24.1790  -31.5900 O   0  0  0  0  0  0  0  0  0  0  0  0
   -6.4490   24.8690  -30.8130 C   0  0  0  0  0  0  0  0  0  0  0  0
   -3.4890   24.3830  -30.2700 N   0  0  0  0  0  0  0  0  0  0  0  0
   -2.3480   23.8840  -29.7240 C   0  0  0  0  0  0  0  0  0  0  0  0
   -1.5270   24.7030  -28.9440 C   0  0  0  0  0  0  0  0  0  0  0  0
    0.1576   25.5562  -25.6188 H   0  0  0  0  0  0  0  0  0  0  0  0
    0.3965   26.9401  -26.7389 H   0  0  0  0  0  0  0  0  0  0  0  0
   -1.1597   26.0428  -26.7389 H   0  0  0  0  0  0  0  0  0  0  0  0
    0.9341   22.4514  -28.1788 H   0  0  0  0  0  0  0  0  0  0  0  0
   -0.5266   20.9836  -29.5678 H   0  0  0  0  0  0  0  0  0  0  0  0
   -2.5587   20.6894  -30.9308 H   0  0  0  0  0  0  0  0  0  0  0  0
   -4.4513   21.3490  -33.1554 H   0  0  0  0  0  0  0  0  0  0  0  0
   -4.9644   20.4074  -31.7048 H   0  0  0  0  0  0  0  0  0  0  0  0
   -6.3040   22.5950  -33.0960 H   0  0  0  0  0  0  0  0  0  0  0  0
   -6.4300   22.5850  -31.4050 H   0  0  0  0  0  0  0  0  0  0  0  0
   -5.7926   19.3939  -32.8715 H   0  0  0  0  0  0  0  0  0  0  0  0
   -7.5148   17.5832  -32.9565 H   0  0  0  0  0  0  0  0  0  0  0  0
   -9.8988   18.1251  -32.4299 H   0  0  0  0  0  0  0  0  0  0  0  0
   -8.8868   22.2085  -31.7428 H   0  0  0  0  0  0  0  0  0  0  0  0
   -6.2375   24.7187  -29.7440 H   0  0  0  0  0  0  0  0  0  0  0  0
   -6.4100   25.9431  -31.0470 H   0  0  0  0  0  0  0  0  0  0  0  0
   -7.4505   24.4789  -31.0470 H   0  0  0  0  0  0  0  0  0  0  0  0
   -1.8099   25.7516  -28.7694 H   0  0  0  0  0  0  0  0  0  0  0  0
  1  2  1  0
  2  3  1  0
  3  4  2  0
  4  5  1  0
  5  6  2  0
  6  7  1  0
  7  8  2  0
  8  9  1  0
  9 10  1  0
 10 11  1  0
 11 12  2  0
 12 13  1  0
 13 14  2  0
 14 15  1  0
 15 16  2  0
  8 17  1  0
 17 18  1  0
 18 19  1  0
 17 20  2  0
 20 21  1  0
 21 22  2  0
 22  3  1  0
 21  6  1  0
 16 11  1  0
  1 23  1  0
  1 24  1  0
  1 25  1  0
  4 26  1  0
  5 27  1  0
  7 28  1  0
  9 29  1  0
  9 30  1  0
 10 31  1  0
 10 32  1  0
 12 33  1  0
 13 34  1  0
 14 35  1  0
 16 36  1  0
 19 37  1  0
 19 38  1  0
 19 39  1  0
 22 40  1  0
M  CHG  1  10   1
M  END
>  <UniqueID>  (18) 
17

>  <SMILES>  (18) 
COc1ccc2cc(C[NH2+]c3cccnc3)c(OC)nc2c1

>  <Energy>  (18) 
43.76995882929502

>  <Genealogy>  (18) 
COc1ccc2cc(C[NH2+]c3cccnc3)c(OC)nc2c1 (protonated)
COc1ccc2cc(C[NH2+]c3cccnc3)c(OC)nc2c1 (3D coordinates assigned)
COc1ccc2cc(C[NH2+]c3cccnc3)c(OC)nc2c1 (optimized conformer: 43.76995882929502 kcal/mol)

>  <smiles>  (18) 
COc1ccc2cc(CNc3cccnc3)c(OC)nc2c1

>  <score_type>  (18) 
oracle

>  <origin>  (18) 
adg

>  <m_score__min__energy>  (18) 
-6.6500000000000004

>  <m_primary>  (18) 
energy

$$$$
18:0
     RDKit          3D

 61 64  0  0  0  0  0  0  0  0999 V2000
   -6.1176   17.9218  -33.0216 H   0  0  0  0  0  0  0  0  0  0  0  0
   -6.7970   18.7380  -32.7350 C   0  0  0  0  0  0  0  0  0  0  0  0
   -8.1040   18.4510  -32.3420 C   0  0  0  0  0  0  0  0  0  0  0  0
   -8.4511   17.4077  -32.3108 H   0  0  0  0  0  0  0  0  0  0  0  0
   -8.9730   19.4850  -31.9880 C   0  0  0  0  0  0  0  0  0  0  0  0
  -10.0049   19.2531  -31.6856 H   0  0  0  0  0  0  0  0  0  0  0  0
   -8.5360   20.8210  -32.0160 C   0  0  0  0  0  0  0  0  0  0  0  0
   -9.4800   21.9310  -31.6430 C   0  0  0  0  0  0  0  0  0  0  0  0
   -9.5435   22.0057  -30.5474 H   0  0  0  0  0  0  0  0  0  0  0  0
   -9.1093   22.8814  -32.0544 H   0  0  0  0  0  0  0  0  0  0  0  0
  -10.4776   21.7177  -32.0544 H   0  0  0  0  0  0  0  0  0  0  0  0
   -7.2040   21.1080  -32.3790 C   0  0  0  0  0  0  0  0  0  0  0  0
   -6.7660   22.4750  -32.4620 N   0  0  0  0  0  0  0  0  0  0  0  0
   -6.2860   23.2230  -31.5030 C   0  0  0  0  0  0  0  0  0  0  0  0
   -7.0710   24.1990  -30.8570 C   0  0  0  0  0  0  0  0  0  0  0  0
   -8.1211   24.3427  -31.1512 H   0  0  0  0  0  0  0  0  0  0  0  0
   -6.5180   24.9820  -29.8460 C   0  0  0  0  0  0  0  0  0  0  0  0
   -7.1380   25.7358  -29.3387 H   0  0  0  0  0  0  0  0  0  0  0  0
   -5.2200   24.8220  -29.4820 N   0  0  0  0  0  0  0  0  0  0  0  0
   -4.8420   25.4300  -28.7190 H   0  0  0  0  0  0  0  0  0  0  0  0
   -4.4150   23.9060  -30.0920 C   0  0  0  0  0  0  0  0  0  0  0  0
   -3.0750   23.7770  -29.7000 C   0  0  0  0  0  0  0  0  0  0  0  0
   -2.6792   24.4181  -28.8986 H   0  0  0  0  0  0  0  0  0  0  0  0
   -2.2310   22.8380  -30.3190 C   0  0  0  0  0  0  0  0  0  0  0  0
   -0.8850   22.6780  -29.9490 O   0  0  0  0  0  0  0  0  0  0  0  0
   -0.4120   22.3000  -28.6550 C   0  0  0  0  0  0  0  0  0  0  0  0
   -1.1560   21.6450  -28.1782 H   0  0  0  0  0  0  0  0  0  0  0  0
    0.5471   21.7748  -28.7743 H   0  0  0  0  0  0  0  0  0  0  0  0
   -0.1850   23.5320  -27.7650 C   0  0  0  0  0  0  0  0  0  0  0  0
    0.8555   23.5225  -27.4082 H   0  0  0  0  0  0  0  0  0  0  0  0
   -0.3967   24.4254  -28.3708 H   0  0  0  0  0  0  0  0  0  0  0  0
   -1.0900   23.5590  -26.5910 N   0  0  0  0  0  0  0  0  0  0  0  0
   -2.1210   24.6120  -26.6750 C   0  0  0  0  0  0  0  0  0  0  0  0
   -2.7945   24.3707  -27.5106 H   0  0  0  0  0  0  0  0  0  0  0  0
   -2.6388   24.6284  -25.7046 H   0  0  0  0  0  0  0  0  0  0  0  0
   -1.5550   26.0270  -26.9020 C   0  0  0  0  0  0  0  0  0  0  0  0
   -0.6282   25.9484  -27.4892 H   0  0  0  0  0  0  0  0  0  0  0  0
   -2.3165   26.6150  -27.4352 H   0  0  0  0  0  0  0  0  0  0  0  0
   -1.2440   26.7440  -25.5790 C   0  0  0  0  0  0  0  0  0  0  0  0
   -0.7276   27.6870  -25.8115 H   0  0  0  0  0  0  0  0  0  0  0  0
   -2.2071   26.8978  -25.0704 H   0  0  0  0  0  0  0  0  0  0  0  0
   -0.3610   25.9370  -24.6140 C   0  0  0  0  0  0  0  0  0  0  0  0
    0.6318   25.8320  -25.0760 H   0  0  0  0  0  0  0  0  0  0  0  0
   -0.3643   26.5020  -23.6702 H   0  0  0  0  0  0  0  0  0  0  0  0
   -0.8620   24.5260  -24.2510 C   0  0  0  0  0  0  0  0  0  0  0  0
   -0.4514   24.2586  -23.2662 H   0  0  0  0  0  0  0  0  0  0  0  0
   -1.9610   24.5724  -24.2611 H   0  0  0  0  0  0  0  0  0  0  0  0
   -0.4610   23.4270  -25.2540 C   0  0  0  0  0  0  0  0  0  0  0  0
    0.6309   23.4603  -25.3826 H   0  0  0  0  0  0  0  0  0  0  0  0
   -0.8142   22.4739  -24.8334 H   0  0  0  0  0  0  0  0  0  0  0  0
   -2.7310   22.0290  -31.3480 C   0  0  0  0  0  0  0  0  0  0  0  0
   -1.8580   21.1070  -31.9480 O   0  0  0  0  0  0  0  0  0  0  0  0
   -2.0890   20.4710  -33.2010 C   0  0  0  0  0  0  0  0  0  0  0  0
   -2.4600   19.4495  -33.0308 H   0  0  0  0  0  0  0  0  0  0  0  0
   -2.8369   21.0427  -33.7700 H   0  0  0  0  0  0  0  0  0  0  0  0
   -1.1485   20.4295  -33.7700 H   0  0  0  0  0  0  0  0  0  0  0  0
   -4.0750   22.1530  -31.7470 C   0  0  0  0  0  0  0  0  0  0  0  0
   -4.4635   21.5142  -32.5538 H   0  0  0  0  0  0  0  0  0  0  0  0
   -4.9290   23.0860  -31.1250 C   0  0  0  0  0  0  0  0  0  0  0  0
   -6.3500   20.0610  -32.7650 C   0  0  0  0  0  0  0  0  0  0  0  0
   -5.3240   20.2845  -33.0925 H   0  0  0  0  0  0  0  0  0  0  0  0
  1  2  1  0
  2  3  2  0
  3  4  1  0
  3  5  1  0
  5  6  1  0
  5  7  2  0
  7  8  1  0
  8  9  1  0
  8 10  1  0
  8 11  1  0
  7 12  1  0
 12 13  1  0
 13 14  2  0
 14 15  1  0
 15 16  1  0
 15 17  2  0
 17 18  1  0
 17 19  1  0
 19 20  1  0
 19 21  1  0
 21 22  2  0
 22 23  1  0
 22 24  1  0
 24 25  1  0
 25 26  1  0
 26 27  1  0
 26 28  1  0
 26 29  1  0
 29 30  1  0
 29 31  1  0
 29 32  1  0
 32 33  1  0
 33 34  1  0
 33 35  1  0
 33 36  1  0
 36 37  1  0
 36 38  1  0
 36 39  1  0
 39 40  1  0
 39 41  1  0
 39 42  1  0
 42 43  1  0
 42 44  1  0
 42 45  1  0
 45 46  1  0
 45 47  1  0
 45 48  1  0
 48 49  1  0
 48 50  1  0
 24 51  2  0
 51 52  1  0
 52 53  1  0
 53 54  1  0
 53 55  1  0
 53 56  1  0
 51 57  1  0
 57 58  1  0
 57 59  2  0
 12 60  2  0
 60 61  1  0
 60  2  1  0
 59 14  1  0
 59 21  1  0
 48 32  1  0
M  END
>  <UniqueID>  (19) 
18

>  <SMILES>  (19) 
COc1cc2/c(=N/c3ccccc3C)cc[nH]c2cc1OCCN1CCCCCC1

>  <Energy>  (19) 
88.31034338565607

>  <Genealogy>  (19) 
COc1cc2/c(=N/c3ccccc3C)cc[nH]c2cc1OCCN1CCCCCC1 (cis-trans isomerization)
COc1cc2/c(=N/c3ccccc3C)cc[nH]c2cc1OCCN1CCCCCC1 (3D coordinates assigned)
COc1cc2/c(=N/c3ccccc3C)cc[nH]c2cc1OCCN1CCCCCC1 (nonaromatic ring conformer: 88.31034338565607 kcal/mol)

>  <smiles>  (19) 
COc1cc2c(=Nc3ccccc3C)cc[nH]c2cc1OCCN1CCCCCC1

>  <score_type>  (19) 
oracle

>  <origin>  (19) 
adg

>  <m_score__min__energy>  (19) 
-7.7699999999999996

>  <m_primary>  (19) 
energy

$$$$
19:0
     RDKit          3D

 49 51  0  0  0  0  0  0  0  0999 V2000
   -1.9870   25.6510  -26.5440 C   0  0  0  0  0  0  0  0  0  0  0  0
   -1.1560   26.1070  -27.7330 C   0  0  0  0  0  0  0  0  0  0  0  0
   -1.7740   25.6740  -28.9420 O   0  0  0  0  0  0  0  0  0  0  0  0
   -2.0540   24.3350  -29.2560 C   0  0  0  0  0  0  0  0  0  0  0  0
   -1.3000   23.2690  -28.7270 C   0  0  0  0  0  0  0  0  0  0  0  0
   -1.6140   21.9490  -29.0580 C   0  0  0  0  0  0  0  0  0  0  0  0
   -2.6600   21.6810  -29.9420 C   0  0  0  0  0  0  0  0  0  0  0  0
   -3.4020   22.7320  -30.4890 C   0  0  0  0  0  0  0  0  0  0  0  0
   -3.1250   24.0600  -30.1210 C   0  0  0  0  0  0  0  0  0  0  0  0
   -3.8560   25.1550  -30.6900 N   0  0  0  0  0  0  0  0  0  0  0  0
   -5.2140   25.5190  -30.4130 C   0  0  0  0  0  0  0  0  0  0  0  0
   -5.4770   26.7290  -30.1810 O   0  0  0  0  0  0  0  0  0  0  0  0
   -6.3030   24.4960  -30.2290 C   0  0  0  0  0  0  0  0  0  0  0  0
   -6.9680   24.1360  -31.5620 C   0  0  0  0  0  0  0  0  0  0  0  0
   -7.2460   22.6590  -31.6870 C   0  0  0  0  0  0  0  0  0  0  0  0
   -8.5590   22.1670  -31.6070 C   0  0  0  0  0  0  0  0  0  0  0  0
   -8.8180   20.8100  -31.8230 C   0  0  0  0  0  0  0  0  0  0  0  0
   -7.7690   19.9290  -32.1270 C   0  0  0  0  0  0  0  0  0  0  0  0
   -8.0530   18.4880  -32.4550 C   0  0  0  0  0  0  0  0  0  0  0  0
   -6.9000   17.8590  -33.0940 N   0  0  0  0  0  0  0  0  0  0  0  0
   -6.0550   16.9770  -32.5230 C   0  0  0  0  0  0  0  0  0  0  0  0
   -5.0460   16.6910  -33.4240 C   0  0  0  0  0  0  0  0  0  0  0  0
   -5.3420   17.4470  -34.5430 C   0  0  0  0  0  0  0  0  0  0  0  0
   -6.4680   18.1440  -34.3090 N   0  0  0  0  0  0  0  0  0  0  0  0
   -6.4510   20.4100  -32.1480 C   0  0  0  0  0  0  0  0  0  0  0  0
   -6.1920   21.7650  -31.9350 C   0  0  0  0  0  0  0  0  0  0  0  0
   -1.4764   25.9312  -25.6108 H   0  0  0  0  0  0  0  0  0  0  0  0
   -2.9749   26.1334  -26.5805 H   0  0  0  0  0  0  0  0  0  0  0  0
   -2.1108   24.5586  -26.5805 H   0  0  0  0  0  0  0  0  0  0  0  0
   -1.0852   27.2047  -27.7307 H   0  0  0  0  0  0  0  0  0  0  0  0
   -0.1477   25.6730  -27.6621 H   0  0  0  0  0  0  0  0  0  0  0  0
   -0.4590   23.4775  -28.0493 H   0  0  0  0  0  0  0  0  0  0  0  0
   -1.0367   21.1205  -28.6218 H   0  0  0  0  0  0  0  0  0  0  0  0
   -2.9010   20.6414  -30.2088 H   0  0  0  0  0  0  0  0  0  0  0  0
   -4.2052   22.5190  -31.2097 H   0  0  0  0  0  0  0  0  0  0  0  0
   -5.8680   23.5862  -29.7896 H   0  0  0  0  0  0  0  0  0  0  0  0
   -7.0694   24.9239  -29.5660 H   0  0  0  0  0  0  0  0  0  0  0  0
   -7.9196   24.6822  -31.6406 H   0  0  0  0  0  0  0  0  0  0  0  0
   -6.2742   24.4155  -32.3685 H   0  0  0  0  0  0  0  0  0  0  0  0
   -9.3872   22.8522  -31.3734 H   0  0  0  0  0  0  0  0  0  0  0  0
   -9.8485   20.4315  -31.7543 H   0  0  0  0  0  0  0  0  0  0  0  0
   -8.2888   17.9475  -31.5264 H   0  0  0  0  0  0  0  0  0  0  0  0
   -8.9039   18.4484  -33.1509 H   0  0  0  0  0  0  0  0  0  0  0  0
   -6.1520   16.5561  -31.5113 H   0  0  0  0  0  0  0  0  0  0  0  0
   -4.1937   16.0104  -33.2815 H   0  0  0  0  0  0  0  0  0  0  0  0
   -4.7534   17.4740  -35.4719 H   0  0  0  0  0  0  0  0  0  0  0  0
   -6.9170   18.8250  -34.9600 H   0  0  0  0  0  0  0  0  0  0  0  0
   -5.6179   19.7160  -32.3332 H   0  0  0  0  0  0  0  0  0  0  0  0
   -5.1563   22.1346  -31.9616 H   0  0  0  0  0  0  0  0  0  0  0  0
  1  2  1  0
  2  3  1  0
  3  4  1  0
  4  5  2  0
  5  6  1  0
  6  7  2  0
  7  8  1  0
  8  9  2  0
  9 10  1  0
 10 11  1  0
 11 12  2  0
 11 13  1  0
 13 14  1  0
 14 15  1  0
 15 16  2  0
 16 17  1  0
 17 18  2  0
 18 19  1  0
 19 20  1  0
 20 21  1  0
 21 22  2  0
 22 23  1  0
 23 24  2  0
 18 25  1  0
 25 26  2  0
  9  4  1  0
 26 15  1  0
 24 20  1  0
  1 27  1  0
  1 28  1  0
  1 29  1  0
  2 30  1  0
  2 31  1  0
  5 32  1  0
  6 33  1  0
  7 34  1  0
  8 35  1  0
 13 36  1  0
 13 37  1  0
 14 38  1  0
 14 39  1  0
 16 40  1  0
 17 41  1  0
 19 42  1  0
 19 43  1  0
 21 44  1  0
 22 45  1  0
 23 46  1  0
 24 47  1  0
 25 48  1  0
 26 49  1  0
M  CHG  2  10  -1  24   1
M  END
>  <UniqueID>  (20) 
19

>  <SMILES>  (20) 
CCOc1ccccc1[N-]C(=O)CCc1ccc(Cn2ccc[nH+]2)cc1

>  <Energy>  (20) 
72.19499881447321

>  <Genealogy>  (20) 
CCOc1ccccc1[N-]C(=O)CCc1ccc(Cn2ccc[nH+]2)cc1 (protonated)
CCOc1ccccc1[N-]C(=O)CCc1ccc(Cn2ccc[nH+]2)cc1 (3D coordinates assigned)
CCOc1ccccc1[N-]C(=O)CCc1ccc(Cn2ccc[nH+]2)cc1 (optimized conformer: 72.19499881447321 kcal/mol)

>  <smiles>  (20) 
CCOc1ccccc1NC(=O)CCc1ccc(Cn2cccn2)cc1

>  <score_type>  (20) 
oracle

>  <origin>  (20) 
adg

>  <m_score__min__energy>  (20) 
-11.35

>  <m_primary>  (20) 
energy

$$$$
20:0
     RDKit          3D

 39 40  0  0  0  0  0  0  0  0999 V2000
   -6.1410   25.2690  -29.7030 C   0  0  0  0  0  0  0  0  0  0  0  0
   -5.1870   25.6840  -30.8110 C   0  0  0  0  0  0  0  0  0  0  0  0
   -3.8600   25.2970  -30.4620 O   0  0  0  0  0  0  0  0  0  0  0  0
   -3.4840   24.0990  -29.8290 C   0  0  0  0  0  0  0  0  0  0  0  0
   -3.2080   24.1700  -28.4570 C   0  0  0  0  0  0  0  0  0  0  0  0
   -2.8630   23.0280  -27.7350 C   0  0  0  0  0  0  0  0  0  0  0  0
   -2.7820   21.7950  -28.3780 C   0  0  0  0  0  0  0  0  0  0  0  0
   -2.3130   20.2310  -27.3860 Br  0  0  0  0  0  0  0  0  0  0  0  0
   -3.0350   21.7030  -29.7480 C   0  0  0  0  0  0  0  0  0  0  0  0
   -3.3820   22.8490  -30.4950 C   0  0  0  0  0  0  0  0  0  0  0  0
   -3.5980   22.7780  -31.8790 O   0  0  0  0  0  0  0  0  0  0  0  0
   -4.6830   22.1110  -32.5290 C   0  0  0  0  0  0  0  0  0  0  0  0
   -6.0340   22.6400  -32.0270 C   0  0  0  0  0  0  0  0  0  0  0  0
   -7.1340   21.7170  -32.3830 N   0  0  0  0  0  0  0  0  0  0  0  0
   -6.7740   20.3110  -32.1120 C   0  0  0  0  0  0  0  0  0  0  0  0
   -7.9710   19.3790  -32.4020 C   0  0  0  0  0  0  0  0  0  0  0  0
   -9.0800   20.0960  -32.9070 O   0  0  0  0  0  0  0  0  0  0  0  0
   -9.4900   21.0620  -31.9590 C   0  0  0  0  0  0  0  0  0  0  0  0
   -8.3630   22.0700  -31.6490 C   0  0  0  0  0  0  0  0  0  0  0  0
   -5.6779   25.4705  -28.7258 H   0  0  0  0  0  0  0  0  0  0  0  0
   -7.0761   25.8417  -29.7906 H   0  0  0  0  0  0  0  0  0  0  0  0
   -6.3595   24.1945  -29.7906 H   0  0  0  0  0  0  0  0  0  0  0  0
   -5.4783   25.1908  -31.7501 H   0  0  0  0  0  0  0  0  0  0  0  0
   -5.2291   26.7752  -30.9430 H   0  0  0  0  0  0  0  0  0  0  0  0
   -3.2643   25.1405  -27.9422 H   0  0  0  0  0  0  0  0  0  0  0  0
   -2.6547   23.1009  -26.6574 H   0  0  0  0  0  0  0  0  0  0  0  0
   -2.9631   20.7271  -30.2504 H   0  0  0  0  0  0  0  0  0  0  0  0
   -4.6111   22.2798  -33.6136 H   0  0  0  0  0  0  0  0  0  0  0  0
   -4.6208   21.0366  -32.3013 H   0  0  0  0  0  0  0  0  0  0  0  0
   -5.9940   22.7459  -30.9328 H   0  0  0  0  0  0  0  0  0  0  0  0
   -6.2267   23.6126  -32.5033 H   0  0  0  0  0  0  0  0  0  0  0  0
   -5.9282   20.0240  -32.7541 H   0  0  0  0  0  0  0  0  0  0  0  0
   -6.4966   20.2134  -31.0520 H   0  0  0  0  0  0  0  0  0  0  0  0
   -7.6654   18.6260  -33.1434 H   0  0  0  0  0  0  0  0  0  0  0  0
   -8.2716   18.9019  -31.4575 H   0  0  0  0  0  0  0  0  0  0  0  0
  -10.3572   21.6082  -32.3585 H   0  0  0  0  0  0  0  0  0  0  0  0
   -9.7495   20.5395  -31.0265 H   0  0  0  0  0  0  0  0  0  0  0  0
   -8.6866   23.0775  -31.9493 H   0  0  0  0  0  0  0  0  0  0  0  0
   -8.1512   22.0440  -30.5699 H   0  0  0  0  0  0  0  0  0  0  0  0
  1  2  1  0
  2  3  1  0
  3  4  1  0
  4  5  2  0
  5  6  1  0
  6  7  2  0
  7  8  1  0
  7  9  1  0
  9 10  2  0
 10 11  1  0
 11 12  1  0
 12 13  1  0
 13 14  1  0
 14 15  1  0
 15 16  1  0
 16 17  1  0
 17 18  1  0
 18 19  1  0
 10  4  1  0
 19 14  1  0
  1 20  1  0
  1 21  1  0
  1 22  1  0
  2 23  1  0
  2 24  1  0
  5 25  1  0
  6 26  1  0
  9 27  1  0
 12 28  1  0
 12 29  1  0
 13 30  1  0
 13 31  1  0
 15 32  1  0
 15 33  1  0
 16 34  1  0
 16 35  1  0
 18 36  1  0
 18 37  1  0
 19 38  1  0
 19 39  1  0
M  END
>  <UniqueID>  (21) 
20

>  <SMILES>  (21) 
CCOc1ccc(Br)cc1OCCN1CCOCC1

>  <Energy>  (21) 
44.20982341411418

>  <Genealogy>  (21) 
CCOc1ccc(Br)cc1OCCN1CCOCC1 (3D coordinates assigned)
CCOc1ccc(Br)cc1OCCN1CCOCC1 (nonaromatic ring conformer: 44.20982341411418 kcal/mol)

>  <smiles>  (21) 
CCOc1ccc(Br)cc1OCCN1CCOCC1

>  <score_type>  (21) 
oracle

>  <origin>  (21) 
adg

>  <m_score__min__energy>  (21) 
-7.2300000000000004

>  <m_primary>  (21) 
energy

$$$$
21:0
     RDKit          3D

 36 37  0  0  0  0  0  0  0  0999 V2000
   -9.7820   20.8590  -32.0120 C   0  0  0  0  0  0  0  0  0  0  0  0
   -8.3330   20.9720  -32.3580 C   0  0  0  0  0  0  0  0  0  0  0  0
   -7.6600   20.1040  -33.1480 N   0  0  0  0  0  0  0  0  0  0  0  0
   -6.3760   20.4460  -33.1720 N   0  0  0  0  0  0  0  0  0  0  0  0
   -5.3360   19.6810  -33.8610 C   0  0  0  0  0  0  0  0  0  0  0  0
   -5.2500   18.2550  -33.3110 C   0  0  0  0  0  0  0  0  0  0  0  0
   -6.6120   17.7260  -33.0620 N   0  0  0  0  0  0  0  0  0  0  0  0
   -6.8390   16.4670  -33.7870 C   0  0  0  0  0  0  0  0  0  0  0  0
   -6.8550   17.5270  -31.6230 C   0  0  0  0  0  0  0  0  0  0  0  0
   -6.2130   21.5230  -32.3780 C   0  0  0  0  0  0  0  0  0  0  0  0
   -5.0400   22.2040  -32.0500 C   0  0  0  0  0  0  0  0  0  0  0  0
   -5.1290   23.2930  -31.1490 C   0  0  0  0  0  0  0  0  0  0  0  0
   -3.9150   24.0520  -30.7690 C   0  0  0  0  0  0  0  0  0  0  0  0
   -3.9010   25.4780  -30.8340 N   0  0  0  0  0  0  0  0  0  0  0  0
   -2.8800   23.4450  -30.3840 O   0  0  0  0  0  0  0  0  0  0  0  0
   -6.3960   23.6500  -30.6080 C   0  0  0  0  0  0  0  0  0  0  0  0
   -7.5570   22.9360  -30.9530 C   0  0  0  0  0  0  0  0  0  0  0  0
   -7.4240   21.8790  -31.8470 C   0  0  0  0  0  0  0  0  0  0  0  0
   -9.8982   20.8499  -30.9182 H   0  0  0  0  0  0  0  0  0  0  0  0
  -10.3272   21.7174  -32.4315 H   0  0  0  0  0  0  0  0  0  0  0  0
  -10.1875   19.9265  -32.4315 H   0  0  0  0  0  0  0  0  0  0  0  0
   -8.0650   19.2760  -33.6390 H   0  0  0  0  0  0  0  0  0  0  0  0
   -5.5717   19.6390  -34.9346 H   0  0  0  0  0  0  0  0  0  0  0  0
   -4.3686   20.1787  -33.6985 H   0  0  0  0  0  0  0  0  0  0  0  0
   -4.7375   17.6126  -34.0422 H   0  0  0  0  0  0  0  0  0  0  0  0
   -4.6877   18.2653  -32.3656 H   0  0  0  0  0  0  0  0  0  0  0  0
   -6.9863   15.6498  -33.0655 H   0  0  0  0  0  0  0  0  0  0  0  0
   -7.7341   16.5640  -34.4189 H   0  0  0  0  0  0  0  0  0  0  0  0
   -5.9663   16.2453  -34.4189 H   0  0  0  0  0  0  0  0  0  0  0  0
   -6.1316   18.1194  -31.0436 H   0  0  0  0  0  0  0  0  0  0  0  0
   -7.8765   17.8513  -31.3753 H   0  0  0  0  0  0  0  0  0  0  0  0
   -6.7384   16.4616  -31.3753 H   0  0  0  0  0  0  0  0  0  0  0  0
   -4.0730   21.9033  -32.4794 H   0  0  0  0  0  0  0  0  0  0  0  0
   -3.8820   26.0550  -29.9650 H   0  0  0  0  0  0  0  0  0  0  0  0
   -6.4680   24.4969  -29.9097 H   0  0  0  0  0  0  0  0  0  0  0  0
   -8.5366   23.2041  -30.5305 H   0  0  0  0  0  0  0  0  0  0  0  0
  1  2  1  0
  2  3  2  0
  3  4  1  0
  4  5  1  0
  5  6  1  0
  6  7  1  0
  7  8  1  0
  7  9  1  0
  4 10  1  0
 10 11  2  0
 11 12  1  0
 12 13  1  0
 13 14  1  0
 13 15  2  0
 12 16  2  0
 16 17  1  0
 17 18  2  0
 18  2  1  0
 18 10  1  0
  1 19  1  0
  1 20  1  0
  1 21  1  0
  3 22  1  0
  5 23  1  0
  5 24  1  0
  6 25  1  0
  6 26  1  0
  8 27  1  0
  8 28  1  0
  8 29  1  0
  9 30  1  0
  9 31  1  0
  9 32  1  0
 11 33  1  0
 14 34  1  0
 16 35  1  0
 17 36  1  0
M  CHG  2   3   1  14  -1
M  END
>  <UniqueID>  (22) 
21

>  <SMILES>  (22) 
Cc1[nH+]n(CCN(C)C)c2cc(C([NH-])=O)ccc12

>  <Energy>  (22) 
72.13829653728638

>  <Genealogy>  (22) 
Cc1[nH+]n(CCN(C)C)c2cc(C([NH-])=O)ccc12 (protonated)
Cc1[nH+]n(CCN(C)C)c2cc(C([NH-])=O)ccc12 (3D coordinates assigned)
Cc1[nH+]n(CCN(C)C)c2cc(C([NH-])=O)ccc12 (optimized conformer: 72.13829653728638 kcal/mol)

>  <smiles>  (22) 
Cc1nn(CCN(C)C)c2cc(C(N)=O)ccc12

>  <score_type>  (22) 
oracle

>  <origin>  (22) 
adg

>  <m_score__min__energy>  (22) 
-9.5500000000000007

>  <m_primary>  (22) 
energy

$$$$
22:0
     RDKit          3D

 47 47  0  0  0  0  0  0  0  0999 V2000
   -4.3070   19.7221  -32.4492 H   0  0  0  0  0  0  0  0  0  0  0  0
   -5.1410   19.1040  -32.8130 C   0  0  0  0  0  0  0  0  0  0  0  0
   -5.9410   18.5110  -31.9110 C   0  0  0  0  0  0  0  0  0  0  0  0
   -5.6437   18.5315  -30.8521 H   0  0  0  0  0  0  0  0  0  0  0  0
   -7.2290   17.8180  -32.2840 C   0  0  0  0  0  0  0  0  0  0  0  0
   -7.4899   18.0767  -33.3208 H   0  0  0  0  0  0  0  0  0  0  0  0
   -7.0856   16.7321  -32.1832 H   0  0  0  0  0  0  0  0  0  0  0  0
   -8.3730   18.2500  -31.3550 C   0  0  0  0  0  0  0  0  0  0  0  0
   -9.0043   17.3737  -31.1463 H   0  0  0  0  0  0  0  0  0  0  0  0
   -7.9169   18.6564  -30.4402 H   0  0  0  0  0  0  0  0  0  0  0  0
   -9.2580   19.3600  -31.9600 C   0  0  0  0  0  0  0  0  0  0  0  0
  -10.0486   18.8823  -32.5572 H   0  0  0  0  0  0  0  0  0  0  0  0
   -9.6520   19.9429  -31.1144 H   0  0  0  0  0  0  0  0  0  0  0  0
   -8.5050   20.3520  -32.8640 C   0  0  0  0  0  0  0  0  0  0  0  0
   -7.5837   19.8694  -33.2221 H   0  0  0  0  0  0  0  0  0  0  0  0
   -9.1790   20.6183  -33.6916 H   0  0  0  0  0  0  0  0  0  0  0  0
   -8.1240   21.6630  -32.1400 C   0  0  0  0  0  0  0  0  0  0  0  0
   -8.7943   22.4624  -32.4888 H   0  0  0  0  0  0  0  0  0  0  0  0
   -8.2247   21.4807  -31.0599 H   0  0  0  0  0  0  0  0  0  0  0  0
   -6.6720   22.0970  -32.3960 C   0  0  0  0  0  0  0  0  0  0  0  0
   -6.0145   21.2243  -32.2692 H   0  0  0  0  0  0  0  0  0  0  0  0
   -6.6162   22.4973  -33.4191 H   0  0  0  0  0  0  0  0  0  0  0  0
   -6.2210   23.1890  -31.4460 C   0  0  0  0  0  0  0  0  0  0  0  0
   -7.1990   23.9930  -30.8360 C   0  0  0  0  0  0  0  0  0  0  0  0
   -8.2637   23.7956  -31.0294 H   0  0  0  0  0  0  0  0  0  0  0  0
   -6.8350   25.0360  -29.9900 C   0  0  0  0  0  0  0  0  0  0  0  0
   -7.6111   25.6416  -29.4992 H   0  0  0  0  0  0  0  0  0  0  0  0
   -5.4900   25.3140  -29.7640 C   0  0  0  0  0  0  0  0  0  0  0  0
   -5.2108   26.1454  -29.1000 H   0  0  0  0  0  0  0  0  0  0  0  0
   -4.4900   24.5490  -30.3710 C   0  0  0  0  0  0  0  0  0  0  0  0
   -3.1650   24.9370  -30.1240 O   0  0  0  0  0  0  0  0  0  0  0  0
   -2.2750   24.2800  -29.2220 C   0  0  0  0  0  0  0  0  0  0  0  0
   -1.9043   23.3515  -29.6807 H   0  0  0  0  0  0  0  0  0  0  0  0
   -1.4222   24.9374  -28.9970 H   0  0  0  0  0  0  0  0  0  0  0  0
   -3.0260   23.9500  -27.9330 C   0  0  0  0  0  0  0  0  0  0  0  0
   -2.3123   23.9549  -27.0960 H   0  0  0  0  0  0  0  0  0  0  0  0
   -3.8099   24.7092  -27.7951 H   0  0  0  0  0  0  0  0  0  0  0  0
   -3.7050   22.5790  -27.9940 C   0  0  0  0  0  0  0  0  0  0  0  0
   -4.4448   22.5107  -27.1828 H   0  0  0  0  0  0  0  0  0  0  0  0
   -4.1889   22.4783  -28.9767 H   0  0  0  0  0  0  0  0  0  0  0  0
   -2.4220   21.1370  -27.7990 Br  0  0  0  0  0  0  0  0  0  0  0  0
   -4.8510   23.4420  -31.1830 C   0  0  0  0  0  0  0  0  0  0  0  0
   -3.5200   22.1930  -31.8020 Br  0  0  0  0  0  0  0  0  0  0  0  0
   -5.3340   18.9610  -34.2960 C   0  0  0  0  0  0  0  0  0  0  0  0
   -4.8991   19.8346  -34.8036 H   0  0  0  0  0  0  0  0  0  0  0  0
   -6.4110   18.8955  -34.5102 H   0  0  0  0  0  0  0  0  0  0  0  0
   -4.4680   17.3530  -34.9400 Br  0  0  0  0  0  0  0  0  0  0  0  0
  1  2  1  0
  2  3  2  0
  3  4  1  0
  3  5  1  0
  5  6  1  0
  5  7  1  0
  5  8  1  0
  8  9  1  0
  8 10  1  0
  8 11  1  0
 11 12  1  0
 11 13  1  0
 11 14  1  0
 14 15  1  0
 14 16  1  0
 14 17  1  0
 17 18  1  0
 17 19  1  0
 17 20  1  0
 20 21  1  0
 20 22  1  0
 20 23  1  0
 23 24  2  0
 24 25  1  0
 24 26  1  0
 26 27  1  0
 26 28  2  0
 28 29  1  0
 28 30  1  0
 30 31  1  0
 31 32  1  0
 32 33  1  0
 32 34  1  0
 32 35  1  0
 35 36  1  0
 35 37  1  0
 35 38  1  0
 38 39  1  0
 38 40  1  0
 38 41  1  0
 30 42  2  0
 42 43  1  0
  2 44  1  0
 44 45  1  0
 44 46  1  0
 44 47  1  0
 42 23  1  0
M  END
>  <UniqueID>  (23) 
22

>  <SMILES>  (23) 
BrC/C=C\CCCCCCc1cccc(OCCCBr)c1Br

>  <Energy>  (23) 
33.572708570498236

>  <Genealogy>  (23) 
BrC/C=C\CCCCCCc1cccc(OCCCBr)c1Br (cis-trans isomerization)
BrC/C=C\CCCCCCc1cccc(OCCCBr)c1Br (3D coordinates assigned)
BrC/C=C\CCCCCCc1cccc(OCCCBr)c1Br (optimized conformer: 33.572708570498236 kcal/mol)

>  <smiles>  (23) 
BrCC=CCCCCCCc1cccc(OCCCBr)c1Br

>  <score_type>  (23) 
oracle

>  <origin>  (23) 
adg

>  <m_score__min__energy>  (23) 
-8.3399999999999999

>  <m_primary>  (23) 
energy

$$$$
23:0
     RDKit          3D

 55 55  0  0  0  0  0  0  0  0999 V2000
   -4.0760   19.6520  -33.4630 C   0  0  0  0  0  0  0  0  0  0  0  0
   -4.1260   21.1650  -33.3220 C   0  0  0  0  0  0  0  0  0  0  0  0
   -2.9180   21.6200  -32.7460 O   0  0  0  0  0  0  0  0  0  0  0  0
   -1.8070   21.1540  -33.4900 C   0  0  0  0  0  0  0  0  0  0  0  0
   -0.6520   20.8180  -32.5490 C   0  0  0  0  0  0  0  0  0  0  0  0
   -1.1590   20.6300  -31.2460 O   0  0  0  0  0  0  0  0  0  0  0  0
   -0.5140   21.5170  -30.3560 C   0  0  0  0  0  0  0  0  0  0  0  0
   -1.5390   22.4810  -29.7400 C   0  0  0  0  0  0  0  0  0  0  0  0
   -2.9070   22.2950  -30.2550 N   0  0  0  0  0  0  0  0  0  0  0  0
   -3.9370   22.5200  -29.2250 C   0  0  0  0  0  0  0  0  0  0  0  0
   -3.9640   23.9900  -28.7600 C   0  0  0  0  0  0  0  0  0  0  0  0
   -4.7260   24.9240  -29.7150 C   0  0  0  0  0  0  0  0  0  0  0  0
   -4.3450   24.6700  -31.1110 N   0  0  0  0  0  0  0  0  0  0  0  0
   -5.3960   23.9080  -31.8000 C   0  0  0  0  0  0  0  0  0  0  0  0
   -6.7530   24.1380  -31.1260 C   0  0  0  0  0  0  0  0  0  0  0  0
   -7.1860   22.9270  -30.2890 C   0  0  0  0  0  0  0  0  0  0  0  0
   -7.7360   21.8420  -31.1760 C   0  0  0  0  0  0  0  0  0  0  0  0
   -9.1000   21.8260  -31.5210 C   0  0  0  0  0  0  0  0  0  0  0  0
   -9.6120   20.7970  -32.3160 C   0  0  0  0  0  0  0  0  0  0  0  0
   -8.7730   19.7710  -32.7610 C   0  0  0  0  0  0  0  0  0  0  0  0
   -7.4190   19.7720  -32.4110 C   0  0  0  0  0  0  0  0  0  0  0  0
   -6.9010   20.8010  -31.6180 C   0  0  0  0  0  0  0  0  0  0  0  0
   -4.0608   19.1910  -32.4644 H   0  0  0  0  0  0  0  0  0  0  0  0
   -4.9632   19.3055  -34.0133 H   0  0  0  0  0  0  0  0  0  0  0  0
   -3.1679   19.3648  -34.0133 H   0  0  0  0  0  0  0  0  0  0  0  0
   -4.2555   21.6225  -34.3139 H   0  0  0  0  0  0  0  0  0  0  0  0
   -4.9713   21.4476  -32.6774 H   0  0  0  0  0  0  0  0  0  0  0  0
   -2.0956   20.2517  -34.0491 H   0  0  0  0  0  0  0  0  0  0  0  0
   -1.4858   21.9397  -34.1897 H   0  0  0  0  0  0  0  0  0  0  0  0
   -0.1565   19.8963  -32.8882 H   0  0  0  0  0  0  0  0  0  0  0  0
    0.0773   21.6415  -32.5481 H   0  0  0  0  0  0  0  0  0  0  0  0
   -0.0290   20.9403  -29.5547 H   0  0  0  0  0  0  0  0  0  0  0  0
    0.2407   22.0967  -30.9077 H   0  0  0  0  0  0  0  0  0  0  0  0
   -1.5530   22.3246  -28.6513 H   0  0  0  0  0  0  0  0  0  0  0  0
   -1.2275   23.5003  -30.0121 H   0  0  0  0  0  0  0  0  0  0  0  0
   -2.9730   21.3120  -30.6070 H   0  0  0  0  0  0  0  0  0  0  0  0
   -3.0720   22.9340  -31.0680 H   0  0  0  0  0  0  0  0  0  0  0  0
   -4.9211   22.2593  -29.6415 H   0  0  0  0  0  0  0  0  0  0  0  0
   -3.6981   21.8889  -28.3563 H   0  0  0  0  0  0  0  0  0  0  0  0
   -4.4465   24.0335  -27.7724 H   0  0  0  0  0  0  0  0  0  0  0  0
   -2.9211   24.3386  -28.7318 H   0  0  0  0  0  0  0  0  0  0  0  0
   -5.8066   24.7534  -29.5998 H   0  0  0  0  0  0  0  0  0  0  0  0
   -4.4728   25.9649  -29.4652 H   0  0  0  0  0  0  0  0  0  0  0  0
   -4.2500   25.5890  -31.6040 H   0  0  0  0  0  0  0  0  0  0  0  0
   -5.4523   24.2352  -32.8487 H   0  0  0  0  0  0  0  0  0  0  0  0
   -5.1504   22.8369  -31.7504 H   0  0  0  0  0  0  0  0  0  0  0  0
   -6.6798   25.0171  -30.4689 H   0  0  0  0  0  0  0  0  0  0  0  0
   -7.5040   24.2950  -31.9142 H   0  0  0  0  0  0  0  0  0  0  0  0
   -6.3168   22.5383  -29.7382 H   0  0  0  0  0  0  0  0  0  0  0  0
   -7.9705   23.2431  -29.5856 H   0  0  0  0  0  0  0  0  0  0  0  0
   -9.7654   22.6259  -31.1639 H   0  0  0  0  0  0  0  0  0  0  0  0
  -10.6768   20.7943  -32.5921 H   0  0  0  0  0  0  0  0  0  0  0  0
   -9.1782   18.9623  -33.3869 H   0  0  0  0  0  0  0  0  0  0  0  0
   -6.7607   18.9626  -32.7598 H   0  0  0  0  0  0  0  0  0  0  0  0
   -5.8369   20.7958  -31.3393 H   0  0  0  0  0  0  0  0  0  0  0  0
  1  2  1  0
  2  3  1  0
  3  4  1  0
  4  5  1  0
  5  6  1  0
  6  7  1  0
  7  8  1  0
  8  9  1  0
  9 10  1  0
 10 11  1  0
 11 12  1  0
 12 13  1  0
 13 14  1  0
 14 15  1  0
 15 16  1  0
 16 17  1  0
 17 18  2  0
 18 19  1  0
 19 20  2  0
 20 21  1  0
 21 22  2  0
 22 17  1  0
  1 23  1  0
  1 24  1  0
  1 25  1  0
  2 26  1  0
  2 27  1  0
  4 28  1  0
  4 29  1  0
  5 30  1  0
  5 31  1  0
  7 32  1  0
  7 33  1  0
  8 34  1  0
  8 35  1  0
  9 36  1  0
  9 37  1  0
 10 38  1  0
 10 39  1  0
 11 40  1  0
 11 41  1  0
 12 42  1  0
 12 43  1  0
 13 44  1  0
 14 45  1  0
 14 46  1  0
 15 47  1  0
 15 48  1  0
 16 49  1  0
 16 50  1  0
 18 51  1  0
 19 52  1  0
 20 53  1  0
 21 54  1  0
 22 55  1  0
M  CHG  1   9   1
M  END
>  <UniqueID>  (24) 
23

>  <SMILES>  (24) 
CCOCCOCC[NH2+]CCCNCCCc1ccccc1

>  <Energy>  (24) 
41.216587922081416

>  <Genealogy>  (24) 
CCOCCOCC[NH2+]CCCNCCCc1ccccc1 (protonated)
CCOCCOCC[NH2+]CCCNCCCc1ccccc1 (3D coordinates assigned)
CCOCCOCC[NH2+]CCCNCCCc1ccccc1 (optimized conformer: 41.216587922081416 kcal/mol)

>  <smiles>  (24) 
CCOCCOCCNCCCNCCCc1ccccc1

>  <score_type>  (24) 
oracle

>  <origin>  (24) 
adg

>  <m_score__min__energy>  (24) 
-5.7000000000000002

>  <m_primary>  (24) 
energy

$$$$
24:0
     RDKit          3D

 36 38  0  0  0  0  0  0  0  0999 V2000
   -6.8570   25.6400  -29.6920 C   0  0  0  0  0  0  0  0  0  0  0  0
   -6.2310   25.2100  -30.8970 O   0  0  0  0  0  0  0  0  0  0  0  0
   -5.1870   24.2730  -30.9640 C   0  0  0  0  0  0  0  0  0  0  0  0
   -3.9440   24.5070  -30.3250 C   0  0  0  0  0  0  0  0  0  0  0  0
   -2.9480   23.5370  -30.4380 C   0  0  0  0  0  0  0  0  0  0  0  0
   -1.6590   23.4740  -29.9420 C   0  0  0  0  0  0  0  0  0  0  0  0
   -0.9360   24.4590  -29.1180 C   0  0  0  0  0  0  0  0  0  0  0  0
    0.1350   24.1300  -28.5430 O   0  0  0  0  0  0  0  0  0  0  0  0
   -1.4160   25.7520  -28.9650 O   0  0  0  0  0  0  0  0  0  0  0  0
   -1.1550   22.2550  -30.3840 C   0  0  0  0  0  0  0  0  0  0  0  0
   -2.0680   21.5800  -31.1190 N   0  0  0  0  0  0  0  0  0  0  0  0
   -3.1510   22.3800  -31.1390 C   0  0  0  0  0  0  0  0  0  0  0  0
   -4.3570   22.1110  -31.7750 C   0  0  0  0  0  0  0  0  0  0  0  0
   -5.3940   23.0710  -31.6980 C   0  0  0  0  0  0  0  0  0  0  0  0
   -6.6600   22.8440  -32.3470 N   0  0  0  0  0  0  0  0  0  0  0  0
   -7.8220   21.6750  -31.8010 S   0  0  0  0  0  0  0  0  0  0  0  0
   -9.1840   22.0540  -32.3100 O   0  0  0  0  0  0  0  0  0  0  0  0
   -7.8450   21.6700  -30.2980 O   0  0  0  0  0  0  0  0  0  0  0  0
   -7.4100   20.0810  -32.4250 C   0  0  0  0  0  0  0  0  0  0  0  0
   -8.0050   18.9300  -31.8880 C   0  0  0  0  0  0  0  0  0  0  0  0
   -7.6590   17.6670  -32.3800 C   0  0  0  0  0  0  0  0  0  0  0  0
   -6.7200   17.5490  -33.4090 C   0  0  0  0  0  0  0  0  0  0  0  0
   -6.1280   18.6940  -33.9500 C   0  0  0  0  0  0  0  0  0  0  0  0
   -6.4730   19.9580  -33.4610 C   0  0  0  0  0  0  0  0  0  0  0  0
   -6.2950   25.2539  -28.8288 H   0  0  0  0  0  0  0  0  0  0  0  0
   -6.8712   26.7394  -29.6583 H   0  0  0  0  0  0  0  0  0  0  0  0
   -7.8883   25.2588  -29.6583 H   0  0  0  0  0  0  0  0  0  0  0  0
   -3.7689   25.4307  -29.7540 H   0  0  0  0  0  0  0  0  0  0  0  0
   -0.1422   21.8867  -30.1636 H   0  0  0  0  0  0  0  0  0  0  0  0
   -4.5026   21.1708  -32.3272 H   0  0  0  0  0  0  0  0  0  0  0  0
   -6.8710   23.3220  -33.2510 H   0  0  0  0  0  0  0  0  0  0  0  0
   -8.7447   19.0205  -31.0789 H   0  0  0  0  0  0  0  0  0  0  0  0
   -8.1263   16.7656  -31.9567 H   0  0  0  0  0  0  0  0  0  0  0  0
   -6.4470   16.5550  -33.7930 H   0  0  0  0  0  0  0  0  0  0  0  0
   -5.3904   18.6007  -34.7607 H   0  0  0  0  0  0  0  0  0  0  0  0
   -6.0082   20.8579  -33.8901 H   0  0  0  0  0  0  0  0  0  0  0  0
  1  2  1  0
  2  3  1  0
  3  4  2  0
  4  5  1  0
  5  6  1  0
  6  7  1  0
  7  8  2  0
  7  9  1  0
  6 10  2  0
 10 11  1  0
 11 12  1  0
 12 13  1  0
 13 14  2  0
 14 15  1  0
 15 16  1  0
 16 17  2  0
 16 18  2  0
 16 19  1  0
 19 20  2  0
 20 21  1  0
 21 22  2  0
 22 23  1  0
 23 24  2  0
 14  3  1  0
 24 19  1  0
 12  5  2  0
  1 25  1  0
  1 26  1  0
  1 27  1  0
  4 28  1  0
 10 29  1  0
 13 30  1  0
 15 31  1  0
 20 32  1  0
 21 33  1  0
 22 34  1  0
 23 35  1  0
 24 36  1  0
M  CHG  2   9  -1  11  -1
M  END
>  <UniqueID>  (25) 
24

>  <SMILES>  (25) 
COc1cc2c(C(=O)[O-])c[n-]c2cc1NS(=O)(=O)c1ccccc1

>  <Energy>  (25) 
73.71669789289534

>  <Genealogy>  (25) 
COc1cc2c(C(=O)[O-])c[n-]c2cc1NS(=O)(=O)c1ccccc1 (protonated)
COc1cc2c(C(=O)[O-])c[n-]c2cc1NS(=O)(=O)c1ccccc1 (3D coordinates assigned)
COc1cc2c(C(=O)[O-])c[n-]c2cc1NS(=O)(=O)c1ccccc1 (optimized conformer: 73.71669789289534 kcal/mol)

>  <smiles>  (25) 
COc1cc2c(C(=O)O)c[nH]c2cc1NS(=O)(=O)c1ccccc1

>  <score_type>  (25) 
oracle

>  <origin>  (25) 
adg

>  <m_score__min__energy>  (25) 
-10.09

>  <m_primary>  (25) 
energy

$$$$
25:0
     RDKit          3D

 32 34  0  0  0  0  0  0  0  0999 V2000
   -5.4370   20.3850  -33.4210 C   0  0  0  0  0  0  0  0  0  0  0  0
   -6.6370   20.8210  -32.6210 C   0  0  0  0  0  0  0  0  0  0  0  0
   -7.9190   20.4350  -33.0460 C   0  0  0  0  0  0  0  0  0  0  0  0
   -9.0510   20.8130  -32.3210 C   0  0  0  0  0  0  0  0  0  0  0  0
   -8.9180   21.5870  -31.1670 C   0  0  0  0  0  0  0  0  0  0  0  0
   -7.6510   21.9930  -30.7410 C   0  0  0  0  0  0  0  0  0  0  0  0
   -6.5050   21.6310  -31.4660 C   0  0  0  0  0  0  0  0  0  0  0  0
   -5.1840   22.1030  -30.9960 C   0  0  0  0  0  0  0  0  0  0  0  0
   -4.9360   23.4770  -30.9380 C   0  0  0  0  0  0  0  0  0  0  0  0
   -3.7340   23.9370  -30.5100 N   0  0  0  0  0  0  0  0  0  0  0  0
   -3.5300   25.2990  -30.4690 O   0  0  0  0  0  0  0  0  0  0  0  0
   -2.7550   23.0710  -30.1140 C   0  0  0  0  0  0  0  0  0  0  0  0
   -1.5180   23.5530  -29.6480 C   0  0  0  0  0  0  0  0  0  0  0  0
   -0.5300   22.6670  -29.2210 C   0  0  0  0  0  0  0  0  0  0  0  0
   -0.7640   21.2950  -29.2460 C   0  0  0  0  0  0  0  0  0  0  0  0
   -1.9840   20.7950  -29.7090 C   0  0  0  0  0  0  0  0  0  0  0  0
   -2.9940   21.6710  -30.1690 C   0  0  0  0  0  0  0  0  0  0  0  0
   -4.2040   21.2150  -30.6440 N   0  0  0  0  0  0  0  0  0  0  0  0
   -4.4710   19.8690  -30.8350 O   0  0  0  0  0  0  0  0  0  0  0  0
   -4.6274   20.0909  -32.7369 H   0  0  0  0  0  0  0  0  0  0  0  0
   -5.7105   19.5288  -34.0551 H   0  0  0  0  0  0  0  0  0  0  0  0
   -5.0970   21.2171  -34.0551 H   0  0  0  0  0  0  0  0  0  0  0  0
   -8.0322   19.8299  -33.9576 H   0  0  0  0  0  0  0  0  0  0  0  0
  -10.0496   20.5002  -32.6600 H   0  0  0  0  0  0  0  0  0  0  0  0
   -9.8105   21.8772  -30.5932 H   0  0  0  0  0  0  0  0  0  0  0  0
   -7.5507   22.6013  -29.8300 H   0  0  0  0  0  0  0  0  0  0  0  0
   -5.7186   24.1882  -31.2406 H   0  0  0  0  0  0  0  0  0  0  0  0
   -1.3292   24.6363  -29.6204 H   0  0  0  0  0  0  0  0  0  0  0  0
    0.4362   23.0527  -28.8637 H   0  0  0  0  0  0  0  0  0  0  0  0
    0.0156   20.6007  -28.8994 H   0  0  0  0  0  0  0  0  0  0  0  0
   -2.1603   19.7092  -29.7156 H   0  0  0  0  0  0  0  0  0  0  0  0
   -4.0030   19.2900  -31.5170 H   0  0  0  0  0  0  0  0  0  0  0  0
  1  2  1  0
  2  3  2  0
  3  4  1  0
  4  5  2  0
  5  6  1  0
  6  7  2  0
  7  8  1  0
  8  9  2  0
  9 10  1  0
 10 11  1  0
 10 12  2  0
 12 13  1  0
 13 14  2  0
 14 15  1  0
 15 16  2  0
 16 17  1  0
 17 18  2  0
 18 19  1  0
  7  2  1  0
 18  8  1  0
 17 12  1  0
  1 20  1  0
  1 21  1  0
  1 22  1  0
  3 23  1  0
  4 24  1  0
  5 25  1  0
  6 26  1  0
  9 27  1  0
 13 28  1  0
 14 29  1  0
 15 30  1  0
 16 31  1  0
 19 32  1  0
M  CHG  3  10   1  11  -1  18   1
M  END
>  <UniqueID>  (26) 
25

>  <SMILES>  (26) 
Cc1ccccc1-c1c[n+]([O-])c2ccccc2[n+]1O

>  <Energy>  (26) 
52.48052295170922

>  <Genealogy>  (26) 
Cc1ccccc1-c1c[n+]([O-])c2ccccc2[n+]1O (protonated)
Cc1ccccc1-c1c[n+]([O-])c2ccccc2[n+]1O (3D coordinates assigned)
Cc1ccccc1-c1c[n+]([O-])c2ccccc2[n+]1O (optimized conformer: 52.48052295170922 kcal/mol)

>  <smiles>  (26) 
Cc1ccccc1-c1c[n+]([O-])c2ccccc2[n+]1[O-]

>  <score_type>  (26) 
oracle

>  <origin>  (26) 
adg

>  <m_score__min__energy>  (26) 
-7.1799999999999997

>  <m_primary>  (26) 
energy

$$$$
26:0
     RDKit          3D

 52 56  0  0  0  0  0  0  0  0999 V2000
   -6.9160   15.6520  -33.8590 C   0  0  0  0  0  0  0  0  0  0  0  0
   -6.3110   16.9400  -33.5230 N   0  0  0  0  0  0  0  0  0  0  0  0
   -6.9260   18.0310  -33.0070 C   0  0  0  0  0  0  0  0  0  0  0  0
   -8.2830   18.1850  -32.7140 C   0  0  0  0  0  0  0  0  0  0  0  0
   -8.7070   19.4110  -32.1690 C   0  0  0  0  0  0  0  0  0  0  0  0
   -7.7810   20.4470  -31.9260 C   0  0  0  0  0  0  0  0  0  0  0  0
   -6.4180   20.2730  -32.2230 C   0  0  0  0  0  0  0  0  0  0  0  0
   -6.0190   19.0510  -32.7660 C   0  0  0  0  0  0  0  0  0  0  0  0
   -4.7830   18.5590  -33.1450 C   0  0  0  0  0  0  0  0  0  0  0  0
   -3.4860   19.0710  -33.1380 C   0  0  0  0  0  0  0  0  0  0  0  0
   -3.1980   20.3990  -32.6860 N   0  0  0  0  0  0  0  0  0  0  0  0
   -2.7020   20.5930  -31.3180 C   0  0  0  0  0  0  0  0  0  0  0  0
   -2.7230   22.0760  -30.9280 C   0  0  0  0  0  0  0  0  0  0  0  0
   -4.0620   22.7010  -31.3630 C   0  0  0  0  0  0  0  0  0  0  0  0
   -4.2370   24.0610  -30.7880 N   0  0  0  0  0  0  0  0  0  0  0  0
   -3.6320   24.2700  -29.4570 C   0  0  0  0  0  0  0  0  0  0  0  0
   -4.6810   24.2280  -28.3490 C   0  0  0  0  0  0  0  0  0  0  0  0
   -5.6790   25.1910  -28.5980 O   0  0  0  0  0  0  0  0  0  0  0  0
   -6.4170   24.8060  -29.7360 C   0  0  0  0  0  0  0  0  0  0  0  0
   -5.5340   24.7500  -31.0000 C   0  0  0  0  0  0  0  0  0  0  0  0
   -4.2610   22.6400  -32.9010 C   0  0  0  0  0  0  0  0  0  0  0  0
   -3.4300   21.5370  -33.5850 C   0  0  0  0  0  0  0  0  0  0  0  0
   -2.4760   18.2630  -33.5790 N   0  0  0  0  0  0  0  0  0  0  0  0
   -2.7230   16.9860  -34.0160 C   0  0  0  0  0  0  0  0  0  0  0  0
   -3.9940   16.4880  -34.0220 N   0  0  0  0  0  0  0  0  0  0  0  0
   -5.0050   17.2790  -33.5910 C   0  0  0  0  0  0  0  0  0  0  0  0
   -7.1690   15.1133  -32.9339 H   0  0  0  0  0  0  0  0  0  0  0  0
   -7.8300   15.8187  -34.4479 H   0  0  0  0  0  0  0  0  0  0  0  0
   -6.2041   15.0550  -34.4479 H   0  0  0  0  0  0  0  0  0  0  0  0
   -8.9991   17.3718  -32.9037 H   0  0  0  0  0  0  0  0  0  0  0  0
   -9.7700   19.5629  -31.9303 H   0  0  0  0  0  0  0  0  0  0  0  0
   -8.1286   21.3998  -31.5002 H   0  0  0  0  0  0  0  0  0  0  0  0
   -5.6891   21.0747  -32.0334 H   0  0  0  0  0  0  0  0  0  0  0  0
   -3.3398   20.0293  -30.6213 H   0  0  0  0  0  0  0  0  0  0  0  0
   -1.6636   20.2335  -31.2687 H   0  0  0  0  0  0  0  0  0  0  0  0
   -2.6111   22.1703  -29.8378 H   0  0  0  0  0  0  0  0  0  0  0  0
   -1.8942   22.5989  -31.4276 H   0  0  0  0  0  0  0  0  0  0  0  0
   -4.8742   22.0891  -30.9436 H   0  0  0  0  0  0  0  0  0  0  0  0
   -2.8888   23.4798  -29.2748 H   0  0  0  0  0  0  0  0  0  0  0  0
   -3.1603   25.2637  -29.4461 H   0  0  0  0  0  0  0  0  0  0  0  0
   -5.1385   23.2281  -28.3173 H   0  0  0  0  0  0  0  0  0  0  0  0
   -4.1988   24.4465  -27.3847 H   0  0  0  0  0  0  0  0  0  0  0  0
   -6.8497   23.8102  -29.5596 H   0  0  0  0  0  0  0  0  0  0  0  0
   -7.2046   25.5557  -29.9023 H   0  0  0  0  0  0  0  0  0  0  0  0
   -6.0868   24.2163  -31.7871 H   0  0  0  0  0  0  0  0  0  0  0  0
   -5.3056   25.7888  -31.2805 H   0  0  0  0  0  0  0  0  0  0  0  0
   -5.3251   22.4527  -33.1073 H   0  0  0  0  0  0  0  0  0  0  0  0
   -3.9200   23.6026  -33.3099 H   0  0  0  0  0  0  0  0  0  0  0  0
   -3.9700   21.1839  -34.4759 H   0  0  0  0  0  0  0  0  0  0  0  0
   -2.4537   21.9625  -33.8604 H   0  0  0  0  0  0  0  0  0  0  0  0
   -1.4940   18.6210  -33.5830 H   0  0  0  0  0  0  0  0  0  0  0  0
   -1.8897   16.3582  -34.3645 H   0  0  0  0  0  0  0  0  0  0  0  0
  1  2  1  0
  2  3  1  0
  3  4  2  0
  4  5  1  0
  5  6  2  0
  6  7  1  0
  7  8  2  0
  8  9  1  0
  9 10  2  0
 10 11  1  0
 11 12  1  0
 12 13  1  0
 13 14  1  0
 14 15  1  0
 15 16  1  0
 16 17  1  0
 17 18  1  0
 18 19  1  0
 19 20  1  0
 14 21  1  0
 21 22  1  0
 10 23  1  0
 23 24  2  0
 24 25  1  0
 25 26  2  0
 26  2  1  0
  8  3  1  0
 26  9  1  0
 22 11  1  0
 20 15  1  0
  1 27  1  0
  1 28  1  0
  1 29  1  0
  4 30  1  0
  5 31  1  0
  6 32  1  0
  7 33  1  0
 12 34  1  0
 12 35  1  0
 13 36  1  0
 13 37  1  0
 14 38  1  0
 16 39  1  0
 16 40  1  0
 17 41  1  0
 17 42  1  0
 19 43  1  0
 19 44  1  0
 20 45  1  0
 20 46  1  0
 21 47  1  0
 21 48  1  0
 22 49  1  0
 22 50  1  0
 23 51  1  0
 24 52  1  0
M  CHG  1  23   1
M  END
>  <UniqueID>  (27) 
26

>  <SMILES>  (27) 
Cn1c2ccccc2c2c(N3CCC(N4CCOCC4)CC3)[nH+]cnc21

>  <Energy>  (27) 
122.01873662495589

>  <Genealogy>  (27) 
Cn1c2ccccc2c2c(N3CCC(N4CCOCC4)CC3)[nH+]cnc21 (protonated)
Cn1c2ccccc2c2c(N3CCC(N4CCOCC4)CC3)[nH+]cnc21 (3D coordinates assigned)
Cn1c2ccccc2c2c(N3CCC(N4CCOCC4)CC3)[nH+]cnc21 (nonaromatic ring conformer: 122.01873662495589 kcal/mol)

>  <smiles>  (27) 
Cn1c2ccccc2c2c(N3CCC(N4CCOCC4)CC3)ncnc21

>  <score_type>  (27) 
oracle

>  <origin>  (27) 
adg

>  <m_score__min__energy>  (27) 
-7.6200000000000001

>  <m_primary>  (27) 
energy

$$$$
27:0
     RDKit          3D

 37 40  0  0  0  0  0  0  0  0999 V2000
   -9.0250   18.5950  -31.2260 C   0  0  0  0  0  0  0  0  0  0  0  0
   -8.6760   18.5410  -32.7090 C   0  0  0  0  0  0  0  0  0  0  0  0
   -7.3740   19.1670  -32.9560 N   0  0  0  0  0  0  0  0  0  0  0  0
   -6.1700   18.6000  -33.2560 C   0  0  0  0  0  0  0  0  0  0  0  0
   -5.9120   17.1540  -33.3700 C   0  0  0  0  0  0  0  0  0  0  0  0
   -4.9910   16.4920  -32.5430 C   0  0  0  0  0  0  0  0  0  0  0  0
   -4.9140   15.1270  -32.7750 C   0  0  0  0  0  0  0  0  0  0  0  0
   -6.0130   14.7430  -33.9850 S   0  0  0  0  0  0  0  0  0  0  0  0
   -6.5890   16.3010  -34.2380 C   0  0  0  0  0  0  0  0  0  0  0  0
   -5.1760   19.5160  -33.3960 N   0  0  0  0  0  0  0  0  0  0  0  0
   -5.8250   20.6860  -33.2620 C   0  0  0  0  0  0  0  0  0  0  0  0
   -7.1240   20.4850  -33.0010 C   0  0  0  0  0  0  0  0  0  0  0  0
   -7.7010   21.5860  -32.1970 C   0  0  0  0  0  0  0  0  0  0  0  0
   -6.5530   22.4970  -32.0480 N   0  0  0  0  0  0  0  0  0  0  0  0
   -6.5150   23.5970  -31.1210 C   0  0  0  0  0  0  0  0  0  0  0  0
   -7.5850   24.1920  -30.8230 O   0  0  0  0  0  0  0  0  0  0  0  0
   -5.2550   24.0670  -30.5170 C   0  0  0  0  0  0  0  0  0  0  0  0
   -4.4290   23.3310  -29.6930 C   0  0  0  0  0  0  0  0  0  0  0  0
   -3.3500   24.1460  -29.4210 C   0  0  0  0  0  0  0  0  0  0  0  0
   -3.4910   25.2910  -30.0490 O   0  0  0  0  0  0  0  0  0  0  0  0
   -4.6180   25.2750  -30.7230 C   0  0  0  0  0  0  0  0  0  0  0  0
   -5.3380   21.9510  -32.6740 C   0  0  0  0  0  0  0  0  0  0  0  0
   -8.1119   18.4537  -30.6291 H   0  0  0  0  0  0  0  0  0  0  0  0
   -9.4701   19.5727  -30.9894 H   0  0  0  0  0  0  0  0  0  0  0  0
   -9.7448   17.7975  -30.9894 H   0  0  0  0  0  0  0  0  0  0  0  0
   -8.6395   17.4907  -33.0337 H   0  0  0  0  0  0  0  0  0  0  0  0
   -9.4451   19.0877  -33.2743 H   0  0  0  0  0  0  0  0  0  0  0  0
   -4.3869   17.0078  -31.7821 H   0  0  0  0  0  0  0  0  0  0  0  0
   -4.2494   14.4198  -32.2571 H   0  0  0  0  0  0  0  0  0  0  0  0
   -7.3638   16.5952  -34.9613 H   0  0  0  0  0  0  0  0  0  0  0  0
   -8.5316   22.0745  -32.7276 H   0  0  0  0  0  0  0  0  0  0  0  0
   -8.1299   21.2558  -31.2394 H   0  0  0  0  0  0  0  0  0  0  0  0
   -4.5962   22.3067  -29.3285 H   0  0  0  0  0  0  0  0  0  0  0  0
   -2.5003   23.8778  -28.7760 H   0  0  0  0  0  0  0  0  0  0  0  0
   -4.9952   26.0945  -31.3524 H   0  0  0  0  0  0  0  0  0  0  0  0
   -4.9517   22.6279  -33.4503 H   0  0  0  0  0  0  0  0  0  0  0  0
   -4.5036   21.8159  -31.9700 H   0  0  0  0  0  0  0  0  0  0  0  0
  1  2  1  0
  2  3  1  0
  3  4  1  0
  4  5  1  0
  5  6  1  0
  6  7  2  0
  7  8  1  0
  8  9  1  0
  4 10  2  0
 10 11  1  0
 11 12  2  0
 12 13  1  0
 13 14  1  0
 14 15  1  0
 15 16  2  0
 15 17  1  0
 17 18  1  0
 18 19  2  0
 19 20  1  0
 20 21  1  0
 14 22  1  0
 12  3  1  0
 21 17  2  0
  9  5  2  0
 22 11  1  0
  1 23  1  0
  1 24  1  0
  1 25  1  0
  2 26  1  0
  2 27  1  0
  6 28  1  0
  7 29  1  0
  9 30  1  0
 13 31  1  0
 13 32  1  0
 18 33  1  0
 19 34  1  0
 21 35  1  0
 22 36  1  0
 22 37  1  0
M  END
>  <UniqueID>  (28) 
27

>  <SMILES>  (28) 
CCn1c(-c2ccsc2)nc2c1CN(C(=O)c1ccoc1)C2

>  <Energy>  (28) 
153.81555953503158

>  <Genealogy>  (28) 
CCn1c(-c2ccsc2)nc2c1CN(C(=O)c1ccoc1)C2 (3D coordinates assigned)
CCn1c(-c2ccsc2)nc2c1CN(C(=O)c1ccoc1)C2 (nonaromatic ring conformer: 153.81555953503158 kcal/mol)

>  <smiles>  (28) 
CCn1c(-c2ccsc2)nc2c1CN(C(=O)c1ccoc1)C2

>  <score_type>  (28) 
oracle

>  <origin>  (28) 
adg

>  <m_score__min__energy>  (28) 
-7.5499999999999998

>  <m_primary>  (28) 
energy

$$$$
28:0
     RDKit          3D

 34 37  0  0  0  0  0  0  0  0999 V2000
   -2.2640   24.5450  -28.9810 C   0  0  0  0  0  0  0  0  0  0  0  0
   -3.1090   24.9240  -30.0630 O   0  0  0  0  0  0  0  0  0  0  0  0
   -4.3300   24.3050  -30.3760 C   0  0  0  0  0  0  0  0  0  0  0  0
   -5.5000   24.8810  -29.8850 C   0  0  0  0  0  0  0  0  0  0  0  0
   -6.7380   24.3110  -30.1630 C   0  0  0  0  0  0  0  0  0  0  0  0
   -6.8280   23.1490  -30.9440 C   0  0  0  0  0  0  0  0  0  0  0  0
   -8.0820   22.5970  -31.2090 C   0  0  0  0  0  0  0  0  0  0  0  0
   -8.2220   21.4670  -31.9610 N   0  0  0  0  0  0  0  0  0  0  0  0
   -9.5850   20.9570  -32.1890 C   0  0  0  0  0  0  0  0  0  0  0  0
   -7.1170   20.8330  -32.4870 C   0  0  0  0  0  0  0  0  0  0  0  0
   -7.2590   19.6540  -33.2730 C   0  0  0  0  0  0  0  0  0  0  0  0
   -6.1220   19.0480  -33.7820 C   0  0  0  0  0  0  0  0  0  0  0  0
   -4.8870   19.5380  -33.5560 C   0  0  0  0  0  0  0  0  0  0  0  0
   -4.6720   20.6800  -32.8020 C   0  0  0  0  0  0  0  0  0  0  0  0
   -5.7960   21.3590  -32.2450 C   0  0  0  0  0  0  0  0  0  0  0  0
   -5.6610   22.5380  -31.4580 C   0  0  0  0  0  0  0  0  0  0  0  0
   -4.4100   23.1380  -31.1600 C   0  0  0  0  0  0  0  0  0  0  0  0
   -3.9510   18.7360  -34.1800 O   0  0  0  0  0  0  0  0  0  0  0  0
   -4.6480   17.6710  -34.8400 C   0  0  0  0  0  0  0  0  0  0  0  0
   -6.0350   17.9100  -34.5600 O   0  0  0  0  0  0  0  0  0  0  0  0
   -2.7654   24.7699  -28.0281 H   0  0  0  0  0  0  0  0  0  0  0  0
   -2.0546   23.4667  -29.0396 H   0  0  0  0  0  0  0  0  0  0  0  0
   -1.3194   25.1057  -29.0396 H   0  0  0  0  0  0  0  0  0  0  0  0
   -5.4442   25.7933  -29.2730 H   0  0  0  0  0  0  0  0  0  0  0  0
   -7.6536   24.7749  -29.7674 H   0  0  0  0  0  0  0  0  0  0  0  0
   -8.9798   23.0849  -30.8016 H   0  0  0  0  0  0  0  0  0  0  0  0
  -10.0746   20.7738  -31.2212 H   0  0  0  0  0  0  0  0  0  0  0  0
  -10.1639   21.6994  -32.7580 H   0  0  0  0  0  0  0  0  0  0  0  0
   -9.5344   20.0170  -32.7580 H   0  0  0  0  0  0  0  0  0  0  0  0
   -8.2548   19.2316  -33.4726 H   0  0  0  0  0  0  0  0  0  0  0  0
   -3.6520   21.0568  -32.6357 H   0  0  0  0  0  0  0  0  0  0  0  0
   -3.4866   22.6835  -31.5482 H   0  0  0  0  0  0  0  0  0  0  0  0
   -4.4613   17.6990  -35.9237 H   0  0  0  0  0  0  0  0  0  0  0  0
   -4.3191   16.6811  -34.4909 H   0  0  0  0  0  0  0  0  0  0  0  0
  1  2  1  0
  2  3  1  0
  3  4  2  0
  4  5  1  0
  5  6  2  0
  6  7  1  0
  7  8  2  0
  8  9  1  0
  8 10  1  0
 10 11  2  0
 11 12  1  0
 12 13  2  0
 13 14  1  0
 14 15  2  0
 15 16  1  0
 16 17  2  0
 13 18  1  0
 18 19  1  0
 19 20  1  0
 17  3  1  0
 16  6  1  0
 15 10  1  0
 20 12  1  0
  1 21  1  0
  1 22  1  0
  1 23  1  0
  4 24  1  0
  5 25  1  0
  7 26  1  0
  9 27  1  0
  9 28  1  0
  9 29  1  0
 11 30  1  0
 14 31  1  0
 17 32  1  0
 19 33  1  0
 19 34  1  0
M  CHG  1   8   1
M  END
>  <UniqueID>  (29) 
28

>  <SMILES>  (29) 
COc1ccc2c[n+](C)c3cc4c(cc3c2c1)OCO4

>  <Energy>  (29) 
80.44708731042272

>  <Genealogy>  (29) 
COc1ccc2c[n+](C)c3cc4c(cc3c2c1)OCO4 (3D coordinates assigned)
COc1ccc2c[n+](C)c3cc4c(cc3c2c1)OCO4 (nonaromatic ring conformer: 80.44708731042272 kcal/mol)

>  <smiles>  (29) 
COc1ccc2c[n+](C)c3cc4c(cc3c2c1)OCO4

>  <score_type>  (29) 
oracle

>  <origin>  (29) 
adg

>  <m_score__min__energy>  (29) 
-7.5700000000000003

>  <m_primary>  (29) 
energy

$$$$
29:0
     RDKit          3D

 49 51  0  0  0  0  0  0  0  0999 V2000
   -0.1620   16.2540  -33.0580 C   0  0  0  0  0  0  0  0  0  0  0  0
    0.0790   16.4930  -34.5440 C   0  0  0  0  0  0  0  0  0  0  0  0
   -0.9920   17.2450  -35.1170 O   0  0  0  0  0  0  0  0  0  0  0  0
   -1.6550   18.3200  -34.5030 C   0  0  0  0  0  0  0  0  0  0  0  0
   -2.9410   18.0990  -33.9960 C   0  0  0  0  0  0  0  0  0  0  0  0
   -3.6480   19.1310  -33.3730 C   0  0  0  0  0  0  0  0  0  0  0  0
   -3.0670   20.3990  -33.2320 C   0  0  0  0  0  0  0  0  0  0  0  0
   -3.7980   21.4740  -32.6250 N   0  0  0  0  0  0  0  0  0  0  0  0
   -5.0420   21.7770  -32.9540 N   0  0  0  0  0  0  0  0  0  0  0  0
   -5.4580   22.8020  -32.1900 C   0  0  0  0  0  0  0  0  0  0  0  0
   -4.4100   23.2150  -31.3680 C   0  0  0  0  0  0  0  0  0  0  0  0
   -3.3830   22.3090  -31.6430 C   0  0  0  0  0  0  0  0  0  0  0  0
   -2.0090   22.3110  -31.0340 C   0  0  0  0  0  0  0  0  0  0  0  0
   -4.4500   24.2900  -30.2930 C   0  0  1  0  0  0  0  0  0  0  0  0
   -3.1400   24.9260  -30.1220 N   0  0  0  0  0  0  0  0  0  0  0  0
   -2.2950   24.9330  -28.9580 C   0  0  0  0  0  0  0  0  0  0  0  0
   -2.5170   24.0240  -27.7880 C   0  0  0  0  0  0  0  0  0  0  0  0
   -1.3080   25.7130  -28.9370 O   0  0  0  0  0  0  0  0  0  0  0  0
   -5.5240   25.3680  -30.5480 C   0  0  0  0  0  0  0  0  0  0  0  0
   -6.9540   24.9220  -30.1920 C   0  0  0  0  0  0  0  0  0  0  0  0
   -7.3900   23.5700  -30.7880 C   0  0  0  0  0  0  0  0  0  0  0  0
   -6.8670   23.3290  -32.2110 C   0  0  0  0  0  0  0  0  0  0  0  0
   -1.7880   20.6320  -33.7540 C   0  0  0  0  0  0  0  0  0  0  0  0
   -1.0800   19.6010  -34.3760 C   0  0  0  0  0  0  0  0  0  0  0  0
    0.4979   16.9084  -32.4696 H   0  0  0  0  0  0  0  0  0  0  0  0
   -1.2114   16.4783  -32.8160 H   0  0  0  0  0  0  0  0  0  0  0  0
    0.0535   15.2028  -32.8160 H   0  0  0  0  0  0  0  0  0  0  0  0
    1.0192   17.0494  -34.6720 H   0  0  0  0  0  0  0  0  0  0  0  0
    0.1380   15.5195  -35.0527 H   0  0  0  0  0  0  0  0  0  0  0  0
   -3.3994   17.1034  -34.0889 H   0  0  0  0  0  0  0  0  0  0  0  0
   -4.6635   18.9478  -32.9921 H   0  0  0  0  0  0  0  0  0  0  0  0
   -5.6130   21.2610  -33.6620 H   0  0  0  0  0  0  0  0  0  0  0  0
   -2.0940   22.3109  -29.9373 H   0  0  0  0  0  0  0  0  0  0  0  0
   -1.4624   21.4137  -31.3595 H   0  0  0  0  0  0  0  0  0  0  0  0
   -1.4650   23.2099  -31.3595 H   0  0  0  0  0  0  0  0  0  0  0  0
   -4.7247   23.7672  -29.3650 H   0  0  0  0  0  0  0  0  0  0  0  0
   -2.3792   24.5883  -26.8539 H   0  0  0  0  0  0  0  0  0  0  0  0
   -3.5399   23.6212  -27.8255 H   0  0  0  0  0  0  0  0  0  0  0  0
   -1.7949   23.1950  -27.8255 H   0  0  0  0  0  0  0  0  0  0  0  0
   -5.2767   26.2529  -29.9431 H   0  0  0  0  0  0  0  0  0  0  0  0
   -5.5150   25.5779  -31.6278 H   0  0  0  0  0  0  0  0  0  0  0  0
   -7.0243   24.8490  -29.0967 H   0  0  0  0  0  0  0  0  0  0  0  0
   -7.6252   25.6768  -30.6276 H   0  0  0  0  0  0  0  0  0  0  0  0
   -7.0139   22.7660  -30.1383 H   0  0  0  0  0  0  0  0  0  0  0  0
   -8.4884   23.5817  -30.8455 H   0  0  0  0  0  0  0  0  0  0  0  0
   -7.5166   22.5969  -32.7130 H   0  0  0  0  0  0  0  0  0  0  0  0
   -6.8729   24.2870  -32.7515 H   0  0  0  0  0  0  0  0  0  0  0  0
   -1.3386   21.6328  -33.6736 H   0  0  0  0  0  0  0  0  0  0  0  0
   -0.0697   19.7893  -34.7683 H   0  0  0  0  0  0  0  0  0  0  0  0
  1  2  1  0
  2  3  1  0
  3  4  1  0
  4  5  2  0
  5  6  1  0
  6  7  2  0
  7  8  1  0
  8  9  1  0
  9 10  2  0
 10 11  1  0
 11 12  2  0
 12 13  1  0
 11 14  1  0
 14 15  1  0
 15 16  1  0
 16 17  1  0
 16 18  2  0
 14 19  1  0
 19 20  1  0
 20 21  1  0
 21 22  1  0
  7 23  1  0
 23 24  2  0
 24  4  1  0
 12  8  1  0
 22 10  1  0
  1 25  1  0
  1 26  1  0
  1 27  1  0
  2 28  1  0
  2 29  1  0
  5 30  1  0
  6 31  1  0
  9 32  1  0
 13 33  1  0
 13 34  1  0
 13 35  1  0
 14 36  1  1
 17 37  1  0
 17 38  1  0
 17 39  1  0
 19 40  1  0
 19 41  1  0
 20 42  1  0
 20 43  1  0
 21 44  1  0
 21 45  1  0
 22 46  1  0
 22 47  1  0
 23 48  1  0
 24 49  1  0
M  CHG  2   9   1  15  -1
M  END
>  <UniqueID>  (30) 
29

>  <SMILES>  (30) 
CCOc1ccc(-n2[nH+]c3c(c2C)[C@@H]([N-]C(C)=O)CCCC3)cc1

>  <Energy>  (30) 
86.65595564976603

>  <Genealogy>  (30) 
CCOc1ccc(-n2[nH+]c3c(c2C)C([N-]C(C)=O)CCCC3)cc1 (protonated)
CCOc1ccc(-n2[nH+]c3c(c2C)[C@@H]([N-]C(C)=O)CCCC3)cc1 (chirality)
CCOc1ccc(-n2[nH+]c3c(c2C)[C@@H]([N-]C(C)=O)CCCC3)cc1 (3D coordinates assigned)
CCOc1ccc(-n2[nH+]c3c(c2C)[C@@H]([N-]C(C)=O)CCCC3)cc1 (nonaromatic ring conformer: 86.65595564976603 kcal/mol)

>  <smiles>  (30) 
CCOc1ccc(-n2nc3c(c2C)C(NC(C)=O)CCCC3)cc1

>  <score_type>  (30) 
oracle

>  <origin>  (30) 
adg

>  <m_score__min__energy>  (30) 
-7.21

>  <m_primary>  (30) 
energy

$$$$
30:0
     RDKit          3D

 41 43  0  0  0  0  0  0  0  0999 V2000
   -3.8360   23.0590  -28.9200 C   0  0  0  0  0  0  0  0  0  0  0  0
   -3.0140   23.8580  -29.9250 C   0  0  0  0  0  0  0  0  0  0  0  0
   -3.8030   24.8910  -30.4880 O   0  0  0  0  0  0  0  0  0  0  0  0
   -5.1350   24.8040  -30.0270 C   0  0  0  0  0  0  0  0  0  0  0  0
   -6.0750   24.7370  -31.2280 C   0  0  0  0  0  0  0  0  0  0  0  0
   -6.1310   23.3740  -31.7540 N   0  0  0  0  0  0  0  0  0  0  0  0
   -5.0700   22.6370  -32.1580 C   0  0  0  0  0  0  0  0  0  0  0  0
   -5.4800   21.3610  -32.5340 C   0  0  0  0  0  0  0  0  0  0  0  0
   -4.5980   20.2880  -33.0320 C   0  0  0  0  0  0  0  0  0  0  0  0
   -3.3820   20.5520  -33.2380 O   0  0  0  0  0  0  0  0  0  0  0  0
   -5.0880   18.9150  -33.2880 C   0  0  0  0  0  0  0  0  0  0  0  0
   -4.9600   18.3620  -34.5740 C   0  0  0  0  0  0  0  0  0  0  0  0
   -5.4150   17.0660  -34.8350 C   0  0  0  0  0  0  0  0  0  0  0  0
   -5.9900   16.3070  -33.8140 C   0  0  0  0  0  0  0  0  0  0  0  0
   -6.1030   16.8380  -32.5270 C   0  0  0  0  0  0  0  0  0  0  0  0
   -5.6500   18.1340  -32.2570 C   0  0  0  0  0  0  0  0  0  0  0  0
   -5.7370   18.6090  -30.9880 F   0  0  0  0  0  0  0  0  0  0  0  0
   -6.8570   21.3420  -32.3580 C   0  0  0  0  0  0  0  0  0  0  0  0
   -7.8110   20.3560  -32.6200 C   0  0  0  0  0  0  0  0  0  0  0  0
   -9.1570   20.6460  -32.3360 C   0  0  0  0  0  0  0  0  0  0  0  0
   -9.5220   21.9040  -31.8120 C   0  0  0  0  0  0  0  0  0  0  0  0
   -8.5460   22.8880  -31.5760 C   0  0  0  0  0  0  0  0  0  0  0  0
   -7.2150   22.5770  -31.8700 C   0  0  0  0  0  0  0  0  0  0  0  0
   -3.5435   23.3434  -27.8985 H   0  0  0  0  0  0  0  0  0  0  0  0
   -4.9048   23.2726  -29.0682 H   0  0  0  0  0  0  0  0  0  0  0  0
   -3.6528   21.9845  -29.0682 H   0  0  0  0  0  0  0  0  0  0  0  0
   -2.1457   24.3005  -29.4148 H   0  0  0  0  0  0  0  0  0  0  0  0
   -2.6747   23.1864  -30.7274 H   0  0  0  0  0  0  0  0  0  0  0  0
   -5.2545   23.8982  -29.4145 H   0  0  0  0  0  0  0  0  0  0  0  0
   -5.3749   25.6874  -29.4171 H   0  0  0  0  0  0  0  0  0  0  0  0
   -7.0834   25.0476  -30.9171 H   0  0  0  0  0  0  0  0  0  0  0  0
   -5.6991   25.4084  -32.0141 H   0  0  0  0  0  0  0  0  0  0  0  0
   -4.0305   22.9957  -32.1853 H   0  0  0  0  0  0  0  0  0  0  0  0
   -4.4992   18.9524  -35.3797 H   0  0  0  0  0  0  0  0  0  0  0  0
   -5.3198   16.6438  -35.8463 H   0  0  0  0  0  0  0  0  0  0  0  0
   -6.3542   15.2903  -34.0232 H   0  0  0  0  0  0  0  0  0  0  0  0
   -6.5498   16.2350  -31.7228 H   0  0  0  0  0  0  0  0  0  0  0  0
   -7.5177   19.3810  -33.0364 H   0  0  0  0  0  0  0  0  0  0  0  0
   -9.9307   19.8870  -32.5236 H   0  0  0  0  0  0  0  0  0  0  0  0
  -10.5775   22.1164  -31.5865 H   0  0  0  0  0  0  0  0  0  0  0  0
   -8.8214   23.8734  -31.1720 H   0  0  0  0  0  0  0  0  0  0  0  0
  1  2  1  0
  2  3  1  0
  3  4  1  0
  4  5  1  0
  5  6  1  0
  6  7  1  0
  7  8  2  0
  8  9  1  0
  9 10  2  0
  9 11  1  0
 11 12  2  0
 12 13  1  0
 13 14  2  0
 14 15  1  0
 15 16  2  0
 16 17  1  0
  8 18  1  0
 18 19  2  0
 19 20  1  0
 20 21  2  0
 21 22  1  0
 22 23  2  0
 23  6  1  0
 16 11  1  0
 23 18  1  0
  1 24  1  0
  1 25  1  0
  1 26  1  0
  2 27  1  0
  2 28  1  0
  4 29  1  0
  4 30  1  0
  5 31  1  0
  5 32  1  0
  7 33  1  0
 12 34  1  0
 13 35  1  0
 14 36  1  0
 15 37  1  0
 19 38  1  0
 20 39  1  0
 21 40  1  0
 22 41  1  0
M  END
>  <UniqueID>  (31) 
30

>  <SMILES>  (31) 
CCOCCn1cc(C(=O)c2ccccc2F)c2ccccc21

>  <Energy>  (31) 
80.03306326373159

>  <Genealogy>  (31) 
CCOCCn1cc(C(=O)c2ccccc2F)c2ccccc21 (3D coordinates assigned)
CCOCCn1cc(C(=O)c2ccccc2F)c2ccccc21 (optimized conformer: 80.03306326373159 kcal/mol)

>  <smiles>  (31) 
CCOCCn1cc(C(=O)c2ccccc2F)c2ccccc21

>  <score_type>  (31) 
oracle

>  <origin>  (31) 
adg

>  <m_score__min__energy>  (31) 
-8.6199999999999992

>  <m_primary>  (31) 
energy

$$$$
31:0
     RDKit          3D

 63 65  0  0  0  0  0  0  0  0999 V2000
   -5.7730   14.5970  -33.9640 C   0  0  0  0  0  0  0  0  0  0  0  0
   -6.3670   15.7460  -34.5610 O   0  0  0  0  0  0  0  0  0  0  0  0
   -6.4780   16.9960  -33.9330 C   0  0  0  0  0  0  0  0  0  0  0  0
   -5.8460   18.0950  -34.5240 C   0  0  0  0  0  0  0  0  0  0  0  0
   -5.9100   19.3570  -33.9300 C   0  0  0  0  0  0  0  0  0  0  0  0
   -6.6150   19.5420  -32.7290 C   0  0  0  0  0  0  0  0  0  0  0  0
   -6.6750   20.8380  -32.1020 N   0  0  0  0  0  0  0  0  0  0  0  0
   -7.4850   21.0030  -30.8900 C   0  0  0  0  0  0  0  0  0  0  0  0
   -7.9800   22.4460  -30.7730 C   0  0  0  0  0  0  0  0  0  0  0  0
   -6.8390   23.3670  -30.9060 N   0  0  0  0  0  0  0  0  0  0  0  0
   -7.1030   24.7590  -30.4720 C   0  0  0  0  0  0  0  0  0  0  0  0
   -5.8930   25.5670  -29.9410 C   0  0  1  0  0  0  0  0  0  0  0  0
   -5.6890   25.1890  -28.6020 O   0  0  0  0  0  0  0  0  0  0  0  0
   -4.6090   25.3270  -30.7680 C   0  0  0  0  0  0  0  0  0  0  0  0
   -3.4930   24.9990  -29.9350 O   0  0  0  0  0  0  0  0  0  0  0  0
   -2.8420   23.7520  -29.8710 C   0  0  0  0  0  0  0  0  0  0  0  0
   -3.0140   22.7710  -30.8720 C   0  0  0  0  0  0  0  0  0  0  0  0
   -2.3800   21.5240  -30.7710 C   0  0  0  0  0  0  0  0  0  0  0  0
   -2.5470   20.4990  -31.8540 C   0  0  0  0  0  0  0  0  0  0  0  0
   -1.5430   21.2620  -29.6820 C   0  0  0  0  0  0  0  0  0  0  0  0
   -1.3600   22.2230  -28.6880 C   0  0  0  0  0  0  0  0  0  0  0  0
   -1.9990   23.4760  -28.7680 C   0  0  0  0  0  0  0  0  0  0  0  0
   -1.8110   24.4930  -27.6500 C   0  0  0  0  0  0  0  0  0  0  0  0
   -1.2310   25.8030  -28.2000 C   0  0  0  0  0  0  0  0  0  0  0  0
   -3.1210   24.7440  -26.8910 C   0  0  0  0  0  0  0  0  0  0  0  0
   -6.1920   23.2450  -32.2240 C   0  0  0  0  0  0  0  0  0  0  0  0
   -5.6300   21.8320  -32.3830 C   0  0  0  0  0  0  0  0  0  0  0  0
   -7.2590   18.4450  -32.1390 C   0  0  0  0  0  0  0  0  0  0  0  0
   -7.1930   17.1810  -32.7350 C   0  0  0  0  0  0  0  0  0  0  0  0
   -5.8197   14.6873  -32.8687 H   0  0  0  0  0  0  0  0  0  0  0  0
   -6.3182   13.6958  -34.2812 H   0  0  0  0  0  0  0  0  0  0  0  0
   -4.7225   14.5207  -34.2812 H   0  0  0  0  0  0  0  0  0  0  0  0
   -5.2932   17.9638  -35.4659 H   0  0  0  0  0  0  0  0  0  0  0  0
   -5.4055   20.2113  -34.4051 H   0  0  0  0  0  0  0  0  0  0  0  0
   -8.3503   20.3255  -30.9371 H   0  0  0  0  0  0  0  0  0  0  0  0
   -6.8667   20.7651  -30.0119 H   0  0  0  0  0  0  0  0  0  0  0  0
   -8.7104   22.6491  -31.5700 H   0  0  0  0  0  0  0  0  0  0  0  0
   -8.4577   22.5921  -29.7930 H   0  0  0  0  0  0  0  0  0  0  0  0
   -7.5143   25.3040  -31.3345 H   0  0  0  0  0  0  0  0  0  0  0  0
   -7.7866   24.6682  -29.6150 H   0  0  0  0  0  0  0  0  0  0  0  0
   -6.1138   26.6413  -30.0256 H   0  0  0  0  0  0  0  0  0  0  0  0
   -4.8130   25.5590  -28.3220 H   0  0  0  0  0  0  0  0  0  0  0  0
   -4.7865   24.4973  -31.4681 H   0  0  0  0  0  0  0  0  0  0  0  0
   -4.3714   26.2559  -31.3071 H   0  0  0  0  0  0  0  0  0  0  0  0
   -3.6527   22.9873  -31.7411 H   0  0  0  0  0  0  0  0  0  0  0  0
   -2.7082   19.5097  -31.4008 H   0  0  0  0  0  0  0  0  0  0  0  0
   -3.4141   20.7624  -32.4776 H   0  0  0  0  0  0  0  0  0  0  0  0
   -1.6412   20.4735  -32.4776 H   0  0  0  0  0  0  0  0  0  0  0  0
   -1.0265   20.2935  -29.6090 H   0  0  0  0  0  0  0  0  0  0  0  0
   -0.7083   21.9997  -27.8304 H   0  0  0  0  0  0  0  0  0  0  0  0
   -1.0913   24.0732  -26.9318 H   0  0  0  0  0  0  0  0  0  0  0  0
   -0.9419   26.4559  -27.3632 H   0  0  0  0  0  0  0  0  0  0  0  0
   -0.3464   25.5825  -28.8155 H   0  0  0  0  0  0  0  0  0  0  0  0
   -1.9889   26.3097  -28.8155 H   0  0  0  0  0  0  0  0  0  0  0  0
   -2.9302   24.7074  -25.8083 H   0  0  0  0  0  0  0  0  0  0  0  0
   -3.5169   25.7343  -27.1603 H   0  0  0  0  0  0  0  0  0  0  0  0
   -3.8549   23.9701  -27.1603 H   0  0  0  0  0  0  0  0  0  0  0  0
   -6.9314   23.4374  -33.0154 H   0  0  0  0  0  0  0  0  0  0  0  0
   -5.3748   23.9772  -32.3022 H   0  0  0  0  0  0  0  0  0  0  0  0
   -5.2683   21.6982  -33.4132 H   0  0  0  0  0  0  0  0  0  0  0  0
   -4.8007   21.6926  -31.6739 H   0  0  0  0  0  0  0  0  0  0  0  0
   -7.8194   18.5791  -31.2020 H   0  0  0  0  0  0  0  0  0  0  0  0
   -7.7027   16.3272  -32.2647 H   0  0  0  0  0  0  0  0  0  0  0  0
  1  2  1  0
  2  3  1  0
  3  4  2  0
  4  5  1  0
  5  6  2  0
  6  7  1  0
  7  8  1  0
  8  9  1  0
  9 10  1  0
 10 11  1  0
 11 12  1  0
 12 13  1  0
 12 14  1  0
 14 15  1  0
 15 16  1  0
 16 17  2  0
 17 18  1  0
 18 19  1  0
 18 20  2  0
 20 21  1  0
 21 22  2  0
 22 23  1  0
 23 24  1  0
 23 25  1  0
 10 26  1  0
 26 27  1  0
  6 28  1  0
 28 29  2  0
 29  3  1  0
 27  7  1  0
 22 16  1  0
  1 30  1  0
  1 31  1  0
  1 32  1  0
  4 33  1  0
  5 34  1  0
  8 35  1  0
  8 36  1  0
  9 37  1  0
  9 38  1  0
 11 39  1  0
 11 40  1  0
 12 41  1  1
 13 42  1  0
 14 43  1  0
 14 44  1  0
 17 45  1  0
 19 46  1  0
 19 47  1  0
 19 48  1  0
 20 49  1  0
 21 50  1  0
 23 51  1  0
 24 52  1  0
 24 53  1  0
 24 54  1  0
 25 55  1  0
 25 56  1  0
 25 57  1  0
 26 58  1  0
 26 59  1  0
 27 60  1  0
 27 61  1  0
 28 62  1  0
 29 63  1  0
M  END
>  <UniqueID>  (32) 
31

>  <SMILES>  (32) 
COc1ccc(N2CCN(C[C@@H](O)COc3cc(C)ccc3C(C)C)CC2)cc1

>  <Energy>  (32) 
71.0610092027754

>  <Genealogy>  (32) 
COc1ccc(N2CCN(C[C@@H](O)COc3cc(C)ccc3C(C)C)CC2)cc1 (chirality)
COc1ccc(N2CCN(C[C@@H](O)COc3cc(C)ccc3C(C)C)CC2)cc1 (3D coordinates assigned)
COc1ccc(N2CCN(C[C@@H](O)COc3cc(C)ccc3C(C)C)CC2)cc1 (nonaromatic ring conformer: 71.0610092027754 kcal/mol)

>  <smiles>  (32) 
COc1ccc(N2CCN(CC(O)COc3cc(C)ccc3C(C)C)CC2)cc1

>  <score_type>  (32) 
oracle

>  <origin>  (32) 
adg

>  <m_score__min__energy>  (32) 
-8.9399999999999995

>  <m_primary>  (32) 
energy

$$$$
32:0
     RDKit          3D

 53 56  0  0  0  0  0  0  0  0999 V2000
   -5.7090   24.5470  -31.1600 C   0  0  0  0  0  0  0  0  0  0  0  0
   -4.4320   23.9720  -30.5500 C   0  0  0  0  0  0  0  0  0  0  0  0
   -3.9090   22.8640  -31.3800 N   0  0  0  0  0  0  0  0  0  0  0  0
   -3.8970   21.6020  -30.6130 C   0  0  0  0  0  0  0  0  0  0  0  0
   -4.7150   22.7080  -32.6100 C   0  0  0  0  0  0  0  0  0  0  0  0
   -4.7360   21.2640  -33.0460 C   0  0  0  0  0  0  0  0  0  0  0  0
   -5.7840   20.3480  -32.9440 C   0  0  0  0  0  0  0  0  0  0  0  0
   -7.1680   20.6150  -32.5090 C   0  0  0  0  0  0  0  0  0  0  0  0
   -8.1620   19.6460  -32.7130 C   0  0  0  0  0  0  0  0  0  0  0  0
   -9.4810   19.8960  -32.3220 C   0  0  0  0  0  0  0  0  0  0  0  0
   -9.8180   21.1200  -31.7400 C   0  0  0  0  0  0  0  0  0  0  0  0
   -8.8390   22.0990  -31.5540 C   0  0  0  0  0  0  0  0  0  0  0  0
   -7.5190   21.8530  -31.9440 C   0  0  0  0  0  0  0  0  0  0  0  0
   -5.3460   19.1070  -33.2720 N   0  0  0  0  0  0  0  0  0  0  0  0
   -4.0470   19.3020  -33.5760 C   0  0  0  0  0  0  0  0  0  0  0  0
   -3.1390   18.3240  -33.9600 C   0  0  0  0  0  0  0  0  0  0  0  0
   -1.8470   18.6980  -34.1970 N   0  0  0  0  0  0  0  0  0  0  0  0
   -1.4350   20.0020  -34.0580 C   0  0  0  0  0  0  0  0  0  0  0  0
   -0.0190   20.3750  -34.3040 C   0  0  0  0  0  0  0  0  0  0  0  0
    1.0200   19.6890  -33.6540 C   0  0  0  0  0  0  0  0  0  0  0  0
    2.3530   20.0390  -33.8810 C   0  0  0  0  0  0  0  0  0  0  0  0
    2.6760   21.0790  -34.7600 C   0  0  0  0  0  0  0  0  0  0  0  0
    4.0300   21.3920  -34.9550 O   0  0  0  0  0  0  0  0  0  0  0  0
    5.0630   20.4280  -35.1230 C   0  0  0  0  0  0  0  0  0  0  0  0
    1.6400   21.7690  -35.4150 C   0  0  0  0  0  0  0  0  0  0  0  0
    0.3050   21.4200  -35.1880 C   0  0  0  0  0  0  0  0  0  0  0  0
   -2.3760   20.9780  -33.6660 C   0  0  0  0  0  0  0  0  0  0  0  0
   -3.6530   20.5760  -33.4490 N   0  0  0  0  0  0  0  0  0  0  0  0
   -6.3931   24.8551  -30.3556 H   0  0  0  0  0  0  0  0  0  0  0  0
   -5.4580   25.4190  -31.7818 H   0  0  0  0  0  0  0  0  0  0  0  0
   -6.1955   23.7811  -31.7818 H   0  0  0  0  0  0  0  0  0  0  0  0
   -3.6728   24.7655  -30.4870 H   0  0  0  0  0  0  0  0  0  0  0  0
   -4.6627   23.5841  -29.5468 H   0  0  0  0  0  0  0  0  0  0  0  0
   -3.8991   21.8273  -29.5363 H   0  0  0  0  0  0  0  0  0  0  0  0
   -4.7896   21.0108  -30.8657 H   0  0  0  0  0  0  0  0  0  0  0  0
   -2.9934   21.0279  -30.8657 H   0  0  0  0  0  0  0  0  0  0  0  0
   -5.7444   23.0422  -32.4135 H   0  0  0  0  0  0  0  0  0  0  0  0
   -4.2663   23.3155  -33.4098 H   0  0  0  0  0  0  0  0  0  0  0  0
   -7.9026   18.6856  -33.1825 H   0  0  0  0  0  0  0  0  0  0  0  0
  -10.2539   19.1280  -32.4729 H   0  0  0  0  0  0  0  0  0  0  0  0
  -10.8549   21.3133  -31.4279 H   0  0  0  0  0  0  0  0  0  0  0  0
   -9.1069   23.0646  -31.1002 H   0  0  0  0  0  0  0  0  0  0  0  0
   -6.7530   22.6307  -31.8082 H   0  0  0  0  0  0  0  0  0  0  0  0
   -3.4522   17.2753  -34.0704 H   0  0  0  0  0  0  0  0  0  0  0  0
   -1.1730   17.9620  -34.5050 H   0  0  0  0  0  0  0  0  0  0  0  0
    0.7819   18.8692  -32.9603 H   0  0  0  0  0  0  0  0  0  0  0  0
    3.1558   19.4925  -33.3644 H   0  0  0  0  0  0  0  0  0  0  0  0
    5.4187   20.0960  -34.1365 H   0  0  0  0  0  0  0  0  0  0  0  0
    4.6717   19.5647  -35.6812 H   0  0  0  0  0  0  0  0  0  0  0  0
    5.8972   20.8780  -35.6812 H   0  0  0  0  0  0  0  0  0  0  0  0
    1.8812   22.5873  -36.1094 H   0  0  0  0  0  0  0  0  0  0  0  0
   -0.4976   21.9667  -35.7046 H   0  0  0  0  0  0  0  0  0  0  0  0
   -2.0832   22.0309  -33.5405 H   0  0  0  0  0  0  0  0  0  0  0  0
  1  2  1  0
  2  3  1  0
  3  4  1  0
  3  5  1  0
  5  6  1  0
  6  7  2  0
  7  8  1  0
  8  9  2  0
  9 10  1  0
 10 11  2  0
 11 12  1  0
 12 13  2  0
  7 14  1  0
 14 15  2  0
 15 16  1  0
 16 17  2  0
 17 18  1  0
 18 19  1  0
 19 20  2  0
 20 21  1  0
 21 22  2  0
 22 23  1  0
 23 24  1  0
 22 25  1  0
 25 26  2  0
 18 27  2  0
 27 28  1  0
 28  6  1  0
 13  8  1  0
 28 15  1  0
 26 19  1  0
  1 29  1  0
  1 30  1  0
  1 31  1  0
  2 32  1  0
  2 33  1  0
  4 34  1  0
  4 35  1  0
  4 36  1  0
  5 37  1  0
  5 38  1  0
  9 39  1  0
 10 40  1  0
 11 41  1  0
 12 42  1  0
 13 43  1  0
 16 44  1  0
 17 45  1  0
 20 46  1  0
 21 47  1  0
 24 48  1  0
 24 49  1  0
 24 50  1  0
 25 51  1  0
 26 52  1  0
 27 53  1  0
M  CHG  1  17   1
M  END
>  <UniqueID>  (33) 
32

>  <SMILES>  (33) 
CCN(C)Cc1c(-c2ccccc2)nc2c[nH+]c(-c3ccc(OC)cc3)cn12

>  <Energy>  (33) 
100.73173914547507

>  <Genealogy>  (33) 
CCN(C)Cc1c(-c2ccccc2)nc2c[nH+]c(-c3ccc(OC)cc3)cn12 (protonated)
CCN(C)Cc1c(-c2ccccc2)nc2c[nH+]c(-c3ccc(OC)cc3)cn12 (3D coordinates assigned)
CCN(C)Cc1c(-c2ccccc2)nc2c[nH+]c(-c3ccc(OC)cc3)cn12 (optimized conformer: 100.73173914547507 kcal/mol)

>  <smiles>  (33) 
CCN(C)Cc1c(-c2ccccc2)nc2cnc(-c3ccc(OC)cc3)cn12

>  <score_type>  (33) 
oracle

>  <origin>  (33) 
adg

>  <m_score__min__energy>  (33) 
-7.4100000000000001

>  <m_primary>  (33) 
energy

$$$$
33:0
     RDKit          3D

 44 45  0  0  0  0  0  0  0  0999 V2000
   -6.6050   24.2200  -30.9410 C   0  0  0  0  0  0  0  0  0  0  0  0
   -5.3140   24.7190  -30.3000 C   0  0  0  0  0  0  0  0  0  0  0  0
   -4.1500   24.1450  -30.9880 N   0  0  0  0  0  0  0  0  0  0  0  0
   -3.3910   23.2330  -30.1190 C   0  0  0  0  0  0  0  0  0  0  0  0
   -3.1550   21.8870  -30.8190 C   0  0  0  0  0  0  0  0  0  0  0  0
   -3.1860   21.9820  -32.3640 C   0  0  0  0  0  0  0  0  0  0  0  0
   -4.5570   22.0250  -32.9090 N   0  0  0  0  0  0  0  0  0  0  0  0
   -5.1060   20.6980  -33.0910 C   0  0  0  0  0  0  0  0  0  0  0  0
   -4.2910   19.6610  -33.5820 C   0  0  0  0  0  0  0  0  0  0  0  0
   -4.7860   18.3500  -33.7120 C   0  0  0  0  0  0  0  0  0  0  0  0
   -3.9920   17.2900  -34.1740 O   0  0  0  0  0  0  0  0  0  0  0  0
   -4.3370   15.9130  -34.0530 C   0  0  0  0  0  0  0  0  0  0  0  0
   -6.1120   18.0790  -33.3650 C   0  0  0  0  0  0  0  0  0  0  0  0
   -6.9450   19.0990  -32.8890 C   0  0  0  0  0  0  0  0  0  0  0  0
   -8.2760   18.8350  -32.5350 C   0  0  0  0  0  0  0  0  0  0  0  0
   -9.0860   19.8650  -32.0570 C   0  0  0  0  0  0  0  0  0  0  0  0
   -8.5590   21.1570  -31.9360 C   0  0  0  0  0  0  0  0  0  0  0  0
   -9.4080   22.2730  -31.4200 C   0  0  0  0  0  0  0  0  0  0  0  0
   -7.2660   21.3950  -32.2830 N   0  0  0  0  0  0  0  0  0  0  0  0
   -6.4470   20.4130  -32.7540 C   0  0  0  0  0  0  0  0  0  0  0  0
   -7.3219   23.9429  -30.1540 H   0  0  0  0  0  0  0  0  0  0  0  0
   -7.0359   25.0164  -31.5656 H   0  0  0  0  0  0  0  0  0  0  0  0
   -6.3883   23.3409  -31.5656 H   0  0  0  0  0  0  0  0  0  0  0  0
   -5.2735   25.8159  -30.3713 H   0  0  0  0  0  0  0  0  0  0  0  0
   -5.2950   24.4098  -29.2445 H   0  0  0  0  0  0  0  0  0  0  0  0
   -3.5170   24.9380  -31.2460 H   0  0  0  0  0  0  0  0  0  0  0  0
   -2.4198   23.6894  -29.8772 H   0  0  0  0  0  0  0  0  0  0  0  0
   -3.9694   23.0570  -29.2001 H   0  0  0  0  0  0  0  0  0  0  0  0
   -2.1705   21.5032  -30.5132 H   0  0  0  0  0  0  0  0  0  0  0  0
   -3.9746   21.2176  -30.5190 H   0  0  0  0  0  0  0  0  0  0  0  0
   -2.6577   22.8970  -32.6701 H   0  0  0  0  0  0  0  0  0  0  0  0
   -2.7013   21.0776  -32.7603 H   0  0  0  0  0  0  0  0  0  0  0  0
   -4.5640   22.5580  -33.8090 H   0  0  0  0  0  0  0  0  0  0  0  0
   -5.1660   22.5580  -32.2450 H   0  0  0  0  0  0  0  0  0  0  0  0
   -3.2515   19.8784  -33.8685 H   0  0  0  0  0  0  0  0  0  0  0  0
   -4.4044   15.6441  -32.9885 H   0  0  0  0  0  0  0  0  0  0  0  0
   -5.3077   15.7342  -34.5385 H   0  0  0  0  0  0  0  0  0  0  0  0
   -3.5653   15.2976  -34.5385 H   0  0  0  0  0  0  0  0  0  0  0  0
   -6.5046   17.0565  -33.4665 H   0  0  0  0  0  0  0  0  0  0  0  0
   -8.6807   17.8170  -32.6342 H   0  0  0  0  0  0  0  0  0  0  0  0
  -10.1307   19.6641  -31.7772 H   0  0  0  0  0  0  0  0  0  0  0  0
   -9.3995   22.2618  -30.3201 H   0  0  0  0  0  0  0  0  0  0  0  0
   -9.0100   23.2332  -31.7800 H   0  0  0  0  0  0  0  0  0  0  0  0
  -10.4396   22.1456  -31.7800 H   0  0  0  0  0  0  0  0  0  0  0  0
  1  2  1  0
  2  3  1  0
  3  4  1  0
  4  5  1  0
  5  6  1  0
  6  7  1  0
  7  8  1  0
  8  9  2  0
  9 10  1  0
 10 11  1  0
 11 12  1  0
 10 13  2  0
 13 14  1  0
 14 15  2  0
 15 16  1  0
 16 17  2  0
 17 18  1  0
 17 19  1  0
 19 20  2  0
 20  8  1  0
 20 14  1  0
  1 21  1  0
  1 22  1  0
  1 23  1  0
  2 24  1  0
  2 25  1  0
  3 26  1  0
  4 27  1  0
  4 28  1  0
  5 29  1  0
  5 30  1  0
  6 31  1  0
  6 32  1  0
  7 33  1  0
  7 34  1  0
  9 35  1  0
 12 36  1  0
 12 37  1  0
 12 38  1  0
 13 39  1  0
 15 40  1  0
 16 41  1  0
 18 42  1  0
 18 43  1  0
 18 44  1  0
M  CHG  1   7   1
M  END
>  <UniqueID>  (34) 
33

>  <SMILES>  (34) 
CCNCCC[NH2+]c1cc(OC)cc2ccc(C)nc12

>  <Energy>  (34) 
41.34468035869709

>  <Genealogy>  (34) 
CCNCCC[NH2+]c1cc(OC)cc2ccc(C)nc12 (protonated)
CCNCCC[NH2+]c1cc(OC)cc2ccc(C)nc12 (3D coordinates assigned)
CCNCCC[NH2+]c1cc(OC)cc2ccc(C)nc12 (optimized conformer: 41.34468035869709 kcal/mol)

>  <smiles>  (34) 
CCNCCCNc1cc(OC)cc2ccc(C)nc12

>  <score_type>  (34) 
oracle

>  <origin>  (34) 
adg

>  <m_score__min__energy>  (34) 
-6.8099999999999996

>  <m_primary>  (34) 
energy

$$$$
34:0
     RDKit          3D

 25 27  0  0  0  0  0  0  0  0999 V2000
   -3.1150   23.7280  -30.8320 F   0  0  0  0  0  0  0  0  0  0  0  0
   -4.4560   23.9040  -30.7250 C   0  0  0  0  0  0  0  0  0  0  0  0
   -4.9900   25.0900  -30.1950 C   0  0  0  0  0  0  0  0  0  0  0  0
   -6.3850   25.2560  -30.0920 C   0  0  0  0  0  0  0  0  0  0  0  0
   -7.2360   24.2270  -30.5200 C   0  0  0  0  0  0  0  0  0  0  0  0
   -6.6740   23.0990  -31.0250 N   0  0  0  0  0  0  0  0  0  0  0  0
   -7.2510   21.9860  -31.4960 C   0  0  0  0  0  0  0  0  0  0  0  0
   -6.2240   21.1320  -31.8920 C   0  0  0  0  0  0  0  0  0  0  0  0
   -6.3720   19.7780  -32.4790 C   0  0  0  0  0  0  0  0  0  0  0  0
   -5.7640   19.4390  -33.7040 C   0  0  0  0  0  0  0  0  0  0  0  0
   -5.9160   18.1570  -34.2400 C   0  0  0  0  0  0  0  0  0  0  0  0
   -6.6740   17.1970  -33.5640 C   0  0  0  0  0  0  0  0  0  0  0  0
   -6.8620   15.5890  -34.2400 Cl  0  0  0  0  0  0  0  0  0  0  0  0
   -7.2810   17.5210  -32.3480 C   0  0  0  0  0  0  0  0  0  0  0  0
   -7.1330   18.8020  -31.8080 C   0  0  0  0  0  0  0  0  0  0  0  0
   -5.0210   21.7210  -31.6630 N   0  0  0  0  0  0  0  0  0  0  0  0
   -5.3490   22.9150  -31.1340 C   0  0  0  0  0  0  0  0  0  0  0  0
   -4.3164   25.8922  -29.8591 H   0  0  0  0  0  0  0  0  0  0  0  0
   -6.8035   26.1857  -29.6790 H   0  0  0  0  0  0  0  0  0  0  0  0
   -8.3288   24.3308  -30.4486 H   0  0  0  0  0  0  0  0  0  0  0  0
   -8.3306   21.7844  -31.5583 H   0  0  0  0  0  0  0  0  0  0  0  0
   -5.1654   20.1885  -34.2424 H   0  0  0  0  0  0  0  0  0  0  0  0
   -5.4373   17.9029  -35.1972 H   0  0  0  0  0  0  0  0  0  0  0  0
   -7.8769   16.7661  -31.8141 H   0  0  0  0  0  0  0  0  0  0  0  0
   -7.6152   19.0494  -30.8508 H   0  0  0  0  0  0  0  0  0  0  0  0
  1  2  1  0
  2  3  2  0
  3  4  1  0
  4  5  2  0
  5  6  1  0
  6  7  1  0
  7  8  2  0
  8  9  1  0
  9 10  2  0
 10 11  1  0
 11 12  2  0
 12 13  1  0
 12 14  1  0
 14 15  2  0
  8 16  1  0
 16 17  2  0
 17  2  1  0
 17  6  1  0
 15  9  1  0
  3 18  1  0
  4 19  1  0
  5 20  1  0
  7 21  1  0
 10 22  1  0
 11 23  1  0
 14 24  1  0
 15 25  1  0
M  END
>  <UniqueID>  (35) 
34

>  <SMILES>  (35) 
Fc1cccn2cc(-c3ccc(Cl)cc3)nc12

>  <Energy>  (35) 
63.86867458722689

>  <Genealogy>  (35) 
Fc1cccn2cc(-c3ccc(Cl)cc3)nc12 (3D coordinates assigned)
Fc1cccn2cc(-c3ccc(Cl)cc3)nc12 (optimized conformer: 63.86867458722689 kcal/mol)

>  <smiles>  (35) 
Fc1cccn2cc(-c3ccc(Cl)cc3)nc12

>  <score_type>  (35) 
oracle

>  <origin>  (35) 
adg

>  <m_score__min__energy>  (35) 
-6.4100000000000001

>  <m_primary>  (35) 
energy

$$$$
35:0
     RDKit          3D

 59 61  0  0  0  0  0  0  0  0999 V2000
   -3.1850   24.1930  -28.1830 C   0  0  0  0  0  0  0  0  0  0  0  0
   -2.9560   24.1330  -29.6900 C   0  0  0  0  0  0  0  0  0  0  0  0
   -4.0280   24.7680  -30.3900 O   0  0  0  0  0  0  0  0  0  0  0  0
   -5.2570   24.1730  -30.7150 C   0  0  0  0  0  0  0  0  0  0  0  0
   -6.0120   23.6090  -29.6790 C   0  0  0  0  0  0  0  0  0  0  0  0
   -7.2410   22.9980  -29.9430 C   0  0  0  0  0  0  0  0  0  0  0  0
   -7.7320   22.9380  -31.2560 C   0  0  0  0  0  0  0  0  0  0  0  0
   -9.0710   22.3000  -31.5440 C   0  0  0  0  0  0  0  0  0  0  0  0
   -9.1320   20.9070  -31.0780 N   0  0  0  0  0  0  0  0  0  0  0  0
   -8.8780   19.9530  -32.1680 C   0  0  0  0  0  0  0  0  0  0  0  0
   -8.7040   18.5360  -31.6110 C   0  0  0  0  0  0  0  0  0  0  0  0
   -7.2920   17.9830  -31.8890 C   0  0  0  0  0  0  0  0  0  0  0  0
   -6.4870   18.6800  -33.0300 C   0  0  1  0  0  0  0  0  0  0  0  0
   -5.4190   19.6660  -32.5470 C   0  0  0  0  0  0  0  0  0  0  0  0
   -4.9260   19.6610  -31.2260 C   0  0  0  0  0  0  0  0  0  0  0  0
   -3.9620   20.5880  -30.8210 C   0  0  0  0  0  0  0  0  0  0  0  0
   -3.4810   21.5400  -31.7210 C   0  0  0  0  0  0  0  0  0  0  0  0
   -3.9680   21.5690  -33.0280 C   0  0  0  0  0  0  0  0  0  0  0  0
   -4.9320   20.6440  -33.4390 C   0  0  0  0  0  0  0  0  0  0  0  0
   -6.0620   17.7120  -34.1840 C   0  0  0  0  0  0  0  0  0  0  0  0
   -4.5420   17.6160  -34.3650 C   0  0  0  0  0  0  0  0  0  0  0  0
   -4.1290   16.2560  -33.8310 C   0  0  0  0  0  0  0  0  0  0  0  0
   -5.3510   15.3570  -33.9540 C   0  0  0  0  0  0  0  0  0  0  0  0
   -6.5720   16.2660  -34.0880 C   0  0  0  0  0  0  0  0  0  0  0  0
   -6.9830   23.5040  -32.2970 C   0  0  0  0  0  0  0  0  0  0  0  0
   -5.7520   24.1140  -32.0320 C   0  0  0  0  0  0  0  0  0  0  0  0
   -2.2490   23.9477  -27.6598 H   0  0  0  0  0  0  0  0  0  0  0  0
   -3.5079   25.2061  -27.9012 H   0  0  0  0  0  0  0  0  0  0  0  0
   -3.9632   23.4684  -27.9012 H   0  0  0  0  0  0  0  0  0  0  0  0
   -2.0131   24.6450  -29.9325 H   0  0  0  0  0  0  0  0  0  0  0  0
   -2.9082   23.0782  -29.9985 H   0  0  0  0  0  0  0  0  0  0  0  0
   -5.6338   23.6473  -28.6468 H   0  0  0  0  0  0  0  0  0  0  0  0
   -7.8252   22.5628  -29.1188 H   0  0  0  0  0  0  0  0  0  0  0  0
   -9.8562   22.8787  -31.0356 H   0  0  0  0  0  0  0  0  0  0  0  0
   -9.2181   22.2991  -32.6341 H   0  0  0  0  0  0  0  0  0  0  0  0
   -8.4180   20.7620  -30.3260 H   0  0  0  0  0  0  0  0  0  0  0  0
   -9.7282   19.9658  -32.8658 H   0  0  0  0  0  0  0  0  0  0  0  0
   -7.9550   20.2462  -32.6896 H   0  0  0  0  0  0  0  0  0  0  0  0
   -8.8707   18.5574  -30.5239 H   0  0  0  0  0  0  0  0  0  0  0  0
   -9.4332   17.8800  -32.1090 H   0  0  0  0  0  0  0  0  0  0  0  0
   -6.7075   18.0759  -30.9618 H   0  0  0  0  0  0  0  0  0  0  0  0
   -7.4448   16.9480  -32.2288 H   0  0  0  0  0  0  0  0  0  0  0  0
   -7.2075   19.3502  -33.5216 H   0  0  0  0  0  0  0  0  0  0  0  0
   -5.3042   18.9196  -30.5067 H   0  0  0  0  0  0  0  0  0  0  0  0
   -3.5810   20.5673  -29.7893 H   0  0  0  0  0  0  0  0  0  0  0  0
   -2.7194   22.2661  -31.4005 H   0  0  0  0  0  0  0  0  0  0  0  0
   -3.5924   22.3216  -33.7369 H   0  0  0  0  0  0  0  0  0  0  0  0
   -5.3151   20.6792  -34.4695 H   0  0  0  0  0  0  0  0  0  0  0  0
   -6.5498   18.1970  -35.0423 H   0  0  0  0  0  0  0  0  0  0  0  0
   -4.2800   17.7016  -35.4299 H   0  0  0  0  0  0  0  0  0  0  0  0
   -4.0258   18.4268  -33.8300 H   0  0  0  0  0  0  0  0  0  0  0  0
   -3.2970   15.8505  -34.4254 H   0  0  0  0  0  0  0  0  0  0  0  0
   -3.7874   16.3242  -32.7876 H   0  0  0  0  0  0  0  0  0  0  0  0
   -5.2591   14.7164  -34.8435 H   0  0  0  0  0  0  0  0  0  0  0  0
   -5.4454   14.7053  -33.0729 H   0  0  0  0  0  0  0  0  0  0  0  0
   -7.1364   16.0057  -34.9956 H   0  0  0  0  0  0  0  0  0  0  0  0
   -7.2406   16.1473  -33.2226 H   0  0  0  0  0  0  0  0  0  0  0  0
   -7.3651   23.4684  -33.3279 H   0  0  0  0  0  0  0  0  0  0  0  0
   -5.1682   24.5495  -32.8563 H   0  0  0  0  0  0  0  0  0  0  0  0
  1  2  1  0
  2  3  1  0
  3  4  1  0
  4  5  2  0
  5  6  1  0
  6  7  2  0
  7  8  1  0
  8  9  1  0
  9 10  1  0
 10 11  1  0
 11 12  1  0
 12 13  1  0
 13 14  1  0
 14 15  2  0
 15 16  1  0
 16 17  2  0
 17 18  1  0
 18 19  2  0
 13 20  1  0
 20 21  1  0
 21 22  1  0
 22 23  1  0
 23 24  1  0
  7 25  1  0
 25 26  2  0
 26  4  1  0
 19 14  1  0
 24 20  1  0
  1 27  1  0
  1 28  1  0
  1 29  1  0
  2 30  1  0
  2 31  1  0
  5 32  1  0
  6 33  1  0
  8 34  1  0
  8 35  1  0
  9 36  1  0
 10 37  1  0
 10 38  1  0
 11 39  1  0
 11 40  1  0
 12 41  1  0
 12 42  1  0
 13 43  1  6
 15 44  1  0
 16 45  1  0
 17 46  1  0
 18 47  1  0
 19 48  1  0
 20 49  1  0
 21 50  1  0
 21 51  1  0
 22 52  1  0
 22 53  1  0
 23 54  1  0
 23 55  1  0
 24 56  1  0
 24 57  1  0
 25 58  1  0
 26 59  1  0
M  END
>  <UniqueID>  (36) 
35

>  <SMILES>  (36) 
CCOc1ccc(CNCCC[C@@H](c2ccccc2)C2CCCC2)cc1

>  <Energy>  (36) 
64.54198301510219

>  <Genealogy>  (36) 
CCOc1ccc(CNCCC[C@@H](c2ccccc2)C2CCCC2)cc1 (chirality)
CCOc1ccc(CNCCC[C@@H](c2ccccc2)C2CCCC2)cc1 (3D coordinates assigned)
CCOc1ccc(CNCCC[C@@H](c2ccccc2)C2CCCC2)cc1 (nonaromatic ring conformer: 64.54198301510219 kcal/mol)

>  <smiles>  (36) 
CCOc1ccc(CNCCCC(c2ccccc2)C2CCCC2)cc1

>  <score_type>  (36) 
oracle

>  <origin>  (36) 
adg

>  <m_score__min__energy>  (36) 
-9.2699999999999996

>  <m_primary>  (36) 
energy

$$$$
36:0
     RDKit          3D

 49 52  0  0  0  0  0  0  0  0999 V2000
   -3.7950   22.6690  -31.8750 C   0  0  0  0  0  0  0  0  0  0  0  0
   -4.8490   23.5540  -31.2740 C   0  0  0  0  0  0  0  0  0  0  0  0
   -4.4750   24.7930  -30.8480 N   0  0  0  0  0  0  0  0  0  0  0  0
   -5.3450   25.6530  -30.2580 C   0  0  0  0  0  0  0  0  0  0  0  0
   -6.6710   25.2760  -30.0610 C   0  0  0  0  0  0  0  0  0  0  0  0
   -7.0960   24.0210  -30.4920 C   0  0  0  0  0  0  0  0  0  0  0  0
   -6.1970   23.1430  -31.1190 C   0  0  0  0  0  0  0  0  0  0  0  0
   -6.6910   21.8230  -31.5720 C   0  0  0  0  0  0  0  0  0  0  0  0
   -7.9870   21.5120  -31.9730 C   0  0  0  0  0  0  0  0  0  0  0  0
   -8.1540   20.1650  -32.3170 C   0  0  0  0  0  0  0  0  0  0  0  0
   -6.9990   19.4030  -32.1650 C   0  0  0  0  0  0  0  0  0  0  0  0
   -6.8750   17.9680  -32.4850 C   0  0  0  0  0  0  0  0  0  0  0  0
   -7.2390   17.1210  -31.6240 O   0  0  0  0  0  0  0  0  0  0  0  0
   -6.3390   17.5130  -33.7440 N   0  0  0  0  0  0  0  0  0  0  0  0
   -5.1110   18.1270  -34.2780 C   0  0  0  0  0  0  0  0  0  0  0  0
   -4.3170   17.1480  -35.1560 C   0  0  0  0  0  0  0  0  0  0  0  0
   -4.3640   15.7980  -34.5820 N   0  0  0  0  0  0  0  0  0  0  0  0
   -3.1920   14.9660  -34.6310 C   0  0  0  0  0  0  0  0  0  0  0  0
   -2.4960   14.9400  -35.6830 O   0  0  0  0  0  0  0  0  0  0  0  0
   -2.7800   14.1580  -33.4580 C   0  0  0  0  0  0  0  0  0  0  0  0
   -1.6550   14.5380  -32.7030 C   0  0  0  0  0  0  0  0  0  0  0  0
   -1.2500   13.7760  -31.6030 C   0  0  0  0  0  0  0  0  0  0  0  0
   -1.9540   12.6220  -31.2530 C   0  0  0  0  0  0  0  0  0  0  0  0
   -3.0610   12.2240  -32.0050 C   0  0  0  0  0  0  0  0  0  0  0  0
   -3.4750   12.9840  -33.1060 C   0  0  0  0  0  0  0  0  0  0  0  0
   -4.5640   12.5800  -33.8090 F   0  0  0  0  0  0  0  0  0  0  0  0
   -5.6510   15.2090  -34.1780 C   0  0  0  0  0  0  0  0  0  0  0  0
   -6.7840   16.2300  -34.2990 C   0  0  0  0  0  0  0  0  0  0  0  0
   -5.7690   20.4150  -31.6210 S   0  0  0  0  0  0  0  0  0  0  0  0
   -3.2198   22.1860  -31.0713 H   0  0  0  0  0  0  0  0  0  0  0  0
   -4.2741   21.8985  -32.4969 H   0  0  0  0  0  0  0  0  0  0  0  0
   -3.1190   23.2742  -32.4969 H   0  0  0  0  0  0  0  0  0  0  0  0
   -5.0022   26.6473  -29.9358 H   0  0  0  0  0  0  0  0  0  0  0  0
   -7.3763   25.9625  -29.5698 H   0  0  0  0  0  0  0  0  0  0  0  0
   -8.1420   23.7161  -30.3402 H   0  0  0  0  0  0  0  0  0  0  0  0
   -8.8001   22.2516  -32.0155 H   0  0  0  0  0  0  0  0  0  0  0  0
   -9.1076   19.7484  -32.6736 H   0  0  0  0  0  0  0  0  0  0  0  0
   -5.3856   19.0043  -34.8821 H   0  0  0  0  0  0  0  0  0  0  0  0
   -4.4757   18.4148  -33.4274 H   0  0  0  0  0  0  0  0  0  0  0  0
   -4.7540   17.1289  -36.1653 H   0  0  0  0  0  0  0  0  0  0  0  0
   -3.2695   17.4800  -35.2060 H   0  0  0  0  0  0  0  0  0  0  0  0
   -1.0905   15.4405  -32.9801 H   0  0  0  0  0  0  0  0  0  0  0  0
   -0.3754   14.0860  -31.0123 H   0  0  0  0  0  0  0  0  0  0  0  0
   -1.6363   12.0263  -30.3845 H   0  0  0  0  0  0  0  0  0  0  0  0
   -3.6097   11.3106  -31.7318 H   0  0  0  0  0  0  0  0  0  0  0  0
   -5.8718   14.3482  -34.8263 H   0  0  0  0  0  0  0  0  0  0  0  0
   -5.5764   14.8915  -33.1275 H   0  0  0  0  0  0  0  0  0  0  0  0
   -7.0504   16.3600  -35.3583 H   0  0  0  0  0  0  0  0  0  0  0  0
   -7.6640   15.8728  -33.7440 H   0  0  0  0  0  0  0  0  0  0  0  0
  1  2  1  0
  2  3  2  0
  3  4  1  0
  4  5  2  0
  5  6  1  0
  6  7  2  0
  7  8  1  0
  8  9  2  0
  9 10  1  0
 10 11  2  0
 11 12  1  0
 12 13  2  0
 12 14  1  0
 14 15  1  0
 15 16  1  0
 16 17  1  0
 17 18  1  0
 18 19  2  0
 18 20  1  0
 20 21  2  0
 21 22  1  0
 22 23  2  0
 23 24  1  0
 24 25  2  0
 25 26  1  0
 17 27  1  0
 27 28  1  0
 11 29  1  0
  7  2  1  0
 29  8  1  0
 28 14  1  0
 25 20  1  0
  1 30  1  0
  1 31  1  0
  1 32  1  0
  4 33  1  0
  5 34  1  0
  6 35  1  0
  9 36  1  0
 10 37  1  0
 15 38  1  0
 15 39  1  0
 16 40  1  0
 16 41  1  0
 21 42  1  0
 22 43  1  0
 23 44  1  0
 24 45  1  0
 27 46  1  0
 27 47  1  0
 28 48  1  0
 28 49  1  0
M  END
>  <UniqueID>  (37) 
36

>  <SMILES>  (37) 
Cc1ncccc1-c1ccc(C(=O)N2CCN(C(=O)c3ccccc3F)CC2)s1

>  <Energy>  (37) 
95.0403222727321

>  <Genealogy>  (37) 
Cc1ncccc1-c1ccc(C(=O)N2CCN(C(=O)c3ccccc3F)CC2)s1 (3D coordinates assigned)
Cc1ncccc1-c1ccc(C(=O)N2CCN(C(=O)c3ccccc3F)CC2)s1 (nonaromatic ring conformer: 95.0403222727321 kcal/mol)

>  <smiles>  (37) 
Cc1ncccc1-c1ccc(C(=O)N2CCN(C(=O)c3ccccc3F)CC2)s1

>  <score_type>  (37) 
oracle

>  <origin>  (37) 
adg

>  <m_score__min__energy>  (37) 
-8.7200000000000006

>  <m_primary>  (37) 
energy

$$$$
37:0
     RDKit          3D

 46 48  0  0  0  0  0  0  0  0999 V2000
   -7.1860   23.0440  -29.9280 C   0  0  0  0  0  0  0  0  0  0  0  0
   -7.5610   23.5950  -31.3040 C   0  0  0  0  0  0  0  0  0  0  0  0
   -8.6970   22.8040  -31.9640 C   0  0  0  0  0  0  0  0  0  0  0  0
   -8.6100   21.3330  -31.6470 C   0  0  0  0  0  0  0  0  0  0  0  0
   -9.4480   20.8410  -30.8440 O   0  0  0  0  0  0  0  0  0  0  0  0
   -7.5210   20.4740  -32.1810 C   0  0  0  0  0  0  0  0  0  0  0  0
   -6.2140   20.9660  -32.2840 C   0  0  0  0  0  0  0  0  0  0  0  0
   -5.1830   20.1880  -32.7380 N   0  0  0  0  0  0  0  0  0  0  0  0
   -3.8340   20.7940  -32.7590 C   0  0  0  0  0  0  0  0  0  0  0  0
   -3.6120   21.6630  -31.5450 C   0  0  0  0  0  0  0  0  0  0  0  0
   -3.1620   21.0970  -30.3420 C   0  0  0  0  0  0  0  0  0  0  0  0
   -2.9660   21.8990  -29.2160 C   0  0  0  0  0  0  0  0  0  0  0  0
   -3.2290   23.2690  -29.2740 C   0  0  0  0  0  0  0  0  0  0  0  0
   -3.6990   23.8490  -30.4670 C   0  0  0  0  0  0  0  0  0  0  0  0
   -3.9860   25.2180  -30.5750 O   0  0  0  0  0  0  0  0  0  0  0  0
   -5.2860   25.7810  -30.4410 C   0  0  0  0  0  0  0  0  0  0  0  0
   -3.8950   23.0380  -31.5920 C   0  0  0  0  0  0  0  0  0  0  0  0
   -5.4140   18.8820  -33.1230 C   0  0  0  0  0  0  0  0  0  0  0  0
   -4.3730   18.0400  -33.5890 C   0  0  0  0  0  0  0  0  0  0  0  0
   -4.6320   16.7250  -33.9750 C   0  0  0  0  0  0  0  0  0  0  0  0
   -5.9250   16.2150  -33.9090 C   0  0  0  0  0  0  0  0  0  0  0  0
   -6.9700   17.0160  -33.4530 C   0  0  0  0  0  0  0  0  0  0  0  0
   -6.7300   18.3480  -33.0570 C   0  0  0  0  0  0  0  0  0  0  0  0
   -7.7780   19.1540  -32.5830 C   0  0  0  0  0  0  0  0  0  0  0  0
   -8.9490   18.6870  -32.4970 O   0  0  0  0  0  0  0  0  0  0  0  0
   -7.6212   23.6835  -29.1459 H   0  0  0  0  0  0  0  0  0  0  0  0
   -7.5760   22.0207  -29.8241 H   0  0  0  0  0  0  0  0  0  0  0  0
   -6.0910   23.0314  -29.8241 H   0  0  0  0  0  0  0  0  0  0  0  0
   -7.8799   24.6416  -31.1899 H   0  0  0  0  0  0  0  0  0  0  0  0
   -6.6752   23.5101  -31.9506 H   0  0  0  0  0  0  0  0  0  0  0  0
   -9.6598   23.1910  -31.5988 H   0  0  0  0  0  0  0  0  0  0  0  0
   -8.6110   22.9254  -33.0539 H   0  0  0  0  0  0  0  0  0  0  0  0
   -6.0100   22.0067  -31.9920 H   0  0  0  0  0  0  0  0  0  0  0  0
   -3.0801   19.9931  -32.7707 H   0  0  0  0  0  0  0  0  0  0  0  0
   -3.7453   21.4202  -33.6590 H   0  0  0  0  0  0  0  0  0  0  0  0
   -2.9628   20.0166  -30.2860 H   0  0  0  0  0  0  0  0  0  0  0  0
   -2.6030   21.4498  -28.2798 H   0  0  0  0  0  0  0  0  0  0  0  0
   -3.0684   23.8966  -28.3850 H   0  0  0  0  0  0  0  0  0  0  0  0
   -5.5314   25.8873  -29.3740 H   0  0  0  0  0  0  0  0  0  0  0  0
   -5.3089   26.7697  -30.9227 H   0  0  0  0  0  0  0  0  0  0  0  0
   -6.0227   25.1213  -30.9227 H   0  0  0  0  0  0  0  0  0  0  0  0
   -4.2751   23.4831  -32.5233 H   0  0  0  0  0  0  0  0  0  0  0  0
   -3.3459   18.4295  -33.6470 H   0  0  0  0  0  0  0  0  0  0  0  0
   -3.8100   16.0879  -34.3334 H   0  0  0  0  0  0  0  0  0  0  0  0
   -6.1225   15.1777  -34.2173 H   0  0  0  0  0  0  0  0  0  0  0  0
   -7.9896   16.6064  -33.4015 H   0  0  0  0  0  0  0  0  0  0  0  0
  1  2  1  0
  2  3  1  0
  3  4  1  0
  4  5  2  0
  4  6  1  0
  6  7  2  0
  7  8  1  0
  8  9  1  0
  9 10  1  0
 10 11  2  0
 11 12  1  0
 12 13  2  0
 13 14  1  0
 14 15  1  0
 15 16  1  0
 14 17  2  0
  8 18  1  0
 18 19  2  0
 19 20  1  0
 20 21  2  0
 21 22  1  0
 22 23  2  0
 23 24  1  0
 24 25  2  0
 24  6  1  0
 17 10  1  0
 23 18  1  0
  1 26  1  0
  1 27  1  0
  1 28  1  0
  2 29  1  0
  2 30  1  0
  3 31  1  0
  3 32  1  0
  7 33  1  0
  9 34  1  0
  9 35  1  0
 11 36  1  0
 12 37  1  0
 13 38  1  0
 16 39  1  0
 16 40  1  0
 16 41  1  0
 17 42  1  0
 19 43  1  0
 20 44  1  0
 21 45  1  0
 22 46  1  0
M  END
>  <UniqueID>  (38) 
37

>  <SMILES>  (38) 
CCCC(=O)c1cn(Cc2cccc(OC)c2)c2ccccc2c1=O

>  <Energy>  (38) 
55.927413114981846

>  <Genealogy>  (38) 
CCCC(=O)c1cn(Cc2cccc(OC)c2)c2ccccc2c1=O (3D coordinates assigned)
CCCC(=O)c1cn(Cc2cccc(OC)c2)c2ccccc2c1=O (optimized conformer: 55.927413114981846 kcal/mol)

>  <smiles>  (38) 
CCCC(=O)c1cn(Cc2cccc(OC)c2)c2ccccc2c1=O

>  <score_type>  (38) 
oracle

>  <origin>  (38) 
adg

>  <m_score__min__energy>  (38) 
-8.9000000000000004

>  <m_primary>  (38) 
energy

$$$$
38:0
     RDKit          3D

 63 64  0  0  0  0  0  0  0  0999 V2000
   -8.3410   21.9350  -30.5800 C   0  0  0  0  0  0  0  0  0  0  0  0
   -9.0610   21.9690  -31.9190 C   0  0  0  0  0  0  0  0  0  0  0  0
   -9.5730   20.6830  -32.2030 O   0  0  0  0  0  0  0  0  0  0  0  0
   -8.7300   19.6800  -31.6660 C   0  0  0  0  0  0  0  0  0  0  0  0
   -7.6330   19.3320  -32.6660 C   0  0  0  0  0  0  0  0  0  0  0  0
   -7.7760   17.9890  -33.0760 O   0  0  0  0  0  0  0  0  0  0  0  0
   -6.6600   17.2380  -32.6480 C   0  0  0  0  0  0  0  0  0  0  0  0
   -5.5110   18.1900  -32.3010 C   0  0  0  0  0  0  0  0  0  0  0  0
   -4.8050   18.5940  -33.4620 O   0  0  0  0  0  0  0  0  0  0  0  0
   -4.5330   19.9860  -33.4570 C   0  0  0  0  0  0  0  0  0  0  0  0
   -3.1910   20.2370  -32.7790 C   0  0  0  0  0  0  0  0  0  0  0  0
   -3.0920   21.6070  -32.4350 O   0  0  0  0  0  0  0  0  0  0  0  0
   -3.8060   21.8830  -31.2430 C   0  0  0  0  0  0  0  0  0  0  0  0
   -5.1890   22.4400  -31.5750 C   0  0  0  0  0  0  0  0  0  0  0  0
   -5.0670   23.7700  -32.0300 O   0  0  0  0  0  0  0  0  0  0  0  0
   -5.7960   24.6340  -31.1840 C   0  0  0  0  0  0  0  0  0  0  0  0
   -4.9110   25.0320  -30.0110 C   0  0  0  0  0  0  0  0  0  0  0  0
   -3.5050   24.9140  -30.3890 N   0  0  0  0  0  0  0  0  0  0  0  0
   -2.5360   24.6910  -28.9640 S   0  0  0  0  0  0  0  0  0  0  0  0
   -3.3900   24.9060  -27.7470 O   0  0  0  0  0  0  0  0  0  0  0  0
   -1.4250   25.7030  -28.9580 O   0  0  0  0  0  0  0  0  0  0  0  0
   -1.8770   23.0560  -28.9150 C   0  0  0  0  0  0  0  0  0  0  0  0
   -0.9490   22.6570  -29.8860 C   0  0  0  0  0  0  0  0  0  0  0  0
   -0.4030   21.3720  -29.8580 C   0  0  0  0  0  0  0  0  0  0  0  0
   -0.7810   20.4670  -28.8570 C   0  0  0  0  0  0  0  0  0  0  0  0
   -0.2350   19.1750  -28.8160 C   0  0  0  0  0  0  0  0  0  0  0  0
   -0.6120   18.2850  -27.8060 C   0  0  0  0  0  0  0  0  0  0  0  0
   -1.5290   18.6800  -26.8280 C   0  0  0  0  0  0  0  0  0  0  0  0
   -2.0780   19.9650  -26.8550 C   0  0  0  0  0  0  0  0  0  0  0  0
   -1.7140   20.8640  -27.8680 C   0  0  0  0  0  0  0  0  0  0  0  0
   -2.2560   22.1600  -27.9040 C   0  0  0  0  0  0  0  0  0  0  0  0
   -9.0796   21.9699  -29.7656 H   0  0  0  0  0  0  0  0  0  0  0  0
   -7.7537   21.0081  -30.5029 H   0  0  0  0  0  0  0  0  0  0  0  0
   -7.6689   22.8024  -30.5029 H   0  0  0  0  0  0  0  0  0  0  0  0
   -9.8881   22.6928  -31.8739 H   0  0  0  0  0  0  0  0  0  0  0  0
   -8.3579   22.2702  -32.7096 H   0  0  0  0  0  0  0  0  0  0  0  0
   -8.2721   20.0482  -30.7361 H   0  0  0  0  0  0  0  0  0  0  0  0
   -9.3269   18.7801  -31.4564 H   0  0  0  0  0  0  0  0  0  0  0  0
   -7.7127   19.9928  -33.5418 H   0  0  0  0  0  0  0  0  0  0  0  0
   -6.6497   19.4669  -32.1918 H   0  0  0  0  0  0  0  0  0  0  0  0
   -6.9318   16.6507  -31.7585 H   0  0  0  0  0  0  0  0  0  0  0  0
   -6.3440   16.5573  -33.4522 H   0  0  0  0  0  0  0  0  0  0  0  0
   -5.9223   19.0811  -31.8041 H   0  0  0  0  0  0  0  0  0  0  0  0
   -4.8115   17.6606  -31.6373 H   0  0  0  0  0  0  0  0  0  0  0  0
   -4.4963   20.3565  -34.4921 H   0  0  0  0  0  0  0  0  0  0  0  0
   -5.3267   20.5136  -32.9077 H   0  0  0  0  0  0  0  0  0  0  0  0
   -3.1179   19.6230  -31.8692 H   0  0  0  0  0  0  0  0  0  0  0  0
   -2.3744   19.9684  -33.4653 H   0  0  0  0  0  0  0  0  0  0  0  0
   -3.9174   20.9551  -30.6628 H   0  0  0  0  0  0  0  0  0  0  0  0
   -3.2499   22.6282  -30.6553 H   0  0  0  0  0  0  0  0  0  0  0  0
   -5.6522   21.8253  -32.3609 H   0  0  0  0  0  0  0  0  0  0  0  0
   -5.8175   22.4189  -30.6725 H   0  0  0  0  0  0  0  0  0  0  0  0
   -6.0958   25.5328  -31.7429 H   0  0  0  0  0  0  0  0  0  0  0  0
   -6.6983   24.1238  -30.8158 H   0  0  0  0  0  0  0  0  0  0  0  0
   -5.1267   26.0727  -29.7275 H   0  0  0  0  0  0  0  0  0  0  0  0
   -5.1152   24.3658  -29.1598 H   0  0  0  0  0  0  0  0  0  0  0  0
   -0.6484   23.3610  -30.6760 H   0  0  0  0  0  0  0  0  0  0  0  0
    0.3261   21.0692  -30.6240 H   0  0  0  0  0  0  0  0  0  0  0  0
    0.4914   18.8618  -29.5804 H   0  0  0  0  0  0  0  0  0  0  0  0
   -0.1858   17.2712  -27.7809 H   0  0  0  0  0  0  0  0  0  0  0  0
   -1.8198   17.9767  -26.0338 H   0  0  0  0  0  0  0  0  0  0  0  0
   -2.7966   20.2717  -26.0807 H   0  0  0  0  0  0  0  0  0  0  0  0
   -2.9798   22.4730  -27.1371 H   0  0  0  0  0  0  0  0  0  0  0  0
  1  2  1  0
  2  3  1  0
  3  4  1  0
  4  5  1  0
  5  6  1  0
  6  7  1  0
  7  8  1  0
  8  9  1  0
  9 10  1  0
 10 11  1  0
 11 12  1  0
 12 13  1  0
 13 14  1  0
 14 15  1  0
 15 16  1  0
 16 17  1  0
 17 18  1  0
 18 19  1  0
 19 20  2  0
 19 21  2  0
 19 22  1  0
 22 23  2  0
 23 24  1  0
 24 25  2  0
 25 26  1  0
 26 27  2  0
 27 28  1  0
 28 29  2  0
 29 30  1  0
 30 31  2  0
 31 22  1  0
 30 25  1  0
  1 32  1  0
  1 33  1  0
  1 34  1  0
  2 35  1  0
  2 36  1  0
  4 37  1  0
  4 38  1  0
  5 39  1  0
  5 40  1  0
  7 41  1  0
  7 42  1  0
  8 43  1  0
  8 44  1  0
 10 45  1  0
 10 46  1  0
 11 47  1  0
 11 48  1  0
 13 49  1  0
 13 50  1  0
 14 51  1  0
 14 52  1  0
 16 53  1  0
 16 54  1  0
 17 55  1  0
 17 56  1  0
 23 57  1  0
 24 58  1  0
 26 59  1  0
 27 60  1  0
 28 61  1  0
 29 62  1  0
 31 63  1  0
M  CHG  1  18  -1
M  END
>  <UniqueID>  (39) 
38

>  <SMILES>  (39) 
CCOCCOCCOCCOCCOCC[N-]S(=O)(=O)c1ccc2ccccc2c1

>  <Energy>  (39) 
51.18868721242308

>  <Genealogy>  (39) 
CCOCCOCCOCCOCCOCC[N-]S(=O)(=O)c1ccc2ccccc2c1 (protonated)
CCOCCOCCOCCOCCOCC[N-]S(=O)(=O)c1ccc2ccccc2c1 (3D coordinates assigned)
CCOCCOCCOCCOCCOCC[N-]S(=O)(=O)c1ccc2ccccc2c1 (optimized conformer: 51.18868721242308 kcal/mol)

>  <smiles>  (39) 
CCOCCOCCOCCOCCOCCNS(=O)(=O)c1ccc2ccccc2c1

>  <score_type>  (39) 
oracle

>  <origin>  (39) 
adg

>  <m_score__min__energy>  (39) 
-9.3000000000000007

>  <m_primary>  (39) 
energy

$$$$
39:0
     RDKit          3D

 26 27  0  0  0  0  0  0  0  0999 V2000
   -1.2150   25.7690  -27.5300 C   0  0  0  0  0  0  0  0  0  0  0  0
   -1.5420   25.6150  -28.9080 O   0  0  0  0  0  0  0  0  0  0  0  0
   -2.0120   24.4240  -29.4830 C   0  0  0  0  0  0  0  0  0  0  0  0
   -1.3420   23.1960  -29.3210 C   0  0  0  0  0  0  0  0  0  0  0  0
   -1.8460   22.0280  -29.9130 C   0  0  0  0  0  0  0  0  0  0  0  0
   -1.1220   20.7560  -29.7260 C   0  0  0  0  0  0  0  0  0  0  0  0
   -1.2380   20.0480  -28.5120 C   0  0  0  0  0  0  0  0  0  0  0  0
   -2.3290   20.6920  -27.0710 Br  0  0  0  0  0  0  0  0  0  0  0  0
   -0.5490   18.8450  -28.3370 C   0  0  0  0  0  0  0  0  0  0  0  0
    0.2550   18.3350  -29.3590 C   0  0  0  0  0  0  0  0  0  0  0  0
    1.1850   16.6860  -29.0840 Br  0  0  0  0  0  0  0  0  0  0  0  0
    0.3760   19.0310  -30.5690 C   0  0  0  0  0  0  0  0  0  0  0  0
    1.1770   18.5190  -31.5840 O   0  0  0  0  0  0  0  0  0  0  0  0
   -0.3110   20.2390  -30.7570 C   0  0  0  0  0  0  0  0  0  0  0  0
   -0.1260   21.1680  -32.4300 Br  0  0  0  0  0  0  0  0  0  0  0  0
   -3.0280   22.0850  -30.6740 C   0  0  0  0  0  0  0  0  0  0  0  0
   -3.7630   20.5220  -31.5070 Br  0  0  0  0  0  0  0  0  0  0  0  0
   -3.6920   23.3050  -30.8340 C   0  0  0  0  0  0  0  0  0  0  0  0
   -3.1880   24.4670  -30.2430 C   0  0  0  0  0  0  0  0  0  0  0  0
   -3.8630   25.6700  -30.4130 O   0  0  0  0  0  0  0  0  0  0  0  0
   -2.0384   25.3812  -26.9122 H   0  0  0  0  0  0  0  0  0  0  0  0
   -0.2944   25.2098  -27.3069 H   0  0  0  0  0  0  0  0  0  0  0  0
   -1.0597   26.8349  -27.3069 H   0  0  0  0  0  0  0  0  0  0  0  0
   -0.4175   23.1522  -28.7265 H   0  0  0  0  0  0  0  0  0  0  0  0
   -0.6404   18.2960  -27.3882 H   0  0  0  0  0  0  0  0  0  0  0  0
   -4.6164   23.3506  -31.4285 H   0  0  0  0  0  0  0  0  0  0  0  0
  1  2  1  0
  2  3  1  0
  3  4  2  0
  4  5  1  0
  5  6  1  0
  6  7  2  0
  7  8  1  0
  7  9  1  0
  9 10  2  0
 10 11  1  0
 10 12  1  0
 12 13  1  0
 12 14  2  0
 14 15  1  0
  5 16  2  0
 16 17  1  0
 16 18  1  0
 18 19  2  0
 19 20  1  0
 19  3  1  0
 14  6  1  0
  1 21  1  0
  1 22  1  0
  1 23  1  0
  4 24  1  0
  9 25  1  0
 18 26  1  0
M  CHG  2  13  -1  20  -1
M  END
>  <UniqueID>  (40) 
39

>  <SMILES>  (40) 
COc1cc(-c2c(Br)cc(Br)c([O-])c2Br)c(Br)cc1[O-]

>  <Energy>  (40) 
36.74794787609271

>  <Genealogy>  (40) 
COc1cc(-c2c(Br)cc(Br)c([O-])c2Br)c(Br)cc1[O-] (protonated)
COc1cc(-c2c(Br)cc(Br)c([O-])c2Br)c(Br)cc1[O-] (3D coordinates assigned)
COc1cc(-c2c(Br)cc(Br)c([O-])c2Br)c(Br)cc1[O-] (optimized conformer: 36.74794787609271 kcal/mol)

>  <smiles>  (40) 
COc1cc(-c2c(Br)cc(Br)c(O)c2Br)c(Br)cc1O

>  <score_type>  (40) 
oracle

>  <origin>  (40) 
adg

>  <m_score__min__energy>  (40) 
-9.7699999999999996

>  <m_primary>  (40) 
energy

$$$$
40:0
     RDKit          3D

 57 60  0  0  0  0  0  0  0  0999 V2000
   -5.5130   24.4970  -30.2990 C   0  0  0  0  0  0  0  0  0  0  0  0
   -4.6130   23.8880  -31.1980 O   0  0  0  0  0  0  0  0  0  0  0  0
   -5.0860   22.6010  -31.5330 C   0  0  0  0  0  0  0  0  0  0  0  0
   -4.5180   22.1710  -32.8930 C   0  0  0  0  0  0  0  0  0  0  0  0
   -4.4400   20.6960  -33.0200 N   0  0  0  0  0  0  0  0  0  0  0  0
   -3.2890   19.9650  -32.7000 C   0  0  0  0  0  0  0  0  0  0  0  0
   -1.9330   20.5920  -32.3840 C   0  0  1  0  0  0  0  0  0  0  0  0
   -1.3250   21.1590  -33.6880 C   0  0  0  0  0  0  0  0  0  0  0  0
   -2.0190   21.5610  -31.2500 N   0  0  0  0  0  0  0  0  0  0  0  0
   -0.6910   21.9420  -30.7370 C   0  0  0  0  0  0  0  0  0  0  0  0
   -0.8100   23.0780  -29.7220 C   0  0  0  0  0  0  0  0  0  0  0  0
   -1.9350   22.9370  -28.7770 N   0  0  0  0  0  0  0  0  0  0  0  0
   -2.0810   23.9130  -27.6960 C   0  0  0  0  0  0  0  0  0  0  0  0
   -3.3580   24.3540  -27.2700 C   0  0  0  0  0  0  0  0  0  0  0  0
   -3.4920   25.2870  -26.2380 C   0  0  0  0  0  0  0  0  0  0  0  0
   -2.3620   25.8060  -25.6090 C   0  0  0  0  0  0  0  0  0  0  0  0
   -1.0920   25.3940  -26.0110 C   0  0  0  0  0  0  0  0  0  0  0  0
    0.3290   26.0540  -25.2210 Cl  0  0  0  0  0  0  0  0  0  0  0  0
   -0.9490   24.4600  -27.0420 C   0  0  0  0  0  0  0  0  0  0  0  0
   -3.0050   21.9410  -28.9880 C   0  0  0  0  0  0  0  0  0  0  0  0
   -2.7490   20.9440  -30.1260 C   0  0  0  0  0  0  0  0  0  0  0  0
   -3.3090   18.5980  -32.7600 N   0  0  0  0  0  0  0  0  0  0  0  0
   -4.4330   17.9630  -33.1440 C   0  0  0  0  0  0  0  0  0  0  0  0
   -4.6040   16.6690  -33.2490 O   0  0  0  0  0  0  0  0  0  0  0  0
   -5.8400   16.4840  -33.6780 C   0  0  0  0  0  0  0  0  0  0  0  0
   -6.4340   15.1430  -33.9470 C   0  0  0  0  0  0  0  0  0  0  0  0
   -6.4900   17.7030  -33.8630 C   0  0  0  0  0  0  0  0  0  0  0  0
   -5.5470   18.6380  -33.5030 C   0  0  0  0  0  0  0  0  0  0  0  0
   -5.5640   20.0230  -33.4640 C   0  0  0  0  0  0  0  0  0  0  0  0
   -6.5980   20.6420  -33.8390 O   0  0  0  0  0  0  0  0  0  0  0  0
   -5.1995   24.2848  -29.2662 H   0  0  0  0  0  0  0  0  0  0  0  0
   -5.5174   25.5844  -30.4648 H   0  0  0  0  0  0  0  0  0  0  0  0
   -6.5241   24.0967  -30.4648 H   0  0  0  0  0  0  0  0  0  0  0  0
   -4.7679   21.8838  -30.7620 H   0  0  0  0  0  0  0  0  0  0  0  0
   -6.1842   22.6234  -31.5909 H   0  0  0  0  0  0  0  0  0  0  0  0
   -5.1682   22.5623  -33.6894 H   0  0  0  0  0  0  0  0  0  0  0  0
   -3.4981   22.5742  -32.9786 H   0  0  0  0  0  0  0  0  0  0  0  0
   -1.2339   19.8269  -32.0155 H   0  0  0  0  0  0  0  0  0  0  0  0
   -0.5413   21.8899  -33.4397 H   0  0  0  0  0  0  0  0  0  0  0  0
   -0.8881   20.3384  -34.2759 H   0  0  0  0  0  0  0  0  0  0  0  0
   -2.1132   21.6521  -34.2759 H   0  0  0  0  0  0  0  0  0  0  0  0
   -0.2279   21.0706  -30.2511 H   0  0  0  0  0  0  0  0  0  0  0  0
   -0.0710   22.2834  -31.5791 H   0  0  0  0  0  0  0  0  0  0  0  0
    0.1235   23.1197  -29.1416 H   0  0  0  0  0  0  0  0  0  0  0  0
   -0.9982   23.9955  -30.2989 H   0  0  0  0  0  0  0  0  0  0  0  0
   -4.2590   23.9556  -27.7595 H   0  0  0  0  0  0  0  0  0  0  0  0
   -4.4936   25.6130  -25.9210 H   0  0  0  0  0  0  0  0  0  0  0  0
   -2.4717   26.5395  -24.7967 H   0  0  0  0  0  0  0  0  0  0  0  0
    0.0587   24.1447  -27.3504 H   0  0  0  0  0  0  0  0  0  0  0  0
   -3.1283   21.3702  -28.0558 H   0  0  0  0  0  0  0  0  0  0  0  0
   -3.9019   22.5099  -29.2742 H   0  0  0  0  0  0  0  0  0  0  0  0
   -2.1551   20.1045  -29.7354 H   0  0  0  0  0  0  0  0  0  0  0  0
   -3.7242   20.6015  -30.5024 H   0  0  0  0  0  0  0  0  0  0  0  0
   -6.6558   14.6422  -32.9931 H   0  0  0  0  0  0  0  0  0  0  0  0
   -7.3634   15.2625  -34.5232 H   0  0  0  0  0  0  0  0  0  0  0  0
   -5.7210   14.5350  -34.5232 H   0  0  0  0  0  0  0  0  0  0  0  0
   -7.5176   17.8770  -34.2149 H   0  0  0  0  0  0  0  0  0  0  0  0
  1  2  1  0
  2  3  1  0
  3  4  1  0
  4  5  1  0
  5  6  1  0
  6  7  1  0
  7  8  1  0
  7  9  1  0
  9 10  1  0
 10 11  1  0
 11 12  1  0
 12 13  1  0
 13 14  2  0
 14 15  1  0
 15 16  2  0
 16 17  1  0
 17 18  1  0
 17 19  2  0
 12 20  1  0
 20 21  1  0
  6 22  2  0
 22 23  1  0
 23 24  1  0
 24 25  1  0
 25 26  1  0
 25 27  2  0
 27 28  1  0
 28 29  1  0
 29 30  2  0
 29  5  1  0
 21  9  1  0
 28 23  2  0
 19 13  1  0
  1 31  1  0
  1 32  1  0
  1 33  1  0
  3 34  1  0
  3 35  1  0
  4 36  1  0
  4 37  1  0
  7 38  1  1
  8 39  1  0
  8 40  1  0
  8 41  1  0
 10 42  1  0
 10 43  1  0
 11 44  1  0
 11 45  1  0
 14 46  1  0
 15 47  1  0
 16 48  1  0
 19 49  1  0
 20 50  1  0
 20 51  1  0
 21 52  1  0
 21 53  1  0
 26 54  1  0
 26 55  1  0
 26 56  1  0
 27 57  1  0
M  END
>  <UniqueID>  (41) 
40

>  <SMILES>  (41) 
COCCn1c([C@@H](C)N2CCN(c3cccc(Cl)c3)CC2)nc2oc(C)cc2c1=O

>  <Energy>  (41) 
114.03919694901553

>  <Genealogy>  (41) 
COCCn1c([C@@H](C)N2CCN(c3cccc(Cl)c3)CC2)nc2oc(C)cc2c1=O (chirality)
COCCn1c([C@@H](C)N2CCN(c3cccc(Cl)c3)CC2)nc2oc(C)cc2c1=O (3D coordinates assigned)
COCCn1c([C@@H](C)N2CCN(c3cccc(Cl)c3)CC2)nc2oc(C)cc2c1=O (nonaromatic ring conformer: 114.03919694901553 kcal/mol)

>  <smiles>  (41) 
COCCn1c(C(C)N2CCN(c3cccc(Cl)c3)CC2)nc2oc(C)cc2c1=O

>  <score_type>  (41) 
oracle

>  <origin>  (41) 
adg

>  <m_score__min__energy>  (41) 
-8.4399999999999995

>  <m_primary>  (41) 
energy

$$$$
