0:0
     RDKit          3D

 49 51  0  0  0  0  0  0  0  0999 V2000
   -5.3450   24.4220  -31.2090 C   0  0  0  0  0  0  0  0  0  0  0  0
   -4.0270   23.9140  -31.0360 O   0  0  0  0  0  0  0  0  0  0  0  0
   -3.6280   23.0760  -29.9820 C   0  0  0  0  0  0  0  0  0  0  0  0
   -4.1470   23.2220  -28.6800 C   0  0  0  0  0  0  0  0  0  0  0  0
   -3.7290   22.3720  -27.6530 C   0  0  0  0  0  0  0  0  0  0  0  0
   -2.7880   21.3760  -27.9100 C   0  0  0  0  0  0  0  0  0  0  0  0
   -2.2650   21.2200  -29.1940 C   0  0  0  0  0  0  0  0  0  0  0  0
   -2.6900   22.0570  -30.2420 C   0  0  0  0  0  0  0  0  0  0  0  0
   -2.1290   21.9230  -31.5610 N   0  0  0  0  0  0  0  0  0  0  0  0
   -0.8390   21.3500  -31.8240 C   0  0  0  0  0  0  0  0  0  0  0  0
   -0.2310   20.6990  -30.9310 O   0  0  0  0  0  0  0  0  0  0  0  0
   -0.2110   21.5100  -33.1740 C   0  0  0  0  0  0  0  0  0  0  0  0
   -0.7840   20.2010  -34.3070 S   0  0  0  0  0  0  0  0  0  0  0  0
   -2.4900   20.2640  -33.7520 C   0  0  0  0  0  0  0  0  0  0  0  0
   -3.2470   21.3760  -33.8080 N   0  0  0  0  0  0  0  0  0  0  0  0
   -4.4480   21.0480  -33.3540 N   0  0  0  0  0  0  0  0  0  0  0  0
   -4.4050   19.7380  -33.0360 C   0  0  0  0  0  0  0  0  0  0  0  0
   -5.5730   18.9920  -32.4630 C   0  0  0  0  0  0  0  0  0  0  0  0
   -6.8240   19.2170  -33.3170 C   0  0  0  0  0  0  0  0  0  0  0  0
   -7.6890   20.2900  -32.7160 C   0  0  0  0  0  0  0  0  0  0  0  0
   -9.0650   20.0720  -32.5330 C   0  0  0  0  0  0  0  0  0  0  0  0
   -9.8630   21.0610  -31.9490 C   0  0  0  0  0  0  0  0  0  0  0  0
   -9.2920   22.2670  -31.5340 C   0  0  0  0  0  0  0  0  0  0  0  0
   -7.9220   22.4850  -31.7000 C   0  0  0  0  0  0  0  0  0  0  0  0
   -7.1200   21.5000  -32.2840 C   0  0  0  0  0  0  0  0  0  0  0  0
   -3.1780   19.2210  -33.2470 N   0  0  0  0  0  0  0  0  0  0  0  0
   -2.7410   17.8340  -33.1100 C   0  0  0  0  0  0  0  0  0  0  0  0
   -5.8022   24.5982  -30.2242 H   0  0  0  0  0  0  0  0  0  0  0  0
   -5.3028   25.3683  -31.7683 H   0  0  0  0  0  0  0  0  0  0  0  0
   -5.9488   23.6922  -31.7683 H   0  0  0  0  0  0  0  0  0  0  0  0
   -4.8856   24.0099  -28.4710 H   0  0  0  0  0  0  0  0  0  0  0  0
   -4.1428   22.4888  -26.6405 H   0  0  0  0  0  0  0  0  0  0  0  0
   -2.4570   20.7114  -27.0984 H   0  0  0  0  0  0  0  0  0  0  0  0
   -1.5160   20.4381  -29.3881 H   0  0  0  0  0  0  0  0  0  0  0  0
   -2.7080   22.2120  -32.3810 H   0  0  0  0  0  0  0  0  0  0  0  0
   -0.4864   22.4917  -33.5869 H   0  0  0  0  0  0  0  0  0  0  0  0
    0.8813   21.4348  -33.0684 H   0  0  0  0  0  0  0  0  0  0  0  0
   -5.3396   17.9173  -32.4389 H   0  0  0  0  0  0  0  0  0  0  0  0
   -5.7661   19.3610  -31.4449 H   0  0  0  0  0  0  0  0  0  0  0  0
   -6.5206   19.5221  -34.3294 H   0  0  0  0  0  0  0  0  0  0  0  0
   -7.3986   18.2799  -33.3582 H   0  0  0  0  0  0  0  0  0  0  0  0
   -9.5161   19.1202  -32.8502 H   0  0  0  0  0  0  0  0  0  0  0  0
  -10.9414   20.8893  -31.8162 H   0  0  0  0  0  0  0  0  0  0  0  0
   -9.9212   23.0448  -31.0766 H   0  0  0  0  0  0  0  0  0  0  0  0
   -7.4734   23.4338  -31.3705 H   0  0  0  0  0  0  0  0  0  0  0  0
   -6.0405   21.6727  -32.4057 H   0  0  0  0  0  0  0  0  0  0  0  0
   -2.6605   17.5786  -32.0431 H   0  0  0  0  0  0  0  0  0  0  0  0
   -3.4733   17.1695  -33.5919 H   0  0  0  0  0  0  0  0  0  0  0  0
   -1.7601   17.7093  -33.5919 H   0  0  0  0  0  0  0  0  0  0  0  0
  1  2  1  0
  2  3  1  0
  3  4  2  0
  4  5  1  0
  5  6  2  0
  6  7  1  0
  7  8  2  0
  8  9  1  0
  9 10  1  0
 10 11  2  0
 10 12  1  0
 12 13  1  0
 13 14  1  0
 14 15  2  0
 15 16  1  0
 16 17  2  0
 17 18  1  0
 18 19  1  0
 19 20  1  0
 20 21  2  0
 21 22  1  0
 22 23  2  0
 23 24  1  0
 24 25  2  0
 17 26  1  0
 26 27  1  0
  8  3  1  0
 26 14  1  0
 25 20  1  0
  1 28  1  0
  1 29  1  0
  1 30  1  0
  4 31  1  0
  5 32  1  0
  6 33  1  0
  7 34  1  0
  9 35  1  0
 12 36  1  0
 12 37  1  0
 18 38  1  0
 18 39  1  0
 19 40  1  0
 19 41  1  0
 21 42  1  0
 22 43  1  0
 23 44  1  0
 24 45  1  0
 25 46  1  0
 27 47  1  0
 27 48  1  0
 27 49  1  0
M  END
>  <UniqueID>  (1) 
1

>  <SMILES>  (1) 
COc1ccccc1NC(=O)CSc1nnc(CCc2ccccc2)n1C

>  <Energy>  (1) 
79.216367240191

>  <Genealogy>  (1) 
COc1ccccc1NC(=O)CSc1nnc(CCc2ccccc2)n1C (3D coordinates assigned)
COc1ccccc1NC(=O)CSc1nnc(CCc2ccccc2)n1C (optimized conformer: 79.216367240191 kcal/mol)

>  <smiles>  (1) 
COc1ccccc1NC(=O)CSc1nnc(CCc2ccccc2)n1C

>  <score_type>  (1) 
oracle

>  <origin>  (1) 
adg

>  <m_score__min__energy>  (1) 
-9.3499999999999996

>  <m_primary>  (1) 
energy

$$$$
1:0
     RDKit          3D

 34 35  0  0  0  0  0  0  0  0999 V2000
   -8.7160   18.6060  -31.6510 C   0  0  0  0  0  0  0  0  0  0  0  0
   -8.9890   19.7590  -32.6220 C   0  0  0  0  0  0  0  0  0  0  0  0
   -8.2010   20.9600  -32.2980 N   0  0  0  0  0  0  0  0  0  0  0  0
   -9.0400   22.1020  -31.9040 C   0  0  0  0  0  0  0  0  0  0  0  0
   -8.2040   23.3840  -31.8650 C   0  0  0  0  0  0  0  0  0  0  0  0
   -6.9850   23.2130  -32.6540 N   0  0  0  0  0  0  0  0  0  0  0  0
   -5.7080   23.0960  -32.0170 C   0  0  0  0  0  0  0  0  0  0  0  0
   -5.1820   24.1860  -31.4030 N   0  0  0  0  0  0  0  0  0  0  0  0
   -3.9790   24.1570  -30.8310 N   0  0  0  0  0  0  0  0  0  0  0  0
   -3.5050   25.3010  -30.2290 O   0  0  0  0  0  0  0  0  0  0  0  0
   -3.2300   23.0170  -30.8510 C   0  0  0  0  0  0  0  0  0  0  0  0
   -1.9520   22.9680  -30.2670 C   0  0  0  0  0  0  0  0  0  0  0  0
   -1.2120   21.7840  -30.2950 C   0  0  0  0  0  0  0  0  0  0  0  0
   -1.7370   20.6420  -30.9000 C   0  0  0  0  0  0  0  0  0  0  0  0
   -3.0070   20.6760  -31.4830 C   0  0  0  0  0  0  0  0  0  0  0  0
   -3.7640   21.8640  -31.4680 C   0  0  0  0  0  0  0  0  0  0  0  0
   -5.0120   21.9170  -32.0270 N   0  0  0  0  0  0  0  0  0  0  0  0
   -5.5750   20.7630  -32.5430 O   0  0  0  0  0  0  0  0  0  0  0  0
   -8.8021   18.9697  -30.6164 H   0  0  0  0  0  0  0  0  0  0  0  0
   -9.4489   17.8033  -31.8197 H   0  0  0  0  0  0  0  0  0  0  0  0
   -7.7009   18.2171  -31.8197 H   0  0  0  0  0  0  0  0  0  0  0  0
   -8.7330   19.4320  -33.6406 H   0  0  0  0  0  0  0  0  0  0  0  0
  -10.0538   20.0228  -32.5408 H   0  0  0  0  0  0  0  0  0  0  0  0
   -7.6150   21.2310  -33.1220 H   0  0  0  0  0  0  0  0  0  0  0  0
   -9.8555   22.2221  -32.6324 H   0  0  0  0  0  0  0  0  0  0  0  0
   -9.4551   21.9138  -30.9029 H   0  0  0  0  0  0  0  0  0  0  0  0
   -8.7928   24.2151  -32.2805 H   0  0  0  0  0  0  0  0  0  0  0  0
   -7.9303   23.6038  -30.8225 H   0  0  0  0  0  0  0  0  0  0  0  0
   -7.0910   22.7800  -33.5990 H   0  0  0  0  0  0  0  0  0  0  0  0
   -1.5338   23.8649  -29.7866 H   0  0  0  0  0  0  0  0  0  0  0  0
   -0.2117   21.7518  -29.8384 H   0  0  0  0  0  0  0  0  0  0  0  0
   -1.1499   19.7120  -30.9184 H   0  0  0  0  0  0  0  0  0  0  0  0
   -3.4171   19.7713  -31.9555 H   0  0  0  0  0  0  0  0  0  0  0  0
   -6.2580   20.2170  -32.0340 H   0  0  0  0  0  0  0  0  0  0  0  0
  1  2  1  0
  2  3  1  0
  3  4  1  0
  4  5  1  0
  5  6  1  0
  6  7  1  0
  7  8  2  0
  8  9  1  0
  9 10  1  0
  9 11  2  0
 11 12  1  0
 12 13  2  0
 13 14  1  0
 14 15  2  0
 15 16  1  0
 16 17  2  0
 17 18  1  0
 17  7  1  0
 16 11  1  0
  1 19  1  0
  1 20  1  0
  1 21  1  0
  2 22  1  0
  2 23  1  0
  3 24  1  0
  4 25  1  0
  4 26  1  0
  5 27  1  0
  5 28  1  0
  6 29  1  0
 12 30  1  0
 13 31  1  0
 14 32  1  0
 15 33  1  0
 18 34  1  0
M  CHG  3   9   1  10  -1  17   1
M  END
>  <UniqueID>  (2) 
2

>  <SMILES>  (2) 
CCNCCNc1n[n+]([O-])c2ccccc2[n+]1O

>  <Energy>  (2) 
42.027090317287985

>  <Genealogy>  (2) 
CCNCCNc1n[n+]([O-])c2ccccc2[n+]1O (protonated)
CCNCCNc1n[n+]([O-])c2ccccc2[n+]1O (3D coordinates assigned)
CCNCCNc1n[n+]([O-])c2ccccc2[n+]1O (optimized conformer: 42.027090317287985 kcal/mol)

>  <smiles>  (2) 
CCNCCNc1n[n+]([O-])c2ccccc2[n+]1[O-]

>  <score_type>  (2) 
oracle

>  <origin>  (2) 
adg

>  <m_score__min__energy>  (2) 
-6.1900000000000004

>  <m_primary>  (2) 
energy

$$$$
2:0
     RDKit          3D

 44 46  0  0  0  0  0  0  0  0999 V2000
   -8.6700   21.9020  -30.8570 C   0  0  0  0  0  0  0  0  0  0  0  0
   -9.2740   21.1820  -32.0530 C   0  0  0  0  0  0  0  0  0  0  0  0
   -9.1690   19.7880  -31.8520 O   0  0  0  0  0  0  0  0  0  0  0  0
   -8.4370   19.2460  -32.8740 N   0  0  0  0  0  0  0  0  0  0  0  0
   -7.7260   18.0700  -32.3570 C   0  0  0  0  0  0  0  0  0  0  0  0
   -6.2260   18.3430  -32.1460 C   0  0  0  0  0  0  0  0  0  0  0  0
   -5.8060   19.5340  -32.8130 O   0  0  0  0  0  0  0  0  0  0  0  0
   -5.3900   20.7200  -32.1840 C   0  0  0  0  0  0  0  0  0  0  0  0
   -5.8290   21.9360  -32.7200 C   0  0  0  0  0  0  0  0  0  0  0  0
   -5.4400   23.1500  -32.1500 C   0  0  0  0  0  0  0  0  0  0  0  0
   -4.6060   23.1620  -31.0190 C   0  0  0  0  0  0  0  0  0  0  0  0
   -4.1820   24.3540  -30.4110 C   0  0  0  0  0  0  0  0  0  0  0  0
   -4.5340   25.4760  -30.8650 O   0  0  0  0  0  0  0  0  0  0  0  0
   -3.3550   24.2940  -29.2890 C   0  0  0  0  0  0  0  0  0  0  0  0
   -2.9640   23.0400  -28.7860 C   0  0  0  0  0  0  0  0  0  0  0  0
   -2.0840   22.9130  -27.5970 C   0  0  0  0  0  0  0  0  0  0  0  0
   -1.6870   21.6550  -27.0980 C   0  0  0  0  0  0  0  0  0  0  0  0
   -0.8500   21.5680  -25.9820 C   0  0  0  0  0  0  0  0  0  0  0  0
   -0.3930   22.7290  -25.3560 C   0  0  0  0  0  0  0  0  0  0  0  0
   -0.7680   23.9810  -25.8470 C   0  0  0  0  0  0  0  0  0  0  0  0
   -1.6040   24.0740  -26.9630 C   0  0  0  0  0  0  0  0  0  0  0  0
   -3.3790   21.9310  -29.3960 O   0  0  0  0  0  0  0  0  0  0  0  0
   -4.1670   21.9400  -30.4670 C   0  0  0  0  0  0  0  0  0  0  0  0
   -4.5600   20.7290  -31.0470 C   0  0  0  0  0  0  0  0  0  0  0  0
   -9.0485   21.4508  -29.9279 H   0  0  0  0  0  0  0  0  0  0  0  0
   -7.5743   21.8107  -30.8891 H   0  0  0  0  0  0  0  0  0  0  0  0
   -8.9504   22.9652  -30.8891 H   0  0  0  0  0  0  0  0  0  0  0  0
  -10.3331   21.4611  -32.1551 H   0  0  0  0  0  0  0  0  0  0  0  0
   -8.7355   21.4669  -32.9689 H   0  0  0  0  0  0  0  0  0  0  0  0
   -9.0530   18.9560  -33.6730 H   0  0  0  0  0  0  0  0  0  0  0  0
   -7.7190   19.9390  -33.1990 H   0  0  0  0  0  0  0  0  0  0  0  0
   -8.1723   17.7814  -31.3939 H   0  0  0  0  0  0  0  0  0  0  0  0
   -7.8211   17.2645  -33.1001 H   0  0  0  0  0  0  0  0  0  0  0  0
   -6.0315   18.4505  -31.0687 H   0  0  0  0  0  0  0  0  0  0  0  0
   -5.6616   17.4977  -32.5666 H   0  0  0  0  0  0  0  0  0  0  0  0
   -6.4882   21.9355  -33.6006 H   0  0  0  0  0  0  0  0  0  0  0  0
   -5.7868   24.0981  -32.5868 H   0  0  0  0  0  0  0  0  0  0  0  0
   -3.0119   25.2188  -28.8022 H   0  0  0  0  0  0  0  0  0  0  0  0
   -2.0384   20.7363  -27.5904 H   0  0  0  0  0  0  0  0  0  0  0  0
   -0.5507   20.5824  -25.5961 H   0  0  0  0  0  0  0  0  0  0  0  0
    0.2627   22.6574  -24.4757 H   0  0  0  0  0  0  0  0  0  0  0  0
   -0.4050   24.8953  -25.3548 H   0  0  0  0  0  0  0  0  0  0  0  0
   -1.8894   25.0636  -27.3493 H   0  0  0  0  0  0  0  0  0  0  0  0
   -4.2184   19.7782  -30.6120 H   0  0  0  0  0  0  0  0  0  0  0  0
  1  2  1  0
  2  3  1  0
  3  4  1  0
  4  5  1  0
  5  6  1  0
  6  7  1  0
  7  8  1  0
  8  9  2  0
  9 10  1  0
 10 11  2  0
 11 12  1  0
 12 13  2  0
 12 14  1  0
 14 15  2  0
 15 16  1  0
 16 17  2  0
 17 18  1  0
 18 19  2  0
 19 20  1  0
 20 21  2  0
 15 22  1  0
 22 23  1  0
 23 24  2  0
 24  8  1  0
 23 11  1  0
 21 16  1  0
  1 25  1  0
  1 26  1  0
  1 27  1  0
  2 28  1  0
  2 29  1  0
  4 30  1  0
  4 31  1  0
  5 32  1  0
  5 33  1  0
  6 34  1  0
  6 35  1  0
  9 36  1  0
 10 37  1  0
 14 38  1  0
 17 39  1  0
 18 40  1  0
 19 41  1  0
 20 42  1  0
 21 43  1  0
 24 44  1  0
M  CHG  1   4   1
M  END
>  <UniqueID>  (3) 
3

>  <SMILES>  (3) 
CCO[NH2+]CCOc1ccc2c(=O)cc(-c3ccccc3)oc2c1

>  <Energy>  (3) 
51.91413101530316

>  <Genealogy>  (3) 
CCO[NH2+]CCOc1ccc2c(=O)cc(-c3ccccc3)oc2c1 (protonated)
CCO[NH2+]CCOc1ccc2c(=O)cc(-c3ccccc3)oc2c1 (3D coordinates assigned)
CCO[NH2+]CCOc1ccc2c(=O)cc(-c3ccccc3)oc2c1 (optimized conformer: 51.91413101530316 kcal/mol)

>  <smiles>  (3) 
CCONCCOc1ccc2c(=O)cc(-c3ccccc3)oc2c1

>  <score_type>  (3) 
oracle

>  <origin>  (3) 
adg

>  <m_score__min__energy>  (3) 
-8.25

>  <m_primary>  (3) 
energy

$$$$
3:0
     RDKit          3D

 31 32  0  0  0  0  0  0  0  0999 V2000
   -2.3520   24.2930  -28.1100 C   0  0  0  0  0  0  0  0  0  0  0  0
   -2.6600   24.9080  -29.3960 N   0  0  0  0  0  0  0  0  0  0  0  0
   -3.7530   24.4890  -30.2340 C   0  0  0  0  0  0  0  0  0  0  0  0
   -4.8970   25.2990  -30.3310 C   0  0  0  0  0  0  0  0  0  0  0  0
   -5.9630   24.9260  -31.1550 C   0  0  0  0  0  0  0  0  0  0  0  0
   -5.8970   23.7440  -31.8940 C   0  0  0  0  0  0  0  0  0  0  0  0
   -4.7650   22.9280  -31.8090 C   0  0  0  0  0  0  0  0  0  0  0  0
   -4.6640   21.4210  -32.7810 S   0  0  0  0  0  0  0  0  0  0  0  0
   -5.5240   20.3760  -31.5500 C   0  0  0  0  0  0  0  0  0  0  0  0
   -7.0180   20.5060  -31.6790 C   0  0  0  0  0  0  0  0  0  0  0  0
   -7.7200   19.6930  -32.5850 C   0  0  0  0  0  0  0  0  0  0  0  0
   -9.1000   19.8480  -32.7450 C   0  0  0  0  0  0  0  0  0  0  0  0
   -9.7880   20.8150  -32.0070 C   0  0  0  0  0  0  0  0  0  0  0  0
   -9.0970   21.6280  -31.1040 C   0  0  0  0  0  0  0  0  0  0  0  0
   -7.7170   21.4740  -30.9380 C   0  0  0  0  0  0  0  0  0  0  0  0
   -3.7030   23.2900  -30.9690 C   0  0  0  0  0  0  0  0  0  0  0  0
   -2.6841   24.9561  -27.2976 H   0  0  0  0  0  0  0  0  0  0  0  0
   -2.8729   23.3273  -28.0312 H   0  0  0  0  0  0  0  0  0  0  0  0
   -1.2667   24.1317  -28.0312 H   0  0  0  0  0  0  0  0  0  0  0  0
   -2.0280   25.6680  -29.7340 H   0  0  0  0  0  0  0  0  0  0  0  0
   -4.9543   26.2338  -29.7541 H   0  0  0  0  0  0  0  0  0  0  0  0
   -6.8556   25.5655  -31.2210 H   0  0  0  0  0  0  0  0  0  0  0  0
   -6.7360   23.4542  -32.5437 H   0  0  0  0  0  0  0  0  0  0  0  0
   -5.2396   19.3254  -31.7091 H   0  0  0  0  0  0  0  0  0  0  0  0
   -5.2298   20.7076  -30.5433 H   0  0  0  0  0  0  0  0  0  0  0  0
   -7.1821   18.9325  -33.1700 H   0  0  0  0  0  0  0  0  0  0  0  0
   -9.6457   19.2074  -33.4534 H   0  0  0  0  0  0  0  0  0  0  0  0
  -10.8736   20.9364  -32.1368 H   0  0  0  0  0  0  0  0  0  0  0  0
   -9.6390   22.3893  -30.5237 H   0  0  0  0  0  0  0  0  0  0  0  0
   -7.1764   22.1132  -30.2244 H   0  0  0  0  0  0  0  0  0  0  0  0
   -2.8250   22.6328  -30.8838 H   0  0  0  0  0  0  0  0  0  0  0  0
  1  2  1  0
  2  3  1  0
  3  4  2  0
  4  5  1  0
  5  6  2  0
  6  7  1  0
  7  8  1  0
  8  9  1  0
  9 10  1  0
 10 11  2  0
 11 12  1  0
 12 13  2  0
 13 14  1  0
 14 15  2  0
  7 16  2  0
 16  3  1  0
 15 10  1  0
  1 17  1  0
  1 18  1  0
  1 19  1  0
  2 20  1  0
  4 21  1  0
  5 22  1  0
  6 23  1  0
  9 24  1  0
  9 25  1  0
 11 26  1  0
 12 27  1  0
 13 28  1  0
 14 29  1  0
 15 30  1  0
 16 31  1  0
M  END
>  <UniqueID>  (4) 
4

>  <SMILES>  (4) 
CNc1cccc(SCc2ccccc2)c1

>  <Energy>  (4) 
23.641048400976278

>  <Genealogy>  (4) 
CNc1cccc(SCc2ccccc2)c1 (3D coordinates assigned)
CNc1cccc(SCc2ccccc2)c1 (optimized conformer: 23.641048400976278 kcal/mol)

>  <smiles>  (4) 
CNc1cccc(SCc2ccccc2)c1

>  <score_type>  (4) 
oracle

>  <origin>  (4) 
adg

>  <m_score__min__energy>  (4) 
-7.2599999999999998

>  <m_primary>  (4) 
energy

$$$$
4:0
     RDKit          3D

 49 51  0  0  1  0  0  0  0  0999 V2000
   -9.1280   22.8060  -32.0170 C   0  0  0  0  0  0  0  0  0  0  0  0
   -9.4310   21.5490  -31.1830 C   0  0  0  0  0  0  0  0  0  0  0  0
   -9.3330   20.3420  -32.0800 C   0  0  0  0  0  0  0  0  0  0  0  0
   -8.8140   19.2860  -31.4040 O   0  0  0  0  0  0  0  0  0  0  0  0
   -7.6940   18.6800  -31.9240 C   0  0  0  0  0  0  0  0  0  0  0  0
   -7.2640   19.4610  -33.1380 C   0  0  0  0  0  0  0  0  0  0  0  0
   -5.8630   19.5380  -33.3730 N   0  0  0  0  0  0  0  0  0  0  0  0
   -5.1470   18.5760  -34.0380 C   0  0  0  0  0  0  0  0  0  0  0  0
   -5.8700   17.4060  -34.6110 C   0  0  0  0  0  0  0  0  0  0  0  0
   -3.8240   18.6250  -34.2230 N   0  0  0  0  0  0  0  0  0  0  0  0
   -3.0760   19.6370  -33.7630 C   0  0  0  0  0  0  0  0  0  0  0  0
   -3.7450   20.6340  -33.0870 C   0  0  0  0  0  0  0  0  0  0  0  0
   -2.7730   21.5420  -32.7230 C   0  0  0  0  0  0  0  0  0  0  0  0
   -1.5810   21.0860  -33.1720 N   0  0  0  0  0  0  0  0  0  0  0  0
   -1.7640   19.9400  -33.7980 N   0  0  0  0  0  0  0  0  0  0  0  0
   -0.7240   19.1230  -34.4300 C   0  0  0  0  0  0  0  0  0  0  0  0
   -5.1380   20.5730  -32.9010 C   0  0  0  0  0  0  0  0  0  0  0  0
   -5.6320   21.6170  -32.3590 N   0  0  0  0  0  0  0  0  0  0  0  0
   -6.0720   21.5870  -31.0000 C   0  0  0  0  0  0  0  0  0  0  0  0
   -5.8100   23.0740  -30.7160 C   0  0  0  0  0  0  0  0  0  0  0  0
   -6.7700   23.8480  -30.1010 C   0  0  0  0  0  0  0  0  0  0  0  0
   -6.5340   25.1860  -29.8590 C   0  0  0  0  0  0  0  0  0  0  0  0
   -5.3300   25.6950  -30.2490 C   0  0  0  0  0  0  0  0  0  0  0  0
   -4.3660   24.9520  -30.8570 N   0  0  0  0  0  0  0  0  0  0  0  0
   -4.6090   23.6480  -31.0880 C   0  0  0  0  0  0  0  0  0  0  0  0
   -8.9241   23.6520  -31.3442 H   0  0  0  0  0  0  0  0  0  0  0  0
   -8.2485   22.6218  -32.6515 H   0  0  0  0  0  0  0  0  0  0  0  0
   -9.9948   23.0428  -32.6515 H   0  0  0  0  0  0  0  0  0  0  0  0
   -8.7014   21.4626  -30.3644 H   0  0  0  0  0  0  0  0  0  0  0  0
  -10.4415   21.6173  -30.7538 H   0  0  0  0  0  0  0  0  0  0  0  0
  -10.3372   20.0798  -32.4444 H   0  0  0  0  0  0  0  0  0  0  0  0
   -8.6719   20.5813  -32.9260 H   0  0  0  0  0  0  0  0  0  0  0  0
   -6.8880   18.6798  -31.1754 H   0  0  0  0  0  0  0  0  0  0  0  0
   -7.9156   17.6381  -32.1984 H   0  0  0  0  0  0  0  0  0  0  0  0
   -7.7266   18.9926  -34.0193 H   0  0  0  0  0  0  0  0  0  0  0  0
   -7.5879   20.4956  -32.9517 H   0  0  0  0  0  0  0  0  0  0  0  0
   -6.2576   16.7788  -33.7947 H   0  0  0  0  0  0  0  0  0  0  0  0
   -6.7071   17.7598  -35.2307 H   0  0  0  0  0  0  0  0  0  0  0  0
   -5.1791   16.8156  -35.2307 H   0  0  0  0  0  0  0  0  0  0  0  0
   -2.9382   22.4751  -32.1645 H   0  0  0  0  0  0  0  0  0  0  0  0
   -0.1122   18.6424  -33.6524 H   0  0  0  0  0  0  0  0  0  0  0  0
   -1.1945   18.3505  -35.0560 H   0  0  0  0  0  0  0  0  0  0  0  0
   -0.0848   19.7630  -35.0560 H   0  0  0  0  0  0  0  0  0  0  0  0
   -7.1336   21.3160  -30.9025 H   0  0  0  0  0  0  0  0  0  0  0  0
   -5.5927   20.8557  -30.3325 H   0  0  0  0  0  0  0  0  0  0  0  0
   -7.7280   23.3977  -29.8019 H   0  0  0  0  0  0  0  0  0  0  0  0
   -7.2890   25.8188  -29.3696 H   0  0  0  0  0  0  0  0  0  0  0  0
   -5.1283   26.7601  -30.0625 H   0  0  0  0  0  0  0  0  0  0  0  0
   -3.8417   23.0315  -31.5792 H   0  0  0  0  0  0  0  0  0  0  0  0
  1  2  1  0
  2  3  1  0
  3  4  1  0
  4  5  1  0
  5  6  1  0
  6  7  1  0
  7  8  1  0
  8  9  1  0
  8 10  2  0
 10 11  1  0
 11 12  2  0
 12 13  1  0
 13 14  2  0
 14 15  1  0
 15 16  1  0
 12 17  1  0
 17 18  2  0
 18 19  1  0
 19 20  1  0
 20 21  2  0
 21 22  1  0
 22 23  2  0
 23 24  1  0
 24 25  2  0
 17  7  1  0
 25 20  1  0
 15 11  1  0
  1 26  1  0
  1 27  1  0
  1 28  1  0
  2 29  1  0
  2 30  1  0
  3 31  1  0
  3 32  1  0
  5 33  1  0
  5 34  1  0
  6 35  1  0
  6 36  1  0
  9 37  1  0
  9 38  1  0
  9 39  1  0
 13 40  1  0
 16 41  1  0
 16 42  1  0
 16 43  1  0
 19 44  1  0
 19 45  1  0
 21 46  1  0
 22 47  1  0
 23 48  1  0
 25 49  1  0
M  END
>  <smiles>  (5) 
CCCOCCn1c(C)nc2c(cnn2C)c1=NCc1cccnc1

>  <score_type>  (5) 
oracle

>  <origin>  (5) 
adg

>  <m_score__min__energy>  (5) 
-7.79

>  <m_primary>  (5) 
energy

$$$$
5:0
     RDKit          3D

 42 44  0  0  0  0  0  0  0  0999 V2000
   -2.6260   25.3160  -25.7840 C   0  0  0  0  0  0  0  0  0  0  0  0
   -2.8700   24.8750  -27.1920 C   0  0  0  0  0  0  0  0  0  0  0  0
   -3.9410   24.1230  -27.6310 C   0  0  0  0  0  0  0  0  0  0  0  0
   -3.7380   24.0160  -28.9950 C   0  0  0  0  0  0  0  0  0  0  0  0
   -4.6400   23.3130  -29.9600 C   0  0  0  0  0  0  0  0  0  0  0  0
   -5.6640   24.2470  -30.4770 N   0  0  0  0  0  0  0  0  0  0  0  0
   -5.8100   24.1670  -31.9560 C   0  0  0  0  0  0  0  0  0  0  0  0
   -7.0350   23.3550  -32.4210 C   0  0  0  0  0  0  0  0  0  0  0  0
   -7.3650   22.3200  -31.4370 N   0  0  0  0  0  0  0  0  0  0  0  0
   -7.4450   20.9300  -31.8090 C   0  0  0  0  0  0  0  0  0  0  0  0
   -8.4020   20.0870  -31.2170 C   0  0  0  0  0  0  0  0  0  0  0  0
   -8.4880   18.7430  -31.5910 C   0  0  0  0  0  0  0  0  0  0  0  0
   -7.6250   18.2300  -32.5630 C   0  0  0  0  0  0  0  0  0  0  0  0
   -6.6760   19.0600  -33.1660 C   0  0  0  0  0  0  0  0  0  0  0  0
   -5.5950   18.4150  -34.3880 Cl  0  0  0  0  0  0  0  0  0  0  0  0
   -6.5880   20.4070  -32.7930 C   0  0  0  0  0  0  0  0  0  0  0  0
   -7.5930   22.7250  -30.0450 C   0  0  0  0  0  0  0  0  0  0  0  0
   -6.9540   24.0970  -29.7690 C   0  0  0  0  0  0  0  0  0  0  0  0
   -2.6180   24.6750  -29.3530 N   0  0  0  0  0  0  0  0  0  0  0  0
   -2.0990   25.1950  -28.2520 N   0  0  0  0  0  0  0  0  0  0  0  0
   -0.8760   25.9880  -28.2300 C   0  0  0  0  0  0  0  0  0  0  0  0
   -3.0389   24.5698  -25.0893 H   0  0  0  0  0  0  0  0  0  0  0  0
   -1.5439   25.4165  -25.6135 H   0  0  0  0  0  0  0  0  0  0  0  0
   -3.1157   26.2861  -25.6135 H   0  0  0  0  0  0  0  0  0  0  0  0
   -4.7653   23.7054  -27.0342 H   0  0  0  0  0  0  0  0  0  0  0  0
   -4.0434   22.9272  -30.7997 H   0  0  0  0  0  0  0  0  0  0  0  0
   -5.1415   22.4822  -29.4419 H   0  0  0  0  0  0  0  0  0  0  0  0
   -5.9026   25.1897  -32.3505 H   0  0  0  0  0  0  0  0  0  0  0  0
   -4.9191   23.6459  -32.3365 H   0  0  0  0  0  0  0  0  0  0  0  0
   -7.8948   24.0310  -32.5382 H   0  0  0  0  0  0  0  0  0  0  0  0
   -6.8000   22.8726  -33.3813 H   0  0  0  0  0  0  0  0  0  0  0  0
   -9.0870   20.4875  -30.4551 H   0  0  0  0  0  0  0  0  0  0  0  0
   -9.2359   18.0884  -31.1197 H   0  0  0  0  0  0  0  0  0  0  0  0
   -7.6927   17.1713  -32.8539 H   0  0  0  0  0  0  0  0  0  0  0  0
   -5.8438   21.0597  -33.2728 H   0  0  0  0  0  0  0  0  0  0  0  0
   -8.6754   22.7863  -29.8589 H   0  0  0  0  0  0  0  0  0  0  0  0
   -7.1342   21.9795  -29.3789 H   0  0  0  0  0  0  0  0  0  0  0  0
   -7.6415   24.8860  -30.1078 H   0  0  0  0  0  0  0  0  0  0  0  0
   -6.7659   24.1787  -28.6883 H   0  0  0  0  0  0  0  0  0  0  0  0
   -0.5815   26.1789  -27.1875 H   0  0  0  0  0  0  0  0  0  0  0  0
   -0.0732   25.4381  -28.7430 H   0  0  0  0  0  0  0  0  0  0  0  0
   -1.0504   26.9453  -28.7430 H   0  0  0  0  0  0  0  0  0  0  0  0
  1  2  1  0
  2  3  2  0
  3  4  1  0
  4  5  1  0
  5  6  1  0
  6  7  1  0
  7  8  1  0
  8  9  1  0
  9 10  1  0
 10 11  2  0
 11 12  1  0
 12 13  2  0
 13 14  1  0
 14 15  1  0
 14 16  2  0
  9 17  1  0
 17 18  1  0
  4 19  2  0
 19 20  1  0
 20 21  1  0
 20  2  1  0
 18  6  1  0
 16 10  1  0
  1 22  1  0
  1 23  1  0
  1 24  1  0
  3 25  1  0
  5 26  1  0
  5 27  1  0
  7 28  1  0
  7 29  1  0
  8 30  1  0
  8 31  1  0
 11 32  1  0
 12 33  1  0
 13 34  1  0
 16 35  1  0
 17 36  1  0
 17 37  1  0
 18 38  1  0
 18 39  1  0
 21 40  1  0
 21 41  1  0
 21 42  1  0
M  END
>  <UniqueID>  (6) 
5

>  <SMILES>  (6) 
Cc1cc(CN2CCN(c3cccc(Cl)c3)CC2)nn1C

>  <Energy>  (6) 
81.69606508898258

>  <Genealogy>  (6) 
Cc1cc(CN2CCN(c3cccc(Cl)c3)CC2)nn1C (3D coordinates assigned)
Cc1cc(CN2CCN(c3cccc(Cl)c3)CC2)nn1C (nonaromatic ring conformer: 81.69606508898258 kcal/mol)

>  <smiles>  (6) 
Cc1cc(CN2CCN(c3cccc(Cl)c3)CC2)nn1C

>  <score_type>  (6) 
oracle

>  <origin>  (6) 
adg

>  <m_score__min__energy>  (6) 
-8.1099999999999994

>  <m_primary>  (6) 
energy

$$$$
6:0
     RDKit          3D

 57 59  0  0  0  0  0  0  0  0999 V2000
   -2.4310   20.3350  -28.1700 C   0  0  0  0  0  0  0  0  0  0  0  0
   -2.5390   20.6400  -29.6560 C   0  0  0  0  0  0  0  0  0  0  0  0
   -3.1940   21.8810  -29.8280 O   0  0  0  0  0  0  0  0  0  0  0  0
   -2.3450   22.7810  -30.4210 N   0  0  0  0  0  0  0  0  0  0  0  0
   -1.6010   23.5030  -29.3840 C   0  0  0  0  0  0  0  0  0  0  0  0
   -2.4900   24.5490  -28.7000 C   0  0  0  0  0  0  0  0  0  0  0  0
   -3.9550   24.5030  -29.1630 C   0  0  0  0  0  0  0  0  0  0  0  0
   -4.0970   25.0420  -30.4660 O   0  0  0  0  0  0  0  0  0  0  0  0
   -5.3510   25.6770  -30.6080 C   0  0  0  0  0  0  0  0  0  0  0  0
   -6.4310   24.6380  -30.9220 C   0  0  0  0  0  0  0  0  0  0  0  0
   -6.1160   23.8010  -32.1700 C   0  0  0  0  0  0  0  0  0  0  0  0
   -5.1230   22.7650  -31.8790 N   0  0  0  0  0  0  0  0  0  0  0  0
   -5.2590   21.4170  -32.3690 C   0  0  0  0  0  0  0  0  0  0  0  0
   -4.1690   20.7660  -32.9820 C   0  0  0  0  0  0  0  0  0  0  0  0
   -2.8820   21.3450  -32.9810 C   0  0  0  0  0  0  0  0  0  0  0  0
   -1.8020   20.6830  -33.5590 C   0  0  0  0  0  0  0  0  0  0  0  0
   -1.9770   19.4250  -34.1230 C   0  0  0  0  0  0  0  0  0  0  0  0
   -3.2360   18.8260  -34.1250 C   0  0  0  0  0  0  0  0  0  0  0  0
   -4.3630   19.4910  -33.5760 C   0  0  0  0  0  0  0  0  0  0  0  0
   -5.6200   18.9190  -33.5940 N   0  0  0  0  0  0  0  0  0  0  0  0
   -5.8970   17.7680  -34.4800 C   0  0  0  0  0  0  0  0  0  0  0  0
   -6.6230   19.4360  -32.7960 C   0  0  0  0  0  0  0  0  0  0  0  0
   -7.8250   18.7240  -32.5570 C   0  0  0  0  0  0  0  0  0  0  0  0
   -8.8540   19.2830  -31.8020 C   0  0  0  0  0  0  0  0  0  0  0  0
   -8.7120   20.5530  -31.2580 C   0  0  0  0  0  0  0  0  0  0  0  0
   -7.5290   21.2640  -31.4440 C   0  0  0  0  0  0  0  0  0  0  0  0
   -6.4650   20.7140  -32.1920 C   0  0  0  0  0  0  0  0  0  0  0  0
   -2.7432   21.2167  -27.5911 H   0  0  0  0  0  0  0  0  0  0  0  0
   -3.0825   19.4841  -27.9220 H   0  0  0  0  0  0  0  0  0  0  0  0
   -1.3892   20.0836  -27.9220 H   0  0  0  0  0  0  0  0  0  0  0  0
   -1.5319   20.6912  -30.0955 H   0  0  0  0  0  0  0  0  0  0  0  0
   -3.1130   19.8460  -30.1561 H   0  0  0  0  0  0  0  0  0  0  0  0
   -2.8310   23.4540  -31.0650 H   0  0  0  0  0  0  0  0  0  0  0  0
   -1.2448   22.7851  -28.6305 H   0  0  0  0  0  0  0  0  0  0  0  0
   -0.7514   24.0185  -29.8557 H   0  0  0  0  0  0  0  0  0  0  0  0
   -2.4619   24.3740  -27.6144 H   0  0  0  0  0  0  0  0  0  0  0  0
   -2.0947   25.5387  -28.9724 H   0  0  0  0  0  0  0  0  0  0  0  0
   -4.2973   23.4576  -29.1677 H   0  0  0  0  0  0  0  0  0  0  0  0
   -4.5592   25.1054  -28.4687 H   0  0  0  0  0  0  0  0  0  0  0  0
   -5.6052   26.1951  -29.6716 H   0  0  0  0  0  0  0  0  0  0  0  0
   -5.2971   26.4027  -31.4329 H   0  0  0  0  0  0  0  0  0  0  0  0
   -6.5260   23.9604  -30.0607 H   0  0  0  0  0  0  0  0  0  0  0  0
   -7.3646   25.1847  -31.1205 H   0  0  0  0  0  0  0  0  0  0  0  0
   -7.0411   23.3217  -32.5229 H   0  0  0  0  0  0  0  0  0  0  0  0
   -5.7051   24.4689  -32.9414 H   0  0  0  0  0  0  0  0  0  0  0  0
   -4.3650   22.9870  -31.1950 H   0  0  0  0  0  0  0  0  0  0  0  0
   -2.7302   22.3312  -32.5180 H   0  0  0  0  0  0  0  0  0  0  0  0
   -0.8091   21.1563  -33.5692 H   0  0  0  0  0  0  0  0  0  0  0  0
   -1.1195   18.9002  -34.5693 H   0  0  0  0  0  0  0  0  0  0  0  0
   -3.3576   17.8225  -34.5588 H   0  0  0  0  0  0  0  0  0  0  0  0
   -6.1111   16.8784  -33.8694 H   0  0  0  0  0  0  0  0  0  0  0  0
   -6.7662   17.9948  -35.1149 H   0  0  0  0  0  0  0  0  0  0  0  0
   -5.0198   17.5745  -35.1149 H   0  0  0  0  0  0  0  0  0  0  0  0
   -7.9475   17.7137  -32.9744 H   0  0  0  0  0  0  0  0  0  0  0  0
   -9.7822   18.7164  -31.6362 H   0  0  0  0  0  0  0  0  0  0  0  0
   -9.5350   20.9979  -30.6795 H   0  0  0  0  0  0  0  0  0  0  0  0
   -7.4222   22.2660  -31.0029 H   0  0  0  0  0  0  0  0  0  0  0  0
  1  2  1  0
  2  3  1  0
  3  4  1  0
  4  5  1  0
  5  6  1  0
  6  7  1  0
  7  8  1  0
  8  9  1  0
  9 10  1  0
 10 11  1  0
 11 12  1  0
 12 13  1  0
 13 14  2  0
 14 15  1  0
 15 16  2  0
 16 17  1  0
 17 18  2  0
 18 19  1  0
 19 20  2  0
 20 21  1  0
 20 22  1  0
 22 23  2  0
 23 24  1  0
 24 25  2  0
 25 26  1  0
 26 27  2  0
 27 13  1  0
 19 14  1  0
 27 22  1  0
  1 28  1  0
  1 29  1  0
  1 30  1  0
  2 31  1  0
  2 32  1  0
  4 33  1  0
  5 34  1  0
  5 35  1  0
  6 36  1  0
  6 37  1  0
  7 38  1  0
  7 39  1  0
  9 40  1  0
  9 41  1  0
 10 42  1  0
 10 43  1  0
 11 44  1  0
 11 45  1  0
 12 46  1  0
 15 47  1  0
 16 48  1  0
 17 49  1  0
 18 50  1  0
 21 51  1  0
 21 52  1  0
 21 53  1  0
 23 54  1  0
 24 55  1  0
 25 56  1  0
 26 57  1  0
M  CHG  1  20   1
M  END
>  <UniqueID>  (7) 
6

>  <SMILES>  (7) 
CCONCCCOCCCNc1c2ccccc2[n+](C)c2ccccc12

>  <Energy>  (7) 
74.50549657070397

>  <Genealogy>  (7) 
CCONCCCOCCCNc1c2ccccc2[n+](C)c2ccccc12 (3D coordinates assigned)
CCONCCCOCCCNc1c2ccccc2[n+](C)c2ccccc12 (optimized conformer: 74.50549657070397 kcal/mol)

>  <smiles>  (7) 
CCONCCCOCCCNc1c2ccccc2[n+](C)c2ccccc12

>  <score_type>  (7) 
oracle

>  <origin>  (7) 
adg

>  <m_score__min__energy>  (7) 
-9.6500000000000004

>  <m_primary>  (7) 
energy

$$$$
7:0
     RDKit          3D

 56 59  0  0  0  0  0  0  0  0999 V2000
   -2.7580   20.5880  -28.4630 C   0  0  0  0  0  0  0  0  0  0  0  0
   -3.4680   21.2470  -29.6490 C   0  0  0  0  0  0  0  0  0  0  0  0
   -2.5950   22.1350  -30.4500 N   0  0  0  0  0  0  0  0  0  0  0  0
   -2.5600   23.5350  -29.9780 C   0  0  0  0  0  0  0  0  0  0  0  0
   -3.8920   23.9330  -29.3470 C   0  0  0  0  0  0  0  0  0  0  0  0
   -1.3040   21.5270  -30.8610 C   0  0  0  0  0  0  0  0  0  0  0  0
   -1.1780   21.2310  -32.3760 C   0  0  0  0  0  0  0  0  0  0  0  0
   -2.3350   21.7320  -33.1460 N   0  0  0  0  0  0  0  0  0  0  0  0
   -3.3520   20.7110  -33.3340 C   0  0  0  0  0  0  0  0  0  0  0  0
   -4.6890   20.9530  -32.9830 C   0  0  0  0  0  0  0  0  0  0  0  0
   -5.6590   19.9700  -33.1250 C   0  0  0  0  0  0  0  0  0  0  0  0
   -5.3870   18.7320  -33.6480 N   0  0  0  0  0  0  0  0  0  0  0  0
   -6.4940   17.7800  -33.8840 C   0  0  0  0  0  0  0  0  0  0  0  0
   -6.8440   17.0250  -32.6030 C   0  0  0  0  0  0  0  0  0  0  0  0
   -4.0690   18.4180  -33.9530 C   0  0  0  0  0  0  0  0  0  0  0  0
   -3.6960   17.1160  -34.3730 C   0  0  0  0  0  0  0  0  0  0  0  0
   -2.3820   16.8150  -34.7170 C   0  0  0  0  0  0  0  0  0  0  0  0
   -1.4000   17.7910  -34.6500 C   0  0  0  0  0  0  0  0  0  0  0  0
   -1.7160   19.0730  -34.2130 C   0  0  0  0  0  0  0  0  0  0  0  0
   -3.0350   19.4120  -33.8340 C   0  0  0  0  0  0  0  0  0  0  0  0
   -6.9340   20.5160  -32.6170 C   0  0  0  0  0  0  0  0  0  0  0  0
   -8.1370   19.9040  -32.4640 N   0  0  0  0  0  0  0  0  0  0  0  0
   -9.1840   20.5900  -31.9160 C   0  0  0  0  0  0  0  0  0  0  0  0
   -9.0200   21.9240  -31.4910 C   0  0  0  0  0  0  0  0  0  0  0  0
   -7.7690   22.5460  -31.6260 C   0  0  0  0  0  0  0  0  0  0  0  0
   -6.7360   21.8100  -32.1980 C   0  0  0  0  0  0  0  0  0  0  0  0
   -5.3410   22.1470  -32.4100 C   0  0  0  0  0  0  0  0  0  0  0  0
   -4.8100   23.2530  -32.1270 O   0  0  0  0  0  0  0  0  0  0  0  0
   -3.1767   20.9766  -27.5230 H   0  0  0  0  0  0  0  0  0  0  0  0
   -2.9046   19.4987  -28.5070 H   0  0  0  0  0  0  0  0  0  0  0  0
   -1.6826   20.8153  -28.5070 H   0  0  0  0  0  0  0  0  0  0  0  0
   -3.8531   20.4540  -30.3069 H   0  0  0  0  0  0  0  0  0  0  0  0
   -4.2694   21.8756  -29.2335 H   0  0  0  0  0  0  0  0  0  0  0  0
   -1.7610   23.6424  -29.2296 H   0  0  0  0  0  0  0  0  0  0  0  0
   -2.3708   24.1910  -30.8405 H   0  0  0  0  0  0  0  0  0  0  0  0
   -3.8012   23.9059  -28.2511 H   0  0  0  0  0  0  0  0  0  0  0  0
   -4.1601   24.9505  -29.6676 H   0  0  0  0  0  0  0  0  0  0  0  0
   -4.6744   23.2294  -29.6676 H   0  0  0  0  0  0  0  0  0  0  0  0
   -0.4955   22.2175  -30.5789 H   0  0  0  0  0  0  0  0  0  0  0  0
   -1.2431   20.5550  -30.3497 H   0  0  0  0  0  0  0  0  0  0  0  0
   -0.2654   21.7138  -32.7555 H   0  0  0  0  0  0  0  0  0  0  0  0
   -1.1387   20.1390  -32.5022 H   0  0  0  0  0  0  0  0  0  0  0  0
   -2.0110   22.0750  -34.0780 H   0  0  0  0  0  0  0  0  0  0  0  0
   -2.7190   22.5830  -32.6840 H   0  0  0  0  0  0  0  0  0  0  0  0
   -7.3791   18.3347  -34.2287 H   0  0  0  0  0  0  0  0  0  0  0  0
   -6.1766   17.0527  -34.6458 H   0  0  0  0  0  0  0  0  0  0  0  0
   -6.5622   17.6328  -31.7305 H   0  0  0  0  0  0  0  0  0  0  0  0
   -7.9257   16.8270  -32.5780 H   0  0  0  0  0  0  0  0  0  0  0  0
   -6.2961   16.0715  -32.5780 H   0  0  0  0  0  0  0  0  0  0  0  0
   -4.4613   16.3278  -34.4280 H   0  0  0  0  0  0  0  0  0  0  0  0
   -2.1211   15.7976  -35.0437 H   0  0  0  0  0  0  0  0  0  0  0  0
   -0.3674   17.5508  -34.9434 H   0  0  0  0  0  0  0  0  0  0  0  0
   -0.9258   19.8365  -34.1614 H   0  0  0  0  0  0  0  0  0  0  0  0
  -10.1616   20.0979  -31.8057 H   0  0  0  0  0  0  0  0  0  0  0  0
   -9.8674   22.4743  -31.0561 H   0  0  0  0  0  0  0  0  0  0  0  0
   -7.6104   23.5815  -31.2905 H   0  0  0  0  0  0  0  0  0  0  0  0
  1  2  1  0
  2  3  1  0
  3  4  1  0
  4  5  1  0
  3  6  1  0
  6  7  1  0
  7  8  1  0
  8  9  1  0
  9 10  2  0
 10 11  1  0
 11 12  2  0
 12 13  1  0
 13 14  1  0
 12 15  1  0
 15 16  2  0
 16 17  1  0
 17 18  2  0
 18 19  1  0
 19 20  2  0
 11 21  1  0
 21 22  2  0
 22 23  1  0
 23 24  2  0
 24 25  1  0
 25 26  2  0
 26 27  1  0
 27 28  2  0
 20  9  1  0
 26 21  1  0
 27 10  1  0
 20 15  1  0
  1 29  1  0
  1 30  1  0
  1 31  1  0
  2 32  1  0
  2 33  1  0
  4 34  1  0
  4 35  1  0
  5 36  1  0
  5 37  1  0
  5 38  1  0
  6 39  1  0
  6 40  1  0
  7 41  1  0
  7 42  1  0
  8 43  1  0
  8 44  1  0
 13 45  1  0
 13 46  1  0
 14 47  1  0
 14 48  1  0
 14 49  1  0
 16 50  1  0
 17 51  1  0
 18 52  1  0
 19 53  1  0
 23 54  1  0
 24 55  1  0
 25 56  1  0
M  CHG  2   8   1  12   1
M  END
>  <UniqueID>  (8) 
7

>  <SMILES>  (8) 
CCN(CC)CC[NH2+]c1c2c([n+](CC)c3ccccc13)-c1ncccc1C2=O

>  <Energy>  (8) 
114.01057585048784

>  <Genealogy>  (8) 
CCN(CC)CC[NH2+]c1c2c([n+](CC)c3ccccc13)-c1ncccc1C2=O (protonated)
CCN(CC)CC[NH2+]c1c2c([n+](CC)c3ccccc13)-c1ncccc1C2=O (3D coordinates assigned)
CCN(CC)CC[NH2+]c1c2c([n+](CC)c3ccccc13)-c1ncccc1C2=O (nonaromatic ring conformer: 114.01057585048784 kcal/mol)

>  <smiles>  (8) 
CCN(CC)CCNc1c2c([n+](CC)c3ccccc13)-c1ncccc1C2=O

>  <score_type>  (8) 
oracle

>  <origin>  (8) 
adg

>  <m_score__min__energy>  (8) 
-8.5999999999999996

>  <m_primary>  (8) 
energy

$$$$
8:0
     RDKit          3D

 36 37  0  0  0  0  0  0  0  0999 V2000
   -3.7580   24.2910  -27.2010 C   0  0  0  0  0  0  0  0  0  0  0  0
   -2.8230   24.5290  -28.7450 S   0  0  0  0  0  0  0  0  0  0  0  0
   -4.2500   24.2440  -29.7930 C   0  0  0  0  0  0  0  0  0  0  0  0
   -5.4400   24.9430  -29.5610 C   0  0  0  0  0  0  0  0  0  0  0  0
   -6.5550   24.7130  -30.3720 C   0  0  0  0  0  0  0  0  0  0  0  0
   -6.4830   23.7890  -31.4180 C   0  0  0  0  0  0  0  0  0  0  0  0
   -5.2860   23.0940  -31.6700 C   0  0  0  0  0  0  0  0  0  0  0  0
   -5.1950   22.1220  -32.7250 N   0  0  0  0  0  0  0  0  0  0  0  0
   -5.4350   20.7170  -32.5460 C   0  0  0  0  0  0  0  0  0  0  0  0
   -4.5780   19.6640  -33.4780 S   0  0  0  0  0  0  0  0  0  0  0  0
   -6.5680   20.2580  -31.7590 N   0  0  0  0  0  0  0  0  0  0  0  0
   -6.5660   18.7740  -31.5940 C   0  0  0  0  0  0  0  0  0  0  0  0
   -7.6440   18.0720  -32.4360 C   0  0  0  0  0  0  0  0  0  0  0  0
   -9.0470   18.6000  -32.0950 C   0  0  0  0  0  0  0  0  0  0  0  0
   -9.0520   20.0940  -31.7230 C   0  0  0  0  0  0  0  0  0  0  0  0
   -7.8310   20.8160  -32.3040 C   0  0  0  0  0  0  0  0  0  0  0  0
   -4.1790   23.3140  -30.8370 C   0  0  0  0  0  0  0  0  0  0  0  0
   -3.0940   24.4600  -26.3405 H   0  0  0  0  0  0  0  0  0  0  0  0
   -4.5940   25.0050  -27.1648 H   0  0  0  0  0  0  0  0  0  0  0  0
   -4.1509   23.2642  -27.1648 H   0  0  0  0  0  0  0  0  0  0  0  0
   -5.4979   25.6734  -28.7405 H   0  0  0  0  0  0  0  0  0  0  0  0
   -7.4910   25.2604  -30.1865 H   0  0  0  0  0  0  0  0  0  0  0  0
   -7.3662   23.6043  -32.0471 H   0  0  0  0  0  0  0  0  0  0  0  0
   -4.9090   22.4530  -33.6750 H   0  0  0  0  0  0  0  0  0  0  0  0
   -6.4750   20.6610  -30.7970 H   0  0  0  0  0  0  0  0  0  0  0  0
   -5.5806   18.3895  -31.8959 H   0  0  0  0  0  0  0  0  0  0  0  0
   -6.7851   18.5612  -30.5372 H   0  0  0  0  0  0  0  0  0  0  0  0
   -7.4415   18.2536  -33.5018 H   0  0  0  0  0  0  0  0  0  0  0  0
   -7.6134   16.9952  -32.2134 H   0  0  0  0  0  0  0  0  0  0  0  0
   -9.6988   18.4539  -32.9690 H   0  0  0  0  0  0  0  0  0  0  0  0
   -9.4056   18.0408  -31.2182 H   0  0  0  0  0  0  0  0  0  0  0  0
   -9.9662   20.5593  -32.1203 H   0  0  0  0  0  0  0  0  0  0  0  0
   -9.0171   20.1793  -30.6269 H   0  0  0  0  0  0  0  0  0  0  0  0
   -7.8322   20.6996  -33.3978 H   0  0  0  0  0  0  0  0  0  0  0  0
   -7.8904   21.8789  -32.0271 H   0  0  0  0  0  0  0  0  0  0  0  0
   -3.2486   22.7518  -31.0053 H   0  0  0  0  0  0  0  0  0  0  0  0
  1  2  1  0
  2  3  1  0
  3  4  2  0
  4  5  1  0
  5  6  2  0
  6  7  1  0
  7  8  1  0
  8  9  1  0
  9 10  2  0
  9 11  1  0
 11 12  1  0
 12 13  1  0
 13 14  1  0
 14 15  1  0
 15 16  1  0
  7 17  2  0
 17  3  1  0
 16 11  1  0
  1 18  1  0
  1 19  1  0
  1 20  1  0
  4 21  1  0
  5 22  1  0
  6 23  1  0
  8 24  1  0
 11 25  1  0
 12 26  1  0
 12 27  1  0
 13 28  1  0
 13 29  1  0
 14 30  1  0
 14 31  1  0
 15 32  1  0
 15 33  1  0
 16 34  1  0
 16 35  1  0
 17 36  1  0
M  CHG  1  11   1
M  END
>  <UniqueID>  (9) 
8

>  <SMILES>  (9) 
CSc1cccc(NC(=S)[NH+]2CCCCC2)c1

>  <Energy>  (9) 
44.65670292266537

>  <Genealogy>  (9) 
CSc1cccc(NC(=S)[NH+]2CCCCC2)c1 (protonated)
CSc1cccc(NC(=S)[NH+]2CCCCC2)c1 (3D coordinates assigned)
CSc1cccc(NC(=S)[NH+]2CCCCC2)c1 (nonaromatic ring conformer: 44.65670292266537 kcal/mol)

>  <smiles>  (9) 
CSc1cccc(NC(=S)N2CCCCC2)c1

>  <score_type>  (9) 
oracle

>  <origin>  (9) 
adg

>  <m_score__min__energy>  (9) 
-7.0700000000000003

>  <m_primary>  (9) 
energy

$$$$
9:0
     RDKit          3D

 64 65  0  0  0  0  0  0  0  0999 V2000
   -1.9670   25.4730  -26.5550 C   0  0  0  0  0  0  0  0  0  0  0  0
   -1.2160   26.0510  -27.7500 C   0  0  0  0  0  0  0  0  0  0  0  0
   -1.8560   25.6660  -28.9550 O   0  0  0  0  0  0  0  0  0  0  0  0
   -1.9450   24.2600  -29.0420 C   0  0  0  0  0  0  0  0  0  0  0  0
   -3.1420   23.8910  -29.9220 C   0  0  0  0  0  0  0  0  0  0  0  0
   -3.6990   25.0430  -30.5270 O   0  0  0  0  0  0  0  0  0  0  0  0
   -4.9990   25.3070  -30.0340 C   0  0  0  0  0  0  0  0  0  0  0  0
   -6.0770   24.8960  -31.0390 C   0  0  0  0  0  0  0  0  0  0  0  0
   -5.6090   23.8510  -31.8920 O   0  0  0  0  0  0  0  0  0  0  0  0
   -6.1820   22.5780  -32.0660 C   0  0  0  0  0  0  0  0  0  0  0  0
   -7.5070   22.3070  -31.6870 C   0  0  0  0  0  0  0  0  0  0  0  0
   -8.0470   21.0370  -31.8540 C   0  0  0  0  0  0  0  0  0  0  0  0
   -7.2850   20.0080  -32.4130 C   0  0  0  0  0  0  0  0  0  0  0  0
   -7.8470   18.7290  -32.5490 C   0  0  0  0  0  0  0  0  0  0  0  0
   -7.1040   17.6870  -33.1010 C   0  0  0  0  0  0  0  0  0  0  0  0
   -5.8030   17.9200  -33.5460 C   0  0  0  0  0  0  0  0  0  0  0  0
   -5.2310   19.1890  -33.4280 C   0  0  0  0  0  0  0  0  0  0  0  0
   -5.9490   20.2570  -32.8380 C   0  0  0  0  0  0  0  0  0  0  0  0
   -5.3940   21.5600  -32.6520 C   0  0  0  0  0  0  0  0  0  0  0  0
   -3.9430   21.9020  -32.9490 C   0  0  0  0  0  0  0  0  0  0  0  0
   -3.0610   20.9300  -32.2560 N   0  0  0  0  0  0  0  0  0  0  0  0
   -1.6280   21.1360  -32.5860 C   0  0  0  0  0  0  0  0  0  0  0  0
   -1.3800   20.7470  -34.0380 C   0  0  0  0  0  0  0  0  0  0  0  0
   -3.3150   20.8890  -30.7990 C   0  0  0  0  0  0  0  0  0  0  0  0
   -2.0460   20.4820  -30.0330 C   0  0  0  0  0  0  0  0  0  0  0  0
   -2.0370   21.0940  -28.6860 N   0  0  0  0  0  0  0  0  0  0  0  0
   -2.7470   20.2390  -27.7150 C   0  0  0  0  0  0  0  0  0  0  0  0
   -0.6560   21.3190  -28.2270 C   0  0  0  0  0  0  0  0  0  0  0  0
   -1.5036   25.8297  -25.6233 H   0  0  0  0  0  0  0  0  0  0  0  0
   -3.0173   25.7980  -26.5899 H   0  0  0  0  0  0  0  0  0  0  0  0
   -1.9217   24.3745  -26.5899 H   0  0  0  0  0  0  0  0  0  0  0  0
   -1.2050   27.1486  -27.6776 H   0  0  0  0  0  0  0  0  0  0  0  0
   -0.1850   25.6676  -27.7493 H   0  0  0  0  0  0  0  0  0  0  0  0
   -1.0224   23.8587  -29.4867 H   0  0  0  0  0  0  0  0  0  0  0  0
   -2.0762   23.8326  -28.0370 H   0  0  0  0  0  0  0  0  0  0  0  0
   -2.8106   23.1962  -30.7078 H   0  0  0  0  0  0  0  0  0  0  0  0
   -3.9098   23.4197  -29.2909 H   0  0  0  0  0  0  0  0  0  0  0  0
   -5.1479   24.7442  -29.1007 H   0  0  0  0  0  0  0  0  0  0  0  0
   -5.0871   26.3893  -29.8585 H   0  0  0  0  0  0  0  0  0  0  0  0
   -6.9637   24.5437  -30.4916 H   0  0  0  0  0  0  0  0  0  0  0  0
   -6.3290   25.7687  -31.6594 H   0  0  0  0  0  0  0  0  0  0  0  0
   -8.1238   23.1080  -31.2535 H   0  0  0  0  0  0  0  0  0  0  0  0
   -9.0837   20.8404  -31.5432 H   0  0  0  0  0  0  0  0  0  0  0  0
   -8.8802   18.5479  -32.2179 H   0  0  0  0  0  0  0  0  0  0  0  0
   -7.5432   16.6821  -33.1856 H   0  0  0  0  0  0  0  0  0  0  0  0
   -5.2233   17.0989  -33.9930 H   0  0  0  0  0  0  0  0  0  0  0  0
   -4.2095   19.3606  -33.7983 H   0  0  0  0  0  0  0  0  0  0  0  0
   -3.7673   21.8500  -34.0336 H   0  0  0  0  0  0  0  0  0  0  0  0
   -3.7229   22.9195  -32.5937 H   0  0  0  0  0  0  0  0  0  0  0  0
   -1.3667   22.1945  -32.4403 H   0  0  0  0  0  0  0  0  0  0  0  0
   -1.0067   20.5109  -31.9278 H   0  0  0  0  0  0  0  0  0  0  0  0
   -0.7890   19.8199  -34.0734 H   0  0  0  0  0  0  0  0  0  0  0  0
   -2.3433   20.5873  -34.5445 H   0  0  0  0  0  0  0  0  0  0  0  0
   -0.8287   21.5529  -34.5445 H   0  0  0  0  0  0  0  0  0  0  0  0
   -3.6358   21.8854  -30.4610 H   0  0  0  0  0  0  0  0  0  0  0  0
   -4.1001   20.1448  -30.5996 H   0  0  0  0  0  0  0  0  0  0  0  0
   -2.0184   19.3869  -29.9335 H   0  0  0  0  0  0  0  0  0  0  0  0
   -1.1652   20.8337  -30.5902 H   0  0  0  0  0  0  0  0  0  0  0  0
   -2.4875   20.5515  -26.6928 H   0  0  0  0  0  0  0  0  0  0  0  0
   -3.8323   20.3379  -27.8642 H   0  0  0  0  0  0  0  0  0  0  0  0
   -2.4504   19.1903  -27.8642 H   0  0  0  0  0  0  0  0  0  0  0  0
   -0.6312   21.3230  -27.1273 H   0  0  0  0  0  0  0  0  0  0  0  0
   -0.0082   20.5146  -28.6054 H   0  0  0  0  0  0  0  0  0  0  0  0
   -0.2970   22.2875  -28.6054 H   0  0  0  0  0  0  0  0  0  0  0  0
  1  2  1  0
  2  3  1  0
  3  4  1  0
  4  5  1  0
  5  6  1  0
  6  7  1  0
  7  8  1  0
  8  9  1  0
  9 10  1  0
 10 11  2  0
 11 12  1  0
 12 13  2  0
 13 14  1  0
 14 15  2  0
 15 16  1  0
 16 17  2  0
 17 18  1  0
 18 19  2  0
 19 20  1  0
 20 21  1  0
 21 22  1  0
 22 23  1  0
 21 24  1  0
 24 25  1  0
 25 26  1  0
 26 27  1  0
 26 28  1  0
 19 10  1  0
 18 13  1  0
  1 29  1  0
  1 30  1  0
  1 31  1  0
  2 32  1  0
  2 33  1  0
  4 34  1  0
  4 35  1  0
  5 36  1  0
  5 37  1  0
  7 38  1  0
  7 39  1  0
  8 40  1  0
  8 41  1  0
 11 42  1  0
 12 43  1  0
 14 44  1  0
 15 45  1  0
 16 46  1  0
 17 47  1  0
 20 48  1  0
 20 49  1  0
 22 50  1  0
 22 51  1  0
 23 52  1  0
 23 53  1  0
 23 54  1  0
 24 55  1  0
 24 56  1  0
 25 57  1  0
 25 58  1  0
 27 59  1  0
 27 60  1  0
 27 61  1  0
 28 62  1  0
 28 63  1  0
 28 64  1  0
M  END
>  <UniqueID>  (10) 
9

>  <SMILES>  (10) 
CCOCCOCCOc1ccc2ccccc2c1CN(CC)CCN(C)C

>  <Energy>  (10) 
71.79969602184909

>  <Genealogy>  (10) 
CCOCCOCCOc1ccc2ccccc2c1CN(CC)CCN(C)C (3D coordinates assigned)
CCOCCOCCOc1ccc2ccccc2c1CN(CC)CCN(C)C (optimized conformer: 71.79969602184909 kcal/mol)

>  <smiles>  (10) 
CCOCCOCCOc1ccc2ccccc2c1CN(CC)CCN(C)C

>  <score_type>  (10) 
oracle

>  <origin>  (10) 
adg

>  <m_score__min__energy>  (10) 
-8.6899999999999995

>  <m_primary>  (10) 
energy

$$$$
10:0
     RDKit          3D

 57 60  0  0  0  0  0  0  0  0999 V2000
   -2.2010   20.2030  -32.5190 C   0  0  0  0  0  0  0  0  0  0  0  0
   -2.6600   21.5440  -33.0800 C   0  0  0  0  0  0  0  0  0  0  0  0
   -3.6220   22.1470  -32.2180 O   0  0  0  0  0  0  0  0  0  0  0  0
   -4.9500   21.7140  -32.1100 C   0  0  0  0  0  0  0  0  0  0  0  0
   -5.2610   20.3980  -32.2820 N   0  0  0  0  0  0  0  0  0  0  0  0
   -6.5370   19.9390  -32.1970 C   0  0  0  0  0  0  0  0  0  0  0  0
   -6.8070   18.5780  -32.3820 C   0  0  0  0  0  0  0  0  0  0  0  0
   -8.1220   18.1100  -32.3000 C   0  0  0  0  0  0  0  0  0  0  0  0
   -9.1700   18.9990  -32.0350 C   0  0  0  0  0  0  0  0  0  0  0  0
   -8.9090   20.3600  -31.8500 C   0  0  0  0  0  0  0  0  0  0  0  0
   -7.5900   20.8370  -31.9280 C   0  0  0  0  0  0  0  0  0  0  0  0
   -7.2960   22.1930  -31.7470 C   0  0  0  0  0  0  0  0  0  0  0  0
   -5.9690   22.6420  -31.8210 C   0  0  0  0  0  0  0  0  0  0  0  0
   -5.6610   24.1080  -31.6690 C   0  0  0  0  0  0  0  0  0  0  0  0
   -4.4630   24.2720  -30.8340 N   0  0  0  0  0  0  0  0  0  0  0  0
   -4.7450   24.0670  -29.4050 C   0  0  0  0  0  0  0  0  0  0  0  0
   -3.4980   24.2780  -28.5230 C   0  0  0  0  0  0  0  0  0  0  0  0
   -2.2210   23.7040  -29.1600 C   0  0  0  0  0  0  0  0  0  0  0  0
   -2.4860   22.4590  -29.8970 N   0  0  0  0  0  0  0  0  0  0  0  0
   -2.0370   21.3260  -29.1250 C   0  0  0  0  0  0  0  0  0  0  0  0
   -2.8320   20.8130  -28.0830 C   0  0  0  0  0  0  0  0  0  0  0  0
   -2.4160   19.6890  -27.3610 C   0  0  0  0  0  0  0  0  0  0  0  0
   -1.2090   19.0650  -27.6800 C   0  0  0  0  0  0  0  0  0  0  0  0
   -0.4010   19.5780  -28.7030 C   0  0  0  0  0  0  0  0  0  0  0  0
   -0.8200   20.6910  -29.4370 C   0  0  0  0  0  0  0  0  0  0  0  0
    0.8230   18.9590  -28.9780 O   0  0  0  0  0  0  0  0  0  0  0  0
    1.3870   18.0050  -28.0740 C   0  0  0  0  0  0  0  0  0  0  0  0
    0.2840   17.1170  -27.4830 C   0  0  0  0  0  0  0  0  0  0  0  0
   -0.7900   17.9210  -26.9910 O   0  0  0  0  0  0  0  0  0  0  0  0
   -2.2142   20.2415  -31.4198 H   0  0  0  0  0  0  0  0  0  0  0  0
   -2.8785   19.4090  -32.8662 H   0  0  0  0  0  0  0  0  0  0  0  0
   -1.1790   19.9907  -32.8662 H   0  0  0  0  0  0  0  0  0  0  0  0
   -1.7914   22.2121  -33.1754 H   0  0  0  0  0  0  0  0  0  0  0  0
   -3.1220   21.3767  -34.0641 H   0  0  0  0  0  0  0  0  0  0  0  0
   -5.9854   17.8773  -32.5917 H   0  0  0  0  0  0  0  0  0  0  0  0
   -8.3334   17.0402  -32.4442 H   0  0  0  0  0  0  0  0  0  0  0  0
  -10.2027   18.6255  -31.9721 H   0  0  0  0  0  0  0  0  0  0  0  0
   -9.7352   21.0562  -31.6437 H   0  0  0  0  0  0  0  0  0  0  0  0
   -8.1071   22.9084  -31.5463 H   0  0  0  0  0  0  0  0  0  0  0  0
   -5.4805   24.5496  -32.6602 H   0  0  0  0  0  0  0  0  0  0  0  0
   -6.5130   24.6145  -31.1920 H   0  0  0  0  0  0  0  0  0  0  0  0
   -3.7300   23.5910  -31.1450 H   0  0  0  0  0  0  0  0  0  0  0  0
   -5.5230   24.7793  -29.0928 H   0  0  0  0  0  0  0  0  0  0  0  0
   -5.0755   23.0259  -29.2746 H   0  0  0  0  0  0  0  0  0  0  0  0
   -3.3578   25.3572  -28.3630 H   0  0  0  0  0  0  0  0  0  0  0  0
   -3.6660   23.7466  -27.5747 H   0  0  0  0  0  0  0  0  0  0  0  0
   -1.8060   24.4477  -29.8562 H   0  0  0  0  0  0  0  0  0  0  0  0
   -1.5103   23.4764  -28.3519 H   0  0  0  0  0  0  0  0  0  0  0  0
   -3.5110   22.3620  -30.0830 H   0  0  0  0  0  0  0  0  0  0  0  0
   -1.9890   22.4760  -30.8190 H   0  0  0  0  0  0  0  0  0  0  0  0
   -3.7870   21.2991  -27.8345 H   0  0  0  0  0  0  0  0  0  0  0  0
   -3.0392   19.2978  -26.5433 H   0  0  0  0  0  0  0  0  0  0  0  0
   -0.1976   21.0716  -30.2602 H   0  0  0  0  0  0  0  0  0  0  0  0
    2.1094   17.3756  -28.6144 H   0  0  0  0  0  0  0  0  0  0  0  0
    1.8923   18.5406  -27.2568 H   0  0  0  0  0  0  0  0  0  0  0  0
   -0.0962   16.4424  -28.2642 H   0  0  0  0  0  0  0  0  0  0  0  0
    0.7031   16.5321  -26.6510 H   0  0  0  0  0  0  0  0  0  0  0  0
  1  2  1  0
  2  3  1  0
  3  4  1  0
  4  5  2  0
  5  6  1  0
  6  7  2  0
  7  8  1  0
  8  9  2  0
  9 10  1  0
 10 11  2  0
 11 12  1  0
 12 13  2  0
 13 14  1  0
 14 15  1  0
 15 16  1  0
 16 17  1  0
 17 18  1  0
 18 19  1  0
 19 20  1  0
 20 21  2  0
 21 22  1  0
 22 23  2  0
 23 24  1  0
 24 25  2  0
 24 26  1  0
 26 27  1  0
 27 28  1  0
 28 29  1  0
 13  4  1  0
 25 20  1  0
 11  6  1  0
 29 23  1  0
  1 30  1  0
  1 31  1  0
  1 32  1  0
  2 33  1  0
  2 34  1  0
  7 35  1  0
  8 36  1  0
  9 37  1  0
 10 38  1  0
 12 39  1  0
 14 40  1  0
 14 41  1  0
 15 42  1  0
 16 43  1  0
 16 44  1  0
 17 45  1  0
 17 46  1  0
 18 47  1  0
 18 48  1  0
 19 49  1  0
 19 50  1  0
 21 51  1  0
 22 52  1  0
 25 53  1  0
 27 54  1  0
 27 55  1  0
 28 56  1  0
 28 57  1  0
M  CHG  1  19   1
M  END
>  <UniqueID>  (11) 
10

>  <SMILES>  (11) 
CCOc1nc2ccccc2cc1CNCCC[NH2+]c1ccc2c(c1)OCCO2

>  <Energy>  (11) 
57.70264459021001

>  <Genealogy>  (11) 
CCOc1nc2ccccc2cc1CNCCC[NH2+]c1ccc2c(c1)OCCO2 (protonated)
CCOc1nc2ccccc2cc1CNCCC[NH2+]c1ccc2c(c1)OCCO2 (3D coordinates assigned)
CCOc1nc2ccccc2cc1CNCCC[NH2+]c1ccc2c(c1)OCCO2 (nonaromatic ring conformer: 57.70264459021001 kcal/mol)

>  <smiles>  (11) 
CCOc1nc2ccccc2cc1CNCCCNc1ccc2c(c1)OCCO2

>  <score_type>  (11) 
oracle

>  <origin>  (11) 
adg

>  <m_score__min__energy>  (11) 
-8.1500000000000004

>  <m_primary>  (11) 
energy

$$$$
11:0
     RDKit          3D

 46 47  0  0  0  0  0  0  0  0999 V2000
    0.3230   22.5660  -35.7330 C   0  0  0  0  0  0  0  0  0  0  0  0
    0.6220   21.5160  -34.6660 C   0  0  0  0  0  0  0  0  0  0  0  0
   -0.6410   20.9700  -34.1160 N   0  0  0  0  0  0  0  0  0  0  0  0
   -0.8600   19.5750  -34.5620 C   0  0  0  0  0  0  0  0  0  0  0  0
   -0.7250   18.6150  -33.3830 C   0  0  0  0  0  0  0  0  0  0  0  0
   -0.6690   21.0720  -32.6390 C   0  0  0  0  0  0  0  0  0  0  0  0
   -2.0310   21.5970  -32.1710 C   0  0  0  0  0  0  0  0  0  0  0  0
   -3.0300   21.4570  -33.2320 N   0  0  0  0  0  0  0  0  0  0  0  0
   -4.4140   21.1480  -32.9750 C   0  0  0  0  0  0  0  0  0  0  0  0
   -5.2490   22.1200  -32.4230 C   0  0  0  0  0  0  0  0  0  0  0  0
   -6.5930   21.8490  -32.2080 C   0  0  0  0  0  0  0  0  0  0  0  0
   -7.1380   20.6400  -32.5390 N   0  0  0  0  0  0  0  0  0  0  0  0
   -8.5810   20.4620  -32.2780 C   0  0  0  0  0  0  0  0  0  0  0  0
   -9.1510   21.6730  -31.5450 C   0  0  0  0  0  0  0  0  0  0  0  0
   -6.3390   19.6340  -33.0540 C   0  0  0  0  0  0  0  0  0  0  0  0
   -6.8510   18.3480  -33.3520 C   0  0  0  0  0  0  0  0  0  0  0  0
   -6.0240   17.3440  -33.8600 C   0  0  0  0  0  0  0  0  0  0  0  0
   -6.6890   15.7590  -34.2180 Cl  0  0  0  0  0  0  0  0  0  0  0  0
   -4.6720   17.5910  -34.0710 C   0  0  0  0  0  0  0  0  0  0  0  0
   -4.1340   18.8430  -33.7820 C   0  0  0  0  0  0  0  0  0  0  0  0
   -4.9520   19.8800  -33.2850 C   0  0  0  0  0  0  0  0  0  0  0  0
    0.0527   23.5154  -35.2476 H   0  0  0  0  0  0  0  0  0  0  0  0
    1.2143   22.7156  -36.3601 H   0  0  0  0  0  0  0  0  0  0  0  0
   -0.5134   22.2236  -36.3601 H   0  0  0  0  0  0  0  0  0  0  0  0
    1.2062   20.6988  -35.1143 H   0  0  0  0  0  0  0  0  0  0  0  0
    1.1944   21.9848  -33.8521 H   0  0  0  0  0  0  0  0  0  0  0  0
   -1.8694   19.4849  -34.9897 H   0  0  0  0  0  0  0  0  0  0  0  0
   -0.1055   19.3190  -35.3204 H   0  0  0  0  0  0  0  0  0  0  0  0
   -0.8041   19.1776  -32.4411 H   0  0  0  0  0  0  0  0  0  0  0  0
   -1.5262   17.8627  -33.4291 H   0  0  0  0  0  0  0  0  0  0  0  0
    0.2526   18.1128  -33.4291 H   0  0  0  0  0  0  0  0  0  0  0  0
   -0.4933   20.0777  -32.2026 H   0  0  0  0  0  0  0  0  0  0  0  0
    0.1164   21.7694  -32.3122 H   0  0  0  0  0  0  0  0  0  0  0  0
   -2.3562   21.0236  -31.2904 H   0  0  0  0  0  0  0  0  0  0  0  0
   -1.9316   22.6624  -31.9161 H   0  0  0  0  0  0  0  0  0  0  0  0
   -2.7080   21.5730  -34.2190 H   0  0  0  0  0  0  0  0  0  0  0  0
   -4.8400   23.1059  -32.1569 H   0  0  0  0  0  0  0  0  0  0  0  0
   -7.2335   22.6239  -31.7616 H   0  0  0  0  0  0  0  0  0  0  0  0
   -9.1084   20.3385  -33.2354 H   0  0  0  0  0  0  0  0  0  0  0  0
   -8.7187   19.5708  -31.6481 H   0  0  0  0  0  0  0  0  0  0  0  0
   -9.0758   21.5133  -30.4593 H   0  0  0  0  0  0  0  0  0  0  0  0
   -8.5814   22.5718  -31.8237 H   0  0  0  0  0  0  0  0  0  0  0  0
  -10.2067   21.8068  -31.8237 H   0  0  0  0  0  0  0  0  0  0  0  0
   -7.9168   18.1365  -33.1807 H   0  0  0  0  0  0  0  0  0  0  0  0
   -4.0249   16.7948  -34.4676 H   0  0  0  0  0  0  0  0  0  0  0  0
   -3.0612   19.0251  -33.9428 H   0  0  0  0  0  0  0  0  0  0  0  0
  1  2  1  0
  2  3  1  0
  3  4  1  0
  4  5  1  0
  3  6  1  0
  6  7  1  0
  7  8  1  0
  8  9  1  0
  9 10  2  0
 10 11  1  0
 11 12  2  0
 12 13  1  0
 13 14  1  0
 12 15  1  0
 15 16  2  0
 16 17  1  0
 17 18  1  0
 17 19  2  0
 19 20  1  0
 20 21  2  0
 21  9  1  0
 21 15  1  0
  1 22  1  0
  1 23  1  0
  1 24  1  0
  2 25  1  0
  2 26  1  0
  4 27  1  0
  4 28  1  0
  5 29  1  0
  5 30  1  0
  5 31  1  0
  6 32  1  0
  6 33  1  0
  7 34  1  0
  7 35  1  0
  8 36  1  0
 10 37  1  0
 11 38  1  0
 13 39  1  0
 13 40  1  0
 14 41  1  0
 14 42  1  0
 14 43  1  0
 16 44  1  0
 19 45  1  0
 20 46  1  0
M  CHG  1  12   1
M  END
>  <UniqueID>  (12) 
11

>  <SMILES>  (12) 
CCN(CC)CCNc1cc[n+](CC)c2cc(Cl)ccc12

>  <Energy>  (12) 
51.52185263998017

>  <Genealogy>  (12) 
CCN(CC)CCNc1cc[n+](CC)c2cc(Cl)ccc12 (3D coordinates assigned)
CCN(CC)CCNc1cc[n+](CC)c2cc(Cl)ccc12 (optimized conformer: 51.52185263998017 kcal/mol)

>  <smiles>  (12) 
CCN(CC)CCNc1cc[n+](CC)c2cc(Cl)ccc12

>  <score_type>  (12) 
oracle

>  <origin>  (12) 
adg

>  <m_score__min__energy>  (12) 
-6.8899999999999997

>  <m_primary>  (12) 
energy

$$$$
12:0
     RDKit          3D

 87 89  0  0  0  0  0  0  0  0999 V2000
    1.8060   24.2020  -35.8060 C   0  0  0  0  0  0  0  0  0  0  0  0
    1.4730   22.7190  -35.7410 C   0  0  0  0  0  0  0  0  0  0  0  0
    0.2740   22.5480  -35.0200 O   0  0  0  0  0  0  0  0  0  0  0  0
   -0.1040   21.1870  -35.0420 C   0  0  0  0  0  0  0  0  0  0  0  0
    0.1090   20.5740  -33.6530 C   0  0  0  0  0  0  0  0  0  0  0  0
   -1.1700   20.2260  -32.9870 N   0  0  0  0  0  0  0  0  0  0  0  0
   -2.0660   21.4000  -32.8750 C   0  0  0  0  0  0  0  0  0  0  0  0
   -2.1230   21.8920  -31.4320 C   0  0  0  0  0  0  0  0  0  0  0  0
   -1.8600   19.0380  -33.5540 C   0  0  0  0  0  0  0  0  0  0  0  0
   -3.3340   18.8910  -33.1350 C   0  0  0  0  0  0  0  0  0  0  0  0
   -3.7760   17.5710  -33.3700 O   0  0  0  0  0  0  0  0  0  0  0  0
   -5.1710   17.4970  -33.1770 C   0  0  0  0  0  0  0  0  0  0  0  0
   -5.8930   18.0760  -34.3940 C   0  0  0  0  0  0  0  0  0  0  0  0
   -6.2460   19.5590  -34.2090 C   0  0  0  0  0  0  0  0  0  0  0  0
   -7.3560   19.7190  -33.1570 C   0  0  0  0  0  0  0  0  0  0  0  0
   -7.1960   20.9660  -32.3710 N   0  0  0  0  0  0  0  0  0  0  0  0
   -8.0030   20.9280  -31.1370 C   0  0  0  0  0  0  0  0  0  0  0  0
   -7.9620   22.3060  -30.4540 C   0  0  0  0  0  0  0  0  0  0  0  0
   -6.6090   22.9240  -30.4450 N   0  0  0  0  0  0  0  0  0  0  0  0
   -6.5230   24.1540  -31.2690 C   0  0  0  0  0  0  0  0  0  0  0  0
   -5.8510   25.2910  -30.4780 C   0  0  0  0  0  0  0  0  0  0  0  0
   -4.5100   24.8720  -29.8610 C   0  0  0  0  0  0  0  0  0  0  0  0
   -4.6950   24.0990  -28.6300 N   0  0  0  0  0  0  0  0  0  0  0  0
   -3.6020   23.4140  -27.9920 C   0  0  0  0  0  0  0  0  0  0  0  0
   -3.3520   22.0630  -28.3000 C   0  0  0  0  0  0  0  0  0  0  0  0
   -2.2670   21.3760  -27.7280 C   0  0  0  0  0  0  0  0  0  0  0  0
   -1.9830   20.0330  -28.0220 O   0  0  0  0  0  0  0  0  0  0  0  0
   -2.0460   18.9700  -27.0770 C   0  0  0  0  0  0  0  0  0  0  0  0
   -1.4260   22.0460  -26.8380 C   0  0  0  0  0  0  0  0  0  0  0  0
   -1.6550   23.3870  -26.5120 C   0  0  0  0  0  0  0  0  0  0  0  0
   -0.8110   24.0490  -25.6130 C   0  0  0  0  0  0  0  0  0  0  0  0
   -1.0610   25.3770  -25.2770 C   0  0  0  0  0  0  0  0  0  0  0  0
   -2.1600   26.0300  -25.8320 C   0  0  0  0  0  0  0  0  0  0  0  0
   -2.9780   25.3840  -26.7070 N   0  0  0  0  0  0  0  0  0  0  0  0
   -2.7510   24.0860  -27.0800 C   0  0  0  0  0  0  0  0  0  0  0  0
   -5.5320   21.9540  -30.7350 C   0  0  0  0  0  0  0  0  0  0  0  0
   -5.7630   21.1890  -32.0570 C   0  0  0  0  0  0  0  0  0  0  0  0
    1.8960   24.6027  -34.7855 H   0  0  0  0  0  0  0  0  0  0  0  0
    2.7577   24.3410  -36.3397 H   0  0  0  0  0  0  0  0  0  0  0  0
    1.0051   24.7346  -36.3397 H   0  0  0  0  0  0  0  0  0  0  0  0
    1.3498   22.3239  -36.7602 H   0  0  0  0  0  0  0  0  0  0  0  0
    2.2883   22.1772  -35.2393 H   0  0  0  0  0  0  0  0  0  0  0  0
   -1.1653   21.1058  -35.3196 H   0  0  0  0  0  0  0  0  0  0  0  0
    0.5103   20.6481  -35.7783 H   0  0  0  0  0  0  0  0  0  0  0  0
    0.7124   19.6604  -33.7587 H   0  0  0  0  0  0  0  0  0  0  0  0
    0.6189   21.3235  -33.0299 H   0  0  0  0  0  0  0  0  0  0  0  0
   -1.6867   22.2077  -33.5183 H   0  0  0  0  0  0  0  0  0  0  0  0
   -3.0779   21.1071  -33.1916 H   0  0  0  0  0  0  0  0  0  0  0  0
   -2.0238   21.0358  -30.7485 H   0  0  0  0  0  0  0  0  0  0  0  0
   -1.3010   22.6008  -31.2535 H   0  0  0  0  0  0  0  0  0  0  0  0
   -3.0853   22.3941  -31.2535 H   0  0  0  0  0  0  0  0  0  0  0  0
   -1.8209   19.1099  -34.6510 H   0  0  0  0  0  0  0  0  0  0  0  0
   -1.3349   18.1555  -33.1598 H   0  0  0  0  0  0  0  0  0  0  0  0
   -3.4326   19.1225  -32.0642 H   0  0  0  0  0  0  0  0  0  0  0  0
   -3.9474   19.5867  -33.7264 H   0  0  0  0  0  0  0  0  0  0  0  0
   -5.4660   16.4458  -33.0432 H   0  0  0  0  0  0  0  0  0  0  0  0
   -5.4453   18.0754  -32.2825 H   0  0  0  0  0  0  0  0  0  0  0  0
   -5.2409   17.9744  -35.2740 H   0  0  0  0  0  0  0  0  0  0  0  0
   -6.8327   17.5194  -34.5250 H   0  0  0  0  0  0  0  0  0  0  0  0
   -5.3510   20.1059  -33.8775 H   0  0  0  0  0  0  0  0  0  0  0  0
   -6.6025   19.9631  -35.1680 H   0  0  0  0  0  0  0  0  0  0  0  0
   -8.3298   19.7430  -33.6681 H   0  0  0  0  0  0  0  0  0  0  0  0
   -7.2938   18.8678  -32.4630 H   0  0  0  0  0  0  0  0  0  0  0  0
   -9.0435   20.6737  -31.3872 H   0  0  0  0  0  0  0  0  0  0  0  0
   -7.5935   20.1685  -30.4547 H   0  0  0  0  0  0  0  0  0  0  0  0
   -8.6488   22.9795  -30.9875 H   0  0  0  0  0  0  0  0  0  0  0  0
   -8.2560   22.1558  -29.4047 H   0  0  0  0  0  0  0  0  0  0  0  0
   -5.9314   23.9433  -32.1721 H   0  0  0  0  0  0  0  0  0  0  0  0
   -7.5406   24.4676  -31.5449 H   0  0  0  0  0  0  0  0  0  0  0  0
   -5.6760   26.1373  -31.1586 H   0  0  0  0  0  0  0  0  0  0  0  0
   -6.5249   25.5647  -29.6528 H   0  0  0  0  0  0  0  0  0  0  0  0
   -3.9601   24.2568  -30.5885 H   0  0  0  0  0  0  0  0  0  0  0  0
   -3.9490   25.7845  -29.6106 H   0  0  0  0  0  0  0  0  0  0  0  0
   -5.6510   24.0280  -28.2130 H   0  0  0  0  0  0  0  0  0  0  0  0
   -4.0170   21.5361  -29.0001 H   0  0  0  0  0  0  0  0  0  0  0  0
   -2.0215   19.3834  -26.0579 H   0  0  0  0  0  0  0  0  0  0  0  0
   -2.9792   18.4058  -27.2215 H   0  0  0  0  0  0  0  0  0  0  0  0
   -1.1860   18.2995  -27.2215 H   0  0  0  0  0  0  0  0  0  0  0  0
   -0.5745   21.5142  -26.3884 H   0  0  0  0  0  0  0  0  0  0  0  0
    0.0480   23.5214  -25.1728 H   0  0  0  0  0  0  0  0  0  0  0  0
   -0.3961   25.9066  -24.5788 H   0  0  0  0  0  0  0  0  0  0  0  0
   -2.3679   27.0756  -25.5607 H   0  0  0  0  0  0  0  0  0  0  0  0
   -3.7990   25.9190  -27.0660 H   0  0  0  0  0  0  0  0  0  0  0  0
   -4.5778   22.4969  -30.8040 H   0  0  0  0  0  0  0  0  0  0  0  0
   -5.5199   21.2154  -29.9199 H   0  0  0  0  0  0  0  0  0  0  0  0
   -5.3132   21.7679  -32.8771 H   0  0  0  0  0  0  0  0  0  0  0  0
   -5.2997   20.1980  -31.9417 H   0  0  0  0  0  0  0  0  0  0  0  0
  1  2  1  0
  2  3  1  0
  3  4  1  0
  4  5  1  0
  5  6  1  0
  6  7  1  0
  7  8  1  0
  6  9  1  0
  9 10  1  0
 10 11  1  0
 11 12  1  0
 12 13  1  0
 13 14  1  0
 14 15  1  0
 15 16  1  0
 16 17  1  0
 17 18  1  0
 18 19  1  0
 19 20  1  0
 20 21  1  0
 21 22  1  0
 22 23  1  0
 23 24  1  0
 24 25  2  0
 25 26  1  0
 26 27  1  0
 27 28  1  0
 26 29  2  0
 29 30  1  0
 30 31  2  0
 31 32  1  0
 32 33  2  0
 33 34  1  0
 34 35  2  0
 19 36  1  0
 36 37  1  0
 37 16  1  0
 35 24  1  0
 35 30  1  0
  1 38  1  0
  1 39  1  0
  1 40  1  0
  2 41  1  0
  2 42  1  0
  4 43  1  0
  4 44  1  0
  5 45  1  0
  5 46  1  0
  7 47  1  0
  7 48  1  0
  8 49  1  0
  8 50  1  0
  8 51  1  0
  9 52  1  0
  9 53  1  0
 10 54  1  0
 10 55  1  0
 12 56  1  0
 12 57  1  0
 13 58  1  0
 13 59  1  0
 14 60  1  0
 14 61  1  0
 15 62  1  0
 15 63  1  0
 17 64  1  0
 17 65  1  0
 18 66  1  0
 18 67  1  0
 20 68  1  0
 20 69  1  0
 21 70  1  0
 21 71  1  0
 22 72  1  0
 22 73  1  0
 23 74  1  0
 25 75  1  0
 28 76  1  0
 28 77  1  0
 28 78  1  0
 29 79  1  0
 31 80  1  0
 32 81  1  0
 33 82  1  0
 34 83  1  0
 36 84  1  0
 36 85  1  0
 37 86  1  0
 37 87  1  0
M  CHG  1  34   1
M  END
>  <UniqueID>  (13) 
12

>  <SMILES>  (13) 
CCOCCN(CC)CCOCCCCN1CCN(CCCNc2cc(OC)cc3ccc[nH+]c23)CC1

>  <Energy>  (13) 
96.84734089244388

>  <Genealogy>  (13) 
CCOCCN(CC)CCOCCCCN1CCN(CCCNc2cc(OC)cc3ccc[nH+]c23)CC1 (protonated)
CCOCCN(CC)CCOCCCCN1CCN(CCCNc2cc(OC)cc3ccc[nH+]c23)CC1 (3D coordinates assigned)
CCOCCN(CC)CCOCCCCN1CCN(CCCNc2cc(OC)cc3ccc[nH+]c23)CC1 (nonaromatic ring conformer: 96.84734089244388 kcal/mol)

>  <smiles>  (13) 
CCOCCN(CC)CCOCCCCN1CCN(CCCNc2cc(OC)cc3cccnc23)CC1

>  <score_type>  (13) 
oracle

>  <origin>  (13) 
adg

>  <m_score__min__energy>  (13) 
-8.3000000000000007

>  <m_primary>  (13) 
energy

$$$$
13:0
     RDKit          3D

 40 41  0  0  0  0  0  0  0  0999 V2000
   -7.2180   17.7280  -32.5100 C   0  0  0  0  0  0  0  0  0  0  0  0
   -6.8620   19.1060  -33.0570 C   0  0  0  0  0  0  0  0  0  0  0  0
   -8.0840   19.8500  -33.3900 N   0  0  0  0  0  0  0  0  0  0  0  0
   -8.7320   20.6460  -31.9840 S   0  0  0  0  0  0  0  0  0  0  0  0
  -10.1100   21.1730  -32.2790 O   0  0  0  0  0  0  0  0  0  0  0  0
   -8.8160   19.6760  -30.8370 O   0  0  0  0  0  0  0  0  0  0  0  0
   -7.6820   21.9920  -31.5550 C   0  0  0  0  0  0  0  0  0  0  0  0
   -7.8060   22.5940  -30.2960 C   0  0  0  0  0  0  0  0  0  0  0  0
   -6.9820   23.6660  -29.9430 C   0  0  0  0  0  0  0  0  0  0  0  0
   -6.0300   24.1570  -30.8510 C   0  0  0  0  0  0  0  0  0  0  0  0
   -5.1210   25.2870  -30.4560 C   0  0  0  0  0  0  0  0  0  0  0  0
   -3.7240   24.8360  -30.5150 N   0  0  0  0  0  0  0  0  0  0  0  0
   -3.3780   23.9800  -29.3700 C   0  0  0  0  0  0  0  0  0  0  0  0
   -2.5090   24.6980  -28.3710 C   0  0  0  0  0  0  0  0  0  0  0  0
   -2.5940   24.4070  -27.0020 C   0  0  0  0  0  0  0  0  0  0  0  0
   -1.7900   25.1090  -26.1010 C   0  0  0  0  0  0  0  0  0  0  0  0
   -0.9190   26.0940  -26.5690 C   0  0  0  0  0  0  0  0  0  0  0  0
   -0.8640   26.3620  -27.9380 C   0  0  0  0  0  0  0  0  0  0  0  0
   -1.6540   25.6680  -28.8010 N   0  0  0  0  0  0  0  0  0  0  0  0
   -5.8980   23.5440  -32.1060 C   0  0  0  0  0  0  0  0  0  0  0  0
   -6.7230   22.4720  -32.4600 C   0  0  0  0  0  0  0  0  0  0  0  0
   -7.2105   17.7569  -31.4104 H   0  0  0  0  0  0  0  0  0  0  0  0
   -8.2197   17.4412  -32.8625 H   0  0  0  0  0  0  0  0  0  0  0  0
   -6.4805   16.9918  -32.8625 H   0  0  0  0  0  0  0  0  0  0  0  0
   -6.2931   19.6626  -32.2977 H   0  0  0  0  0  0  0  0  0  0  0  0
   -6.2555   18.9857  -33.9668 H   0  0  0  0  0  0  0  0  0  0  0  0
   -8.8090   19.1630  -33.6980 H   0  0  0  0  0  0  0  0  0  0  0  0
   -8.5553   22.2212  -29.5822 H   0  0  0  0  0  0  0  0  0  0  0  0
   -7.0796   24.1274  -28.9492 H   0  0  0  0  0  0  0  0  0  0  0  0
   -5.2633   26.1307  -31.1473 H   0  0  0  0  0  0  0  0  0  0  0  0
   -5.3594   25.6080  -29.4313 H   0  0  0  0  0  0  0  0  0  0  0  0
   -3.0950   25.6740  -30.5200 H   0  0  0  0  0  0  0  0  0  0  0  0
   -4.3054   23.6628  -28.8707 H   0  0  0  0  0  0  0  0  0  0  0  0
   -2.8149   23.1150  -29.7504 H   0  0  0  0  0  0  0  0  0  0  0  0
   -3.2874   23.6331  -26.6410 H   0  0  0  0  0  0  0  0  0  0  0  0
   -1.8432   24.8860  -25.0251 H   0  0  0  0  0  0  0  0  0  0  0  0
   -0.2829   26.6530  -25.8669 H   0  0  0  0  0  0  0  0  0  0  0  0
   -0.1810   27.1353  -28.3193 H   0  0  0  0  0  0  0  0  0  0  0  0
   -5.1410   23.9089  -32.8158 H   0  0  0  0  0  0  0  0  0  0  0  0
   -6.6200   22.0039  -33.4501 H   0  0  0  0  0  0  0  0  0  0  0  0
  1  2  1  0
  2  3  1  0
  3  4  1  0
  4  5  2  0
  4  6  2  0
  4  7  1  0
  7  8  2  0
  8  9  1  0
  9 10  2  0
 10 11  1  0
 11 12  1  0
 12 13  1  0
 13 14  1  0
 14 15  2  0
 15 16  1  0
 16 17  2  0
 17 18  1  0
 18 19  2  0
 10 20  1  0
 20 21  2  0
 21  7  1  0
 19 14  1  0
  1 22  1  0
  1 23  1  0
  1 24  1  0
  2 25  1  0
  2 26  1  0
  3 27  1  0
  8 28  1  0
  9 29  1  0
 11 30  1  0
 11 31  1  0
 12 32  1  0
 13 33  1  0
 13 34  1  0
 15 35  1  0
 16 36  1  0
 17 37  1  0
 18 38  1  0
 20 39  1  0
 21 40  1  0
M  END
>  <UniqueID>  (14) 
13

>  <SMILES>  (14) 
CCNS(=O)(=O)c1ccc(CNCc2ccccn2)cc1

>  <Energy>  (14) 
36.50458675581993

>  <Genealogy>  (14) 
CCNS(=O)(=O)c1ccc(CNCc2ccccn2)cc1 (3D coordinates assigned)
CCNS(=O)(=O)c1ccc(CNCc2ccccn2)cc1 (optimized conformer: 36.50458675581993 kcal/mol)

>  <smiles>  (14) 
CCNS(=O)(=O)c1ccc(CNCc2ccccn2)cc1

>  <score_type>  (14) 
oracle

>  <origin>  (14) 
adg

>  <m_score__min__energy>  (14) 
-8.9000000000000004

>  <m_primary>  (14) 
energy

$$$$
14:0
     RDKit          3D

 33 34  0  0  0  0  0  0  0  0999 V2000
   -6.5770   24.8970  -30.0190 C   0  0  0  0  0  0  0  0  0  0  0  0
   -5.3610   25.2940  -30.8410 C   0  0  0  0  0  0  0  0  0  0  0  0
   -4.6620   24.1210  -31.2490 O   0  0  0  0  0  0  0  0  0  0  0  0
   -4.0480   23.2110  -30.3750 C   0  0  0  0  0  0  0  0  0  0  0  0
   -3.5870   23.6050  -29.1030 C   0  0  0  0  0  0  0  0  0  0  0  0
   -2.9900   22.6770  -28.2480 C   0  0  0  0  0  0  0  0  0  0  0  0
   -2.8450   21.3470  -28.6470 C   0  0  0  0  0  0  0  0  0  0  0  0
   -2.0370   20.0790  -27.4700 Br  0  0  0  0  0  0  0  0  0  0  0  0
   -3.2960   20.9440  -29.9050 C   0  0  0  0  0  0  0  0  0  0  0  0
   -3.8900   21.8680  -30.7790 C   0  0  0  0  0  0  0  0  0  0  0  0
   -4.4630   21.2970  -32.3500 S   0  0  0  0  0  0  0  0  0  0  0  0
   -3.7030   20.0580  -32.7300 O   0  0  0  0  0  0  0  0  0  0  0  0
   -4.2250   22.3240  -33.4210 O   0  0  0  0  0  0  0  0  0  0  0  0
   -6.1880   20.9300  -32.2360 C   0  0  0  0  0  0  0  0  0  0  0  0
   -6.5910   19.6180  -31.9560 C   0  0  0  0  0  0  0  0  0  0  0  0
   -7.9480   19.3210  -31.8470 C   0  0  0  0  0  0  0  0  0  0  0  0
   -8.8920   20.3330  -32.0110 C   0  0  0  0  0  0  0  0  0  0  0  0
   -8.4610   21.6330  -32.2780 C   0  0  0  0  0  0  0  0  0  0  0  0
   -7.1280   21.9150  -32.3840 N   0  0  0  0  0  0  0  0  0  0  0  0
   -6.7300   23.2120  -32.6350 O   0  0  0  0  0  0  0  0  0  0  0  0
   -6.3373   24.9753  -28.9483 H   0  0  0  0  0  0  0  0  0  0  0  0
   -7.4155   25.5681  -30.2570 H   0  0  0  0  0  0  0  0  0  0  0  0
   -6.8580   23.8605  -30.2570 H   0  0  0  0  0  0  0  0  0  0  0  0
   -5.6859   25.8553  -31.7295 H   0  0  0  0  0  0  0  0  0  0  0  0
   -4.6963   25.9249  -30.2327 H   0  0  0  0  0  0  0  0  0  0  0  0
   -3.6984   24.6511  -28.7816 H   0  0  0  0  0  0  0  0  0  0  0  0
   -2.6328   22.9945  -27.2572 H   0  0  0  0  0  0  0  0  0  0  0  0
   -3.1851   19.8941  -30.2139 H   0  0  0  0  0  0  0  0  0  0  0  0
   -5.8396   18.8258  -31.8228 H   0  0  0  0  0  0  0  0  0  0  0  0
   -8.2728   18.2922  -31.6324 H   0  0  0  0  0  0  0  0  0  0  0  0
   -9.9660   20.1092  -31.9308 H   0  0  0  0  0  0  0  0  0  0  0  0
   -9.2004   22.4376  -32.4042 H   0  0  0  0  0  0  0  0  0  0  0  0
   -5.8080   23.4240  -33.0000 H   0  0  0  0  0  0  0  0  0  0  0  0
  1  2  1  0
  2  3  1  0
  3  4  1  0
  4  5  2  0
  5  6  1  0
  6  7  2  0
  7  8  1  0
  7  9  1  0
  9 10  2  0
 10 11  1  0
 11 12  2  0
 11 13  2  0
 11 14  1  0
 14 15  2  0
 15 16  1  0
 16 17  2  0
 17 18  1  0
 18 19  2  0
 19 20  1  0
 10  4  1  0
 19 14  1  0
  1 21  1  0
  1 22  1  0
  1 23  1  0
  2 24  1  0
  2 25  1  0
  5 26  1  0
  6 27  1  0
  9 28  1  0
 15 29  1  0
 16 30  1  0
 17 31  1  0
 18 32  1  0
 20 33  1  0
M  CHG  1  19   1
M  END
>  <UniqueID>  (15) 
14

>  <SMILES>  (15) 
CCOc1ccc(Br)cc1S(=O)(=O)c1cccc[n+]1O

>  <Energy>  (15) 
33.25115160308804

>  <Genealogy>  (15) 
CCOc1ccc(Br)cc1S(=O)(=O)c1cccc[n+]1O (protonated)
CCOc1ccc(Br)cc1S(=O)(=O)c1cccc[n+]1O (3D coordinates assigned)
CCOc1ccc(Br)cc1S(=O)(=O)c1cccc[n+]1O (optimized conformer: 33.25115160308804 kcal/mol)

>  <smiles>  (15) 
CCOc1ccc(Br)cc1S(=O)(=O)c1cccc[n+]1[O-]

>  <score_type>  (15) 
oracle

>  <origin>  (15) 
adg

>  <m_score__min__energy>  (15) 
-7.3700000000000001

>  <m_primary>  (15) 
energy

$$$$
15:0
     RDKit          3D

 71 73  0  0  0  0  0  0  0  0999 V2000
   -3.1070   21.9370  -28.4250 C   0  0  0  0  0  0  0  0  0  0  0  0
   -3.1080   20.7170  -27.5050 C   0  0  0  0  0  0  0  0  0  0  0  0
   -1.9020   19.8920  -27.7370 N   0  0  0  0  0  0  0  0  0  0  0  0
   -1.7850   18.8210  -26.7210 C   0  0  0  0  0  0  0  0  0  0  0  0
   -3.1190   18.6190  -26.0080 C   0  0  0  0  0  0  0  0  0  0  0  0
   -0.6710   20.7210  -27.8080 C   0  0  0  0  0  0  0  0  0  0  0  0
   -0.0940   20.6810  -29.2270 C   0  0  0  0  0  0  0  0  0  0  0  0
   -0.8370   19.7580  -30.0850 N   0  0  0  0  0  0  0  0  0  0  0  0
   -0.9290   19.8640  -31.5200 C   0  0  0  0  0  0  0  0  0  0  0  0
   -0.2990   20.9390  -32.1650 C   0  0  0  0  0  0  0  0  0  0  0  0
   -0.3900   21.0880  -33.5510 C   0  0  0  0  0  0  0  0  0  0  0  0
   -1.1100   20.1630  -34.3090 C   0  0  0  0  0  0  0  0  0  0  0  0
   -1.7390   19.0760  -33.6850 C   0  0  0  0  0  0  0  0  0  0  0  0
   -2.4970   18.0570  -34.5000 C   0  0  0  0  0  0  0  0  0  0  0  0
   -3.8600   17.7190  -33.8730 C   0  0  0  0  0  0  0  0  0  0  0  0
   -5.0490   18.1870  -34.7440 C   0  0  0  0  0  0  0  0  0  0  0  0
   -6.1080   18.9660  -33.9440 C   0  0  0  0  0  0  0  0  0  0  0  0
   -6.6420   18.1850  -32.7220 C   0  0  0  0  0  0  0  0  0  0  0  0
   -8.1640   18.2890  -32.5310 C   0  0  0  0  0  0  0  0  0  0  0  0
   -8.5560   19.0380  -31.2510 C   0  0  0  0  0  0  0  0  0  0  0  0
   -8.6540   20.5100  -31.5150 C   0  0  0  0  0  0  0  0  0  0  0  0
   -9.8300   21.2410  -31.6690 C   0  0  0  0  0  0  0  0  0  0  0  0
   -9.4650   22.5530  -31.9690 C   0  0  0  0  0  0  0  0  0  0  0  0
   -8.0850   22.5460  -31.9930 C   0  0  0  0  0  0  0  0  0  0  0  0
   -7.2460   23.5760  -32.2580 N   0  0  0  0  0  0  0  0  0  0  0  0
   -5.9020   23.3380  -32.2440 C   0  0  0  0  0  0  0  0  0  0  0  0
   -5.4150   22.0400  -31.9640 C   0  0  0  0  0  0  0  0  0  0  0  0
   -3.9420   21.7600  -31.9480 C   0  0  0  0  0  0  0  0  0  0  0  0
   -3.4820   21.5050  -33.2290 F   0  0  0  0  0  0  0  0  0  0  0  0
   -3.6880   20.6570  -31.1530 F   0  0  0  0  0  0  0  0  0  0  0  0
   -3.2660   22.8540  -31.4390 F   0  0  0  0  0  0  0  0  0  0  0  0
   -6.3100   21.0430  -31.7070 N   0  0  0  0  0  0  0  0  0  0  0  0
   -7.6100   21.3260  -31.7280 N   0  0  0  0  0  0  0  0  0  0  0  0
   -1.6400   18.9260  -32.2930 C   0  0  0  0  0  0  0  0  0  0  0  0
   -3.1062   22.8542  -27.8177 H   0  0  0  0  0  0  0  0  0  0  0  0
   -2.2089   21.9168  -29.0598 H   0  0  0  0  0  0  0  0  0  0  0  0
   -4.0052   21.9183  -29.0598 H   0  0  0  0  0  0  0  0  0  0  0  0
   -3.1205   21.0534  -26.4578 H   0  0  0  0  0  0  0  0  0  0  0  0
   -4.0004   20.1106  -27.7193 H   0  0  0  0  0  0  0  0  0  0  0  0
   -1.4919   17.8828  -27.2149 H   0  0  0  0  0  0  0  0  0  0  0  0
   -1.0244   19.1112  -25.9813 H   0  0  0  0  0  0  0  0  0  0  0  0
   -2.9604   18.6430  -24.9198 H   0  0  0  0  0  0  0  0  0  0  0  0
   -3.8135   19.4222  -26.2951 H   0  0  0  0  0  0  0  0  0  0  0  0
   -3.5446   17.6462  -26.2951 H   0  0  0  0  0  0  0  0  0  0  0  0
   -0.9158   21.7602  -27.5434 H   0  0  0  0  0  0  0  0  0  0  0  0
    0.0741   20.3225  -27.1036 H   0  0  0  0  0  0  0  0  0  0  0  0
   -0.1439   21.6905  -29.6612 H   0  0  0  0  0  0  0  0  0  0  0  0
    0.9469   20.3307  -29.1652 H   0  0  0  0  0  0  0  0  0  0  0  0
   -1.3190   18.9580  -29.6150 H   0  0  0  0  0  0  0  0  0  0  0  0
    0.2715   21.6708  -31.5742 H   0  0  0  0  0  0  0  0  0  0  0  0
    0.1065   21.9357  -34.0459 H   0  0  0  0  0  0  0  0  0  0  0  0
   -1.1842   20.2871  -35.3994 H   0  0  0  0  0  0  0  0  0  0  0  0
   -2.6606   18.4603  -35.5102 H   0  0  0  0  0  0  0  0  0  0  0  0
   -1.8991   17.1343  -34.5330 H   0  0  0  0  0  0  0  0  0  0  0  0
   -3.9268   16.6288  -33.7424 H   0  0  0  0  0  0  0  0  0  0  0  0
   -3.9239   18.2482  -32.9108 H   0  0  0  0  0  0  0  0  0  0  0  0
   -4.6640   18.8377  -35.5429 H   0  0  0  0  0  0  0  0  0  0  0  0
   -5.5364   17.2873  -35.1477 H   0  0  0  0  0  0  0  0  0  0  0  0
   -5.6579   19.9051  -33.5896 H   0  0  0  0  0  0  0  0  0  0  0  0
   -6.9601   19.1449  -34.6162 H   0  0  0  0  0  0  0  0  0  0  0  0
   -6.3808   17.1240  -32.8483 H   0  0  0  0  0  0  0  0  0  0  0  0
   -6.1777   18.6318  -31.8305 H   0  0  0  0  0  0  0  0  0  0  0  0
   -8.5903   18.8218  -33.3938 H   0  0  0  0  0  0  0  0  0  0  0  0
   -8.5565   17.2649  -32.4471 H   0  0  0  0  0  0  0  0  0  0  0  0
   -9.5299   18.6676  -30.8984 H   0  0  0  0  0  0  0  0  0  0  0  0
   -7.7851   18.8637  -30.4859 H   0  0  0  0  0  0  0  0  0  0  0  0
  -10.8555   20.8551  -31.5720 H   0  0  0  0  0  0  0  0  0  0  0  0
  -10.1327   23.4087  -32.1479 H   0  0  0  0  0  0  0  0  0  0  0  0
   -7.6170   24.5300  -32.4690 H   0  0  0  0  0  0  0  0  0  0  0  0
   -5.1969   24.1566  -32.4507 H   0  0  0  0  0  0  0  0  0  0  0  0
   -2.1221   18.0681  -31.8015 H   0  0  0  0  0  0  0  0  0  0  0  0
  1  2  1  0
  2  3  1  0
  3  4  1  0
  4  5  1  0
  3  6  1  0
  6  7  1  0
  7  8  1  0
  8  9  1  0
  9 10  2  0
 10 11  1  0
 11 12  2  0
 12 13  1  0
 13 14  1  0
 14 15  1  0
 15 16  1  0
 16 17  1  0
 17 18  1  0
 18 19  1  0
 19 20  1  0
 20 21  1  0
 21 22  2  0
 22 23  1  0
 23 24  2  0
 24 25  1  0
 25 26  2  0
 26 27  1  0
 27 28  1  0
 28 29  1  0
 28 30  1  0
 28 31  1  0
 27 32  2  0
 32 33  1  0
 13 34  2  0
 34  9  1  0
 33 21  1  0
 33 24  1  0
  1 35  1  0
  1 36  1  0
  1 37  1  0
  2 38  1  0
  2 39  1  0
  4 40  1  0
  4 41  1  0
  5 42  1  0
  5 43  1  0
  5 44  1  0
  6 45  1  0
  6 46  1  0
  7 47  1  0
  7 48  1  0
  8 49  1  0
 10 50  1  0
 11 51  1  0
 12 52  1  0
 14 53  1  0
 14 54  1  0
 15 55  1  0
 15 56  1  0
 16 57  1  0
 16 58  1  0
 17 59  1  0
 17 60  1  0
 18 61  1  0
 18 62  1  0
 19 63  1  0
 19 64  1  0
 20 65  1  0
 20 66  1  0
 22 67  1  0
 23 68  1  0
 25 69  1  0
 26 70  1  0
 34 71  1  0
M  CHG  1  25   1
M  END
>  <UniqueID>  (16) 
15

>  <SMILES>  (16) 
CCN(CC)CCNc1cccc(CCCCCCCc2ccc3[nH+]cc(C(F)(F)F)nn23)c1

>  <Energy>  (16) 
95.20715653353271

>  <Genealogy>  (16) 
CCN(CC)CCNc1cccc(CCCCCCCc2ccc3[nH+]cc(C(F)(F)F)nn23)c1 (protonated)
CCN(CC)CCNc1cccc(CCCCCCCc2ccc3[nH+]cc(C(F)(F)F)nn23)c1 (3D coordinates assigned)
CCN(CC)CCNc1cccc(CCCCCCCc2ccc3[nH+]cc(C(F)(F)F)nn23)c1 (optimized conformer: 95.20715653353271 kcal/mol)

>  <smiles>  (16) 
CCN(CC)CCNc1cccc(CCCCCCCc2ccc3ncc(C(F)(F)F)nn23)c1

>  <score_type>  (16) 
oracle

>  <origin>  (16) 
adg

>  <m_score__min__energy>  (16) 
-8.9700000000000006

>  <m_primary>  (16) 
energy

$$$$
17:0
     RDKit          3D

 57 60  0  0  0  0  0  0  0  0999 V2000
   -6.8740   24.7290  -29.5380 C   0  0  0  0  0  0  0  0  0  0  0  0
   -6.0380   23.9890  -30.4830 N   0  0  0  0  0  0  0  0  0  0  0  0
   -4.6970   23.7830  -30.4500 C   0  0  0  0  0  0  0  0  0  0  0  0
   -3.7920   24.1270  -29.3310 C   0  0  0  0  0  0  0  0  0  0  0  0
   -4.2940   24.1750  -28.0200 C   0  0  0  0  0  0  0  0  0  0  0  0
   -3.4630   24.5420  -26.9560 C   0  0  0  0  0  0  0  0  0  0  0  0
   -2.1290   24.8810  -27.1930 C   0  0  0  0  0  0  0  0  0  0  0  0
   -1.6250   24.8600  -28.4950 C   0  0  0  0  0  0  0  0  0  0  0  0
   -2.4510   24.4900  -29.5620 C   0  0  0  0  0  0  0  0  0  0  0  0
   -4.2610   23.2130  -31.5930 N   0  0  0  0  0  0  0  0  0  0  0  0
   -5.3280   23.0390  -32.3550 N   0  0  0  0  0  0  0  0  0  0  0  0
   -6.3990   23.4940  -31.6840 C   0  0  0  0  0  0  0  0  0  0  0  0
   -8.0790   23.4310  -32.3250 S   0  0  0  0  0  0  0  0  0  0  0  0
   -8.5760   21.9530  -31.3580 C   0  0  0  0  0  0  0  0  0  0  0  0
   -8.8330   20.7320  -32.2530 C   0  0  0  0  0  0  0  0  0  0  0  0
   -7.7010   19.6830  -32.2480 C   0  0  0  0  0  0  0  0  0  0  0  0
   -6.4730   20.1800  -32.9160 N   0  0  0  0  0  0  0  0  0  0  0  0
   -6.1400   19.3810  -34.1270 C   0  0  0  0  0  0  0  0  0  0  0  0
   -5.1110   18.2790  -33.8430 C   0  0  0  0  0  0  0  0  0  0  0  0
   -3.7800   18.8690  -33.3460 C   0  0  0  0  0  0  0  0  0  0  0  0
   -3.9630   20.2360  -32.6490 C   0  0  2  0  0  0  0  0  0  0  0  0
   -2.8300   20.5150  -31.6770 C   0  0  0  0  0  0  0  0  0  0  0  0
   -1.5060   20.6150  -32.1470 C   0  0  0  0  0  0  0  0  0  0  0  0
   -0.4550   20.8520  -31.2550 C   0  0  0  0  0  0  0  0  0  0  0  0
   -0.7120   20.9900  -29.8880 C   0  0  0  0  0  0  0  0  0  0  0  0
   -2.0230   20.8910  -29.4100 C   0  0  0  0  0  0  0  0  0  0  0  0
   -2.2730   21.0240  -28.0830 F   0  0  0  0  0  0  0  0  0  0  0  0
   -3.0750   20.6530  -30.2980 C   0  0  0  0  0  0  0  0  0  0  0  0
   -5.3410   20.3210  -31.9600 C   0  0  0  0  0  0  0  0  0  0  0  0
   -6.5819   24.4704  -28.5095 H   0  0  0  0  0  0  0  0  0  0  0  0
   -6.7391   25.8091  -29.6969 H   0  0  0  0  0  0  0  0  0  0  0  0
   -7.9297   24.4640  -29.6969 H   0  0  0  0  0  0  0  0  0  0  0  0
   -5.3474   23.9224  -27.8287 H   0  0  0  0  0  0  0  0  0  0  0  0
   -3.8611   24.5636  -25.9308 H   0  0  0  0  0  0  0  0  0  0  0  0
   -1.4758   25.1644  -26.3545 H   0  0  0  0  0  0  0  0  0  0  0  0
   -0.5765   25.1349  -28.6822 H   0  0  0  0  0  0  0  0  0  0  0  0
   -2.0509   24.4826  -30.5866 H   0  0  0  0  0  0  0  0  0  0  0  0
   -5.3180   22.6060  -33.3060 H   0  0  0  0  0  0  0  0  0  0  0  0
   -7.7727   21.7083  -30.6475 H   0  0  0  0  0  0  0  0  0  0  0  0
   -9.5143   22.1917  -30.8359 H   0  0  0  0  0  0  0  0  0  0  0  0
   -9.7561   20.2425  -31.9090 H   0  0  0  0  0  0  0  0  0  0  0  0
   -8.9037   21.1099  -33.2836 H   0  0  0  0  0  0  0  0  0  0  0  0
   -7.4588   19.4282  -31.2057 H   0  0  0  0  0  0  0  0  0  0  0  0
   -8.0547   18.8021  -32.8038 H   0  0  0  0  0  0  0  0  0  0  0  0
   -7.0613   18.9137  -34.5049 H   0  0  0  0  0  0  0  0  0  0  0  0
   -5.6991   20.0656  -34.8666 H   0  0  0  0  0  0  0  0  0  0  0  0
   -5.5129   17.6038  -33.0732 H   0  0  0  0  0  0  0  0  0  0  0  0
   -4.9201   17.7338  -34.7791 H   0  0  0  0  0  0  0  0  0  0  0  0
   -3.3275   18.1661  -32.6310 H   0  0  0  0  0  0  0  0  0  0  0  0
   -3.1347   19.0245  -34.2232 H   0  0  0  0  0  0  0  0  0  0  0  0
   -3.9283   21.0196  -33.4202 H   0  0  0  0  0  0  0  0  0  0  0  0
   -1.2974   20.5061  -33.2215 H   0  0  0  0  0  0  0  0  0  0  0  0
    0.5761   20.9300  -31.6301 H   0  0  0  0  0  0  0  0  0  0  0  0
    0.1162   21.1763  -29.1884 H   0  0  0  0  0  0  0  0  0  0  0  0
   -4.1035   20.5728  -29.9161 H   0  0  0  0  0  0  0  0  0  0  0  0
   -5.4103   19.5173  -31.2121 H   0  0  0  0  0  0  0  0  0  0  0  0
   -5.4196   21.3161  -31.4978 H   0  0  0  0  0  0  0  0  0  0  0  0
  1  2  1  0
  2  3  1  0
  3  4  1  0
  4  5  2  0
  5  6  1  0
  6  7  2  0
  7  8  1  0
  8  9  2  0
  3 10  2  0
 10 11  1  0
 11 12  2  0
 12 13  1  0
 13 14  1  0
 14 15  1  0
 15 16  1  0
 16 17  1  0
 17 18  1  0
 18 19  1  0
 19 20  1  0
 20 21  1  0
 21 22  1  0
 22 23  2  0
 23 24  1  0
 24 25  2  0
 25 26  1  0
 26 27  1  0
 26 28  2  0
 21 29  1  0
 12  2  1  0
 29 17  1  0
  9  4  1  0
 28 22  1  0
  1 30  1  0
  1 31  1  0
  1 32  1  0
  5 33  1  0
  6 34  1  0
  7 35  1  0
  8 36  1  0
  9 37  1  0
 11 38  1  0
 14 39  1  0
 14 40  1  0
 15 41  1  0
 15 42  1  0
 16 43  1  0
 16 44  1  0
 18 45  1  0
 18 46  1  0
 19 47  1  0
 19 48  1  0
 20 49  1  0
 20 50  1  0
 21 51  1  6
 23 52  1  0
 24 53  1  0
 25 54  1  0
 28 55  1  0
 29 56  1  0
 29 57  1  0
M  CHG  1  11   1
M  END
>  <UniqueID>  (17) 
16

>  <SMILES>  (17) 
Cn1c(-c2ccccc2)n[nH+]c1SCCCN1CCC[C@H](c2cccc(F)c2)C1

>  <Energy>  (17) 
102.77743174742399

>  <Genealogy>  (17) 
Cn1c(-c2ccccc2)n[nH+]c1SCCCN1CCCC(c2cccc(F)c2)C1 (protonated)
Cn1c(-c2ccccc2)n[nH+]c1SCCCN1CCC[C@H](c2cccc(F)c2)C1 (chirality)
Cn1c(-c2ccccc2)n[nH+]c1SCCCN1CCC[C@H](c2cccc(F)c2)C1 (3D coordinates assigned)
Cn1c(-c2ccccc2)n[nH+]c1SCCCN1CCC[C@H](c2cccc(F)c2)C1 (nonaromatic ring conformer: 102.77743174742399 kcal/mol)

>  <smiles>  (17) 
Cn1c(SCCCN2CCCC(c3cccc(F)c3)C2)nnc1-c1ccccc1

>  <score_type>  (17) 
oracle

>  <origin>  (17) 
adg

>  <m_score__min__energy>  (17) 
-9.9900000000000002

>  <m_primary>  (17) 
energy

$$$$
18:0
     RDKit          3D

 82 87  0  0  0  0  0  0  0  0999 V2000
   -3.2060   18.5710  -25.9740 C   0  0  0  0  0  0  0  0  0  0  0  0
   -2.1350   19.3370  -26.7330 C   0  0  0  0  0  0  0  0  0  0  0  0
   -2.6590   20.6680  -27.3050 C   0  0  0  0  0  0  0  0  0  0  0  0
   -1.8230   21.8270  -26.9410 N   0  0  0  0  0  0  0  0  0  0  0  0
   -2.3020   23.0690  -27.5770 C   0  0  0  0  0  0  0  0  0  0  0  0
   -1.5530   23.3440  -28.8870 C   0  0  0  0  0  0  0  0  0  0  0  0
   -1.8540   22.2680  -29.9580 C   0  0  0  0  0  0  0  0  0  0  0  0
   -3.1040   22.2630  -30.5640 C   0  0  0  0  0  0  0  0  0  0  0  0
   -4.2020   22.9990  -30.0450 C   0  0  0  0  0  0  0  0  0  0  0  0
   -5.5170   22.7130  -30.4430 C   0  0  0  0  0  0  0  0  0  0  0  0
   -5.7860   21.7300  -31.3640 N   0  0  0  0  0  0  0  0  0  0  0  0
   -4.7190   21.2000  -32.0500 C   0  0  0  0  0  0  0  0  0  0  0  0
   -3.3910   21.5210  -31.7220 C   0  0  0  0  0  0  0  0  0  0  0  0
   -2.4100   21.4530  -32.8150 C   0  0  0  0  0  0  0  0  0  0  0  0
   -1.2310   20.9470  -32.6780 N   0  0  0  0  0  0  0  0  0  0  0  0
   -0.6790   20.4720  -31.4600 C   0  0  0  0  0  0  0  0  0  0  0  0
    0.1670   19.3650  -31.5840 C   0  0  0  0  0  0  0  0  0  0  0  0
    0.9540   18.9620  -30.5090 C   0  0  0  0  0  0  0  0  0  0  0  0
    0.9310   19.6770  -29.3110 C   0  0  0  0  0  0  0  0  0  0  0  0
    0.0770   20.7730  -29.1710 C   0  0  0  0  0  0  0  0  0  0  0  0
   -0.8150   21.1630  -30.2120 C   0  0  0  0  0  0  0  0  0  0  0  0
    1.7610   19.2710  -28.2460 O   0  0  0  0  0  0  0  0  0  0  0  0
    2.3910   17.9910  -28.2520 C   0  0  0  0  0  0  0  0  0  0  0  0
    2.8520   17.6210  -29.6620 C   0  0  0  0  0  0  0  0  0  0  0  0
    1.7990   17.8570  -30.6150 O   0  0  0  0  0  0  0  0  0  0  0  0
   -4.9420   20.3250  -33.1030 O   0  0  0  0  0  0  0  0  0  0  0  0
   -6.2250   19.9110  -33.4380 C   0  0  0  0  0  0  0  0  0  0  0  0
   -6.3680   18.9360  -34.4810 N   0  0  0  0  0  0  0  0  0  0  0  0
   -6.1790   17.5060  -34.2280 C   0  0  0  0  0  0  0  0  0  0  0  0
   -5.7090   17.2770  -32.7970 C   0  0  0  0  0  0  0  0  0  0  0  0
   -4.5600   16.3410  -32.7430 N   0  0  0  0  0  0  0  0  0  0  0  0
   -3.4560   16.7730  -33.6420 C   0  0  0  0  0  0  0  0  0  0  0  0
   -2.8080   18.0730  -33.1940 C   0  0  0  0  0  0  0  0  0  0  0  0
   -4.9840   14.9310  -32.9130 C   0  0  0  0  0  0  0  0  0  0  0  0
   -4.5930   14.0080  -31.7340 C   0  0  0  0  0  0  0  0  0  0  0  0
   -7.2680   20.4160  -32.7470 C   0  0  0  0  0  0  0  0  0  0  0  0
   -8.5970   20.0770  -33.0910 C   0  0  0  0  0  0  0  0  0  0  0  0
   -9.6800   20.5530  -32.3510 C   0  0  0  0  0  0  0  0  0  0  0  0
   -9.4560   21.3780  -31.2630 C   0  0  0  0  0  0  0  0  0  0  0  0
   -8.1620   21.7530  -30.9130 C   0  0  0  0  0  0  0  0  0  0  0  0
   -7.0240   21.3290  -31.6660 C   0  0  0  0  0  0  0  0  0  0  0  0
   -3.0431   18.6875  -24.8924 H   0  0  0  0  0  0  0  0  0  0  0  0
   -4.1975   18.9661  -26.2401 H   0  0  0  0  0  0  0  0  0  0  0  0
   -3.1525   17.5050  -26.2401 H   0  0  0  0  0  0  0  0  0  0  0  0
   -1.3012   19.5507  -26.0481 H   0  0  0  0  0  0  0  0  0  0  0  0
   -1.8118   18.7125  -27.5789 H   0  0  0  0  0  0  0  0  0  0  0  0
   -2.6888   20.5894  -28.4018 H   0  0  0  0  0  0  0  0  0  0  0  0
   -3.6572   20.8376  -26.8751 H   0  0  0  0  0  0  0  0  0  0  0  0
   -0.8390   21.6410  -27.2650 H   0  0  0  0  0  0  0  0  0  0  0  0
   -1.7780   21.9410  -25.9040 H   0  0  0  0  0  0  0  0  0  0  0  0
   -3.3765   22.9714  -27.7914 H   0  0  0  0  0  0  0  0  0  0  0  0
   -2.1193   23.9068  -26.8880 H   0  0  0  0  0  0  0  0  0  0  0  0
   -1.8606   24.3269  -29.2735 H   0  0  0  0  0  0  0  0  0  0  0  0
   -0.4739   23.3227  -28.6748 H   0  0  0  0  0  0  0  0  0  0  0  0
   -4.0190   23.8057  -29.3199 H   0  0  0  0  0  0  0  0  0  0  0  0
   -6.3487   23.2873  -30.0089 H   0  0  0  0  0  0  0  0  0  0  0  0
   -2.6955   21.8536  -33.7989 H   0  0  0  0  0  0  0  0  0  0  0  0
    0.2105   18.8115  -32.5336 H   0  0  0  0  0  0  0  0  0  0  0  0
    0.0931   21.3495  -28.2343 H   0  0  0  0  0  0  0  0  0  0  0  0
    3.2630   18.0148  -27.5818 H   0  0  0  0  0  0  0  0  0  0  0  0
    1.6656   17.2387  -27.9088 H   0  0  0  0  0  0  0  0  0  0  0  0
    3.7260   18.2330  -29.9293 H   0  0  0  0  0  0  0  0  0  0  0  0
    3.1164   16.5534  -29.6811 H   0  0  0  0  0  0  0  0  0  0  0  0
   -6.8570   19.1950  -35.3660 H   0  0  0  0  0  0  0  0  0  0  0  0
   -7.1330   16.9811  -34.3845 H   0  0  0  0  0  0  0  0  0  0  0  0
   -5.4165   17.1191  -34.9201 H   0  0  0  0  0  0  0  0  0  0  0  0
   -5.4051   18.2408  -32.3625 H   0  0  0  0  0  0  0  0  0  0  0  0
   -6.5403   16.8345  -32.2285 H   0  0  0  0  0  0  0  0  0  0  0  0
   -2.6884   15.9853  -33.6600 H   0  0  0  0  0  0  0  0  0  0  0  0
   -3.8877   16.9439  -34.6392 H   0  0  0  0  0  0  0  0  0  0  0  0
   -2.7880   18.1130  -32.0949 H   0  0  0  0  0  0  0  0  0  0  0  0
   -1.7797   18.1227  -33.5814 H   0  0  0  0  0  0  0  0  0  0  0  0
   -3.3873   18.9240  -33.5814 H   0  0  0  0  0  0  0  0  0  0  0  0
   -6.0786   14.9098  -33.0202 H   0  0  0  0  0  0  0  0  0  0  0  0
   -4.4629   14.5477  -33.8027 H   0  0  0  0  0  0  0  0  0  0  0  0
   -4.8086   14.5168  -30.7829 H   0  0  0  0  0  0  0  0  0  0  0  0
   -5.1733   13.0752  -31.7905 H   0  0  0  0  0  0  0  0  0  0  0  0
   -3.5193   13.7759  -31.7905 H   0  0  0  0  0  0  0  0  0  0  0  0
   -8.7806   19.4258  -33.9583 H   0  0  0  0  0  0  0  0  0  0  0  0
  -10.7065   20.2738  -32.6311 H   0  0  0  0  0  0  0  0  0  0  0  0
  -10.3081   21.7407  -30.6694 H   0  0  0  0  0  0  0  0  0  0  0  0
   -8.0112   22.3939  -30.0318 H   0  0  0  0  0  0  0  0  0  0  0  0
  1  2  1  0
  2  3  1  0
  3  4  1  0
  4  5  1  0
  5  6  1  0
  6  7  1  0
  7  8  2  0
  8  9  1  0
  9 10  2  0
 10 11  1  0
 11 12  1  0
 12 13  2  0
 13 14  1  0
 14 15  2  0
 15 16  1  0
 16 17  2  0
 17 18  1  0
 18 19  2  0
 19 20  1  0
 20 21  2  0
 19 22  1  0
 22 23  1  0
 23 24  1  0
 24 25  1  0
 12 26  1  0
 26 27  1  0
 27 28  1  0
 28 29  1  0
 29 30  1  0
 30 31  1  0
 31 32  1  0
 32 33  1  0
 31 34  1  0
 34 35  1  0
 27 36  2  0
 36 37  1  0
 37 38  2  0
 38 39  1  0
 39 40  2  0
 40 41  1  0
 21  7  1  0
 41 36  1  0
 13  8  1  0
 21 16  1  0
 41 11  2  0
 25 18  1  0
  1 42  1  0
  1 43  1  0
  1 44  1  0
  2 45  1  0
  2 46  1  0
  3 47  1  0
  3 48  1  0
  4 49  1  0
  4 50  1  0
  5 51  1  0
  5 52  1  0
  6 53  1  0
  6 54  1  0
  9 55  1  0
 10 56  1  0
 14 57  1  0
 17 58  1  0
 20 59  1  0
 23 60  1  0
 23 61  1  0
 24 62  1  0
 24 63  1  0
 28 64  1  0
 29 65  1  0
 29 66  1  0
 30 67  1  0
 30 68  1  0
 32 69  1  0
 32 70  1  0
 33 71  1  0
 33 72  1  0
 33 73  1  0
 34 74  1  0
 34 75  1  0
 35 76  1  0
 35 77  1  0
 35 78  1  0
 37 79  1  0
 38 80  1  0
 39 81  1  0
 40 82  1  0
M  CHG  2   4   1  11   1
M  END
>  <UniqueID>  (18) 
17

>  <SMILES>  (18) 
CCC[NH2+]CCC1=c2cc[n+]3c(c2C=Nc2cc4c(cc21)OCCO4)OC(NCCN(CC)CC)=c1ccccc1=3

>  <Energy>  (18) 
156.37627421626078

>  <Genealogy>  (18) 
CCC[NH2+]CCC1=c2cc[n+]3c(c2C=Nc2cc4c(cc21)OCCO4)OC(NCCN(CC)CC)=c1ccccc1=3 (protonated)
CCC[NH2+]CCC1=c2cc[n+]3c(c2C=Nc2cc4c(cc21)OCCO4)OC(NCCN(CC)CC)=c1ccccc1=3 (3D coordinates assigned)
CCC[NH2+]CCC1=c2cc[n+]3c(c2C=Nc2cc4c(cc21)OCCO4)OC(NCCN(CC)CC)=c1ccccc1=3 (nonaromatic ring conformer: 156.37627421626078 kcal/mol)

>  <smiles>  (18) 
CCCNCCC1=c2cc[n+]3c(c2C=Nc2cc4c(cc21)OCCO4)OC(NCCN(CC)CC)=c1ccccc1=3

>  <score_type>  (18) 
oracle

>  <origin>  (18) 
adg

>  <m_score__min__energy>  (18) 
-8.3499999999999996

>  <m_primary>  (18) 
energy

$$$$
