0:0
     RDKit          3D

 43 45  0  0  0  0  0  0  0  0999 V2000
    1.0004   23.0978  -28.7800 H   0  0  0  0  0  0  0  0  0  0  0  0
   -0.0350   23.3640  -29.0390 C   0  0  0  0  0  0  0  0  0  0  0  0
   -0.9370   24.6080  -28.3590 S   0  0  0  0  0  0  0  0  0  0  0  0
   -2.3030   24.2770  -29.2910 C   0  0  0  0  0  0  0  0  0  0  0  0
   -3.4300   24.9290  -29.2890 N   0  0  0  0  0  0  0  0  0  0  0  0
   -4.5750   24.7530  -30.1420 C   0  0  0  0  0  0  0  0  0  0  0  0
   -4.6310   25.4110  -31.2140 O   0  0  0  0  0  0  0  0  0  0  0  0
   -5.6810   23.7890  -29.8360 C   0  0  0  0  0  0  0  0  0  0  0  0
   -5.7920   23.6923  -28.7459 H   0  0  0  0  0  0  0  0  0  0  0  0
   -6.6215   24.1606  -30.2688 H   0  0  0  0  0  0  0  0  0  0  0  0
   -5.4413   22.8065  -30.2688 H   0  0  0  0  0  0  0  0  0  0  0  0
   -2.0860   23.2390  -30.1260 N   0  0  0  0  0  0  0  0  0  0  0  0
   -0.8320   22.7300  -29.9890 C   0  0  0  0  0  0  0  0  0  0  0  0
   -0.3750   21.5460  -30.7850 C   0  0  0  0  0  0  0  0  0  0  0  0
   -0.2031   20.6965  -30.1076 H   0  0  0  0  0  0  0  0  0  0  0  0
    0.5581   21.8021  -31.3081 H   0  0  0  0  0  0  0  0  0  0  0  0
   -1.4190   21.1710  -31.7970 C   0  0  0  0  0  0  0  0  0  0  0  0
   -1.2880   21.3130  -33.1640 C   0  0  0  0  0  0  0  0  0  0  0  0
   -0.3812   21.6438  -33.6916 H   0  0  0  0  0  0  0  0  0  0  0  0
   -2.4550   20.9790  -33.7420 N   0  0  0  0  0  0  0  0  0  0  0  0
   -2.6790   21.0340  -34.7590 H   0  0  0  0  0  0  0  0  0  0  0  0
   -3.2850   20.6510  -32.7310 C   0  0  0  0  0  0  0  0  0  0  0  0
   -4.7080   20.3060  -32.9350 C   0  0  0  0  0  0  0  0  0  0  0  0
   -6.0100   21.1900  -32.3350 S   0  0  0  0  0  0  0  0  0  0  0  0
   -7.1640   20.1990  -33.0620 C   0  0  0  0  0  0  0  0  0  0  0  0
   -8.4580   20.3360  -33.0190 N   0  0  0  0  0  0  0  0  0  0  0  0
   -9.2740   21.0620  -32.0810 C   0  0  0  0  0  0  0  0  0  0  0  0
  -10.5040   21.1730  -32.3220 O   0  0  0  0  0  0  0  0  0  0  0  0
   -8.7400   21.6620  -30.8160 C   0  0  0  0  0  0  0  0  0  0  0  0
   -9.1914   21.1548  -29.9506 H   0  0  0  0  0  0  0  0  0  0  0  0
   -7.6474   21.5387  -30.7844 H   0  0  0  0  0  0  0  0  0  0  0  0
   -8.9892   22.7329  -30.7844 H   0  0  0  0  0  0  0  0  0  0  0  0
   -6.5810   19.2110  -33.7730 N   0  0  0  0  0  0  0  0  0  0  0  0
   -5.2210   19.2560  -33.7040 C   0  0  0  0  0  0  0  0  0  0  0  0
   -4.3820   18.2470  -34.4240 C   0  0  0  0  0  0  0  0  0  0  0  0
   -3.8575   17.6162  -33.6912 H   0  0  0  0  0  0  0  0  0  0  0  0
   -5.0265   17.6174  -35.0550 H   0  0  0  0  0  0  0  0  0  0  0  0
   -3.6454   18.7659  -35.0550 H   0  0  0  0  0  0  0  0  0  0  0  0
   -2.6750   20.7490  -31.5240 N   0  0  0  0  0  0  0  0  0  0  0  0
   -3.2650   20.5200  -30.2050 C   0  0  0  0  0  0  0  0  0  0  0  0
   -2.5412   20.8009  -29.4258 H   0  0  0  0  0  0  0  0  0  0  0  0
   -4.1737   21.1307  -30.0987 H   0  0  0  0  0  0  0  0  0  0  0  0
   -3.5237   19.4562  -30.0987 H   0  0  0  0  0  0  0  0  0  0  0  0
  1  2  1  0
  2  3  1  0
  3  4  1  0
  4  5  2  0
  5  6  1  0
  6  7  2  0
  6  8  1  0
  8  9  1  0
  8 10  1  0
  8 11  1  0
  4 12  1  0
 12 13  1  0
 13 14  1  0
 14 15  1  0
 14 16  1  0
 14 17  1  0
 17 18  2  0
 18 19  1  0
 18 20  1  0
 20 21  1  0
 20 22  2  0
 22 23  1  0
 23 24  1  0
 24 25  1  0
 25 26  2  3
 26 27  1  0
 27 28  2  0
 27 29  1  0
 29 30  1  0
 29 31  1  0
 29 32  1  0
 25 33  1  0
 33 34  1  0
 34 35  1  0
 35 36  1  0
 35 37  1  0
 35 38  1  0
 22 39  1  0
 39 40  1  0
 40 41  1  0
 40 42  1  0
 40 43  1  0
 13  2  2  0
 39 17  1  0
 34 23  2  0
M  CHG  3  12  -1  20   1  33  -1
M  END
>  <UniqueID>  (1) 
1

>  <SMILES>  (1) 
CC(=O)N=c1[n-]c(C)c(-c2[nH+]cc(Cc3cs/c(=N\C(C)=O)[n-]3)n2C)s1

>  <Energy>  (1) 
144.8107357572952

>  <Genealogy>  (1) 
CC(=O)N=c1[n-]c(Cc2c[nH+]c(-c3sc(=NC(C)=O)[n-]c3C)n2C)cs1 (protonated)
CC(=O)N=c1[n-]c(C)c(-c2[nH+]cc(Cc3cs/c(=N\C(C)=O)[n-]3)n2C)s1 (cis-trans isomerization)
CC(=O)N=c1[n-]c(C)c(-c2[nH+]cc(Cc3cs/c(=N\C(C)=O)[n-]3)n2C)s1 (3D coordinates assigned)
CC(=O)N=c1[n-]c(C)c(-c2[nH+]cc(Cc3cs/c(=N\C(C)=O)[n-]3)n2C)s1 (optimized conformer: 144.8107357572952 kcal/mol)

>  <smiles>  (1) 
CC(=O)N=c1[nH]c(Cc2cnc(-c3sc(=NC(C)=O)[nH]c3C)n2C)cs1

>  <score_type>  (1) 
oracle

>  <origin>  (1) 
adg

>  <m_score__min__energy>  (1) 
-10.19

>  <m_primary>  (1) 
energy

$$$$
1:0
     RDKit          3D

 41 43  0  0  0  0  0  0  0  0999 V2000
   -3.1970   16.8440  -33.4720 C   0  0  0  0  0  0  0  0  0  0  0  0
   -3.9300   18.1200  -33.4010 N   0  0  0  0  0  0  0  0  0  0  0  0
   -3.0790   19.2330  -33.8750 C   0  0  0  0  0  0  0  0  0  0  0  0
   -3.1380   20.3790  -32.9030 C   0  0  0  0  0  0  0  0  0  0  0  0
   -3.9160   21.5140  -33.1790 C   0  0  0  0  0  0  0  0  0  0  0  0
   -3.9490   22.5820  -32.2770 C   0  0  0  0  0  0  0  0  0  0  0  0
   -3.2060   22.5260  -31.0900 C   0  0  0  0  0  0  0  0  0  0  0  0
   -3.2360   23.8800  -29.9650 S   0  0  0  0  0  0  0  0  0  0  0  0
   -3.8330   25.2860  -30.7710 N   0  0  0  0  0  0  0  0  0  0  0  0
   -4.1260   23.5530  -28.7990 O   0  0  0  0  0  0  0  0  0  0  0  0
   -1.8490   24.1490  -29.4520 O   0  0  0  0  0  0  0  0  0  0  0  0
   -2.4180   21.3990  -30.8190 C   0  0  0  0  0  0  0  0  0  0  0  0
   -2.3850   20.3310  -31.7200 C   0  0  0  0  0  0  0  0  0  0  0  0
   -5.1780   18.0300  -34.1880 C   0  0  0  0  0  0  0  0  0  0  0  0
   -6.2920   18.7260  -33.4680 C   0  0  0  0  0  0  0  0  0  0  0  0
   -7.3320   18.0040  -32.9690 N   0  0  0  0  0  0  0  0  0  0  0  0
   -8.3450   18.6000  -32.2880 C   0  0  0  0  0  0  0  0  0  0  0  0
   -9.2880   17.8940  -31.8430 O   0  0  0  0  0  0  0  0  0  0  0  0
   -8.3270   19.9910  -32.0900 C   0  0  0  0  0  0  0  0  0  0  0  0
   -9.3440   20.6680  -31.3940 C   0  0  0  0  0  0  0  0  0  0  0  0
   -9.2730   22.0550  -31.2270 C   0  0  0  0  0  0  0  0  0  0  0  0
   -8.1920   22.7720  -31.7490 C   0  0  0  0  0  0  0  0  0  0  0  0
   -7.1760   22.1070  -32.4430 C   0  0  0  0  0  0  0  0  0  0  0  0
   -7.2390   20.7200  -32.6160 C   0  0  0  0  0  0  0  0  0  0  0  0
   -6.2520   20.0720  -33.2880 N   0  0  0  0  0  0  0  0  0  0  0  0
   -2.9897   16.4831  -32.4538 H   0  0  0  0  0  0  0  0  0  0  0  0
   -3.8058   16.1007  -34.0076 H   0  0  0  0  0  0  0  0  0  0  0  0
   -2.2482   16.9955  -34.0076 H   0  0  0  0  0  0  0  0  0  0  0  0
   -2.0396   18.8841  -33.9634 H   0  0  0  0  0  0  0  0  0  0  0  0
   -3.4443   19.5732  -34.8552 H   0  0  0  0  0  0  0  0  0  0  0  0
   -4.5021   21.5636  -34.1085 H   0  0  0  0  0  0  0  0  0  0  0  0
   -4.5602   23.4690  -32.4998 H   0  0  0  0  0  0  0  0  0  0  0  0
   -3.8820   26.0490  -30.0590 H   0  0  0  0  0  0  0  0  0  0  0  0
   -1.8237   21.3549  -29.8944 H   0  0  0  0  0  0  0  0  0  0  0  0
   -1.7658   19.4487  -31.5007 H   0  0  0  0  0  0  0  0  0  0  0  0
   -5.0252   18.5055  -35.1681 H   0  0  0  0  0  0  0  0  0  0  0  0
   -5.4429   16.9709  -34.3230 H   0  0  0  0  0  0  0  0  0  0  0  0
  -10.1953   20.1070  -30.9809 H   0  0  0  0  0  0  0  0  0  0  0  0
  -10.0701   22.5833  -30.6833 H   0  0  0  0  0  0  0  0  0  0  0  0
   -8.1405   23.8624  -31.6134 H   0  0  0  0  0  0  0  0  0  0  0  0
   -6.3274   22.6744  -32.8528 H   0  0  0  0  0  0  0  0  0  0  0  0
  1  2  1  0
  2  3  1  0
  3  4  1  0
  4  5  2  0
  5  6  1  0
  6  7  2  0
  7  8  1  0
  8  9  1  0
  8 10  2  0
  8 11  2  0
  7 12  1  0
 12 13  2  0
  2 14  1  0
 14 15  1  0
 15 16  2  0
 16 17  1  0
 17 18  2  0
 17 19  1  0
 19 20  2  0
 20 21  1  0
 21 22  2  0
 22 23  1  0
 23 24  2  0
 24 25  1  0
 13  4  1  0
 25 15  1  0
 24 19  1  0
  1 26  1  0
  1 27  1  0
  1 28  1  0
  3 29  1  0
  3 30  1  0
  5 31  1  0
  6 32  1  0
  9 33  1  0
 12 34  1  0
 13 35  1  0
 14 36  1  0
 14 37  1  0
 20 38  1  0
 21 39  1  0
 22 40  1  0
 23 41  1  0
M  CHG  2   9  -1  25  -1
M  END
>  <UniqueID>  (2) 
2

>  <SMILES>  (2) 
CN(Cc1ccc(S([NH-])(=O)=O)cc1)Cc1nc(=O)c2ccccc2[n-]1

>  <Energy>  (2) 
47.31606722453057

>  <Genealogy>  (2) 
CN(Cc1ccc(S([NH-])(=O)=O)cc1)Cc1nc(=O)c2ccccc2[n-]1 (protonated)
CN(Cc1ccc(S([NH-])(=O)=O)cc1)Cc1nc(=O)c2ccccc2[n-]1 (3D coordinates assigned)
CN(Cc1ccc(S([NH-])(=O)=O)cc1)Cc1nc(=O)c2ccccc2[n-]1 (optimized conformer: 47.31606722453057 kcal/mol)

>  <smiles>  (2) 
CN(Cc1ccc(S(N)(=O)=O)cc1)Cc1nc(=O)c2ccccc2[nH]1

>  <score_type>  (2) 
oracle

>  <origin>  (2) 
adg

>  <m_score__min__energy>  (2) 
-10.84

>  <m_primary>  (2) 
energy

$$$$
2:0
     RDKit          3D

 41 43  0  0  0  0  0  0  0  0999 V2000
   -2.5490   17.0170  -34.4530 C   0  0  0  0  0  0  0  0  0  0  0  0
   -3.8120   17.3970  -34.9900 O   0  0  0  0  0  0  0  0  0  0  0  0
   -4.8660   17.9350  -34.2350 C   0  0  0  0  0  0  0  0  0  0  0  0
   -5.7820   17.0530  -33.6550 C   0  0  0  0  0  0  0  0  0  0  0  0
   -6.8480   17.5310  -32.8900 C   0  0  0  0  0  0  0  0  0  0  0  0
   -7.0210   18.9160  -32.6900 C   0  0  0  0  0  0  0  0  0  0  0  0
   -8.0850   19.4410  -31.9190 C   0  0  0  0  0  0  0  0  0  0  0  0
   -9.1100   18.5520  -31.2610 C   0  0  0  0  0  0  0  0  0  0  0  0
   -8.1870   20.8300  -31.7550 C   0  0  0  0  0  0  0  0  0  0  0  0
   -7.2480   21.6750  -32.3490 C   0  0  0  0  0  0  0  0  0  0  0  0
   -7.3660   23.4510  -32.1130 S   0  0  0  0  0  0  0  0  0  0  0  0
   -6.3780   23.4740  -30.5720 C   0  0  0  0  0  0  0  0  0  0  0  0
   -4.9190   23.7180  -30.8520 C   0  0  0  0  0  0  0  0  0  0  0  0
   -4.5110   24.9110  -30.8740 O   0  0  0  0  0  0  0  0  0  0  0  0
   -3.9490   22.6110  -31.0670 C   0  0  0  0  0  0  0  0  0  0  0  0
   -3.5160   22.2490  -32.3600 C   0  0  0  0  0  0  0  0  0  0  0  0
   -2.6130   21.1960  -32.5370 C   0  0  0  0  0  0  0  0  0  0  0  0
   -2.1310   20.4920  -31.4320 C   0  0  0  0  0  0  0  0  0  0  0  0
   -2.5490   20.8400  -30.1460 C   0  0  0  0  0  0  0  0  0  0  0  0
   -3.4510   21.8920  -29.9630 C   0  0  0  0  0  0  0  0  0  0  0  0
   -6.2390   21.1570  -33.1000 N   0  0  0  0  0  0  0  0  0  0  0  0
   -6.0950   19.8140  -33.2790 C   0  0  0  0  0  0  0  0  0  0  0  0
   -5.0280   19.3190  -34.0440 C   0  0  0  0  0  0  0  0  0  0  0  0
   -2.5983   17.0318  -33.3542 H   0  0  0  0  0  0  0  0  0  0  0  0
   -2.2953   16.0028  -34.7950 H   0  0  0  0  0  0  0  0  0  0  0  0
   -1.7778   17.7229  -34.7950 H   0  0  0  0  0  0  0  0  0  0  0  0
   -5.6618   15.9696  -33.8028 H   0  0  0  0  0  0  0  0  0  0  0  0
   -7.5581   16.8216  -32.4400 H   0  0  0  0  0  0  0  0  0  0  0  0
   -9.0174   18.6323  -30.1679 H   0  0  0  0  0  0  0  0  0  0  0  0
  -10.1186   18.8661  -31.5676 H   0  0  0  0  0  0  0  0  0  0  0  0
   -8.9417   17.5091  -31.5676 H   0  0  0  0  0  0  0  0  0  0  0  0
   -9.0077   21.2540  -31.1578 H   0  0  0  0  0  0  0  0  0  0  0  0
   -6.7547   24.2746  -29.9185 H   0  0  0  0  0  0  0  0  0  0  0  0
   -6.4753   22.4917  -30.0865 H   0  0  0  0  0  0  0  0  0  0  0  0
   -3.8915   22.7991  -33.2354 H   0  0  0  0  0  0  0  0  0  0  0  0
   -2.2817   20.9217  -33.5494 H   0  0  0  0  0  0  0  0  0  0  0  0
   -1.4219   19.6632  -31.5744 H   0  0  0  0  0  0  0  0  0  0  0  0
   -2.1680   20.2855  -29.2757 H   0  0  0  0  0  0  0  0  0  0  0  0
   -3.7751   22.1610  -28.9468 H   0  0  0  0  0  0  0  0  0  0  0  0
   -5.5550   21.8160  -33.5380 H   0  0  0  0  0  0  0  0  0  0  0  0
   -4.3119   20.0195  -34.4984 H   0  0  0  0  0  0  0  0  0  0  0  0
  1  2  1  0
  2  3  1  0
  3  4  2  0
  4  5  1  0
  5  6  2  0
  6  7  1  0
  7  8  1  0
  7  9  2  0
  9 10  1  0
 10 11  1  0
 11 12  1  0
 12 13  1  0
 13 14  2  0
 13 15  1  0
 15 16  2  0
 16 17  1  0
 17 18  2  0
 18 19  1  0
 19 20  2  0
 10 21  2  0
 21 22  1  0
 22 23  2  0
 23  3  1  0
 22  6  1  0
 20 15  1  0
  1 24  1  0
  1 25  1  0
  1 26  1  0
  4 27  1  0
  5 28  1  0
  8 29  1  0
  8 30  1  0
  8 31  1  0
  9 32  1  0
 12 33  1  0
 12 34  1  0
 16 35  1  0
 17 36  1  0
 18 37  1  0
 19 38  1  0
 20 39  1  0
 21 40  1  0
 23 41  1  0
M  CHG  1  21   1
M  END
>  <UniqueID>  (3) 
3

>  <SMILES>  (3) 
COc1ccc2c(C)cc(SCC(=O)c3ccccc3)[nH+]c2c1

>  <Energy>  (3) 
43.75291907427606

>  <Genealogy>  (3) 
COc1ccc2c(C)cc(SCC(=O)c3ccccc3)[nH+]c2c1 (protonated)
COc1ccc2c(C)cc(SCC(=O)c3ccccc3)[nH+]c2c1 (3D coordinates assigned)
COc1ccc2c(C)cc(SCC(=O)c3ccccc3)[nH+]c2c1 (optimized conformer: 43.75291907427606 kcal/mol)

>  <smiles>  (3) 
COc1ccc2c(C)cc(SCC(=O)c3ccccc3)nc2c1

>  <score_type>  (3) 
oracle

>  <origin>  (3) 
adg

>  <m_score__min__energy>  (3) 
-8.2599999999999998

>  <m_primary>  (3) 
energy

$$$$
3:0
     RDKit          3D

 30 31  0  0  0  0  0  0  0  0999 V2000
   -8.7840   22.9720  -31.9220 C   0  0  0  0  0  0  0  0  0  0  0  0
   -7.5840   22.1920  -32.2370 N   0  0  0  0  0  0  0  0  0  0  0  0
   -6.2920   22.8840  -32.3500 C   0  0  0  0  0  0  0  0  0  0  0  0
   -5.9620   23.5930  -31.0620 C   0  0  0  0  0  0  0  0  0  0  0  0
   -5.0970   22.9980  -30.1340 C   0  0  0  0  0  0  0  0  0  0  0  0
   -4.7660   23.6850  -28.9640 C   0  0  0  0  0  0  0  0  0  0  0  0
   -5.2750   24.9250  -28.7300 N   0  0  0  0  0  0  0  0  0  0  0  0
   -6.1100   25.5280  -29.6210 C   0  0  0  0  0  0  0  0  0  0  0  0
   -6.4660   24.8760  -30.8040 C   0  0  0  0  0  0  0  0  0  0  0  0
   -7.6410   20.7490  -32.2460 C   0  0  0  0  0  0  0  0  0  0  0  0
   -8.6760   20.0690  -31.5770 C   0  0  0  0  0  0  0  0  0  0  0  0
   -8.7390   18.6730  -31.6050 C   0  0  0  0  0  0  0  0  0  0  0  0
   -7.7720   17.9410  -32.2990 C   0  0  0  0  0  0  0  0  0  0  0  0
   -6.7400   18.6050  -32.9650 C   0  0  0  0  0  0  0  0  0  0  0  0
   -6.6720   20.0020  -32.9400 C   0  0  0  0  0  0  0  0  0  0  0  0
   -8.8973   23.0457  -30.8303 H   0  0  0  0  0  0  0  0  0  0  0  0
   -8.6882   23.9809  -32.3496 H   0  0  0  0  0  0  0  0  0  0  0  0
   -9.6672   22.4749  -32.3496 H   0  0  0  0  0  0  0  0  0  0  0  0
   -5.5047   22.1482  -32.5708 H   0  0  0  0  0  0  0  0  0  0  0  0
   -6.3538   23.6256  -33.1601 H   0  0  0  0  0  0  0  0  0  0  0  0
   -4.6819   21.9975  -30.3256 H   0  0  0  0  0  0  0  0  0  0  0  0
   -4.0913   23.2219  -28.2289 H   0  0  0  0  0  0  0  0  0  0  0  0
   -5.0180   25.4260  -27.8510 H   0  0  0  0  0  0  0  0  0  0  0  0
   -6.5055   26.5321  -29.4083 H   0  0  0  0  0  0  0  0  0  0  0  0
   -7.1358   25.3647  -31.5269 H   0  0  0  0  0  0  0  0  0  0  0  0
   -9.4400   20.6398  -31.0288 H   0  0  0  0  0  0  0  0  0  0  0  0
   -9.5514   18.1495  -31.0797 H   0  0  0  0  0  0  0  0  0  0  0  0
   -7.8238   16.8424  -32.3206 H   0  0  0  0  0  0  0  0  0  0  0  0
   -5.9787   18.0283  -33.5106 H   0  0  0  0  0  0  0  0  0  0  0  0
   -5.8561   20.5193  -33.4660 H   0  0  0  0  0  0  0  0  0  0  0  0
  1  2  1  0
  2  3  1  0
  3  4  1  0
  4  5  2  0
  5  6  1  0
  6  7  2  0
  7  8  1  0
  8  9  2  0
  2 10  1  0
 10 11  2  0
 11 12  1  0
 12 13  2  0
 13 14  1  0
 14 15  2  0
  9  4  1  0
 15 10  1  0
  1 16  1  0
  1 17  1  0
  1 18  1  0
  3 19  1  0
  3 20  1  0
  5 21  1  0
  6 22  1  0
  7 23  1  0
  8 24  1  0
  9 25  1  0
 11 26  1  0
 12 27  1  0
 13 28  1  0
 14 29  1  0
 15 30  1  0
M  CHG  1   7   1
M  END
>  <UniqueID>  (4) 
4

>  <SMILES>  (4) 
CN(Cc1cc[nH+]cc1)c1ccccc1

>  <Energy>  (4) 
31.738037012725272

>  <Genealogy>  (4) 
CN(Cc1cc[nH+]cc1)c1ccccc1 (protonated)
CN(Cc1cc[nH+]cc1)c1ccccc1 (3D coordinates assigned)
CN(Cc1cc[nH+]cc1)c1ccccc1 (optimized conformer: 31.738037012725272 kcal/mol)

>  <smiles>  (4) 
CN(Cc1ccncc1)c1ccccc1

>  <score_type>  (4) 
oracle

>  <origin>  (4) 
adg

>  <m_score__min__energy>  (4) 
-5.8200000000000003

>  <m_primary>  (4) 
energy

$$$$
4:0
     RDKit          3D

 40 42  0  0  0  0  0  0  0  0999 V2000
   -9.1160   18.7180  -31.9680 C   0  0  0  0  0  0  0  0  0  0  0  0
   -8.8700   20.0380  -31.2420 C   0  0  0  0  0  0  0  0  0  0  0  0
   -8.4430   21.1730  -32.1870 C   0  0  0  0  0  0  0  0  0  0  0  0
   -6.9880   21.4310  -32.1080 N   0  0  0  0  0  0  0  0  0  0  0  0
   -6.6060   22.5060  -31.3500 C   0  0  0  0  0  0  0  0  0  0  0  0
   -5.2650   22.8610  -31.2010 C   0  0  0  0  0  0  0  0  0  0  0  0
   -4.8280   24.2410  -30.1890 S   0  0  0  0  0  0  0  0  0  0  0  0
   -6.0380   24.7810  -29.4790 O   0  0  0  0  0  0  0  0  0  0  0  0
   -4.2640   25.3380  -31.0500 O   0  0  0  0  0  0  0  0  0  0  0  0
   -3.6430   23.7190  -28.9980 C   0  0  0  0  0  0  0  0  0  0  0  0
   -3.7540   22.4460  -28.4200 C   0  0  0  0  0  0  0  0  0  0  0  0
   -2.8070   22.0130  -27.4870 C   0  0  0  0  0  0  0  0  0  0  0  0
   -1.7440   22.8480  -27.1290 C   0  0  0  0  0  0  0  0  0  0  0  0
   -0.8260   22.4260  -26.2250 F   0  0  0  0  0  0  0  0  0  0  0  0
   -1.6260   24.1150  -27.7090 C   0  0  0  0  0  0  0  0  0  0  0  0
   -2.5710   24.5500  -28.6420 C   0  0  0  0  0  0  0  0  0  0  0  0
   -4.2820   22.0920  -31.8280 C   0  0  0  0  0  0  0  0  0  0  0  0
   -3.0640   22.3960  -31.6870 O   0  0  0  0  0  0  0  0  0  0  0  0
   -4.6530   20.9800  -32.6020 C   0  0  0  0  0  0  0  0  0  0  0  0
   -3.6730   20.1910  -33.2370 C   0  0  0  0  0  0  0  0  0  0  0  0
   -4.0390   19.0790  -33.9910 C   0  0  0  0  0  0  0  0  0  0  0  0
   -3.0870   18.3280  -34.5970 F   0  0  0  0  0  0  0  0  0  0  0  0
   -5.3810   18.7360  -34.1190 C   0  0  0  0  0  0  0  0  0  0  0  0
   -6.3680   19.5020  -33.5000 C   0  0  0  0  0  0  0  0  0  0  0  0
   -6.0330   20.6470  -32.7330 C   0  0  0  0  0  0  0  0  0  0  0  0
   -9.2655   17.9160  -31.2301 H   0  0  0  0  0  0  0  0  0  0  0  0
  -10.0129   18.8079  -32.5985 H   0  0  0  0  0  0  0  0  0  0  0  0
   -8.2470   18.4788  -32.5985 H   0  0  0  0  0  0  0  0  0  0  0  0
   -9.7984   20.3363  -30.7329 H   0  0  0  0  0  0  0  0  0  0  0  0
   -8.0464   19.8741  -30.5315 H   0  0  0  0  0  0  0  0  0  0  0  0
   -8.7002   20.8934  -33.2193 H   0  0  0  0  0  0  0  0  0  0  0  0
   -8.9712   22.0891  -31.8842 H   0  0  0  0  0  0  0  0  0  0  0  0
   -7.3775   23.1058  -30.8450 H   0  0  0  0  0  0  0  0  0  0  0  0
   -4.5882   21.7866  -28.7014 H   0  0  0  0  0  0  0  0  0  0  0  0
   -2.8982   21.0147  -27.0342 H   0  0  0  0  0  0  0  0  0  0  0  0
   -0.7877   24.7704  -27.4303 H   0  0  0  0  0  0  0  0  0  0  0  0
   -2.4738   25.5463  -29.0981 H   0  0  0  0  0  0  0  0  0  0  0  0
   -2.6101   20.4558  -33.1362 H   0  0  0  0  0  0  0  0  0  0  0  0
   -5.6654   17.8546  -34.7125 H   0  0  0  0  0  0  0  0  0  0  0  0
   -7.4240   19.2135  -33.6083 H   0  0  0  0  0  0  0  0  0  0  0  0
  1  2  1  0
  2  3  1  0
  3  4  1  0
  4  5  1  0
  5  6  2  0
  6  7  1  0
  7  8  2  0
  7  9  2  0
  7 10  1  0
 10 11  2  0
 11 12  1  0
 12 13  2  0
 13 14  1  0
 13 15  1  0
 15 16  2  0
  6 17  1  0
 17 18  2  0
 17 19  1  0
 19 20  2  0
 20 21  1  0
 21 22  1  0
 21 23  2  0
 23 24  1  0
 24 25  2  0
 25  4  1  0
 16 10  1  0
 25 19  1  0
  1 26  1  0
  1 27  1  0
  1 28  1  0
  2 29  1  0
  2 30  1  0
  3 31  1  0
  3 32  1  0
  5 33  1  0
 11 34  1  0
 12 35  1  0
 15 36  1  0
 16 37  1  0
 20 38  1  0
 23 39  1  0
 24 40  1  0
M  END
>  <UniqueID>  (5) 
5

>  <SMILES>  (5) 
CCCn1cc(S(=O)(=O)c2ccc(F)cc2)c(=O)c2cc(F)ccc21

>  <Energy>  (5) 
51.76403393641776

>  <Genealogy>  (5) 
CCCn1cc(S(=O)(=O)c2ccc(F)cc2)c(=O)c2cc(F)ccc21 (3D coordinates assigned)
CCCn1cc(S(=O)(=O)c2ccc(F)cc2)c(=O)c2cc(F)ccc21 (optimized conformer: 51.76403393641776 kcal/mol)

>  <smiles>  (5) 
CCCn1cc(S(=O)(=O)c2ccc(F)cc2)c(=O)c2cc(F)ccc21

>  <score_type>  (5) 
oracle

>  <origin>  (5) 
adg

>  <m_score__min__energy>  (5) 
-8.5999999999999996

>  <m_primary>  (5) 
energy

$$$$
5:0
     RDKit          3D

 59 63  0  0  0  0  0  0  0  0999 V2000
   -4.3100   17.1150  -34.6190 C   0  0  0  0  0  0  0  0  0  0  0  0
   -3.9890   18.4770  -34.0870 C   0  0  0  0  0  0  0  0  0  0  0  0
   -2.6950   18.8960  -34.0050 N   0  0  0  0  0  0  0  0  0  0  0  0
   -2.5930   20.1990  -33.6600 C   0  0  0  0  0  0  0  0  0  0  0  0
   -1.3140   20.9280  -33.5960 C   0  0  0  0  0  0  0  0  0  0  0  0
   -1.0710   21.6630  -32.5990 O   0  0  0  0  0  0  0  0  0  0  0  0
   -0.3480   20.8280  -34.6550 N   0  0  0  0  0  0  0  0  0  0  0  0
    0.2310   22.0430  -35.2330 C   0  0  0  0  0  0  0  0  0  0  0  0
    1.6710   21.7690  -35.6840 C   0  0  0  0  0  0  0  0  0  0  0  0
    1.7350   20.6160  -36.5020 O   0  0  0  0  0  0  0  0  0  0  0  0
    1.3680   19.4750  -35.7500 C   0  0  0  0  0  0  0  0  0  0  0  0
   -0.1020   19.5510  -35.3330 C   0  0  0  0  0  0  0  0  0  0  0  0
   -4.1090   20.8990  -33.4820 S   0  0  0  0  0  0  0  0  0  0  0  0
   -4.9440   19.4670  -33.8080 C   0  0  0  0  0  0  0  0  0  0  0  0
   -6.4400   19.3730  -33.9690 C   0  0  0  0  0  0  0  0  0  0  0  0
   -7.1920   19.5140  -32.7040 N   0  0  0  0  0  0  0  0  0  0  0  0
   -8.4160   20.3490  -32.7650 C   0  0  0  0  0  0  0  0  0  0  0  0
   -8.4540   21.4640  -31.7030 C   0  0  0  0  0  0  0  0  0  0  0  0
   -7.0790   22.1350  -31.5720 C   0  0  0  0  0  0  0  0  0  0  0  0
   -7.1440   23.3080  -30.5770 C   0  0  0  0  0  0  0  0  0  0  0  0
   -5.8360   23.9470  -30.4430 N   0  0  0  0  0  0  0  0  0  0  0  0
   -5.3940   24.9370  -31.2130 N   0  0  0  0  0  0  0  0  0  0  0  0
   -4.1600   25.3010  -30.8630 N   0  0  0  0  0  0  0  0  0  0  0  0
   -3.8250   24.5060  -29.8310 C   0  0  0  0  0  0  0  0  0  0  0  0
   -2.6280   24.4510  -29.1270 C   0  0  0  0  0  0  0  0  0  0  0  0
   -2.5230   23.4840  -28.1070 C   0  0  0  0  0  0  0  0  0  0  0  0
   -3.6080   22.6250  -27.8150 C   0  0  0  0  0  0  0  0  0  0  0  0
   -4.8060   22.7110  -28.5490 C   0  0  0  0  0  0  0  0  0  0  0  0
   -4.8640   23.6700  -29.5600 C   0  0  0  0  0  0  0  0  0  0  0  0
   -5.9920   21.1070  -31.1690 C   0  0  0  0  0  0  0  0  0  0  0  0
   -6.3770   19.6480  -31.4790 C   0  0  0  0  0  0  0  0  0  0  0  0
   -4.4732   16.4227  -33.7799 H   0  0  0  0  0  0  0  0  0  0  0  0
   -5.2205   17.1668  -35.2340 H   0  0  0  0  0  0  0  0  0  0  0  0
   -3.4722   16.7547  -35.2340 H   0  0  0  0  0  0  0  0  0  0  0  0
   -0.3695   22.3571  -36.0995 H   0  0  0  0  0  0  0  0  0  0  0  0
    0.2334   22.8401  -34.4750 H   0  0  0  0  0  0  0  0  0  0  0  0
    2.0408   22.6348  -36.2529 H   0  0  0  0  0  0  0  0  0  0  0  0
    2.2919   21.6009  -34.7917 H   0  0  0  0  0  0  0  0  0  0  0  0
    1.5235   18.5742  -36.3618 H   0  0  0  0  0  0  0  0  0  0  0  0
    1.9905   19.4337  -34.8441 H   0  0  0  0  0  0  0  0  0  0  0  0
   -0.7413   19.4796  -36.2253 H   0  0  0  0  0  0  0  0  0  0  0  0
   -0.3348   18.7205  -34.6504 H   0  0  0  0  0  0  0  0  0  0  0  0
   -6.7646   20.1695  -34.6548 H   0  0  0  0  0  0  0  0  0  0  0  0
   -6.6553   18.3661  -34.3561 H   0  0  0  0  0  0  0  0  0  0  0  0
   -8.4705   20.8144  -33.7602 H   0  0  0  0  0  0  0  0  0  0  0  0
   -9.2703   19.6850  -32.5670 H   0  0  0  0  0  0  0  0  0  0  0  0
   -9.1976   22.2189  -31.9983 H   0  0  0  0  0  0  0  0  0  0  0  0
   -8.7251   21.0204  -30.7336 H   0  0  0  0  0  0  0  0  0  0  0  0
   -6.7964   22.5402  -32.5548 H   0  0  0  0  0  0  0  0  0  0  0  0
   -7.8720   24.0487  -30.9395 H   0  0  0  0  0  0  0  0  0  0  0  0
   -7.4499   22.9205  -29.5940 H   0  0  0  0  0  0  0  0  0  0  0  0
   -1.7968   25.1340  -29.3564 H   0  0  0  0  0  0  0  0  0  0  0  0
   -1.5888   23.3966  -27.5329 H   0  0  0  0  0  0  0  0  0  0  0  0
   -3.5149   21.8836  -27.0077 H   0  0  0  0  0  0  0  0  0  0  0  0
   -5.6592   22.0507  -28.3346 H   0  0  0  0  0  0  0  0  0  0  0  0
   -5.0677   21.3462  -31.7153 H   0  0  0  0  0  0  0  0  0  0  0  0
   -5.8655   21.1823  -30.0789 H   0  0  0  0  0  0  0  0  0  0  0  0
   -5.4551   19.0614  -31.6054 H   0  0  0  0  0  0  0  0  0  0  0  0
   -6.9843   19.2821  -30.6380 H   0  0  0  0  0  0  0  0  0  0  0  0
  1  2  1  0
  2  3  1  0
  3  4  2  0
  4  5  1  0
  5  6  2  0
  5  7  1  0
  7  8  1  0
  8  9  1  0
  9 10  1  0
 10 11  1  0
 11 12  1  0
  4 13  1  0
 13 14  1  0
 14 15  1  0
 15 16  1  0
 16 17  1  0
 17 18  1  0
 18 19  1  0
 19 20  1  0
 20 21  1  0
 21 22  1  0
 22 23  2  0
 23 24  1  0
 24 25  2  0
 25 26  1  0
 26 27  2  0
 27 28  1  0
 28 29  2  0
 19 30  1  0
 30 31  1  0
 14  2  2  0
 31 16  1  0
 12  7  1  0
 29 21  1  0
 29 24  1  0
  1 32  1  0
  1 33  1  0
  1 34  1  0
  8 35  1  0
  8 36  1  0
  9 37  1  0
  9 38  1  0
 11 39  1  0
 11 40  1  0
 12 41  1  0
 12 42  1  0
 15 43  1  0
 15 44  1  0
 17 45  1  0
 17 46  1  0
 18 47  1  0
 18 48  1  0
 19 49  1  0
 20 50  1  0
 20 51  1  0
 25 52  1  0
 26 53  1  0
 27 54  1  0
 28 55  1  0
 30 56  1  0
 30 57  1  0
 31 58  1  0
 31 59  1  0
M  END
>  <UniqueID>  (6) 
6

>  <SMILES>  (6) 
Cc1nc(C(=O)N2CCOCC2)sc1CN1CCC(Cn2nnc3ccccc32)CC1

>  <Energy>  (6) 
145.75220787568387

>  <Genealogy>  (6) 
Cc1nc(C(=O)N2CCOCC2)sc1CN1CCC(Cn2nnc3ccccc32)CC1 (3D coordinates assigned)
Cc1nc(C(=O)N2CCOCC2)sc1CN1CCC(Cn2nnc3ccccc32)CC1 (nonaromatic ring conformer: 145.75220787568387 kcal/mol)

>  <smiles>  (6) 
Cc1nc(C(=O)N2CCOCC2)sc1CN1CCC(Cn2nnc3ccccc32)CC1

>  <score_type>  (6) 
oracle

>  <origin>  (6) 
adg

>  <m_score__min__energy>  (6) 
-10.33

>  <m_primary>  (6) 
energy

$$$$
6:0
     RDKit          3D

 70 71  0  0  0  0  0  0  0  0999 V2000
   -5.4070   25.7250  -30.5370 C   0  0  0  0  0  0  0  0  0  0  0  0
   -6.5430   25.1240  -29.7150 C   0  0  0  0  0  0  0  0  0  0  0  0
   -6.7890   23.6600  -30.0970 C   0  0  0  0  0  0  0  0  0  0  0  0
   -7.0070   23.5160  -31.6090 C   0  0  0  0  0  0  0  0  0  0  0  0
   -8.4120   23.0040  -31.9660 C   0  0  0  0  0  0  0  0  0  0  0  0
   -8.8150   21.7250  -31.2030 C   0  0  0  0  0  0  0  0  0  0  0  0
   -9.8040   20.8580  -32.0040 C   0  0  0  0  0  0  0  0  0  0  0  0
   -9.1030   19.7200  -32.7790 C   0  0  0  0  0  0  0  0  0  0  0  0
   -8.7740   18.4830  -31.9190 C   0  0  0  0  0  0  0  0  0  0  0  0
   -7.3060   18.3610  -31.4810 C   0  0  0  0  0  0  0  0  0  0  0  0
   -6.5050   17.3700  -32.3390 C   0  0  0  0  0  0  0  0  0  0  0  0
   -5.4550   18.1060  -33.1840 C   0  0  0  0  0  0  0  0  0  0  0  0
   -6.0690   19.1990  -34.0730 C   0  0  0  0  0  0  0  0  0  0  0  0
   -6.0540   20.5870  -33.4100 C   0  0  0  0  0  0  0  0  0  0  0  0
   -4.6930   21.1590  -33.4170 N   0  0  0  0  0  0  0  0  0  0  0  0
   -4.0510   21.2170  -32.0820 C   0  0  1  0  0  0  0  0  0  0  0  0
   -2.7690   20.3270  -32.0020 C   0  0  0  0  0  0  0  0  0  0  0  0
   -1.5590   21.0100  -31.3390 C   0  0  0  0  0  0  0  0  0  0  0  0
   -1.9770   21.8200  -30.1280 C   0  0  0  0  0  0  0  0  0  0  0  0
   -1.2490   21.8260  -28.9110 C   0  0  0  0  0  0  0  0  0  0  0  0
   -0.0230   20.9740  -28.7190 C   0  0  0  0  0  0  0  0  0  0  0  0
   -1.6890   22.6400  -27.8530 C   0  0  0  0  0  0  0  0  0  0  0  0
   -2.8120   23.4550  -28.0020 C   0  0  0  0  0  0  0  0  0  0  0  0
   -3.5180   23.4660  -29.2040 C   0  0  0  0  0  0  0  0  0  0  0  0
   -3.1080   22.6490  -30.2650 C   0  0  0  0  0  0  0  0  0  0  0  0
   -3.8360   22.6680  -31.5820 C   0  0  0  0  0  0  0  0  0  0  0  0
   -4.6400   26.1308  -29.8609 H   0  0  0  0  0  0  0  0  0  0  0  0
   -4.9609   24.9449  -31.1714 H   0  0  0  0  0  0  0  0  0  0  0  0
   -5.8009   26.5327  -31.1714 H   0  0  0  0  0  0  0  0  0  0  0  0
   -6.2810   25.1773  -28.6480 H   0  0  0  0  0  0  0  0  0  0  0  0
   -7.4604   25.6959  -29.9180 H   0  0  0  0  0  0  0  0  0  0  0  0
   -5.9166   23.0593  -29.8004 H   0  0  0  0  0  0  0  0  0  0  0  0
   -7.6928   23.3091  -29.5774 H   0  0  0  0  0  0  0  0  0  0  0  0
   -6.8621   24.4997  -32.0795 H   0  0  0  0  0  0  0  0  0  0  0  0
   -6.2826   22.7746  -31.9773 H   0  0  0  0  0  0  0  0  0  0  0  0
   -9.1404   23.7938  -31.7302 H   0  0  0  0  0  0  0  0  0  0  0  0
   -8.4012   22.7514  -33.0365 H   0  0  0  0  0  0  0  0  0  0  0  0
   -7.9100   21.1339  -30.9993 H   0  0  0  0  0  0  0  0  0  0  0  0
   -9.3117   22.0302  -30.2702 H   0  0  0  0  0  0  0  0  0  0  0  0
  -10.5292   20.4143  -31.3059 H   0  0  0  0  0  0  0  0  0  0  0  0
  -10.2968   21.5090  -32.7411 H   0  0  0  0  0  0  0  0  0  0  0  0
   -9.7626   19.4041  -33.6007 H   0  0  0  0  0  0  0  0  0  0  0  0
   -8.1436   20.1229  -33.1357 H   0  0  0  0  0  0  0  0  0  0  0  0
   -9.3970   18.5230  -31.0133 H   0  0  0  0  0  0  0  0  0  0  0  0
   -8.9764   17.6078  -32.5539 H   0  0  0  0  0  0  0  0  0  0  0  0
   -6.8340   19.3517  -31.5566 H   0  0  0  0  0  0  0  0  0  0  0  0
   -7.3007   17.9819  -30.4484 H   0  0  0  0  0  0  0  0  0  0  0  0
   -5.9976   16.6502  -31.6799 H   0  0  0  0  0  0  0  0  0  0  0  0
   -7.1983   16.8474  -33.0144 H   0  0  0  0  0  0  0  0  0  0  0  0
   -4.7231   18.5722  -32.5080 H   0  0  0  0  0  0  0  0  0  0  0  0
   -4.9830   17.3654  -33.8463 H   0  0  0  0  0  0  0  0  0  0  0  0
   -5.4965   19.2516  -35.0108 H   0  0  0  0  0  0  0  0  0  0  0  0
   -7.1204   18.9288  -34.2504 H   0  0  0  0  0  0  0  0  0  0  0  0
   -6.7293   21.2572  -33.9621 H   0  0  0  0  0  0  0  0  0  0  0  0
   -6.3859   20.4819  -32.3665 H   0  0  0  0  0  0  0  0  0  0  0  0
   -4.0930   20.5790  -34.0520 H   0  0  0  0  0  0  0  0  0  0  0  0
   -4.7130   22.1290  -33.8130 H   0  0  0  0  0  0  0  0  0  0  0  0
   -4.7625   20.7739  -31.3697 H   0  0  0  0  0  0  0  0  0  0  0  0
   -3.0132   19.4236  -31.4238 H   0  0  0  0  0  0  0  0  0  0  0  0
   -2.4752   20.1071  -33.0390 H   0  0  0  0  0  0  0  0  0  0  0  0
   -0.8410   20.2387  -31.0234 H   0  0  0  0  0  0  0  0  0  0  0  0
   -1.1020   21.6920  -32.0711 H   0  0  0  0  0  0  0  0  0  0  0  0
    0.1670   20.8420  -27.6436 H   0  0  0  0  0  0  0  0  0  0  0  0
   -0.1826   19.9912  -29.1865 H   0  0  0  0  0  0  0  0  0  0  0  0
    0.8425   21.4663  -29.1865 H   0  0  0  0  0  0  0  0  0  0  0  0
   -1.1428   22.6346  -26.8982 H   0  0  0  0  0  0  0  0  0  0  0  0
   -3.1415   24.0914  -27.1675 H   0  0  0  0  0  0  0  0  0  0  0  0
   -4.3974   24.1166  -29.3191 H   0  0  0  0  0  0  0  0  0  0  0  0
   -4.8121   23.1585  -31.4530 H   0  0  0  0  0  0  0  0  0  0  0  0
   -3.2381   23.2225  -32.3203 H   0  0  0  0  0  0  0  0  0  0  0  0
  1  2  1  0
  2  3  1  0
  3  4  1  0
  4  5  1  0
  5  6  1  0
  6  7  1  0
  7  8  1  0
  8  9  1  0
  9 10  1  0
 10 11  1  0
 11 12  1  0
 12 13  1  0
 13 14  1  0
 14 15  1  0
 15 16  1  0
 16 17  1  0
 17 18  1  0
 18 19  1  0
 19 20  2  0
 20 21  1  0
 20 22  1  0
 22 23  2  0
 23 24  1  0
 24 25  2  0
 25 26  1  0
 26 16  1  0
 25 19  1  0
  1 27  1  0
  1 28  1  0
  1 29  1  0
  2 30  1  0
  2 31  1  0
  3 32  1  0
  3 33  1  0
  4 34  1  0
  4 35  1  0
  5 36  1  0
  5 37  1  0
  6 38  1  0
  6 39  1  0
  7 40  1  0
  7 41  1  0
  8 42  1  0
  8 43  1  0
  9 44  1  0
  9 45  1  0
 10 46  1  0
 10 47  1  0
 11 48  1  0
 11 49  1  0
 12 50  1  0
 12 51  1  0
 13 52  1  0
 13 53  1  0
 14 54  1  0
 14 55  1  0
 15 56  1  0
 15 57  1  0
 16 58  1  1
 17 59  1  0
 17 60  1  0
 18 61  1  0
 18 62  1  0
 21 63  1  0
 21 64  1  0
 21 65  1  0
 22 66  1  0
 23 67  1  0
 24 68  1  0
 26 69  1  0
 26 70  1  0
M  CHG  1  15   1
M  END
>  <UniqueID>  (7) 
7

>  <SMILES>  (7) 
CCCCCCCCCCCCCC[NH2+][C@H]1CCc2c(C)cccc2C1

>  <Energy>  (7) 
58.6104590135413

>  <Genealogy>  (7) 
CCCCCCCCCCCCCC[NH2+]C1CCc2c(C)cccc2C1 (protonated)
CCCCCCCCCCCCCC[NH2+][C@H]1CCc2c(C)cccc2C1 (chirality)
CCCCCCCCCCCCCC[NH2+][C@H]1CCc2c(C)cccc2C1 (3D coordinates assigned)
CCCCCCCCCCCCCC[NH2+][C@H]1CCc2c(C)cccc2C1 (nonaromatic ring conformer: 58.6104590135413 kcal/mol)

>  <smiles>  (7) 
CCCCCCCCCCCCCCNC1CCc2c(C)cccc2C1

>  <score_type>  (7) 
oracle

>  <origin>  (7) 
adg

>  <m_score__min__energy>  (7) 
-7.8200000000000003

>  <m_primary>  (7) 
energy

$$$$
7:0
     RDKit          3D

 34 37  0  0  0  0  0  0  0  0999 V2000
   -1.2190   26.3590  -28.8910 O   0  0  0  0  0  0  0  0  0  0  0  0
   -1.8860   25.2930  -28.9550 C   0  0  0  0  0  0  0  0  0  0  0  0
   -3.1020   25.2960  -29.6260 O   0  0  0  0  0  0  0  0  0  0  0  0
   -1.3670   24.0500  -28.3500 C   0  0  0  0  0  0  0  0  0  0  0  0
   -0.9900   23.8290  -27.0170 C   0  0  0  0  0  0  0  0  0  0  0  0
   -0.8840   24.8230  -25.9320 C   0  0  0  0  0  0  0  0  0  0  0  0
   -1.6760   25.9780  -25.9620 C   0  0  0  0  0  0  0  0  0  0  0  0
   -1.6030   26.9040  -24.9200 C   0  0  0  0  0  0  0  0  0  0  0  0
   -0.7500   26.6570  -23.8440 C   0  0  0  0  0  0  0  0  0  0  0  0
   -0.0040   25.5200  -23.8120 N   0  0  0  0  0  0  0  0  0  0  0  0
   -0.0580   24.6040  -24.8170 C   0  0  0  0  0  0  0  0  0  0  0  0
   -0.7040   22.5520  -26.8330 O   0  0  0  0  0  0  0  0  0  0  0  0
   -0.8600   21.9350  -27.9770 C   0  0  0  0  0  0  0  0  0  0  0  0
   -0.6730   20.5820  -28.2350 C   0  0  0  0  0  0  0  0  0  0  0  0
   -0.9190   20.1170  -29.5370 C   0  0  0  0  0  0  0  0  0  0  0  0
   -1.3510   21.0040  -30.5600 C   0  0  0  0  0  0  0  0  0  0  0  0
   -1.6160   20.4910  -31.9280 C   0  0  0  0  0  0  0  0  0  0  0  0
   -2.8600   20.3350  -32.5410 C   0  0  0  0  0  0  0  0  0  0  0  0
   -2.7860   19.8270  -33.8450 C   0  0  0  0  0  0  0  0  0  0  0  0
   -1.4920   19.5780  -34.2760 C   0  0  0  0  0  0  0  0  0  0  0  0
   -0.4420   19.9920  -33.0340 S   0  0  0  0  0  0  0  0  0  0  0  0
   -1.5330   22.3760  -30.2530 C   0  0  0  0  0  0  0  0  0  0  0  0
   -1.2630   22.8080  -28.9520 C   0  0  0  0  0  0  0  0  0  0  0  0
   -2.3564   26.1555  -26.8079 H   0  0  0  0  0  0  0  0  0  0  0  0
   -2.2121   27.8196  -24.9470 H   0  0  0  0  0  0  0  0  0  0  0  0
   -0.6806   27.3828  -23.0203 H   0  0  0  0  0  0  0  0  0  0  0  0
    0.6200   25.3420  -22.9920 H   0  0  0  0  0  0  0  0  0  0  0  0
    0.5479   23.6879  -24.7560 H   0  0  0  0  0  0  0  0  0  0  0  0
   -0.3418   19.8953  -27.4421 H   0  0  0  0  0  0  0  0  0  0  0  0
   -0.7753   19.0513  -29.7684 H   0  0  0  0  0  0  0  0  0  0  0  0
   -3.8098   20.5872  -32.0468 H   0  0  0  0  0  0  0  0  0  0  0  0
   -3.6729   19.6428  -34.4691 H   0  0  0  0  0  0  0  0  0  0  0  0
   -1.2040   19.1790  -35.2598 H   0  0  0  0  0  0  0  0  0  0  0  0
   -1.8786   23.0837  -31.0209 H   0  0  0  0  0  0  0  0  0  0  0  0
  1  2  2  0
  2  3  1  0
  2  4  1  0
  4  5  2  0
  5  6  1  0
  6  7  2  0
  7  8  1  0
  8  9  2  0
  9 10  1  0
 10 11  2  0
  5 12  1  0
 12 13  1  0
 13 14  2  0
 14 15  1  0
 15 16  2  0
 16 17  1  0
 17 18  2  0
 18 19  1  0
 19 20  2  0
 20 21  1  0
 16 22  1  0
 22 23  2  0
 23  4  1  0
 11  6  1  0
 23 13  1  0
 21 17  1  0
  7 24  1  0
  8 25  1  0
  9 26  1  0
 10 27  1  0
 11 28  1  0
 14 29  1  0
 15 30  1  0
 18 31  1  0
 19 32  1  0
 20 33  1  0
 22 34  1  0
M  CHG  2   3  -1  10   1
M  END
>  <UniqueID>  (8) 
8

>  <SMILES>  (8) 
O=C([O-])c1c(-c2ccc[nH+]c2)oc2ccc(-c3cccs3)cc12

>  <Energy>  (8) 
107.91539601352011

>  <Genealogy>  (8) 
O=C([O-])c1c(-c2ccc[nH+]c2)oc2ccc(-c3cccs3)cc12 (protonated)
O=C([O-])c1c(-c2ccc[nH+]c2)oc2ccc(-c3cccs3)cc12 (3D coordinates assigned)
O=C([O-])c1c(-c2ccc[nH+]c2)oc2ccc(-c3cccs3)cc12 (optimized conformer: 107.91539601352011 kcal/mol)

>  <smiles>  (8) 
O=C(O)c1c(-c2cccnc2)oc2ccc(-c3cccs3)cc12

>  <score_type>  (8) 
oracle

>  <origin>  (8) 
adg

>  <m_score__min__energy>  (8) 
-9.8599999999999994

>  <m_primary>  (8) 
energy

$$$$
8:0
     RDKit          3D

 47 48  0  0  0  0  0  0  0  0999 V2000
   -6.0650   18.5310  -34.9350 C   0  0  0  0  0  0  0  0  0  0  0  0
   -4.7060   17.8090  -34.9810 C   0  0  0  0  0  0  0  0  0  0  0  0
   -3.8440   17.9800  -33.7750 N   0  0  0  0  0  0  0  0  0  0  0  0
   -3.7730   16.7540  -32.9350 C   0  0  0  0  0  0  0  0  0  0  0  0
   -5.1170   16.0740  -32.6570 C   0  0  0  0  0  0  0  0  0  0  0  0
   -2.5280   18.6080  -34.0760 C   0  0  0  0  0  0  0  0  0  0  0  0
   -2.3290   20.0020  -33.4520 C   0  0  0  0  0  0  0  0  0  0  0  0
   -3.4030   20.3400  -32.5840 O   0  0  0  0  0  0  0  0  0  0  0  0
   -4.5890   20.8290  -33.0880 N   0  0  0  0  0  0  0  0  0  0  0  0
   -5.5790   21.1860  -32.3230 C   0  0  0  0  0  0  0  0  0  0  0  0
   -6.7660   20.3080  -32.1830 C   0  0  0  0  0  0  0  0  0  0  0  0
   -8.0490   20.7870  -32.5090 C   0  0  0  0  0  0  0  0  0  0  0  0
   -9.1680   19.9630  -32.3620 C   0  0  0  0  0  0  0  0  0  0  0  0
   -9.0180   18.6540  -31.8950 C   0  0  0  0  0  0  0  0  0  0  0  0
   -7.7470   18.1690  -31.5730 C   0  0  0  0  0  0  0  0  0  0  0  0
   -6.6250   18.9910  -31.7130 C   0  0  0  0  0  0  0  0  0  0  0  0
   -5.4950   22.4800  -31.5930 C   0  0  0  0  0  0  0  0  0  0  0  0
   -4.2890   22.8760  -30.9790 C   0  0  0  0  0  0  0  0  0  0  0  0
   -4.2040   24.0960  -30.3020 C   0  0  0  0  0  0  0  0  0  0  0  0
   -5.3150   24.9380  -30.2320 C   0  0  0  0  0  0  0  0  0  0  0  0
   -6.5140   24.5650  -30.8420 C   0  0  0  0  0  0  0  0  0  0  0  0
   -6.6060   23.3470  -31.5220 C   0  0  0  0  0  0  0  0  0  0  0  0
   -6.3613   18.6884  -33.8874 H   0  0  0  0  0  0  0  0  0  0  0  0
   -5.9810   19.5034  -35.4424 H   0  0  0  0  0  0  0  0  0  0  0  0
   -6.8237   17.9171  -35.4424 H   0  0  0  0  0  0  0  0  0  0  0  0
   -4.8983   16.7336  -35.1099 H   0  0  0  0  0  0  0  0  0  0  0  0
   -4.1512   18.2646  -35.8145 H   0  0  0  0  0  0  0  0  0  0  0  0
   -4.3640   18.6720  -33.1850 H   0  0  0  0  0  0  0  0  0  0  0  0
   -3.1240   16.0281  -33.4468 H   0  0  0  0  0  0  0  0  0  0  0  0
   -3.3865   17.0766  -31.9569 H   0  0  0  0  0  0  0  0  0  0  0  0
   -5.2708   15.9962  -31.5706 H   0  0  0  0  0  0  0  0  0  0  0  0
   -5.9282   16.6701  -33.1004 H   0  0  0  0  0  0  0  0  0  0  0  0
   -5.1172   15.0673  -33.1004 H   0  0  0  0  0  0  0  0  0  0  0  0
   -1.7361   17.9454  -33.6967 H   0  0  0  0  0  0  0  0  0  0  0  0
   -2.4882   18.7444  -35.1668 H   0  0  0  0  0  0  0  0  0  0  0  0
   -1.3903   20.0067  -32.8785 H   0  0  0  0  0  0  0  0  0  0  0  0
   -2.2940   20.7430  -34.2642 H   0  0  0  0  0  0  0  0  0  0  0  0
   -8.1713   21.8149  -32.8812 H   0  0  0  0  0  0  0  0  0  0  0  0
  -10.1683   20.3450  -32.6141 H   0  0  0  0  0  0  0  0  0  0  0  0
   -9.8995   18.0060  -31.7810 H   0  0  0  0  0  0  0  0  0  0  0  0
   -7.6295   17.1378  -31.2085 H   0  0  0  0  0  0  0  0  0  0  0  0
   -5.6278   18.6055  -31.4543 H   0  0  0  0  0  0  0  0  0  0  0  0
   -3.4080   22.2196  -31.0332 H   0  0  0  0  0  0  0  0  0  0  0  0
   -3.2593   24.3932  -29.8233 H   0  0  0  0  0  0  0  0  0  0  0  0
   -5.2458   25.8960  -29.6959 H   0  0  0  0  0  0  0  0  0  0  0  0
   -7.3880   25.2307  -30.7875 H   0  0  0  0  0  0  0  0  0  0  0  0
   -7.5521   23.0622  -32.0056 H   0  0  0  0  0  0  0  0  0  0  0  0
  1  2  1  0
  2  3  1  0
  3  4  1  0
  4  5  1  0
  3  6  1  0
  6  7  1  0
  7  8  1  0
  8  9  1  0
  9 10  2  3
 10 11  1  0
 11 12  2  0
 12 13  1  0
 13 14  2  0
 14 15  1  0
 15 16  2  0
 10 17  1  0
 17 18  2  0
 18 19  1  0
 19 20  2  0
 20 21  1  0
 21 22  2  0
 16 11  1  0
 22 17  1  0
  1 23  1  0
  1 24  1  0
  1 25  1  0
  2 26  1  0
  2 27  1  0
  3 28  1  0
  4 29  1  0
  4 30  1  0
  5 31  1  0
  5 32  1  0
  5 33  1  0
  6 34  1  0
  6 35  1  0
  7 36  1  0
  7 37  1  0
 12 38  1  0
 13 39  1  0
 14 40  1  0
 15 41  1  0
 16 42  1  0
 18 43  1  0
 19 44  1  0
 20 45  1  0
 21 46  1  0
 22 47  1  0
M  CHG  1   3   1
M  END
>  <UniqueID>  (9) 
9

>  <SMILES>  (9) 
CC[NH+](CC)CCON=C(c1ccccc1)c1ccccc1

>  <Energy>  (9) 
59.32564085665165

>  <Genealogy>  (9) 
CC[NH+](CC)CCON=C(c1ccccc1)c1ccccc1 (protonated)
CC[NH+](CC)CCON=C(c1ccccc1)c1ccccc1 (3D coordinates assigned)
CC[NH+](CC)CCON=C(c1ccccc1)c1ccccc1 (optimized conformer: 59.32564085665165 kcal/mol)

>  <smiles>  (9) 
CCN(CC)CCON=C(c1ccccc1)c1ccccc1

>  <score_type>  (9) 
oracle

>  <origin>  (9) 
adg

>  <m_score__min__energy>  (9) 
-5.8700000000000001

>  <m_primary>  (9) 
energy

$$$$
9:0
     RDKit          3D

 43 46  0  0  0  0  0  0  0  0999 V2000
   -2.5160   19.0500  -26.4310 C   0  0  0  0  0  0  0  0  0  0  0  0
   -1.7660   19.8510  -27.3400 O   0  0  0  0  0  0  0  0  0  0  0  0
   -2.3160   20.8540  -28.1540 C   0  0  0  0  0  0  0  0  0  0  0  0
   -3.4970   21.5360  -27.8070 C   0  0  0  0  0  0  0  0  0  0  0  0
   -4.0240   22.5120  -28.6540 C   0  0  0  0  0  0  0  0  0  0  0  0
   -3.3930   22.8170  -29.8700 C   0  0  0  0  0  0  0  0  0  0  0  0
   -4.0010   23.8030  -30.7920 C   0  0  0  0  0  0  0  0  0  0  0  0
   -3.8690   25.0330  -30.5510 O   0  0  0  0  0  0  0  0  0  0  0  0
   -4.7210   23.4090  -31.9690 N   0  0  0  0  0  0  0  0  0  0  0  0
   -5.4000   22.1610  -32.1760 C   0  0  0  0  0  0  0  0  0  0  0  0
   -4.8720   20.9470  -32.6260 C   0  0  0  0  0  0  0  0  0  0  0  0
   -3.4570   20.6020  -32.8630 C   0  0  0  0  0  0  0  0  0  0  0  0
   -2.5720   21.5380  -33.4240 C   0  0  0  0  0  0  0  0  0  0  0  0
   -1.2400   21.1890  -33.6660 C   0  0  0  0  0  0  0  0  0  0  0  0
   -0.7810   19.9090  -33.3440 C   0  0  0  0  0  0  0  0  0  0  0  0
   -1.6510   18.9780  -32.7690 C   0  0  0  0  0  0  0  0  0  0  0  0
   -2.9830   19.3250  -32.5210 C   0  0  0  0  0  0  0  0  0  0  0  0
   -5.8890   20.0640  -32.7710 N   0  0  0  0  0  0  0  0  0  0  0  0
   -6.9930   20.7380  -32.3920 C   0  0  0  0  0  0  0  0  0  0  0  0
   -8.2960   20.2440  -32.3690 C   0  0  0  0  0  0  0  0  0  0  0  0
   -9.3140   21.1170  -31.9530 C   0  0  0  0  0  0  0  0  0  0  0  0
   -9.0110   22.4410  -31.5800 C   0  0  0  0  0  0  0  0  0  0  0  0
   -7.6800   22.8840  -31.6240 C   0  0  0  0  0  0  0  0  0  0  0  0
   -6.7260   22.0030  -32.0240 N   0  0  0  0  0  0  0  0  0  0  0  0
   -2.1950   22.1630  -30.1990 C   0  0  0  0  0  0  0  0  0  0  0  0
   -1.6660   21.1830  -29.3520 C   0  0  0  0  0  0  0  0  0  0  0  0
   -0.1850   20.3600  -29.8180 Cl  0  0  0  0  0  0  0  0  0  0  0  0
   -2.2568   19.3268  -25.3984 H   0  0  0  0  0  0  0  0  0  0  0  0
   -3.5907   19.2163  -26.5964 H   0  0  0  0  0  0  0  0  0  0  0  0
   -2.2795   17.9885  -26.5964 H   0  0  0  0  0  0  0  0  0  0  0  0
   -4.0080   21.2984  -26.8623 H   0  0  0  0  0  0  0  0  0  0  0  0
   -4.9413   23.0465  -28.3662 H   0  0  0  0  0  0  0  0  0  0  0  0
   -2.9282   22.5484  -33.6735 H   0  0  0  0  0  0  0  0  0  0  0  0
   -0.5521   21.9232  -34.1106 H   0  0  0  0  0  0  0  0  0  0  0  0
    0.2653   19.6339  -33.5431 H   0  0  0  0  0  0  0  0  0  0  0  0
   -1.2878   17.9721  -32.5115 H   0  0  0  0  0  0  0  0  0  0  0  0
   -3.6620   18.5949  -32.0563 H   0  0  0  0  0  0  0  0  0  0  0  0
   -5.8290   19.0680  -33.0800 H   0  0  0  0  0  0  0  0  0  0  0  0
   -8.5187   19.2085  -32.6658 H   0  0  0  0  0  0  0  0  0  0  0  0
  -10.3554   20.7645  -31.9182 H   0  0  0  0  0  0  0  0  0  0  0  0
   -9.8115   23.1226  -31.2567 H   0  0  0  0  0  0  0  0  0  0  0  0
   -7.4168   23.9144  -31.3429 H   0  0  0  0  0  0  0  0  0  0  0  0
   -1.6686   22.4229  -31.1292 H   0  0  0  0  0  0  0  0  0  0  0  0
  1  2  1  0
  2  3  1  0
  3  4  2  0
  4  5  1  0
  5  6  2  0
  6  7  1  0
  7  8  2  0
  7  9  1  0
  9 10  1  0
 10 11  2  0
 11 12  1  0
 12 13  2  0
 13 14  1  0
 14 15  2  0
 15 16  1  0
 16 17  2  0
 11 18  1  0
 18 19  2  0
 19 20  1  0
 20 21  2  0
 21 22  1  0
 22 23  2  0
 23 24  1  0
  6 25  1  0
 25 26  2  0
 26 27  1  0
 26  3  1  0
 24 10  1  0
 17 12  1  0
 24 19  1  0
  1 28  1  0
  1 29  1  0
  1 30  1  0
  4 31  1  0
  5 32  1  0
 13 33  1  0
 14 34  1  0
 15 35  1  0
 16 36  1  0
 17 37  1  0
 18 38  1  0
 20 39  1  0
 21 40  1  0
 22 41  1  0
 23 42  1  0
 25 43  1  0
M  CHG  2   9  -1  18   1
M  END
>  <UniqueID>  (10) 
10

>  <SMILES>  (10) 
COc1ccc(C(=O)[N-]c2c(-c3ccccc3)[nH+]c3ccccn23)cc1Cl

>  <Energy>  (10) 
92.84687286945524

>  <Genealogy>  (10) 
COc1ccc(C(=O)[N-]c2c(-c3ccccc3)[nH+]c3ccccn23)cc1Cl (protonated)
COc1ccc(C(=O)[N-]c2c(-c3ccccc3)[nH+]c3ccccn23)cc1Cl (3D coordinates assigned)
COc1ccc(C(=O)[N-]c2c(-c3ccccc3)[nH+]c3ccccn23)cc1Cl (optimized conformer: 92.84687286945524 kcal/mol)

>  <smiles>  (10) 
COc1ccc(C(=O)Nc2c(-c3ccccc3)nc3ccccn23)cc1Cl

>  <score_type>  (10) 
oracle

>  <origin>  (10) 
adg

>  <m_score__min__energy>  (10) 
-8.9100000000000001

>  <m_primary>  (10) 
energy

$$$$
10:0
     RDKit          3D

 47 49  0  0  0  0  0  0  0  0999 V2000
   -4.6850   26.4480  -29.8100 H   0  0  0  0  0  0  0  0  0  0  0  0
   -5.3590   25.9700  -30.4500 N   0  0  0  0  0  0  0  0  0  0  0  0
   -5.0950   24.8130  -30.9660 C   0  0  0  0  0  0  0  0  0  0  0  0
   -3.9130   24.1960  -30.7040 N   0  0  0  0  0  0  0  0  0  0  0  0
   -3.6190   22.9800  -31.2330 C   0  0  0  0  0  0  0  0  0  0  0  0
   -2.6563   22.4975  -31.0083 H   0  0  0  0  0  0  0  0  0  0  0  0
   -4.5500   22.3420  -32.0680 C   0  0  0  0  0  0  0  0  0  0  0  0
   -4.2500   21.0230  -32.6740 C   0  0  0  0  0  0  0  0  0  0  0  0
   -2.9820   20.4450  -32.4910 C   0  0  0  0  0  0  0  0  0  0  0  0
   -2.2219   20.9740  -31.8973 H   0  0  0  0  0  0  0  0  0  0  0  0
   -2.6790   19.2040  -33.0570 C   0  0  0  0  0  0  0  0  0  0  0  0
   -1.6865   18.7566  -32.8995 H   0  0  0  0  0  0  0  0  0  0  0  0
   -3.6370   18.5280  -33.8250 C   0  0  0  0  0  0  0  0  0  0  0  0
   -3.3200   17.2150  -34.4150 C   0  0  0  0  0  0  0  0  0  0  0  0
   -2.0430   17.0350  -34.9700 C   0  0  0  0  0  0  0  0  0  0  0  0
   -1.3052   17.8489  -34.9133 H   0  0  0  0  0  0  0  0  0  0  0  0
   -1.7000   15.8340  -35.5930 C   0  0  0  0  0  0  0  0  0  0  0  0
   -0.4640   15.6790  -36.1300 F   0  0  0  0  0  0  0  0  0  0  0  0
   -2.6320   14.7990  -35.6730 C   0  0  0  0  0  0  0  0  0  0  0  0
   -2.3040   13.6350  -36.2840 F   0  0  0  0  0  0  0  0  0  0  0  0
   -3.9020   14.9580  -35.1150 C   0  0  0  0  0  0  0  0  0  0  0  0
   -4.6322   14.1382  -35.1844 H   0  0  0  0  0  0  0  0  0  0  0  0
   -4.2590   16.1520  -34.4660 C   0  0  0  0  0  0  0  0  0  0  0  0
   -5.8690   16.2260  -33.7190 S   0  0  0  0  0  0  0  0  0  0  0  0
   -6.7590   17.2420  -34.3780 O   0  0  0  0  0  0  0  0  0  0  0  0
   -6.5160   14.8770  -33.8430 O   0  0  0  0  0  0  0  0  0  0  0  0
   -5.7410   16.6540  -31.9820 C   0  0  0  0  0  0  0  0  0  0  0  0
   -6.1489   15.8230  -31.3878 H   0  0  0  0  0  0  0  0  0  0  0  0
   -4.6767   16.8350  -31.7713 H   0  0  0  0  0  0  0  0  0  0  0  0
   -6.5010   17.9390  -31.6080 C   0  0  0  0  0  0  0  0  0  0  0  0
   -6.4041   18.0892  -30.5226 H   0  0  0  0  0  0  0  0  0  0  0  0
   -6.0500   18.7471  -32.2026 H   0  0  0  0  0  0  0  0  0  0  0  0
   -7.9990   17.9330  -31.9570 C   0  0  0  0  0  0  0  0  0  0  0  0
   -8.1351   17.3967  -32.9077 H   0  0  0  0  0  0  0  0  0  0  0  0
   -8.5276   17.4403  -31.1277 H   0  0  0  0  0  0  0  0  0  0  0  0
   -8.5850   19.3370  -32.1020 C   0  0  0  0  0  0  0  0  0  0  0  0
   -8.7635   19.7647  -31.1044 H   0  0  0  0  0  0  0  0  0  0  0  0
   -7.8778   19.9744  -32.6530 H   0  0  0  0  0  0  0  0  0  0  0  0
   -9.5355   19.2825  -32.6530 H   0  0  0  0  0  0  0  0  0  0  0  0
   -4.9070   19.0910  -34.0020 C   0  0  0  0  0  0  0  0  0  0  0  0
   -5.6679   18.5530  -34.5865 H   0  0  0  0  0  0  0  0  0  0  0  0
   -5.2120   20.3340  -33.4390 C   0  0  0  0  0  0  0  0  0  0  0  0
   -6.4340   20.8780  -33.6740 F   0  0  0  0  0  0  0  0  0  0  0  0
   -5.7330   22.9710  -32.3360 N   0  0  0  0  0  0  0  0  0  0  0  0
   -6.4460   22.5130  -32.9480 H   0  0  0  0  0  0  0  0  0  0  0  0
   -6.0240   24.1870  -31.8010 C   0  0  0  0  0  0  0  0  0  0  0  0
   -6.9845   24.6745  -32.0242 H   0  0  0  0  0  0  0  0  0  0  0  0
  1  2  1  0
  2  3  2  0
  3  4  1  0
  4  5  1  0
  5  6  1  0
  5  7  2  0
  7  8  1  0
  8  9  2  0
  9 10  1  0
  9 11  1  0
 11 12  1  0
 11 13  2  0
 13 14  1  0
 14 15  2  0
 15 16  1  0
 15 17  1  0
 17 18  1  0
 17 19  2  0
 19 20  1  0
 19 21  1  0
 21 22  1  0
 21 23  2  0
 23 24  1  0
 24 25  2  0
 24 26  2  0
 24 27  1  0
 27 28  1  0
 27 29  1  0
 27 30  1  0
 30 31  1  0
 30 32  1  0
 30 33  1  0
 33 34  1  0
 33 35  1  0
 33 36  1  0
 36 37  1  0
 36 38  1  0
 36 39  1  0
 13 40  1  0
 40 41  1  0
 40 42  2  0
 42 43  1  0
  7 44  1  0
 44 45  1  0
 44 46  2  0
 46 47  1  0
 46  3  1  0
 42  8  1  0
 23 14  1  0
M  CHG  2   4  -1  44   1
M  END
>  <UniqueID>  (11) 
11

>  <SMILES>  (11) 
[H]/N=c1/c[nH+]c(-c2ccc(-c3cc(F)c(F)cc3S(=O)(=O)CCCC)cc2F)c[n-]1

>  <Energy>  (11) 
58.10718978652685

>  <Genealogy>  (11) 
CCCCS(=O)(=O)c1cc(F)c(F)cc1-c1ccc(-c2c[n-]c(=N)c[nH+]2)c(F)c1 (protonated)
[H]/N=c1/c[nH+]c(-c2ccc(-c3cc(F)c(F)cc3S(=O)(=O)CCCC)cc2F)c[n-]1 (cis-trans isomerization)
[H]/N=c1/c[nH+]c(-c2ccc(-c3cc(F)c(F)cc3S(=O)(=O)CCCC)cc2F)c[n-]1 (3D coordinates assigned)
[H]/N=c1/c[nH+]c(-c2ccc(-c3cc(F)c(F)cc3S(=O)(=O)CCCC)cc2F)c[n-]1 (optimized conformer: 58.10718978652685 kcal/mol)

>  <smiles>  (11) 
CCCCS(=O)(=O)c1cc(F)c(F)cc1-c1ccc(-c2c[nH]c(=N)cn2)c(F)c1

>  <score_type>  (11) 
oracle

>  <origin>  (11) 
adg

>  <m_score__min__energy>  (11) 
-8.1600000000000001

>  <m_primary>  (11) 
energy

$$$$
11:0
     RDKit          3D

 41 43  0  0  0  0  0  0  0  0999 V2000
    0.4650   21.1840  -34.8440 C   0  0  0  0  0  0  0  0  0  0  0  0
    0.2350   19.9870  -33.9290 C   0  0  0  0  0  0  0  0  0  0  0  0
   -1.1640   19.4710  -34.0740 C   0  0  0  0  0  0  0  0  0  0  0  0
   -1.4830   18.3510  -34.7520 N   0  0  0  0  0  0  0  0  0  0  0  0
   -2.7880   18.1620  -34.6240 N   0  0  0  0  0  0  0  0  0  0  0  0
   -3.4930   17.0480  -35.2470 C   0  0  0  0  0  0  0  0  0  0  0  0
   -3.3120   19.1310  -33.8410 C   0  0  0  0  0  0  0  0  0  0  0  0
   -4.7290   19.2690  -33.4590 C   0  0  0  0  0  0  0  0  0  0  0  0
   -5.3630   20.4660  -33.4630 N   0  0  0  0  0  0  0  0  0  0  0  0
   -6.5640   20.2100  -32.9210 C   0  0  0  0  0  0  0  0  0  0  0  0
   -7.5880   21.1110  -32.6430 C   0  0  0  0  0  0  0  0  0  0  0  0
   -8.7460   20.6170  -32.0030 C   0  0  0  0  0  0  0  0  0  0  0  0
   -9.8630   21.5520  -31.6470 C   0  0  0  0  0  0  0  0  0  0  0  0
   -8.8150   19.2510  -31.6270 C   0  0  0  0  0  0  0  0  0  0  0  0
   -7.7550   18.3720  -31.9140 C   0  0  0  0  0  0  0  0  0  0  0  0
   -6.6450   18.8880  -32.5870 C   0  0  0  0  0  0  0  0  0  0  0  0
   -5.4930   18.2720  -32.9290 N   0  0  0  0  0  0  0  0  0  0  0  0
   -5.1090   16.8830  -32.6520 C   0  0  0  0  0  0  0  0  0  0  0  0
   -5.9590   15.9080  -33.4630 C   0  0  0  0  0  0  0  0  0  0  0  0
   -2.2980   19.9950  -33.4820 C   0  0  0  0  0  0  0  0  0  0  0  0
   -2.4160   21.4110  -32.4490 Cl  0  0  0  0  0  0  0  0  0  0  0  0
    0.6378   22.0834  -34.2347 H   0  0  0  0  0  0  0  0  0  0  0  0
    1.3436   20.9968  -35.4788 H   0  0  0  0  0  0  0  0  0  0  0  0
   -0.4204   21.3357  -35.4788 H   0  0  0  0  0  0  0  0  0  0  0  0
    0.9437   19.1885  -34.1939 H   0  0  0  0  0  0  0  0  0  0  0  0
    0.3890   20.3036  -32.8869 H   0  0  0  0  0  0  0  0  0  0  0  0
   -3.9072   16.3934  -34.4660 H   0  0  0  0  0  0  0  0  0  0  0  0
   -4.3107   17.4354  -35.8725 H   0  0  0  0  0  0  0  0  0  0  0  0
   -2.7929   16.4748  -35.8725 H   0  0  0  0  0  0  0  0  0  0  0  0
   -4.9880   21.3900  -33.7740 H   0  0  0  0  0  0  0  0  0  0  0  0
   -7.4982   22.1735  -32.9131 H   0  0  0  0  0  0  0  0  0  0  0  0
   -9.9473   21.6226  -30.5525 H   0  0  0  0  0  0  0  0  0  0  0  0
   -9.6540   22.5484  -32.0637 H   0  0  0  0  0  0  0  0  0  0  0  0
  -10.8070   21.1709  -32.0637 H   0  0  0  0  0  0  0  0  0  0  0  0
   -9.7073   18.8749  -31.1052 H   0  0  0  0  0  0  0  0  0  0  0  0
   -7.7987   17.3134  -31.6183 H   0  0  0  0  0  0  0  0  0  0  0  0
   -4.0504   16.7430  -32.9161 H   0  0  0  0  0  0  0  0  0  0  0  0
   -5.2694   16.6818  -31.5825 H   0  0  0  0  0  0  0  0  0  0  0  0
   -6.5252   15.2586  -32.7791 H   0  0  0  0  0  0  0  0  0  0  0  0
   -6.6591   16.4717  -34.0971 H   0  0  0  0  0  0  0  0  0  0  0  0
   -5.3051   15.2913  -34.0971 H   0  0  0  0  0  0  0  0  0  0  0  0
  1  2  1  0
  2  3  1  0
  3  4  2  0
  4  5  1  0
  5  6  1  0
  5  7  1  0
  7  8  1  0
  8  9  2  0
  9 10  1  0
 10 11  2  0
 11 12  1  0
 12 13  1  0
 12 14  2  0
 14 15  1  0
 15 16  2  0
 16 17  1  0
 17 18  1  0
 18 19  1  0
  7 20  2  0
 20 21  1  0
 20  3  1  0
 17  8  1  0
 16 10  1  0
  1 22  1  0
  1 23  1  0
  1 24  1  0
  2 25  1  0
  2 26  1  0
  6 27  1  0
  6 28  1  0
  6 29  1  0
  9 30  1  0
 11 31  1  0
 13 32  1  0
 13 33  1  0
 13 34  1  0
 14 35  1  0
 15 36  1  0
 18 37  1  0
 18 38  1  0
 19 39  1  0
 19 40  1  0
 19 41  1  0
M  CHG  1   9   1
M  END
>  <UniqueID>  (12) 
12

>  <SMILES>  (12) 
CCc1nn(C)c(-c2[nH+]c3cc(C)ccc3n2CC)c1Cl

>  <Energy>  (12) 
110.44902220059454

>  <Genealogy>  (12) 
CCc1nn(C)c(-c2[nH+]c3cc(C)ccc3n2CC)c1Cl (protonated)
CCc1nn(C)c(-c2[nH+]c3cc(C)ccc3n2CC)c1Cl (3D coordinates assigned)
CCc1nn(C)c(-c2[nH+]c3cc(C)ccc3n2CC)c1Cl (optimized conformer: 110.44902220059454 kcal/mol)

>  <smiles>  (12) 
CCc1nn(C)c(-c2nc3cc(C)ccc3n2CC)c1Cl

>  <score_type>  (12) 
oracle

>  <origin>  (12) 
adg

>  <m_score__min__energy>  (12) 
-6.8700000000000001

>  <m_primary>  (12) 
energy

$$$$
12:0
     RDKit          3D

 36 37  0  0  0  0  0  0  0  0999 V2000
   -6.3910   17.4310  -31.6010 C   0  0  0  0  0  0  0  0  0  0  0  0
   -6.7990   18.4450  -32.5870 N   0  0  0  0  0  0  0  0  0  0  0  0
   -6.1500   18.2170  -33.8860 C   0  0  0  0  0  0  0  0  0  0  0  0
   -8.2680   18.6050  -32.6820 C   0  0  0  0  0  0  0  0  0  0  0  0
   -8.7900   20.0340  -32.4000 C   0  0  0  0  0  0  0  0  0  0  0  0
   -7.7500   20.8980  -31.8390 N   0  0  0  0  0  0  0  0  0  0  0  0
   -8.0070   22.2800  -31.5480 C   0  0  0  0  0  0  0  0  0  0  0  0
   -9.1840   22.7290  -31.6330 O   0  0  0  0  0  0  0  0  0  0  0  0
   -6.9170   23.1830  -31.1120 C   0  0  0  0  0  0  0  0  0  0  0  0
   -7.2350   24.3750  -30.4370 C   0  0  0  0  0  0  0  0  0  0  0  0
   -6.2240   25.2450  -30.0140 C   0  0  0  0  0  0  0  0  0  0  0  0
   -4.8840   24.9350  -30.2580 C   0  0  0  0  0  0  0  0  0  0  0  0
   -4.5540   23.7600  -30.9330 C   0  0  0  0  0  0  0  0  0  0  0  0
   -5.5640   22.8980  -31.3880 C   0  0  0  0  0  0  0  0  0  0  0  0
   -5.1930   21.7720  -32.1360 O   0  0  0  0  0  0  0  0  0  0  0  0
   -3.8700   21.6220  -32.6540 C   0  0  0  0  0  0  0  0  0  0  0  0
   -2.8440   22.1300  -31.6340 C   0  0  0  0  0  0  0  0  0  0  0  0
   -3.2150   23.4320  -31.1730 O   0  0  0  0  0  0  0  0  0  0  0  0
   -6.5487   17.8229  -30.5853 H   0  0  0  0  0  0  0  0  0  0  0  0
   -6.9929   16.5209  -31.7404 H   0  0  0  0  0  0  0  0  0  0  0  0
   -5.3265   17.1915  -31.7404 H   0  0  0  0  0  0  0  0  0  0  0  0
   -5.1234   17.8563  -33.7247 H   0  0  0  0  0  0  0  0  0  0  0  0
   -6.7182   17.4646  -34.4527 H   0  0  0  0  0  0  0  0  0  0  0  0
   -6.1228   19.1594  -34.4527 H   0  0  0  0  0  0  0  0  0  0  0  0
   -8.5767   18.3236  -33.6996 H   0  0  0  0  0  0  0  0  0  0  0  0
   -8.6984   17.9609  -31.9010 H   0  0  0  0  0  0  0  0  0  0  0  0
   -9.1466   20.4741  -33.3429 H   0  0  0  0  0  0  0  0  0  0  0  0
   -9.6029   19.9590  -31.6628 H   0  0  0  0  0  0  0  0  0  0  0  0
   -6.8260   20.4920  -31.5680 H   0  0  0  0  0  0  0  0  0  0  0  0
   -8.2878   24.6257  -30.2398 H   0  0  0  0  0  0  0  0  0  0  0  0
   -6.4851   26.1752  -29.4881 H   0  0  0  0  0  0  0  0  0  0  0  0
   -4.0903   25.6166  -29.9183 H   0  0  0  0  0  0  0  0  0  0  0  0
   -3.6795   20.5590  -32.8631 H   0  0  0  0  0  0  0  0  0  0  0  0
   -3.7774   22.2081  -33.5802 H   0  0  0  0  0  0  0  0  0  0  0  0
   -2.8066   21.4382  -30.7796 H   0  0  0  0  0  0  0  0  0  0  0  0
   -1.8555   22.1851  -32.1134 H   0  0  0  0  0  0  0  0  0  0  0  0
  1  2  1  0
  2  3  1  0
  2  4  1  0
  4  5  1  0
  5  6  1  0
  6  7  1  0
  7  8  2  0
  7  9  1  0
  9 10  2  0
 10 11  1  0
 11 12  2  0
 12 13  1  0
 13 14  2  0
 14 15  1  0
 15 16  1  0
 16 17  1  0
 17 18  1  0
 14  9  1  0
 18 13  1  0
  1 19  1  0
  1 20  1  0
  1 21  1  0
  3 22  1  0
  3 23  1  0
  3 24  1  0
  4 25  1  0
  4 26  1  0
  5 27  1  0
  5 28  1  0
  6 29  1  0
 10 30  1  0
 11 31  1  0
 12 32  1  0
 16 33  1  0
 16 34  1  0
 17 35  1  0
 17 36  1  0
M  END
>  <UniqueID>  (13) 
13

>  <SMILES>  (13) 
CN(C)CCNC(=O)c1cccc2c1OCCO2

>  <Energy>  (13) 
40.02002149494407

>  <Genealogy>  (13) 
CN(C)CCNC(=O)c1cccc2c1OCCO2 (3D coordinates assigned)
CN(C)CCNC(=O)c1cccc2c1OCCO2 (nonaromatic ring conformer: 40.02002149494407 kcal/mol)

>  <smiles>  (13) 
CN(C)CCNC(=O)c1cccc2c1OCCO2

>  <score_type>  (13) 
oracle

>  <origin>  (13) 
adg

>  <m_score__min__energy>  (13) 
-5.9100000000000001

>  <m_primary>  (13) 
energy

$$$$
13:0
     RDKit          3D

 28 28  0  0  0  0  0  0  0  0999 V2000
   -5.6510   26.0510  -30.1960 C   0  0  0  0  0  0  0  0  0  0  0  0
   -4.2840   25.6670  -30.5540 N   0  0  0  0  0  0  0  0  0  0  0  0
   -3.8350   24.4630  -29.8300 C   0  0  0  0  0  0  0  0  0  0  0  0
   -4.4340   23.1640  -30.4000 C   0  0  0  0  0  0  0  0  0  0  0  0
   -4.9650   23.3770  -31.7650 N   0  0  0  0  0  0  0  0  0  0  0  0
   -6.4380   23.5870  -31.7910 C   0  0  0  0  0  0  0  0  0  0  0  0
   -7.2380   22.3850  -32.3390 C   0  0  0  0  0  0  0  0  0  0  0  0
   -6.5940   21.0620  -31.9290 C   0  0  0  0  0  0  0  0  0  0  0  0
   -5.1370   20.9630  -32.4160 C   0  0  0  0  0  0  0  0  0  0  0  0
   -4.5110   22.3390  -32.7140 C   0  0  0  0  0  0  0  0  0  0  0  0
   -5.7492   26.0786  -29.1007 H   0  0  0  0  0  0  0  0  0  0  0  0
   -5.8724   27.0461  -30.6092 H   0  0  0  0  0  0  0  0  0  0  0  0
   -6.3582   25.3168  -30.6092 H   0  0  0  0  0  0  0  0  0  0  0  0
   -4.2370   25.5180  -31.5890 H   0  0  0  0  0  0  0  0  0  0  0  0
   -2.7386   24.4024  -29.8954 H   0  0  0  0  0  0  0  0  0  0  0  0
   -4.1780   24.5562  -28.7890 H   0  0  0  0  0  0  0  0  0  0  0  0
   -3.6508   22.3924  -30.4354 H   0  0  0  0  0  0  0  0  0  0  0  0
   -5.2612   22.8452  -29.7488 H   0  0  0  0  0  0  0  0  0  0  0  0
   -6.7763   23.7873  -30.7637 H   0  0  0  0  0  0  0  0  0  0  0  0
   -6.6257   24.4296  -32.4728 H   0  0  0  0  0  0  0  0  0  0  0  0
   -8.2627   22.4242  -31.9410 H   0  0  0  0  0  0  0  0  0  0  0  0
   -7.2470   22.4432  -33.4374 H   0  0  0  0  0  0  0  0  0  0  0  0
   -6.6093   20.9829  -30.8320 H   0  0  0  0  0  0  0  0  0  0  0  0
   -7.1664   20.2442  -32.3912 H   0  0  0  0  0  0  0  0  0  0  0  0
   -4.5394   20.4665  -31.6374 H   0  0  0  0  0  0  0  0  0  0  0  0
   -5.1405   20.3909  -33.3555 H   0  0  0  0  0  0  0  0  0  0  0  0
   -3.4165   22.2521  -32.6468 H   0  0  0  0  0  0  0  0  0  0  0  0
   -4.8277   22.6424  -33.7228 H   0  0  0  0  0  0  0  0  0  0  0  0
  1  2  1  0
  2  3  1  0
  3  4  1  0
  4  5  1  0
  5  6  1  0
  6  7  1  0
  7  8  1  0
  8  9  1  0
  9 10  1  0
 10  5  1  0
  1 11  1  0
  1 12  1  0
  1 13  1  0
  2 14  1  0
  3 15  1  0
  3 16  1  0
  4 17  1  0
  4 18  1  0
  6 19  1  0
  6 20  1  0
  7 21  1  0
  7 22  1  0
  8 23  1  0
  8 24  1  0
  9 25  1  0
  9 26  1  0
 10 27  1  0
 10 28  1  0
M  END
>  <UniqueID>  (14) 
14

>  <SMILES>  (14) 
CNCCN1CCCCC1

>  <Energy>  (14) 
32.04034001543163

>  <Genealogy>  (14) 
CNCCN1CCCCC1 (3D coordinates assigned)
CNCCN1CCCCC1 (nonaromatic ring conformer: 32.04034001543163 kcal/mol)

>  <smiles>  (14) 
CNCCN1CCCCC1

>  <score_type>  (14) 
oracle

>  <origin>  (14) 
adg

>  <m_score__min__energy>  (14) 
-4.9000000000000004

>  <m_primary>  (14) 
energy

$$$$
14:0
     RDKit          3D

 56 60  0  0  0  0  0  0  0  0999 V2000
   -3.1970   14.5040  -35.8280 C   0  0  0  0  0  0  0  0  0  0  0  0
   -3.6560   15.8610  -35.5000 N   0  0  0  0  0  0  0  0  0  0  0  0
   -2.5670   16.7250  -35.0070 C   0  0  0  0  0  0  0  0  0  0  0  0
   -3.1550   17.5430  -33.8470 C   0  0  1  0  0  0  0  0  0  0  0  0
   -2.6280   18.9630  -33.6260 C   0  0  0  0  0  0  0  0  0  0  0  0
   -1.4950   19.2140  -34.1420 O   0  0  0  0  0  0  0  0  0  0  0  0
   -3.2740   20.0770  -32.8530 C   0  0  0  0  0  0  0  0  0  0  0  0
   -3.5830   21.2710  -33.5530 C   0  0  0  0  0  0  0  0  0  0  0  0
   -4.2100   22.3410  -32.9140 C   0  0  0  0  0  0  0  0  0  0  0  0
   -4.5630   22.2610  -31.5560 C   0  0  0  0  0  0  0  0  0  0  0  0
   -5.2190   23.3580  -30.8890 N   0  0  0  0  0  0  0  0  0  0  0  0
   -6.4710   23.4280  -30.3970 C   0  0  0  0  0  0  0  0  0  0  0  0
   -6.6840   24.6370  -29.8480 N   0  0  0  0  0  0  0  0  0  0  0  0
   -5.5430   25.2880  -30.0260 N   0  0  0  0  0  0  0  0  0  0  0  0
   -4.6570   24.5290  -30.6490 N   0  0  0  0  0  0  0  0  0  0  0  0
   -4.2530   21.0830  -30.8490 C   0  0  0  0  0  0  0  0  0  0  0  0
   -3.6240   20.0070  -31.4920 C   0  0  0  0  0  0  0  0  0  0  0  0
   -4.6920   17.2700  -33.8410 C   0  0  0  0  0  0  0  0  0  0  0  0
   -5.5300   18.2150  -34.7570 C   0  0  0  0  0  0  0  0  0  0  0  0
   -6.0720   19.4380  -34.0210 C   0  0  0  0  0  0  0  0  0  0  0  0
   -6.9110   19.0500  -32.8660 N   0  0  0  0  0  0  0  0  0  0  0  0
   -7.6800   20.0170  -32.0910 C   0  0  0  0  0  0  0  0  0  0  0  0
   -7.7160   19.8920  -30.8320 O   0  0  0  0  0  0  0  0  0  0  0  0
   -8.5710   21.1240  -32.6400 C   0  0  0  0  0  0  0  0  0  0  0  0
   -9.0560   22.2090  -31.6890 C   0  0  0  0  0  0  0  0  0  0  0  0
  -10.0350   21.1550  -32.2320 C   0  0  0  0  0  0  0  0  0  0  0  0
   -6.7300   17.6890  -32.3200 C   0  0  0  0  0  0  0  0  0  0  0  0
   -5.2560   17.2700  -32.3830 C   0  0  0  0  0  0  0  0  0  0  0  0
   -4.6930   15.8510  -34.4540 C   0  0  0  0  0  0  0  0  0  0  0  0
   -3.0083   13.9462  -34.8989 H   0  0  0  0  0  0  0  0  0  0  0  0
   -3.9704   13.9873  -36.4153 H   0  0  0  0  0  0  0  0  0  0  0  0
   -2.2688   14.5628  -36.4153 H   0  0  0  0  0  0  0  0  0  0  0  0
   -1.7256   16.1117  -34.6521 H   0  0  0  0  0  0  0  0  0  0  0  0
   -2.1852   17.3800  -35.8040 H   0  0  0  0  0  0  0  0  0  0  0  0
   -2.7474   17.1942  -32.8867 H   0  0  0  0  0  0  0  0  0  0  0  0
   -3.3237   21.3550  -34.6187 H   0  0  0  0  0  0  0  0  0  0  0  0
   -4.4307   23.2582  -33.4798 H   0  0  0  0  0  0  0  0  0  0  0  0
   -7.2110   22.6151  -30.4383 H   0  0  0  0  0  0  0  0  0  0  0  0
   -5.3720   26.2720  -29.7170 H   0  0  0  0  0  0  0  0  0  0  0  0
   -4.5069   21.0061  -29.7815 H   0  0  0  0  0  0  0  0  0  0  0  0
   -3.4005   19.0928  -30.9226 H   0  0  0  0  0  0  0  0  0  0  0  0
   -4.8905   18.5588  -35.5833 H   0  0  0  0  0  0  0  0  0  0  0  0
   -6.3953   17.6393  -35.1173 H   0  0  0  0  0  0  0  0  0  0  0  0
   -5.2261   20.0421  -33.6610 H   0  0  0  0  0  0  0  0  0  0  0  0
   -6.6951   20.0133  -34.7215 H   0  0  0  0  0  0  0  0  0  0  0  0
   -8.0366   21.1190  -33.6014 H   0  0  0  0  0  0  0  0  0  0  0  0
   -8.7557   22.1891  -30.6310 H   0  0  0  0  0  0  0  0  0  0  0  0
   -9.0210   23.3084  -31.6765 H   0  0  0  0  0  0  0  0  0  0  0  0
  -10.4368   20.3799  -31.5628 H   0  0  0  0  0  0  0  0  0  0  0  0
  -10.9938   21.1857  -32.7703 H   0  0  0  0  0  0  0  0  0  0  0  0
   -7.0653   17.6729  -31.2725 H   0  0  0  0  0  0  0  0  0  0  0  0
   -7.3233   16.9851  -32.9221 H   0  0  0  0  0  0  0  0  0  0  0  0
   -4.6643   17.9714  -31.7765 H   0  0  0  0  0  0  0  0  0  0  0  0
   -5.1856   16.2416  -31.9989 H   0  0  0  0  0  0  0  0  0  0  0  0
   -4.4531   15.1020  -33.6849 H   0  0  0  0  0  0  0  0  0  0  0  0
   -5.6790   15.5903  -34.8661 H   0  0  0  0  0  0  0  0  0  0  0  0
  1  2  1  0
  2  3  1  0
  3  4  1  0
  4  5  1  0
  5  6  2  0
  5  7  1  0
  7  8  2  0
  8  9  1  0
  9 10  2  0
 10 11  1  0
 11 12  1  0
 12 13  2  0
 13 14  1  0
 14 15  2  0
 10 16  1  0
 16 17  2  0
  4 18  1  0
 18 19  1  0
 19 20  1  0
 20 21  1  0
 21 22  1  0
 22 23  2  0
 22 24  1  0
 24 25  1  0
 25 26  1  0
 21 27  1  0
 27 28  1  0
 18 29  1  0
 29  2  1  0
 17  7  1  0
 28 18  1  0
 15 11  1  0
 26 24  1  0
  1 30  1  0
  1 31  1  0
  1 32  1  0
  3 33  1  0
  3 34  1  0
  4 35  1  1
  8 36  1  0
  9 37  1  0
 12 38  1  0
 14 39  1  0
 16 40  1  0
 17 41  1  0
 19 42  1  0
 19 43  1  0
 20 44  1  0
 20 45  1  0
 24 46  1  0
 25 47  1  0
 25 48  1  0
 26 49  1  0
 26 50  1  0
 27 51  1  0
 27 52  1  0
 28 53  1  0
 28 54  1  0
 29 55  1  0
 29 56  1  0
M  CHG  1  14   1
M  END
>  <UniqueID>  (15) 
15

>  <SMILES>  (15) 
CN1C[C@@H](C(=O)c2ccc(-n3cn[nH+]n3)cc2)C2(CCN(C(=O)C3CC3)CC2)C1

>  <Energy>  (15) 
407.48666867162115

>  <Genealogy>  (15) 
CN1CC(C(=O)c2ccc(-n3cn[nH+]n3)cc2)C2(CCN(C(=O)C3CC3)CC2)C1 (protonated)
CN1C[C@@H](C(=O)c2ccc(-n3cn[nH+]n3)cc2)C2(CCN(C(=O)C3CC3)CC2)C1 (chirality)
CN1C[C@@H](C(=O)c2ccc(-n3cn[nH+]n3)cc2)C2(CCN(C(=O)C3CC3)CC2)C1 (3D coordinates assigned)
CN1C[C@@H](C(=O)c2ccc(-n3cn[nH+]n3)cc2)C2(CCN(C(=O)C3CC3)CC2)C1 (nonaromatic ring conformer: 407.48666867162115 kcal/mol)

>  <smiles>  (15) 
CN1CC(C(=O)c2ccc(-n3cnnn3)cc2)C2(CCN(C(=O)C3CC3)CC2)C1

>  <score_type>  (15) 
oracle

>  <origin>  (15) 
adg

>  <m_score__min__energy>  (15) 
-9.8100000000000005

>  <m_primary>  (15) 
energy

$$$$
15:0
     RDKit          3D

 30 32  0  0  0  0  0  0  0  0999 V2000
   -8.9960   19.3100  -32.2760 C   0  0  0  0  0  0  0  0  0  0  0  0
   -8.2970   20.4490  -32.7700 O   0  0  0  0  0  0  0  0  0  0  0  0
   -6.9160   20.6720  -32.6430 C   0  0  0  0  0  0  0  0  0  0  0  0
   -5.9990   19.6540  -33.0300 C   0  0  0  0  0  0  0  0  0  0  0  0
   -4.6200   19.8370  -32.9080 C   0  0  0  0  0  0  0  0  0  0  0  0
   -4.1720   21.0320  -32.3760 C   0  0  0  0  0  0  0  0  0  0  0  0
   -2.8980   21.3940  -32.1680 N   0  0  0  0  0  0  0  0  0  0  0  0
   -2.9830   22.6230  -31.6220 C   0  0  0  0  0  0  0  0  0  0  0  0
   -4.2660   23.0440  -31.4750 N   0  0  0  0  0  0  0  0  0  0  0  0
   -5.0210   22.0300  -31.9720 C   0  0  0  0  0  0  0  0  0  0  0  0
   -6.4260   21.9180  -32.1190 C   0  0  0  0  0  0  0  0  0  0  0  0
   -7.3030   23.1230  -31.7640 C   0  0  1  0  0  0  0  0  0  0  0  0
   -8.8170   22.9750  -31.9790 C   0  0  0  0  0  0  0  0  0  0  0  0
   -7.0190   23.5570  -30.3140 C   0  0  0  0  0  0  0  0  0  0  0  0
   -5.9270   24.5140  -30.2920 N   0  0  0  0  0  0  0  0  0  0  0  0
   -4.6340   24.2910  -30.8560 C   0  0  0  0  0  0  0  0  0  0  0  0
   -3.7780   25.2120  -30.7660 O   0  0  0  0  0  0  0  0  0  0  0  0
   -8.9878   19.3234  -31.1761 H   0  0  0  0  0  0  0  0  0  0  0  0
  -10.0354   19.3334  -32.6352 H   0  0  0  0  0  0  0  0  0  0  0  0
   -8.5044   18.3939  -32.6352 H   0  0  0  0  0  0  0  0  0  0  0  0
   -6.3840   18.7055  -33.4327 H   0  0  0  0  0  0  0  0  0  0  0  0
   -3.9132   19.0559  -33.2248 H   0  0  0  0  0  0  0  0  0  0  0  0
   -2.0320   20.8460  -32.3710 H   0  0  0  0  0  0  0  0  0  0  0  0
   -2.1079   23.2207  -31.3272 H   0  0  0  0  0  0  0  0  0  0  0  0
   -7.0103   23.8924  -32.4936 H   0  0  0  0  0  0  0  0  0  0  0  0
   -9.3228   22.9256  -31.0034 H   0  0  0  0  0  0  0  0  0  0  0  0
   -9.1935   23.8406  -32.5438 H   0  0  0  0  0  0  0  0  0  0  0  0
   -9.0187   22.0529  -32.5438 H   0  0  0  0  0  0  0  0  0  0  0  0
   -7.9207   24.0219  -29.8887 H   0  0  0  0  0  0  0  0  0  0  0  0
   -6.7409   22.6748  -29.7186 H   0  0  0  0  0  0  0  0  0  0  0  0
  1  2  1  0
  2  3  1  0
  3  4  2  0
  4  5  1  0
  5  6  2  0
  6  7  1  0
  7  8  2  0
  8  9  1  0
  9 10  1  0
 10 11  2  0
 11 12  1  0
 12 13  1  0
 12 14  1  0
 14 15  1  0
 15 16  1  0
 16 17  2  0
 11  3  1  0
 10  6  1  0
 16  9  1  0
  1 18  1  0
  1 19  1  0
  1 20  1  0
  4 21  1  0
  5 22  1  0
  7 23  1  0
  8 24  1  0
 12 25  1  6
 13 26  1  0
 13 27  1  0
 13 28  1  0
 14 29  1  0
 14 30  1  0
M  CHG  2   7   1  15  -1
M  END
>  <UniqueID>  (16) 
16

>  <SMILES>  (16) 
COc1ccc2[nH+]cn3c2c1[C@@H](C)C[N-]C3=O

>  <Energy>  (16) 
81.65818280907806

>  <Genealogy>  (16) 
COc1ccc2[nH+]cn3c2c1C(C)C[N-]C3=O (protonated)
COc1ccc2[nH+]cn3c2c1[C@@H](C)C[N-]C3=O (chirality)
COc1ccc2[nH+]cn3c2c1[C@@H](C)C[N-]C3=O (3D coordinates assigned)
COc1ccc2[nH+]cn3c2c1[C@@H](C)C[N-]C3=O (nonaromatic ring conformer: 81.65818280907806 kcal/mol)

>  <smiles>  (16) 
COc1ccc2ncn3c2c1C(C)CNC3=O

>  <score_type>  (16) 
oracle

>  <origin>  (16) 
adg

>  <m_score__min__energy>  (16) 
-5.9800000000000004

>  <m_primary>  (16) 
energy

$$$$
16:0
     RDKit          3D

 49 52  0  0  0  0  0  0  0  0999 V2000
   -2.8460   22.5390  -31.1730 C   0  0  0  0  0  0  0  0  0  0  0  0
   -3.8640   23.5230  -31.3320 O   0  0  0  0  0  0  0  0  0  0  0  0
   -5.2310   23.2340  -31.4620 C   0  0  0  0  0  0  0  0  0  0  0  0
   -6.2310   24.1780  -31.1640 C   0  0  0  0  0  0  0  0  0  0  0  0
   -7.5810   23.8440  -31.3020 C   0  0  0  0  0  0  0  0  0  0  0  0
   -7.9530   22.5660  -31.7430 C   0  0  0  0  0  0  0  0  0  0  0  0
   -9.2690   22.2330  -31.8660 N   0  0  0  0  0  0  0  0  0  0  0  0
   -9.6360   20.9940  -32.2820 C   0  0  0  0  0  0  0  0  0  0  0  0
   -8.6950   20.0680  -32.5930 N   0  0  0  0  0  0  0  0  0  0  0  0
   -7.3680   20.3450  -32.4980 C   0  0  0  0  0  0  0  0  0  0  0  0
   -6.4180   19.3340  -32.8540 N   0  0  0  0  0  0  0  0  0  0  0  0
   -6.2060   18.9990  -34.2650 C   0  0  0  0  0  0  0  0  0  0  0  0
   -4.7810   18.4740  -34.4580 C   0  0  0  0  0  0  0  0  0  0  0  0
   -4.4800   17.2010  -33.5890 C   0  0  0  0  0  0  0  0  0  0  0  0
   -5.3950   17.1530  -32.3190 C   0  0  0  0  0  0  0  0  0  0  0  0
   -5.7760   18.5440  -31.7970 C   0  0  0  0  0  0  0  0  0  0  0  0
   -4.7560   15.9310  -34.4630 C   0  0  0  0  0  0  0  0  0  0  0  0
   -4.3390   14.7090  -33.7640 N   0  0  0  0  0  0  0  0  0  0  0  0
   -2.9680   14.2640  -34.0960 C   0  0  0  0  0  0  0  0  0  0  0  0
   -1.8300   15.2540  -33.7280 C   0  0  0  0  0  0  0  0  0  0  0  0
   -2.0490   16.6280  -34.0080 O   0  0  0  0  0  0  0  0  0  0  0  0
   -2.9750   17.2810  -33.1570 C   0  0  0  0  0  0  0  0  0  0  0  0
   -6.9550   21.6160  -32.0560 C   0  0  0  0  0  0  0  0  0  0  0  0
   -5.5990   21.9580  -31.9030 C   0  0  0  0  0  0  0  0  0  0  0  0
   -2.6672   22.3662  -30.1015 H   0  0  0  0  0  0  0  0  0  0  0  0
   -3.1666   21.5998  -31.6474 H   0  0  0  0  0  0  0  0  0  0  0  0
   -1.9182   22.8913  -31.6474 H   0  0  0  0  0  0  0  0  0  0  0  0
   -5.9487   25.1842  -30.8206 H   0  0  0  0  0  0  0  0  0  0  0  0
   -8.3558   24.5875  -31.0634 H   0  0  0  0  0  0  0  0  0  0  0  0
  -10.0140   22.9280  -31.6350 H   0  0  0  0  0  0  0  0  0  0  0  0
  -10.7028   20.7395  -32.3674 H   0  0  0  0  0  0  0  0  0  0  0  0
   -6.9260   18.2253  -34.5700 H   0  0  0  0  0  0  0  0  0  0  0  0
   -6.3510   19.8990  -34.8806 H   0  0  0  0  0  0  0  0  0  0  0  0
   -4.6415   18.2170  -35.5184 H   0  0  0  0  0  0  0  0  0  0  0  0
   -4.0891   19.2664  -34.1364 H   0  0  0  0  0  0  0  0  0  0  0  0
   -6.3173   16.6099  -32.5727 H   0  0  0  0  0  0  0  0  0  0  0  0
   -4.8252   16.6498  -31.5239 H   0  0  0  0  0  0  0  0  0  0  0  0
   -6.4731   18.4351  -30.9531 H   0  0  0  0  0  0  0  0  0  0  0  0
   -4.8626   19.0631  -31.4713 H   0  0  0  0  0  0  0  0  0  0  0  0
   -5.8327   15.8712  -34.6803 H   0  0  0  0  0  0  0  0  0  0  0  0
   -4.1782   16.0154  -35.3952 H   0  0  0  0  0  0  0  0  0  0  0  0
   -4.3860   14.8840  -32.7330 H   0  0  0  0  0  0  0  0  0  0  0  0
   -2.7806   13.3205  -33.5624 H   0  0  0  0  0  0  0  0  0  0  0  0
   -2.9407   14.1705  -35.1917 H   0  0  0  0  0  0  0  0  0  0  0  0
   -1.6479   15.1616  -32.6471 H   0  0  0  0  0  0  0  0  0  0  0  0
   -0.9848   14.9653  -34.3701 H   0  0  0  0  0  0  0  0  0  0  0  0
   -2.8876   16.8317  -32.1567 H   0  0  0  0  0  0  0  0  0  0  0  0
   -2.7117   18.3483  -33.1956 H   0  0  0  0  0  0  0  0  0  0  0  0
   -4.8206   21.2153  -32.1322 H   0  0  0  0  0  0  0  0  0  0  0  0
  1  2  1  0
  2  3  1  0
  3  4  2  0
  4  5  1  0
  5  6  2  0
  6  7  1  0
  7  8  2  0
  8  9  1  0
  9 10  2  0
 10 11  1  0
 11 12  1  0
 12 13  1  0
 13 14  1  0
 14 15  1  0
 15 16  1  0
 14 17  1  0
 17 18  1  0
 18 19  1  0
 19 20  1  0
 20 21  1  0
 21 22  1  0
 10 23  1  0
 23 24  2  0
 24  3  1  0
 23  6  1  0
 16 11  1  0
 22 14  1  0
  1 25  1  0
  1 26  1  0
  1 27  1  0
  4 28  1  0
  5 29  1  0
  7 30  1  0
  8 31  1  0
 12 32  1  0
 12 33  1  0
 13 34  1  0
 13 35  1  0
 15 36  1  0
 15 37  1  0
 16 38  1  0
 16 39  1  0
 17 40  1  0
 17 41  1  0
 18 42  1  0
 19 43  1  0
 19 44  1  0
 20 45  1  0
 20 46  1  0
 22 47  1  0
 22 48  1  0
 24 49  1  0
M  CHG  1   7   1
M  END
>  <UniqueID>  (17) 
17

>  <SMILES>  (17) 
COc1ccc2[nH+]cnc(N3CCC4(CC3)CNCCOC4)c2c1

>  <Energy>  (17) 
87.54523328385831

>  <Genealogy>  (17) 
COc1ccc2[nH+]cnc(N3CCC4(CC3)CNCCOC4)c2c1 (protonated)
COc1ccc2[nH+]cnc(N3CCC4(CC3)CNCCOC4)c2c1 (3D coordinates assigned)
COc1ccc2[nH+]cnc(N3CCC4(CC3)CNCCOC4)c2c1 (nonaromatic ring conformer: 87.54523328385831 kcal/mol)

>  <smiles>  (17) 
COc1ccc2ncnc(N3CCC4(CC3)CNCCOC4)c2c1

>  <score_type>  (17) 
oracle

>  <origin>  (17) 
adg

>  <m_score__min__energy>  (17) 
-5.9699999999999998

>  <m_primary>  (17) 
energy

$$$$
17:0
     RDKit          3D

 40 41  0  0  0  0  0  0  0  0999 V2000
   -6.6190   17.6640  -33.3490 C   0  0  0  0  0  0  0  0  0  0  0  0
   -6.4670   19.0570  -33.9480 C   0  0  0  0  0  0  0  0  0  0  0  0
   -7.0710   20.0580  -33.0690 N   0  0  0  0  0  0  0  0  0  0  0  0
   -8.3700   20.1010  -32.6870 C   0  0  0  0  0  0  0  0  0  0  0  0
   -8.5840   21.1460  -31.7950 C   0  0  0  0  0  0  0  0  0  0  0  0
   -7.3520   21.7420  -31.6320 C   0  0  0  0  0  0  0  0  0  0  0  0
   -6.9740   22.8220  -30.8390 C   0  0  0  0  0  0  0  0  0  0  0  0
   -5.6150   23.2050  -30.8460 C   0  0  0  0  0  0  0  0  0  0  0  0
   -5.0590   24.5560  -29.8590 S   0  0  0  0  0  0  0  0  0  0  0  0
   -3.8900   25.1860  -30.5640 O   0  0  0  0  0  0  0  0  0  0  0  0
   -6.1530   25.5830  -29.7400 O   0  0  0  0  0  0  0  0  0  0  0  0
   -4.5860   23.9870  -28.2650 N   0  0  0  0  0  0  0  0  0  0  0  0
   -3.2810   24.5440  -27.8340 C   0  0  0  0  0  0  0  0  0  0  0  0
   -3.2670   24.9350  -26.3540 C   0  0  0  0  0  0  0  0  0  0  0  0
   -4.6060   22.5060  -28.1870 C   0  0  0  0  0  0  0  0  0  0  0  0
   -3.2220   21.8450  -28.2720 C   0  0  0  0  0  0  0  0  0  0  0  0
   -4.6890   22.5030  -31.6530 C   0  0  0  0  0  0  0  0  0  0  0  0
   -5.1030   21.4150  -32.4420 C   0  0  0  0  0  0  0  0  0  0  0  0
   -6.4530   21.0600  -32.4090 C   0  0  0  0  0  0  0  0  0  0  0  0
   -6.6114   17.7341  -32.2513 H   0  0  0  0  0  0  0  0  0  0  0  0
   -7.5705   17.2236  -33.6817 H   0  0  0  0  0  0  0  0  0  0  0  0
   -5.7848   17.0288  -33.6817 H   0  0  0  0  0  0  0  0  0  0  0  0
   -5.3978   19.2829  -34.0739 H   0  0  0  0  0  0  0  0  0  0  0  0
   -6.9760   19.0840  -34.9228 H   0  0  0  0  0  0  0  0  0  0  0  0
   -9.1480   19.4053  -33.0345 H   0  0  0  0  0  0  0  0  0  0  0  0
   -9.5335   21.4352  -31.3208 H   0  0  0  0  0  0  0  0  0  0  0  0
   -7.7115   23.3605  -30.2257 H   0  0  0  0  0  0  0  0  0  0  0  0
   -5.3180   24.3170  -27.5940 H   0  0  0  0  0  0  0  0  0  0  0  0
   -2.5012   23.7875  -28.0058 H   0  0  0  0  0  0  0  0  0  0  0  0
   -3.0982   25.4561  -28.4210 H   0  0  0  0  0  0  0  0  0  0  0  0
   -3.2995   24.0266  -25.7345 H   0  0  0  0  0  0  0  0  0  0  0  0
   -2.3481   25.4975  -26.1320 H   0  0  0  0  0  0  0  0  0  0  0  0
   -4.1433   25.5618  -26.1320 H   0  0  0  0  0  0  0  0  0  0  0  0
   -5.0659   22.2185  -27.2300 H   0  0  0  0  0  0  0  0  0  0  0  0
   -5.1749   22.1543  -29.0603 H   0  0  0  0  0  0  0  0  0  0  0  0
   -2.8399   21.6625  -27.2568 H   0  0  0  0  0  0  0  0  0  0  0  0
   -3.3046   20.8891  -28.8100 H   0  0  0  0  0  0  0  0  0  0  0  0
   -2.5305   22.5100  -28.8100 H   0  0  0  0  0  0  0  0  0  0  0  0
   -3.6333   22.8117  -31.6634 H   0  0  0  0  0  0  0  0  0  0  0  0
   -4.3858   20.8611  -33.0656 H   0  0  0  0  0  0  0  0  0  0  0  0
  1  2  1  0
  2  3  1  0
  3  4  1  0
  4  5  2  0
  5  6  1  0
  6  7  2  0
  7  8  1  0
  8  9  1  0
  9 10  2  0
  9 11  2  0
  9 12  1  0
 12 13  1  0
 13 14  1  0
 12 15  1  0
 15 16  1  0
  8 17  2  0
 17 18  1  0
 18 19  2  0
 19  3  1  0
 19  6  1  0
  1 20  1  0
  1 21  1  0
  1 22  1  0
  2 23  1  0
  2 24  1  0
  4 25  1  0
  5 26  1  0
  7 27  1  0
 12 28  1  0
 13 29  1  0
 13 30  1  0
 14 31  1  0
 14 32  1  0
 14 33  1  0
 15 34  1  0
 15 35  1  0
 16 36  1  0
 16 37  1  0
 16 38  1  0
 17 39  1  0
 18 40  1  0
M  CHG  1  12   1
M  END
>  <UniqueID>  (18) 
18

>  <SMILES>  (18) 
CCn1ccc2cc(S(=O)(=O)[NH+](CC)CC)ccc21

>  <Energy>  (18) 
68.93028879673425

>  <Genealogy>  (18) 
CCn1ccc2cc(S(=O)(=O)[NH+](CC)CC)ccc21 (protonated)
CCn1ccc2cc(S(=O)(=O)[NH+](CC)CC)ccc21 (3D coordinates assigned)
CCn1ccc2cc(S(=O)(=O)[NH+](CC)CC)ccc21 (optimized conformer: 68.93028879673425 kcal/mol)

>  <smiles>  (18) 
CCN(CC)S(=O)(=O)c1ccc2c(ccn2CC)c1

>  <score_type>  (18) 
oracle

>  <origin>  (18) 
adg

>  <m_score__min__energy>  (18) 
-7.1200000000000001

>  <m_primary>  (18) 
energy

$$$$
18:0
     RDKit          3D

 36 38  0  0  0  0  0  0  0  0999 V2000
   -3.2230   24.8920  -30.0910 F   0  0  0  0  0  0  0  0  0  0  0  0
   -4.4520   24.4460  -30.4470 C   0  0  0  0  0  0  0  0  0  0  0  0
   -5.5940   25.1230  -30.0110 C   0  0  0  0  0  0  0  0  0  0  0  0
   -6.8610   24.6740  -30.3920 C   0  0  0  0  0  0  0  0  0  0  0  0
   -6.9890   23.5430  -31.2040 C   0  0  0  0  0  0  0  0  0  0  0  0
   -5.8510   22.8460  -31.6380 C   0  0  0  0  0  0  0  0  0  0  0  0
   -6.0080   21.7010  -32.4970 N   0  0  0  0  0  0  0  0  0  0  0  0
   -7.1060   20.7780  -32.4060 C   0  0  0  0  0  0  0  0  0  0  0  0
   -8.4080   21.2720  -32.2160 C   0  0  0  0  0  0  0  0  0  0  0  0
   -9.4970   20.4010  -32.1590 C   0  0  0  0  0  0  0  0  0  0  0  0
   -9.3000   19.0280  -32.3000 C   0  0  0  0  0  0  0  0  0  0  0  0
   -8.0160   18.5220  -32.5020 C   0  0  0  0  0  0  0  0  0  0  0  0
   -6.9070   19.3840  -32.5630 C   0  0  0  0  0  0  0  0  0  0  0  0
   -5.5370   18.7720  -32.7450 C   0  0  0  0  0  0  0  0  0  0  0  0
   -4.7910   19.5130  -33.7070 O   0  0  0  0  0  0  0  0  0  0  0  0
   -3.4670   19.9200  -33.5080 C   0  0  0  0  0  0  0  0  0  0  0  0
   -2.4190   19.0660  -33.8640 C   0  0  0  0  0  0  0  0  0  0  0  0
   -1.1340   19.4680  -33.6740 N   0  0  0  0  0  0  0  0  0  0  0  0
   -0.8480   20.6860  -33.1460 C   0  0  0  0  0  0  0  0  0  0  0  0
   -1.8920   21.5430  -32.7920 C   0  0  0  0  0  0  0  0  0  0  0  0
   -3.1760   21.1420  -32.9790 N   0  0  0  0  0  0  0  0  0  0  0  0
   -4.5770   23.3140  -31.2590 C   0  0  0  0  0  0  0  0  0  0  0  0
   -5.4954   26.0097  -29.3676 H   0  0  0  0  0  0  0  0  0  0  0  0
   -7.7590   25.2110  -30.0527 H   0  0  0  0  0  0  0  0  0  0  0  0
   -7.9889   23.1971  -31.5048 H   0  0  0  0  0  0  0  0  0  0  0  0
   -5.3200   21.5650  -33.2710 H   0  0  0  0  0  0  0  0  0  0  0  0
   -8.5702   22.3549  -32.1113 H   0  0  0  0  0  0  0  0  0  0  0  0
  -10.5110   20.7979  -32.0028 H   0  0  0  0  0  0  0  0  0  0  0  0
  -10.1589   18.3424  -32.2518 H   0  0  0  0  0  0  0  0  0  0  0  0
   -7.8696   17.4376  -32.6147 H   0  0  0  0  0  0  0  0  0  0  0  0
   -5.0030   18.7839  -31.7834 H   0  0  0  0  0  0  0  0  0  0  0  0
   -5.6504   17.7366  -33.0986 H   0  0  0  0  0  0  0  0  0  0  0  0
   -2.6323   18.0765  -34.2945 H   0  0  0  0  0  0  0  0  0  0  0  0
    0.1974   20.9949  -32.9984 H   0  0  0  0  0  0  0  0  0  0  0  0
   -1.6764   22.5338  -32.3656 H   0  0  0  0  0  0  0  0  0  0  0  0
   -3.6756   22.7860  -31.6037 H   0  0  0  0  0  0  0  0  0  0  0  0
  1  2  1  0
  2  3  2  0
  3  4  1  0
  4  5  2  0
  5  6  1  0
  6  7  1  0
  7  8  1  0
  8  9  2  0
  9 10  1  0
 10 11  2  0
 11 12  1  0
 12 13  2  0
 13 14  1  0
 14 15  1  0
 15 16  1  0
 16 17  2  0
 17 18  1  0
 18 19  2  0
 19 20  1  0
 20 21  2  0
  6 22  2  0
 22  2  1  0
 13  8  1  0
 21 16  1  0
  3 23  1  0
  4 24  1  0
  5 25  1  0
  7 26  1  0
  9 27  1  0
 10 28  1  0
 11 29  1  0
 12 30  1  0
 14 31  1  0
 14 32  1  0
 17 33  1  0
 19 34  1  0
 20 35  1  0
 22 36  1  0
M  END
>  <UniqueID>  (19) 
19

>  <SMILES>  (19) 
Fc1cccc(Nc2ccccc2COc2cnccn2)c1

>  <Energy>  (19) 
44.954531718418124

>  <Genealogy>  (19) 
Fc1cccc(Nc2ccccc2COc2cnccn2)c1 (3D coordinates assigned)
Fc1cccc(Nc2ccccc2COc2cnccn2)c1 (optimized conformer: 44.954531718418124 kcal/mol)

>  <smiles>  (19) 
Fc1cccc(Nc2ccccc2COc2cnccn2)c1

>  <score_type>  (19) 
oracle

>  <origin>  (19) 
adg

>  <m_score__min__energy>  (19) 
-7.1100000000000003

>  <m_primary>  (19) 
energy

$$$$
19:0
     RDKit          3D

 42 43  0  0  0  0  0  0  0  0999 V2000
   -7.2000   17.2890  -33.1310 C   0  0  0  0  0  0  0  0  0  0  0  0
   -7.6100   18.6500  -32.6590 C   0  0  0  0  0  0  0  0  0  0  0  0
   -8.7430   18.9160  -31.9150 C   0  0  0  0  0  0  0  0  0  0  0  0
   -8.7510   20.2750  -31.6890 C   0  0  0  0  0  0  0  0  0  0  0  0
   -7.6240   20.7920  -32.3070 C   0  0  0  0  0  0  0  0  0  0  0  0
   -7.2750   22.2680  -32.3340 C   0  0  0  0  0  0  0  0  0  0  0  0
   -6.3270   22.6820  -31.2690 N   0  0  1  0  0  0  0  0  0  0  0  0
   -6.9840   22.7090  -29.9470 C   0  0  0  0  0  0  0  0  0  0  0  0
   -5.1070   21.8370  -31.2590 C   0  0  0  0  0  0  0  0  0  0  0  0
   -3.8200   22.6540  -31.4660 C   0  0  0  0  0  0  0  0  0  0  0  0
   -3.9260   23.9250  -30.8240 O   0  0  0  0  0  0  0  0  0  0  0  0
   -3.5430   24.2040  -29.5020 C   0  0  0  0  0  0  0  0  0  0  0  0
   -4.5320   24.1810  -28.5090 C   0  0  0  0  0  0  0  0  0  0  0  0
   -4.2080   24.4520  -27.1770 C   0  0  0  0  0  0  0  0  0  0  0  0
   -2.8890   24.7450  -26.8240 C   0  0  0  0  0  0  0  0  0  0  0  0
   -1.8920   24.7670  -27.8020 C   0  0  0  0  0  0  0  0  0  0  0  0
   -2.2130   24.4950  -29.1360 C   0  0  0  0  0  0  0  0  0  0  0  0
   -6.9120   19.7880  -32.8790 N   0  0  0  0  0  0  0  0  0  0  0  0
   -5.6740   19.8910  -33.6560 C   0  0  0  0  0  0  0  0  0  0  0  0
   -7.0054   16.6429  -32.2623 H   0  0  0  0  0  0  0  0  0  0  0  0
   -8.0067   16.8532  -33.7387 H   0  0  0  0  0  0  0  0  0  0  0  0
   -6.2868   17.3713  -33.7387 H   0  0  0  0  0  0  0  0  0  0  0  0
   -9.4912   18.1867  -31.5709 H   0  0  0  0  0  0  0  0  0  0  0  0
   -9.5074   20.8412  -31.1257 H   0  0  0  0  0  0  0  0  0  0  0  0
   -6.8222   22.4990  -33.3095 H   0  0  0  0  0  0  0  0  0  0  0  0
   -8.2104   22.8203  -32.1609 H   0  0  0  0  0  0  0  0  0  0  0  0
   -6.0440   23.6650  -31.4950 H   0  0  0  0  0  0  0  0  0  0  0  0
   -6.2194   22.6776  -29.1568 H   0  0  0  0  0  0  0  0  0  0  0  0
   -7.5742   23.6322  -29.8496 H   0  0  0  0  0  0  0  0  0  0  0  0
   -7.6479   21.8374  -29.8496 H   0  0  0  0  0  0  0  0  0  0  0  0
   -5.0443   21.3202  -30.2900 H   0  0  0  0  0  0  0  0  0  0  0  0
   -5.1878   21.1252  -32.0938 H   0  0  0  0  0  0  0  0  0  0  0  0
   -2.9688   22.1029  -31.0396 H   0  0  0  0  0  0  0  0  0  0  0  0
   -3.6680   22.8114  -32.5440 H   0  0  0  0  0  0  0  0  0  0  0  0
   -5.5721   23.9476  -28.7806 H   0  0  0  0  0  0  0  0  0  0  0  0
   -4.9924   24.4345  -26.4060 H   0  0  0  0  0  0  0  0  0  0  0  0
   -2.6351   24.9586  -25.7752 H   0  0  0  0  0  0  0  0  0  0  0  0
   -0.8535   24.9984  -27.5229 H   0  0  0  0  0  0  0  0  0  0  0  0
   -1.4244   24.5082  -29.9027 H   0  0  0  0  0  0  0  0  0  0  0  0
   -4.8161   19.9624  -32.9712 H   0  0  0  0  0  0  0  0  0  0  0  0
   -5.5638   18.9989  -34.2901 H   0  0  0  0  0  0  0  0  0  0  0  0
   -5.7127   20.7890  -34.2901 H   0  0  0  0  0  0  0  0  0  0  0  0
  1  2  1  0
  2  3  2  0
  3  4  1  0
  4  5  2  0
  5  6  1  0
  6  7  1  0
  7  8  1  0
  7  9  1  0
  9 10  1  0
 10 11  1  0
 11 12  1  0
 12 13  2  0
 13 14  1  0
 14 15  2  0
 15 16  1  0
 16 17  2  0
  5 18  1  0
 18 19  1  0
 18  2  1  0
 17 12  1  0
  1 20  1  0
  1 21  1  0
  1 22  1  0
  3 23  1  0
  4 24  1  0
  6 25  1  0
  6 26  1  0
  7 27  1  6
  8 28  1  0
  8 29  1  0
  8 30  1  0
  9 31  1  0
  9 32  1  0
 10 33  1  0
 10 34  1  0
 13 35  1  0
 14 36  1  0
 15 37  1  0
 16 38  1  0
 17 39  1  0
 19 40  1  0
 19 41  1  0
 19 42  1  0
M  CHG  1   7   1
M  END
>  <UniqueID>  (20) 
20

>  <SMILES>  (20) 
Cc1ccc(C[N@@H+](C)CCOc2ccccc2)n1C

>  <Energy>  (20) 
69.09714710947421

>  <Genealogy>  (20) 
Cc1ccc(C[NH+](C)CCOc2ccccc2)n1C (protonated)
Cc1ccc(C[N@@H+](C)CCOc2ccccc2)n1C (chirality)
Cc1ccc(C[N@@H+](C)CCOc2ccccc2)n1C (3D coordinates assigned)
Cc1ccc(C[N@@H+](C)CCOc2ccccc2)n1C (optimized conformer: 69.09714710947421 kcal/mol)

>  <smiles>  (20) 
Cc1ccc(CN(C)CCOc2ccccc2)n1C

>  <score_type>  (20) 
oracle

>  <origin>  (20) 
adg

>  <m_score__min__energy>  (20) 
-6.0599999999999996

>  <m_primary>  (20) 
energy

$$$$
20:0
     RDKit          3D

 30 31  0  0  0  0  0  0  0  0999 V2000
  -10.2370   21.0730  -32.3270 C   0  0  0  0  0  0  0  0  0  0  0  0
   -9.0920   20.4030  -32.1590 C   0  0  0  0  0  0  0  0  0  0  0  0
   -9.0740   18.9130  -32.3610 C   0  0  0  0  0  0  0  0  0  0  0  0
   -7.8220   21.1280  -31.9010 C   0  0  0  0  0  0  0  0  0  0  0  0
   -7.8040   22.1770  -30.9650 C   0  0  0  0  0  0  0  0  0  0  0  0
   -6.6190   22.8770  -30.6970 C   0  0  0  0  0  0  0  0  0  0  0  0
   -6.6000   23.9160  -29.7560 C   0  0  0  0  0  0  0  0  0  0  0  0
   -5.4150   24.6070  -29.4940 C   0  0  0  0  0  0  0  0  0  0  0  0
   -4.2270   24.2680  -30.1690 C   0  0  0  0  0  0  0  0  0  0  0  0
   -3.0140   24.9340  -29.9380 O   0  0  0  0  0  0  0  0  0  0  0  0
   -2.0670   24.5570  -28.9430 C   0  0  0  0  0  0  0  0  0  0  0  0
   -4.2450   23.2300  -31.1080 C   0  0  0  0  0  0  0  0  0  0  0  0
   -5.4310   22.5300  -31.3790 C   0  0  0  0  0  0  0  0  0  0  0  0
   -5.4500   21.4930  -32.3210 C   0  0  0  0  0  0  0  0  0  0  0  0
   -6.6370   20.7980  -32.5910 C   0  0  0  0  0  0  0  0  0  0  0  0
   -6.6430   19.7920  -33.5580 O   0  0  0  0  0  0  0  0  0  0  0  0
  -10.2627   22.1631  -32.1821 H   0  0  0  0  0  0  0  0  0  0  0  0
  -11.1532   20.5340  -32.6101 H   0  0  0  0  0  0  0  0  0  0  0  0
   -9.0679   18.4104  -31.3826 H   0  0  0  0  0  0  0  0  0  0  0  0
   -9.9685   18.6085  -32.9241 H   0  0  0  0  0  0  0  0  0  0  0  0
   -8.1724   18.6302  -32.9241 H   0  0  0  0  0  0  0  0  0  0  0  0
   -8.7294   22.4515  -30.4374 H   0  0  0  0  0  0  0  0  0  0  0  0
   -7.5223   24.1881  -29.2218 H   0  0  0  0  0  0  0  0  0  0  0  0
   -5.4099   25.4218  -28.7551 H   0  0  0  0  0  0  0  0  0  0  0  0
   -2.4963   24.7279  -27.9448 H   0  0  0  0  0  0  0  0  0  0  0  0
   -1.8189   23.4915  -29.0579 H   0  0  0  0  0  0  0  0  0  0  0  0
   -1.1545   25.1604  -29.0579 H   0  0  0  0  0  0  0  0  0  0  0  0
   -3.3202   22.9602  -31.6389 H   0  0  0  0  0  0  0  0  0  0  0  0
   -4.5261   21.2221  -32.8529 H   0  0  0  0  0  0  0  0  0  0  0  0
   -7.3950   19.7060  -34.2330 H   0  0  0  0  0  0  0  0  0  0  0  0
  1  2  2  0
  2  3  1  0
  2  4  1  0
  4  5  2  0
  5  6  1  0
  6  7  2  0
  7  8  1  0
  8  9  2  0
  9 10  1  0
 10 11  1  0
  9 12  1  0
 12 13  2  0
 13 14  1  0
 14 15  2  0
 15 16  1  0
 15  4  1  0
 13  6  1  0
  1 17  1  0
  1 18  1  0
  3 19  1  0
  3 20  1  0
  3 21  1  0
  5 22  1  0
  7 23  1  0
  8 24  1  0
 11 25  1  0
 11 26  1  0
 11 27  1  0
 12 28  1  0
 14 29  1  0
 16 30  1  0
M  END
>  <UniqueID>  (21) 
21

>  <SMILES>  (21) 
C=C(C)c1cc2ccc(OC)cc2cc1O

>  <Energy>  (21) 
36.288987418267695

>  <Genealogy>  (21) 
C=C(C)c1cc2ccc(OC)cc2cc1O (3D coordinates assigned)
C=C(C)c1cc2ccc(OC)cc2cc1O (optimized conformer: 36.288987418267695 kcal/mol)

>  <smiles>  (21) 
C=C(C)c1cc2ccc(OC)cc2cc1O

>  <score_type>  (21) 
oracle

>  <origin>  (21) 
adg

>  <m_score__min__energy>  (21) 
-6.8700000000000001

>  <m_primary>  (21) 
energy

$$$$
21:0
     RDKit          3D

 45 46  0  0  0  0  0  0  0  0999 V2000
   -6.0920   19.0930  -33.8830 C   0  0  0  0  0  0  0  0  0  0  0  0
   -6.2400   20.3210  -32.9760 C   0  0  0  0  0  0  0  0  0  0  0  0
   -7.3000   20.1620  -31.9460 N   0  0  0  0  0  0  0  0  0  0  0  0
   -7.5800   18.7380  -31.6100 C   0  0  0  0  0  0  0  0  0  0  0  0
   -9.0700   18.3640  -31.6290 C   0  0  0  0  0  0  0  0  0  0  0  0
   -8.5500   20.8710  -32.3480 C   0  0  0  0  0  0  0  0  0  0  0  0
   -8.5870   22.3420  -31.8840 C   0  0  0  0  0  0  0  0  0  0  0  0
   -7.9670   22.5190  -30.6110 O   0  0  0  0  0  0  0  0  0  0  0  0
   -6.7660   23.2100  -30.3760 C   0  0  0  0  0  0  0  0  0  0  0  0
   -6.7220   24.5890  -30.0950 C   0  0  0  0  0  0  0  0  0  0  0  0
   -5.4950   25.2250  -29.8790 C   0  0  0  0  0  0  0  0  0  0  0  0
   -4.2990   24.5040  -29.9510 C   0  0  0  0  0  0  0  0  0  0  0  0
   -3.0910   25.1770  -29.7170 O   0  0  0  0  0  0  0  0  0  0  0  0
   -2.2030   24.9100  -28.6650 C   0  0  0  0  0  0  0  0  0  0  0  0
   -0.8780   24.5700  -28.9710 C   0  0  0  0  0  0  0  0  0  0  0  0
    0.0330   24.2820  -27.9500 C   0  0  0  0  0  0  0  0  0  0  0  0
   -0.3780   24.3200  -26.6150 C   0  0  0  0  0  0  0  0  0  0  0  0
   -1.7010   24.6380  -26.3000 C   0  0  0  0  0  0  0  0  0  0  0  0
   -2.6150   24.9260  -27.3190 C   0  0  0  0  0  0  0  0  0  0  0  0
   -4.3450   23.1220  -30.2070 C   0  0  0  0  0  0  0  0  0  0  0  0
   -5.5700   22.4870  -30.4220 C   0  0  0  0  0  0  0  0  0  0  0  0
   -5.9832   18.1906  -33.2635 H   0  0  0  0  0  0  0  0  0  0  0  0
   -6.9850   18.9964  -34.5180 H   0  0  0  0  0  0  0  0  0  0  0  0
   -5.2016   19.2113  -34.5180 H   0  0  0  0  0  0  0  0  0  0  0  0
   -5.2810   20.4976  -32.4669 H   0  0  0  0  0  0  0  0  0  0  0  0
   -6.5293   21.1678  -33.6157 H   0  0  0  0  0  0  0  0  0  0  0  0
   -6.9440   20.5980  -31.0610 H   0  0  0  0  0  0  0  0  0  0  0  0
   -7.0562   18.1027  -32.3395 H   0  0  0  0  0  0  0  0  0  0  0  0
   -7.2301   18.5835  -30.5787 H   0  0  0  0  0  0  0  0  0  0  0  0
   -9.4380   18.2716  -30.5965 H   0  0  0  0  0  0  0  0  0  0  0  0
   -9.6380   19.1474  -32.1520 H   0  0  0  0  0  0  0  0  0  0  0  0
   -9.2007   17.4052  -32.1520 H   0  0  0  0  0  0  0  0  0  0  0  0
   -8.6284   20.8478  -33.4450 H   0  0  0  0  0  0  0  0  0  0  0  0
   -9.3912   20.3530  -31.8641 H   0  0  0  0  0  0  0  0  0  0  0  0
   -8.0594   22.9609  -32.6246 H   0  0  0  0  0  0  0  0  0  0  0  0
   -9.6414   22.6417  -31.7919 H   0  0  0  0  0  0  0  0  0  0  0  0
   -7.6558   25.1682  -30.0452 H   0  0  0  0  0  0  0  0  0  0  0  0
   -5.4707   26.3008  -29.6507 H   0  0  0  0  0  0  0  0  0  0  0  0
   -0.5528   24.5295  -30.0210 H   0  0  0  0  0  0  0  0  0  0  0  0
    1.0736   24.0254  -28.1978 H   0  0  0  0  0  0  0  0  0  0  0  0
    0.3406   24.0994  -25.8119 H   0  0  0  0  0  0  0  0  0  0  0  0
   -2.0247   24.6620  -25.2490 H   0  0  0  0  0  0  0  0  0  0  0  0
   -3.6588   25.1657  -27.0678 H   0  0  0  0  0  0  0  0  0  0  0  0
   -3.4127   22.5391  -30.2380 H   0  0  0  0  0  0  0  0  0  0  0  0
   -5.5943   21.4071  -30.6297 H   0  0  0  0  0  0  0  0  0  0  0  0
  1  2  1  0
  2  3  1  0
  3  4  1  0
  4  5  1  0
  3  6  1  0
  6  7  1  0
  7  8  1  0
  8  9  1  0
  9 10  2  0
 10 11  1  0
 11 12  2  0
 12 13  1  0
 13 14  1  0
 14 15  2  0
 15 16  1  0
 16 17  2  0
 17 18  1  0
 18 19  2  0
 12 20  1  0
 20 21  2  0
 21  9  1  0
 19 14  1  0
  1 22  1  0
  1 23  1  0
  1 24  1  0
  2 25  1  0
  2 26  1  0
  3 27  1  0
  4 28  1  0
  4 29  1  0
  5 30  1  0
  5 31  1  0
  5 32  1  0
  6 33  1  0
  6 34  1  0
  7 35  1  0
  7 36  1  0
 10 37  1  0
 11 38  1  0
 15 39  1  0
 16 40  1  0
 17 41  1  0
 18 42  1  0
 19 43  1  0
 20 44  1  0
 21 45  1  0
M  CHG  1   3   1
M  END
>  <UniqueID>  (22) 
22

>  <SMILES>  (22) 
CC[NH+](CC)CCOc1ccc(Oc2ccccc2)cc1

>  <Energy>  (22) 
54.437886237878736

>  <Genealogy>  (22) 
CC[NH+](CC)CCOc1ccc(Oc2ccccc2)cc1 (protonated)
CC[NH+](CC)CCOc1ccc(Oc2ccccc2)cc1 (3D coordinates assigned)
CC[NH+](CC)CCOc1ccc(Oc2ccccc2)cc1 (optimized conformer: 54.437886237878736 kcal/mol)

>  <smiles>  (22) 
CCN(CC)CCOc1ccc(Oc2ccccc2)cc1

>  <score_type>  (22) 
oracle

>  <origin>  (22) 
adg

>  <m_score__min__energy>  (22) 
-6.6699999999999999

>  <m_primary>  (22) 
energy

$$$$
22:0
     RDKit          3D

 48 50  0  0  0  0  0  0  0  0999 V2000
   -6.8290   16.7020  -33.5730 C   0  0  0  0  0  0  0  0  0  0  0  0
   -7.0010   18.0980  -33.0510 C   0  0  0  0  0  0  0  0  0  0  0  0
   -6.3790   19.1760  -33.6980 C   0  0  0  0  0  0  0  0  0  0  0  0
   -6.5710   20.4810  -33.2360 C   0  0  0  0  0  0  0  0  0  0  0  0
   -7.3980   20.7230  -32.1290 C   0  0  0  0  0  0  0  0  0  0  0  0
   -7.6870   22.3720  -31.5830 S   0  0  0  0  0  0  0  0  0  0  0  0
   -7.6510   22.4260  -30.0810 O   0  0  0  0  0  0  0  0  0  0  0  0
   -9.0420   22.8270  -32.0480 O   0  0  0  0  0  0  0  0  0  0  0  0
   -6.4360   23.4530  -32.2490 C   0  0  0  0  0  0  0  0  0  0  0  0
   -5.1160   23.1590  -31.6130 C   0  0  0  0  0  0  0  0  0  0  0  0
   -4.4290   21.9650  -31.7000 C   0  0  0  0  0  0  0  0  0  0  0  0
   -3.3100   22.1230  -30.9120 C   0  0  0  0  0  0  0  0  0  0  0  0
   -3.3840   23.4060  -30.3980 C   0  0  0  0  0  0  0  0  0  0  0  0
   -2.4350   24.0480  -29.4700 C   0  0  0  0  0  0  0  0  0  0  0  0
   -2.5710   25.2790  -29.2370 O   0  0  0  0  0  0  0  0  0  0  0  0
   -1.3780   23.3140  -28.8180 N   0  0  0  0  0  0  0  0  0  0  0  0
   -0.5200   22.4090  -29.6090 C   0  0  0  0  0  0  0  0  0  0  0  0
   -0.8020   20.9090  -29.3520 C   0  0  0  0  0  0  0  0  0  0  0  0
   -0.7410   20.4740  -27.8780 C   0  0  0  0  0  0  0  0  0  0  0  0
   -1.6660   21.2920  -26.9630 C   0  0  0  0  0  0  0  0  0  0  0  0
   -1.0480   22.5900  -26.4180 C   0  0  0  0  0  0  0  0  0  0  0  0
   -1.0110   23.7290  -27.4500 C   0  0  0  0  0  0  0  0  0  0  0  0
   -4.4760   23.9940  -30.8300 O   0  0  0  0  0  0  0  0  0  0  0  0
   -8.0410   19.6500  -31.4980 C   0  0  0  0  0  0  0  0  0  0  0  0
   -7.8460   18.3450  -31.9590 C   0  0  0  0  0  0  0  0  0  0  0  0
   -6.7428   16.0027  -32.7283 H   0  0  0  0  0  0  0  0  0  0  0  0
   -7.7004   16.4301  -34.1867 H   0  0  0  0  0  0  0  0  0  0  0  0
   -5.9176   16.6497  -34.1867 H   0  0  0  0  0  0  0  0  0  0  0  0
   -5.7374   18.9935  -34.5727 H   0  0  0  0  0  0  0  0  0  0  0  0
   -6.0722   21.3208  -33.7419 H   0  0  0  0  0  0  0  0  0  0  0  0
   -6.3600   23.2967  -33.3352 H   0  0  0  0  0  0  0  0  0  0  0  0
   -6.7127   24.4971  -32.0411 H   0  0  0  0  0  0  0  0  0  0  0  0
   -4.7151   21.0737  -32.2777 H   0  0  0  0  0  0  0  0  0  0  0  0
   -2.5190   21.3808  -30.7287 H   0  0  0  0  0  0  0  0  0  0  0  0
   -0.6860   22.6165  -30.6764 H   0  0  0  0  0  0  0  0  0  0  0  0
    0.5194   22.5996  -29.3035 H   0  0  0  0  0  0  0  0  0  0  0  0
   -1.8089   20.6821  -29.7323 H   0  0  0  0  0  0  0  0  0  0  0  0
   -0.0027   20.3557  -29.8667 H   0  0  0  0  0  0  0  0  0  0  0  0
   -1.0339   19.4156  -27.8141 H   0  0  0  0  0  0  0  0  0  0  0  0
    0.2897   20.6410  -27.5319 H   0  0  0  0  0  0  0  0  0  0  0  0
   -2.5676   21.5559  -27.5352 H   0  0  0  0  0  0  0  0  0  0  0  0
   -1.8775   20.6583  -26.0891 H   0  0  0  0  0  0  0  0  0  0  0  0
   -1.6410   22.9222  -25.5532 H   0  0  0  0  0  0  0  0  0  0  0  0
   -0.0063   22.3644  -26.1459 H   0  0  0  0  0  0  0  0  0  0  0  0
   -1.7130   24.5116  -27.1263 H   0  0  0  0  0  0  0  0  0  0  0  0
    0.0293   24.0837  -27.4942 H   0  0  0  0  0  0  0  0  0  0  0  0
   -8.7009   19.8351  -30.6376 H   0  0  0  0  0  0  0  0  0  0  0  0
   -8.3579   17.5073  -31.4628 H   0  0  0  0  0  0  0  0  0  0  0  0
  1  2  1  0
  2  3  2  0
  3  4  1  0
  4  5  2  0
  5  6  1  0
  6  7  2  0
  6  8  2  0
  6  9  1  0
  9 10  1  0
 10 11  2  0
 11 12  1  0
 12 13  2  0
 13 14  1  0
 14 15  2  0
 14 16  1  0
 16 17  1  0
 17 18  1  0
 18 19  1  0
 19 20  1  0
 20 21  1  0
 21 22  1  0
 13 23  1  0
  5 24  1  0
 24 25  2  0
 25  2  1  0
 23 10  1  0
 22 16  1  0
  1 26  1  0
  1 27  1  0
  1 28  1  0
  3 29  1  0
  4 30  1  0
  9 31  1  0
  9 32  1  0
 11 33  1  0
 12 34  1  0
 17 35  1  0
 17 36  1  0
 18 37  1  0
 18 38  1  0
 19 39  1  0
 19 40  1  0
 20 41  1  0
 20 42  1  0
 21 43  1  0
 21 44  1  0
 22 45  1  0
 22 46  1  0
 24 47  1  0
 25 48  1  0
M  END
>  <UniqueID>  (23) 
23

>  <SMILES>  (23) 
Cc1ccc(S(=O)(=O)Cc2ccc(C(=O)N3CCCCCC3)o2)cc1

>  <Energy>  (23) 
75.97511023779872

>  <Genealogy>  (23) 
Cc1ccc(S(=O)(=O)Cc2ccc(C(=O)N3CCCCCC3)o2)cc1 (3D coordinates assigned)
Cc1ccc(S(=O)(=O)Cc2ccc(C(=O)N3CCCCCC3)o2)cc1 (nonaromatic ring conformer: 75.97511023779872 kcal/mol)

>  <smiles>  (23) 
Cc1ccc(S(=O)(=O)Cc2ccc(C(=O)N3CCCCCC3)o2)cc1

>  <score_type>  (23) 
oracle

>  <origin>  (23) 
adg

>  <m_score__min__energy>  (23) 
-7.54

>  <m_primary>  (23) 
energy

$$$$
23:0
     RDKit          3D

 61 65  0  0  0  0  0  0  0  0999 V2000
   -5.0330   12.0210  -34.0890 C   0  0  0  0  0  0  0  0  0  0  0  0
   -5.4110   13.4570  -33.8750 C   0  0  0  0  0  0  0  0  0  0  0  0
   -6.5810   13.9640  -34.4610 C   0  0  0  0  0  0  0  0  0  0  0  0
   -6.9500   15.3000  -34.2610 C   0  0  0  0  0  0  0  0  0  0  0  0
   -6.1560   16.1480  -33.4640 C   0  0  0  0  0  0  0  0  0  0  0  0
   -6.5340   17.5240  -33.2560 N   0  0  0  0  0  0  0  0  0  0  0  0
   -7.7270   17.8570  -32.4600 C   0  0  0  0  0  0  0  0  0  0  0  0
   -7.4820   19.1210  -31.6210 C   0  0  0  0  0  0  0  0  0  0  0  0
   -6.7910   20.1650  -32.3970 N   0  0  0  0  0  0  0  0  0  0  0  0
   -6.2370   21.3060  -31.7120 C   0  0  0  0  0  0  0  0  0  0  0  0
   -4.8810   21.3230  -31.3420 C   0  0  0  0  0  0  0  0  0  0  0  0
   -4.3430   22.4260  -30.6830 C   0  0  0  0  0  0  0  0  0  0  0  0
   -5.1480   23.5390  -30.3880 C   0  0  0  0  0  0  0  0  0  0  0  0
   -4.5470   24.7610  -29.7520 C   0  0  0  0  0  0  0  0  0  0  0  0
   -3.1330   24.9130  -30.0880 N   0  0  0  0  0  0  0  0  0  0  0  0
   -2.0630   24.8760  -29.1360 C   0  0  0  0  0  0  0  0  0  0  0  0
   -1.3970   25.9210  -28.9180 O   0  0  0  0  0  0  0  0  0  0  0  0
   -1.6730   23.6180  -28.4730 C   0  0  0  0  0  0  0  0  0  0  0  0
   -1.6720   23.5880  -27.0710 C   0  0  0  0  0  0  0  0  0  0  0  0
   -1.3060   22.4300  -26.3840 C   0  0  0  0  0  0  0  0  0  0  0  0
   -0.9390   21.2810  -27.0840 C   0  0  0  0  0  0  0  0  0  0  0  0
   -0.9300   21.2840  -28.4860 C   0  0  0  0  0  0  0  0  0  0  0  0
   -0.5400   20.1320  -29.1870 C   0  0  0  0  0  0  0  0  0  0  0  0
   -0.5130   20.1360  -30.5840 C   0  0  0  0  0  0  0  0  0  0  0  0
   -0.8670   21.2900  -31.2920 C   0  0  0  0  0  0  0  0  0  0  0  0
   -1.2560   22.4420  -30.6070 C   0  0  0  0  0  0  0  0  0  0  0  0
   -1.3030   22.4570  -29.1960 C   0  0  0  0  0  0  0  0  0  0  0  0
   -6.5070   23.5180  -30.7290 C   0  0  0  0  0  0  0  0  0  0  0  0
   -7.0480   22.4070  -31.3830 C   0  0  0  0  0  0  0  0  0  0  0  0
   -6.5160   19.9380  -33.8220 C   0  0  0  0  0  0  0  0  0  0  0  0
   -5.8190   18.5880  -33.9850 C   0  0  0  0  0  0  0  0  0  0  0  0
   -4.9850   15.6320  -32.8760 C   0  0  0  0  0  0  0  0  0  0  0  0
   -4.6160   14.2970  -33.0770 C   0  0  0  0  0  0  0  0  0  0  0  0
   -4.9030   11.5270  -33.1148 H   0  0  0  0  0  0  0  0  0  0  0  0
   -5.8280   11.5129  -34.6545 H   0  0  0  0  0  0  0  0  0  0  0  0
   -4.0909   11.9702  -34.6545 H   0  0  0  0  0  0  0  0  0  0  0  0
   -7.2112   13.3089  -35.0804 H   0  0  0  0  0  0  0  0  0  0  0  0
   -7.8658   15.6899  -34.7293 H   0  0  0  0  0  0  0  0  0  0  0  0
   -8.5762   18.0315  -33.1371 H   0  0  0  0  0  0  0  0  0  0  0  0
   -7.9465   17.0187  -31.7825 H   0  0  0  0  0  0  0  0  0  0  0  0
   -8.4503   19.5142  -31.2778 H   0  0  0  0  0  0  0  0  0  0  0  0
   -6.8427   18.8479  -30.7686 H   0  0  0  0  0  0  0  0  0  0  0  0
   -4.2404   20.4595  -31.5744 H   0  0  0  0  0  0  0  0  0  0  0  0
   -3.2822   22.4256  -30.3920 H   0  0  0  0  0  0  0  0  0  0  0  0
   -5.0930   25.6491  -30.1029 H   0  0  0  0  0  0  0  0  0  0  0  0
   -4.6272   24.6506  -28.6605 H   0  0  0  0  0  0  0  0  0  0  0  0
   -1.9627   24.4866  -26.5071 H   0  0  0  0  0  0  0  0  0  0  0  0
   -1.3069   22.4233  -25.2840 H   0  0  0  0  0  0  0  0  0  0  0  0
   -0.6561   20.3707  -26.5351 H   0  0  0  0  0  0  0  0  0  0  0  0
   -0.2550   19.2241  -28.6352 H   0  0  0  0  0  0  0  0  0  0  0  0
   -0.2125   19.2290  -31.1291 H   0  0  0  0  0  0  0  0  0  0  0  0
   -0.8386   21.2891  -32.3916 H   0  0  0  0  0  0  0  0  0  0  0  0
   -1.5283   23.3461  -31.1713 H   0  0  0  0  0  0  0  0  0  0  0  0
   -7.1488   24.3765  -30.4819 H   0  0  0  0  0  0  0  0  0  0  0  0
   -8.1169   22.3939  -31.6424 H   0  0  0  0  0  0  0  0  0  0  0  0
   -7.4615   19.9352  -34.3842 H   0  0  0  0  0  0  0  0  0  0  0  0
   -5.8689   20.7394  -34.2080 H   0  0  0  0  0  0  0  0  0  0  0  0
   -5.7846   18.3293  -35.0536 H   0  0  0  0  0  0  0  0  0  0  0  0
   -4.8030   18.6698  -33.5713 H   0  0  0  0  0  0  0  0  0  0  0  0
   -4.3548   16.2839  -32.2533 H   0  0  0  0  0  0  0  0  0  0  0  0
   -3.7012   13.9043  -32.6090 H   0  0  0  0  0  0  0  0  0  0  0  0
  1  2  1  0
  2  3  2  0
  3  4  1  0
  4  5  2  0
  5  6  1  0
  6  7  1  0
  7  8  1  0
  8  9  1  0
  9 10  1  0
 10 11  2  0
 11 12  1  0
 12 13  2  0
 13 14  1  0
 14 15  1  0
 15 16  1  0
 16 17  2  0
 16 18  1  0
 18 19  2  0
 19 20  1  0
 20 21  2  0
 21 22  1  0
 22 23  2  0
 23 24  1  0
 24 25  2  0
 25 26  1  0
 26 27  2  0
 13 28  1  0
 28 29  2  0
  9 30  1  0
 30 31  1  0
  5 32  1  0
 32 33  2  0
 33  2  1  0
 31  6  1  0
 29 10  1  0
 27 18  1  0
 27 22  1  0
  1 34  1  0
  1 35  1  0
  1 36  1  0
  3 37  1  0
  4 38  1  0
  7 39  1  0
  7 40  1  0
  8 41  1  0
  8 42  1  0
 11 43  1  0
 12 44  1  0
 14 45  1  0
 14 46  1  0
 19 47  1  0
 20 48  1  0
 21 49  1  0
 23 50  1  0
 24 51  1  0
 25 52  1  0
 26 53  1  0
 28 54  1  0
 29 55  1  0
 30 56  1  0
 30 57  1  0
 31 58  1  0
 31 59  1  0
 32 60  1  0
 33 61  1  0
M  CHG  1  15  -1
M  END
>  <UniqueID>  (24) 
24

>  <SMILES>  (24) 
Cc1ccc(N2CCN(c3ccc(C[N-]C(=O)c4cccc5ccccc45)cc3)CC2)cc1

>  <Energy>  (24) 
83.58082127629908

>  <Genealogy>  (24) 
Cc1ccc(N2CCN(c3ccc(C[N-]C(=O)c4cccc5ccccc45)cc3)CC2)cc1 (protonated)
Cc1ccc(N2CCN(c3ccc(C[N-]C(=O)c4cccc5ccccc45)cc3)CC2)cc1 (3D coordinates assigned)
Cc1ccc(N2CCN(c3ccc(C[N-]C(=O)c4cccc5ccccc45)cc3)CC2)cc1 (nonaromatic ring conformer: 83.58082127629908 kcal/mol)

>  <smiles>  (24) 
Cc1ccc(N2CCN(c3ccc(CNC(=O)c4cccc5ccccc45)cc3)CC2)cc1

>  <score_type>  (24) 
oracle

>  <origin>  (24) 
adg

>  <m_score__min__energy>  (24) 
-12.16

>  <m_primary>  (24) 
energy

$$$$
24:0
     RDKit          3D

 32 33  0  0  0  0  0  0  0  0999 V2000
   -5.8366   25.6637  -31.8803 H   0  0  0  0  0  0  0  0  0  0  0  0
   -5.3520   24.9990  -31.1500 C   0  0  0  0  0  0  0  0  0  0  0  0
   -4.1240   25.3110  -30.6580 N   0  0  0  0  0  0  0  0  0  0  0  0
   -3.4800   24.5260  -29.7520 C   0  0  0  0  0  0  0  0  0  0  0  0
   -2.2990   24.8950  -29.3400 N   0  0  0  0  0  0  0  0  0  0  0  0
   -1.9380   25.3870  -28.0410 C   0  0  0  0  0  0  0  0  0  0  0  0
   -2.6390   24.9270  -26.9180 C   0  0  0  0  0  0  0  0  0  0  0  0
   -3.4817   24.2316  -27.0456 H   0  0  0  0  0  0  0  0  0  0  0  0
   -2.2720   25.3480  -25.6360 C   0  0  0  0  0  0  0  0  0  0  0  0
   -2.8375   24.9976  -24.7600 H   0  0  0  0  0  0  0  0  0  0  0  0
   -1.1870   26.2140  -25.4660 C   0  0  0  0  0  0  0  0  0  0  0  0
   -0.9054   26.5524  -24.4579 H   0  0  0  0  0  0  0  0  0  0  0  0
   -0.4610   26.6490  -26.5780 C   0  0  0  0  0  0  0  0  0  0  0  0
    0.3981   27.3228  -26.4438 H   0  0  0  0  0  0  0  0  0  0  0  0
   -0.8250   26.2290  -27.8610 C   0  0  0  0  0  0  0  0  0  0  0  0
   -0.2395   26.5578  -28.7323 H   0  0  0  0  0  0  0  0  0  0  0  0
   -4.0930   23.3270  -29.3300 C   0  0  0  0  0  0  0  0  0  0  0  0
   -3.5806   22.6637  -28.6177 H   0  0  0  0  0  0  0  0  0  0  0  0
   -5.3540   22.9890  -29.8230 C   0  0  0  0  0  0  0  0  0  0  0  0
   -5.8400   22.0570  -29.4986 H   0  0  0  0  0  0  0  0  0  0  0  0
   -5.9990   23.8350  -30.7290 C   0  0  0  0  0  0  0  0  0  0  0  0
   -7.6160   23.4040  -31.3810 S   0  0  0  0  0  0  0  0  0  0  0  0
   -7.3470   21.5970  -31.3240 C   0  0  0  0  0  0  0  0  0  0  0  0
   -7.3242   21.2694  -30.2742 H   0  0  0  0  0  0  0  0  0  0  0  0
   -6.3917   21.3686  -31.8192 H   0  0  0  0  0  0  0  0  0  0  0  0
   -8.4660   20.8540  -32.0560 C   0  0  0  0  0  0  0  0  0  0  0  0
   -8.2836   20.9074  -33.1395 H   0  0  0  0  0  0  0  0  0  0  0  0
   -9.4250   21.3287  -31.8010 H   0  0  0  0  0  0  0  0  0  0  0  0
   -8.5230   19.3890  -31.6320 C   0  0  0  0  0  0  0  0  0  0  0  0
   -8.5255   19.3249  -30.5339 H   0  0  0  0  0  0  0  0  0  0  0  0
   -9.4398   18.9280  -32.0283 H   0  0  0  0  0  0  0  0  0  0  0  0
   -7.6448   18.8582  -32.0283 H   0  0  0  0  0  0  0  0  0  0  0  0
  1  2  1  0
  2  3  1  0
  3  4  1  0
  4  5  2  0
  5  6  1  0
  6  7  2  0
  7  8  1  0
  7  9  1  0
  9 10  1  0
  9 11  2  0
 11 12  1  0
 11 13  1  0
 13 14  1  0
 13 15  2  0
 15 16  1  0
  4 17  1  0
 17 18  1  0
 17 19  2  0
 19 20  1  0
 19 21  1  0
 21 22  1  0
 22 23  1  0
 23 24  1  0
 23 25  1  0
 23 26  1  0
 26 27  1  0
 26 28  1  0
 26 29  1  0
 29 30  1  0
 29 31  1  0
 29 32  1  0
 21  2  2  0
 15  6  1  0
M  CHG  1   3  -1
M  END
>  <UniqueID>  (25) 
25

>  <SMILES>  (25) 
CCCSc1cc/c(=N\c2ccccc2)[n-]c1

>  <Energy>  (25) 
34.13377515344962

>  <Genealogy>  (25) 
CCCSc1ccc(=Nc2ccccc2)[n-]c1 (protonated)
CCCSc1cc/c(=N\c2ccccc2)[n-]c1 (cis-trans isomerization)
CCCSc1cc/c(=N\c2ccccc2)[n-]c1 (3D coordinates assigned)
CCCSc1cc/c(=N\c2ccccc2)[n-]c1 (optimized conformer: 34.13377515344962 kcal/mol)

>  <smiles>  (25) 
CCCSc1ccc(=Nc2ccccc2)[nH]c1

>  <score_type>  (25) 
oracle

>  <origin>  (25) 
adg

>  <m_score__min__energy>  (25) 
-8.6500000000000004

>  <m_primary>  (25) 
energy

$$$$
25:0
     RDKit          3D

 42 43  0  0  0  0  0  0  0  0999 V2000
   -8.1886   23.3279  -32.8923 H   0  0  0  0  0  0  0  0  0  0  0  0
   -7.6720   22.5560  -32.3030 C   0  0  0  0  0  0  0  0  0  0  0  0
   -6.3450   22.6800  -32.0980 C   0  0  0  0  0  0  0  0  0  0  0  0
   -5.7840   23.9500  -31.4760 C   0  0  0  0  0  0  0  0  0  0  0  0
   -5.6768   24.7086  -32.2654 H   0  0  0  0  0  0  0  0  0  0  0  0
   -6.4859   24.2684  -30.6912 H   0  0  0  0  0  0  0  0  0  0  0  0
   -4.4660   23.7490  -30.8340 N   0  0  0  0  0  0  0  0  0  0  0  0
   -4.6010   23.3770  -29.4170 C   0  0  0  0  0  0  0  0  0  0  0  0
   -4.2939   24.2232  -28.7849 H   0  0  0  0  0  0  0  0  0  0  0  0
   -5.6493   23.1212  -29.2033 H   0  0  0  0  0  0  0  0  0  0  0  0
   -3.9607   22.5084  -29.2033 H   0  0  0  0  0  0  0  0  0  0  0  0
   -3.5210   22.8720  -31.5690 C   0  0  0  0  0  0  0  0  0  0  0  0
   -2.6294   23.4621  -31.8275 H   0  0  0  0  0  0  0  0  0  0  0  0
   -3.2872   22.0255  -30.9066 H   0  0  0  0  0  0  0  0  0  0  0  0
   -4.1050   22.2800  -32.8660 C   0  0  0  0  0  0  0  0  0  0  0  0
   -4.1893   23.0813  -33.6149 H   0  0  0  0  0  0  0  0  0  0  0  0
   -3.4290   21.4826  -33.2084 H   0  0  0  0  0  0  0  0  0  0  0  0
   -5.4400   21.6840  -32.6540 N   0  0  1  0  0  0  0  0  0  0  0  0
   -5.7830   21.4100  -33.6060 H   0  0  0  0  0  0  0  0  0  0  0  0
   -5.3520   20.4640  -31.8090 C   0  0  0  0  0  0  0  0  0  0  0  0
   -4.3180   20.3587  -31.4487 H   0  0  0  0  0  0  0  0  0  0  0  0
   -6.0612   20.5831  -30.9767 H   0  0  0  0  0  0  0  0  0  0  0  0
   -5.7330   19.2100  -32.5590 C   0  0  0  0  0  0  0  0  0  0  0  0
   -5.3720   19.0550  -33.9080 C   0  0  0  0  0  0  0  0  0  0  0  0
   -4.7864   19.8380  -34.4119 H   0  0  0  0  0  0  0  0  0  0  0  0
   -5.7540   17.9100  -34.6120 C   0  0  0  0  0  0  0  0  0  0  0  0
   -5.4685   17.7940  -35.6680 H   0  0  0  0  0  0  0  0  0  0  0  0
   -6.4980   16.9120  -33.9770 C   0  0  0  0  0  0  0  0  0  0  0  0
   -6.7980   16.0116  -34.5331 H   0  0  0  0  0  0  0  0  0  0  0  0
   -6.8610   17.0580  -32.6350 C   0  0  0  0  0  0  0  0  0  0  0  0
   -7.4473   16.2723  -32.1361 H   0  0  0  0  0  0  0  0  0  0  0  0
   -6.4800   18.2010  -31.9260 C   0  0  0  0  0  0  0  0  0  0  0  0
   -6.7656   18.3113  -30.8695 H   0  0  0  0  0  0  0  0  0  0  0  0
   -8.4380   21.4600  -31.7850 N   0  0  0  0  0  0  0  0  0  0  0  0
   -9.1330   21.6220  -30.5070 C   0  0  0  0  0  0  0  0  0  0  0  0
   -8.4252   21.4570  -29.6812 H   0  0  0  0  0  0  0  0  0  0  0  0
   -9.5441   22.6401  -30.4397 H   0  0  0  0  0  0  0  0  0  0  0  0
   -9.9519   20.8907  -30.4397 H   0  0  0  0  0  0  0  0  0  0  0  0
   -8.8690   20.4170  -32.7130 C   0  0  0  0  0  0  0  0  0  0  0  0
   -9.2287   19.5465  -32.1448 H   0  0  0  0  0  0  0  0  0  0  0  0
   -9.6814   20.8026  -33.3464 H   0  0  0  0  0  0  0  0  0  0  0  0
   -8.0213   20.1166  -33.3464 H   0  0  0  0  0  0  0  0  0  0  0  0
  1  2  1  0
  2  3  2  0
  3  4  1  0
  4  5  1  0
  4  6  1  0
  4  7  1  0
  7  8  1  0
  8  9  1  0
  8 10  1  0
  8 11  1  0
  7 12  1  0
 12 13  1  0
 12 14  1  0
 12 15  1  0
 15 16  1  0
 15 17  1  0
 15 18  1  0
 18 19  1  6
 18 20  1  0
 20 21  1  0
 20 22  1  0
 20 23  1  0
 23 24  2  0
 24 25  1  0
 24 26  1  0
 26 27  1  0
 26 28  2  0
 28 29  1  0
 28 30  1  0
 30 31  1  0
 30 32  2  0
 32 33  1  0
  2 34  1  0
 34 35  1  0
 35 36  1  0
 35 37  1  0
 35 38  1  0
 34 39  1  0
 39 40  1  0
 39 41  1  0
 39 42  1  0
 18  3  1  0
 32 23  1  0
M  CHG  1  18   1
M  END
>  <UniqueID>  (26) 
26

>  <SMILES>  (26) 
CN(C)/C=C1\CN(C)CC[N@H+]1Cc1ccccc1

>  <Energy>  (26) 
57.979941710459826

>  <Genealogy>  (26) 
CN(C)C=C1CN(C)CC[NH+]1Cc1ccccc1 (protonated)
CN(C)C=C1CN(C)CC[N@H+]1Cc1ccccc1 (chirality)
CN(C)/C=C1\CN(C)CC[N@H+]1Cc1ccccc1 (cis-trans isomerization)
CN(C)/C=C1\CN(C)CC[N@H+]1Cc1ccccc1 (3D coordinates assigned)
CN(C)/C=C1\CN(C)CC[N@H+]1Cc1ccccc1 (nonaromatic ring conformer: 57.979941710459826 kcal/mol)

>  <smiles>  (26) 
CN(C)C=C1CN(C)CCN1Cc1ccccc1

>  <score_type>  (26) 
oracle

>  <origin>  (26) 
adg

>  <m_score__min__energy>  (26) 
-5.8399999999999999

>  <m_primary>  (26) 
energy

$$$$
26:0
     RDKit          3D

 54 57  0  0  0  0  0  0  0  0999 V2000
   -8.0740   19.6790  -32.6900 C   0  0  0  0  0  0  0  0  0  0  0  0
   -7.9280   21.0950  -32.7230 O   0  0  0  0  0  0  0  0  0  0  0  0
   -6.9070   21.8070  -32.0770 C   0  0  0  0  0  0  0  0  0  0  0  0
   -7.2620   22.9080  -31.2950 C   0  0  0  0  0  0  0  0  0  0  0  0
   -6.2870   23.6480  -30.6210 C   0  0  0  0  0  0  0  0  0  0  0  0
   -4.9240   23.2960  -30.7100 C   0  0  0  0  0  0  0  0  0  0  0  0
   -3.9140   24.0420  -29.9940 N   0  0  0  0  0  0  0  0  0  0  0  0
   -3.7980   24.0880  -28.5320 C   0  0  0  0  0  0  0  0  0  0  0  0
   -2.6000   24.8920  -28.1290 C   0  0  0  0  0  0  0  0  0  0  0  0
   -2.1130   25.0310  -26.8440 C   0  0  0  0  0  0  0  0  0  0  0  0
   -1.0130   25.8560  -26.9520 C   0  0  0  0  0  0  0  0  0  0  0  0
   -0.8910   26.1540  -28.2960 C   0  0  0  0  0  0  0  0  0  0  0  0
   -1.8490   25.5610  -28.9710 O   0  0  0  0  0  0  0  0  0  0  0  0
   -4.5630   22.1830  -31.5060 C   0  0  0  0  0  0  0  0  0  0  0  0
   -3.1590   21.7470  -31.6290 C   0  0  0  0  0  0  0  0  0  0  0  0
   -2.5890   21.8650  -32.7490 O   0  0  0  0  0  0  0  0  0  0  0  0
   -2.4390   21.2230  -30.4900 N   0  0  0  0  0  0  0  0  0  0  0  0
   -3.1040   21.1480  -29.1760 C   0  0  0  0  0  0  0  0  0  0  0  0
   -2.1620   20.6000  -28.1010 C   0  0  0  0  0  0  0  0  0  0  0  0
   -0.8670   21.2870  -28.2020 N   0  0  0  0  0  0  0  0  0  0  0  0
   -0.3320   22.0230  -27.0820 C   0  0  0  0  0  0  0  0  0  0  0  0
   -0.8940   21.8850  -25.8010 C   0  0  0  0  0  0  0  0  0  0  0  0
   -0.3970   22.6280  -24.7260 C   0  0  0  0  0  0  0  0  0  0  0  0
    0.6770   23.5050  -24.9150 C   0  0  0  0  0  0  0  0  0  0  0  0
    1.2570   23.6330  -26.1770 C   0  0  0  0  0  0  0  0  0  0  0  0
    0.7640   22.8880  -27.2530 C   0  0  0  0  0  0  0  0  0  0  0  0
   -0.1770   21.3260  -29.5020 C   0  0  0  0  0  0  0  0  0  0  0  0
   -1.0490   20.7500  -30.6270 C   0  0  0  0  0  0  0  0  0  0  0  0
   -5.5510   21.4530  -32.1850 C   0  0  0  0  0  0  0  0  0  0  0  0
   -8.1091   19.3383  -31.6447 H   0  0  0  0  0  0  0  0  0  0  0  0
   -9.0062   19.3945  -33.1999 H   0  0  0  0  0  0  0  0  0  0  0  0
   -7.2194   19.2103  -33.1999 H   0  0  0  0  0  0  0  0  0  0  0  0
   -8.3202   23.1958  -31.2087 H   0  0  0  0  0  0  0  0  0  0  0  0
   -6.5859   24.5152  -30.0139 H   0  0  0  0  0  0  0  0  0  0  0  0
   -3.1700   24.5520  -30.5270 H   0  0  0  0  0  0  0  0  0  0  0  0
   -4.7031   24.5500  -28.1108 H   0  0  0  0  0  0  0  0  0  0  0  0
   -3.6848   23.0626  -28.1503 H   0  0  0  0  0  0  0  0  0  0  0  0
   -2.5177   24.5785  -25.9267 H   0  0  0  0  0  0  0  0  0  0  0  0
   -0.3648   26.2056  -26.1349 H   0  0  0  0  0  0  0  0  0  0  0  0
   -0.1093   26.7918  -28.7344 H   0  0  0  0  0  0  0  0  0  0  0  0
   -3.4322   22.1563  -28.8834 H   0  0  0  0  0  0  0  0  0  0  0  0
   -3.9630   20.4663  -29.2623 H   0  0  0  0  0  0  0  0  0  0  0  0
   -2.5962   20.7765  -27.1058 H   0  0  0  0  0  0  0  0  0  0  0  0
   -2.0208   19.5190  -28.2476 H   0  0  0  0  0  0  0  0  0  0  0  0
   -1.7302   21.1879  -25.6433 H   0  0  0  0  0  0  0  0  0  0  0  0
   -0.8511   22.5230  -23.7296 H   0  0  0  0  0  0  0  0  0  0  0  0
    1.0634   24.0927  -24.0693 H   0  0  0  0  0  0  0  0  0  0  0  0
    2.1027   24.3204  -26.3261 H   0  0  0  0  0  0  0  0  0  0  0  0
    1.2374   22.9792  -28.2417 H   0  0  0  0  0  0  0  0  0  0  0  0
    0.0708   22.3704  -29.7426 H   0  0  0  0  0  0  0  0  0  0  0  0
    0.7324   20.7119  -29.4253 H   0  0  0  0  0  0  0  0  0  0  0  0
   -0.6491   21.0752  -31.5988 H   0  0  0  0  0  0  0  0  0  0  0  0
   -1.0366   19.6519  -30.5629 H   0  0  0  0  0  0  0  0  0  0  0  0
   -5.2609   20.5944  -32.8085 H   0  0  0  0  0  0  0  0  0  0  0  0
  1  2  1  0
  2  3  1  0
  3  4  2  0
  4  5  1  0
  5  6  2  0
  6  7  1  0
  7  8  1  0
  8  9  1  0
  9 10  2  0
 10 11  1  0
 11 12  2  0
 12 13  1  0
  6 14  1  0
 14 15  1  0
 15 16  2  0
 15 17  1  0
 17 18  1  0
 18 19  1  0
 19 20  1  0
 20 21  1  0
 21 22  2  0
 22 23  1  0
 23 24  2  0
 24 25  1  0
 25 26  2  0
 20 27  1  0
 27 28  1  0
 14 29  2  0
 29  3  1  0
 13  9  1  0
 28 17  1  0
 26 21  1  0
  1 30  1  0
  1 31  1  0
  1 32  1  0
  4 33  1  0
  5 34  1  0
  7 35  1  0
  8 36  1  0
  8 37  1  0
 10 38  1  0
 11 39  1  0
 12 40  1  0
 18 41  1  0
 18 42  1  0
 19 43  1  0
 19 44  1  0
 22 45  1  0
 23 46  1  0
 24 47  1  0
 25 48  1  0
 26 49  1  0
 27 50  1  0
 27 51  1  0
 28 52  1  0
 28 53  1  0
 29 54  1  0
M  END
>  <UniqueID>  (27) 
27

>  <SMILES>  (27) 
COc1ccc(NCc2ccco2)c(C(=O)N2CCN(c3ccccc3)CC2)c1

>  <Energy>  (27) 
93.04624965887294

>  <Genealogy>  (27) 
COc1ccc(NCc2ccco2)c(C(=O)N2CCN(c3ccccc3)CC2)c1 (3D coordinates assigned)
COc1ccc(NCc2ccco2)c(C(=O)N2CCN(c3ccccc3)CC2)c1 (nonaromatic ring conformer: 93.04624965887294 kcal/mol)

>  <smiles>  (27) 
COc1ccc(NCc2ccco2)c(C(=O)N2CCN(c3ccccc3)CC2)c1

>  <score_type>  (27) 
oracle

>  <origin>  (27) 
adg

>  <m_score__min__energy>  (27) 
-9.0800000000000001

>  <m_primary>  (27) 
energy

$$$$
27:0
     RDKit          3D

 21 23  0  0  0  0  0  0  0  0999 V2000
   -4.9630   19.2830  -31.6780 F   0  0  0  0  0  0  0  0  0  0  0  0
   -5.9880   19.3310  -32.6080 C   0  0  0  0  0  0  0  0  0  0  0  0
   -6.5940   18.0880  -32.6520 F   0  0  0  0  0  0  0  0  0  0  0  0
   -5.4410   19.6120  -33.8470 F   0  0  0  0  0  0  0  0  0  0  0  0
   -7.0180   20.3840  -32.2580 C   0  0  0  0  0  0  0  0  0  0  0  0
   -8.3950   20.0970  -32.3360 C   0  0  0  0  0  0  0  0  0  0  0  0
   -9.3490   21.0650  -32.0140 C   0  0  0  0  0  0  0  0  0  0  0  0
   -8.9560   22.3400  -31.6090 C   0  0  0  0  0  0  0  0  0  0  0  0
   -7.5980   22.6610  -31.5190 C   0  0  0  0  0  0  0  0  0  0  0  0
   -7.1880   23.9490  -31.1110 C   0  0  0  0  0  0  0  0  0  0  0  0
   -5.8220   24.1840  -31.0500 C   0  0  0  0  0  0  0  0  0  0  0  0
   -5.1560   25.2920  -30.7000 N   0  0  0  0  0  0  0  0  0  0  0  0
   -3.8640   24.9780  -30.8160 N   0  0  0  0  0  0  0  0  0  0  0  0
   -3.6850   23.7200  -31.2210 N   0  0  0  0  0  0  0  0  0  0  0  0
   -4.9220   23.2290  -31.3660 C   0  0  0  0  0  0  0  0  0  0  0  0
   -5.2770   21.9850  -31.7620 N   0  0  0  0  0  0  0  0  0  0  0  0
   -6.6100   21.6730  -31.8490 C   0  0  0  0  0  0  0  0  0  0  0  0
   -8.7234   19.0968  -32.6549 H   0  0  0  0  0  0  0  0  0  0  0  0
  -10.4192   20.8195  -32.0805 H   0  0  0  0  0  0  0  0  0  0  0  0
   -9.7160   23.0951  -31.3597 H   0  0  0  0  0  0  0  0  0  0  0  0
   -7.9181   24.7303  -30.8533 H   0  0  0  0  0  0  0  0  0  0  0  0
  1  2  1  0
  2  3  1  0
  2  4  1  0
  2  5  1  0
  5  6  2  0
  6  7  1  0
  7  8  2  0
  8  9  1  0
  9 10  2  0
 10 11  1  0
 11 12  1  0
 12 13  2  0
 13 14  1  0
 14 15  1  0
 15 16  1  0
 16 17  2  0
 17  5  1  0
 17  9  1  0
 15 11  2  0
  6 18  1  0
  7 19  1  0
  8 20  1  0
 10 21  1  0
M  CHG  1  14  -1
M  END
>  <UniqueID>  (28) 
28

>  <SMILES>  (28) 
FC(F)(F)c1cccc2cc3nn[n-]c3nc12

>  <Energy>  (28) 
73.2693955747783

>  <Genealogy>  (28) 
FC(F)(F)c1cccc2cc3nn[n-]c3nc12 (protonated)
FC(F)(F)c1cccc2cc3nn[n-]c3nc12 (3D coordinates assigned)
FC(F)(F)c1cccc2cc3nn[n-]c3nc12 (optimized conformer: 73.2693955747783 kcal/mol)

>  <smiles>  (28) 
FC(F)(F)c1cccc2cc3nn[nH]c3nc12

>  <score_type>  (28) 
oracle

>  <origin>  (28) 
adg

>  <m_score__min__energy>  (28) 
-8.1500000000000004

>  <m_primary>  (28) 
energy

$$$$
28:0
     RDKit          3D

 36 40  0  0  0  0  0  0  0  0999 V2000
   -1.5230   17.9980  -33.7680 C   0  0  0  0  0  0  0  0  0  0  0  0
   -2.9300   17.5590  -33.7300 N   0  0  0  0  0  0  0  0  0  0  0  0
   -3.1760   16.2200  -33.8180 C   0  0  0  0  0  0  0  0  0  0  0  0
   -4.4780   15.7240  -33.8680 C   0  0  0  0  0  0  0  0  0  0  0  0
   -4.6830   14.3460  -34.0470 C   0  0  0  0  0  0  0  0  0  0  0  0
   -5.9710   13.8420  -34.2130 C   0  0  0  0  0  0  0  0  0  0  0  0
   -7.0550   14.7140  -34.2390 C   0  0  0  0  0  0  0  0  0  0  0  0
   -6.8630   16.0840  -34.0490 C   0  0  0  0  0  0  0  0  0  0  0  0
   -5.5750   16.6130  -33.7820 C   0  0  0  0  0  0  0  0  0  0  0  0
   -5.3210   17.9910  -33.5140 C   0  0  0  0  0  0  0  0  0  0  0  0
   -6.3150   18.9420  -33.1440 C   0  0  0  0  0  0  0  0  0  0  0  0
   -7.9280   18.7120  -32.6630 S   0  0  0  0  0  0  0  0  0  0  0  0
   -8.2560   20.3240  -32.3460 C   0  0  0  0  0  0  0  0  0  0  0  0
   -9.4500   20.8850  -31.9020 C   0  0  0  0  0  0  0  0  0  0  0  0
   -9.4890   22.2690  -31.6800 C   0  0  0  0  0  0  0  0  0  0  0  0
   -8.3430   23.0560  -31.9000 C   0  0  0  0  0  0  0  0  0  0  0  0
   -7.1470   22.4670  -32.3430 C   0  0  0  0  0  0  0  0  0  0  0  0
   -7.1160   21.0820  -32.5700 C   0  0  0  0  0  0  0  0  0  0  0  0
   -6.0190   20.3040  -32.9920 C   0  0  0  0  0  0  0  0  0  0  0  0
   -4.7220   20.7640  -33.1860 C   0  0  0  0  0  0  0  0  0  0  0  0
   -3.7050   19.8490  -33.4530 C   0  0  0  0  0  0  0  0  0  0  0  0
   -3.9660   18.4570  -33.5770 C   0  0  0  0  0  0  0  0  0  0  0  0
   -1.1476   18.1151  -32.7407 H   0  0  0  0  0  0  0  0  0  0  0  0
   -0.9183   17.2458  -34.2958 H   0  0  0  0  0  0  0  0  0  0  0  0
   -1.4534   18.9606  -34.2958 H   0  0  0  0  0  0  0  0  0  0  0  0
   -2.3301   15.5176  -33.8502 H   0  0  0  0  0  0  0  0  0  0  0  0
   -3.8221   13.6613  -34.0561 H   0  0  0  0  0  0  0  0  0  0  0  0
   -6.1304   12.7592  -34.3231 H   0  0  0  0  0  0  0  0  0  0  0  0
   -8.0685   14.3221  -34.4101 H   0  0  0  0  0  0  0  0  0  0  0  0
   -7.7255   16.7642  -34.1075 H   0  0  0  0  0  0  0  0  0  0  0  0
  -10.3386   20.2598  -31.7300 H   0  0  0  0  0  0  0  0  0  0  0  0
  -10.4194   22.7418  -31.3324 H   0  0  0  0  0  0  0  0  0  0  0  0
   -8.3842   24.1410  -31.7236 H   0  0  0  0  0  0  0  0  0  0  0  0
   -6.2496   23.0810  -32.5093 H   0  0  0  0  0  0  0  0  0  0  0  0
   -4.5001   21.8399  -33.1294 H   0  0  0  0  0  0  0  0  0  0  0  0
   -2.6738   20.2134  -33.5708 H   0  0  0  0  0  0  0  0  0  0  0  0
  1  2  1  0
  2  3  2  0
  3  4  1  0
  4  5  2  0
  5  6  1  0
  6  7  2  0
  7  8  1  0
  8  9  2  0
  9 10  1  0
 10 11  2  0
 11 12  1  0
 12 13  1  0
 13 14  2  0
 14 15  1  0
 15 16  2  0
 16 17  1  0
 17 18  2  0
 18 19  1  0
 19 20  2  0
 20 21  1  0
 21 22  2  0
 22  2  1  0
  9  4  1  0
 22 10  1  0
 19 11  1  0
 18 13  1  0
  1 23  1  0
  1 24  1  0
  1 25  1  0
  3 26  1  0
  5 27  1  0
  6 28  1  0
  7 29  1  0
  8 30  1  0
 14 31  1  0
 15 32  1  0
 16 33  1  0
 17 34  1  0
 20 35  1  0
 21 36  1  0
M  CHG  1   2   1
M  END
>  <UniqueID>  (29) 
29

>  <SMILES>  (29) 
C[n+]1cc2ccccc2c2c3sc4ccccc4c3ccc21

>  <Energy>  (29) 
102.60838406755092

>  <Genealogy>  (29) 
C[n+]1cc2ccccc2c2c3sc4ccccc4c3ccc21 (3D coordinates assigned)
C[n+]1cc2ccccc2c2c3sc4ccccc4c3ccc21 (optimized conformer: 102.60838406755092 kcal/mol)

>  <smiles>  (29) 
C[n+]1cc2ccccc2c2c3sc4ccccc4c3ccc21

>  <score_type>  (29) 
oracle

>  <origin>  (29) 
adg

>  <m_score__min__energy>  (29) 
-8.2200000000000006

>  <m_primary>  (29) 
energy

$$$$
29:0
     RDKit          3D

 47 49  0  0  0  0  0  0  0  0999 V2000
   -1.7150   15.4000  -35.6990 C   0  0  0  0  0  0  0  0  0  0  0  0
   -1.8220   16.6730  -34.9140 C   0  0  0  0  0  0  0  0  0  0  0  0
   -0.7630   17.2900  -34.6190 O   0  0  0  0  0  0  0  0  0  0  0  0
   -3.1380   17.2050  -34.4760 C   0  0  0  0  0  0  0  0  0  0  0  0
   -4.1090   17.4390  -35.3610 C   0  0  0  0  0  0  0  0  0  0  0  0
   -5.4660   17.8070  -34.8620 C   0  0  0  0  0  0  0  0  0  0  0  0
   -5.3810   18.9140  -33.7760 C   0  0  1  0  0  0  0  0  0  0  0  0
   -6.7210   19.1330  -33.0410 C   0  0  0  0  0  0  0  0  0  0  0  0
   -7.4420   18.0190  -32.5570 C   0  0  0  0  0  0  0  0  0  0  0  0
   -8.6350   18.1820  -31.8500 C   0  0  0  0  0  0  0  0  0  0  0  0
   -9.1260   19.4590  -31.5870 C   0  0  0  0  0  0  0  0  0  0  0  0
   -8.4180   20.5790  -32.0230 C   0  0  0  0  0  0  0  0  0  0  0  0
   -9.0780   22.3300  -31.6370 Br  0  0  0  0  0  0  0  0  0  0  0  0
   -7.2220   20.4220  -32.7320 C   0  0  0  0  0  0  0  0  0  0  0  0
   -4.2350   18.7010  -32.8170 N   0  0  2  0  0  0  0  0  0  0  0  0
   -3.1430   20.0840  -32.7840 S   0  0  0  0  0  0  0  0  0  0  0  0
   -2.7880   20.4510  -34.1980 O   0  0  0  0  0  0  0  0  0  0  0  0
   -1.8680   19.7400  -32.0650 O   0  0  0  0  0  0  0  0  0  0  0  0
   -3.8560   21.4910  -31.9880 C   0  0  0  0  0  0  0  0  0  0  0  0
   -4.7680   22.3050  -32.6730 C   0  0  0  0  0  0  0  0  0  0  0  0
   -5.3550   23.4000  -32.0320 C   0  0  0  0  0  0  0  0  0  0  0  0
   -5.0220   23.7030  -30.7030 C   0  0  0  0  0  0  0  0  0  0  0  0
   -5.6930   24.8450  -29.9980 C   0  0  0  0  0  0  0  0  0  0  0  0
   -4.1100   22.8870  -30.0190 C   0  0  0  0  0  0  0  0  0  0  0  0
   -3.5210   21.7940  -30.6610 C   0  0  0  0  0  0  0  0  0  0  0  0
   -3.4590   17.4490  -33.0180 C   0  0  0  0  0  0  0  0  0  0  0  0
   -1.6434   14.5476  -35.0074 H   0  0  0  0  0  0  0  0  0  0  0  0
   -2.6066   15.2840  -36.3328 H   0  0  0  0  0  0  0  0  0  0  0  0
   -0.8166   15.4344  -36.3328 H   0  0  0  0  0  0  0  0  0  0  0  0
   -3.9121   17.3618  -36.4405 H   0  0  0  0  0  0  0  0  0  0  0  0
   -6.0707   18.1752  -35.7039 H   0  0  0  0  0  0  0  0  0  0  0  0
   -5.9281   16.9142  -34.4155 H   0  0  0  0  0  0  0  0  0  0  0  0
   -5.1667   19.8478  -34.3165 H   0  0  0  0  0  0  0  0  0  0  0  0
   -7.0568   17.0051  -32.7403 H   0  0  0  0  0  0  0  0  0  0  0  0
   -9.1892   17.2989  -31.4994 H   0  0  0  0  0  0  0  0  0  0  0  0
  -10.0702   19.5838  -31.0366 H   0  0  0  0  0  0  0  0  0  0  0  0
   -6.6623   21.3124  -33.0543 H   0  0  0  0  0  0  0  0  0  0  0  0
   -4.6060   18.6240  -31.8410 H   0  0  0  0  0  0  0  0  0  0  0  0
   -5.0231   22.0815  -33.7194 H   0  0  0  0  0  0  0  0  0  0  0  0
   -6.0806   24.0264  -32.5715 H   0  0  0  0  0  0  0  0  0  0  0  0
   -5.6101   24.7039  -28.9102 H   0  0  0  0  0  0  0  0  0  0  0  0
   -5.2060   25.7891  -30.2835 H   0  0  0  0  0  0  0  0  0  0  0  0
   -6.7548   24.8791  -30.2835 H   0  0  0  0  0  0  0  0  0  0  0  0
   -3.8566   23.1081  -28.9716 H   0  0  0  0  0  0  0  0  0  0  0  0
   -2.7923   21.1697  -30.1232 H   0  0  0  0  0  0  0  0  0  0  0  0
   -2.5168   17.5217  -32.4549 H   0  0  0  0  0  0  0  0  0  0  0  0
   -4.0737   16.6092  -32.6619 H   0  0  0  0  0  0  0  0  0  0  0  0
  1  2  1  0
  2  3  2  0
  2  4  1  0
  4  5  2  0
  5  6  1  0
  6  7  1  0
  7  8  1  0
  8  9  2  0
  9 10  1  0
 10 11  2  0
 11 12  1  0
 12 13  1  0
 12 14  2  0
  7 15  1  0
 15 16  1  0
 16 17  2  0
 16 18  2  0
 16 19  1  0
 19 20  2  0
 20 21  1  0
 21 22  2  0
 22 23  1  0
 22 24  1  0
 24 25  2  0
 15 26  1  0
 26  4  1  0
 14  8  1  0
 25 19  1  0
  1 27  1  0
  1 28  1  0
  1 29  1  0
  5 30  1  0
  6 31  1  0
  6 32  1  0
  7 33  1  6
  9 34  1  0
 10 35  1  0
 11 36  1  0
 14 37  1  0
 15 38  1  1
 20 39  1  0
 21 40  1  0
 23 41  1  0
 23 42  1  0
 23 43  1  0
 24 44  1  0
 25 45  1  0
 26 46  1  0
 26 47  1  0
M  CHG  1  15   1
M  END
>  <UniqueID>  (30) 
30

>  <SMILES>  (30) 
CC(=O)C1=CC[C@@H](c2cccc(Br)c2)[N@H+](S(=O)(=O)c2ccc(C)cc2)C1

>  <Energy>  (30) 
61.47177625719997

>  <Genealogy>  (30) 
CC(=O)C1=CCC(c2cccc(Br)c2)[NH+](S(=O)(=O)c2ccc(C)cc2)C1 (protonated)
CC(=O)C1=CC[C@@H](c2cccc(Br)c2)[N@H+](S(=O)(=O)c2ccc(C)cc2)C1 (chirality)
CC(=O)C1=CC[C@@H](c2cccc(Br)c2)[N@H+](S(=O)(=O)c2ccc(C)cc2)C1 (3D coordinates assigned)
CC(=O)C1=CC[C@@H](c2cccc(Br)c2)[N@H+](S(=O)(=O)c2ccc(C)cc2)C1 (nonaromatic ring conformer: 61.47177625719997 kcal/mol)

>  <smiles>  (30) 
CC(=O)C1=CCC(c2cccc(Br)c2)N(S(=O)(=O)c2ccc(C)cc2)C1

>  <score_type>  (30) 
oracle

>  <origin>  (30) 
adg

>  <m_score__min__energy>  (30) 
-9.2400000000000002

>  <m_primary>  (30) 
energy

$$$$
30:0
     RDKit          3D

 43 45  0  0  0  0  0  0  0  0999 V2000
   -6.5980   24.3750  -30.7840 C   0  0  0  0  0  0  0  0  0  0  0  0
   -5.4550   23.6490  -31.3230 N   0  0  0  0  0  0  0  0  0  0  0  0
   -5.4970   22.7450  -32.3180 C   0  0  0  0  0  0  0  0  0  0  0  0
   -4.2260   22.2300  -32.4750 C   0  0  0  0  0  0  0  0  0  0  0  0
   -3.7820   21.1850  -33.4660 C   0  0  0  0  0  0  0  0  0  0  0  0
   -4.0410   19.7980  -33.0180 N   0  0  0  0  0  0  0  0  0  0  0  0
   -4.7540   18.9870  -34.0300 C   0  0  0  0  0  0  0  0  0  0  0  0
   -5.2650   17.6780  -33.4160 C   0  0  0  0  0  0  0  0  0  0  0  0
   -6.2100   17.9100  -32.2900 N   0  0  0  0  0  0  0  0  0  0  0  0
   -7.6150   17.6870  -32.6880 C   0  0  0  0  0  0  0  0  0  0  0  0
   -8.4990   18.7450  -32.0970 C   0  0  0  0  0  0  0  0  0  0  0  0
   -8.9940   18.5670  -30.9500 O   0  0  0  0  0  0  0  0  0  0  0  0
   -8.7900   19.9420  -32.8300 N   0  0  0  0  0  0  0  0  0  0  0  0
   -9.7060   20.9500  -32.3070 C   0  0  0  0  0  0  0  0  0  0  0  0
   -9.0560   22.2990  -32.0490 C   0  0  0  0  0  0  0  0  0  0  0  0
   -9.3810   21.3760  -30.8850 C   0  0  0  0  0  0  0  0  0  0  0  0
   -6.0600   19.2390  -31.6520 C   0  0  0  0  0  0  0  0  0  0  0  0
   -4.5940   19.6950  -31.6470 C   0  0  0  0  0  0  0  0  0  0  0  0
   -3.4540   22.8760  -31.5250 C   0  0  0  0  0  0  0  0  0  0  0  0
   -4.2300   23.7280  -30.8280 N   0  0  0  0  0  0  0  0  0  0  0  0
   -6.5618   24.3520  -29.6848 H   0  0  0  0  0  0  0  0  0  0  0  0
   -6.5659   25.4186  -31.1302 H   0  0  0  0  0  0  0  0  0  0  0  0
   -7.5290   23.9023  -31.1302 H   0  0  0  0  0  0  0  0  0  0  0  0
   -6.3860   22.4658  -32.9026 H   0  0  0  0  0  0  0  0  0  0  0  0
   -4.3190   21.3514  -34.4115 H   0  0  0  0  0  0  0  0  0  0  0  0
   -2.6930   21.2898  -33.5805 H   0  0  0  0  0  0  0  0  0  0  0  0
   -5.6085   19.5620  -34.4164 H   0  0  0  0  0  0  0  0  0  0  0  0
   -4.0556   18.7456  -34.8448 H   0  0  0  0  0  0  0  0  0  0  0  0
   -5.7809   17.0995  -34.1965 H   0  0  0  0  0  0  0  0  0  0  0  0
   -4.3964   17.1330  -33.0178 H   0  0  0  0  0  0  0  0  0  0  0  0
   -7.6911   17.7219  -33.7848 H   0  0  0  0  0  0  0  0  0  0  0  0
   -7.9392   16.7030  -32.3183 H   0  0  0  0  0  0  0  0  0  0  0  0
   -8.4230   20.0490  -33.8020 H   0  0  0  0  0  0  0  0  0  0  0  0
  -10.6079   20.6110  -32.8378 H   0  0  0  0  0  0  0  0  0  0  0  0
   -8.0090   22.4697  -32.3399 H   0  0  0  0  0  0  0  0  0  0  0  0
   -9.2974   23.3408  -32.3066 H   0  0  0  0  0  0  0  0  0  0  0  0
   -8.5691   20.8790  -30.3338 H   0  0  0  0  0  0  0  0  0  0  0  0
   -9.9549   21.4734  -29.9516 H   0  0  0  0  0  0  0  0  0  0  0  0
   -6.6614   19.9731  -32.2083 H   0  0  0  0  0  0  0  0  0  0  0  0
   -6.4029   19.1636  -30.6096 H   0  0  0  0  0  0  0  0  0  0  0  0
   -4.5302   20.6808  -31.1631 H   0  0  0  0  0  0  0  0  0  0  0  0
   -4.0061   18.9443  -31.0985 H   0  0  0  0  0  0  0  0  0  0  0  0
   -2.3772   22.7185  -31.3647 H   0  0  0  0  0  0  0  0  0  0  0  0
  1  2  1  0
  2  3  1  0
  3  4  2  0
  4  5  1  0
  5  6  1  0
  6  7  1  0
  7  8  1  0
  8  9  1  0
  9 10  1  0
 10 11  1  0
 11 12  2  0
 11 13  1  0
 13 14  1  0
 14 15  1  0
 15 16  1  0
  9 17  1  0
 17 18  1  0
  4 19  1  0
 19 20  2  0
 20  2  1  0
 18  6  1  0
 16 14  1  0
  1 21  1  0
  1 22  1  0
  1 23  1  0
  3 24  1  0
  5 25  1  0
  5 26  1  0
  7 27  1  0
  7 28  1  0
  8 29  1  0
  8 30  1  0
 10 31  1  0
 10 32  1  0
 13 33  1  0
 14 34  1  0
 15 35  1  0
 15 36  1  0
 16 37  1  0
 16 38  1  0
 17 39  1  0
 17 40  1  0
 18 41  1  0
 18 42  1  0
 19 43  1  0
M  END
>  <UniqueID>  (31) 
31

>  <SMILES>  (31) 
Cn1cc(CN2CCN(CC(=O)NC3CC3)CC2)cn1

>  <Energy>  (31) 
346.6990143743119

>  <Genealogy>  (31) 
Cn1cc(CN2CCN(CC(=O)NC3CC3)CC2)cn1 (3D coordinates assigned)
Cn1cc(CN2CCN(CC(=O)NC3CC3)CC2)cn1 (nonaromatic ring conformer: 346.6990143743119 kcal/mol)

>  <smiles>  (31) 
Cn1cc(CN2CCN(CC(=O)NC3CC3)CC2)cn1

>  <score_type>  (31) 
oracle

>  <origin>  (31) 
adg

>  <m_score__min__energy>  (31) 
-7.6200000000000001

>  <m_primary>  (31) 
energy

$$$$
31:0
     RDKit          3D

 50 49  0  0  0  0  0  0  0  0999 V2000
   -4.1960   23.1940  -28.7490 C   0  0  0  0  0  0  0  0  0  0  0  0
   -3.8320   21.9650  -29.5730 C   0  0  0  0  0  0  0  0  0  0  0  0
   -4.1820   22.1840  -30.9830 N   0  0  0  0  0  0  0  0  0  0  0  0
   -3.0580   21.8610  -31.8760 C   0  0  0  0  0  0  0  0  0  0  0  0
   -3.5460   21.5610  -33.3030 C   0  0  0  0  0  0  0  0  0  0  0  0
   -4.1350   20.1430  -33.4690 C   0  0  0  0  0  0  0  0  0  0  0  0
   -5.3730   19.9390  -32.6930 N   0  0  0  0  0  0  0  0  0  0  0  0
   -5.4950   18.5690  -32.1690 C   0  0  0  0  0  0  0  0  0  0  0  0
   -6.9050   18.3450  -31.6060 C   0  0  0  0  0  0  0  0  0  0  0  0
   -7.9990   18.4310  -32.6860 C   0  0  0  0  0  0  0  0  0  0  0  0
   -8.2780   19.8240  -33.0780 N   0  0  0  0  0  0  0  0  0  0  0  0
   -9.3820   20.4080  -32.2940 C   0  0  0  0  0  0  0  0  0  0  0  0
   -9.0110   21.7760  -31.6940 C   0  0  0  0  0  0  0  0  0  0  0  0
   -7.5550   21.7940  -31.2220 C   0  0  0  0  0  0  0  0  0  0  0  0
   -6.6930   22.3140  -32.2920 N   0  0  0  0  0  0  0  0  0  0  0  0
   -6.5980   23.7810  -32.2690 C   0  0  0  0  0  0  0  0  0  0  0  0
   -6.4680   24.3410  -30.8490 C   0  0  0  0  0  0  0  0  0  0  0  0
   -4.1243   22.9520  -27.6783 H   0  0  0  0  0  0  0  0  0  0  0  0
   -3.5021   24.0137  -28.9869 H   0  0  0  0  0  0  0  0  0  0  0  0
   -5.2244   23.5035  -28.9869 H   0  0  0  0  0  0  0  0  0  0  0  0
   -2.7511   21.7782  -29.4907 H   0  0  0  0  0  0  0  0  0  0  0  0
   -4.3905   21.0969  -29.1928 H   0  0  0  0  0  0  0  0  0  0  0  0
   -4.9700   21.5330  -31.2150 H   0  0  0  0  0  0  0  0  0  0  0  0
   -2.3671   22.7164  -31.9061 H   0  0  0  0  0  0  0  0  0  0  0  0
   -2.5519   20.9652  -31.4868 H   0  0  0  0  0  0  0  0  0  0  0  0
   -4.3233   22.2935  -33.5661 H   0  0  0  0  0  0  0  0  0  0  0  0
   -2.6694   21.6260  -33.9643 H   0  0  0  0  0  0  0  0  0  0  0  0
   -4.3573   19.9781  -34.5336 H   0  0  0  0  0  0  0  0  0  0  0  0
   -3.3879   19.4298  -33.0905 H   0  0  0  0  0  0  0  0  0  0  0  0
   -5.4170   20.6150  -31.8970 H   0  0  0  0  0  0  0  0  0  0  0  0
   -5.3088   17.8507  -32.9810 H   0  0  0  0  0  0  0  0  0  0  0  0
   -4.7583   18.4233  -31.3652 H   0  0  0  0  0  0  0  0  0  0  0  0
   -6.9447   17.3475  -31.1441 H   0  0  0  0  0  0  0  0  0  0  0  0
   -7.0996   19.1419  -30.8731 H   0  0  0  0  0  0  0  0  0  0  0  0
   -7.6672   17.8718  -33.5733 H   0  0  0  0  0  0  0  0  0  0  0  0
   -8.9228   18.0032  -32.2693 H   0  0  0  0  0  0  0  0  0  0  0  0
   -8.5650   19.8370  -34.0850 H   0  0  0  0  0  0  0  0  0  0  0  0
   -7.4160   20.4100  -32.9790 H   0  0  0  0  0  0  0  0  0  0  0  0
  -10.2547   20.5348  -32.9516 H   0  0  0  0  0  0  0  0  0  0  0  0
   -9.6030   19.7237  -31.4616 H   0  0  0  0  0  0  0  0  0  0  0  0
   -9.1502   22.5537  -32.4594 H   0  0  0  0  0  0  0  0  0  0  0  0
   -9.6616   21.9656  -30.8275 H   0  0  0  0  0  0  0  0  0  0  0  0
   -7.4662   22.4389  -30.3353 H   0  0  0  0  0  0  0  0  0  0  0  0
   -7.2422   20.7705  -30.9678 H   0  0  0  0  0  0  0  0  0  0  0  0
   -5.7350   21.9030  -32.1900 H   0  0  0  0  0  0  0  0  0  0  0  0
   -5.7152   24.0860  -32.8501 H   0  0  0  0  0  0  0  0  0  0  0  0
   -7.5267   24.1817  -32.7013 H   0  0  0  0  0  0  0  0  0  0  0  0
   -6.6543   23.5386  -30.1200 H   0  0  0  0  0  0  0  0  0  0  0  0
   -5.4533   24.7401  -30.7037 H   0  0  0  0  0  0  0  0  0  0  0  0
   -7.2031   25.1463  -30.7037 H   0  0  0  0  0  0  0  0  0  0  0  0
  1  2  1  0
  2  3  1  0
  3  4  1  0
  4  5  1  0
  5  6  1  0
  6  7  1  0
  7  8  1  0
  8  9  1  0
  9 10  1  0
 10 11  1  0
 11 12  1  0
 12 13  1  0
 13 14  1  0
 14 15  1  0
 15 16  1  0
 16 17  1  0
  1 18  1  0
  1 19  1  0
  1 20  1  0
  2 21  1  0
  2 22  1  0
  3 23  1  0
  4 24  1  0
  4 25  1  0
  5 26  1  0
  5 27  1  0
  6 28  1  0
  6 29  1  0
  7 30  1  0
  8 31  1  0
  8 32  1  0
  9 33  1  0
  9 34  1  0
 10 35  1  0
 10 36  1  0
 11 37  1  0
 11 38  1  0
 12 39  1  0
 12 40  1  0
 13 41  1  0
 13 42  1  0
 14 43  1  0
 14 44  1  0
 15 45  1  0
 16 46  1  0
 16 47  1  0
 17 48  1  0
 17 49  1  0
 17 50  1  0
M  CHG  1  11   1
M  END
>  <UniqueID>  (32) 
32

>  <SMILES>  (32) 
CCNCCCNCCC[NH2+]CCCNCC

>  <Energy>  (32) 
32.06838618373441

>  <Genealogy>  (32) 
CCNCCCNCCC[NH2+]CCCNCC (protonated)
CCNCCCNCCC[NH2+]CCCNCC (3D coordinates assigned)
CCNCCCNCCC[NH2+]CCCNCC (optimized conformer: 32.06838618373441 kcal/mol)

>  <smiles>  (32) 
CCNCCCNCCCNCCCNCC

>  <score_type>  (32) 
oracle

>  <origin>  (32) 
adg

>  <m_score__min__energy>  (32) 
-2.8300000000000001

>  <m_primary>  (32) 
energy

$$$$
32:0
     RDKit          3D

 69 73  0  0  1  0  0  0  0  0999 V2000
    2.3410   21.7930  -35.4440 C   0  0  0  0  0  0  0  0  0  0  0  0
    0.8780   21.8380  -35.1090 C   0  0  0  0  0  0  0  0  0  0  0  0
    0.2480   22.9050  -35.3420 O   0  0  0  0  0  0  0  0  0  0  0  0
    0.2420   20.6950  -34.5450 N   0  0  0  0  0  0  0  0  0  0  0  0
    1.0330   19.4830  -34.2960 C   0  0  0  0  0  0  0  0  0  0  0  0
    0.0250   18.3290  -34.3740 C   0  0  0  0  0  0  0  0  0  0  0  0
   -0.8790   18.5210  -33.2970 N   0  0  0  0  0  0  0  0  0  0  0  0
   -0.4830   17.9860  -32.0350 C   0  0  0  0  0  0  0  0  0  0  0  0
    0.3360   18.9560  -31.2830 C   0  0  0  0  0  0  0  0  0  0  0  0
   -0.4190   19.9040  -30.4440 C   0  0  0  0  0  0  0  0  0  0  0  0
   -0.8600   19.4840  -29.3480 O   0  0  0  0  0  0  0  0  0  0  0  0
   -0.6230   21.2160  -30.8790 N   0  0  0  0  0  0  0  0  0  0  0  0
   -1.3250   22.2330  -30.1940 C   0  0  0  0  0  0  0  0  0  0  0  0
   -1.0110   22.7110  -28.9430 C   0  0  0  0  0  0  0  0  0  0  0  0
   -1.7670   23.7220  -28.3360 C   0  0  0  0  0  0  0  0  0  0  0  0
   -2.8580   24.2850  -28.9590 C   0  0  0  0  0  0  0  0  0  0  0  0
   -3.1740   23.8090  -30.2130 C   0  0  0  0  0  0  0  0  0  0  0  0
   -4.2560   24.3250  -30.9040 O   0  0  0  0  0  0  0  0  0  0  0  0
   -5.3890   23.5530  -31.1500 C   0  0  0  0  0  0  0  0  0  0  0  0
   -5.2470   22.1920  -30.8670 C   0  0  0  0  0  0  0  0  0  0  0  0
   -6.3410   21.4060  -31.0960 C   0  0  0  0  0  0  0  0  0  0  0  0
   -7.5390   21.9310  -31.5880 C   0  0  0  0  0  0  0  0  0  0  0  0
   -8.7450   21.3240  -31.8760 C   0  0  0  0  0  0  0  0  0  0  0  0
   -8.9330   19.9040  -31.8210 C   0  0  0  0  0  0  0  0  0  0  0  0
   -8.5190   18.9940  -32.6500 C   0  0  0  0  0  0  0  0  0  0  0  0
   -7.1830   18.6510  -33.0100 C   0  0  0  0  0  0  0  0  0  0  0  0
   -6.3120   19.3170  -33.8280 C   0  0  0  0  0  0  0  0  0  0  0  0
   -4.9920   18.9420  -34.0300 C   0  0  0  0  0  0  0  0  0  0  0  0
   -4.4930   17.8390  -33.3900 C   0  0  0  0  0  0  0  0  0  0  0  0
   -5.3520   17.1490  -32.5610 C   0  0  0  0  0  0  0  0  0  0  0  0
   -6.6440   17.5300  -32.3730 C   0  0  0  0  0  0  0  0  0  0  0  0
   -9.5210   22.3420  -32.3110 N   0  0  0  0  0  0  0  0  0  0  0  0
   -8.8660   23.4900  -32.2960 N   0  0  0  0  0  0  0  0  0  0  0  0
   -7.6300   23.2740  -31.8510 C   0  0  0  0  0  0  0  0  0  0  0  0
   -6.5530   24.0940  -31.6330 C   0  0  0  0  0  0  0  0  0  0  0  0
   -2.4290   22.8180  -30.8020 C   0  0  0  0  0  0  0  0  0  0  0  0
   -1.6340   19.7110  -33.2990 C   0  0  0  0  0  0  0  0  0  0  0  0
   -1.1650   20.7780  -34.2390 C   0  0  0  0  0  0  0  0  0  0  0  0
    2.9295   21.7749  -34.5149 H   0  0  0  0  0  0  0  0  0  0  0  0
    2.5550   20.8878  -36.0313 H   0  0  0  0  0  0  0  0  0  0  0  0
    2.6102   22.6833  -36.0313 H   0  0  0  0  0  0  0  0  0  0  0  0
    1.8140   19.3668  -35.0618 H   0  0  0  0  0  0  0  0  0  0  0  0
    1.5477   19.5175  -33.3245 H   0  0  0  0  0  0  0  0  0  0  0  0
   -0.5129   18.3564  -35.3331 H   0  0  0  0  0  0  0  0  0  0  0  0
    0.5270   17.3525  -34.3074 H   0  0  0  0  0  0  0  0  0  0  0  0
   -1.3818   17.7435  -31.4491 H   0  0  0  0  0  0  0  0  0  0  0  0
    0.1181   17.0817  -32.2108 H   0  0  0  0  0  0  0  0  0  0  0  0
    1.0162   18.3909  -30.6288 H   0  0  0  0  0  0  0  0  0  0  0  0
    0.8541   19.5654  -32.0381 H   0  0  0  0  0  0  0  0  0  0  0  0
   -0.2150   21.4760  -31.8110 H   0  0  0  0  0  0  0  0  0  0  0  0
   -0.1472   22.2901  -28.4075 H   0  0  0  0  0  0  0  0  0  0  0  0
   -1.4812   24.0757  -27.3344 H   0  0  0  0  0  0  0  0  0  0  0  0
   -3.4498   25.0778  -28.4782 H   0  0  0  0  0  0  0  0  0  0  0  0
   -4.3050   21.7757  -30.4806 H   0  0  0  0  0  0  0  0  0  0  0  0
   -6.2768   20.3280  -30.8869 H   0  0  0  0  0  0  0  0  0  0  0  0
   -9.5066   19.5343  -30.9583 H   0  0  0  0  0  0  0  0  0  0  0  0
   -9.3082   18.4069  -33.1423 H   0  0  0  0  0  0  0  0  0  0  0  0
   -6.6819   20.2063  -34.3593 H   0  0  0  0  0  0  0  0  0  0  0  0
   -4.3482   19.5286  -34.7019 H   0  0  0  0  0  0  0  0  0  0  0  0
   -3.4507   17.5170  -33.5313 H   0  0  0  0  0  0  0  0  0  0  0  0
   -4.9791   16.2589  -32.0330 H   0  0  0  0  0  0  0  0  0  0  0  0
   -7.2829   16.9389  -31.7004 H   0  0  0  0  0  0  0  0  0  0  0  0
  -10.5120   22.3120  -32.6640 H   0  0  0  0  0  0  0  0  0  0  0  0
   -6.6216   25.1716  -31.8427 H   0  0  0  0  0  0  0  0  0  0  0  0
   -2.7201   22.4700  -31.8041 H   0  0  0  0  0  0  0  0  0  0  0  0
   -2.6688   19.4539  -33.5694 H   0  0  0  0  0  0  0  0  0  0  0  0
   -1.5278   20.1342  -32.2893 H   0  0  0  0  0  0  0  0  0  0  0  0
   -1.7316   20.6892  -35.1776 H   0  0  0  0  0  0  0  0  0  0  0  0
   -1.3323   21.7448  -33.7417 H   0  0  0  0  0  0  0  0  0  0  0  0
  1  2  1  0
  2  3  2  0
  2  4  1  0
  4  5  1  0
  5  6  1  0
  6  7  1  0
  7  8  1  0
  8  9  1  0
  9 10  1  0
 10 11  2  0
 10 12  1  0
 12 13  1  0
 13 14  2  0
 14 15  1  0
 15 16  2  0
 16 17  1  0
 17 18  1  0
 18 19  1  0
 19 20  1  0
 20 21  2  0
 21 22  1  0
 22 23  2  0
 23 24  1  0
 24 25  2  0
 25 26  1  0
 26 27  2  0
 27 28  1  0
 28 29  2  0
 29 30  1  0
 30 31  2  0
 23 32  1  0
 32 33  1  0
 33 34  2  0
 34 35  1  0
 17 36  2  0
  7 37  1  0
 37 38  1  0
 38  4  1  0
 36 13  1  0
 35 19  2  0
 34 22  1  0
 31 26  1  0
  1 39  1  0
  1 40  1  0
  1 41  1  0
  5 42  1  0
  5 43  1  0
  6 44  1  0
  6 45  1  0
  8 46  1  0
  8 47  1  0
  9 48  1  0
  9 49  1  0
 12 50  1  0
 14 51  1  0
 15 52  1  0
 16 53  1  0
 20 54  1  0
 21 55  1  0
 24 56  1  0
 25 57  1  0
 27 58  1  0
 28 59  1  0
 29 60  1  0
 30 61  1  0
 31 62  1  0
 32 63  1  0
 35 64  1  0
 36 65  1  0
 37 66  1  0
 37 67  1  0
 38 68  1  0
 38 69  1  0
M  END
>  <smiles>  (33) 
CC(=O)N1CCN(CCC(=O)Nc2cccc(Oc3ccc4c(C=Cc5ccccc5)[nH]nc4c3)c2)CC1

>  <score_type>  (33) 
oracle

>  <origin>  (33) 
adg

>  <m_score__min__energy>  (33) 
-11.199999999999999

>  <m_primary>  (33) 
energy

$$$$
33:0
     RDKit          3D

 49 49  0  0  1  0  0  0  0  0999 V2000
   -8.9730   22.2940  -31.6530 C   0  0  0  0  0  0  0  0  0  0  0  0
   -7.9650   23.3660  -31.8610 C   0  0  0  0  0  0  0  0  0  0  0  0
   -6.7970   23.3710  -31.1040 N   0  0  0  0  0  0  0  0  0  0  0  0
   -6.0780   22.1320  -31.0110 C   0  0  0  0  0  0  0  0  0  0  0  0
   -5.5950   21.6820  -32.3740 C   0  0  0  0  0  0  0  0  0  0  0  0
   -6.5590   24.2980  -30.0870 C   0  0  0  0  0  0  0  0  0  0  0  0
   -5.8720   25.5700  -30.4000 C   0  0  0  0  0  0  0  0  0  0  0  0
   -4.5680   25.3730  -30.8480 O   0  0  0  0  0  0  0  0  0  0  0  0
   -3.7430   24.4260  -30.3210 C   0  0  0  0  0  0  0  0  0  0  0  0
   -3.1390   23.4310  -30.9700 N   0  0  0  0  0  0  0  0  0  0  0  0
   -2.3340   22.5210  -30.3960 C   0  0  0  0  0  0  0  0  0  0  0  0
   -1.7200   21.4930  -31.1870 N   0  0  0  0  0  0  0  0  0  0  0  0
   -0.6750   20.6870  -30.6410 C   0  0  0  0  0  0  0  0  0  0  0  0
   -2.1930   21.3040  -32.5590 C   0  0  0  0  0  0  0  0  0  0  0  0
   -2.1000   22.5960  -29.0510 N   0  0  0  0  0  0  0  0  0  0  0  0
   -2.7110   23.6100  -28.3580 C   0  0  0  0  0  0  0  0  0  0  0  0
   -2.5460   23.7420  -27.0940 N   0  0  0  0  0  0  0  0  0  0  0  0
   -1.6150   24.6480  -26.4940 C   0  0  0  0  0  0  0  0  0  0  0  0
   -2.2240   25.6890  -25.6020 C   0  0  0  0  0  0  0  0  0  0  0  0
   -0.8820   25.3200  -27.6660 C   0  0  0  0  0  0  0  0  0  0  0  0
   -3.5040   24.4920  -28.9760 N   0  0  0  0  0  0  0  0  0  0  0  0
   -9.1223   22.1353  -30.5748 H   0  0  0  0  0  0  0  0  0  0  0  0
   -9.9257   22.5919  -32.1151 H   0  0  0  0  0  0  0  0  0  0  0  0
   -8.6171   21.3614  -32.1151 H   0  0  0  0  0  0  0  0  0  0  0  0
   -7.6605   23.3169  -32.9169 H   0  0  0  0  0  0  0  0  0  0  0  0
   -8.4875   24.2761  -31.5314 H   0  0  0  0  0  0  0  0  0  0  0  0
   -5.2104   22.2683  -30.3487 H   0  0  0  0  0  0  0  0  0  0  0  0
   -6.7538   21.3638  -30.6071 H   0  0  0  0  0  0  0  0  0  0  0  0
   -4.7951   20.9368  -32.2519 H   0  0  0  0  0  0  0  0  0  0  0  0
   -6.4318   21.2340  -32.9300 H   0  0  0  0  0  0  0  0  0  0  0  0
   -5.2073   22.5483  -32.9300 H   0  0  0  0  0  0  0  0  0  0  0  0
   -7.5379   24.5611  -29.6598 H   0  0  0  0  0  0  0  0  0  0  0  0
   -5.8475   23.7783  -29.4285 H   0  0  0  0  0  0  0  0  0  0  0  0
   -6.4392   26.0944  -31.1832 H   0  0  0  0  0  0  0  0  0  0  0  0
   -5.8226   26.1612  -29.4737 H   0  0  0  0  0  0  0  0  0  0  0  0
   -0.7207   20.7222  -29.5425 H   0  0  0  0  0  0  0  0  0  0  0  0
   -0.7983   19.6478  -30.9800 H   0  0  0  0  0  0  0  0  0  0  0  0
    0.2988   21.0702  -30.9800 H   0  0  0  0  0  0  0  0  0  0  0  0
   -3.2143   20.8959  -32.5418 H   0  0  0  0  0  0  0  0  0  0  0  0
   -2.1933   22.2711  -33.0832 H   0  0  0  0  0  0  0  0  0  0  0  0
   -1.5268   20.6030  -33.0832 H   0  0  0  0  0  0  0  0  0  0  0  0
   -0.9534   24.0796  -25.8238 H   0  0  0  0  0  0  0  0  0  0  0  0
   -2.0615   25.4112  -24.5502 H   0  0  0  0  0  0  0  0  0  0  0  0
   -1.7533   26.6631  -25.8009 H   0  0  0  0  0  0  0  0  0  0  0  0
   -3.3038   25.7561  -25.8009 H   0  0  0  0  0  0  0  0  0  0  0  0
   -0.1242   26.0147  -27.2746 H   0  0  0  0  0  0  0  0  0  0  0  0
   -0.3917   24.5511  -28.2811 H   0  0  0  0  0  0  0  0  0  0  0  0
   -1.6055   25.8751  -28.2811 H   0  0  0  0  0  0  0  0  0  0  0  0
   -3.9590   25.2640  -28.4070 H   0  0  0  0  0  0  0  0  0  0  0  0
  1  2  1  0
  2  3  1  0
  3  4  1  0
  4  5  1  0
  3  6  1  0
  6  7  1  0
  7  8  1  0
  8  9  1  0
  9 10  2  0
 10 11  1  0
 11 12  1  0
 12 13  1  0
 12 14  1  0
 11 15  2  0
 15 16  1  0
 16 17  2  0
 17 18  1  0
 18 19  1  0
 18 20  1  0
 16 21  1  0
 21  9  1  0
  1 22  1  0
  1 23  1  0
  1 24  1  0
  2 25  1  0
  2 26  1  0
  4 27  1  0
  4 28  1  0
  5 29  1  0
  5 30  1  0
  5 31  1  0
  6 32  1  0
  6 33  1  0
  7 34  1  0
  7 35  1  0
 13 36  1  0
 13 37  1  0
 13 38  1  0
 14 39  1  0
 14 40  1  0
 14 41  1  0
 18 42  1  0
 19 43  1  0
 19 44  1  0
 19 45  1  0
 20 46  1  0
 20 47  1  0
 20 48  1  0
 21 49  1  0
M  END
>  <smiles>  (34) 
CCN(CC)CCOc1nc(N(C)C)nc(=NC(C)C)[nH]1

>  <score_type>  (34) 
oracle

>  <origin>  (34) 
adg

>  <m_score__min__energy>  (34) 
-5.7800000000000002

>  <m_primary>  (34) 
energy

$$$$
34:0
     RDKit          3D

 32 33  0  0  0  0  0  0  0  0999 V2000
   -5.7350   18.4470  -34.5820 C   0  0  0  0  0  0  0  0  0  0  0  0
   -4.4300   18.6870  -33.8320 C   0  0  0  0  0  0  0  0  0  0  0  0
   -4.6360   19.5840  -32.7430 O   0  0  0  0  0  0  0  0  0  0  0  0
   -5.0320   20.9190  -32.8990 C   0  0  0  0  0  0  0  0  0  0  0  0
   -4.2340   21.7530  -33.4100 O   0  0  0  0  0  0  0  0  0  0  0  0
   -6.3790   21.3630  -32.4520 C   0  0  0  0  0  0  0  0  0  0  0  0
   -7.4530   20.4510  -32.4870 C   0  0  0  0  0  0  0  0  0  0  0  0
   -8.7300   20.8360  -32.0790 C   0  0  0  0  0  0  0  0  0  0  0  0
   -8.9570   22.1340  -31.6280 C   0  0  0  0  0  0  0  0  0  0  0  0
   -7.9070   23.0530  -31.5800 C   0  0  0  0  0  0  0  0  0  0  0  0
   -6.6100   22.6810  -31.9850 C   0  0  0  0  0  0  0  0  0  0  0  0
   -5.5370   23.5840  -31.9300 O   0  0  0  0  0  0  0  0  0  0  0  0
   -4.7800   24.1400  -30.4990 S   0  0  0  0  0  0  0  0  0  0  0  0
   -3.8810   25.3000  -30.8260 O   0  0  0  0  0  0  0  0  0  0  0  0
   -5.8190   24.5610  -29.4990 O   0  0  0  0  0  0  0  0  0  0  0  0
   -3.8240   22.8340  -29.8300 C   0  0  0  0  0  0  0  0  0  0  0  0
   -2.9230   22.0510  -30.5360 C   0  0  0  0  0  0  0  0  0  0  0  0
   -2.3040   21.0800  -29.7400 C   0  0  0  0  0  0  0  0  0  0  0  0
   -2.7270   21.1090  -28.4170 C   0  0  0  0  0  0  0  0  0  0  0  0
   -2.1230   19.9510  -27.0290 Br  0  0  0  0  0  0  0  0  0  0  0  0
   -3.8660   22.3320  -28.2260 S   0  0  0  0  0  0  0  0  0  0  0  0
   -6.5508   18.2970  -33.8596 H   0  0  0  0  0  0  0  0  0  0  0  0
   -5.9604   19.3187  -35.2139 H   0  0  0  0  0  0  0  0  0  0  0  0
   -5.6355   17.5521  -35.2139 H   0  0  0  0  0  0  0  0  0  0  0  0
   -4.0537   17.7286  -33.4450 H   0  0  0  0  0  0  0  0  0  0  0  0
   -3.6991   19.1306  -34.5241 H   0  0  0  0  0  0  0  0  0  0  0  0
   -7.2821   19.4234  -32.8403 H   0  0  0  0  0  0  0  0  0  0  0  0
   -9.5588   20.1136  -32.1135 H   0  0  0  0  0  0  0  0  0  0  0  0
   -9.9656   22.4357  -31.3090 H   0  0  0  0  0  0  0  0  0  0  0  0
   -8.0941   24.0764  -31.2228 H   0  0  0  0  0  0  0  0  0  0  0  0
   -2.7165   22.1795  -31.6088 H   0  0  0  0  0  0  0  0  0  0  0  0
   -1.5589   20.3670  -30.1228 H   0  0  0  0  0  0  0  0  0  0  0  0
  1  2  1  0
  2  3  1  0
  3  4  1  0
  4  5  2  0
  4  6  1  0
  6  7  2  0
  7  8  1  0
  8  9  2  0
  9 10  1  0
 10 11  2  0
 11 12  1  0
 12 13  1  0
 13 14  2  0
 13 15  2  0
 13 16  1  0
 16 17  2  0
 17 18  1  0
 18 19  2  0
 19 20  1  0
 19 21  1  0
 11  6  1  0
 21 16  1  0
  1 22  1  0
  1 23  1  0
  1 24  1  0
  2 25  1  0
  2 26  1  0
  7 27  1  0
  8 28  1  0
  9 29  1  0
 10 30  1  0
 17 31  1  0
 18 32  1  0
M  END
>  <UniqueID>  (35) 
33

>  <SMILES>  (35) 
CCOC(=O)c1ccccc1OS(=O)(=O)c1ccc(Br)s1

>  <Energy>  (35) 
56.59763973283681

>  <Genealogy>  (35) 
CCOC(=O)c1ccccc1OS(=O)(=O)c1ccc(Br)s1 (3D coordinates assigned)
CCOC(=O)c1ccccc1OS(=O)(=O)c1ccc(Br)s1 (optimized conformer: 56.59763973283681 kcal/mol)

>  <smiles>  (35) 
CCOC(=O)c1ccccc1OS(=O)(=O)c1ccc(Br)s1

>  <score_type>  (35) 
oracle

>  <origin>  (35) 
adg

>  <m_score__min__energy>  (35) 
-8.0800000000000001

>  <m_primary>  (35) 
energy

$$$$
35:0
     RDKit          3D

 32 35  0  0  0  0  0  0  0  0999 V2000
   -5.3750   25.7340  -30.3800 C   0  0  0  0  0  0  0  0  0  0  0  0
   -4.7910   24.7430  -31.2190 O   0  0  0  0  0  0  0  0  0  0  0  0
   -5.4100   23.5370  -31.5830 C   0  0  0  0  0  0  0  0  0  0  0  0
   -6.7800   23.4220  -31.3820 C   0  0  0  0  0  0  0  0  0  0  0  0
   -7.4570   22.2490  -31.7240 C   0  0  0  0  0  0  0  0  0  0  0  0
   -8.7970   22.1640  -31.5170 N   0  0  0  0  0  0  0  0  0  0  0  0
   -9.4810   21.0440  -31.8360 C   0  0  0  0  0  0  0  0  0  0  0  0
   -8.8160   19.9500  -32.3870 C   0  0  0  0  0  0  0  0  0  0  0  0
   -9.5010   18.9280  -32.6660 O   0  0  0  0  0  0  0  0  0  0  0  0
   -7.4520   19.9970  -32.6120 N   0  0  0  0  0  0  0  0  0  0  0  0
   -6.7790   18.9240  -33.1560 C   0  0  0  0  0  0  0  0  0  0  0  0
   -7.4000   17.8650  -33.4620 O   0  0  0  0  0  0  0  0  0  0  0  0
   -5.3910   18.9750  -33.3850 C   0  0  0  0  0  0  0  0  0  0  0  0
   -4.7220   17.8620  -33.9430 C   0  0  0  0  0  0  0  0  0  0  0  0
   -3.3500   17.9000  -34.1740 C   0  0  0  0  0  0  0  0  0  0  0  0
   -2.6240   19.0390  -33.8550 C   0  0  0  0  0  0  0  0  0  0  0  0
   -3.2620   20.1490  -33.3030 C   0  0  0  0  0  0  0  0  0  0  0  0
   -4.6600   20.1430  -33.0550 C   0  0  0  0  0  0  0  0  0  0  0  0
   -5.3530   21.2510  -32.4940 C   0  0  0  0  0  0  0  0  0  0  0  0
   -4.7010   22.4590  -32.1350 C   0  0  0  0  0  0  0  0  0  0  0  0
   -6.7580   21.1490  -32.2830 C   0  0  0  0  0  0  0  0  0  0  0  0
   -5.2151   25.4627  -29.3260 H   0  0  0  0  0  0  0  0  0  0  0  0
   -4.9068   26.7085  -30.5829 H   0  0  0  0  0  0  0  0  0  0  0  0
   -6.4543   25.7965  -30.5829 H   0  0  0  0  0  0  0  0  0  0  0  0
   -7.3382   24.2648  -30.9483 H   0  0  0  0  0  0  0  0  0  0  0  0
   -9.3240   22.9680  -31.1050 H   0  0  0  0  0  0  0  0  0  0  0  0
  -10.5658   20.9951  -31.6605 H   0  0  0  0  0  0  0  0  0  0  0  0
   -5.2917   16.9561  -34.1974 H   0  0  0  0  0  0  0  0  0  0  0  0
   -2.8411   17.0274  -34.6094 H   0  0  0  0  0  0  0  0  0  0  0  0
   -1.5398   19.0661  -34.0386 H   0  0  0  0  0  0  0  0  0  0  0  0
   -2.6726   21.0442  -33.0555 H   0  0  0  0  0  0  0  0  0  0  0  0
   -3.6164   22.5526  -32.2928 H   0  0  0  0  0  0  0  0  0  0  0  0
  1  2  1  0
  2  3  1  0
  3  4  2  0
  4  5  1  0
  5  6  1  0
  6  7  2  0
  7  8  1  0
  8  9  2  0
  8 10  1  0
 10 11  1  0
 11 12  2  0
 11 13  1  0
 13 14  2  0
 14 15  1  0
 15 16  2  0
 16 17  1  0
 17 18  2  0
 18 19  1  0
 19 20  2  0
 19 21  1  0
 20  3  1  0
 21  5  2  0
 21 10  1  0
 18 13  1  0
  1 22  1  0
  1 23  1  0
  1 24  1  0
  4 25  1  0
  6 26  1  0
  7 27  1  0
 14 28  1  0
 15 29  1  0
 16 30  1  0
 17 31  1  0
 20 32  1  0
M  CHG  1   6   1
M  END
>  <UniqueID>  (36) 
34

>  <SMILES>  (36) 
COc1cc2[nH+]cc(=O)n3c(=O)c4ccccc4c(c1)c23

>  <Energy>  (36) 
61.04881083774091

>  <Genealogy>  (36) 
COc1cc2[nH+]cc(=O)n3c(=O)c4ccccc4c(c1)c23 (protonated)
COc1cc2[nH+]cc(=O)n3c(=O)c4ccccc4c(c1)c23 (3D coordinates assigned)
COc1cc2[nH+]cc(=O)n3c(=O)c4ccccc4c(c1)c23 (optimized conformer: 61.04881083774091 kcal/mol)

>  <smiles>  (36) 
COc1cc2ncc(=O)n3c(=O)c4ccccc4c(c1)c23

>  <score_type>  (36) 
oracle

>  <origin>  (36) 
adg

>  <m_score__min__energy>  (36) 
-7.5999999999999996

>  <m_primary>  (36) 
energy

$$$$
36:0
     RDKit          3D

 41 43  0  0  0  0  0  0  0  0999 V2000
   -6.1784   22.9116  -29.2527 H   0  0  0  0  0  0  0  0  0  0  0  0
   -5.2390   23.3740  -29.5900 C   0  0  0  0  0  0  0  0  0  0  0  0
   -5.3200   24.3250  -30.7210 C   0  0  0  0  0  0  0  0  0  0  0  0
   -4.4790   25.2580  -30.8410 O   0  0  0  0  0  0  0  0  0  0  0  0
   -6.4150   24.1720  -31.7040 C   0  0  0  0  0  0  0  0  0  0  0  0
   -6.3171   24.7172  -32.6544 H   0  0  0  0  0  0  0  0  0  0  0  0
   -7.5180   23.4250  -31.5360 C   0  0  0  0  0  0  0  0  0  0  0  0
   -8.4117   23.9270  -31.1368 H   0  0  0  0  0  0  0  0  0  0  0  0
   -7.6300   21.9850  -31.8430 C   0  0  0  0  0  0  0  0  0  0  0  0
   -6.5330   21.2570  -32.3340 C   0  0  0  0  0  0  0  0  0  0  0  0
   -5.5792   21.7694  -32.5281 H   0  0  0  0  0  0  0  0  0  0  0  0
   -6.6470   19.8860  -32.5770 C   0  0  0  0  0  0  0  0  0  0  0  0
   -5.7871   19.3295  -32.9781 H   0  0  0  0  0  0  0  0  0  0  0  0
   -7.8470   19.2150  -32.3140 C   0  0  0  0  0  0  0  0  0  0  0  0
   -7.9130   17.8390  -32.5770 O   0  0  0  0  0  0  0  0  0  0  0  0
   -6.8430   17.0720  -33.1190 C   0  0  0  0  0  0  0  0  0  0  0  0
   -6.2465   16.6444  -32.2996 H   0  0  0  0  0  0  0  0  0  0  0  0
   -7.2511   16.2595  -33.7381 H   0  0  0  0  0  0  0  0  0  0  0  0
   -6.2046   17.7194  -33.7381 H   0  0  0  0  0  0  0  0  0  0  0  0
   -8.9380   19.9380  -31.7930 C   0  0  0  0  0  0  0  0  0  0  0  0
   -9.8846   19.4213  -31.5766 H   0  0  0  0  0  0  0  0  0  0  0  0
   -8.8220   21.3100  -31.5500 C   0  0  0  0  0  0  0  0  0  0  0  0
   -9.6728   21.8633  -31.1257 H   0  0  0  0  0  0  0  0  0  0  0  0
   -4.1160   23.0280  -28.9410 C   0  0  0  0  0  0  0  0  0  0  0  0
   -3.9300   21.9549  -28.7864 H   0  0  0  0  0  0  0  0  0  0  0  0
   -3.1100   23.9760  -28.4180 C   0  0  0  0  0  0  0  0  0  0  0  0
   -1.9730   24.2580  -29.1830 C   0  0  0  0  0  0  0  0  0  0  0  0
   -1.8523   23.7873  -30.1699 H   0  0  0  0  0  0  0  0  0  0  0  0
   -1.0370   25.0870  -28.7330 O   0  0  0  0  0  0  0  0  0  0  0  0
   -1.1160   25.6780  -27.5450 C   0  0  0  0  0  0  0  0  0  0  0  0
   -0.0980   26.5470  -27.1350 C   0  0  0  0  0  0  0  0  0  0  0  0
    0.7579   26.7414  -27.7980 H   0  0  0  0  0  0  0  0  0  0  0  0
   -0.1670   27.1680  -25.8850 C   0  0  0  0  0  0  0  0  0  0  0  0
    0.6346   27.8509  -25.5671 H   0  0  0  0  0  0  0  0  0  0  0  0
   -1.2520   26.9240  -25.0370 C   0  0  0  0  0  0  0  0  0  0  0  0
   -1.3009   27.4145  -24.0536 H   0  0  0  0  0  0  0  0  0  0  0  0
   -2.2750   26.0580  -25.4360 C   0  0  0  0  0  0  0  0  0  0  0  0
   -3.1263   25.8680  -24.7658 H   0  0  0  0  0  0  0  0  0  0  0  0
   -2.2170   25.4290  -26.6940 C   0  0  0  0  0  0  0  0  0  0  0  0
   -3.2200   24.5510  -27.1390 C   0  0  0  0  0  0  0  0  0  0  0  0
   -4.2020   24.2710  -26.3970 O   0  0  0  0  0  0  0  0  0  0  0  0
  1  2  1  0
  2  3  1  0
  3  4  2  0
  3  5  1  0
  5  6  1  0
  5  7  2  0
  7  8  1  0
  7  9  1  0
  9 10  2  0
 10 11  1  0
 10 12  1  0
 12 13  1  0
 12 14  2  0
 14 15  1  0
 15 16  1  0
 16 17  1  0
 16 18  1  0
 16 19  1  0
 14 20  1  0
 20 21  1  0
 20 22  2  0
 22 23  1  0
  2 24  2  3
 24 25  1  0
 24 26  1  0
 26 27  2  0
 27 28  1  0
 27 29  1  0
 29 30  1  0
 30 31  2  0
 31 32  1  0
 31 33  1  0
 33 34  1  0
 33 35  2  0
 35 36  1  0
 35 37  1  0
 37 38  1  0
 37 39  2  0
 39 40  1  0
 40 41  2  0
 22  9  1  0
 40 26  1  0
 39 30  1  0
M  END
>  <UniqueID>  (37) 
35

>  <SMILES>  (37) 
COc1ccc(/C=C\C(=O)C=Cc2coc3ccccc3c2=O)cc1

>  <Energy>  (37) 
64.64197168805592

>  <Genealogy>  (37) 
COc1ccc(/C=C\C(=O)C=Cc2coc3ccccc3c2=O)cc1 (cis-trans isomerization)
COc1ccc(/C=C\C(=O)C=Cc2coc3ccccc3c2=O)cc1 (3D coordinates assigned)
COc1ccc(/C=C\C(=O)C=Cc2coc3ccccc3c2=O)cc1 (optimized conformer: 64.64197168805592 kcal/mol)

>  <smiles>  (37) 
COc1ccc(C=CC(=O)C=Cc2coc3ccccc3c2=O)cc1

>  <score_type>  (37) 
oracle

>  <origin>  (37) 
adg

>  <m_score__min__energy>  (37) 
-9.0600000000000005

>  <m_primary>  (37) 
energy

$$$$
37:0
     RDKit          3D

 40 42  0  0  0  0  0  0  0  0999 V2000
   -6.4530   16.9290  -31.0110 F   0  0  0  0  0  0  0  0  0  0  0  0
   -5.8940   17.6030  -32.0580 C   0  0  0  0  0  0  0  0  0  0  0  0
   -6.0900   17.0840  -33.3110 C   0  0  0  0  0  0  0  0  0  0  0  0
   -5.5410   17.7350  -34.3980 C   0  0  0  0  0  0  0  0  0  0  0  0
   -4.8090   18.8900  -34.2300 C   0  0  0  0  0  0  0  0  0  0  0  0
   -4.5980   19.4330  -32.9810 C   0  0  0  0  0  0  0  0  0  0  0  0
   -3.8200   20.6700  -32.7370 C   0  0  0  0  0  0  0  0  0  0  0  0
   -4.5500   21.5480  -31.9090 N   0  0  0  0  0  0  0  0  0  0  0  0
   -5.5890   22.2920  -32.5000 C   0  0  0  0  0  0  0  0  0  0  0  0
   -6.9470   21.7470  -32.3080 C   0  0  0  0  0  0  0  0  0  0  0  0
   -7.8030   22.4240  -31.4460 C   0  0  0  0  0  0  0  0  0  0  0  0
   -9.0820   21.9560  -31.2320 C   0  0  0  0  0  0  0  0  0  0  0  0
   -9.5230   20.8070  -31.8760 C   0  0  0  0  0  0  0  0  0  0  0  0
   -8.6890   20.1120  -32.7420 C   0  0  0  0  0  0  0  0  0  0  0  0
   -7.4090   20.6150  -32.9300 C   0  0  0  0  0  0  0  0  0  0  0  0
   -3.6550   22.4320  -31.1990 C   0  0  0  0  0  0  0  0  0  0  0  0
   -4.3650   23.5910  -30.5730 C   0  0  0  0  0  0  0  0  0  0  0  0
   -5.3600   23.5830  -29.6190 C   0  0  0  0  0  0  0  0  0  0  0  0
   -5.7240   24.8800  -29.3330 C   0  0  0  0  0  0  0  0  0  0  0  0
   -4.9360   25.6500  -30.1260 N   0  0  0  0  0  0  0  0  0  0  0  0
   -4.1490   24.8980  -30.8440 N   0  0  0  0  0  0  0  0  0  0  0  0
   -5.1660   18.7460  -31.9090 C   0  0  0  0  0  0  0  0  0  0  0  0
   -6.6756   16.1631  -33.4488 H   0  0  0  0  0  0  0  0  0  0  0  0
   -5.6897   17.3271  -35.4087 H   0  0  0  0  0  0  0  0  0  0  0  0
   -4.3834   19.3900  -35.1125 H   0  0  0  0  0  0  0  0  0  0  0  0
   -2.8707   20.4113  -32.2451 H   0  0  0  0  0  0  0  0  0  0  0  0
   -3.6212   21.1651  -33.6989 H   0  0  0  0  0  0  0  0  0  0  0  0
   -5.5665   23.3052  -32.0723 H   0  0  0  0  0  0  0  0  0  0  0  0
   -5.4023   22.2650  -33.5837 H   0  0  0  0  0  0  0  0  0  0  0  0
   -7.4589   23.3347  -30.9339 H   0  0  0  0  0  0  0  0  0  0  0  0
   -9.7555   22.4943  -30.5490 H   0  0  0  0  0  0  0  0  0  0  0  0
  -10.5456   20.4430  -31.6978 H   0  0  0  0  0  0  0  0  0  0  0  0
   -9.0284   19.2013  -33.2572 H   0  0  0  0  0  0  0  0  0  0  0  0
   -6.7316   20.0794  -33.6114 H   0  0  0  0  0  0  0  0  0  0  0  0
   -3.1495   21.8595  -30.4073 H   0  0  0  0  0  0  0  0  0  0  0  0
   -2.9384   22.8361  -31.9292 H   0  0  0  0  0  0  0  0  0  0  0  0
   -5.7944   22.6832  -29.1590 H   0  0  0  0  0  0  0  0  0  0  0  0
   -6.4876   25.2186  -28.6173 H   0  0  0  0  0  0  0  0  0  0  0  0
   -4.9890   26.7090  -30.1260 H   0  0  0  0  0  0  0  0  0  0  0  0
   -5.0198   19.1453  -30.8945 H   0  0  0  0  0  0  0  0  0  0  0  0
  1  2  1  0
  2  3  2  0
  3  4  1  0
  4  5  2  0
  5  6  1  0
  6  7  1  0
  7  8  1  0
  8  9  1  0
  9 10  1  0
 10 11  2  0
 11 12  1  0
 12 13  2  0
 13 14  1  0
 14 15  2  0
  8 16  1  0
 16 17  1  0
 17 18  1  0
 18 19  2  0
 19 20  1  0
 20 21  1  0
  6 22  2  0
 22  2  1  0
 15 10  1  0
 21 17  2  0
  3 23  1  0
  4 24  1  0
  5 25  1  0
  7 26  1  0
  7 27  1  0
  9 28  1  0
  9 29  1  0
 11 30  1  0
 12 31  1  0
 13 32  1  0
 14 33  1  0
 15 34  1  0
 16 35  1  0
 16 36  1  0
 18 37  1  0
 19 38  1  0
 20 39  1  0
 22 40  1  0
M  END
>  <smiles>  (38) 
Fc1cccc(CN(Cc2ccccc2)Cc2cc[nH]n2)c1

>  <score_type>  (38) 
oracle

>  <origin>  (38) 
adg

>  <m_score__min__energy>  (38) 
-8.3900000000000006

>  <m_primary>  (38) 
energy

$$$$
38:0
     RDKit          3D

 37 39  0  0  0  0  0  0  0  0999 V2000
   -1.6030   20.7850  -27.0220 C   0  0  0  0  0  0  0  0  0  0  0  0
   -2.0760   21.8830  -27.9270 C   0  0  0  0  0  0  0  0  0  0  0  0
   -2.2760   23.1750  -27.4240 C   0  0  0  0  0  0  0  0  0  0  0  0
   -2.7530   24.1890  -28.2560 C   0  0  0  0  0  0  0  0  0  0  0  0
   -3.0690   23.9210  -29.5980 C   0  0  0  0  0  0  0  0  0  0  0  0
   -3.5360   24.9660  -30.4660 N   0  0  0  0  0  0  0  0  0  0  0  0
   -4.9000   25.2650  -30.7910 C   0  0  0  0  0  0  0  0  0  0  0  0
   -5.3610   26.3940  -30.4790 O   0  0  0  0  0  0  0  0  0  0  0  0
   -5.7580   24.3210  -31.5870 C   0  0  0  0  0  0  0  0  0  0  0  0
   -7.1590   23.7020  -30.5890 S   0  0  0  0  0  0  0  0  0  0  0  0
   -7.1540   22.0620  -31.3080 C   0  0  0  0  0  0  0  0  0  0  0  0
   -8.0480   21.1000  -30.9600 N   0  0  0  0  0  0  0  0  0  0  0  0
   -7.6630   20.0740  -31.7380 C   0  0  0  0  0  0  0  0  0  0  0  0
   -8.2200   18.7990  -31.8130 C   0  0  0  0  0  0  0  0  0  0  0  0
   -7.6380   17.8850  -32.7120 C   0  0  0  0  0  0  0  0  0  0  0  0
   -6.5270   18.2650  -33.5020 C   0  0  0  0  0  0  0  0  0  0  0  0
   -5.9910   19.5630  -33.4010 C   0  0  0  0  0  0  0  0  0  0  0  0
   -6.5950   20.4370  -32.5010 C   0  0  0  0  0  0  0  0  0  0  0  0
   -6.2860   21.6760  -32.2280 O   0  0  0  0  0  0  0  0  0  0  0  0
   -2.8530   22.6280  -30.1160 C   0  0  0  0  0  0  0  0  0  0  0  0
   -3.1660   22.3220  -31.5540 C   0  0  0  0  0  0  0  0  0  0  0  0
   -2.3770   21.6120  -29.2700 C   0  0  0  0  0  0  0  0  0  0  0  0
   -1.7350   21.0914  -25.9738 H   0  0  0  0  0  0  0  0  0  0  0  0
   -2.1884   19.8737  -27.2141 H   0  0  0  0  0  0  0  0  0  0  0  0
   -0.5386   20.5844  -27.2141 H   0  0  0  0  0  0  0  0  0  0  0  0
   -2.0560   23.3914  -26.3682 H   0  0  0  0  0  0  0  0  0  0  0  0
   -2.8825   25.2061  -27.8575 H   0  0  0  0  0  0  0  0  0  0  0  0
   -6.1507   24.8492  -32.4683 H   0  0  0  0  0  0  0  0  0  0  0  0
   -5.1415   23.4628  -31.8927 H   0  0  0  0  0  0  0  0  0  0  0  0
   -9.0832   18.5168  -31.1923 H   0  0  0  0  0  0  0  0  0  0  0  0
   -8.0496   16.8688  -32.8009 H   0  0  0  0  0  0  0  0  0  0  0  0
   -6.0794   17.5416  -34.1994 H   0  0  0  0  0  0  0  0  0  0  0  0
   -5.1290   19.8744  -34.0092 H   0  0  0  0  0  0  0  0  0  0  0  0
   -3.9518   21.5538  -31.6028 H   0  0  0  0  0  0  0  0  0  0  0  0
   -3.5155   23.2364  -32.0558 H   0  0  0  0  0  0  0  0  0  0  0  0
   -2.2598   21.9519  -32.0558 H   0  0  0  0  0  0  0  0  0  0  0  0
   -2.2391   20.5945  -29.6646 H   0  0  0  0  0  0  0  0  0  0  0  0
  1  2  1  0
  2  3  2  0
  3  4  1  0
  4  5  2  0
  5  6  1  0
  6  7  1  0
  7  8  2  0
  7  9  1  0
  9 10  1  0
 10 11  1  0
 11 12  2  0
 12 13  1  0
 13 14  2  0
 14 15  1  0
 15 16  2  0
 16 17  1  0
 17 18  2  0
 18 19  1  0
  5 20  1  0
 20 21  1  0
 20 22  2  0
 22  2  1  0
 19 11  1  0
 18 13  1  0
  1 23  1  0
  1 24  1  0
  1 25  1  0
  3 26  1  0
  4 27  1  0
  9 28  1  0
  9 29  1  0
 14 30  1  0
 15 31  1  0
 16 32  1  0
 17 33  1  0
 21 34  1  0
 21 35  1  0
 21 36  1  0
 22 37  1  0
M  CHG  1   6  -1
M  END
>  <UniqueID>  (39) 
36

>  <SMILES>  (39) 
Cc1ccc([N-]C(=O)CSc2nc3ccccc3o2)c(C)c1

>  <Energy>  (39) 
77.39820503003065

>  <Genealogy>  (39) 
Cc1ccc([N-]C(=O)CSc2nc3ccccc3o2)c(C)c1 (protonated)
Cc1ccc([N-]C(=O)CSc2nc3ccccc3o2)c(C)c1 (3D coordinates assigned)
Cc1ccc([N-]C(=O)CSc2nc3ccccc3o2)c(C)c1 (optimized conformer: 77.39820503003065 kcal/mol)

>  <smiles>  (39) 
Cc1ccc(NC(=O)CSc2nc3ccccc3o2)c(C)c1

>  <score_type>  (39) 
oracle

>  <origin>  (39) 
adg

>  <m_score__min__energy>  (39) 
-9.9100000000000001

>  <m_primary>  (39) 
energy

$$$$
39:0
     RDKit          3D

 36 36  0  0  0  0  0  0  0  0999 V2000
   -8.8460   20.6230  -31.6990 C   0  0  0  0  0  0  0  0  0  0  0  0
   -7.7540   19.6950  -32.2250 C   0  0  0  0  0  0  0  0  0  0  0  0
   -6.8590   20.3500  -33.2900 C   0  0  0  0  0  0  0  0  0  0  0  0
   -5.4330   19.7610  -33.3620 C   0  0  0  0  0  0  0  0  0  0  0  0
   -4.4180   20.3990  -32.3930 C   0  0  0  0  0  0  0  0  0  0  0  0
   -3.8540   21.7490  -32.8830 C   0  0  0  0  0  0  0  0  0  0  0  0
   -3.6730   22.6990  -31.7820 N   0  0  0  0  0  0  0  0  0  0  0  0
   -4.7590   23.4480  -31.1980 C   0  0  0  0  0  0  0  0  0  0  0  0
   -6.1000   23.0940  -31.4440 C   0  0  0  0  0  0  0  0  0  0  0  0
   -7.1450   23.8280  -30.8780 C   0  0  0  0  0  0  0  0  0  0  0  0
   -6.8670   24.9240  -30.0620 C   0  0  0  0  0  0  0  0  0  0  0  0
   -5.5450   25.2910  -29.8100 C   0  0  0  0  0  0  0  0  0  0  0  0
   -4.4800   24.5600  -30.3720 C   0  0  0  0  0  0  0  0  0  0  0  0
   -3.1390   24.9050  -30.1270 O   0  0  0  0  0  0  0  0  0  0  0  0
   -2.2600   24.1800  -29.2730 C   0  0  0  0  0  0  0  0  0  0  0  0
   -8.8360   20.6145  -30.5991 H   0  0  0  0  0  0  0  0  0  0  0  0
   -8.6628   21.6460  -32.0594 H   0  0  0  0  0  0  0  0  0  0  0  0
   -9.8261   20.2772  -32.0594 H   0  0  0  0  0  0  0  0  0  0  0  0
   -7.1216   19.3860  -31.3797 H   0  0  0  0  0  0  0  0  0  0  0  0
   -8.2554   18.8401  -32.7023 H   0  0  0  0  0  0  0  0  0  0  0  0
   -7.3373   20.2187  -34.2718 H   0  0  0  0  0  0  0  0  0  0  0  0
   -6.7521   21.4080  -33.0085 H   0  0  0  0  0  0  0  0  0  0  0  0
   -5.4950   18.6868  -33.1335 H   0  0  0  0  0  0  0  0  0  0  0  0
   -5.0638   19.9695  -34.3770 H   0  0  0  0  0  0  0  0  0  0  0  0
   -4.9165   20.5617  -31.4261 H   0  0  0  0  0  0  0  0  0  0  0  0
   -3.5679   19.7051  -32.3165 H   0  0  0  0  0  0  0  0  0  0  0  0
   -2.8808   21.5737  -33.3648 H   0  0  0  0  0  0  0  0  0  0  0  0
   -4.5755   22.1823  -33.5913 H   0  0  0  0  0  0  0  0  0  0  0  0
   -2.7130   22.8320  -31.3910 H   0  0  0  0  0  0  0  0  0  0  0  0
   -6.3264   22.2314  -32.0879 H   0  0  0  0  0  0  0  0  0  0  0  0
   -8.1883   23.5411  -31.0762 H   0  0  0  0  0  0  0  0  0  0  0  0
   -7.6914   25.5000  -29.6164 H   0  0  0  0  0  0  0  0  0  0  0  0
   -5.3325   26.1581  -29.1673 H   0  0  0  0  0  0  0  0  0  0  0  0
   -2.5135   24.3891  -28.2232 H   0  0  0  0  0  0  0  0  0  0  0  0
   -2.3652   23.1026  -29.4680 H   0  0  0  0  0  0  0  0  0  0  0  0
   -1.2223   24.4883  -29.4680 H   0  0  0  0  0  0  0  0  0  0  0  0
  1  2  1  0
  2  3  1  0
  3  4  1  0
  4  5  1  0
  5  6  1  0
  6  7  1  0
  7  8  1  0
  8  9  2  0
  9 10  1  0
 10 11  2  0
 11 12  1  0
 12 13  2  0
 13 14  1  0
 14 15  1  0
 13  8  1  0
  1 16  1  0
  1 17  1  0
  1 18  1  0
  2 19  1  0
  2 20  1  0
  3 21  1  0
  3 22  1  0
  4 23  1  0
  4 24  1  0
  5 25  1  0
  5 26  1  0
  6 27  1  0
  6 28  1  0
  7 29  1  0
  9 30  1  0
 10 31  1  0
 11 32  1  0
 12 33  1  0
 15 34  1  0
 15 35  1  0
 15 36  1  0
M  END
>  <UniqueID>  (40) 
37

>  <SMILES>  (40) 
CCCCCCNc1ccccc1OC

>  <Energy>  (40) 
28.98609725066052

>  <Genealogy>  (40) 
CCCCCCNc1ccccc1OC (3D coordinates assigned)
CCCCCCNc1ccccc1OC (optimized conformer: 28.98609725066052 kcal/mol)

>  <smiles>  (40) 
CCCCCCNc1ccccc1OC

>  <score_type>  (40) 
oracle

>  <origin>  (40) 
adg

>  <m_score__min__energy>  (40) 
-6.3200000000000003

>  <m_primary>  (40) 
energy

$$$$
40:0
     RDKit          3D

 51 54  0  0  0  0  0  0  0  0999 V2000
   -6.0460   15.9310  -33.9080 C   0  0  0  0  0  0  0  0  0  0  0  0
   -7.2110   16.4600  -33.2870 O   0  0  0  0  0  0  0  0  0  0  0  0
   -7.3560   17.7990  -32.8940 C   0  0  0  0  0  0  0  0  0  0  0  0
   -8.3330   18.2160  -31.9650 C   0  0  0  0  0  0  0  0  0  0  0  0
   -8.4370   19.5630  -31.6110 C   0  0  0  0  0  0  0  0  0  0  0  0
   -7.5690   20.5100  -32.1690 C   0  0  0  0  0  0  0  0  0  0  0  0
   -7.6830   22.2080  -31.7260 S   0  0  0  0  0  0  0  0  0  0  0  0
   -7.7470   22.3770  -30.2340 O   0  0  0  0  0  0  0  0  0  0  0  0
   -8.9340   22.7800  -32.3310 O   0  0  0  0  0  0  0  0  0  0  0  0
   -6.3030   23.0660  -32.3400 N   0  0  0  0  0  0  0  0  0  0  0  0
   -4.9610   22.8770  -31.8580 C   0  0  0  0  0  0  0  0  0  0  0  0
   -4.0620   21.9970  -32.4890 C   0  0  0  0  0  0  0  0  0  0  0  0
   -2.7640   21.8490  -32.0010 C   0  0  0  0  0  0  0  0  0  0  0  0
   -2.3460   22.5680  -30.8810 C   0  0  0  0  0  0  0  0  0  0  0  0
   -3.2300   23.4350  -30.2200 C   0  0  0  0  0  0  0  0  0  0  0  0
   -2.7660   24.1940  -29.0270 C   0  0  0  0  0  0  0  0  0  0  0  0
   -3.4070   24.0900  -27.7850 C   0  0  0  0  0  0  0  0  0  0  0  0
   -2.9280   24.8240  -26.7030 C   0  0  0  0  0  0  0  0  0  0  0  0
   -1.8070   25.6490  -26.8690 C   0  0  0  0  0  0  0  0  0  0  0  0
   -1.2680   26.4220  -25.7790 N   0  0  0  0  0  0  0  0  0  0  0  0
   -1.1350   25.9430  -24.4120 C   0  0  0  0  0  0  0  0  0  0  0  0
   -0.3920   27.0410  -23.6580 C   0  0  0  0  0  0  0  0  0  0  0  0
   -0.4820   28.2850  -24.5370 C   0  0  0  0  0  0  0  0  0  0  0  0
   -0.7810   27.7820  -25.9420 C   0  0  0  0  0  0  0  0  0  0  0  0
   -1.2150   25.7020  -28.0930 N   0  0  0  0  0  0  0  0  0  0  0  0
   -1.6750   25.0020  -29.1300 N   0  0  0  0  0  0  0  0  0  0  0  0
   -4.5370   23.5860  -30.7240 C   0  0  0  0  0  0  0  0  0  0  0  0
   -6.6000   20.0980  -33.0920 C   0  0  0  0  0  0  0  0  0  0  0  0
   -6.4960   18.7510  -33.4540 C   0  0  0  0  0  0  0  0  0  0  0  0
   -5.3333   15.6074  -33.1351 H   0  0  0  0  0  0  0  0  0  0  0  0
   -6.3231   15.0704  -34.5346 H   0  0  0  0  0  0  0  0  0  0  0  0
   -5.5805   16.7060  -34.5346 H   0  0  0  0  0  0  0  0  0  0  0  0
   -9.0150   17.4776  -31.5181 H   0  0  0  0  0  0  0  0  0  0  0  0
   -9.2045   19.8817  -30.8903 H   0  0  0  0  0  0  0  0  0  0  0  0
   -6.4600   23.6760  -33.1730 H   0  0  0  0  0  0  0  0  0  0  0  0
   -4.3845   21.4236  -33.3706 H   0  0  0  0  0  0  0  0  0  0  0  0
   -2.0662   21.1618  -32.5018 H   0  0  0  0  0  0  0  0  0  0  0  0
   -1.3156   22.4546  -30.5130 H   0  0  0  0  0  0  0  0  0  0  0  0
   -4.2817   23.4337  -27.6659 H   0  0  0  0  0  0  0  0  0  0  0  0
   -3.4260   24.7569  -25.7245 H   0  0  0  0  0  0  0  0  0  0  0  0
   -2.1267   25.7759  -23.9664 H   0  0  0  0  0  0  0  0  0  0  0  0
   -0.5952   24.9855  -24.3690 H   0  0  0  0  0  0  0  0  0  0  0  0
   -0.8678   27.2256  -22.6836 H   0  0  0  0  0  0  0  0  0  0  0  0
    0.6531   26.7600  -23.4609 H   0  0  0  0  0  0  0  0  0  0  0  0
   -1.2902   28.9437  -24.1863 H   0  0  0  0  0  0  0  0  0  0  0  0
    0.4496   28.8692  -24.5068 H   0  0  0  0  0  0  0  0  0  0  0  0
   -1.5486   28.4095  -26.4185 H   0  0  0  0  0  0  0  0  0  0  0  0
    0.1112   27.8189  -26.5843 H   0  0  0  0  0  0  0  0  0  0  0  0
   -5.2358   24.2703  -30.2206 H   0  0  0  0  0  0  0  0  0  0  0  0
   -5.9168   20.8377  -33.5348 H   0  0  0  0  0  0  0  0  0  0  0  0
   -5.7340   18.4379  -34.1829 H   0  0  0  0  0  0  0  0  0  0  0  0
  1  2  1  0
  2  3  1  0
  3  4  2  0
  4  5  1  0
  5  6  2  0
  6  7  1  0
  7  8  2  0
  7  9  2  0
  7 10  1  0
 10 11  1  0
 11 12  2  0
 12 13  1  0
 13 14  2  0
 14 15  1  0
 15 16  1  0
 16 17  2  0
 17 18  1  0
 18 19  2  0
 19 20  1  0
 20 21  1  0
 21 22  1  0
 22 23  1  0
 23 24  1  0
 19 25  1  0
 25 26  2  0
 15 27  2  0
  6 28  1  0
 28 29  2  0
 29  3  1  0
 27 11  1  0
 26 16  1  0
 24 20  1  0
  1 30  1  0
  1 31  1  0
  1 32  1  0
  4 33  1  0
  5 34  1  0
 10 35  1  0
 12 36  1  0
 13 37  1  0
 14 38  1  0
 17 39  1  0
 18 40  1  0
 21 41  1  0
 21 42  1  0
 22 43  1  0
 22 44  1  0
 23 45  1  0
 23 46  1  0
 24 47  1  0
 24 48  1  0
 27 49  1  0
 28 50  1  0
 29 51  1  0
M  END
>  <UniqueID>  (41) 
38

>  <SMILES>  (41) 
COc1ccc(S(=O)(=O)Nc2cccc(-c3ccc(N4CCCC4)nn3)c2)cc1

>  <Energy>  (41) 
61.451755222954425

>  <Genealogy>  (41) 
COc1ccc(S(=O)(=O)Nc2cccc(-c3ccc(N4CCCC4)nn3)c2)cc1 (3D coordinates assigned)
COc1ccc(S(=O)(=O)Nc2cccc(-c3ccc(N4CCCC4)nn3)c2)cc1 (nonaromatic ring conformer: 61.451755222954425 kcal/mol)

>  <smiles>  (41) 
COc1ccc(S(=O)(=O)Nc2cccc(-c3ccc(N4CCCC4)nn3)c2)cc1

>  <score_type>  (41) 
oracle

>  <origin>  (41) 
adg

>  <m_score__min__energy>  (41) 
-9.8800000000000008

>  <m_primary>  (41) 
energy

$$$$
41:0
     RDKit          3D

 36 38  0  0  0  0  0  0  0  0999 V2000
   -4.5640   24.2960  -31.2150 O   0  0  0  0  0  0  0  0  0  0  0  0
   -4.2320   23.4920  -30.3010 C   0  0  0  0  0  0  0  0  0  0  0  0
   -4.5440   22.0300  -30.5110 C   0  0  0  0  0  0  0  0  0  0  0  0
   -4.2070   21.5750  -31.9400 C   0  0  0  0  0  0  0  0  0  0  0  0
   -5.1710   22.0920  -32.9230 N   0  0  0  0  0  0  0  0  0  0  0  0
   -6.5150   21.7700  -32.5110 C   0  0  0  0  0  0  0  0  0  0  0  0
   -7.3860   22.7680  -32.0140 C   0  0  0  0  0  0  0  0  0  0  0  0
   -8.6900   22.4370  -31.5870 C   0  0  0  0  0  0  0  0  0  0  0  0
   -9.1420   21.1070  -31.6380 C   0  0  0  0  0  0  0  0  0  0  0  0
   -8.2640   20.1380  -32.1170 C   0  0  0  0  0  0  0  0  0  0  0  0
   -8.4800   18.8520  -32.2330 O   0  0  0  0  0  0  0  0  0  0  0  0
   -7.3830   18.3030  -32.7190 C   0  0  0  0  0  0  0  0  0  0  0  0
   -6.4080   19.2710  -32.9290 C   0  0  0  0  0  0  0  0  0  0  0  0
   -6.9980   20.4530  -32.5360 C   0  0  0  0  0  0  0  0  0  0  0  0
   -3.5690   24.0230  -29.0740 C   0  0  0  0  0  0  0  0  0  0  0  0
   -2.2290   24.4580  -29.1430 C   0  0  0  0  0  0  0  0  0  0  0  0
   -1.5840   24.9670  -28.0120 C   0  0  0  0  0  0  0  0  0  0  0  0
   -2.2630   25.0520  -26.7960 C   0  0  0  0  0  0  0  0  0  0  0  0
   -3.5910   24.6300  -26.7100 C   0  0  0  0  0  0  0  0  0  0  0  0
   -4.2420   24.1210  -27.8380 C   0  0  0  0  0  0  0  0  0  0  0  0
   -3.9542   21.4340  -29.7990 H   0  0  0  0  0  0  0  0  0  0  0  0
   -5.6223   21.8836  -30.3504 H   0  0  0  0  0  0  0  0  0  0  0  0
   -3.2026   21.9395  -32.2015 H   0  0  0  0  0  0  0  0  0  0  0  0
   -4.2500   20.4762  -31.9664 H   0  0  0  0  0  0  0  0  0  0  0  0
   -4.9900   21.6770  -33.8650 H   0  0  0  0  0  0  0  0  0  0  0  0
   -5.0680   23.1310  -33.0000 H   0  0  0  0  0  0  0  0  0  0  0  0
   -7.0437   23.8120  -31.9598 H   0  0  0  0  0  0  0  0  0  0  0  0
   -9.3579   23.2262  -31.2113 H   0  0  0  0  0  0  0  0  0  0  0  0
  -10.1574   20.8400  -31.3098 H   0  0  0  0  0  0  0  0  0  0  0  0
   -7.2578   17.2304  -32.9284 H   0  0  0  0  0  0  0  0  0  0  0  0
   -5.3908   19.1259  -33.3218 H   0  0  0  0  0  0  0  0  0  0  0  0
   -1.6855   24.3960  -30.0973 H   0  0  0  0  0  0  0  0  0  0  0  0
   -0.5383   25.3014  -28.0809 H   0  0  0  0  0  0  0  0  0  0  0  0
   -1.7529   25.4508  -25.9068 H   0  0  0  0  0  0  0  0  0  0  0  0
   -4.1269   24.6981  -25.7518 H   0  0  0  0  0  0  0  0  0  0  0  0
   -5.2893   23.7937  -27.7608 H   0  0  0  0  0  0  0  0  0  0  0  0
  1  2  2  0
  2  3  1  0
  3  4  1  0
  4  5  1  0
  5  6  1  0
  6  7  2  0
  7  8  1  0
  8  9  2  0
  9 10  1  0
 10 11  1  0
 11 12  1  0
 12 13  2  0
 13 14  1  0
  2 15  1  0
 15 16  2  0
 16 17  1  0
 17 18  2  0
 18 19  1  0
 19 20  2  0
 14  6  1  0
 20 15  1  0
 14 10  2  0
  3 21  1  0
  3 22  1  0
  4 23  1  0
  4 24  1  0
  5 25  1  0
  5 26  1  0
  7 27  1  0
  8 28  1  0
  9 29  1  0
 12 30  1  0
 13 31  1  0
 16 32  1  0
 17 33  1  0
 18 34  1  0
 19 35  1  0
 20 36  1  0
M  CHG  1   5   1
M  END
>  <UniqueID>  (42) 
39

>  <SMILES>  (42) 
O=C(CC[NH2+]c1cccc2occc12)c1ccccc1

>  <Energy>  (42) 
72.31606875016233

>  <Genealogy>  (42) 
O=C(CC[NH2+]c1cccc2occc12)c1ccccc1 (protonated)
O=C(CC[NH2+]c1cccc2occc12)c1ccccc1 (3D coordinates assigned)
O=C(CC[NH2+]c1cccc2occc12)c1ccccc1 (optimized conformer: 72.31606875016233 kcal/mol)

>  <smiles>  (42) 
O=C(CCNc1cccc2occc12)c1ccccc1

>  <score_type>  (42) 
oracle

>  <origin>  (42) 
adg

>  <m_score__min__energy>  (42) 
-7.2300000000000004

>  <m_primary>  (42) 
energy

$$$$
42:0
     RDKit          3D

 52 55  0  0  0  0  0  0  0  0999 V2000
   -2.6390   24.2230  -29.3560 C   0  0  0  0  0  0  0  0  0  0  0  0
   -3.4770   24.6680  -30.4180 O   0  0  0  0  0  0  0  0  0  0  0  0
   -4.8440   24.3640  -30.5330 C   0  0  0  0  0  0  0  0  0  0  0  0
   -5.8420   25.2060  -30.0060 C   0  0  0  0  0  0  0  0  0  0  0  0
   -7.1890   24.8570  -30.1190 C   0  0  0  0  0  0  0  0  0  0  0  0
   -7.5590   23.6720  -30.7580 C   0  0  0  0  0  0  0  0  0  0  0  0
   -6.5810   22.8330  -31.2880 C   0  0  0  0  0  0  0  0  0  0  0  0
   -5.2230   23.1740  -31.1820 C   0  0  0  0  0  0  0  0  0  0  0  0
   -4.2300   22.2800  -31.7050 N   0  0  0  0  0  0  0  0  0  0  0  0
   -3.9320   22.2790  -33.1390 C   0  0  0  0  0  0  0  0  0  0  0  0
   -2.8760   21.2250  -33.4660 C   0  0  0  0  0  0  0  0  0  0  0  0
   -3.2440   19.9550  -32.8190 N   0  0  0  0  0  0  0  0  0  0  0  0
   -2.3920   18.8520  -33.3070 C   0  0  0  0  0  0  0  0  0  0  0  0
   -3.2110   17.8460  -34.0620 C   0  0  0  0  0  0  0  0  0  0  0  0
   -2.9160   17.4140  -35.3030 N   0  0  0  0  0  0  0  0  0  0  0  0
   -3.8810   16.5570  -35.5900 N   0  0  0  0  0  0  0  0  0  0  0  0
   -4.7400   16.4480  -34.5870 N   0  0  0  0  0  0  0  0  0  0  0  0
   -4.3400   17.2530  -33.6180 N   0  0  0  0  0  0  0  0  0  0  0  0
   -5.0040   17.3820  -32.3240 C   0  0  0  0  0  0  0  0  0  0  0  0
   -6.1830   18.3130  -32.4150 C   0  0  0  0  0  0  0  0  0  0  0  0
   -6.1710   19.3760  -33.3290 C   0  0  0  0  0  0  0  0  0  0  0  0
   -7.2680   20.2350  -33.4190 C   0  0  0  0  0  0  0  0  0  0  0  0
   -8.3880   20.0330  -32.6060 C   0  0  0  0  0  0  0  0  0  0  0  0
   -9.4520   20.8640  -32.6960 F   0  0  0  0  0  0  0  0  0  0  0  0
   -8.4110   18.9700  -31.7010 C   0  0  0  0  0  0  0  0  0  0  0  0
   -7.3150   18.1110  -31.6070 C   0  0  0  0  0  0  0  0  0  0  0  0
   -3.2310   20.0400  -31.3330 C   0  0  0  0  0  0  0  0  0  0  0  0
   -3.4350   21.4650  -30.7830 C   0  0  0  0  0  0  0  0  0  0  0  0
   -3.1063   24.4711  -28.3916 H   0  0  0  0  0  0  0  0  0  0  0  0
   -2.5029   23.1338  -29.4281 H   0  0  0  0  0  0  0  0  0  0  0  0
   -1.6605   24.7203  -29.4281 H   0  0  0  0  0  0  0  0  0  0  0  0
   -5.5591   26.1426  -29.5032 H   0  0  0  0  0  0  0  0  0  0  0  0
   -7.9626   25.5189  -29.7026 H   0  0  0  0  0  0  0  0  0  0  0  0
   -8.6217   23.4010  -30.8429 H   0  0  0  0  0  0  0  0  0  0  0  0
   -6.8739   21.8998  -31.7914 H   0  0  0  0  0  0  0  0  0  0  0  0
   -4.8518   22.0558  -33.6996 H   0  0  0  0  0  0  0  0  0  0  0  0
   -3.5456   23.2691  -33.4224 H   0  0  0  0  0  0  0  0  0  0  0  0
   -2.8242   21.0816  -34.5554 H   0  0  0  0  0  0  0  0  0  0  0  0
   -1.8947   21.5576  -33.0965 H   0  0  0  0  0  0  0  0  0  0  0  0
   -1.6177   19.2607  -33.9729 H   0  0  0  0  0  0  0  0  0  0  0  0
   -1.9271   18.3543  -32.4432 H   0  0  0  0  0  0  0  0  0  0  0  0
   -3.9560   16.0280  -36.4860 H   0  0  0  0  0  0  0  0  0  0  0  0
   -5.3522   16.3909  -31.9977 H   0  0  0  0  0  0  0  0  0  0  0  0
   -4.2857   17.7947  -31.6003 H   0  0  0  0  0  0  0  0  0  0  0  0
   -5.2957   19.5336  -33.9764 H   0  0  0  0  0  0  0  0  0  0  0  0
   -7.2514   21.0730  -34.1313 H   0  0  0  0  0  0  0  0  0  0  0  0
   -9.2923   18.8097  -31.0626 H   0  0  0  0  0  0  0  0  0  0  0  0
   -7.3373   17.2714  -30.8967 H   0  0  0  0  0  0  0  0  0  0  0  0
   -4.0367   19.4006  -30.9433 H   0  0  0  0  0  0  0  0  0  0  0  0
   -2.2332   19.7130  -31.0051 H   0  0  0  0  0  0  0  0  0  0  0  0
   -3.9563   21.4052  -29.8162 H   0  0  0  0  0  0  0  0  0  0  0  0
   -2.4485   21.9367  -30.6632 H   0  0  0  0  0  0  0  0  0  0  0  0
  1  2  1  0
  2  3  1  0
  3  4  2  0
  4  5  1  0
  5  6  2  0
  6  7  1  0
  7  8  2  0
  8  9  1  0
  9 10  1  0
 10 11  1  0
 11 12  1  0
 12 13  1  0
 13 14  1  0
 14 15  2  0
 15 16  1  0
 16 17  2  0
 17 18  1  0
 18 19  1  0
 19 20  1  0
 20 21  2  0
 21 22  1  0
 22 23  2  0
 23 24  1  0
 23 25  1  0
 25 26  2  0
 12 27  1  0
 27 28  1  0
  8  3  1  0
 28  9  1  0
 18 14  1  0
 26 20  1  0
  1 29  1  0
  1 30  1  0
  1 31  1  0
  4 32  1  0
  5 33  1  0
  6 34  1  0
  7 35  1  0
 10 36  1  0
 10 37  1  0
 11 38  1  0
 11 39  1  0
 13 40  1  0
 13 41  1  0
 16 42  1  0
 19 43  1  0
 19 44  1  0
 21 45  1  0
 22 46  1  0
 25 47  1  0
 26 48  1  0
 27 49  1  0
 27 50  1  0
 28 51  1  0
 28 52  1  0
M  CHG  1  16   1
M  END
>  <UniqueID>  (43) 
40

>  <SMILES>  (43) 
COc1ccccc1N1CCN(Cc2n[nH+]nn2Cc2ccc(F)cc2)CC1

>  <Energy>  (43) 
102.86855805570409

>  <Genealogy>  (43) 
COc1ccccc1N1CCN(Cc2n[nH+]nn2Cc2ccc(F)cc2)CC1 (protonated)
COc1ccccc1N1CCN(Cc2n[nH+]nn2Cc2ccc(F)cc2)CC1 (3D coordinates assigned)
COc1ccccc1N1CCN(Cc2n[nH+]nn2Cc2ccc(F)cc2)CC1 (nonaromatic ring conformer: 102.86855805570409 kcal/mol)

>  <smiles>  (43) 
COc1ccccc1N1CCN(Cc2nnnn2Cc2ccc(F)cc2)CC1

>  <score_type>  (43) 
oracle

>  <origin>  (43) 
adg

>  <m_score__min__energy>  (43) 
-8.3399999999999999

>  <m_primary>  (43) 
energy

$$$$
43:0
     RDKit          3D

 46 48  0  0  0  0  0  0  0  0999 V2000
   -2.6990   24.7580  -27.0790 C   0  0  0  0  0  0  0  0  0  0  0  0
   -1.6130   25.2580  -28.4500 S   0  0  0  0  0  0  0  0  0  0  0  0
   -2.0440   23.8430  -29.4690 C   0  0  0  0  0  0  0  0  0  0  0  0
   -1.2950   22.6650  -29.3580 C   0  0  0  0  0  0  0  0  0  0  0  0
   -1.6100   21.5550  -30.1430 C   0  0  0  0  0  0  0  0  0  0  0  0
   -2.6740   21.6180  -31.0450 C   0  0  0  0  0  0  0  0  0  0  0  0
   -3.4250   22.7900  -31.1650 C   0  0  0  0  0  0  0  0  0  0  0  0
   -3.1150   23.9180  -30.3780 C   0  0  0  0  0  0  0  0  0  0  0  0
   -3.8420   25.1180  -30.4660 O   0  0  0  0  0  0  0  0  0  0  0  0
   -5.2210   25.2750  -30.1340 C   0  0  0  0  0  0  0  0  0  0  0  0
   -6.0670   24.3700  -30.9710 C   0  0  0  0  0  0  0  0  0  0  0  0
   -7.0950   23.5610  -30.5240 C   0  0  0  0  0  0  0  0  0  0  0  0
   -7.5590   22.9560  -31.6750 C   0  0  0  0  0  0  0  0  0  0  0  0
   -8.6350   21.9520  -31.7540 C   0  0  0  0  0  0  0  0  0  0  0  0
   -9.8250   22.3150  -31.5600 O   0  0  0  0  0  0  0  0  0  0  0  0
   -8.3470   20.5730  -32.0450 N   0  0  0  0  0  0  0  0  0  0  0  0
   -9.4190   19.7030  -32.5390 C   0  0  0  0  0  0  0  0  0  0  0  0
   -7.0460   20.0060  -31.6730 C   0  0  0  0  0  0  0  0  0  0  0  0
   -6.5780   19.0140  -32.7060 C   0  0  0  0  0  0  0  0  0  0  0  0
   -6.6180   17.6360  -32.4490 C   0  0  0  0  0  0  0  0  0  0  0  0
   -6.1970   16.7290  -33.4230 C   0  0  0  0  0  0  0  0  0  0  0  0
   -5.7380   17.2090  -34.6510 C   0  0  0  0  0  0  0  0  0  0  0  0
   -5.7040   18.5470  -34.8890 N   0  0  0  0  0  0  0  0  0  0  0  0
   -6.1090   19.4500  -33.9570 C   0  0  0  0  0  0  0  0  0  0  0  0
   -6.8270   23.3880  -32.7200 N   0  0  0  0  0  0  0  0  0  0  0  0
   -5.9470   24.2330  -32.2720 O   0  0  0  0  0  0  0  0  0  0  0  0
   -2.2079   24.9841  -26.1210 H   0  0  0  0  0  0  0  0  0  0  0  0
   -3.6485   25.3096  -27.1435 H   0  0  0  0  0  0  0  0  0  0  0  0
   -2.8973   23.6779  -27.1435 H   0  0  0  0  0  0  0  0  0  0  0  0
   -0.4552   22.6144  -28.6494 H   0  0  0  0  0  0  0  0  0  0  0  0
   -1.0204   20.6309  -30.0512 H   0  0  0  0  0  0  0  0  0  0  0  0
   -2.9217   20.7423  -31.6629 H   0  0  0  0  0  0  0  0  0  0  0  0
   -4.2623   22.8329  -31.8771 H   0  0  0  0  0  0  0  0  0  0  0  0
   -5.3681   25.0285  -29.0721 H   0  0  0  0  0  0  0  0  0  0  0  0
   -5.5169   26.3170  -30.3258 H   0  0  0  0  0  0  0  0  0  0  0  0
   -7.4579   23.4301  -29.4939 H   0  0  0  0  0  0  0  0  0  0  0  0
   -9.9584   19.2653  -31.6861 H   0  0  0  0  0  0  0  0  0  0  0  0
  -10.1174   20.2929  -33.1508 H   0  0  0  0  0  0  0  0  0  0  0  0
   -8.9854   18.8982  -33.1508 H   0  0  0  0  0  0  0  0  0  0  0  0
   -6.3085   20.8182  -31.5932 H   0  0  0  0  0  0  0  0  0  0  0  0
   -7.1510   19.4870  -30.7088 H   0  0  0  0  0  0  0  0  0  0  0  0
   -6.9819   17.2691  -31.4779 H   0  0  0  0  0  0  0  0  0  0  0  0
   -6.2266   15.6474  -33.2250 H   0  0  0  0  0  0  0  0  0  0  0  0
   -5.4037   16.5041  -35.4265 H   0  0  0  0  0  0  0  0  0  0  0  0
   -6.0695   20.5258  -34.1829 H   0  0  0  0  0  0  0  0  0  0  0  0
   -6.9020   23.0840  -33.7150 H   0  0  0  0  0  0  0  0  0  0  0  0
  1  2  1  0
  2  3  1  0
  3  4  2  0
  4  5  1  0
  5  6  2  0
  6  7  1  0
  7  8  2  0
  8  9  1  0
  9 10  1  0
 10 11  1  0
 11 12  2  0
 12 13  1  0
 13 14  1  0
 14 15  2  0
 14 16  1  0
 16 17  1  0
 16 18  1  0
 18 19  1  0
 19 20  2  0
 20 21  1  0
 21 22  2  0
 22 23  1  0
 23 24  2  0
 13 25  2  0
 25 26  1  0
  8  3  1  0
 26 11  1  0
 24 19  1  0
  1 27  1  0
  1 28  1  0
  1 29  1  0
  4 30  1  0
  5 31  1  0
  6 32  1  0
  7 33  1  0
 10 34  1  0
 10 35  1  0
 12 36  1  0
 17 37  1  0
 17 38  1  0
 17 39  1  0
 18 40  1  0
 18 41  1  0
 20 42  1  0
 21 43  1  0
 22 44  1  0
 24 45  1  0
 25 46  1  0
M  CHG  1  25   1
M  END
>  <UniqueID>  (44) 
41

>  <SMILES>  (44) 
CSc1ccccc1OCc1cc(C(=O)N(C)Cc2cccnc2)[nH+]o1

>  <Energy>  (44) 
76.84250141910098

>  <Genealogy>  (44) 
CSc1ccccc1OCc1cc(C(=O)N(C)Cc2cccnc2)[nH+]o1 (protonated)
CSc1ccccc1OCc1cc(C(=O)N(C)Cc2cccnc2)[nH+]o1 (3D coordinates assigned)
CSc1ccccc1OCc1cc(C(=O)N(C)Cc2cccnc2)[nH+]o1 (optimized conformer: 76.84250141910098 kcal/mol)

>  <smiles>  (44) 
CSc1ccccc1OCc1cc(C(=O)N(C)Cc2cccnc2)no1

>  <score_type>  (44) 
oracle

>  <origin>  (44) 
adg

>  <m_score__min__energy>  (44) 
-9.0899999999999999

>  <m_primary>  (44) 
energy

$$$$
44:0
     RDKit          3D

 49 49  0  0  0  0  0  0  0  0999 V2000
   -6.4100   25.6610  -29.3820 C   0  0  0  0  0  0  0  0  0  0  0  0
   -5.9120   25.1830  -30.7420 C   0  0  0  0  0  0  0  0  0  0  0  0
   -4.5520   24.5520  -30.6190 C   0  0  0  0  0  0  0  0  0  0  0  0
   -3.5470   25.2960  -30.4690 O   0  0  0  0  0  0  0  0  0  0  0  0
   -4.3650   23.1300  -30.6040 N   0  0  0  0  0  0  0  0  0  0  0  0
   -3.4940   22.3760  -31.5050 C   0  0  2  0  0  0  0  0  0  0  0  0
   -4.0730   20.9690  -31.7000 C   0  0  0  0  0  0  0  0  0  0  0  0
   -4.5370   20.6340  -33.4440 S   0  0  0  0  0  0  0  0  0  0  0  0
   -6.0690   19.6810  -33.1310 C   0  0  0  0  0  0  0  0  0  0  0  0
   -7.1730   20.5760  -32.6390 C   0  0  0  0  0  0  0  0  0  0  0  0
   -6.9290   21.9350  -32.3790 C   0  0  0  0  0  0  0  0  0  0  0  0
   -7.9650   22.7660  -31.9400 C   0  0  0  0  0  0  0  0  0  0  0  0
   -9.2450   22.2420  -31.7390 C   0  0  0  0  0  0  0  0  0  0  0  0
   -9.4900   20.8870  -31.9690 C   0  0  0  0  0  0  0  0  0  0  0  0
   -8.4590   20.0540  -32.4140 C   0  0  0  0  0  0  0  0  0  0  0  0
   -2.1020   22.3140  -30.9310 C   0  0  0  0  0  0  0  0  0  0  0  0
   -1.2590   21.5190  -31.4270 O   0  0  0  0  0  0  0  0  0  0  0  0
   -1.7350   23.1670  -29.8370 N   0  0  0  0  0  0  0  0  0  0  0  0
   -0.3810   23.2070  -29.2900 C   0  0  0  0  0  0  0  0  0  0  0  0
   -0.2900   24.1960  -28.1220 C   0  0  0  0  0  0  0  0  0  0  0  0
   -1.3720   25.2040  -28.1890 N   0  0  0  0  0  0  0  0  0  0  0  0
   -2.4810   24.8540  -27.2840 C   0  0  0  0  0  0  0  0  0  0  0  0
   -0.8520   26.5330  -27.8300 C   0  0  0  0  0  0  0  0  0  0  0  0
   -5.8625   25.1355  -28.5857 H   0  0  0  0  0  0  0  0  0  0  0  0
   -6.2414   26.7441  -29.2897 H   0  0  0  0  0  0  0  0  0  0  0  0
   -7.4853   25.4481  -29.2897 H   0  0  0  0  0  0  0  0  0  0  0  0
   -6.6184   24.4425  -31.1453 H   0  0  0  0  0  0  0  0  0  0  0  0
   -5.8402   26.0490  -31.4165 H   0  0  0  0  0  0  0  0  0  0  0  0
   -3.4385   22.8744  -32.4840 H   0  0  0  0  0  0  0  0  0  0  0  0
   -3.3193   20.2312  -31.3877 H   0  0  0  0  0  0  0  0  0  0  0  0
   -4.9867   20.8968  -31.0917 H   0  0  0  0  0  0  0  0  0  0  0  0
   -6.3884   19.1973  -34.0659 H   0  0  0  0  0  0  0  0  0  0  0  0
   -5.8596   18.9274  -32.3575 H   0  0  0  0  0  0  0  0  0  0  0  0
   -5.9191   22.3472  -32.5213 H   0  0  0  0  0  0  0  0  0  0  0  0
   -7.7722   23.8327  -31.7528 H   0  0  0  0  0  0  0  0  0  0  0  0
  -10.0601   22.8979  -31.3993 H   0  0  0  0  0  0  0  0  0  0  0  0
  -10.4955   20.4742  -31.7999 H   0  0  0  0  0  0  0  0  0  0  0  0
   -8.6548   18.9858  -32.5888 H   0  0  0  0  0  0  0  0  0  0  0  0
   -2.4690   23.7530  -29.3780 H   0  0  0  0  0  0  0  0  0  0  0  0
   -0.1071   22.2030  -28.9336 H   0  0  0  0  0  0  0  0  0  0  0  0
    0.3078   23.5355  -30.0822 H   0  0  0  0  0  0  0  0  0  0  0  0
   -0.3737   23.6421  -27.1754 H   0  0  0  0  0  0  0  0  0  0  0  0
    0.6765   24.7178  -28.1817 H   0  0  0  0  0  0  0  0  0  0  0  0
   -2.1495   24.9586  -26.2404 H   0  0  0  0  0  0  0  0  0  0  0  0
   -3.3310   25.5276  -27.4680 H   0  0  0  0  0  0  0  0  0  0  0  0
   -2.7903   23.8146  -27.4680 H   0  0  0  0  0  0  0  0  0  0  0  0
   -0.8146   26.6285  -26.7348 H   0  0  0  0  0  0  0  0  0  0  0  0
    0.1601   26.6547  -28.2434 H   0  0  0  0  0  0  0  0  0  0  0  0
   -1.5127   27.3092  -28.2434 H   0  0  0  0  0  0  0  0  0  0  0  0
  1  2  1  0
  2  3  1  0
  3  4  2  0
  3  5  1  0
  5  6  1  0
  6  7  1  0
  7  8  1  0
  8  9  1  0
  9 10  1  0
 10 11  2  0
 11 12  1  0
 12 13  2  0
 13 14  1  0
 14 15  2  0
  6 16  1  0
 16 17  2  0
 16 18  1  0
 18 19  1  0
 19 20  1  0
 20 21  1  0
 21 22  1  0
 21 23  1  0
 15 10  1  0
  1 24  1  0
  1 25  1  0
  1 26  1  0
  2 27  1  0
  2 28  1  0
  6 29  1  6
  7 30  1  0
  7 31  1  0
  9 32  1  0
  9 33  1  0
 11 34  1  0
 12 35  1  0
 13 36  1  0
 14 37  1  0
 15 38  1  0
 18 39  1  0
 19 40  1  0
 19 41  1  0
 20 42  1  0
 20 43  1  0
 22 44  1  0
 22 45  1  0
 22 46  1  0
 23 47  1  0
 23 48  1  0
 23 49  1  0
M  CHG  1   5  -1
M  END
>  <UniqueID>  (45) 
42

>  <SMILES>  (45) 
CCC(=O)[N-][C@H](CSCc1ccccc1)C(=O)NCCN(C)C

>  <Energy>  (45) 
26.984914392693952

>  <Genealogy>  (45) 
CCC(=O)[N-]C(CSCc1ccccc1)C(=O)NCCN(C)C (protonated)
CCC(=O)[N-][C@H](CSCc1ccccc1)C(=O)NCCN(C)C (chirality)
CCC(=O)[N-][C@H](CSCc1ccccc1)C(=O)NCCN(C)C (3D coordinates assigned)
CCC(=O)[N-][C@H](CSCc1ccccc1)C(=O)NCCN(C)C (optimized conformer: 26.984914392693952 kcal/mol)

>  <smiles>  (45) 
CCC(=O)NC(CSCc1ccccc1)C(=O)NCCN(C)C

>  <score_type>  (45) 
oracle

>  <origin>  (45) 
adg

>  <m_score__min__energy>  (45) 
-8.7699999999999996

>  <m_primary>  (45) 
energy

$$$$
45:0
     RDKit          3D

 43 43  0  0  0  0  0  0  0  0999 V2000
   -1.3560   26.2180  -26.2260 C   0  0  0  0  0  0  0  0  0  0  0  0
   -0.8470   26.8150  -27.5280 C   0  0  0  0  0  0  0  0  0  0  0  0
   -1.5660   26.2540  -28.6210 O   0  0  0  0  0  0  0  0  0  0  0  0
   -1.4870   24.9010  -28.9610 C   0  0  0  0  0  0  0  0  0  0  0  0
   -0.3780   24.3010  -28.9550 O   0  0  0  0  0  0  0  0  0  0  0  0
   -2.7210   24.1680  -29.3850 C   0  0  0  0  0  0  0  0  0  0  0  0
   -3.4570   24.9230  -30.3950 N   0  0  0  0  0  0  0  0  0  0  0  0
   -4.8830   24.9780  -30.5450 C   0  0  0  0  0  0  0  0  0  0  0  0
   -5.4660   26.0740  -30.3210 O   0  0  0  0  0  0  0  0  0  0  0  0
   -5.7090   23.7660  -30.9200 C   0  0  1  0  0  0  0  0  0  0  0  0
   -6.2740   23.0810  -29.6590 C   0  0  0  0  0  0  0  0  0  0  0  0
   -7.6070   22.3390  -29.9130 C   0  0  0  0  0  0  0  0  0  0  0  0
   -7.7690   21.8390  -31.3020 N   0  0  2  0  0  0  0  0  0  0  0  0
   -6.9470   20.6680  -31.5750 C   0  0  0  0  0  0  0  0  0  0  0  0
   -5.6880   20.7650  -31.5630 O   0  0  0  0  0  0  0  0  0  0  0  0
   -7.5430   19.3980  -31.9320 N   0  0  0  0  0  0  0  0  0  0  0  0
   -6.6610   18.2760  -32.2750 C   0  0  0  0  0  0  0  0  0  0  0  0
   -8.9990   19.2130  -31.9620 C   0  0  0  0  0  0  0  0  0  0  0  0
   -7.5900   22.8870  -32.3500 C   0  0  0  0  0  0  0  0  0  0  0  0
   -6.8470   24.1470  -31.8690 C   0  0  0  0  0  0  0  0  0  0  0  0
   -0.9025   26.7500  -25.3767 H   0  0  0  0  0  0  0  0  0  0  0  0
   -2.4504   26.3187  -26.1796 H   0  0  0  0  0  0  0  0  0  0  0  0
   -1.0835   25.1533  -26.1796 H   0  0  0  0  0  0  0  0  0  0  0  0
   -0.9938   27.9051  -27.5135 H   0  0  0  0  0  0  0  0  0  0  0  0
    0.2240   26.5904  -27.6401 H   0  0  0  0  0  0  0  0  0  0  0  0
   -2.4338   23.1922  -29.8037 H   0  0  0  0  0  0  0  0  0  0  0  0
   -3.3688   24.0346  -28.5060 H   0  0  0  0  0  0  0  0  0  0  0  0
   -5.0483   23.0574  -31.4409 H   0  0  0  0  0  0  0  0  0  0  0  0
   -6.4427   23.8492  -28.8899 H   0  0  0  0  0  0  0  0  0  0  0  0
   -5.5378   22.3292  -29.3383 H   0  0  0  0  0  0  0  0  0  0  0  0
   -8.4340   23.0312  -29.6966 H   0  0  0  0  0  0  0  0  0  0  0  0
   -7.6081   21.4563  -29.2566 H   0  0  0  0  0  0  0  0  0  0  0  0
   -8.7660   21.5280  -31.3470 H   0  0  0  0  0  0  0  0  0  0  0  0
   -6.2909   17.8052  -31.3523 H   0  0  0  0  0  0  0  0  0  0  0  0
   -7.2217   17.5359  -32.8649 H   0  0  0  0  0  0  0  0  0  0  0  0
   -5.8095   18.6460  -32.8649 H   0  0  0  0  0  0  0  0  0  0  0  0
   -9.3837   19.1641  -30.9326 H   0  0  0  0  0  0  0  0  0  0  0  0
   -9.4654   20.0591  -32.4879 H   0  0  0  0  0  0  0  0  0  0  0  0
   -9.2389   18.2771  -32.4879 H   0  0  0  0  0  0  0  0  0  0  0  0
   -8.5853   23.1898  -32.7073 H   0  0  0  0  0  0  0  0  0  0  0  0
   -6.9691   22.4386  -33.1396 H   0  0  0  0  0  0  0  0  0  0  0  0
   -7.5534   24.8052  -31.3419 H   0  0  0  0  0  0  0  0  0  0  0  0
   -6.4247   24.6669  -32.7416 H   0  0  0  0  0  0  0  0  0  0  0  0
  1  2  1  0
  2  3  1  0
  3  4  1  0
  4  5  2  0
  4  6  1  0
  6  7  1  0
  7  8  1  0
  8  9  2  0
  8 10  1  0
 10 11  1  0
 11 12  1  0
 12 13  1  0
 13 14  1  0
 14 15  2  0
 14 16  1  0
 16 17  1  0
 16 18  1  0
 13 19  1  0
 19 20  1  0
 20 10  1  0
  1 21  1  0
  1 22  1  0
  1 23  1  0
  2 24  1  0
  2 25  1  0
  6 26  1  0
  6 27  1  0
 10 28  1  6
 11 29  1  0
 11 30  1  0
 12 31  1  0
 12 32  1  0
 13 33  1  1
 17 34  1  0
 17 35  1  0
 17 36  1  0
 18 37  1  0
 18 38  1  0
 18 39  1  0
 19 40  1  0
 19 41  1  0
 20 42  1  0
 20 43  1  0
M  CHG  2   7  -1  13   1
M  END
>  <UniqueID>  (46) 
43

>  <SMILES>  (46) 
CCOC(=O)C[N-]C(=O)C1CC[NH+](C(=O)N(C)C)CC1

>  <Energy>  (46) 
41.073528028225105

>  <Genealogy>  (46) 
CCOC(=O)C[N-]C(=O)C1CC[NH+](C(=O)N(C)C)CC1 (protonated)
CCOC(=O)C[N-]C(=O)C1CC[NH+](C(=O)N(C)C)CC1 (3D coordinates assigned)
CCOC(=O)C[N-]C(=O)C1CC[NH+](C(=O)N(C)C)CC1 (nonaromatic ring conformer: 41.073528028225105 kcal/mol)

>  <smiles>  (46) 
CCOC(=O)CNC(=O)C1CCN(C(=O)N(C)C)CC1

>  <score_type>  (46) 
oracle

>  <origin>  (46) 
adg

>  <m_score__min__energy>  (46) 
-8.2599999999999998

>  <m_primary>  (46) 
energy

$$$$
46:0
     RDKit          3D

 47 49  0  0  0  0  0  0  0  0999 V2000
   -5.7480   25.9540  -30.4880 C   0  0  0  0  0  0  0  0  0  0  0  0
   -5.3910   24.7550  -29.6090 C   0  0  0  0  0  0  0  0  0  0  0  0
   -4.7600   23.6140  -30.3290 N   0  0  0  0  0  0  0  0  0  0  0  0
   -3.8420   22.7940  -29.5110 C   0  0  0  0  0  0  0  0  0  0  0  0
   -3.0180   23.6590  -28.5930 C   0  0  0  0  0  0  0  0  0  0  0  0
   -1.7150   24.0450  -28.9520 C   0  0  0  0  0  0  0  0  0  0  0  0
   -0.9530   24.8350  -28.0870 C   0  0  0  0  0  0  0  0  0  0  0  0
   -1.4830   25.2430  -26.8590 C   0  0  0  0  0  0  0  0  0  0  0  0
   -0.7410   26.0090  -26.0210 F   0  0  0  0  0  0  0  0  0  0  0  0
   -2.7770   24.8610  -26.4950 C   0  0  0  0  0  0  0  0  0  0  0  0
   -3.5430   24.0700  -27.3580 C   0  0  0  0  0  0  0  0  0  0  0  0
   -5.5470   22.8600  -31.3510 C   0  0  2  0  0  0  0  0  0  0  0  0
   -7.0130   22.6440  -30.8820 C   0  0  0  0  0  0  0  0  0  0  0  0
   -7.9990   22.0130  -31.9070 C   0  0  0  0  0  0  0  0  0  0  0  0
   -7.8410   20.5300  -32.1780 C   0  0  0  0  0  0  0  0  0  0  0  0
   -8.8990   19.6550  -31.8680 C   0  0  0  0  0  0  0  0  0  0  0  0
   -8.7660   18.2800  -32.0680 C   0  0  0  0  0  0  0  0  0  0  0  0
   -7.5760   17.7580  -32.5760 C   0  0  0  0  0  0  0  0  0  0  0  0
   -6.5140   18.6100  -32.8810 C   0  0  0  0  0  0  0  0  0  0  0  0
   -6.6290   19.9940  -32.6700 C   0  0  0  0  0  0  0  0  0  0  0  0
   -5.5030   20.9070  -33.0770 C   0  0  0  0  0  0  0  0  0  0  0  0
   -4.8400   21.5450  -31.8360 C   0  0  1  0  0  0  0  0  0  0  0  0
   -3.4960   21.8230  -32.1420 O   0  0  0  0  0  0  0  0  0  0  0  0
   -6.0038   26.8130  -29.8502 H   0  0  0  0  0  0  0  0  0  0  0  0
   -4.8877   26.2121  -31.1231 H   0  0  0  0  0  0  0  0  0  0  0  0
   -6.6093   25.6995  -31.1231 H   0  0  0  0  0  0  0  0  0  0  0  0
   -4.6915   25.0973  -28.8321 H   0  0  0  0  0  0  0  0  0  0  0  0
   -6.3410   24.3762  -29.2041 H   0  0  0  0  0  0  0  0  0  0  0  0
   -4.4313   22.0882  -28.9073 H   0  0  0  0  0  0  0  0  0  0  0  0
   -3.1625   22.2512  -30.1845 H   0  0  0  0  0  0  0  0  0  0  0  0
   -1.2940   23.7244  -29.9163 H   0  0  0  0  0  0  0  0  0  0  0  0
    0.0656   25.1364  -28.3727 H   0  0  0  0  0  0  0  0  0  0  0  0
   -3.1937   25.1825  -25.5291 H   0  0  0  0  0  0  0  0  0  0  0  0
   -4.5604   23.7691  -27.0676 H   0  0  0  0  0  0  0  0  0  0  0  0
   -5.5922   23.4887  -32.2525 H   0  0  0  0  0  0  0  0  0  0  0  0
   -6.9855   21.9865  -30.0005 H   0  0  0  0  0  0  0  0  0  0  0  0
   -7.4043   23.6550  -30.6958 H   0  0  0  0  0  0  0  0  0  0  0  0
   -9.0200   22.1765  -31.5318 H   0  0  0  0  0  0  0  0  0  0  0  0
   -7.7772   22.5075  -32.8642 H   0  0  0  0  0  0  0  0  0  0  0  0
   -9.8394   20.0585  -31.4644 H   0  0  0  0  0  0  0  0  0  0  0  0
   -9.6011   17.6066  -31.8246 H   0  0  0  0  0  0  0  0  0  0  0  0
   -7.4750   16.6744  -32.7361 H   0  0  0  0  0  0  0  0  0  0  0  0
   -5.5806   18.1952  -33.2893 H   0  0  0  0  0  0  0  0  0  0  0  0
   -4.7499   20.3267  -33.6303 H   0  0  0  0  0  0  0  0  0  0  0  0
   -5.9098   21.7084  -33.7113 H   0  0  0  0  0  0  0  0  0  0  0  0
   -4.9284   20.8233  -31.0105 H   0  0  0  0  0  0  0  0  0  0  0  0
   -3.2710   22.6930  -31.7180 H   0  0  0  0  0  0  0  0  0  0  0  0
  1  2  1  0
  2  3  1  0
  3  4  1  0
  4  5  1  0
  5  6  2  0
  6  7  1  0
  7  8  2  0
  8  9  1  0
  8 10  1  0
 10 11  2  0
  3 12  1  0
 12 13  1  0
 13 14  1  0
 14 15  1  0
 15 16  2  0
 16 17  1  0
 17 18  2  0
 18 19  1  0
 19 20  2  0
 20 21  1  0
 21 22  1  0
 22 23  1  0
 11  5  1  0
 22 12  1  0
 20 15  1  0
  1 24  1  0
  1 25  1  0
  1 26  1  0
  2 27  1  0
  2 28  1  0
  4 29  1  0
  4 30  1  0
  6 31  1  0
  7 32  1  0
 10 33  1  0
 11 34  1  0
 12 35  1  6
 13 36  1  0
 13 37  1  0
 14 38  1  0
 14 39  1  0
 16 40  1  0
 17 41  1  0
 18 42  1  0
 19 43  1  0
 21 44  1  0
 21 45  1  0
 22 46  1  1
 23 47  1  0
M  END
>  <UniqueID>  (47) 
44

>  <SMILES>  (47) 
CCN(Cc1ccc(F)cc1)[C@@H]1CCc2ccccc2C[C@H]1O

>  <Energy>  (47) 
71.66268745300019

>  <Genealogy>  (47) 
CCN(Cc1ccc(F)cc1)[C@@H]1CCc2ccccc2C[C@H]1O (chirality)
CCN(Cc1ccc(F)cc1)[C@@H]1CCc2ccccc2C[C@H]1O (3D coordinates assigned)
CCN(Cc1ccc(F)cc1)[C@@H]1CCc2ccccc2C[C@H]1O (nonaromatic ring conformer: 71.66268745300019 kcal/mol)

>  <smiles>  (47) 
CCN(Cc1ccc(F)cc1)C1CCc2ccccc2CC1O

>  <score_type>  (47) 
oracle

>  <origin>  (47) 
adg

>  <m_score__min__energy>  (47) 
-6.9800000000000004

>  <m_primary>  (47) 
energy

$$$$
47:0
     RDKit          3D

 24 24  0  0  0  0  0  0  0  0999 V2000
   -2.6520   25.2780  -26.2630 C   0  0  0  0  0  0  0  0  0  0  0  0
   -3.8740   24.5610  -26.8400 C   0  0  0  0  0  0  0  0  0  0  0  0
   -3.3730   23.4930  -27.7700 C   0  0  0  0  0  0  0  0  0  0  0  0
   -2.4010   24.0580  -28.7810 C   0  0  0  0  0  0  0  0  0  0  0  0
   -3.1000   24.9180  -29.7160 N   0  0  0  0  0  0  0  0  0  0  0  0
   -4.2040   24.4850  -30.2210 C   0  0  0  0  0  0  0  0  0  0  0  0
   -4.2380   23.5490  -31.2040 N   0  0  0  0  0  0  0  0  0  0  0  0
   -5.4150   23.1200  -31.7090 C   0  0  0  0  0  0  0  0  0  0  0  0
   -6.6160   23.6420  -31.2200 C   0  0  0  0  0  0  0  0  0  0  0  0
   -8.3000   23.0470  -31.9230 Br  0  0  0  0  0  0  0  0  0  0  0  0
   -6.5490   24.5970  -30.2150 C   0  0  0  0  0  0  0  0  0  0  0  0
   -5.3460   25.0050  -29.7310 N   0  0  0  0  0  0  0  0  0  0  0  0
   -2.6965   25.2519  -25.1642 H   0  0  0  0  0  0  0  0  0  0  0  0
   -1.7359   24.7742  -26.6050 H   0  0  0  0  0  0  0  0  0  0  0  0
   -2.6449   26.3235  -26.6050 H   0  0  0  0  0  0  0  0  0  0  0  0
   -4.4612   24.1070  -26.0282 H   0  0  0  0  0  0  0  0  0  0  0  0
   -4.5216   25.2698  -27.3768 H   0  0  0  0  0  0  0  0  0  0  0  0
   -2.8659   22.7142  -27.1815 H   0  0  0  0  0  0  0  0  0  0  0  0
   -4.2330   23.0725  -28.3119 H   0  0  0  0  0  0  0  0  0  0  0  0
   -1.6290   24.6410  -28.2574 H   0  0  0  0  0  0  0  0  0  0  0  0
   -1.9333   23.2297  -29.3334 H   0  0  0  0  0  0  0  0  0  0  0  0
   -5.4284   22.3604  -32.5045 H   0  0  0  0  0  0  0  0  0  0  0  0
   -7.4759   25.0267  -29.8073 H   0  0  0  0  0  0  0  0  0  0  0  0
   -5.3120   25.7270  -28.9720 H   0  0  0  0  0  0  0  0  0  0  0  0
  1  2  1  0
  2  3  1  0
  3  4  1  0
  4  5  1  0
  5  6  2  3
  6  7  1  0
  7  8  2  0
  8  9  1  0
  9 10  1  0
  9 11  2  0
 11 12  1  0
 12  6  1  0
  1 13  1  0
  1 14  1  0
  1 15  1  0
  2 16  1  0
  2 17  1  0
  3 18  1  0
  3 19  1  0
  4 20  1  0
  4 21  1  0
  8 22  1  0
 11 23  1  0
 12 24  1  0
M  END
>  <smiles>  (48) 
CCCCN=c1ncc(Br)c[nH]1

>  <score_type>  (48) 
oracle

>  <origin>  (48) 
adg

>  <m_score__min__energy>  (48) 
-5.3700000000000001

>  <m_primary>  (48) 
energy

$$$$
48:0
     RDKit          3D

 36 39  0  0  0  0  0  0  0  0999 V2000
   -1.0260   24.2780  -28.9810 C   0  0  0  0  0  0  0  0  0  0  0  0
   -2.3360   23.7690  -29.5060 C   0  0  0  0  0  0  0  0  0  0  0  0
   -2.4190   22.4960  -30.0860 C   0  0  0  0  0  0  0  0  0  0  0  0
   -3.6460   22.0050  -30.5430 C   0  0  0  0  0  0  0  0  0  0  0  0
   -4.8180   22.7750  -30.4090 C   0  0  0  0  0  0  0  0  0  0  0  0
   -6.1280   22.2740  -30.8980 C   0  0  0  0  0  0  0  0  0  0  0  0
   -6.1410   21.2490  -31.7060 N   0  0  0  0  0  0  0  0  0  0  0  0
   -7.3390   20.7050  -32.1910 N   0  0  0  0  0  0  0  0  0  0  0  0
   -8.5290   21.3120  -32.1790 C   0  0  0  0  0  0  0  0  0  0  0  0
   -9.4890   20.5340  -32.7150 N   0  0  0  0  0  0  0  0  0  0  0  0
   -8.8790   19.4100  -33.0770 N   0  0  0  0  0  0  0  0  0  0  0  0
   -7.5700   19.5110  -32.7620 C   0  0  0  0  0  0  0  0  0  0  0  0
   -6.5610   18.4540  -33.0110 C   0  0  0  0  0  0  0  0  0  0  0  0
   -6.3150   17.4470  -32.0630 C   0  0  0  0  0  0  0  0  0  0  0  0
   -5.3580   16.4650  -32.3310 C   0  0  0  0  0  0  0  0  0  0  0  0
   -4.6740   16.4800  -33.5060 N   0  0  0  0  0  0  0  0  0  0  0  0
   -4.8970   17.4370  -34.4450 C   0  0  0  0  0  0  0  0  0  0  0  0
   -5.8450   18.4370  -34.2180 C   0  0  0  0  0  0  0  0  0  0  0  0
   -8.7270   22.9990  -31.6420 S   0  0  0  0  0  0  0  0  0  0  0  0
   -7.4330   22.8390  -30.3540 C   0  0  0  0  0  0  0  0  0  0  0  0
   -4.7280   24.0490  -29.8200 C   0  0  0  0  0  0  0  0  0  0  0  0
   -3.5000   24.5370  -29.3630 C   0  0  0  0  0  0  0  0  0  0  0  0
   -1.0441   24.2710  -27.8812 H   0  0  0  0  0  0  0  0  0  0  0  0
   -0.2114   23.6309  -29.3384 H   0  0  0  0  0  0  0  0  0  0  0  0
   -0.8620   25.3053  -29.3384 H   0  0  0  0  0  0  0  0  0  0  0  0
   -1.5133   21.8792  -30.1824 H   0  0  0  0  0  0  0  0  0  0  0  0
   -3.6964   21.0105  -31.0104 H   0  0  0  0  0  0  0  0  0  0  0  0
   -9.3630   18.5960  -33.5180 H   0  0  0  0  0  0  0  0  0  0  0  0
   -6.8727   17.4317  -31.1150 H   0  0  0  0  0  0  0  0  0  0  0  0
   -5.1574   15.6777  -31.5895 H   0  0  0  0  0  0  0  0  0  0  0  0
   -4.3289   17.4238  -35.3869 H   0  0  0  0  0  0  0  0  0  0  0  0
   -6.0296   19.2073  -34.9812 H   0  0  0  0  0  0  0  0  0  0  0  0
   -7.2353   23.8339  -29.9285 H   0  0  0  0  0  0  0  0  0  0  0  0
   -7.8067   22.1378  -29.5934 H   0  0  0  0  0  0  0  0  0  0  0  0
   -5.6321   24.6672  -29.7179 H   0  0  0  0  0  0  0  0  0  0  0  0
   -3.4470   25.5282  -28.8890 H   0  0  0  0  0  0  0  0  0  0  0  0
  1  2  1  0
  2  3  2  0
  3  4  1  0
  4  5  2  0
  5  6  1  0
  6  7  2  0
  7  8  1  0
  8  9  1  0
  9 10  2  0
 10 11  1  0
 11 12  2  0
 12 13  1  0
 13 14  2  0
 14 15  1  0
 15 16  2  0
 16 17  1  0
 17 18  2  0
  9 19  1  0
 19 20  1  0
  5 21  1  0
 21 22  2  0
 22  2  1  0
 20  6  1  0
 12  8  1  0
 18 13  1  0
  1 23  1  0
  1 24  1  0
  1 25  1  0
  3 26  1  0
  4 27  1  0
 11 28  1  0
 14 29  1  0
 15 30  1  0
 17 31  1  0
 18 32  1  0
 20 33  1  0
 20 34  1  0
 21 35  1  0
 22 36  1  0
M  CHG  1  11   1
M  END
>  <UniqueID>  (49) 
45

>  <SMILES>  (49) 
Cc1ccc(C2=Nn3c(n[nH+]c3-c3ccncc3)SC2)cc1

>  <Energy>  (49) 
91.40519692831526

>  <Genealogy>  (49) 
Cc1ccc(C2=Nn3c(n[nH+]c3-c3ccncc3)SC2)cc1 (protonated)
Cc1ccc(C2=Nn3c(n[nH+]c3-c3ccncc3)SC2)cc1 (3D coordinates assigned)
Cc1ccc(C2=Nn3c(n[nH+]c3-c3ccncc3)SC2)cc1 (nonaromatic ring conformer: 91.40519692831526 kcal/mol)

>  <smiles>  (49) 
Cc1ccc(C2=Nn3c(nnc3-c3ccncc3)SC2)cc1

>  <score_type>  (49) 
oracle

>  <origin>  (49) 
adg

>  <m_score__min__energy>  (49) 
-8.0099999999999998

>  <m_primary>  (49) 
energy

$$$$
49:0
     RDKit          3D

 31 33  0  0  0  0  0  0  0  0999 V2000
   -6.1300   14.6890  -34.1960 C   0  0  0  0  0  0  0  0  0  0  0  0
   -7.0000   15.8110  -34.3170 O   0  0  0  0  0  0  0  0  0  0  0  0
   -6.7120   17.0930  -33.8290 C   0  0  0  0  0  0  0  0  0  0  0  0
   -5.5010   17.6880  -34.2040 C   0  0  0  0  0  0  0  0  0  0  0  0
   -5.1620   18.9650  -33.7490 C   0  0  0  0  0  0  0  0  0  0  0  0
   -6.0350   19.6680  -32.9070 C   0  0  0  0  0  0  0  0  0  0  0  0
   -5.7010   20.9510  -32.4440 C   0  0  0  0  0  0  0  0  0  0  0  0
   -6.5760   21.6550  -31.5970 C   0  0  0  0  0  0  0  0  0  0  0  0
   -6.2220   23.0130  -31.1090 C   0  0  0  0  0  0  0  0  0  0  0  0
   -7.1730   23.8130  -30.4510 C   0  0  0  0  0  0  0  0  0  0  0  0
   -6.8250   25.0860  -29.9970 C   0  0  0  0  0  0  0  0  0  0  0  0
   -5.5290   25.5560  -30.2020 C   0  0  0  0  0  0  0  0  0  0  0  0
   -4.6160   24.7760  -30.8400 N   0  0  0  0  0  0  0  0  0  0  0  0
   -4.9280   23.5320  -31.2900 C   0  0  0  0  0  0  0  0  0  0  0  0
   -7.7910   21.0560  -31.2180 C   0  0  0  0  0  0  0  0  0  0  0  0
   -8.1290   19.7800  -31.6750 C   0  0  0  0  0  0  0  0  0  0  0  0
   -7.2590   19.0770  -32.5190 C   0  0  0  0  0  0  0  0  0  0  0  0
   -7.5910   17.7950  -32.9820 C   0  0  0  0  0  0  0  0  0  0  0  0
   -5.9601   14.4699  -33.1315 H   0  0  0  0  0  0  0  0  0  0  0  0
   -6.5889   13.8151  -34.6815 H   0  0  0  0  0  0  0  0  0  0  0  0
   -5.1694   14.9158  -34.6815 H   0  0  0  0  0  0  0  0  0  0  0  0
   -4.8091   17.1442  -34.8639 H   0  0  0  0  0  0  0  0  0  0  0  0
   -4.2075   19.4199  -34.0523 H   0  0  0  0  0  0  0  0  0  0  0  0
   -4.7476   21.4091  -32.7461 H   0  0  0  0  0  0  0  0  0  0  0  0
   -8.1938   23.4345  -30.2937 H   0  0  0  0  0  0  0  0  0  0  0  0
   -7.5674   25.7132  -29.4817 H   0  0  0  0  0  0  0  0  0  0  0  0
   -5.2447   26.5578  -29.8477 H   0  0  0  0  0  0  0  0  0  0  0  0
   -4.1630   22.9273  -31.7991 H   0  0  0  0  0  0  0  0  0  0  0  0
   -8.4818   21.5978  -30.5552 H   0  0  0  0  0  0  0  0  0  0  0  0
   -9.0830   19.3247  -31.3708 H   0  0  0  0  0  0  0  0  0  0  0  0
   -8.5440   17.3352  -32.6815 H   0  0  0  0  0  0  0  0  0  0  0  0
  1  2  1  0
  2  3  1  0
  3  4  2  0
  4  5  1  0
  5  6  2  0
  6  7  1  0
  7  8  2  0
  8  9  1  0
  9 10  2  0
 10 11  1  0
 11 12  2  0
 12 13  1  0
 13 14  2  0
  8 15  1  0
 15 16  2  0
 16 17  1  0
 17 18  2  0
 18  3  1  0
 17  6  1  0
 14  9  1  0
  1 19  1  0
  1 20  1  0
  1 21  1  0
  4 22  1  0
  5 23  1  0
  7 24  1  0
 10 25  1  0
 11 26  1  0
 12 27  1  0
 14 28  1  0
 15 29  1  0
 16 30  1  0
 18 31  1  0
M  END
>  <UniqueID>  (50) 
46

>  <SMILES>  (50) 
COc1ccc2cc(-c3cccnc3)ccc2c1

>  <Energy>  (50) 
42.2572559298396

>  <Genealogy>  (50) 
COc1ccc2cc(-c3cccnc3)ccc2c1 (3D coordinates assigned)
COc1ccc2cc(-c3cccnc3)ccc2c1 (optimized conformer: 42.2572559298396 kcal/mol)

>  <smiles>  (50) 
COc1ccc2cc(-c3cccnc3)ccc2c1

>  <score_type>  (50) 
oracle

>  <origin>  (50) 
adg

>  <m_score__min__energy>  (50) 
-7.7300000000000004

>  <m_primary>  (50) 
energy

$$$$
