0:0
     RDKit          3D

 55 57  0  0  0  0  0  0  0  0999 V2000
   -1.2730   22.5410  -29.9910 C   0  0  0  0  0  0  0  0  0  0  0  0
   -1.1950   23.9330  -29.7080 O   0  0  0  0  0  0  0  0  0  0  0  0
   -1.2660   24.4920  -28.4220 C   0  0  0  0  0  0  0  0  0  0  0  0
   -0.1150   24.9530  -27.7540 C   0  0  0  0  0  0  0  0  0  0  0  0
   -0.2190   25.5780  -26.5090 C   0  0  0  0  0  0  0  0  0  0  0  0
   -1.4720   25.7480  -25.9050 C   0  0  0  0  0  0  0  0  0  0  0  0
   -1.5910   26.4790  -24.6010 C   0  0  0  0  0  0  0  0  0  0  0  0
   -2.6210   25.2920  -26.5660 C   0  0  0  0  0  0  0  0  0  0  0  0
   -2.5260   24.6330  -27.7980 C   0  0  0  0  0  0  0  0  0  0  0  0
   -3.7390   24.1830  -28.4200 N   0  0  0  0  0  0  0  0  0  0  0  0
   -4.2920   24.6950  -29.6380 C   0  0  0  0  0  0  0  0  0  0  0  0
   -3.5630   25.3010  -30.4700 O   0  0  0  0  0  0  0  0  0  0  0  0
   -5.7410   24.4770  -29.9430 C   0  0  0  0  0  0  0  0  0  0  0  0
   -5.9340   23.2070  -30.6720 N   0  0  0  0  0  0  0  0  0  0  0  0
   -4.6750   22.4240  -30.6850 C   0  0  0  0  0  0  0  0  0  0  0  0
   -4.6460   21.3240  -31.7710 C   0  0  0  0  0  0  0  0  0  0  0  0
   -5.9870   21.0330  -32.2890 N   0  0  0  0  0  0  0  0  0  0  0  0
   -6.3690   19.6750  -32.5480 C   0  0  0  0  0  0  0  0  0  0  0  0
   -7.5840   19.2130  -32.0270 C   0  0  0  0  0  0  0  0  0  0  0  0
   -8.0040   17.9070  -32.2660 C   0  0  0  0  0  0  0  0  0  0  0  0
   -7.2210   17.0510  -33.0380 C   0  0  0  0  0  0  0  0  0  0  0  0
   -5.9990   17.4880  -33.5760 C   0  0  0  0  0  0  0  0  0  0  0  0
   -5.1840   16.5290  -34.4040 C   0  0  0  0  0  0  0  0  0  0  0  0
   -5.5470   18.8060  -33.3080 C   0  0  0  0  0  0  0  0  0  0  0  0
   -4.2270   19.2880  -33.8620 C   0  0  0  0  0  0  0  0  0  0  0  0
   -6.9210   22.1170  -32.6130 C   0  0  0  0  0  0  0  0  0  0  0  0
   -6.4240   23.4430  -32.0420 C   0  0  0  0  0  0  0  0  0  0  0  0
   -1.3046   21.9762  -29.0476 H   0  0  0  0  0  0  0  0  0  0  0  0
   -2.1841   22.3355  -30.5721 H   0  0  0  0  0  0  0  0  0  0  0  0
   -0.3906   22.2350  -30.5721 H   0  0  0  0  0  0  0  0  0  0  0  0
    0.8741   24.8198  -28.2165 H   0  0  0  0  0  0  0  0  0  0  0  0
    0.6872   25.9385  -26.0002 H   0  0  0  0  0  0  0  0  0  0  0  0
   -1.4752   25.7677  -23.7700 H   0  0  0  0  0  0  0  0  0  0  0  0
   -0.8061   27.2471  -24.5383 H   0  0  0  0  0  0  0  0  0  0  0  0
   -2.5790   26.9585  -24.5383 H   0  0  0  0  0  0  0  0  0  0  0  0
   -3.6095   25.4538  -26.1113 H   0  0  0  0  0  0  0  0  0  0  0  0
   -6.3075   24.4425  -29.0007 H   0  0  0  0  0  0  0  0  0  0  0  0
   -6.0991   25.3049  -30.5725 H   0  0  0  0  0  0  0  0  0  0  0  0
   -3.8374   23.1139  -30.8653 H   0  0  0  0  0  0  0  0  0  0  0  0
   -4.5967   21.9197  -29.7105 H   0  0  0  0  0  0  0  0  0  0  0  0
   -4.0089   21.6611  -32.6020 H   0  0  0  0  0  0  0  0  0  0  0  0
   -4.2491   20.4048  -31.3154 H   0  0  0  0  0  0  0  0  0  0  0  0
   -8.2112   19.8866  -31.4246 H   0  0  0  0  0  0  0  0  0  0  0  0
   -8.9555   17.5505  -31.8447 H   0  0  0  0  0  0  0  0  0  0  0  0
   -7.5631   16.0230  -33.2280 H   0  0  0  0  0  0  0  0  0  0  0  0
   -4.6165   15.8612  -33.7391 H   0  0  0  0  0  0  0  0  0  0  0  0
   -5.8546   15.9311  -35.0387 H   0  0  0  0  0  0  0  0  0  0  0  0
   -4.4858   17.0944  -35.0387 H   0  0  0  0  0  0  0  0  0  0  0  0
   -3.5493   19.5355  -33.0317 H   0  0  0  0  0  0  0  0  0  0  0  0
   -3.7772   18.4961  -34.4789 H   0  0  0  0  0  0  0  0  0  0  0  0
   -4.3933   20.1834  -34.4789 H   0  0  0  0  0  0  0  0  0  0  0  0
   -7.0085   22.2042  -33.7060 H   0  0  0  0  0  0  0  0  0  0  0  0
   -7.9009   21.8851  -32.1702 H   0  0  0  0  0  0  0  0  0  0  0  0
   -5.6068   23.8330  -32.6665 H   0  0  0  0  0  0  0  0  0  0  0  0
   -7.2421   24.1783  -32.0286 H   0  0  0  0  0  0  0  0  0  0  0  0
  1  2  1  0
  2  3  1  0
  3  4  2  0
  4  5  1  0
  5  6  2  0
  6  7  1  0
  6  8  1  0
  8  9  2  0
  9 10  1  0
 10 11  1  0
 11 12  2  0
 11 13  1  0
 13 14  1  0
 14 15  1  0
 15 16  1  0
 16 17  1  0
 17 18  1  0
 18 19  2  0
 19 20  1  0
 20 21  2  0
 21 22  1  0
 22 23  1  0
 22 24  2  0
 24 25  1  0
 17 26  1  0
 26 27  1  0
  9  3  1  0
 27 14  1  0
 24 18  1  0
  1 28  1  0
  1 29  1  0
  1 30  1  0
  4 31  1  0
  5 32  1  0
  7 33  1  0
  7 34  1  0
  7 35  1  0
  8 36  1  0
 13 37  1  0
 13 38  1  0
 15 39  1  0
 15 40  1  0
 16 41  1  0
 16 42  1  0
 19 43  1  0
 20 44  1  0
 21 45  1  0
 23 46  1  0
 23 47  1  0
 23 48  1  0
 25 49  1  0
 25 50  1  0
 25 51  1  0
 26 52  1  0
 26 53  1  0
 27 54  1  0
 27 55  1  0
M  CHG  1  10  -1
M  END
>  <UniqueID>  (1) 
1

>  <SMILES>  (1) 
COc1ccc(C)cc1[N-]C(=O)CN1CCN(c2cccc(C)c2C)CC1

>  <Energy>  (1) 
71.84119759666875

>  <Genealogy>  (1) 
COc1ccc(C)cc1[N-]C(=O)CN1CCN(c2cccc(C)c2C)CC1 (protonated)
COc1ccc(C)cc1[N-]C(=O)CN1CCN(c2cccc(C)c2C)CC1 (3D coordinates assigned)
COc1ccc(C)cc1[N-]C(=O)CN1CCN(c2cccc(C)c2C)CC1 (nonaromatic ring conformer: 71.84119759666875 kcal/mol)

>  <smiles>  (1) 
COc1ccc(C)cc1NC(=O)CN1CCN(c2cccc(C)c2C)CC1

>  <score_type>  (1) 
oracle

>  <origin>  (1) 
adg

>  <m_score__min__energy>  (1) 
-11.26

>  <m_primary>  (1) 
energy

$$$$
1:0
     RDKit          3D

 36 36  0  0  0  0  0  0  0  0999 V2000
   -1.9110   21.3960  -34.2200 N   0  0  0  0  0  0  0  0  0  0  0  0
   -1.5230   20.7230  -32.9790 C   0  0  0  0  0  0  0  0  0  0  0  0
   -2.5850   19.7150  -32.5080 C   0  0  0  0  0  0  0  0  0  0  0  0
   -3.9300   19.8970  -33.2220 C   0  0  0  0  0  0  0  0  0  0  0  0
   -4.2210   21.3300  -33.3860 N   0  0  0  0  0  0  0  0  0  0  0  0
   -4.7060   21.9600  -32.1430 C   0  0  0  0  0  0  0  0  0  0  0  0
   -6.2260   21.7410  -31.8950 C   0  0  1  0  0  0  0  0  0  0  0  0
   -6.9930   23.0790  -32.0570 C   0  0  0  0  0  0  0  0  0  0  0  0
   -8.4250   22.9620  -31.6120 C   0  0  0  0  0  0  0  0  0  0  0  0
   -9.2310   21.9850  -32.0550 C   0  0  0  0  0  0  0  0  0  0  0  0
   -9.1140   20.5410  -31.6110 C   0  0  0  0  0  0  0  0  0  0  0  0
   -7.8780   19.7570  -32.1260 C   0  0  0  0  0  0  0  0  0  0  0  0
   -6.7850   20.6040  -32.8000 C   0  0  0  0  0  0  0  0  0  0  0  0
   -1.0720   21.5660  -34.8200 H   0  0  0  0  0  0  0  0  0  0  0  0
   -2.5800   20.7850  -34.7410 H   0  0  0  0  0  0  0  0  0  0  0  0
   -2.3900   22.3010  -34.0080 H   0  0  0  0  0  0  0  0  0  0  0  0
   -0.5767   20.1880  -33.1471 H   0  0  0  0  0  0  0  0  0  0  0  0
   -1.4159   21.4903  -32.1981 H   0  0  0  0  0  0  0  0  0  0  0  0
   -2.2166   18.6974  -32.7051 H   0  0  0  0  0  0  0  0  0  0  0  0
   -2.7525   19.8855  -31.4343 H   0  0  0  0  0  0  0  0  0  0  0  0
   -3.8852   19.4185  -34.2115 H   0  0  0  0  0  0  0  0  0  0  0  0
   -4.7250   19.4330  -32.6198 H   0  0  0  0  0  0  0  0  0  0  0  0
   -4.9100   21.4610  -34.1590 H   0  0  0  0  0  0  0  0  0  0  0  0
   -4.1490   21.5343  -31.2954 H   0  0  0  0  0  0  0  0  0  0  0  0
   -4.5448   23.0436  -32.2424 H   0  0  0  0  0  0  0  0  0  0  0  0
   -6.3775   21.4057  -30.8584 H   0  0  0  0  0  0  0  0  0  0  0  0
   -6.4944   23.8503  -31.4516 H   0  0  0  0  0  0  0  0  0  0  0  0
   -6.9883   23.3476  -33.1237 H   0  0  0  0  0  0  0  0  0  0  0  0
   -8.8240   23.7005  -30.9011 H   0  0  0  0  0  0  0  0  0  0  0  0
  -10.0177   22.2459  -32.7782 H   0  0  0  0  0  0  0  0  0  0  0  0
   -9.0820   20.5308  -30.5115 H   0  0  0  0  0  0  0  0  0  0  0  0
   -9.9853   20.0305  -32.0471 H   0  0  0  0  0  0  0  0  0  0  0  0
   -7.4239   19.2400  -31.2678 H   0  0  0  0  0  0  0  0  0  0  0  0
   -8.2560   19.0793  -32.9056 H   0  0  0  0  0  0  0  0  0  0  0  0
   -5.9529   19.9401  -33.0771 H   0  0  0  0  0  0  0  0  0  0  0  0
   -7.2463   21.0868  -33.6741 H   0  0  0  0  0  0  0  0  0  0  0  0
  1  2  1  0
  2  3  1  0
  3  4  1  0
  4  5  1  0
  5  6  1  0
  6  7  1  0
  7  8  1  0
  8  9  1  0
  9 10  2  0
 10 11  1  0
 11 12  1  0
 12 13  1  0
 13  7  1  0
  1 14  1  0
  1 15  1  0
  1 16  1  0
  2 17  1  0
  2 18  1  0
  3 19  1  0
  3 20  1  0
  4 21  1  0
  4 22  1  0
  5 23  1  0
  6 24  1  0
  6 25  1  0
  7 26  1  1
  8 27  1  0
  8 28  1  0
  9 29  1  0
 10 30  1  0
 11 31  1  0
 11 32  1  0
 12 33  1  0
 12 34  1  0
 13 35  1  0
 13 36  1  0
M  CHG  1   1   1
M  END
>  <UniqueID>  (2) 
2

>  <SMILES>  (2) 
[NH3+]CCCNC[C@H]1CC=CCCC1

>  <Energy>  (2) 
34.797508425202004

>  <Genealogy>  (2) 
[NH3+]CCCNCC1CC=CCCC1 (protonated)
[NH3+]CCCNC[C@H]1CC=CCCC1 (chirality)
[NH3+]CCCNC[C@H]1CC=CCCC1 (3D coordinates assigned)
[NH3+]CCCNC[C@H]1CC=CCCC1 (nonaromatic ring conformer: 34.797508425202004 kcal/mol)

>  <smiles>  (2) 
NCCCNCC1CC=CCCC1

>  <score_type>  (2) 
oracle

>  <origin>  (2) 
adg

>  <m_score__min__energy>  (2) 
-3.5899999999999999

>  <m_primary>  (2) 
energy

$$$$
2:0
     RDKit          3D

 54 56  0  0  0  0  0  0  0  0999 V2000
   -9.2730   23.1700  -32.3190 C   0  0  0  0  0  0  0  0  0  0  0  0
   -8.4590   22.3580  -31.3160 C   0  0  0  0  0  0  0  0  0  0  0  0
   -7.1700   23.0610  -30.9860 C   0  0  0  0  0  0  0  0  0  0  0  0
   -7.1600   24.1560  -30.1080 C   0  0  0  0  0  0  0  0  0  0  0  0
   -5.9680   24.8350  -29.8390 C   0  0  0  0  0  0  0  0  0  0  0  0
   -4.7710   24.4470  -30.4680 C   0  0  0  0  0  0  0  0  0  0  0  0
   -3.5200   25.1130  -30.2380 N   0  0  0  0  0  0  0  0  0  0  0  0
   -2.5920   24.9200  -29.1620 C   0  0  0  0  0  0  0  0  0  0  0  0
   -1.5700   25.6480  -29.0420 O   0  0  0  0  0  0  0  0  0  0  0  0
   -2.8040   23.7780  -28.2130 C   0  0  0  0  0  0  0  0  0  0  0  0
   -2.7330   22.4190  -28.9250 C   0  0  0  0  0  0  0  0  0  0  0  0
   -1.4130   22.2120  -29.6090 C   0  0  0  0  0  0  0  0  0  0  0  0
   -0.5110   23.0870  -29.5100 O   0  0  0  0  0  0  0  0  0  0  0  0
   -1.2100   21.0350  -30.4010 N   0  0  0  0  0  0  0  0  0  0  0  0
   -1.9780   20.6470  -31.5490 C   0  0  0  0  0  0  0  0  0  0  0  0
   -3.3180   20.2400  -31.4290 C   0  0  0  0  0  0  0  0  0  0  0  0
   -4.0610   19.8760  -32.5660 C   0  0  0  0  0  0  0  0  0  0  0  0
   -5.4750   19.4490  -32.4370 C   0  0  0  0  0  0  0  0  0  0  0  0
   -6.4850   20.0880  -33.1790 C   0  0  0  0  0  0  0  0  0  0  0  0
   -7.8180   19.6840  -33.0540 C   0  0  0  0  0  0  0  0  0  0  0  0
   -8.1560   18.6410  -32.1870 C   0  0  0  0  0  0  0  0  0  0  0  0
   -7.1620   18.0040  -31.4410 C   0  0  0  0  0  0  0  0  0  0  0  0
   -5.8270   18.4040  -31.5620 C   0  0  0  0  0  0  0  0  0  0  0  0
   -3.4500   19.9330  -33.8280 C   0  0  0  0  0  0  0  0  0  0  0  0
   -2.1300   20.3690  -33.9570 C   0  0  0  0  0  0  0  0  0  0  0  0
   -1.3870   20.7380  -32.8200 C   0  0  0  0  0  0  0  0  0  0  0  0
   -0.0610   21.1910  -32.9130 O   0  0  0  0  0  0  0  0  0  0  0  0
    1.0380   20.3910  -33.3360 C   0  0  0  0  0  0  0  0  0  0  0  0
   -4.7820   23.3400  -31.3260 C   0  0  0  0  0  0  0  0  0  0  0  0
   -5.9720   22.6580  -31.5930 C   0  0  0  0  0  0  0  0  0  0  0  0
   -9.9513   23.8466  -31.7785 H   0  0  0  0  0  0  0  0  0  0  0  0
   -8.5930   23.7603  -32.9508 H   0  0  0  0  0  0  0  0  0  0  0  0
   -9.8616   22.4885  -32.9508 H   0  0  0  0  0  0  0  0  0  0  0  0
   -9.0460   22.2284  -30.3948 H   0  0  0  0  0  0  0  0  0  0  0  0
   -8.2251   21.3789  -31.7595 H   0  0  0  0  0  0  0  0  0  0  0  0
   -8.0951   24.4816  -29.6290 H   0  0  0  0  0  0  0  0  0  0  0  0
   -5.9660   25.6773  -29.1316 H   0  0  0  0  0  0  0  0  0  0  0  0
   -2.0265   23.8129  -27.4356 H   0  0  0  0  0  0  0  0  0  0  0  0
   -3.8080   23.8809  -27.7756 H   0  0  0  0  0  0  0  0  0  0  0  0
   -2.8773   21.6207  -28.1821 H   0  0  0  0  0  0  0  0  0  0  0  0
   -3.5211   22.3952  -29.6920 H   0  0  0  0  0  0  0  0  0  0  0  0
   -3.7900   20.2059  -30.4360 H   0  0  0  0  0  0  0  0  0  0  0  0
   -6.2247   20.9104  -33.8616 H   0  0  0  0  0  0  0  0  0  0  0  0
   -8.6017   20.1878  -33.6389 H   0  0  0  0  0  0  0  0  0  0  0  0
   -9.2045   18.3221  -32.0923 H   0  0  0  0  0  0  0  0  0  0  0  0
   -7.4295   17.1856  -30.7565 H   0  0  0  0  0  0  0  0  0  0  0  0
   -5.0486   17.8996  -30.9706 H   0  0  0  0  0  0  0  0  0  0  0  0
   -4.0153   19.6319  -34.7223 H   0  0  0  0  0  0  0  0  0  0  0  0
   -1.6677   20.4245  -34.9536 H   0  0  0  0  0  0  0  0  0  0  0  0
    1.5702   20.0036  -32.4547 H   0  0  0  0  0  0  0  0  0  0  0  0
    0.6679   19.5495  -33.9401 H   0  0  0  0  0  0  0  0  0  0  0  0
    1.7251   21.0018  -33.9401 H   0  0  0  0  0  0  0  0  0  0  0  0
   -3.8449   23.0043  -31.7941 H   0  0  0  0  0  0  0  0  0  0  0  0
   -5.9689   21.8010  -32.2826 H   0  0  0  0  0  0  0  0  0  0  0  0
  1  2  1  0
  2  3  1  0
  3  4  2  0
  4  5  1  0
  5  6  2  0
  6  7  1  0
  7  8  1  0
  8  9  2  0
  8 10  1  0
 10 11  1  0
 11 12  1  0
 12 13  2  0
 12 14  1  0
 14 15  1  0
 15 16  2  0
 16 17  1  0
 17 18  1  0
 18 19  2  0
 19 20  1  0
 20 21  2  0
 21 22  1  0
 22 23  2  0
 17 24  2  0
 24 25  1  0
 25 26  2  0
 26 27  1  0
 27 28  1  0
  6 29  1  0
 29 30  2  0
 30  3  1  0
 26 15  1  0
 23 18  1  0
  1 31  1  0
  1 32  1  0
  1 33  1  0
  2 34  1  0
  2 35  1  0
  4 36  1  0
  5 37  1  0
 10 38  1  0
 10 39  1  0
 11 40  1  0
 11 41  1  0
 16 42  1  0
 19 43  1  0
 20 44  1  0
 21 45  1  0
 22 46  1  0
 23 47  1  0
 24 48  1  0
 25 49  1  0
 28 50  1  0
 28 51  1  0
 28 52  1  0
 29 53  1  0
 30 54  1  0
M  CHG  2   7  -1  14  -1
M  END
>  <UniqueID>  (3) 
3

>  <SMILES>  (3) 
CCc1ccc([N-]C(=O)CCC(=O)[N-]c2cc(-c3ccccc3)ccc2OC)cc1

>  <Energy>  (3) 
58.243317418373096

>  <Genealogy>  (3) 
CCc1ccc([N-]C(=O)CCC(=O)[N-]c2cc(-c3ccccc3)ccc2OC)cc1 (protonated)
CCc1ccc([N-]C(=O)CCC(=O)[N-]c2cc(-c3ccccc3)ccc2OC)cc1 (3D coordinates assigned)
CCc1ccc([N-]C(=O)CCC(=O)[N-]c2cc(-c3ccccc3)ccc2OC)cc1 (optimized conformer: 58.243317418373096 kcal/mol)

>  <smiles>  (3) 
CCc1ccc(NC(=O)CCC(=O)Nc2cc(-c3ccccc3)ccc2OC)cc1

>  <score_type>  (3) 
oracle

>  <origin>  (3) 
adg

>  <m_score__min__energy>  (3) 
-11.380000000000001

>  <m_primary>  (3) 
energy

$$$$
3:0
     RDKit          3D

 51 53  0  0  0  0  0  0  0  0999 V2000
   -4.6090   14.4670  -32.4960 C   0  0  0  0  0  0  0  0  0  0  0  0
   -5.6910   15.1680  -33.0980 O   0  0  0  0  0  0  0  0  0  0  0  0
   -5.7090   16.5520  -33.3300 C   0  0  0  0  0  0  0  0  0  0  0  0
   -6.8500   17.3420  -33.0970 C   0  0  0  0  0  0  0  0  0  0  0  0
   -6.8250   18.7250  -33.3530 C   0  0  0  0  0  0  0  0  0  0  0  0
   -7.9790   19.5600  -33.1300 N   0  0  0  0  0  0  0  0  0  0  0  0
   -8.4700   19.9640  -31.8120 C   0  0  0  0  0  0  0  0  0  0  0  0
   -8.5910   21.4620  -31.7120 C   0  0  0  0  0  0  0  0  0  0  0  0
   -9.7430   21.9740  -31.7640 O   0  0  0  0  0  0  0  0  0  0  0  0
   -7.4320   22.3110  -31.5530 N   0  0  0  0  0  0  0  0  0  0  0  0
   -6.0880   21.8110  -31.8940 C   0  0  0  0  0  0  0  0  0  0  0  0
   -5.0250   22.9060  -31.7660 C   0  0  0  0  0  0  0  0  0  0  0  0
   -5.2080   23.6290  -30.5040 N   0  0  0  0  0  0  0  0  0  0  0  0
   -4.1170   23.7510  -29.5770 C   0  0  0  0  0  0  0  0  0  0  0  0
   -4.3600   24.1770  -28.2600 C   0  0  0  0  0  0  0  0  0  0  0  0
   -3.3040   24.3110  -27.3540 C   0  0  0  0  0  0  0  0  0  0  0  0
   -1.9980   24.0200  -27.7550 C   0  0  0  0  0  0  0  0  0  0  0  0
   -1.7460   23.5920  -29.0620 C   0  0  0  0  0  0  0  0  0  0  0  0
   -2.8000   23.4560  -29.9720 C   0  0  0  0  0  0  0  0  0  0  0  0
   -2.5380   23.0070  -31.2250 F   0  0  0  0  0  0  0  0  0  0  0  0
   -6.5410   24.1140  -30.1200 C   0  0  0  0  0  0  0  0  0  0  0  0
   -7.6040   23.7180  -31.1540 C   0  0  0  0  0  0  0  0  0  0  0  0
   -5.6410   19.3130  -33.8240 C   0  0  0  0  0  0  0  0  0  0  0  0
   -4.4950   18.5310  -34.0570 C   0  0  0  0  0  0  0  0  0  0  0  0
   -3.2940   19.0800  -34.5330 O   0  0  0  0  0  0  0  0  0  0  0  0
   -2.4000   19.8620  -33.7480 C   0  0  0  0  0  0  0  0  0  0  0  0
   -4.5420   17.1570  -33.8090 C   0  0  0  0  0  0  0  0  0  0  0  0
   -4.6984   14.5249  -31.4012 H   0  0  0  0  0  0  0  0  0  0  0  0
   -4.6344   13.4133  -32.8107 H   0  0  0  0  0  0  0  0  0  0  0  0
   -3.6577   14.9208  -32.8107 H   0  0  0  0  0  0  0  0  0  0  0  0
   -7.7683   16.8746  -32.7118 H   0  0  0  0  0  0  0  0  0  0  0  0
   -8.5380   19.8660  -33.9580 H   0  0  0  0  0  0  0  0  0  0  0  0
   -9.4586   19.5120  -31.6433 H   0  0  0  0  0  0  0  0  0  0  0  0
   -7.7521   19.6209  -31.0524 H   0  0  0  0  0  0  0  0  0  0  0  0
   -5.8322   20.9850  -31.2140 H   0  0  0  0  0  0  0  0  0  0  0  0
   -6.1047   21.4709  -32.9400 H   0  0  0  0  0  0  0  0  0  0  0  0
   -4.0249   22.4482  -31.7831 H   0  0  0  0  0  0  0  0  0  0  0  0
   -5.1245   23.6094  -32.6059 H   0  0  0  0  0  0  0  0  0  0  0  0
   -5.3872   24.4063  -27.9402 H   0  0  0  0  0  0  0  0  0  0  0  0
   -3.5015   24.6457  -26.3249 H   0  0  0  0  0  0  0  0  0  0  0  0
   -1.1672   24.1276  -27.0421 H   0  0  0  0  0  0  0  0  0  0  0  0
   -0.7170   23.3617  -29.3754 H   0  0  0  0  0  0  0  0  0  0  0  0
   -6.8117   23.6812  -29.1456 H   0  0  0  0  0  0  0  0  0  0  0  0
   -6.5057   25.2121  -30.0650 H   0  0  0  0  0  0  0  0  0  0  0  0
   -8.6039   23.8508  -30.7151 H   0  0  0  0  0  0  0  0  0  0  0  0
   -7.4936   24.3572  -32.0424 H   0  0  0  0  0  0  0  0  0  0  0  0
   -5.6087   20.3962  -34.0129 H   0  0  0  0  0  0  0  0  0  0  0  0
   -2.6002   19.6869  -32.6806 H   0  0  0  0  0  0  0  0  0  0  0  0
   -1.3632   19.5756  -33.9784 H   0  0  0  0  0  0  0  0  0  0  0  0
   -2.5459   20.9277  -33.9784 H   0  0  0  0  0  0  0  0  0  0  0  0
   -3.6487   16.5420  -33.9930 H   0  0  0  0  0  0  0  0  0  0  0  0
  1  2  1  0
  2  3  1  0
  3  4  2  0
  4  5  1  0
  5  6  1  0
  6  7  1  0
  7  8  1  0
  8  9  2  0
  8 10  1  0
 10 11  1  0
 11 12  1  0
 12 13  1  0
 13 14  1  0
 14 15  2  0
 15 16  1  0
 16 17  2  0
 17 18  1  0
 18 19  2  0
 19 20  1  0
 13 21  1  0
 21 22  1  0
  5 23  2  0
 23 24  1  0
 24 25  1  0
 25 26  1  0
 24 27  2  0
 27  3  1  0
 22 10  1  0
 19 14  1  0
  1 28  1  0
  1 29  1  0
  1 30  1  0
  4 31  1  0
  6 32  1  0
  7 33  1  0
  7 34  1  0
 11 35  1  0
 11 36  1  0
 12 37  1  0
 12 38  1  0
 15 39  1  0
 16 40  1  0
 17 41  1  0
 18 42  1  0
 21 43  1  0
 21 44  1  0
 22 45  1  0
 22 46  1  0
 23 47  1  0
 26 48  1  0
 26 49  1  0
 26 50  1  0
 27 51  1  0
M  END
>  <UniqueID>  (4) 
4

>  <SMILES>  (4) 
COc1cc(NCC(=O)N2CCN(c3ccccc3F)CC2)cc(OC)c1

>  <Energy>  (4) 
55.78944793515819

>  <Genealogy>  (4) 
COc1cc(NCC(=O)N2CCN(c3ccccc3F)CC2)cc(OC)c1 (3D coordinates assigned)
COc1cc(NCC(=O)N2CCN(c3ccccc3F)CC2)cc(OC)c1 (nonaromatic ring conformer: 55.78944793515819 kcal/mol)

>  <smiles>  (4) 
COc1cc(NCC(=O)N2CCN(c3ccccc3F)CC2)cc(OC)c1

>  <score_type>  (4) 
oracle

>  <origin>  (4) 
adg

>  <m_score__min__energy>  (4) 
-8.5399999999999991

>  <m_primary>  (4) 
energy

$$$$
4:0
     RDKit          3D

 28 29  0  0  0  0  0  0  0  0999 V2000
   -6.0950   18.9630  -34.1840 C   0  0  0  0  0  0  0  0  0  0  0  0
   -6.8680   18.6640  -32.9060 C   0  0  0  0  0  0  0  0  0  0  0  0
   -7.4820   19.9130  -32.3580 C   0  0  0  0  0  0  0  0  0  0  0  0
   -8.5650   19.9310  -31.5550 N   0  0  0  0  0  0  0  0  0  0  0  0
   -8.8100   21.1920  -31.3450 O   0  0  0  0  0  0  0  0  0  0  0  0
   -7.9380   21.9280  -31.9920 C   0  0  0  0  0  0  0  0  0  0  0  0
   -7.9010   23.4210  -31.9590 C   0  0  0  0  0  0  0  0  0  0  0  0
   -6.7690   23.8740  -31.1550 N   0  0  0  0  0  0  0  0  0  0  0  0
   -6.8800   24.7020  -29.9690 C   0  0  0  0  0  0  0  0  0  0  0  0
   -5.4410   24.9020  -29.4530 C   0  0  0  0  0  0  0  0  0  0  0  0
   -4.4910   24.2150  -30.4490 C   0  0  0  0  0  0  0  0  0  0  0  0
   -5.4090   23.6070  -31.4320 C   0  0  0  0  0  0  0  0  0  0  0  0
   -5.0250   22.9270  -32.4210 O   0  0  0  0  0  0  0  0  0  0  0  0
   -7.0630   21.1560  -32.6590 N   0  0  0  0  0  0  0  0  0  0  0  0
   -5.0974   19.3489  -33.9273 H   0  0  0  0  0  0  0  0  0  0  0  0
   -5.9907   18.0404  -34.7738 H   0  0  0  0  0  0  0  0  0  0  0  0
   -6.6387   19.7157  -34.7738 H   0  0  0  0  0  0  0  0  0  0  0  0
   -7.6633   17.9367  -33.1263 H   0  0  0  0  0  0  0  0  0  0  0  0
   -6.1730   18.2531  -32.1589 H   0  0  0  0  0  0  0  0  0  0  0  0
   -7.7970   23.8057  -32.9843 H   0  0  0  0  0  0  0  0  0  0  0  0
   -8.8341   23.7960  -31.5132 H   0  0  0  0  0  0  0  0  0  0  0  0
   -7.3337   25.6718  -30.2212 H   0  0  0  0  0  0  0  0  0  0  0  0
   -7.5188   24.2308  -29.2075 H   0  0  0  0  0  0  0  0  0  0  0  0
   -5.2096   25.9757  -29.3933 H   0  0  0  0  0  0  0  0  0  0  0  0
   -5.3268   24.4691  -28.4482 H   0  0  0  0  0  0  0  0  0  0  0  0
   -3.8279   24.9486  -30.9307 H   0  0  0  0  0  0  0  0  0  0  0  0
   -3.8251   23.4811  -29.9715 H   0  0  0  0  0  0  0  0  0  0  0  0
   -6.2620   21.4470  -33.2620 H   0  0  0  0  0  0  0  0  0  0  0  0
  1  2  1  0
  2  3  1  0
  3  4  2  0
  4  5  1  0
  5  6  1  0
  6  7  1  0
  7  8  1  0
  8  9  1  0
  9 10  1  0
 10 11  1  0
 11 12  1  0
 12 13  2  0
  6 14  2  0
 14  3  1  0
 12  8  1  0
  1 15  1  0
  1 16  1  0
  1 17  1  0
  2 18  1  0
  2 19  1  0
  7 20  1  0
  7 21  1  0
  9 22  1  0
  9 23  1  0
 10 24  1  0
 10 25  1  0
 11 26  1  0
 11 27  1  0
 14 28  1  0
M  CHG  1  14   1
M  END
>  <UniqueID>  (5) 
5

>  <SMILES>  (5) 
CCc1noc(CN2CCCC2=O)[nH+]1

>  <Energy>  (5) 
60.64552463725806

>  <Genealogy>  (5) 
CCc1noc(CN2CCCC2=O)[nH+]1 (protonated)
CCc1noc(CN2CCCC2=O)[nH+]1 (3D coordinates assigned)
CCc1noc(CN2CCCC2=O)[nH+]1 (nonaromatic ring conformer: 60.64552463725806 kcal/mol)

>  <smiles>  (5) 
CCc1noc(CN2CCCC2=O)n1

>  <score_type>  (5) 
oracle

>  <origin>  (5) 
adg

>  <m_score__min__energy>  (5) 
-4.9199999999999999

>  <m_primary>  (5) 
energy

$$$$
5:0
     RDKit          3D

 28 29  0  0  0  0  0  0  0  0999 V2000
   -3.9010   22.6020  -27.5730 C   0  0  0  0  0  0  0  0  0  0  0  0
   -2.7880   22.1960  -28.5100 C   0  0  0  0  0  0  0  0  0  0  0  0
   -2.2310   20.9010  -28.4040 C   0  0  0  0  0  0  0  0  0  0  0  0
   -2.7680   19.6630  -27.0380 Br  0  0  0  0  0  0  0  0  0  0  0  0
   -1.2490   20.4810  -29.3070 C   0  0  0  0  0  0  0  0  0  0  0  0
   -0.8050   21.3350  -30.3150 C   0  0  0  0  0  0  0  0  0  0  0  0
   -1.3170   22.6270  -30.4100 C   0  0  0  0  0  0  0  0  0  0  0  0
   -2.2830   23.0850  -29.4990 C   0  0  0  0  0  0  0  0  0  0  0  0
   -2.7230   24.4950  -29.6070 C   0  0  0  0  0  0  0  0  0  0  0  0
   -2.1360   25.3740  -28.9220 O   0  0  0  0  0  0  0  0  0  0  0  0
   -3.7900   24.8970  -30.4780 N   0  0  0  0  0  0  0  0  0  0  0  0
   -4.8840   24.0790  -30.9190 C   0  0  0  0  0  0  0  0  0  0  0  0
   -4.6810   22.9920  -31.7900 C   0  0  0  0  0  0  0  0  0  0  0  0
   -5.7610   22.2070  -32.2030 C   0  0  0  0  0  0  0  0  0  0  0  0
   -7.0480   22.4890  -31.7390 C   0  0  0  0  0  0  0  0  0  0  0  0
   -7.2560   23.5490  -30.8550 C   0  0  0  0  0  0  0  0  0  0  0  0
   -6.1790   24.3400  -30.4370 C   0  0  0  0  0  0  0  0  0  0  0  0
   -6.4740   25.6750  -29.3330 Cl  0  0  0  0  0  0  0  0  0  0  0  0
   -3.5668   22.4801  -26.5321 H   0  0  0  0  0  0  0  0  0  0  0  0
   -4.1656   23.6545  -27.7523 H   0  0  0  0  0  0  0  0  0  0  0  0
   -4.7812   21.9670  -27.7523 H   0  0  0  0  0  0  0  0  0  0  0  0
   -0.8243   19.4700  -29.2211 H   0  0  0  0  0  0  0  0  0  0  0  0
   -0.0499   20.9886  -31.0359 H   0  0  0  0  0  0  0  0  0  0  0  0
   -0.9608   23.2960  -31.2073 H   0  0  0  0  0  0  0  0  0  0  0  0
   -3.6671   22.7592  -32.1474 H   0  0  0  0  0  0  0  0  0  0  0  0
   -5.5975   21.3667  -32.8938 H   0  0  0  0  0  0  0  0  0  0  0  0
   -7.8984   21.8751  -32.0706 H   0  0  0  0  0  0  0  0  0  0  0  0
   -8.2696   23.7636  -30.4855 H   0  0  0  0  0  0  0  0  0  0  0  0
  1  2  1  0
  2  3  2  0
  3  4  1  0
  3  5  1  0
  5  6  2  0
  6  7  1  0
  7  8  2  0
  8  9  1  0
  9 10  2  0
  9 11  1  0
 11 12  1  0
 12 13  2  0
 13 14  1  0
 14 15  2  0
 15 16  1  0
 16 17  2  0
 17 18  1  0
  8  2  1  0
 17 12  1  0
  1 19  1  0
  1 20  1  0
  1 21  1  0
  5 22  1  0
  6 23  1  0
  7 24  1  0
 13 25  1  0
 14 26  1  0
 15 27  1  0
 16 28  1  0
M  CHG  1  11  -1
M  END
>  <UniqueID>  (6) 
6

>  <SMILES>  (6) 
Cc1c(Br)cccc1C(=O)[N-]c1ccccc1Cl

>  <Energy>  (6) 
40.07408722633367

>  <Genealogy>  (6) 
Cc1c(Br)cccc1C(=O)[N-]c1ccccc1Cl (protonated)
Cc1c(Br)cccc1C(=O)[N-]c1ccccc1Cl (3D coordinates assigned)
Cc1c(Br)cccc1C(=O)[N-]c1ccccc1Cl (optimized conformer: 40.07408722633367 kcal/mol)

>  <smiles>  (6) 
Cc1c(Br)cccc1C(=O)Nc1ccccc1Cl

>  <score_type>  (6) 
oracle

>  <origin>  (6) 
adg

>  <m_score__min__energy>  (6) 
-8.9700000000000006

>  <m_primary>  (6) 
energy

$$$$
6:0
     RDKit          3D

 45 47  0  0  0  0  0  0  0  0999 V2000
   -0.5160   21.1500  -32.3630 C   0  0  0  0  0  0  0  0  0  0  0  0
   -1.6110   20.8260  -33.3750 C   0  0  0  0  0  0  0  0  0  0  0  0
   -2.9310   21.2140  -32.8470 N   0  0  0  0  0  0  0  0  0  0  0  0
   -2.9930   22.2030  -31.9080 C   0  0  0  0  0  0  0  0  0  0  0  0
   -4.2150   22.6120  -31.3600 C   0  0  0  0  0  0  0  0  0  0  0  0
   -4.2090   23.7420  -30.4060 C   0  0  0  0  0  0  0  0  0  0  0  0
   -4.0100   24.9120  -30.8310 O   0  0  0  0  0  0  0  0  0  0  0  0
   -4.4780   23.5170  -29.0140 N   0  0  0  0  0  0  0  0  0  0  0  0
   -4.2340   24.5350  -27.9980 C   0  0  0  0  0  0  0  0  0  0  0  0
   -2.7780   24.8680  -27.9520 C   0  0  0  0  0  0  0  0  0  0  0  0
   -1.9150   24.5730  -26.9160 C   0  0  0  0  0  0  0  0  0  0  0  0
   -0.6780   25.0200  -27.3260 C   0  0  0  0  0  0  0  0  0  0  0  0
   -0.8620   25.5580  -28.5840 C   0  0  0  0  0  0  0  0  0  0  0  0
   -2.1240   25.4490  -28.9320 O   0  0  0  0  0  0  0  0  0  0  0  0
   -5.3990   21.9460  -31.7500 C   0  0  0  0  0  0  0  0  0  0  0  0
   -6.6480   22.2460  -31.1690 C   0  0  0  0  0  0  0  0  0  0  0  0
   -7.8140   21.5840  -31.5760 C   0  0  0  0  0  0  0  0  0  0  0  0
   -9.1320   21.9240  -30.9370 C   0  0  0  0  0  0  0  0  0  0  0  0
   -7.7440   20.5820  -32.5570 C   0  0  0  0  0  0  0  0  0  0  0  0
   -8.9280   19.9290  -32.9420 O   0  0  0  0  0  0  0  0  0  0  0  0
   -9.4500   18.7610  -32.3180 C   0  0  0  0  0  0  0  0  0  0  0  0
   -6.4990   20.2540  -33.1220 C   0  0  0  0  0  0  0  0  0  0  0  0
   -5.3240   20.9200  -32.7200 C   0  0  0  0  0  0  0  0  0  0  0  0
   -4.0680   20.5670  -33.2580 C   0  0  0  0  0  0  0  0  0  0  0  0
   -3.9920   19.6420  -34.1150 O   0  0  0  0  0  0  0  0  0  0  0  0
   -0.9124   21.0327  -31.3437 H   0  0  0  0  0  0  0  0  0  0  0  0
    0.3318   20.4642  -32.5079 H   0  0  0  0  0  0  0  0  0  0  0  0
   -0.1779   22.1867  -32.5079 H   0  0  0  0  0  0  0  0  0  0  0  0
   -1.4174   21.3771  -34.3071 H   0  0  0  0  0  0  0  0  0  0  0  0
   -1.6087   19.7431  -33.5681 H   0  0  0  0  0  0  0  0  0  0  0  0
   -2.0639   22.6886  -31.5750 H   0  0  0  0  0  0  0  0  0  0  0  0
   -4.8160   22.5760  -28.7070 H   0  0  0  0  0  0  0  0  0  0  0  0
   -4.8078   25.4407  -28.2438 H   0  0  0  0  0  0  0  0  0  0  0  0
   -4.5490   24.1505  -27.0167 H   0  0  0  0  0  0  0  0  0  0  0  0
   -2.1630   24.0835  -25.9626 H   0  0  0  0  0  0  0  0  0  0  0  0
    0.2659   24.9603  -26.7643 H   0  0  0  0  0  0  0  0  0  0  0  0
   -0.0715   26.0096  -29.2015 H   0  0  0  0  0  0  0  0  0  0  0  0
   -6.7082   23.0129  -30.3827 H   0  0  0  0  0  0  0  0  0  0  0  0
   -9.0266   21.8968  -29.8424 H   0  0  0  0  0  0  0  0  0  0  0  0
   -9.4424   22.9316  -31.2506 H   0  0  0  0  0  0  0  0  0  0  0  0
   -9.8911   21.1923  -31.2506 H   0  0  0  0  0  0  0  0  0  0  0  0
   -9.3990   18.8752  -31.2251 H   0  0  0  0  0  0  0  0  0  0  0  0
  -10.4972   18.6190  -32.6233 H   0  0  0  0  0  0  0  0  0  0  0  0
   -8.8572   17.8861  -32.6233 H   0  0  0  0  0  0  0  0  0  0  0  0
   -6.4414   19.4669  -33.8882 H   0  0  0  0  0  0  0  0  0  0  0  0
  1  2  1  0
  2  3  1  0
  3  4  1  0
  4  5  2  0
  5  6  1  0
  6  7  2  0
  6  8  1  0
  8  9  1  0
  9 10  1  0
 10 11  2  0
 11 12  1  0
 12 13  2  0
 13 14  1  0
  5 15  1  0
 15 16  2  0
 16 17  1  0
 17 18  1  0
 17 19  2  0
 19 20  1  0
 20 21  1  0
 19 22  1  0
 22 23  2  0
 23 24  1  0
 24 25  2  0
 24  3  1  0
 14 10  1  0
 23 15  1  0
  1 26  1  0
  1 27  1  0
  1 28  1  0
  2 29  1  0
  2 30  1  0
  4 31  1  0
  8 32  1  0
  9 33  1  0
  9 34  1  0
 11 35  1  0
 12 36  1  0
 13 37  1  0
 16 38  1  0
 18 39  1  0
 18 40  1  0
 18 41  1  0
 21 42  1  0
 21 43  1  0
 21 44  1  0
 22 45  1  0
M  END
>  <UniqueID>  (7) 
7

>  <SMILES>  (7) 
CCn1cc(C(=O)NCc2ccco2)c2cc(C)c(OC)cc2c1=O

>  <Energy>  (7) 
79.0889075597081

>  <Genealogy>  (7) 
CCn1cc(C(=O)NCc2ccco2)c2cc(C)c(OC)cc2c1=O (3D coordinates assigned)
CCn1cc(C(=O)NCc2ccco2)c2cc(C)c(OC)cc2c1=O (optimized conformer: 79.0889075597081 kcal/mol)

>  <smiles>  (7) 
CCn1cc(C(=O)NCc2ccco2)c2cc(C)c(OC)cc2c1=O

>  <score_type>  (7) 
oracle

>  <origin>  (7) 
adg

>  <m_score__min__energy>  (7) 
-8.3100000000000005

>  <m_primary>  (7) 
energy

$$$$
7:0
     RDKit          3D

 44 45  0  0  0  0  0  0  0  0999 V2000
   -6.1150   25.5380  -29.7250 C   0  0  0  0  0  0  0  0  0  0  0  0
   -4.9770   24.5400  -29.9230 C   0  0  0  0  0  0  0  0  0  0  0  0
   -4.9530   24.0620  -31.3250 N   0  0  0  0  0  0  0  0  0  0  0  0
   -6.3200   23.9800  -31.8890 C   0  0  0  0  0  0  0  0  0  0  0  0
   -6.9080   22.5910  -31.6490 C   0  0  0  0  0  0  0  0  0  0  0  0
   -4.2450   22.7660  -31.4370 C   0  0  0  0  0  0  0  0  0  0  0  0
   -3.6380   22.3850  -30.0800 C   0  0  0  0  0  0  0  0  0  0  0  0
   -2.1080   22.2670  -30.1400 C   0  0  0  0  0  0  0  0  0  0  0  0
   -1.4550   23.5110  -29.7230 N   0  0  0  0  0  0  0  0  0  0  0  0
   -1.2540   23.8990  -28.3500 C   0  0  0  0  0  0  0  0  0  0  0  0
   -0.9750   22.9440  -27.3600 C   0  0  0  0  0  0  0  0  0  0  0  0
   -0.7900   23.3210  -26.0240 C   0  0  0  0  0  0  0  0  0  0  0  0
   -0.5190   22.3480  -25.0610 O   0  0  0  0  0  0  0  0  0  0  0  0
   -0.8780   24.6770  -25.6600 C   0  0  0  0  0  0  0  0  0  0  0  0
   -0.6990   25.0800  -24.3240 C   0  0  0  0  0  0  0  0  0  0  0  0
   -0.7890   26.4280  -23.9750 C   0  0  0  0  0  0  0  0  0  0  0  0
   -1.0570   27.3900  -24.9510 C   0  0  0  0  0  0  0  0  0  0  0  0
   -1.2370   27.0090  -26.2810 C   0  0  0  0  0  0  0  0  0  0  0  0
   -1.1500   25.6530  -26.6520 C   0  0  0  0  0  0  0  0  0  0  0  0
   -1.3350   25.2570  -27.9920 C   0  0  0  0  0  0  0  0  0  0  0  0
   -1.6130   26.2100  -28.9690 O   0  0  0  0  0  0  0  0  0  0  0  0
   -6.2872   25.6890  -28.6491 H   0  0  0  0  0  0  0  0  0  0  0  0
   -5.8467   26.4973  -30.1916 H   0  0  0  0  0  0  0  0  0  0  0  0
   -7.0311   25.1468  -30.1916 H   0  0  0  0  0  0  0  0  0  0  0  0
   -4.0199   25.0295  -29.6897 H   0  0  0  0  0  0  0  0  0  0  0  0
   -5.1328   23.6810  -29.2538 H   0  0  0  0  0  0  0  0  0  0  0  0
   -6.9586   24.7334  -31.4046 H   0  0  0  0  0  0  0  0  0  0  0  0
   -6.2730   24.1673  -32.9719 H   0  0  0  0  0  0  0  0  0  0  0  0
   -6.9856   22.4076  -30.5672 H   0  0  0  0  0  0  0  0  0  0  0  0
   -7.9080   22.5326  -32.1035 H   0  0  0  0  0  0  0  0  0  0  0  0
   -6.2538   21.8324  -32.1035 H   0  0  0  0  0  0  0  0  0  0  0  0
   -4.9562   21.9875  -31.7502 H   0  0  0  0  0  0  0  0  0  0  0  0
   -3.4406   22.8553  -32.1819 H   0  0  0  0  0  0  0  0  0  0  0  0
   -3.9049   23.1572  -29.3435 H   0  0  0  0  0  0  0  0  0  0  0  0
   -4.0410   21.4021  -29.7944 H   0  0  0  0  0  0  0  0  0  0  0  0
   -1.7861   21.4537  -29.4730 H   0  0  0  0  0  0  0  0  0  0  0  0
   -1.8192   22.0585  -31.1807 H   0  0  0  0  0  0  0  0  0  0  0  0
   -1.2060   24.1890  -30.4800 H   0  0  0  0  0  0  0  0  0  0  0  0
   -0.9005   21.8823  -27.6380 H   0  0  0  0  0  0  0  0  0  0  0  0
   -1.2460   21.7460  -24.6920 H   0  0  0  0  0  0  0  0  0  0  0  0
   -0.4868   24.3279  -23.5499 H   0  0  0  0  0  0  0  0  0  0  0  0
   -0.6484   26.7338  -22.9278 H   0  0  0  0  0  0  0  0  0  0  0  0
   -1.1264   28.4513  -24.6704 H   0  0  0  0  0  0  0  0  0  0  0  0
   -1.4481   27.7722  -27.0445 H   0  0  0  0  0  0  0  0  0  0  0  0
  1  2  1  0
  2  3  1  0
  3  4  1  0
  4  5  1  0
  3  6  1  0
  6  7  1  0
  7  8  1  0
  8  9  1  0
  9 10  1  0
 10 11  2  0
 11 12  1  0
 12 13  1  0
 12 14  2  0
 14 15  1  0
 15 16  2  0
 16 17  1  0
 17 18  2  0
 18 19  1  0
 19 20  2  0
 20 21  1  0
 20 10  1  0
 19 14  1  0
  1 22  1  0
  1 23  1  0
  1 24  1  0
  2 25  1  0
  2 26  1  0
  4 27  1  0
  4 28  1  0
  5 29  1  0
  5 30  1  0
  5 31  1  0
  6 32  1  0
  6 33  1  0
  7 34  1  0
  7 35  1  0
  8 36  1  0
  8 37  1  0
  9 38  1  0
 11 39  1  0
 13 40  1  0
 15 41  1  0
 16 42  1  0
 17 43  1  0
 18 44  1  0
M  CHG  1  21  -1
M  END
>  <UniqueID>  (8) 
8

>  <SMILES>  (8) 
CCN(CC)CCCNc1cc(O)c2ccccc2c1[O-]

>  <Energy>  (8) 
43.732667766007935

>  <Genealogy>  (8) 
CCN(CC)CCCNc1cc(O)c2ccccc2c1[O-] (protonated)
CCN(CC)CCCNc1cc(O)c2ccccc2c1[O-] (3D coordinates assigned)
CCN(CC)CCCNc1cc(O)c2ccccc2c1[O-] (optimized conformer: 43.732667766007935 kcal/mol)

>  <smiles>  (8) 
CCN(CC)CCCNc1cc(O)c2ccccc2c1O

>  <score_type>  (8) 
oracle

>  <origin>  (8) 
adg

>  <m_score__min__energy>  (8) 
-9.5800000000000001

>  <m_primary>  (8) 
energy

$$$$
8:0
     RDKit          3D

 41 43  0  0  0  0  0  0  0  0999 V2000
   -6.8464   26.1925  -30.7090 H   0  0  0  0  0  0  0  0  0  0  0  0
   -6.0660   25.4190  -30.7610 C   0  0  0  0  0  0  0  0  0  0  0  0
   -4.8510   25.6420  -30.1990 N   0  0  0  0  0  0  0  0  0  0  0  0
   -3.8710   24.6990  -30.2520 C   0  0  0  0  0  0  0  0  0  0  0  0
   -2.7080   24.9120  -29.7130 N   0  0  0  0  0  0  0  0  0  0  0  0
   -2.2510   24.2780  -28.4810 C   0  0  0  0  0  0  0  0  0  0  0  0
   -2.6482   24.8291  -27.6158 H   0  0  0  0  0  0  0  0  0  0  0  0
   -2.6087   23.2383  -28.4491 H   0  0  0  0  0  0  0  0  0  0  0  0
   -1.1515   24.2886  -28.4491 H   0  0  0  0  0  0  0  0  0  0  0  0
   -4.1100   23.5150  -30.8760 N   0  0  0  0  0  0  0  0  0  0  0  0
   -5.3110   23.2400  -31.4580 C   0  0  0  0  0  0  0  0  0  0  0  0
   -5.5170   21.9670  -32.1120 N   0  0  0  0  0  0  0  0  0  0  0  0
   -4.4800   21.4160  -33.0030 C   0  0  0  0  0  0  0  0  0  0  0  0
   -4.4955   21.9698  -33.9533 H   0  0  0  0  0  0  0  0  0  0  0  0
   -3.5064   21.5204  -32.5018 H   0  0  0  0  0  0  0  0  0  0  0  0
   -4.7120   19.9290  -33.2910 C   0  0  0  0  0  0  0  0  0  0  0  0
   -3.9813   19.5884  -34.0394 H   0  0  0  0  0  0  0  0  0  0  0  0
   -4.5916   19.3656  -32.3539 H   0  0  0  0  0  0  0  0  0  0  0  0
   -6.1370   19.6910  -33.8310 C   0  0  0  0  0  0  0  0  0  0  0  0
   -6.2042   20.1544  -34.8264 H   0  0  0  0  0  0  0  0  0  0  0  0
   -6.3880   18.2390  -34.0130 N   0  0  0  0  0  0  0  0  0  0  0  0
   -5.3190   17.4980  -34.7050 C   0  0  0  0  0  0  0  0  0  0  0  0
   -5.5767   17.3693  -35.7666 H   0  0  0  0  0  0  0  0  0  0  0  0
   -4.3666   18.0456  -34.6491 H   0  0  0  0  0  0  0  0  0  0  0  0
   -5.2000   16.1440  -34.0320 C   0  0  0  0  0  0  0  0  0  0  0  0
   -5.8156   15.3955  -34.5524 H   0  0  0  0  0  0  0  0  0  0  0  0
   -4.1695   15.7593  -34.0445 H   0  0  0  0  0  0  0  0  0  0  0  0
   -5.7110   16.3740  -32.6290 C   0  0  0  0  0  0  0  0  0  0  0  0
   -6.2207   15.4758  -32.2502 H   0  0  0  0  0  0  0  0  0  0  0  0
   -4.8976   16.5939  -31.9219 H   0  0  0  0  0  0  0  0  0  0  0  0
   -6.6880   17.5300  -32.7560 C   0  0  0  0  0  0  0  0  0  0  0  0
   -7.7191   17.1474  -32.7793 H   0  0  0  0  0  0  0  0  0  0  0  0
   -6.5897   18.2115  -31.8982 H   0  0  0  0  0  0  0  0  0  0  0  0
   -7.2360   20.4240  -32.9970 C   0  0  0  0  0  0  0  0  0  0  0  0
   -7.7249   21.1686  -33.6424 H   0  0  0  0  0  0  0  0  0  0  0  0
   -7.9394   19.6568  -32.6410 H   0  0  0  0  0  0  0  0  0  0  0  0
   -6.6830   21.1420  -31.7580 C   0  0  0  0  0  0  0  0  0  0  0  0
   -7.4668   21.7874  -31.3348 H   0  0  0  0  0  0  0  0  0  0  0  0
   -6.3714   20.3869  -31.0214 H   0  0  0  0  0  0  0  0  0  0  0  0
   -6.3250   24.2100  -31.4040 C   0  0  0  0  0  0  0  0  0  0  0  0
   -7.3069   24.0188  -31.8614 H   0  0  0  0  0  0  0  0  0  0  0  0
  1  2  1  0
  2  3  1  0
  3  4  1  0
  4  5  2  0
  5  6  1  0
  6  7  1  0
  6  8  1  0
  6  9  1  0
  4 10  1  0
 10 11  2  0
 11 12  1  0
 12 13  1  0
 13 14  1  0
 13 15  1  0
 13 16  1  0
 16 17  1  0
 16 18  1  0
 16 19  1  0
 19 20  1  0
 19 21  1  0
 21 22  1  0
 22 23  1  0
 22 24  1  0
 22 25  1  0
 25 26  1  0
 25 27  1  0
 25 28  1  0
 28 29  1  0
 28 30  1  0
 28 31  1  0
 31 32  1  0
 31 33  1  0
 19 34  1  0
 34 35  1  0
 34 36  1  0
 34 37  1  0
 37 38  1  0
 37 39  1  0
 11 40  1  0
 40 41  1  0
 40  2  2  0
 37 12  1  0
 31 21  1  0
M  CHG  1   3  -1
M  END
>  <UniqueID>  (9) 
9

>  <SMILES>  (9) 
C/N=c1/nc(N2CCC(N3CCCC3)CC2)cc[n-]1

>  <Energy>  (9) 
50.94113779008631

>  <Genealogy>  (9) 
CN=c1nc(N2CCC(N3CCCC3)CC2)cc[n-]1 (protonated)
C/N=c1/nc(N2CCC(N3CCCC3)CC2)cc[n-]1 (cis-trans isomerization)
C/N=c1/nc(N2CCC(N3CCCC3)CC2)cc[n-]1 (3D coordinates assigned)
C/N=c1/nc(N2CCC(N3CCCC3)CC2)cc[n-]1 (nonaromatic ring conformer: 50.94113779008631 kcal/mol)

>  <smiles>  (9) 
CN=c1nc(N2CCC(N3CCCC3)CC2)cc[nH]1

>  <score_type>  (9) 
oracle

>  <origin>  (9) 
adg

>  <m_score__min__energy>  (9) 
-8.6400000000000006

>  <m_primary>  (9) 
energy

$$$$
9:0
     RDKit          3D

 50 52  0  0  0  0  0  0  0  0999 V2000
    0.1960   16.2450  -32.7400 C   0  0  0  0  0  0  0  0  0  0  0  0
   -1.2520   16.2880  -33.1310 C   0  0  0  0  0  0  0  0  0  0  0  0
   -2.1190   15.2560  -32.7440 C   0  0  0  0  0  0  0  0  0  0  0  0
   -3.4750   15.3120  -33.0770 C   0  0  0  0  0  0  0  0  0  0  0  0
   -3.9870   16.4000  -33.8060 C   0  0  0  0  0  0  0  0  0  0  0  0
   -5.4620   16.4680  -34.1580 C   0  0  0  0  0  0  0  0  0  0  0  0
   -6.1820   17.6310  -33.5770 N   0  0  2  0  0  0  0  0  0  0  0  0
   -6.0760   18.8520  -34.4240 C   0  0  0  0  0  0  0  0  0  0  0  0
   -6.0880   20.1750  -33.6260 C   0  0  0  0  0  0  0  0  0  0  0  0
   -7.0400   20.1520  -32.3940 C   0  0  2  0  0  0  0  0  0  0  0  0
   -8.5020   20.1050  -32.9170 C   0  0  0  0  0  0  0  0  0  0  0  0
   -6.7610   21.4230  -31.5550 C   0  0  0  0  0  0  0  0  0  0  0  0
   -7.7790   21.9350  -30.7220 C   0  0  0  0  0  0  0  0  0  0  0  0
   -7.5660   23.0650  -29.9320 C   0  0  0  0  0  0  0  0  0  0  0  0
   -6.3300   23.7080  -29.9440 C   0  0  0  0  0  0  0  0  0  0  0  0
   -5.2860   23.2230  -30.7460 C   0  0  0  0  0  0  0  0  0  0  0  0
   -3.9690   23.9040  -30.7520 C   0  0  0  0  0  0  0  0  0  0  0  0
   -3.8730   25.3020  -30.4850 N   0  0  0  0  0  0  0  0  0  0  0  0
   -2.9150   23.2530  -30.9920 O   0  0  0  0  0  0  0  0  0  0  0  0
   -5.5060   22.0830  -31.5420 C   0  0  0  0  0  0  0  0  0  0  0  0
   -6.7920   18.8720  -31.5160 C   0  0  0  0  0  0  0  0  0  0  0  0
   -5.8180   17.8730  -32.1640 C   0  0  0  0  0  0  0  0  0  0  0  0
   -3.1220   17.4530  -34.1510 C   0  0  0  0  0  0  0  0  0  0  0  0
   -1.7660   17.3970  -33.8180 C   0  0  0  0  0  0  0  0  0  0  0  0
    0.2797   16.2425  -31.6432 H   0  0  0  0  0  0  0  0  0  0  0  0
    0.6583   15.3327  -33.1451 H   0  0  0  0  0  0  0  0  0  0  0  0
    0.7116   17.1282  -33.1451 H   0  0  0  0  0  0  0  0  0  0  0  0
   -1.7299   14.3984  -32.1756 H   0  0  0  0  0  0  0  0  0  0  0  0
   -4.1472   14.4986  -32.7664 H   0  0  0  0  0  0  0  0  0  0  0  0
   -5.5517   16.5207  -35.2531 H   0  0  0  0  0  0  0  0  0  0  0  0
   -5.9271   15.5673  -33.7308 H   0  0  0  0  0  0  0  0  0  0  0  0
   -7.1920   17.3480  -33.5760 H   0  0  0  0  0  0  0  0  0  0  0  0
   -6.9251   18.8624  -35.1232 H   0  0  0  0  0  0  0  0  0  0  0  0
   -5.1044   18.7993  -34.9371 H   0  0  0  0  0  0  0  0  0  0  0  0
   -6.4094   20.9838  -34.2987 H   0  0  0  0  0  0  0  0  0  0  0  0
   -5.0686   20.3295  -33.2427 H   0  0  0  0  0  0  0  0  0  0  0  0
   -9.1961   20.0827  -32.0639 H   0  0  0  0  0  0  0  0  0  0  0  0
   -8.7015   20.9972  -33.5287 H   0  0  0  0  0  0  0  0  0  0  0  0
   -8.6437   19.2018  -33.5287 H   0  0  0  0  0  0  0  0  0  0  0  0
   -8.7579   21.4340  -30.6952 H   0  0  0  0  0  0  0  0  0  0  0  0
   -8.3774   23.4500  -29.2969 H   0  0  0  0  0  0  0  0  0  0  0  0
   -6.1719   24.6008  -29.3212 H   0  0  0  0  0  0  0  0  0  0  0  0
   -3.5520   25.9680  -31.2220 H   0  0  0  0  0  0  0  0  0  0  0  0
   -4.6875   21.6962  -32.1668 H   0  0  0  0  0  0  0  0  0  0  0  0
   -7.7555   18.3665  -31.3546 H   0  0  0  0  0  0  0  0  0  0  0  0
   -6.3378   19.2060  -30.5715 H   0  0  0  0  0  0  0  0  0  0  0  0
   -5.8565   16.9217  -31.6130 H   0  0  0  0  0  0  0  0  0  0  0  0
   -4.8024   18.2940  -32.1271 H   0  0  0  0  0  0  0  0  0  0  0  0
   -3.5159   18.3286  -34.6877 H   0  0  0  0  0  0  0  0  0  0  0  0
   -1.0990   18.2264  -34.0960 H   0  0  0  0  0  0  0  0  0  0  0  0
  1  2  1  0
  2  3  2  0
  3  4  1  0
  4  5  2  0
  5  6  1  0
  6  7  1  0
  7  8  1  0
  8  9  1  0
  9 10  1  0
 10 11  1  6
 10 12  1  0
 12 13  2  0
 13 14  1  0
 14 15  2  0
 15 16  1  0
 16 17  1  0
 17 18  1  0
 17 19  2  0
 16 20  2  0
 10 21  1  0
 21 22  1  0
  5 23  1  0
 23 24  2  0
 24  2  1  0
 22  7  1  0
 20 12  1  0
  1 25  1  0
  1 26  1  0
  1 27  1  0
  3 28  1  0
  4 29  1  0
  6 30  1  0
  6 31  1  0
  7 32  1  1
  8 33  1  0
  8 34  1  0
  9 35  1  0
  9 36  1  0
 11 37  1  0
 11 38  1  0
 11 39  1  0
 13 40  1  0
 14 41  1  0
 15 42  1  0
 18 43  1  0
 20 44  1  0
 21 45  1  0
 21 46  1  0
 22 47  1  0
 22 48  1  0
 23 49  1  0
 24 50  1  0
M  CHG  2   7   1  18  -1
M  END
>  <UniqueID>  (10) 
10

>  <SMILES>  (10) 
Cc1ccc(C[NH+]2CCC(C)(c3cccc(C([NH-])=O)c3)CC2)cc1

>  <Energy>  (10) 
70.14460703696564

>  <Genealogy>  (10) 
Cc1ccc(C[NH+]2CCC(C)(c3cccc(C([NH-])=O)c3)CC2)cc1 (protonated)
Cc1ccc(C[NH+]2CCC(C)(c3cccc(C([NH-])=O)c3)CC2)cc1 (3D coordinates assigned)
Cc1ccc(C[NH+]2CCC(C)(c3cccc(C([NH-])=O)c3)CC2)cc1 (nonaromatic ring conformer: 70.14460703696564 kcal/mol)

>  <smiles>  (10) 
Cc1ccc(CN2CCC(C)(c3cccc(C(N)=O)c3)CC2)cc1

>  <score_type>  (10) 
oracle

>  <origin>  (10) 
adg

>  <m_score__min__energy>  (10) 
-10.289999999999999

>  <m_primary>  (10) 
energy

$$$$
10:0
     RDKit          3D

 25 26  0  0  0  0  0  0  0  0999 V2000
   -5.7800   16.7040  -34.1710 C   0  0  0  0  0  0  0  0  0  0  0  0
   -6.4230   17.8680  -33.4880 C   0  0  0  0  0  0  0  0  0  0  0  0
   -7.5520   17.6700  -32.7210 C   0  0  0  0  0  0  0  0  0  0  0  0
   -8.1110   18.7830  -32.1090 C   0  0  0  0  0  0  0  0  0  0  0  0
   -9.1580   18.6180  -31.3950 N   0  0  0  0  0  0  0  0  0  0  0  0
   -7.5920   20.0150  -32.2440 N   0  0  0  0  0  0  0  0  0  0  0  0
   -7.9510   21.2170  -31.7580 C   0  0  0  0  0  0  0  0  0  0  0  0
   -9.1070   21.5270  -30.8730 C   0  0  0  0  0  0  0  0  0  0  0  0
   -7.0370   22.1380  -32.2340 C   0  0  0  0  0  0  0  0  0  0  0  0
   -7.0790   23.5970  -31.9240 C   0  0  0  0  0  0  0  0  0  0  0  0
   -6.1480   21.4790  -32.9930 N   0  0  0  0  0  0  0  0  0  0  0  0
   -6.4740   20.1630  -33.0130 C   0  0  0  0  0  0  0  0  0  0  0  0
   -5.8990   19.1060  -33.6250 N   0  0  0  0  0  0  0  0  0  0  0  0
   -5.3932   16.0038  -33.4160 H   0  0  0  0  0  0  0  0  0  0  0  0
   -6.5230   16.1916  -34.7998 H   0  0  0  0  0  0  0  0  0  0  0  0
   -4.9507   17.0602  -34.7998 H   0  0  0  0  0  0  0  0  0  0  0  0
   -7.9920   16.6692  -32.5992 H   0  0  0  0  0  0  0  0  0  0  0  0
   -9.3570   17.7660  -30.8430 H   0  0  0  0  0  0  0  0  0  0  0  0
   -8.7962   21.4437  -29.8211 H   0  0  0  0  0  0  0  0  0  0  0  0
   -9.4569   22.5507  -31.0719 H   0  0  0  0  0  0  0  0  0  0  0  0
   -9.9222   20.8157  -31.0719 H   0  0  0  0  0  0  0  0  0  0  0  0
   -7.0831   23.7401  -30.8334 H   0  0  0  0  0  0  0  0  0  0  0  0
   -6.1946   24.0890  -32.3551 H   0  0  0  0  0  0  0  0  0  0  0  0
   -7.9902   24.0374  -32.3551 H   0  0  0  0  0  0  0  0  0  0  0  0
   -5.3430   21.9280  -33.4830 H   0  0  0  0  0  0  0  0  0  0  0  0
  1  2  1  0
  2  3  2  0
  3  4  1  0
  4  5  2  3
  4  6  1  0
  6  7  1  0
  7  8  1  0
  7  9  2  0
  9 10  1  0
  9 11  1  0
 11 12  1  0
 12 13  2  0
 13  2  1  0
 12  6  1  0
  1 14  1  0
  1 15  1  0
  1 16  1  0
  3 17  1  0
  5 18  1  0
  8 19  1  0
  8 20  1  0
  8 21  1  0
 10 22  1  0
 10 23  1  0
 10 24  1  0
 11 25  1  0
M  END
>  <smiles>  (11) 
Cc1cc(=N)n2c(C)c(C)[nH]c2n1

>  <score_type>  (11) 
oracle

>  <origin>  (11) 
adg

>  <m_score__min__energy>  (11) 
-5.5199999999999996

>  <m_primary>  (11) 
energy

$$$$
11:0
     RDKit          3D

 40 43  0  0  0  0  0  0  0  0999 V2000
   -1.4750   25.0420  -28.1960 C   0  0  0  0  0  0  0  0  0  0  0  0
   -2.2810   25.2990  -29.3410 O   0  0  0  0  0  0  0  0  0  0  0  0
   -3.2980   24.4490  -29.8010 C   0  0  0  0  0  0  0  0  0  0  0  0
   -3.1100   23.0640  -29.9580 C   0  0  0  0  0  0  0  0  0  0  0  0
   -4.1560   22.2570  -30.4200 C   0  0  0  0  0  0  0  0  0  0  0  0
   -5.4070   22.8170  -30.7340 C   0  0  0  0  0  0  0  0  0  0  0  0
   -6.5160   21.9630  -31.2260 C   0  0  0  0  0  0  0  0  0  0  0  0
   -6.3440   20.6050  -31.3300 N   0  0  0  0  0  0  0  0  0  0  0  0
   -7.3830   19.8660  -31.7820 C   0  0  0  0  0  0  0  0  0  0  0  0
   -8.5710   20.4030  -32.1180 C   0  0  0  0  0  0  0  0  0  0  0  0
   -9.3980   19.4030  -32.4690 N   0  0  0  0  0  0  0  0  0  0  0  0
   -8.7050   18.2720  -32.3390 N   0  0  0  0  0  0  0  0  0  0  0  0
   -7.4660   18.5350  -31.9280 N   0  0  0  0  0  0  0  0  0  0  0  0
   -6.4570   17.5320  -31.6060 C   0  0  0  0  0  0  0  0  0  0  0  0
   -5.4910   17.3890  -32.7490 C   0  0  0  0  0  0  0  0  0  0  0  0
   -4.6780   18.4720  -33.1230 C   0  0  0  0  0  0  0  0  0  0  0  0
   -3.8100   18.3560  -34.2130 C   0  0  0  0  0  0  0  0  0  0  0  0
   -3.7550   17.1640  -34.9410 C   0  0  0  0  0  0  0  0  0  0  0  0
   -4.5710   16.0880  -34.5830 C   0  0  0  0  0  0  0  0  0  0  0  0
   -5.4400   16.1990  -33.4930 C   0  0  0  0  0  0  0  0  0  0  0  0
   -8.7710   21.7690  -32.0170 C   0  0  0  0  0  0  0  0  0  0  0  0
   -9.8720   22.3000  -32.3170 O   0  0  0  0  0  0  0  0  0  0  0  0
   -7.7250   22.5280  -31.5710 N   0  0  0  0  0  0  0  0  0  0  0  0
   -5.5870   24.2030  -30.5740 C   0  0  0  0  0  0  0  0  0  0  0  0
   -4.5410   25.0070  -30.1130 C   0  0  0  0  0  0  0  0  0  0  0  0
   -2.0621   25.2292  -27.2848 H   0  0  0  0  0  0  0  0  0  0  0  0
   -1.1429   23.9934  -28.2092 H   0  0  0  0  0  0  0  0  0  0  0  0
   -0.5972   25.7048  -28.2092 H   0  0  0  0  0  0  0  0  0  0  0  0
   -2.1362   22.6129  -29.7165 H   0  0  0  0  0  0  0  0  0  0  0  0
   -3.9980   21.1749  -30.5385 H   0  0  0  0  0  0  0  0  0  0  0  0
  -10.3960   19.4710  -32.7690 H   0  0  0  0  0  0  0  0  0  0  0  0
   -5.9100   17.8422  -30.7035 H   0  0  0  0  0  0  0  0  0  0  0  0
   -6.9520   16.5658  -31.4286 H   0  0  0  0  0  0  0  0  0  0  0  0
   -4.7244   19.4139  -32.5567 H   0  0  0  0  0  0  0  0  0  0  0  0
   -3.1696   19.2038  -34.4980 H   0  0  0  0  0  0  0  0  0  0  0  0
   -3.0690   17.0731  -35.7961 H   0  0  0  0  0  0  0  0  0  0  0  0
   -4.5299   15.1520  -35.1594 H   0  0  0  0  0  0  0  0  0  0  0  0
   -6.0854   15.3519  -33.2176 H   0  0  0  0  0  0  0  0  0  0  0  0
   -6.5594   24.6578  -30.8138 H   0  0  0  0  0  0  0  0  0  0  0  0
   -4.6974   26.0894  -29.9945 H   0  0  0  0  0  0  0  0  0  0  0  0
  1  2  1  0
  2  3  1  0
  3  4  2  0
  4  5  1  0
  5  6  2  0
  6  7  1  0
  7  8  2  0
  8  9  1  0
  9 10  2  0
 10 11  1  0
 11 12  2  0
 12 13  1  0
 13 14  1  0
 14 15  1  0
 15 16  2  0
 16 17  1  0
 17 18  2  0
 18 19  1  0
 19 20  2  0
 10 21  1  0
 21 22  2  0
 21 23  1  0
  6 24  1  0
 24 25  2  0
 25  3  1  0
 23  7  1  0
 13  9  1  0
 20 15  1  0
  1 26  1  0
  1 27  1  0
  1 28  1  0
  4 29  1  0
  5 30  1  0
 11 31  1  0
 14 32  1  0
 14 33  1  0
 16 34  1  0
 17 35  1  0
 18 36  1  0
 19 37  1  0
 20 38  1  0
 24 39  1  0
 25 40  1  0
M  CHG  2  11   1  23  -1
M  END
>  <UniqueID>  (12) 
11

>  <SMILES>  (12) 
COc1ccc(-c2nc3c([nH+]nn3Cc3ccccc3)c(=O)[n-]2)cc1

>  <Energy>  (12) 
93.2270691993455

>  <Genealogy>  (12) 
COc1ccc(-c2nc3c([nH+]nn3Cc3ccccc3)c(=O)[n-]2)cc1 (protonated)
COc1ccc(-c2nc3c([nH+]nn3Cc3ccccc3)c(=O)[n-]2)cc1 (3D coordinates assigned)
COc1ccc(-c2nc3c([nH+]nn3Cc3ccccc3)c(=O)[n-]2)cc1 (optimized conformer: 93.2270691993455 kcal/mol)

>  <smiles>  (12) 
COc1ccc(-c2nc3c(nnn3Cc3ccccc3)c(=O)[nH]2)cc1

>  <score_type>  (12) 
oracle

>  <origin>  (12) 
adg

>  <m_score__min__energy>  (12) 
-8.5399999999999991

>  <m_primary>  (12) 
energy

$$$$
12:0
     RDKit          3D

 34 34  0  0  0  0  0  0  0  0999 V2000
   -8.7700   18.2250  -31.6070 C   0  0  0  0  0  0  0  0  0  0  0  0
   -9.0950   19.6550  -32.0280 C   0  0  0  0  0  0  0  0  0  0  0  0
   -8.2500   20.0690  -33.1490 N   0  0  0  0  0  0  0  0  0  0  0  0
   -6.8960   20.5470  -33.0230 C   0  0  0  0  0  0  0  0  0  0  0  0
   -5.8370   19.7140  -33.3960 C   0  0  0  0  0  0  0  0  0  0  0  0
   -4.5580   20.1520  -33.2800 N   0  0  0  0  0  0  0  0  0  0  0  0
   -4.2590   21.3680  -32.8110 N   0  0  0  0  0  0  0  0  0  0  0  0
   -2.8460   21.7580  -32.7350 C   0  0  0  0  0  0  0  0  0  0  0  0
   -2.2930   21.6110  -31.3040 C   0  0  0  0  0  0  0  0  0  0  0  0
   -3.1100   22.3070  -30.2940 N   0  0  0  0  0  0  0  0  0  0  0  0
   -2.3130   23.1750  -29.4130 C   0  0  0  0  0  0  0  0  0  0  0  0
   -2.9860   24.5390  -29.2460 C   0  0  0  0  0  0  0  0  0  0  0  0
   -3.5140   24.9830  -30.4670 O   0  0  0  0  0  0  0  0  0  0  0  0
   -5.2580   22.2210  -32.4210 C   0  0  0  0  0  0  0  0  0  0  0  0
   -4.9890   23.3660  -31.9670 O   0  0  0  0  0  0  0  0  0  0  0  0
   -6.5910   21.8200  -32.5220 C   0  0  0  0  0  0  0  0  0  0  0  0
   -8.7553   18.1604  -30.5090 H   0  0  0  0  0  0  0  0  0  0  0  0
   -9.5360   17.5428  -32.0042 H   0  0  0  0  0  0  0  0  0  0  0  0
   -7.7844   17.9409  -32.0042 H   0  0  0  0  0  0  0  0  0  0  0  0
  -10.1508   19.7109  -32.3318 H   0  0  0  0  0  0  0  0  0  0  0  0
   -8.9068   20.3257  -31.1767 H   0  0  0  0  0  0  0  0  0  0  0  0
   -8.6660   20.0000  -34.1070 H   0  0  0  0  0  0  0  0  0  0  0  0
   -6.0404   18.7046  -33.7831 H   0  0  0  0  0  0  0  0  0  0  0  0
   -2.2618   21.1165  -33.4111 H   0  0  0  0  0  0  0  0  0  0  0  0
   -2.7646   22.8150  -33.0284 H   0  0  0  0  0  0  0  0  0  0  0  0
   -2.2589   20.5413  -31.0501 H   0  0  0  0  0  0  0  0  0  0  0  0
   -1.2933   22.0698  -31.2900 H   0  0  0  0  0  0  0  0  0  0  0  0
   -3.8550   22.8750  -30.7580 H   0  0  0  0  0  0  0  0  0  0  0  0
   -2.2156   22.6971  -28.4270 H   0  0  0  0  0  0  0  0  0  0  0  0
   -1.3210   23.3227  -29.8648 H   0  0  0  0  0  0  0  0  0  0  0  0
   -3.7995   24.4529  -28.5106 H   0  0  0  0  0  0  0  0  0  0  0  0
   -2.2349   25.2645  -28.9003 H   0  0  0  0  0  0  0  0  0  0  0  0
   -3.2840   24.2950  -31.1440 H   0  0  0  0  0  0  0  0  0  0  0  0
   -7.3979   22.4994  -32.2101 H   0  0  0  0  0  0  0  0  0  0  0  0
  1  2  1  0
  2  3  1  0
  3  4  1  0
  4  5  1  0
  5  6  2  0
  6  7  1  0
  7  8  1  0
  8  9  1  0
  9 10  1  0
 10 11  1  0
 11 12  1  0
 12 13  1  0
  7 14  1  0
 14 15  2  0
 14 16  1  0
 16  4  2  0
  1 17  1  0
  1 18  1  0
  1 19  1  0
  2 20  1  0
  2 21  1  0
  3 22  1  0
  5 23  1  0
  8 24  1  0
  8 25  1  0
  9 26  1  0
  9 27  1  0
 10 28  1  0
 11 29  1  0
 11 30  1  0
 12 31  1  0
 12 32  1  0
 13 33  1  0
 16 34  1  0
M  END
>  <UniqueID>  (13) 
12

>  <SMILES>  (13) 
CCNc1cnn(CCNCCO)c(=O)c1

>  <Energy>  (13) 
28.46495133895543

>  <Genealogy>  (13) 
CCNc1cnn(CCNCCO)c(=O)c1 (3D coordinates assigned)
CCNc1cnn(CCNCCO)c(=O)c1 (optimized conformer: 28.46495133895543 kcal/mol)

>  <smiles>  (13) 
CCNc1cnn(CCNCCO)c(=O)c1

>  <score_type>  (13) 
oracle

>  <origin>  (13) 
adg

>  <m_score__min__energy>  (13) 
-7.21

>  <m_primary>  (13) 
energy

$$$$
13:0
     RDKit          3D

 58 62  0  0  0  0  0  0  0  0999 V2000
   -5.2540   24.6120  -30.3173 H   0  0  0  0  0  0  0  0  0  0  0  0
   -5.0720   23.6370  -30.7930 C   0  0  0  0  0  0  0  0  0  0  0  0
   -3.7960   23.2590  -30.9560 C   0  0  0  0  0  0  0  0  0  0  0  0
   -3.2378   23.7155  -31.7866 H   0  0  0  0  0  0  0  0  0  0  0  0
   -3.0770   22.2820  -30.1150 C   0  0  0  0  0  0  0  0  0  0  0  0
   -3.4330   22.0460  -28.8290 N   0  0  0  0  0  0  0  0  0  0  0  0
   -2.6080   21.0500  -28.4470 C   0  0  0  0  0  0  0  0  0  0  0  0
   -2.6080   20.4330  -27.1990 C   0  0  0  0  0  0  0  0  0  0  0  0
   -3.2861   20.7668  -26.3998 H   0  0  0  0  0  0  0  0  0  0  0  0
   -1.7140   19.3710  -26.9950 C   0  0  0  0  0  0  0  0  0  0  0  0
   -1.6880   18.8585  -26.0220 H   0  0  0  0  0  0  0  0  0  0  0  0
   -0.8470   18.9550  -28.0300 C   0  0  0  0  0  0  0  0  0  0  0  0
    0.0660   17.7830  -27.8320 C   0  0  0  0  0  0  0  0  0  0  0  0
    0.2052   17.6044  -26.7556 H   0  0  0  0  0  0  0  0  0  0  0  0
   -0.3771   16.8903  -28.2976 H   0  0  0  0  0  0  0  0  0  0  0  0
    1.0400   17.9942  -28.2976 H   0  0  0  0  0  0  0  0  0  0  0  0
   -0.9080   19.6060  -29.2740 C   0  0  0  0  0  0  0  0  0  0  0  0
   -0.2683   19.2854  -30.1095 H   0  0  0  0  0  0  0  0  0  0  0  0
   -1.7770   20.6420  -29.4200 N   0  0  0  0  0  0  0  0  0  0  0  0
   -2.0610   21.4010  -30.4920 C   0  0  0  0  0  0  0  0  0  0  0  0
   -1.4670   21.2010  -31.8340 C   0  0  0  0  0  0  0  0  0  0  0  0
   -0.0710   21.2590  -31.9600 C   0  0  0  0  0  0  0  0  0  0  0  0
    0.5490   21.4326  -31.0681 H   0  0  0  0  0  0  0  0  0  0  0  0
    0.5390   21.0990  -33.2030 C   0  0  0  0  0  0  0  0  0  0  0  0
    1.6337   21.1620  -33.2909 H   0  0  0  0  0  0  0  0  0  0  0  0
   -0.2390   20.8590  -34.3350 C   0  0  0  0  0  0  0  0  0  0  0  0
    0.2413   20.7546  -35.3191 H   0  0  0  0  0  0  0  0  0  0  0  0
   -1.6260   20.7510  -34.2220 C   0  0  0  0  0  0  0  0  0  0  0  0
   -2.2310   20.5473  -35.1178 H   0  0  0  0  0  0  0  0  0  0  0  0
   -2.2580   20.9000  -32.9740 C   0  0  0  0  0  0  0  0  0  0  0  0
   -3.7540   20.6850  -32.8800 C   0  0  0  0  0  0  0  0  0  0  0  0
   -4.1228   21.1261  -31.9422 H   0  0  0  0  0  0  0  0  0  0  0  0
   -4.2328   21.1658  -33.7458 H   0  0  0  0  0  0  0  0  0  0  0  0
   -4.0830   19.2440  -32.8990 N   0  0  0  0  0  0  0  0  0  0  0  0
   -4.7750   18.8970  -34.1490 C   0  0  0  0  0  0  0  0  0  0  0  0
   -5.7357   18.4152  -33.9147 H   0  0  0  0  0  0  0  0  0  0  0  0
   -4.9561   19.8109  -34.7337 H   0  0  0  0  0  0  0  0  0  0  0  0
   -4.1509   18.2052  -34.7337 H   0  0  0  0  0  0  0  0  0  0  0  0
   -2.8680   18.4250  -32.7570 C   0  0  0  0  0  0  0  0  0  0  0  0
   -2.6483   18.2769  -31.6894 H   0  0  0  0  0  0  0  0  0  0  0  0
   -3.0259   17.4483  -33.2378 H   0  0  0  0  0  0  0  0  0  0  0  0
   -2.0219   18.9378  -33.2378 H   0  0  0  0  0  0  0  0  0  0  0  0
   -6.2500   22.8510  -31.2000 C   0  0  0  0  0  0  0  0  0  0  0  0
   -6.1250   21.5010  -31.3140 N   0  0  0  0  0  0  0  0  0  0  0  0
   -7.1700   20.7100  -31.6730 C   0  0  0  0  0  0  0  0  0  0  0  0
   -6.9890   19.3300  -31.8190 C   0  0  0  0  0  0  0  0  0  0  0  0
   -6.0030   18.8817  -31.6270 H   0  0  0  0  0  0  0  0  0  0  0  0
   -8.0610   18.5200  -32.2090 C   0  0  0  0  0  0  0  0  0  0  0  0
   -7.8820   17.1840  -32.3540 F   0  0  0  0  0  0  0  0  0  0  0  0
   -9.3170   19.0860  -32.4510 C   0  0  0  0  0  0  0  0  0  0  0  0
  -10.1570   18.4452  -32.7573 H   0  0  0  0  0  0  0  0  0  0  0  0
   -9.5090   20.4640  -32.3050 C   0  0  0  0  0  0  0  0  0  0  0  0
  -10.4988   20.9048  -32.4945 H   0  0  0  0  0  0  0  0  0  0  0  0
   -8.4390   21.2830  -31.9170 C   0  0  0  0  0  0  0  0  0  0  0  0
   -8.5950   22.6660  -31.7690 C   0  0  0  0  0  0  0  0  0  0  0  0
   -9.5772   23.1311  -31.9392 H   0  0  0  0  0  0  0  0  0  0  0  0
   -7.5020   23.4540  -31.4050 C   0  0  0  0  0  0  0  0  0  0  0  0
   -7.6203   24.5404  -31.2795 H   0  0  0  0  0  0  0  0  0  0  0  0
  1  2  1  0
  2  3  2  0
  3  4  1  0
  3  5  1  0
  5  6  1  0
  6  7  2  0
  7  8  1  0
  8  9  1  0
  8 10  2  0
 10 11  1  0
 10 12  1  0
 12 13  1  0
 13 14  1  0
 13 15  1  0
 13 16  1  0
 12 17  2  0
 17 18  1  0
 17 19  1  0
 19 20  1  0
 20 21  1  0
 21 22  2  0
 22 23  1  0
 22 24  1  0
 24 25  1  0
 24 26  2  0
 26 27  1  0
 26 28  1  0
 28 29  1  0
 28 30  2  0
 30 31  1  0
 31 32  1  0
 31 33  1  0
 31 34  1  0
 34 35  1  0
 35 36  1  0
 35 37  1  0
 35 38  1  0
 34 39  1  0
 39 40  1  0
 39 41  1  0
 39 42  1  0
  2 43  1  0
 43 44  2  0
 44 45  1  0
 45 46  2  0
 46 47  1  0
 46 48  1  0
 48 49  1  0
 48 50  2  0
 50 51  1  0
 50 52  1  0
 52 53  1  0
 52 54  2  0
 54 55  1  0
 55 56  1  0
 55 57  2  0
 57 58  1  0
 20  5  2  0
 30 21  1  0
 57 43  1  0
 19  7  1  0
 54 45  1  0
M  END
>  <UniqueID>  (14) 
13

>  <SMILES>  (14) 
Cc1ccc2nc(/C=C\c3ccc4ccc(F)cc4n3)c(-c3ccccc3CN(C)C)n2c1

>  <Energy>  (14) 
112.28093988400227

>  <Genealogy>  (14) 
Cc1ccc2nc(/C=C\c3ccc4ccc(F)cc4n3)c(-c3ccccc3CN(C)C)n2c1 (cis-trans isomerization)
Cc1ccc2nc(/C=C\c3ccc4ccc(F)cc4n3)c(-c3ccccc3CN(C)C)n2c1 (3D coordinates assigned)
Cc1ccc2nc(/C=C\c3ccc4ccc(F)cc4n3)c(-c3ccccc3CN(C)C)n2c1 (optimized conformer: 112.28093988400227 kcal/mol)

>  <smiles>  (14) 
Cc1ccc2nc(C=Cc3ccc4ccc(F)cc4n3)c(-c3ccccc3CN(C)C)n2c1

>  <score_type>  (14) 
oracle

>  <origin>  (14) 
adg

>  <m_score__min__energy>  (14) 
-10.130000000000001

>  <m_primary>  (14) 
energy

$$$$
14:0
     RDKit          3D

 44 46  0  0  0  0  0  0  0  0999 V2000
   -2.1850   24.8310  -28.7030 C   0  0  0  0  0  0  0  0  0  0  0  0
   -3.1010   25.2350  -29.7160 O   0  0  0  0  0  0  0  0  0  0  0  0
   -4.2900   24.5590  -30.0240 C   0  0  0  0  0  0  0  0  0  0  0  0
   -4.2460   23.1670  -30.1710 C   0  0  0  0  0  0  0  0  0  0  0  0
   -5.4050   22.4480  -30.4780 C   0  0  0  0  0  0  0  0  0  0  0  0
   -6.6260   23.1140  -30.6360 C   0  0  0  0  0  0  0  0  0  0  0  0
   -8.0730   22.2000  -31.0530 S   0  0  0  0  0  0  0  0  0  0  0  0
   -8.9170   22.0410  -29.8180 O   0  0  0  0  0  0  0  0  0  0  0  0
   -8.8730   22.9490  -32.0850 O   0  0  0  0  0  0  0  0  0  0  0  0
   -7.6230   20.6300  -31.6680 N   0  0  0  0  0  0  0  0  0  0  0  0
   -6.7150   20.7790  -32.8320 C   0  0  0  0  0  0  0  0  0  0  0  0
   -6.6960   19.5390  -33.7510 C   0  0  0  0  0  0  0  0  0  0  0  0
   -7.1620   18.3470  -33.0310 N   0  0  0  0  0  0  0  0  0  0  0  0
   -6.4090   17.1200  -33.0620 C   0  0  0  0  0  0  0  0  0  0  0  0
   -5.6830   16.7010  -31.9330 C   0  0  0  0  0  0  0  0  0  0  0  0
   -4.9620   15.5020  -31.9590 C   0  0  0  0  0  0  0  0  0  0  0  0
   -4.9620   14.7100  -33.1090 C   0  0  0  0  0  0  0  0  0  0  0  0
   -4.2630   13.5480  -33.1330 F   0  0  0  0  0  0  0  0  0  0  0  0
   -5.6860   15.1130  -34.2350 C   0  0  0  0  0  0  0  0  0  0  0  0
   -6.4090   16.3100  -34.2120 C   0  0  0  0  0  0  0  0  0  0  0  0
   -8.4530   18.4040  -32.3320 C   0  0  0  0  0  0  0  0  0  0  0  0
   -8.8320   19.8570  -32.0090 C   0  0  0  0  0  0  0  0  0  0  0  0
   -6.6770   24.5070  -30.4970 C   0  0  0  0  0  0  0  0  0  0  0  0
   -5.5180   25.2280  -30.1900 C   0  0  0  0  0  0  0  0  0  0  0  0
   -2.6241   25.0247  -27.7132 H   0  0  0  0  0  0  0  0  0  0  0  0
   -1.9742   23.7564  -28.8067 H   0  0  0  0  0  0  0  0  0  0  0  0
   -1.2493   25.3999  -28.8067 H   0  0  0  0  0  0  0  0  0  0  0  0
   -3.2917   22.6350  -30.0439 H   0  0  0  0  0  0  0  0  0  0  0  0
   -5.3573   21.3554  -30.5958 H   0  0  0  0  0  0  0  0  0  0  0  0
   -7.1110   20.1360  -30.8980 H   0  0  0  0  0  0  0  0  0  0  0  0
   -7.0433   21.6469  -33.4227 H   0  0  0  0  0  0  0  0  0  0  0  0
   -5.6965   20.9091  -32.4375 H   0  0  0  0  0  0  0  0  0  0  0  0
   -7.3546   19.7195  -34.6133 H   0  0  0  0  0  0  0  0  0  0  0  0
   -5.6629   19.3657  -34.0868 H   0  0  0  0  0  0  0  0  0  0  0  0
   -5.6818   17.3197  -31.0235 H   0  0  0  0  0  0  0  0  0  0  0  0
   -4.3945   15.1830  -31.0723 H   0  0  0  0  0  0  0  0  0  0  0  0
   -5.6870   14.4879  -35.1401 H   0  0  0  0  0  0  0  0  0  0  0  0
   -6.9813   16.6200  -35.0988 H   0  0  0  0  0  0  0  0  0  0  0  0
   -9.2303   17.9620  -32.9727 H   0  0  0  0  0  0  0  0  0  0  0  0
   -8.3700   17.8424  -31.3898 H   0  0  0  0  0  0  0  0  0  0  0  0
   -9.3188   20.3099  -32.8853 H   0  0  0  0  0  0  0  0  0  0  0  0
   -9.5214   19.8683  -31.1519 H   0  0  0  0  0  0  0  0  0  0  0  0
   -7.6322   25.0361  -30.6298 H   0  0  0  0  0  0  0  0  0  0  0  0
   -5.5661   26.3212  -30.0779 H   0  0  0  0  0  0  0  0  0  0  0  0
  1  2  1  0
  2  3  1  0
  3  4  2  0
  4  5  1  0
  5  6  2  0
  6  7  1  0
  7  8  2  0
  7  9  2  0
  7 10  1  0
 10 11  1  0
 11 12  1  0
 12 13  1  0
 13 14  1  0
 14 15  2  0
 15 16  1  0
 16 17  2  0
 17 18  1  0
 17 19  1  0
 19 20  2  0
 13 21  1  0
 21 22  1  0
  6 23  1  0
 23 24  2  0
 24  3  1  0
 22 10  1  0
 20 14  1  0
  1 25  1  0
  1 26  1  0
  1 27  1  0
  4 28  1  0
  5 29  1  0
 10 30  1  0
 11 31  1  0
 11 32  1  0
 12 33  1  0
 12 34  1  0
 15 35  1  0
 16 36  1  0
 19 37  1  0
 20 38  1  0
 21 39  1  0
 21 40  1  0
 22 41  1  0
 22 42  1  0
 23 43  1  0
 24 44  1  0
M  CHG  1  10   1
M  END
>  <UniqueID>  (15) 
14

>  <SMILES>  (15) 
COc1ccc(S(=O)(=O)[NH+]2CCN(c3ccc(F)cc3)CC2)cc1

>  <Energy>  (15) 
52.66124277102269

>  <Genealogy>  (15) 
COc1ccc(S(=O)(=O)[NH+]2CCN(c3ccc(F)cc3)CC2)cc1 (protonated)
COc1ccc(S(=O)(=O)[NH+]2CCN(c3ccc(F)cc3)CC2)cc1 (3D coordinates assigned)
COc1ccc(S(=O)(=O)[NH+]2CCN(c3ccc(F)cc3)CC2)cc1 (nonaromatic ring conformer: 52.66124277102269 kcal/mol)

>  <smiles>  (15) 
COc1ccc(S(=O)(=O)N2CCN(c3ccc(F)cc3)CC2)cc1

>  <score_type>  (15) 
oracle

>  <origin>  (15) 
adg

>  <m_score__min__energy>  (15) 
-8.1799999999999997

>  <m_primary>  (15) 
energy

$$$$
15:0
     RDKit          3D

 34 37  0  0  0  0  0  0  0  0999 V2000
   -2.7380   20.9140  -28.6920 C   0  0  0  0  0  0  0  0  0  0  0  0
   -2.7090   21.8250  -29.7860 O   0  0  0  0  0  0  0  0  0  0  0  0
   -2.1530   21.5410  -31.0440 C   0  0  0  0  0  0  0  0  0  0  0  0
   -0.7760   21.2940  -31.2130 C   0  0  0  0  0  0  0  0  0  0  0  0
   -0.2610   21.0000  -32.4790 C   0  0  0  0  0  0  0  0  0  0  0  0
   -1.1100   20.9500  -33.5860 C   0  0  0  0  0  0  0  0  0  0  0  0
   -2.4760   21.1960  -33.4310 C   0  0  0  0  0  0  0  0  0  0  0  0
   -3.0040   21.4960  -32.1660 C   0  0  0  0  0  0  0  0  0  0  0  0
   -4.4130   21.7540  -32.0250 N   0  0  0  0  0  0  0  0  0  0  0  0
   -5.3480   20.8000  -32.3540 C   0  0  0  0  0  0  0  0  0  0  0  0
   -4.9720   19.6690  -32.7740 O   0  0  0  0  0  0  0  0  0  0  0  0
   -6.7340   21.0730  -32.2130 C   0  0  0  0  0  0  0  0  0  0  0  0
   -7.7210   20.1240  -32.5370 C   0  0  0  0  0  0  0  0  0  0  0  0
   -9.0760   20.4360  -32.3830 C   0  0  0  0  0  0  0  0  0  0  0  0
   -9.4600   21.6920  -31.9070 C   0  0  0  0  0  0  0  0  0  0  0  0
   -8.4930   22.6470  -31.5780 C   0  0  0  0  0  0  0  0  0  0  0  0
   -7.1300   22.3440  -31.7280 C   0  0  0  0  0  0  0  0  0  0  0  0
   -6.1500   23.2350  -31.4270 N   0  0  0  0  0  0  0  0  0  0  0  0
   -6.1680   24.5000  -30.9700 C   0  0  0  0  0  0  0  0  0  0  0  0
   -4.9070   24.9710  -30.8420 N   0  0  0  0  0  0  0  0  0  0  0  0
   -4.0740   24.0050  -31.2180 N   0  0  0  0  0  0  0  0  0  0  0  0
   -4.8500   22.9620  -31.5650 C   0  0  0  0  0  0  0  0  0  0  0  0
   -2.7201   21.4758  -27.7465 H   0  0  0  0  0  0  0  0  0  0  0  0
   -3.6558   20.3098  -28.7422 H   0  0  0  0  0  0  0  0  0  0  0  0
   -1.8605   20.2526  -28.7422 H   0  0  0  0  0  0  0  0  0  0  0  0
   -0.1026   21.3327  -30.3440 H   0  0  0  0  0  0  0  0  0  0  0  0
    0.8149   20.8078  -32.6030 H   0  0  0  0  0  0  0  0  0  0  0  0
   -0.7029   20.7167  -34.5809 H   0  0  0  0  0  0  0  0  0  0  0  0
   -3.1418   21.1543  -34.3056 H   0  0  0  0  0  0  0  0  0  0  0  0
   -7.4261   19.1331  -32.9128 H   0  0  0  0  0  0  0  0  0  0  0  0
   -9.8423   19.6891  -32.6378 H   0  0  0  0  0  0  0  0  0  0  0  0
  -10.5274   21.9307  -31.7905 H   0  0  0  0  0  0  0  0  0  0  0  0
   -8.7996   23.6343  -31.2022 H   0  0  0  0  0  0  0  0  0  0  0  0
   -7.0787   25.0700  -30.7341 H   0  0  0  0  0  0  0  0  0  0  0  0
  1  2  1  0
  2  3  1  0
  3  4  2  0
  4  5  1  0
  5  6  2  0
  6  7  1  0
  7  8  2  0
  8  9  1  0
  9 10  1  0
 10 11  2  0
 10 12  1  0
 12 13  2  0
 13 14  1  0
 14 15  2  0
 15 16  1  0
 16 17  2  0
 17 18  1  0
 18 19  1  0
 19 20  2  0
 20 21  1  0
 21 22  2  0
  8  3  1  0
 22  9  1  0
 17 12  1  0
 22 18  1  0
  1 23  1  0
  1 24  1  0
  1 25  1  0
  4 26  1  0
  5 27  1  0
  6 28  1  0
  7 29  1  0
 13 30  1  0
 14 31  1  0
 15 32  1  0
 16 33  1  0
 19 34  1  0
M  END
>  <UniqueID>  (16) 
15

>  <SMILES>  (16) 
COc1ccccc1-n1c(=O)c2ccccc2n2cnnc12

>  <Energy>  (16) 
93.65303016176483

>  <Genealogy>  (16) 
COc1ccccc1-n1c(=O)c2ccccc2n2cnnc12 (3D coordinates assigned)
COc1ccccc1-n1c(=O)c2ccccc2n2cnnc12 (optimized conformer: 93.65303016176483 kcal/mol)

>  <smiles>  (16) 
COc1ccccc1-n1c(=O)c2ccccc2n2cnnc12

>  <score_type>  (16) 
oracle

>  <origin>  (16) 
adg

>  <m_score__min__energy>  (16) 
-8.0899999999999999

>  <m_primary>  (16) 
energy

$$$$
16:0
     RDKit          3D

 55 59  0  0  0  0  0  0  0  0999 V2000
   -5.7680   22.6720  -32.3070 C   0  0  0  0  0  0  0  0  0  0  0  0
   -4.8660   21.5470  -32.7210 C   0  0  0  0  0  0  0  0  0  0  0  0
   -5.3920   20.2760  -32.9750 C   0  0  0  0  0  0  0  0  0  0  0  0
   -4.5470   19.2210  -33.3160 C   0  0  0  0  0  0  0  0  0  0  0  0
   -3.1570   19.4100  -33.3960 C   0  0  0  0  0  0  0  0  0  0  0  0
   -2.3260   18.2700  -33.6690 N   0  0  0  0  0  0  0  0  0  0  0  0
   -1.6640   18.0920  -34.8010 N   0  0  0  0  0  0  0  0  0  0  0  0
   -0.9630   16.9540  -34.6490 C   0  0  0  0  0  0  0  0  0  0  0  0
   -1.2180   16.4700  -33.3840 C   0  0  0  0  0  0  0  0  0  0  0  0
   -2.0680   17.3210  -32.7820 N   0  0  0  0  0  0  0  0  0  0  0  0
   -2.6140   20.7020  -33.1670 C   0  0  0  0  0  0  0  0  0  0  0  0
   -1.1720   21.0210  -33.3590 C   0  0  0  0  0  0  0  0  0  0  0  0
   -0.8550   21.9000  -34.2050 O   0  0  0  0  0  0  0  0  0  0  0  0
   -0.1360   20.2420  -32.7190 N   0  0  0  0  0  0  0  0  0  0  0  0
    0.9910   19.8290  -33.5740 C   0  0  0  0  0  0  0  0  0  0  0  0
    2.0890   19.1690  -32.7450 C   0  0  0  0  0  0  0  0  0  0  0  0
    1.4980   18.2500  -31.8590 O   0  0  0  0  0  0  0  0  0  0  0  0
    0.8110   18.9240  -30.8180 C   0  0  0  0  0  0  0  0  0  0  0  0
    0.0700   20.2330  -31.2490 C   0  0  2  0  0  0  0  0  0  0  0  0
   -1.2370   20.4240  -30.4310 C   0  0  0  0  0  0  0  0  0  0  0  0
   -1.3730   21.8250  -29.8980 C   0  0  0  0  0  0  0  0  0  0  0  0
   -0.3260   22.4300  -29.1910 C   0  0  0  0  0  0  0  0  0  0  0  0
   -0.5000   23.7190  -28.6860 C   0  0  0  0  0  0  0  0  0  0  0  0
   -1.7060   24.3920  -28.8830 C   0  0  0  0  0  0  0  0  0  0  0  0
   -2.7420   23.7600  -29.5960 C   0  0  0  0  0  0  0  0  0  0  0  0
   -4.0060   24.4050  -29.8320 N   0  0  0  0  0  0  0  0  0  0  0  0
   -5.1410   24.2920  -29.1080 C   0  0  0  0  0  0  0  0  0  0  0  0
   -6.1090   25.0810  -29.6900 C   0  0  0  0  0  0  0  0  0  0  0  0
   -5.4900   25.6520  -30.7840 C   0  0  0  0  0  0  0  0  0  0  0  0
   -4.2140   25.2260  -30.8500 N   0  0  0  0  0  0  0  0  0  0  0  0
   -2.5410   22.5020  -30.0790 N   0  0  0  0  0  0  0  0  0  0  0  0
   -3.4810   21.7500  -32.8030 C   0  0  0  0  0  0  0  0  0  0  0  0
   -5.8094   22.7237  -31.2090 H   0  0  0  0  0  0  0  0  0  0  0  0
   -5.3772   23.6204  -32.7042 H   0  0  0  0  0  0  0  0  0  0  0  0
   -6.7787   22.4968  -32.7042 H   0  0  0  0  0  0  0  0  0  0  0  0
   -6.4769   20.1083  -32.9054 H   0  0  0  0  0  0  0  0  0  0  0  0
   -4.9735   18.2288  -33.5249 H   0  0  0  0  0  0  0  0  0  0  0  0
   -0.3045   16.4926  -35.3996 H   0  0  0  0  0  0  0  0  0  0  0  0
   -0.8008   15.5517  -32.9451 H   0  0  0  0  0  0  0  0  0  0  0  0
    0.6287   19.1136  -34.3269 H   0  0  0  0  0  0  0  0  0  0  0  0
    1.4078   20.7222  -34.0625 H   0  0  0  0  0  0  0  0  0  0  0  0
    2.7891   18.6429  -33.4107 H   0  0  0  0  0  0  0  0  0  0  0  0
    2.6396   19.9338  -32.1776 H   0  0  0  0  0  0  0  0  0  0  0  0
    0.0651   18.2327  -30.3989 H   0  0  0  0  0  0  0  0  0  0  0  0
    1.5795   19.2319  -30.0937 H   0  0  0  0  0  0  0  0  0  0  0  0
    0.6957   21.1072  -31.0163 H   0  0  0  0  0  0  0  0  0  0  0  0
   -2.0972   20.2071  -31.0814 H   0  0  0  0  0  0  0  0  0  0  0  0
   -1.2020   19.7373  -29.5724 H   0  0  0  0  0  0  0  0  0  0  0  0
    0.6225   21.8950  -29.0357 H   0  0  0  0  0  0  0  0  0  0  0  0
    0.3157   24.2057  -28.1312 H   0  0  0  0  0  0  0  0  0  0  0  0
   -1.8461   25.4077  -28.4846 H   0  0  0  0  0  0  0  0  0  0  0  0
   -5.2704   23.6748  -28.2067 H   0  0  0  0  0  0  0  0  0  0  0  0
   -7.1473   25.2245  -29.3562 H   0  0  0  0  0  0  0  0  0  0  0  0
   -5.9652   26.3470  -31.4919 H   0  0  0  0  0  0  0  0  0  0  0  0
   -3.0653   22.7436  -32.5794 H   0  0  0  0  0  0  0  0  0  0  0  0
  1  2  1  0
  2  3  2  0
  3  4  1  0
  4  5  2  0
  5  6  1  0
  6  7  1  0
  7  8  2  0
  8  9  1  0
  9 10  2  0
  5 11  1  0
 11 12  1  0
 12 13  2  0
 12 14  1  0
 14 15  1  0
 15 16  1  0
 16 17  1  0
 17 18  1  0
 18 19  1  0
 19 20  1  0
 20 21  1  0
 21 22  2  0
 22 23  1  0
 23 24  2  0
 24 25  1  0
 25 26  1  0
 26 27  1  0
 27 28  2  0
 28 29  1  0
 29 30  2  0
 25 31  2  0
 11 32  2  0
 32  2  1  0
 10  6  1  0
 19 14  1  0
 31 21  1  0
 30 26  1  0
  1 33  1  0
  1 34  1  0
  1 35  1  0
  3 36  1  0
  4 37  1  0
  8 38  1  0
  9 39  1  0
 15 40  1  0
 15 41  1  0
 16 42  1  0
 16 43  1  0
 18 44  1  0
 18 45  1  0
 19 46  1  6
 20 47  1  0
 20 48  1  0
 22 49  1  0
 23 50  1  0
 24 51  1  0
 27 52  1  0
 28 53  1  0
 29 54  1  0
 32 55  1  0
M  END
>  <UniqueID>  (17) 
16

>  <SMILES>  (17) 
Cc1ccc(-n2nccn2)c(C(=O)N2CCOC[C@@H]2Cc2cccc(-n3cccn3)n2)c1

>  <Energy>  (17) 
144.03235355551007

>  <Genealogy>  (17) 
Cc1ccc(-n2nccn2)c(C(=O)N2CCOC[C@@H]2Cc2cccc(-n3cccn3)n2)c1 (chirality)
Cc1ccc(-n2nccn2)c(C(=O)N2CCOC[C@@H]2Cc2cccc(-n3cccn3)n2)c1 (3D coordinates assigned)
Cc1ccc(-n2nccn2)c(C(=O)N2CCOC[C@@H]2Cc2cccc(-n3cccn3)n2)c1 (nonaromatic ring conformer: 144.03235355551007 kcal/mol)

>  <smiles>  (17) 
Cc1ccc(-n2nccn2)c(C(=O)N2CCOCC2Cc2cccc(-n3cccn3)n2)c1

>  <score_type>  (17) 
oracle

>  <origin>  (17) 
adg

>  <m_score__min__energy>  (17) 
-10.26

>  <m_primary>  (17) 
energy

$$$$
17:0
     RDKit          3D

 49 51  0  0  0  0  0  0  0  0999 V2000
   -9.1500   21.1940  -31.4690 C   0  0  0  0  0  0  0  0  0  0  0  0
   -7.9290   22.0420  -31.2700 C   0  0  0  0  0  0  0  0  0  0  0  0
   -7.5080   22.3840  -29.9770 C   0  0  0  0  0  0  0  0  0  0  0  0
   -6.3790   23.1880  -29.7930 C   0  0  0  0  0  0  0  0  0  0  0  0
   -5.6550   23.6590  -30.8990 C   0  0  0  0  0  0  0  0  0  0  0  0
   -4.4250   24.4540  -30.6960 C   0  0  0  0  0  0  0  0  0  0  0  0
   -4.4730   25.7040  -30.8440 O   0  0  0  0  0  0  0  0  0  0  0  0
   -3.1390   23.8240  -30.3190 C   0  0  0  0  0  0  0  0  0  0  0  0
   -2.1580   24.3990  -29.5330 C   0  0  0  0  0  0  0  0  0  0  0  0
   -2.1860   25.6690  -28.9710 O   0  0  0  0  0  0  0  0  0  0  0  0
   -1.1400   23.4860  -29.4160 C   0  0  0  0  0  0  0  0  0  0  0  0
    0.0340   23.6820  -28.6980 O   0  0  0  0  0  0  0  0  0  0  0  0
   -1.4420   22.3550  -30.0860 N   0  0  0  0  0  0  0  0  0  0  0  0
   -0.6060   21.1510  -30.1420 C   0  0  0  0  0  0  0  0  0  0  0  0
   -0.3110   20.6380  -28.7270 C   0  0  0  0  0  0  0  0  0  0  0  0
   -1.3370   19.6620  -28.2970 N   0  0  0  0  0  0  0  0  0  0  0  0
   -0.7190   18.6070  -27.4790 C   0  0  0  0  0  0  0  0  0  0  0  0
   -2.4020   20.3230  -27.5220 C   0  0  0  0  0  0  0  0  0  0  0  0
   -2.6660   22.5490  -30.6420 C   0  0  0  0  0  0  0  0  0  0  0  0
   -3.4210   21.5150  -31.3820 C   0  0  0  0  0  0  0  0  0  0  0  0
   -4.2500   20.6180  -30.6890 C   0  0  0  0  0  0  0  0  0  0  0  0
   -5.0280   19.6910  -31.3900 C   0  0  0  0  0  0  0  0  0  0  0  0
   -4.9800   19.6510  -32.7870 C   0  0  0  0  0  0  0  0  0  0  0  0
   -6.0640   18.4050  -33.7450 Br  0  0  0  0  0  0  0  0  0  0  0  0
   -4.1470   20.5340  -33.4830 C   0  0  0  0  0  0  0  0  0  0  0  0
   -3.3700   21.4620  -32.7840 C   0  0  0  0  0  0  0  0  0  0  0  0
   -6.1100   23.3580  -32.1940 C   0  0  0  0  0  0  0  0  0  0  0  0
   -7.2370   22.5530  -32.3780 C   0  0  0  0  0  0  0  0  0  0  0  0
   -9.5615   20.9082  -30.4897 H   0  0  0  0  0  0  0  0  0  0  0  0
   -9.9043   21.7636  -32.0316 H   0  0  0  0  0  0  0  0  0  0  0  0
   -8.8797   20.2882  -32.0316 H   0  0  0  0  0  0  0  0  0  0  0  0
   -8.0682   22.0183  -29.1038 H   0  0  0  0  0  0  0  0  0  0  0  0
   -6.0564   23.4529  -28.7753 H   0  0  0  0  0  0  0  0  0  0  0  0
   -1.1338   20.3694  -30.7081 H   0  0  0  0  0  0  0  0  0  0  0  0
    0.3446   21.3996  -30.6366 H   0  0  0  0  0  0  0  0  0  0  0  0
    0.6755   20.1515  -28.7182 H   0  0  0  0  0  0  0  0  0  0  0  0
   -0.3235   21.4913  -28.0330 H   0  0  0  0  0  0  0  0  0  0  0  0
   -0.8564   18.8416  -26.4131 H   0  0  0  0  0  0  0  0  0  0  0  0
   -1.1942   17.6413  -27.7061 H   0  0  0  0  0  0  0  0  0  0  0  0
    0.3557   18.5492  -27.7061 H   0  0  0  0  0  0  0  0  0  0  0  0
   -2.2036   20.1998  -26.4471 H   0  0  0  0  0  0  0  0  0  0  0  0
   -2.4251   21.3944  -27.7702 H   0  0  0  0  0  0  0  0  0  0  0  0
   -3.3723   19.8682  -27.7702 H   0  0  0  0  0  0  0  0  0  0  0  0
   -4.2876   20.6446  -29.5900 H   0  0  0  0  0  0  0  0  0  0  0  0
   -5.6780   18.9930  -30.8421 H   0  0  0  0  0  0  0  0  0  0  0  0
   -4.1036   20.4977  -34.5815 H   0  0  0  0  0  0  0  0  0  0  0  0
   -2.7157   22.1538  -33.3347 H   0  0  0  0  0  0  0  0  0  0  0  0
   -5.5757   23.7586  -33.0681 H   0  0  0  0  0  0  0  0  0  0  0  0
   -7.5830   22.3190  -33.3956 H   0  0  0  0  0  0  0  0  0  0  0  0
  1  2  1  0
  2  3  2  0
  3  4  1  0
  4  5  2  0
  5  6  1  0
  6  7  2  0
  6  8  1  0
  8  9  1  0
  9 10  1  0
  9 11  2  0
 11 12  1  0
 11 13  1  0
 13 14  1  0
 14 15  1  0
 15 16  1  0
 16 17  1  0
 16 18  1  0
 13 19  1  0
 19 20  1  0
 20 21  2  0
 21 22  1  0
 22 23  2  0
 23 24  1  0
 23 25  1  0
 25 26  2  0
  5 27  1  0
 27 28  2  0
 28  2  1  0
 19  8  2  0
 26 20  1  0
  1 29  1  0
  1 30  1  0
  1 31  1  0
  3 32  1  0
  4 33  1  0
 14 34  1  0
 14 35  1  0
 15 36  1  0
 15 37  1  0
 17 38  1  0
 17 39  1  0
 17 40  1  0
 18 41  1  0
 18 42  1  0
 18 43  1  0
 21 44  1  0
 22 45  1  0
 25 46  1  0
 26 47  1  0
 27 48  1  0
 28 49  1  0
M  CHG  2  10  -1  12  -1
M  END
>  <UniqueID>  (18) 
17

>  <SMILES>  (18) 
Cc1ccc(C(=O)c2c([O-])c([O-])n(CCN(C)C)c2-c2ccc(Br)cc2)cc1

>  <Energy>  (18) 
86.70322159763298

>  <Genealogy>  (18) 
Cc1ccc(C(=O)c2c([O-])c([O-])n(CCN(C)C)c2-c2ccc(Br)cc2)cc1 (protonated)
Cc1ccc(C(=O)c2c([O-])c([O-])n(CCN(C)C)c2-c2ccc(Br)cc2)cc1 (3D coordinates assigned)
Cc1ccc(C(=O)c2c([O-])c([O-])n(CCN(C)C)c2-c2ccc(Br)cc2)cc1 (optimized conformer: 86.70322159763298 kcal/mol)

>  <smiles>  (18) 
Cc1ccc(C(=O)c2c(O)c(O)n(CCN(C)C)c2-c2ccc(Br)cc2)cc1

>  <score_type>  (18) 
oracle

>  <origin>  (18) 
adg

>  <m_score__min__energy>  (18) 
-13.31

>  <m_primary>  (18) 
energy

$$$$
18:0
     RDKit          3D

 49 52  0  0  0  0  0  0  0  0999 V2000
   -5.3140   25.9050  -30.4990 C   0  0  0  0  0  0  0  0  0  0  0  0
   -4.0310   25.3150  -30.6910 O   0  0  0  0  0  0  0  0  0  0  0  0
   -3.7290   23.9670  -30.4410 C   0  0  0  0  0  0  0  0  0  0  0  0
   -4.0730   22.9520  -31.3490 C   0  0  0  0  0  0  0  0  0  0  0  0
   -3.7930   21.6110  -31.0610 C   0  0  0  0  0  0  0  0  0  0  0  0
   -4.1510   20.5700  -31.9860 N   0  0  0  0  0  0  0  0  0  0  0  0
   -3.2680   19.7440  -32.5180 N   0  0  0  0  0  0  0  0  0  0  0  0
   -3.9510   18.9870  -33.3980 C   0  0  0  0  0  0  0  0  0  0  0  0
   -3.3280   17.9330  -34.2140 C   0  0  0  0  0  0  0  0  0  0  0  0
   -4.1100   17.0140  -34.9330 C   0  0  0  0  0  0  0  0  0  0  0  0
   -3.4800   16.0280  -35.6960 C   0  0  0  0  0  0  0  0  0  0  0  0
   -2.0860   15.9650  -35.7370 C   0  0  0  0  0  0  0  0  0  0  0  0
   -1.3390   16.8950  -35.0100 C   0  0  0  0  0  0  0  0  0  0  0  0
   -1.9690   17.8480  -34.2730 N   0  0  0  0  0  0  0  0  0  0  0  0
   -5.2640   19.3040  -33.4460 N   0  0  0  0  0  0  0  0  0  0  0  0
   -5.3560   20.2990  -32.5400 C   0  0  0  0  0  0  0  0  0  0  0  0
   -6.6430   20.9290  -32.1780 C   0  0  0  0  0  0  0  0  0  0  0  0
   -7.6850   20.1380  -31.6650 C   0  0  0  0  0  0  0  0  0  0  0  0
   -8.9070   20.7220  -31.3160 C   0  0  0  0  0  0  0  0  0  0  0  0
   -9.0930   22.0990  -31.4610 C   0  0  0  0  0  0  0  0  0  0  0  0
   -8.0530   22.8970  -31.9480 C   0  0  0  0  0  0  0  0  0  0  0  0
   -6.8310   22.3170  -32.2970 C   0  0  0  0  0  0  0  0  0  0  0  0
   -3.1170   21.2900  -29.8800 C   0  0  0  0  0  0  0  0  0  0  0  0
   -2.7490   22.2910  -28.9590 C   0  0  0  0  0  0  0  0  0  0  0  0
   -2.0780   21.9620  -27.7700 O   0  0  0  0  0  0  0  0  0  0  0  0
   -1.9940   20.6540  -27.2140 C   0  0  0  0  0  0  0  0  0  0  0  0
   -3.0670   23.6450  -29.2440 C   0  0  0  0  0  0  0  0  0  0  0  0
   -2.7540   24.7180  -28.3870 O   0  0  0  0  0  0  0  0  0  0  0  0
   -2.9810   24.7780  -26.9830 C   0  0  0  0  0  0  0  0  0  0  0  0
   -5.5172   25.9984  -29.4220 H   0  0  0  0  0  0  0  0  0  0  0  0
   -5.3323   26.9020  -30.9634 H   0  0  0  0  0  0  0  0  0  0  0  0
   -6.0828   25.2700  -30.9634 H   0  0  0  0  0  0  0  0  0  0  0  0
   -4.5675   23.2136  -32.2961 H   0  0  0  0  0  0  0  0  0  0  0  0
   -5.2079   17.0702  -34.8956 H   0  0  0  0  0  0  0  0  0  0  0  0
   -4.0812   15.3025  -36.2635 H   0  0  0  0  0  0  0  0  0  0  0  0
   -1.5815   15.1918  -36.3350 H   0  0  0  0  0  0  0  0  0  0  0  0
   -0.2399   16.8562  -35.0339 H   0  0  0  0  0  0  0  0  0  0  0  0
   -7.5390   19.0552  -31.5374 H   0  0  0  0  0  0  0  0  0  0  0  0
   -9.7233   20.0959  -30.9266 H   0  0  0  0  0  0  0  0  0  0  0  0
  -10.0571   22.5553  -31.1922 H   0  0  0  0  0  0  0  0  0  0  0  0
   -8.1973   23.9821  -32.0563 H   0  0  0  0  0  0  0  0  0  0  0  0
   -6.0111   22.9501  -32.6671 H   0  0  0  0  0  0  0  0  0  0  0  0
   -2.8686   20.2399  -29.6665 H   0  0  0  0  0  0  0  0  0  0  0  0
   -1.9983   20.7213  -26.1161 H   0  0  0  0  0  0  0  0  0  0  0  0
   -2.8557   20.0575  -27.5482 H   0  0  0  0  0  0  0  0  0  0  0  0
   -1.0631   20.1726  -27.5482 H   0  0  0  0  0  0  0  0  0  0  0  0
   -2.0505   24.5321  -26.4503 H   0  0  0  0  0  0  0  0  0  0  0  0
   -3.3044   25.7925  -26.7069 H   0  0  0  0  0  0  0  0  0  0  0  0
   -3.7634   24.0558  -26.7069 H   0  0  0  0  0  0  0  0  0  0  0  0
  1  2  1  0
  2  3  1  0
  3  4  2  0
  4  5  1  0
  5  6  1  0
  6  7  1  0
  7  8  2  0
  8  9  1  0
  9 10  2  0
 10 11  1  0
 11 12  2  0
 12 13  1  0
 13 14  2  0
  8 15  1  0
 15 16  2  0
 16 17  1  0
 17 18  2  0
 18 19  1  0
 19 20  2  0
 20 21  1  0
 21 22  2  0
  5 23  2  0
 23 24  1  0
 24 25  1  0
 25 26  1  0
 24 27  2  0
 27 28  1  0
 28 29  1  0
 27  3  1  0
 16  6  1  0
 22 17  1  0
 14  9  1  0
  1 30  1  0
  1 31  1  0
  1 32  1  0
  4 33  1  0
 10 34  1  0
 11 35  1  0
 12 36  1  0
 13 37  1  0
 18 38  1  0
 19 39  1  0
 20 40  1  0
 21 41  1  0
 22 42  1  0
 23 43  1  0
 26 44  1  0
 26 45  1  0
 26 46  1  0
 29 47  1  0
 29 48  1  0
 29 49  1  0
M  END
>  <UniqueID>  (19) 
18

>  <SMILES>  (19) 
COc1cc(-n2nc(-c3ccccn3)nc2-c2ccccc2)cc(OC)c1OC

>  <Energy>  (19) 
96.54830347930587

>  <Genealogy>  (19) 
COc1cc(-n2nc(-c3ccccn3)nc2-c2ccccc2)cc(OC)c1OC (3D coordinates assigned)
COc1cc(-n2nc(-c3ccccn3)nc2-c2ccccc2)cc(OC)c1OC (optimized conformer: 96.54830347930587 kcal/mol)

>  <smiles>  (19) 
COc1cc(-n2nc(-c3ccccn3)nc2-c2ccccc2)cc(OC)c1OC

>  <score_type>  (19) 
oracle

>  <origin>  (19) 
adg

>  <m_score__min__energy>  (19) 
-8.1799999999999997

>  <m_primary>  (19) 
energy

$$$$
19:0
     RDKit          3D

 34 35  0  0  0  0  0  0  0  0999 V2000
   -8.6071   20.3770  -33.8820 H   0  0  0  0  0  0  0  0  0  0  0  0
   -8.3900   20.4070  -32.8040 C   0  0  0  0  0  0  0  0  0  0  0  0
   -9.1810   19.7250  -31.9690 C   0  0  0  0  0  0  0  0  0  0  0  0
  -10.0257   20.2402  -31.4882 H   0  0  0  0  0  0  0  0  0  0  0  0
   -8.9430   18.2710  -31.6720 C   0  0  0  0  0  0  0  0  0  0  0  0
   -9.7632   17.6820  -32.1084 H   0  0  0  0  0  0  0  0  0  0  0  0
   -8.9010   18.1534  -30.5791 H   0  0  0  0  0  0  0  0  0  0  0  0
   -7.6120   17.7680  -32.2500 C   0  0  0  0  0  0  0  0  0  0  0  0
   -7.3215   18.4190  -33.0877 H   0  0  0  0  0  0  0  0  0  0  0  0
   -7.7597   16.7295  -32.5812 H   0  0  0  0  0  0  0  0  0  0  0  0
   -6.4910   17.7730  -31.2120 C   0  0  0  0  0  0  0  0  0  0  0  0
   -6.9266   17.7711  -30.2019 H   0  0  0  0  0  0  0  0  0  0  0  0
   -5.8656   16.8776  -31.3434 H   0  0  0  0  0  0  0  0  0  0  0  0
   -5.8737   18.6739  -31.3434 H   0  0  0  0  0  0  0  0  0  0  0  0
   -7.2330   21.2010  -32.3320 C   0  0  0  0  0  0  0  0  0  0  0  0
   -7.4850   22.3070  -31.5110 C   0  0  0  0  0  0  0  0  0  0  0  0
   -8.5193   22.5695  -31.2438 H   0  0  0  0  0  0  0  0  0  0  0  0
   -6.4240   23.0760  -31.0320 C   0  0  0  0  0  0  0  0  0  0  0  0
   -6.6360   24.1750  -30.1890 C   0  0  0  0  0  0  0  0  0  0  0  0
   -7.6590   24.4519  -29.8943 H   0  0  0  0  0  0  0  0  0  0  0  0
   -5.5490   24.9200  -29.7220 C   0  0  0  0  0  0  0  0  0  0  0  0
   -5.7195   25.7819  -29.0601 H   0  0  0  0  0  0  0  0  0  0  0  0
   -4.2350   24.5710  -30.0960 C   0  0  0  0  0  0  0  0  0  0  0  0
   -3.1130   25.2890  -29.6530 O   0  0  0  0  0  0  0  0  0  0  0  0
   -2.2380   24.8530  -28.6160 C   0  0  0  0  0  0  0  0  0  0  0  0
   -2.6883   25.0774  -27.6378 H   0  0  0  0  0  0  0  0  0  0  0  0
   -2.0757   23.7687  -28.7049 H   0  0  0  0  0  0  0  0  0  0  0  0
   -1.2746   25.3764  -28.7049 H   0  0  0  0  0  0  0  0  0  0  0  0
   -4.0290   23.4730  -30.9390 C   0  0  0  0  0  0  0  0  0  0  0  0
   -3.0062   23.1964  -31.2346 H   0  0  0  0  0  0  0  0  0  0  0  0
   -5.1140   22.7240  -31.4090 C   0  0  0  0  0  0  0  0  0  0  0  0
   -4.9050   21.6890  -32.2160 O   0  0  0  0  0  0  0  0  0  0  0  0
   -5.8880   20.9320  -32.6950 C   0  0  0  0  0  0  0  0  0  0  0  0
   -5.4870   19.7320  -33.7380 S   0  0  0  0  0  0  0  0  0  0  0  0
  1  2  1  0
  2  3  2  0
  3  4  1  0
  3  5  1  0
  5  6  1  0
  5  7  1  0
  5  8  1  0
  8  9  1  0
  8 10  1  0
  8 11  1  0
 11 12  1  0
 11 13  1  0
 11 14  1  0
  2 15  1  0
 15 16  2  0
 16 17  1  0
 16 18  1  0
 18 19  2  0
 19 20  1  0
 19 21  1  0
 21 22  1  0
 21 23  2  0
 23 24  1  0
 24 25  1  0
 25 26  1  0
 25 27  1  0
 25 28  1  0
 23 29  1  0
 29 30  1  0
 29 31  2  0
 31 32  1  0
 32 33  1  0
 33 34  2  0
 33 15  1  0
 31 18  1  0
M  END
>  <UniqueID>  (20) 
19

>  <SMILES>  (20) 
CCC/C=C/c1cc2ccc(OC)cc2oc1=S

>  <Energy>  (20) 
37.497702566106376

>  <Genealogy>  (20) 
CCC/C=C/c1cc2ccc(OC)cc2oc1=S (cis-trans isomerization)
CCC/C=C/c1cc2ccc(OC)cc2oc1=S (3D coordinates assigned)
CCC/C=C/c1cc2ccc(OC)cc2oc1=S (optimized conformer: 37.497702566106376 kcal/mol)

>  <smiles>  (20) 
CCCC=Cc1cc2ccc(OC)cc2oc1=S

>  <score_type>  (20) 
oracle

>  <origin>  (20) 
adg

>  <m_score__min__energy>  (20) 
-7.6900000000000004

>  <m_primary>  (20) 
energy

$$$$
20:0
     RDKit          3D

 44 47  0  0  0  0  0  0  0  0999 V2000
   -2.0250   25.1890  -28.0510 C   0  0  0  0  0  0  0  0  0  0  0  0
   -2.6550   25.2890  -29.3230 O   0  0  0  0  0  0  0  0  0  0  0  0
   -3.1470   24.1950  -30.0520 C   0  0  0  0  0  0  0  0  0  0  0  0
   -2.3120   23.0870  -30.2330 C   0  0  0  0  0  0  0  0  0  0  0  0
   -2.7570   21.9720  -30.9500 C   0  0  0  0  0  0  0  0  0  0  0  0
   -4.0540   21.9450  -31.4810 C   0  0  0  0  0  0  0  0  0  0  0  0
   -4.5080   20.8190  -32.2440 N   0  0  0  0  0  0  0  0  0  0  0  0
   -3.7970   20.2920  -33.2270 N   0  0  0  0  0  0  0  0  0  0  0  0
   -4.5100   19.2770  -33.7500 C   0  0  0  0  0  0  0  0  0  0  0  0
   -3.9920   18.4030  -34.8470 C   0  0  0  0  0  0  0  0  0  0  0  0
   -5.7190   19.1350  -33.0730 C   0  0  0  0  0  0  0  0  0  0  0  0
   -5.6880   20.1660  -32.1290 C   0  0  0  0  0  0  0  0  0  0  0  0
   -6.7500   20.6100  -31.2660 N   0  0  0  0  0  0  0  0  0  0  0  0
   -8.1280   20.6740  -31.6550 C   0  0  0  0  0  0  0  0  0  0  0  0
   -8.9090   21.4470  -31.0380 O   0  0  0  0  0  0  0  0  0  0  0  0
   -8.6710   19.8170  -32.7440 C   0  0  0  0  0  0  0  0  0  0  0  0
   -8.2630   18.0990  -32.3350 S   0  0  0  0  0  0  0  0  0  0  0  0
   -6.7240   18.0200  -33.3180 C   0  0  2  0  0  0  0  0  0  0  0  0
   -6.0870   16.6780  -33.0750 C   0  0  0  0  0  0  0  0  0  0  0  0
   -5.6290   16.3110  -31.7970 C   0  0  0  0  0  0  0  0  0  0  0  0
   -5.0440   15.0580  -31.6100 C   0  0  0  0  0  0  0  0  0  0  0  0
   -4.9240   14.1800  -32.6890 C   0  0  0  0  0  0  0  0  0  0  0  0
   -5.3960   14.5710  -33.9430 C   0  0  0  0  0  0  0  0  0  0  0  0
   -5.9620   15.7960  -34.1070 N   0  0  0  0  0  0  0  0  0  0  0  0
   -4.8860   23.0620  -31.3220 C   0  0  0  0  0  0  0  0  0  0  0  0
   -4.4420   24.1770  -30.6050 C   0  0  0  0  0  0  0  0  0  0  0  0
   -2.7783   25.3086  -27.2583 H   0  0  0  0  0  0  0  0  0  0  0  0
   -1.5457   24.2035  -27.9557 H   0  0  0  0  0  0  0  0  0  0  0  0
   -1.2641   25.9776  -27.9557 H   0  0  0  0  0  0  0  0  0  0  0  0
   -1.2975   23.0931  -29.8079 H   0  0  0  0  0  0  0  0  0  0  0  0
   -2.0865   21.1126  -31.0979 H   0  0  0  0  0  0  0  0  0  0  0  0
   -3.4770   17.5341  -34.4113 H   0  0  0  0  0  0  0  0  0  0  0  0
   -4.8316   18.0580  -35.4684 H   0  0  0  0  0  0  0  0  0  0  0  0
   -3.2863   18.9739  -35.4684 H   0  0  0  0  0  0  0  0  0  0  0  0
   -6.4950   21.1530  -30.4130 H   0  0  0  0  0  0  0  0  0  0  0  0
   -9.7622   19.9390  -32.8099 H   0  0  0  0  0  0  0  0  0  0  0  0
   -8.2363   20.0994  -33.7142 H   0  0  0  0  0  0  0  0  0  0  0  0
   -7.0194   18.1607  -34.3682 H   0  0  0  0  0  0  0  0  0  0  0  0
   -5.7312   17.0066  -30.9510 H   0  0  0  0  0  0  0  0  0  0  0  0
   -4.6784   14.7628  -30.6154 H   0  0  0  0  0  0  0  0  0  0  0  0
   -4.4625   13.1909  -32.5523 H   0  0  0  0  0  0  0  0  0  0  0  0
   -5.3098   13.8868  -34.8000 H   0  0  0  0  0  0  0  0  0  0  0  0
   -5.8934   23.0612  -31.7637 H   0  0  0  0  0  0  0  0  0  0  0  0
   -5.1066   25.0434  -30.4723 H   0  0  0  0  0  0  0  0  0  0  0  0
  1  2  1  0
  2  3  1  0
  3  4  2  0
  4  5  1  0
  5  6  2  0
  6  7  1  0
  7  8  1  0
  8  9  2  0
  9 10  1  0
  9 11  1  0
 11 12  2  0
 12 13  1  0
 13 14  1  0
 14 15  2  0
 14 16  1  0
 16 17  1  0
 17 18  1  0
 18 19  1  0
 19 20  2  0
 20 21  1  0
 21 22  2  0
 22 23  1  0
 23 24  2  0
  6 25  1  0
 25 26  2  0
 26  3  1  0
 12  7  1  0
 24 19  1  0
 18 11  1  0
  1 27  1  0
  1 28  1  0
  1 29  1  0
  4 30  1  0
  5 31  1  0
 10 32  1  0
 10 33  1  0
 10 34  1  0
 13 35  1  0
 16 36  1  0
 16 37  1  0
 18 38  1  6
 20 39  1  0
 21 40  1  0
 22 41  1  0
 23 42  1  0
 25 43  1  0
 26 44  1  0
M  END
>  <UniqueID>  (21) 
20

>  <SMILES>  (21) 
COc1ccc(-n2nc(C)c3c2NC(=O)CS[C@@H]3c2ccccn2)cc1

>  <Energy>  (21) 
90.98204912332574

>  <Genealogy>  (21) 
COc1ccc(-n2nc(C)c3c2NC(=O)CS[C@@H]3c2ccccn2)cc1 (chirality)
COc1ccc(-n2nc(C)c3c2NC(=O)CS[C@@H]3c2ccccn2)cc1 (3D coordinates assigned)
COc1ccc(-n2nc(C)c3c2NC(=O)CS[C@@H]3c2ccccn2)cc1 (nonaromatic ring conformer: 90.98204912332574 kcal/mol)

>  <smiles>  (21) 
COc1ccc(-n2nc(C)c3c2NC(=O)CSC3c2ccccn2)cc1

>  <score_type>  (21) 
oracle

>  <origin>  (21) 
adg

>  <m_score__min__energy>  (21) 
-6.7599999999999998

>  <m_primary>  (21) 
energy

$$$$
21:0
     RDKit          3D

 32 32  0  0  0  0  0  0  0  0999 V2000
   -6.4910   25.6200  -29.4080 C   0  0  0  0  0  0  0  0  0  0  0  0
   -5.4920   25.2590  -30.4890 C   0  0  0  0  0  0  0  0  0  0  0  0
   -4.2350   24.8990  -29.8920 N   0  0  0  0  0  0  0  0  0  0  0  0
   -4.1520   23.5040  -29.6510 C   0  0  0  0  0  0  0  0  0  0  0  0
   -3.0170   23.1510  -28.7010 C   0  0  0  0  0  0  0  0  0  0  0  0
   -2.1620   24.3230  -28.6260 N   0  0  0  0  0  0  0  0  0  0  0  0
   -1.8620   24.9150  -27.3730 C   0  0  0  0  0  0  0  0  0  0  0  0
   -0.5820   25.2090  -26.9540 C   0  0  0  0  0  0  0  0  0  0  0  0
    0.5230   24.9310  -27.8010 N   0  0  0  0  0  0  0  0  0  0  0  0
    1.6770   25.2900  -27.5520 O   0  0  0  0  0  0  0  0  0  0  0  0
    0.3280   24.2220  -28.9690 O   0  0  0  0  0  0  0  0  0  0  0  0
   -0.3810   25.7640  -25.7450 N   0  0  0  0  0  0  0  0  0  0  0  0
   -1.4260   26.0350  -24.9430 C   0  0  0  0  0  0  0  0  0  0  0  0
   -1.2130   26.5760  -23.7690 N   0  0  0  0  0  0  0  0  0  0  0  0
   -2.6830   25.7560  -25.3320 N   0  0  0  0  0  0  0  0  0  0  0  0
   -2.9080   25.2070  -26.5220 C   0  0  0  0  0  0  0  0  0  0  0  0
   -4.1250   24.9330  -26.9060 N   0  0  0  0  0  0  0  0  0  0  0  0
   -6.0370   25.4559  -28.4196 H   0  0  0  0  0  0  0  0  0  0  0  0
   -6.7753   26.6777  -29.5099 H   0  0  0  0  0  0  0  0  0  0  0  0
   -7.3858   24.9884  -29.5099 H   0  0  0  0  0  0  0  0  0  0  0  0
   -5.8761   24.4086  -31.0715 H   0  0  0  0  0  0  0  0  0  0  0  0
   -5.3443   26.1257  -31.1501 H   0  0  0  0  0  0  0  0  0  0  0  0
   -4.0110   25.4540  -29.0540 H   0  0  0  0  0  0  0  0  0  0  0  0
   -5.1010   23.1635  -29.2111 H   0  0  0  0  0  0  0  0  0  0  0  0
   -3.9548   23.0066  -30.6121 H   0  0  0  0  0  0  0  0  0  0  0  0
   -3.4166   22.9078  -27.7054 H   0  0  0  0  0  0  0  0  0  0  0  0
   -2.4582   22.2733  -29.0578 H   0  0  0  0  0  0  0  0  0  0  0  0
   -1.7360   24.7790  -29.4680 H   0  0  0  0  0  0  0  0  0  0  0  0
    0.5650   26.0010  -25.3940 H   0  0  0  0  0  0  0  0  0  0  0  0
   -1.9570   27.1960  -23.3370 H   0  0  0  0  0  0  0  0  0  0  0  0
   -3.5150   25.9670  -24.7040 H   0  0  0  0  0  0  0  0  0  0  0  0
   -4.5400   25.3430  -27.7650 H   0  0  0  0  0  0  0  0  0  0  0  0
  1  2  1  0
  2  3  1  0
  3  4  1  0
  4  5  1  0
  5  6  1  0
  6  7  1  0
  7  8  2  0
  8  9  1  0
  9 10  2  0
  9 11  1  0
  8 12  1  0
 12 13  1  0
 13 14  2  3
 13 15  1  0
 15 16  1  0
 16 17  2  3
 16  7  1  0
  1 18  1  0
  1 19  1  0
  1 20  1  0
  2 21  1  0
  2 22  1  0
  3 23  1  0
  4 24  1  0
  4 25  1  0
  5 26  1  0
  5 27  1  0
  6 28  1  0
 12 29  1  0
 14 30  1  0
 15 31  1  0
 17 32  1  0
M  CHG  2   9   1  11  -1
M  END
>  <smiles>  (22) 
CCNCCNc1c([N+](=O)[O-])[nH]c(=N)[nH]c1=N

>  <score_type>  (22) 
oracle

>  <origin>  (22) 
adg

>  <m_score__min__energy>  (22) 
-5.2800000000000002

>  <m_primary>  (22) 
energy

$$$$
22:0
     RDKit          3D

 31 33  0  0  0  0  0  0  0  0999 V2000
   -8.4131   23.5192  -31.9224 H   0  0  0  0  0  0  0  0  0  0  0  0
   -7.7620   22.8430  -31.3490 C   0  0  0  0  0  0  0  0  0  0  0  0
   -7.1470   23.2860  -30.2930 N   0  0  0  0  0  0  0  0  0  0  0  0
   -5.9050   23.9490  -30.3220 N   0  0  0  0  0  0  0  0  0  0  0  0
   -5.5060   24.9920  -31.0960 C   0  0  0  0  0  0  0  0  0  0  0  0
   -6.1501   25.4779  -31.8437 H   0  0  0  0  0  0  0  0  0  0  0  0
   -4.2240   25.3700  -30.8460 N   0  0  0  0  0  0  0  0  0  0  0  0
   -3.8330   24.5170  -29.8790 C   0  0  0  0  0  0  0  0  0  0  0  0
   -2.5950   24.4550  -29.2450 C   0  0  0  0  0  0  0  0  0  0  0  0
   -1.7858   25.1521  -29.5081 H   0  0  0  0  0  0  0  0  0  0  0  0
   -2.4140   23.4690  -28.2550 C   0  0  0  0  0  0  0  0  0  0  0  0
   -1.4490   23.3897  -27.7330 H   0  0  0  0  0  0  0  0  0  0  0  0
   -3.4640   22.5810  -27.9280 C   0  0  0  0  0  0  0  0  0  0  0  0
   -3.3109   21.8155  -27.1530 H   0  0  0  0  0  0  0  0  0  0  0  0
   -4.7050   22.6700  -28.5880 C   0  0  0  0  0  0  0  0  0  0  0  0
   -5.5318   21.9865  -28.3445 H   0  0  0  0  0  0  0  0  0  0  0  0
   -4.8450   23.6570  -29.5610 C   0  0  0  0  0  0  0  0  0  0  0  0
   -7.5970   21.4430  -31.7880 C   0  0  0  0  0  0  0  0  0  0  0  0
   -6.4160   21.0050  -32.4170 C   0  0  0  0  0  0  0  0  0  0  0  0
   -5.5926   21.7139  -32.5889 H   0  0  0  0  0  0  0  0  0  0  0  0
   -6.2840   19.6750  -32.8240 C   0  0  0  0  0  0  0  0  0  0  0  0
   -5.3609   19.3449  -33.3230 H   0  0  0  0  0  0  0  0  0  0  0  0
   -7.3220   18.7580  -32.6000 C   0  0  0  0  0  0  0  0  0  0  0  0
   -7.1950   17.3410  -33.0730 C   0  0  0  0  0  0  0  0  0  0  0  0
   -7.1347   16.6686  -32.2046 H   0  0  0  0  0  0  0  0  0  0  0  0
   -8.0731   17.0772  -33.6807 H   0  0  0  0  0  0  0  0  0  0  0  0
   -6.2840   17.2376  -33.6807 H   0  0  0  0  0  0  0  0  0  0  0  0
   -8.5060   19.1970  -31.9890 C   0  0  0  0  0  0  0  0  0  0  0  0
   -9.3338   18.4903  -31.8301 H   0  0  0  0  0  0  0  0  0  0  0  0
   -8.6400   20.5270  -31.5810 C   0  0  0  0  0  0  0  0  0  0  0  0
   -9.5693   20.8581  -31.0943 H   0  0  0  0  0  0  0  0  0  0  0  0
  1  2  1  0
  2  3  2  0
  3  4  1  0
  4  5  1  0
  5  6  1  0
  5  7  2  0
  7  8  1  0
  8  9  2  0
  9 10  1  0
  9 11  1  0
 11 12  1  0
 11 13  2  0
 13 14  1  0
 13 15  1  0
 15 16  1  0
 15 17  2  0
  2 18  1  0
 18 19  2  0
 19 20  1  0
 19 21  1  0
 21 22  1  0
 21 23  2  0
 23 24  1  0
 24 25  1  0
 24 26  1  0
 24 27  1  0
 23 28  1  0
 28 29  1  0
 28 30  2  0
 30 31  1  0
 17  4  1  0
 30 18  1  0
 17  8  1  0
M  END
>  <UniqueID>  (23) 
21

>  <SMILES>  (23) 
Cc1ccc(/C=N/n2cnc3ccccc32)cc1

>  <Energy>  (23) 
72.76747515310481

>  <Genealogy>  (23) 
Cc1ccc(/C=N/n2cnc3ccccc32)cc1 (cis-trans isomerization)
Cc1ccc(/C=N/n2cnc3ccccc32)cc1 (3D coordinates assigned)
Cc1ccc(/C=N/n2cnc3ccccc32)cc1 (optimized conformer: 72.76747515310481 kcal/mol)

>  <smiles>  (23) 
Cc1ccc(C=Nn2cnc3ccccc32)cc1

>  <score_type>  (23) 
oracle

>  <origin>  (23) 
adg

>  <m_score__min__energy>  (23) 
-7.3300000000000001

>  <m_primary>  (23) 
energy

$$$$
23:0
     RDKit          3D

 49 51  0  0  0  0  0  0  0  0999 V2000
   -2.1700   24.9060  -28.5760 C   0  0  0  0  0  0  0  0  0  0  0  0
   -3.5920   24.5510  -28.9980 C   0  0  0  0  0  0  0  0  0  0  0  0
   -3.7470   24.6420  -30.4690 N   0  0  0  0  0  0  0  0  0  0  0  0
   -3.6170   23.3080  -31.1060 C   0  0  0  0  0  0  0  0  0  0  0  0
   -3.5880   22.2300  -30.0260 C   0  0  0  0  0  0  0  0  0  0  0  0
   -5.0170   25.3090  -30.8440 C   0  0  0  0  0  0  0  0  0  0  0  0
   -6.1270   25.0500  -29.8070 C   0  0  0  0  0  0  0  0  0  0  0  0
   -6.8130   23.6810  -29.9620 C   0  0  0  0  0  0  0  0  0  0  0  0
   -7.2870   23.4820  -31.3300 N   0  0  0  0  0  0  0  0  0  0  0  0
   -7.8500   22.2380  -31.7640 C   0  0  0  0  0  0  0  0  0  0  0  0
   -9.2270   22.0210  -31.6110 C   0  0  0  0  0  0  0  0  0  0  0  0
   -9.8120   20.8360  -32.0580 C   0  0  0  0  0  0  0  0  0  0  0  0
   -9.0280   19.8460  -32.6510 C   0  0  0  0  0  0  0  0  0  0  0  0
   -7.6470   20.0360  -32.8090 C   0  0  0  0  0  0  0  0  0  0  0  0
   -6.8560   19.0300  -33.3850 C   0  0  0  0  0  0  0  0  0  0  0  0
   -5.4740   19.2080  -33.5300 C   0  0  0  0  0  0  0  0  0  0  0  0
   -4.6780   18.1930  -34.0890 C   0  0  0  0  0  0  0  0  0  0  0  0
   -3.3000   18.3760  -34.2270 C   0  0  0  0  0  0  0  0  0  0  0  0
   -2.7050   19.5690  -33.8110 C   0  0  0  0  0  0  0  0  0  0  0  0
   -3.4840   20.5870  -33.2530 C   0  0  0  0  0  0  0  0  0  0  0  0
   -4.8710   20.4140  -33.1050 C   0  0  0  0  0  0  0  0  0  0  0  0
   -5.6590   21.4280  -32.5400 C   0  0  0  0  0  0  0  0  0  0  0  0
   -7.0470   21.2480  -32.3740 C   0  0  0  0  0  0  0  0  0  0  0  0
   -2.1065   24.9218  -27.4779 H   0  0  0  0  0  0  0  0  0  0  0  0
   -1.4714   24.1547  -28.9728 H   0  0  0  0  0  0  0  0  0  0  0  0
   -1.9065   25.8975  -28.9728 H   0  0  0  0  0  0  0  0  0  0  0  0
   -3.8173   23.5238  -28.6753 H   0  0  0  0  0  0  0  0  0  0  0  0
   -4.2857   25.2633  -28.5275 H   0  0  0  0  0  0  0  0  0  0  0  0
   -4.4739   23.1353  -31.7737 H   0  0  0  0  0  0  0  0  0  0  0  0
   -2.6848   23.2689  -31.6887 H   0  0  0  0  0  0  0  0  0  0  0  0
   -3.6008   22.7046  -29.0337 H   0  0  0  0  0  0  0  0  0  0  0  0
   -4.4690   21.5801  -30.1329 H   0  0  0  0  0  0  0  0  0  0  0  0
   -2.6733   21.6284  -30.1329 H   0  0  0  0  0  0  0  0  0  0  0  0
   -4.8424   26.3927  -30.9157 H   0  0  0  0  0  0  0  0  0  0  0  0
   -5.3476   24.8973  -31.8090 H   0  0  0  0  0  0  0  0  0  0  0  0
   -5.6826   25.1037  -28.8022 H   0  0  0  0  0  0  0  0  0  0  0  0
   -6.9000   25.8162  -29.9662 H   0  0  0  0  0  0  0  0  0  0  0  0
   -6.0928   22.8879  -29.7124 H   0  0  0  0  0  0  0  0  0  0  0  0
   -7.6782   23.6449  -29.2837 H   0  0  0  0  0  0  0  0  0  0  0  0
   -7.4350   24.3230  -31.9340 H   0  0  0  0  0  0  0  0  0  0  0  0
   -9.8510   22.7915  -31.1346 H   0  0  0  0  0  0  0  0  0  0  0  0
  -10.8950   20.6817  -31.9425 H   0  0  0  0  0  0  0  0  0  0  0  0
   -9.4950   18.9118  -32.9964 H   0  0  0  0  0  0  0  0  0  0  0  0
   -7.3246   18.0948  -33.7252 H   0  0  0  0  0  0  0  0  0  0  0  0
   -5.1418   17.2516  -34.4188 H   0  0  0  0  0  0  0  0  0  0  0  0
   -2.6819   17.5782  -34.6645 H   0  0  0  0  0  0  0  0  0  0  0  0
   -1.6196   19.7082  -33.9228 H   0  0  0  0  0  0  0  0  0  0  0  0
   -3.0104   21.5255  -32.9290 H   0  0  0  0  0  0  0  0  0  0  0  0
   -5.1897   22.3713  -32.2240 H   0  0  0  0  0  0  0  0  0  0  0  0
  1  2  1  0
  2  3  1  0
  3  4  1  0
  4  5  1  0
  3  6  1  0
  6  7  1  0
  7  8  1  0
  8  9  1  0
  9 10  1  0
 10 11  2  0
 11 12  1  0
 12 13  2  0
 13 14  1  0
 14 15  2  0
 15 16  1  0
 16 17  2  0
 17 18  1  0
 18 19  2  0
 19 20  1  0
 20 21  2  0
 21 22  1  0
 22 23  2  0
 23 10  1  0
 23 14  1  0
 21 16  1  0
  1 24  1  0
  1 25  1  0
  1 26  1  0
  2 27  1  0
  2 28  1  0
  4 29  1  0
  4 30  1  0
  5 31  1  0
  5 32  1  0
  5 33  1  0
  6 34  1  0
  6 35  1  0
  7 36  1  0
  7 37  1  0
  8 38  1  0
  8 39  1  0
  9 40  1  0
 11 41  1  0
 12 42  1  0
 13 43  1  0
 15 44  1  0
 17 45  1  0
 18 46  1  0
 19 47  1  0
 20 48  1  0
 22 49  1  0
M  END
>  <UniqueID>  (24) 
22

>  <SMILES>  (24) 
CCN(CC)CCCNc1cccc2cc3ccccc3cc12

>  <Energy>  (24) 
57.27478759306721

>  <Genealogy>  (24) 
CCN(CC)CCCNc1cccc2cc3ccccc3cc12 (3D coordinates assigned)
CCN(CC)CCCNc1cccc2cc3ccccc3cc12 (optimized conformer: 57.27478759306721 kcal/mol)

>  <smiles>  (24) 
CCN(CC)CCCNc1cccc2cc3ccccc3cc12

>  <score_type>  (24) 
oracle

>  <origin>  (24) 
adg

>  <m_score__min__energy>  (24) 
-8.7400000000000002

>  <m_primary>  (24) 
energy

$$$$
24:0
     RDKit          3D

 44 46  0  0  0  0  0  0  0  0999 V2000
   -9.0880   18.7890  -31.5360 C   0  0  0  0  0  0  0  0  0  0  0  0
   -7.6690   18.9080  -31.5350 O   0  0  0  0  0  0  0  0  0  0  0  0
   -6.8320   18.4540  -32.5680 C   0  0  0  0  0  0  0  0  0  0  0  0
   -6.8100   17.1030  -32.9700 C   0  0  0  0  0  0  0  0  0  0  0  0
   -5.9360   16.6790  -33.9730 C   0  0  0  0  0  0  0  0  0  0  0  0
   -5.0750   17.5910  -34.5850 C   0  0  0  0  0  0  0  0  0  0  0  0
   -5.0950   18.9330  -34.2040 C   0  0  0  0  0  0  0  0  0  0  0  0
   -5.9780   19.3750  -33.2050 C   0  0  0  0  0  0  0  0  0  0  0  0
   -6.0000   20.7650  -32.8360 N   0  0  0  0  0  0  0  0  0  0  0  0
   -4.7630   21.5530  -32.9140 C   0  0  0  0  0  0  0  0  0  0  0  0
   -4.7200   22.6510  -31.8290 C   0  0  0  0  0  0  0  0  0  0  0  0
   -6.0600   23.0130  -31.3130 N   0  0  0  0  0  0  0  0  0  0  0  0
   -6.0680   24.3000  -30.5860 C   0  0  0  0  0  0  0  0  0  0  0  0
   -4.7700   24.5980  -29.8750 C   0  0  0  0  0  0  0  0  0  0  0  0
   -3.8690   25.2500  -30.4700 O   0  0  0  0  0  0  0  0  0  0  0  0
   -4.5580   24.1380  -28.5330 N   0  0  0  0  0  0  0  0  0  0  0  0
   -3.3730   24.5220  -27.7720 C   0  0  0  0  0  0  0  0  0  0  0  0
   -2.5530   23.3420  -27.2780 C   0  0  0  0  0  0  0  0  0  0  0  0
   -2.0710   24.1600  -28.4660 C   0  0  0  0  0  0  0  0  0  0  0  0
   -7.1100   22.9160  -32.3400 C   0  0  0  0  0  0  0  0  0  0  0  0
   -7.2960   21.4460  -32.7150 C   0  0  0  0  0  0  0  0  0  0  0  0
   -9.4541   18.7583  -30.4992 H   0  0  0  0  0  0  0  0  0  0  0  0
   -9.5281   19.6534  -32.0548 H   0  0  0  0  0  0  0  0  0  0  0  0
   -9.3780   17.8634  -32.0548 H   0  0  0  0  0  0  0  0  0  0  0  0
   -7.4852   16.3788  -32.4908 H   0  0  0  0  0  0  0  0  0  0  0  0
   -5.9261   15.6232  -34.2816 H   0  0  0  0  0  0  0  0  0  0  0  0
   -4.3806   17.2518  -35.3678 H   0  0  0  0  0  0  0  0  0  0  0  0
   -4.4153   19.6492  -34.6888 H   0  0  0  0  0  0  0  0  0  0  0  0
   -3.9026   20.8815  -32.7769 H   0  0  0  0  0  0  0  0  0  0  0  0
   -4.7270   22.0408  -33.8993 H   0  0  0  0  0  0  0  0  0  0  0  0
   -4.1079   22.2894  -30.9896 H   0  0  0  0  0  0  0  0  0  0  0  0
   -4.2934   23.5527  -32.2927 H   0  0  0  0  0  0  0  0  0  0  0  0
   -6.2626   25.1066  -31.3081 H   0  0  0  0  0  0  0  0  0  0  0  0
   -6.8505   24.2318  -29.8159 H   0  0  0  0  0  0  0  0  0  0  0  0
   -5.3080   23.5910  -28.0540 H   0  0  0  0  0  0  0  0  0  0  0  0
   -3.7882   25.4291  -27.3085 H   0  0  0  0  0  0  0  0  0  0  0  0
   -2.0234   23.4044  -26.3159 H   0  0  0  0  0  0  0  0  0  0  0  0
   -2.7542   22.2757  -27.0978 H   0  0  0  0  0  0  0  0  0  0  0  0
   -1.1926   24.8141  -28.3634 H   0  0  0  0  0  0  0  0  0  0  0  0
   -1.7790   23.9305  -29.5014 H   0  0  0  0  0  0  0  0  0  0  0  0
   -8.0536   23.3189  -31.9435 H   0  0  0  0  0  0  0  0  0  0  0  0
   -6.8189   23.4951  -33.2288 H   0  0  0  0  0  0  0  0  0  0  0  0
   -7.8922   20.9487  -31.9357 H   0  0  0  0  0  0  0  0  0  0  0  0
   -7.8106   21.3946  -33.6858 H   0  0  0  0  0  0  0  0  0  0  0  0
  1  2  1  0
  2  3  1  0
  3  4  2  0
  4  5  1  0
  5  6  2  0
  6  7  1  0
  7  8  2  0
  8  9  1  0
  9 10  1  0
 10 11  1  0
 11 12  1  0
 12 13  1  0
 13 14  1  0
 14 15  2  0
 14 16  1  0
 16 17  1  0
 17 18  1  0
 18 19  1  0
 12 20  1  0
 20 21  1  0
  8  3  1  0
 21  9  1  0
 19 17  1  0
  1 22  1  0
  1 23  1  0
  1 24  1  0
  4 25  1  0
  5 26  1  0
  6 27  1  0
  7 28  1  0
 10 29  1  0
 10 30  1  0
 11 31  1  0
 11 32  1  0
 13 33  1  0
 13 34  1  0
 16 35  1  0
 17 36  1  0
 18 37  1  0
 18 38  1  0
 19 39  1  0
 19 40  1  0
 20 41  1  0
 20 42  1  0
 21 43  1  0
 21 44  1  0
M  END
>  <UniqueID>  (25) 
23

>  <SMILES>  (25) 
COc1ccccc1N1CCN(CC(=O)NC2CC2)CC1

>  <Energy>  (25) 
317.77438192408135

>  <Genealogy>  (25) 
COc1ccccc1N1CCN(CC(=O)NC2CC2)CC1 (3D coordinates assigned)
COc1ccccc1N1CCN(CC(=O)NC2CC2)CC1 (nonaromatic ring conformer: 317.77438192408135 kcal/mol)

>  <smiles>  (25) 
COc1ccccc1N1CCN(CC(=O)NC2CC2)CC1

>  <score_type>  (25) 
oracle

>  <origin>  (25) 
adg

>  <m_score__min__energy>  (25) 
-7.6399999999999997

>  <m_primary>  (25) 
energy

$$$$
25:0
     RDKit          3D

 53 55  0  0  0  0  0  0  0  0999 V2000
   -1.9520   24.4570  -28.9770 C   0  0  0  0  0  0  0  0  0  0  0  0
   -2.3890   23.2590  -29.7680 C   0  0  0  0  0  0  0  0  0  0  0  0
   -1.6240   22.2570  -29.8020 O   0  0  0  0  0  0  0  0  0  0  0  0
   -3.7010   23.2240  -30.4740 C   0  0  0  0  0  0  0  0  0  0  0  0
   -4.2840   21.9900  -30.8290 C   0  0  0  0  0  0  0  0  0  0  0  0
   -5.5220   21.9370  -31.4890 C   0  0  0  0  0  0  0  0  0  0  0  0
   -6.1060   20.6740  -31.8530 N   0  0  0  0  0  0  0  0  0  0  0  0
   -5.4620   19.6470  -32.4420 C   0  0  0  0  0  0  0  0  0  0  0  0
   -6.3640   18.6140  -32.6310 C   0  0  0  0  0  0  0  0  0  0  0  0
   -6.0790   17.2910  -33.2400 C   0  0  0  0  0  0  0  0  0  0  0  0
   -4.7550   16.8610  -33.4350 C   0  0  0  0  0  0  0  0  0  0  0  0
   -4.4870   15.6160  -34.0100 C   0  0  0  0  0  0  0  0  0  0  0  0
   -5.5420   14.7770  -34.4150 C   0  0  0  0  0  0  0  0  0  0  0  0
   -5.3350   13.5200  -35.0060 O   0  0  0  0  0  0  0  0  0  0  0  0
   -5.7360   12.2590  -34.4650 C   0  0  0  0  0  0  0  0  0  0  0  0
   -7.2590   12.0910  -34.5430 C   0  0  0  0  0  0  0  0  0  0  0  0
   -7.6910   11.8230  -35.9320 N   0  0  0  0  0  0  0  0  0  0  0  0
   -8.3840   12.9910  -36.5030 C   0  0  0  0  0  0  0  0  0  0  0  0
   -6.5410   11.4700  -36.7760 C   0  0  0  0  0  0  0  0  0  0  0  0
   -6.8590   15.1990  -34.2100 C   0  0  0  0  0  0  0  0  0  0  0  0
   -7.1290   16.4420  -33.6320 C   0  0  0  0  0  0  0  0  0  0  0  0
   -7.5690   19.0080  -32.1660 N   0  0  0  0  0  0  0  0  0  0  0  0
   -7.3890   20.2630  -31.7090 C   0  0  0  0  0  0  0  0  0  0  0  0
   -8.4990   21.0840  -31.1280 C   0  0  0  0  0  0  0  0  0  0  0  0
   -6.1710   23.1320  -31.8270 C   0  0  0  0  0  0  0  0  0  0  0  0
   -5.6070   24.3610  -31.4850 C   0  0  0  0  0  0  0  0  0  0  0  0
   -4.3840   24.4150  -30.8090 C   0  0  0  0  0  0  0  0  0  0  0  0
   -3.8670   25.6620  -30.4690 O   0  0  0  0  0  0  0  0  0  0  0  0
   -2.0326   24.2362  -27.9024 H   0  0  0  0  0  0  0  0  0  0  0  0
   -0.9078   24.6987  -29.2244 H   0  0  0  0  0  0  0  0  0  0  0  0
   -2.5953   25.3143  -29.2244 H   0  0  0  0  0  0  0  0  0  0  0  0
   -3.7604   21.0539  -30.5849 H   0  0  0  0  0  0  0  0  0  0  0  0
   -4.3991   19.6321  -32.7248 H   0  0  0  0  0  0  0  0  0  0  0  0
   -3.9213   17.5113  -33.1318 H   0  0  0  0  0  0  0  0  0  0  0  0
   -3.4455   15.2897  -34.1469 H   0  0  0  0  0  0  0  0  0  0  0  0
   -5.2546   11.4520  -35.0368 H   0  0  0  0  0  0  0  0  0  0  0  0
   -5.4306   12.2157  -33.4091 H   0  0  0  0  0  0  0  0  0  0  0  0
   -7.5615   11.2489  -33.9031 H   0  0  0  0  0  0  0  0  0  0  0  0
   -7.7329   13.0232  -34.2017 H   0  0  0  0  0  0  0  0  0  0  0  0
   -8.7616   13.6274  -35.6891 H   0  0  0  0  0  0  0  0  0  0  0  0
   -7.6815   13.5671  -37.1231 H   0  0  0  0  0  0  0  0  0  0  0  0
   -9.2263   12.6506  -37.1231 H   0  0  0  0  0  0  0  0  0  0  0  0
   -5.6846   11.2071  -36.1376 H   0  0  0  0  0  0  0  0  0  0  0  0
   -6.8023   10.6107  -37.4111 H   0  0  0  0  0  0  0  0  0  0  0  0
   -6.2752   12.3279  -37.4111 H   0  0  0  0  0  0  0  0  0  0  0  0
   -7.6921   14.5450  -34.5071 H   0  0  0  0  0  0  0  0  0  0  0  0
   -8.1716   16.7590  -33.4824 H   0  0  0  0  0  0  0  0  0  0  0  0
   -8.4600   18.4640  -32.1470 H   0  0  0  0  0  0  0  0  0  0  0  0
   -8.4473   21.0458  -30.0299 H   0  0  0  0  0  0  0  0  0  0  0  0
   -8.3983   22.1267  -31.4637 H   0  0  0  0  0  0  0  0  0  0  0  0
   -9.4665   20.6825  -31.4637 H   0  0  0  0  0  0  0  0  0  0  0  0
   -7.1301   23.1007  -32.3647 H   0  0  0  0  0  0  0  0  0  0  0  0
   -6.1274   25.2935  -31.7487 H   0  0  0  0  0  0  0  0  0  0  0  0
  1  2  1  0
  2  3  2  0
  2  4  1  0
  4  5  2  0
  5  6  1  0
  6  7  1  0
  7  8  1  0
  8  9  2  0
  9 10  1  0
 10 11  2  0
 11 12  1  0
 12 13  2  0
 13 14  1  0
 14 15  1  0
 15 16  1  0
 16 17  1  0
 17 18  1  0
 17 19  1  0
 13 20  1  0
 20 21  2  0
  9 22  1  0
 22 23  2  0
 23 24  1  0
  6 25  2  0
 25 26  1  0
 26 27  2  0
 27 28  1  0
 27  4  1  0
 23  7  1  0
 21 10  1  0
  1 29  1  0
  1 30  1  0
  1 31  1  0
  5 32  1  0
  8 33  1  0
 11 34  1  0
 12 35  1  0
 15 36  1  0
 15 37  1  0
 16 38  1  0
 16 39  1  0
 18 40  1  0
 18 41  1  0
 18 42  1  0
 19 43  1  0
 19 44  1  0
 19 45  1  0
 20 46  1  0
 21 47  1  0
 22 48  1  0
 24 49  1  0
 24 50  1  0
 24 51  1  0
 25 52  1  0
 26 53  1  0
M  CHG  2  22   1  28  -1
M  END
>  <UniqueID>  (26) 
24

>  <SMILES>  (26) 
CC(=O)c1cc(-n2cc(-c3ccc(OCCN(C)C)cc3)[nH+]c2C)ccc1[O-]

>  <Energy>  (26) 
94.08444839265509

>  <Genealogy>  (26) 
CC(=O)c1cc(-n2cc(-c3ccc(OCCN(C)C)cc3)[nH+]c2C)ccc1[O-] (protonated)
CC(=O)c1cc(-n2cc(-c3ccc(OCCN(C)C)cc3)[nH+]c2C)ccc1[O-] (3D coordinates assigned)
CC(=O)c1cc(-n2cc(-c3ccc(OCCN(C)C)cc3)[nH+]c2C)ccc1[O-] (optimized conformer: 94.08444839265509 kcal/mol)

>  <smiles>  (26) 
CC(=O)c1cc(-n2cc(-c3ccc(OCCN(C)C)cc3)nc2C)ccc1O

>  <score_type>  (26) 
oracle

>  <origin>  (26) 
adg

>  <m_score__min__energy>  (26) 
-9.8800000000000008

>  <m_primary>  (26) 
energy

$$$$
26:0
     RDKit          3D

 53 55  0  0  0  0  0  0  0  0999 V2000
   -5.3640   25.5710  -30.5420 C   0  0  0  0  0  0  0  0  0  0  0  0
   -4.0130   25.1260  -30.4610 O   0  0  0  0  0  0  0  0  0  0  0  0
   -3.6100   23.9250  -29.8590 C   0  0  0  0  0  0  0  0  0  0  0  0
   -3.9850   23.5760  -28.5470 C   0  0  0  0  0  0  0  0  0  0  0  0
   -3.5490   22.3710  -27.9900 C   0  0  0  0  0  0  0  0  0  0  0  0
   -2.7450   21.5030  -28.7310 C   0  0  0  0  0  0  0  0  0  0  0  0
   -2.3770   21.8310  -30.0460 C   0  0  0  0  0  0  0  0  0  0  0  0
   -1.4810   20.9130  -30.8340 C   0  0  0  0  0  0  0  0  0  0  0  0
   -1.6500   21.1560  -32.3370 C   0  0  0  0  0  0  0  0  0  0  0  0
   -2.4910   20.0740  -32.9570 C   0  0  0  0  0  0  0  0  0  0  0  0
   -1.8900   18.9920  -33.6150 C   0  0  0  0  0  0  0  0  0  0  0  0
   -2.6570   18.0340  -34.2020 N   0  0  0  0  0  0  0  0  0  0  0  0
   -4.0150   18.0950  -34.1790 C   0  0  0  0  0  0  0  0  0  0  0  0
   -4.6640   19.1650  -33.5460 C   0  0  0  0  0  0  0  0  0  0  0  0
   -6.1670   19.2480  -33.5080 C   0  0  0  0  0  0  0  0  0  0  0  0
   -6.6050   20.0180  -32.3260 N   0  0  0  0  0  0  0  0  0  0  0  0
   -7.8870   19.5020  -31.7880 C   0  0  0  0  0  0  0  0  0  0  0  0
   -9.1080   20.2180  -32.4200 C   0  0  0  0  0  0  0  0  0  0  0  0
   -9.6390   21.4030  -31.5910 C   0  0  0  0  0  0  0  0  0  0  0  0
   -8.7050   22.6350  -31.5680 C   0  0  0  0  0  0  0  0  0  0  0  0
   -7.1980   22.3280  -31.4890 C   0  0  0  0  0  0  0  0  0  0  0  0
   -6.6680   21.4610  -32.6470 C   0  0  0  0  0  0  0  0  0  0  0  0
   -3.8880   20.1610  -32.9400 C   0  0  0  0  0  0  0  0  0  0  0  0
   -2.8050   23.0490  -30.5980 C   0  0  0  0  0  0  0  0  0  0  0  0
   -5.7677   25.7040  -29.5274 H   0  0  0  0  0  0  0  0  0  0  0  0
   -5.4027   26.5294  -31.0806 H   0  0  0  0  0  0  0  0  0  0  0  0
   -5.9647   24.8232  -31.0806 H   0  0  0  0  0  0  0  0  0  0  0  0
   -4.6224   24.2534  -27.9597 H   0  0  0  0  0  0  0  0  0  0  0  0
   -3.8405   22.1052  -26.9632 H   0  0  0  0  0  0  0  0  0  0  0  0
   -2.3988   20.5596  -28.2836 H   0  0  0  0  0  0  0  0  0  0  0  0
   -0.4342   21.1001  -30.5528 H   0  0  0  0  0  0  0  0  0  0  0  0
   -1.7543   19.8714  -30.6097 H   0  0  0  0  0  0  0  0  0  0  0  0
   -2.1396   22.1286  -32.4931 H   0  0  0  0  0  0  0  0  0  0  0  0
   -0.6574   21.1491  -32.8111 H   0  0  0  0  0  0  0  0  0  0  0  0
   -0.7933   18.9172  -33.6569 H   0  0  0  0  0  0  0  0  0  0  0  0
   -2.1910   17.2320  -34.6830 H   0  0  0  0  0  0  0  0  0  0  0  0
   -4.6071   17.3018  -34.6589 H   0  0  0  0  0  0  0  0  0  0  0  0
   -6.5267   19.7465  -34.4202 H   0  0  0  0  0  0  0  0  0  0  0  0
   -6.5815   18.2309  -33.4479 H   0  0  0  0  0  0  0  0  0  0  0  0
   -7.9554   18.4254  -32.0029 H   0  0  0  0  0  0  0  0  0  0  0  0
   -7.9034   19.6915  -30.7046 H   0  0  0  0  0  0  0  0  0  0  0  0
   -8.8136   20.5938  -33.4110 H   0  0  0  0  0  0  0  0  0  0  0  0
   -9.9194   19.4771  -32.4713 H   0  0  0  0  0  0  0  0  0  0  0  0
  -10.6064   21.7124  -32.0133 H   0  0  0  0  0  0  0  0  0  0  0  0
   -9.7183   21.0494  -30.5524 H   0  0  0  0  0  0  0  0  0  0  0  0
   -8.8847   23.2127  -32.4867 H   0  0  0  0  0  0  0  0  0  0  0  0
   -8.9493   23.1797  -30.6441 H   0  0  0  0  0  0  0  0  0  0  0  0
   -6.6509   23.2823  -31.4943 H   0  0  0  0  0  0  0  0  0  0  0  0
   -7.0411   21.7515  -30.5654 H   0  0  0  0  0  0  0  0  0  0  0  0
   -7.3313   21.5957  -33.5141 H   0  0  0  0  0  0  0  0  0  0  0  0
   -5.6389   21.7910  -32.8522 H   0  0  0  0  0  0  0  0  0  0  0  0
   -4.3780   21.0147  -32.4489 H   0  0  0  0  0  0  0  0  0  0  0  0
   -2.5049   23.3180  -31.6215 H   0  0  0  0  0  0  0  0  0  0  0  0
  1  2  1  0
  2  3  1  0
  3  4  2  0
  4  5  1  0
  5  6  2  0
  6  7  1  0
  7  8  1  0
  8  9  1  0
  9 10  1  0
 10 11  2  0
 11 12  1  0
 12 13  2  0
 13 14  1  0
 14 15  1  0
 15 16  1  0
 16 17  1  0
 17 18  1  0
 18 19  1  0
 19 20  1  0
 20 21  1  0
 21 22  1  0
 14 23  2  0
  7 24  2  0
 24  3  1  0
 23 10  1  0
 22 16  1  0
  1 25  1  0
  1 26  1  0
  1 27  1  0
  4 28  1  0
  5 29  1  0
  6 30  1  0
  8 31  1  0
  8 32  1  0
  9 33  1  0
  9 34  1  0
 11 35  1  0
 12 36  1  0
 13 37  1  0
 15 38  1  0
 15 39  1  0
 17 40  1  0
 17 41  1  0
 18 42  1  0
 18 43  1  0
 19 44  1  0
 19 45  1  0
 20 46  1  0
 20 47  1  0
 21 48  1  0
 21 49  1  0
 22 50  1  0
 22 51  1  0
 23 52  1  0
 24 53  1  0
M  CHG  1  12   1
M  END
>  <UniqueID>  (27) 
25

>  <SMILES>  (27) 
COc1cccc(CCc2c[nH+]cc(CN3CCCCCC3)c2)c1

>  <Energy>  (27) 
58.13905733891073

>  <Genealogy>  (27) 
COc1cccc(CCc2c[nH+]cc(CN3CCCCCC3)c2)c1 (protonated)
COc1cccc(CCc2c[nH+]cc(CN3CCCCCC3)c2)c1 (3D coordinates assigned)
COc1cccc(CCc2c[nH+]cc(CN3CCCCCC3)c2)c1 (nonaromatic ring conformer: 58.13905733891073 kcal/mol)

>  <smiles>  (27) 
COc1cccc(CCc2cncc(CN3CCCCCC3)c2)c1

>  <score_type>  (27) 
oracle

>  <origin>  (27) 
adg

>  <m_score__min__energy>  (27) 
-6.3700000000000001

>  <m_primary>  (27) 
energy

$$$$
27:0
     RDKit          3D

 72 75  0  0  0  0  0  0  0  0999 V2000
   -0.8900   25.6540  -36.8220 N   0  0  0  0  0  0  0  0  0  0  0  0
    0.4050   25.7710  -36.1560 C   0  0  0  0  0  0  0  0  0  0  0  0
    1.0970   24.4090  -36.0420 C   0  0  0  0  0  0  0  0  0  0  0  0
    0.1250   23.3140  -36.0530 N   0  0  0  0  0  0  0  0  0  0  0  0
    0.3980   21.9490  -35.6760 C   0  0  0  0  0  0  0  0  0  0  0  0
    0.0170   20.8550  -36.4780 C   0  0  0  0  0  0  0  0  0  0  0  0
    0.2730   19.5470  -36.0600 C   0  0  0  0  0  0  0  0  0  0  0  0
    0.9170   19.3010  -34.8360 C   0  0  0  0  0  0  0  0  0  0  0  0
    1.1110   17.9450  -34.3730 N   0  0  0  0  0  0  0  0  0  0  0  0
   -0.0670   17.4600  -33.6330 C   0  0  0  0  0  0  0  0  0  0  0  0
   -1.3230   17.3950  -34.5190 C   0  0  0  0  0  0  0  0  0  0  0  0
   -2.5040   17.8370  -33.7750 N   0  0  0  0  0  0  0  0  0  0  0  0
   -2.6820   19.1860  -33.3010 C   0  0  0  0  0  0  0  0  0  0  0  0
   -1.5540   19.9710  -33.0270 C   0  0  0  0  0  0  0  0  0  0  0  0
   -1.6840   21.2330  -32.4670 C   0  0  0  0  0  0  0  0  0  0  0  0
   -2.9440   21.7560  -32.1510 C   0  0  0  0  0  0  0  0  0  0  0  0
   -3.0230   23.0180  -31.4610 N   0  0  0  0  0  0  0  0  0  0  0  0
   -2.4340   23.2190  -30.1360 C   0  0  0  0  0  0  0  0  0  0  0  0
   -3.4900   23.6380  -29.0950 C   0  0  0  0  0  0  0  0  0  0  0  0
   -4.8740   23.5860  -29.5930 N   0  0  0  0  0  0  0  0  0  0  0  0
   -5.6600   24.7690  -29.2150 C   0  0  0  0  0  0  0  0  0  0  0  0
   -5.6940   25.7570  -30.3800 C   0  0  0  0  0  0  0  0  0  0  0  0
   -4.5860   25.5620  -31.2180 O   0  0  0  0  0  0  0  0  0  0  0  0
   -4.1110   21.0020  -32.4590 C   0  0  0  0  0  0  0  0  0  0  0  0
   -3.9770   19.7150  -33.0510 C   0  0  0  0  0  0  0  0  0  0  0  0
   -5.2120   18.9690  -33.4400 C   0  0  0  0  0  0  0  0  0  0  0  0
   -5.1550   18.0070  -34.2540 O   0  0  0  0  0  0  0  0  0  0  0  0
   -6.5300   19.3950  -32.9280 C   0  0  0  0  0  0  0  0  0  0  0  0
   -7.6590   18.5670  -33.0640 C   0  0  0  0  0  0  0  0  0  0  0  0
   -8.9070   18.9940  -32.6010 C   0  0  0  0  0  0  0  0  0  0  0  0
   -9.0390   20.2480  -32.0040 C   0  0  0  0  0  0  0  0  0  0  0  0
   -7.9250   21.0800  -31.8690 C   0  0  0  0  0  0  0  0  0  0  0  0
   -6.6630   20.6590  -32.3280 C   0  0  0  0  0  0  0  0  0  0  0  0
   -5.4830   21.5420  -32.2150 C   0  0  0  0  0  0  0  0  0  0  0  0
   -5.6600   22.7610  -31.9520 O   0  0  0  0  0  0  0  0  0  0  0  0
    1.3240   20.3910  -34.0490 C   0  0  0  0  0  0  0  0  0  0  0  0
    1.0670   21.7000  -34.4650 C   0  0  0  0  0  0  0  0  0  0  0  0
   -1.0400   26.5230  -37.3850 H   0  0  0  0  0  0  0  0  0  0  0  0
   -1.6380   25.6530  -36.0900 H   0  0  0  0  0  0  0  0  0  0  0  0
    1.0461   26.4513  -36.7359 H   0  0  0  0  0  0  0  0  0  0  0  0
    0.2397   26.1626  -35.1414 H   0  0  0  0  0  0  0  0  0  0  0  0
    1.7855   24.2851  -36.8909 H   0  0  0  0  0  0  0  0  0  0  0  0
    1.6441   24.3771  -35.0882 H   0  0  0  0  0  0  0  0  0  0  0  0
   -0.8360   23.5460  -36.3950 H   0  0  0  0  0  0  0  0  0  0  0  0
   -0.4857   21.0322  -37.4402 H   0  0  0  0  0  0  0  0  0  0  0  0
   -0.0324   18.7022  -36.6948 H   0  0  0  0  0  0  0  0  0  0  0  0
    1.9670   17.8740  -33.7720 H   0  0  0  0  0  0  0  0  0  0  0  0
    1.2650   17.3260  -35.2030 H   0  0  0  0  0  0  0  0  0  0  0  0
    0.1470   16.4523  -33.2473 H   0  0  0  0  0  0  0  0  0  0  0  0
   -0.2669   18.1675  -32.8148 H   0  0  0  0  0  0  0  0  0  0  0  0
   -1.1822   18.0471  -35.3936 H   0  0  0  0  0  0  0  0  0  0  0  0
   -1.4761   16.3541  -34.8400 H   0  0  0  0  0  0  0  0  0  0  0  0
   -3.2290   17.1200  -33.5470 H   0  0  0  0  0  0  0  0  0  0  0  0
   -0.5520   19.5810  -33.2592 H   0  0  0  0  0  0  0  0  0  0  0  0
   -0.7834   21.8325  -32.2679 H   0  0  0  0  0  0  0  0  0  0  0  0
   -3.6920   23.7370  -31.8200 H   0  0  0  0  0  0  0  0  0  0  0  0
   -1.9656   22.2790  -29.8088 H   0  0  0  0  0  0  0  0  0  0  0  0
   -1.6913   24.0268  -30.2122 H   0  0  0  0  0  0  0  0  0  0  0  0
   -3.4083   22.9647  -28.2290 H   0  0  0  0  0  0  0  0  0  0  0  0
   -3.2837   24.6871  -28.8364 H   0  0  0  0  0  0  0  0  0  0  0  0
   -4.8680   23.4900  -30.6340 H   0  0  0  0  0  0  0  0  0  0  0  0
   -6.6864   24.4619  -28.9657 H   0  0  0  0  0  0  0  0  0  0  0  0
   -5.1967   25.2509  -28.3414 H   0  0  0  0  0  0  0  0  0  0  0  0
   -6.6173   25.6043  -30.9582 H   0  0  0  0  0  0  0  0  0  0  0  0
   -5.6638   26.7815  -29.9805 H   0  0  0  0  0  0  0  0  0  0  0  0
   -4.6370   24.6240  -31.5430 H   0  0  0  0  0  0  0  0  0  0  0  0
   -7.5594   17.5789  -33.5369 H   0  0  0  0  0  0  0  0  0  0  0  0
   -9.7856   18.3408  -32.7075 H   0  0  0  0  0  0  0  0  0  0  0  0
  -10.0215   20.5820  -31.6391 H   0  0  0  0  0  0  0  0  0  0  0  0
   -8.0348   22.0696  -31.4014 H   0  0  0  0  0  0  0  0  0  0  0  0
    1.8486   20.2129  -33.0987 H   0  0  0  0  0  0  0  0  0  0  0  0
    1.3914   22.5440  -33.8386 H   0  0  0  0  0  0  0  0  0  0  0  0
  1  2  1  0
  2  3  1  0
  3  4  1  0
  4  5  1  0
  5  6  2  0
  6  7  1  0
  7  8  2  0
  8  9  1  0
  9 10  1  0
 10 11  1  0
 11 12  1  0
 12 13  1  0
 13 14  2  0
 14 15  1  0
 15 16  2  0
 16 17  1  0
 17 18  1  0
 18 19  1  0
 19 20  1  0
 20 21  1  0
 21 22  1  0
 22 23  1  0
 16 24  1  0
 24 25  2  0
 25 26  1  0
 26 27  2  0
 26 28  1  0
 28 29  2  0
 29 30  1  0
 30 31  2  0
 31 32  1  0
 32 33  2  0
 33 34  1  0
 34 35  2  0
  8 36  1  0
 36 37  2  0
 37  5  1  0
 25 13  1  0
 33 28  1  0
 34 24  1  0
  1 38  1  0
  1 39  1  0
  2 40  1  0
  2 41  1  0
  3 42  1  0
  3 43  1  0
  4 44  1  0
  6 45  1  0
  7 46  1  0
  9 47  1  0
  9 48  1  0
 10 49  1  0
 10 50  1  0
 11 51  1  0
 11 52  1  0
 12 53  1  0
 14 54  1  0
 15 55  1  0
 17 56  1  0
 18 57  1  0
 18 58  1  0
 19 59  1  0
 19 60  1  0
 20 61  1  0
 21 62  1  0
 21 63  1  0
 22 64  1  0
 22 65  1  0
 23 66  1  0
 29 67  1  0
 30 68  1  0
 31 69  1  0
 32 70  1  0
 36 71  1  0
 37 72  1  0
M  CHG  1   9   1
M  END
>  <UniqueID>  (28) 
26

>  <SMILES>  (28) 
NCCNc1ccc([NH2+]CCNc2ccc(NCCNCCO)c3c2C(=O)c2ccccc2C3=O)cc1

>  <Energy>  (28) 
84.27781982572027

>  <Genealogy>  (28) 
NCCNc1ccc([NH2+]CCNc2ccc(NCCNCCO)c3c2C(=O)c2ccccc2C3=O)cc1 (protonated)
NCCNc1ccc([NH2+]CCNc2ccc(NCCNCCO)c3c2C(=O)c2ccccc2C3=O)cc1 (3D coordinates assigned)
NCCNc1ccc([NH2+]CCNc2ccc(NCCNCCO)c3c2C(=O)c2ccccc2C3=O)cc1 (nonaromatic ring conformer: 84.27781982572027 kcal/mol)

>  <smiles>  (28) 
NCCNc1ccc(NCCNc2ccc(NCCNCCO)c3c2C(=O)c2ccccc2C3=O)cc1

>  <score_type>  (28) 
oracle

>  <origin>  (28) 
adg

>  <m_score__min__energy>  (28) 
-8.6199999999999992

>  <m_primary>  (28) 
energy

$$$$
28:0
     RDKit          3D

 39 41  0  0  0  0  0  0  0  0999 V2000
   -8.1990   18.2340  -32.2500 C   0  0  0  0  0  0  0  0  0  0  0  0
   -7.4650   19.2680  -32.8980 O   0  0  0  0  0  0  0  0  0  0  0  0
   -7.2730   20.5530  -32.3700 C   0  0  0  0  0  0  0  0  0  0  0  0
   -8.3390   21.1610  -31.6970 C   0  0  0  0  0  0  0  0  0  0  0  0
   -8.1980   22.4410  -31.1510 C   0  0  0  0  0  0  0  0  0  0  0  0
   -6.9860   23.1360  -31.2810 C   0  0  0  0  0  0  0  0  0  0  0  0
   -6.8250   24.4980  -30.6640 C   0  0  0  0  0  0  0  0  0  0  0  0
   -5.4110   24.6920  -30.2070 C   0  0  0  0  0  0  0  0  0  0  0  0
   -4.6070   25.3240  -30.9450 O   0  0  0  0  0  0  0  0  0  0  0  0
   -5.0090   24.2370  -28.9050 N   0  0  0  0  0  0  0  0  0  0  0  0
   -3.6510   24.2430  -28.4330 C   0  0  0  0  0  0  0  0  0  0  0  0
   -3.3410   24.5400  -27.0950 C   0  0  0  0  0  0  0  0  0  0  0  0
   -2.0100   24.5600  -26.6640 C   0  0  0  0  0  0  0  0  0  0  0  0
   -0.9650   24.2960  -27.5670 C   0  0  0  0  0  0  0  0  0  0  0  0
    0.4510   24.3110  -27.1350 C   0  0  0  0  0  0  0  0  0  0  0  0
    0.9620   24.0350  -25.8800 C   0  0  0  0  0  0  0  0  0  0  0  0
    2.3010   24.1610  -25.9190 N   0  0  0  0  0  0  0  0  0  0  0  0
    2.5540   24.5100  -27.1980 C   0  0  0  0  0  0  0  0  0  0  0  0
    1.4600   24.5990  -27.9200 O   0  0  0  0  0  0  0  0  0  0  0  0
   -1.2780   24.0220  -28.9080 C   0  0  0  0  0  0  0  0  0  0  0  0
   -2.6080   24.0030  -29.3370 C   0  0  0  0  0  0  0  0  0  0  0  0
   -5.9120   22.5250  -31.9460 C   0  0  0  0  0  0  0  0  0  0  0  0
   -6.0530   21.2460  -32.4910 C   0  0  0  0  0  0  0  0  0  0  0  0
   -8.1148   18.3526  -31.1597 H   0  0  0  0  0  0  0  0  0  0  0  0
   -9.2570   18.2952  -32.5449 H   0  0  0  0  0  0  0  0  0  0  0  0
   -7.7922   17.2555  -32.5449 H   0  0  0  0  0  0  0  0  0  0  0  0
   -9.2958   20.6277  -31.5966 H   0  0  0  0  0  0  0  0  0  0  0  0
   -9.0408   22.9047  -30.6175 H   0  0  0  0  0  0  0  0  0  0  0  0
   -7.0752   25.2671  -31.4095 H   0  0  0  0  0  0  0  0  0  0  0  0
   -7.4982   24.5831  -29.7983 H   0  0  0  0  0  0  0  0  0  0  0  0
   -5.7610   23.9720  -28.2290 H   0  0  0  0  0  0  0  0  0  0  0  0
   -4.1497   24.7581  -26.3820 H   0  0  0  0  0  0  0  0  0  0  0  0
   -1.7796   24.7837  -25.6119 H   0  0  0  0  0  0  0  0  0  0  0  0
    0.3707   23.7579  -24.9948 H   0  0  0  0  0  0  0  0  0  0  0  0
    3.5635   24.6988  -27.5919 H   0  0  0  0  0  0  0  0  0  0  0  0
   -0.4700   23.8207  -29.6267 H   0  0  0  0  0  0  0  0  0  0  0  0
   -2.8377   23.7979  -30.3930 H   0  0  0  0  0  0  0  0  0  0  0  0
   -4.9532   23.0561  -32.0389 H   0  0  0  0  0  0  0  0  0  0  0  0
   -5.2074   20.7785  -33.0168 H   0  0  0  0  0  0  0  0  0  0  0  0
  1  2  1  0
  2  3  1  0
  3  4  2  0
  4  5  1  0
  5  6  2  0
  6  7  1  0
  7  8  1  0
  8  9  2  0
  8 10  1  0
 10 11  1  0
 11 12  2  0
 12 13  1  0
 13 14  2  0
 14 15  1  0
 15 16  2  0
 16 17  1  0
 17 18  2  0
 18 19  1  0
 14 20  1  0
 20 21  2  0
  6 22  1  0
 22 23  2  0
 23  3  1  0
 21 11  1  0
 19 15  1  0
  1 24  1  0
  1 25  1  0
  1 26  1  0
  4 27  1  0
  5 28  1  0
  7 29  1  0
  7 30  1  0
 10 31  1  0
 12 32  1  0
 13 33  1  0
 16 34  1  0
 18 35  1  0
 20 36  1  0
 21 37  1  0
 22 38  1  0
 23 39  1  0
M  END
>  <UniqueID>  (29) 
27

>  <SMILES>  (29) 
COc1ccc(CC(=O)Nc2ccc(-c3cnco3)cc2)cc1

>  <Energy>  (29) 
72.47278274375009

>  <Genealogy>  (29) 
COc1ccc(CC(=O)Nc2ccc(-c3cnco3)cc2)cc1 (3D coordinates assigned)
COc1ccc(CC(=O)Nc2ccc(-c3cnco3)cc2)cc1 (optimized conformer: 72.47278274375009 kcal/mol)

>  <smiles>  (29) 
COc1ccc(CC(=O)Nc2ccc(-c3cnco3)cc2)cc1

>  <score_type>  (29) 
oracle

>  <origin>  (29) 
adg

>  <m_score__min__energy>  (29) 
-8.3499999999999996

>  <m_primary>  (29) 
energy

$$$$
29:0
     RDKit          3D

 54 57  0  0  0  0  0  0  0  0999 V2000
   -3.2520   21.7730  -28.9960 C   0  0  0  0  0  0  0  0  0  0  0  0
   -2.3540   20.7230  -28.3940 C   0  0  0  0  0  0  0  0  0  0  0  0
   -2.8060   20.0370  -27.2510 C   0  0  0  0  0  0  0  0  0  0  0  0
   -2.0730   18.9790  -26.7170 C   0  0  0  0  0  0  0  0  0  0  0  0
   -0.8940   18.5680  -27.3320 C   0  0  0  0  0  0  0  0  0  0  0  0
   -0.4240   19.2380  -28.4620 C   0  0  0  0  0  0  0  0  0  0  0  0
   -1.1070   20.3590  -28.9780 C   0  0  0  0  0  0  0  0  0  0  0  0
   -0.5140   21.0890  -30.1790 C   0  0  0  0  0  0  0  0  0  0  0  0
   -0.4980   20.3300  -31.4650 N   0  0  0  0  0  0  0  0  0  0  0  0
   -0.3060   21.1610  -32.6860 C   0  0  0  0  0  0  0  0  0  0  0  0
   -1.6090   21.4220  -33.4700 C   0  0  0  0  0  0  0  0  0  0  0  0
   -2.7630   21.3180  -32.5700 N   0  0  0  0  0  0  0  0  0  0  0  0
   -4.0070   21.9070  -33.1040 C   0  0  0  0  0  0  0  0  0  0  0  0
   -4.8330   22.6290  -32.0650 C   0  0  0  0  0  0  0  0  0  0  0  0
   -4.2920   23.5060  -31.3390 O   0  0  0  0  0  0  0  0  0  0  0  0
   -6.2360   22.3680  -31.9200 N   0  0  0  0  0  0  0  0  0  0  0  0
   -7.2400   23.4080  -31.6910 C   0  0  0  0  0  0  0  0  0  0  0  0
   -8.6130   22.7010  -31.7870 C   0  0  0  0  0  0  0  0  0  0  0  0
   -8.2520   21.2660  -31.9550 C   0  0  0  0  0  0  0  0  0  0  0  0
   -9.1100   20.1640  -31.9870 C   0  0  0  0  0  0  0  0  0  0  0  0
   -8.5470   18.8810  -32.0750 C   0  0  0  0  0  0  0  0  0  0  0  0
   -7.1500   18.7200  -32.1050 C   0  0  0  0  0  0  0  0  0  0  0  0
   -6.3080   19.8430  -32.0630 C   0  0  0  0  0  0  0  0  0  0  0  0
   -6.8940   21.1140  -32.0220 C   0  0  0  0  0  0  0  0  0  0  0  0
   -2.9330   19.9460  -32.0600 C   0  0  0  0  0  0  0  0  0  0  0  0
   -1.5860   19.3340  -31.6120 C   0  0  0  0  0  0  0  0  0  0  0  0
   -3.7397   22.3433  -28.1917 H   0  0  0  0  0  0  0  0  0  0  0  0
   -2.6533   22.4548  -29.6178 H   0  0  0  0  0  0  0  0  0  0  0  0
   -4.0184   21.2873  -29.6178 H   0  0  0  0  0  0  0  0  0  0  0  0
   -3.7495   20.3398  -26.7734 H   0  0  0  0  0  0  0  0  0  0  0  0
   -2.4263   18.4684  -25.8090 H   0  0  0  0  0  0  0  0  0  0  0  0
   -0.3320   17.7137  -26.9266 H   0  0  0  0  0  0  0  0  0  0  0  0
    0.4929   18.8867  -28.9579 H   0  0  0  0  0  0  0  0  0  0  0  0
   -1.0993   22.0068  -30.3374 H   0  0  0  0  0  0  0  0  0  0  0  0
    0.5419   21.2658  -29.9263 H   0  0  0  0  0  0  0  0  0  0  0  0
    0.3750   19.7530  -31.3940 H   0  0  0  0  0  0  0  0  0  0  0  0
    0.1173   22.1302  -32.3834 H   0  0  0  0  0  0  0  0  0  0  0  0
    0.3643   20.6004  -33.3542 H   0  0  0  0  0  0  0  0  0  0  0  0
   -1.5763   22.4314  -33.9059 H   0  0  0  0  0  0  0  0  0  0  0  0
   -1.7058   20.6740  -34.2707 H   0  0  0  0  0  0  0  0  0  0  0  0
   -3.7402   22.6237  -33.8947 H   0  0  0  0  0  0  0  0  0  0  0  0
   -4.6203   21.0751  -33.4805 H   0  0  0  0  0  0  0  0  0  0  0  0
   -7.1083   23.8540  -30.6942 H   0  0  0  0  0  0  0  0  0  0  0  0
   -7.1528   24.2220  -32.4257 H   0  0  0  0  0  0  0  0  0  0  0  0
   -9.1996   22.8543  -30.8692 H   0  0  0  0  0  0  0  0  0  0  0  0
   -9.2373   23.0854  -32.6071 H   0  0  0  0  0  0  0  0  0  0  0  0
  -10.2009   20.2984  -31.9443 H   0  0  0  0  0  0  0  0  0  0  0  0
   -9.2012   17.9978  -32.1207 H   0  0  0  0  0  0  0  0  0  0  0  0
   -6.7156   17.7110  -32.1616 H   0  0  0  0  0  0  0  0  0  0  0  0
   -5.2141   19.7270  -32.0623 H   0  0  0  0  0  0  0  0  0  0  0  0
   -3.6189   19.9672  -31.2003 H   0  0  0  0  0  0  0  0  0  0  0  0
   -3.3396   19.3252  -32.8720 H   0  0  0  0  0  0  0  0  0  0  0  0
   -1.7357   18.8377  -30.6418 H   0  0  0  0  0  0  0  0  0  0  0  0
   -1.2745   18.6318  -32.3993 H   0  0  0  0  0  0  0  0  0  0  0  0
  1  2  1  0
  2  3  2  0
  3  4  1  0
  4  5  2  0
  5  6  1  0
  6  7  2  0
  7  8  1  0
  8  9  1  0
  9 10  1  0
 10 11  1  0
 11 12  1  0
 12 13  1  0
 13 14  1  0
 14 15  2  0
 14 16  1  0
 16 17  1  0
 17 18  1  0
 18 19  1  0
 19 20  2  0
 20 21  1  0
 21 22  2  0
 22 23  1  0
 23 24  2  0
 12 25  1  0
 25 26  1  0
  7  2  1  0
 26  9  1  0
 24 16  1  0
 24 19  1  0
  1 27  1  0
  1 28  1  0
  1 29  1  0
  3 30  1  0
  4 31  1  0
  5 32  1  0
  6 33  1  0
  8 34  1  0
  8 35  1  0
  9 36  1  0
 10 37  1  0
 10 38  1  0
 11 39  1  0
 11 40  1  0
 13 41  1  0
 13 42  1  0
 17 43  1  0
 17 44  1  0
 18 45  1  0
 18 46  1  0
 20 47  1  0
 21 48  1  0
 22 49  1  0
 23 50  1  0
 25 51  1  0
 25 52  1  0
 26 53  1  0
 26 54  1  0
M  CHG  1   9   1
M  END
>  <UniqueID>  (30) 
28

>  <SMILES>  (30) 
Cc1ccccc1C[NH+]1CCN(CC(=O)N2CCc3ccccc32)CC1

>  <Energy>  (30) 
95.95624680047081

>  <Genealogy>  (30) 
Cc1ccccc1C[NH+]1CCN(CC(=O)N2CCc3ccccc32)CC1 (protonated)
Cc1ccccc1C[NH+]1CCN(CC(=O)N2CCc3ccccc32)CC1 (3D coordinates assigned)
Cc1ccccc1C[NH+]1CCN(CC(=O)N2CCc3ccccc32)CC1 (nonaromatic ring conformer: 95.95624680047081 kcal/mol)

>  <smiles>  (30) 
Cc1ccccc1CN1CCN(CC(=O)N2CCc3ccccc32)CC1

>  <score_type>  (30) 
oracle

>  <origin>  (30) 
adg

>  <m_score__min__energy>  (30) 
-8.1099999999999994

>  <m_primary>  (30) 
energy

$$$$
30:0
     RDKit          3D

 34 36  0  0  0  0  0  0  0  0999 V2000
   -6.7930   16.9600  -33.7440 C   0  0  0  0  0  0  0  0  0  0  0  0
   -7.0850   18.2720  -33.0780 C   0  0  0  0  0  0  0  0  0  0  0  0
   -6.2000   19.3520  -33.2240 C   0  0  0  0  0  0  0  0  0  0  0  0
   -6.4540   20.5630  -32.5720 C   0  0  0  0  0  0  0  0  0  0  0  0
   -7.5800   20.6980  -31.7530 C   0  0  0  0  0  0  0  0  0  0  0  0
   -7.9150   22.2580  -30.9290 S   0  0  0  0  0  0  0  0  0  0  0  0
   -7.0560   23.3040  -32.1600 C   0  0  0  0  0  0  0  0  0  0  0  0
   -5.7230   23.7730  -31.6450 C   0  0  0  0  0  0  0  0  0  0  0  0
   -5.5020   25.0080  -31.5590 O   0  0  0  0  0  0  0  0  0  0  0  0
   -4.6540   22.8630  -31.3520 N   0  0  0  0  0  0  0  0  0  0  0  0
   -3.4240   23.1680  -30.6820 C   0  0  0  0  0  0  0  0  0  0  0  0
   -2.3600   22.2290  -30.6240 C   0  0  0  0  0  0  0  0  0  0  0  0
   -1.1710   22.5340  -29.9360 C   0  0  0  0  0  0  0  0  0  0  0  0
   -1.0890   23.7700  -29.3040 C   0  0  0  0  0  0  0  0  0  0  0  0
   -0.0650   24.2600  -28.5900 N   0  0  0  0  0  0  0  0  0  0  0  0
   -0.5400   25.4740  -28.2110 C   0  0  0  0  0  0  0  0  0  0  0  0
    0.1340   26.2710  -27.5070 O   0  0  0  0  0  0  0  0  0  0  0  0
   -1.7940   25.7660  -28.6400 N   0  0  0  0  0  0  0  0  0  0  0  0
   -2.1160   24.6640  -29.3330 C   0  0  0  0  0  0  0  0  0  0  0  0
   -3.3070   24.3970  -30.0030 C   0  0  0  0  0  0  0  0  0  0  0  0
   -8.4640   19.6230  -31.6010 C   0  0  0  0  0  0  0  0  0  0  0  0
   -8.2110   18.4110  -32.2520 C   0  0  0  0  0  0  0  0  0  0  0  0
   -6.6216   16.1898  -32.9775 H   0  0  0  0  0  0  0  0  0  0  0  0
   -7.6483   16.6689  -34.3714 H   0  0  0  0  0  0  0  0  0  0  0  0
   -5.8949   17.0591  -34.3714 H   0  0  0  0  0  0  0  0  0  0  0  0
   -5.3040   19.2454  -33.8532 H   0  0  0  0  0  0  0  0  0  0  0  0
   -5.7665   21.4116  -32.7036 H   0  0  0  0  0  0  0  0  0  0  0  0
   -6.8996   22.7203  -33.0791 H   0  0  0  0  0  0  0  0  0  0  0  0
   -7.6804   24.1871  -32.3607 H   0  0  0  0  0  0  0  0  0  0  0  0
   -2.4664   21.2538  -31.1217 H   0  0  0  0  0  0  0  0  0  0  0  0
   -0.3354   21.8195  -29.8994 H   0  0  0  0  0  0  0  0  0  0  0  0
   -4.1323   25.1242  -30.0022 H   0  0  0  0  0  0  0  0  0  0  0  0
   -9.3580   19.7315  -30.9693 H   0  0  0  0  0  0  0  0  0  0  0  0
   -8.8980   17.5628  -32.1158 H   0  0  0  0  0  0  0  0  0  0  0  0
  1  2  1  0
  2  3  2  0
  3  4  1  0
  4  5  2  0
  5  6  1  0
  6  7  1  0
  7  8  1  0
  8  9  2  0
  8 10  1  0
 10 11  1  0
 11 12  2  0
 12 13  1  0
 13 14  2  0
 14 15  1  0
 15 16  1  0
 16 17  2  0
 16 18  1  0
 18 19  1  0
 19 20  2  0
  5 21  1  0
 21 22  2  0
 22  2  1  0
 20 11  1  0
 19 14  1  0
  1 23  1  0
  1 24  1  0
  1 25  1  0
  3 26  1  0
  4 27  1  0
  7 28  1  0
  7 29  1  0
 12 30  1  0
 13 31  1  0
 20 32  1  0
 21 33  1  0
 22 34  1  0
M  CHG  3  10  -1  15  -1  18  -1
M  END
>  <UniqueID>  (31) 
29

>  <SMILES>  (31) 
Cc1ccc(SCC(=O)[N-]c2ccc3[n-]c(=O)[n-]c3c2)cc1

>  <Energy>  (31) 
72.43768454398466

>  <Genealogy>  (31) 
Cc1ccc(SCC(=O)[N-]c2ccc3[n-]c(=O)[n-]c3c2)cc1 (protonated)
Cc1ccc(SCC(=O)[N-]c2ccc3[n-]c(=O)[n-]c3c2)cc1 (3D coordinates assigned)
Cc1ccc(SCC(=O)[N-]c2ccc3[n-]c(=O)[n-]c3c2)cc1 (optimized conformer: 72.43768454398466 kcal/mol)

>  <smiles>  (31) 
Cc1ccc(SCC(=O)Nc2ccc3[nH]c(=O)[nH]c3c2)cc1

>  <score_type>  (31) 
oracle

>  <origin>  (31) 
adg

>  <m_score__min__energy>  (31) 
-10.970000000000001

>  <m_primary>  (31) 
energy

$$$$
31:0
     RDKit          3D

 49 51  0  0  0  0  0  0  0  0999 V2000
   -3.3950   17.4600  -34.9410 C   0  0  0  0  0  0  0  0  0  0  0  0
   -4.7200   17.4290  -34.2500 C   0  0  0  0  0  0  0  0  0  0  0  0
   -5.4430   16.2340  -34.1530 C   0  0  0  0  0  0  0  0  0  0  0  0
   -6.6950   16.2430  -33.5380 C   0  0  0  0  0  0  0  0  0  0  0  0
   -7.2180   17.4350  -33.0350 C   0  0  0  0  0  0  0  0  0  0  0  0
   -6.4730   18.6240  -33.1520 C   0  0  0  0  0  0  0  0  0  0  0  0
   -6.9780   19.8820  -32.6490 N   0  0  0  0  0  0  0  0  0  0  0  0
   -8.4230   20.0570  -32.4340 C   0  0  0  0  0  0  0  0  0  0  0  0
   -8.6700   20.9350  -31.2060 C   0  0  0  0  0  0  0  0  0  0  0  0
   -7.9280   22.2870  -31.2670 C   0  0  0  0  0  0  0  0  0  0  0  0
   -6.8520   22.3650  -32.3790 C   0  0  1  0  0  0  0  0  0  0  0  0
   -5.9150   23.4900  -32.1570 N   0  0  0  0  0  0  0  0  0  0  0  0
   -6.4510   24.5260  -31.2420 C   0  0  0  0  0  0  0  0  0  0  0  0
   -5.3560   25.4490  -30.6930 C   0  0  0  0  0  0  0  0  0  0  0  0
   -4.0790   24.8300  -30.8370 O   0  0  0  0  0  0  0  0  0  0  0  0
   -3.6120   23.7820  -30.0300 C   0  0  0  0  0  0  0  0  0  0  0  0
   -4.0210   23.7400  -28.6910 C   0  0  0  0  0  0  0  0  0  0  0  0
   -3.5860   22.7130  -27.8480 C   0  0  0  0  0  0  0  0  0  0  0  0
   -2.7420   21.7160  -28.3400 C   0  0  0  0  0  0  0  0  0  0  0  0
   -2.3240   21.7490  -29.6730 C   0  0  0  0  0  0  0  0  0  0  0  0
   -2.7530   22.7760  -30.5180 C   0  0  0  0  0  0  0  0  0  0  0  0
   -6.0750   21.0330  -32.4690 C   0  0  0  0  0  0  0  0  0  0  0  0
   -5.2530   18.5800  -33.7620 N   0  0  0  0  0  0  0  0  0  0  0  0
   -2.5906   17.4788  -34.1909 H   0  0  0  0  0  0  0  0  0  0  0  0
   -3.2886   16.5641  -35.5703 H   0  0  0  0  0  0  0  0  0  0  0  0
   -3.3306   18.3599  -35.5703 H   0  0  0  0  0  0  0  0  0  0  0  0
   -5.0285   15.2987  -34.5572 H   0  0  0  0  0  0  0  0  0  0  0  0
   -7.2705   15.3098  -33.4494 H   0  0  0  0  0  0  0  0  0  0  0  0
   -8.2055   17.4456  -32.5504 H   0  0  0  0  0  0  0  0  0  0  0  0
   -8.8669   20.5363  -33.3190 H   0  0  0  0  0  0  0  0  0  0  0  0
   -8.8842   19.0718  -32.2705 H   0  0  0  0  0  0  0  0  0  0  0  0
   -9.7495   21.1317  -31.1281 H   0  0  0  0  0  0  0  0  0  0  0  0
   -8.2855   20.3899  -30.3313 H   0  0  0  0  0  0  0  0  0  0  0  0
   -8.6686   23.0804  -31.4459 H   0  0  0  0  0  0  0  0  0  0  0  0
   -7.4036   22.4061  -30.3074 H   0  0  0  0  0  0  0  0  0  0  0  0
   -7.3714   22.5450  -33.3318 H   0  0  0  0  0  0  0  0  0  0  0  0
   -4.9920   23.1240  -31.8270 H   0  0  0  0  0  0  0  0  0  0  0  0
   -5.7380   23.9540  -33.0800 H   0  0  0  0  0  0  0  0  0  0  0  0
   -7.1840   25.1358  -31.7905 H   0  0  0  0  0  0  0  0  0  0  0  0
   -6.9125   24.0101  -30.3871 H   0  0  0  0  0  0  0  0  0  0  0  0
   -5.3660   26.3975  -31.2500 H   0  0  0  0  0  0  0  0  0  0  0  0
   -5.5463   25.6406  -29.6267 H   0  0  0  0  0  0  0  0  0  0  0  0
   -4.6895   24.5210  -28.2997 H   0  0  0  0  0  0  0  0  0  0  0  0
   -3.9089   22.6906  -26.7967 H   0  0  0  0  0  0  0  0  0  0  0  0
   -2.4059   20.9042  -27.6783 H   0  0  0  0  0  0  0  0  0  0  0  0
   -1.6557   20.9647  -30.0581 H   0  0  0  0  0  0  0  0  0  0  0  0
   -2.4198   22.7996  -31.5661 H   0  0  0  0  0  0  0  0  0  0  0  0
   -5.3848   21.0808  -33.3241 H   0  0  0  0  0  0  0  0  0  0  0  0
   -5.5274   20.8929  -31.5253 H   0  0  0  0  0  0  0  0  0  0  0  0
  1  2  1  0
  2  3  2  0
  3  4  1  0
  4  5  2  0
  5  6  1  0
  6  7  1  0
  7  8  1  0
  8  9  1  0
  9 10  1  0
 10 11  1  0
 11 12  1  0
 12 13  1  0
 13 14  1  0
 14 15  1  0
 15 16  1  0
 16 17  2  0
 17 18  1  0
 18 19  2  0
 19 20  1  0
 20 21  2  0
 11 22  1  0
  6 23  2  0
 23  2  1  0
 22  7  1  0
 21 16  1  0
  1 24  1  0
  1 25  1  0
  1 26  1  0
  3 27  1  0
  4 28  1  0
  5 29  1  0
  8 30  1  0
  8 31  1  0
  9 32  1  0
  9 33  1  0
 10 34  1  0
 10 35  1  0
 11 36  1  6
 12 37  1  0
 12 38  1  0
 13 39  1  0
 13 40  1  0
 14 41  1  0
 14 42  1  0
 17 43  1  0
 18 44  1  0
 19 45  1  0
 20 46  1  0
 21 47  1  0
 22 48  1  0
 22 49  1  0
M  CHG  1  12   1
M  END
>  <UniqueID>  (32) 
30

>  <SMILES>  (32) 
Cc1cccc(N2CCC[C@@H]([NH2+]CCOc3ccccc3)C2)n1

>  <Energy>  (32) 
54.570298604473116

>  <Genealogy>  (32) 
Cc1cccc(N2CCCC([NH2+]CCOc3ccccc3)C2)n1 (protonated)
Cc1cccc(N2CCC[C@@H]([NH2+]CCOc3ccccc3)C2)n1 (chirality)
Cc1cccc(N2CCC[C@@H]([NH2+]CCOc3ccccc3)C2)n1 (3D coordinates assigned)
Cc1cccc(N2CCC[C@@H]([NH2+]CCOc3ccccc3)C2)n1 (nonaromatic ring conformer: 54.570298604473116 kcal/mol)

>  <smiles>  (32) 
Cc1cccc(N2CCCC(NCCOc3ccccc3)C2)n1

>  <score_type>  (32) 
oracle

>  <origin>  (32) 
adg

>  <m_score__min__energy>  (32) 
-7.2999999999999998

>  <m_primary>  (32) 
energy

$$$$
32:0
     RDKit          3D

 40 43  0  0  0  0  0  0  0  0999 V2000
   -7.9000   18.5780  -32.4850 C   0  0  0  0  0  0  0  0  0  0  0  0
   -7.4280   19.9130  -32.0730 N   0  0  0  0  0  0  0  0  0  0  0  0
   -6.1490   20.0680  -31.6160 C   0  0  0  0  0  0  0  0  0  0  0  0
   -5.3800   19.0680  -31.5310 O   0  0  0  0  0  0  0  0  0  0  0  0
   -5.6810   21.3330  -31.2400 C   0  0  0  0  0  0  0  0  0  0  0  0
   -4.3640   21.5030  -30.7440 C   0  0  0  0  0  0  0  0  0  0  0  0
   -3.9600   22.7850  -30.3880 C   0  0  0  0  0  0  0  0  0  0  0  0
   -4.7880   23.8590  -30.5040 C   0  0  0  0  0  0  0  0  0  0  0  0
   -6.0850   23.7400  -30.9870 C   0  0  0  0  0  0  0  0  0  0  0  0
   -6.5580   22.4500  -31.3690 C   0  0  0  0  0  0  0  0  0  0  0  0
   -7.8300   22.2630  -31.8660 N   0  0  0  0  0  0  0  0  0  0  0  0
   -8.7460   23.4130  -32.0200 C   0  0  0  0  0  0  0  0  0  0  0  0
   -8.2490   21.0020  -32.2260 C   0  0  0  0  0  0  0  0  0  0  0  0
   -9.4050   20.8390  -32.7090 O   0  0  0  0  0  0  0  0  0  0  0  0
   -4.1650   24.9880  -30.1100 N   0  0  0  0  0  0  0  0  0  0  0  0
   -2.9360   24.5360  -29.7580 C   0  0  0  0  0  0  0  0  0  0  0  0
   -2.0290   25.3000  -29.3340 O   0  0  0  0  0  0  0  0  0  0  0  0
   -2.7750   23.1960  -29.9050 N   0  0  0  0  0  0  0  0  0  0  0  0
   -1.5590   22.4100  -29.6860 C   0  0  0  0  0  0  0  0  0  0  0  0
   -1.7030   21.5590  -28.4530 C   0  0  0  0  0  0  0  0  0  0  0  0
   -1.1160   21.9680  -27.2440 C   0  0  0  0  0  0  0  0  0  0  0  0
   -1.2220   21.1680  -26.1020 C   0  0  0  0  0  0  0  0  0  0  0  0
   -1.9140   19.9550  -26.1590 C   0  0  0  0  0  0  0  0  0  0  0  0
   -2.5000   19.5400  -27.3580 C   0  0  0  0  0  0  0  0  0  0  0  0
   -2.3940   20.3370  -28.5030 C   0  0  0  0  0  0  0  0  0  0  0  0
   -8.1139   17.9729  -31.5916 H   0  0  0  0  0  0  0  0  0  0  0  0
   -8.8158   18.6820  -33.0853 H   0  0  0  0  0  0  0  0  0  0  0  0
   -7.1223   18.0833  -33.0853 H   0  0  0  0  0  0  0  0  0  0  0  0
   -3.6817   20.6460  -30.6437 H   0  0  0  0  0  0  0  0  0  0  0  0
   -6.7345   24.6236  -31.0731 H   0  0  0  0  0  0  0  0  0  0  0  0
   -9.0405   23.7827  -31.0267 H   0  0  0  0  0  0  0  0  0  0  0  0
   -8.2370   24.2156  -32.5739 H   0  0  0  0  0  0  0  0  0  0  0  0
   -9.6421   23.0964  -32.5739 H   0  0  0  0  0  0  0  0  0  0  0  0
   -1.3846   21.7609  -30.5568 H   0  0  0  0  0  0  0  0  0  0  0  0
   -0.7091   23.0952  -29.5510 H   0  0  0  0  0  0  0  0  0  0  0  0
   -0.5705   22.9220  -27.1954 H   0  0  0  0  0  0  0  0  0  0  0  0
   -0.7604   21.4936  -25.1581 H   0  0  0  0  0  0  0  0  0  0  0  0
   -1.9974   19.3268  -25.2599 H   0  0  0  0  0  0  0  0  0  0  0  0
   -3.0452   18.5856  -27.4015 H   0  0  0  0  0  0  0  0  0  0  0  0
   -2.8535   20.0055  -29.4459 H   0  0  0  0  0  0  0  0  0  0  0  0
  1  2  1  0
  2  3  1  0
  3  4  2  0
  3  5  1  0
  5  6  2  0
  6  7  1  0
  7  8  2  0
  8  9  1  0
  9 10  2  0
 10 11  1  0
 11 12  1  0
 11 13  1  0
 13 14  2  0
  8 15  1  0
 15 16  1  0
 16 17  2  0
 16 18  1  0
 18 19  1  0
 19 20  1  0
 20 21  2  0
 21 22  1  0
 22 23  2  0
 23 24  1  0
 24 25  2  0
 13  2  1  0
 25 20  1  0
 10  5  1  0
 18  7  1  0
  1 26  1  0
  1 27  1  0
  1 28  1  0
  6 29  1  0
  9 30  1  0
 12 31  1  0
 12 32  1  0
 12 33  1  0
 19 34  1  0
 19 35  1  0
 21 36  1  0
 22 37  1  0
 23 38  1  0
 24 39  1  0
 25 40  1  0
M  CHG  1  15  -1
M  END
>  <UniqueID>  (33) 
31

>  <SMILES>  (33) 
Cn1c(=O)c2cc3c(cc2n(C)c1=O)[n-]c(=O)n3Cc1ccccc1

>  <Energy>  (33) 
96.04502511702152

>  <Genealogy>  (33) 
Cn1c(=O)c2cc3c(cc2n(C)c1=O)[n-]c(=O)n3Cc1ccccc1 (protonated)
Cn1c(=O)c2cc3c(cc2n(C)c1=O)[n-]c(=O)n3Cc1ccccc1 (3D coordinates assigned)
Cn1c(=O)c2cc3c(cc2n(C)c1=O)[n-]c(=O)n3Cc1ccccc1 (optimized conformer: 96.04502511702152 kcal/mol)

>  <smiles>  (33) 
Cn1c(=O)c2cc3c(cc2n(C)c1=O)[nH]c(=O)n3Cc1ccccc1

>  <score_type>  (33) 
oracle

>  <origin>  (33) 
adg

>  <m_score__min__energy>  (33) 
-9.1699999999999999

>  <m_primary>  (33) 
energy

$$$$
33:0
     RDKit          3D

 54 56  0  0  0  0  0  0  0  0999 V2000
   -1.6107   23.1822  -27.9494 H   0  0  0  0  0  0  0  0  0  0  0  0
   -2.1660   23.2790  -28.8940 C   0  0  0  0  0  0  0  0  0  0  0  0
   -2.8710   24.4090  -29.1500 N   0  0  0  0  0  0  0  0  0  0  0  0
   -3.5740   24.5530  -30.3050 C   0  0  0  0  0  0  0  0  0  0  0  0
   -4.2410   25.6390  -30.5510 N   0  0  0  0  0  0  0  0  0  0  0  0
   -5.7000   25.7220  -30.5630 C   0  0  0  0  0  0  0  0  0  0  0  0
   -6.0161   26.6172  -30.0074 H   0  0  0  0  0  0  0  0  0  0  0  0
   -6.0442   25.7815  -31.6061 H   0  0  0  0  0  0  0  0  0  0  0  0
   -6.3160   24.4760  -29.9070 C   0  0  0  0  0  0  0  0  0  0  0  0
   -5.6453   24.1542  -29.0967 H   0  0  0  0  0  0  0  0  0  0  0  0
   -7.3157   24.7810  -29.5642 H   0  0  0  0  0  0  0  0  0  0  0  0
   -6.5430   23.2650  -30.8460 C   0  0  0  0  0  0  0  0  0  0  0  0
   -5.6029   22.6947  -30.8162 H   0  0  0  0  0  0  0  0  0  0  0  0
   -6.7770   23.6760  -32.3060 C   0  0  0  0  0  0  0  0  0  0  0  0
   -7.3211   24.6316  -32.3352 H   0  0  0  0  0  0  0  0  0  0  0  0
   -5.8083   23.7899  -32.8146 H   0  0  0  0  0  0  0  0  0  0  0  0
   -7.3693   22.9011  -32.8146 H   0  0  0  0  0  0  0  0  0  0  0  0
   -7.6630   22.3390  -30.3520 C   0  0  0  0  0  0  0  0  0  0  0  0
   -7.6733   22.3305  -29.2521 H   0  0  0  0  0  0  0  0  0  0  0  0
   -8.6315   22.7036  -30.7249 H   0  0  0  0  0  0  0  0  0  0  0  0
   -7.4869   21.3192  -30.7249 H   0  0  0  0  0  0  0  0  0  0  0  0
   -3.5840   23.5470  -31.2160 N   0  0  0  0  0  0  0  0  0  0  0  0
   -2.8990   22.3890  -31.0070 C   0  0  0  0  0  0  0  0  0  0  0  0
   -2.9960   21.3370  -31.9790 N   0  0  0  0  0  0  0  0  0  0  0  0
   -4.2720   20.6370  -32.1720 C   0  0  0  0  0  0  0  0  0  0  0  0
   -4.8017   20.5855  -31.2093 H   0  0  0  0  0  0  0  0  0  0  0  0
   -4.8648   21.1934  -32.9129 H   0  0  0  0  0  0  0  0  0  0  0  0
   -4.0500   19.2000  -32.7030 C   0  0  0  0  0  0  0  0  0  0  0  0
   -4.3661   18.4899  -31.9246 H   0  0  0  0  0  0  0  0  0  0  0  0
   -4.6415   19.1043  -33.6255 H   0  0  0  0  0  0  0  0  0  0  0  0
   -2.7030   18.9180  -33.0450 O   0  0  0  0  0  0  0  0  0  0  0  0
   -2.1770   19.9590  -33.8410 C   0  0  0  0  0  0  0  0  0  0  0  0
   -1.2304   19.6312  -34.2954 H   0  0  0  0  0  0  0  0  0  0  0  0
   -2.8948   20.2133  -34.6348 H   0  0  0  0  0  0  0  0  0  0  0  0
   -1.9250   21.1870  -32.9680 C   0  0  0  0  0  0  0  0  0  0  0  0
   -0.9635   21.0703  -32.4466 H   0  0  0  0  0  0  0  0  0  0  0  0
   -1.9010   22.0816  -33.6076 H   0  0  0  0  0  0  0  0  0  0  0  0
   -2.1420   22.2350  -29.8270 C   0  0  0  0  0  0  0  0  0  0  0  0
   -1.3310   21.0720  -29.5880 N   0  0  0  0  0  0  0  0  0  0  0  0
   -0.2480   20.6670  -30.2860 C   0  0  0  0  0  0  0  0  0  0  0  0
    0.1312   21.1862  -31.1785 H   0  0  0  0  0  0  0  0  0  0  0  0
    0.3180   19.5570  -29.7700 N   0  0  0  0  0  0  0  0  0  0  0  0
   -0.4570   19.2590  -28.7070 C   0  0  0  0  0  0  0  0  0  0  0  0
   -0.1850   18.1310  -27.7640 C   0  0  0  0  0  0  0  0  0  0  0  0
   -1.1348   17.6536  -27.4812 H   0  0  0  0  0  0  0  0  0  0  0  0
    0.3147   18.5203  -26.8647 H   0  0  0  0  0  0  0  0  0  0  0  0
    0.6830   17.1430  -28.4130 N   0  0  0  0  0  0  0  0  0  0  0  0
    1.1020   17.5870  -29.2640 H   0  0  0  0  0  0  0  0  0  0  0  0
    1.7870   16.7780  -27.5220 C   0  0  0  0  0  0  0  0  0  0  0  0
    1.4644   16.8847  -26.4758 H   0  0  0  0  0  0  0  0  0  0  0  0
    2.0809   15.7349  -27.7106 H   0  0  0  0  0  0  0  0  0  0  0  0
    2.6447   17.4404  -27.7106 H   0  0  0  0  0  0  0  0  0  0  0  0
   -1.4580   20.1950  -28.5760 C   0  0  0  0  0  0  0  0  0  0  0  0
   -2.2234   20.2210  -27.7864 H   0  0  0  0  0  0  0  0  0  0  0  0
  1  2  1  0
  2  3  1  0
  3  4  1  0
  4  5  2  0
  5  6  1  0
  6  7  1  0
  6  8  1  0
  6  9  1  0
  9 10  1  0
  9 11  1  0
  9 12  1  0
 12 13  1  0
 12 14  1  0
 14 15  1  0
 14 16  1  0
 14 17  1  0
 12 18  1  0
 18 19  1  0
 18 20  1  0
 18 21  1  0
  4 22  1  0
 22 23  2  0
 23 24  1  0
 24 25  1  0
 25 26  1  0
 25 27  1  0
 25 28  1  0
 28 29  1  0
 28 30  1  0
 28 31  1  0
 31 32  1  0
 32 33  1  0
 32 34  1  0
 32 35  1  0
 35 36  1  0
 35 37  1  0
 23 38  1  0
 38 39  1  0
 39 40  1  0
 40 41  1  0
 40 42  2  0
 42 43  1  0
 43 44  1  0
 44 45  1  0
 44 46  1  0
 44 47  1  0
 47 48  1  0
 47 49  1  0
 49 50  1  0
 49 51  1  0
 49 52  1  0
 43 53  2  0
 53 54  1  0
 38  2  2  0
 53 39  1  0
 35 24  1  0
M  CHG  1   3  -1
M  END
>  <UniqueID>  (34) 
32

>  <SMILES>  (34) 
CNCc1cn(-c2c[n-]/c(=N\CCC(C)C)nc2N2CCOCC2)cn1

>  <Energy>  (34) 
89.83284103935915

>  <Genealogy>  (34) 
CNCc1cn(-c2c[n-]c(=NCCC(C)C)nc2N2CCOCC2)cn1 (protonated)
CNCc1cn(-c2c[n-]/c(=N\CCC(C)C)nc2N2CCOCC2)cn1 (cis-trans isomerization)
CNCc1cn(-c2c[n-]/c(=N\CCC(C)C)nc2N2CCOCC2)cn1 (3D coordinates assigned)
CNCc1cn(-c2c[n-]/c(=N\CCC(C)C)nc2N2CCOCC2)cn1 (nonaromatic ring conformer: 89.83284103935915 kcal/mol)

>  <smiles>  (34) 
CNCc1cn(-c2c[nH]c(=NCCC(C)C)nc2N2CCOCC2)cn1

>  <score_type>  (34) 
oracle

>  <origin>  (34) 
adg

>  <m_score__min__energy>  (34) 
-7.8099999999999996

>  <m_primary>  (34) 
energy

$$$$
34:0
     RDKit          3D

 32 34  0  0  0  0  0  0  0  0999 V2000
   -5.3220   18.1890  -34.3170 C   0  0  0  0  0  0  0  0  0  0  0  0
   -6.0110   19.2040  -33.4430 C   0  0  0  0  0  0  0  0  0  0  0  0
   -5.5600   20.5350  -33.4500 C   0  0  0  0  0  0  0  0  0  0  0  0
   -6.1670   21.4970  -32.6410 C   0  0  0  0  0  0  0  0  0  0  0  0
   -7.2540   21.1480  -31.8270 C   0  0  0  0  0  0  0  0  0  0  0  0
   -7.7030   19.8200  -31.8000 C   0  0  0  0  0  0  0  0  0  0  0  0
   -7.0830   18.8390  -32.5940 C   0  0  0  0  0  0  0  0  0  0  0  0
   -7.5950   17.4230  -32.5480 C   0  0  0  0  0  0  0  0  0  0  0  0
   -7.9050   22.2060  -31.0320 C   0  0  0  0  0  0  0  0  0  0  0  0
   -8.7990   21.9220  -30.1890 O   0  0  0  0  0  0  0  0  0  0  0  0
   -7.5500   23.6430  -31.2850 C   0  0  0  0  0  0  0  0  0  0  0  0
   -6.0660   23.7910  -31.6720 C   0  0  1  0  0  0  0  0  0  0  0  0
   -5.1750   23.7220  -30.4600 C   0  0  0  0  0  0  0  0  0  0  0  0
   -5.2520   22.8100  -29.4110 C   0  0  0  0  0  0  0  0  0  0  0  0
   -4.3240   23.0570  -28.3930 C   0  0  0  0  0  0  0  0  0  0  0  0
   -3.5240   24.1680  -28.6230 C   0  0  0  0  0  0  0  0  0  0  0  0
   -3.9750   24.8440  -30.0950 S   0  0  0  0  0  0  0  0  0  0  0  0
   -5.6790   22.8110  -32.6440 O   0  0  0  0  0  0  0  0  0  0  0  0
   -4.8163   17.4440  -33.6851 H   0  0  0  0  0  0  0  0  0  0  0  0
   -6.0664   17.6864  -34.9521 H   0  0  0  0  0  0  0  0  0  0  0  0
   -4.5802   18.6953  -34.9521 H   0  0  0  0  0  0  0  0  0  0  0  0
   -4.7200   20.8217  -34.0997 H   0  0  0  0  0  0  0  0  0  0  0  0
   -8.5477   19.5431  -31.1520 H   0  0  0  0  0  0  0  0  0  0  0  0
   -7.7089   17.1081  -31.5002 H   0  0  0  0  0  0  0  0  0  0  0  0
   -8.5696   17.3689  -33.0551 H   0  0  0  0  0  0  0  0  0  0  0  0
   -6.8804   16.7580  -33.0551 H   0  0  0  0  0  0  0  0  0  0  0  0
   -8.1746   24.0278  -32.1046 H   0  0  0  0  0  0  0  0  0  0  0  0
   -7.7274   24.2132  -30.3612 H   0  0  0  0  0  0  0  0  0  0  0  0
   -5.9438   24.7850  -32.1271 H   0  0  0  0  0  0  0  0  0  0  0  0
   -5.9709   21.9778  -29.3849 H   0  0  0  0  0  0  0  0  0  0  0  0
   -4.2366   22.4291  -27.4940 H   0  0  0  0  0  0  0  0  0  0  0  0
   -2.7320   24.5415  -27.9573 H   0  0  0  0  0  0  0  0  0  0  0  0
  1  2  1  0
  2  3  2  0
  3  4  1  0
  4  5  2  0
  5  6  1  0
  6  7  2  0
  7  8  1  0
  5  9  1  0
  9 10  2  0
  9 11  1  0
 11 12  1  0
 12 13  1  0
 13 14  2  0
 14 15  1  0
 15 16  2  0
 16 17  1  0
 12 18  1  0
  7  2  1  0
 17 13  1  0
 18  4  1  0
  1 19  1  0
  1 20  1  0
  1 21  1  0
  3 22  1  0
  6 23  1  0
  8 24  1  0
  8 25  1  0
  8 26  1  0
 11 27  1  0
 11 28  1  0
 12 29  1  6
 14 30  1  0
 15 31  1  0
 16 32  1  0
M  END
>  <UniqueID>  (35) 
33

>  <SMILES>  (35) 
Cc1cc2c(cc1C)C(=O)C[C@@H](c1cccs1)O2

>  <Energy>  (35) 
60.86650377966975

>  <Genealogy>  (35) 
Cc1cc2c(cc1C)C(=O)C[C@@H](c1cccs1)O2 (chirality)
Cc1cc2c(cc1C)C(=O)C[C@@H](c1cccs1)O2 (3D coordinates assigned)
Cc1cc2c(cc1C)C(=O)C[C@@H](c1cccs1)O2 (nonaromatic ring conformer: 60.86650377966975 kcal/mol)

>  <smiles>  (35) 
Cc1cc2c(cc1C)C(=O)CC(c1cccs1)O2

>  <score_type>  (35) 
oracle

>  <origin>  (35) 
adg

>  <m_score__min__energy>  (35) 
-7.1399999999999997

>  <m_primary>  (35) 
energy

$$$$
35:0
     RDKit          3D

 49 50  0  0  0  0  0  0  0  0999 V2000
   -3.1070   19.7220  -27.3220 C   0  0  0  0  0  0  0  0  0  0  0  0
   -2.2830   21.0070  -27.4550 C   0  0  0  0  0  0  0  0  0  0  0  0
   -2.7500   21.8790  -28.5680 N   0  0  1  0  0  0  0  0  0  0  0  0
   -2.8920   23.2860  -28.0930 C   0  0  0  0  0  0  0  0  0  0  0  0
   -4.2570   23.9220  -28.4310 C   0  0  0  0  0  0  0  0  0  0  0  0
   -4.2670   24.5010  -29.7800 C   0  0  0  0  0  0  0  0  0  0  0  0
   -4.2730   24.9570  -30.8440 N   0  0  0  0  0  0  0  0  0  0  0  0
   -1.8080   21.8140  -29.7310 C   0  0  0  0  0  0  0  0  0  0  0  0
   -2.5390   21.7510  -31.0940 C   0  0  0  0  0  0  0  0  0  0  0  0
   -3.9910   21.9420  -30.9490 N   0  0  0  0  0  0  0  0  0  0  0  0
   -4.7520   20.8710  -31.6060 C   0  0  0  0  0  0  0  0  0  0  0  0
   -6.2210   21.2270  -31.6570 C   0  0  0  0  0  0  0  0  0  0  0  0
   -6.6390   22.4150  -31.0310 C   0  0  0  0  0  0  0  0  0  0  0  0
   -7.9870   22.7760  -31.0210 C   0  0  0  0  0  0  0  0  0  0  0  0
   -8.9370   21.9590  -31.6330 C   0  0  0  0  0  0  0  0  0  0  0  0
   -8.5390   20.7790  -32.2670 C   0  0  0  0  0  0  0  0  0  0  0  0
   -7.1860   20.4070  -32.2990 C   0  0  0  0  0  0  0  0  0  0  0  0
   -6.8180   19.1550  -32.9930 C   0  0  0  0  0  0  0  0  0  0  0  0
   -6.0750   19.2020  -34.1820 C   0  0  0  0  0  0  0  0  0  0  0  0
   -5.7290   18.0200  -34.8440 C   0  0  0  0  0  0  0  0  0  0  0  0
   -6.1180   16.7840  -34.3170 C   0  0  0  0  0  0  0  0  0  0  0  0
   -6.8470   16.7300  -33.1260 C   0  0  0  0  0  0  0  0  0  0  0  0
   -7.1940   17.9100  -32.4620 C   0  0  0  0  0  0  0  0  0  0  0  0
   -3.2556   19.4903  -26.2570 H   0  0  0  0  0  0  0  0  0  0  0  0
   -4.0845   19.8614  -27.8068 H   0  0  0  0  0  0  0  0  0  0  0  0
   -2.5724   18.8918  -27.8068 H   0  0  0  0  0  0  0  0  0  0  0  0
   -2.3557   21.5703  -26.5129 H   0  0  0  0  0  0  0  0  0  0  0  0
   -1.2460   20.7142  -27.6762 H   0  0  0  0  0  0  0  0  0  0  0  0
   -3.6950   21.5420  -28.8610 H   0  0  0  0  0  0  0  0  0  0  0  0
   -2.7647   23.2979  -27.0005 H   0  0  0  0  0  0  0  0  0  0  0  0
   -2.1246   23.8788  -28.6123 H   0  0  0  0  0  0  0  0  0  0  0  0
   -5.0360   23.1478  -28.3696 H   0  0  0  0  0  0  0  0  0  0  0  0
   -4.4468   24.7303  -27.7095 H   0  0  0  0  0  0  0  0  0  0  0  0
   -1.1693   22.7095  -29.7161 H   0  0  0  0  0  0  0  0  0  0  0  0
   -1.2195   20.8904  -29.6285 H   0  0  0  0  0  0  0  0  0  0  0  0
   -2.1403   22.5406  -31.7479 H   0  0  0  0  0  0  0  0  0  0  0  0
   -2.3684   20.7538  -31.5258 H   0  0  0  0  0  0  0  0  0  0  0  0
   -4.2270   22.8470  -31.4190 H   0  0  0  0  0  0  0  0  0  0  0  0
   -4.3758   20.7344  -32.6306 H   0  0  0  0  0  0  0  0  0  0  0  0
   -4.6288   19.9405  -31.0325 H   0  0  0  0  0  0  0  0  0  0  0  0
   -5.8969   23.0654  -30.5450 H   0  0  0  0  0  0  0  0  0  0  0  0
   -8.3012   23.7082  -30.5287 H   0  0  0  0  0  0  0  0  0  0  0  0
   -9.9995   22.2433  -31.6167 H   0  0  0  0  0  0  0  0  0  0  0  0
   -9.2927   20.1361  -32.7452 H   0  0  0  0  0  0  0  0  0  0  0  0
   -5.7633   20.1726  -34.5952 H   0  0  0  0  0  0  0  0  0  0  0  0
   -5.1510   18.0621  -35.7790 H   0  0  0  0  0  0  0  0  0  0  0  0
   -5.8500   15.8543  -34.8402 H   0  0  0  0  0  0  0  0  0  0  0  0
   -7.1483   15.7571  -32.7103 H   0  0  0  0  0  0  0  0  0  0  0  0
   -7.7628   17.8636  -31.5216 H   0  0  0  0  0  0  0  0  0  0  0  0
  1  2  1  0
  2  3  1  0
  3  4  1  0
  4  5  1  0
  5  6  1  0
  6  7  3  0
  3  8  1  0
  8  9  1  0
  9 10  1  0
 10 11  1  0
 11 12  1  0
 12 13  2  0
 13 14  1  0
 14 15  2  0
 15 16  1  0
 16 17  2  0
 17 18  1  0
 18 19  2  0
 19 20  1  0
 20 21  2  0
 21 22  1  0
 22 23  2  0
 17 12  1  0
 23 18  1  0
  1 24  1  0
  1 25  1  0
  1 26  1  0
  2 27  1  0
  2 28  1  0
  3 29  1  6
  4 30  1  0
  4 31  1  0
  5 32  1  0
  5 33  1  0
  8 34  1  0
  8 35  1  0
  9 36  1  0
  9 37  1  0
 10 38  1  0
 11 39  1  0
 11 40  1  0
 13 41  1  0
 14 42  1  0
 15 43  1  0
 16 44  1  0
 19 45  1  0
 20 46  1  0
 21 47  1  0
 22 48  1  0
 23 49  1  0
M  CHG  1   3   1
M  END
>  <UniqueID>  (36) 
34

>  <SMILES>  (36) 
CC[N@@H+](CCC#N)CCNCc1ccccc1-c1ccccc1

>  <Energy>  (36) 
59.96536621968564

>  <Genealogy>  (36) 
CC[NH+](CCC#N)CCNCc1ccccc1-c1ccccc1 (protonated)
CC[N@@H+](CCC#N)CCNCc1ccccc1-c1ccccc1 (chirality)
CC[N@@H+](CCC#N)CCNCc1ccccc1-c1ccccc1 (3D coordinates assigned)
CC[N@@H+](CCC#N)CCNCc1ccccc1-c1ccccc1 (optimized conformer: 59.96536621968564 kcal/mol)

>  <smiles>  (36) 
CCN(CCC#N)CCNCc1ccccc1-c1ccccc1

>  <score_type>  (36) 
oracle

>  <origin>  (36) 
adg

>  <m_score__min__energy>  (36) 
-6.7599999999999998

>  <m_primary>  (36) 
energy

$$$$
36:0
     RDKit          3D

 43 46  0  0  0  0  0  0  0  0999 V2000
   -9.5120   20.8460  -31.9740 C   0  0  0  0  0  0  0  0  0  0  0  0
   -8.8100   19.8940  -32.7180 C   0  0  0  0  0  0  0  0  0  0  0  0
   -7.4720   20.0300  -32.9150 N   0  0  0  0  0  0  0  0  0  0  0  0
   -6.7780   21.0840  -32.4040 C   0  0  0  0  0  0  0  0  0  0  0  0
   -5.4050   21.2010  -32.6390 C   0  0  0  0  0  0  0  0  0  0  0  0
   -4.6960   22.2870  -32.1170 C   0  0  0  0  0  0  0  0  0  0  0  0
   -5.3440   23.2580  -31.3440 C   0  0  0  0  0  0  0  0  0  0  0  0
   -4.5930   24.3380  -30.8580 O   0  0  0  0  0  0  0  0  0  0  0  0
   -3.8890   24.3660  -29.6450 C   0  0  0  0  0  0  0  0  0  0  0  0
   -2.5020   24.1830  -29.6700 C   0  0  0  0  0  0  0  0  0  0  0  0
   -1.7640   24.1870  -28.4830 C   0  0  0  0  0  0  0  0  0  0  0  0
   -2.4100   24.3700  -27.2500 C   0  0  0  0  0  0  0  0  0  0  0  0
   -1.6140   24.3420  -25.9710 C   0  0  0  0  0  0  0  0  0  0  0  0
   -1.7180   25.6350  -25.2680 N   0  0  0  0  0  0  0  0  0  0  0  0
   -1.3000   26.7640  -26.1040 C   0  0  0  0  0  0  0  0  0  0  0  0
   -0.8680   27.8570  -25.1490 C   0  0  0  0  0  0  0  0  0  0  0  0
   -0.3670   27.1160  -23.9210 C   0  0  0  0  0  0  0  0  0  0  0  0
   -0.8530   25.6790  -24.0820 C   0  0  0  0  0  0  0  0  0  0  0  0
   -3.8020   24.5320  -27.2190 C   0  0  0  0  0  0  0  0  0  0  0  0
   -4.5400   24.5240  -28.4080 C   0  0  0  0  0  0  0  0  0  0  0  0
   -6.7310   23.1560  -31.1240 C   0  0  0  0  0  0  0  0  0  0  0  0
   -7.4480   22.0680  -31.6440 C   0  0  0  0  0  0  0  0  0  0  0  0
   -8.8280   21.9380  -31.4350 C   0  0  0  0  0  0  0  0  0  0  0  0
  -10.5948   20.7363  -31.8141 H   0  0  0  0  0  0  0  0  0  0  0  0
   -9.3421   19.0315  -33.1457 H   0  0  0  0  0  0  0  0  0  0  0  0
   -4.8822   20.4383  -33.2349 H   0  0  0  0  0  0  0  0  0  0  0  0
   -3.6180   22.3795  -32.3156 H   0  0  0  0  0  0  0  0  0  0  0  0
   -1.9884   24.0348  -30.6314 H   0  0  0  0  0  0  0  0  0  0  0  0
   -0.6735   24.0463  -28.5150 H   0  0  0  0  0  0  0  0  0  0  0  0
   -2.0022   23.5443  -25.3206 H   0  0  0  0  0  0  0  0  0  0  0  0
   -0.5578   24.1536  -26.2139 H   0  0  0  0  0  0  0  0  0  0  0  0
   -0.4610   26.4694  -26.7516 H   0  0  0  0  0  0  0  0  0  0  0  0
   -2.1162   27.1025  -26.7592 H   0  0  0  0  0  0  0  0  0  0  0  0
   -0.0642   28.4639  -25.5913 H   0  0  0  0  0  0  0  0  0  0  0  0
   -1.6871   28.5520  -24.9119 H   0  0  0  0  0  0  0  0  0  0  0  0
    0.7316   27.1469  -23.8756 H   0  0  0  0  0  0  0  0  0  0  0  0
   -0.7404   27.5701  -22.9913 H   0  0  0  0  0  0  0  0  0  0  0  0
    0.0058   25.0053  -24.2185 H   0  0  0  0  0  0  0  0  0  0  0  0
   -1.4054   25.3547  -23.1877 H   0  0  0  0  0  0  0  0  0  0  0  0
   -4.3165   24.6660  -26.2560 H   0  0  0  0  0  0  0  0  0  0  0  0
   -5.6332   24.6417  -28.3752 H   0  0  0  0  0  0  0  0  0  0  0  0
   -7.2533   23.9307  -30.5434 H   0  0  0  0  0  0  0  0  0  0  0  0
   -9.3706   22.6938  -30.8482 H   0  0  0  0  0  0  0  0  0  0  0  0
  1  2  2  0
  2  3  1  0
  3  4  2  0
  4  5  1  0
  5  6  2  0
  6  7  1  0
  7  8  1  0
  8  9  1  0
  9 10  2  0
 10 11  1  0
 11 12  2  0
 12 13  1  0
 13 14  1  0
 14 15  1  0
 15 16  1  0
 16 17  1  0
 17 18  1  0
 12 19  1  0
 19 20  2  0
  7 21  2  0
 21 22  1  0
 22 23  2  0
 23  1  1  0
 22  4  1  0
 20  9  1  0
 18 14  1  0
  1 24  1  0
  2 25  1  0
  5 26  1  0
  6 27  1  0
 10 28  1  0
 11 29  1  0
 13 30  1  0
 13 31  1  0
 15 32  1  0
 15 33  1  0
 16 34  1  0
 16 35  1  0
 17 36  1  0
 17 37  1  0
 18 38  1  0
 18 39  1  0
 19 40  1  0
 20 41  1  0
 21 42  1  0
 23 43  1  0
M  END
>  <UniqueID>  (37) 
35

>  <SMILES>  (37) 
c1cnc2ccc(Oc3ccc(CN4CCCC4)cc3)cc2c1

>  <Energy>  (37) 
57.68888342893784

>  <Genealogy>  (37) 
c1cnc2ccc(Oc3ccc(CN4CCCC4)cc3)cc2c1 (3D coordinates assigned)
c1cnc2ccc(Oc3ccc(CN4CCCC4)cc3)cc2c1 (nonaromatic ring conformer: 57.68888342893784 kcal/mol)

>  <smiles>  (37) 
c1cnc2ccc(Oc3ccc(CN4CCCC4)cc3)cc2c1

>  <score_type>  (37) 
oracle

>  <origin>  (37) 
adg

>  <m_score__min__energy>  (37) 
-8.9199999999999999

>  <m_primary>  (37) 
energy

$$$$
37:0
     RDKit          3D

 39 41  0  0  0  0  0  0  0  0999 V2000
   -5.1920   25.6350  -30.4600 C   0  0  0  0  0  0  0  0  0  0  0  0
   -3.8380   25.2010  -30.5070 O   0  0  0  0  0  0  0  0  0  0  0  0
   -3.2250   24.3980  -29.5310 C   0  0  0  0  0  0  0  0  0  0  0  0
   -2.3830   24.9400  -28.5390 C   0  0  0  0  0  0  0  0  0  0  0  0
   -1.8050   24.1100  -27.5730 C   0  0  0  0  0  0  0  0  0  0  0  0
   -2.0590   22.7390  -27.5850 C   0  0  0  0  0  0  0  0  0  0  0  0
   -2.8890   22.1900  -28.5650 C   0  0  0  0  0  0  0  0  0  0  0  0
   -3.4690   23.0120  -29.5430 C   0  0  0  0  0  0  0  0  0  0  0  0
   -4.3180   22.4300  -30.5470 N   0  0  0  0  0  0  0  0  0  0  0  0
   -5.7430   22.4520  -30.3930 C   0  0  0  0  0  0  0  0  0  0  0  0
   -6.2730   22.9710  -29.3740 O   0  0  0  0  0  0  0  0  0  0  0  0
   -6.6060   21.9240  -31.4950 C   0  0  0  0  0  0  0  0  0  0  0  0
   -5.9720   20.7540  -32.1410 N   0  0  1  0  0  0  0  0  0  0  0  0
   -6.8920   20.2120  -33.1790 C   0  0  0  0  0  0  0  0  0  0  0  0
   -6.1910   19.3140  -34.2200 C   0  0  0  0  0  0  0  0  0  0  0  0
   -4.9080   18.7090  -33.6630 C   0  0  0  0  0  0  0  0  0  0  0  0
   -3.9270   19.8060  -33.2220 C   0  0  0  0  0  0  0  0  0  0  0  0
   -4.6410   21.0910  -32.7150 C   0  0  2  0  0  0  0  0  0  0  0  0
   -3.7540   21.8140  -31.7170 C   0  0  0  0  0  0  0  0  0  0  0  0
   -2.5160   21.9120  -31.9450 O   0  0  0  0  0  0  0  0  0  0  0  0
   -5.5083   25.7364  -29.4114 H   0  0  0  0  0  0  0  0  0  0  0  0
   -5.2831   26.6074  -30.9661 H   0  0  0  0  0  0  0  0  0  0  0  0
   -5.8314   24.8968  -30.9661 H   0  0  0  0  0  0  0  0  0  0  0  0
   -2.1795   26.0209  -28.5245 H   0  0  0  0  0  0  0  0  0  0  0  0
   -1.1485   24.5397  -26.8020 H   0  0  0  0  0  0  0  0  0  0  0  0
   -1.6053   22.0893  -26.8220 H   0  0  0  0  0  0  0  0  0  0  0  0
   -3.0889   21.1083  -28.5701 H   0  0  0  0  0  0  0  0  0  0  0  0
   -7.5791   21.6236  -31.0792 H   0  0  0  0  0  0  0  0  0  0  0  0
   -6.7403   22.7142  -32.2484 H   0  0  0  0  0  0  0  0  0  0  0  0
   -5.8440   20.0170  -31.4040 H   0  0  0  0  0  0  0  0  0  0  0  0
   -7.6712   19.6194  -32.6774 H   0  0  0  0  0  0  0  0  0  0  0  0
   -7.3060   21.0734  -33.7237 H   0  0  0  0  0  0  0  0  0  0  0  0
   -6.8737   18.5010  -34.5081 H   0  0  0  0  0  0  0  0  0  0  0  0
   -5.9304   19.9339  -35.0905 H   0  0  0  0  0  0  0  0  0  0  0  0
   -5.1547   18.0778  -32.7965 H   0  0  0  0  0  0  0  0  0  0  0  0
   -4.4315   18.1104  -34.4533 H   0  0  0  0  0  0  0  0  0  0  0  0
   -3.2999   19.4097  -32.4098 H   0  0  0  0  0  0  0  0  0  0  0  0
   -3.3297   20.0867  -34.1020 H   0  0  0  0  0  0  0  0  0  0  0  0
   -4.8168   21.7716  -33.5611 H   0  0  0  0  0  0  0  0  0  0  0  0
  1  2  1  0
  2  3  1  0
  3  4  2  0
  4  5  1  0
  5  6  2  0
  6  7  1  0
  7  8  2  0
  8  9  1  0
  9 10  1  0
 10 11  2  0
 10 12  1  0
 12 13  1  0
 13 14  1  0
 14 15  1  0
 15 16  1  0
 16 17  1  0
 17 18  1  0
 18 19  1  0
 19 20  2  0
  8  3  1  0
 19  9  1  0
 18 13  1  0
  1 21  1  0
  1 22  1  0
  1 23  1  0
  4 24  1  0
  5 25  1  0
  6 26  1  0
  7 27  1  0
 12 28  1  0
 12 29  1  0
 13 30  1  1
 14 31  1  0
 14 32  1  0
 15 33  1  0
 15 34  1  0
 16 35  1  0
 16 36  1  0
 17 37  1  0
 17 38  1  0
 18 39  1  6
M  CHG  1  13   1
M  END
>  <UniqueID>  (38) 
36

>  <SMILES>  (38) 
COc1ccccc1N1C(=O)C[N@H+]2CCCC[C@@H]2C1=O

>  <Energy>  (38) 
55.346609210285735

>  <Genealogy>  (38) 
COc1ccccc1N1C(=O)C[NH+]2CCCCC2C1=O (protonated)
COc1ccccc1N1C(=O)C[N@H+]2CCCC[C@@H]2C1=O (chirality)
COc1ccccc1N1C(=O)C[N@H+]2CCCC[C@@H]2C1=O (3D coordinates assigned)
COc1ccccc1N1C(=O)C[N@H+]2CCCC[C@@H]2C1=O (nonaromatic ring conformer: 55.346609210285735 kcal/mol)

>  <smiles>  (38) 
COc1ccccc1N1C(=O)CN2CCCCC2C1=O

>  <score_type>  (38) 
oracle

>  <origin>  (38) 
adg

>  <m_score__min__energy>  (38) 
-6.4900000000000002

>  <m_primary>  (38) 
energy

$$$$
38:0
     RDKit          3D

 41 43  0  0  0  0  0  0  0  0999 V2000
   -6.4810   25.4510  -29.4670 C   0  0  0  0  0  0  0  0  0  0  0  0
   -4.9750   25.3010  -30.4780 S   0  0  0  0  0  0  0  0  0  0  0  0
   -5.4490   23.7120  -31.1590 C   0  0  0  0  0  0  0  0  0  0  0  0
   -6.4890   23.6110  -32.0840 C   0  0  0  0  0  0  0  0  0  0  0  0
   -6.8390   22.3950  -32.5760 N   0  0  0  0  0  0  0  0  0  0  0  0
   -6.1890   21.2610  -32.1910 C   0  0  0  0  0  0  0  0  0  0  0  0
   -6.6150   19.9770  -32.6880 N   0  0  0  0  0  0  0  0  0  0  0  0
   -6.6640   19.6810  -34.1220 C   0  0  0  0  0  0  0  0  0  0  0  0
   -5.7480   18.4910  -34.4440 C   0  0  0  0  0  0  0  0  0  0  0  0
   -5.6540   17.5060  -33.3400 N   0  0  0  0  0  0  0  0  0  0  0  0
   -4.3000   17.3060  -32.7740 C   0  0  0  0  0  0  0  0  0  0  0  0
   -3.3120   18.3860  -33.1530 C   0  0  0  0  0  0  0  0  0  0  0  0
   -2.1740   18.0820  -33.9190 C   0  0  0  0  0  0  0  0  0  0  0  0
   -1.2810   19.0990  -34.2590 C   0  0  0  0  0  0  0  0  0  0  0  0
   -1.5150   20.4020  -33.8260 C   0  0  0  0  0  0  0  0  0  0  0  0
   -2.6410   20.6700  -33.0470 C   0  0  0  0  0  0  0  0  0  0  0  0
   -3.5040   19.6690  -32.7210 N   0  0  0  0  0  0  0  0  0  0  0  0
   -6.7680   17.5190  -32.3660 C   0  0  0  0  0  0  0  0  0  0  0  0
   -7.0150   18.9140  -31.7600 C   0  0  0  0  0  0  0  0  0  0  0  0
   -5.1660   21.3510  -31.2960 N   0  0  0  0  0  0  0  0  0  0  0  0
   -4.7840   22.5470  -30.7790 C   0  0  0  0  0  0  0  0  0  0  0  0
   -6.2112   25.4241  -28.4010 H   0  0  0  0  0  0  0  0  0  0  0  0
   -6.9820   26.4035  -29.6945 H   0  0  0  0  0  0  0  0  0  0  0  0
   -7.1600   24.6160  -29.6945 H   0  0  0  0  0  0  0  0  0  0  0  0
   -7.0237   24.5141  -32.4136 H   0  0  0  0  0  0  0  0  0  0  0  0
   -7.6970   19.4334  -34.4078 H   0  0  0  0  0  0  0  0  0  0  0  0
   -6.3224   20.5624  -34.6846 H   0  0  0  0  0  0  0  0  0  0  0  0
   -6.1406   17.9797  -35.3353 H   0  0  0  0  0  0  0  0  0  0  0  0
   -4.7374   18.8935  -34.6076 H   0  0  0  0  0  0  0  0  0  0  0  0
   -4.3831   17.2819  -31.6774 H   0  0  0  0  0  0  0  0  0  0  0  0
   -3.9165   16.3623  -33.1892 H   0  0  0  0  0  0  0  0  0  0  0  0
   -1.9882   17.0491  -34.2485 H   0  0  0  0  0  0  0  0  0  0  0  0
   -0.3936   18.8720  -34.8681 H   0  0  0  0  0  0  0  0  0  0  0  0
   -0.8197   21.2108  -34.0952 H   0  0  0  0  0  0  0  0  0  0  0  0
   -2.8322   21.6944  -32.6948 H   0  0  0  0  0  0  0  0  0  0  0  0
   -4.3370   19.9030  -32.1360 H   0  0  0  0  0  0  0  0  0  0  0  0
   -7.6852   17.1902  -32.8766 H   0  0  0  0  0  0  0  0  0  0  0  0
   -6.4953   16.8434  -31.5418 H   0  0  0  0  0  0  0  0  0  0  0  0
   -8.0859   19.0213  -31.5325 H   0  0  0  0  0  0  0  0  0  0  0  0
   -6.4114   19.0068  -30.8451 H   0  0  0  0  0  0  0  0  0  0  0  0
   -3.9515   22.5967  -30.0617 H   0  0  0  0  0  0  0  0  0  0  0  0
  1  2  1  0
  2  3  1  0
  3  4  2  0
  4  5  1  0
  5  6  2  0
  6  7  1  0
  7  8  1  0
  8  9  1  0
  9 10  1  0
 10 11  1  0
 11 12  1  0
 12 13  2  0
 13 14  1  0
 14 15  2  0
 15 16  1  0
 16 17  2  0
 10 18  1  0
 18 19  1  0
  6 20  1  0
 20 21  2  0
 21  3  1  0
 19  7  1  0
 17 12  1  0
  1 22  1  0
  1 23  1  0
  1 24  1  0
  4 25  1  0
  8 26  1  0
  8 27  1  0
  9 28  1  0
  9 29  1  0
 11 30  1  0
 11 31  1  0
 13 32  1  0
 14 33  1  0
 15 34  1  0
 16 35  1  0
 17 36  1  0
 18 37  1  0
 18 38  1  0
 19 39  1  0
 19 40  1  0
 21 41  1  0
M  CHG  1  17   1
M  END
>  <UniqueID>  (39) 
37

>  <SMILES>  (39) 
CSc1cnc(N2CCN(Cc3cccc[nH+]3)CC2)nc1

>  <Energy>  (39) 
48.77538549385393

>  <Genealogy>  (39) 
CSc1cnc(N2CCN(Cc3cccc[nH+]3)CC2)nc1 (protonated)
CSc1cnc(N2CCN(Cc3cccc[nH+]3)CC2)nc1 (3D coordinates assigned)
CSc1cnc(N2CCN(Cc3cccc[nH+]3)CC2)nc1 (nonaromatic ring conformer: 48.77538549385393 kcal/mol)

>  <smiles>  (39) 
CSc1cnc(N2CCN(Cc3ccccn3)CC2)nc1

>  <score_type>  (39) 
oracle

>  <origin>  (39) 
adg

>  <m_score__min__energy>  (39) 
-5.54

>  <m_primary>  (39) 
energy

$$$$
39:0
     RDKit          3D

 52 54  0  0  0  0  0  0  0  0999 V2000
   -2.6230   20.9500  -33.5730 O   0  0  0  0  0  0  0  0  0  0  0  0
   -2.5960   20.4160  -32.1690 S   0  0  0  0  0  0  0  0  0  0  0  0
   -3.9100   19.7360  -31.9110 O   0  0  0  0  0  0  0  0  0  0  0  0
   -1.3120   19.2540  -32.0460 N   0  0  0  0  0  0  0  0  0  0  0  0
   -0.8770   18.8400  -33.3760 C   0  0  0  0  0  0  0  0  0  0  0  0
   -1.8100   17.7560  -33.9580 C   0  0  0  0  0  0  0  0  0  0  0  0
   -3.2370   17.8430  -33.5400 N   0  0  1  0  0  0  0  0  0  0  0  0
   -4.0920   18.5490  -34.5420 C   0  0  0  0  0  0  0  0  0  0  0  0
   -5.4040   17.8180  -34.8820 C   0  0  0  0  0  0  0  0  0  0  0  0
   -6.1740   17.2900  -33.6340 C   0  0  2  0  0  0  0  0  0  0  0  0
   -7.0260   16.2470  -34.0570 O   0  0  0  0  0  0  0  0  0  0  0  0
   -7.0400   18.4270  -33.0610 C   0  0  0  0  0  0  0  0  0  0  0  0
   -8.1320   18.1580  -32.2050 C   0  0  0  0  0  0  0  0  0  0  0  0
   -8.8820   19.1990  -31.6510 C   0  0  0  0  0  0  0  0  0  0  0  0
   -8.5510   20.5260  -31.9230 C   0  0  0  0  0  0  0  0  0  0  0  0
   -9.4930   21.8290  -31.2230 Cl  0  0  0  0  0  0  0  0  0  0  0  0
   -7.4600   20.8150  -32.7430 C   0  0  0  0  0  0  0  0  0  0  0  0
   -6.7040   19.7790  -33.3000 C   0  0  0  0  0  0  0  0  0  0  0  0
   -5.2060   16.7100  -32.5470 C   0  0  0  0  0  0  0  0  0  0  0  0
   -3.7790   16.5440  -33.0820 C   0  0  0  0  0  0  0  0  0  0  0  0
   -2.2600   21.7720  -31.0670 C   0  0  0  0  0  0  0  0  0  0  0  0
   -0.9840   21.7760  -30.4790 C   0  0  0  0  0  0  0  0  0  0  0  0
   -0.6160   22.7590  -29.5640 C   0  0  0  0  0  0  0  0  0  0  0  0
   -1.5150   23.7620  -29.2220 C   0  0  0  0  0  0  0  0  0  0  0  0
   -2.7860   23.7880  -29.7950 C   0  0  0  0  0  0  0  0  0  0  0  0
   -3.1900   22.7990  -30.7210 C   0  0  0  0  0  0  0  0  0  0  0  0
   -4.5790   22.8910  -31.3250 C   0  0  0  0  0  0  0  0  0  0  0  0
   -5.4190   21.9670  -30.7340 F   0  0  0  0  0  0  0  0  0  0  0  0
   -4.5100   22.6640  -32.6870 F   0  0  0  0  0  0  0  0  0  0  0  0
   -5.1430   24.1420  -31.1360 F   0  0  0  0  0  0  0  0  0  0  0  0
   -0.8830   19.7143  -34.0435 H   0  0  0  0  0  0  0  0  0  0  0  0
    0.1363   18.4197  -33.2952 H   0  0  0  0  0  0  0  0  0  0  0  0
   -1.7734   17.8314  -35.0548 H   0  0  0  0  0  0  0  0  0  0  0  0
   -1.4394   16.7976  -33.5654 H   0  0  0  0  0  0  0  0  0  0  0  0
   -3.2250   18.4570  -32.6890 H   0  0  0  0  0  0  0  0  0  0  0  0
   -3.5118   18.6649  -35.4693 H   0  0  0  0  0  0  0  0  0  0  0  0
   -4.3752   19.5120  -34.0920 H   0  0  0  0  0  0  0  0  0  0  0  0
   -5.1655   16.9616  -35.5298 H   0  0  0  0  0  0  0  0  0  0  0  0
   -6.0594   18.5508  -35.3753 H   0  0  0  0  0  0  0  0  0  0  0  0
   -7.0350   16.2310  -35.0520 H   0  0  0  0  0  0  0  0  0  0  0  0
   -8.3950   17.1157  -31.9718 H   0  0  0  0  0  0  0  0  0  0  0  0
   -9.7370   18.9706  -30.9977 H   0  0  0  0  0  0  0  0  0  0  0  0
   -7.1936   21.8616  -32.9521 H   0  0  0  0  0  0  0  0  0  0  0  0
   -5.8366   20.0192  -33.9323 H   0  0  0  0  0  0  0  0  0  0  0  0
   -5.5813   15.7276  -32.2244 H   0  0  0  0  0  0  0  0  0  0  0  0
   -5.1744   17.4183  -31.7060 H   0  0  0  0  0  0  0  0  0  0  0  0
   -3.7898   15.8394  -33.9266 H   0  0  0  0  0  0  0  0  0  0  0  0
   -3.1405   16.1602  -32.2726 H   0  0  0  0  0  0  0  0  0  0  0  0
   -0.2633   20.9891  -30.7460 H   0  0  0  0  0  0  0  0  0  0  0  0
    0.3866   22.7416  -29.1118 H   0  0  0  0  0  0  0  0  0  0  0  0
   -1.2234   24.5370  -28.4978 H   0  0  0  0  0  0  0  0  0  0  0  0
   -3.4860   24.5914  -29.5220 H   0  0  0  0  0  0  0  0  0  0  0  0
  1  2  2  0
  2  3  2  0
  2  4  1  0
  4  5  1  0
  5  6  1  0
  6  7  1  0
  7  8  1  0
  8  9  1  0
  9 10  1  0
 10 11  1  6
 10 12  1  0
 12 13  2  0
 13 14  1  0
 14 15  2  0
 15 16  1  0
 15 17  1  0
 17 18  2  0
 10 19  1  0
 19 20  1  0
  2 21  1  0
 21 22  2  0
 22 23  1  0
 23 24  2  0
 24 25  1  0
 25 26  2  0
 26 27  1  0
 27 28  1  0
 27 29  1  0
 27 30  1  0
 20  7  1  0
 26 21  1  0
 18 12  1  0
  5 31  1  0
  5 32  1  0
  6 33  1  0
  6 34  1  0
  7 35  1  1
  8 36  1  0
  8 37  1  0
  9 38  1  0
  9 39  1  0
 11 40  1  0
 13 41  1  0
 14 42  1  0
 17 43  1  0
 18 44  1  0
 19 45  1  0
 19 46  1  0
 20 47  1  0
 20 48  1  0
 22 49  1  0
 23 50  1  0
 24 51  1  0
 25 52  1  0
M  CHG  2   4  -1   7   1
M  END
>  <UniqueID>  (40) 
38

>  <SMILES>  (40) 
O=S(=O)([N-]CC[NH+]1CCC(O)(c2ccc(Cl)cc2)CC1)c1ccccc1C(F)(F)F

>  <Energy>  (40) 
76.46353549451845

>  <Genealogy>  (40) 
O=S(=O)([N-]CC[NH+]1CCC(O)(c2ccc(Cl)cc2)CC1)c1ccccc1C(F)(F)F (protonated)
O=S(=O)([N-]CC[NH+]1CCC(O)(c2ccc(Cl)cc2)CC1)c1ccccc1C(F)(F)F (3D coordinates assigned)
O=S(=O)([N-]CC[NH+]1CCC(O)(c2ccc(Cl)cc2)CC1)c1ccccc1C(F)(F)F (nonaromatic ring conformer: 76.46353549451845 kcal/mol)

>  <smiles>  (40) 
O=S(=O)(NCCN1CCC(O)(c2ccc(Cl)cc2)CC1)c1ccccc1C(F)(F)F

>  <score_type>  (40) 
oracle

>  <origin>  (40) 
adg

>  <m_score__min__energy>  (40) 
-8.1500000000000004

>  <m_primary>  (40) 
energy

$$$$
40:0
     RDKit          3D

 45 47  0  0  0  0  0  0  0  0999 V2000
   -3.7820   18.0980  -34.1250 C   0  0  0  0  0  0  0  0  0  0  0  0
   -5.1460   17.9880  -33.5040 C   0  0  0  0  0  0  0  0  0  0  0  0
   -5.9520   16.8710  -33.7880 C   0  0  0  0  0  0  0  0  0  0  0  0
   -7.2240   16.7540  -33.2210 C   0  0  0  0  0  0  0  0  0  0  0  0
   -7.7070   17.7510  -32.3730 C   0  0  0  0  0  0  0  0  0  0  0  0
   -6.9230   18.8720  -32.0940 C   0  0  0  0  0  0  0  0  0  0  0  0
   -5.6470   19.0030  -32.6590 C   0  0  0  0  0  0  0  0  0  0  0  0
   -4.8670   20.1740  -32.3750 N   0  0  0  0  0  0  0  0  0  0  0  0
   -4.0750   20.2440  -31.1470 C   0  0  0  0  0  0  0  0  0  0  0  0
   -4.1450   21.6620  -30.5530 C   0  0  0  0  0  0  0  0  0  0  0  0
   -4.0630   22.7550  -31.5630 N   0  0  0  0  0  0  0  0  0  0  0  0
   -5.2510   23.6370  -31.5430 C   0  0  0  0  0  0  0  0  0  0  0  0
   -4.9510   24.9310  -30.8290 C   0  0  0  0  0  0  0  0  0  0  0  0
   -5.8970   25.7270  -30.5940 O   0  0  0  0  0  0  0  0  0  0  0  0
   -3.6330   25.2690  -30.3740 N   0  0  0  0  0  0  0  0  0  0  0  0
   -2.9010   24.6180  -29.3280 C   0  0  0  0  0  0  0  0  0  0  0  0
   -1.4970   24.5650  -29.3370 C   0  0  0  0  0  0  0  0  0  0  0  0
   -0.8110   23.9230  -28.3030 C   0  0  0  0  0  0  0  0  0  0  0  0
   -1.5190   23.3460  -27.2430 C   0  0  0  0  0  0  0  0  0  0  0  0
   -0.5810   22.4690  -25.8310 Br  0  0  0  0  0  0  0  0  0  0  0  0
   -2.9160   23.4250  -27.2140 C   0  0  0  0  0  0  0  0  0  0  0  0
   -3.6030   24.0680  -28.2480 C   0  0  0  0  0  0  0  0  0  0  0  0
   -3.7410   22.2960  -32.9320 C   0  0  0  0  0  0  0  0  0  0  0  0
   -4.7060   21.2010  -33.4060 C   0  0  0  0  0  0  0  0  0  0  0  0
   -3.0220   18.1593  -33.3321 H   0  0  0  0  0  0  0  0  0  0  0  0
   -3.5906   17.2124  -34.7487 H   0  0  0  0  0  0  0  0  0  0  0  0
   -3.7350   19.0029  -34.7487 H   0  0  0  0  0  0  0  0  0  0  0  0
   -5.5789   16.0846  -34.4606 H   0  0  0  0  0  0  0  0  0  0  0  0
   -7.8455   15.8742  -33.4437 H   0  0  0  0  0  0  0  0  0  0  0  0
   -8.7064   17.6538  -31.9238 H   0  0  0  0  0  0  0  0  0  0  0  0
   -7.3089   19.6569  -31.4269 H   0  0  0  0  0  0  0  0  0  0  0  0
   -4.4717   19.5235  -30.4166 H   0  0  0  0  0  0  0  0  0  0  0  0
   -3.0274   20.0024  -31.3798 H   0  0  0  0  0  0  0  0  0  0  0  0
   -5.0981   21.7627  -30.0131 H   0  0  0  0  0  0  0  0  0  0  0  0
   -3.2685   21.7725  -29.8975 H   0  0  0  0  0  0  0  0  0  0  0  0
   -5.5522   23.8584  -32.5775 H   0  0  0  0  0  0  0  0  0  0  0  0
   -6.0618   23.1210  -31.0078 H   0  0  0  0  0  0  0  0  0  0  0  0
   -0.9361   25.0305  -30.1608 H   0  0  0  0  0  0  0  0  0  0  0  0
    0.2876   23.8711  -28.3222 H   0  0  0  0  0  0  0  0  0  0  0  0
   -3.4741   22.9807  -26.3767 H   0  0  0  0  0  0  0  0  0  0  0  0
   -4.6999   24.1423  -28.2132 H   0  0  0  0  0  0  0  0  0  0  0  0
   -3.8077   23.1519  -33.6197 H   0  0  0  0  0  0  0  0  0  0  0  0
   -2.7244   21.8760  -32.9223 H   0  0  0  0  0  0  0  0  0  0  0  0
   -5.6856   21.6518  -33.6232 H   0  0  0  0  0  0  0  0  0  0  0  0
   -4.2933   20.7325  -34.3116 H   0  0  0  0  0  0  0  0  0  0  0  0
  1  2  1  0
  2  3  2  0
  3  4  1  0
  4  5  2  0
  5  6  1  0
  6  7  2  0
  7  8  1  0
  8  9  1  0
  9 10  1  0
 10 11  1  0
 11 12  1  0
 12 13  1  0
 13 14  2  0
 13 15  1  0
 15 16  1  0
 16 17  2  0
 17 18  1  0
 18 19  2  0
 19 20  1  0
 19 21  1  0
 21 22  2  0
 11 23  1  0
 23 24  1  0
  7  2  1  0
 24  8  1  0
 22 16  1  0
  1 25  1  0
  1 26  1  0
  1 27  1  0
  3 28  1  0
  4 29  1  0
  5 30  1  0
  6 31  1  0
  9 32  1  0
  9 33  1  0
 10 34  1  0
 10 35  1  0
 12 36  1  0
 12 37  1  0
 17 38  1  0
 18 39  1  0
 21 40  1  0
 22 41  1  0
 23 42  1  0
 23 43  1  0
 24 44  1  0
 24 45  1  0
M  CHG  1  15  -1
M  END
>  <UniqueID>  (41) 
39

>  <SMILES>  (41) 
Cc1ccccc1N1CCN(CC(=O)[N-]c2ccc(Br)cc2)CC1

>  <Energy>  (41) 
62.39016496098881

>  <Genealogy>  (41) 
Cc1ccccc1N1CCN(CC(=O)[N-]c2ccc(Br)cc2)CC1 (protonated)
Cc1ccccc1N1CCN(CC(=O)[N-]c2ccc(Br)cc2)CC1 (3D coordinates assigned)
Cc1ccccc1N1CCN(CC(=O)[N-]c2ccc(Br)cc2)CC1 (nonaromatic ring conformer: 62.39016496098881 kcal/mol)

>  <smiles>  (41) 
Cc1ccccc1N1CCN(CC(=O)Nc2ccc(Br)cc2)CC1

>  <score_type>  (41) 
oracle

>  <origin>  (41) 
adg

>  <m_score__min__energy>  (41) 
-10.640000000000001

>  <m_primary>  (41) 
energy

$$$$
41:0
     RDKit          3D

 33 35  0  0  0  0  0  0  0  0999 V2000
    1.1820   24.4870  -26.9200 C   0  0  0  0  0  0  0  0  0  0  0  0
    0.8620   24.1720  -28.2720 O   0  0  0  0  0  0  0  0  0  0  0  0
   -0.4440   24.0370  -28.7650 C   0  0  0  0  0  0  0  0  0  0  0  0
   -1.4170   24.9400  -28.3270 C   0  0  0  0  0  0  0  0  0  0  0  0
   -2.7330   24.8490  -28.7880 C   0  0  0  0  0  0  0  0  0  0  0  0
   -3.1050   23.8430  -29.6980 C   0  0  0  0  0  0  0  0  0  0  0  0
   -4.4680   23.7620  -30.1660 N   0  0  0  0  0  0  0  0  0  0  0  0
   -5.3730   24.7620  -30.2290 C   0  0  0  0  0  0  0  0  0  0  0  0
   -6.5490   24.2640  -30.7460 C   0  0  0  0  0  0  0  0  0  0  0  0
   -6.2870   22.9230  -30.9860 C   0  0  0  0  0  0  0  0  0  0  0  0
   -7.2180   21.9160  -31.5500 C   0  0  0  0  0  0  0  0  0  0  0  0
   -6.7400   20.7600  -32.1990 C   0  0  0  0  0  0  0  0  0  0  0  0
   -7.6350   19.8220  -32.7240 C   0  0  0  0  0  0  0  0  0  0  0  0
   -9.0120   20.0240  -32.6090 C   0  0  0  0  0  0  0  0  0  0  0  0
   -9.4970   21.1660  -31.9690 C   0  0  0  0  0  0  0  0  0  0  0  0
   -8.6080   22.1070  -31.4420 C   0  0  0  0  0  0  0  0  0  0  0  0
   -5.0170   22.6480  -30.6260 N   0  0  0  0  0  0  0  0  0  0  0  0
   -2.1220   22.9370  -30.1420 C   0  0  0  0  0  0  0  0  0  0  0  0
   -0.8060   23.0320  -29.6800 C   0  0  0  0  0  0  0  0  0  0  0  0
    0.5629   23.8776  -26.2451 H   0  0  0  0  0  0  0  0  0  0  0  0
    2.2451   24.2732  -26.7355 H   0  0  0  0  0  0  0  0  0  0  0  0
    0.9850   25.5534  -26.7355 H   0  0  0  0  0  0  0  0  0  0  0  0
   -1.1440   25.7302  -27.6122 H   0  0  0  0  0  0  0  0  0  0  0  0
   -3.4849   25.5707  -28.4360 H   0  0  0  0  0  0  0  0  0  0  0  0
   -5.1999   25.8030  -29.9186 H   0  0  0  0  0  0  0  0  0  0  0  0
   -7.4872   24.8087  -30.9280 H   0  0  0  0  0  0  0  0  0  0  0  0
   -5.6566   20.5944  -32.2933 H   0  0  0  0  0  0  0  0  0  0  0  0
   -7.2530   18.9225  -33.2290 H   0  0  0  0  0  0  0  0  0  0  0  0
   -9.7136   19.2843  -33.0221 H   0  0  0  0  0  0  0  0  0  0  0  0
  -10.5816   21.3257  -31.8792 H   0  0  0  0  0  0  0  0  0  0  0  0
   -8.9980   23.0040  -30.9388 H   0  0  0  0  0  0  0  0  0  0  0  0
   -2.3923   22.1476  -30.8588 H   0  0  0  0  0  0  0  0  0  0  0  0
   -0.0492   22.3166  -30.0341 H   0  0  0  0  0  0  0  0  0  0  0  0
  1  2  1  0
  2  3  1  0
  3  4  2  0
  4  5  1  0
  5  6  2  0
  6  7  1  0
  7  8  1  0
  8  9  2  0
  9 10  1  0
 10 11  1  0
 11 12  2  0
 12 13  1  0
 13 14  2  0
 14 15  1  0
 15 16  2  0
 10 17  2  0
  6 18  1  0
 18 19  2  0
 19  3  1  0
 17  7  1  0
 16 11  1  0
  1 20  1  0
  1 21  1  0
  1 22  1  0
  4 23  1  0
  5 24  1  0
  8 25  1  0
  9 26  1  0
 12 27  1  0
 13 28  1  0
 14 29  1  0
 15 30  1  0
 16 31  1  0
 18 32  1  0
 19 33  1  0
M  END
>  <UniqueID>  (42) 
40

>  <SMILES>  (42) 
COc1ccc(-n2ccc(-c3ccccc3)n2)cc1

>  <Energy>  (42) 
68.57188577788725

>  <Genealogy>  (42) 
COc1ccc(-n2ccc(-c3ccccc3)n2)cc1 (3D coordinates assigned)
COc1ccc(-n2ccc(-c3ccccc3)n2)cc1 (optimized conformer: 68.57188577788725 kcal/mol)

>  <smiles>  (42) 
COc1ccc(-n2ccc(-c3ccccc3)n2)cc1

>  <score_type>  (42) 
oracle

>  <origin>  (42) 
adg

>  <m_score__min__energy>  (42) 
-6.8899999999999997

>  <m_primary>  (42) 
energy

$$$$
42:0
     RDKit          3D

 17 18  0  0  0  0  0  0  0  0999 V2000
   -6.2100   18.7780  -32.6270 F   0  0  0  0  0  0  0  0  0  0  0  0
   -6.1160   20.0000  -33.2700 C   0  0  0  0  0  0  0  0  0  0  0  0
   -7.0730   20.0400  -34.2680 F   0  0  0  0  0  0  0  0  0  0  0  0
   -4.8600   20.0930  -33.8410 F   0  0  0  0  0  0  0  0  0  0  0  0
   -6.3280   21.1570  -32.3170 C   0  0  0  0  0  0  0  0  0  0  0  0
   -5.3630   22.1860  -32.2220 C   0  0  0  0  0  0  0  0  0  0  0  0
   -5.5660   23.2480  -31.3420 C   0  0  0  0  0  0  0  0  0  0  0  0
   -4.6810   24.2700  -31.2000 N   0  0  0  0  0  0  0  0  0  0  0  0
   -5.4480   25.1870  -30.0530 S   0  0  0  0  0  0  0  0  0  0  0  0
   -6.8410   24.3690  -29.7190 N   0  0  0  0  0  0  0  0  0  0  0  0
   -6.7370   23.2990  -30.5410 C   0  0  0  0  0  0  0  0  0  0  0  0
   -7.6950   22.2920  -30.6240 C   0  0  0  0  0  0  0  0  0  0  0  0
   -7.4960   21.2200  -31.5080 C   0  0  0  0  0  0  0  0  0  0  0  0
   -8.7380   19.9740  -31.5750 Cl  0  0  0  0  0  0  0  0  0  0  0  0
   -4.4544   22.1487  -32.8409 H   0  0  0  0  0  0  0  0  0  0  0  0
   -7.6050   24.6120  -29.0490 H   0  0  0  0  0  0  0  0  0  0  0  0
   -8.6009   22.3362  -30.0016 H   0  0  0  0  0  0  0  0  0  0  0  0
  1  2  1  0
  2  3  1  0
  2  4  1  0
  2  5  1  0
  5  6  2  0
  6  7  1  0
  7  8  2  0
  8  9  1  0
  9 10  1  0
 10 11  2  0
 11 12  1  0
 12 13  2  0
 13 14  1  0
 13  5  1  0
 11  7  1  0
  6 15  1  0
 10 16  1  0
 12 17  1  0
M  CHG  1  10   1
M  END
>  <UniqueID>  (43) 
41

>  <SMILES>  (43) 
FC(F)(F)c1cc2ns[nH+]c2cc1Cl

>  <Energy>  (43) 
59.94820327351827

>  <Genealogy>  (43) 
FC(F)(F)c1cc2ns[nH+]c2cc1Cl (protonated)
FC(F)(F)c1cc2ns[nH+]c2cc1Cl (3D coordinates assigned)
FC(F)(F)c1cc2ns[nH+]c2cc1Cl (optimized conformer: 59.94820327351827 kcal/mol)

>  <smiles>  (43) 
FC(F)(F)c1cc2nsnc2cc1Cl

>  <score_type>  (43) 
oracle

>  <origin>  (43) 
adg

>  <m_score__min__energy>  (43) 
-5.1100000000000003

>  <m_primary>  (43) 
energy

$$$$
43:0
     RDKit          3D

 52 54  0  0  0  0  0  0  0  0999 V2000
   -2.9580   19.3040  -26.6310 C   0  0  0  0  0  0  0  0  0  0  0  0
   -2.1910   20.2710  -27.5320 C   0  0  0  0  0  0  0  0  0  0  0  0
   -2.8080   21.6770  -27.5140 C   0  0  0  0  0  0  0  0  0  0  0  0
   -1.7490   22.7140  -27.5680 N   0  0  0  0  0  0  0  0  0  0  0  0
   -0.6060   22.3620  -26.6960 C   0  0  0  0  0  0  0  0  0  0  0  0
   -0.4830   23.3690  -25.5560 C   0  0  0  0  0  0  0  0  0  0  0  0
   -2.2900   24.0530  -27.2350 C   0  0  0  0  0  0  0  0  0  0  0  0
   -1.7070   25.1230  -28.1670 C   0  0  0  0  0  0  0  0  0  0  0  0
   -2.5160   25.2930  -29.3310 O   0  0  0  0  0  0  0  0  0  0  0  0
   -3.3200   24.3030  -29.9170 C   0  0  0  0  0  0  0  0  0  0  0  0
   -4.6950   24.5430  -30.0170 C   0  0  0  0  0  0  0  0  0  0  0  0
   -5.5370   23.6140  -30.6340 C   0  0  0  0  0  0  0  0  0  0  0  0
   -5.0130   22.4200  -31.1540 C   0  0  0  0  0  0  0  0  0  0  0  0
   -5.8970   21.4330  -31.8170 C   0  0  0  0  0  0  0  0  0  0  0  0
   -7.2540   21.4730  -31.6260 N   0  0  0  0  0  0  0  0  0  0  0  0
   -8.0890   20.5620  -32.2200 C   0  0  0  0  0  0  0  0  0  0  0  0
   -7.5850   19.5760  -33.0180 N   0  0  0  0  0  0  0  0  0  0  0  0
   -6.2460   19.5280  -33.2160 C   0  0  0  0  0  0  0  0  0  0  0  0
   -5.3940   20.4190  -32.6370 C   0  0  0  0  0  0  0  0  0  0  0  0
   -4.1100   20.0340  -32.9800 C   0  0  0  0  0  0  0  0  0  0  0  0
   -4.2650   18.9030  -33.7780 C   0  0  0  0  0  0  0  0  0  0  0  0
   -5.5770   18.6070  -33.9310 N   0  0  0  0  0  0  0  0  0  0  0  0
   -6.1340   17.4410  -34.6080 C   0  0  0  0  0  0  0  0  0  0  0  0
   -3.6420   22.1570  -31.0190 C   0  0  0  0  0  0  0  0  0  0  0  0
   -2.8000   23.0900  -30.4060 C   0  0  0  0  0  0  0  0  0  0  0  0
   -2.7620   19.5511  -25.5772 H   0  0  0  0  0  0  0  0  0  0  0  0
   -4.0357   19.3906  -26.8336 H   0  0  0  0  0  0  0  0  0  0  0  0
   -2.6284   18.2743  -26.8336 H   0  0  0  0  0  0  0  0  0  0  0  0
   -1.1501   20.3343  -27.1821 H   0  0  0  0  0  0  0  0  0  0  0  0
   -2.2387   19.8895  -28.5626 H   0  0  0  0  0  0  0  0  0  0  0  0
   -3.4708   21.7918  -28.3844 H   0  0  0  0  0  0  0  0  0  0  0  0
   -3.3782   21.8015  -26.5816 H   0  0  0  0  0  0  0  0  0  0  0  0
   -0.7642   21.3571  -26.2776 H   0  0  0  0  0  0  0  0  0  0  0  0
    0.3186   22.3796  -27.2917 H   0  0  0  0  0  0  0  0  0  0  0  0
   -0.5474   22.8419  -24.5926 H   0  0  0  0  0  0  0  0  0  0  0  0
    0.4850   23.8866  -25.6268 H   0  0  0  0  0  0  0  0  0  0  0  0
   -1.2980   24.1044  -25.6268 H   0  0  0  0  0  0  0  0  0  0  0  0
   -3.3845   24.0372  -27.3441 H   0  0  0  0  0  0  0  0  0  0  0  0
   -2.0121   24.2981  -26.1993 H   0  0  0  0  0  0  0  0  0  0  0  0
   -1.6527   26.0789  -27.6255 H   0  0  0  0  0  0  0  0  0  0  0  0
   -0.7051   24.7985  -28.4846 H   0  0  0  0  0  0  0  0  0  0  0  0
   -5.1171   25.4719  -29.6060 H   0  0  0  0  0  0  0  0  0  0  0  0
   -6.6148   23.8192  -30.7125 H   0  0  0  0  0  0  0  0  0  0  0  0
   -7.6760   22.2180  -31.0260 H   0  0  0  0  0  0  0  0  0  0  0  0
   -9.1742   20.6263  -32.0520 H   0  0  0  0  0  0  0  0  0  0  0  0
   -3.1673   20.5182  -32.6852 H   0  0  0  0  0  0  0  0  0  0  0  0
   -3.4372   18.3305  -34.2218 H   0  0  0  0  0  0  0  0  0  0  0  0
   -6.4815   16.7137  -33.8595 H   0  0  0  0  0  0  0  0  0  0  0  0
   -6.9807   17.7522  -35.2375 H   0  0  0  0  0  0  0  0  0  0  0  0
   -5.3598   16.9779  -35.2375 H   0  0  0  0  0  0  0  0  0  0  0  0
   -3.2267   21.2113  -31.3975 H   0  0  0  0  0  0  0  0  0  0  0  0
   -1.7259   22.8749  -30.3055 H   0  0  0  0  0  0  0  0  0  0  0  0
  1  2  1  0
  2  3  1  0
  3  4  1  0
  4  5  1  0
  5  6  1  0
  4  7  1  0
  7  8  1  0
  8  9  1  0
  9 10  1  0
 10 11  2  0
 11 12  1  0
 12 13  2  0
 13 14  1  0
 14 15  2  0
 15 16  1  0
 16 17  2  0
 17 18  1  0
 18 19  2  0
 19 20  1  0
 20 21  2  0
 21 22  1  0
 22 23  1  0
 13 24  1  0
 24 25  2  0
 25 10  1  0
 19 14  1  0
 22 18  1  0
  1 26  1  0
  1 27  1  0
  1 28  1  0
  2 29  1  0
  2 30  1  0
  3 31  1  0
  3 32  1  0
  5 33  1  0
  5 34  1  0
  6 35  1  0
  6 36  1  0
  6 37  1  0
  7 38  1  0
  7 39  1  0
  8 40  1  0
  8 41  1  0
 11 42  1  0
 12 43  1  0
 15 44  1  0
 16 45  1  0
 20 46  1  0
 21 47  1  0
 23 48  1  0
 23 49  1  0
 23 50  1  0
 24 51  1  0
 25 52  1  0
M  CHG  1  15   1
M  END
>  <UniqueID>  (44) 
42

>  <SMILES>  (44) 
CCCN(CC)CCOc1ccc(-c2[nH+]cnc3c2ccn3C)cc1

>  <Energy>  (44) 
86.75124377353147

>  <Genealogy>  (44) 
CCCN(CC)CCOc1ccc(-c2[nH+]cnc3c2ccn3C)cc1 (protonated)
CCCN(CC)CCOc1ccc(-c2[nH+]cnc3c2ccn3C)cc1 (3D coordinates assigned)
CCCN(CC)CCOc1ccc(-c2[nH+]cnc3c2ccn3C)cc1 (optimized conformer: 86.75124377353147 kcal/mol)

>  <smiles>  (44) 
CCCN(CC)CCOc1ccc(-c2ncnc3c2ccn3C)cc1

>  <score_type>  (44) 
oracle

>  <origin>  (44) 
adg

>  <m_score__min__energy>  (44) 
-7.3799999999999999

>  <m_primary>  (44) 
energy

$$$$
44:0
     RDKit          3D

 42 45  0  0  0  0  0  0  0  0999 V2000
   -4.9024   26.7204  -30.0628 H   0  0  0  0  0  0  0  0  0  0  0  0
   -5.0060   25.6880  -30.4280 C   0  0  0  0  0  0  0  0  0  0  0  0
   -3.9240   24.8760  -30.4770 N   0  0  0  0  0  0  0  0  0  0  0  0
   -3.9730   23.5900  -30.9160 C   0  0  0  0  0  0  0  0  0  0  0  0
   -2.8490   22.9220  -30.8550 N   0  0  0  0  0  0  0  0  0  0  0  0
   -2.1220   22.2810  -29.7530 C   0  0  0  0  0  0  0  0  0  0  0  0
   -1.8640   21.2500  -30.0366 H   0  0  0  0  0  0  0  0  0  0  0  0
   -0.8420   23.0830  -29.4770 C   0  0  0  0  0  0  0  0  0  0  0  0
   -0.2470   22.5513  -28.7198 H   0  0  0  0  0  0  0  0  0  0  0  0
   -0.2915   23.1774  -30.4246 H   0  0  0  0  0  0  0  0  0  0  0  0
   -1.1460   24.5070  -28.9610 C   0  0  0  0  0  0  0  0  0  0  0  0
   -0.3303   24.8142  -28.2900 H   0  0  0  0  0  0  0  0  0  0  0  0
   -1.2315   25.1565  -29.8446 H   0  0  0  0  0  0  0  0  0  0  0  0
   -2.4200   24.6140  -28.2240 N   0  0  0  0  0  0  0  0  0  0  0  0
   -3.1920   24.8250  -28.8990 H   0  0  0  0  0  0  0  0  0  0  0  0
   -2.7470   23.3780  -27.5050 C   0  0  0  0  0  0  0  0  0  0  0  0
   -1.9082   23.1164  -26.8432 H   0  0  0  0  0  0  0  0  0  0  0  0
   -3.6648   23.5485  -26.9232 H   0  0  0  0  0  0  0  0  0  0  0  0
   -3.0000   22.2110  -28.4790 C   0  0  0  0  0  0  0  0  0  0  0  0
   -2.7850   21.2668  -27.9572 H   0  0  0  0  0  0  0  0  0  0  0  0
   -4.0500   22.2743  -28.8007 H   0  0  0  0  0  0  0  0  0  0  0  0
   -5.2260   23.0690  -31.3750 C   0  0  0  0  0  0  0  0  0  0  0  0
   -5.3780   21.7400  -31.9940 C   0  0  0  0  0  0  0  0  0  0  0  0
   -6.3150   20.8460  -31.5900 N   0  0  0  0  0  0  0  0  0  0  0  0
   -6.1590   19.6580  -32.2250 C   0  0  0  0  0  0  0  0  0  0  0  0
   -6.9830   18.5480  -32.0340 C   0  0  0  0  0  0  0  0  0  0  0  0
   -7.8330   18.5936  -31.3373 H   0  0  0  0  0  0  0  0  0  0  0  0
   -6.7050   17.3700  -32.7500 C   0  0  0  0  0  0  0  0  0  0  0  0
   -7.3456   16.4858  -32.6164 H   0  0  0  0  0  0  0  0  0  0  0  0
   -5.6110   17.3140  -33.6380 C   0  0  0  0  0  0  0  0  0  0  0  0
   -5.4032   16.3876  -34.1934 H   0  0  0  0  0  0  0  0  0  0  0  0
   -4.7860   18.4360  -33.8160 C   0  0  0  0  0  0  0  0  0  0  0  0
   -3.9271   18.4034  -34.5024 H   0  0  0  0  0  0  0  0  0  0  0  0
   -5.0860   19.5910  -33.0990 C   0  0  0  0  0  0  0  0  0  0  0  0
   -4.2800   21.0630  -33.0970 S   0  0  0  0  0  0  0  0  0  0  0  0
   -6.3660   23.9150  -31.3300 C   0  0  0  0  0  0  0  0  0  0  0  0
   -7.7230   23.4480  -31.8020 C   0  0  0  0  0  0  0  0  0  0  0  0
   -8.3587   23.2292  -30.9314 H   0  0  0  0  0  0  0  0  0  0  0  0
   -8.1914   24.2366  -32.4091 H   0  0  0  0  0  0  0  0  0  0  0  0
   -7.6069   22.5381  -32.4091 H   0  0  0  0  0  0  0  0  0  0  0  0
   -6.2450   25.2190  -30.8380 C   0  0  0  0  0  0  0  0  0  0  0  0
   -7.1295   25.8700  -30.7766 H   0  0  0  0  0  0  0  0  0  0  0  0
  1  2  1  0
  2  3  1  0
  3  4  1  0
  4  5  2  0
  5  6  1  0
  6  7  1  0
  6  8  1  0
  8  9  1  0
  8 10  1  0
  8 11  1  0
 11 12  1  0
 11 13  1  0
 11 14  1  0
 14 15  1  0
 14 16  1  0
 16 17  1  0
 16 18  1  0
 16 19  1  0
 19 20  1  0
 19 21  1  0
  4 22  1  0
 22 23  1  0
 23 24  2  0
 24 25  1  0
 25 26  2  0
 26 27  1  0
 26 28  1  0
 28 29  1  0
 28 30  2  0
 30 31  1  0
 30 32  1  0
 32 33  1  0
 32 34  2  0
 34 35  1  0
 22 36  2  0
 36 37  1  0
 37 38  1  0
 37 39  1  0
 37 40  1  0
 36 41  1  0
 41 42  1  0
 41  2  2  0
 19  6  1  0
 35 23  1  0
 34 25  1  0
M  CHG  1   3  -1
M  END
>  <UniqueID>  (45) 
43

>  <SMILES>  (45) 
Cc1cc[n-]/c(=N/C2CCNCC2)c1-c1nc2ccccc2s1

>  <Energy>  (45) 
103.40477044831027

>  <Genealogy>  (45) 
Cc1cc[n-]c(=NC2CCNCC2)c1-c1nc2ccccc2s1 (protonated)
Cc1cc[n-]/c(=N/C2CCNCC2)c1-c1nc2ccccc2s1 (cis-trans isomerization)
Cc1cc[n-]/c(=N/C2CCNCC2)c1-c1nc2ccccc2s1 (3D coordinates assigned)
Cc1cc[n-]/c(=N/C2CCNCC2)c1-c1nc2ccccc2s1 (nonaromatic ring conformer: 103.40477044831027 kcal/mol)

>  <smiles>  (45) 
Cc1cc[nH]c(=NC2CCNCC2)c1-c1nc2ccccc2s1

>  <score_type>  (45) 
oracle

>  <origin>  (45) 
adg

>  <m_score__min__energy>  (45) 
-9.5099999999999998

>  <m_primary>  (45) 
energy

$$$$
45:0
     RDKit          3D

 47 50  0  0  0  0  0  0  0  0999 V2000
   -1.5330   24.5000  -28.9600 C   0  0  0  0  0  0  0  0  0  0  0  0
   -2.7510   25.0950  -29.3520 O   0  0  0  0  0  0  0  0  0  0  0  0
   -3.8320   24.5140  -28.6490 C   0  0  0  0  0  0  0  0  0  0  0  0
   -5.0970   24.6080  -29.4530 C   0  0  0  0  0  0  0  0  0  0  0  0
   -6.1080   25.5460  -29.2820 C   0  0  0  0  0  0  0  0  0  0  0  0
   -7.1140   25.2720  -30.1440 N   0  0  0  0  0  0  0  0  0  0  0  0
   -6.6970   24.1790  -30.8070 C   0  0  0  0  0  0  0  0  0  0  0  0
   -7.3900   23.5260  -31.7690 N   0  0  0  0  0  0  0  0  0  0  0  0
   -6.8500   22.4360  -32.3280 N   0  0  0  0  0  0  0  0  0  0  0  0
   -5.6200   21.9680  -31.9520 C   0  0  0  0  0  0  0  0  0  0  0  0
   -5.0690   20.7900  -32.5770 N   0  0  0  0  0  0  0  0  0  0  0  0
   -5.7710   19.6010  -32.5760 C   0  0  0  0  0  0  0  0  0  0  0  0
   -5.1750   18.4250  -33.1190 C   0  0  0  0  0  0  0  0  0  0  0  0
   -3.9140   18.5460  -33.7270 C   0  0  0  0  0  0  0  0  0  0  0  0
   -3.2460   19.7600  -33.7440 C   0  0  0  0  0  0  0  0  0  0  0  0
   -3.8280   20.8760  -33.1550 C   0  0  0  0  0  0  0  0  0  0  0  0
   -3.1880   21.9640  -33.1540 O   0  0  0  0  0  0  0  0  0  0  0  0
   -5.8970   17.0650  -33.1440 C   0  0  0  0  0  0  0  0  0  0  0  0
   -4.9730   15.9530  -32.5930 C   0  0  0  0  0  0  0  0  0  0  0  0
   -6.2720   16.7200  -34.6030 C   0  0  0  0  0  0  0  0  0  0  0  0
   -7.1780   17.0730  -32.2670 C   0  0  0  0  0  0  0  0  0  0  0  0
   -7.9800   18.3560  -32.4370 C   0  0  0  0  0  0  0  0  0  0  0  0
   -7.1570   19.5410  -31.9510 C   0  0  0  0  0  0  0  0  0  0  0  0
   -4.9080   22.6520  -30.9530 C   0  0  0  0  0  0  0  0  0  0  0  0
   -5.4920   23.7510  -30.4150 N   0  0  0  0  0  0  0  0  0  0  0  0
   -1.4754   24.4719  -27.8619 H   0  0  0  0  0  0  0  0  0  0  0  0
   -1.4813   23.4752  -29.3563 H   0  0  0  0  0  0  0  0  0  0  0  0
   -0.6929   25.0892  -29.3563 H   0  0  0  0  0  0  0  0  0  0  0  0
   -3.6073   23.4556  -28.4510 H   0  0  0  0  0  0  0  0  0  0  0  0
   -3.9722   25.0568  -27.7026 H   0  0  0  0  0  0  0  0  0  0  0  0
   -6.0927   26.3773  -28.5618 H   0  0  0  0  0  0  0  0  0  0  0  0
   -8.0150   25.7870  -30.2580 H   0  0  0  0  0  0  0  0  0  0  0  0
   -3.4509   17.6652  -34.1958 H   0  0  0  0  0  0  0  0  0  0  0  0
   -2.2585   19.8400  -34.2220 H   0  0  0  0  0  0  0  0  0  0  0  0
   -4.9901   15.9735  -31.4933 H   0  0  0  0  0  0  0  0  0  0  0  0
   -5.3268   14.9734  -32.9470 H   0  0  0  0  0  0  0  0  0  0  0  0
   -3.9452   16.1214  -32.9470 H   0  0  0  0  0  0  0  0  0  0  0  0
   -7.0815   15.9752  -34.6072 H   0  0  0  0  0  0  0  0  0  0  0  0
   -6.6088   17.6306  -35.1201 H   0  0  0  0  0  0  0  0  0  0  0  0
   -5.3926   16.3086  -35.1201 H   0  0  0  0  0  0  0  0  0  0  0  0
   -7.8096   16.2192  -32.5537 H   0  0  0  0  0  0  0  0  0  0  0  0
   -6.8681   17.0041  -31.2138 H   0  0  0  0  0  0  0  0  0  0  0  0
   -8.2287   18.4942  -33.4996 H   0  0  0  0  0  0  0  0  0  0  0  0
   -8.9064   18.2885  -31.8478 H   0  0  0  0  0  0  0  0  0  0  0  0
   -7.6947   20.4672  -32.2020 H   0  0  0  0  0  0  0  0  0  0  0  0
   -7.0227   19.4242  -30.8655 H   0  0  0  0  0  0  0  0  0  0  0  0
   -3.9168   22.3099  -30.6206 H   0  0  0  0  0  0  0  0  0  0  0  0
  1  2  1  0
  2  3  1  0
  3  4  1  0
  4  5  2  0
  5  6  1  0
  6  7  2  0
  7  8  1  0
  8  9  2  0
  9 10  1  0
 10 11  1  0
 11 12  1  0
 12 13  2  0
 13 14  1  0
 14 15  2  0
 15 16  1  0
 16 17  2  0
 13 18  1  0
 18 19  1  0
 18 20  1  0
 18 21  1  0
 21 22  1  0
 22 23  1  0
 10 24  2  0
 24 25  1  0
 25  4  1  0
 25  7  1  0
 16 11  1  0
 23 12  1  0
  1 26  1  0
  1 27  1  0
  1 28  1  0
  3 29  1  0
  3 30  1  0
  5 31  1  0
  6 32  1  0
 14 33  1  0
 15 34  1  0
 19 35  1  0
 19 36  1  0
 19 37  1  0
 20 38  1  0
 20 39  1  0
 20 40  1  0
 21 41  1  0
 21 42  1  0
 22 43  1  0
 22 44  1  0
 23 45  1  0
 23 46  1  0
 24 47  1  0
M  CHG  1   6   1
M  END
>  <UniqueID>  (46) 
44

>  <SMILES>  (46) 
COCc1c[nH+]c2nnc(-n3c4c(ccc3=O)C(C)(C)CCC4)cn12

>  <Energy>  (46) 
102.83292692787941

>  <Genealogy>  (46) 
COCc1c[nH+]c2nnc(-n3c4c(ccc3=O)C(C)(C)CCC4)cn12 (protonated)
COCc1c[nH+]c2nnc(-n3c4c(ccc3=O)C(C)(C)CCC4)cn12 (3D coordinates assigned)
COCc1c[nH+]c2nnc(-n3c4c(ccc3=O)C(C)(C)CCC4)cn12 (nonaromatic ring conformer: 102.83292692787941 kcal/mol)

>  <smiles>  (46) 
COCc1cnc2nnc(-n3c4c(ccc3=O)C(C)(C)CCC4)cn12

>  <score_type>  (46) 
oracle

>  <origin>  (46) 
adg

>  <m_score__min__energy>  (46) 
-8.0899999999999999

>  <m_primary>  (46) 
energy

$$$$
