0:0
     RDKit          3D

 69 72  0  0  0  0  0  0  0  0999 V2000
   -4.5760   24.1590  -28.4950 C   0  0  0  0  0  0  0  0  0  0  0  0
   -3.5900   24.6520  -29.5620 C   0  0  0  0  0  0  0  0  0  0  0  0
   -4.2420   24.8950  -30.8610 N   0  0  0  0  0  0  0  0  0  0  0  0
   -5.7110   24.8740  -30.7760 C   0  0  0  0  0  0  0  0  0  0  0  0
   -6.2510   23.4960  -31.1970 C   0  0  0  0  0  0  0  0  0  0  0  0
   -5.6020   23.0010  -32.4270 N   0  0  0  0  0  0  0  0  0  0  0  0
   -5.5700   21.5440  -32.4810 C   0  0  0  0  0  0  0  0  0  0  0  0
   -6.7610   20.7920  -32.3530 C   0  0  0  0  0  0  0  0  0  0  0  0
   -7.8970   21.3140  -31.6940 C   0  0  0  0  0  0  0  0  0  0  0  0
   -9.0510   20.5470  -31.5450 C   0  0  0  0  0  0  0  0  0  0  0  0
   -9.0940   19.2490  -32.0400 C   0  0  0  0  0  0  0  0  0  0  0  0
   -7.9940   18.7190  -32.7090 C   0  0  0  0  0  0  0  0  0  0  0  0
   -6.8150   19.4830  -32.9000 C   0  0  0  0  0  0  0  0  0  0  0  0
   -5.7370   18.9910  -33.6070 N   0  0  0  0  0  0  0  0  0  0  0  0
   -5.9090   17.8200  -34.4950 C   0  0  0  0  0  0  0  0  0  0  0  0
   -4.4980   19.5830  -33.4640 C   0  0  0  0  0  0  0  0  0  0  0  0
   -3.3180   18.9570  -33.9390 C   0  0  0  0  0  0  0  0  0  0  0  0
   -2.0720   19.5550  -33.7780 C   0  0  0  0  0  0  0  0  0  0  0  0
   -1.9540   20.7390  -33.0610 C   0  0  0  0  0  0  0  0  0  0  0  0
   -3.0810   21.3420  -32.5040 C   0  0  0  0  0  0  0  0  0  0  0  0
   -2.8550   22.3630  -31.5710 O   0  0  0  0  0  0  0  0  0  0  0  0
   -1.9890   22.2040  -30.4460 C   0  0  0  0  0  0  0  0  0  0  0  0
   -2.7550   21.5400  -29.2770 C   0  0  0  0  0  0  0  0  0  0  0  0
   -1.9080   20.7920  -28.2900 N   0  0  0  0  0  0  0  0  0  0  0  0
   -0.9670   21.7900  -27.7090 C   0  0  0  0  0  0  0  0  0  0  0  0
   -2.7600   20.2220  -27.1870 C   0  0  0  0  0  0  0  0  0  0  0  0
   -2.3830   18.7800  -26.7920 C   0  0  0  0  0  0  0  0  0  0  0  0
   -0.9290   18.6110  -26.7210 N   0  0  0  0  0  0  0  0  0  0  0  0
   -0.2600   18.8910  -28.0060 C   0  0  0  0  0  0  0  0  0  0  0  0
   -1.1160   19.7320  -28.9810 C   0  0  0  0  0  0  0  0  0  0  0  0
   -4.3800   20.8440  -32.8100 C   0  0  0  0  0  0  0  0  0  0  0  0
   -4.1665   24.3637  -27.4948 H   0  0  0  0  0  0  0  0  0  0  0  0
   -5.5359   24.6832  -28.6126 H   0  0  0  0  0  0  0  0  0  0  0  0
   -4.7326   23.0766  -28.6126 H   0  0  0  0  0  0  0  0  0  0  0  0
   -3.1341   25.5909  -29.2146 H   0  0  0  0  0  0  0  0  0  0  0  0
   -2.8341   23.8664  -29.7083 H   0  0  0  0  0  0  0  0  0  0  0  0
   -3.9280   24.1730  -31.5510 H   0  0  0  0  0  0  0  0  0  0  0  0
   -6.0175   25.0829  -29.7404 H   0  0  0  0  0  0  0  0  0  0  0  0
   -6.1194   25.6399  -31.4518 H   0  0  0  0  0  0  0  0  0  0  0  0
   -6.0659   22.7784  -30.3841 H   0  0  0  0  0  0  0  0  0  0  0  0
   -7.3275   23.5995  -31.3984 H   0  0  0  0  0  0  0  0  0  0  0  0
   -4.6320   23.3810  -32.4930 H   0  0  0  0  0  0  0  0  0  0  0  0
   -6.1300   23.4220  -33.2180 H   0  0  0  0  0  0  0  0  0  0  0  0
   -7.8700   22.3382  -31.2938 H   0  0  0  0  0  0  0  0  0  0  0  0
   -9.9292   20.9696  -31.0348 H   0  0  0  0  0  0  0  0  0  0  0  0
   -9.9991   18.6391  -31.9029 H   0  0  0  0  0  0  0  0  0  0  0  0
   -8.0404   17.6903  -33.0958 H   0  0  0  0  0  0  0  0  0  0  0  0
   -6.0421   16.9140  -33.8855 H   0  0  0  0  0  0  0  0  0  0  0  0
   -6.7950   17.9682  -35.1298 H   0  0  0  0  0  0  0  0  0  0  0  0
   -5.0178   17.7072  -35.1298 H   0  0  0  0  0  0  0  0  0  0  0  0
   -3.3887   17.9820  -34.4434 H   0  0  0  0  0  0  0  0  0  0  0  0
   -1.1785   19.0893  -34.2194 H   0  0  0  0  0  0  0  0  0  0  0  0
   -0.9653   21.2036  -32.9319 H   0  0  0  0  0  0  0  0  0  0  0  0
   -1.1364   21.5695  -30.7296 H   0  0  0  0  0  0  0  0  0  0  0  0
   -1.6286   23.1927  -30.1257 H   0  0  0  0  0  0  0  0  0  0  0  0
   -3.2921   22.3302  -28.7319 H   0  0  0  0  0  0  0  0  0  0  0  0
   -3.4153   20.7900  -29.7368 H   0  0  0  0  0  0  0  0  0  0  0  0
   -1.0129   21.7413  -26.6110 H   0  0  0  0  0  0  0  0  0  0  0  0
    0.0568   21.5667  -28.0435 H   0  0  0  0  0  0  0  0  0  0  0  0
   -1.2501   22.7990  -28.0435 H   0  0  0  0  0  0  0  0  0  0  0  0
   -2.6539   20.8637  -26.2999 H   0  0  0  0  0  0  0  0  0  0  0  0
   -3.7932   20.1916  -27.5632 H   0  0  0  0  0  0  0  0  0  0  0  0
   -2.8188   18.5523  -25.8080 H   0  0  0  0  0  0  0  0  0  0  0  0
   -2.7754   18.0958  -27.5587 H   0  0  0  0  0  0  0  0  0  0  0  0
   -0.5540   19.2500  -25.9820 H   0  0  0  0  0  0  0  0  0  0  0  0
    0.6716   19.4386  -27.8006 H   0  0  0  0  0  0  0  0  0  0  0  0
   -0.0778   17.9212  -28.4921 H   0  0  0  0  0  0  0  0  0  0  0  0
   -0.4475   20.2124  -29.7106 H   0  0  0  0  0  0  0  0  0  0  0  0
   -1.8292   19.0503  -29.4674 H   0  0  0  0  0  0  0  0  0  0  0  0
  1  2  1  0
  2  3  1  0
  3  4  1  0
  4  5  1  0
  5  6  1  0
  6  7  1  0
  7  8  2  0
  8  9  1  0
  9 10  2  0
 10 11  1  0
 11 12  2  0
 12 13  1  0
 13 14  2  0
 14 15  1  0
 14 16  1  0
 16 17  2  0
 17 18  1  0
 18 19  2  0
 19 20  1  0
 20 21  1  0
 21 22  1  0
 22 23  1  0
 23 24  1  0
 24 25  1  0
 24 26  1  0
 26 27  1  0
 27 28  1  0
 28 29  1  0
 29 30  1  0
 20 31  2  0
 31  7  1  0
 13  8  1  0
 31 16  1  0
 30 24  1  0
  1 32  1  0
  1 33  1  0
  1 34  1  0
  2 35  1  0
  2 36  1  0
  3 37  1  0
  4 38  1  0
  4 39  1  0
  5 40  1  0
  5 41  1  0
  6 42  1  0
  6 43  1  0
  9 44  1  0
 10 45  1  0
 11 46  1  0
 12 47  1  0
 15 48  1  0
 15 49  1  0
 15 50  1  0
 17 51  1  0
 18 52  1  0
 19 53  1  0
 22 54  1  0
 22 55  1  0
 23 56  1  0
 23 57  1  0
 25 58  1  0
 25 59  1  0
 25 60  1  0
 26 61  1  0
 26 62  1  0
 27 63  1  0
 27 64  1  0
 28 65  1  0
 29 66  1  0
 29 67  1  0
 30 68  1  0
 30 69  1  0
M  CHG  3   6   1  14   1  24   1
M  END
>  <UniqueID>  (1) 
1

>  <SMILES>  (1) 
CCNCC[NH2+]c1c2ccccc2[n+](C)c2cccc(OCC[N+]3(C)CCNCC3)c12

>  <Energy>  (1) 
130.5416836561824

>  <Genealogy>  (1) 
CCNCC[NH2+]c1c2ccccc2[n+](C)c2cccc(OCC[N+]3(C)CCNCC3)c12 (protonated)
CCNCC[NH2+]c1c2ccccc2[n+](C)c2cccc(OCC[N+]3(C)CCNCC3)c12 (3D coordinates assigned)
CCNCC[NH2+]c1c2ccccc2[n+](C)c2cccc(OCC[N+]3(C)CCNCC3)c12 (nonaromatic ring conformer: 130.5416836561824 kcal/mol)

>  <smiles>  (1) 
CCNCCNc1c2ccccc2[n+](C)c2cccc(OCC[N+]3(C)CCNCC3)c12

>  <score_type>  (1) 
oracle

>  <origin>  (1) 
adg

>  <m_score__min__energy>  (1) 
-7.9000000000000004

>  <m_primary>  (1) 
energy

$$$$
1:0
     RDKit          3D

 56 58  0  0  0  0  0  0  0  0999 V2000
   -5.7300   16.6870  -31.5310 C   0  0  0  0  0  0  0  0  0  0  0  0
   -4.9050   15.8550  -32.5070 C   0  0  0  0  0  0  0  0  0  0  0  0
   -5.3310   16.1100  -33.9000 N   0  0  0  0  0  0  0  0  0  0  0  0
   -6.7620   15.8110  -34.1420 C   0  0  0  0  0  0  0  0  0  0  0  0
   -7.0430   14.3610  -34.5640 C   0  0  0  0  0  0  0  0  0  0  0  0
   -4.8370   17.6800  -34.5230 S   0  0  0  0  0  0  0  0  0  0  0  0
   -5.2610   17.8040  -35.9620 O   0  0  0  0  0  0  0  0  0  0  0  0
   -3.3370   17.7650  -34.4930 O   0  0  0  0  0  0  0  0  0  0  0  0
   -5.4850   19.0590  -33.6170 C   0  0  0  0  0  0  0  0  0  0  0  0
   -6.8690   19.2470  -33.5010 C   0  0  0  0  0  0  0  0  0  0  0  0
   -7.3830   20.3360  -32.7950 C   0  0  0  0  0  0  0  0  0  0  0  0
   -6.5230   21.2780  -32.1830 C   0  0  0  0  0  0  0  0  0  0  0  0
   -5.1200   21.1120  -32.3470 C   0  0  0  0  0  0  0  0  0  0  0  0
   -4.6190   20.0130  -33.0730 C   0  0  0  0  0  0  0  0  0  0  0  0
   -4.2420   22.0500  -31.7750 C   0  0  0  0  0  0  0  0  0  0  0  0
   -2.9940   21.9410  -31.9380 O   0  0  0  0  0  0  0  0  0  0  0  0
   -4.7550   23.1190  -31.0320 C   0  0  0  0  0  0  0  0  0  0  0  0
   -3.8600   24.1070  -30.3840 C   0  0  0  0  0  0  0  0  0  0  0  0
   -3.8510   25.2990  -30.8110 O   0  0  0  0  0  0  0  0  0  0  0  0
   -3.0110   23.7340  -29.2750 N   0  0  0  0  0  0  0  0  0  0  0  0
   -3.5240   22.8410  -28.2270 C   0  0  0  0  0  0  0  0  0  0  0  0
   -2.3610   22.1820  -27.4820 C   0  0  0  0  0  0  0  0  0  0  0  0
   -1.4340   23.1510  -27.0320 O   0  0  0  0  0  0  0  0  0  0  0  0
   -0.8320   23.7830  -28.1410 C   0  0  0  0  0  0  0  0  0  0  0  0
   -1.8690   24.5870  -28.9310 C   0  0  0  0  0  0  0  0  0  0  0  0
   -6.1360   23.2550  -30.9040 C   0  0  0  0  0  0  0  0  0  0  0  0
   -7.0050   22.3440  -31.4500 N   0  0  0  0  0  0  0  0  0  0  0  0
   -8.4470   22.5640  -31.2180 C   0  0  0  0  0  0  0  0  0  0  0  0
   -9.0590   23.3920  -32.3440 C   0  0  0  0  0  0  0  0  0  0  0  0
   -5.4610   16.4157  -30.4995 H   0  0  0  0  0  0  0  0  0  0  0  0
   -5.5243   17.7551  -31.6947 H   0  0  0  0  0  0  0  0  0  0  0  0
   -6.7998   16.4903  -31.6947 H   0  0  0  0  0  0  0  0  0  0  0  0
   -3.8429   16.1203  -32.3998 H   0  0  0  0  0  0  0  0  0  0  0  0
   -5.0566   14.7894  -32.2799 H   0  0  0  0  0  0  0  0  0  0  0  0
   -7.3177   16.0136  -33.2146 H   0  0  0  0  0  0  0  0  0  0  0  0
   -7.0797   16.4496  -34.9794 H   0  0  0  0  0  0  0  0  0  0  0  0
   -7.1643   13.7352  -33.6675 H   0  0  0  0  0  0  0  0  0  0  0  0
   -7.9647   14.3256  -35.1633 H   0  0  0  0  0  0  0  0  0  0  0  0
   -6.2012   13.9839  -35.1633 H   0  0  0  0  0  0  0  0  0  0  0  0
   -7.5572   18.5291  -33.9711 H   0  0  0  0  0  0  0  0  0  0  0  0
   -8.4725   20.4636  -32.7133 H   0  0  0  0  0  0  0  0  0  0  0  0
   -3.5335   19.9041  -33.2136 H   0  0  0  0  0  0  0  0  0  0  0  0
   -4.1280   23.4238  -27.5160 H   0  0  0  0  0  0  0  0  0  0  0  0
   -4.1432   22.0594  -28.6913 H   0  0  0  0  0  0  0  0  0  0  0  0
   -2.7549   21.6311  -26.6152 H   0  0  0  0  0  0  0  0  0  0  0  0
   -1.8457   21.4973  -28.1717 H   0  0  0  0  0  0  0  0  0  0  0  0
   -0.0424   24.4615  -27.7859 H   0  0  0  0  0  0  0  0  0  0  0  0
   -0.4037   23.0126  -28.7991 H   0  0  0  0  0  0  0  0  0  0  0  0
   -2.2173   25.4323  -28.3193 H   0  0  0  0  0  0  0  0  0  0  0  0
   -1.4066   24.9608  -29.8564 H   0  0  0  0  0  0  0  0  0  0  0  0
   -6.5402   24.1154  -30.3506 H   0  0  0  0  0  0  0  0  0  0  0  0
   -8.9566   21.5904  -31.1688 H   0  0  0  0  0  0  0  0  0  0  0  0
   -8.5715   23.1108  -30.2717 H   0  0  0  0  0  0  0  0  0  0  0  0
   -9.6610   24.2065  -31.9147 H   0  0  0  0  0  0  0  0  0  0  0  0
   -8.2563   23.8171  -32.9645 H   0  0  0  0  0  0  0  0  0  0  0  0
   -9.7009   22.7494  -32.9645 H   0  0  0  0  0  0  0  0  0  0  0  0
  1  2  1  0
  2  3  1  0
  3  4  1  0
  4  5  1  0
  3  6  1  0
  6  7  2  0
  6  8  2  0
  6  9  1  0
  9 10  2  0
 10 11  1  0
 11 12  2  0
 12 13  1  0
 13 14  2  0
 13 15  1  0
 15 16  2  0
 15 17  1  0
 17 18  1  0
 18 19  2  0
 18 20  1  0
 20 21  1  0
 21 22  1  0
 22 23  1  0
 23 24  1  0
 24 25  1  0
 17 26  2  0
 26 27  1  0
 27 28  1  0
 28 29  1  0
 14  9  1  0
 25 20  1  0
 27 12  1  0
  1 30  1  0
  1 31  1  0
  1 32  1  0
  2 33  1  0
  2 34  1  0
  4 35  1  0
  4 36  1  0
  5 37  1  0
  5 38  1  0
  5 39  1  0
 10 40  1  0
 11 41  1  0
 14 42  1  0
 21 43  1  0
 21 44  1  0
 22 45  1  0
 22 46  1  0
 24 47  1  0
 24 48  1  0
 25 49  1  0
 25 50  1  0
 26 51  1  0
 28 52  1  0
 28 53  1  0
 29 54  1  0
 29 55  1  0
 29 56  1  0
M  END
>  <UniqueID>  (2) 
2

>  <SMILES>  (2) 
CCN(CC)S(=O)(=O)c1ccc2c(c1)c(=O)c(C(=O)N1CCOCC1)cn2CC

>  <Energy>  (2) 
72.15319529892298

>  <Genealogy>  (2) 
CCN(CC)S(=O)(=O)c1ccc2c(c1)c(=O)c(C(=O)N1CCOCC1)cn2CC (3D coordinates assigned)
CCN(CC)S(=O)(=O)c1ccc2c(c1)c(=O)c(C(=O)N1CCOCC1)cn2CC (nonaromatic ring conformer: 72.15319529892298 kcal/mol)

>  <smiles>  (2) 
CCN(CC)S(=O)(=O)c1ccc2c(c1)c(=O)c(C(=O)N1CCOCC1)cn2CC

>  <score_type>  (2) 
oracle

>  <origin>  (2) 
adg

>  <m_score__min__energy>  (2) 
-9.1400000000000006

>  <m_primary>  (2) 
energy

$$$$
2:0
     RDKit          3D

 59 59  0  0  0  0  0  0  0  0999 V2000
   -0.5230   21.2250  -34.1650 C   0  0  0  0  0  0  0  0  0  0  0  0
   -1.1070   20.2000  -33.1990 C   0  0  0  0  0  0  0  0  0  0  0  0
   -1.9960   20.8520  -32.2400 N   0  0  0  0  0  0  0  0  0  0  0  0
   -3.4190   20.9090  -32.4210 C   0  0  0  0  0  0  0  0  0  0  0  0
   -3.9320   20.4740  -33.4870 O   0  0  0  0  0  0  0  0  0  0  0  0
   -4.3000   21.4230  -31.3090 C   0  0  2  0  0  0  0  0  0  0  0  0
   -5.3300   22.4520  -31.8180 C   0  0  0  0  0  0  0  0  0  0  0  0
   -6.6990   21.8340  -31.9560 C   0  0  0  0  0  0  0  0  0  0  0  0
   -7.8380   22.5360  -31.5280 C   0  0  0  0  0  0  0  0  0  0  0  0
   -9.1040   21.9450  -31.6090 C   0  0  0  0  0  0  0  0  0  0  0  0
   -9.2420   20.6520  -32.1190 C   0  0  0  0  0  0  0  0  0  0  0  0
   -8.1140   19.9460  -32.5470 C   0  0  0  0  0  0  0  0  0  0  0  0
   -6.8460   20.5310  -32.4640 C   0  0  0  0  0  0  0  0  0  0  0  0
   -3.5060   21.9650  -30.2040 N   0  0  0  0  0  0  0  0  0  0  0  0
   -2.6560   23.1210  -30.2350 C   0  0  0  0  0  0  0  0  0  0  0  0
   -1.5060   23.0670  -30.7500 O   0  0  0  0  0  0  0  0  0  0  0  0
   -3.1640   24.4200  -29.6960 C   0  0  0  0  0  0  0  0  0  0  0  0
   -2.0440   25.2860  -29.3430 N   0  0  0  0  0  0  0  0  0  0  0  0
   -0.9490   24.8670  -28.5210 C   0  0  0  0  0  0  0  0  0  0  0  0
   -0.0230   24.1570  -28.9990 O   0  0  0  0  0  0  0  0  0  0  0  0
   -0.9330   25.2330  -27.0680 C   0  0  0  0  0  0  0  0  0  0  0  0
   -1.3460   24.0520  -26.1780 C   0  0  0  0  0  0  0  0  0  0  0  0
   -2.2260   23.0380  -26.9210 C   0  0  0  0  0  0  0  0  0  0  0  0
   -1.3830   22.0920  -27.6620 N   0  0  0  0  0  0  0  0  0  0  0  0
   -1.9500   20.7400  -27.5940 C   0  0  0  0  0  0  0  0  0  0  0  0
   -0.8630   19.6840  -27.8260 C   0  0  0  0  0  0  0  0  0  0  0  0
    0.0670   20.0060  -29.0110 C   0  0  0  0  0  0  0  0  0  0  0  0
   -0.4170   21.1270  -29.8180 N   0  0  0  0  0  0  0  0  0  0  0  0
   -0.0573   22.0424  -33.5949 H   0  0  0  0  0  0  0  0  0  0  0  0
    0.2352   20.7414  -34.7985 H   0  0  0  0  0  0  0  0  0  0  0  0
   -1.3256   21.6307  -34.7985 H   0  0  0  0  0  0  0  0  0  0  0  0
   -1.6753   19.4491  -33.7674 H   0  0  0  0  0  0  0  0  0  0  0  0
   -0.2844   19.7169  -32.6514 H   0  0  0  0  0  0  0  0  0  0  0  0
   -1.5720   21.3010  -31.3990 H   0  0  0  0  0  0  0  0  0  0  0  0
   -4.8660   20.5624  -30.9229 H   0  0  0  0  0  0  0  0  0  0  0  0
   -5.3842   23.2877  -31.1048 H   0  0  0  0  0  0  0  0  0  0  0  0
   -5.0072   22.8061  -32.8082 H   0  0  0  0  0  0  0  0  0  0  0  0
   -7.7343   23.5551  -31.1273 H   0  0  0  0  0  0  0  0  0  0  0  0
   -9.9917   22.4995  -31.2705 H   0  0  0  0  0  0  0  0  0  0  0  0
  -10.2379   20.1895  -32.1838 H   0  0  0  0  0  0  0  0  0  0  0  0
   -8.2236   18.9283  -32.9499 H   0  0  0  0  0  0  0  0  0  0  0  0
   -5.9607   19.9697  -32.7973 H   0  0  0  0  0  0  0  0  0  0  0  0
   -3.7806   24.9154  -30.4604 H   0  0  0  0  0  0  0  0  0  0  0  0
   -3.7680   24.2265  -28.7973 H   0  0  0  0  0  0  0  0  0  0  0  0
    0.0838   25.5487  -26.7915 H   0  0  0  0  0  0  0  0  0  0  0  0
   -1.6558   26.0475  -26.9126 H   0  0  0  0  0  0  0  0  0  0  0  0
   -0.4379   23.5405  -25.8263 H   0  0  0  0  0  0  0  0  0  0  0  0
   -1.9333   24.4540  -25.3393 H   0  0  0  0  0  0  0  0  0  0  0  0
   -2.8404   22.4867  -26.1939 H   0  0  0  0  0  0  0  0  0  0  0  0
   -2.8767   23.5734  -27.6281 H   0  0  0  0  0  0  0  0  0  0  0  0
   -1.3770   22.3850  -28.6700 H   0  0  0  0  0  0  0  0  0  0  0  0
   -2.3973   20.5856  -26.6010 H   0  0  0  0  0  0  0  0  0  0  0  0
   -2.7153   20.6377  -28.3775 H   0  0  0  0  0  0  0  0  0  0  0  0
   -0.2516   19.6083  -26.9147 H   0  0  0  0  0  0  0  0  0  0  0  0
   -1.3757   18.7407  -28.0655 H   0  0  0  0  0  0  0  0  0  0  0  0
    1.0631   20.2586  -28.6186 H   0  0  0  0  0  0  0  0  0  0  0  0
    0.0996   19.1182  -29.6597 H   0  0  0  0  0  0  0  0  0  0  0  0
   -1.4590   21.1500  -29.7810 H   0  0  0  0  0  0  0  0  0  0  0  0
   -0.0520   22.0250  -29.4260 H   0  0  0  0  0  0  0  0  0  0  0  0
  1  2  1  0
  2  3  1  0
  3  4  1  0
  4  5  2  0
  4  6  1  0
  6  7  1  0
  7  8  1  0
  8  9  2  0
  9 10  1  0
 10 11  2  0
 11 12  1  0
 12 13  2  0
  6 14  1  0
 14 15  1  0
 15 16  2  0
 15 17  1  0
 17 18  1  0
 18 19  1  0
 19 20  2  0
 19 21  1  0
 21 22  1  0
 22 23  1  0
 23 24  1  0
 24 25  1  0
 25 26  1  0
 26 27  1  0
 27 28  1  0
 13  8  1  0
  1 29  1  0
  1 30  1  0
  1 31  1  0
  2 32  1  0
  2 33  1  0
  3 34  1  0
  6 35  1  1
  7 36  1  0
  7 37  1  0
  9 38  1  0
 10 39  1  0
 11 40  1  0
 12 41  1  0
 13 42  1  0
 17 43  1  0
 17 44  1  0
 21 45  1  0
 21 46  1  0
 22 47  1  0
 22 48  1  0
 23 49  1  0
 23 50  1  0
 24 51  1  0
 25 52  1  0
 25 53  1  0
 26 54  1  0
 26 55  1  0
 27 56  1  0
 27 57  1  0
 28 58  1  0
 28 59  1  0
M  CHG  2  14  -1  18  -1
M  END
>  <UniqueID>  (3) 
3

>  <SMILES>  (3) 
CCNC(=O)[C@H](Cc1ccccc1)[N-]C(=O)C[N-]C(=O)CCCNCCCN

>  <Energy>  (3) 
32.68018101456182

>  <Genealogy>  (3) 
CCNC(=O)C(Cc1ccccc1)[N-]C(=O)C[N-]C(=O)CCCNCCCN (protonated)
CCNC(=O)[C@H](Cc1ccccc1)[N-]C(=O)C[N-]C(=O)CCCNCCCN (chirality)
CCNC(=O)[C@H](Cc1ccccc1)[N-]C(=O)C[N-]C(=O)CCCNCCCN (3D coordinates assigned)
CCNC(=O)[C@H](Cc1ccccc1)[N-]C(=O)C[N-]C(=O)CCCNCCCN (optimized conformer: 32.68018101456182 kcal/mol)

>  <smiles>  (3) 
CCNC(=O)C(Cc1ccccc1)NC(=O)CNC(=O)CCCNCCCN

>  <score_type>  (3) 
oracle

>  <origin>  (3) 
adg

>  <m_score__min__energy>  (3) 
-8.9299999999999997

>  <m_primary>  (3) 
energy

$$$$
3:0
     RDKit          3D

 52 54  0  0  0  0  0  0  0  0999 V2000
   -3.0620   21.0340  -33.4560 C   0  0  0  0  0  0  0  0  0  0  0  0
   -2.1700   20.8140  -32.2260 C   0  0  0  0  0  0  0  0  0  0  0  0
   -2.8280   21.1850  -30.9460 N   0  0  0  0  0  0  0  0  0  0  0  0
   -2.2510   22.4540  -30.4300 C   0  0  0  0  0  0  0  0  0  0  0  0
   -2.3700   22.5830  -28.9070 C   0  0  0  0  0  0  0  0  0  0  0  0
   -4.3200   21.2120  -31.0170 C   0  0  0  0  0  0  0  0  0  0  0  0
   -4.8800   22.5930  -31.0490 N   0  0  0  0  0  0  0  0  0  0  0  0
   -5.5640   22.9000  -32.3340 C   0  0  0  0  0  0  0  0  0  0  0  0
   -6.8010   23.8010  -32.1620 C   0  0  0  0  0  0  0  0  0  0  0  0
   -7.7980   23.2110  -31.2360 N   0  0  0  0  0  0  0  0  0  0  0  0
   -8.7960   22.3960  -31.9610 C   0  0  0  0  0  0  0  0  0  0  0  0
   -8.3000   20.9890  -32.1460 C   0  0  0  0  0  0  0  0  0  0  0  0
   -8.8540   19.9270  -31.4140 C   0  0  0  0  0  0  0  0  0  0  0  0
   -8.3870   18.6280  -31.6220 C   0  0  0  0  0  0  0  0  0  0  0  0
   -7.3750   18.3940  -32.5600 C   0  0  0  0  0  0  0  0  0  0  0  0
   -6.8840   17.1010  -32.7960 C   0  0  0  0  0  0  0  0  0  0  0  0
   -5.8720   16.9000  -33.7420 C   0  0  0  0  0  0  0  0  0  0  0  0
   -5.3470   17.9850  -34.4520 C   0  0  0  0  0  0  0  0  0  0  0  0
   -5.8320   19.2770  -34.2250 C   0  0  0  0  0  0  0  0  0  0  0  0
   -6.8440   19.4880  -33.2810 C   0  0  0  0  0  0  0  0  0  0  0  0
   -7.3190   20.7420  -33.0560 N   0  0  0  0  0  0  0  0  0  0  0  0
   -7.1830   22.4560  -30.1130 C   0  0  0  0  0  0  0  0  0  0  0  0
   -5.7280   22.8730  -29.8650 C   0  0  0  0  0  0  0  0  0  0  0  0
   -4.0818   21.2855  -33.1291 H   0  0  0  0  0  0  0  0  0  0  0  0
   -2.6566   21.8591  -34.0601 H   0  0  0  0  0  0  0  0  0  0  0  0
   -3.0868   20.1150  -34.0601 H   0  0  0  0  0  0  0  0  0  0  0  0
   -1.8944   19.7500  -32.1809 H   0  0  0  0  0  0  0  0  0  0  0  0
   -1.2918   21.4663  -32.3408 H   0  0  0  0  0  0  0  0  0  0  0  0
   -2.5670   20.4370  -30.2580 H   0  0  0  0  0  0  0  0  0  0  0  0
   -1.1865   22.4935  -30.7042 H   0  0  0  0  0  0  0  0  0  0  0  0
   -2.8181   23.2829  -30.8785 H   0  0  0  0  0  0  0  0  0  0  0  0
   -1.6999   21.8566  -28.4240 H   0  0  0  0  0  0  0  0  0  0  0  0
   -2.0876   23.6015  -28.6021 H   0  0  0  0  0  0  0  0  0  0  0  0
   -3.4079   22.3835  -28.6021 H   0  0  0  0  0  0  0  0  0  0  0  0
   -4.6365   20.6849  -31.9291 H   0  0  0  0  0  0  0  0  0  0  0  0
   -4.7001   20.7255  -30.1066 H   0  0  0  0  0  0  0  0  0  0  0  0
   -4.8497   23.4096  -32.9974 H   0  0  0  0  0  0  0  0  0  0  0  0
   -5.9108   21.9453  -32.7562 H   0  0  0  0  0  0  0  0  0  0  0  0
   -6.4782   24.7737  -31.7624 H   0  0  0  0  0  0  0  0  0  0  0  0
   -7.2782   23.9119  -33.1469 H   0  0  0  0  0  0  0  0  0  0  0  0
   -9.7329   22.3758  -31.3849 H   0  0  0  0  0  0  0  0  0  0  0  0
   -8.9663   22.8439  -32.9511 H   0  0  0  0  0  0  0  0  0  0  0  0
   -9.6515   20.1173  -30.6807 H   0  0  0  0  0  0  0  0  0  0  0  0
   -8.8133   17.7906  -31.0502 H   0  0  0  0  0  0  0  0  0  0  0  0
   -7.2939   16.2461  -32.2382 H   0  0  0  0  0  0  0  0  0  0  0  0
   -5.4884   15.8859  -33.9276 H   0  0  0  0  0  0  0  0  0  0  0  0
   -4.5495   17.8213  -35.1918 H   0  0  0  0  0  0  0  0  0  0  0  0
   -5.4185   20.1268  -34.7879 H   0  0  0  0  0  0  0  0  0  0  0  0
   -7.7660   22.6425  -29.1990 H   0  0  0  0  0  0  0  0  0  0  0  0
   -7.1885   21.3888  -30.3795 H   0  0  0  0  0  0  0  0  0  0  0  0
   -5.6959   23.9508  -29.6476 H   0  0  0  0  0  0  0  0  0  0  0  0
   -5.3401   22.2937  -29.0142 H   0  0  0  0  0  0  0  0  0  0  0  0
  1  2  1  0
  2  3  1  0
  3  4  1  0
  4  5  1  0
  3  6  1  0
  6  7  1  0
  7  8  1  0
  8  9  1  0
  9 10  1  0
 10 11  1  0
 11 12  1  0
 12 13  2  0
 13 14  1  0
 14 15  2  0
 15 16  1  0
 16 17  2  0
 17 18  1  0
 18 19  2  0
 19 20  1  0
 20 21  2  0
 10 22  1  0
 22 23  1  0
 23  7  1  0
 21 12  1  0
 20 15  1  0
  1 24  1  0
  1 25  1  0
  1 26  1  0
  2 27  1  0
  2 28  1  0
  3 29  1  0
  4 30  1  0
  4 31  1  0
  5 32  1  0
  5 33  1  0
  5 34  1  0
  6 35  1  0
  6 36  1  0
  8 37  1  0
  8 38  1  0
  9 39  1  0
  9 40  1  0
 11 41  1  0
 11 42  1  0
 13 43  1  0
 14 44  1  0
 16 45  1  0
 17 46  1  0
 18 47  1  0
 19 48  1  0
 22 49  1  0
 22 50  1  0
 23 51  1  0
 23 52  1  0
M  CHG  1   3   1
M  END
>  <UniqueID>  (4) 
4

>  <SMILES>  (4) 
CC[NH+](CC)CN1CCN(Cc2ccc3ccccc3n2)CC1

>  <Energy>  (4) 
75.59257537390715

>  <Genealogy>  (4) 
CC[NH+](CC)CN1CCN(Cc2ccc3ccccc3n2)CC1 (protonated)
CC[NH+](CC)CN1CCN(Cc2ccc3ccccc3n2)CC1 (3D coordinates assigned)
CC[NH+](CC)CN1CCN(Cc2ccc3ccccc3n2)CC1 (nonaromatic ring conformer: 75.59257537390715 kcal/mol)

>  <smiles>  (4) 
CCN(CC)CN1CCN(Cc2ccc3ccccc3n2)CC1

>  <score_type>  (4) 
oracle

>  <origin>  (4) 
adg

>  <m_score__min__energy>  (4) 
-7.1500000000000004

>  <m_primary>  (4) 
energy

$$$$
4:0
     RDKit          3D

 43 46  0  0  0  0  0  0  0  0999 V2000
   -0.8430   26.8580  -24.0820 C   0  0  0  0  0  0  0  0  0  0  0  0
    0.2180   27.8670  -24.5290 C   0  0  0  0  0  0  0  0  0  0  0  0
    0.4020   27.8370  -26.0010 N   0  0  0  0  0  0  0  0  0  0  0  0
    0.8230   29.1200  -26.6180 C   0  0  0  0  0  0  0  0  0  0  0  0
   -0.3850   29.9330  -27.0860 C   0  0  0  0  0  0  0  0  0  0  0  0
    0.1790   26.7370  -26.7250 C   0  0  0  0  0  0  0  0  0  0  0  0
    1.1270   25.6700  -26.7740 C   0  0  0  0  0  0  0  0  0  0  0  0
    0.9180   24.5100  -27.5270 C   0  0  0  0  0  0  0  0  0  0  0  0
   -0.2470   24.3580  -28.2710 C   0  0  0  0  0  0  0  0  0  0  0  0
   -0.4890   23.2470  -29.0150 N   0  0  0  0  0  0  0  0  0  0  0  0
   -1.6440   23.1240  -29.7340 C   0  0  0  0  0  0  0  0  0  0  0  0
   -1.8800   21.9730  -30.4970 C   0  0  0  0  0  0  0  0  0  0  0  0
   -3.0560   21.8400  -31.2340 C   0  0  0  0  0  0  0  0  0  0  0  0
   -4.0210   22.8550  -31.2230 C   0  0  0  0  0  0  0  0  0  0  0  0
   -5.2030   22.7140  -31.9670 C   0  0  0  0  0  0  0  0  0  0  0  0
   -6.1650   23.7250  -31.9590 C   0  0  0  0  0  0  0  0  0  0  0  0
   -5.9580   24.8840  -31.2080 C   0  0  0  0  0  0  0  0  0  0  0  0
   -4.7870   25.0400  -30.4620 C   0  0  0  0  0  0  0  0  0  0  0  0
   -3.8040   24.0300  -30.4590 C   0  0  0  0  0  0  0  0  0  0  0  0
   -2.6130   24.1640  -29.7120 C   0  0  0  0  0  0  0  0  0  0  0  0
   -2.3820   25.2830  -28.9700 N   0  0  0  0  0  0  0  0  0  0  0  0
   -1.2450   25.4320  -28.2470 C   0  0  0  0  0  0  0  0  0  0  0  0
   -1.0150   26.5790  -27.4900 C   0  0  0  0  0  0  0  0  0  0  0  0
   -0.8777   26.8250  -22.9830 H   0  0  0  0  0  0  0  0  0  0  0  0
   -1.8258   27.1628  -24.4709 H   0  0  0  0  0  0  0  0  0  0  0  0
   -0.5879   25.8612  -24.4709 H   0  0  0  0  0  0  0  0  0  0  0  0
   -0.0978   28.8767  -24.2276 H   0  0  0  0  0  0  0  0  0  0  0  0
    1.1735   27.6007  -24.0535 H   0  0  0  0  0  0  0  0  0  0  0  0
    1.3848   29.7071  -25.8766 H   0  0  0  0  0  0  0  0  0  0  0  0
    1.4511   28.8956  -27.4927 H   0  0  0  0  0  0  0  0  0  0  0  0
   -0.9379   30.3051  -26.2108 H   0  0  0  0  0  0  0  0  0  0  0  0
   -0.0415   30.7844  -27.6919 H   0  0  0  0  0  0  0  0  0  0  0  0
   -1.0444   29.2942  -27.6919 H   0  0  0  0  0  0  0  0  0  0  0  0
    2.0585   25.7642  -26.1966 H   0  0  0  0  0  0  0  0  0  0  0  0
    1.6781   23.7149  -27.5307 H   0  0  0  0  0  0  0  0  0  0  0  0
    0.2190   22.4760  -29.0350 H   0  0  0  0  0  0  0  0  0  0  0  0
   -1.1312   21.1674  -30.5148 H   0  0  0  0  0  0  0  0  0  0  0  0
   -3.2273   20.9307  -31.8288 H   0  0  0  0  0  0  0  0  0  0  0  0
   -5.3718   21.8024  -32.5591 H   0  0  0  0  0  0  0  0  0  0  0  0
   -7.0883   23.6087  -32.5455 H   0  0  0  0  0  0  0  0  0  0  0  0
   -6.7200   25.6773  -31.2037 H   0  0  0  0  0  0  0  0  0  0  0  0
   -4.6314   25.9563  -29.8737 H   0  0  0  0  0  0  0  0  0  0  0  0
   -1.7696   27.3793  -27.4820 H   0  0  0  0  0  0  0  0  0  0  0  0
  1  2  1  0
  2  3  1  0
  3  4  1  0
  4  5  1  0
  3  6  2  3
  6  7  1  0
  7  8  2  0
  8  9  1  0
  9 10  2  0
 10 11  1  0
 11 12  2  0
 12 13  1  0
 13 14  2  0
 14 15  1  0
 15 16  2  0
 16 17  1  0
 17 18  2  0
 18 19  1  0
 19 20  2  0
 20 21  1  0
 21 22  1  0
 22 23  2  0
 23  6  1  0
 22  9  1  0
 20 11  1  0
 19 14  1  0
  1 24  1  0
  1 25  1  0
  1 26  1  0
  2 27  1  0
  2 28  1  0
  4 29  1  0
  4 30  1  0
  5 31  1  0
  5 32  1  0
  5 33  1  0
  7 34  1  0
  8 35  1  0
 10 36  1  0
 12 37  1  0
 13 38  1  0
 15 39  1  0
 16 40  1  0
 17 41  1  0
 18 42  1  0
 23 43  1  0
M  CHG  3   3   1  10   1  21  -1
M  END
>  <UniqueID>  (5) 
5

>  <SMILES>  (5) 
CC[N+](CC)=c1ccc2[nH+]c3ccc4ccccc4c3[n-]c-2c1

>  <Energy>  (5) 
63.90491172973408

>  <Genealogy>  (5) 
CC[N+](CC)=c1ccc2[nH+]c3ccc4ccccc4c3[n-]c-2c1 (protonated)
CC[N+](CC)=c1ccc2[nH+]c3ccc4ccccc4c3[n-]c-2c1 (3D coordinates assigned)
CC[N+](CC)=c1ccc2[nH+]c3ccc4ccccc4c3[n-]c-2c1 (optimized conformer: 63.90491172973408 kcal/mol)

>  <smiles>  (5) 
CC[N+](CC)=c1ccc2nc3ccc4ccccc4c3[nH]c-2c1

>  <score_type>  (5) 
oracle

>  <origin>  (5) 
adg

>  <m_score__min__energy>  (5) 
-7.2300000000000004

>  <m_primary>  (5) 
energy

$$$$
5:0
     RDKit          3D

 51 53  0  0  0  0  0  0  0  0999 V2000
   -2.7330   25.6100  -25.8100 C   0  0  0  0  0  0  0  0  0  0  0  0
   -3.9790   24.9140  -26.3530 C   0  0  0  0  0  0  0  0  0  0  0  0
   -3.7800   24.5390  -27.7590 N   0  0  0  0  0  0  0  0  0  0  0  0
   -2.3540   24.4830  -28.1080 C   0  0  0  0  0  0  0  0  0  0  0  0
   -2.1780   24.0290  -29.5630 C   0  0  0  0  0  0  0  0  0  0  0  0
   -3.5180   23.8430  -30.2890 C   0  0  0  0  0  0  0  0  0  0  0  0
   -4.1680   25.1400  -30.5110 N   0  0  0  0  0  0  0  0  0  0  0  0
   -5.5160   24.9510  -31.0560 C   0  0  0  0  0  0  0  0  0  0  0  0
   -5.9000   23.4720  -30.9940 C   0  0  0  0  0  0  0  0  0  0  0  0
   -5.8880   22.8730  -32.3300 N   0  0  0  0  0  0  0  0  0  0  0  0
   -5.8030   21.4550  -32.5380 C   0  0  0  0  0  0  0  0  0  0  0  0
   -6.9380   20.6260  -32.4180 C   0  0  0  0  0  0  0  0  0  0  0  0
   -8.2010   21.1760  -32.1220 C   0  0  0  0  0  0  0  0  0  0  0  0
   -9.3320   20.3650  -32.0610 C   0  0  0  0  0  0  0  0  0  0  0  0
   -9.2280   19.0010  -32.3070 C   0  0  0  0  0  0  0  0  0  0  0  0
   -7.9900   18.4290  -32.5970 C   0  0  0  0  0  0  0  0  0  0  0  0
   -6.8110   19.2160  -32.6370 C   0  0  0  0  0  0  0  0  0  0  0  0
   -5.5680   18.6540  -32.8980 N   0  0  0  0  0  0  0  0  0  0  0  0
   -5.4020   17.1890  -32.9860 C   0  0  0  0  0  0  0  0  0  0  0  0
   -4.4870   19.4870  -33.0770 C   0  0  0  0  0  0  0  0  0  0  0  0
   -3.1800   19.1010  -33.4510 C   0  0  0  0  0  0  0  0  0  0  0  0
   -2.2860   20.1650  -33.5090 C   0  0  0  0  0  0  0  0  0  0  0  0
   -3.1020   21.5840  -33.1170 S   0  0  0  0  0  0  0  0  0  0  0  0
   -4.5990   20.8560  -32.8860 C   0  0  0  0  0  0  0  0  0  0  0  0
   -2.7558   25.5973  -24.7103 H   0  0  0  0  0  0  0  0  0  0  0  0
   -1.8348   25.0829  -26.1643 H   0  0  0  0  0  0  0  0  0  0  0  0
   -2.7108   26.6512  -26.1643 H   0  0  0  0  0  0  0  0  0  0  0  0
   -4.1766   24.0087  -25.7602 H   0  0  0  0  0  0  0  0  0  0  0  0
   -4.8335   25.6032  -26.2834 H   0  0  0  0  0  0  0  0  0  0  0  0
   -4.2240   25.2750  -28.3580 H   0  0  0  0  0  0  0  0  0  0  0  0
   -1.9107   25.4820  -27.9837 H   0  0  0  0  0  0  0  0  0  0  0  0
   -1.8521   23.7623  -27.4457 H   0  0  0  0  0  0  0  0  0  0  0  0
   -1.5886   24.7869  -30.0998 H   0  0  0  0  0  0  0  0  0  0  0  0
   -1.6683   23.0543  -29.5488 H   0  0  0  0  0  0  0  0  0  0  0  0
   -3.3392   23.3571  -31.2595 H   0  0  0  0  0  0  0  0  0  0  0  0
   -4.1754   23.2180  -29.6667 H   0  0  0  0  0  0  0  0  0  0  0  0
   -4.2560   25.6170  -29.5830 H   0  0  0  0  0  0  0  0  0  0  0  0
   -6.2339   25.5392  -30.4656 H   0  0  0  0  0  0  0  0  0  0  0  0
   -5.5333   25.2860  -32.1036 H   0  0  0  0  0  0  0  0  0  0  0  0
   -5.1809   22.9397  -30.3541 H   0  0  0  0  0  0  0  0  0  0  0  0
   -6.9161   23.3896  -30.5808 H   0  0  0  0  0  0  0  0  0  0  0  0
   -5.7870   23.5060  -33.1550 H   0  0  0  0  0  0  0  0  0  0  0  0
   -8.2949   22.2563  -31.9373 H   0  0  0  0  0  0  0  0  0  0  0  0
  -10.3101   20.8054  -31.8175 H   0  0  0  0  0  0  0  0  0  0  0  0
  -10.1277   18.3691  -32.2727 H   0  0  0  0  0  0  0  0  0  0  0  0
   -7.9268   17.3494  -32.7981 H   0  0  0  0  0  0  0  0  0  0  0  0
   -5.3538   16.7639  -31.9726 H   0  0  0  0  0  0  0  0  0  0  0  0
   -6.2567   16.7549  -33.5255 H   0  0  0  0  0  0  0  0  0  0  0  0
   -4.4718   16.9571  -33.5255 H   0  0  0  0  0  0  0  0  0  0  0  0
   -2.8975   18.0616  -33.6742 H   0  0  0  0  0  0  0  0  0  0  0  0
   -1.2196   20.0911  -33.7687 H   0  0  0  0  0  0  0  0  0  0  0  0
  1  2  1  0
  2  3  1  0
  3  4  1  0
  4  5  1  0
  5  6  1  0
  6  7  1  0
  7  8  1  0
  8  9  1  0
  9 10  1  0
 10 11  1  0
 11 12  2  0
 12 13  1  0
 13 14  2  0
 14 15  1  0
 15 16  2  0
 16 17  1  0
 17 18  2  0
 18 19  1  0
 18 20  1  0
 20 21  1  0
 21 22  2  0
 22 23  1  0
 23 24  1  0
 24 11  1  0
 17 12  1  0
 24 20  2  0
  1 25  1  0
  1 26  1  0
  1 27  1  0
  2 28  1  0
  2 29  1  0
  3 30  1  0
  4 31  1  0
  4 32  1  0
  5 33  1  0
  5 34  1  0
  6 35  1  0
  6 36  1  0
  7 37  1  0
  8 38  1  0
  8 39  1  0
  9 40  1  0
  9 41  1  0
 10 42  1  0
 13 43  1  0
 14 44  1  0
 15 45  1  0
 16 46  1  0
 19 47  1  0
 19 48  1  0
 19 49  1  0
 21 50  1  0
 22 51  1  0
M  CHG  1  18   1
M  END
>  <UniqueID>  (6) 
6

>  <SMILES>  (6) 
CCNCCCNCCNc1c2ccccc2[n+](C)c2ccsc12

>  <Energy>  (6) 
88.92852174800564

>  <Genealogy>  (6) 
CCNCCCNCCNc1c2ccccc2[n+](C)c2ccsc12 (3D coordinates assigned)
CCNCCCNCCNc1c2ccccc2[n+](C)c2ccsc12 (optimized conformer: 88.92852174800564 kcal/mol)

>  <smiles>  (6) 
CCNCCCNCCNc1c2ccccc2[n+](C)c2ccsc12

>  <score_type>  (6) 
oracle

>  <origin>  (6) 
adg

>  <m_score__min__energy>  (6) 
-8.5099999999999998

>  <m_primary>  (6) 
energy

$$$$
6:0
     RDKit          3D

 74 76  0  0  0  0  0  0  0  0999 V2000
   -5.7130   16.4970  -31.3550 C   0  0  0  0  0  0  0  0  0  0  0  0
   -6.4670   17.8310  -31.2340 C   0  0  0  0  0  0  0  0  0  0  0  0
   -7.3920   18.1150  -32.3570 N   0  0  0  0  0  0  0  0  0  0  0  0
   -7.2380   17.1750  -33.4800 C   0  0  0  0  0  0  0  0  0  0  0  0
   -8.8010   18.2560  -31.9320 C   0  0  0  0  0  0  0  0  0  0  0  0
   -9.4270   19.4750  -32.6120 C   0  0  0  0  0  0  0  0  0  0  0  0
   -8.4540   20.5710  -32.6600 N   0  0  0  0  0  0  0  0  0  0  0  0
   -8.7610   21.5890  -31.6490 C   0  0  0  0  0  0  0  0  0  0  0  0
   -7.6530   22.6550  -31.6110 C   0  0  0  0  0  0  0  0  0  0  0  0
   -6.6980   22.5400  -32.7340 N   0  0  0  0  0  0  0  0  0  0  0  0
   -5.3790   22.0910  -32.2990 C   0  0  0  0  0  0  0  0  0  0  0  0
   -4.8050   20.8790  -32.7900 C   0  0  0  0  0  0  0  0  0  0  0  0
   -5.4570   20.0580  -33.7470 C   0  0  0  0  0  0  0  0  0  0  0  0
   -4.8460   18.9150  -34.2570 C   0  0  0  0  0  0  0  0  0  0  0  0
   -3.5740   18.5610  -33.8410 C   0  0  0  0  0  0  0  0  0  0  0  0
   -2.9210   19.3180  -32.8770 C   0  0  0  0  0  0  0  0  0  0  0  0
   -3.5330   20.4610  -32.2990 C   0  0  0  0  0  0  0  0  0  0  0  0
   -2.9120   21.1610  -31.2870 N   0  0  0  0  0  0  0  0  0  0  0  0
   -1.7930   20.5390  -30.5390 C   0  0  0  0  0  0  0  0  0  0  0  0
   -3.3540   22.4180  -30.9400 C   0  0  0  0  0  0  0  0  0  0  0  0
   -2.5590   23.2770  -30.1380 C   0  0  0  0  0  0  0  0  0  0  0  0
   -3.0320   24.5260  -29.7090 C   0  0  0  0  0  0  0  0  0  0  0  0
   -2.2760   25.3920  -28.9000 O   0  0  0  0  0  0  0  0  0  0  0  0
   -1.4710   25.0020  -27.7870 C   0  0  0  0  0  0  0  0  0  0  0  0
   -1.9130   25.7590  -26.5160 C   0  0  0  0  0  0  0  0  0  0  0  0
   -0.8220   26.4830  -25.7940 N   0  0  0  0  0  0  0  0  0  0  0  0
   -0.6070   27.8370  -26.3580 C   0  0  0  0  0  0  0  0  0  0  0  0
   -1.2320   26.6280  -24.3760 C   0  0  0  0  0  0  0  0  0  0  0  0
    0.4470   25.7170  -25.8350 C   0  0  0  0  0  0  0  0  0  0  0  0
   -4.2990   24.9370  -30.0980 C   0  0  0  0  0  0  0  0  0  0  0  0
   -5.0820   24.1390  -30.9260 C   0  0  0  0  0  0  0  0  0  0  0  0
   -4.6180   22.8840  -31.3930 C   0  0  0  0  0  0  0  0  0  0  0  0
   -5.4930   16.1077  -30.3500 H   0  0  0  0  0  0  0  0  0  0  0  0
   -6.3351   15.7724  -31.9008 H   0  0  0  0  0  0  0  0  0  0  0  0
   -4.7713   16.6563  -31.9008 H   0  0  0  0  0  0  0  0  0  0  0  0
   -7.0519   17.8124  -30.3026 H   0  0  0  0  0  0  0  0  0  0  0  0
   -5.7054   18.6246  -31.2459 H   0  0  0  0  0  0  0  0  0  0  0  0
   -7.0718   16.1604  -33.0888 H   0  0  0  0  0  0  0  0  0  0  0  0
   -8.1499   17.1860  -34.0950 H   0  0  0  0  0  0  0  0  0  0  0  0
   -6.3773   17.4764  -34.0950 H   0  0  0  0  0  0  0  0  0  0  0  0
   -9.3603   17.3522  -32.2155 H   0  0  0  0  0  0  0  0  0  0  0  0
   -8.8400   18.3885  -30.8407 H   0  0  0  0  0  0  0  0  0  0  0  0
   -9.7271   19.2080  -33.6360 H   0  0  0  0  0  0  0  0  0  0  0  0
  -10.3092   19.7972  -32.0394 H   0  0  0  0  0  0  0  0  0  0  0  0
   -7.5060   20.1780  -32.4470 H   0  0  0  0  0  0  0  0  0  0  0  0
   -9.7187   22.0698  -31.8974 H   0  0  0  0  0  0  0  0  0  0  0  0
   -8.8264   21.1057  -30.6630 H   0  0  0  0  0  0  0  0  0  0  0  0
   -8.1222   23.6491  -31.6510 H   0  0  0  0  0  0  0  0  0  0  0  0
   -7.0851   22.5044  -30.6811 H   0  0  0  0  0  0  0  0  0  0  0  0
   -7.1120   21.9600  -33.4900 H   0  0  0  0  0  0  0  0  0  0  0  0
   -6.6140   23.4670  -33.2090 H   0  0  0  0  0  0  0  0  0  0  0  0
   -6.4652   20.3300  -34.0928 H   0  0  0  0  0  0  0  0  0  0  0  0
   -5.3757   18.2918  -34.9925 H   0  0  0  0  0  0  0  0  0  0  0  0
   -3.0799   17.6790  -34.2745 H   0  0  0  0  0  0  0  0  0  0  0  0
   -1.9104   19.0263  -32.5552 H   0  0  0  0  0  0  0  0  0  0  0  0
   -1.9736   20.6394  -29.4586 H   0  0  0  0  0  0  0  0  0  0  0  0
   -1.7240   19.4731  -30.8018 H   0  0  0  0  0  0  0  0  0  0  0  0
   -0.8513   21.0431  -30.8018 H   0  0  0  0  0  0  0  0  0  0  0  0
   -1.5482   22.9561  -29.8458 H   0  0  0  0  0  0  0  0  0  0  0  0
   -1.5800   23.9200  -27.6215 H   0  0  0  0  0  0  0  0  0  0  0  0
   -0.4201   25.2458  -28.0020 H   0  0  0  0  0  0  0  0  0  0  0  0
   -2.6759   26.4961  -26.8070 H   0  0  0  0  0  0  0  0  0  0  0  0
   -2.2846   24.9936  -25.8188 H   0  0  0  0  0  0  0  0  0  0  0  0
   -0.4919   28.5616  -25.5384 H   0  0  0  0  0  0  0  0  0  0  0  0
    0.3023   27.8362  -26.9771 H   0  0  0  0  0  0  0  0  0  0  0  0
   -1.4718   28.1179  -26.9771 H   0  0  0  0  0  0  0  0  0  0  0  0
   -0.3986   26.3333  -23.7214 H   0  0  0  0  0  0  0  0  0  0  0  0
   -1.5013   27.6759  -24.1775 H   0  0  0  0  0  0  0  0  0  0  0  0
   -2.1002   25.9824  -24.1775 H   0  0  0  0  0  0  0  0  0  0  0  0
    0.7853   25.5128  -24.8084 H   0  0  0  0  0  0  0  0  0  0  0  0
    0.2844   24.7661  -26.3635 H   0  0  0  0  0  0  0  0  0  0  0  0
    1.2127   26.3039  -26.3635 H   0  0  0  0  0  0  0  0  0  0  0  0
   -4.6885   25.9043  -29.7479 H   0  0  0  0  0  0  0  0  0  0  0  0
   -6.0812   24.4892  -31.2242 H   0  0  0  0  0  0  0  0  0  0  0  0
  1  2  1  0
  2  3  1  0
  3  4  1  0
  3  5  1  0
  5  6  1  0
  6  7  1  0
  7  8  1  0
  8  9  1  0
  9 10  1  0
 10 11  1  0
 11 12  2  0
 12 13  1  0
 13 14  2  0
 14 15  1  0
 15 16  2  0
 16 17  1  0
 17 18  2  0
 18 19  1  0
 18 20  1  0
 20 21  2  0
 21 22  1  0
 22 23  1  0
 23 24  1  0
 24 25  1  0
 25 26  1  0
 26 27  1  0
 26 28  1  0
 26 29  1  0
 22 30  2  0
 30 31  1  0
 31 32  2  0
 32 11  1  0
 17 12  1  0
 32 20  1  0
  1 33  1  0
  1 34  1  0
  1 35  1  0
  2 36  1  0
  2 37  1  0
  4 38  1  0
  4 39  1  0
  4 40  1  0
  5 41  1  0
  5 42  1  0
  6 43  1  0
  6 44  1  0
  7 45  1  0
  8 46  1  0
  8 47  1  0
  9 48  1  0
  9 49  1  0
 10 50  1  0
 10 51  1  0
 13 52  1  0
 14 53  1  0
 15 54  1  0
 16 55  1  0
 19 56  1  0
 19 57  1  0
 19 58  1  0
 21 59  1  0
 24 60  1  0
 24 61  1  0
 25 62  1  0
 25 63  1  0
 27 64  1  0
 27 65  1  0
 27 66  1  0
 28 67  1  0
 28 68  1  0
 28 69  1  0
 29 70  1  0
 29 71  1  0
 29 72  1  0
 30 73  1  0
 31 74  1  0
M  CHG  3  10   1  18   1  26   1
M  END
>  <UniqueID>  (7) 
7

>  <SMILES>  (7) 
CCN(C)CCNCC[NH2+]c1c2ccccc2[n+](C)c2cc(OCC[N+](C)(C)C)ccc12

>  <Energy>  (7) 
104.11203258486593

>  <Genealogy>  (7) 
CCN(C)CCNCC[NH2+]c1c2ccccc2[n+](C)c2cc(OCC[N+](C)(C)C)ccc12 (protonated)
CCN(C)CCNCC[NH2+]c1c2ccccc2[n+](C)c2cc(OCC[N+](C)(C)C)ccc12 (3D coordinates assigned)
CCN(C)CCNCC[NH2+]c1c2ccccc2[n+](C)c2cc(OCC[N+](C)(C)C)ccc12 (optimized conformer: 104.11203258486593 kcal/mol)

>  <smiles>  (7) 
CCN(C)CCNCCNc1c2ccccc2[n+](C)c2cc(OCC[N+](C)(C)C)ccc12

>  <score_type>  (7) 
oracle

>  <origin>  (7) 
adg

>  <m_score__min__energy>  (7) 
-7.5700000000000003

>  <m_primary>  (7) 
energy

$$$$
7:0
     RDKit          3D

 51 53  0  0  0  0  0  0  0  0999 V2000
   -2.4510   23.7190  -29.5970 C   0  0  0  0  0  0  0  0  0  0  0  0
   -3.7040   24.5370  -29.2970 C   0  0  0  0  0  0  0  0  0  0  0  0
   -4.0570   25.3990  -30.4370 N   0  0  0  0  0  0  0  0  0  0  0  0
   -5.4580   25.2550  -30.8630 C   0  0  0  0  0  0  0  0  0  0  0  0
   -5.7910   23.8390  -31.2730 C   0  0  0  0  0  0  0  0  0  0  0  0
   -4.8490   23.0580  -31.9570 C   0  0  0  0  0  0  0  0  0  0  0  0
   -5.1550   21.7490  -32.3350 C   0  0  0  0  0  0  0  0  0  0  0  0
   -6.4010   21.1850  -32.0140 C   0  0  0  0  0  0  0  0  0  0  0  0
   -7.3740   21.9890  -31.3710 C   0  0  0  0  0  0  0  0  0  0  0  0
   -7.0550   23.3010  -30.9920 C   0  0  0  0  0  0  0  0  0  0  0  0
   -8.8010   21.5100  -31.2030 C   0  0  0  0  0  0  0  0  0  0  0  0
   -8.9790   20.0060  -31.4620 C   0  0  0  0  0  0  0  0  0  0  0  0
   -8.1440   19.5610  -32.6610 C   0  0  0  0  0  0  0  0  0  0  0  0
   -6.7290   19.8230  -32.3730 N   0  0  0  0  0  0  0  0  0  0  0  0
   -5.8960   18.6960  -31.9080 C   0  0  0  0  0  0  0  0  0  0  0  0
   -4.9870   18.1390  -32.9930 C   0  0  0  0  0  0  0  0  0  0  0  0
   -5.4690   17.1440  -33.8890 C   0  0  0  0  0  0  0  0  0  0  0  0
   -6.8730   16.5980  -33.7940 C   0  0  0  0  0  0  0  0  0  0  0  0
   -4.6150   16.6160  -34.8690 C   0  0  0  0  0  0  0  0  0  0  0  0
   -3.3040   17.0620  -34.9820 C   0  0  0  0  0  0  0  0  0  0  0  0
   -2.8180   18.0370  -34.1180 C   0  0  0  0  0  0  0  0  0  0  0  0
   -3.6380   18.5870  -33.1210 C   0  0  0  0  0  0  0  0  0  0  0  0
   -3.0520   19.6390  -32.2120 C   0  0  0  0  0  0  0  0  0  0  0  0
   -1.9793   23.4110  -28.6522 H   0  0  0  0  0  0  0  0  0  0  0  0
   -2.7263   22.8261  -30.1775 H   0  0  0  0  0  0  0  0  0  0  0  0
   -1.7443   24.3303  -30.1775 H   0  0  0  0  0  0  0  0  0  0  0  0
   -4.5399   23.8522  -29.0915 H   0  0  0  0  0  0  0  0  0  0  0  0
   -3.5049   25.1753  -28.4235 H   0  0  0  0  0  0  0  0  0  0  0  0
   -3.8830   26.3950  -30.1660 H   0  0  0  0  0  0  0  0  0  0  0  0
   -6.1130   25.5447  -30.0281 H   0  0  0  0  0  0  0  0  0  0  0  0
   -5.6116   25.9033  -31.7383 H   0  0  0  0  0  0  0  0  0  0  0  0
   -3.8618   23.4793  -32.1977 H   0  0  0  0  0  0  0  0  0  0  0  0
   -4.4139   21.1542  -32.8890 H   0  0  0  0  0  0  0  0  0  0  0  0
   -7.8038   23.9141  -30.4691 H   0  0  0  0  0  0  0  0  0  0  0  0
   -9.1214   21.7259  -30.1731 H   0  0  0  0  0  0  0  0  0  0  0  0
   -9.4096   22.0405  -31.9501 H   0  0  0  0  0  0  0  0  0  0  0  0
   -8.6584   19.4460  -30.5712 H   0  0  0  0  0  0  0  0  0  0  0  0
  -10.0394   19.8077  -31.6770 H   0  0  0  0  0  0  0  0  0  0  0  0
   -8.2928   18.4854  -32.8368 H   0  0  0  0  0  0  0  0  0  0  0  0
   -8.4525   20.1163  -33.5590 H   0  0  0  0  0  0  0  0  0  0  0  0
   -5.2712   19.0439  -31.0722 H   0  0  0  0  0  0  0  0  0  0  0  0
   -6.5774   17.8878  -31.6039 H   0  0  0  0  0  0  0  0  0  0  0  0
   -7.1532   16.4890  -32.7359 H   0  0  0  0  0  0  0  0  0  0  0  0
   -7.5700   17.2906  -34.2884 H   0  0  0  0  0  0  0  0  0  0  0  0
   -6.9189   15.6165  -34.2884 H   0  0  0  0  0  0  0  0  0  0  0  0
   -4.9873   15.8409  -35.5550 H   0  0  0  0  0  0  0  0  0  0  0  0
   -2.6477   16.6419  -35.7584 H   0  0  0  0  0  0  0  0  0  0  0  0
   -1.7780   18.3814  -34.2173 H   0  0  0  0  0  0  0  0  0  0  0  0
   -3.2136   19.3488  -31.1634 H   0  0  0  0  0  0  0  0  0  0  0  0
   -1.9729   19.7305  -32.4050 H   0  0  0  0  0  0  0  0  0  0  0  0
   -3.5422   20.6047  -32.4050 H   0  0  0  0  0  0  0  0  0  0  0  0
  1  2  1  0
  2  3  1  0
  3  4  1  0
  4  5  1  0
  5  6  2  0
  6  7  1  0
  7  8  2  0
  8  9  1  0
  9 10  2  0
  9 11  1  0
 11 12  1  0
 12 13  1  0
 13 14  1  0
 14 15  1  0
 15 16  1  0
 16 17  2  0
 17 18  1  0
 17 19  1  0
 19 20  2  0
 20 21  1  0
 21 22  2  0
 22 23  1  0
 10  5  1  0
 22 16  1  0
 14  8  1  0
  1 24  1  0
  1 25  1  0
  1 26  1  0
  2 27  1  0
  2 28  1  0
  3 29  1  0
  4 30  1  0
  4 31  1  0
  6 32  1  0
  7 33  1  0
 10 34  1  0
 11 35  1  0
 11 36  1  0
 12 37  1  0
 12 38  1  0
 13 39  1  0
 13 40  1  0
 15 41  1  0
 15 42  1  0
 18 43  1  0
 18 44  1  0
 18 45  1  0
 19 46  1  0
 20 47  1  0
 21 48  1  0
 23 49  1  0
 23 50  1  0
 23 51  1  0
M  END
>  <UniqueID>  (8) 
8

>  <SMILES>  (8) 
CCNCc1ccc2c(c1)CCCN2Cc1c(C)cccc1C

>  <Energy>  (8) 
58.7213627499542

>  <Genealogy>  (8) 
CCNCc1ccc2c(c1)CCCN2Cc1c(C)cccc1C (3D coordinates assigned)
CCNCc1ccc2c(c1)CCCN2Cc1c(C)cccc1C (nonaromatic ring conformer: 58.7213627499542 kcal/mol)

>  <smiles>  (8) 
CCNCc1ccc2c(c1)CCCN2Cc1c(C)cccc1C

>  <score_type>  (8) 
oracle

>  <origin>  (8) 
adg

>  <m_score__min__energy>  (8) 
-9.1500000000000004

>  <m_primary>  (8) 
energy

$$$$
8:0
     RDKit          3D

 24 24  0  0  0  0  0  0  0  0999 V2000
   -7.0547   23.2584  -29.5323 H   0  0  0  0  0  0  0  0  0  0  0  0
   -7.1870   23.2050  -30.6230 C   0  0  0  0  0  0  0  0  0  0  0  0
   -6.6800   24.1880  -31.3740 C   0  0  0  0  0  0  0  0  0  0  0  0
   -6.9520   24.2474  -32.4382 H   0  0  0  0  0  0  0  0  0  0  0  0
   -5.7460   25.2140  -30.7950 C   0  0  0  0  0  0  0  0  0  0  0  0
   -5.9014   25.2591  -29.7070 H   0  0  0  0  0  0  0  0  0  0  0  0
   -5.9688   26.1787  -31.2744 H   0  0  0  0  0  0  0  0  0  0  0  0
   -4.3320   24.8980  -31.0580 N   0  0  0  0  0  0  0  0  0  0  0  0
   -3.8740   25.6730  -31.5910 H   0  0  0  0  0  0  0  0  0  0  0  0
   -3.5730   24.5490  -29.8430 C   0  0  0  0  0  0  0  0  0  0  0  0
   -2.9857   25.4248  -29.5300 H   0  0  0  0  0  0  0  0  0  0  0  0
   -2.9249   23.6944  -30.0871 H   0  0  0  0  0  0  0  0  0  0  0  0
   -4.4830   24.1280  -28.6850 C   0  0  0  0  0  0  0  0  0  0  0  0
   -3.9893   24.3564  -27.7289 H   0  0  0  0  0  0  0  0  0  0  0  0
   -5.4337   24.6778  -28.7472 H   0  0  0  0  0  0  0  0  0  0  0  0
   -4.6795   23.0475  -28.7472 H   0  0  0  0  0  0  0  0  0  0  0  0
   -7.9140   22.0540  -31.1850 C   0  0  0  0  0  0  0  0  0  0  0  0
   -7.3540   20.8800  -31.3680 O   0  0  0  0  0  0  0  0  0  0  0  0
   -8.2460   20.0680  -31.8840 C   0  0  0  0  0  0  0  0  0  0  0  0
   -7.9080   18.2460  -32.3300 Br  0  0  0  0  0  0  0  0  0  0  0  0
   -9.4450   20.7260  -32.0520 C   0  0  0  0  0  0  0  0  0  0  0  0
  -10.3778   20.3107  -32.4612 H   0  0  0  0  0  0  0  0  0  0  0  0
   -9.2350   22.0110  -31.6020 C   0  0  0  0  0  0  0  0  0  0  0  0
   -9.9652   22.8333  -31.5785 H   0  0  0  0  0  0  0  0  0  0  0  0
  1  2  1  0
  2  3  2  0
  3  4  1  0
  3  5  1  0
  5  6  1  0
  5  7  1  0
  5  8  1  0
  8  9  1  0
  8 10  1  0
 10 11  1  0
 10 12  1  0
 10 13  1  0
 13 14  1  0
 13 15  1  0
 13 16  1  0
  2 17  1  0
 17 18  1  0
 18 19  1  0
 19 20  1  0
 19 21  2  0
 21 22  1  0
 21 23  1  0
 23 24  1  0
 23 17  2  0
M  END
>  <UniqueID>  (9) 
9

>  <SMILES>  (9) 
CCNC/C=C/c1ccc(Br)o1

>  <Energy>  (9) 
45.220429576663214

>  <Genealogy>  (9) 
CCNC/C=C/c1ccc(Br)o1 (cis-trans isomerization)
CCNC/C=C/c1ccc(Br)o1 (3D coordinates assigned)
CCNC/C=C/c1ccc(Br)o1 (optimized conformer: 45.220429576663214 kcal/mol)

>  <smiles>  (9) 
CCNCC=Cc1ccc(Br)o1

>  <score_type>  (9) 
oracle

>  <origin>  (9) 
adg

>  <m_score__min__energy>  (9) 
-6.1100000000000003

>  <m_primary>  (9) 
energy

$$$$
9:0
     RDKit          3D

 94 96  0  0  0  0  0  0  0  0999 V2000
   -0.9320   25.4120  -28.1740 C   0  0  0  0  0  0  0  0  0  0  0  0
   -0.9690   24.3550  -29.2740 C   0  0  0  0  0  0  0  0  0  0  0  0
   -2.2220   23.5960  -29.1940 N   0  0  0  0  0  0  0  0  0  0  0  0
   -3.3250   24.4030  -28.6440 C   0  0  0  0  0  0  0  0  0  0  0  0
   -4.5210   24.5540  -29.6000 C   0  0  0  0  0  0  0  0  0  0  0  0
   -4.2390   23.9170  -30.8300 O   0  0  0  0  0  0  0  0  0  0  0  0
   -5.4070   23.7750  -31.6170 C   0  0  0  0  0  0  0  0  0  0  0  0
   -5.1960   22.6870  -32.6870 C   0  0  0  0  0  0  0  0  0  0  0  0
   -4.1750   21.6830  -32.3080 N   0  0  0  0  0  0  0  0  0  0  0  0
   -4.6710   20.3130  -32.3540 C   0  0  0  0  0  0  0  0  0  0  0  0
   -6.0350   20.0260  -32.1310 C   0  0  0  0  0  0  0  0  0  0  0  0
   -6.8230   20.8190  -31.2750 C   0  0  0  0  0  0  0  0  0  0  0  0
   -8.1700   20.5250  -31.0720 C   0  0  0  0  0  0  0  0  0  0  0  0
   -8.7430   19.4230  -31.7000 C   0  0  0  0  0  0  0  0  0  0  0  0
   -7.9770   18.6140  -32.5380 C   0  0  0  0  0  0  0  0  0  0  0  0
   -6.6110   18.9080  -32.7800 C   0  0  0  0  0  0  0  0  0  0  0  0
   -5.8390   18.1380  -33.6220 N   0  0  0  0  0  0  0  0  0  0  0  0
   -6.4810   17.2220  -34.5880 C   0  0  0  0  0  0  0  0  0  0  0  0
   -4.4620   18.1940  -33.5150 C   0  0  0  0  0  0  0  0  0  0  0  0
   -3.6410   17.1960  -34.0820 C   0  0  0  0  0  0  0  0  0  0  0  0
   -2.2710   17.1840  -33.8630 C   0  0  0  0  0  0  0  0  0  0  0  0
   -1.6690   18.1280  -33.0240 C   0  0  0  0  0  0  0  0  0  0  0  0
   -0.3060   17.9390  -32.6100 N   0  0  0  0  0  0  0  0  0  0  0  0
    0.1110   16.9500  -31.6130 C   0  0  0  0  0  0  0  0  0  0  0  0
    1.1100   17.5520  -30.6170 C   0  0  0  0  0  0  0  0  0  0  0  0
    0.7170   18.9920  -30.2700 C   0  0  0  0  0  0  0  0  0  0  0  0
    0.3190   19.1260  -28.7900 C   0  0  0  0  0  0  0  0  0  0  0  0
   -1.0230   19.7060  -28.6210 N   0  0  0  0  0  0  0  0  0  0  0  0
   -1.3250   20.0050  -27.2140 C   0  0  0  0  0  0  0  0  0  0  0  0
   -2.2200   21.2500  -27.1080 C   0  0  0  0  0  0  0  0  0  0  0  0
   -3.4910   21.1530  -27.9630 C   0  0  0  0  0  0  0  0  0  0  0  0
   -3.1660   21.2650  -29.3830 N   0  0  0  0  0  0  0  0  0  0  0  0
   -2.4470   19.1830  -32.4900 C   0  0  0  0  0  0  0  0  0  0  0  0
   -1.8690   20.0770  -31.5160 N   0  0  0  0  0  0  0  0  0  0  0  0
   -1.1960   21.3280  -31.8900 C   0  0  0  0  0  0  0  0  0  0  0  0
   -1.0730   21.4660  -33.4150 C   0  0  0  0  0  0  0  0  0  0  0  0
   -0.1170   20.4770  -33.9610 N   0  0  0  0  0  0  0  0  0  0  0  0
   -0.1290   20.4830  -35.4330 C   0  0  0  0  0  0  0  0  0  0  0  0
    1.2450   20.7550  -33.4780 C   0  0  0  0  0  0  0  0  0  0  0  0
   -3.8430   19.2490  -32.7900 C   0  0  0  0  0  0  0  0  0  0  0  0
   -0.9493   24.9188  -27.1909 H   0  0  0  0  0  0  0  0  0  0  0  0
   -0.0124   26.0081  -28.2691 H   0  0  0  0  0  0  0  0  0  0  0  0
   -1.8076   26.0710  -28.2691 H   0  0  0  0  0  0  0  0  0  0  0  0
   -0.9026   24.8473  -30.2555 H   0  0  0  0  0  0  0  0  0  0  0  0
   -0.1199   23.6677  -29.1450 H   0  0  0  0  0  0  0  0  0  0  0  0
   -2.4800   23.2580  -30.1500 H   0  0  0  0  0  0  0  0  0  0  0  0
   -3.6785   23.9229  -27.7196 H   0  0  0  0  0  0  0  0  0  0  0  0
   -2.9261   25.4129  -28.4681 H   0  0  0  0  0  0  0  0  0  0  0  0
   -5.4107   24.0929  -29.1463 H   0  0  0  0  0  0  0  0  0  0  0  0
   -4.7066   25.6231  -29.7808 H   0  0  0  0  0  0  0  0  0  0  0  0
   -6.2494   23.4899  -30.9696 H   0  0  0  0  0  0  0  0  0  0  0  0
   -5.6241   24.7317  -32.1146 H   0  0  0  0  0  0  0  0  0  0  0  0
   -6.1520   22.1682  -32.8507 H   0  0  0  0  0  0  0  0  0  0  0  0
   -4.8365   23.1900  -33.5968 H   0  0  0  0  0  0  0  0  0  0  0  0
   -3.3930   21.8160  -32.9850 H   0  0  0  0  0  0  0  0  0  0  0  0
   -3.8120   21.8950  -31.3490 H   0  0  0  0  0  0  0  0  0  0  0  0
   -6.3705   21.6798  -30.7610 H   0  0  0  0  0  0  0  0  0  0  0  0
   -8.7799   21.1634  -30.4159 H   0  0  0  0  0  0  0  0  0  0  0  0
   -9.8051   19.1893  -31.5344 H   0  0  0  0  0  0  0  0  0  0  0  0
   -8.4375   17.7374  -33.0171 H   0  0  0  0  0  0  0  0  0  0  0  0
   -7.0293   16.4397  -34.0427 H   0  0  0  0  0  0  0  0  0  0  0  0
   -7.1812   17.7878  -35.2201 H   0  0  0  0  0  0  0  0  0  0  0  0
   -5.7103   16.7568  -35.2201 H   0  0  0  0  0  0  0  0  0  0  0  0
   -4.0951   16.4141  -34.7084 H   0  0  0  0  0  0  0  0  0  0  0  0
   -1.6496   16.4218  -34.3558 H   0  0  0  0  0  0  0  0  0  0  0  0
    0.4030   18.6440  -32.9090 H   0  0  0  0  0  0  0  0  0  0  0  0
   -0.7751   16.5986  -31.0640 H   0  0  0  0  0  0  0  0  0  0  0  0
    0.6008   16.1149  -32.1352 H   0  0  0  0  0  0  0  0  0  0  0  0
    1.1156   16.9466  -29.6986 H   0  0  0  0  0  0  0  0  0  0  0  0
    2.1107   17.5556  -31.0737 H   0  0  0  0  0  0  0  0  0  0  0  0
    1.5717   19.6544  -30.4718 H   0  0  0  0  0  0  0  0  0  0  0  0
   -0.1493   19.2720  -30.8874 H   0  0  0  0  0  0  0  0  0  0  0  0
    0.3332   18.1276  -28.3284 H   0  0  0  0  0  0  0  0  0  0  0  0
    1.0403   19.8026  -28.3083 H   0  0  0  0  0  0  0  0  0  0  0  0
   -1.0940   20.5860  -29.1840 H   0  0  0  0  0  0  0  0  0  0  0  0
   -1.8452   19.1460  -26.7650 H   0  0  0  0  0  0  0  0  0  0  0  0
   -0.3822   20.1984  -26.6813 H   0  0  0  0  0  0  0  0  0  0  0  0
   -2.5148   21.3806  -26.0563 H   0  0  0  0  0  0  0  0  0  0  0  0
   -1.6378   22.1050  -27.4821 H   0  0  0  0  0  0  0  0  0  0  0  0
   -3.9773   20.1836  -27.7789 H   0  0  0  0  0  0  0  0  0  0  0  0
   -4.1667   21.9763  -27.6881 H   0  0  0  0  0  0  0  0  0  0  0  0
   -2.1370   21.4130  -29.4810 H   0  0  0  0  0  0  0  0  0  0  0  0
   -3.6200   22.1330  -29.7520 H   0  0  0  0  0  0  0  0  0  0  0  0
   -2.0520   19.8850  -30.5030 H   0  0  0  0  0  0  0  0  0  0  0  0
   -1.7766   22.1769  -31.4998 H   0  0  0  0  0  0  0  0  0  0  0  0
   -0.1830   21.3169  -31.4613 H   0  0  0  0  0  0  0  0  0  0  0  0
   -2.0602   21.3025  -33.8719 H   0  0  0  0  0  0  0  0  0  0  0  0
   -0.7038   22.4759  -33.6471 H   0  0  0  0  0  0  0  0  0  0  0  0
   -1.0595   20.9483  -35.7902 H   0  0  0  0  0  0  0  0  0  0  0  0
    0.7335   21.0559  -35.8044 H   0  0  0  0  0  0  0  0  0  0  0  0
   -0.0699   19.4493  -35.8044 H   0  0  0  0  0  0  0  0  0  0  0  0
    1.2508   20.7562  -32.3780 H   0  0  0  0  0  0  0  0  0  0  0  0
    1.9307   19.9783  -33.8475 H   0  0  0  0  0  0  0  0  0  0  0  0
    1.5715   21.7383  -33.8475 H   0  0  0  0  0  0  0  0  0  0  0  0
  1  2  1  0
  2  3  1  0
  3  4  1  0
  4  5  1  0
  5  6  1  0
  6  7  1  0
  7  8  1  0
  8  9  1  0
  9 10  1  0
 10 11  2  0
 11 12  1  0
 12 13  2  0
 13 14  1  0
 14 15  2  0
 15 16  1  0
 16 17  2  0
 17 18  1  0
 17 19  1  0
 19 20  2  0
 20 21  1  0
 21 22  2  0
 22 23  1  0
 23 24  1  0
 24 25  1  0
 25 26  1  0
 26 27  1  0
 27 28  1  0
 28 29  1  0
 29 30  1  0
 30 31  1  0
 31 32  1  0
 22 33  1  0
 33 34  1  0
 34 35  1  0
 35 36  1  0
 36 37  1  0
 37 38  1  0
 37 39  1  0
 33 40  2  0
 40 10  1  0
 16 11  1  0
 40 19  1  0
  1 41  1  0
  1 42  1  0
  1 43  1  0
  2 44  1  0
  2 45  1  0
  3 46  1  0
  4 47  1  0
  4 48  1  0
  5 49  1  0
  5 50  1  0
  7 51  1  0
  7 52  1  0
  8 53  1  0
  8 54  1  0
  9 55  1  0
  9 56  1  0
 12 57  1  0
 13 58  1  0
 14 59  1  0
 15 60  1  0
 18 61  1  0
 18 62  1  0
 18 63  1  0
 20 64  1  0
 21 65  1  0
 23 66  1  0
 24 67  1  0
 24 68  1  0
 25 69  1  0
 25 70  1  0
 26 71  1  0
 26 72  1  0
 27 73  1  0
 27 74  1  0
 28 75  1  0
 29 76  1  0
 29 77  1  0
 30 78  1  0
 30 79  1  0
 31 80  1  0
 31 81  1  0
 32 82  1  0
 32 83  1  0
 34 84  1  0
 35 85  1  0
 35 86  1  0
 36 87  1  0
 36 88  1  0
 38 89  1  0
 38 90  1  0
 38 91  1  0
 39 92  1  0
 39 93  1  0
 39 94  1  0
M  CHG  2   9   1  17   1
M  END
>  <UniqueID>  (10) 
10

>  <SMILES>  (10) 
CCNCCOCC[NH2+]c1c2ccccc2[n+](C)c2ccc(NCCCCNCCCN)c(NCCN(C)C)c12

>  <Energy>  (10) 
123.51142948448748

>  <Genealogy>  (10) 
CCNCCOCC[NH2+]c1c2ccccc2[n+](C)c2ccc(NCCCCNCCCN)c(NCCN(C)C)c12 (protonated)
CCNCCOCC[NH2+]c1c2ccccc2[n+](C)c2ccc(NCCCCNCCCN)c(NCCN(C)C)c12 (3D coordinates assigned)
CCNCCOCC[NH2+]c1c2ccccc2[n+](C)c2ccc(NCCCCNCCCN)c(NCCN(C)C)c12 (optimized conformer: 123.51142948448748 kcal/mol)

>  <smiles>  (10) 
CCNCCOCCNc1c2ccccc2[n+](C)c2ccc(NCCCCNCCCN)c(NCCN(C)C)c12

>  <score_type>  (10) 
oracle

>  <origin>  (10) 
adg

>  <m_score__min__energy>  (10) 
-7.4000000000000004

>  <m_primary>  (10) 
energy

$$$$
10:0
     RDKit          3D

 36 35  0  0  0  0  0  0  0  0999 V2000
   -4.4780   22.2130  -32.3770 C   0  0  0  0  0  0  0  0  0  0  0  0
   -4.6930   20.9000  -33.1300 C   0  0  0  0  0  0  0  0  0  0  0  0
   -6.1030   20.4830  -33.1430 N   0  0  0  0  0  0  0  0  0  0  0  0
   -7.0240   21.2740  -32.3000 C   0  0  0  0  0  0  0  0  0  0  0  0
   -8.5050   20.7870  -32.2370 C   0  0  2  0  0  0  0  0  0  0  0  0
   -9.5080   21.9220  -31.9720 C   0  0  0  0  0  0  0  0  0  0  0  0
   -8.6950   19.5750  -31.2870 C   0  0  0  0  0  0  0  0  0  0  0  0
   -8.3630   18.2130  -31.9460 C   0  0  0  0  0  0  0  0  0  0  0  0
   -7.2570   18.3080  -32.9190 N   0  0  0  0  0  0  0  0  0  0  0  0
   -6.8650   16.9840  -33.4320 C   0  0  0  0  0  0  0  0  0  0  0  0
   -5.9690   17.1230  -34.6690 C   0  0  0  0  0  0  0  0  0  0  0  0
   -5.7390   18.5320  -34.9680 N   0  0  0  0  0  0  0  0  0  0  0  0
   -4.5090   22.0238  -31.2938 H   0  0  0  0  0  0  0  0  0  0  0  0
   -3.4988   22.6348  -32.6477 H   0  0  0  0  0  0  0  0  0  0  0  0
   -5.2715   22.9251  -32.6477 H   0  0  0  0  0  0  0  0  0  0  0  0
   -4.3537   21.0291  -34.1684 H   0  0  0  0  0  0  0  0  0  0  0  0
   -4.1181   20.1189  -32.6110 H   0  0  0  0  0  0  0  0  0  0  0  0
   -6.4460   20.4480  -34.1290 H   0  0  0  0  0  0  0  0  0  0  0  0
   -6.6265   21.2675  -31.2743 H   0  0  0  0  0  0  0  0  0  0  0  0
   -7.0651   22.2682  -32.7689 H   0  0  0  0  0  0  0  0  0  0  0  0
   -8.7418   20.4217  -33.2472 H   0  0  0  0  0  0  0  0  0  0  0  0
   -9.6288   22.0587  -30.8872 H   0  0  0  0  0  0  0  0  0  0  0  0
   -9.1333   22.8544  -32.4196 H   0  0  0  0  0  0  0  0  0  0  0  0
  -10.4794   21.6649  -32.4196 H   0  0  0  0  0  0  0  0  0  0  0  0
   -8.0370   19.7094  -30.4158 H   0  0  0  0  0  0  0  0  0  0  0  0
   -9.7586   19.5476  -31.0075 H   0  0  0  0  0  0  0  0  0  0  0  0
   -8.0787   17.5002  -31.1579 H   0  0  0  0  0  0  0  0  0  0  0  0
   -9.2584   17.8793  -32.4908 H   0  0  0  0  0  0  0  0  0  0  0  0
   -6.4320   18.7340  -32.4360 H   0  0  0  0  0  0  0  0  0  0  0  0
   -7.5240   18.9320  -33.7160 H   0  0  0  0  0  0  0  0  0  0  0  0
   -6.3161   16.4415  -32.6482 H   0  0  0  0  0  0  0  0  0  0  0  0
   -7.7736   16.4321  -33.7148 H   0  0  0  0  0  0  0  0  0  0  0  0
   -5.0046   16.6302  -34.4765 H   0  0  0  0  0  0  0  0  0  0  0  0
   -6.4671   16.6502  -35.5282 H   0  0  0  0  0  0  0  0  0  0  0  0
   -6.6420   19.0450  -34.8420 H   0  0  0  0  0  0  0  0  0  0  0  0
   -5.0820   18.9070  -34.2460 H   0  0  0  0  0  0  0  0  0  0  0  0
  1  2  1  0
  2  3  1  0
  3  4  1  0
  4  5  1  0
  5  6  1  0
  5  7  1  0
  7  8  1  0
  8  9  1  0
  9 10  1  0
 10 11  1  0
 11 12  1  0
  1 13  1  0
  1 14  1  0
  1 15  1  0
  2 16  1  0
  2 17  1  0
  3 18  1  0
  4 19  1  0
  4 20  1  0
  5 21  1  6
  6 22  1  0
  6 23  1  0
  6 24  1  0
  7 25  1  0
  7 26  1  0
  8 27  1  0
  8 28  1  0
  9 29  1  0
  9 30  1  0
 10 31  1  0
 10 32  1  0
 11 33  1  0
 11 34  1  0
 12 35  1  0
 12 36  1  0
M  CHG  1   9   1
M  END
>  <UniqueID>  (11) 
11

>  <SMILES>  (11) 
CCNC[C@H](C)CC[NH2+]CCN

>  <Energy>  (11) 
30.453330569638563

>  <Genealogy>  (11) 
CCNCC(C)CC[NH2+]CCN (protonated)
CCNC[C@H](C)CC[NH2+]CCN (chirality)
CCNC[C@H](C)CC[NH2+]CCN (3D coordinates assigned)
CCNC[C@H](C)CC[NH2+]CCN (optimized conformer: 30.453330569638563 kcal/mol)

>  <smiles>  (11) 
CCNCC(C)CCNCCN

>  <score_type>  (11) 
oracle

>  <origin>  (11) 
adg

>  <m_score__min__energy>  (11) 
-3.5600000000000001

>  <m_primary>  (11) 
energy

$$$$
11:0
     RDKit          3D

 49 50  0  0  0  0  0  0  0  0999 V2000
   -4.2660   21.6710  -31.9010 C   0  0  0  0  0  0  0  0  0  0  0  0
   -5.3100   22.7280  -32.2810 C   0  0  0  0  0  0  0  0  0  0  0  0
   -5.9920   23.2880  -31.0900 N   0  0  1  0  0  0  0  0  0  0  0  0
   -6.2530   24.7430  -31.2170 C   0  0  0  0  0  0  0  0  0  0  0  0
   -5.2120   25.6120  -30.5620 C   0  0  0  0  0  0  0  0  0  0  0  0
   -5.5390   26.7410  -30.1080 O   0  0  0  0  0  0  0  0  0  0  0  0
   -3.8510   25.1670  -30.5140 N   0  0  0  0  0  0  0  0  0  0  0  0
   -3.1740   24.5840  -29.3910 C   0  0  0  0  0  0  0  0  0  0  0  0
   -3.8110   23.6800  -28.5170 C   0  0  0  0  0  0  0  0  0  0  0  0
   -3.1100   23.1250  -27.4410 C   0  0  0  0  0  0  0  0  0  0  0  0
   -1.7690   23.4570  -27.2370 C   0  0  0  0  0  0  0  0  0  0  0  0
   -1.1160   24.3140  -28.1310 C   0  0  0  0  0  0  0  0  0  0  0  0
   -1.8170   24.8830  -29.1990 C   0  0  0  0  0  0  0  0  0  0  0  0
    0.2420   24.5900  -27.9400 O   0  0  0  0  0  0  0  0  0  0  0  0
    1.0310   23.8160  -27.0330 C   0  0  0  0  0  0  0  0  0  0  0  0
    0.2160   23.4720  -25.7800 C   0  0  0  0  0  0  0  0  0  0  0  0
   -1.0590   22.9390  -26.1500 O   0  0  0  0  0  0  0  0  0  0  0  0
   -7.2120   22.5590  -30.7780 C   0  0  0  0  0  0  0  0  0  0  0  0
   -7.4990   22.3010  -29.6170 O   0  0  0  0  0  0  0  0  0  0  0  0
   -8.1590   22.1290  -31.8670 C   0  0  0  0  0  0  0  0  0  0  0  0
   -8.8240   20.8800  -31.4670 N   0  0  0  0  0  0  0  0  0  0  0  0
   -8.5370   19.7230  -32.3390 C   0  0  0  0  0  0  0  0  0  0  0  0
   -8.5730   18.3790  -31.5930 C   0  0  0  0  0  0  0  0  0  0  0  0
   -7.2190   19.9140  -33.1020 C   0  0  0  0  0  0  0  0  0  0  0  0
   -4.1970   21.6011  -30.8054 H   0  0  0  0  0  0  0  0  0  0  0  0
   -4.5651   20.6957  -32.3125 H   0  0  0  0  0  0  0  0  0  0  0  0
   -3.2871   21.9580  -32.3125 H   0  0  0  0  0  0  0  0  0  0  0  0
   -4.8082   23.5452  -32.8199 H   0  0  0  0  0  0  0  0  0  0  0  0
   -6.0702   22.2435  -32.9114 H   0  0  0  0  0  0  0  0  0  0  0  0
   -5.3280   23.1930  -30.2860 H   0  0  0  0  0  0  0  0  0  0  0  0
   -6.2907   24.9954  -32.2870 H   0  0  0  0  0  0  0  0  0  0  0  0
   -7.2038   24.9418  -30.7008 H   0  0  0  0  0  0  0  0  0  0  0  0
   -4.8644   23.4096  -28.6818 H   0  0  0  0  0  0  0  0  0  0  0  0
   -3.6147   22.4277  -26.7562 H   0  0  0  0  0  0  0  0  0  0  0  0
   -1.3029   25.5669  -29.8904 H   0  0  0  0  0  0  0  0  0  0  0  0
    1.3455   22.8855  -27.5283 H   0  0  0  0  0  0  0  0  0  0  0  0
    1.9138   24.4015  -26.7366 H   0  0  0  0  0  0  0  0  0  0  0  0
    0.7627   22.7259  -25.1847 H   0  0  0  0  0  0  0  0  0  0  0  0
    0.0642   24.3870  -25.1885 H   0  0  0  0  0  0  0  0  0  0  0  0
   -8.9143   22.9124  -32.0277 H   0  0  0  0  0  0  0  0  0  0  0  0
   -7.5988   21.9661  -32.7996 H   0  0  0  0  0  0  0  0  0  0  0  0
   -8.5150   20.6430  -30.4940 H   0  0  0  0  0  0  0  0  0  0  0  0
   -9.3530   19.6801  -33.0754 H   0  0  0  0  0  0  0  0  0  0  0  0
   -8.5681   18.5615  -30.5083 H   0  0  0  0  0  0  0  0  0  0  0  0
   -9.4861   17.8310  -31.8685 H   0  0  0  0  0  0  0  0  0  0  0  0
   -7.6905   17.7829  -31.8685 H   0  0  0  0  0  0  0  0  0  0  0  0
   -6.3939   20.0336  -32.3844 H   0  0  0  0  0  0  0  0  0  0  0  0
   -7.0304   19.0338  -33.7342 H   0  0  0  0  0  0  0  0  0  0  0  0
   -7.2881   20.8115  -33.7342 H   0  0  0  0  0  0  0  0  0  0  0  0
  1  2  1  0
  2  3  1  0
  3  4  1  0
  4  5  1  0
  5  6  2  0
  5  7  1  0
  7  8  1  0
  8  9  2  0
  9 10  1  0
 10 11  2  0
 11 12  1  0
 12 13  2  0
 12 14  1  0
 14 15  1  0
 15 16  1  0
 16 17  1  0
  3 18  1  0
 18 19  2  0
 18 20  1  0
 20 21  1  0
 21 22  1  0
 22 23  1  0
 22 24  1  0
 13  8  1  0
 17 11  1  0
  1 25  1  0
  1 26  1  0
  1 27  1  0
  2 28  1  0
  2 29  1  0
  3 30  1  1
  4 31  1  0
  4 32  1  0
  9 33  1  0
 10 34  1  0
 13 35  1  0
 15 36  1  0
 15 37  1  0
 16 38  1  0
 16 39  1  0
 20 40  1  0
 20 41  1  0
 21 42  1  0
 22 43  1  0
 23 44  1  0
 23 45  1  0
 23 46  1  0
 24 47  1  0
 24 48  1  0
 24 49  1  0
M  CHG  2   3   1   7  -1
M  END
>  <UniqueID>  (12) 
12

>  <SMILES>  (12) 
CC[N@@H+](CC(=O)[N-]c1ccc2c(c1)OCCO2)C(=O)CNC(C)C

>  <Energy>  (12) 
50.43706782014129

>  <Genealogy>  (12) 
CC[NH+](CC(=O)[N-]c1ccc2c(c1)OCCO2)C(=O)CNC(C)C (protonated)
CC[N@@H+](CC(=O)[N-]c1ccc2c(c1)OCCO2)C(=O)CNC(C)C (chirality)
CC[N@@H+](CC(=O)[N-]c1ccc2c(c1)OCCO2)C(=O)CNC(C)C (3D coordinates assigned)
CC[N@@H+](CC(=O)[N-]c1ccc2c(c1)OCCO2)C(=O)CNC(C)C (nonaromatic ring conformer: 50.43706782014129 kcal/mol)

>  <smiles>  (12) 
CCN(CC(=O)Nc1ccc2c(c1)OCCO2)C(=O)CNC(C)C

>  <score_type>  (12) 
oracle

>  <origin>  (12) 
adg

>  <m_score__min__energy>  (12) 
-7.7599999999999998

>  <m_primary>  (12) 
energy

$$$$
12:0
     RDKit          3D

 64 67  0  0  0  0  0  0  0  0999 V2000
   -6.3860   25.2970  -29.7940 C   0  0  0  0  0  0  0  0  0  0  0  0
   -5.3210   25.4910  -30.8680 C   0  0  0  0  0  0  0  0  0  0  0  0
   -4.0210   24.9870  -30.4030 N   0  0  0  0  0  0  0  0  0  0  0  0
   -4.1520   24.2450  -29.1420 C   0  0  0  0  0  0  0  0  0  0  0  0
   -2.9670   23.2790  -28.9820 C   0  0  0  0  0  0  0  0  0  0  0  0
   -1.9970   23.3840  -30.0840 N   0  0  0  0  0  0  0  0  0  0  0  0
   -0.6860   22.8270  -29.7290 C   0  0  0  0  0  0  0  0  0  0  0  0
   -0.8510   21.3690  -29.2730 C   0  0  0  0  0  0  0  0  0  0  0  0
   -0.9420   20.4310  -30.4030 N   0  0  0  0  0  0  0  0  0  0  0  0
   -1.9960   20.8040  -31.3600 C   0  0  0  0  0  0  0  0  0  0  0  0
   -1.3920   21.0860  -32.7410 C   0  0  0  0  0  0  0  0  0  0  0  0
   -2.4320   21.2580  -33.7680 N   0  0  0  0  0  0  0  0  0  0  0  0
   -3.4790   20.2710  -33.5980 C   0  0  0  0  0  0  0  0  0  0  0  0
   -4.7400   20.6460  -33.1160 C   0  0  0  0  0  0  0  0  0  0  0  0
   -5.7710   19.7280  -32.9950 C   0  0  0  0  0  0  0  0  0  0  0  0
   -5.6390   18.4360  -33.4320 N   0  0  0  0  0  0  0  0  0  0  0  0
   -6.8330   17.5940  -33.6130 C   0  0  0  0  0  0  0  0  0  0  0  0
   -4.3740   17.9720  -33.7480 C   0  0  0  0  0  0  0  0  0  0  0  0
   -4.1280   16.5920  -33.9540 C   0  0  0  0  0  0  0  0  0  0  0  0
   -2.8580   16.1280  -34.2880 C   0  0  0  0  0  0  0  0  0  0  0  0
   -1.7970   17.0170  -34.4090 C   0  0  0  0  0  0  0  0  0  0  0  0
   -1.9920   18.3780  -34.1870 C   0  0  0  0  0  0  0  0  0  0  0  0
   -3.2680   18.8850  -33.8500 C   0  0  0  0  0  0  0  0  0  0  0  0
   -6.9430   20.4160  -32.3970 C   0  0  0  0  0  0  0  0  0  0  0  0
   -8.1520   19.9240  -31.8840 C   0  0  0  0  0  0  0  0  0  0  0  0
   -9.0500   20.8260  -31.2880 C   0  0  0  0  0  0  0  0  0  0  0  0
   -8.7180   22.1890  -31.1670 C   0  0  0  0  0  0  0  0  0  0  0  0
   -7.4780   22.6580  -31.6220 C   0  0  0  0  0  0  0  0  0  0  0  0
   -6.6090   21.7500  -32.2250 C   0  0  0  0  0  0  0  0  0  0  0  0
   -5.2370   21.9480  -32.6550 C   0  0  0  0  0  0  0  0  0  0  0  0
   -4.5940   23.0280  -32.5810 O   0  0  0  0  0  0  0  0  0  0  0  0
   -5.9235   25.3813  -28.7995 H   0  0  0  0  0  0  0  0  0  0  0  0
   -7.1623   26.0685  -29.9039 H   0  0  0  0  0  0  0  0  0  0  0  0
   -6.8404   24.3013  -29.9039 H   0  0  0  0  0  0  0  0  0  0  0  0
   -5.6178   24.9436  -31.7748 H   0  0  0  0  0  0  0  0  0  0  0  0
   -5.2280   26.5652  -31.0859 H   0  0  0  0  0  0  0  0  0  0  0  0
   -3.6630   24.3170  -31.1250 H   0  0  0  0  0  0  0  0  0  0  0  0
   -4.1621   24.9534  -28.3006 H   0  0  0  0  0  0  0  0  0  0  0  0
   -5.0902   23.6708  -29.1537 H   0  0  0  0  0  0  0  0  0  0  0  0
   -2.4522   23.5067  -28.0369 H   0  0  0  0  0  0  0  0  0  0  0  0
   -3.3691   22.2552  -28.9892 H   0  0  0  0  0  0  0  0  0  0  0  0
   -1.8820   24.3890  -30.3540 H   0  0  0  0  0  0  0  0  0  0  0  0
   -0.0233   22.8633  -30.6062 H   0  0  0  0  0  0  0  0  0  0  0  0
   -0.2477   23.4178  -28.9112 H   0  0  0  0  0  0  0  0  0  0  0  0
    0.0157   21.0928  -28.6545 H   0  0  0  0  0  0  0  0  0  0  0  0
   -1.7912   21.3009  -28.7062 H   0  0  0  0  0  0  0  0  0  0  0  0
   -0.0200   20.4100  -30.8990 H   0  0  0  0  0  0  0  0  0  0  0  0
   -2.7186   19.9787  -31.4426 H   0  0  0  0  0  0  0  0  0  0  0  0
   -2.4987   21.7134  -30.9991 H   0  0  0  0  0  0  0  0  0  0  0  0
   -0.7909   22.0055  -32.6856 H   0  0  0  0  0  0  0  0  0  0  0  0
   -0.7707   20.2238  -33.0248 H   0  0  0  0  0  0  0  0  0  0  0  0
   -2.0290   21.1960  -34.7280 H   0  0  0  0  0  0  0  0  0  0  0  0
   -2.8350   22.2200  -33.7070 H   0  0  0  0  0  0  0  0  0  0  0  0
   -7.2346   17.3108  -32.6289 H   0  0  0  0  0  0  0  0  0  0  0  0
   -7.5959   18.1550  -34.1727 H   0  0  0  0  0  0  0  0  0  0  0  0
   -6.5607   16.6870  -34.1727 H   0  0  0  0  0  0  0  0  0  0  0  0
   -4.9548   15.8742  -33.8483 H   0  0  0  0  0  0  0  0  0  0  0  0
   -2.6942   15.0534  -34.4567 H   0  0  0  0  0  0  0  0  0  0  0  0
   -0.7986   16.6442  -34.6813 H   0  0  0  0  0  0  0  0  0  0  0  0
   -1.1405   19.0688  -34.2752 H   0  0  0  0  0  0  0  0  0  0  0  0
   -8.3928   18.8525  -31.9469 H   0  0  0  0  0  0  0  0  0  0  0  0
  -10.0191   20.4646  -30.9134 H   0  0  0  0  0  0  0  0  0  0  0  0
   -9.4351   22.8890  -30.7133 H   0  0  0  0  0  0  0  0  0  0  0  0
   -7.1978   23.7154  -31.5062 H   0  0  0  0  0  0  0  0  0  0  0  0
  1  2  1  0
  2  3  1  0
  3  4  1  0
  4  5  1  0
  5  6  1  0
  6  7  1  0
  7  8  1  0
  8  9  1  0
  9 10  1  0
 10 11  1  0
 11 12  1  0
 12 13  1  0
 13 14  2  0
 14 15  1  0
 15 16  2  0
 16 17  1  0
 16 18  1  0
 18 19  2  0
 19 20  1  0
 20 21  2  0
 21 22  1  0
 22 23  2  0
 15 24  1  0
 24 25  2  0
 25 26  1  0
 26 27  2  0
 27 28  1  0
 28 29  2  0
 29 30  1  0
 30 31  2  0
 23 13  1  0
 29 24  1  0
 30 14  1  0
 23 18  1  0
  1 32  1  0
  1 33  1  0
  1 34  1  0
  2 35  1  0
  2 36  1  0
  3 37  1  0
  4 38  1  0
  4 39  1  0
  5 40  1  0
  5 41  1  0
  6 42  1  0
  7 43  1  0
  7 44  1  0
  8 45  1  0
  8 46  1  0
  9 47  1  0
 10 48  1  0
 10 49  1  0
 11 50  1  0
 11 51  1  0
 12 52  1  0
 12 53  1  0
 17 54  1  0
 17 55  1  0
 17 56  1  0
 19 57  1  0
 20 58  1  0
 21 59  1  0
 22 60  1  0
 25 61  1  0
 26 62  1  0
 27 63  1  0
 28 64  1  0
M  CHG  2  12   1  16   1
M  END
>  <UniqueID>  (13) 
13

>  <SMILES>  (13) 
CCNCCNCCNCC[NH2+]c1c2c([n+](C)c3ccccc13)-c1ccccc1C2=O

>  <Energy>  (13) 
112.49765949227164

>  <Genealogy>  (13) 
CCNCCNCCNCC[NH2+]c1c2c([n+](C)c3ccccc13)-c1ccccc1C2=O (protonated)
CCNCCNCCNCC[NH2+]c1c2c([n+](C)c3ccccc13)-c1ccccc1C2=O (3D coordinates assigned)
CCNCCNCCNCC[NH2+]c1c2c([n+](C)c3ccccc13)-c1ccccc1C2=O (nonaromatic ring conformer: 112.49765949227164 kcal/mol)

>  <smiles>  (13) 
CCNCCNCCNCCNc1c2c([n+](C)c3ccccc13)-c1ccccc1C2=O

>  <score_type>  (13) 
oracle

>  <origin>  (13) 
adg

>  <m_score__min__energy>  (13) 
-8.1999999999999993

>  <m_primary>  (13) 
energy

$$$$
13:0
     RDKit          3D

 46 47  0  0  0  0  0  0  0  0999 V2000
   -0.8580   26.8880  -23.3690 C   0  0  0  0  0  0  0  0  0  0  0  0
   -0.6880   25.7260  -24.3430 C   0  0  0  0  0  0  0  0  0  0  0  0
   -0.4340   26.2320  -25.7680 C   0  0  0  0  0  0  0  0  0  0  0  0
    0.2710   25.1840  -26.6460 C   0  0  0  0  0  0  0  0  0  0  0  0
   -0.6530   24.1120  -27.0860 N   0  0  0  0  0  0  0  0  0  0  0  0
   -1.3620   24.2180  -28.2680 C   0  0  0  0  0  0  0  0  0  0  0  0
   -1.2260   25.3670  -29.1280 N   0  0  0  0  0  0  0  0  0  0  0  0
   -2.2220   23.1720  -28.6630 C   0  0  0  0  0  0  0  0  0  0  0  0
   -2.9940   23.2600  -29.8760 N   0  0  0  0  0  0  0  0  0  0  0  0
   -2.5870   22.4350  -31.0220 C   0  0  0  0  0  0  0  0  0  0  0  0
   -1.1590   21.9340  -30.8430 C   0  0  0  0  0  0  0  0  0  0  0  0
   -4.0610   24.2280  -30.0170 C   0  0  0  0  0  0  0  0  0  0  0  0
   -3.8670   25.2770  -30.6930 O   0  0  0  0  0  0  0  0  0  0  0  0
   -5.4330   24.0000  -29.4430 C   0  0  0  0  0  0  0  0  0  0  0  0
   -6.3000   23.2860  -30.4290 C   0  0  0  0  0  0  0  0  0  0  0  0
   -6.0650   23.1850  -31.7940 C   0  0  0  0  0  0  0  0  0  0  0  0
   -7.0280   22.4190  -32.4620 C   0  0  0  0  0  0  0  0  0  0  0  0
   -8.0130   21.9110  -31.6270 C   0  0  0  0  0  0  0  0  0  0  0  0
   -7.6920   22.4200  -30.0570 S   0  0  0  0  0  0  0  0  0  0  0  0
   -2.3520   22.0600  -27.8300 C   0  0  0  0  0  0  0  0  0  0  0  0
   -3.1390   21.1210  -28.1360 O   0  0  0  0  0  0  0  0  0  0  0  0
   -1.6320   21.9830  -26.6860 N   0  0  0  0  0  0  0  0  0  0  0  0
   -0.7890   22.9810  -26.3130 C   0  0  0  0  0  0  0  0  0  0  0  0
   -0.1310   22.8470  -25.2430 O   0  0  0  0  0  0  0  0  0  0  0  0
   -0.8030   26.5122  -22.3367 H   0  0  0  0  0  0  0  0  0  0  0  0
   -0.0581   27.6248  -23.5341 H   0  0  0  0  0  0  0  0  0  0  0  0
   -1.8355   27.3648  -23.5341 H   0  0  0  0  0  0  0  0  0  0  0  0
    0.1659   25.1109  -24.0228 H   0  0  0  0  0  0  0  0  0  0  0  0
   -1.6140   25.1323  -24.3432 H   0  0  0  0  0  0  0  0  0  0  0  0
   -1.3993   26.4875  -26.2294 H   0  0  0  0  0  0  0  0  0  0  0  0
    0.2252   27.1099  -25.6994 H   0  0  0  0  0  0  0  0  0  0  0  0
    0.6821   25.6848  -27.5349 H   0  0  0  0  0  0  0  0  0  0  0  0
    1.0670   24.7194  -26.0455 H   0  0  0  0  0  0  0  0  0  0  0  0
   -0.3580   25.9430  -29.1810 H   0  0  0  0  0  0  0  0  0  0  0  0
   -2.0120   25.6800  -29.7420 H   0  0  0  0  0  0  0  0  0  0  0  0
   -3.2648   21.5726  -31.1053 H   0  0  0  0  0  0  0  0  0  0  0  0
   -2.6359   23.0474  -31.9345 H   0  0  0  0  0  0  0  0  0  0  0  0
   -0.9304   21.8538  -29.7700 H   0  0  0  0  0  0  0  0  0  0  0  0
   -1.0553   20.9458  -31.3149 H   0  0  0  0  0  0  0  0  0  0  0  0
   -0.4606   22.6408  -31.3149 H   0  0  0  0  0  0  0  0  0  0  0  0
   -5.3472   23.3928  -28.5298 H   0  0  0  0  0  0  0  0  0  0  0  0
   -5.8875   24.9740  -29.2089 H   0  0  0  0  0  0  0  0  0  0  0  0
   -5.2099   23.6583  -32.2987 H   0  0  0  0  0  0  0  0  0  0  0  0
   -7.0058   22.2370  -33.5466 H   0  0  0  0  0  0  0  0  0  0  0  0
   -8.8599   21.2822  -31.9391 H   0  0  0  0  0  0  0  0  0  0  0  0
   -1.7270   21.1370  -26.0780 H   0  0  0  0  0  0  0  0  0  0  0  0
  1  2  1  0
  2  3  1  0
  3  4  1  0
  4  5  1  0
  5  6  1  0
  6  7  1  0
  6  8  2  0
  8  9  1  0
  9 10  1  0
 10 11  1  0
  9 12  1  0
 12 13  2  0
 12 14  1  0
 14 15  1  0
 15 16  2  0
 16 17  1  0
 17 18  2  0
 18 19  1  0
  8 20  1  0
 20 21  2  0
 20 22  1  0
 22 23  1  0
 23 24  2  0
 23  5  1  0
 19 15  1  0
  1 25  1  0
  1 26  1  0
  1 27  1  0
  2 28  1  0
  2 29  1  0
  3 30  1  0
  3 31  1  0
  4 32  1  0
  4 33  1  0
  7 34  1  0
  7 35  1  0
 10 36  1  0
 10 37  1  0
 11 38  1  0
 11 39  1  0
 11 40  1  0
 14 41  1  0
 14 42  1  0
 16 43  1  0
 17 44  1  0
 18 45  1  0
 22 46  1  0
M  END
>  <UniqueID>  (14) 
14

>  <SMILES>  (14) 
CCCCn1c(N)c(N(CC)C(=O)Cc2cccs2)c(=O)[nH]c1=O

>  <Energy>  (14) 
70.50611246572868

>  <Genealogy>  (14) 
CCCCn1c(N)c(N(CC)C(=O)Cc2cccs2)c(=O)[nH]c1=O (3D coordinates assigned)
CCCCn1c(N)c(N(CC)C(=O)Cc2cccs2)c(=O)[nH]c1=O (optimized conformer: 70.50611246572868 kcal/mol)

>  <smiles>  (14) 
CCCCn1c(N)c(N(CC)C(=O)Cc2cccs2)c(=O)[nH]c1=O

>  <score_type>  (14) 
oracle

>  <origin>  (14) 
adg

>  <m_score__min__energy>  (14) 
-7.3200000000000003

>  <m_primary>  (14) 
energy

$$$$
14:0
     RDKit          3D

 22 22  0  0  0  0  0  0  0  0999 V2000
   -6.2000   16.6060  -34.1220 C   0  0  0  0  0  0  0  0  0  0  0  0
   -5.6680   17.9270  -34.6880 C   0  0  0  0  0  0  0  0  0  0  0  0
   -4.2100   18.1370  -34.2710 C   0  0  0  0  0  0  0  0  0  0  0  0
   -6.4900   19.0500  -34.2230 N   0  0  0  0  0  0  0  0  0  0  0  0
   -6.6630   19.3450  -32.8270 C   0  0  0  0  0  0  0  0  0  0  0  0
   -6.0520   18.6580  -31.9640 O   0  0  0  0  0  0  0  0  0  0  0  0
   -7.5500   20.4470  -32.3930 C   0  0  0  0  0  0  0  0  0  0  0  0
   -9.2280   20.3420  -32.2660 S   0  0  0  0  0  0  0  0  0  0  0  0
   -9.4930   21.9120  -31.7350 C   0  0  0  0  0  0  0  0  0  0  0  0
   -8.2640   22.5490  -31.6480 C   0  0  0  0  0  0  0  0  0  0  0  0
   -7.1780   21.7410  -32.0110 C   0  0  0  0  0  0  0  0  0  0  0  0
   -5.3860   22.4140  -31.9680 Br  0  0  0  0  0  0  0  0  0  0  0  0
   -6.1842   16.6452  -33.0228 H   0  0  0  0  0  0  0  0  0  0  0  0
   -7.2320   16.4478  -34.4685 H   0  0  0  0  0  0  0  0  0  0  0  0
   -5.5657   15.7768  -34.4685 H   0  0  0  0  0  0  0  0  0  0  0  0
   -5.7195   17.8806  -35.7858 H   0  0  0  0  0  0  0  0  0  0  0  0
   -4.1404   18.1470  -33.1732 H   0  0  0  0  0  0  0  0  0  0  0  0
   -3.5930   17.3185  -34.6701 H   0  0  0  0  0  0  0  0  0  0  0  0
   -3.8490   19.0964  -34.6701 H   0  0  0  0  0  0  0  0  0  0  0  0
   -6.9400   19.6710  -34.9320 H   0  0  0  0  0  0  0  0  0  0  0  0
  -10.4702   22.3577  -31.4976 H   0  0  0  0  0  0  0  0  0  0  0  0
   -8.1518   23.5940  -31.3234 H   0  0  0  0  0  0  0  0  0  0  0  0
  1  2  1  0
  2  3  1  0
  2  4  1  0
  4  5  1  0
  5  6  2  0
  5  7  1  0
  7  8  1  0
  8  9  1  0
  9 10  2  0
 10 11  1  0
 11 12  1  0
 11  7  2  0
  1 13  1  0
  1 14  1  0
  1 15  1  0
  2 16  1  0
  3 17  1  0
  3 18  1  0
  3 19  1  0
  4 20  1  0
  9 21  1  0
 10 22  1  0
M  END
>  <UniqueID>  (15) 
15

>  <SMILES>  (15) 
CC(C)NC(=O)c1sccc1Br

>  <Energy>  (15) 
41.00098010964918

>  <Genealogy>  (15) 
CC(C)NC(=O)c1sccc1Br (3D coordinates assigned)
CC(C)NC(=O)c1sccc1Br (optimized conformer: 41.00098010964918 kcal/mol)

>  <smiles>  (15) 
CC(C)NC(=O)c1sccc1Br

>  <score_type>  (15) 
oracle

>  <origin>  (15) 
adg

>  <m_score__min__energy>  (15) 
-5.6900000000000004

>  <m_primary>  (15) 
energy

$$$$
15:0
     RDKit          3D

 14 13  0  0  0  0  0  0  0  0999 V2000
   -5.6749   22.0432  -32.3675 H   0  0  0  0  0  0  0  0  0  0  0  0
   -6.6400   22.4260  -32.0040 C   0  0  0  0  0  0  0  0  0  0  0  0
   -6.7100   23.6240  -31.5130 N   0  0  0  0  0  0  0  0  0  0  0  0
   -5.5570   24.3340  -31.1490 C   0  0  0  0  0  0  0  0  0  0  0  0
   -4.6070   24.9210  -30.8470 N   0  0  0  0  0  0  0  0  0  0  0  0
   -7.8070   21.5930  -32.0790 N   0  0  0  0  0  0  0  0  0  0  0  0
   -9.1030   22.0830  -31.5990 C   0  0  0  0  0  0  0  0  0  0  0  0
   -9.1095   22.0855  -30.4990 H   0  0  0  0  0  0  0  0  0  0  0  0
   -9.2682   23.1057  -31.9689 H   0  0  0  0  0  0  0  0  0  0  0  0
   -9.9035   21.4255  -31.9689 H   0  0  0  0  0  0  0  0  0  0  0  0
   -7.6710   20.2490  -32.6420 C   0  0  0  0  0  0  0  0  0  0  0  0
   -7.5968   19.5153  -31.8258 H   0  0  0  0  0  0  0  0  0  0  0  0
   -8.5506   20.0203  -33.2617 H   0  0  0  0  0  0  0  0  0  0  0  0
   -6.7634   20.2012  -33.2617 H   0  0  0  0  0  0  0  0  0  0  0  0
  1  2  1  0
  2  3  2  0
  3  4  1  0
  4  5  3  0
  2  6  1  0
  6  7  1  0
  7  8  1  0
  7  9  1  0
  7 10  1  0
  6 11  1  0
 11 12  1  0
 11 13  1  0
 11 14  1  0
M  END
>  <UniqueID>  (16) 
16

>  <SMILES>  (16) 
CN(C)/C=N/C#N

>  <Energy>  (16) 
4.593929774731231

>  <Genealogy>  (16) 
CN(C)/C=N/C#N (cis-trans isomerization)
CN(C)/C=N/C#N (3D coordinates assigned)
CN(C)/C=N/C#N (optimized conformer: 4.593929774731231 kcal/mol)

>  <smiles>  (16) 
CN(C)C=NC#N

>  <score_type>  (16) 
oracle

>  <origin>  (16) 
adg

>  <m_score__min__energy>  (16) 
-3.04

>  <m_primary>  (16) 
energy

$$$$
16:0
     RDKit          3D

 47 48  0  0  0  0  0  0  0  0999 V2000
   -0.8080   26.4540  -27.5350 C   0  0  0  0  0  0  0  0  0  0  0  0
   -1.1640   25.1220  -28.1850 C   0  0  0  0  0  0  0  0  0  0  0  0
   -2.3240   24.5190  -27.4940 N   0  0  0  0  0  0  0  0  0  0  0  0
   -2.7580   25.3050  -26.3280 C   0  0  0  0  0  0  0  0  0  0  0  0
   -3.4290   24.1290  -28.4040 C   0  0  0  0  0  0  0  0  0  0  0  0
   -3.1100   24.2130  -29.9150 C   0  0  0  0  0  0  0  0  0  0  0  0
   -3.8900   25.1970  -30.5690 O   0  0  0  0  0  0  0  0  0  0  0  0
   -5.1790   25.3000  -29.9920 C   0  0  0  0  0  0  0  0  0  0  0  0
   -6.1210   24.2590  -30.6050 C   0  0  0  0  0  0  0  0  0  0  0  0
   -5.5840   23.7620  -31.8720 N   0  0  0  0  0  0  0  0  0  0  0  0
   -5.7300   22.3960  -32.3100 C   0  0  0  0  0  0  0  0  0  0  0  0
   -4.6000   21.6760  -32.7200 C   0  0  0  0  0  0  0  0  0  0  0  0
   -4.7010   20.3430  -33.1060 C   0  0  0  0  0  0  0  0  0  0  0  0
   -5.9370   19.6830  -33.0950 C   0  0  0  0  0  0  0  0  0  0  0  0
   -5.9860   18.2350  -33.5170 C   0  0  0  0  0  0  0  0  0  0  0  0
   -7.1010   20.3900  -32.6980 C   0  0  0  0  0  0  0  0  0  0  0  0
   -8.3690   19.7710  -32.6880 C   0  0  0  0  0  0  0  0  0  0  0  0
   -9.5090   20.4850  -32.3210 C   0  0  0  0  0  0  0  0  0  0  0  0
   -9.4100   21.8270  -31.9670 C   0  0  0  0  0  0  0  0  0  0  0  0
   -8.1700   22.4640  -31.9640 C   0  0  0  0  0  0  0  0  0  0  0  0
   -6.9960   21.7590  -32.3100 C   0  0  0  0  0  0  0  0  0  0  0  0
   -0.8366   26.3472  -26.4406 H   0  0  0  0  0  0  0  0  0  0  0  0
    0.2024   26.7561  -27.8477 H   0  0  0  0  0  0  0  0  0  0  0  0
   -1.5330   27.2199  -27.8477 H   0  0  0  0  0  0  0  0  0  0  0  0
   -1.4155   25.2881  -29.2429 H   0  0  0  0  0  0  0  0  0  0  0  0
   -0.3035   24.4409  -28.1099 H   0  0  0  0  0  0  0  0  0  0  0  0
   -2.4689   24.7815  -25.4047 H   0  0  0  0  0  0  0  0  0  0  0  0
   -2.2785   26.2946  -26.3539 H   0  0  0  0  0  0  0  0  0  0  0  0
   -3.8510   25.4264  -26.3539 H   0  0  0  0  0  0  0  0  0  0  0  0
   -3.7065   23.0898  -28.1737 H   0  0  0  0  0  0  0  0  0  0  0  0
   -4.2366   24.8543  -28.2257 H   0  0  0  0  0  0  0  0  0  0  0  0
   -2.0460   24.4628  -30.0398 H   0  0  0  0  0  0  0  0  0  0  0  0
   -3.3460   23.2380  -30.3662 H   0  0  0  0  0  0  0  0  0  0  0  0
   -5.1059   25.1293  -28.9078 H   0  0  0  0  0  0  0  0  0  0  0  0
   -5.5799   26.3052  -30.1892 H   0  0  0  0  0  0  0  0  0  0  0  0
   -6.2345   23.4177  -29.9055 H   0  0  0  0  0  0  0  0  0  0  0  0
   -7.0966   24.7308  -30.7938 H   0  0  0  0  0  0  0  0  0  0  0  0
   -5.0600   24.4370  -32.4730 H   0  0  0  0  0  0  0  0  0  0  0  0
   -3.6183   22.1720  -32.7370 H   0  0  0  0  0  0  0  0  0  0  0  0
   -3.7987   19.8002  -33.4240 H   0  0  0  0  0  0  0  0  0  0  0  0
   -6.0077   17.5933  -32.6238 H   0  0  0  0  0  0  0  0  0  0  0  0
   -6.8906   18.0585  -34.1174 H   0  0  0  0  0  0  0  0  0  0  0  0
   -5.0954   17.9977  -34.1174 H   0  0  0  0  0  0  0  0  0  0  0  0
   -8.4592   18.7124  -32.9732 H   0  0  0  0  0  0  0  0  0  0  0  0
  -10.4893   19.9860  -32.3113 H   0  0  0  0  0  0  0  0  0  0  0  0
  -10.3143   22.3878  -31.6882 H   0  0  0  0  0  0  0  0  0  0  0  0
   -8.1052   23.5271  -31.6892 H   0  0  0  0  0  0  0  0  0  0  0  0
  1  2  1  0
  2  3  1  0
  3  4  1  0
  3  5  1  0
  5  6  1  0
  6  7  1  0
  7  8  1  0
  8  9  1  0
  9 10  1  0
 10 11  1  0
 11 12  2  0
 12 13  1  0
 13 14  2  0
 14 15  1  0
 14 16  1  0
 16 17  2  0
 17 18  1  0
 18 19  2  0
 19 20  1  0
 20 21  2  0
 21 11  1  0
 21 16  1  0
  1 22  1  0
  1 23  1  0
  1 24  1  0
  2 25  1  0
  2 26  1  0
  4 27  1  0
  4 28  1  0
  4 29  1  0
  5 30  1  0
  5 31  1  0
  6 32  1  0
  6 33  1  0
  8 34  1  0
  8 35  1  0
  9 36  1  0
  9 37  1  0
 10 38  1  0
 12 39  1  0
 13 40  1  0
 15 41  1  0
 15 42  1  0
 15 43  1  0
 17 44  1  0
 18 45  1  0
 19 46  1  0
 20 47  1  0
M  END
>  <UniqueID>  (17) 
17

>  <SMILES>  (17) 
CCN(C)CCOCCNc1ccc(C)c2ccccc12

>  <Energy>  (17) 
58.85862070165789

>  <Genealogy>  (17) 
CCN(C)CCOCCNc1ccc(C)c2ccccc12 (3D coordinates assigned)
CCN(C)CCOCCNc1ccc(C)c2ccccc12 (optimized conformer: 58.85862070165789 kcal/mol)

>  <smiles>  (17) 
CCN(C)CCOCCNc1ccc(C)c2ccccc12

>  <score_type>  (17) 
oracle

>  <origin>  (17) 
adg

>  <m_score__min__energy>  (17) 
-8.1699999999999999

>  <m_primary>  (17) 
energy

$$$$
17:0
     RDKit          3D

 45 49  0  0  1  0  0  0  0  0999 V2000
   -7.7050   20.0210  -32.6460 C   0  0  0  0  0  0  0  0  0  0  0  0
   -6.4960   20.7030  -32.8020 C   0  0  0  0  0  0  0  0  0  0  0  0
   -6.3320   21.9690  -32.3020 C   0  0  0  0  0  0  0  0  0  0  0  0
   -7.3600   22.5940  -31.6350 C   0  0  0  0  0  0  0  0  0  0  0  0
   -7.2450   23.9550  -31.0740 C   0  0  0  0  0  0  0  0  0  0  0  0
   -5.8460   24.2690  -30.6490 C   0  0  0  0  0  0  0  0  0  0  0  0
   -5.2460   23.6290  -29.5870 C   0  0  0  0  0  0  0  0  0  0  0  0
   -3.9770   24.1610  -29.4830 C   0  0  0  0  0  0  0  0  0  0  0  0
   -2.9560   23.8040  -28.5050 C   0  0  0  0  0  0  0  0  0  0  0  0
   -2.4890   22.5070  -28.4660 C   0  0  0  0  0  0  0  0  0  0  0  0
   -1.5110   22.1910  -27.5220 C   0  0  0  0  0  0  0  0  0  0  0  0
   -1.0290   23.1660  -26.6500 C   0  0  0  0  0  0  0  0  0  0  0  0
   -1.5310   24.4420  -26.7340 C   0  0  0  0  0  0  0  0  0  0  0  0
   -1.1120   25.5130  -25.8950 N   0  0  0  0  0  0  0  0  0  0  0  0
   -1.5830   26.9120  -25.9270 C   0  0  0  0  0  0  0  0  0  0  0  0
   -0.5400   27.6680  -25.1280 C   0  0  2  0  0  0  0  0  0  0  0  0
    0.6550   26.7400  -25.2670 C   0  0  0  0  0  0  0  0  0  0  0  0
   -0.1340   25.5040  -24.8160 C   0  0  1  0  0  0  0  0  0  0  0  0
   -0.7910   26.0940  -23.6030 C   0  0  0  0  0  0  0  0  0  0  0  0
   -0.8590   27.4760  -23.7860 O   0  0  0  0  0  0  0  0  0  0  0  0
   -2.4690   24.6970  -27.6570 N   0  0  0  0  0  0  0  0  0  0  0  0
   -3.8840   25.0730  -30.4660 N   0  0  0  0  0  0  0  0  0  0  0  0
   -4.9810   25.1510  -31.1680 N   0  0  0  0  0  0  0  0  0  0  0  0
   -8.5460   21.8980  -31.4930 C   0  0  0  0  0  0  0  0  0  0  0  0
   -8.7460   20.6300  -31.9800 C   0  0  0  0  0  0  0  0  0  0  0  0
   -7.8250   19.0056  -33.0517 H   0  0  0  0  0  0  0  0  0  0  0  0
   -5.6641   20.2176  -33.3333 H   0  0  0  0  0  0  0  0  0  0  0  0
   -5.3716   22.4886  -32.4351 H   0  0  0  0  0  0  0  0  0  0  0  0
   -7.5555   24.6819  -31.8390 H   0  0  0  0  0  0  0  0  0  0  0  0
   -7.8911   24.0122  -30.1856 H   0  0  0  0  0  0  0  0  0  0  0  0
   -5.6896   22.8499  -28.9496 H   0  0  0  0  0  0  0  0  0  0  0  0
   -2.8757   21.7445  -29.1581 H   0  0  0  0  0  0  0  0  0  0  0  0
   -1.1176   21.1653  -27.4656 H   0  0  0  0  0  0  0  0  0  0  0  0
   -0.2582   22.9173  -25.9057 H   0  0  0  0  0  0  0  0  0  0  0  0
   -1.6301   27.2853  -26.9607 H   0  0  0  0  0  0  0  0  0  0  0  0
   -2.5968   27.0271  -25.5160 H   0  0  0  0  0  0  0  0  0  0  0  0
   -0.4295   28.7228  -25.4198 H   0  0  0  0  0  0  0  0  0  0  0  0
    1.0298   26.6646  -26.2984 H   0  0  0  0  0  0  0  0  0  0  0  0
    1.5826   26.9946  -24.7334 H   0  0  0  0  0  0  0  0  0  0  0  0
    0.3463   24.5314  -24.6333 H   0  0  0  0  0  0  0  0  0  0  0  0
   -1.8041   25.6812  -23.4878 H   0  0  0  0  0  0  0  0  0  0  0  0
   -0.2143   25.8536  -22.6977 H   0  0  0  0  0  0  0  0  0  0  0  0
   -3.0350   25.6740  -30.6740 H   0  0  0  0  0  0  0  0  0  0  0  0
   -9.3751   22.3870  -30.9605 H   0  0  0  0  0  0  0  0  0  0  0  0
   -9.7086   20.1157  -31.8425 H   0  0  0  0  0  0  0  0  0  0  0  0
  1  2  2  0
  2  3  1  0
  3  4  2  0
  4  5  1  0
  5  6  1  0
  6  7  1  0
  7  8  2  0
  8  9  1  0
  9 10  2  0
 10 11  1  0
 11 12  2  0
 12 13  1  0
 13 14  1  0
 14 15  1  0
 15 16  1  0
 16 17  1  0
 17 18  1  0
 18 19  1  0
 19 20  1  0
 13 21  2  0
  8 22  1  0
 22 23  1  0
  4 24  1  0
 24 25  2  0
 25  1  1  0
 23  6  2  0
 21  9  1  0
 18 14  1  0
 20 16  1  0
  1 26  1  0
  2 27  1  0
  3 28  1  0
  5 29  1  0
  5 30  1  0
  7 31  1  0
 10 32  1  0
 11 33  1  0
 12 34  1  0
 15 35  1  0
 15 36  1  0
 16 37  1  6
 17 38  1  0
 17 39  1  0
 18 40  1  1
 19 41  1  0
 19 42  1  0
 22 43  1  0
 24 44  1  0
 25 45  1  0
M  END
>  <smiles>  (18) 
c1ccc(Cc2cc(-c3cccc(N4CC5CC4CO5)n3)[nH]n2)cc1

>  <score_type>  (18) 
oracle

>  <origin>  (18) 
adg

>  <m_score__min__energy>  (18) 
-9.4399999999999995

>  <m_primary>  (18) 
energy

$$$$
18:0
     RDKit          3D

 48 49  0  0  0  0  0  0  0  0999 V2000
   -6.6670   17.0470  -32.6910 C   0  0  0  0  0  0  0  0  0  0  0  0
   -5.5960   17.8980  -32.0110 C   0  0  0  0  0  0  0  0  0  0  0  0
   -4.5500   18.2880  -32.9700 N   0  0  0  0  0  0  0  0  0  0  0  0
   -5.0650   18.2340  -34.3460 C   0  0  0  0  0  0  0  0  0  0  0  0
   -4.2530   17.2540  -35.1950 C   0  0  0  0  0  0  0  0  0  0  0  0
   -3.1670   16.7730  -34.4320 O   0  0  0  0  0  0  0  0  0  0  0  0
   -2.0310   17.6040  -34.5950 C   0  0  0  0  0  0  0  0  0  0  0  0
   -1.4060   17.9050  -33.2370 C   0  0  0  0  0  0  0  0  0  0  0  0
   -2.0690   19.0030  -32.6490 O   0  0  0  0  0  0  0  0  0  0  0  0
   -1.3470   20.1880  -32.9100 C   0  0  0  0  0  0  0  0  0  0  0  0
   -2.1320   21.3850  -32.3750 C   0  0  0  0  0  0  0  0  0  0  0  0
   -3.3010   21.6620  -33.2120 N   0  0  0  0  0  0  0  0  0  0  0  0
   -4.6370   21.8710  -32.7200 C   0  0  0  0  0  0  0  0  0  0  0  0
   -4.9920   23.0160  -31.9850 C   0  0  0  0  0  0  0  0  0  0  0  0
   -6.3060   23.1730  -31.5310 C   0  0  0  0  0  0  0  0  0  0  0  0
   -6.6120   24.2030  -30.8700 O   0  0  0  0  0  0  0  0  0  0  0  0
   -7.2670   22.1870  -31.8180 C   0  0  0  0  0  0  0  0  0  0  0  0
   -8.6010   22.2960  -31.3860 C   0  0  0  0  0  0  0  0  0  0  0  0
   -9.5240   21.2920  -31.6970 C   0  0  0  0  0  0  0  0  0  0  0  0
   -9.1260   20.1770  -32.4380 C   0  0  0  0  0  0  0  0  0  0  0  0
   -7.8040   20.0570  -32.8730 C   0  0  0  0  0  0  0  0  0  0  0  0
   -6.8720   21.0560  -32.5670 C   0  0  0  0  0  0  0  0  0  0  0  0
   -5.5860   20.9350  -32.9910 N   0  0  0  0  0  0  0  0  0  0  0  0
   -7.2855   16.5555  -31.9255 H   0  0  0  0  0  0  0  0  0  0  0  0
   -7.3021   17.6895  -33.3186 H   0  0  0  0  0  0  0  0  0  0  0  0
   -6.1846   16.2831  -33.3186 H   0  0  0  0  0  0  0  0  0  0  0  0
   -6.0636   18.8045  -31.5993 H   0  0  0  0  0  0  0  0  0  0  0  0
   -5.1338   17.3061  -31.2072 H   0  0  0  0  0  0  0  0  0  0  0  0
   -4.2360   19.2640  -32.7580 H   0  0  0  0  0  0  0  0  0  0  0  0
   -3.7390   17.6320  -32.8770 H   0  0  0  0  0  0  0  0  0  0  0  0
   -6.1153   17.9076  -34.3249 H   0  0  0  0  0  0  0  0  0  0  0  0
   -4.9829   19.2364  -34.7915 H   0  0  0  0  0  0  0  0  0  0  0  0
   -4.8922   16.4116  -35.4981 H   0  0  0  0  0  0  0  0  0  0  0  0
   -3.8774   17.7648  -36.0939 H   0  0  0  0  0  0  0  0  0  0  0  0
   -1.2932   17.0919  -35.2302 H   0  0  0  0  0  0  0  0  0  0  0  0
   -2.3391   18.5481  -35.0680 H   0  0  0  0  0  0  0  0  0  0  0  0
   -1.5041   17.0248  -32.5846 H   0  0  0  0  0  0  0  0  0  0  0  0
   -0.3408   18.1462  -33.3681 H   0  0  0  0  0  0  0  0  0  0  0  0
   -0.3673   20.1387  -32.4122 H   0  0  0  0  0  0  0  0  0  0  0  0
   -1.1994   20.2987  -33.9944 H   0  0  0  0  0  0  0  0  0  0  0  0
   -2.4669   21.1667  -31.3502 H   0  0  0  0  0  0  0  0  0  0  0  0
   -1.4758   22.2678  -32.3860 H   0  0  0  0  0  0  0  0  0  0  0  0
   -3.1530   21.6950  -34.2460 H   0  0  0  0  0  0  0  0  0  0  0  0
   -4.2380   23.7868  -31.7674 H   0  0  0  0  0  0  0  0  0  0  0  0
   -8.9191   23.1725  -30.8024 H   0  0  0  0  0  0  0  0  0  0  0  0
  -10.5663   21.3809  -31.3570 H   0  0  0  0  0  0  0  0  0  0  0  0
   -9.8561   19.3906  -32.6799 H   0  0  0  0  0  0  0  0  0  0  0  0
   -7.4950   19.1771  -33.4563 H   0  0  0  0  0  0  0  0  0  0  0  0
  1  2  1  0
  2  3  1  0
  3  4  1  0
  4  5  1  0
  5  6  1  0
  6  7  1  0
  7  8  1  0
  8  9  1  0
  9 10  1  0
 10 11  1  0
 11 12  1  0
 12 13  1  0
 13 14  2  0
 14 15  1  0
 15 16  2  0
 15 17  1  0
 17 18  2  0
 18 19  1  0
 19 20  2  0
 20 21  1  0
 21 22  2  0
 22 23  1  0
 23 13  1  0
 22 17  1  0
  1 24  1  0
  1 25  1  0
  1 26  1  0
  2 27  1  0
  2 28  1  0
  3 29  1  0
  3 30  1  0
  4 31  1  0
  4 32  1  0
  5 33  1  0
  5 34  1  0
  7 35  1  0
  7 36  1  0
  8 37  1  0
  8 38  1  0
 10 39  1  0
 10 40  1  0
 11 41  1  0
 11 42  1  0
 12 43  1  0
 14 44  1  0
 18 45  1  0
 19 46  1  0
 20 47  1  0
 21 48  1  0
M  CHG  2   3   1  23  -1
M  END
>  <UniqueID>  (19) 
18

>  <SMILES>  (19) 
CC[NH2+]CCOCCOCCNc1cc(=O)c2ccccc2[n-]1

>  <Energy>  (19) 
44.188581029056465

>  <Genealogy>  (19) 
CC[NH2+]CCOCCOCCNc1cc(=O)c2ccccc2[n-]1 (protonated)
CC[NH2+]CCOCCOCCNc1cc(=O)c2ccccc2[n-]1 (3D coordinates assigned)
CC[NH2+]CCOCCOCCNc1cc(=O)c2ccccc2[n-]1 (optimized conformer: 44.188581029056465 kcal/mol)

>  <smiles>  (19) 
CCNCCOCCOCCNc1cc(=O)c2ccccc2[nH]1

>  <score_type>  (19) 
oracle

>  <origin>  (19) 
adg

>  <m_score__min__energy>  (19) 
-8.4600000000000009

>  <m_primary>  (19) 
energy

$$$$
