0:0
     RDKit          3D

 43 45  0  0  0  0  0  0  0  0999 V2000
   -1.7230   21.5070  -31.1290 C   0  0  0  0  0  0  0  0  0  0  0  0
   -2.6910   21.7940  -29.9810 C   0  0  0  0  0  0  0  0  0  0  0  0
   -4.1010   22.0970  -30.4460 C   0  0  0  0  0  0  0  0  0  0  0  0
   -4.7530   21.1770  -31.2190 N   0  0  0  0  0  0  0  0  0  0  0  0
   -6.0090   21.4260  -31.6510 C   0  0  0  0  0  0  0  0  0  0  0  0
   -6.6760   22.5740  -31.3480 C   0  0  0  0  0  0  0  0  0  0  0  0
   -7.8890   22.4440  -32.0230 C   0  0  0  0  0  0  0  0  0  0  0  0
   -9.0300   23.4080  -32.0690 C   0  0  0  0  0  0  0  0  0  0  0  0
   -7.9060   21.2570  -32.6760 N   0  0  0  0  0  0  0  0  0  0  0  0
   -6.7510   20.6420  -32.4500 N   0  0  0  0  0  0  0  0  0  0  0  0
   -6.4100   19.3410  -32.9600 C   0  0  0  0  0  0  0  0  0  0  0  0
   -5.2780   19.1900  -33.7800 C   0  0  0  0  0  0  0  0  0  0  0  0
   -4.9210   17.9340  -34.2730 C   0  0  0  0  0  0  0  0  0  0  0  0
   -5.6790   16.8030  -33.9450 C   0  0  0  0  0  0  0  0  0  0  0  0
   -5.3180   15.4610  -34.5080 C   0  0  0  0  0  0  0  0  0  0  0  0
   -6.8210   16.9500  -33.1440 C   0  0  0  0  0  0  0  0  0  0  0  0
   -7.1870   18.2050  -32.6460 C   0  0  0  0  0  0  0  0  0  0  0  0
   -8.7970   18.3270  -31.6130 Br  0  0  0  0  0  0  0  0  0  0  0  0
   -6.0980   23.5510  -30.5210 C   0  0  0  0  0  0  0  0  0  0  0  0
   -6.8720   24.7850  -30.1270 C   0  0  0  0  0  0  0  0  0  0  0  0
   -4.7590   23.3150  -30.0790 C   0  0  0  0  0  0  0  0  0  0  0  0
   -4.0460   24.3220  -29.2610 C   0  0  0  0  0  0  0  0  0  0  0  0
   -4.4940   24.6330  -27.9410 N   0  0  0  0  0  0  0  0  0  0  0  0
   -3.0460   24.9230  -29.7360 O   0  0  0  0  0  0  0  0  0  0  0  0
   -0.7442   21.2168  -30.7194 H   0  0  0  0  0  0  0  0  0  0  0  0
   -2.1195   20.6878  -31.7468 H   0  0  0  0  0  0  0  0  0  0  0  0
   -1.6088   22.4099  -31.7468 H   0  0  0  0  0  0  0  0  0  0  0  0
   -2.7224   20.9133  -29.3226 H   0  0  0  0  0  0  0  0  0  0  0  0
   -2.3210   22.6891  -29.4596 H   0  0  0  0  0  0  0  0  0  0  0  0
   -9.3343   23.6651  -31.0437 H   0  0  0  0  0  0  0  0  0  0  0  0
   -8.7181   24.3203  -32.5986 H   0  0  0  0  0  0  0  0  0  0  0  0
   -9.8774   22.9482  -32.5986 H   0  0  0  0  0  0  0  0  0  0  0  0
   -4.6684   20.0693  -34.0352 H   0  0  0  0  0  0  0  0  0  0  0  0
   -4.0393   17.8319  -34.9228 H   0  0  0  0  0  0  0  0  0  0  0  0
   -5.1286   14.7568  -33.6845 H   0  0  0  0  0  0  0  0  0  0  0  0
   -6.1476   15.0875  -35.1263 H   0  0  0  0  0  0  0  0  0  0  0  0
   -4.4130   15.5542  -35.1263 H   0  0  0  0  0  0  0  0  0  0  0  0
   -7.4352   16.0693  -32.9049 H   0  0  0  0  0  0  0  0  0  0  0  0
   -6.9162   24.8554  -29.0301 H   0  0  0  0  0  0  0  0  0  0  0  0
   -6.3712   25.6768  -30.5318 H   0  0  0  0  0  0  0  0  0  0  0  0
   -7.8929   24.7223  -30.5318 H   0  0  0  0  0  0  0  0  0  0  0  0
   -3.9810   25.3350  -27.3620 H   0  0  0  0  0  0  0  0  0  0  0  0
   -5.3500   24.1810  -27.5490 H   0  0  0  0  0  0  0  0  0  0  0  0
  1  2  1  0
  2  3  1  0
  3  4  2  0
  4  5  1  0
  5  6  2  0
  6  7  1  0
  7  8  1  0
  7  9  2  0
  9 10  1  0
 10 11  1  0
 11 12  2  0
 12 13  1  0
 13 14  2  0
 14 15  1  0
 14 16  1  0
 16 17  2  0
 17 18  1  0
  6 19  1  0
 19 20  1  0
 19 21  2  0
 21 22  1  0
 22 23  1  0
 22 24  2  0
 21  3  1  0
 10  5  1  0
 17 11  1  0
  1 25  1  0
  1 26  1  0
  1 27  1  0
  2 28  1  0
  2 29  1  0
  8 30  1  0
  8 31  1  0
  8 32  1  0
 12 33  1  0
 13 34  1  0
 15 35  1  0
 15 36  1  0
 15 37  1  0
 16 38  1  0
 20 39  1  0
 20 40  1  0
 20 41  1  0
 23 42  1  0
 23 43  1  0
M  END
>  <UniqueID>  (1) 
1

>  <SMILES>  (1) 
CCc1nc2c(c(C)nn2-c2ccc(C)cc2Br)c(C)c1C(N)=O

>  <Energy>  (1) 
96.39467291422577

>  <Genealogy>  (1) 
CCc1nc2c(c(C)nn2-c2ccc(C)cc2Br)c(C)c1C(N)=O (3D coordinates assigned)
CCc1nc2c(c(C)nn2-c2ccc(C)cc2Br)c(C)c1C(N)=O (optimized conformer: 96.39467291422577 kcal/mol)

>  <smiles>  (1) 
CCc1nc2c(c(C)nn2-c2ccc(C)cc2Br)c(C)c1C(N)=O

>  <score_type>  (1) 
oracle

>  <origin>  (1) 
adg

>  <m_score__min__energy>  (1) 
-9.5999999999999996

>  <m_primary>  (1) 
energy

$$$$
1:0
     RDKit          3D

 60 64  0  0  0  0  0  0  0  0999 V2000
   -2.7340   18.7260  -25.6800 C   0  0  0  0  0  0  0  0  0  0  0  0
   -1.9850   19.4620  -26.5000 C   0  0  0  0  0  0  0  0  0  0  0  0
   -1.0600   18.9610  -27.5010 C   0  0  0  0  0  0  0  0  0  0  0  0
   -0.8280   17.7440  -27.7340 O   0  0  0  0  0  0  0  0  0  0  0  0
   -0.5360   20.1200  -28.3010 C   0  0  1  0  0  0  0  0  0  0  0  0
    0.9340   19.9390  -28.7420 C   0  0  0  0  0  0  0  0  0  0  0  0
    1.0250   19.4170  -30.1680 C   0  0  0  0  0  0  0  0  0  0  0  0
    0.4460   20.4280  -31.1920 C   0  0  1  0  0  0  0  0  0  0  0  0
    0.3680   19.7260  -32.5260 C   0  0  0  0  0  0  0  0  0  0  0  0
    1.3940   19.1700  -32.9970 O   0  0  0  0  0  0  0  0  0  0  0  0
   -0.8010   19.7020  -33.2720 O   0  0  0  0  0  0  0  0  0  0  0  0
   -1.9020   20.4930  -32.9660 C   0  0  0  0  0  0  0  0  0  0  0  0
   -2.9910   20.5480  -33.8440 O   0  0  0  0  0  0  0  0  0  0  0  0
   -4.3330   20.4320  -33.4540 C   0  0  0  0  0  0  0  0  0  0  0  0
   -5.0080   21.4710  -32.7890 C   0  0  0  0  0  0  0  0  0  0  0  0
   -6.3470   21.3150  -32.4140 C   0  0  0  0  0  0  0  0  0  0  0  0
   -7.0310   20.1190  -32.6890 C   0  0  0  0  0  0  0  0  0  0  0  0
   -8.4860   19.9660  -32.2850 C   0  0  0  0  0  0  0  0  0  0  0  0
   -8.9230   21.1050  -31.3580 C   0  0  0  0  0  0  0  0  0  0  0  0
   -8.7410   18.5950  -31.6380 C   0  0  0  0  0  0  0  0  0  0  0  0
   -6.3420   19.0750  -33.3360 C   0  0  0  0  0  0  0  0  0  0  0  0
   -5.0030   19.2310  -33.7070 C   0  0  0  0  0  0  0  0  0  0  0  0
   -1.9480   21.2040  -31.8430 C   0  0  0  0  0  0  0  0  0  0  0  0
   -0.9100   21.1310  -30.7220 C   0  0  2  0  0  0  0  0  0  0  0  0
   -0.6040   22.5980  -30.3420 C   0  0  0  0  0  0  0  0  0  0  0  0
   -1.5370   20.3500  -29.4960 C   0  0  2  0  0  0  0  0  0  0  0  0
   -2.9740   20.8020  -29.0060 C   0  0  0  0  0  0  0  0  0  0  0  0
   -3.0860   21.4340  -27.5880 C   0  0  0  0  0  0  0  0  0  0  0  0
   -2.0030   20.9550  -26.6040 C   0  0  2  0  0  0  0  0  0  0  0  0
   -0.6580   21.2460  -27.2540 C   0  0  0  0  0  0  0  0  0  0  0  0
   -3.4028   19.2162  -24.9573 H   0  0  0  0  0  0  0  0  0  0  0  0
   -2.6836   17.6281  -25.7257 H   0  0  0  0  0  0  0  0  0  0  0  0
    1.4476   20.9099  -28.6827 H   0  0  0  0  0  0  0  0  0  0  0  0
    1.4083   19.2053  -28.0736 H   0  0  0  0  0  0  0  0  0  0  0  0
    2.0813   19.2297  -30.4114 H   0  0  0  0  0  0  0  0  0  0  0  0
    0.4335   18.4917  -30.2307 H   0  0  0  0  0  0  0  0  0  0  0  0
    1.1194   21.2931  -31.2821 H   0  0  0  0  0  0  0  0  0  0  0  0
   -4.4814   22.4099  -32.5628 H   0  0  0  0  0  0  0  0  0  0  0  0
   -6.8685   22.1356  -31.8996 H   0  0  0  0  0  0  0  0  0  0  0  0
   -9.0962   20.0233  -33.1984 H   0  0  0  0  0  0  0  0  0  0  0  0
   -8.8028   20.7918  -30.3104 H   0  0  0  0  0  0  0  0  0  0  0  0
   -8.3014   21.9922  -31.5490 H   0  0  0  0  0  0  0  0  0  0  0  0
   -9.9785   21.3488  -31.5490 H   0  0  0  0  0  0  0  0  0  0  0  0
   -8.7220   18.6971  -30.5429 H   0  0  0  0  0  0  0  0  0  0  0  0
   -9.7247   18.2177  -31.9541 H   0  0  0  0  0  0  0  0  0  0  0  0
   -7.9587   17.8892  -31.9541 H   0  0  0  0  0  0  0  0  0  0  0  0
   -6.8613   18.1295  -33.5512 H   0  0  0  0  0  0  0  0  0  0  0  0
   -4.4731   18.4034  -34.2012 H   0  0  0  0  0  0  0  0  0  0  0  0
   -2.7939   21.8946  -31.7108 H   0  0  0  0  0  0  0  0  0  0  0  0
   -0.5835   22.6964  -29.2466 H   0  0  0  0  0  0  0  0  0  0  0  0
    0.3738   22.8873  -30.7545 H   0  0  0  0  0  0  0  0  0  0  0  0
   -1.3846   23.2541  -30.7545 H   0  0  0  0  0  0  0  0  0  0  0  0
   -1.7298   19.3675  -29.9514 H   0  0  0  0  0  0  0  0  0  0  0  0
   -3.3497   21.5429  -29.7271 H   0  0  0  0  0  0  0  0  0  0  0  0
   -3.5538   19.8693  -28.9427 H   0  0  0  0  0  0  0  0  0  0  0  0
   -3.0041   22.5264  -27.6883 H   0  0  0  0  0  0  0  0  0  0  0  0
   -4.0553   21.1193  -27.1739 H   0  0  0  0  0  0  0  0  0  0  0  0
   -2.1904   21.4373  -25.6333 H   0  0  0  0  0  0  0  0  0  0  0  0
   -0.6554   22.2358  -27.7340 H   0  0  0  0  0  0  0  0  0  0  0  0
    0.1768   21.2683  -26.5380 H   0  0  0  0  0  0  0  0  0  0  0  0
  1  2  2  0
  2  3  1  0
  3  4  2  0
  3  5  1  0
  5  6  1  6
  6  7  1  0
  7  8  1  0
  8  9  1  0
  9 10  2  0
  9 11  1  0
 11 12  1  0
 12 13  1  0
 13 14  1  0
 14 15  2  0
 15 16  1  0
 16 17  2  0
 17 18  1  0
 18 19  1  0
 18 20  1  0
 17 21  1  0
 21 22  2  0
 12 23  2  0
 23 24  1  0
 24 25  1  1
 24 26  1  0
 26 27  1  0
 27 28  1  0
 28 29  1  0
 29 30  1  0
 29  2  1  0
 26  5  1  0
 30  5  1  0
 24  8  1  0
 22 14  1  0
  1 31  1  0
  1 32  1  0
  6 33  1  0
  6 34  1  0
  7 35  1  0
  7 36  1  0
  8 37  1  6
 15 38  1  0
 16 39  1  0
 18 40  1  0
 19 41  1  0
 19 42  1  0
 19 43  1  0
 20 44  1  0
 20 45  1  0
 20 46  1  0
 21 47  1  0
 22 48  1  0
 23 49  1  0
 25 50  1  0
 25 51  1  0
 25 52  1  0
 26 53  1  6
 27 54  1  0
 27 55  1  0
 28 56  1  0
 28 57  1  0
 29 58  1  1
 30 59  1  0
 30 60  1  0
M  END
>  <UniqueID>  (2) 
2

>  <SMILES>  (2) 
C=C1C(=O)[C@@]23CC[C@H]4C(=O)OC(Oc5ccc(C(C)C)cc5)=CC4(C)C2CCC1C3

>  <Energy>  (2) 
105.93222304483004

>  <Genealogy>  (2) 
C=C1C(=O)[C@@]23CC[C@H]4C(=O)OC(Oc5ccc(C(C)C)cc5)=CC4(C)C2CCC1C3 (chirality)
C=C1C(=O)[C@@]23CC[C@H]4C(=O)OC(Oc5ccc(C(C)C)cc5)=CC4(C)C2CCC1C3 (3D coordinates assigned)
C=C1C(=O)[C@@]23CC[C@H]4C(=O)OC(Oc5ccc(C(C)C)cc5)=CC4(C)C2CCC1C3 (nonaromatic ring conformer: 105.93222304483004 kcal/mol)

>  <smiles>  (2) 
C=C1C(=O)C23CCC4C(=O)OC(Oc5ccc(C(C)C)cc5)=CC4(C)C2CCC1C3

>  <score_type>  (2) 
oracle

>  <origin>  (2) 
adg

>  <m_score__min__energy>  (2) 
-10.550000000000001

>  <m_primary>  (2) 
energy

$$$$
2:0
     RDKit          3D

 45 49  0  0  0  0  0  0  0  0999 V2000
   -6.5820   17.5930  -32.6210 C   0  0  0  0  0  0  0  0  0  0  0  0
   -6.3760   18.9960  -32.2710 N   0  0  0  0  0  0  0  0  0  0  0  0
   -5.1930   19.5790  -31.9700 C   0  0  0  0  0  0  0  0  0  0  0  0
   -5.3850   20.9200  -31.6450 C   0  0  0  0  0  0  0  0  0  0  0  0
   -4.3330   21.8770  -31.2420 C   0  0  0  0  0  0  0  0  0  0  0  0
   -4.6460   23.1350  -30.9070 C   0  0  0  0  0  0  0  0  0  0  0  0
   -3.5960   24.0650  -30.4680 C   0  0  0  0  0  0  0  0  0  0  0  0
   -3.8570   25.2940  -30.3670 O   0  0  0  0  0  0  0  0  0  0  0  0
   -2.2960   23.5570  -30.1030 N   0  0  0  0  0  0  0  0  0  0  0  0
   -1.4790   24.3280  -29.1420 C   0  0  0  0  0  0  0  0  0  0  0  0
   -0.6080   23.4180  -28.2450 C   0  0  0  0  0  0  0  0  0  0  0  0
   -1.3260   22.1270  -27.9190 C   0  0  0  0  0  0  0  0  0  0  0  0
   -1.2810   21.5760  -26.6310 C   0  0  0  0  0  0  0  0  0  0  0  0
   -1.9480   20.3800  -26.3570 C   0  0  0  0  0  0  0  0  0  0  0  0
   -2.6600   19.7270  -27.3670 C   0  0  0  0  0  0  0  0  0  0  0  0
   -2.7000   20.2590  -28.6590 C   0  0  0  0  0  0  0  0  0  0  0  0
   -2.0230   21.4590  -28.9480 C   0  0  0  0  0  0  0  0  0  0  0  0
   -1.9920   22.1280  -30.3090 C   0  0  1  0  0  0  0  0  0  0  0  0
   -2.8820   21.5050  -31.4090 C   0  0  0  0  0  0  0  0  0  0  0  0
   -6.7530   21.1340  -31.7310 C   0  0  0  0  0  0  0  0  0  0  0  0
   -7.5340   22.2560  -31.4400 C   0  0  0  0  0  0  0  0  0  0  0  0
   -8.9280   22.1460  -31.5870 C   0  0  0  0  0  0  0  0  0  0  0  0
   -9.5100   20.9280  -32.0000 C   0  0  0  0  0  0  0  0  0  0  0  0
   -8.7050   19.8060  -32.2620 C   0  0  0  0  0  0  0  0  0  0  0  0
   -7.3220   19.9430  -32.1150 C   0  0  0  0  0  0  0  0  0  0  0  0
   -6.6698   16.9949  -31.7020 H   0  0  0  0  0  0  0  0  0  0  0  0
   -7.5043   17.4942  -33.2123 H   0  0  0  0  0  0  0  0  0  0  0  0
   -5.7270   17.2333  -33.2123 H   0  0  0  0  0  0  0  0  0  0  0  0
   -4.2192   19.0676  -31.9804 H   0  0  0  0  0  0  0  0  0  0  0  0
   -5.6913   23.4732  -30.9605 H   0  0  0  0  0  0  0  0  0  0  0  0
   -0.8194   25.0061  -29.7034 H   0  0  0  0  0  0  0  0  0  0  0  0
   -2.1666   24.8842  -28.4879 H   0  0  0  0  0  0  0  0  0  0  0  0
    0.3290   23.1848  -28.7720 H   0  0  0  0  0  0  0  0  0  0  0  0
   -0.4006   23.9496  -27.3046 H   0  0  0  0  0  0  0  0  0  0  0  0
   -0.7194   22.0864  -25.8347 H   0  0  0  0  0  0  0  0  0  0  0  0
   -1.9129   19.9512  -25.3446 H   0  0  0  0  0  0  0  0  0  0  0  0
   -3.1914   18.7900  -27.1441 H   0  0  0  0  0  0  0  0  0  0  0  0
   -3.2607   19.7398  -29.4502 H   0  0  0  0  0  0  0  0  0  0  0  0
   -0.9831   21.9714  -30.7183 H   0  0  0  0  0  0  0  0  0  0  0  0
   -2.5351   21.8613  -32.3901 H   0  0  0  0  0  0  0  0  0  0  0  0
   -2.8015   20.4107  -31.3307 H   0  0  0  0  0  0  0  0  0  0  0  0
   -7.0720   23.1968  -31.1060 H   0  0  0  0  0  0  0  0  0  0  0  0
   -9.5695   23.0150  -31.3788 H   0  0  0  0  0  0  0  0  0  0  0  0
  -10.6014   20.8565  -32.1176 H   0  0  0  0  0  0  0  0  0  0  0  0
   -9.1499   18.8494  -32.5732 H   0  0  0  0  0  0  0  0  0  0  0  0
  1  2  1  0
  2  3  1  0
  3  4  2  0
  4  5  1  0
  5  6  2  0
  6  7  1  0
  7  8  2  0
  7  9  1  0
  9 10  1  0
 10 11  1  0
 11 12  1  0
 12 13  2  0
 13 14  1  0
 14 15  2  0
 15 16  1  0
 16 17  2  0
 17 18  1  0
 18 19  1  0
  4 20  1  0
 20 21  2  0
 21 22  1  0
 22 23  2  0
 23 24  1  0
 24 25  2  0
 25  2  1  0
 19  5  1  0
 25 20  1  0
 18  9  1  0
 17 12  1  0
  1 26  1  0
  1 27  1  0
  1 28  1  0
  3 29  1  0
  6 30  1  0
 10 31  1  0
 10 32  1  0
 11 33  1  0
 11 34  1  0
 13 35  1  0
 14 36  1  0
 15 37  1  0
 16 38  1  0
 18 39  1  6
 19 40  1  0
 19 41  1  0
 21 42  1  0
 22 43  1  0
 23 44  1  0
 24 45  1  0
M  END
>  <UniqueID>  (3) 
3

>  <SMILES>  (3) 
Cn1cc(C2=CC(=O)N3CCc4ccccc4[C@H]3C2)c2ccccc21

>  <Energy>  (3) 
98.10897333472218

>  <Genealogy>  (3) 
Cn1cc(C2=CC(=O)N3CCc4ccccc4[C@H]3C2)c2ccccc21 (chirality)
Cn1cc(C2=CC(=O)N3CCc4ccccc4[C@H]3C2)c2ccccc21 (3D coordinates assigned)
Cn1cc(C2=CC(=O)N3CCc4ccccc4[C@H]3C2)c2ccccc21 (nonaromatic ring conformer: 98.10897333472218 kcal/mol)

>  <smiles>  (3) 
Cn1cc(C2=CC(=O)N3CCc4ccccc4C3C2)c2ccccc21

>  <score_type>  (3) 
oracle

>  <origin>  (3) 
adg

>  <m_score__min__energy>  (3) 
-9.6600000000000001

>  <m_primary>  (3) 
energy

$$$$
3:0
     RDKit          3D

 49 51  0  0  0  0  0  0  0  0999 V2000
    0.2420   23.9350  -24.5200 C   0  0  0  0  0  0  0  0  0  0  0  0
    0.6480   25.3950  -24.3370 C   0  0  0  0  0  0  0  0  0  0  0  0
   -0.4880   26.2320  -23.7360 C   0  0  0  0  0  0  0  0  0  0  0  0
   -1.3560   26.7350  -24.7520 O   0  0  0  0  0  0  0  0  0  0  0  0
   -1.6570   26.0890  -25.9630 C   0  0  0  0  0  0  0  0  0  0  0  0
   -2.7270   25.1850  -26.1010 C   0  0  0  0  0  0  0  0  0  0  0  0
   -2.9770   24.5710  -27.3320 C   0  0  0  0  0  0  0  0  0  0  0  0
   -2.1570   24.8300  -28.4370 C   0  0  0  0  0  0  0  0  0  0  0  0
   -2.4700   24.1980  -29.6890 N   0  0  0  0  0  0  0  0  0  0  0  0
   -3.6240   24.1940  -30.2910 C   0  0  0  0  0  0  0  0  0  0  0  0
   -4.2100   25.2720  -30.8420 N   0  0  0  0  0  0  0  0  0  0  0  0
   -5.3460   24.8380  -31.3640 N   0  0  0  0  0  0  0  0  0  0  0  0
   -5.4040   23.5120  -31.1160 C   0  0  0  0  0  0  0  0  0  0  0  0
   -6.5240   22.6330  -31.5300 C   0  0  0  0  0  0  0  0  0  0  0  0
   -7.8460   23.0130  -31.2320 C   0  0  0  0  0  0  0  0  0  0  0  0
   -8.9200   22.2020  -31.6080 C   0  0  0  0  0  0  0  0  0  0  0  0
   -8.6910   21.0040  -32.2840 C   0  0  0  0  0  0  0  0  0  0  0  0
   -7.3870   20.6120  -32.5870 C   0  0  0  0  0  0  0  0  0  0  0  0
   -6.3000   21.4160  -32.2160 C   0  0  0  0  0  0  0  0  0  0  0  0
   -4.9730   20.9760  -32.5310 N   0  0  0  0  0  0  0  0  0  0  0  0
   -4.0490   21.9020  -33.1760 C   0  0  0  0  0  0  0  0  0  0  0  0
   -4.6470   19.2740  -32.6000 S   0  0  0  0  0  0  0  0  0  0  0  0
   -5.1950   18.6020  -34.1560 C   0  0  0  0  0  0  0  0  0  0  0  0
   -5.3860   18.5740  -31.4930 O   0  0  0  0  0  0  0  0  0  0  0  0
   -3.1710   19.0380  -32.4460 O   0  0  0  0  0  0  0  0  0  0  0  0
   -4.3410   23.1130  -30.4570 O   0  0  0  0  0  0  0  0  0  0  0  0
   -1.1080   25.7590  -28.3080 C   0  0  0  0  0  0  0  0  0  0  0  0
   -0.8600   26.3750  -27.0780 C   0  0  0  0  0  0  0  0  0  0  0  0
    0.1112   23.4645  -23.5343 H   0  0  0  0  0  0  0  0  0  0  0  0
   -0.7042   23.8848  -25.0788 H   0  0  0  0  0  0  0  0  0  0  0  0
    1.0264   23.4036  -25.0788 H   0  0  0  0  0  0  0  0  0  0  0  0
    1.5178   25.4410  -23.6652 H   0  0  0  0  0  0  0  0  0  0  0  0
    0.8902   25.8088  -25.3270 H   0  0  0  0  0  0  0  0  0  0  0  0
   -1.0703   25.6031  -23.0465 H   0  0  0  0  0  0  0  0  0  0  0  0
   -0.0451   27.0867  -23.2037 H   0  0  0  0  0  0  0  0  0  0  0  0
   -3.3693   24.9606  -25.2366 H   0  0  0  0  0  0  0  0  0  0  0  0
   -3.8255   23.8783  -27.4333 H   0  0  0  0  0  0  0  0  0  0  0  0
   -8.0353   23.9563  -30.6987 H   0  0  0  0  0  0  0  0  0  0  0  0
   -9.9490   22.5094  -31.3701 H   0  0  0  0  0  0  0  0  0  0  0  0
   -9.5388   20.3680  -32.5784 H   0  0  0  0  0  0  0  0  0  0  0  0
   -7.2105   19.6663  -33.1203 H   0  0  0  0  0  0  0  0  0  0  0  0
   -3.4928   22.4594  -32.4080 H   0  0  0  0  0  0  0  0  0  0  0  0
   -3.3429   21.3381  -33.8032 H   0  0  0  0  0  0  0  0  0  0  0  0
   -4.6145   22.6069  -33.8032 H   0  0  0  0  0  0  0  0  0  0  0  0
   -5.8803   17.7616  -33.9714 H   0  0  0  0  0  0  0  0  0  0  0  0
   -5.7176   19.3823  -34.7287 H   0  0  0  0  0  0  0  0  0  0  0  0
   -4.3255   18.2471  -34.7287 H   0  0  0  0  0  0  0  0  0  0  0  0
   -0.4807   26.0014  -29.1785 H   0  0  0  0  0  0  0  0  0  0  0  0
   -0.0305   27.0915  -26.9852 H   0  0  0  0  0  0  0  0  0  0  0  0
  1  2  1  0
  2  3  1  0
  3  4  1  0
  4  5  1  0
  5  6  2  0
  6  7  1  0
  7  8  2  0
  8  9  1  0
  9 10  2  3
 10 11  1  0
 11 12  1  0
 12 13  2  0
 13 14  1  0
 14 15  2  0
 15 16  1  0
 16 17  2  0
 17 18  1  0
 18 19  2  0
 19 20  1  0
 20 21  1  0
 20 22  1  0
 22 23  1  0
 22 24  2  0
 22 25  2  0
 13 26  1  0
  8 27  1  0
 27 28  2  0
 28  5  1  0
 26 10  1  0
 19 14  1  0
  1 29  1  0
  1 30  1  0
  1 31  1  0
  2 32  1  0
  2 33  1  0
  3 34  1  0
  3 35  1  0
  6 36  1  0
  7 37  1  0
 15 38  1  0
 16 39  1  0
 17 40  1  0
 18 41  1  0
 21 42  1  0
 21 43  1  0
 21 44  1  0
 23 45  1  0
 23 46  1  0
 23 47  1  0
 27 48  1  0
 28 49  1  0
M  CHG  1  11  -1
M  END
>  <UniqueID>  (4) 
4

>  <SMILES>  (4) 
CCCOc1ccc(N=c2[n-]nc(-c3ccccc3N(C)S(C)(=O)=O)o2)cc1

>  <Energy>  (4) 
90.46509700868702

>  <Genealogy>  (4) 
CCCOc1ccc(N=c2[n-]nc(-c3ccccc3N(C)S(C)(=O)=O)o2)cc1 (protonated)
CCCOc1ccc(N=c2[n-]nc(-c3ccccc3N(C)S(C)(=O)=O)o2)cc1 (3D coordinates assigned)
CCCOc1ccc(N=c2[n-]nc(-c3ccccc3N(C)S(C)(=O)=O)o2)cc1 (optimized conformer: 90.46509700868702 kcal/mol)

>  <smiles>  (4) 
CCCOc1ccc(N=c2[nH]nc(-c3ccccc3N(C)S(C)(=O)=O)o2)cc1

>  <score_type>  (4) 
oracle

>  <origin>  (4) 
adg

>  <m_score__min__energy>  (4) 
-10.73

>  <m_primary>  (4) 
energy

$$$$
4:0
     RDKit          3D

 78 84  0  0  0  0  0  0  0  0999 V2000
   -5.0340   23.9540  -30.0880 C   0  0  0  0  0  0  0  0  0  0  0  0
   -4.7200   23.7370  -31.4600 O   0  0  0  0  0  0  0  0  0  0  0  0
   -4.3940   22.4880  -32.0080 C   0  0  0  0  0  0  0  0  0  0  0  0
   -3.0650   22.0980  -32.3060 C   0  0  0  0  0  0  0  0  0  0  0  0
   -2.7800   20.8270  -32.8710 C   0  0  0  0  0  0  0  0  0  0  0  0
   -1.4120   20.4890  -33.1800 N   0  0  0  0  0  0  0  0  0  0  0  0
   -0.6030   21.1600  -34.1950 C   0  0  0  0  0  0  0  0  0  0  0  0
   -0.1610   20.1780  -35.2940 C   0  0  0  0  0  0  0  0  0  0  0  0
    1.3700   19.9070  -35.2860 C   0  0  0  0  0  0  0  0  0  0  0  0
    1.9220   19.4580  -33.9850 N   0  0  0  0  0  0  0  0  0  0  0  0
    1.3780   18.1440  -33.5450 C   0  0  0  0  0  0  0  0  0  0  0  0
    2.3680   17.3040  -32.7010 C   0  0  0  0  0  0  0  0  0  0  0  0
    3.2970   18.1130  -31.8790 N   0  0  0  0  0  0  0  0  0  0  0  0
    2.9050   18.3050  -30.4700 C   0  0  0  0  0  0  0  0  0  0  0  0
    1.8790   17.2690  -29.9700 C   0  0  0  0  0  0  0  0  0  0  0  0
    0.4340   17.6680  -30.3000 C   0  0  0  0  0  0  0  0  0  0  0  0
    0.1140   19.0020  -29.7960 N   0  0  0  0  0  0  0  0  0  0  0  0
    0.1920   20.2360  -30.5310 C   0  0  0  0  0  0  0  0  0  0  0  0
    0.8010   20.3770  -31.6240 O   0  0  0  0  0  0  0  0  0  0  0  0
   -0.5640   21.2720  -29.8310 C   0  0  0  0  0  0  0  0  0  0  0  0
   -0.8440   22.6150  -30.0850 C   0  0  0  0  0  0  0  0  0  0  0  0
   -1.6760   23.2990  -29.1670 C   0  0  0  0  0  0  0  0  0  0  0  0
   -2.2100   22.6320  -28.0320 C   0  0  0  0  0  0  0  0  0  0  0  0
   -1.9060   21.2730  -27.8140 C   0  0  0  0  0  0  0  0  0  0  0  0
   -2.3820   20.4890  -26.7460 C   0  0  0  0  0  0  0  0  0  0  0  0
   -2.0140   19.1200  -26.6590 C   0  0  0  0  0  0  0  0  0  0  0  0
   -1.1740   18.5300  -27.6310 C   0  0  0  0  0  0  0  0  0  0  0  0
   -0.7170   19.3370  -28.6770 C   0  0  0  0  0  0  0  0  0  0  0  0
   -1.0820   20.6510  -28.7350 C   0  0  0  0  0  0  0  0  0  0  0  0
    3.8920   19.3040  -32.5220 C   0  0  0  0  0  0  0  0  0  0  0  0
    3.3960   19.5050  -33.9570 C   0  0  0  0  0  0  0  0  0  0  0  0
   -3.8420   19.9280  -33.1310 C   0  0  0  0  0  0  0  0  0  0  0  0
   -5.1390   20.3270  -32.8310 C   0  0  0  0  0  0  0  0  0  0  0  0
   -6.2430   19.6350  -33.0160 O   0  0  0  0  0  0  0  0  0  0  0  0
   -7.2370   20.3970  -32.6060 C   0  0  0  0  0  0  0  0  0  0  0  0
   -8.5950   20.0900  -32.6180 C   0  0  0  0  0  0  0  0  0  0  0  0
   -9.4940   21.0620  -32.1450 C   0  0  0  0  0  0  0  0  0  0  0  0
   -9.0210   22.3060  -31.6690 C   0  0  0  0  0  0  0  0  0  0  0  0
   -7.6450   22.5930  -31.6630 C   0  0  0  0  0  0  0  0  0  0  0  0
   -6.7760   21.6110  -32.1420 C   0  0  0  0  0  0  0  0  0  0  0  0
   -5.4050   21.5660  -32.2880 C   0  0  0  0  0  0  0  0  0  0  0  0
   -4.2929   23.4418  -29.4568 H   0  0  0  0  0  0  0  0  0  0  0  0
   -5.0152   25.0328  -29.8737 H   0  0  0  0  0  0  0  0  0  0  0  0
   -6.0364   23.5550  -29.8737 H   0  0  0  0  0  0  0  0  0  0  0  0
   -2.2386   22.7928  -32.0957 H   0  0  0  0  0  0  0  0  0  0  0  0
   -0.9580   19.7150  -32.6420 H   0  0  0  0  0  0  0  0  0  0  0  0
   -1.1964   21.9658  -34.6516 H   0  0  0  0  0  0  0  0  0  0  0  0
    0.2964   21.5672  -33.7099 H   0  0  0  0  0  0  0  0  0  0  0  0
   -0.6868   19.2236  -35.1435 H   0  0  0  0  0  0  0  0  0  0  0  0
   -0.4094   20.6350  -36.2632 H   0  0  0  0  0  0  0  0  0  0  0  0
    1.5822   19.1283  -36.0333 H   0  0  0  0  0  0  0  0  0  0  0  0
    1.8530   20.8700  -35.5080 H   0  0  0  0  0  0  0  0  0  0  0  0
    1.5840   20.1680  -33.2880 H   0  0  0  0  0  0  0  0  0  0  0  0
    0.4772   18.3272  -32.9409 H   0  0  0  0  0  0  0  0  0  0  0  0
    1.1660   17.5657  -34.4564 H   0  0  0  0  0  0  0  0  0  0  0  0
    1.7861   16.6562  -32.0288 H   0  0  0  0  0  0  0  0  0  0  0  0
    2.9856   16.7333  -33.4101 H   0  0  0  0  0  0  0  0  0  0  0  0
    3.8070   18.2314  -29.8447 H   0  0  0  0  0  0  0  0  0  0  0  0
    2.4273   19.2933  -30.3991 H   0  0  0  0  0  0  0  0  0  0  0  0
    2.0950   16.3006  -30.4450 H   0  0  0  0  0  0  0  0  0  0  0  0
    1.9685   17.2107  -28.8752 H   0  0  0  0  0  0  0  0  0  0  0  0
    0.3018   17.6581  -31.3920 H   0  0  0  0  0  0  0  0  0  0  0  0
   -0.2405   16.9469  -29.8152 H   0  0  0  0  0  0  0  0  0  0  0  0
   -0.4322   23.1247  -30.9685 H   0  0  0  0  0  0  0  0  0  0  0  0
   -1.9121   24.3602  -29.3344 H   0  0  0  0  0  0  0  0  0  0  0  0
   -2.8576   23.1735  -27.3267 H   0  0  0  0  0  0  0  0  0  0  0  0
   -3.0361   20.9348  -25.9822 H   0  0  0  0  0  0  0  0  0  0  0  0
   -2.3879   18.5101  -25.8234 H   0  0  0  0  0  0  0  0  0  0  0  0
   -0.8890   17.4695  -27.5663 H   0  0  0  0  0  0  0  0  0  0  0  0
    3.6289   20.1930  -31.9300 H   0  0  0  0  0  0  0  0  0  0  0  0
    4.9808   19.1530  -32.5627 H   0  0  0  0  0  0  0  0  0  0  0  0
    3.7377   20.4824  -34.3284 H   0  0  0  0  0  0  0  0  0  0  0  0
    3.7981   18.7055  -34.5966 H   0  0  0  0  0  0  0  0  0  0  0  0
   -3.6450   18.9350  -33.5612 H   0  0  0  0  0  0  0  0  0  0  0  0
   -8.9533   19.1173  -32.9861 H   0  0  0  0  0  0  0  0  0  0  0  0
  -10.5739   20.8527  -32.1454 H   0  0  0  0  0  0  0  0  0  0  0  0
   -9.7360   23.0561  -31.3000 H   0  0  0  0  0  0  0  0  0  0  0  0
   -7.2662   23.5575  -31.2938 H   0  0  0  0  0  0  0  0  0  0  0  0
  1  2  1  0
  2  3  1  0
  3  4  2  0
  4  5  1  0
  5  6  1  0
  6  7  1  0
  7  8  1  0
  8  9  1  0
  9 10  1  0
 10 11  1  0
 11 12  1  0
 12 13  1  0
 13 14  1  0
 14 15  1  0
 15 16  1  0
 16 17  1  0
 17 18  1  0
 18 19  2  0
 18 20  1  0
 20 21  1  0
 21 22  2  0
 22 23  1  0
 23 24  2  0
 24 25  1  0
 25 26  2  0
 26 27  1  0
 27 28  2  0
 28 29  1  0
 13 30  1  0
 30 31  1  0
  5 32  2  0
 32 33  1  0
 33 34  1  0
 34 35  1  0
 35 36  2  0
 36 37  1  0
 37 38  2  0
 38 39  1  0
 39 40  2  0
 40 41  1  0
 41  3  1  0
 31 10  1  0
 41 33  2  0
 28 17  1  0
 40 35  1  0
 29 20  2  0
 29 24  1  0
  1 42  1  0
  1 43  1  0
  1 44  1  0
  4 45  1  0
  6 46  1  0
  7 47  1  0
  7 48  1  0
  8 49  1  0
  8 50  1  0
  9 51  1  0
  9 52  1  0
 10 53  1  0
 11 54  1  0
 11 55  1  0
 12 56  1  0
 12 57  1  0
 14 58  1  0
 14 59  1  0
 15 60  1  0
 15 61  1  0
 16 62  1  0
 16 63  1  0
 21 64  1  0
 22 65  1  0
 23 66  1  0
 25 67  1  0
 26 68  1  0
 27 69  1  0
 30 70  1  0
 30 71  1  0
 31 72  1  0
 31 73  1  0
 32 74  1  0
 36 75  1  0
 37 76  1  0
 38 77  1  0
 39 78  1  0
M  CHG  1  10   1
M  END
>  <UniqueID>  (5) 
5

>  <SMILES>  (5) 
COc1cc(NCCC[NH+]2CCN(CCCN3C(=O)c4cccc5cccc3c45)CC2)cc2oc3ccccc3c12

>  <Energy>  (5) 
185.0707605402029

>  <Genealogy>  (5) 
COc1cc(NCCC[NH+]2CCN(CCCN3C(=O)c4cccc5cccc3c45)CC2)cc2oc3ccccc3c12 (protonated)
COc1cc(NCCC[NH+]2CCN(CCCN3C(=O)c4cccc5cccc3c45)CC2)cc2oc3ccccc3c12 (3D coordinates assigned)
COc1cc(NCCC[NH+]2CCN(CCCN3C(=O)c4cccc5cccc3c45)CC2)cc2oc3ccccc3c12 (nonaromatic ring conformer: 185.0707605402029 kcal/mol)

>  <smiles>  (5) 
COc1cc(NCCCN2CCN(CCCN3C(=O)c4cccc5cccc3c45)CC2)cc2oc3ccccc3c12

>  <score_type>  (5) 
oracle

>  <origin>  (5) 
adg

>  <m_score__min__energy>  (5) 
-10.01

>  <m_primary>  (5) 
energy

$$$$
5:0
     RDKit          3D

 38 40  0  0  0  0  0  0  0  0999 V2000
   -4.4250   21.1800  -33.1480 C   0  0  0  0  0  0  0  0  0  0  0  0
   -5.6630   20.3620  -32.8590 C   0  0  0  0  0  0  0  0  0  0  0  0
   -6.6680   20.8540  -31.9800 C   0  0  0  0  0  0  0  0  0  0  0  0
   -6.6560   22.2500  -31.4750 C   0  0  0  0  0  0  0  0  0  0  0  0
   -7.7620   23.0050  -31.1180 C   0  0  0  0  0  0  0  0  0  0  0  0
   -7.2720   24.2370  -30.7380 C   0  0  0  0  0  0  0  0  0  0  0  0
   -5.9010   24.1610  -30.8910 C   0  0  0  0  0  0  0  0  0  0  0  0
   -4.9420   25.2470  -30.6100 C   0  0  0  0  0  0  0  0  0  0  0  0
   -5.3720   26.4170  -30.4350 O   0  0  0  0  0  0  0  0  0  0  0  0
   -3.5320   25.0060  -30.4920 N   0  0  0  0  0  0  0  0  0  0  0  0
   -2.8780   24.3440  -29.4020 C   0  0  0  0  0  0  0  0  0  0  0  0
   -3.4380   23.1580  -28.9080 C   0  0  0  0  0  0  0  0  0  0  0  0
   -2.8180   22.4620  -27.8660 C   0  0  0  0  0  0  0  0  0  0  0  0
   -1.6370   22.9500  -27.3050 C   0  0  0  0  0  0  0  0  0  0  0  0
   -1.0870   24.1500  -27.7660 C   0  0  0  0  0  0  0  0  0  0  0  0
   -1.7120   24.8660  -28.7940 C   0  0  0  0  0  0  0  0  0  0  0  0
   -1.1690   26.0960  -29.1690 O   0  0  0  0  0  0  0  0  0  0  0  0
   -5.5680   22.9690  -31.3260 O   0  0  0  0  0  0  0  0  0  0  0  0
   -7.7300   20.0120  -31.6100 C   0  0  0  0  0  0  0  0  0  0  0  0
   -7.8270   18.7200  -32.1190 C   0  0  0  0  0  0  0  0  0  0  0  0
   -6.8840   18.2560  -33.0310 C   0  0  0  0  0  0  0  0  0  0  0  0
   -5.8120   19.0700  -33.4320 C   0  0  0  0  0  0  0  0  0  0  0  0
   -4.9020   18.5810  -34.4310 N   0  0  0  0  0  0  0  0  0  0  0  0
   -3.6880   18.4580  -34.1690 O   0  0  0  0  0  0  0  0  0  0  0  0
   -5.3840   18.0470  -35.6050 O   0  0  0  0  0  0  0  0  0  0  0  0
   -3.9593   21.4877  -32.2001 H   0  0  0  0  0  0  0  0  0  0  0  0
   -3.7123   20.5744  -33.7271 H   0  0  0  0  0  0  0  0  0  0  0  0
   -4.7026   22.0731  -33.7271 H   0  0  0  0  0  0  0  0  0  0  0  0
   -8.8149   22.6869  -31.1344 H   0  0  0  0  0  0  0  0  0  0  0  0
   -7.8531   25.1020  -30.3857 H   0  0  0  0  0  0  0  0  0  0  0  0
   -4.3717   22.7721  -29.3431 H   0  0  0  0  0  0  0  0  0  0  0  0
   -3.2614   21.5290  -27.4880 H   0  0  0  0  0  0  0  0  0  0  0  0
   -1.1386   22.3903  -26.4998 H   0  0  0  0  0  0  0  0  0  0  0  0
   -0.1582   24.5336  -27.3185 H   0  0  0  0  0  0  0  0  0  0  0  0
   -1.2260   26.4570  -30.1120 H   0  0  0  0  0  0  0  0  0  0  0  0
   -8.4946   20.3783  -30.9092 H   0  0  0  0  0  0  0  0  0  0  0  0
   -8.6507   18.0646  -31.7997 H   0  0  0  0  0  0  0  0  0  0  0  0
   -6.9792   17.2403  -33.4425 H   0  0  0  0  0  0  0  0  0  0  0  0
  1  2  1  0
  2  3  2  0
  3  4  1  0
  4  5  2  0
  5  6  1  0
  6  7  2  0
  7  8  1  0
  8  9  2  0
  8 10  1  0
 10 11  1  0
 11 12  2  0
 12 13  1  0
 13 14  2  0
 14 15  1  0
 15 16  2  0
 16 17  1  0
  7 18  1  0
  3 19  1  0
 19 20  2  0
 20 21  1  0
 21 22  2  0
 22 23  1  0
 23 24  2  0
 23 25  1  0
 22  2  1  0
 18  4  1  0
 16 11  1  0
  1 26  1  0
  1 27  1  0
  1 28  1  0
  5 29  1  0
  6 30  1  0
 12 31  1  0
 13 32  1  0
 14 33  1  0
 15 34  1  0
 17 35  1  0
 19 36  1  0
 20 37  1  0
 21 38  1  0
M  CHG  3  10  -1  23   1  25  -1
M  END
>  <UniqueID>  (6) 
6

>  <SMILES>  (6) 
Cc1c(-c2ccc(C(=O)[N-]c3ccccc3O)o2)cccc1[N+](=O)[O-]

>  <Energy>  (6) 
82.1945128356374

>  <Genealogy>  (6) 
Cc1c(-c2ccc(C(=O)[N-]c3ccccc3O)o2)cccc1[N+](=O)[O-] (protonated)
Cc1c(-c2ccc(C(=O)[N-]c3ccccc3O)o2)cccc1[N+](=O)[O-] (3D coordinates assigned)
Cc1c(-c2ccc(C(=O)[N-]c3ccccc3O)o2)cccc1[N+](=O)[O-] (optimized conformer: 82.1945128356374 kcal/mol)

>  <smiles>  (6) 
Cc1c(-c2ccc(C(=O)Nc3ccccc3O)o2)cccc1[N+](=O)[O-]

>  <score_type>  (6) 
oracle

>  <origin>  (6) 
adg

>  <m_score__min__energy>  (6) 
-11.91

>  <m_primary>  (6) 
energy

$$$$
6:0
     RDKit          3D

 38 40  0  0  0  0  0  0  0  0999 V2000
   -3.8140   22.0120  -32.2460 C   0  0  0  0  0  0  0  0  0  0  0  0
   -4.3700   22.8310  -31.1130 C   0  0  0  0  0  0  0  0  0  0  0  0
   -3.5630   23.1150  -30.0020 C   0  0  0  0  0  0  0  0  0  0  0  0
   -4.0730   23.8740  -28.9360 C   0  0  0  0  0  0  0  0  0  0  0  0
   -3.2130   24.1970  -27.7290 C   0  0  0  0  0  0  0  0  0  0  0  0
   -4.0280   24.9080  -26.6420 C   0  0  0  0  0  0  0  0  0  0  0  0
   -1.9850   25.0220  -28.1290 C   0  0  0  0  0  0  0  0  0  0  0  0
   -5.3630   24.3170  -28.9890 N   0  0  0  0  0  0  0  0  0  0  0  0
   -6.1710   24.0450  -30.0480 C   0  0  0  0  0  0  0  0  0  0  0  0
   -5.6960   23.3060  -31.1410 C   0  0  0  0  0  0  0  0  0  0  0  0
   -6.5690   22.9880  -32.2390 N   0  0  0  0  0  0  0  0  0  0  0  0
   -7.6880   22.0960  -32.1280 C   0  0  0  0  0  0  0  0  0  0  0  0
   -9.0280   22.4260  -31.9750 C   0  0  0  0  0  0  0  0  0  0  0  0
   -9.7790   21.2930  -31.9870 N   0  0  0  0  0  0  0  0  0  0  0  0
   -8.8680   20.3110  -32.1550 C   0  0  0  0  0  0  0  0  0  0  0  0
   -9.1240   18.9470  -32.2450 C   0  0  0  0  0  0  0  0  0  0  0  0
   -8.0230   18.0980  -32.4360 C   0  0  0  0  0  0  0  0  0  0  0  0
   -6.7260   18.6430  -32.5290 C   0  0  0  0  0  0  0  0  0  0  0  0
   -6.5490   19.9910  -32.4330 N   0  0  0  0  0  0  0  0  0  0  0  0
   -7.6140   20.7670  -32.2500 N   0  0  0  0  0  0  0  0  0  0  0  0
   -3.2398   21.1662  -31.8398 H   0  0  0  0  0  0  0  0  0  0  0  0
   -4.6409   21.6310  -32.8633 H   0  0  0  0  0  0  0  0  0  0  0  0
   -3.1547   22.6399  -32.8633 H   0  0  0  0  0  0  0  0  0  0  0  0
   -2.5286   22.7426  -29.9653 H   0  0  0  0  0  0  0  0  0  0  0  0
   -2.8546   23.2454  -27.3095 H   0  0  0  0  0  0  0  0  0  0  0  0
   -3.6689   24.5947  -25.6506 H   0  0  0  0  0  0  0  0  0  0  0  0
   -3.9094   25.9965  -26.7478 H   0  0  0  0  0  0  0  0  0  0  0  0
   -5.0903   24.6429  -26.7478 H   0  0  0  0  0  0  0  0  0  0  0  0
   -1.4665   25.3703  -27.2236 H   0  0  0  0  0  0  0  0  0  0  0  0
   -1.3027   24.3984  -28.7253 H   0  0  0  0  0  0  0  0  0  0  0  0
   -2.3044   25.8894  -28.7253 H   0  0  0  0  0  0  0  0  0  0  0  0
   -5.7600   24.8710  -28.1980 H   0  0  0  0  0  0  0  0  0  0  0  0
   -7.2091   24.4087  -30.0474 H   0  0  0  0  0  0  0  0  0  0  0  0
   -6.4120   23.4580  -33.1580 H   0  0  0  0  0  0  0  0  0  0  0  0
   -9.4213   23.4470  -31.8616 H   0  0  0  0  0  0  0  0  0  0  0  0
  -10.1471   18.5500  -32.1696 H   0  0  0  0  0  0  0  0  0  0  0  0
   -8.1714   17.0108  -32.5129 H   0  0  0  0  0  0  0  0  0  0  0  0
   -5.8594   17.9822  -32.6786 H   0  0  0  0  0  0  0  0  0  0  0  0
  1  2  1  0
  2  3  2  0
  3  4  1  0
  4  5  1  0
  5  6  1  0
  5  7  1  0
  4  8  2  0
  8  9  1  0
  9 10  2  0
 10 11  1  0
 11 12  1  0
 12 13  2  0
 13 14  1  0
 14 15  2  0
 15 16  1  0
 16 17  2  0
 17 18  1  0
 18 19  2  0
 19 20  1  0
 10  2  1  0
 20 12  1  0
 20 15  1  0
  1 21  1  0
  1 22  1  0
  1 23  1  0
  3 24  1  0
  5 25  1  0
  6 26  1  0
  6 27  1  0
  6 28  1  0
  7 29  1  0
  7 30  1  0
  7 31  1  0
  8 32  1  0
  9 33  1  0
 11 34  1  0
 13 35  1  0
 16 36  1  0
 17 37  1  0
 18 38  1  0
M  CHG  1   8   1
M  END
>  <UniqueID>  (7) 
7

>  <SMILES>  (7) 
Cc1cc(C(C)C)[nH+]cc1Nc1cnc2cccnn12

>  <Energy>  (7) 
78.71068037069269

>  <Genealogy>  (7) 
Cc1cc(C(C)C)[nH+]cc1Nc1cnc2cccnn12 (protonated)
Cc1cc(C(C)C)[nH+]cc1Nc1cnc2cccnn12 (3D coordinates assigned)
Cc1cc(C(C)C)[nH+]cc1Nc1cnc2cccnn12 (optimized conformer: 78.71068037069269 kcal/mol)

>  <smiles>  (7) 
Cc1cc(C(C)C)ncc1Nc1cnc2cccnn12

>  <score_type>  (7) 
oracle

>  <origin>  (7) 
adg

>  <m_score__min__energy>  (7) 
-7.2300000000000004

>  <m_primary>  (7) 
energy

$$$$
7:0
     RDKit          3D

 46 49  0  0  0  0  0  0  0  0999 V2000
   -9.4740   20.9470  -31.9460 C   0  0  0  0  0  0  0  0  0  0  0  0
   -8.3170   20.0140  -32.1970 C   0  0  0  0  0  0  0  0  0  0  0  0
   -8.5970   18.6550  -32.4350 C   0  0  0  0  0  0  0  0  0  0  0  0
   -7.5680   17.7490  -32.6910 C   0  0  0  0  0  0  0  0  0  0  0  0
   -6.2460   18.1830  -32.7150 C   0  0  0  0  0  0  0  0  0  0  0  0
   -5.9450   19.5240  -32.4770 C   0  0  0  0  0  0  0  0  0  0  0  0
   -6.9630   20.4590  -32.2070 C   0  0  0  0  0  0  0  0  0  0  0  0
   -6.5580   21.8650  -31.9460 C   0  0  0  0  0  0  0  0  0  0  0  0
   -5.6450   22.5620  -32.6560 N   0  0  0  0  0  0  0  0  0  0  0  0
   -5.6010   23.7620  -32.1050 N   0  0  0  0  0  0  0  0  0  0  0  0
   -6.4780   23.7680  -31.0900 C   0  0  0  0  0  0  0  0  0  0  0  0
   -6.7910   25.1740  -30.0260 S   0  0  0  0  0  0  0  0  0  0  0  0
   -5.3110   24.9150  -28.9860 C   0  0  0  0  0  0  0  0  0  0  0  0
   -4.0980   24.6300  -29.8230 C   0  0  0  0  0  0  0  0  0  0  0  0
   -3.8750   25.3510  -30.8340 O   0  0  0  0  0  0  0  0  0  0  0  0
   -3.2060   23.5380  -29.5090 N   0  0  0  0  0  0  0  0  0  0  0  0
   -3.1300   22.4200  -30.4690 C   0  0  0  0  0  0  0  0  0  0  0  0
   -2.2060   21.2950  -29.9920 C   0  0  0  0  0  0  0  0  0  0  0  0
   -0.8600   21.8630  -29.5460 C   0  0  0  0  0  0  0  0  0  0  0  0
   -1.0710   22.8620  -28.4450 C   0  0  0  0  0  0  0  0  0  0  0  0
   -0.1080   23.0080  -27.4340 C   0  0  0  0  0  0  0  0  0  0  0  0
   -0.3120   23.9160  -26.3950 C   0  0  0  0  0  0  0  0  0  0  0  0
   -1.4800   24.6800  -26.3540 C   0  0  0  0  0  0  0  0  0  0  0  0
   -2.4350   24.5560  -27.3650 C   0  0  0  0  0  0  0  0  0  0  0  0
   -2.2290   23.6700  -28.4430 C   0  0  0  0  0  0  0  0  0  0  0  0
   -7.0700   22.6050  -30.9840 O   0  0  0  0  0  0  0  0  0  0  0  0
   -9.6210   21.0655  -30.8623 H   0  0  0  0  0  0  0  0  0  0  0  0
   -9.2589   21.9273  -32.3962 H   0  0  0  0  0  0  0  0  0  0  0  0
  -10.3864   20.5290  -32.3962 H   0  0  0  0  0  0  0  0  0  0  0  0
   -9.6393   18.3037  -32.4189 H   0  0  0  0  0  0  0  0  0  0  0  0
   -7.8017   16.6898  -32.8742 H   0  0  0  0  0  0  0  0  0  0  0  0
   -5.4369   17.4671  -32.9221 H   0  0  0  0  0  0  0  0  0  0  0  0
   -4.8967   19.8563  -32.5005 H   0  0  0  0  0  0  0  0  0  0  0  0
   -4.9900   24.5480  -32.4210 H   0  0  0  0  0  0  0  0  0  0  0  0
   -5.1295   25.8211  -28.3893 H   0  0  0  0  0  0  0  0  0  0  0  0
   -5.4932   24.0486  -28.3333 H   0  0  0  0  0  0  0  0  0  0  0  0
   -4.1404   22.0092  -30.6119 H   0  0  0  0  0  0  0  0  0  0  0  0
   -2.7159   22.8153  -31.4083 H   0  0  0  0  0  0  0  0  0  0  0  0
   -2.6773   20.7733  -29.1460 H   0  0  0  0  0  0  0  0  0  0  0  0
   -2.0392   20.5942  -30.8233 H   0  0  0  0  0  0  0  0  0  0  0  0
   -0.2214   21.0454  -29.1802 H   0  0  0  0  0  0  0  0  0  0  0  0
   -0.3737   22.3589  -30.3990 H   0  0  0  0  0  0  0  0  0  0  0  0
    0.8110   22.4040  -27.4613 H   0  0  0  0  0  0  0  0  0  0  0  0
    0.4476   24.0302  -25.6076 H   0  0  0  0  0  0  0  0  0  0  0  0
   -1.6482   25.3812  -25.5233 H   0  0  0  0  0  0  0  0  0  0  0  0
   -3.3566   25.1549  -27.3204 H   0  0  0  0  0  0  0  0  0  0  0  0
  1  2  1  0
  2  3  2  0
  3  4  1  0
  4  5  2  0
  5  6  1  0
  6  7  2  0
  7  8  1  0
  8  9  2  0
  9 10  1  0
 10 11  2  0
 11 12  1  0
 12 13  1  0
 13 14  1  0
 14 15  2  0
 14 16  1  0
 16 17  1  0
 17 18  1  0
 18 19  1  0
 19 20  1  0
 20 21  2  0
 21 22  1  0
 22 23  2  0
 23 24  1  0
 24 25  2  0
 11 26  1  0
  7  2  1  0
 26  8  1  0
 25 16  1  0
 25 20  1  0
  1 27  1  0
  1 28  1  0
  1 29  1  0
  3 30  1  0
  4 31  1  0
  5 32  1  0
  6 33  1  0
 10 34  1  0
 13 35  1  0
 13 36  1  0
 17 37  1  0
 17 38  1  0
 18 39  1  0
 18 40  1  0
 19 41  1  0
 19 42  1  0
 21 43  1  0
 22 44  1  0
 23 45  1  0
 24 46  1  0
M  CHG  1  10   1
M  END
>  <UniqueID>  (8) 
8

>  <SMILES>  (8) 
Cc1ccccc1-c1n[nH+]c(SCC(=O)N2CCCc3ccccc32)o1

>  <Energy>  (8) 
90.40911985476104

>  <Genealogy>  (8) 
Cc1ccccc1-c1n[nH+]c(SCC(=O)N2CCCc3ccccc32)o1 (protonated)
Cc1ccccc1-c1n[nH+]c(SCC(=O)N2CCCc3ccccc32)o1 (3D coordinates assigned)
Cc1ccccc1-c1n[nH+]c(SCC(=O)N2CCCc3ccccc32)o1 (nonaromatic ring conformer: 90.40911985476104 kcal/mol)

>  <smiles>  (8) 
Cc1ccccc1-c1nnc(SCC(=O)N2CCCc3ccccc32)o1

>  <score_type>  (8) 
oracle

>  <origin>  (8) 
adg

>  <m_score__min__energy>  (8) 
-9.2799999999999994

>  <m_primary>  (8) 
energy

$$$$
8:0
     RDKit          3D

 54 58  0  0  0  0  0  0  0  0999 V2000
    1.4440   24.1510  -27.9160 C   0  0  0  0  0  0  0  0  0  0  0  0
    0.2890   24.9840  -27.8970 O   0  0  0  0  0  0  0  0  0  0  0  0
   -0.2800   25.5310  -26.7370 C   0  0  0  0  0  0  0  0  0  0  0  0
    0.4840   26.2680  -25.8080 C   0  0  0  0  0  0  0  0  0  0  0  0
   -0.1090   26.7790  -24.6520 C   0  0  0  0  0  0  0  0  0  0  0  0
   -1.4650   26.5650  -24.4070 C   0  0  0  0  0  0  0  0  0  0  0  0
   -2.2350   25.8410  -25.3200 C   0  0  0  0  0  0  0  0  0  0  0  0
   -1.6520   25.3240  -26.4880 C   0  0  0  0  0  0  0  0  0  0  0  0
   -2.4660   24.5920  -27.4200 N   0  0  0  0  0  0  0  0  0  0  0  0
   -1.8340   23.7660  -28.4580 C   0  0  0  0  0  0  0  0  0  0  0  0
   -2.6140   23.8230  -29.7910 C   0  0  0  0  0  0  0  0  0  0  0  0
   -3.9620   24.4170  -29.6480 N   0  0  0  0  0  0  0  0  0  0  0  0
   -4.7810   24.1630  -30.8510 C   0  0  0  0  0  0  0  0  0  0  0  0
   -4.8920   22.6460  -31.1460 C   0  0  2  0  0  0  0  0  0  0  0  0
   -3.9950   22.2990  -32.3790 C   0  0  0  0  0  0  0  0  0  0  0  0
   -4.1930   20.8520  -32.8880 C   0  0  0  0  0  0  0  0  0  0  0  0
   -5.6190   20.5750  -33.0170 N   0  0  0  0  0  0  0  0  0  0  0  0
   -6.2890   19.5950  -33.6670 C   0  0  0  0  0  0  0  0  0  0  0  0
   -5.7360   18.7580  -34.4300 O   0  0  0  0  0  0  0  0  0  0  0  0
   -7.6210   19.5890  -33.3910 N   0  0  0  0  0  0  0  0  0  0  0  0
   -7.7650   20.5970  -32.5070 C   0  0  0  0  0  0  0  0  0  0  0  0
   -8.8970   20.9990  -31.8050 C   0  0  0  0  0  0  0  0  0  0  0  0
   -8.7340   22.0240  -30.8470 C   0  0  0  0  0  0  0  0  0  0  0  0
   -7.4600   22.6070  -30.6160 C   0  0  0  0  0  0  0  0  0  0  0  0
   -6.3350   22.1930  -31.3720 C   0  0  0  0  0  0  0  0  0  0  0  0
   -6.5570   21.1780  -32.2870 C   0  0  0  0  0  0  0  0  0  0  0  0
   -4.6140   23.9180  -28.4230 C   0  0  0  0  0  0  0  0  0  0  0  0
   -3.9190   24.5460  -27.2170 C   0  0  0  0  0  0  0  0  0  0  0  0
    1.7526   23.9284  -26.8839 H   0  0  0  0  0  0  0  0  0  0  0  0
    1.2104   23.2121  -28.4394 H   0  0  0  0  0  0  0  0  0  0  0  0
    2.2611   24.6690  -28.4394 H   0  0  0  0  0  0  0  0  0  0  0  0
    1.5540   26.4412  -25.9956 H   0  0  0  0  0  0  0  0  0  0  0  0
    0.4948   27.3518  -23.9328 H   0  0  0  0  0  0  0  0  0  0  0  0
   -1.9286   26.9667  -23.4939 H   0  0  0  0  0  0  0  0  0  0  0  0
   -3.3044   25.6749  -25.1229 H   0  0  0  0  0  0  0  0  0  0  0  0
   -0.8103   24.1304  -28.6287 H   0  0  0  0  0  0  0  0  0  0  0  0
   -1.8294   22.7228  -28.1090 H   0  0  0  0  0  0  0  0  0  0  0  0
   -2.0390   24.4275  -30.5079 H   0  0  0  0  0  0  0  0  0  0  0  0
   -2.7461   22.7879  -30.1391 H   0  0  0  0  0  0  0  0  0  0  0  0
   -5.7896   24.5717  -30.6907 H   0  0  0  0  0  0  0  0  0  0  0  0
   -4.2962   24.6494  -31.7103 H   0  0  0  0  0  0  0  0  0  0  0  0
   -4.5377   22.0985  -30.2602 H   0  0  0  0  0  0  0  0  0  0  0  0
   -4.2398   22.9937  -33.1960 H   0  0  0  0  0  0  0  0  0  0  0  0
   -2.9471   22.3922  -32.0577 H   0  0  0  0  0  0  0  0  0  0  0  0
   -3.7068   20.7379  -33.8681 H   0  0  0  0  0  0  0  0  0  0  0  0
   -3.7447   20.1463  -32.1731 H   0  0  0  0  0  0  0  0  0  0  0  0
   -8.3490   18.9280  -33.7410 H   0  0  0  0  0  0  0  0  0  0  0  0
   -9.8785   20.5375  -31.9885 H   0  0  0  0  0  0  0  0  0  0  0  0
   -9.6043   22.3748  -30.2730 H   0  0  0  0  0  0  0  0  0  0  0  0
   -7.3456   23.3842  -29.8460 H   0  0  0  0  0  0  0  0  0  0  0  0
   -5.6774   24.1994  -28.4271 H   0  0  0  0  0  0  0  0  0  0  0  0
   -4.5383   22.8217  -28.3743 H   0  0  0  0  0  0  0  0  0  0  0  0
   -4.2962   25.5696  -27.0757 H   0  0  0  0  0  0  0  0  0  0  0  0
   -4.1322   23.9340  -26.3282 H   0  0  0  0  0  0  0  0  0  0  0  0
  1  2  1  0
  2  3  1  0
  3  4  2  0
  4  5  1  0
  5  6  2  0
  6  7  1  0
  7  8  2  0
  8  9  1  0
  9 10  1  0
 10 11  1  0
 11 12  1  0
 12 13  1  0
 13 14  1  0
 14 15  1  0
 15 16  1  0
 16 17  1  0
 17 18  1  0
 18 19  2  0
 18 20  1  0
 20 21  1  0
 21 22  2  0
 22 23  1  0
 23 24  2  0
 24 25  1  0
 25 26  2  0
 12 27  1  0
 27 28  1  0
  8  3  1  0
 28  9  1  0
 25 14  1  0
 26 17  1  0
 26 21  1  0
  1 29  1  0
  1 30  1  0
  1 31  1  0
  4 32  1  0
  5 33  1  0
  6 34  1  0
  7 35  1  0
 10 36  1  0
 10 37  1  0
 11 38  1  0
 11 39  1  0
 13 40  1  0
 13 41  1  0
 14 42  1  1
 15 43  1  0
 15 44  1  0
 16 45  1  0
 16 46  1  0
 20 47  1  0
 22 48  1  0
 23 49  1  0
 24 50  1  0
 27 51  1  0
 27 52  1  0
 28 53  1  0
 28 54  1  0
M  END
>  <UniqueID>  (9) 
9

>  <SMILES>  (9) 
COc1ccccc1N1CCN(C[C@@H]2CCn3c(=O)[nH]c4cccc2c43)CC1

>  <Energy>  (9) 
114.96719996590978

>  <Genealogy>  (9) 
COc1ccccc1N1CCN(C[C@@H]2CCn3c(=O)[nH]c4cccc2c43)CC1 (chirality)
COc1ccccc1N1CCN(C[C@@H]2CCn3c(=O)[nH]c4cccc2c43)CC1 (3D coordinates assigned)
COc1ccccc1N1CCN(C[C@@H]2CCn3c(=O)[nH]c4cccc2c43)CC1 (nonaromatic ring conformer: 114.96719996590978 kcal/mol)

>  <smiles>  (9) 
COc1ccccc1N1CCN(CC2CCn3c(=O)[nH]c4cccc2c43)CC1

>  <score_type>  (9) 
oracle

>  <origin>  (9) 
adg

>  <m_score__min__energy>  (9) 
-9.3800000000000008

>  <m_primary>  (9) 
energy

$$$$
9:0
     RDKit          3D

 35 36  0  0  0  0  0  0  0  0999 V2000
   -5.9960   16.6720  -34.5060 C   0  0  0  0  0  0  0  0  0  0  0  0
   -5.6780   18.0480  -34.0010 C   0  0  0  0  0  0  0  0  0  0  0  0
   -4.3510   18.5030  -33.9770 C   0  0  0  0  0  0  0  0  0  0  0  0
   -4.0500   19.7710  -33.4710 C   0  0  0  0  0  0  0  0  0  0  0  0
   -5.0690   20.6040  -32.9850 C   0  0  0  0  0  0  0  0  0  0  0  0
   -4.7290   21.8940  -32.4490 N   0  0  0  0  0  0  0  0  0  0  0  0
   -4.0910   22.0920  -31.1760 C   0  0  0  0  0  0  0  0  0  0  0  0
   -3.9850   21.1390  -30.3570 O   0  0  0  0  0  0  0  0  0  0  0  0
   -3.5530   23.4480  -30.8050 C   0  0  2  0  0  0  0  0  0  0  0  0
   -3.3430   23.5290  -29.2950 C   0  0  0  0  0  0  0  0  0  0  0  0
   -4.4640   24.4700  -31.2080 O   0  0  0  0  0  0  0  0  0  0  0  0
   -5.7270   24.6460  -30.6300 C   0  0  0  0  0  0  0  0  0  0  0  0
   -5.9660   25.6480  -29.9030 O   0  0  0  0  0  0  0  0  0  0  0  0
   -6.7800   23.6540  -30.8750 C   0  0  0  0  0  0  0  0  0  0  0  0
   -7.2780   22.7500  -29.9450 C   0  0  0  0  0  0  0  0  0  0  0  0
   -8.2810   21.9230  -30.4640 C   0  0  0  0  0  0  0  0  0  0  0  0
   -8.5760   22.1720  -31.7990 C   0  0  0  0  0  0  0  0  0  0  0  0
   -7.5860   23.4240  -32.3340 S   0  0  0  0  0  0  0  0  0  0  0  0
   -6.3920   20.1300  -32.9720 C   0  0  0  0  0  0  0  0  0  0  0  0
   -6.6930   18.8610  -33.4770 C   0  0  0  0  0  0  0  0  0  0  0  0
   -6.1524   15.9954  -33.6529 H   0  0  0  0  0  0  0  0  0  0  0  0
   -6.9095   16.7080  -35.1177 H   0  0  0  0  0  0  0  0  0  0  0  0
   -5.1593   16.3035  -35.1177 H   0  0  0  0  0  0  0  0  0  0  0  0
   -3.5443   17.8595  -34.3578 H   0  0  0  0  0  0  0  0  0  0  0  0
   -3.0064   20.1182  -33.4538 H   0  0  0  0  0  0  0  0  0  0  0  0
   -5.0430   22.7400  -32.9760 H   0  0  0  0  0  0  0  0  0  0  0  0
   -2.5923   23.5954  -31.3202 H   0  0  0  0  0  0  0  0  0  0  0  0
   -4.2496   23.1793  -28.7794 H   0  0  0  0  0  0  0  0  0  0  0  0
   -2.4908   22.8951  -29.0088 H   0  0  0  0  0  0  0  0  0  0  0  0
   -3.1373   24.5710  -29.0088 H   0  0  0  0  0  0  0  0  0  0  0  0
   -6.9205   22.6902  -28.9064 H   0  0  0  0  0  0  0  0  0  0  0  0
   -8.7884   21.1482  -29.8705 H   0  0  0  0  0  0  0  0  0  0  0  0
   -9.3275   21.6419  -32.4026 H   0  0  0  0  0  0  0  0  0  0  0  0
   -7.1950   20.7604  -32.5625 H   0  0  0  0  0  0  0  0  0  0  0  0
   -7.7316   18.4988  -33.4630 H   0  0  0  0  0  0  0  0  0  0  0  0
  1  2  1  0
  2  3  2  0
  3  4  1  0
  4  5  2  0
  5  6  1  0
  6  7  1  0
  7  8  2  0
  7  9  1  0
  9 10  1  0
  9 11  1  0
 11 12  1  0
 12 13  2  0
 12 14  1  0
 14 15  2  0
 15 16  1  0
 16 17  2  0
 17 18  1  0
  5 19  1  0
 19 20  2  0
 20  2  1  0
 18 14  1  0
  1 21  1  0
  1 22  1  0
  1 23  1  0
  3 24  1  0
  4 25  1  0
  6 26  1  0
  9 27  1  6
 10 28  1  0
 10 29  1  0
 10 30  1  0
 15 31  1  0
 16 32  1  0
 17 33  1  0
 19 34  1  0
 20 35  1  0
M  END
>  <UniqueID>  (10) 
10

>  <SMILES>  (10) 
Cc1ccc(NC(=O)[C@H](C)OC(=O)c2cccs2)cc1

>  <Energy>  (10) 
57.8668834654247

>  <Genealogy>  (10) 
Cc1ccc(NC(=O)[C@H](C)OC(=O)c2cccs2)cc1 (chirality)
Cc1ccc(NC(=O)[C@H](C)OC(=O)c2cccs2)cc1 (3D coordinates assigned)
Cc1ccc(NC(=O)[C@H](C)OC(=O)c2cccs2)cc1 (optimized conformer: 57.8668834654247 kcal/mol)

>  <smiles>  (10) 
Cc1ccc(NC(=O)C(C)OC(=O)c2cccs2)cc1

>  <score_type>  (10) 
oracle

>  <origin>  (10) 
adg

>  <m_score__min__energy>  (10) 
-7.1299999999999999

>  <m_primary>  (10) 
energy

$$$$
10:0
     RDKit          3D

 43 45  0  0  0  0  0  0  0  0999 V2000
   -7.9936   17.2501  -32.6544 H   0  0  0  0  0  0  0  0  0  0  0  0
   -7.3460   18.1320  -32.7680 C   0  0  0  0  0  0  0  0  0  0  0  0
   -7.8170   19.3110  -32.3330 C   0  0  0  0  0  0  0  0  0  0  0  0
   -7.3300   20.6430  -32.6610 C   0  0  0  0  0  0  0  0  0  0  0  0
   -6.4000   20.9140  -33.4660 O   0  0  0  0  0  0  0  0  0  0  0  0
   -8.1360   21.6290  -31.9700 C   0  0  0  0  0  0  0  0  0  0  0  0
   -7.8560   22.9420  -31.9450 C   0  0  0  0  0  0  0  0  0  0  0  0
   -8.5800   23.6348  -32.3987 H   0  0  0  0  0  0  0  0  0  0  0  0
   -6.6330   23.5100  -31.3440 C   0  0  0  0  0  0  0  0  0  0  0  0
   -5.4030   22.8760  -31.5680 C   0  0  0  0  0  0  0  0  0  0  0  0
   -5.3634   21.9564  -32.1703 H   0  0  0  0  0  0  0  0  0  0  0  0
   -4.2260   23.4060  -31.0300 C   0  0  0  0  0  0  0  0  0  0  0  0
   -3.2673   22.8937  -31.1988 H   0  0  0  0  0  0  0  0  0  0  0  0
   -4.2630   24.5930  -30.2730 C   0  0  0  0  0  0  0  0  0  0  0  0
   -3.1110   25.1640  -29.7110 O   0  0  0  0  0  0  0  0  0  0  0  0
   -2.3280   24.5540  -28.6910 C   0  0  0  0  0  0  0  0  0  0  0  0
   -2.7126   24.8536  -27.7049 H   0  0  0  0  0  0  0  0  0  0  0  0
   -2.3851   23.4599  -28.7899 H   0  0  0  0  0  0  0  0  0  0  0  0
   -1.2811   24.8770  -28.7899 H   0  0  0  0  0  0  0  0  0  0  0  0
   -5.4900   25.2380  -30.0760 C   0  0  0  0  0  0  0  0  0  0  0  0
   -5.5285   26.1696  -29.4924 H   0  0  0  0  0  0  0  0  0  0  0  0
   -6.6660   24.7090  -30.6140 C   0  0  0  0  0  0  0  0  0  0  0  0
   -7.6212   25.2338  -30.4651 H   0  0  0  0  0  0  0  0  0  0  0  0
   -9.2290   20.9380  -31.2060 C   0  0  0  0  0  0  0  0  0  0  0  0
   -9.1535   21.1713  -30.1337 H   0  0  0  0  0  0  0  0  0  0  0  0
  -10.2252   21.2648  -31.5389 H   0  0  0  0  0  0  0  0  0  0  0  0
   -9.0170   19.4270  -31.4440 C   0  0  0  0  0  0  0  0  0  0  0  0
   -8.8360   18.9118  -30.4891 H   0  0  0  0  0  0  0  0  0  0  0  0
   -9.9032   18.9641  -31.9026 H   0  0  0  0  0  0  0  0  0  0  0  0
   -6.0210   17.9340  -33.3880 C   0  0  0  0  0  0  0  0  0  0  0  0
   -5.8810   17.2080  -34.5810 C   0  0  0  0  0  0  0  0  0  0  0  0
   -6.7639   16.7500  -35.0507 H   0  0  0  0  0  0  0  0  0  0  0  0
   -4.6240   17.0650  -35.1740 C   0  0  0  0  0  0  0  0  0  0  0  0
   -4.5167   16.4770  -36.0974 H   0  0  0  0  0  0  0  0  0  0  0  0
   -3.5030   17.6670  -34.5970 C   0  0  0  0  0  0  0  0  0  0  0  0
   -2.5124   17.5370  -35.0571 H   0  0  0  0  0  0  0  0  0  0  0  0
   -3.6380   18.4370  -33.4320 C   0  0  0  0  0  0  0  0  0  0  0  0
   -2.4310   19.0640  -32.7990 C   0  0  0  0  0  0  0  0  0  0  0  0
   -2.5243   19.0155  -31.7040 H   0  0  0  0  0  0  0  0  0  0  0  0
   -1.5278   18.5211  -33.1144 H   0  0  0  0  0  0  0  0  0  0  0  0
   -2.3559   20.1151  -33.1144 H   0  0  0  0  0  0  0  0  0  0  0  0
   -4.8990   18.5640  -32.8290 C   0  0  0  0  0  0  0  0  0  0  0  0
   -5.0083   19.1615  -31.9119 H   0  0  0  0  0  0  0  0  0  0  0  0
  1  2  1  0
  2  3  2  3
  3  4  1  0
  4  5  2  0
  4  6  1  0
  6  7  2  0
  7  8  1  0
  7  9  1  0
  9 10  2  0
 10 11  1  0
 10 12  1  0
 12 13  1  0
 12 14  2  0
 14 15  1  0
 15 16  1  0
 16 17  1  0
 16 18  1  0
 16 19  1  0
 14 20  1  0
 20 21  1  0
 20 22  2  0
 22 23  1  0
  6 24  1  0
 24 25  1  0
 24 26  1  0
 24 27  1  0
 27 28  1  0
 27 29  1  0
  2 30  1  0
 30 31  2  0
 31 32  1  0
 31 33  1  0
 33 34  1  0
 33 35  2  0
 35 36  1  0
 35 37  1  0
 37 38  1  0
 38 39  1  0
 38 40  1  0
 38 41  1  0
 37 42  2  0
 42 43  1  0
 27  3  1  0
 42 30  1  0
 22  9  1  0
M  END
>  <UniqueID>  (11) 
11

>  <SMILES>  (11) 
COc1ccc(/C=C2\CCC(=Cc3cccc(C)c3)C2=O)cc1

>  <Energy>  (11) 
66.51317719142335

>  <Genealogy>  (11) 
COc1ccc(/C=C2\CCC(=Cc3cccc(C)c3)C2=O)cc1 (cis-trans isomerization)
COc1ccc(/C=C2\CCC(=Cc3cccc(C)c3)C2=O)cc1 (3D coordinates assigned)
COc1ccc(/C=C2\CCC(=Cc3cccc(C)c3)C2=O)cc1 (nonaromatic ring conformer: 66.51317719142335 kcal/mol)

>  <smiles>  (11) 
COc1ccc(C=C2CCC(=Cc3cccc(C)c3)C2=O)cc1

>  <score_type>  (11) 
oracle

>  <origin>  (11) 
adg

>  <m_score__min__energy>  (11) 
-9.7100000000000009

>  <m_primary>  (11) 
energy

$$$$
11:0
     RDKit          3D

 27 29  0  0  0  0  0  0  0  0999 V2000
   -9.4350   19.3470  -32.3520 C   0  0  0  0  0  0  0  0  0  0  0  0
   -8.2230   20.2170  -32.3440 C   0  0  0  0  0  0  0  0  0  0  0  0
   -7.3160   20.2610  -33.3460 N   0  0  0  0  0  0  0  0  0  0  0  0
   -6.3580   21.1680  -33.1680 N   0  0  0  0  0  0  0  0  0  0  0  0
   -6.4900   21.8510  -32.0090 C   0  0  0  0  0  0  0  0  0  0  0  0
   -5.6290   22.9420  -31.6450 N   0  0  0  0  0  0  0  0  0  0  0  0
   -6.0310   24.1620  -31.2430 C   0  0  0  0  0  0  0  0  0  0  0  0
   -4.9880   24.9110  -30.8420 N   0  0  0  0  0  0  0  0  0  0  0  0
   -3.8970   24.1750  -30.9920 N   0  0  0  0  0  0  0  0  0  0  0  0
   -4.2880   22.9830  -31.4810 C   0  0  0  0  0  0  0  0  0  0  0  0
   -3.3300   21.9300  -31.8710 C   0  0  0  0  0  0  0  0  0  0  0  0
   -2.3810   21.4710  -30.9440 C   0  0  0  0  0  0  0  0  0  0  0  0
   -1.4490   20.4950  -31.3130 C   0  0  0  0  0  0  0  0  0  0  0  0
   -1.4470   19.9860  -32.6150 C   0  0  0  0  0  0  0  0  0  0  0  0
   -2.3720   20.4550  -33.5510 C   0  0  0  0  0  0  0  0  0  0  0  0
   -3.3060   21.4300  -33.1840 C   0  0  0  0  0  0  0  0  0  0  0  0
   -7.8730   21.3710  -31.1680 S   0  0  0  0  0  0  0  0  0  0  0  0
   -9.7374   19.1299  -31.3169 H   0  0  0  0  0  0  0  0  0  0  0  0
  -10.2544   19.8644  -32.8725 H   0  0  0  0  0  0  0  0  0  0  0  0
   -9.2069   18.4052  -32.8725 H   0  0  0  0  0  0  0  0  0  0  0  0
   -7.3600   19.6560  -34.1960 H   0  0  0  0  0  0  0  0  0  0  0  0
   -7.0770   24.5025  -31.2424 H   0  0  0  0  0  0  0  0  0  0  0  0
   -2.3701   21.8805  -29.9231 H   0  0  0  0  0  0  0  0  0  0  0  0
   -0.7174   20.1279  -30.5782 H   0  0  0  0  0  0  0  0  0  0  0  0
   -0.7165   19.2156  -32.9027 H   0  0  0  0  0  0  0  0  0  0  0  0
   -2.3660   20.0577  -34.5767 H   0  0  0  0  0  0  0  0  0  0  0  0
   -4.0247   21.8068  -33.9266 H   0  0  0  0  0  0  0  0  0  0  0  0
  1  2  1  0
  2  3  2  0
  3  4  1  0
  4  5  2  0
  5  6  1  0
  6  7  1  0
  7  8  2  0
  8  9  1  0
  9 10  2  0
 10 11  1  0
 11 12  2  0
 12 13  1  0
 13 14  2  0
 14 15  1  0
 15 16  2  0
  5 17  1  0
 17  2  1  0
 10  6  1  0
 16 11  1  0
  1 18  1  0
  1 19  1  0
  1 20  1  0
  3 21  1  0
  7 22  1  0
 12 23  1  0
 13 24  1  0
 14 25  1  0
 15 26  1  0
 16 27  1  0
M  CHG  1   3   1
M  END
>  <UniqueID>  (12) 
12

>  <SMILES>  (12) 
Cc1[nH+]nc(-n2cnnc2-c2ccccc2)s1

>  <Energy>  (12) 
103.5665162939982

>  <Genealogy>  (12) 
Cc1[nH+]nc(-n2cnnc2-c2ccccc2)s1 (protonated)
Cc1[nH+]nc(-n2cnnc2-c2ccccc2)s1 (3D coordinates assigned)
Cc1[nH+]nc(-n2cnnc2-c2ccccc2)s1 (optimized conformer: 103.5665162939982 kcal/mol)

>  <smiles>  (12) 
Cc1nnc(-n2cnnc2-c2ccccc2)s1

>  <score_type>  (12) 
oracle

>  <origin>  (12) 
adg

>  <m_score__min__energy>  (12) 
-6.9699999999999998

>  <m_primary>  (12) 
energy

$$$$
12:0
     RDKit          3D

 38 39  0  0  0  0  0  0  0  0999 V2000
   -3.9550   20.6040  -32.7120 C   0  0  0  0  0  0  0  0  0  0  0  0
   -5.1560   20.7490  -33.4620 O   0  0  0  0  0  0  0  0  0  0  0  0
   -6.3840   20.2890  -32.9780 C   0  0  0  0  0  0  0  0  0  0  0  0
   -6.7110   18.9210  -33.0870 C   0  0  0  0  0  0  0  0  0  0  0  0
   -5.7540   17.9290  -33.6880 C   0  0  0  0  0  0  0  0  0  0  0  0
   -7.9590   18.4720  -32.6440 C   0  0  0  0  0  0  0  0  0  0  0  0
   -8.8580   19.3520  -32.0530 C   0  0  0  0  0  0  0  0  0  0  0  0
   -8.5290   20.7040  -31.8780 C   0  0  0  0  0  0  0  0  0  0  0  0
   -9.5370   21.6070  -31.2150 C   0  0  0  0  0  0  0  0  0  0  0  0
   -7.2790   21.1880  -32.3480 C   0  0  0  0  0  0  0  0  0  0  0  0
   -6.8140   22.8890  -32.0770 S   0  0  0  0  0  0  0  0  0  0  0  0
   -7.5570   23.7600  -33.0490 O   0  0  0  0  0  0  0  0  0  0  0  0
   -5.3430   23.1110  -32.2980 O   0  0  0  0  0  0  0  0  0  0  0  0
   -7.2190   23.3770  -30.4550 N   0  0  0  0  0  0  0  0  0  0  0  0
   -6.6800   24.7050  -30.1520 C   0  0  0  0  0  0  0  0  0  0  0  0
   -5.2080   24.6300  -29.8910 C   0  0  0  0  0  0  0  0  0  0  0  0
   -4.6070   24.0400  -28.7980 C   0  0  0  0  0  0  0  0  0  0  0  0
   -3.2670   24.2750  -29.0080 C   0  0  0  0  0  0  0  0  0  0  0  0
   -2.1480   23.8570  -28.1170 C   0  0  0  0  0  0  0  0  0  0  0  0
   -3.1170   24.9220  -30.1410 O   0  0  0  0  0  0  0  0  0  0  0  0
   -4.2680   25.1540  -30.7020 N   0  0  0  0  0  0  0  0  0  0  0  0
   -4.1881   20.6321  -31.6374 H   0  0  0  0  0  0  0  0  0  0  0  0
   -3.4820   19.6422  -32.9595 H   0  0  0  0  0  0  0  0  0  0  0  0
   -3.2667   21.4256  -32.9595 H   0  0  0  0  0  0  0  0  0  0  0  0
   -5.2329   17.3888  -32.8839 H   0  0  0  0  0  0  0  0  0  0  0  0
   -6.3109   17.2127  -34.3099 H   0  0  0  0  0  0  0  0  0  0  0  0
   -5.0182   18.4598  -34.3099 H   0  0  0  0  0  0  0  0  0  0  0  0
   -8.2316   17.4131  -32.7643 H   0  0  0  0  0  0  0  0  0  0  0  0
   -9.8391   18.9837  -31.7186 H   0  0  0  0  0  0  0  0  0  0  0  0
   -9.4424   21.5223  -30.1224 H   0  0  0  0  0  0  0  0  0  0  0  0
   -9.3529   22.6479  -31.5194 H   0  0  0  0  0  0  0  0  0  0  0  0
  -10.5515   21.3100  -31.5194 H   0  0  0  0  0  0  0  0  0  0  0  0
   -6.8618   25.3725  -31.0072 H   0  0  0  0  0  0  0  0  0  0  0  0
   -7.1800   25.0935  -29.2525 H   0  0  0  0  0  0  0  0  0  0  0  0
   -5.0838   23.5096  -27.9606 H   0  0  0  0  0  0  0  0  0  0  0  0
   -2.4535   23.9711  -27.0665 H   0  0  0  0  0  0  0  0  0  0  0  0
   -1.8965   22.8043  -28.3134 H   0  0  0  0  0  0  0  0  0  0  0  0
   -1.2679   24.4870  -28.3134 H   0  0  0  0  0  0  0  0  0  0  0  0
  1  2  1  0
  2  3  1  0
  3  4  2  0
  4  5  1  0
  4  6  1  0
  6  7  2  0
  7  8  1  0
  8  9  1  0
  8 10  2  0
 10 11  1  0
 11 12  2  0
 11 13  2  0
 11 14  1  0
 14 15  1  0
 15 16  1  0
 16 17  1  0
 17 18  2  0
 18 19  1  0
 18 20  1  0
 20 21  1  0
 10  3  1  0
 21 16  2  0
  1 22  1  0
  1 23  1  0
  1 24  1  0
  5 25  1  0
  5 26  1  0
  5 27  1  0
  6 28  1  0
  7 29  1  0
  9 30  1  0
  9 31  1  0
  9 32  1  0
 15 33  1  0
 15 34  1  0
 17 35  1  0
 19 36  1  0
 19 37  1  0
 19 38  1  0
M  CHG  1  14  -1
M  END
>  <UniqueID>  (13) 
13

>  <SMILES>  (13) 
COc1c(C)ccc(C)c1S(=O)(=O)[N-]Cc1cc(C)on1

>  <Energy>  (13) 
70.31824815785441

>  <Genealogy>  (13) 
COc1c(C)ccc(C)c1S(=O)(=O)[N-]Cc1cc(C)on1 (protonated)
COc1c(C)ccc(C)c1S(=O)(=O)[N-]Cc1cc(C)on1 (3D coordinates assigned)
COc1c(C)ccc(C)c1S(=O)(=O)[N-]Cc1cc(C)on1 (optimized conformer: 70.31824815785441 kcal/mol)

>  <smiles>  (13) 
COc1c(C)ccc(C)c1S(=O)(=O)NCc1cc(C)on1

>  <score_type>  (13) 
oracle

>  <origin>  (13) 
adg

>  <m_score__min__energy>  (13) 
-9.3399999999999999

>  <m_primary>  (13) 
energy

$$$$
13:0
     RDKit          3D

 29 31  0  0  0  0  0  0  0  0999 V2000
   -9.2010   20.0120  -33.0930 C   0  0  0  0  0  0  0  0  0  0  0  0
   -8.6280   19.9490  -31.6660 C   0  0  2  0  0  0  0  0  0  0  0  0
   -9.1130   21.1730  -30.8430 C   0  0  0  0  0  0  0  0  0  0  0  0
   -8.4730   22.4080  -31.3040 N   0  0  0  0  0  0  0  0  0  0  0  0
   -7.1190   22.3630  -31.7510 C   0  0  0  0  0  0  0  0  0  0  0  0
   -6.1260   23.6690  -32.0950 S   0  0  0  0  0  0  0  0  0  0  0  0
   -4.8150   22.6620  -32.4560 C   0  0  0  0  0  0  0  0  0  0  0  0
   -5.1310   21.3510  -32.3150 N   0  0  0  0  0  0  0  0  0  0  0  0
   -6.4290   21.1860  -31.9450 C   0  0  0  0  0  0  0  0  0  0  0  0
   -7.0660   19.8530  -31.6290 C   0  0  2  0  0  0  0  0  0  0  0  0
   -6.5300   18.7160  -32.4770 C   0  0  0  0  0  0  0  0  0  0  0  0
   -6.2680   17.4420  -31.9410 C   0  0  0  0  0  0  0  0  0  0  0  0
   -5.7440   16.4430  -32.7640 C   0  0  0  0  0  0  0  0  0  0  0  0
   -5.4760   16.7190  -34.1060 C   0  0  0  0  0  0  0  0  0  0  0  0
   -5.7340   17.9960  -34.6050 C   0  0  0  0  0  0  0  0  0  0  0  0
   -6.2450   18.9560  -33.7890 N   0  0  0  0  0  0  0  0  0  0  0  0
  -10.2933   20.1321  -33.0445 H   0  0  0  0  0  0  0  0  0  0  0  0
   -8.7614   20.8672  -33.6272 H   0  0  0  0  0  0  0  0  0  0  0  0
   -8.9578   19.0817  -33.6272 H   0  0  0  0  0  0  0  0  0  0  0  0
   -9.0067   19.0203  -31.2143 H   0  0  0  0  0  0  0  0  0  0  0  0
  -10.2031   21.2707  -30.9536 H   0  0  0  0  0  0  0  0  0  0  0  0
   -8.8432   21.0132  -29.7886 H   0  0  0  0  0  0  0  0  0  0  0  0
   -8.9630   23.3240  -31.2010 H   0  0  0  0  0  0  0  0  0  0  0  0
   -3.8253   23.0271  -32.7676 H   0  0  0  0  0  0  0  0  0  0  0  0
   -6.7762   19.6008  -30.5983 H   0  0  0  0  0  0  0  0  0  0  0  0
   -6.4745   17.2342  -30.8807 H   0  0  0  0  0  0  0  0  0  0  0  0
   -5.5430   15.4414  -32.3561 H   0  0  0  0  0  0  0  0  0  0  0  0
   -5.0658   15.9379  -34.7630 H   0  0  0  0  0  0  0  0  0  0  0  0
   -5.5238   18.2265  -35.6598 H   0  0  0  0  0  0  0  0  0  0  0  0
  1  2  1  0
  2  3  1  0
  3  4  1  0
  4  5  1  0
  5  6  1  0
  6  7  1  0
  7  8  2  0
  8  9  1  0
  9 10  1  0
 10 11  1  0
 11 12  2  0
 12 13  1  0
 13 14  2  0
 14 15  1  0
 15 16  2  0
 10  2  1  0
 16 11  1  0
  9  5  2  0
  1 17  1  0
  1 18  1  0
  1 19  1  0
  2 20  1  1
  3 21  1  0
  3 22  1  0
  4 23  1  0
  7 24  1  0
 10 25  1  1
 12 26  1  0
 13 27  1  0
 14 28  1  0
 15 29  1  0
M  END
>  <UniqueID>  (14) 
14

>  <SMILES>  (14) 
C[C@@H]1CNc2scnc2[C@@H]1c1ccccn1

>  <Energy>  (14) 
64.20759755498003

>  <Genealogy>  (14) 
C[C@@H]1CNc2scnc2[C@@H]1c1ccccn1 (chirality)
C[C@@H]1CNc2scnc2[C@@H]1c1ccccn1 (3D coordinates assigned)
C[C@@H]1CNc2scnc2[C@@H]1c1ccccn1 (nonaromatic ring conformer: 64.20759755498003 kcal/mol)

>  <smiles>  (14) 
CC1CNc2scnc2C1c1ccccn1

>  <score_type>  (14) 
oracle

>  <origin>  (14) 
adg

>  <m_score__min__energy>  (14) 
-6.21

>  <m_primary>  (14) 
energy

$$$$
14:0
     RDKit          3D

 38 39  0  0  1  0  0  0  0  0999 V2000
   -6.1710   25.6740  -29.7520 C   0  0  0  0  0  0  0  0  0  0  0  0
   -4.9100   24.8910  -29.8290 C   0  0  0  0  0  0  0  0  0  0  0  0
   -4.6640   24.1630  -31.0120 N   0  0  0  0  0  0  0  0  0  0  0  0
   -3.5290   23.3000  -30.8470 C   0  0  0  0  0  0  0  0  0  0  0  0
   -3.4220   22.2670  -31.9480 C   0  0  0  0  0  0  0  0  0  0  0  0
   -5.7490   23.5990  -31.7070 C   0  0  0  0  0  0  0  0  0  0  0  0
   -6.4900   22.5930  -30.8190 C   0  0  0  0  0  0  0  0  0  0  0  0
   -7.9900   22.7000  -31.2590 C   0  0  0  0  0  0  0  0  0  0  0  0
   -8.0650   21.8210  -32.3570 N   0  0  0  0  0  0  0  0  0  0  0  0
   -7.9840   20.5620  -32.3130 C   0  0  0  0  0  0  0  0  0  0  0  0
   -9.0200   19.9060  -31.7480 N   0  0  0  0  0  0  0  0  0  0  0  0
   -9.1090   18.5760  -31.6350 C   0  0  0  0  0  0  0  0  0  0  0  0
   -8.0840   17.8590  -32.1230 N   0  0  0  0  0  0  0  0  0  0  0  0
   -7.0550   18.4850  -32.6830 C   0  0  0  0  0  0  0  0  0  0  0  0
   -5.6000   17.7010  -33.3850 S   0  0  0  0  0  0  0  0  0  0  0  0
   -4.8430   19.2810  -33.8510 C   0  0  0  0  0  0  0  0  0  0  0  0
   -5.7860   20.2840  -33.4210 C   0  0  0  0  0  0  0  0  0  0  0  0
   -6.8820   19.8330  -32.8400 C   0  0  0  0  0  0  0  0  0  0  0  0
   -6.4364   25.8388  -28.6973 H   0  0  0  0  0  0  0  0  0  0  0  0
   -6.0311   26.6443  -30.2509 H   0  0  0  0  0  0  0  0  0  0  0  0
   -6.9787   25.1183  -30.2509 H   0  0  0  0  0  0  0  0  0  0  0  0
   -4.0762   25.5963  -29.6973 H   0  0  0  0  0  0  0  0  0  0  0  0
   -5.0086   24.1253  -29.0455 H   0  0  0  0  0  0  0  0  0  0  0  0
   -2.6160   23.9135  -30.8489 H   0  0  0  0  0  0  0  0  0  0  0  0
   -3.6530   22.7627  -29.8952 H   0  0  0  0  0  0  0  0  0  0  0  0
   -3.3183   21.2663  -31.5031 H   0  0  0  0  0  0  0  0  0  0  0  0
   -4.3283   22.2994  -32.5705 H   0  0  0  0  0  0  0  0  0  0  0  0
   -2.5416   22.4845  -32.5705 H   0  0  0  0  0  0  0  0  0  0  0  0
   -6.4430   24.3986  -32.0053 H   0  0  0  0  0  0  0  0  0  0  0  0
   -5.3687   23.0759  -32.5968 H   0  0  0  0  0  0  0  0  0  0  0  0
   -6.1089   21.5747  -30.9857 H   0  0  0  0  0  0  0  0  0  0  0  0
   -6.3551   22.8059  -29.7483 H   0  0  0  0  0  0  0  0  0  0  0  0
   -8.6626   22.3792  -30.4499 H   0  0  0  0  0  0  0  0  0  0  0  0
   -8.2955   23.7274  -31.5063 H   0  0  0  0  0  0  0  0  0  0  0  0
   -9.8290   20.4560  -31.3610 H   0  0  0  0  0  0  0  0  0  0  0  0
   -9.9790   18.0936  -31.1655 H   0  0  0  0  0  0  0  0  0  0  0  0
   -3.8766   19.4398  -34.3518 H   0  0  0  0  0  0  0  0  0  0  0  0
   -5.6031   21.3587  -33.5682 H   0  0  0  0  0  0  0  0  0  0  0  0
  1  2  1  0
  2  3  1  0
  3  4  1  0
  4  5  1  0
  3  6  1  0
  6  7  1  0
  7  8  1  0
  8  9  1  0
  9 10  2  0
 10 11  1  0
 11 12  1  0
 12 13  2  0
 13 14  1  0
 14 15  1  0
 15 16  1  0
 16 17  2  0
 17 18  1  0
 18 10  1  0
 18 14  2  0
  1 19  1  0
  1 20  1  0
  1 21  1  0
  2 22  1  0
  2 23  1  0
  4 24  1  0
  4 25  1  0
  5 26  1  0
  5 27  1  0
  5 28  1  0
  6 29  1  0
  6 30  1  0
  7 31  1  0
  7 32  1  0
  8 33  1  0
  8 34  1  0
 11 35  1  0
 12 36  1  0
 16 37  1  0
 17 38  1  0
M  END
>  <smiles>  (15) 
CCN(CC)CCCN=c1[nH]cnc2sccc12

>  <score_type>  (15) 
oracle

>  <origin>  (15) 
adg

>  <m_score__min__energy>  (15) 
-6.3399999999999999

>  <m_primary>  (15) 
energy

$$$$
15:0
     RDKit          3D

 29 29  0  0  0  0  0  0  0  0999 V2000
   -3.5070   23.8530  -30.0880 C   0  0  0  0  0  0  0  0  0  0  0  0
   -4.7820   23.2180  -29.5410 C   0  0  0  0  0  0  0  0  0  0  0  0
   -5.9240   23.5030  -30.4380 N   0  0  0  0  0  0  0  0  0  0  0  0
   -6.0690   24.9570  -30.6810 C   0  0  0  0  0  0  0  0  0  0  0  0
   -6.4870   25.6670  -29.3980 C   0  0  0  0  0  0  0  0  0  0  0  0
   -5.7920   22.7660  -31.7150 C   0  0  0  0  0  0  0  0  0  0  0  0
   -6.9790   21.8610  -31.9170 C   0  0  0  0  0  0  0  0  0  0  0  0
   -8.1360   22.0010  -31.1370 C   0  0  0  0  0  0  0  0  0  0  0  0
   -9.2270   21.1580  -31.3510 C   0  0  0  0  0  0  0  0  0  0  0  0
   -9.1520   20.1800  -32.3450 C   0  0  0  0  0  0  0  0  0  0  0  0
   -8.0240   20.0530  -33.0960 N   0  0  0  0  0  0  0  0  0  0  0  0
   -6.9480   20.8660  -32.9040 C   0  0  0  0  0  0  0  0  0  0  0  0
   -2.8678   24.1713  -29.2513 H   0  0  0  0  0  0  0  0  0  0  0  0
   -2.9666   23.1188  -30.7035 H   0  0  0  0  0  0  0  0  0  0  0  0
   -3.7674   24.7267  -30.7035 H   0  0  0  0  0  0  0  0  0  0  0  0
   -4.6421   22.1295  -29.4665 H   0  0  0  0  0  0  0  0  0  0  0  0
   -4.9938   23.6398  -28.5474 H   0  0  0  0  0  0  0  0  0  0  0  0
   -5.1074   25.3654  -31.0253 H   0  0  0  0  0  0  0  0  0  0  0  0
   -6.8416   25.1172  -31.4475 H   0  0  0  0  0  0  0  0  0  0  0  0
   -6.1448   25.0857  -28.5291 H   0  0  0  0  0  0  0  0  0  0  0  0
   -6.0349   26.6694  -29.3697 H   0  0  0  0  0  0  0  0  0  0  0  0
   -7.5829   25.7581  -29.3697 H   0  0  0  0  0  0  0  0  0  0  0  0
   -5.7374   23.4850  -32.5457 H   0  0  0  0  0  0  0  0  0  0  0  0
   -4.8765   22.1569  -31.6855 H   0  0  0  0  0  0  0  0  0  0  0  0
   -8.1834   22.7750  -30.3569 H   0  0  0  0  0  0  0  0  0  0  0  0
  -10.1374   21.2627  -30.7426 H   0  0  0  0  0  0  0  0  0  0  0  0
  -10.0068   19.5105  -32.5215 H   0  0  0  0  0  0  0  0  0  0  0  0
   -7.9840   19.3180  -33.8360 H   0  0  0  0  0  0  0  0  0  0  0  0
   -6.0499   20.7411  -33.5268 H   0  0  0  0  0  0  0  0  0  0  0  0
  1  2  1  0
  2  3  1  0
  3  4  1  0
  4  5  1  0
  3  6  1  0
  6  7  1  0
  7  8  2  0
  8  9  1  0
  9 10  2  0
 10 11  1  0
 11 12  2  0
 12  7  1  0
  1 13  1  0
  1 14  1  0
  1 15  1  0
  2 16  1  0
  2 17  1  0
  4 18  1  0
  4 19  1  0
  5 20  1  0
  5 21  1  0
  5 22  1  0
  6 23  1  0
  6 24  1  0
  8 25  1  0
  9 26  1  0
 10 27  1  0
 11 28  1  0
 12 29  1  0
M  CHG  1  11   1
M  END
>  <UniqueID>  (16) 
15

>  <SMILES>  (16) 
CCN(CC)Cc1ccc[nH+]c1

>  <Energy>  (16) 
24.615128910987874

>  <Genealogy>  (16) 
CCN(CC)Cc1ccc[nH+]c1 (protonated)
CCN(CC)Cc1ccc[nH+]c1 (3D coordinates assigned)
CCN(CC)Cc1ccc[nH+]c1 (optimized conformer: 24.615128910987874 kcal/mol)

>  <smiles>  (16) 
CCN(CC)Cc1cccnc1

>  <score_type>  (16) 
oracle

>  <origin>  (16) 
adg

>  <m_score__min__energy>  (16) 
-4.29

>  <m_primary>  (16) 
energy

$$$$
16:0
     RDKit          3D

 28 30  0  0  1  0  0  0  0  0999 V2000
   -8.4450   19.1470  -32.3130 C   0  0  0  0  0  0  0  0  0  0  0  0
   -7.1900   20.1130  -33.1650 S   0  0  0  0  0  0  0  0  0  0  0  0
   -6.9040   21.5710  -32.2350 C   0  0  0  0  0  0  0  0  0  0  0  0
   -5.7200   22.1630  -31.8380 C   0  0  0  0  0  0  0  0  0  0  0  0
   -5.7740   23.2870  -31.1250 C   0  0  0  0  0  0  0  0  0  0  0  0
   -4.7090   24.0650  -30.6130 C   0  0  0  0  0  0  0  0  0  0  0  0
   -3.4830   23.7310  -30.8060 N   0  0  0  0  0  0  0  0  0  0  0  0
   -2.4650   23.8090  -29.8150 C   0  0  0  0  0  0  0  0  0  0  0  0
   -1.6960   22.6890  -29.5140 C   0  0  0  0  0  0  0  0  0  0  0  0
   -0.6980   22.7470  -28.5510 C   0  0  0  0  0  0  0  0  0  0  0  0
   -0.4430   23.9230  -27.8650 C   0  0  0  0  0  0  0  0  0  0  0  0
   -1.2390   25.0220  -28.1980 C   0  0  0  0  0  0  0  0  0  0  0  0
   -2.1840   24.9270  -29.1260 N   0  0  0  0  0  0  0  0  0  0  0  0
   -4.9760   25.1630  -29.9200 N   0  0  0  0  0  0  0  0  0  0  0  0
   -6.1890   25.6460  -29.6350 C   0  0  0  0  0  0  0  0  0  0  0  0
   -7.2420   24.9160  -30.1150 N   0  0  0  0  0  0  0  0  0  0  0  0
   -7.0150   23.8000  -30.8210 C   0  0  0  0  0  0  0  0  0  0  0  0
   -8.1910   22.6210  -31.5890 S   0  0  0  0  0  0  0  0  0  0  0  0
   -8.3115   19.2497  -31.2260 H   0  0  0  0  0  0  0  0  0  0  0  0
   -9.4434   19.5119  -32.5959 H   0  0  0  0  0  0  0  0  0  0  0  0
   -8.3477   18.0885  -32.5959 H   0  0  0  0  0  0  0  0  0  0  0  0
   -4.7518   21.7148  -32.1056 H   0  0  0  0  0  0  0  0  0  0  0  0
   -1.8816   21.7446  -30.0466 H   0  0  0  0  0  0  0  0  0  0  0  0
   -0.1028   21.8487  -28.3301 H   0  0  0  0  0  0  0  0  0  0  0  0
    0.3439   23.9882  -27.0992 H   0  0  0  0  0  0  0  0  0  0  0  0
   -1.0803   25.9811  -27.6833 H   0  0  0  0  0  0  0  0  0  0  0  0
   -4.1590   25.7220  -29.5520 H   0  0  0  0  0  0  0  0  0  0  0  0
   -6.3314   26.5688  -29.0534 H   0  0  0  0  0  0  0  0  0  0  0  0
  1  2  1  0
  2  3  1  0
  3  4  2  0
  4  5  1  0
  5  6  1  0
  6  7  2  0
  7  8  1  0
  8  9  2  0
  9 10  1  0
 10 11  2  0
 11 12  1  0
 12 13  2  0
  6 14  1  0
 14 15  1  0
 15 16  2  0
 16 17  1  0
 17 18  1  0
 18  3  1  0
 17  5  2  0
 13  8  1  0
  1 19  1  0
  1 20  1  0
  1 21  1  0
  4 22  1  0
  9 23  1  0
 10 24  1  0
 11 25  1  0
 12 26  1  0
 14 27  1  0
 15 28  1  0
M  END
>  <smiles>  (17) 
CSc1cc2c(=Nc3ccccn3)[nH]cnc2s1

>  <score_type>  (17) 
oracle

>  <origin>  (17) 
adg

>  <m_score__min__energy>  (17) 
-6.9500000000000002

>  <m_primary>  (17) 
energy

$$$$
17:0
     RDKit          3D

 36 39  0  0  0  0  0  0  0  0999 V2000
   -8.1050   20.6760  -32.7070 C   0  0  0  0  0  0  0  0  0  0  0  0
   -7.1110   19.8910  -32.3420 C   0  0  0  0  0  0  0  0  0  0  0  0
   -5.6900   20.2400  -32.5200 C   0  0  0  0  0  0  0  0  0  0  0  0
   -5.0450   21.4510  -32.2290 C   0  0  0  0  0  0  0  0  0  0  0  0
   -5.5860   22.6120  -31.4970 C   0  0  0  0  0  0  0  0  0  0  0  0
   -6.7070   22.4940  -30.6590 C   0  0  0  0  0  0  0  0  0  0  0  0
   -7.1670   23.6160  -29.9670 C   0  0  0  0  0  0  0  0  0  0  0  0
   -6.5020   24.8360  -30.1000 C   0  0  0  0  0  0  0  0  0  0  0  0
   -5.3770   24.9130  -30.9220 C   0  0  0  0  0  0  0  0  0  0  0  0
   -4.9450   23.8110  -31.5910 N   0  0  0  0  0  0  0  0  0  0  0  0
   -3.7740   21.3960  -32.6880 N   0  0  0  0  0  0  0  0  0  0  0  0
   -3.5890   20.2110  -33.2420 N   0  0  0  0  0  0  0  0  0  0  0  0
   -2.4540   19.7590  -33.8350 C   0  0  0  0  0  0  0  0  0  0  0  0
   -2.4650   18.4760  -34.4000 C   0  0  0  0  0  0  0  0  0  0  0  0
   -3.6420   17.7050  -34.3460 C   0  0  0  0  0  0  0  0  0  0  0  0
   -4.7940   18.2120  -33.7240 C   0  0  0  0  0  0  0  0  0  0  0  0
   -4.7180   19.4880  -33.1630 C   0  0  0  0  0  0  0  0  0  0  0  0
   -7.5820   18.6730  -31.6320 C   0  0  0  0  0  0  0  0  0  0  0  0
   -9.1080   18.7450  -31.7360 C   0  0  0  0  0  0  0  0  0  0  0  0
   -9.4280   20.1130  -32.3460 C   0  0  0  0  0  0  0  0  0  0  0  0
   -7.9684   21.6390  -33.2208 H   0  0  0  0  0  0  0  0  0  0  0  0
   -7.2180   21.5261  -30.5489 H   0  0  0  0  0  0  0  0  0  0  0  0
   -8.0519   23.5387  -29.3182 H   0  0  0  0  0  0  0  0  0  0  0  0
   -6.8606   25.7265  -29.5630 H   0  0  0  0  0  0  0  0  0  0  0  0
   -4.8390   25.8665  -31.0289 H   0  0  0  0  0  0  0  0  0  0  0  0
   -3.0470   22.1430  -32.6120 H   0  0  0  0  0  0  0  0  0  0  0  0
   -1.5492   20.3835  -33.8711 H   0  0  0  0  0  0  0  0  0  0  0  0
   -1.5612   18.0748  -34.8818 H   0  0  0  0  0  0  0  0  0  0  0  0
   -3.6590   16.7003  -34.7935 H   0  0  0  0  0  0  0  0  0  0  0  0
   -5.7232   17.6248  -33.6803 H   0  0  0  0  0  0  0  0  0  0  0  0
   -7.2000   17.7644  -32.1203 H   0  0  0  0  0  0  0  0  0  0  0  0
   -7.2319   18.6305  -30.5901 H   0  0  0  0  0  0  0  0  0  0  0  0
   -9.4849   17.9403  -32.3844 H   0  0  0  0  0  0  0  0  0  0  0  0
   -9.5841   18.6224  -30.7520 H   0  0  0  0  0  0  0  0  0  0  0  0
  -10.0605   20.0023  -33.2392 H   0  0  0  0  0  0  0  0  0  0  0  0
   -9.9836   20.7611  -31.6523 H   0  0  0  0  0  0  0  0  0  0  0  0
  1  2  2  0
  2  3  1  0
  3  4  1  0
  4  5  1  0
  5  6  2  0
  6  7  1  0
  7  8  2  0
  8  9  1  0
  9 10  2  0
  4 11  2  0
 11 12  1  0
 12 13  1  0
 13 14  2  0
 14 15  1  0
 15 16  2  0
 16 17  1  0
  2 18  1  0
 18 19  1  0
 19 20  1  0
 20  1  1  0
 17  3  2  0
 10  5  1  0
 17 12  1  0
  1 21  1  0
  6 22  1  0
  7 23  1  0
  8 24  1  0
  9 25  1  0
 11 26  1  0
 13 27  1  0
 14 28  1  0
 15 29  1  0
 16 30  1  0
 18 31  1  0
 18 32  1  0
 19 33  1  0
 19 34  1  0
 20 35  1  0
 20 36  1  0
M  CHG  1  11   1
M  END
>  <UniqueID>  (18) 
16

>  <SMILES>  (18) 
C1=C(c2c(-c3ccccn3)[nH+]n3ccccc23)CCC1

>  <Energy>  (18) 
88.143006032612

>  <Genealogy>  (18) 
C1=C(c2c(-c3ccccn3)[nH+]n3ccccc23)CCC1 (protonated)
C1=C(c2c(-c3ccccn3)[nH+]n3ccccc23)CCC1 (3D coordinates assigned)
C1=C(c2c(-c3ccccn3)[nH+]n3ccccc23)CCC1 (nonaromatic ring conformer: 88.143006032612 kcal/mol)

>  <smiles>  (18) 
C1=C(c2c(-c3ccccn3)nn3ccccc23)CCC1

>  <score_type>  (18) 
oracle

>  <origin>  (18) 
adg

>  <m_score__min__energy>  (18) 
-7.6600000000000001

>  <m_primary>  (18) 
energy

$$$$
18:0
     RDKit          3D

 46 49  0  0  0  0  0  0  0  0999 V2000
    1.3180   20.5990  -35.5150 C   0  0  0  0  0  0  0  0  0  0  0  0
    0.0920   20.3260  -34.7800 N   0  0  0  0  0  0  0  0  0  0  0  0
   -0.4330   19.1170  -34.6530 N   0  0  0  0  0  0  0  0  0  0  0  0
   -1.5820   19.2790  -33.9710 C   0  0  0  0  0  0  0  0  0  0  0  0
   -1.7270   20.6320  -33.7100 C   0  0  0  0  0  0  0  0  0  0  0  0
   -2.8340   21.3100  -32.9920 C   0  0  0  0  0  0  0  0  0  0  0  0
   -4.1620   21.0720  -33.3760 C   0  0  0  0  0  0  0  0  0  0  0  0
   -5.2250   21.6940  -32.7090 C   0  0  0  0  0  0  0  0  0  0  0  0
   -6.5900   21.4220  -33.0680 N   0  0  0  0  0  0  0  0  0  0  0  0
   -7.3550   20.3110  -32.5680 C   0  0  0  0  0  0  0  0  0  0  0  0
   -6.7550   19.0930  -32.2180 C   0  0  0  0  0  0  0  0  0  0  0  0
   -7.5200   18.0590  -31.7790 N   0  0  0  0  0  0  0  0  0  0  0  0
   -8.8690   18.1820  -31.6800 C   0  0  0  0  0  0  0  0  0  0  0  0
   -9.4740   19.3450  -32.0350 N   0  0  0  0  0  0  0  0  0  0  0  0
   -8.7480   20.4020  -32.4820 C   0  0  0  0  0  0  0  0  0  0  0  0
   -4.9560   22.5420  -31.6260 C   0  0  0  0  0  0  0  0  0  0  0  0
   -3.6320   22.8270  -31.2340 C   0  0  0  0  0  0  0  0  0  0  0  0
   -3.3380   23.7520  -30.0420 C   0  0  0  0  0  0  0  0  0  0  0  0
   -3.5170   25.1050  -30.4090 O   0  0  0  0  0  0  0  0  0  0  0  0
   -1.8900   23.5700  -29.5140 C   0  0  0  0  0  0  0  0  0  0  0  0
   -1.6400   24.4590  -28.2720 C   0  0  0  0  0  0  0  0  0  0  0  0
   -2.8340   24.9520  -27.6810 O   0  0  0  0  0  0  0  0  0  0  0  0
   -3.7720   23.9070  -27.5230 C   0  0  0  0  0  0  0  0  0  0  0  0
   -4.3260   23.4480  -28.8880 C   0  0  0  0  0  0  0  0  0  0  0  0
   -2.5800   22.1830  -31.9190 C   0  0  0  0  0  0  0  0  0  0  0  0
   -0.6640   21.2670  -34.2370 N   0  0  0  0  0  0  0  0  0  0  0  0
    2.1382   20.7816  -34.8051 H   0  0  0  0  0  0  0  0  0  0  0  0
    1.5665   19.7342  -36.1477 H   0  0  0  0  0  0  0  0  0  0  0  0
    1.1761   21.4875  -36.1477 H   0  0  0  0  0  0  0  0  0  0  0  0
   -2.2795   18.4817  -33.6746 H   0  0  0  0  0  0  0  0  0  0  0  0
   -4.3712   20.3881  -34.2117 H   0  0  0  0  0  0  0  0  0  0  0  0
   -7.0550   22.0680  -33.7460 H   0  0  0  0  0  0  0  0  0  0  0  0
   -5.6644   18.9743  -32.2988 H   0  0  0  0  0  0  0  0  0  0  0  0
   -9.4721   17.3389  -31.3120 H   0  0  0  0  0  0  0  0  0  0  0  0
   -9.2566   21.3317  -32.7770 H   0  0  0  0  0  0  0  0  0  0  0  0
   -5.7925   22.9931  -31.0721 H   0  0  0  0  0  0  0  0  0  0  0  0
   -3.0920   25.6720  -29.7120 H   0  0  0  0  0  0  0  0  0  0  0  0
   -1.7365   22.5160  -29.2394 H   0  0  0  0  0  0  0  0  0  0  0  0
   -1.1868   23.8666  -30.3062 H   0  0  0  0  0  0  0  0  0  0  0  0
   -1.0990   23.8646  -27.5210 H   0  0  0  0  0  0  0  0  0  0  0  0
   -1.0604   25.3312  -28.6086 H   0  0  0  0  0  0  0  0  0  0  0  0
   -3.2813   23.0552  -27.0294 H   0  0  0  0  0  0  0  0  0  0  0  0
   -4.6088   24.2774  -26.9126 H   0  0  0  0  0  0  0  0  0  0  0  0
   -4.5084   22.3638  -28.8518 H   0  0  0  0  0  0  0  0  0  0  0  0
   -5.2578   23.9996  -29.0816 H   0  0  0  0  0  0  0  0  0  0  0  0
   -1.5411   22.3673  -31.6078 H   0  0  0  0  0  0  0  0  0  0  0  0
  1  2  1  0
  2  3  1  0
  3  4  2  0
  4  5  1  0
  5  6  1  0
  6  7  2  0
  7  8  1  0
  8  9  1  0
  9 10  1  0
 10 11  2  0
 11 12  1  0
 12 13  2  0
 13 14  1  0
 14 15  2  0
  8 16  2  0
 16 17  1  0
 17 18  1  0
 18 19  1  0
 18 20  1  0
 20 21  1  0
 21 22  1  0
 22 23  1  0
 23 24  1  0
 17 25  2  0
  5 26  2  0
 26  2  1  0
 25  6  1  0
 15 10  1  0
 24 18  1  0
  1 27  1  0
  1 28  1  0
  1 29  1  0
  4 30  1  0
  7 31  1  0
  9 32  1  0
 11 33  1  0
 13 34  1  0
 15 35  1  0
 16 36  1  0
 19 37  1  0
 20 38  1  0
 20 39  1  0
 21 40  1  0
 21 41  1  0
 23 42  1  0
 23 43  1  0
 24 44  1  0
 24 45  1  0
 25 46  1  0
M  END
>  <UniqueID>  (19) 
17

>  <SMILES>  (19) 
Cn1ncc(-c2cc(Nc3cncnc3)cc(C3(O)CCOCC3)c2)n1

>  <Energy>  (19) 
102.47801973027113

>  <Genealogy>  (19) 
Cn1ncc(-c2cc(Nc3cncnc3)cc(C3(O)CCOCC3)c2)n1 (3D coordinates assigned)
Cn1ncc(-c2cc(Nc3cncnc3)cc(C3(O)CCOCC3)c2)n1 (nonaromatic ring conformer: 102.47801973027113 kcal/mol)

>  <smiles>  (19) 
Cn1ncc(-c2cc(Nc3cncnc3)cc(C3(O)CCOCC3)c2)n1

>  <score_type>  (19) 
oracle

>  <origin>  (19) 
adg

>  <m_score__min__energy>  (19) 
-8.6300000000000008

>  <m_primary>  (19) 
energy

$$$$
19:0
     RDKit          3D

 38 40  0  0  0  0  0  0  0  0999 V2000
   -2.9360   19.3050  -33.8240 C   0  0  0  0  0  0  0  0  0  0  0  0
   -2.8650   20.7280  -33.8550 O   0  0  0  0  0  0  0  0  0  0  0  0
   -3.1210   21.5610  -32.7550 C   0  0  0  0  0  0  0  0  0  0  0  0
   -2.1630   21.7830  -31.7500 C   0  0  0  0  0  0  0  0  0  0  0  0
   -2.4710   22.6180  -30.6790 C   0  0  0  0  0  0  0  0  0  0  0  0
   -3.7290   23.2220  -30.6120 C   0  0  0  0  0  0  0  0  0  0  0  0
   -4.6660   22.9920  -31.6260 C   0  0  0  0  0  0  0  0  0  0  0  0
   -4.3380   22.1720  -32.6700 N   0  0  0  0  0  0  0  0  0  0  0  0
   -5.9750   23.7650  -31.5340 C   0  0  1  0  0  0  0  0  0  0  0  0
   -7.0990   23.3120  -32.5070 C   0  0  0  0  0  0  0  0  0  0  0  0
   -7.5590   21.8860  -32.2850 C   0  0  0  0  0  0  0  0  0  0  0  0
   -8.6630   21.6150  -31.4540 C   0  0  0  0  0  0  0  0  0  0  0  0
   -9.1120   20.3030  -31.2790 C   0  0  0  0  0  0  0  0  0  0  0  0
   -8.4820   19.2510  -31.9490 C   0  0  0  0  0  0  0  0  0  0  0  0
   -7.4100   19.5120  -32.8050 C   0  0  0  0  0  0  0  0  0  0  0  0
   -6.9580   20.8230  -32.9840 C   0  0  0  0  0  0  0  0  0  0  0  0
   -6.5080   23.7370  -30.0700 C   0  0  0  0  0  0  0  0  0  0  0  0
   -5.4670   23.7510  -29.0140 N   0  0  0  0  0  0  0  0  0  0  0  0
   -4.1240   24.1190  -29.4770 C   0  0  0  0  0  0  0  0  0  0  0  0
   -2.9531   18.9614  -32.7792 H   0  0  0  0  0  0  0  0  0  0  0  0
   -3.8519   18.9724  -34.3344 H   0  0  0  0  0  0  0  0  0  0  0  0
   -2.0578   18.8829  -34.3344 H   0  0  0  0  0  0  0  0  0  0  0  0
   -1.1764   21.3001  -31.8094 H   0  0  0  0  0  0  0  0  0  0  0  0
   -1.7273   22.8012  -29.8895 H   0  0  0  0  0  0  0  0  0  0  0  0
   -5.0160   21.9850  -33.4350 H   0  0  0  0  0  0  0  0  0  0  0  0
   -5.7177   24.7866  -31.8504 H   0  0  0  0  0  0  0  0  0  0  0  0
   -7.9628   23.9800  -32.3747 H   0  0  0  0  0  0  0  0  0  0  0  0
   -6.6825   23.3606  -33.5239 H   0  0  0  0  0  0  0  0  0  0  0  0
   -9.1753   22.4412  -30.9393 H   0  0  0  0  0  0  0  0  0  0  0  0
   -9.9629   20.0982  -30.6126 H   0  0  0  0  0  0  0  0  0  0  0  0
   -8.8302   18.2180  -31.8023 H   0  0  0  0  0  0  0  0  0  0  0  0
   -6.9202   18.6847  -33.3395 H   0  0  0  0  0  0  0  0  0  0  0  0
   -6.1270   21.0247  -33.6759 H   0  0  0  0  0  0  0  0  0  0  0  0
   -7.1499   24.6186  -29.9256 H   0  0  0  0  0  0  0  0  0  0  0  0
   -7.0395   22.7804  -29.9591 H   0  0  0  0  0  0  0  0  0  0  0  0
   -5.7500   24.4260  -28.2660 H   0  0  0  0  0  0  0  0  0  0  0  0
   -4.1266   25.1646  -29.8185 H   0  0  0  0  0  0  0  0  0  0  0  0
   -3.4057   24.0074  -28.6514 H   0  0  0  0  0  0  0  0  0  0  0  0
  1  2  1  0
  2  3  1  0
  3  4  2  0
  4  5  1  0
  5  6  2  0
  6  7  1  0
  7  8  2  0
  7  9  1  0
  9 10  1  0
 10 11  1  0
 11 12  2  0
 12 13  1  0
 13 14  2  0
 14 15  1  0
 15 16  2  0
  9 17  1  0
 17 18  1  0
 18 19  1  0
  8  3  1  0
 16 11  1  0
 19  6  1  0
  1 20  1  0
  1 21  1  0
  1 22  1  0
  4 23  1  0
  5 24  1  0
  8 25  1  0
  9 26  1  6
 10 27  1  0
 10 28  1  0
 12 29  1  0
 13 30  1  0
 14 31  1  0
 15 32  1  0
 16 33  1  0
 17 34  1  0
 17 35  1  0
 18 36  1  0
 19 37  1  0
 19 38  1  0
M  CHG  1   8   1
M  END
>  <UniqueID>  (20) 
18

>  <SMILES>  (20) 
COc1ccc2c([nH+]1)[C@@H](Cc1ccccc1)CNC2

>  <Energy>  (20) 
51.84078180680024

>  <Genealogy>  (20) 
COc1ccc2c([nH+]1)C(Cc1ccccc1)CNC2 (protonated)
COc1ccc2c([nH+]1)[C@@H](Cc1ccccc1)CNC2 (chirality)
COc1ccc2c([nH+]1)[C@@H](Cc1ccccc1)CNC2 (3D coordinates assigned)
COc1ccc2c([nH+]1)[C@@H](Cc1ccccc1)CNC2 (nonaromatic ring conformer: 51.84078180680024 kcal/mol)

>  <smiles>  (20) 
COc1ccc2c(n1)C(Cc1ccccc1)CNC2

>  <score_type>  (20) 
oracle

>  <origin>  (20) 
adg

>  <m_score__min__energy>  (20) 
-6.6299999999999999

>  <m_primary>  (20) 
energy

$$$$
20:0
     RDKit          3D

 28 29  0  0  0  0  0  0  0  0999 V2000
   -9.4550   19.2020  -32.6680 C   0  0  0  0  0  0  0  0  0  0  0  0
   -8.4590   20.2670  -32.3000 C   0  0  0  0  0  0  0  0  0  0  0  0
   -8.8900   21.4330  -31.6480 C   0  0  0  0  0  0  0  0  0  0  0  0
   -7.9750   22.4310  -31.3020 C   0  0  0  0  0  0  0  0  0  0  0  0
   -6.6130   22.2800  -31.5970 C   0  0  0  0  0  0  0  0  0  0  0  0
   -5.6770   23.3160  -31.2410 N   0  0  0  0  0  0  0  0  0  0  0  0
   -6.1010   24.7190  -31.2110 C   0  0  0  0  0  0  0  0  0  0  0  0
   -5.2420   25.4950  -30.2070 C   0  0  0  0  0  0  0  0  0  0  0  0
   -3.8650   25.3040  -30.4710 O   0  0  0  0  0  0  0  0  0  0  0  0
   -3.5200   23.9470  -30.2620 C   0  0  0  0  0  0  0  0  0  0  0  0
   -4.2360   23.0440  -31.2710 C   0  0  0  0  0  0  0  0  0  0  0  0
   -6.1800   21.1160  -32.2550 C   0  0  0  0  0  0  0  0  0  0  0  0
   -7.0920   20.1140  -32.6040 C   0  0  0  0  0  0  0  0  0  0  0  0
   -6.4870   18.6760  -33.4210 Cl  0  0  0  0  0  0  0  0  0  0  0  0
   -9.8712   18.7570  -31.7522 H   0  0  0  0  0  0  0  0  0  0  0  0
  -10.2671   19.6485  -33.2605 H   0  0  0  0  0  0  0  0  0  0  0  0
   -8.9552   18.4215  -33.2605 H   0  0  0  0  0  0  0  0  0  0  0  0
   -9.9556   21.5621  -31.4077 H   0  0  0  0  0  0  0  0  0  0  0  0
   -8.3261   23.3416  -30.7945 H   0  0  0  0  0  0  0  0  0  0  0  0
   -5.9813   25.1590  -32.2120 H   0  0  0  0  0  0  0  0  0  0  0  0
   -7.1569   24.7748  -30.9078 H   0  0  0  0  0  0  0  0  0  0  0  0
   -5.4785   26.5666  -30.2825 H   0  0  0  0  0  0  0  0  0  0  0  0
   -5.4617   25.1249  -29.1947 H   0  0  0  0  0  0  0  0  0  0  0  0
   -2.4327   23.8287  -30.3797 H   0  0  0  0  0  0  0  0  0  0  0  0
   -3.8282   23.6564  -29.2468 H   0  0  0  0  0  0  0  0  0  0  0  0
   -3.8471   23.2431  -32.2805 H   0  0  0  0  0  0  0  0  0  0  0  0
   -4.0581   21.9908  -31.0082 H   0  0  0  0  0  0  0  0  0  0  0  0
   -5.1144   20.9916  -32.4978 H   0  0  0  0  0  0  0  0  0  0  0  0
  1  2  1  0
  2  3  2  0
  3  4  1  0
  4  5  2  0
  5  6  1  0
  6  7  1  0
  7  8  1  0
  8  9  1  0
  9 10  1  0
 10 11  1  0
  5 12  1  0
 12 13  2  0
 13 14  1  0
 13  2  1  0
 11  6  1  0
  1 15  1  0
  1 16  1  0
  1 17  1  0
  3 18  1  0
  4 19  1  0
  7 20  1  0
  7 21  1  0
  8 22  1  0
  8 23  1  0
 10 24  1  0
 10 25  1  0
 11 26  1  0
 11 27  1  0
 12 28  1  0
M  END
>  <UniqueID>  (21) 
19

>  <SMILES>  (21) 
Cc1ccc(N2CCOCC2)cc1Cl

>  <Energy>  (21) 
32.85149045182371

>  <Genealogy>  (21) 
Cc1ccc(N2CCOCC2)cc1Cl (3D coordinates assigned)
Cc1ccc(N2CCOCC2)cc1Cl (nonaromatic ring conformer: 32.85149045182371 kcal/mol)

>  <smiles>  (21) 
Cc1ccc(N2CCOCC2)cc1Cl

>  <score_type>  (21) 
oracle

>  <origin>  (21) 
adg

>  <m_score__min__energy>  (21) 
-7.3799999999999999

>  <m_primary>  (21) 
energy

$$$$
21:0
     RDKit          3D

 54 57  0  0  0  0  0  0  0  0999 V2000
   -1.5780   25.4210  -27.9120 C   0  0  0  0  0  0  0  0  0  0  0  0
   -2.1830   25.3080  -29.1960 O   0  0  0  0  0  0  0  0  0  0  0  0
   -2.7490   24.1370  -29.7240 C   0  0  0  0  0  0  0  0  0  0  0  0
   -4.1010   24.1060  -30.1220 C   0  0  0  0  0  0  0  0  0  0  0  0
   -4.6770   22.9430  -30.6550 C   0  0  0  0  0  0  0  0  0  0  0  0
   -6.1000   22.9190  -31.0820 C   0  0  0  0  0  0  0  0  0  0  0  0
   -6.6680   23.6260  -32.1440 C   0  0  0  0  0  0  0  0  0  0  0  0
   -8.0400   23.3970  -32.2990 C   0  0  0  0  0  0  0  0  0  0  0  0
   -8.5710   22.5150  -31.3690 C   0  0  0  0  0  0  0  0  0  0  0  0
   -7.3290   22.0240  -30.3520 S   0  0  0  0  0  0  0  0  0  0  0  0
   -3.8830   21.7970  -30.7900 C   0  0  0  0  0  0  0  0  0  0  0  0
   -2.5380   21.8000  -30.3970 C   0  0  0  0  0  0  0  0  0  0  0  0
   -1.7130   20.5470  -30.5690 C   0  0  0  0  0  0  0  0  0  0  0  0
   -1.0660   20.5320  -31.9000 N   0  0  0  0  0  0  0  0  0  0  0  0
   -0.9480   19.1590  -32.4400 C   0  0  0  0  0  0  0  0  0  0  0  0
   -2.3290   18.5440  -32.7260 C   0  0  0  0  0  0  0  0  0  0  0  0
   -3.2570   19.5690  -33.2160 N   0  0  0  0  0  0  0  0  0  0  0  0
   -4.6770   19.4180  -33.0180 C   0  0  0  0  0  0  0  0  0  0  0  0
   -5.1830   18.2990  -32.3360 C   0  0  0  0  0  0  0  0  0  0  0  0
   -6.5580   18.1610  -32.1250 C   0  0  0  0  0  0  0  0  0  0  0  0
   -7.4400   19.1450  -32.5850 C   0  0  0  0  0  0  0  0  0  0  0  0
   -9.1640   18.9740  -32.3140 Cl  0  0  0  0  0  0  0  0  0  0  0  0
   -6.9440   20.2690  -33.2530 C   0  0  0  0  0  0  0  0  0  0  0  0
   -5.5700   20.4070  -33.4690 C   0  0  0  0  0  0  0  0  0  0  0  0
   -2.6950   20.7760  -33.8300 C   0  0  0  0  0  0  0  0  0  0  0  0
   -1.7160   21.4640  -32.8600 C   0  0  0  0  0  0  0  0  0  0  0  0
   -1.9570   22.9680  -29.8640 C   0  0  0  0  0  0  0  0  0  0  0  0
   -0.5980   22.9010  -29.4950 O   0  0  0  0  0  0  0  0  0  0  0  0
   -0.0700   22.3820  -28.2800 C   0  0  0  0  0  0  0  0  0  0  0  0
   -2.3415   25.2784  -27.1331 H   0  0  0  0  0  0  0  0  0  0  0  0
   -0.7977   24.6531  -27.8055 H   0  0  0  0  0  0  0  0  0  0  0  0
   -1.1275   26.4188  -27.8055 H   0  0  0  0  0  0  0  0  0  0  0  0
   -4.7163   25.0112  -30.0125 H   0  0  0  0  0  0  0  0  0  0  0  0
   -6.0920   24.2987  -32.7965 H   0  0  0  0  0  0  0  0  0  0  0  0
   -8.6425   23.8731  -33.0866 H   0  0  0  0  0  0  0  0  0  0  0  0
   -9.6213   22.1939  -31.3087 H   0  0  0  0  0  0  0  0  0  0  0  0
   -4.3221   20.8805  -31.2110 H   0  0  0  0  0  0  0  0  0  0  0  0
   -0.9379   20.5139  -29.7892 H   0  0  0  0  0  0  0  0  0  0  0  0
   -2.3734   19.6714  -30.4842 H   0  0  0  0  0  0  0  0  0  0  0  0
   -0.3707   19.1915  -33.3757 H   0  0  0  0  0  0  0  0  0  0  0  0
   -0.4418   18.5353  -31.6885 H   0  0  0  0  0  0  0  0  0  0  0  0
   -2.2241   17.7571  -33.4874 H   0  0  0  0  0  0  0  0  0  0  0  0
   -2.7289   18.1189  -31.7936 H   0  0  0  0  0  0  0  0  0  0  0  0
   -4.4930   17.5265  -31.9657 H   0  0  0  0  0  0  0  0  0  0  0  0
   -6.9469   17.2780  -31.5968 H   0  0  0  0  0  0  0  0  0  0  0  0
   -7.6365   21.0460  -33.6091 H   0  0  0  0  0  0  0  0  0  0  0  0
   -5.1850   21.2934  -33.9943 H   0  0  0  0  0  0  0  0  0  0  0  0
   -2.1595   20.4992  -34.7501 H   0  0  0  0  0  0  0  0  0  0  0  0
   -3.5138   21.4720  -34.0649 H   0  0  0  0  0  0  0  0  0  0  0  0
   -0.9300   21.9558  -33.4518 H   0  0  0  0  0  0  0  0  0  0  0  0
   -2.3042   22.1777  -32.2645 H   0  0  0  0  0  0  0  0  0  0  0  0
   -0.5655   22.8691  -27.4272 H   0  0  0  0  0  0  0  0  0  0  0  0
   -0.2477   21.2973  -28.2367 H   0  0  0  0  0  0  0  0  0  0  0  0
    1.0115   22.5784  -28.2367 H   0  0  0  0  0  0  0  0  0  0  0  0
  1  2  1  0
  2  3  1  0
  3  4  2  0
  4  5  1  0
  5  6  1  0
  6  7  2  0
  7  8  1  0
  8  9  2  0
  9 10  1  0
  5 11  2  0
 11 12  1  0
 12 13  1  0
 13 14  1  0
 14 15  1  0
 15 16  1  0
 16 17  1  0
 17 18  1  0
 18 19  2  0
 19 20  1  0
 20 21  2  0
 21 22  1  0
 21 23  1  0
 23 24  2  0
 17 25  1  0
 25 26  1  0
 12 27  2  0
 27 28  1  0
 28 29  1  0
 27  3  1  0
 10  6  1  0
 26 14  1  0
 24 18  1  0
  1 30  1  0
  1 31  1  0
  1 32  1  0
  4 33  1  0
  7 34  1  0
  8 35  1  0
  9 36  1  0
 11 37  1  0
 13 38  1  0
 13 39  1  0
 15 40  1  0
 15 41  1  0
 16 42  1  0
 16 43  1  0
 19 44  1  0
 20 45  1  0
 23 46  1  0
 24 47  1  0
 25 48  1  0
 25 49  1  0
 26 50  1  0
 26 51  1  0
 29 52  1  0
 29 53  1  0
 29 54  1  0
M  END
>  <UniqueID>  (22) 
20

>  <SMILES>  (22) 
COc1cc(-c2cccs2)cc(CN2CCN(c3ccc(Cl)cc3)CC2)c1OC

>  <Energy>  (22) 
98.95521460780037

>  <Genealogy>  (22) 
COc1cc(-c2cccs2)cc(CN2CCN(c3ccc(Cl)cc3)CC2)c1OC (3D coordinates assigned)
COc1cc(-c2cccs2)cc(CN2CCN(c3ccc(Cl)cc3)CC2)c1OC (nonaromatic ring conformer: 98.95521460780037 kcal/mol)

>  <smiles>  (22) 
COc1cc(-c2cccs2)cc(CN2CCN(c3ccc(Cl)cc3)CC2)c1OC

>  <score_type>  (22) 
oracle

>  <origin>  (22) 
adg

>  <m_score__min__energy>  (22) 
-9.0700000000000003

>  <m_primary>  (22) 
energy

$$$$
22:0
     RDKit          3D

 50 52  0  0  0  0  0  0  0  0999 V2000
   -7.4540   23.3460  -31.9790 C   0  0  0  0  0  0  0  0  0  0  0  0
   -6.9320   22.2520  -32.7280 O   0  0  0  0  0  0  0  0  0  0  0  0
   -7.3300   20.9130  -32.5800 C   0  0  0  0  0  0  0  0  0  0  0  0
   -8.6360   20.6070  -32.1530 C   0  0  0  0  0  0  0  0  0  0  0  0
   -9.1040   19.3000  -32.1790 C   0  0  0  0  0  0  0  0  0  0  0  0
   -8.3070   18.2890  -32.6990 C   0  0  0  0  0  0  0  0  0  0  0  0
   -6.9950   18.5630  -33.1280 C   0  0  0  0  0  0  0  0  0  0  0  0
   -6.2470   17.5860  -33.8090 O   0  0  0  0  0  0  0  0  0  0  0  0
   -6.5600   16.1970  -33.8510 C   0  0  0  0  0  0  0  0  0  0  0  0
   -6.4340   19.8540  -32.9170 C   0  0  0  0  0  0  0  0  0  0  0  0
   -4.9440   20.0880  -33.2620 C   0  0  2  0  0  0  0  0  0  0  0  0
   -4.0280   18.8510  -32.9730 C   0  0  0  0  0  0  0  0  0  0  0  0
   -2.5880   19.0730  -33.4380 C   0  0  0  0  0  0  0  0  0  0  0  0
   -1.7540   19.8480  -32.4150 C   0  0  0  0  0  0  0  0  0  0  0  0
   -1.7880   21.3620  -32.6610 C   0  0  0  0  0  0  0  0  0  0  0  0
   -3.1270   21.8660  -33.2390 C   0  0  0  0  0  0  0  0  0  0  0  0
   -4.3760   21.3190  -32.6440 N   0  0  0  0  0  0  0  0  0  0  0  0
   -4.3620   21.3560  -30.8770 S   0  0  0  0  0  0  0  0  0  0  0  0
   -5.7640   21.5390  -30.3610 O   0  0  0  0  0  0  0  0  0  0  0  0
   -3.8160   20.0680  -30.3250 O   0  0  0  0  0  0  0  0  0  0  0  0
   -3.3770   22.6940  -30.2720 C   0  0  0  0  0  0  0  0  0  0  0  0
   -2.0620   22.4990  -29.8350 C   0  0  0  0  0  0  0  0  0  0  0  0
   -1.3320   23.5520  -29.3830 N   0  0  0  0  0  0  0  0  0  0  0  0
   -1.8590   24.8040  -29.3420 C   0  0  0  0  0  0  0  0  0  0  0  0
   -1.1490   25.7960  -28.9120 N   0  0  0  0  0  0  0  0  0  0  0  0
   -3.1350   25.0150  -29.7520 N   0  0  0  0  0  0  0  0  0  0  0  0
   -3.9000   23.9910  -30.2100 C   0  0  0  0  0  0  0  0  0  0  0  0
   -7.3536   23.1355  -30.9040 H   0  0  0  0  0  0  0  0  0  0  0  0
   -6.8951   24.2603  -32.2274 H   0  0  0  0  0  0  0  0  0  0  0  0
   -8.5163   23.4868  -32.2274 H   0  0  0  0  0  0  0  0  0  0  0  0
   -9.2935   21.4127  -31.7945 H   0  0  0  0  0  0  0  0  0  0  0  0
  -10.1051   19.0658  -31.7880 H   0  0  0  0  0  0  0  0  0  0  0  0
   -8.7041   17.2661  -32.7762 H   0  0  0  0  0  0  0  0  0  0  0  0
   -6.6473   15.8096  -32.8252 H   0  0  0  0  0  0  0  0  0  0  0  0
   -7.5134   16.0518  -34.3801 H   0  0  0  0  0  0  0  0  0  0  0  0
   -5.7610   15.6569  -34.3801 H   0  0  0  0  0  0  0  0  0  0  0  0
   -4.9481   20.2402  -34.3514 H   0  0  0  0  0  0  0  0  0  0  0  0
   -4.0242   18.6591  -31.8899 H   0  0  0  0  0  0  0  0  0  0  0  0
   -4.4335   17.9945  -33.5316 H   0  0  0  0  0  0  0  0  0  0  0  0
   -2.1171   18.0934  -33.6074 H   0  0  0  0  0  0  0  0  0  0  0  0
   -2.6234   19.6701  -34.3612 H   0  0  0  0  0  0  0  0  0  0  0  0
   -2.1499   19.6443  -31.4091 H   0  0  0  0  0  0  0  0  0  0  0  0
   -0.7100   19.5154  -32.5116 H   0  0  0  0  0  0  0  0  0  0  0  0
   -1.6083   21.8736  -31.7039 H   0  0  0  0  0  0  0  0  0  0  0  0
   -1.0113   21.5841  -33.4076 H   0  0  0  0  0  0  0  0  0  0  0  0
   -3.1514   22.9584  -33.1121 H   0  0  0  0  0  0  0  0  0  0  0  0
   -3.1341   21.5159  -34.2818 H   0  0  0  0  0  0  0  0  0  0  0  0
   -1.6190   21.4924  -29.8574 H   0  0  0  0  0  0  0  0  0  0  0  0
   -0.7630   26.5150  -29.5630 H   0  0  0  0  0  0  0  0  0  0  0  0
   -4.9341   24.1812  -30.5334 H   0  0  0  0  0  0  0  0  0  0  0  0
  1  2  1  0
  2  3  1  0
  3  4  2  0
  4  5  1  0
  5  6  2  0
  6  7  1  0
  7  8  1  0
  8  9  1  0
  7 10  2  0
 10 11  1  0
 11 12  1  0
 12 13  1  0
 13 14  1  0
 14 15  1  0
 15 16  1  0
 16 17  1  0
 17 18  1  0
 18 19  2  0
 18 20  2  0
 18 21  1  0
 21 22  1  0
 22 23  2  0
 23 24  1  0
 24 25  2  3
 24 26  1  0
 26 27  1  0
 10  3  1  0
 17 11  1  0
 27 21  2  0
  1 28  1  0
  1 29  1  0
  1 30  1  0
  4 31  1  0
  5 32  1  0
  6 33  1  0
  9 34  1  0
  9 35  1  0
  9 36  1  0
 11 37  1  6
 12 38  1  0
 12 39  1  0
 13 40  1  0
 13 41  1  0
 14 42  1  0
 14 43  1  0
 15 44  1  0
 15 45  1  0
 16 46  1  0
 16 47  1  0
 22 48  1  0
 25 49  1  0
 27 50  1  0
M  CHG  1  26  -1
M  END
>  <UniqueID>  (23) 
21

>  <SMILES>  (23) 
COc1cccc(OC)c1[C@@H]1CCCCCN1S(=O)(=O)c1cnc(=N)[n-]c1

>  <Energy>  (23) 
78.18091022018558

>  <Genealogy>  (23) 
COc1cccc(OC)c1C1CCCCCN1S(=O)(=O)c1cnc(=N)[n-]c1 (protonated)
COc1cccc(OC)c1[C@@H]1CCCCCN1S(=O)(=O)c1cnc(=N)[n-]c1 (chirality)
COc1cccc(OC)c1[C@@H]1CCCCCN1S(=O)(=O)c1cnc(=N)[n-]c1 (3D coordinates assigned)
COc1cccc(OC)c1[C@@H]1CCCCCN1S(=O)(=O)c1cnc(=N)[n-]c1 (nonaromatic ring conformer: 78.18091022018558 kcal/mol)

>  <smiles>  (23) 
COc1cccc(OC)c1C1CCCCCN1S(=O)(=O)c1cnc(=N)[nH]c1

>  <score_type>  (23) 
oracle

>  <origin>  (23) 
adg

>  <m_score__min__energy>  (23) 
-6.1200000000000001

>  <m_primary>  (23) 
energy

$$$$
23:0
     RDKit          3D

 38 39  0  0  0  0  0  0  0  0999 V2000
   -3.6490   24.2800  -29.5380 C   0  0  0  0  0  0  0  0  0  0  0  0
   -3.8770   25.2910  -30.4930 O   0  0  0  0  0  0  0  0  0  0  0  0
   -5.2570   25.3520  -30.7880 C   0  0  0  0  0  0  0  0  0  0  0  0
   -5.9800   24.2280  -30.0400 C   0  0  0  0  0  0  0  0  0  0  0  0
   -6.3300   23.1260  -30.9660 N   0  0  0  0  0  0  0  0  0  0  0  0
   -7.8020   22.9500  -31.0810 C   0  0  0  0  0  0  0  0  0  0  0  0
   -8.0950   21.5870  -31.6220 C   0  0  0  0  0  0  0  0  0  0  0  0
   -9.3420   21.0970  -31.9600 C   0  0  0  0  0  0  0  0  0  0  0  0
   -9.1290   19.8030  -32.3900 C   0  0  0  0  0  0  0  0  0  0  0  0
   -7.7700   19.5900  -32.2750 C   0  0  0  0  0  0  0  0  0  0  0  0
   -7.0490   18.3360  -32.6370 C   0  0  0  0  0  0  0  0  0  0  0  0
   -7.1790   20.6680  -31.8200 O   0  0  0  0  0  0  0  0  0  0  0  0
   -5.6960   23.3330  -32.2850 C   0  0  0  0  0  0  0  0  0  0  0  0
   -4.5960   22.3420  -32.5060 C   0  0  0  0  0  0  0  0  0  0  0  0
   -4.7300   21.2130  -33.2310 N   0  0  0  0  0  0  0  0  0  0  0  0
   -3.5400   20.6330  -33.2350 N   0  0  0  0  0  0  0  0  0  0  0  0
   -2.7300   21.4300  -32.5100 C   0  0  0  0  0  0  0  0  0  0  0  0
   -1.2810   21.1690  -32.2810 C   0  0  0  0  0  0  0  0  0  0  0  0
   -3.3690   22.4840  -32.0640 O   0  0  0  0  0  0  0  0  0  0  0  0
   -3.7443   24.7025  -28.5269 H   0  0  0  0  0  0  0  0  0  0  0  0
   -4.3885   23.4766  -29.6709 H   0  0  0  0  0  0  0  0  0  0  0  0
   -2.6362   23.8718  -29.6709 H   0  0  0  0  0  0  0  0  0  0  0  0
   -5.6592   26.3248  -30.4689 H   0  0  0  0  0  0  0  0  0  0  0  0
   -5.4098   25.2343  -31.8710 H   0  0  0  0  0  0  0  0  0  0  0  0
   -5.3227   23.8397  -29.2481 H   0  0  0  0  0  0  0  0  0  0  0  0
   -6.9054   24.6311  -29.6029 H   0  0  0  0  0  0  0  0  0  0  0  0
   -8.2639   23.0587  -30.0886 H   0  0  0  0  0  0  0  0  0  0  0  0
   -8.2128   23.7123  -31.7593 H   0  0  0  0  0  0  0  0  0  0  0  0
  -10.3037   21.6275  -31.8991 H   0  0  0  0  0  0  0  0  0  0  0  0
   -9.8851   19.0896  -32.7496 H   0  0  0  0  0  0  0  0  0  0  0  0
   -6.7462   17.8094  -31.7200 H   0  0  0  0  0  0  0  0  0  0  0  0
   -7.7131   17.6891  -33.2291 H   0  0  0  0  0  0  0  0  0  0  0  0
   -6.1558   18.5844  -33.2291 H   0  0  0  0  0  0  0  0  0  0  0  0
   -6.4542   23.2122  -33.0728 H   0  0  0  0  0  0  0  0  0  0  0  0
   -5.2698   24.3466  -32.3168 H   0  0  0  0  0  0  0  0  0  0  0  0
   -1.0813   21.1330  -31.1999 H   0  0  0  0  0  0  0  0  0  0  0  0
   -1.0052   20.2067  -32.7370 H   0  0  0  0  0  0  0  0  0  0  0  0
   -0.6868   21.9746  -32.7370 H   0  0  0  0  0  0  0  0  0  0  0  0
  1  2  1  0
  2  3  1  0
  3  4  1  0
  4  5  1  0
  5  6  1  0
  6  7  1  0
  7  8  2  0
  8  9  1  0
  9 10  2  0
 10 11  1  0
 10 12  1  0
  5 13  1  0
 13 14  1  0
 14 15  2  0
 15 16  1  0
 16 17  2  0
 17 18  1  0
 17 19  1  0
 12  7  1  0
 19 14  1  0
  1 20  1  0
  1 21  1  0
  1 22  1  0
  3 23  1  0
  3 24  1  0
  4 25  1  0
  4 26  1  0
  6 27  1  0
  6 28  1  0
  8 29  1  0
  9 30  1  0
 11 31  1  0
 11 32  1  0
 11 33  1  0
 13 34  1  0
 13 35  1  0
 18 36  1  0
 18 37  1  0
 18 38  1  0
M  END
>  <UniqueID>  (24) 
22

>  <SMILES>  (24) 
COCCN(Cc1ccc(C)o1)Cc1nnc(C)o1

>  <Energy>  (24) 
94.46659924593287

>  <Genealogy>  (24) 
COCCN(Cc1ccc(C)o1)Cc1nnc(C)o1 (3D coordinates assigned)
COCCN(Cc1ccc(C)o1)Cc1nnc(C)o1 (optimized conformer: 94.46659924593287 kcal/mol)

>  <smiles>  (24) 
COCCN(Cc1ccc(C)o1)Cc1nnc(C)o1

>  <score_type>  (24) 
oracle

>  <origin>  (24) 
adg

>  <m_score__min__energy>  (24) 
-6.4500000000000002

>  <m_primary>  (24) 
energy

$$$$
24:0
     RDKit          3D

 44 46  0  0  0  0  0  0  0  0999 V2000
   -6.8580   17.5200  -33.0120 C   0  0  0  0  0  0  0  0  0  0  0  0
   -7.9590   18.3090  -32.5720 O   0  0  0  0  0  0  0  0  0  0  0  0
   -7.8650   19.6520  -32.1790 C   0  0  0  0  0  0  0  0  0  0  0  0
   -6.7980   20.4150  -32.6680 C   0  0  0  0  0  0  0  0  0  0  0  0
   -6.6600   21.7580  -32.3060 C   0  0  0  0  0  0  0  0  0  0  0  0
   -7.5980   22.3610  -31.4560 C   0  0  0  0  0  0  0  0  0  0  0  0
   -7.4280   23.7950  -31.0320 C   0  0  0  0  0  0  0  0  0  0  0  0
   -6.4540   23.9000  -29.9450 N   0  0  0  0  0  0  0  0  0  0  0  0
   -5.0670   24.1610  -30.2110 C   0  0  0  0  0  0  0  0  0  0  0  0
   -4.6500   24.1500  -31.4010 O   0  0  0  0  0  0  0  0  0  0  0  0
   -4.1110   24.4270  -29.1090 C   0  0  0  0  0  0  0  0  0  0  0  0
   -2.7320   24.5490  -29.3470 C   0  0  0  0  0  0  0  0  0  0  0  0
   -1.8540   24.7910  -28.2890 C   0  0  0  0  0  0  0  0  0  0  0  0
   -2.3540   24.9060  -26.9820 C   0  0  0  0  0  0  0  0  0  0  0  0
   -1.4810   25.1560  -25.8640 N   0  0  0  0  0  0  0  0  0  0  0  0
   -1.6240   26.3160  -24.9990 C   0  0  0  0  0  0  0  0  0  0  0  0
   -0.6260   26.1120  -23.8680 C   0  0  0  0  0  0  0  0  0  0  0  0
    0.3500   25.0450  -24.3570 C   0  0  0  0  0  0  0  0  0  0  0  0
   -0.3700   24.3030  -25.4760 C   0  0  0  0  0  0  0  0  0  0  0  0
   -3.6930   24.7710  -26.7730 N   0  0  0  0  0  0  0  0  0  0  0  0
   -4.5680   24.5340  -27.7850 C   0  0  0  0  0  0  0  0  0  0  0  0
   -8.6590   21.5960  -30.9490 C   0  0  0  0  0  0  0  0  0  0  0  0
   -8.7970   20.2520  -31.3120 C   0  0  0  0  0  0  0  0  0  0  0  0
   -6.3141   17.1302  -32.1389 H   0  0  0  0  0  0  0  0  0  0  0  0
   -7.2279   16.6801  -33.6185 H   0  0  0  0  0  0  0  0  0  0  0  0
   -6.1816   18.1402  -33.6185 H   0  0  0  0  0  0  0  0  0  0  0  0
   -6.0619   19.9537  -33.3429 H   0  0  0  0  0  0  0  0  0  0  0  0
   -5.8120   22.3443  -32.6896 H   0  0  0  0  0  0  0  0  0  0  0  0
   -7.0765   24.3863  -31.8904 H   0  0  0  0  0  0  0  0  0  0  0  0
   -8.3968   24.1766  -30.6774 H   0  0  0  0  0  0  0  0  0  0  0  0
   -6.7650   23.7250  -28.9620 H   0  0  0  0  0  0  0  0  0  0  0  0
   -2.3424   24.4535  -30.3712 H   0  0  0  0  0  0  0  0  0  0  0  0
   -0.7751   24.8912  -28.4785 H   0  0  0  0  0  0  0  0  0  0  0  0
   -1.3931   27.2380  -25.5526 H   0  0  0  0  0  0  0  0  0  0  0  0
   -2.6519   26.4158  -24.6203 H   0  0  0  0  0  0  0  0  0  0  0  0
   -0.0921   27.0499  -23.6553 H   0  0  0  0  0  0  0  0  0  0  0  0
   -1.1272   25.8046  -22.9383 H   0  0  0  0  0  0  0  0  0  0  0  0
    1.2696   25.5132  -24.7380 H   0  0  0  0  0  0  0  0  0  0  0  0
    0.6447   24.3641  -23.5449 H   0  0  0  0  0  0  0  0  0  0  0  0
    0.3071   24.1442  -26.3282 H   0  0  0  0  0  0  0  0  0  0  0  0
   -0.7154   23.3114  -25.1483 H   0  0  0  0  0  0  0  0  0  0  0  0
   -5.6405   24.4253  -27.5663 H   0  0  0  0  0  0  0  0  0  0  0  0
   -9.3859   22.0551  -30.2628 H   0  0  0  0  0  0  0  0  0  0  0  0
   -9.6375   19.6618  -30.9181 H   0  0  0  0  0  0  0  0  0  0  0  0
  1  2  1  0
  2  3  1  0
  3  4  2  0
  4  5  1  0
  5  6  2  0
  6  7  1  0
  7  8  1  0
  8  9  1  0
  9 10  2  0
  9 11  1  0
 11 12  2  0
 12 13  1  0
 13 14  2  0
 14 15  1  0
 15 16  1  0
 16 17  1  0
 17 18  1  0
 18 19  1  0
 14 20  1  0
 20 21  2  0
  6 22  1  0
 22 23  2  0
 23  3  1  0
 21 11  1  0
 19 15  1  0
  1 24  1  0
  1 25  1  0
  1 26  1  0
  4 27  1  0
  5 28  1  0
  7 29  1  0
  7 30  1  0
  8 31  1  0
 12 32  1  0
 13 33  1  0
 16 34  1  0
 16 35  1  0
 17 36  1  0
 17 37  1  0
 18 38  1  0
 18 39  1  0
 19 40  1  0
 19 41  1  0
 21 42  1  0
 22 43  1  0
 23 44  1  0
M  END
>  <UniqueID>  (25) 
23

>  <SMILES>  (25) 
COc1ccc(CNC(=O)c2ccc(N3CCCC3)nc2)cc1

>  <Energy>  (25) 
45.30004704773628

>  <Genealogy>  (25) 
COc1ccc(CNC(=O)c2ccc(N3CCCC3)nc2)cc1 (3D coordinates assigned)
COc1ccc(CNC(=O)c2ccc(N3CCCC3)nc2)cc1 (nonaromatic ring conformer: 45.30004704773628 kcal/mol)

>  <smiles>  (25) 
COc1ccc(CNC(=O)c2ccc(N3CCCC3)nc2)cc1

>  <score_type>  (25) 
oracle

>  <origin>  (25) 
adg

>  <m_score__min__energy>  (25) 
-7.5999999999999996

>  <m_primary>  (25) 
energy

$$$$
25:0
     RDKit          3D

 39 41  0  0  0  0  0  0  0  0999 V2000
   -6.5600   25.7110  -28.9790 C   0  0  0  0  0  0  0  0  0  0  0  0
   -5.3900   25.1830  -29.6920 N   0  0  0  0  0  0  0  0  0  0  0  0
   -5.3730   25.6540  -31.0830 C   0  0  0  0  0  0  0  0  0  0  0  0
   -5.3410   23.4310  -29.6200 S   0  0  0  0  0  0  0  0  0  0  0  0
   -6.7160   22.8600  -29.8340 O   0  0  0  0  0  0  0  0  0  0  0  0
   -4.9090   23.0310  -28.2350 O   0  0  0  0  0  0  0  0  0  0  0  0
   -4.1870   22.7180  -30.7770 C   0  0  0  0  0  0  0  0  0  0  0  0
   -4.6890   22.2820  -32.0150 C   0  0  0  0  0  0  0  0  0  0  0  0
   -3.8500   21.6870  -32.9590 C   0  0  0  0  0  0  0  0  0  0  0  0
   -2.4950   21.5190  -32.6800 C   0  0  0  0  0  0  0  0  0  0  0  0
   -1.9750   21.9460  -31.4590 C   0  0  0  0  0  0  0  0  0  0  0  0
   -2.8050   22.5490  -30.5000 C   0  0  0  0  0  0  0  0  0  0  0  0
   -2.1810   22.9820  -29.2320 C   0  0  0  0  0  0  0  0  0  0  0  0
   -2.1880   24.3350  -28.8640 C   0  0  0  0  0  0  0  0  0  0  0  0
   -2.7500   25.2850  -29.7130 O   0  0  0  0  0  0  0  0  0  0  0  0
   -1.6190   24.7200  -27.6420 C   0  0  0  0  0  0  0  0  0  0  0  0
   -1.5670   26.0640  -27.2330 C   0  0  0  0  0  0  0  0  0  0  0  0
   -0.9850   26.3990  -26.0060 C   0  0  0  0  0  0  0  0  0  0  0  0
   -0.4570   25.4030  -25.1810 C   0  0  0  0  0  0  0  0  0  0  0  0
   -0.5070   24.0630  -25.5780 C   0  0  0  0  0  0  0  0  0  0  0  0
   -1.0850   23.7140  -26.8030 C   0  0  0  0  0  0  0  0  0  0  0  0
   -1.1350   22.4380  -27.1700 O   0  0  0  0  0  0  0  0  0  0  0  0
   -1.6610   22.0410  -28.3240 C   0  0  0  0  0  0  0  0  0  0  0  0
   -1.6890   20.8100  -28.5960 O   0  0  0  0  0  0  0  0  0  0  0  0
   -6.3931   25.6357  -27.8943 H   0  0  0  0  0  0  0  0  0  0  0  0
   -6.7122   26.7651  -29.2543 H   0  0  0  0  0  0  0  0  0  0  0  0
   -7.4511   25.1278  -29.2543 H   0  0  0  0  0  0  0  0  0  0  0  0
   -4.5320   25.5460  -29.2140 H   0  0  0  0  0  0  0  0  0  0  0  0
   -5.3333   26.7532  -31.0975 H   0  0  0  0  0  0  0  0  0  0  0  0
   -4.4889   25.2484  -31.5967 H   0  0  0  0  0  0  0  0  0  0  0  0
   -6.2840   25.3132  -31.5967 H   0  0  0  0  0  0  0  0  0  0  0  0
   -5.7573   22.4112  -32.2433 H   0  0  0  0  0  0  0  0  0  0  0  0
   -4.2586   21.3507  -33.9233 H   0  0  0  0  0  0  0  0  0  0  0  0
   -1.8350   21.0490  -33.4240 H   0  0  0  0  0  0  0  0  0  0  0  0
   -0.9047   21.8093  -31.2448 H   0  0  0  0  0  0  0  0  0  0  0  0
   -1.9838   26.8518  -27.8776 H   0  0  0  0  0  0  0  0  0  0  0  0
   -0.9429   27.4516  -25.6892 H   0  0  0  0  0  0  0  0  0  0  0  0
   -0.0010   25.6733  -24.2172 H   0  0  0  0  0  0  0  0  0  0  0  0
   -0.0908   23.2815  -24.9253 H   0  0  0  0  0  0  0  0  0  0  0  0
  1  2  1  0
  2  3  1  0
  2  4  1  0
  4  5  2  0
  4  6  2  0
  4  7  1  0
  7  8  2  0
  8  9  1  0
  9 10  2  0
 10 11  1  0
 11 12  2  0
 12 13  1  0
 13 14  2  0
 14 15  1  0
 14 16  1  0
 16 17  2  0
 17 18  1  0
 18 19  2  0
 19 20  1  0
 20 21  2  0
 21 22  1  0
 22 23  1  0
 23 24  2  0
 12  7  1  0
 23 13  1  0
 21 16  1  0
  1 25  1  0
  1 26  1  0
  1 27  1  0
  2 28  1  0
  3 29  1  0
  3 30  1  0
  3 31  1  0
  8 32  1  0
  9 33  1  0
 10 34  1  0
 11 35  1  0
 17 36  1  0
 18 37  1  0
 19 38  1  0
 20 39  1  0
M  CHG  2   2   1  15  -1
M  END
>  <UniqueID>  (26) 
24

>  <SMILES>  (26) 
C[NH+](C)S(=O)(=O)c1ccccc1-c1c([O-])c2ccccc2oc1=O

>  <Energy>  (26) 
56.541139933813696

>  <Genealogy>  (26) 
C[NH+](C)S(=O)(=O)c1ccccc1-c1c([O-])c2ccccc2oc1=O (protonated)
C[NH+](C)S(=O)(=O)c1ccccc1-c1c([O-])c2ccccc2oc1=O (3D coordinates assigned)
C[NH+](C)S(=O)(=O)c1ccccc1-c1c([O-])c2ccccc2oc1=O (optimized conformer: 56.541139933813696 kcal/mol)

>  <smiles>  (26) 
CN(C)S(=O)(=O)c1ccccc1-c1c(O)c2ccccc2oc1=O

>  <score_type>  (26) 
oracle

>  <origin>  (26) 
adg

>  <m_score__min__energy>  (26) 
-8.7300000000000004

>  <m_primary>  (26) 
energy

$$$$
26:0
     RDKit          3D

 47 50  0  0  0  0  0  0  0  0999 V2000
   -9.4600   18.1890  -31.5750 C   0  0  0  0  0  0  0  0  0  0  0  0
   -8.0660   18.4680  -31.4980 O   0  0  0  0  0  0  0  0  0  0  0  0
   -7.1690   18.3450  -32.5720 C   0  0  0  0  0  0  0  0  0  0  0  0
   -6.7870   17.0910  -33.0900 C   0  0  0  0  0  0  0  0  0  0  0  0
   -5.8760   17.0130  -34.1470 C   0  0  0  0  0  0  0  0  0  0  0  0
   -5.3360   18.1780  -34.6960 C   0  0  0  0  0  0  0  0  0  0  0  0
   -5.7100   19.4260  -34.1930 C   0  0  0  0  0  0  0  0  0  0  0  0
   -6.6300   19.5160  -33.1390 C   0  0  0  0  0  0  0  0  0  0  0  0
   -7.0020   20.8030  -32.6300 N   0  0  0  0  0  0  0  0  0  0  0  0
   -8.3240   21.0040  -32.0300 C   0  0  0  0  0  0  0  0  0  0  0  0
   -8.2210   22.0540  -30.9220 C   0  0  0  0  0  0  0  0  0  0  0  0
   -7.7140   23.3550  -31.4340 N   0  0  0  0  0  0  0  0  0  0  0  0
   -7.2380   24.2300  -30.3320 C   0  0  0  0  0  0  0  0  0  0  0  0
   -5.7420   24.4060  -30.3020 C   0  0  0  0  0  0  0  0  0  0  0  0
   -5.0480   25.5440  -30.6570 C   0  0  0  0  0  0  0  0  0  0  0  0
   -3.7740   25.2980  -30.4800 O   0  0  0  0  0  0  0  0  0  0  0  0
   -3.6770   24.0630  -30.0370 C   0  0  0  0  0  0  0  0  0  0  0  0
   -2.4010   23.4180  -29.7110 C   0  0  0  0  0  0  0  0  0  0  0  0
   -1.4030   23.9450  -28.9010 C   0  0  0  0  0  0  0  0  0  0  0  0
   -0.2930   23.1010  -28.7780 C   0  0  0  0  0  0  0  0  0  0  0  0
   -0.4130   21.9130  -29.4890 C   0  0  0  0  0  0  0  0  0  0  0  0
   -1.9030   21.9140  -30.2720 S   0  0  0  0  0  0  0  0  0  0  0  0
   -4.8750   23.4540  -29.9110 N   0  0  0  0  0  0  0  0  0  0  0  0
   -6.7310   23.2500  -32.5530 C   0  0  0  0  0  0  0  0  0  0  0  0
   -6.0190   21.8890  -32.6190 C   0  0  0  0  0  0  0  0  0  0  0  0
   -9.8740   18.1061  -30.5593 H   0  0  0  0  0  0  0  0  0  0  0  0
   -9.9678   19.0033  -32.1126 H   0  0  0  0  0  0  0  0  0  0  0  0
   -9.6152   17.2420  -32.1126 H   0  0  0  0  0  0  0  0  0  0  0  0
   -7.2077   16.1698  -32.6605 H   0  0  0  0  0  0  0  0  0  0  0  0
   -5.5835   16.0312  -34.5476 H   0  0  0  0  0  0  0  0  0  0  0  0
   -4.6158   18.1126  -35.5249 H   0  0  0  0  0  0  0  0  0  0  0  0
   -5.2810   20.3419  -34.6255 H   0  0  0  0  0  0  0  0  0  0  0  0
   -9.0286   21.3504  -32.8004 H   0  0  0  0  0  0  0  0  0  0  0  0
   -8.6851   20.0551  -31.6066 H   0  0  0  0  0  0  0  0  0  0  0  0
   -9.2186   22.2085  -30.4851 H   0  0  0  0  0  0  0  0  0  0  0  0
   -7.5100   21.6846  -30.1684 H   0  0  0  0  0  0  0  0  0  0  0  0
   -8.5500   23.8490  -31.8310 H   0  0  0  0  0  0  0  0  0  0  0  0
   -7.7020   25.2204  -30.4498 H   0  0  0  0  0  0  0  0  0  0  0  0
   -7.5235   23.7425  -29.3881 H   0  0  0  0  0  0  0  0  0  0  0  0
   -5.4846   26.4854  -31.0218 H   0  0  0  0  0  0  0  0  0  0  0  0
   -1.4774   24.9250  -28.4069 H   0  0  0  0  0  0  0  0  0  0  0  0
    0.5914   23.3544  -28.1750 H   0  0  0  0  0  0  0  0  0  0  0  0
    0.3372   21.1097  -29.5326 H   0  0  0  0  0  0  0  0  0  0  0  0
   -7.2649   23.4099  -33.5014 H   0  0  0  0  0  0  0  0  0  0  0  0
   -5.9571   24.0114  -32.3760 H   0  0  0  0  0  0  0  0  0  0  0  0
   -5.4134   21.8400  -33.5360 H   0  0  0  0  0  0  0  0  0  0  0  0
   -5.3730   21.7790  -31.7355 H   0  0  0  0  0  0  0  0  0  0  0  0
  1  2  1  0
  2  3  1  0
  3  4  2  0
  4  5  1  0
  5  6  2  0
  6  7  1  0
  7  8  2  0
  8  9  1  0
  9 10  1  0
 10 11  1  0
 11 12  1  0
 12 13  1  0
 13 14  1  0
 14 15  2  0
 15 16  1  0
 16 17  1  0
 17 18  1  0
 18 19  2  0
 19 20  1  0
 20 21  2  0
 21 22  1  0
 17 23  2  0
 12 24  1  0
 24 25  1  0
  8  3  1  0
 25  9  1  0
 23 14  1  0
 22 18  1  0
  1 26  1  0
  1 27  1  0
  1 28  1  0
  4 29  1  0
  5 30  1  0
  6 31  1  0
  7 32  1  0
 10 33  1  0
 10 34  1  0
 11 35  1  0
 11 36  1  0
 12 37  1  0
 13 38  1  0
 13 39  1  0
 15 40  1  0
 19 41  1  0
 20 42  1  0
 21 43  1  0
 24 44  1  0
 24 45  1  0
 25 46  1  0
 25 47  1  0
M  CHG  1  12   1
M  END
>  <UniqueID>  (27) 
25

>  <SMILES>  (27) 
COc1ccccc1N1CC[NH+](Cc2coc(-c3cccs3)n2)CC1

>  <Energy>  (27) 
117.97701619193437

>  <Genealogy>  (27) 
COc1ccccc1N1CC[NH+](Cc2coc(-c3cccs3)n2)CC1 (protonated)
COc1ccccc1N1CC[NH+](Cc2coc(-c3cccs3)n2)CC1 (3D coordinates assigned)
COc1ccccc1N1CC[NH+](Cc2coc(-c3cccs3)n2)CC1 (nonaromatic ring conformer: 117.97701619193437 kcal/mol)

>  <smiles>  (27) 
COc1ccccc1N1CCN(Cc2coc(-c3cccs3)n2)CC1

>  <score_type>  (27) 
oracle

>  <origin>  (27) 
adg

>  <m_score__min__energy>  (27) 
-8.1099999999999994

>  <m_primary>  (27) 
energy

$$$$
27:0
     RDKit          3D

 28 30  0  0  0  0  0  0  0  0999 V2000
   -9.4020   21.5620  -31.0430 C   0  0  0  0  0  0  0  0  0  0  0  0
   -8.1310   22.0780  -31.5350 N   0  0  0  0  0  0  0  0  0  0  0  0
   -6.9470   21.4460  -31.4650 C   0  0  0  0  0  0  0  0  0  0  0  0
   -5.9830   22.2860  -31.9890 C   0  0  0  0  0  0  0  0  0  0  0  0
   -4.5380   22.0360  -32.1900 C   0  0  0  0  0  0  0  0  0  0  0  0
   -3.9940   21.4820  -33.3330 C   0  0  0  0  0  0  0  0  0  0  0  0
   -2.6370   21.4390  -33.0920 C   0  0  0  0  0  0  0  0  0  0  0  0
   -2.3780   21.9530  -31.8750 N   0  0  0  0  0  0  0  0  0  0  0  0
   -3.5280   22.3200  -31.3320 N   0  0  0  0  0  0  0  0  0  0  0  0
   -3.6010   22.9540  -30.0160 C   0  0  0  0  0  0  0  0  0  0  0  0
   -4.5540   24.1090  -30.0370 C   0  0  0  0  0  0  0  0  0  0  0  0
   -5.7250   24.1280  -29.3650 N   0  0  0  0  0  0  0  0  0  0  0  0
   -6.2220   25.3460  -29.6480 C   0  0  0  0  0  0  0  0  0  0  0  0
   -5.3420   26.0170  -30.4630 C   0  0  0  0  0  0  0  0  0  0  0  0
   -4.3200   25.2280  -30.6820 O   0  0  0  0  0  0  0  0  0  0  0  0
   -6.6740   23.4260  -32.3660 C   0  0  0  0  0  0  0  0  0  0  0  0
   -7.9790   23.2800  -32.0670 N   0  0  0  0  0  0  0  0  0  0  0  0
   -9.3974   21.5639  -29.9430 H   0  0  0  0  0  0  0  0  0  0  0  0
  -10.2218   22.1985  -31.4073 H   0  0  0  0  0  0  0  0  0  0  0  0
   -9.5462   20.5341  -31.4073 H   0  0  0  0  0  0  0  0  0  0  0  0
   -6.7754   20.4372  -31.0614 H   0  0  0  0  0  0  0  0  0  0  0  0
   -4.5262   21.1487  -34.2362 H   0  0  0  0  0  0  0  0  0  0  0  0
   -1.8816   21.0450  -33.7878 H   0  0  0  0  0  0  0  0  0  0  0  0
   -3.9456   22.2149  -29.2777 H   0  0  0  0  0  0  0  0  0  0  0  0
   -2.6013   23.3253  -29.7464 H   0  0  0  0  0  0  0  0  0  0  0  0
   -7.1815   25.7423  -29.2843 H   0  0  0  0  0  0  0  0  0  0  0  0
   -5.4727   27.0344  -30.8602 H   0  0  0  0  0  0  0  0  0  0  0  0
   -6.2259   24.3134  -32.8369 H   0  0  0  0  0  0  0  0  0  0  0  0
  1  2  1  0
  2  3  1  0
  3  4  2  0
  4  5  1  0
  5  6  2  0
  6  7  1  0
  7  8  2  0
  8  9  1  0
  9 10  1  0
 10 11  1  0
 11 12  2  0
 12 13  1  0
 13 14  2  0
 14 15  1  0
  4 16  1  0
 16 17  2  0
 17  2  1  0
  9  5  1  0
 15 11  1  0
  1 18  1  0
  1 19  1  0
  1 20  1  0
  3 21  1  0
  6 22  1  0
  7 23  1  0
 10 24  1  0
 10 25  1  0
 13 26  1  0
 14 27  1  0
 16 28  1  0
M  END
>  <UniqueID>  (28) 
26

>  <SMILES>  (28) 
Cn1cc(-c2ccnn2Cc2ncco2)cn1

>  <Energy>  (28) 
119.37730249261347

>  <Genealogy>  (28) 
Cn1cc(-c2ccnn2Cc2ncco2)cn1 (3D coordinates assigned)
Cn1cc(-c2ccnn2Cc2ncco2)cn1 (optimized conformer: 119.37730249261347 kcal/mol)

>  <smiles>  (28) 
Cn1cc(-c2ccnn2Cc2ncco2)cn1

>  <score_type>  (28) 
oracle

>  <origin>  (28) 
adg

>  <m_score__min__energy>  (28) 
-6.2000000000000002

>  <m_primary>  (28) 
energy

$$$$
28:0
     RDKit          3D

 44 46  0  0  0  0  0  0  0  0999 V2000
   -3.8380   23.2300  -28.9170 C   0  0  0  0  0  0  0  0  0  0  0  0
   -3.4820   24.2200  -30.0220 C   0  0  0  0  0  0  0  0  0  0  0  0
   -4.6710   24.5300  -30.8450 N   0  0  0  0  0  0  0  0  0  0  0  0
   -5.3160   25.8120  -30.4740 C   0  0  0  0  0  0  0  0  0  0  0  0
   -6.4660   25.6690  -29.4630 C   0  0  0  0  0  0  0  0  0  0  0  0
   -5.6290   23.4050  -30.9410 C   0  0  0  0  0  0  0  0  0  0  0  0
   -5.5650   22.7680  -32.3340 C   0  0  0  0  0  0  0  0  0  0  0  0
   -5.6700   21.3060  -32.2450 N   0  0  0  0  0  0  0  0  0  0  0  0
   -4.6870   20.3780  -32.4360 C   0  0  0  0  0  0  0  0  0  0  0  0
   -3.2580   20.6920  -32.6180 C   0  0  0  0  0  0  0  0  0  0  0  0
   -2.5090   21.2620  -31.5800 C   0  0  0  0  0  0  0  0  0  0  0  0
   -1.1520   21.5310  -31.7780 C   0  0  0  0  0  0  0  0  0  0  0  0
   -0.5640   21.2260  -32.9640 N   0  0  0  0  0  0  0  0  0  0  0  0
   -1.2620   20.6530  -33.9800 C   0  0  0  0  0  0  0  0  0  0  0  0
   -2.6200   20.3660  -33.8220 C   0  0  0  0  0  0  0  0  0  0  0  0
   -5.1560   19.1050  -32.5170 N   0  0  0  0  0  0  0  0  0  0  0  0
   -6.4820   19.2550  -32.3600 C   0  0  0  0  0  0  0  0  0  0  0  0
   -7.4560   18.2610  -32.4000 C   0  0  0  0  0  0  0  0  0  0  0  0
   -8.8000   18.6560  -32.2740 C   0  0  0  0  0  0  0  0  0  0  0  0
   -9.1340   20.0200  -32.1210 C   0  0  0  0  0  0  0  0  0  0  0  0
   -8.1260   21.0010  -32.0900 C   0  0  0  0  0  0  0  0  0  0  0  0
   -6.8000   20.5740  -32.2050 C   0  0  0  0  0  0  0  0  0  0  0  0
   -3.6694   23.6989  -27.9363 H   0  0  0  0  0  0  0  0  0  0  0  0
   -4.8958   22.9426  -29.0090 H   0  0  0  0  0  0  0  0  0  0  0  0
   -3.2055   22.3348  -29.0090 H   0  0  0  0  0  0  0  0  0  0  0  0
   -3.1043   25.1481  -29.5682 H   0  0  0  0  0  0  0  0  0  0  0  0
   -2.7117   23.7710  -30.6662 H   0  0  0  0  0  0  0  0  0  0  0  0
   -4.5506   26.4691  -30.0354 H   0  0  0  0  0  0  0  0  0  0  0  0
   -5.7539   26.2240  -31.3951 H   0  0  0  0  0  0  0  0  0  0  0  0
   -6.0636   25.7190  -28.4405 H   0  0  0  0  0  0  0  0  0  0  0  0
   -7.1893   26.4841  -29.6127 H   0  0  0  0  0  0  0  0  0  0  0  0
   -6.9676   24.7016  -29.6127 H   0  0  0  0  0  0  0  0  0  0  0  0
   -5.3765   22.6479  -30.1840 H   0  0  0  0  0  0  0  0  0  0  0  0
   -6.6464   23.7861  -30.7686 H   0  0  0  0  0  0  0  0  0  0  0  0
   -6.3952   23.1525  -32.9447 H   0  0  0  0  0  0  0  0  0  0  0  0
   -4.5995   23.0244  -32.7946 H   0  0  0  0  0  0  0  0  0  0  0  0
   -2.9855   21.4960  -30.6166 H   0  0  0  0  0  0  0  0  0  0  0  0
   -0.5596   21.9901  -30.9729 H   0  0  0  0  0  0  0  0  0  0  0  0
   -0.7569   20.4150  -34.9277 H   0  0  0  0  0  0  0  0  0  0  0  0
   -3.1840   19.8878  -34.6364 H   0  0  0  0  0  0  0  0  0  0  0  0
   -7.1837   17.2027  -32.5259 H   0  0  0  0  0  0  0  0  0  0  0  0
   -9.5965   17.8976  -32.2947 H   0  0  0  0  0  0  0  0  0  0  0  0
  -10.1888   20.3170  -32.0255 H   0  0  0  0  0  0  0  0  0  0  0  0
   -8.3729   22.0672  -31.9791 H   0  0  0  0  0  0  0  0  0  0  0  0
  1  2  1  0
  2  3  1  0
  3  4  1  0
  4  5  1  0
  3  6  1  0
  6  7  1  0
  7  8  1  0
  8  9  1  0
  9 10  1  0
 10 11  2  0
 11 12  1  0
 12 13  2  0
 13 14  1  0
 14 15  2  0
  9 16  2  0
 16 17  1  0
 17 18  2  0
 18 19  1  0
 19 20  2  0
 20 21  1  0
 21 22  2  0
 22  8  1  0
 15 10  1  0
 22 17  1  0
  1 23  1  0
  1 24  1  0
  1 25  1  0
  2 26  1  0
  2 27  1  0
  4 28  1  0
  4 29  1  0
  5 30  1  0
  5 31  1  0
  5 32  1  0
  6 33  1  0
  6 34  1  0
  7 35  1  0
  7 36  1  0
 11 37  1  0
 12 38  1  0
 14 39  1  0
 15 40  1  0
 18 41  1  0
 19 42  1  0
 20 43  1  0
 21 44  1  0
M  END
>  <UniqueID>  (29) 
27

>  <SMILES>  (29) 
CCN(CC)CCn1c(-c2ccncc2)nc2ccccc21

>  <Energy>  (29) 
86.26036585040409

>  <Genealogy>  (29) 
CCN(CC)CCn1c(-c2ccncc2)nc2ccccc21 (3D coordinates assigned)
CCN(CC)CCn1c(-c2ccncc2)nc2ccccc21 (optimized conformer: 86.26036585040409 kcal/mol)

>  <smiles>  (29) 
CCN(CC)CCn1c(-c2ccncc2)nc2ccccc21

>  <score_type>  (29) 
oracle

>  <origin>  (29) 
adg

>  <m_score__min__energy>  (29) 
-7.5599999999999996

>  <m_primary>  (29) 
energy

$$$$
29:0
     RDKit          3D

 56 58  0  0  0  0  0  0  0  0999 V2000
   -3.7600   25.2270  -26.2030 C   0  0  0  0  0  0  0  0  0  0  0  0
   -2.3790   25.3800  -26.5140 O   0  0  0  0  0  0  0  0  0  0  0  0
   -1.3920   25.7640  -25.5930 C   0  0  0  0  0  0  0  0  0  0  0  0
   -1.5140   26.9340  -24.8170 C   0  0  0  0  0  0  0  0  0  0  0  0
   -0.5270   27.2740  -23.8890 C   0  0  0  0  0  0  0  0  0  0  0  0
    0.5900   26.4540  -23.7240 C   0  0  0  0  0  0  0  0  0  0  0  0
    0.7250   25.2950  -24.4880 C   0  0  0  0  0  0  0  0  0  0  0  0
   -0.2570   24.9440  -25.4280 C   0  0  0  0  0  0  0  0  0  0  0  0
   -0.0880   23.7550  -26.2190 N   0  0  0  0  0  0  0  0  0  0  0  0
   -0.5940   22.4680  -25.7250 C   0  0  0  0  0  0  0  0  0  0  0  0
   -0.7300   21.4640  -26.8740 C   0  0  0  0  0  0  0  0  0  0  0  0
   -1.3180   22.1490  -28.0390 N   0  0  0  0  0  0  0  0  0  0  0  0
   -1.8560   21.2290  -29.0650 C   0  0  0  0  0  0  0  0  0  0  0  0
   -3.3670   21.3950  -29.3300 C   0  0  0  0  0  0  0  0  0  0  0  0
   -3.9910   22.3750  -28.3330 C   0  0  0  0  0  0  0  0  0  0  0  0
   -3.7870   23.7540  -28.7840 N   0  0  0  0  0  0  0  0  0  0  0  0
   -4.0620   23.9030  -30.4960 S   0  0  0  0  0  0  0  0  0  0  0  0
   -2.8600   23.4050  -31.2510 O   0  0  0  0  0  0  0  0  0  0  0  0
   -4.2780   25.3500  -30.8370 O   0  0  0  0  0  0  0  0  0  0  0  0
   -5.4970   22.9880  -30.9520 C   0  0  0  0  0  0  0  0  0  0  0  0
   -6.7690   23.4030  -30.5430 C   0  0  0  0  0  0  0  0  0  0  0  0
   -7.8990   22.6780  -30.9220 C   0  0  0  0  0  0  0  0  0  0  0  0
   -7.7730   21.5320  -31.7150 C   0  0  0  0  0  0  0  0  0  0  0  0
   -9.2420   20.6670  -32.1580 Cl  0  0  0  0  0  0  0  0  0  0  0  0
   -6.4950   21.1000  -32.1380 C   0  0  0  0  0  0  0  0  0  0  0  0
   -6.3420   19.8630  -32.9970 C   0  0  0  0  0  0  0  0  0  0  0  0
   -4.9990   19.6040  -33.2050 F   0  0  0  0  0  0  0  0  0  0  0  0
   -6.9110   18.7500  -32.4040 F   0  0  0  0  0  0  0  0  0  0  0  0
   -6.9600   20.0670  -34.2180 F   0  0  0  0  0  0  0  0  0  0  0  0
   -5.3640   21.8430  -31.7460 C   0  0  0  0  0  0  0  0  0  0  0  0
   -0.4520   23.2120  -28.6060 C   0  0  0  0  0  0  0  0  0  0  0  0
    0.4940   23.8380  -27.5630 C   0  0  0  0  0  0  0  0  0  0  0  0
   -3.8905   25.2125  -25.1109 H   0  0  0  0  0  0  0  0  0  0  0  0
   -4.3271   26.0678  -26.6289 H   0  0  0  0  0  0  0  0  0  0  0  0
   -4.1293   24.2824  -26.6289 H   0  0  0  0  0  0  0  0  0  0  0  0
   -2.3925   27.5839  -24.9430 H   0  0  0  0  0  0  0  0  0  0  0  0
   -0.6303   28.1892  -23.2875 H   0  0  0  0  0  0  0  0  0  0  0  0
    1.3648   26.7220  -22.9906 H   0  0  0  0  0  0  0  0  0  0  0  0
    1.6069   24.6515  -24.3532 H   0  0  0  0  0  0  0  0  0  0  0  0
    0.1058   22.0679  -24.9765 H   0  0  0  0  0  0  0  0  0  0  0  0
   -1.5847   22.6265  -25.2740 H   0  0  0  0  0  0  0  0  0  0  0  0
    0.2621   21.0698  -27.1393 H   0  0  0  0  0  0  0  0  0  0  0  0
   -1.3777   20.6301  -26.5657 H   0  0  0  0  0  0  0  0  0  0  0  0
   -1.3181   21.4099  -30.0073 H   0  0  0  0  0  0  0  0  0  0  0  0
   -1.7114   20.2078  -28.6825 H   0  0  0  0  0  0  0  0  0  0  0  0
   -3.5139   21.7772  -30.3510 H   0  0  0  0  0  0  0  0  0  0  0  0
   -3.8544   20.4159  -29.2130 H   0  0  0  0  0  0  0  0  0  0  0  0
   -5.0696   22.1746  -28.2532 H   0  0  0  0  0  0  0  0  0  0  0  0
   -3.5110   22.2434  -27.3520 H   0  0  0  0  0  0  0  0  0  0  0  0
   -6.8784   24.3035  -29.9208 H   0  0  0  0  0  0  0  0  0  0  0  0
   -8.8957   23.0094  -30.5953 H   0  0  0  0  0  0  0  0  0  0  0  0
   -4.3634   21.5190  -32.0681 H   0  0  0  0  0  0  0  0  0  0  0  0
    0.1552   22.7761  -29.4130 H   0  0  0  0  0  0  0  0  0  0  0  0
   -1.1112   24.0119  -28.9743 H   0  0  0  0  0  0  0  0  0  0  0  0
    1.4526   23.2986  -27.5753 H   0  0  0  0  0  0  0  0  0  0  0  0
    0.6486   24.8971  -27.8166 H   0  0  0  0  0  0  0  0  0  0  0  0
  1  2  1  0
  2  3  1  0
  3  4  2  0
  4  5  1  0
  5  6  2  0
  6  7  1  0
  7  8  2  0
  8  9  1  0
  9 10  1  0
 10 11  1  0
 11 12  1  0
 12 13  1  0
 13 14  1  0
 14 15  1  0
 15 16  1  0
 16 17  1  0
 17 18  2  0
 17 19  2  0
 17 20  1  0
 20 21  2  0
 21 22  1  0
 22 23  2  0
 23 24  1  0
 23 25  1  0
 25 26  1  0
 26 27  1  0
 26 28  1  0
 26 29  1  0
 25 30  2  0
 12 31  1  0
 31 32  1  0
  8  3  1  0
 32  9  1  0
 30 20  1  0
  1 33  1  0
  1 34  1  0
  1 35  1  0
  4 36  1  0
  5 37  1  0
  6 38  1  0
  7 39  1  0
 10 40  1  0
 10 41  1  0
 11 42  1  0
 11 43  1  0
 13 44  1  0
 13 45  1  0
 14 46  1  0
 14 47  1  0
 15 48  1  0
 15 49  1  0
 21 50  1  0
 22 51  1  0
 30 52  1  0
 31 53  1  0
 31 54  1  0
 32 55  1  0
 32 56  1  0
M  CHG  1  16  -1
M  END
>  <UniqueID>  (30) 
28

>  <SMILES>  (30) 
COc1ccccc1N1CCN(CCC[N-]S(=O)(=O)c2ccc(Cl)c(C(F)(F)F)c2)CC1

>  <Energy>  (30) 
69.06921262931787

>  <Genealogy>  (30) 
COc1ccccc1N1CCN(CCC[N-]S(=O)(=O)c2ccc(Cl)c(C(F)(F)F)c2)CC1 (protonated)
COc1ccccc1N1CCN(CCC[N-]S(=O)(=O)c2ccc(Cl)c(C(F)(F)F)c2)CC1 (3D coordinates assigned)
COc1ccccc1N1CCN(CCC[N-]S(=O)(=O)c2ccc(Cl)c(C(F)(F)F)c2)CC1 (nonaromatic ring conformer: 69.06921262931787 kcal/mol)

>  <smiles>  (30) 
COc1ccccc1N1CCN(CCCNS(=O)(=O)c2ccc(Cl)c(C(F)(F)F)c2)CC1

>  <score_type>  (30) 
oracle

>  <origin>  (30) 
adg

>  <m_score__min__energy>  (30) 
-10.19

>  <m_primary>  (30) 
energy

$$$$
30:0
     RDKit          3D

 38 39  0  0  0  0  0  0  0  0999 V2000
   -2.7020   20.6410  -27.5250 C   0  0  0  0  0  0  0  0  0  0  0  0
   -1.5570   21.3810  -28.2180 C   0  0  0  0  0  0  0  0  0  0  0  0
   -1.5100   22.8680  -27.8410 C   0  0  0  0  0  0  0  0  0  0  0  0
   -2.6020   23.8690  -28.8630 S   0  0  0  0  0  0  0  0  0  0  0  0
   -2.0410   25.2550  -29.0200 O   0  0  0  0  0  0  0  0  0  0  0  0
   -2.6800   23.2320  -30.2220 O   0  0  0  0  0  0  0  0  0  0  0  0
   -4.2230   23.9580  -28.2040 N   0  0  0  0  0  0  0  0  0  0  0  0
   -4.2310   24.5890  -26.8780 C   0  0  0  0  0  0  0  0  0  0  0  0
   -5.1980   24.5620  -29.1350 C   0  0  0  0  0  0  0  0  0  0  0  0
   -5.3940   23.7700  -30.3970 C   0  0  0  0  0  0  0  0  0  0  0  0
   -5.5950   22.4370  -30.4250 N   0  0  0  0  0  0  0  0  0  0  0  0
   -5.6840   22.1950  -31.7510 C   0  0  0  0  0  0  0  0  0  0  0  0
   -5.8820   20.8420  -32.3240 C   0  0  0  0  0  0  0  0  0  0  0  0
   -7.0860   20.1340  -32.1400 C   0  0  0  0  0  0  0  0  0  0  0  0
   -7.2550   18.8650  -32.7020 C   0  0  0  0  0  0  0  0  0  0  0  0
   -6.2270   18.2860  -33.4520 C   0  0  0  0  0  0  0  0  0  0  0  0
   -6.4630   16.5530  -34.2200 Br  0  0  0  0  0  0  0  0  0  0  0  0
   -5.0290   18.9780  -33.6410 C   0  0  0  0  0  0  0  0  0  0  0  0
   -4.8550   20.2470  -33.0810 C   0  0  0  0  0  0  0  0  0  0  0  0
   -5.5460   23.3320  -32.4660 N   0  0  0  0  0  0  0  0  0  0  0  0
   -5.3690   24.2820  -31.6030 O   0  0  0  0  0  0  0  0  0  0  0  0
   -2.5818   20.7187  -26.4343 H   0  0  0  0  0  0  0  0  0  0  0  0
   -3.6614   21.0904  -27.8211 H   0  0  0  0  0  0  0  0  0  0  0  0
   -2.6864   19.5817  -27.8211 H   0  0  0  0  0  0  0  0  0  0  0  0
   -0.6055   20.9122  -27.9266 H   0  0  0  0  0  0  0  0  0  0  0  0
   -1.7225   21.3147  -29.3035 H   0  0  0  0  0  0  0  0  0  0  0  0
   -1.8134   22.9756  -26.7892 H   0  0  0  0  0  0  0  0  0  0  0  0
   -0.4812   23.2227  -28.0018 H   0  0  0  0  0  0  0  0  0  0  0  0
   -4.2211   23.8102  -26.1013 H   0  0  0  0  0  0  0  0  0  0  0  0
   -3.3409   25.2261  -26.7697 H   0  0  0  0  0  0  0  0  0  0  0  0
   -5.1370   25.2034  -26.7697 H   0  0  0  0  0  0  0  0  0  0  0  0
   -6.1669   24.6419  -28.6204 H   0  0  0  0  0  0  0  0  0  0  0  0
   -4.7985   25.5439  -29.4288 H   0  0  0  0  0  0  0  0  0  0  0  0
   -7.8988   20.5827  -31.5501 H   0  0  0  0  0  0  0  0  0  0  0  0
   -8.1993   18.3207  -32.5537 H   0  0  0  0  0  0  0  0  0  0  0  0
   -4.2202   18.5235  -34.2320 H   0  0  0  0  0  0  0  0  0  0  0  0
   -3.9077   20.7851  -33.2331 H   0  0  0  0  0  0  0  0  0  0  0  0
   -5.5670   23.4640  -33.5000 H   0  0  0  0  0  0  0  0  0  0  0  0
  1  2  1  0
  2  3  1  0
  3  4  1  0
  4  5  2  0
  4  6  2  0
  4  7  1  0
  7  8  1  0
  7  9  1  0
  9 10  1  0
 10 11  2  0
 11 12  1  0
 12 13  1  0
 13 14  2  0
 14 15  1  0
 15 16  2  0
 16 17  1  0
 16 18  1  0
 18 19  2  0
 12 20  2  0
 20 21  1  0
 21 10  1  0
 19 13  1  0
  1 22  1  0
  1 23  1  0
  1 24  1  0
  2 25  1  0
  2 26  1  0
  3 27  1  0
  3 28  1  0
  8 29  1  0
  8 30  1  0
  8 31  1  0
  9 32  1  0
  9 33  1  0
 14 34  1  0
 15 35  1  0
 18 36  1  0
 19 37  1  0
 20 38  1  0
M  CHG  1  20   1
M  END
>  <UniqueID>  (31) 
29

>  <SMILES>  (31) 
CCCS(=O)(=O)N(C)Cc1nc(-c2ccc(Br)cc2)[nH+]o1

>  <Energy>  (31) 
65.04082384430993

>  <Genealogy>  (31) 
CCCS(=O)(=O)N(C)Cc1nc(-c2ccc(Br)cc2)[nH+]o1 (protonated)
CCCS(=O)(=O)N(C)Cc1nc(-c2ccc(Br)cc2)[nH+]o1 (3D coordinates assigned)
CCCS(=O)(=O)N(C)Cc1nc(-c2ccc(Br)cc2)[nH+]o1 (optimized conformer: 65.04082384430993 kcal/mol)

>  <smiles>  (31) 
CCCS(=O)(=O)N(C)Cc1nc(-c2ccc(Br)cc2)no1

>  <score_type>  (31) 
oracle

>  <origin>  (31) 
adg

>  <m_score__min__energy>  (31) 
-8.1699999999999999

>  <m_primary>  (31) 
energy

$$$$
31:0
     RDKit          3D

 67 71  0  0  0  0  0  0  0  0999 V2000
   -4.9160   25.2190  -30.4230 C   0  0  0  0  0  0  0  0  0  0  0  0
   -3.5100   25.2670  -30.1920 O   0  0  0  0  0  0  0  0  0  0  0  0
   -2.8110   24.3890  -29.3520 C   0  0  0  0  0  0  0  0  0  0  0  0
   -3.2260   23.0600  -29.1510 C   0  0  0  0  0  0  0  0  0  0  0  0
   -2.4920   22.1710  -28.3410 C   0  0  0  0  0  0  0  0  0  0  0  0
   -1.3060   22.6510  -27.7050 C   0  0  0  0  0  0  0  0  0  0  0  0
   -0.9230   23.9920  -27.8920 C   0  0  0  0  0  0  0  0  0  0  0  0
   -1.6610   24.8570  -28.7130 C   0  0  0  0  0  0  0  0  0  0  0  0
   -1.2810   26.1950  -28.9220 O   0  0  0  0  0  0  0  0  0  0  0  0
   -0.8120   27.0720  -27.9010 C   0  0  0  0  0  0  0  0  0  0  0  0
   -0.4240   21.7990  -26.8260 C   0  0  0  0  0  0  0  0  0  0  0  0
    0.0990   20.6310  -27.6000 C   0  0  0  0  0  0  0  0  0  0  0  0
    1.3340   20.5530  -27.8520 O   0  0  0  0  0  0  0  0  0  0  0  0
   -0.8170   19.6500  -28.1140 N   0  0  0  0  0  0  0  0  0  0  0  0
   -0.3960   18.7140  -29.1670 C   0  0  0  0  0  0  0  0  0  0  0  0
   -0.1390   19.4610  -30.4840 C   0  0  0  0  0  0  0  0  0  0  0  0
   -0.7740   18.7450  -31.6880 C   0  0  0  0  0  0  0  0  0  0  0  0
   -0.6050   19.4890  -32.9600 N   0  0  0  0  0  0  0  0  0  0  0  0
   -0.8180   20.9430  -32.8560 C   0  0  0  0  0  0  0  0  0  0  0  0
   -2.2340   21.2970  -32.3980 C   0  0  0  0  0  0  0  0  0  0  0  0
   -3.2720   20.4270  -32.9790 N   0  0  0  0  0  0  0  0  0  0  0  0
   -4.6570   20.7010  -32.6700 C   0  0  0  0  0  0  0  0  0  0  0  0
   -5.2280   21.9340  -32.7430 N   0  0  0  0  0  0  0  0  0  0  0  0
   -6.5290   21.9110  -32.3510 C   0  0  0  0  0  0  0  0  0  0  0  0
   -7.3730   23.0270  -32.3160 C   0  0  0  0  0  0  0  0  0  0  0  0
   -8.7000   22.8590  -31.8770 C   0  0  0  0  0  0  0  0  0  0  0  0
   -9.1650   21.5880  -31.4750 C   0  0  0  0  0  0  0  0  0  0  0  0
   -8.3090   20.4750  -31.5240 C   0  0  0  0  0  0  0  0  0  0  0  0
   -7.0040   20.6680  -31.9680 C   0  0  0  0  0  0  0  0  0  0  0  0
   -5.7690   19.5400  -32.1070 S   0  0  0  0  0  0  0  0  0  0  0  0
   -2.9730   19.2170  -33.7750 C   0  0  0  0  0  0  0  0  0  0  0  0
   -1.4720   18.9560  -34.0230 C   0  0  0  0  0  0  0  0  0  0  0  0
   -2.2020   19.6420  -27.6240 C   0  0  0  0  0  0  0  0  0  0  0  0
   -3.0330   20.7420  -28.2970 C   0  0  0  0  0  0  0  0  0  0  0  0
   -5.4455   25.2009  -29.4590 H   0  0  0  0  0  0  0  0  0  0  0  0
   -5.2243   26.1071  -30.9941 H   0  0  0  0  0  0  0  0  0  0  0  0
   -5.1630   24.3119  -30.9941 H   0  0  0  0  0  0  0  0  0  0  0  0
   -4.1464   22.7060  -29.6383 H   0  0  0  0  0  0  0  0  0  0  0  0
   -0.0244   24.3704  -27.3827 H   0  0  0  0  0  0  0  0  0  0  0  0
   -1.0417   26.6425  -26.9147 H   0  0  0  0  0  0  0  0  0  0  0  0
    0.2758   27.2016  -28.0002 H   0  0  0  0  0  0  0  0  0  0  0  0
   -1.3082   28.0487  -28.0002 H   0  0  0  0  0  0  0  0  0  0  0  0
    0.4209   22.4031  -26.4639 H   0  0  0  0  0  0  0  0  0  0  0  0
   -1.0137   21.4308  -25.9735 H   0  0  0  0  0  0  0  0  0  0  0  0
    0.5286   18.2080  -28.8522 H   0  0  0  0  0  0  0  0  0  0  0  0
   -1.1973   17.9778  -29.3278 H   0  0  0  0  0  0  0  0  0  0  0  0
   -0.5652   20.4722  -30.4073 H   0  0  0  0  0  0  0  0  0  0  0  0
    0.9483   19.4977  -30.6463 H   0  0  0  0  0  0  0  0  0  0  0  0
   -0.3044   17.7561  -31.7953 H   0  0  0  0  0  0  0  0  0  0  0  0
   -1.8538   18.6679  -31.4929 H   0  0  0  0  0  0  0  0  0  0  0  0
   -0.0999   21.3536  -32.1310 H   0  0  0  0  0  0  0  0  0  0  0  0
   -0.6734   21.3742  -33.8576 H   0  0  0  0  0  0  0  0  0  0  0  0
   -2.2783   21.2088  -31.3024 H   0  0  0  0  0  0  0  0  0  0  0  0
   -2.4396   22.3216  -32.7415 H   0  0  0  0  0  0  0  0  0  0  0  0
   -4.7350   22.8030  -33.0390 H   0  0  0  0  0  0  0  0  0  0  0  0
   -7.0063   24.0168  -32.6257 H   0  0  0  0  0  0  0  0  0  0  0  0
   -9.3791   23.7238  -31.8470 H   0  0  0  0  0  0  0  0  0  0  0  0
  -10.2002   21.4688  -31.1225 H   0  0  0  0  0  0  0  0  0  0  0  0
   -8.6606   19.4781  -31.2197 H   0  0  0  0  0  0  0  0  0  0  0  0
   -3.3877   18.3476  -33.2438 H   0  0  0  0  0  0  0  0  0  0  0  0
   -3.4252   19.3795  -34.7645 H   0  0  0  0  0  0  0  0  0  0  0  0
   -1.3131   17.8697  -34.0912 H   0  0  0  0  0  0  0  0  0  0  0  0
   -1.2009   19.4739  -34.9548 H   0  0  0  0  0  0  0  0  0  0  0  0
   -2.6552   18.6641  -27.8441 H   0  0  0  0  0  0  0  0  0  0  0  0
   -2.1898   19.8276  -26.5398 H   0  0  0  0  0  0  0  0  0  0  0  0
   -3.1953   20.4287  -29.3389 H   0  0  0  0  0  0  0  0  0  0  0  0
   -3.9241   20.8218  -27.6570 H   0  0  0  0  0  0  0  0  0  0  0  0
  1  2  1  0
  2  3  1  0
  3  4  2  0
  4  5  1  0
  5  6  2  0
  6  7  1  0
  7  8  2  0
  8  9  1  0
  9 10  1  0
  6 11  1  0
 11 12  1  0
 12 13  2  0
 12 14  1  0
 14 15  1  0
 15 16  1  0
 16 17  1  0
 17 18  1  0
 18 19  1  0
 19 20  1  0
 20 21  1  0
 21 22  1  0
 22 23  2  0
 23 24  1  0
 24 25  2  0
 25 26  1  0
 26 27  2  0
 27 28  1  0
 28 29  2  0
 29 30  1  0
 21 31  1  0
 31 32  1  0
 14 33  1  0
 33 34  1  0
  8  3  1  0
 32 18  1  0
 34  5  1  0
 30 22  1  0
 29 24  1  0
  1 35  1  0
  1 36  1  0
  1 37  1  0
  4 38  1  0
  7 39  1  0
 10 40  1  0
 10 41  1  0
 10 42  1  0
 11 43  1  0
 11 44  1  0
 15 45  1  0
 15 46  1  0
 16 47  1  0
 16 48  1  0
 17 49  1  0
 17 50  1  0
 19 51  1  0
 19 52  1  0
 20 53  1  0
 20 54  1  0
 23 55  1  0
 25 56  1  0
 26 57  1  0
 27 58  1  0
 28 59  1  0
 31 60  1  0
 31 61  1  0
 32 62  1  0
 32 63  1  0
 33 64  1  0
 33 65  1  0
 34 66  1  0
 34 67  1  0
M  CHG  1  23   1
M  END
>  <UniqueID>  (32) 
30

>  <SMILES>  (32) 
COc1cc2c(cc1OC)CC(=O)N(CCCN1CCN(c3[nH+]c4ccccc4s3)CC1)CC2

>  <Energy>  (32) 
117.08278991589192

>  <Genealogy>  (32) 
COc1cc2c(cc1OC)CC(=O)N(CCCN1CCN(c3[nH+]c4ccccc4s3)CC1)CC2 (protonated)
COc1cc2c(cc1OC)CC(=O)N(CCCN1CCN(c3[nH+]c4ccccc4s3)CC1)CC2 (3D coordinates assigned)
COc1cc2c(cc1OC)CC(=O)N(CCCN1CCN(c3[nH+]c4ccccc4s3)CC1)CC2 (nonaromatic ring conformer: 117.08278991589192 kcal/mol)

>  <smiles>  (32) 
COc1cc2c(cc1OC)CC(=O)N(CCCN1CCN(c3nc4ccccc4s3)CC1)CC2

>  <score_type>  (32) 
oracle

>  <origin>  (32) 
adg

>  <m_score__min__energy>  (32) 
-8.0600000000000005

>  <m_primary>  (32) 
energy

$$$$
32:0
     RDKit          3D

 46 48  0  0  0  0  0  0  0  0999 V2000
   -3.2400   20.1670  -32.4550 C   0  0  0  0  0  0  0  0  0  0  0  0
   -3.9260   19.3110  -33.5190 C   0  0  0  0  0  0  0  0  0  0  0  0
   -5.3230   19.0050  -33.1420 N   0  0  0  0  0  0  0  0  0  0  0  0
   -5.9370   18.0320  -34.0750 C   0  0  0  0  0  0  0  0  0  0  0  0
   -7.1980   17.3630  -33.4820 C   0  0  0  0  0  0  0  0  0  0  0  0
   -7.8070   18.1640  -32.4000 N   0  0  0  0  0  0  0  0  0  0  0  0
   -8.4180   19.4230  -32.8850 C   0  0  0  0  0  0  0  0  0  0  0  0
   -7.9820   20.5850  -32.0460 C   0  0  0  0  0  0  0  0  0  0  0  0
   -8.7830   21.3540  -31.2300 C   0  0  0  0  0  0  0  0  0  0  0  0
   -8.0140   22.2430  -30.6450 O   0  0  0  0  0  0  0  0  0  0  0  0
   -6.7810   22.0460  -31.0650 C   0  0  0  0  0  0  0  0  0  0  0  0
   -5.6270   22.8610  -30.6160 C   0  0  0  0  0  0  0  0  0  0  0  0
   -5.7230   24.2620  -30.6310 C   0  0  0  0  0  0  0  0  0  0  0  0
   -4.6500   25.0530  -30.2120 C   0  0  0  0  0  0  0  0  0  0  0  0
   -3.4610   24.4620  -29.7710 C   0  0  0  0  0  0  0  0  0  0  0  0
   -2.4120   25.2990  -29.3610 O   0  0  0  0  0  0  0  0  0  0  0  0
   -1.3860   24.9150  -28.4510 C   0  0  0  0  0  0  0  0  0  0  0  0
   -3.3590   23.0590  -29.7540 C   0  0  0  0  0  0  0  0  0  0  0  0
   -4.4320   22.2660  -30.1730 C   0  0  0  0  0  0  0  0  0  0  0  0
   -6.7140   21.0190  -31.9410 N   0  0  0  0  0  0  0  0  0  0  0  0
   -6.8490   18.3910  -31.2910 C   0  0  0  0  0  0  0  0  0  0  0  0
   -5.3820   18.5010  -31.7590 C   0  0  0  0  0  0  0  0  0  0  0  0
   -3.5270   19.8089  -31.4553 H   0  0  0  0  0  0  0  0  0  0  0  0
   -2.1488   20.0924  -32.5719 H   0  0  0  0  0  0  0  0  0  0  0  0
   -3.5505   21.2158  -32.5719 H   0  0  0  0  0  0  0  0  0  0  0  0
   -3.9236   19.8564  -34.4743 H   0  0  0  0  0  0  0  0  0  0  0  0
   -3.3751   18.3634  -33.6113 H   0  0  0  0  0  0  0  0  0  0  0  0
   -6.2175   18.5577  -34.9996 H   0  0  0  0  0  0  0  0  0  0  0  0
   -5.1976   17.2412  -34.2698 H   0  0  0  0  0  0  0  0  0  0  0  0
   -7.9389   17.2328  -34.2846 H   0  0  0  0  0  0  0  0  0  0  0  0
   -6.8936   16.3972  -33.0525 H   0  0  0  0  0  0  0  0  0  0  0  0
   -8.1100   19.5951  -33.9269 H   0  0  0  0  0  0  0  0  0  0  0  0
   -9.5122   19.3317  -32.8186 H   0  0  0  0  0  0  0  0  0  0  0  0
   -9.8689   21.2432  -31.0936 H   0  0  0  0  0  0  0  0  0  0  0  0
   -6.6513   24.7410  -30.9757 H   0  0  0  0  0  0  0  0  0  0  0  0
   -4.7409   26.1491  -30.2290 H   0  0  0  0  0  0  0  0  0  0  0  0
   -1.7425   25.0484  -27.4190 H   0  0  0  0  0  0  0  0  0  0  0  0
   -1.1263   23.8588  -28.6156 H   0  0  0  0  0  0  0  0  0  0  0  0
   -0.4967   25.5412  -28.6156 H   0  0  0  0  0  0  0  0  0  0  0  0
   -2.4294   22.5827  -29.4090 H   0  0  0  0  0  0  0  0  0  0  0  0
   -4.3408   21.1699  -30.1560 H   0  0  0  0  0  0  0  0  0  0  0  0
   -5.8810   20.6250  -32.4310 H   0  0  0  0  0  0  0  0  0  0  0  0
   -7.1227   19.3259  -30.7800 H   0  0  0  0  0  0  0  0  0  0  0  0
   -6.9120   17.5182  -30.6245 H   0  0  0  0  0  0  0  0  0  0  0  0
   -4.8409   19.1932  -31.0971 H   0  0  0  0  0  0  0  0  0  0  0  0
   -4.9187   17.5040  -31.7214 H   0  0  0  0  0  0  0  0  0  0  0  0
  1  2  1  0
  2  3  1  0
  3  4  1  0
  4  5  1  0
  5  6  1  0
  6  7  1  0
  7  8  1  0
  8  9  2  0
  9 10  1  0
 10 11  1  0
 11 12  1  0
 12 13  2  0
 13 14  1  0
 14 15  2  0
 15 16  1  0
 16 17  1  0
 15 18  1  0
 18 19  2  0
 11 20  2  0
  6 21  1  0
 21 22  1  0
 22  3  1  0
 20  8  1  0
 19 12  1  0
  1 23  1  0
  1 24  1  0
  1 25  1  0
  2 26  1  0
  2 27  1  0
  4 28  1  0
  4 29  1  0
  5 30  1  0
  5 31  1  0
  7 32  1  0
  7 33  1  0
  9 34  1  0
 13 35  1  0
 14 36  1  0
 17 37  1  0
 17 38  1  0
 17 39  1  0
 18 40  1  0
 19 41  1  0
 20 42  1  0
 21 43  1  0
 21 44  1  0
 22 45  1  0
 22 46  1  0
M  CHG  1  20   1
M  END
>  <UniqueID>  (33) 
31

>  <SMILES>  (33) 
CCN1CCN(Cc2coc(-c3ccc(OC)cc3)[nH+]2)CC1

>  <Energy>  (33) 
87.35588503508909

>  <Genealogy>  (33) 
CCN1CCN(Cc2coc(-c3ccc(OC)cc3)[nH+]2)CC1 (protonated)
CCN1CCN(Cc2coc(-c3ccc(OC)cc3)[nH+]2)CC1 (3D coordinates assigned)
CCN1CCN(Cc2coc(-c3ccc(OC)cc3)[nH+]2)CC1 (nonaromatic ring conformer: 87.35588503508909 kcal/mol)

>  <smiles>  (33) 
CCN1CCN(Cc2coc(-c3ccc(OC)cc3)n2)CC1

>  <score_type>  (33) 
oracle

>  <origin>  (33) 
adg

>  <m_score__min__energy>  (33) 
-6.8700000000000001

>  <m_primary>  (33) 
energy

$$$$
33:0
     RDKit          3D

 30 32  0  0  0  0  0  0  0  0999 V2000
   -2.0210   25.9140  -25.7920 C   0  0  0  0  0  0  0  0  0  0  0  0
   -0.6520   25.9880  -26.9890 S   0  0  0  0  0  0  0  0  0  0  0  0
   -1.1670   24.4960  -27.8410 C   0  0  0  0  0  0  0  0  0  0  0  0
   -2.3320   24.4640  -28.5580 N   0  0  0  0  0  0  0  0  0  0  0  0
   -2.7330   23.3220  -29.2180 C   0  0  0  0  0  0  0  0  0  0  0  0
   -3.9970   23.2970  -29.9900 C   0  0  0  0  0  0  0  0  0  0  0  0
   -4.6660   22.0750  -30.1740 C   0  0  0  0  0  0  0  0  0  0  0  0
   -5.8630   22.0220  -30.8930 C   0  0  0  0  0  0  0  0  0  0  0  0
   -6.4140   23.1910  -31.4360 C   0  0  0  0  0  0  0  0  0  0  0  0
   -7.6790   23.1270  -32.2390 C   0  0  0  0  0  0  0  0  0  0  0  0
   -5.7320   24.4060  -31.2880 C   0  0  0  0  0  0  0  0  0  0  0  0
   -4.5290   24.4650  -30.5750 C   0  0  0  0  0  0  0  0  0  0  0  0
   -3.8600   25.6800  -30.4820 O   0  0  0  0  0  0  0  0  0  0  0  0
   -1.9750   22.1850  -29.1390 N   0  0  0  0  0  0  0  0  0  0  0  0
   -0.8260   22.2220  -28.4240 C   0  0  0  0  0  0  0  0  0  0  0  0
    0.0370   21.2160  -28.2440 N   0  0  0  0  0  0  0  0  0  0  0  0
    0.9880   21.7970  -27.4620 C   0  0  0  0  0  0  0  0  0  0  0  0
    0.7500   23.1030  -27.1580 N   0  0  0  0  0  0  0  0  0  0  0  0
   -0.4100   23.3350  -27.7870 C   0  0  0  0  0  0  0  0  0  0  0  0
   -1.6157   25.9359  -24.7696 H   0  0  0  0  0  0  0  0  0  0  0  0
   -2.6858   26.7775  -25.9415 H   0  0  0  0  0  0  0  0  0  0  0  0
   -2.5889   24.9838  -25.9415 H   0  0  0  0  0  0  0  0  0  0  0  0
   -2.9310   25.3200  -28.5750 H   0  0  0  0  0  0  0  0  0  0  0  0
   -4.2439   21.1526  -29.7485 H   0  0  0  0  0  0  0  0  0  0  0  0
   -6.3752   21.0587  -31.0335 H   0  0  0  0  0  0  0  0  0  0  0  0
   -8.5429   23.0833  -31.5594 H   0  0  0  0  0  0  0  0  0  0  0  0
   -7.7564   24.0224  -32.8733 H   0  0  0  0  0  0  0  0  0  0  0  0
   -7.6656   22.2284  -32.8733 H   0  0  0  0  0  0  0  0  0  0  0  0
   -6.1456   25.3215  -31.7361 H   0  0  0  0  0  0  0  0  0  0  0  0
    1.8764   21.2556  -27.1048 H   0  0  0  0  0  0  0  0  0  0  0  0
  1  2  1  0
  2  3  1  0
  3  4  2  0
  4  5  1  0
  5  6  1  0
  6  7  2  0
  7  8  1  0
  8  9  2  0
  9 10  1  0
  9 11  1  0
 11 12  2  0
 12 13  1  0
  5 14  2  0
 14 15  1  0
 15 16  1  0
 16 17  2  0
 17 18  1  0
 18 19  1  0
 19  3  1  0
 12  6  1  0
 19 15  2  0
  1 20  1  0
  1 21  1  0
  1 22  1  0
  4 23  1  0
  7 24  1  0
  8 25  1  0
 10 26  1  0
 10 27  1  0
 10 28  1  0
 11 29  1  0
 17 30  1  0
M  CHG  3   4   1  13  -1  18  -1
M  END
>  <UniqueID>  (34) 
32

>  <SMILES>  (34) 
CSc1[nH+]c(-c2ccc(C)cc2[O-])nc2nc[n-]c12

>  <Energy>  (34) 
70.34565724889417

>  <Genealogy>  (34) 
CSc1[nH+]c(-c2ccc(C)cc2[O-])nc2nc[n-]c12 (protonated)
CSc1[nH+]c(-c2ccc(C)cc2[O-])nc2nc[n-]c12 (3D coordinates assigned)
CSc1[nH+]c(-c2ccc(C)cc2[O-])nc2nc[n-]c12 (optimized conformer: 70.34565724889417 kcal/mol)

>  <smiles>  (34) 
CSc1nc(-c2ccc(C)cc2O)nc2nc[nH]c12

>  <score_type>  (34) 
oracle

>  <origin>  (34) 
adg

>  <m_score__min__energy>  (34) 
-8.5399999999999991

>  <m_primary>  (34) 
energy

$$$$
34:0
     RDKit          3D

 43 44  0  0  0  0  0  0  0  0999 V2000
   -7.6320   18.9550  -34.1790 H   0  0  0  0  0  0  0  0  0  0  0  0
   -6.7850   18.5560  -33.7200 N   0  0  0  0  0  0  0  0  0  0  0  0
   -5.7500   19.2630  -33.3880 C   0  0  0  0  0  0  0  0  0  0  0  0
   -4.5800   19.1850  -34.0510 N   0  0  0  0  0  0  0  0  0  0  0  0
   -4.3520   18.5770  -34.8690 H   0  0  0  0  0  0  0  0  0  0  0  0
   -3.7710   20.0790  -33.4560 C   0  0  0  0  0  0  0  0  0  0  0  0
   -2.7315   20.2964  -33.7427 H   0  0  0  0  0  0  0  0  0  0  0  0
   -4.4660   20.6780  -32.4240 C   0  0  0  0  0  0  0  0  0  0  0  0
   -3.9450   21.7530  -31.5590 C   0  0  0  0  0  0  0  0  0  0  0  0
   -2.8840   21.4580  -30.7010 C   0  0  0  0  0  0  0  0  0  0  0  0
   -2.4819   20.4348  -30.6631 H   0  0  0  0  0  0  0  0  0  0  0  0
   -2.3310   22.4460  -29.8940 C   0  0  0  0  0  0  0  0  0  0  0  0
   -1.4902   22.1975  -29.2296 H   0  0  0  0  0  0  0  0  0  0  0  0
   -2.8340   23.7600  -29.9170 C   0  0  0  0  0  0  0  0  0  0  0  0
   -2.2670   24.7580  -29.1090 O   0  0  0  0  0  0  0  0  0  0  0  0
   -2.1660   24.7020  -27.6890 C   0  0  0  0  0  0  0  0  0  0  0  0
   -3.0440   25.1888  -27.2395 H   0  0  0  0  0  0  0  0  0  0  0  0
   -2.1235   23.6515  -27.3656 H   0  0  0  0  0  0  0  0  0  0  0  0
   -1.2525   25.2225  -27.3656 H   0  0  0  0  0  0  0  0  0  0  0  0
   -3.9280   24.0690  -30.7690 C   0  0  0  0  0  0  0  0  0  0  0  0
   -4.5050   25.3520  -30.8500 O   0  0  0  0  0  0  0  0  0  0  0  0
   -5.7380   25.7720  -30.2750 C   0  0  0  0  0  0  0  0  0  0  0  0
   -5.6591   25.7451  -29.1782 H   0  0  0  0  0  0  0  0  0  0  0  0
   -5.9642   26.7979  -30.6013 H   0  0  0  0  0  0  0  0  0  0  0  0
   -6.5433   25.0975  -30.6013 H   0  0  0  0  0  0  0  0  0  0  0  0
   -4.4860   23.0570  -31.5830 C   0  0  0  0  0  0  0  0  0  0  0  0
   -5.6240   23.3570  -32.4100 N   0  0  0  0  0  0  0  0  0  0  0  0
   -6.1970   24.2160  -32.2670 H   0  0  0  0  0  0  0  0  0  0  0  0
   -5.9030   22.7350  -33.2010 H   0  0  0  0  0  0  0  0  0  0  0  0
   -5.7200   20.1680  -32.3770 N   0  0  0  0  0  0  0  0  0  0  0  0
   -6.8170   20.6110  -31.5040 C   0  0  0  0  0  0  0  0  0  0  0  0
   -7.0974   19.7847  -30.8342 H   0  0  0  0  0  0  0  0  0  0  0  0
   -6.4705   21.4808  -30.9267 H   0  0  0  0  0  0  0  0  0  0  0  0
   -8.0540   21.0340  -32.3250 C   0  0  0  0  0  0  0  0  0  0  0  0
   -7.7297   21.1796  -33.3660 H   0  0  0  0  0  0  0  0  0  0  0  0
   -9.1370   19.9470  -32.3200 C   0  0  0  0  0  0  0  0  0  0  0  0
   -9.3934   19.6896  -31.2817 H   0  0  0  0  0  0  0  0  0  0  0  0
  -10.0332   20.3200  -32.8373 H   0  0  0  0  0  0  0  0  0  0  0  0
   -8.7607   19.0521  -32.8373 H   0  0  0  0  0  0  0  0  0  0  0  0
   -8.6250   22.3500  -31.7830 C   0  0  0  0  0  0  0  0  0  0  0  0
   -8.6156   22.3284  -30.6833 H   0  0  0  0  0  0  0  0  0  0  0  0
   -8.0105   23.1903  -32.1385 H   0  0  0  0  0  0  0  0  0  0  0  0
   -9.6584   22.4753  -32.1385 H   0  0  0  0  0  0  0  0  0  0  0  0
  1  2  1  0
  2  3  2  0
  3  4  1  0
  4  5  1  0
  4  6  1  0
  6  7  1  0
  6  8  2  0
  8  9  1  0
  9 10  2  0
 10 11  1  0
 10 12  1  0
 12 13  1  0
 12 14  2  0
 14 15  1  0
 15 16  1  0
 16 17  1  0
 16 18  1  0
 16 19  1  0
 14 20  1  0
 20 21  1  0
 21 22  1  0
 22 23  1  0
 22 24  1  0
 22 25  1  0
 20 26  2  0
 26 27  1  0
 27 28  1  0
 27 29  1  0
  8 30  1  0
 30 31  1  0
 31 32  1  0
 31 33  1  0
 31 34  1  0
 34 35  1  0
 34 36  1  0
 36 37  1  0
 36 38  1  0
 36 39  1  0
 34 40  1  0
 40 41  1  0
 40 42  1  0
 40 43  1  0
 30  3  1  0
 26  9  1  0
M  END
>  <UniqueID>  (35) 
33

>  <SMILES>  (35) 
[H]/N=c1/[nH]cc(-c2ccc(OC)c(OC)c2N)n1CC(C)C

>  <Energy>  (35) 
78.38634694127053

>  <Genealogy>  (35) 
[H]/N=c1/[nH]cc(-c2ccc(OC)c(OC)c2N)n1CC(C)C (cis-trans isomerization)
[H]/N=c1/[nH]cc(-c2ccc(OC)c(OC)c2N)n1CC(C)C (3D coordinates assigned)
[H]/N=c1/[nH]cc(-c2ccc(OC)c(OC)c2N)n1CC(C)C (optimized conformer: 78.38634694127053 kcal/mol)

>  <smiles>  (35) 
COc1ccc(-c2c[nH]c(=N)n2CC(C)C)c(N)c1OC

>  <score_type>  (35) 
oracle

>  <origin>  (35) 
adg

>  <m_score__min__energy>  (35) 
-6.8700000000000001

>  <m_primary>  (35) 
energy

$$$$
35:0
     RDKit          3D

 61 64  0  0  0  0  0  0  0  0999 V2000
   -3.4820   21.8660  -33.5310 C   0  0  0  0  0  0  0  0  0  0  0  0
   -4.1680   21.3600  -32.3920 O   0  0  0  0  0  0  0  0  0  0  0  0
   -5.5630   21.3870  -32.2320 C   0  0  0  0  0  0  0  0  0  0  0  0
   -6.3480   20.2190  -32.3030 C   0  0  0  0  0  0  0  0  0  0  0  0
   -7.7330   20.2890  -32.1500 C   0  0  0  0  0  0  0  0  0  0  0  0
   -8.3600   21.5210  -31.9180 C   0  0  0  0  0  0  0  0  0  0  0  0
   -9.8540   21.6020  -31.8360 C   0  0  0  0  0  0  0  0  0  0  0  0
   -7.5820   22.6880  -31.8570 C   0  0  0  0  0  0  0  0  0  0  0  0
   -6.1850   22.6220  -31.9870 C   0  0  0  0  0  0  0  0  0  0  0  0
   -5.3850   23.8100  -31.9350 N   0  0  0  0  0  0  0  0  0  0  0  0
   -4.5680   24.2350  -30.8370 C   0  0  0  0  0  0  0  0  0  0  0  0
   -4.4570   25.4680  -30.6100 O   0  0  0  0  0  0  0  0  0  0  0  0
   -3.7220   23.2580  -30.0480 C   0  0  0  0  0  0  0  0  0  0  0  0
   -2.3890   23.0020  -30.7880 C   0  0  0  0  0  0  0  0  0  0  0  0
   -1.3030   22.5700  -29.8000 C   0  0  0  0  0  0  0  0  0  0  0  0
   -0.9900   23.6530  -28.8420 N   0  0  0  0  0  0  0  0  0  0  0  0
   -0.1250   23.0170  -27.4610 S   0  0  0  0  0  0  0  0  0  0  0  0
    1.2870   23.5390  -27.4660 O   0  0  0  0  0  0  0  0  0  0  0  0
   -0.7910   23.4900  -26.1980 O   0  0  0  0  0  0  0  0  0  0  0  0
   -0.0880   21.2520  -27.4800 C   0  0  0  0  0  0  0  0  0  0  0  0
   -1.1050   20.5240  -26.8620 C   0  0  0  0  0  0  0  0  0  0  0  0
   -1.0530   19.1310  -26.8330 C   0  0  0  0  0  0  0  0  0  0  0  0
    0.0150   18.4280  -27.4190 C   0  0  0  0  0  0  0  0  0  0  0  0
    1.0280   19.1660  -28.1000 C   0  0  0  0  0  0  0  0  0  0  0  0
    0.9640   20.5740  -28.0990 C   0  0  0  0  0  0  0  0  0  0  0  0
    2.2040   18.5260  -28.8040 C   0  0  0  0  0  0  0  0  0  0  0  0
    1.8110   17.2810  -29.5990 C   0  0  0  0  0  0  0  0  0  0  0  0
    1.8990   16.0230  -28.7370 C   0  0  0  0  0  0  0  0  0  0  0  0
    1.1560   16.1360  -27.4390 C   0  0  0  0  0  0  0  0  0  0  0  0
    1.4700   15.3570  -26.4980 O   0  0  0  0  0  0  0  0  0  0  0  0
    0.0140   16.9900  -27.2870 N   0  0  0  0  0  0  0  0  0  0  0  0
   -2.1570   24.4740  -28.4290 C   0  0  0  0  0  0  0  0  0  0  0  0
   -3.5030   23.7420  -28.5920 C   0  0  0  0  0  0  0  0  0  0  0  0
   -2.6370   22.4893  -33.2032 H   0  0  0  0  0  0  0  0  0  0  0  0
   -3.1062   21.0272  -34.1353 H   0  0  0  0  0  0  0  0  0  0  0  0
   -4.1724   22.4728  -34.1353 H   0  0  0  0  0  0  0  0  0  0  0  0
   -5.8660   19.2462  -32.4801 H   0  0  0  0  0  0  0  0  0  0  0  0
   -8.3367   19.3716  -32.2118 H   0  0  0  0  0  0  0  0  0  0  0  0
  -10.1629   21.6187  -30.7804 H   0  0  0  0  0  0  0  0  0  0  0  0
  -10.1993   22.5202  -32.3337 H   0  0  0  0  0  0  0  0  0  0  0  0
  -10.2965   20.7265  -32.3337 H   0  0  0  0  0  0  0  0  0  0  0  0
   -8.0704   23.6620  -31.7062 H   0  0  0  0  0  0  0  0  0  0  0  0
   -4.2595   22.3010  -29.9751 H   0  0  0  0  0  0  0  0  0  0  0  0
   -2.5360   22.2077  -31.5347 H   0  0  0  0  0  0  0  0  0  0  0  0
   -2.0715   23.9322  -31.2820 H   0  0  0  0  0  0  0  0  0  0  0  0
   -1.6544   21.6888  -29.2432 H   0  0  0  0  0  0  0  0  0  0  0  0
   -0.3909   22.3320  -30.3670 H   0  0  0  0  0  0  0  0  0  0  0  0
   -1.9508   21.0508  -26.3960 H   0  0  0  0  0  0  0  0  0  0  0  0
   -1.8628   18.5711  -26.3424 H   0  0  0  0  0  0  0  0  0  0  0  0
    1.7586   21.1501  -28.5957 H   0  0  0  0  0  0  0  0  0  0  0  0
    2.6424   19.2608  -29.4953 H   0  0  0  0  0  0  0  0  0  0  0  0
    2.9226   18.2135  -28.0321 H   0  0  0  0  0  0  0  0  0  0  0  0
    0.7783   17.3970  -29.9596 H   0  0  0  0  0  0  0  0  0  0  0  0
    2.5076   17.1734  -30.4435 H   0  0  0  0  0  0  0  0  0  0  0  0
    1.4797   15.1804  -29.3064 H   0  0  0  0  0  0  0  0  0  0  0  0
    2.9605   15.8720  -28.4910 H   0  0  0  0  0  0  0  0  0  0  0  0
   -0.7810   16.5570  -26.7620 H   0  0  0  0  0  0  0  0  0  0  0  0
   -2.0343   24.7485  -27.3709 H   0  0  0  0  0  0  0  0  0  0  0  0
   -2.1838   25.3568  -29.0847 H   0  0  0  0  0  0  0  0  0  0  0  0
   -3.5180   22.8705  -27.9210 H   0  0  0  0  0  0  0  0  0  0  0  0
   -4.3087   24.4477  -28.3413 H   0  0  0  0  0  0  0  0  0  0  0  0
  1  2  1  0
  2  3  1  0
  3  4  2  0
  4  5  1  0
  5  6  2  0
  6  7  1  0
  6  8  1  0
  8  9  2  0
  9 10  1  0
 10 11  1  0
 11 12  2  0
 11 13  1  0
 13 14  1  0
 14 15  1  0
 15 16  1  0
 16 17  1  0
 17 18  2  0
 17 19  2  0
 17 20  1  0
 20 21  2  0
 21 22  1  0
 22 23  2  0
 23 24  1  0
 24 25  2  0
 24 26  1  0
 26 27  1  0
 27 28  1  0
 28 29  1  0
 29 30  2  0
 29 31  1  0
 16 32  1  0
 32 33  1  0
  9  3  1  0
 33 13  1  0
 25 20  1  0
 31 23  1  0
  1 34  1  0
  1 35  1  0
  1 36  1  0
  4 37  1  0
  5 38  1  0
  7 39  1  0
  7 40  1  0
  7 41  1  0
  8 42  1  0
 13 43  1  0
 14 44  1  0
 14 45  1  0
 15 46  1  0
 15 47  1  0
 21 48  1  0
 22 49  1  0
 25 50  1  0
 26 51  1  0
 26 52  1  0
 27 53  1  0
 27 54  1  0
 28 55  1  0
 28 56  1  0
 31 57  1  0
 32 58  1  0
 32 59  1  0
 33 60  1  0
 33 61  1  0
M  CHG  1  10  -1
M  END
>  <UniqueID>  (36) 
34

>  <SMILES>  (36) 
COc1ccc(C)cc1[N-]C(=O)C1CCN(S(=O)(=O)c2ccc3c(c2)CCCC(=O)N3)CC1

>  <Energy>  (36) 
84.00988959396439

>  <Genealogy>  (36) 
COc1ccc(C)cc1[N-]C(=O)C1CCN(S(=O)(=O)c2ccc3c(c2)CCCC(=O)N3)CC1 (protonated)
COc1ccc(C)cc1[N-]C(=O)C1CCN(S(=O)(=O)c2ccc3c(c2)CCCC(=O)N3)CC1 (3D coordinates assigned)
COc1ccc(C)cc1[N-]C(=O)C1CCN(S(=O)(=O)c2ccc3c(c2)CCCC(=O)N3)CC1 (nonaromatic ring conformer: 84.00988959396439 kcal/mol)

>  <smiles>  (36) 
COc1ccc(C)cc1NC(=O)C1CCN(S(=O)(=O)c2ccc3c(c2)CCCC(=O)N3)CC1

>  <score_type>  (36) 
oracle

>  <origin>  (36) 
adg

>  <m_score__min__energy>  (36) 
-11.130000000000001

>  <m_primary>  (36) 
energy

$$$$
36:0
     RDKit          3D

 54 56  0  0  0  0  0  0  0  0999 V2000
   -4.0210   13.1590  -31.7840 C   0  0  0  0  0  0  0  0  0  0  0  0
   -4.0020   13.8300  -33.0390 O   0  0  0  0  0  0  0  0  0  0  0  0
   -4.4900   15.1280  -33.2490 C   0  0  0  0  0  0  0  0  0  0  0  0
   -4.4030   15.7780  -34.4940 C   0  0  0  0  0  0  0  0  0  0  0  0
   -4.9040   17.0730  -34.6510 C   0  0  0  0  0  0  0  0  0  0  0  0
   -5.4940   17.7400  -33.5680 C   0  0  0  0  0  0  0  0  0  0  0  0
   -6.0500   19.1290  -33.7490 C   0  0  0  0  0  0  0  0  0  0  0  0
   -6.7690   19.5750  -32.5370 N   0  0  0  0  0  0  0  0  0  0  0  0
   -8.2430   19.4550  -32.6880 C   0  0  0  0  0  0  0  0  0  0  0  0
   -9.0730   20.2380  -31.6530 C   0  0  0  0  0  0  0  0  0  0  0  0
   -9.2940   21.7420  -31.9630 C   0  0  0  0  0  0  0  0  0  0  0  0
   -8.1000   22.6080  -31.7670 N   0  0  1  0  0  0  0  0  0  0  0  0
   -7.7350   22.6660  -30.3260 C   0  0  0  0  0  0  0  0  0  0  0  0
   -6.4080   23.3570  -30.0960 C   0  0  0  0  0  0  0  0  0  0  0  0
   -6.2060   24.6770  -30.5290 C   0  0  0  0  0  0  0  0  0  0  0  0
   -4.9760   25.3060  -30.3270 C   0  0  0  0  0  0  0  0  0  0  0  0
   -3.9240   24.6230  -29.6850 C   0  0  0  0  0  0  0  0  0  0  0  0
   -2.6710   25.2130  -29.4620 O   0  0  0  0  0  0  0  0  0  0  0  0
   -1.8930   25.0280  -28.2840 C   0  0  0  0  0  0  0  0  0  0  0  0
   -4.1300   23.3070  -29.2520 C   0  0  0  0  0  0  0  0  0  0  0  0
   -3.1300   22.6330  -28.6310 F   0  0  0  0  0  0  0  0  0  0  0  0
   -5.3620   22.6780  -29.4550 C   0  0  0  0  0  0  0  0  0  0  0  0
   -6.9240   22.1260  -32.5320 C   0  0  0  0  0  0  0  0  0  0  0  0
   -6.2560   20.8490  -31.9760 C   0  0  0  0  0  0  0  0  0  0  0  0
   -5.5860   17.0920  -32.3270 C   0  0  0  0  0  0  0  0  0  0  0  0
   -5.0870   15.7950  -32.1720 C   0  0  0  0  0  0  0  0  0  0  0  0
   -4.0000   13.9003  -30.9715 H   0  0  0  0  0  0  0  0  0  0  0  0
   -4.9366   12.5545  -31.7052 H   0  0  0  0  0  0  0  0  0  0  0  0
   -3.1411   12.5036  -31.7052 H   0  0  0  0  0  0  0  0  0  0  0  0
   -3.9381   15.2640  -35.3482 H   0  0  0  0  0  0  0  0  0  0  0  0
   -4.8352   17.5716  -35.6291 H   0  0  0  0  0  0  0  0  0  0  0  0
   -5.2220   19.8241  -33.9520 H   0  0  0  0  0  0  0  0  0  0  0  0
   -6.7579   19.1157  -34.5909 H   0  0  0  0  0  0  0  0  0  0  0  0
   -8.5137   19.8215  -33.6892 H   0  0  0  0  0  0  0  0  0  0  0  0
   -8.4811   18.3927  -32.5304 H   0  0  0  0  0  0  0  0  0  0  0  0
  -10.0609   19.7596  -31.5809 H   0  0  0  0  0  0  0  0  0  0  0  0
   -8.4920   20.2076  -30.7195 H   0  0  0  0  0  0  0  0  0  0  0  0
   -9.6110   21.8308  -33.0126 H   0  0  0  0  0  0  0  0  0  0  0  0
  -10.0500   22.0951  -31.2462 H   0  0  0  0  0  0  0  0  0  0  0  0
   -8.3060   23.5880  -32.0610 H   0  0  0  0  0  0  0  0  0  0  0  0
   -8.5187   23.2162  -29.7846 H   0  0  0  0  0  0  0  0  0  0  0  0
   -7.6436   21.6325  -29.9605 H   0  0  0  0  0  0  0  0  0  0  0  0
   -7.0215   25.2189  -31.0303 H   0  0  0  0  0  0  0  0  0  0  0  0
   -4.8274   26.3403  -30.6709 H   0  0  0  0  0  0  0  0  0  0  0  0
   -2.5274   25.1789  -27.3981 H   0  0  0  0  0  0  0  0  0  0  0  0
   -1.4830   24.0073  -28.2719 H   0  0  0  0  0  0  0  0  0  0  0  0
   -1.0675   25.7549  -28.2719 H   0  0  0  0  0  0  0  0  0  0  0  0
   -5.5116   21.6443  -29.1098 H   0  0  0  0  0  0  0  0  0  0  0  0
   -7.2497   21.9188  -33.5620 H   0  0  0  0  0  0  0  0  0  0  0  0
   -6.1674   22.9214  -32.4620 H   0  0  0  0  0  0  0  0  0  0  0  0
   -5.1788   20.9067  -32.1910 H   0  0  0  0  0  0  0  0  0  0  0  0
   -6.4876   20.8255  -30.9009 H   0  0  0  0  0  0  0  0  0  0  0  0
   -6.0521   17.6058  -31.4733 H   0  0  0  0  0  0  0  0  0  0  0  0
   -5.1640   15.2942  -31.1956 H   0  0  0  0  0  0  0  0  0  0  0  0
  1  2  1  0
  2  3  1  0
  3  4  2  0
  4  5  1  0
  5  6  2  0
  6  7  1  0
  7  8  1  0
  8  9  1  0
  9 10  1  0
 10 11  1  0
 11 12  1  0
 12 13  1  0
 13 14  1  0
 14 15  2  0
 15 16  1  0
 16 17  2  0
 17 18  1  0
 18 19  1  0
 17 20  1  0
 20 21  1  0
 20 22  2  0
 12 23  1  0
 23 24  1  0
  6 25  1  0
 25 26  2  0
 26  3  1  0
 24  8  1  0
 22 14  1  0
  1 27  1  0
  1 28  1  0
  1 29  1  0
  4 30  1  0
  5 31  1  0
  7 32  1  0
  7 33  1  0
  9 34  1  0
  9 35  1  0
 10 36  1  0
 10 37  1  0
 11 38  1  0
 11 39  1  0
 12 40  1  6
 13 41  1  0
 13 42  1  0
 15 43  1  0
 16 44  1  0
 19 45  1  0
 19 46  1  0
 19 47  1  0
 22 48  1  0
 23 49  1  0
 23 50  1  0
 24 51  1  0
 24 52  1  0
 25 53  1  0
 26 54  1  0
M  CHG  1  12   1
M  END
>  <UniqueID>  (37) 
35

>  <SMILES>  (37) 
COc1ccc(CN2CCC[N@@H+](Cc3ccc(OC)c(F)c3)CC2)cc1

>  <Energy>  (37) 
75.96156114371591

>  <Genealogy>  (37) 
COc1ccc(CN2CCC[NH+](Cc3ccc(OC)c(F)c3)CC2)cc1 (protonated)
COc1ccc(CN2CCC[N@@H+](Cc3ccc(OC)c(F)c3)CC2)cc1 (chirality)
COc1ccc(CN2CCC[N@@H+](Cc3ccc(OC)c(F)c3)CC2)cc1 (3D coordinates assigned)
COc1ccc(CN2CCC[N@@H+](Cc3ccc(OC)c(F)c3)CC2)cc1 (nonaromatic ring conformer: 75.96156114371591 kcal/mol)

>  <smiles>  (37) 
COc1ccc(CN2CCCN(Cc3ccc(OC)c(F)c3)CC2)cc1

>  <score_type>  (37) 
oracle

>  <origin>  (37) 
adg

>  <m_score__min__energy>  (37) 
-6.0499999999999998

>  <m_primary>  (37) 
energy

$$$$
37:0
     RDKit          3D

 56 58  0  0  0  0  0  0  0  0999 V2000
   -5.7880   15.5630  -33.5240 C   0  0  0  0  0  0  0  0  0  0  0  0
   -5.7010   16.3900  -32.2420 C   0  0  0  0  0  0  0  0  0  0  0  0
   -5.5880   17.8360  -32.5300 N   0  0  0  0  0  0  0  0  0  0  0  0
   -6.8420   18.4190  -33.0630 C   0  0  0  0  0  0  0  0  0  0  0  0
   -6.5130   19.6720  -33.8650 C   0  0  0  0  0  0  0  0  0  0  0  0
   -4.3940   18.2240  -33.3190 C   0  0  0  0  0  0  0  0  0  0  0  0
   -3.5580   19.3820  -32.7080 C   0  0  0  0  0  0  0  0  0  0  0  0
   -2.9770   20.3470  -33.7610 C   0  0  0  0  0  0  0  0  0  0  0  0
   -3.0850   21.7450  -33.3140 N   0  0  0  0  0  0  0  0  0  0  0  0
   -4.4260   22.0980  -32.8130 C   0  0  0  0  0  0  0  0  0  0  0  0
   -4.4030   22.6230  -31.3850 C   0  0  0  0  0  0  0  0  0  0  0  0
   -3.1600   22.9460  -30.8170 C   0  0  0  0  0  0  0  0  0  0  0  0
   -3.0830   23.4980  -29.5360 C   0  0  0  0  0  0  0  0  0  0  0  0
   -1.8460   23.8440  -28.9710 C   0  0  0  0  0  0  0  0  0  0  0  0
   -1.7930   24.4030  -27.6910 C   0  0  0  0  0  0  0  0  0  0  0  0
   -2.9720   24.6170  -26.9700 C   0  0  0  0  0  0  0  0  0  0  0  0
   -4.2070   24.2740  -27.5240 C   0  0  0  0  0  0  0  0  0  0  0  0
   -4.2730   23.7130  -28.8110 C   0  0  0  0  0  0  0  0  0  0  0  0
   -5.4720   23.3700  -29.3580 N   0  0  0  0  0  0  0  0  0  0  0  0
   -5.5750   22.8190  -30.6050 C   0  0  0  0  0  0  0  0  0  0  0  0
   -6.9230   22.4380  -31.0890 C   0  0  0  0  0  0  0  0  0  0  0  0
   -7.3920   21.1200  -30.9490 C   0  0  0  0  0  0  0  0  0  0  0  0
   -8.6760   20.7790  -31.3870 C   0  0  0  0  0  0  0  0  0  0  0  0
   -9.5100   21.7560  -31.9390 C   0  0  0  0  0  0  0  0  0  0  0  0
   -9.0650   23.0770  -32.0400 C   0  0  0  0  0  0  0  0  0  0  0  0
   -7.7820   23.4200  -31.6050 C   0  0  0  0  0  0  0  0  0  0  0  0
   -5.8999   14.4993  -33.2672 H   0  0  0  0  0  0  0  0  0  0  0  0
   -6.6566   15.8912  -34.1138 H   0  0  0  0  0  0  0  0  0  0  0  0
   -4.8701   15.7032  -34.1138 H   0  0  0  0  0  0  0  0  0  0  0  0
   -6.6071   16.2156  -31.6432 H   0  0  0  0  0  0  0  0  0  0  0  0
   -4.7998   16.0783  -31.6936 H   0  0  0  0  0  0  0  0  0  0  0  0
   -7.3403   17.6860  -33.7144 H   0  0  0  0  0  0  0  0  0  0  0  0
   -7.5108   18.6797  -32.2295 H   0  0  0  0  0  0  0  0  0  0  0  0
   -6.2952   20.5015  -33.1762 H   0  0  0  0  0  0  0  0  0  0  0  0
   -5.6344   19.4814  -34.4989 H   0  0  0  0  0  0  0  0  0  0  0  0
   -7.3718   19.9376  -34.4989 H   0  0  0  0  0  0  0  0  0  0  0  0
   -3.7425   17.3424  -33.4098 H   0  0  0  0  0  0  0  0  0  0  0  0
   -4.7676   18.5889  -34.2871 H   0  0  0  0  0  0  0  0  0  0  0  0
   -4.2047   19.9569  -32.0289 H   0  0  0  0  0  0  0  0  0  0  0  0
   -2.7053   18.9233  -32.1859 H   0  0  0  0  0  0  0  0  0  0  0  0
   -1.9171   20.1032  -33.9259 H   0  0  0  0  0  0  0  0  0  0  0  0
   -3.5491   20.2328  -34.6935 H   0  0  0  0  0  0  0  0  0  0  0  0
   -2.8270   22.3740  -34.1080 H   0  0  0  0  0  0  0  0  0  0  0  0
   -4.8520   22.8741  -33.4659 H   0  0  0  0  0  0  0  0  0  0  0  0
   -5.0335   21.1810  -32.8188 H   0  0  0  0  0  0  0  0  0  0  0  0
   -2.2372   22.7624  -31.3868 H   0  0  0  0  0  0  0  0  0  0  0  0
   -0.9173   23.6752  -29.5359 H   0  0  0  0  0  0  0  0  0  0  0  0
   -0.8226   24.6750  -27.2502 H   0  0  0  0  0  0  0  0  0  0  0  0
   -2.9263   25.0571  -25.9629 H   0  0  0  0  0  0  0  0  0  0  0  0
   -5.1309   24.4433  -26.9515 H   0  0  0  0  0  0  0  0  0  0  0  0
   -6.3430   23.5140  -28.7960 H   0  0  0  0  0  0  0  0  0  0  0  0
   -6.7470   20.3542  -30.4934 H   0  0  0  0  0  0  0  0  0  0  0  0
   -9.0298   19.7413  -31.2971 H   0  0  0  0  0  0  0  0  0  0  0  0
  -10.5155   21.4852  -32.2935 H   0  0  0  0  0  0  0  0  0  0  0  0
   -9.7258   23.8481  -32.4627 H   0  0  0  0  0  0  0  0  0  0  0  0
   -7.4440   24.4649  -31.6675 H   0  0  0  0  0  0  0  0  0  0  0  0
  1  2  1  0
  2  3  1  0
  3  4  1  0
  4  5  1  0
  3  6  1  0
  6  7  1  0
  7  8  1  0
  8  9  1  0
  9 10  1  0
 10 11  1  0
 11 12  2  0
 12 13  1  0
 13 14  2  0
 14 15  1  0
 15 16  2  0
 16 17  1  0
 17 18  2  0
 18 19  1  0
 19 20  2  0
 20 21  1  0
 21 22  2  0
 22 23  1  0
 23 24  2  0
 24 25  1  0
 25 26  2  0
 20 11  1  0
 26 21  1  0
 18 13  1  0
  1 27  1  0
  1 28  1  0
  1 29  1  0
  2 30  1  0
  2 31  1  0
  4 32  1  0
  4 33  1  0
  5 34  1  0
  5 35  1  0
  5 36  1  0
  6 37  1  0
  6 38  1  0
  7 39  1  0
  7 40  1  0
  8 41  1  0
  8 42  1  0
  9 43  1  0
 10 44  1  0
 10 45  1  0
 12 46  1  0
 14 47  1  0
 15 48  1  0
 16 49  1  0
 17 50  1  0
 19 51  1  0
 22 52  1  0
 23 53  1  0
 24 54  1  0
 25 55  1  0
 26 56  1  0
M  CHG  1  19   1
M  END
>  <UniqueID>  (38) 
36

>  <SMILES>  (38) 
CCN(CC)CCCNCc1cc2ccccc2[nH+]c1-c1ccccc1

>  <Energy>  (38) 
70.31237111025374

>  <Genealogy>  (38) 
CCN(CC)CCCNCc1cc2ccccc2[nH+]c1-c1ccccc1 (protonated)
CCN(CC)CCCNCc1cc2ccccc2[nH+]c1-c1ccccc1 (3D coordinates assigned)
CCN(CC)CCCNCc1cc2ccccc2[nH+]c1-c1ccccc1 (optimized conformer: 70.31237111025374 kcal/mol)

>  <smiles>  (38) 
CCN(CC)CCCNCc1cc2ccccc2nc1-c1ccccc1

>  <score_type>  (38) 
oracle

>  <origin>  (38) 
adg

>  <m_score__min__energy>  (38) 
-8.1199999999999992

>  <m_primary>  (38) 
energy

$$$$
38:0
     RDKit          3D

 59 63  0  0  0  0  0  0  0  0999 V2000
   -3.1420   18.5060  -25.7510 C   0  0  0  0  0  0  0  0  0  0  0  0
   -2.0460   18.9510  -26.5480 O   0  0  0  0  0  0  0  0  0  0  0  0
   -1.9390   20.2340  -27.1040 C   0  0  0  0  0  0  0  0  0  0  0  0
   -3.1190   20.9000  -27.4720 C   0  0  0  0  0  0  0  0  0  0  0  0
   -3.0700   22.2000  -27.9840 C   0  0  0  0  0  0  0  0  0  0  0  0
   -1.8370   22.8460  -28.1520 C   0  0  0  0  0  0  0  0  0  0  0  0
   -1.8020   24.5440  -28.6360 S   0  0  0  0  0  0  0  0  0  0  0  0
   -0.4800   24.8220  -29.3070 O   0  0  0  0  0  0  0  0  0  0  0  0
   -1.9110   25.4130  -27.4070 O   0  0  0  0  0  0  0  0  0  0  0  0
   -3.0870   24.9520  -29.7490 N   0  0  0  0  0  0  0  0  0  0  0  0
   -3.8910   24.0070  -30.4680 C   0  0  0  0  0  0  0  0  0  0  0  0
   -3.3370   22.8450  -31.0180 C   0  0  0  0  0  0  0  0  0  0  0  0
   -4.1140   21.9740  -31.8000 C   0  0  0  0  0  0  0  0  0  0  0  0
   -3.4860   20.8230  -32.5070 C   0  0  0  0  0  0  0  0  0  0  0  0
   -2.1180   20.5390  -32.3300 C   0  0  0  0  0  0  0  0  0  0  0  0
   -1.5390   19.4160  -32.9280 C   0  0  0  0  0  0  0  0  0  0  0  0
   -2.3170   18.5470  -33.7040 C   0  0  0  0  0  0  0  0  0  0  0  0
   -1.7650   17.4350  -34.2650 N   0  0  0  0  0  0  0  0  0  0  0  0
   -2.5230   16.5760  -34.9970 C   0  0  0  0  0  0  0  0  0  0  0  0
   -3.8490   16.8110  -35.1710 N   0  0  0  0  0  0  0  0  0  0  0  0
   -4.4520   17.9070  -34.6350 C   0  0  0  0  0  0  0  0  0  0  0  0
   -5.8260   18.1190  -34.8080 O   0  0  0  0  0  0  0  0  0  0  0  0
   -6.8130   17.7500  -33.8410 C   0  0  0  0  0  0  0  0  0  0  0  0
   -6.2820   16.6170  -32.9270 C   0  0  0  0  0  0  0  0  0  0  0  0
   -5.8180   17.1690  -31.5710 C   0  0  0  0  0  0  0  0  0  0  0  0
   -6.8630   17.8070  -30.8440 O   0  0  0  0  0  0  0  0  0  0  0  0
   -7.7490   18.5840  -31.6470 C   0  0  0  0  0  0  0  0  0  0  0  0
   -7.1930   18.9950  -33.0230 C   0  0  0  0  0  0  0  0  0  0  0  0
   -3.6880   18.8190  -33.8900 C   0  0  0  0  0  0  0  0  0  0  0  0
   -4.2610   19.9610  -33.3070 C   0  0  0  0  0  0  0  0  0  0  0  0
   -5.4830   22.2540  -31.9300 C   0  0  0  0  0  0  0  0  0  0  0  0
   -6.0210   23.3490  -31.3290 N   0  0  0  0  0  0  0  0  0  0  0  0
   -5.2670   24.2210  -30.6080 C   0  0  0  0  0  0  0  0  0  0  0  0
   -6.0400   25.6290  -29.8950 Cl  0  0  0  0  0  0  0  0  0  0  0  0
   -0.6490   22.1650  -27.8360 C   0  0  0  0  0  0  0  0  0  0  0  0
   -0.6980   20.8730  -27.3000 C   0  0  0  0  0  0  0  0  0  0  0  0
   -2.8868   18.6096  -24.6860 H   0  0  0  0  0  0  0  0  0  0  0  0
   -4.0301   19.1148  -25.9762 H   0  0  0  0  0  0  0  0  0  0  0  0
   -3.3543   17.4504  -25.9762 H   0  0  0  0  0  0  0  0  0  0  0  0
   -4.0894   20.3951  -27.3566 H   0  0  0  0  0  0  0  0  0  0  0  0
   -4.0017   22.7177  -28.2559 H   0  0  0  0  0  0  0  0  0  0  0  0
   -2.2779   22.6105  -30.8353 H   0  0  0  0  0  0  0  0  0  0  0  0
   -1.4985   21.2080  -31.7146 H   0  0  0  0  0  0  0  0  0  0  0  0
   -0.4668   19.2135  -32.7885 H   0  0  0  0  0  0  0  0  0  0  0  0
   -0.7500   17.2230  -34.1360 H   0  0  0  0  0  0  0  0  0  0  0  0
   -2.0602   15.6869  -35.4502 H   0  0  0  0  0  0  0  0  0  0  0  0
   -7.7095   17.3659  -34.3497 H   0  0  0  0  0  0  0  0  0  0  0  0
   -7.0853   15.8843  -32.7603 H   0  0  0  0  0  0  0  0  0  0  0  0
   -5.4220   16.1434  -33.4231 H   0  0  0  0  0  0  0  0  0  0  0  0
   -5.4292   16.3355  -30.9676 H   0  0  0  0  0  0  0  0  0  0  0  0
   -5.0455   17.9263  -31.7705 H   0  0  0  0  0  0  0  0  0  0  0  0
   -8.6642   17.9962  -31.8110 H   0  0  0  0  0  0  0  0  0  0  0  0
   -7.9221   19.5194  -31.0948 H   0  0  0  0  0  0  0  0  0  0  0  0
   -7.9591   19.5665  -33.5675 H   0  0  0  0  0  0  0  0  0  0  0  0
   -6.2948   19.6126  -32.8750 H   0  0  0  0  0  0  0  0  0  0  0  0
   -5.3247   20.1842  -33.4767 H   0  0  0  0  0  0  0  0  0  0  0  0
   -6.1245   21.5841  -32.5213 H   0  0  0  0  0  0  0  0  0  0  0  0
    0.3231   22.6492  -28.0106 H   0  0  0  0  0  0  0  0  0  0  0  0
    0.2343   20.3549  -27.0310 H   0  0  0  0  0  0  0  0  0  0  0  0
  1  2  1  0
  2  3  1  0
  3  4  2  0
  4  5  1  0
  5  6  2  0
  6  7  1  0
  7  8  2  0
  7  9  2  0
  7 10  1  0
 10 11  1  0
 11 12  2  0
 12 13  1  0
 13 14  1  0
 14 15  2  0
 15 16  1  0
 16 17  2  0
 17 18  1  0
 18 19  2  0
 19 20  1  0
 20 21  2  0
 21 22  1  0
 22 23  1  0
 23 24  1  0
 24 25  1  0
 25 26  1  0
 26 27  1  0
 27 28  1  0
 21 29  1  0
 29 30  2  0
 13 31  2  0
 31 32  1  0
 32 33  2  0
 33 34  1  0
  6 35  1  0
 35 36  2  0
 36  3  1  0
 33 11  1  0
 30 14  1  0
 29 17  1  0
 28 23  1  0
  1 37  1  0
  1 38  1  0
  1 39  1  0
  4 40  1  0
  5 41  1  0
 12 42  1  0
 15 43  1  0
 16 44  1  0
 18 45  1  0
 19 46  1  0
 23 47  1  0
 24 48  1  0
 24 49  1  0
 25 50  1  0
 25 51  1  0
 27 52  1  0
 27 53  1  0
 28 54  1  0
 28 55  1  0
 30 56  1  0
 31 57  1  0
 35 58  1  0
 36 59  1  0
M  CHG  2  10  -1  18   1
M  END
>  <UniqueID>  (39) 
37

>  <SMILES>  (39) 
COc1ccc(S(=O)(=O)[N-]c2cc(-c3ccc4[nH+]cnc(OC5CCOCC5)c4c3)cnc2Cl)cc1

>  <Energy>  (39) 
86.1272230047396

>  <Genealogy>  (39) 
COc1ccc(S(=O)(=O)[N-]c2cc(-c3ccc4[nH+]cnc(OC5CCOCC5)c4c3)cnc2Cl)cc1 (protonated)
COc1ccc(S(=O)(=O)[N-]c2cc(-c3ccc4[nH+]cnc(OC5CCOCC5)c4c3)cnc2Cl)cc1 (3D coordinates assigned)
COc1ccc(S(=O)(=O)[N-]c2cc(-c3ccc4[nH+]cnc(OC5CCOCC5)c4c3)cnc2Cl)cc1 (nonaromatic ring conformer: 86.1272230047396 kcal/mol)

>  <smiles>  (39) 
COc1ccc(S(=O)(=O)Nc2cc(-c3ccc4ncnc(OC5CCOCC5)c4c3)cnc2Cl)cc1

>  <score_type>  (39) 
oracle

>  <origin>  (39) 
adg

>  <m_score__min__energy>  (39) 
-11.74

>  <m_primary>  (39) 
energy

$$$$
39:0
     RDKit          3D

 28 30  0  0  0  0  0  0  0  0999 V2000
   -6.3380   18.9300  -31.2630 C   0  0  0  0  0  0  0  0  0  0  0  0
   -6.6280   20.2480  -31.9930 C   0  0  1  0  0  0  0  0  0  0  0  0
   -7.3920   20.0410  -33.3140 C   0  0  0  0  0  0  0  0  0  0  0  0
   -8.8860   19.6850  -33.0950 C   0  0  0  0  0  0  0  0  0  0  0  0
   -9.4770   20.1410  -31.7320 C   0  0  0  0  0  0  0  0  0  0  0  0
   -8.7050   21.2250  -31.1250 N   0  0  0  0  0  0  0  0  0  0  0  0
   -7.4090   21.1990  -31.1420 C   0  0  0  0  0  0  0  0  0  0  0  0
   -6.5620   22.3340  -30.8420 C   0  0  0  0  0  0  0  0  0  0  0  0
   -5.4200   22.1590  -31.4810 C   0  0  0  0  0  0  0  0  0  0  0  0
   -4.2910   23.1510  -31.4500 C   0  0  0  0  0  0  0  0  0  0  0  0
   -4.6420   24.3770  -30.6340 C   0  0  0  0  0  0  0  0  0  0  0  0
   -3.7970   25.3040  -30.5190 O   0  0  0  0  0  0  0  0  0  0  0  0
   -5.9600   24.5110  -29.9680 C   0  0  0  0  0  0  0  0  0  0  0  0
   -6.8750   23.5420  -30.0680 C   0  0  0  0  0  0  0  0  0  0  0  0
   -5.4080   20.9640  -32.1980 O   0  0  0  0  0  0  0  0  0  0  0  0
   -6.3747   19.0969  -30.1764 H   0  0  0  0  0  0  0  0  0  0  0  0
   -7.0928   18.1811  -31.5446 H   0  0  0  0  0  0  0  0  0  0  0  0
   -5.3385   18.5671  -31.5446 H   0  0  0  0  0  0  0  0  0  0  0  0
   -7.3343   20.9686  -33.9024 H   0  0  0  0  0  0  0  0  0  0  0  0
   -6.9235   19.1952  -33.8385 H   0  0  0  0  0  0  0  0  0  0  0  0
   -9.4709   20.1598  -33.8965 H   0  0  0  0  0  0  0  0  0  0  0  0
   -8.9446   18.5866  -33.1034 H   0  0  0  0  0  0  0  0  0  0  0  0
  -10.5083   20.4885  -31.8925 H   0  0  0  0  0  0  0  0  0  0  0  0
   -9.4439   19.2809  -31.0471 H   0  0  0  0  0  0  0  0  0  0  0  0
   -3.4064   22.6699  -31.0073 H   0  0  0  0  0  0  0  0  0  0  0  0
   -4.0906   23.4733  -32.4825 H   0  0  0  0  0  0  0  0  0  0  0  0
   -6.1868   25.4165  -29.3861 H   0  0  0  0  0  0  0  0  0  0  0  0
   -7.8528   23.6483  -29.5754 H   0  0  0  0  0  0  0  0  0  0  0  0
  2  1  1  1
  2  3  1  0
  3  4  1  0
  4  5  1  0
  5  6  1  0
  6  7  2  0
  7  8  1  0
  8  9  2  0
  9 10  1  0
 10 11  1  0
 11 12  2  0
 11 13  1  0
 13 14  2  0
  9 15  1  0
  7  2  1  0
 14  8  1  0
 15  2  1  0
  1 16  1  0
  1 17  1  0
  1 18  1  0
  3 19  1  0
  3 20  1  0
  4 21  1  0
  4 22  1  0
  5 23  1  0
  5 24  1  0
 10 25  1  0
 10 26  1  0
 13 27  1  0
 14 28  1  0
M  END
>  <UniqueID>  (40) 
38

>  <SMILES>  (40) 
C[C@@]12CCCN=C1C1=C(CC(=O)C=C1)O2

>  <Energy>  (40) 
52.87710891053095

>  <Genealogy>  (40) 
C[C@@]12CCCN=C1C1=C(CC(=O)C=C1)O2 (chirality)
C[C@@]12CCCN=C1C1=C(CC(=O)C=C1)O2 (3D coordinates assigned)
C[C@@]12CCCN=C1C1=C(CC(=O)C=C1)O2 (nonaromatic ring conformer: 52.87710891053095 kcal/mol)

>  <smiles>  (40) 
CC12CCCN=C1C1=C(CC(=O)C=C1)O2

>  <score_type>  (40) 
oracle

>  <origin>  (40) 
adg

>  <m_score__min__energy>  (40) 
-6.96

>  <m_primary>  (40) 
energy

$$$$
40:0
     RDKit          3D

 53 56  0  0  0  0  0  0  0  0999 V2000
    0.2420   20.9550  -27.8280 C   0  0  0  0  0  0  0  0  0  0  0  0
    0.1670   22.4170  -27.9320 N   0  0  0  0  0  0  0  0  0  0  0  0
    1.0230   23.2700  -27.1010 C   0  0  0  0  0  0  0  0  0  0  0  0
   -0.7160   23.0280  -28.8960 C   0  0  0  0  0  0  0  0  0  0  0  0
   -0.7310   24.2820  -29.0370 O   0  0  0  0  0  0  0  0  0  0  0  0
   -1.5290   22.2260  -29.7650 N   0  0  0  0  0  0  0  0  0  0  0  0
   -1.2370   22.2730  -31.2040 C   0  0  0  0  0  0  0  0  0  0  0  0
   -1.7750   21.0230  -31.9030 C   0  0  0  0  0  0  0  0  0  0  0  0
   -3.2330   20.8250  -31.6660 N   0  0  0  0  0  0  0  0  0  0  0  0
   -3.6450   19.4430  -31.9860 C   0  0  0  0  0  0  0  0  0  0  0  0
   -5.0960   19.3730  -32.3880 C   0  0  0  0  0  0  0  0  0  0  0  0
   -5.9870   18.5300  -31.7120 C   0  0  0  0  0  0  0  0  0  0  0  0
   -7.3190   18.4530  -32.1190 C   0  0  0  0  0  0  0  0  0  0  0  0
   -7.7540   19.2150  -33.1600 N   0  0  0  0  0  0  0  0  0  0  0  0
   -6.9130   20.0500  -33.8330 C   0  0  0  0  0  0  0  0  0  0  0  0
   -5.5660   20.1350  -33.4650 C   0  0  0  0  0  0  0  0  0  0  0  0
   -3.7170   21.2380  -30.3150 C   0  0  2  0  0  0  0  0  0  0  0  0
   -4.4290   22.5810  -30.3930 C   0  0  0  0  0  0  0  0  0  0  0  0
   -5.0810   22.9790  -31.5830 C   0  0  0  0  0  0  0  0  0  0  0  0
   -5.7380   24.2080  -31.6570 C   0  0  0  0  0  0  0  0  0  0  0  0
   -5.7890   25.0410  -30.5400 C   0  0  0  0  0  0  0  0  0  0  0  0
   -5.2000   24.6420  -29.3420 C   0  0  0  0  0  0  0  0  0  0  0  0
   -4.5200   23.4150  -29.2490 C   0  0  0  0  0  0  0  0  0  0  0  0
   -3.8910   23.0490  -27.9220 C   0  0  0  0  0  0  0  0  0  0  0  0
   -3.1580   21.6930  -27.9090 C   0  0  0  0  0  0  0  0  0  0  0  0
   -2.5720   21.3020  -29.2790 C   0  0  2  0  0  0  0  0  0  0  0  0
    0.2570   20.6631  -26.7675 H   0  0  0  0  0  0  0  0  0  0  0  0
   -0.6343   20.5070  -28.3193 H   0  0  0  0  0  0  0  0  0  0  0  0
    1.1596   20.5990  -28.3193 H   0  0  0  0  0  0  0  0  0  0  0  0
    0.8208   23.0685  -26.0387 H   0  0  0  0  0  0  0  0  0  0  0  0
    2.0791   23.0545  -27.3205 H   0  0  0  0  0  0  0  0  0  0  0  0
    0.8112   24.3269  -27.3205 H   0  0  0  0  0  0  0  0  0  0  0  0
   -1.7119   23.1641  -31.6405 H   0  0  0  0  0  0  0  0  0  0  0  0
   -0.1468   22.3163  -31.3437 H   0  0  0  0  0  0  0  0  0  0  0  0
   -1.6027   21.1211  -32.9850 H   0  0  0  0  0  0  0  0  0  0  0  0
   -1.2457   20.1521  -31.4889 H   0  0  0  0  0  0  0  0  0  0  0  0
   -3.0268   19.0697  -32.8157 H   0  0  0  0  0  0  0  0  0  0  0  0
   -3.5086   18.8271  -31.0849 H   0  0  0  0  0  0  0  0  0  0  0  0
   -5.6365   17.9287  -30.8602 H   0  0  0  0  0  0  0  0  0  0  0  0
   -8.0160   17.7784  -31.6003 H   0  0  0  0  0  0  0  0  0  0  0  0
   -8.7540   19.1510  -33.4510 H   0  0  0  0  0  0  0  0  0  0  0  0
   -7.2939   20.6580  -34.6668 H   0  0  0  0  0  0  0  0  0  0  0  0
   -4.8812   20.7953  -34.0173 H   0  0  0  0  0  0  0  0  0  0  0  0
   -4.4266   20.4690  -29.9757 H   0  0  0  0  0  0  0  0  0  0  0  0
   -5.0702   22.3135  -32.4588 H   0  0  0  0  0  0  0  0  0  0  0  0
   -6.2160   24.5198  -32.5973 H   0  0  0  0  0  0  0  0  0  0  0  0
   -6.2954   26.0154  -30.6047 H   0  0  0  0  0  0  0  0  0  0  0  0
   -5.2678   25.2944  -28.4590 H   0  0  0  0  0  0  0  0  0  0  0  0
   -3.1658   23.8331  -27.6587 H   0  0  0  0  0  0  0  0  0  0  0  0
   -4.7165   22.9630  -27.2001 H   0  0  0  0  0  0  0  0  0  0  0  0
   -2.3355   21.7481  -27.1807 H   0  0  0  0  0  0  0  0  0  0  0  0
   -3.8991   20.9254  -27.6414 H   0  0  0  0  0  0  0  0  0  0  0  0
   -2.0879   20.3227  -29.1501 H   0  0  0  0  0  0  0  0  0  0  0  0
  1  2  1  0
  2  3  1  0
  2  4  1  0
  4  5  2  0
  4  6  1  0
  6  7  1  0
  7  8  1  0
  8  9  1  0
  9 10  1  0
 10 11  1  0
 11 12  2  0
 12 13  1  0
 13 14  2  0
 14 15  1  0
 15 16  2  0
  9 17  1  0
 17 18  1  0
 18 19  2  0
 19 20  1  0
 20 21  2  0
 21 22  1  0
 22 23  2  0
 23 24  1  0
 24 25  1  0
 25 26  1  0
 26  6  1  0
 16 11  1  0
 26 17  1  0
 23 18  1  0
  1 27  1  0
  1 28  1  0
  1 29  1  0
  3 30  1  0
  3 31  1  0
  3 32  1  0
  7 33  1  0
  7 34  1  0
  8 35  1  0
  8 36  1  0
 10 37  1  0
 10 38  1  0
 12 39  1  0
 13 40  1  0
 14 41  1  0
 15 42  1  0
 16 43  1  0
 17 44  1  1
 19 45  1  0
 20 46  1  0
 21 47  1  0
 22 48  1  0
 24 49  1  0
 24 50  1  0
 25 51  1  0
 25 52  1  0
 26 53  1  1
M  CHG  1  14   1
M  END
>  <UniqueID>  (41) 
39

>  <SMILES>  (41) 
CN(C)C(=O)N1CCN(Cc2cc[nH+]cc2)[C@@H]2c3ccccc3CC[C@@H]21

>  <Energy>  (41) 
72.90768983481667

>  <Genealogy>  (41) 
CN(C)C(=O)N1CCN(Cc2cc[nH+]cc2)C2c3ccccc3CCC21 (protonated)
CN(C)C(=O)N1CCN(Cc2cc[nH+]cc2)[C@@H]2c3ccccc3CC[C@@H]21 (chirality)
CN(C)C(=O)N1CCN(Cc2cc[nH+]cc2)[C@@H]2c3ccccc3CC[C@@H]21 (3D coordinates assigned)
CN(C)C(=O)N1CCN(Cc2cc[nH+]cc2)[C@@H]2c3ccccc3CC[C@@H]21 (nonaromatic ring conformer: 72.90768983481667 kcal/mol)

>  <smiles>  (41) 
CN(C)C(=O)N1CCN(Cc2ccncc2)C2c3ccccc3CCC21

>  <score_type>  (41) 
oracle

>  <origin>  (41) 
adg

>  <m_score__min__energy>  (41) 
-7.3099999999999996

>  <m_primary>  (41) 
energy

$$$$
41:0
     RDKit          3D

 30 32  0  0  0  0  0  0  0  0999 V2000
   -6.4910   26.0500  -29.3760 C   0  0  0  0  0  0  0  0  0  0  0  0
   -5.5850   25.0190  -29.9580 C   0  0  0  0  0  0  0  0  0  0  0  0
   -4.6050   25.3000  -30.8400 N   0  0  0  0  0  0  0  0  0  0  0  0
   -4.0930   24.1480  -31.1430 O   0  0  0  0  0  0  0  0  0  0  0  0
   -4.7270   23.1990  -30.4970 C   0  0  0  0  0  0  0  0  0  0  0  0
   -4.3950   21.7390  -30.5950 C   0  0  2  0  0  0  0  0  0  0  0  0
   -2.8620   21.5420  -30.7630 C   0  0  0  0  0  0  0  0  0  0  0  0
   -2.6770   21.0400  -32.1170 N   0  0  0  0  0  0  0  0  0  0  0  0
   -3.9500   20.8080  -32.6710 C   0  0  0  0  0  0  0  0  0  0  0  0
   -4.1190   20.3820  -33.8440 O   0  0  0  0  0  0  0  0  0  0  0  0
   -5.0070   21.1540  -31.7930 N   0  0  0  0  0  0  0  0  0  0  0  0
   -6.3740   20.6970  -31.8860 C   0  0  0  0  0  0  0  0  0  0  0  0
   -6.6580   19.3280  -32.0460 C   0  0  0  0  0  0  0  0  0  0  0  0
   -7.9800   18.8850  -32.1460 C   0  0  0  0  0  0  0  0  0  0  0  0
   -9.0330   19.8000  -32.0970 C   0  0  0  0  0  0  0  0  0  0  0  0
   -8.7650   21.1630  -31.9540 C   0  0  0  0  0  0  0  0  0  0  0  0
   -7.4450   21.6110  -31.8520 C   0  0  0  0  0  0  0  0  0  0  0  0
   -5.7050   23.6970  -29.7160 N   0  0  0  0  0  0  0  0  0  0  0  0
   -6.4466   25.9994  -28.2781 H   0  0  0  0  0  0  0  0  0  0  0  0
   -6.1728   27.0485  -29.7103 H   0  0  0  0  0  0  0  0  0  0  0  0
   -7.5221   25.8628  -29.7103 H   0  0  0  0  0  0  0  0  0  0  0  0
   -4.7664   21.2608  -29.6767 H   0  0  0  0  0  0  0  0  0  0  0  0
   -2.3355   22.4991  -30.6332 H   0  0  0  0  0  0  0  0  0  0  0  0
   -2.4566   20.8472  -30.0127 H   0  0  0  0  0  0  0  0  0  0  0  0
   -1.7630   20.8110  -32.5650 H   0  0  0  0  0  0  0  0  0  0  0  0
   -5.8336   18.6012  -32.0927 H   0  0  0  0  0  0  0  0  0  0  0  0
   -8.1912   17.8119  -32.2637 H   0  0  0  0  0  0  0  0  0  0  0  0
  -10.0725   19.4479  -32.1709 H   0  0  0  0  0  0  0  0  0  0  0  0
   -9.5941   21.8852  -31.9216 H   0  0  0  0  0  0  0  0  0  0  0  0
   -7.2409   22.6865  -31.7443 H   0  0  0  0  0  0  0  0  0  0  0  0
  1  2  1  0
  2  3  2  0
  3  4  1  0
  4  5  1  0
  5  6  1  0
  6  7  1  0
  7  8  1  0
  8  9  1  0
  9 10  2  0
  9 11  1  0
 11 12  1  0
 12 13  2  0
 13 14  1  0
 14 15  2  0
 15 16  1  0
 16 17  2  0
  5 18  2  0
 18  2  1  0
 11  6  1  0
 17 12  1  0
  1 19  1  0
  1 20  1  0
  1 21  1  0
  6 22  1  1
  7 23  1  0
  7 24  1  0
  8 25  1  0
 13 26  1  0
 14 27  1  0
 15 28  1  0
 16 29  1  0
 17 30  1  0
M  END
>  <UniqueID>  (42) 
40

>  <SMILES>  (42) 
Cc1noc([C@@H]2CNC(=O)N2c2ccccc2)n1

>  <Energy>  (42) 
80.4544551136261

>  <Genealogy>  (42) 
Cc1noc([C@@H]2CNC(=O)N2c2ccccc2)n1 (chirality)
Cc1noc([C@@H]2CNC(=O)N2c2ccccc2)n1 (3D coordinates assigned)
Cc1noc([C@@H]2CNC(=O)N2c2ccccc2)n1 (nonaromatic ring conformer: 80.4544551136261 kcal/mol)

>  <smiles>  (42) 
Cc1noc(C2CNC(=O)N2c2ccccc2)n1

>  <score_type>  (42) 
oracle

>  <origin>  (42) 
adg

>  <m_score__min__energy>  (42) 
-7.3099999999999996

>  <m_primary>  (42) 
energy

$$$$
42:0
     RDKit          3D

 55 59  0  0  0  0  0  0  0  0999 V2000
   -6.0710   14.8690  -34.2160 C   0  0  0  0  0  0  0  0  0  0  0  0
   -7.0860   15.8570  -34.0790 O   0  0  0  0  0  0  0  0  0  0  0  0
   -6.8690   17.1480  -33.5780 C   0  0  0  0  0  0  0  0  0  0  0  0
   -7.4540   17.6000  -32.3790 C   0  0  0  0  0  0  0  0  0  0  0  0
   -7.2020   18.8960  -31.9190 C   0  0  0  0  0  0  0  0  0  0  0  0
   -6.3650   19.7540  -32.6420 C   0  0  0  0  0  0  0  0  0  0  0  0
   -6.1050   21.0830  -32.1610 N   0  0  0  0  0  0  0  0  0  0  0  0
   -7.0300   22.0630  -32.0010 C   0  0  0  0  0  0  0  0  0  0  0  0
   -8.2530   21.9540  -32.2830 O   0  0  0  0  0  0  0  0  0  0  0  0
   -6.4140   23.1810  -31.4860 C   0  0  0  0  0  0  0  0  0  0  0  0
   -6.8610   24.4440  -31.1180 C   0  0  0  0  0  0  0  0  0  0  0  0
   -5.9020   25.3320  -30.5980 C   0  0  0  0  0  0  0  0  0  0  0  0
   -4.5540   24.9210  -30.4680 C   0  0  0  0  0  0  0  0  0  0  0  0
   -4.1690   23.6620  -30.8420 N   0  0  0  0  0  0  0  0  0  0  0  0
   -5.1050   22.8200  -31.3470 C   0  0  0  0  0  0  0  0  0  0  0  0
   -4.9220   21.5450  -31.7490 N   0  0  0  0  0  0  0  0  0  0  0  0
   -3.6680   20.7880  -31.6760 C   0  0  0  0  0  0  0  0  0  0  0  0
   -2.4840   21.7020  -31.4900 C   0  0  0  0  0  0  0  0  0  0  0  0
   -1.8680   22.1240  -32.5080 O   0  0  0  0  0  0  0  0  0  0  0  0
   -2.0490   22.1150  -30.1760 N   0  0  0  0  0  0  0  0  0  0  0  0
   -2.8890   21.9130  -28.9830 C   0  0  0  0  0  0  0  0  0  0  0  0
   -2.8650   23.1490  -28.0650 C   0  0  0  0  0  0  0  0  0  0  0  0
   -1.4890   23.8660  -27.9850 C   0  0  0  0  0  0  0  0  0  0  0  0
   -0.3650   22.9900  -28.5630 C   0  0  0  0  0  0  0  0  0  0  0  0
   -0.6700   22.6070  -30.0160 C   0  0  0  0  0  0  0  0  0  0  0  0
   -1.5540   25.0650  -28.7340 O   0  0  0  0  0  0  0  0  0  0  0  0
   -1.2330   26.0930  -27.8510 C   0  0  0  0  0  0  0  0  0  0  0  0
   -1.3390   25.5130  -26.4780 C   0  0  0  0  0  0  0  0  0  0  0  0
   -1.1910   24.1370  -26.6310 O   0  0  0  0  0  0  0  0  0  0  0  0
   -5.7960   19.3090  -33.8460 C   0  0  0  0  0  0  0  0  0  0  0  0
   -6.0450   18.0140  -34.3060 C   0  0  0  0  0  0  0  0  0  0  0  0
   -5.7379   14.5448  -33.2190 H   0  0  0  0  0  0  0  0  0  0  0  0
   -6.4717   14.0057  -34.7674 H   0  0  0  0  0  0  0  0  0  0  0  0
   -5.2188   15.2928  -34.7674 H   0  0  0  0  0  0  0  0  0  0  0  0
   -8.1109   16.9315  -31.8031 H   0  0  0  0  0  0  0  0  0  0  0  0
   -7.6643   19.2435  -30.9833 H   0  0  0  0  0  0  0  0  0  0  0  0
   -7.9158   24.7359  -31.2282 H   0  0  0  0  0  0  0  0  0  0  0  0
   -6.1998   26.3459  -30.2924 H   0  0  0  0  0  0  0  0  0  0  0  0
   -3.8082   25.6204  -30.0623 H   0  0  0  0  0  0  0  0  0  0  0  0
   -3.7194   20.0914  -30.8262 H   0  0  0  0  0  0  0  0  0  0  0  0
   -3.5381   20.2412  -32.6216 H   0  0  0  0  0  0  0  0  0  0  0  0
   -3.9246   21.7238  -29.3020 H   0  0  0  0  0  0  0  0  0  0  0  0
   -2.4918   21.0553  -28.4203 H   0  0  0  0  0  0  0  0  0  0  0  0
   -3.6066   23.8697  -28.4399 H   0  0  0  0  0  0  0  0  0  0  0  0
   -3.0895   22.7891  -27.0501 H   0  0  0  0  0  0  0  0  0  0  0  0
    0.5822   23.5481  -28.5278 H   0  0  0  0  0  0  0  0  0  0  0  0
   -0.2887   22.0710  -27.9633 H   0  0  0  0  0  0  0  0  0  0  0  0
   -0.5321   23.4926  -30.6537 H   0  0  0  0  0  0  0  0  0  0  0  0
    0.0166   21.7983  -30.3069 H   0  0  0  0  0  0  0  0  0  0  0  0
   -0.2088   26.4488  -28.0364 H   0  0  0  0  0  0  0  0  0  0  0  0
   -1.9075   26.9530  -27.9755 H   0  0  0  0  0  0  0  0  0  0  0  0
   -0.5443   25.9135  -25.8314 H   0  0  0  0  0  0  0  0  0  0  0  0
   -2.3004   25.7652  -26.0068 H   0  0  0  0  0  0  0  0  0  0  0  0
   -5.1515   19.9830  -34.4293 H   0  0  0  0  0  0  0  0  0  0  0  0
   -5.5901   17.6721  -35.2474 H   0  0  0  0  0  0  0  0  0  0  0  0
  1  2  1  0
  2  3  1  0
  3  4  2  0
  4  5  1  0
  5  6  2  0
  6  7  1  0
  7  8  1  0
  8  9  2  0
  8 10  1  0
 10 11  2  0
 11 12  1  0
 12 13  2  0
 13 14  1  0
 14 15  2  0
 15 16  1  0
 16 17  1  0
 17 18  1  0
 18 19  2  0
 18 20  1  0
 20 21  1  0
 21 22  1  0
 22 23  1  0
 23 24  1  0
 24 25  1  0
 23 26  1  0
 26 27  1  0
 27 28  1  0
 28 29  1  0
  6 30  1  0
 30 31  2  0
 31  3  1  0
 16  7  1  0
 25 20  1  0
 15 10  1  0
 29 23  1  0
  1 32  1  0
  1 33  1  0
  1 34  1  0
  4 35  1  0
  5 36  1  0
 11 37  1  0
 12 38  1  0
 13 39  1  0
 17 40  1  0
 17 41  1  0
 21 42  1  0
 21 43  1  0
 22 44  1  0
 22 45  1  0
 24 46  1  0
 24 47  1  0
 25 48  1  0
 25 49  1  0
 27 50  1  0
 27 51  1  0
 28 52  1  0
 28 53  1  0
 30 54  1  0
 31 55  1  0
M  END
>  <UniqueID>  (43) 
41

>  <SMILES>  (43) 
COc1ccc(-n2c(=O)c3cccnc3n2CC(=O)N2CCC3(CC2)OCCO3)cc1

>  <Energy>  (43) 
109.03640113892185

>  <Genealogy>  (43) 
COc1ccc(-n2c(=O)c3cccnc3n2CC(=O)N2CCC3(CC2)OCCO3)cc1 (3D coordinates assigned)
COc1ccc(-n2c(=O)c3cccnc3n2CC(=O)N2CCC3(CC2)OCCO3)cc1 (nonaromatic ring conformer: 109.03640113892185 kcal/mol)

>  <smiles>  (43) 
COc1ccc(-n2c(=O)c3cccnc3n2CC(=O)N2CCC3(CC2)OCCO3)cc1

>  <score_type>  (43) 
oracle

>  <origin>  (43) 
adg

>  <m_score__min__energy>  (43) 
-9.0199999999999996

>  <m_primary>  (43) 
energy

$$$$
43:0
     RDKit          3D

 44 45  0  0  0  0  0  0  0  0999 V2000
   -1.6200   20.3780  -26.4640 C   0  0  0  0  0  0  0  0  0  0  0  0
   -1.5200   21.5200  -27.3060 O   0  0  0  0  0  0  0  0  0  0  0  0
   -1.6950   21.5000  -28.6990 C   0  0  0  0  0  0  0  0  0  0  0  0
   -1.4590   20.3440  -29.4690 C   0  0  0  0  0  0  0  0  0  0  0  0
   -1.6490   20.3690  -30.8530 C   0  0  0  0  0  0  0  0  0  0  0  0
   -2.0740   21.5410  -31.4820 C   0  0  0  0  0  0  0  0  0  0  0  0
   -2.3110   22.6920  -30.7290 C   0  0  0  0  0  0  0  0  0  0  0  0
   -2.1220   22.6760  -29.3400 C   0  0  0  0  0  0  0  0  0  0  0  0
   -2.3720   23.8620  -28.5760 N   0  0  0  0  0  0  0  0  0  0  0  0
   -3.7480   24.2560  -28.2700 C   0  0  0  0  0  0  0  0  0  0  0  0
   -4.4930   24.5520  -29.5360 C   0  0  0  0  0  0  0  0  0  0  0  0
   -3.8960   25.1140  -30.4930 O   0  0  0  0  0  0  0  0  0  0  0  0
   -5.8630   24.1470  -29.6720 N   0  0  0  0  0  0  0  0  0  0  0  0
   -6.6050   24.3010  -30.9210 C   0  0  0  0  0  0  0  0  0  0  0  0
   -6.9470   22.9530  -31.4950 C   0  0  0  0  0  0  0  0  0  0  0  0
   -5.9660   22.1790  -32.1370 C   0  0  0  0  0  0  0  0  0  0  0  0
   -6.2970   20.9350  -32.6830 C   0  0  0  0  0  0  0  0  0  0  0  0
   -7.6080   20.4580  -32.5940 C   0  0  0  0  0  0  0  0  0  0  0  0
   -8.5900   21.2240  -31.9630 C   0  0  0  0  0  0  0  0  0  0  0  0
   -8.2630   22.4690  -31.4150 C   0  0  0  0  0  0  0  0  0  0  0  0
   -1.0560   24.9270  -28.1890 S   0  0  0  0  0  0  0  0  0  0  0  0
   -1.0100   25.2660  -26.4400 C   0  0  0  0  0  0  0  0  0  0  0  0
   -1.2290   26.2260  -28.9220 O   0  0  0  0  0  0  0  0  0  0  0  0
    0.2390   24.2860  -28.5990 O   0  0  0  0  0  0  0  0  0  0  0  0
   -1.5922   20.6952  -25.4111 H   0  0  0  0  0  0  0  0  0  0  0  0
   -2.5673   19.8562  -26.6649 H   0  0  0  0  0  0  0  0  0  0  0  0
   -0.7778   19.6995  -26.6649 H   0  0  0  0  0  0  0  0  0  0  0  0
   -1.1238   19.4181  -28.9787 H   0  0  0  0  0  0  0  0  0  0  0  0
   -1.4633   19.4631  -31.4487 H   0  0  0  0  0  0  0  0  0  0  0  0
   -2.2221   21.5571  -32.5719 H   0  0  0  0  0  0  0  0  0  0  0  0
   -2.6468   23.6138  -31.2265 H   0  0  0  0  0  0  0  0  0  0  0  0
   -4.2506   23.4366  -27.7353 H   0  0  0  0  0  0  0  0  0  0  0  0
   -3.7325   25.1590  -27.6421 H   0  0  0  0  0  0  0  0  0  0  0  0
   -6.3350   23.6770  -28.8670 H   0  0  0  0  0  0  0  0  0  0  0  0
   -7.5331   24.8581  -30.7254 H   0  0  0  0  0  0  0  0  0  0  0  0
   -5.9812   24.8492  -31.6424 H   0  0  0  0  0  0  0  0  0  0  0  0
   -4.9341   22.5528  -32.2104 H   0  0  0  0  0  0  0  0  0  0  0  0
   -5.5252   20.3313  -33.1829 H   0  0  0  0  0  0  0  0  0  0  0  0
   -7.8662   19.4780  -33.0216 H   0  0  0  0  0  0  0  0  0  0  0  0
   -9.6217   20.8483  -31.8967 H   0  0  0  0  0  0  0  0  0  0  0  0
   -9.0392   23.0709  -30.9198 H   0  0  0  0  0  0  0  0  0  0  0  0
   -1.1374   24.3272  -25.8811 H   0  0  0  0  0  0  0  0  0  0  0  0
   -0.0421   25.7193  -26.1797 H   0  0  0  0  0  0  0  0  0  0  0  0
   -1.8221   25.9608  -26.1797 H   0  0  0  0  0  0  0  0  0  0  0  0
  1  2  1  0
  2  3  1  0
  3  4  2  0
  4  5  1  0
  5  6  2  0
  6  7  1  0
  7  8  2  0
  8  9  1  0
  9 10  1  0
 10 11  1  0
 11 12  2  0
 11 13  1  0
 13 14  1  0
 14 15  1  0
 15 16  2  0
 16 17  1  0
 17 18  2  0
 18 19  1  0
 19 20  2  0
  9 21  1  0
 21 22  1  0
 21 23  2  0
 21 24  2  0
  8  3  1  0
 20 15  1  0
  1 25  1  0
  1 26  1  0
  1 27  1  0
  4 28  1  0
  5 29  1  0
  6 30  1  0
  7 31  1  0
 10 32  1  0
 10 33  1  0
 13 34  1  0
 14 35  1  0
 14 36  1  0
 16 37  1  0
 17 38  1  0
 18 39  1  0
 19 40  1  0
 20 41  1  0
 22 42  1  0
 22 43  1  0
 22 44  1  0
M  END
>  <UniqueID>  (44) 
42

>  <SMILES>  (44) 
COc1ccccc1N(CC(=O)NCc1ccccc1)S(C)(=O)=O

>  <Energy>  (44) 
39.53674777402682

>  <Genealogy>  (44) 
COc1ccccc1N(CC(=O)NCc1ccccc1)S(C)(=O)=O (3D coordinates assigned)
COc1ccccc1N(CC(=O)NCc1ccccc1)S(C)(=O)=O (optimized conformer: 39.53674777402682 kcal/mol)

>  <smiles>  (44) 
COc1ccccc1N(CC(=O)NCc1ccccc1)S(C)(=O)=O

>  <score_type>  (44) 
oracle

>  <origin>  (44) 
adg

>  <m_score__min__energy>  (44) 
-8.5099999999999998

>  <m_primary>  (44) 
energy

$$$$
44:0
     RDKit          3D

 53 57  0  0  0  0  0  0  0  0999 V2000
   -4.6020   12.9130  -34.5470 C   0  0  0  0  0  0  0  0  0  0  0  0
   -4.3100   13.8020  -35.6200 O   0  0  0  0  0  0  0  0  0  0  0  0
   -3.0570   14.3960  -35.8560 C   0  0  0  0  0  0  0  0  0  0  0  0
   -2.0280   13.6880  -36.5090 C   0  0  0  0  0  0  0  0  0  0  0  0
   -0.7740   14.2780  -36.7370 C   0  0  0  0  0  0  0  0  0  0  0  0
    0.3020   13.5240  -37.4310 C   0  0  0  0  0  0  0  0  0  0  0  0
    1.5210   14.1500  -37.7520 C   0  0  0  0  0  0  0  0  0  0  0  0
    2.5330   13.4380  -38.4040 C   0  0  0  0  0  0  0  0  0  0  0  0
    2.3380   12.0970  -38.7450 C   0  0  0  0  0  0  0  0  0  0  0  0
    1.1330   11.4650  -38.4310 C   0  0  0  0  0  0  0  0  0  0  0  0
    0.1190   12.1710  -37.7770 C   0  0  0  0  0  0  0  0  0  0  0  0
   -0.5520   15.5910  -36.2990 C   0  0  0  0  0  0  0  0  0  0  0  0
   -1.5620   16.3030  -35.6530 C   0  0  0  0  0  0  0  0  0  0  0  0
   -2.8230   15.7240  -35.4250 C   0  0  0  0  0  0  0  0  0  0  0  0
   -3.8740   16.5260  -34.7410 C   0  0  0  0  0  0  0  0  0  0  0  0
   -3.7530   17.8680  -34.5350 N   0  0  0  0  0  0  0  0  0  0  0  0
   -4.9000   18.1660  -33.9150 C   0  0  0  0  0  0  0  0  0  0  0  0
   -5.2940   19.3910  -33.4900 N   0  0  0  0  0  0  0  0  0  0  0  0
   -6.5110   19.5300  -32.8710 C   0  0  0  0  0  0  0  0  0  0  0  0
   -6.9400   20.8770  -32.4150 C   0  0  0  0  0  0  0  0  0  0  0  0
   -8.2860   21.1040  -32.0740 C   0  0  0  0  0  0  0  0  0  0  0  0
   -8.7090   22.3700  -31.6650 C   0  0  0  0  0  0  0  0  0  0  0  0
   -7.7980   23.4230  -31.5830 C   0  0  0  0  0  0  0  0  0  0  0  0
   -6.4510   23.2160  -31.8970 C   0  0  0  0  0  0  0  0  0  0  0  0
   -5.5470   24.3280  -31.8340 N   0  0  0  0  0  0  0  0  0  0  0  0
   -5.0620   24.9700  -30.6460 C   0  0  0  0  0  0  0  0  0  0  0  0
   -5.9630   25.3060  -29.4970 C   0  0  0  0  0  0  0  0  0  0  0  0
   -3.8470   25.2950  -30.5820 O   0  0  0  0  0  0  0  0  0  0  0  0
   -6.0310   21.9510  -32.3420 C   0  0  0  0  0  0  0  0  0  0  0  0
   -7.3450   18.3870  -32.7030 C   0  0  0  0  0  0  0  0  0  0  0  0
   -6.9110   17.1280  -33.1540 C   0  0  0  0  0  0  0  0  0  0  0  0
   -5.6640   17.0630  -33.7600 C   0  0  0  0  0  0  0  0  0  0  0  0
   -5.0410   15.9970  -34.2780 N   0  0  0  0  0  0  0  0  0  0  0  0
   -4.4333   13.4266  -33.5890 H   0  0  0  0  0  0  0  0  0  0  0  0
   -5.6525   12.5930  -34.6115 H   0  0  0  0  0  0  0  0  0  0  0  0
   -3.9459   12.0325  -34.6115 H   0  0  0  0  0  0  0  0  0  0  0  0
   -2.2100   12.6567  -36.8455 H   0  0  0  0  0  0  0  0  0  0  0  0
    1.6789   15.2062  -37.4884 H   0  0  0  0  0  0  0  0  0  0  0  0
    3.4837   13.9343  -38.6487 H   0  0  0  0  0  0  0  0  0  0  0  0
    3.1336   11.5393  -39.2607 H   0  0  0  0  0  0  0  0  0  0  0  0
    0.9813   10.4090  -38.6989 H   0  0  0  0  0  0  0  0  0  0  0  0
   -0.8273   11.6669  -37.5312 H   0  0  0  0  0  0  0  0  0  0  0  0
    0.4271   16.0636  -36.4663 H   0  0  0  0  0  0  0  0  0  0  0  0
   -1.3695   17.3325  -35.3169 H   0  0  0  0  0  0  0  0  0  0  0  0
   -9.0103   20.2780  -32.1301 H   0  0  0  0  0  0  0  0  0  0  0  0
   -9.7649   22.5377  -31.4064 H   0  0  0  0  0  0  0  0  0  0  0  0
   -8.1404   24.4204  -31.2701 H   0  0  0  0  0  0  0  0  0  0  0  0
   -5.4383   25.1103  -28.5502 H   0  0  0  0  0  0  0  0  0  0  0  0
   -6.2423   26.3687  -29.5486 H   0  0  0  0  0  0  0  0  0  0  0  0
   -6.8699   24.6856  -29.5486 H   0  0  0  0  0  0  0  0  0  0  0  0
   -4.9822   21.7978  -32.6362 H   0  0  0  0  0  0  0  0  0  0  0  0
   -8.3282   18.4896  -32.2205 H   0  0  0  0  0  0  0  0  0  0  0  0
   -7.5348   16.2303  -33.0315 H   0  0  0  0  0  0  0  0  0  0  0  0
  1  2  1  0
  2  3  1  0
  3  4  2  0
  4  5  1  0
  5  6  1  0
  6  7  2  0
  7  8  1  0
  8  9  2  0
  9 10  1  0
 10 11  2  0
  5 12  2  0
 12 13  1  0
 13 14  2  0
 14 15  1  0
 15 16  2  0
 16 17  1  0
 17 18  2  0
 18 19  1  0
 19 20  1  0
 20 21  2  0
 21 22  1  0
 22 23  2  0
 23 24  1  0
 24 25  1  0
 25 26  1  0
 26 27  1  0
 26 28  2  0
 24 29  2  0
 19 30  2  0
 30 31  1  0
 31 32  2  0
 32 33  1  0
 14  3  1  0
 33 15  1  0
 11  6  1  0
 32 17  1  0
 29 20  1  0
  1 34  1  0
  1 35  1  0
  1 36  1  0
  4 37  1  0
  7 38  1  0
  8 39  1  0
  9 40  1  0
 10 41  1  0
 11 42  1  0
 12 43  1  0
 13 44  1  0
 21 45  1  0
 22 46  1  0
 23 47  1  0
 27 48  1  0
 27 49  1  0
 27 50  1  0
 29 51  1  0
 30 52  1  0
 31 53  1  0
M  CHG  2  25  -1  33  -1
M  END
>  <UniqueID>  (45) 
43

>  <SMILES>  (45) 
COc1cc(-c2ccccc2)ccc1-c1nc2nc(-c3cccc([N-]C(C)=O)c3)ccc2[n-]1

>  <Energy>  (45) 
110.91355115770202

>  <Genealogy>  (45) 
COc1cc(-c2ccccc2)ccc1-c1nc2nc(-c3cccc([N-]C(C)=O)c3)ccc2[n-]1 (protonated)
COc1cc(-c2ccccc2)ccc1-c1nc2nc(-c3cccc([N-]C(C)=O)c3)ccc2[n-]1 (3D coordinates assigned)
COc1cc(-c2ccccc2)ccc1-c1nc2nc(-c3cccc([N-]C(C)=O)c3)ccc2[n-]1 (optimized conformer: 110.91355115770202 kcal/mol)

>  <smiles>  (45) 
COc1cc(-c2ccccc2)ccc1-c1nc2nc(-c3cccc(NC(C)=O)c3)ccc2[nH]1

>  <score_type>  (45) 
oracle

>  <origin>  (45) 
adg

>  <m_score__min__energy>  (45) 
-10.44

>  <m_primary>  (45) 
energy

$$$$
