0:0
     RDKit          3D

 49 52  0  0  0  0  0  0  0  0999 V2000
   -8.3230   22.9240  -31.9120 C   0  0  0  0  0  0  0  0  0  0  0  0
   -7.5450   21.7450  -31.3170 C   0  0  0  0  0  0  0  0  0  0  0  0
   -6.3840   21.2760  -32.2400 C   0  0  2  0  0  0  0  0  0  0  0  0
   -6.2450   19.7670  -32.4110 C   0  0  0  0  0  0  0  0  0  0  0  0
   -7.1300   18.8130  -31.8680 C   0  0  0  0  0  0  0  0  0  0  0  0
   -6.9190   17.4490  -32.0850 C   0  0  0  0  0  0  0  0  0  0  0  0
   -5.8160   17.0070  -32.8360 C   0  0  0  0  0  0  0  0  0  0  0  0
   -5.5710   15.6480  -33.0860 O   0  0  0  0  0  0  0  0  0  0  0  0
   -4.6670   14.8430  -32.3370 C   0  0  0  0  0  0  0  0  0  0  0  0
   -4.9220   17.9490  -33.3530 C   0  0  0  0  0  0  0  0  0  0  0  0
   -5.1200   19.3180  -33.1280 C   0  0  0  0  0  0  0  0  0  0  0  0
   -4.1350   20.3360  -33.6460 C   0  0  0  0  0  0  0  0  0  0  0  0
   -3.8440   21.3940  -32.5650 C   0  0  0  0  0  0  0  0  0  0  0  0
   -5.0580   21.8030  -31.8360 N   0  0  0  0  0  0  0  0  0  0  0  0
   -4.8800   22.6960  -30.7260 C   0  0  0  0  0  0  0  0  0  0  0  0
   -5.5520   23.8760  -30.7150 N   0  0  0  0  0  0  0  0  0  0  0  0
   -5.4320   24.7560  -29.6860 C   0  0  0  0  0  0  0  0  0  0  0  0
   -6.2030   26.0370  -29.7120 C   0  0  0  0  0  0  0  0  0  0  0  0
   -4.6260   24.4610  -28.6280 N   0  0  0  0  0  0  0  0  0  0  0  0
   -3.9220   23.2950  -28.5890 C   0  0  0  0  0  0  0  0  0  0  0  0
   -3.0890   23.0030  -27.4980 C   0  0  0  0  0  0  0  0  0  0  0  0
   -2.3650   21.8080  -27.4660 C   0  0  0  0  0  0  0  0  0  0  0  0
   -2.4630   20.8990  -28.5220 C   0  0  0  0  0  0  0  0  0  0  0  0
   -3.2880   21.1770  -29.6150 C   0  0  0  0  0  0  0  0  0  0  0  0
   -4.0280   22.3720  -29.6550 C   0  0  0  0  0  0  0  0  0  0  0  0
   -8.7308   23.5421  -31.0986 H   0  0  0  0  0  0  0  0  0  0  0  0
   -7.6486   23.5327  -32.5322 H   0  0  0  0  0  0  0  0  0  0  0  0
   -9.1479   22.5434  -32.5322 H   0  0  0  0  0  0  0  0  0  0  0  0
   -7.1243   22.0520  -30.3481 H   0  0  0  0  0  0  0  0  0  0  0  0
   -8.2447   20.9038  -31.2035 H   0  0  0  0  0  0  0  0  0  0  0  0
   -6.6904   21.7026  -33.2065 H   0  0  0  0  0  0  0  0  0  0  0  0
   -7.9916   19.1446  -31.2700 H   0  0  0  0  0  0  0  0  0  0  0  0
   -7.6220   16.7148  -31.6646 H   0  0  0  0  0  0  0  0  0  0  0  0
   -4.8417   14.9985  -31.2622 H   0  0  0  0  0  0  0  0  0  0  0  0
   -4.8277   13.7834  -32.5850 H   0  0  0  0  0  0  0  0  0  0  0  0
   -3.6331   15.1249  -32.5850 H   0  0  0  0  0  0  0  0  0  0  0  0
   -4.0556   17.6129  -33.9415 H   0  0  0  0  0  0  0  0  0  0  0  0
   -3.1980   19.8285  -33.9191 H   0  0  0  0  0  0  0  0  0  0  0  0
   -4.5641   20.8335  -34.5283 H   0  0  0  0  0  0  0  0  0  0  0  0
   -3.1246   20.9753  -31.8458 H   0  0  0  0  0  0  0  0  0  0  0  0
   -3.4398   22.2846  -33.0684 H   0  0  0  0  0  0  0  0  0  0  0  0
   -6.4013   26.3666  -28.6814 H   0  0  0  0  0  0  0  0  0  0  0  0
   -5.6179   26.8065  -30.2368 H   0  0  0  0  0  0  0  0  0  0  0  0
   -7.1569   25.8802  -30.2368 H   0  0  0  0  0  0  0  0  0  0  0  0
   -4.5500   25.1440  -27.8400 H   0  0  0  0  0  0  0  0  0  0  0  0
   -3.0056   23.7170  -26.6654 H   0  0  0  0  0  0  0  0  0  0  0  0
   -1.7162   21.5827  -26.6068 H   0  0  0  0  0  0  0  0  0  0  0  0
   -1.8888   19.9612  -28.4931 H   0  0  0  0  0  0  0  0  0  0  0  0
   -3.3587   20.4596  -30.4458 H   0  0  0  0  0  0  0  0  0  0  0  0
  1  2  1  0
  2  3  1  0
  3  4  1  0
  4  5  2  0
  5  6  1  0
  6  7  2  0
  7  8  1  0
  8  9  1  0
  7 10  1  0
 10 11  2  0
 11 12  1  0
 12 13  1  0
 13 14  1  0
 14 15  1  0
 15 16  2  0
 16 17  1  0
 17 18  1  0
 17 19  2  0
 19 20  1  0
 20 21  2  0
 21 22  1  0
 22 23  2  0
 23 24  1  0
 24 25  2  0
 14  3  1  0
 25 15  1  0
 11  4  1  0
 25 20  1  0
  1 26  1  0
  1 27  1  0
  1 28  1  0
  2 29  1  0
  2 30  1  0
  3 31  1  6
  5 32  1  0
  6 33  1  0
  9 34  1  0
  9 35  1  0
  9 36  1  0
 10 37  1  0
 12 38  1  0
 12 39  1  0
 13 40  1  0
 13 41  1  0
 18 42  1  0
 18 43  1  0
 18 44  1  0
 19 45  1  0
 21 46  1  0
 22 47  1  0
 23 48  1  0
 24 49  1  0
M  CHG  1  19   1
M  END
>  <UniqueID>  (1) 
1

>  <SMILES>  (1) 
CC[C@@H]1c2ccc(OC)cc2CCN1c1nc(C)[nH+]c2ccccc12

>  <Energy>  (1) 
68.0340375060816

>  <Genealogy>  (1) 
CCC1c2ccc(OC)cc2CCN1c1nc(C)[nH+]c2ccccc12 (protonated)
CC[C@@H]1c2ccc(OC)cc2CCN1c1nc(C)[nH+]c2ccccc12 (chirality)
CC[C@@H]1c2ccc(OC)cc2CCN1c1nc(C)[nH+]c2ccccc12 (3D coordinates assigned)
CC[C@@H]1c2ccc(OC)cc2CCN1c1nc(C)[nH+]c2ccccc12 (nonaromatic ring conformer: 68.0340375060816 kcal/mol)

>  <smiles>  (1) 
CCC1c2ccc(OC)cc2CCN1c1nc(C)nc2ccccc12

>  <score_type>  (1) 
oracle

>  <origin>  (1) 
adg

>  <m_score__min__energy>  (1) 
-7.8200000000000003

>  <m_primary>  (1) 
energy

$$$$
1:0
     RDKit          3D

 31 33  0  0  0  0  0  0  0  0999 V2000
   -7.0592   24.5002  -30.0582 H   0  0  0  0  0  0  0  0  0  0  0  0
   -6.5850   24.0350  -30.9350 C   0  0  0  0  0  0  0  0  0  0  0  0
   -5.1180   24.1530  -31.0530 C   0  0  0  0  0  0  0  0  0  0  0  0
   -4.5890   25.2770  -30.8500 O   0  0  0  0  0  0  0  0  0  0  0  0
   -4.2660   23.0190  -31.4660 C   0  0  0  0  0  0  0  0  0  0  0  0
   -3.2800   22.4400  -30.6890 C   0  0  0  0  0  0  0  0  0  0  0  0
   -2.9787   22.7393  -29.6743 H   0  0  0  0  0  0  0  0  0  0  0  0
   -2.7490   21.4110  -31.4410 C   0  0  0  0  0  0  0  0  0  0  0  0
   -1.9438   20.7248  -31.1398 H   0  0  0  0  0  0  0  0  0  0  0  0
   -3.4250   21.4110  -32.6440 C   0  0  0  0  0  0  0  0  0  0  0  0
   -3.2389   20.7102  -33.4712 H   0  0  0  0  0  0  0  0  0  0  0  0
   -4.3450   22.3930  -32.6580 N   0  0  0  0  0  0  0  0  0  0  0  0
   -4.9870   22.6210  -33.4490 H   0  0  0  0  0  0  0  0  0  0  0  0
   -7.3890   23.4070  -31.8090 C   0  0  0  0  0  0  0  0  0  0  0  0
   -8.0332   24.0351  -32.4419 H   0  0  0  0  0  0  0  0  0  0  0  0
   -7.4810   21.9420  -31.9920 C   0  0  0  0  0  0  0  0  0  0  0  0
   -6.6720   21.2970  -32.8790 N   0  0  0  0  0  0  0  0  0  0  0  0
   -6.7340   19.9530  -33.0700 C   0  0  0  0  0  0  0  0  0  0  0  0
   -5.9030   19.3380  -34.0130 C   0  0  0  0  0  0  0  0  0  0  0  0
   -5.1936   19.9416  -34.5981 H   0  0  0  0  0  0  0  0  0  0  0  0
   -5.9750   17.9560  -34.2110 C   0  0  0  0  0  0  0  0  0  0  0  0
   -5.3228   17.4739  -34.9541 H   0  0  0  0  0  0  0  0  0  0  0  0
   -6.8740   17.1840  -33.4670 C   0  0  0  0  0  0  0  0  0  0  0  0
   -6.9246   16.0967  -33.6255 H   0  0  0  0  0  0  0  0  0  0  0  0
   -7.7080   17.7900  -32.5230 C   0  0  0  0  0  0  0  0  0  0  0  0
   -8.4138   17.1802  -31.9398 H   0  0  0  0  0  0  0  0  0  0  0  0
   -7.6440   19.1770  -32.3200 C   0  0  0  0  0  0  0  0  0  0  0  0
   -8.4660   19.8160  -31.3830 C   0  0  0  0  0  0  0  0  0  0  0  0
   -9.1760   19.2293  -30.7816 H   0  0  0  0  0  0  0  0  0  0  0  0
   -8.3820   21.2000  -31.2140 C   0  0  0  0  0  0  0  0  0  0  0  0
   -9.0196   21.7058  -30.4740 H   0  0  0  0  0  0  0  0  0  0  0  0
  1  2  1  0
  2  3  1  0
  3  4  2  0
  3  5  1  0
  5  6  2  0
  6  7  1  0
  6  8  1  0
  8  9  1  0
  8 10  2  0
 10 11  1  0
 10 12  1  0
 12 13  1  0
  2 14  2  0
 14 15  1  0
 14 16  1  0
 16 17  2  0
 17 18  1  0
 18 19  2  0
 19 20  1  0
 19 21  1  0
 21 22  1  0
 21 23  2  0
 23 24  1  0
 23 25  1  0
 25 26  1  0
 25 27  2  0
 27 28  1  0
 28 29  1  0
 28 30  2  0
 30 31  1  0
 12  5  1  0
 30 16  1  0
 27 18  1  0
M  END
>  <UniqueID>  (2) 
2

>  <SMILES>  (2) 
O=C(/C=C\c1ccc2ccccc2n1)c1ccc[nH]1

>  <Energy>  (2) 
67.75538235752823

>  <Genealogy>  (2) 
O=C(/C=C\c1ccc2ccccc2n1)c1ccc[nH]1 (cis-trans isomerization)
O=C(/C=C\c1ccc2ccccc2n1)c1ccc[nH]1 (3D coordinates assigned)
O=C(/C=C\c1ccc2ccccc2n1)c1ccc[nH]1 (optimized conformer: 67.75538235752823 kcal/mol)

>  <smiles>  (2) 
O=C(C=Cc1ccc2ccccc2n1)c1ccc[nH]1

>  <score_type>  (2) 
oracle

>  <origin>  (2) 
adg

>  <m_score__min__energy>  (2) 
-8.3900000000000006

>  <m_primary>  (2) 
energy

$$$$
2:0
     RDKit          3D

 55 58  0  0  0  0  0  0  0  0999 V2000
   -2.4011   19.1943  -31.4198 H   0  0  0  0  0  0  0  0  0  0  0  0
   -2.9530   20.0750  -31.7800 C   0  0  0  0  0  0  0  0  0  0  0  0
   -3.8110   19.8940  -32.7930 C   0  0  0  0  0  0  0  0  0  0  0  0
   -3.3934   19.6053  -33.7688 H   0  0  0  0  0  0  0  0  0  0  0  0
   -5.2810   20.0540  -32.6960 C   0  0  0  0  0  0  0  0  0  0  0  0
   -6.1320   18.9720  -32.7340 N   0  0  0  0  0  0  0  0  0  0  0  0
   -5.6180   17.6360  -32.9440 C   0  0  0  0  0  0  0  0  0  0  0  0
   -5.1810   17.2300  -34.2300 C   0  0  0  0  0  0  0  0  0  0  0  0
   -5.3610   18.1040  -35.4430 C   0  0  0  0  0  0  0  0  0  0  0  0
   -5.5733   19.1350  -35.1238 H   0  0  0  0  0  0  0  0  0  0  0  0
   -4.4409   18.0889  -36.0456 H   0  0  0  0  0  0  0  0  0  0  0  0
   -6.2003   17.7265  -36.0456 H   0  0  0  0  0  0  0  0  0  0  0  0
   -4.6410   15.9480  -34.4060 C   0  0  0  0  0  0  0  0  0  0  0  0
   -4.3173   15.6275  -35.4072 H   0  0  0  0  0  0  0  0  0  0  0  0
   -4.5090   15.0720  -33.3240 C   0  0  0  0  0  0  0  0  0  0  0  0
   -3.9420   13.6980  -33.5330 C   0  0  0  0  0  0  0  0  0  0  0  0
   -3.7484   13.2289  -32.5571 H   0  0  0  0  0  0  0  0  0  0  0  0
   -4.6613   13.0865  -34.0975 H   0  0  0  0  0  0  0  0  0  0  0  0
   -3.0008   13.7717  -34.0975 H   0  0  0  0  0  0  0  0  0  0  0  0
   -4.9910   15.4510  -32.0670 C   0  0  0  0  0  0  0  0  0  0  0  0
   -4.9177   14.7496  -31.2228 H   0  0  0  0  0  0  0  0  0  0  0  0
   -5.5660   16.7130  -31.8700 C   0  0  0  0  0  0  0  0  0  0  0  0
   -6.0980   17.0540  -30.5020 C   0  0  0  0  0  0  0  0  0  0  0  0
   -5.4348   16.6289  -29.7342 H   0  0  0  0  0  0  0  0  0  0  0  0
   -6.1391   18.1472  -30.3866 H   0  0  0  0  0  0  0  0  0  0  0  0
   -7.1084   16.6349  -30.3866 H   0  0  0  0  0  0  0  0  0  0  0  0
   -7.4780   19.1490  -32.5400 C   0  0  0  0  0  0  0  0  0  0  0  0
   -8.2540   18.1510  -32.5360 O   0  0  0  0  0  0  0  0  0  0  0  0
   -7.9990   20.4350  -32.3330 C   0  0  0  0  0  0  0  0  0  0  0  0
   -9.3770   20.6650  -32.1520 C   0  0  0  0  0  0  0  0  0  0  0  0
  -10.0821   19.8210  -32.1744 H   0  0  0  0  0  0  0  0  0  0  0  0
   -9.8500   21.9640  -31.9440 C   0  0  0  0  0  0  0  0  0  0  0  0
  -10.9271   22.1397  -31.8059 H   0  0  0  0  0  0  0  0  0  0  0  0
   -8.9590   23.0400  -31.9110 C   0  0  0  0  0  0  0  0  0  0  0  0
   -9.3356   24.0604  -31.7470 H   0  0  0  0  0  0  0  0  0  0  0  0
   -7.5910   22.8210  -32.0860 C   0  0  0  0  0  0  0  0  0  0  0  0
   -6.8921   23.6699  -32.0569 H   0  0  0  0  0  0  0  0  0  0  0  0
   -7.1040   21.5210  -32.2990 C   0  0  0  0  0  0  0  0  0  0  0  0
   -5.7720   21.3030  -32.4610 N   0  0  0  0  0  0  0  0  0  0  0  0
   -5.1070   22.1100  -32.4170 H   0  0  0  0  0  0  0  0  0  0  0  0
   -2.6900   21.3640  -31.1090 C   0  0  0  0  0  0  0  0  0  0  0  0
   -1.4070   21.6210  -30.6070 C   0  0  0  0  0  0  0  0  0  0  0  0
   -0.6060   20.8810  -30.7511 H   0  0  0  0  0  0  0  0  0  0  0  0
   -1.1380   22.8100  -29.9250 C   0  0  0  0  0  0  0  0  0  0  0  0
   -0.1227   23.0064  -29.5500 H   0  0  0  0  0  0  0  0  0  0  0  0
   -2.1510   23.7540  -29.7150 C   0  0  0  0  0  0  0  0  0  0  0  0
   -1.8280   24.9370  -29.0340 O   0  0  0  0  0  0  0  0  0  0  0  0
   -1.8870   25.0910  -27.6210 C   0  0  0  0  0  0  0  0  0  0  0  0
   -1.5337   24.1688  -27.1366 H   0  0  0  0  0  0  0  0  0  0  0  0
   -1.2478   25.9330  -27.3169 H   0  0  0  0  0  0  0  0  0  0  0  0
   -2.9252   25.2903  -27.3169 H   0  0  0  0  0  0  0  0  0  0  0  0
   -3.4480   23.4840  -30.1890 C   0  0  0  0  0  0  0  0  0  0  0  0
   -4.2547   24.2127  -30.0207 H   0  0  0  0  0  0  0  0  0  0  0  0
   -3.7170   22.2940  -30.8730 C   0  0  0  0  0  0  0  0  0  0  0  0
   -4.7370   22.0850  -31.2278 H   0  0  0  0  0  0  0  0  0  0  0  0
  1  2  1  0
  2  3  2  0
  3  4  1  0
  3  5  1  0
  5  6  1  0
  6  7  1  0
  7  8  2  0
  8  9  1  0
  9 10  1  0
  9 11  1  0
  9 12  1  0
  8 13  1  0
 13 14  1  0
 13 15  2  0
 15 16  1  0
 16 17  1  0
 16 18  1  0
 16 19  1  0
 15 20  1  0
 20 21  1  0
 20 22  2  0
 22 23  1  0
 23 24  1  0
 23 25  1  0
 23 26  1  0
  6 27  1  0
 27 28  2  0
 27 29  1  0
 29 30  2  0
 30 31  1  0
 30 32  1  0
 32 33  1  0
 32 34  2  0
 34 35  1  0
 34 36  1  0
 36 37  1  0
 36 38  2  0
 38 39  1  0
 39 40  1  0
  2 41  1  0
 41 42  2  0
 42 43  1  0
 42 44  1  0
 44 45  1  0
 44 46  2  0
 46 47  1  0
 47 48  1  0
 48 49  1  0
 48 50  1  0
 48 51  1  0
 46 52  1  0
 52 53  1  0
 52 54  2  0
 54 55  1  0
 39  5  2  0
 54 41  1  0
 22  7  1  0
 38 29  1  0
M  CHG  1  39   1
M  END
>  <UniqueID>  (3) 
3

>  <SMILES>  (3) 
COc1ccc(/C=C\c2[nH+]c3ccccc3c(=O)n2-c2c(C)cc(C)cc2C)cc1

>  <Energy>  (3) 
81.23673842223418

>  <Genealogy>  (3) 
COc1ccc(C=Cc2[nH+]c3ccccc3c(=O)n2-c2c(C)cc(C)cc2C)cc1 (protonated)
COc1ccc(/C=C\c2[nH+]c3ccccc3c(=O)n2-c2c(C)cc(C)cc2C)cc1 (cis-trans isomerization)
COc1ccc(/C=C\c2[nH+]c3ccccc3c(=O)n2-c2c(C)cc(C)cc2C)cc1 (3D coordinates assigned)
COc1ccc(/C=C\c2[nH+]c3ccccc3c(=O)n2-c2c(C)cc(C)cc2C)cc1 (optimized conformer: 81.23673842223418 kcal/mol)

>  <smiles>  (3) 
COc1ccc(C=Cc2nc3ccccc3c(=O)n2-c2c(C)cc(C)cc2C)cc1

>  <score_type>  (3) 
oracle

>  <origin>  (3) 
adg

>  <m_score__min__energy>  (3) 
-8.5899999999999999

>  <m_primary>  (3) 
energy

$$$$
3:0
     RDKit          3D

 66 69  0  0  0  0  0  0  0  0999 V2000
   -6.2220   17.4030  -30.8280 C   0  0  0  0  0  0  0  0  0  0  0  0
   -6.2370   18.0210  -32.2320 C   0  0  2  0  0  0  0  0  0  0  0  0
   -4.8680   17.9660  -32.9340 C   0  0  0  0  0  0  0  0  0  0  0  0
   -5.6390   17.6220  -34.2120 C   0  0  2  0  0  0  0  0  0  0  0  0
   -6.1030   18.9630  -34.8570 C   0  0  0  0  0  0  0  0  0  0  0  0
   -6.7200   19.8750  -33.7850 C   0  0  0  0  0  0  0  0  0  0  0  0
   -6.8230   19.4440  -32.4860 C   0  0  0  0  0  0  0  0  0  0  0  0
   -7.4550   20.3890  -31.4430 C   0  0  2  0  0  0  0  0  0  0  0  0
   -9.0000   20.3650  -31.4890 C   0  0  0  0  0  0  0  0  0  0  0  0
   -9.4770   21.7420  -31.9500 C   0  0  0  0  0  0  0  0  0  0  0  0
   -8.2520   22.5790  -31.9730 C   0  0  0  0  0  0  0  0  0  0  0  0
   -8.2770   23.7520  -32.3140 O   0  0  0  0  0  0  0  0  0  0  0  0
   -7.0160   21.8950  -31.4720 C   0  0  1  0  0  0  0  0  0  0  0  0
   -6.7770   22.4270  -30.0360 C   0  0  0  0  0  0  0  0  0  0  0  0
   -5.7920   22.2420  -32.3820 C   0  0  0  0  0  0  0  0  0  0  0  0
   -4.4270   21.8590  -31.8450 C   0  0  0  0  0  0  0  0  0  0  0  0
   -4.0880   20.6530  -31.7460 O   0  0  0  0  0  0  0  0  0  0  0  0
   -3.4660   22.8630  -31.5010 N   0  0  0  0  0  0  0  0  0  0  0  0
   -2.8240   22.9760  -30.1960 C   0  0  0  0  0  0  0  0  0  0  0  0
   -1.4930   22.2070  -30.2070 C   0  0  0  0  0  0  0  0  0  0  0  0
   -1.4710   21.1300  -31.2360 N   0  0  0  0  0  0  0  0  0  0  0  0
   -0.7570   21.5700  -32.4700 C   0  0  0  0  0  0  0  0  0  0  0  0
   -1.3960   21.0930  -33.7980 C   0  0  0  0  0  0  0  0  0  0  0  0
   -1.4160   19.5620  -34.0380 C   0  0  0  0  0  0  0  0  0  0  0  0
   -1.8130   18.7110  -32.8210 C   0  0  0  0  0  0  0  0  0  0  0  0
   -0.7980   18.7200  -31.6540 C   0  0  0  0  0  0  0  0  0  0  0  0
   -0.9390   19.8770  -30.6420 C   0  0  0  0  0  0  0  0  0  0  0  0
   -6.7870   17.1040  -33.3380 C   0  0  0  0  0  0  0  0  0  0  0  0
   -6.2414   18.2042  -30.0745 H   0  0  0  0  0  0  0  0  0  0  0  0
   -7.1048   16.7591  -30.7014 H   0  0  0  0  0  0  0  0  0  0  0  0
   -5.3090   16.8026  -30.7014 H   0  0  0  0  0  0  0  0  0  0  0  0
   -4.1950   17.1743  -32.5730 H   0  0  0  0  0  0  0  0  0  0  0  0
   -4.1517   18.7995  -32.8879 H   0  0  0  0  0  0  0  0  0  0  0  0
   -5.1979   17.0153  -35.0166 H   0  0  0  0  0  0  0  0  0  0  0  0
   -6.8537   18.7535  -35.6333 H   0  0  0  0  0  0  0  0  0  0  0  0
   -5.2346   19.4681  -35.3051 H   0  0  0  0  0  0  0  0  0  0  0  0
   -7.0805   20.8772  -34.0599 H   0  0  0  0  0  0  0  0  0  0  0  0
   -7.0561   19.9620  -30.5110 H   0  0  0  0  0  0  0  0  0  0  0  0
   -9.4005   20.1464  -30.4881 H   0  0  0  0  0  0  0  0  0  0  0  0
   -9.3510   19.5859  -32.1817 H   0  0  0  0  0  0  0  0  0  0  0  0
  -10.2141   22.1531  -31.2445 H   0  0  0  0  0  0  0  0  0  0  0  0
   -9.9719   21.7030  -32.9316 H   0  0  0  0  0  0  0  0  0  0  0  0
   -7.1142   21.6764  -29.3060 H   0  0  0  0  0  0  0  0  0  0  0  0
   -5.7043   22.6230  -29.8914 H   0  0  0  0  0  0  0  0  0  0  0  0
   -7.3428   23.3592  -29.8914 H   0  0  0  0  0  0  0  0  0  0  0  0
   -5.9314   21.7251  -33.3430 H   0  0  0  0  0  0  0  0  0  0  0  0
   -5.7817   23.3396  -32.4545 H   0  0  0  0  0  0  0  0  0  0  0  0
   -2.6324   24.0360  -29.9730 H   0  0  0  0  0  0  0  0  0  0  0  0
   -3.4848   22.5510  -29.4261 H   0  0  0  0  0  0  0  0  0  0  0  0
   -0.6774   22.9144  -30.4178 H   0  0  0  0  0  0  0  0  0  0  0  0
   -1.3695   21.7337  -29.2217 H   0  0  0  0  0  0  0  0  0  0  0  0
   -2.4610   20.9220  -31.5110 H   0  0  0  0  0  0  0  0  0  0  0  0
   -0.7337   22.6697  -32.4776 H   0  0  0  0  0  0  0  0  0  0  0  0
    0.2430   21.1137  -32.4273 H   0  0  0  0  0  0  0  0  0  0  0  0
   -2.4367   21.4490  -33.8163 H   0  0  0  0  0  0  0  0  0  0  0  0
   -0.7610   21.5071  -34.5950 H   0  0  0  0  0  0  0  0  0  0  0  0
   -2.1326   19.3541  -34.8462 H   0  0  0  0  0  0  0  0  0  0  0  0
   -0.3815   19.2791  -34.2823 H   0  0  0  0  0  0  0  0  0  0  0  0
   -2.7734   19.0885  -32.4401 H   0  0  0  0  0  0  0  0  0  0  0  0
   -1.8607   17.6713  -33.1771 H   0  0  0  0  0  0  0  0  0  0  0  0
   -0.9113   17.7750  -31.1024 H   0  0  0  0  0  0  0  0  0  0  0  0
    0.1889   18.8538  -32.1210 H   0  0  0  0  0  0  0  0  0  0  0  0
   -1.6209   19.5560  -29.8407 H   0  0  0  0  0  0  0  0  0  0  0  0
    0.0711   20.1022  -30.2693 H   0  0  0  0  0  0  0  0  0  0  0  0
   -6.7454   16.0287  -33.1100 H   0  0  0  0  0  0  0  0  0  0  0  0
   -7.8366   17.1440  -33.6647 H   0  0  0  0  0  0  0  0  0  0  0  0
  2  1  1  1
  2  3  1  0
  3  4  1  0
  4  5  1  0
  5  6  1  0
  6  7  2  0
  7  8  1  0
  8  9  1  0
  9 10  1  0
 10 11  1  0
 11 12  2  0
 11 13  1  0
 13 14  1  1
 13 15  1  0
 15 16  1  0
 16 17  2  0
 16 18  1  0
 18 19  1  0
 19 20  1  0
 20 21  1  0
 21 22  1  0
 22 23  1  0
 23 24  1  0
 24 25  1  0
 25 26  1  0
 26 27  1  0
  4 28  1  0
  7  2  1  0
 13  8  1  0
 27 21  1  0
 28  2  1  0
  1 29  1  0
  1 30  1  0
  1 31  1  0
  3 32  1  0
  3 33  1  0
  4 34  1  6
  5 35  1  0
  5 36  1  0
  6 37  1  0
  8 38  1  1
  9 39  1  0
  9 40  1  0
 10 41  1  0
 10 42  1  0
 14 43  1  0
 14 44  1  0
 14 45  1  0
 15 46  1  0
 15 47  1  0
 19 48  1  0
 19 49  1  0
 20 50  1  0
 20 51  1  0
 21 52  1  0
 22 53  1  0
 22 54  1  0
 23 55  1  0
 23 56  1  0
 24 57  1  0
 24 58  1  0
 25 59  1  0
 25 60  1  0
 26 61  1  0
 26 62  1  0
 27 63  1  0
 27 64  1  0
 28 65  1  0
 28 66  1  0
M  CHG  2  18  -1  21   1
M  END
>  <UniqueID>  (4) 
4

>  <SMILES>  (4) 
CC12CC(CC=C1[C@@H]1CCC(=O)[C@]1(C)CC(=O)[N-]CC[NH+]1CCCCCC1)C2

>  <Energy>  (4) 
180.89188533885465

>  <Genealogy>  (4) 
CC12CC(CC=C1C1CCC(=O)C1(C)CC(=O)[N-]CC[NH+]1CCCCCC1)C2 (protonated)
CC12CC(CC=C1[C@@H]1CCC(=O)[C@]1(C)CC(=O)[N-]CC[NH+]1CCCCCC1)C2 (chirality)
CC12CC(CC=C1[C@@H]1CCC(=O)[C@]1(C)CC(=O)[N-]CC[NH+]1CCCCCC1)C2 (3D coordinates assigned)
CC12CC(CC=C1[C@@H]1CCC(=O)[C@]1(C)CC(=O)[N-]CC[NH+]1CCCCCC1)C2 (nonaromatic ring conformer: 180.89188533885465 kcal/mol)

>  <smiles>  (4) 
CC12CC(CC=C1C1CCC(=O)C1(C)CC(=O)NCCN1CCCCCC1)C2

>  <score_type>  (4) 
oracle

>  <origin>  (4) 
adg

>  <m_score__min__energy>  (4) 
-7.3700000000000001

>  <m_primary>  (4) 
energy

$$$$
4:0
     RDKit          3D

 45 47  0  0  0  0  0  0  0  0999 V2000
   -3.1440   21.8970  -28.5910 H   0  0  0  0  0  0  0  0  0  0  0  0
   -4.0500   22.3630  -28.8150 N   0  0  0  0  0  0  0  0  0  0  0  0
   -4.1280   23.4180  -29.5640 C   0  0  0  0  0  0  0  0  0  0  0  0
   -4.9890   23.6470  -30.6220 C   0  0  0  0  0  0  0  0  0  0  0  0
   -6.1260   22.8300  -31.0930 C   0  0  0  0  0  0  0  0  0  0  0  0
   -7.2870   22.7360  -30.3110 C   0  0  0  0  0  0  0  0  0  0  0  0
   -7.3532   23.2893  -29.3626 H   0  0  0  0  0  0  0  0  0  0  0  0
   -8.3600   21.9440  -30.7290 C   0  0  0  0  0  0  0  0  0  0  0  0
   -9.2704   21.8863  -30.1144 H   0  0  0  0  0  0  0  0  0  0  0  0
   -8.2800   21.2190  -31.9350 C   0  0  0  0  0  0  0  0  0  0  0  0
   -9.3250   20.4060  -32.4050 O   0  0  0  0  0  0  0  0  0  0  0  0
   -9.3640   18.9800  -32.3380 C   0  0  0  0  0  0  0  0  0  0  0  0
  -10.2662   18.6691  -31.7909 H   0  0  0  0  0  0  0  0  0  0  0  0
   -9.3803   18.5790  -33.3622 H   0  0  0  0  0  0  0  0  0  0  0  0
   -8.1320   18.4380  -31.6200 C   0  0  0  0  0  0  0  0  0  0  0  0
   -8.2827   18.5043  -30.5324 H   0  0  0  0  0  0  0  0  0  0  0  0
   -7.9741   17.3873  -31.9049 H   0  0  0  0  0  0  0  0  0  0  0  0
   -7.2508   19.0315  -31.9049 H   0  0  0  0  0  0  0  0  0  0  0  0
   -7.1100   21.2950  -32.6980 C   0  0  0  0  0  0  0  0  0  0  0  0
   -7.0335   20.7250  -33.6357 H   0  0  0  0  0  0  0  0  0  0  0  0
   -6.0370   22.0880  -32.2810 C   0  0  0  0  0  0  0  0  0  0  0  0
   -5.1195   22.1306  -32.8862 H   0  0  0  0  0  0  0  0  0  0  0  0
   -4.6300   24.8250  -31.1750 N   0  0  0  0  0  0  0  0  0  0  0  0
   -3.6090   25.2990  -30.4710 N   0  0  0  0  0  0  0  0  0  0  0  0
   -3.2980   24.4720  -29.4840 N   0  0  0  0  0  0  0  0  0  0  0  0
   -2.2070   24.6990  -28.5350 C   0  0  0  0  0  0  0  0  0  0  0  0
   -1.9033   25.7550  -28.5867 H   0  0  0  0  0  0  0  0  0  0  0  0
   -2.5686   24.4421  -27.5284 H   0  0  0  0  0  0  0  0  0  0  0  0
   -1.0110   23.8300  -28.8420 C   0  0  0  0  0  0  0  0  0  0  0  0
    0.1270   24.3660  -28.9030 O   0  0  0  0  0  0  0  0  0  0  0  0
   -1.1250   22.4240  -29.1020 N   0  0  0  0  0  0  0  0  0  0  0  0
   -1.0760   21.7990  -30.3900 C   0  0  0  0  0  0  0  0  0  0  0  0
   -0.0820   20.8610  -30.7060 C   0  0  0  0  0  0  0  0  0  0  0  0
    0.6875   20.6054  -29.9626 H   0  0  0  0  0  0  0  0  0  0  0  0
   -0.0670   20.2500  -31.9640 C   0  0  0  0  0  0  0  0  0  0  0  0
    0.7029   19.5005  -32.1996 H   0  0  0  0  0  0  0  0  0  0  0  0
   -1.0300   20.5890  -32.9270 C   0  0  0  0  0  0  0  0  0  0  0  0
   -1.0430   19.8960  -34.2560 C   0  0  0  0  0  0  0  0  0  0  0  0
   -1.0634   18.8071  -34.1015 H   0  0  0  0  0  0  0  0  0  0  0  0
   -1.9355   20.2030  -34.8209 H   0  0  0  0  0  0  0  0  0  0  0  0
   -0.1396   20.1693  -34.8209 H   0  0  0  0  0  0  0  0  0  0  0  0
   -2.0160   21.5360  -32.6110 C   0  0  0  0  0  0  0  0  0  0  0  0
   -2.7833   21.7970  -33.3547 H   0  0  0  0  0  0  0  0  0  0  0  0
   -2.0270   22.1490  -31.3550 C   0  0  0  0  0  0  0  0  0  0  0  0
   -2.7868   22.9102  -31.1240 H   0  0  0  0  0  0  0  0  0  0  0  0
  1  2  1  0
  2  3  2  0
  3  4  1  0
  4  5  1  0
  5  6  2  0
  6  7  1  0
  6  8  1  0
  8  9  1  0
  8 10  2  0
 10 11  1  0
 11 12  1  0
 12 13  1  0
 12 14  1  0
 12 15  1  0
 15 16  1  0
 15 17  1  0
 15 18  1  0
 10 19  1  0
 19 20  1  0
 19 21  2  0
 21 22  1  0
  4 23  2  0
 23 24  1  0
 24 25  1  0
 25 26  1  0
 26 27  1  0
 26 28  1  0
 26 29  1  0
 29 30  2  0
 29 31  1  0
 31 32  1  0
 32 33  2  0
 33 34  1  0
 33 35  1  0
 35 36  1  0
 35 37  2  0
 37 38  1  0
 38 39  1  0
 38 40  1  0
 38 41  1  0
 37 42  1  0
 42 43  1  0
 42 44  2  0
 44 45  1  0
 25  3  1  0
 44 32  1  0
 21  5  1  0
M  CHG  2  24  -1  31  -1
M  END
>  <UniqueID>  (5) 
5

>  <SMILES>  (5) 
[H]/N=c1\c(-c2ccc(OCC)cc2)n[n-]n1CC(=O)[N-]c1ccc(C)cc1

>  <Energy>  (5) 
89.80300109620606

>  <Genealogy>  (5) 
CCOc1ccc(-c2n[n-]n(CC(=O)[N-]c3ccc(C)cc3)c2=N)cc1 (protonated)
[H]/N=c1\c(-c2ccc(OCC)cc2)n[n-]n1CC(=O)[N-]c1ccc(C)cc1 (cis-trans isomerization)
[H]/N=c1\c(-c2ccc(OCC)cc2)n[n-]n1CC(=O)[N-]c1ccc(C)cc1 (3D coordinates assigned)
[H]/N=c1\c(-c2ccc(OCC)cc2)n[n-]n1CC(=O)[N-]c1ccc(C)cc1 (optimized conformer: 89.80300109620606 kcal/mol)

>  <smiles>  (5) 
CCOc1ccc(-c2n[nH]n(CC(=O)Nc3ccc(C)cc3)c2=N)cc1

>  <score_type>  (5) 
oracle

>  <origin>  (5) 
adg

>  <m_score__min__energy>  (5) 
-11

>  <m_primary>  (5) 
energy

$$$$
5:0
     RDKit          3D

 36 38  0  0  0  0  0  0  0  0999 V2000
   -4.9790   23.0460  -32.5390 N   0  0  0  0  0  0  0  0  0  0  0  0
   -6.0570   22.3590  -31.9580 N   0  0  0  0  0  0  0  0  0  0  0  0
   -6.9080   22.8280  -31.0300 C   0  0  0  0  0  0  0  0  0  0  0  0
   -6.9380   24.5150  -30.4180 S   0  0  0  0  0  0  0  0  0  0  0  0
   -5.3950   24.3610  -29.4510 C   0  0  0  0  0  0  0  0  0  0  0  0
   -4.2440   25.0110  -30.1670 C   0  0  0  0  0  0  0  0  0  0  0  0
   -4.4620   25.6780  -31.2130 O   0  0  0  0  0  0  0  0  0  0  0  0
   -2.9000   24.9210  -29.6760 N   0  0  0  0  0  0  0  0  0  0  0  0
   -2.0930   23.7370  -29.6140 C   0  0  0  0  0  0  0  0  0  0  0  0
   -1.0460   23.6060  -28.6830 C   0  0  0  0  0  0  0  0  0  0  0  0
   -0.2990   22.4250  -28.6270 C   0  0  0  0  0  0  0  0  0  0  0  0
   -0.6010   21.3640  -29.4830 C   0  0  0  0  0  0  0  0  0  0  0  0
    0.1230   20.2180  -29.4260 F   0  0  0  0  0  0  0  0  0  0  0  0
   -1.6580   21.4770  -30.3910 C   0  0  0  0  0  0  0  0  0  0  0  0
   -2.4070   22.6570  -30.4490 C   0  0  0  0  0  0  0  0  0  0  0  0
   -7.7100   21.8490  -30.5690 N   0  0  0  0  0  0  0  0  0  0  0  0
   -7.3730   20.7370  -31.2100 N   0  0  0  0  0  0  0  0  0  0  0  0
   -6.3690   21.0520  -32.0550 C   0  0  0  0  0  0  0  0  0  0  0  0
   -5.7360   20.0720  -32.9610 C   0  0  0  0  0  0  0  0  0  0  0  0
   -4.3410   19.9150  -32.9620 C   0  0  0  0  0  0  0  0  0  0  0  0
   -3.7440   18.9710  -33.8000 C   0  0  0  0  0  0  0  0  0  0  0  0
   -4.5490   18.1790  -34.6200 C   0  0  0  0  0  0  0  0  0  0  0  0
   -5.9000   18.3230  -34.5910 N   0  0  0  0  0  0  0  0  0  0  0  0
   -6.5060   19.2380  -33.7870 C   0  0  0  0  0  0  0  0  0  0  0  0
   -4.8180   23.0060  -33.5700 H   0  0  0  0  0  0  0  0  0  0  0  0
   -4.3680   23.6710  -31.9700 H   0  0  0  0  0  0  0  0  0  0  0  0
   -5.5324   24.8480  -28.4743 H   0  0  0  0  0  0  0  0  0  0  0  0
   -5.1683   23.2926  -29.3202 H   0  0  0  0  0  0  0  0  0  0  0  0
   -0.8145   24.4346  -27.9975 H   0  0  0  0  0  0  0  0  0  0  0  0
    0.5278   22.3318  -27.9075 H   0  0  0  0  0  0  0  0  0  0  0  0
   -1.9007   20.6381  -31.0598 H   0  0  0  0  0  0  0  0  0  0  0  0
   -3.2473   22.7373  -31.1543 H   0  0  0  0  0  0  0  0  0  0  0  0
   -3.7176   20.5362  -32.3020 H   0  0  0  0  0  0  0  0  0  0  0  0
   -2.6505   18.8528  -33.8137 H   0  0  0  0  0  0  0  0  0  0  0  0
   -4.0896   17.4376  -35.2903 H   0  0  0  0  0  0  0  0  0  0  0  0
   -7.6026   19.3246  -33.7842 H   0  0  0  0  0  0  0  0  0  0  0  0
  1  2  1  0
  2  3  1  0
  3  4  1  0
  4  5  1  0
  5  6  1  0
  6  7  2  0
  6  8  1  0
  8  9  1  0
  9 10  2  0
 10 11  1  0
 11 12  2  0
 12 13  1  0
 12 14  1  0
 14 15  2  0
  3 16  2  0
 16 17  1  0
 17 18  2  0
 18 19  1  0
 19 20  2  0
 20 21  1  0
 21 22  2  0
 22 23  1  0
 23 24  2  0
 18  2  1  0
 24 19  1  0
 15  9  1  0
  1 25  1  0
  1 26  1  0
  5 27  1  0
  5 28  1  0
 10 29  1  0
 11 30  1  0
 14 31  1  0
 15 32  1  0
 20 33  1  0
 21 34  1  0
 22 35  1  0
 24 36  1  0
M  CHG  1   8  -1
M  END
>  <UniqueID>  (6) 
6

>  <SMILES>  (6) 
Nn1c(SCC(=O)[N-]c2ccc(F)cc2)nnc1-c1cccnc1

>  <Energy>  (6) 
81.95343545598348

>  <Genealogy>  (6) 
Nn1c(SCC(=O)[N-]c2ccc(F)cc2)nnc1-c1cccnc1 (protonated)
Nn1c(SCC(=O)[N-]c2ccc(F)cc2)nnc1-c1cccnc1 (3D coordinates assigned)
Nn1c(SCC(=O)[N-]c2ccc(F)cc2)nnc1-c1cccnc1 (optimized conformer: 81.95343545598348 kcal/mol)

>  <smiles>  (6) 
Nn1c(SCC(=O)Nc2ccc(F)cc2)nnc1-c1cccnc1

>  <score_type>  (6) 
oracle

>  <origin>  (6) 
adg

>  <m_score__min__energy>  (6) 
-9.2599999999999998

>  <m_primary>  (6) 
energy

$$$$
6:0
     RDKit          3D

 43 45  0  0  0  0  0  0  0  0999 V2000
   -1.6590   25.0330  -28.0910 C   0  0  0  0  0  0  0  0  0  0  0  0
   -2.3740   25.2960  -29.2930 O   0  0  0  0  0  0  0  0  0  0  0  0
   -3.3180   24.4260  -29.8600 C   0  0  0  0  0  0  0  0  0  0  0  0
   -4.4820   24.8890  -30.5020 C   0  0  0  0  0  0  0  0  0  0  0  0
   -5.3930   23.9810  -31.0500 C   0  0  0  0  0  0  0  0  0  0  0  0
   -5.1670   22.5990  -30.9530 C   0  0  0  0  0  0  0  0  0  0  0  0
   -6.1300   21.6530  -31.5610 C   0  0  0  0  0  0  0  0  0  0  0  0
   -7.4570   21.9160  -31.4250 N   0  0  0  0  0  0  0  0  0  0  0  0
   -8.4030   21.1050  -31.9610 C   0  0  0  0  0  0  0  0  0  0  0  0
   -9.8470   21.4570  -31.8360 C   0  0  0  0  0  0  0  0  0  0  0  0
   -8.0300   20.0050  -32.6620 N   0  0  0  0  0  0  0  0  0  0  0  0
   -6.7230   19.6660  -32.8130 C   0  0  0  0  0  0  0  0  0  0  0  0
   -6.3970   18.4720  -33.5490 N   0  0  0  0  0  0  0  0  0  0  0  0
   -6.5920   17.1670  -32.9000 C   0  0  0  0  0  0  0  0  0  0  0  0
   -6.3690   16.0180  -33.8900 C   0  0  0  0  0  0  0  0  0  0  0  0
   -4.9980   16.1170  -34.5830 C   0  0  0  0  0  0  0  0  0  0  0  0
   -4.5650   17.5630  -34.9090 C   0  0  0  0  0  0  0  0  0  0  0  0
   -5.7310   18.5540  -34.8560 C   0  0  0  0  0  0  0  0  0  0  0  0
   -5.7240   20.4960  -32.2620 C   0  0  0  0  0  0  0  0  0  0  0  0
   -4.3240   20.1660  -32.4160 C   0  0  0  0  0  0  0  0  0  0  0  0
   -3.2040   19.9050  -32.5390 N   0  0  0  0  0  0  0  0  0  0  0  0
   -3.9950   22.1410  -30.3280 C   0  0  0  0  0  0  0  0  0  0  0  0
   -3.0840   23.0480  -29.7820 C   0  0  0  0  0  0  0  0  0  0  0  0
   -2.2969   25.2676  -27.2261 H   0  0  0  0  0  0  0  0  0  0  0  0
   -1.3738   23.9711  -28.0589 H   0  0  0  0  0  0  0  0  0  0  0  0
   -0.7537   25.6570  -28.0589 H   0  0  0  0  0  0  0  0  0  0  0  0
   -4.6756   25.9695  -30.5728 H   0  0  0  0  0  0  0  0  0  0  0  0
   -6.2936   24.3524  -31.5610 H   0  0  0  0  0  0  0  0  0  0  0  0
  -10.1175   21.5229  -30.7718 H   0  0  0  0  0  0  0  0  0  0  0  0
  -10.0315   22.4264  -32.3220 H   0  0  0  0  0  0  0  0  0  0  0  0
  -10.4569   20.6812  -32.3220 H   0  0  0  0  0  0  0  0  0  0  0  0
   -5.8777   17.0689  -32.0693 H   0  0  0  0  0  0  0  0  0  0  0  0
   -7.6264   17.1126  -32.5298 H   0  0  0  0  0  0  0  0  0  0  0  0
   -6.4246   15.0636  -33.3459 H   0  0  0  0  0  0  0  0  0  0  0  0
   -7.1481   16.0783  -34.6642 H   0  0  0  0  0  0  0  0  0  0  0  0
   -4.2420   15.6700  -33.9207 H   0  0  0  0  0  0  0  0  0  0  0  0
   -5.0859   15.5859  -35.5423 H   0  0  0  0  0  0  0  0  0  0  0  0
   -3.8037   17.8756  -34.1791 H   0  0  0  0  0  0  0  0  0  0  0  0
   -4.1700   17.5686  -35.9356 H   0  0  0  0  0  0  0  0  0  0  0  0
   -5.3496   19.5746  -35.0078 H   0  0  0  0  0  0  0  0  0  0  0  0
   -6.4537   18.3060  -35.6473 H   0  0  0  0  0  0  0  0  0  0  0  0
   -3.7936   21.0612  -30.2683 H   0  0  0  0  0  0  0  0  0  0  0  0
   -2.1749   22.6764  -29.2865 H   0  0  0  0  0  0  0  0  0  0  0  0
  1  2  1  0
  2  3  1  0
  3  4  2  0
  4  5  1  0
  5  6  2  0
  6  7  1  0
  7  8  2  0
  8  9  1  0
  9 10  1  0
  9 11  2  0
 11 12  1  0
 12 13  1  0
 13 14  1  0
 14 15  1  0
 15 16  1  0
 16 17  1  0
 17 18  1  0
 12 19  2  0
 19 20  1  0
 20 21  3  0
  6 22  1  0
 22 23  2  0
 23  3  1  0
 19  7  1  0
 18 13  1  0
  1 24  1  0
  1 25  1  0
  1 26  1  0
  4 27  1  0
  5 28  1  0
 10 29  1  0
 10 30  1  0
 10 31  1  0
 14 32  1  0
 14 33  1  0
 15 34  1  0
 15 35  1  0
 16 36  1  0
 16 37  1  0
 17 38  1  0
 17 39  1  0
 18 40  1  0
 18 41  1  0
 22 42  1  0
 23 43  1  0
M  END
>  <UniqueID>  (7) 
7

>  <SMILES>  (7) 
COc1ccc(-c2nc(C)nc(N3CCCCC3)c2C#N)cc1

>  <Energy>  (7) 
55.064752456308774

>  <Genealogy>  (7) 
COc1ccc(-c2nc(C)nc(N3CCCCC3)c2C#N)cc1 (3D coordinates assigned)
COc1ccc(-c2nc(C)nc(N3CCCCC3)c2C#N)cc1 (nonaromatic ring conformer: 55.064752456308774 kcal/mol)

>  <smiles>  (7) 
COc1ccc(-c2nc(C)nc(N3CCCCC3)c2C#N)cc1

>  <score_type>  (7) 
oracle

>  <origin>  (7) 
adg

>  <m_score__min__energy>  (7) 
-8.3800000000000008

>  <m_primary>  (7) 
energy

$$$$
7:0
     RDKit          3D

 44 46  0  0  0  0  0  0  0  0999 V2000
   -9.2160   19.7000  -32.6120 C   0  0  0  0  0  0  0  0  0  0  0  0
   -8.3420   20.8660  -32.2660 C   0  0  0  0  0  0  0  0  0  0  0  0
   -8.9250   22.0520  -31.9470 N   0  0  0  0  0  0  0  0  0  0  0  0
   -8.1890   23.1400  -31.6080 C   0  0  0  0  0  0  0  0  0  0  0  0
   -6.7930   23.0450  -31.5730 C   0  0  0  0  0  0  0  0  0  0  0  0
   -5.9610   24.2480  -31.2360 C   0  0  0  0  0  0  0  0  0  0  0  0
   -4.6130   23.8450  -31.1090 O   0  0  0  0  0  0  0  0  0  0  0  0
   -4.4290   23.1080  -29.9160 C   0  0  0  0  0  0  0  0  0  0  0  0
   -3.5870   23.8890  -28.9420 C   0  0  0  0  0  0  0  0  0  0  0  0
   -4.0810   24.1760  -27.6590 C   0  0  0  0  0  0  0  0  0  0  0  0
   -3.2940   24.8800  -26.7420 C   0  0  0  0  0  0  0  0  0  0  0  0
   -2.0090   25.2980  -27.0990 C   0  0  0  0  0  0  0  0  0  0  0  0
   -1.5090   25.0120  -28.3720 C   0  0  0  0  0  0  0  0  0  0  0  0
   -2.2920   24.3070  -29.2920 C   0  0  0  0  0  0  0  0  0  0  0  0
   -6.1990   21.8680  -31.9180 N   0  0  0  0  0  0  0  0  0  0  0  0
   -6.9340   20.7760  -32.2710 C   0  0  0  0  0  0  0  0  0  0  0  0
   -6.2580   19.5600  -32.6310 N   0  0  0  0  0  0  0  0  0  0  0  0
   -5.4610   19.4930  -33.8560 C   0  0  0  0  0  0  0  0  0  0  0  0
   -5.7090   18.1500  -34.5500 C   0  0  0  0  0  0  0  0  0  0  0  0
   -5.5160   17.0740  -33.6490 O   0  0  0  0  0  0  0  0  0  0  0  0
   -6.4840   17.1280  -32.6170 C   0  0  0  0  0  0  0  0  0  0  0  0
   -6.2950   18.3840  -31.7610 C   0  0  0  0  0  0  0  0  0  0  0  0
   -9.5737   19.2228  -31.6877 H   0  0  0  0  0  0  0  0  0  0  0  0
  -10.0768   20.0491  -33.2012 H   0  0  0  0  0  0  0  0  0  0  0  0
   -8.6395   18.9717  -33.2012 H   0  0  0  0  0  0  0  0  0  0  0  0
   -8.6858   24.0902  -31.3624 H   0  0  0  0  0  0  0  0  0  0  0  0
   -6.0498   24.9959  -32.0377 H   0  0  0  0  0  0  0  0  0  0  0  0
   -6.3098   24.6926  -30.2923 H   0  0  0  0  0  0  0  0  0  0  0  0
   -5.4097   22.9010  -29.4628 H   0  0  0  0  0  0  0  0  0  0  0  0
   -3.9165   22.1644  -30.1546 H   0  0  0  0  0  0  0  0  0  0  0  0
   -5.0909   23.8458  -27.3743 H   0  0  0  0  0  0  0  0  0  0  0  0
   -3.6865   25.1048  -25.7393 H   0  0  0  0  0  0  0  0  0  0  0  0
   -1.3910   25.8524  -26.3774 H   0  0  0  0  0  0  0  0  0  0  0  0
   -0.4975   25.3420  -28.6513 H   0  0  0  0  0  0  0  0  0  0  0  0
   -1.8931   24.0794  -30.2915 H   0  0  0  0  0  0  0  0  0  0  0  0
   -5.1550   21.8010  -31.9280 H   0  0  0  0  0  0  0  0  0  0  0  0
   -5.7519   20.3132  -34.5287 H   0  0  0  0  0  0  0  0  0  0  0  0
   -4.3938   19.5866  -33.6063 H   0  0  0  0  0  0  0  0  0  0  0  0
   -6.7423   18.1241  -34.9263 H   0  0  0  0  0  0  0  0  0  0  0  0
   -4.9957   18.0459  -35.3809 H   0  0  0  0  0  0  0  0  0  0  0  0
   -7.4885   17.1444  -33.0649 H   0  0  0  0  0  0  0  0  0  0  0  0
   -6.3660   16.2423  -31.9754 H   0  0  0  0  0  0  0  0  0  0  0  0
   -7.1323   18.4762  -31.0536 H   0  0  0  0  0  0  0  0  0  0  0  0
   -5.3514   18.3099  -31.2006 H   0  0  0  0  0  0  0  0  0  0  0  0
  1  2  1  0
  2  3  2  0
  3  4  1  0
  4  5  2  0
  5  6  1  0
  6  7  1  0
  7  8  1  0
  8  9  1  0
  9 10  2  0
 10 11  1  0
 11 12  2  0
 12 13  1  0
 13 14  2  0
  5 15  1  0
 15 16  2  0
 16 17  1  0
 17 18  1  0
 18 19  1  0
 19 20  1  0
 20 21  1  0
 21 22  1  0
 16  2  1  0
 22 17  1  0
 14  9  1  0
  1 23  1  0
  1 24  1  0
  1 25  1  0
  4 26  1  0
  6 27  1  0
  6 28  1  0
  8 29  1  0
  8 30  1  0
 10 31  1  0
 11 32  1  0
 12 33  1  0
 13 34  1  0
 14 35  1  0
 15 36  1  0
 18 37  1  0
 18 38  1  0
 19 39  1  0
 19 40  1  0
 21 41  1  0
 21 42  1  0
 22 43  1  0
 22 44  1  0
M  CHG  1  15   1
M  END
>  <UniqueID>  (8) 
8

>  <SMILES>  (8) 
Cc1ncc(COCc2ccccc2)[nH+]c1N1CCOCC1

>  <Energy>  (8) 
52.97509012995753

>  <Genealogy>  (8) 
Cc1ncc(COCc2ccccc2)[nH+]c1N1CCOCC1 (protonated)
Cc1ncc(COCc2ccccc2)[nH+]c1N1CCOCC1 (3D coordinates assigned)
Cc1ncc(COCc2ccccc2)[nH+]c1N1CCOCC1 (nonaromatic ring conformer: 52.97509012995753 kcal/mol)

>  <smiles>  (8) 
Cc1ncc(COCc2ccccc2)nc1N1CCOCC1

>  <score_type>  (8) 
oracle

>  <origin>  (8) 
adg

>  <m_score__min__energy>  (8) 
-6.8300000000000001

>  <m_primary>  (8) 
energy

$$$$
8:0
     RDKit          3D

 50 54  0  0  1  0  0  0  0  0999 V2000
   -2.6300   25.2170  -29.3170 O   0  0  0  0  0  0  0  0  0  0  0  0
   -2.7710   24.3510  -28.4110 C   0  0  0  0  0  0  0  0  0  0  0  0
   -3.6470   23.2560  -28.6510 N   0  0  0  0  0  0  0  0  0  0  0  0
   -4.3220   23.2010  -29.9150 C   0  0  0  0  0  0  0  0  0  0  0  0
   -5.6360   23.6510  -29.9700 C   0  0  0  0  0  0  0  0  0  0  0  0
   -6.3030   23.6060  -31.1770 C   0  0  0  0  0  0  0  0  0  0  0  0
   -5.7390   23.1370  -32.3420 C   0  0  0  0  0  0  0  0  0  0  0  0
   -4.4090   22.6880  -32.2630 C   0  0  0  0  0  0  0  0  0  0  0  0
   -3.8050   22.1200  -33.3750 N   0  0  0  0  0  0  0  0  0  0  0  0
   -3.0940   21.0950  -33.4710 C   0  0  0  0  0  0  0  0  0  0  0  0
   -1.8010   21.2930  -33.8810 N   0  0  0  0  0  0  0  0  0  0  0  0
   -0.9020   20.3020  -33.9300 C   0  0  0  0  0  0  0  0  0  0  0  0
   -1.3230   19.0490  -33.5460 C   0  0  0  0  0  0  0  0  0  0  0  0
   -2.6170   18.8400  -33.1370 C   0  0  0  0  0  0  0  0  0  0  0  0
   -3.5610   19.8920  -33.0920 C   0  0  0  0  0  0  0  0  0  0  0  0
   -4.9190   19.4740  -32.8440 C   0  0  0  0  0  0  0  0  0  0  0  0
   -5.4980   18.4460  -32.2260 N   0  0  0  0  0  0  0  0  0  0  0  0
   -6.8230   18.5690  -32.1200 C   0  0  0  0  0  0  0  0  0  0  0  0
   -7.8410   17.8070  -31.5850 C   0  0  0  0  0  0  0  0  0  0  0  0
   -9.1370   18.2500  -31.6510 C   0  0  0  0  0  0  0  0  0  0  0  0
   -9.4390   19.4560  -32.2490 C   0  0  0  0  0  0  0  0  0  0  0  0
   -8.4270   20.2250  -32.7870 C   0  0  0  0  0  0  0  0  0  0  0  0
   -7.1260   19.7680  -32.7140 C   0  0  0  0  0  0  0  0  0  0  0  0
   -5.9740   20.2950  -33.1420 N   0  0  0  0  0  0  0  0  0  0  0  0
   -3.7160   22.7280  -31.0430 C   0  0  0  0  0  0  0  0  0  0  0  0
   -2.0280   24.5180  -27.1670 C   0  0  0  0  0  0  0  0  0  0  0  0
   -1.2010   23.4740  -26.7920 C   0  0  0  0  0  0  0  0  0  0  0  0
   -0.4510   23.5500  -25.6130 C   0  0  0  0  0  0  0  0  0  0  0  0
   -0.5510   24.6860  -24.8300 C   0  0  0  0  0  0  0  0  0  0  0  0
   -1.3830   25.7230  -25.2190 C   0  0  0  0  0  0  0  0  0  0  0  0
   -2.1250   25.6380  -26.3930 C   0  0  0  0  0  0  0  0  0  0  0  0
   -3.7830   22.5340  -27.9320 H   0  0  0  0  0  0  0  0  0  0  0  0
   -6.1347   24.0358  -29.0682 H   0  0  0  0  0  0  0  0  0  0  0  0
   -7.3424   23.9645  -31.2102 H   0  0  0  0  0  0  0  0  0  0  0  0
   -6.3008   23.1147  -33.2874 H   0  0  0  0  0  0  0  0  0  0  0  0
   -1.4760   22.2380  -34.1720 H   0  0  0  0  0  0  0  0  0  0  0  0
    0.1307   20.4818  -34.2635 H   0  0  0  0  0  0  0  0  0  0  0  0
   -0.6158   18.2067  -33.5670 H   0  0  0  0  0  0  0  0  0  0  0  0
   -2.9273   17.8283  -32.8366 H   0  0  0  0  0  0  0  0  0  0  0  0
   -7.6130   16.8437  -31.1053 H   0  0  0  0  0  0  0  0  0  0  0  0
   -9.9441   17.6375  -31.2227 H   0  0  0  0  0  0  0  0  0  0  0  0
  -10.4817   19.8032  -32.2968 H   0  0  0  0  0  0  0  0  0  0  0  0
   -8.6536   21.1884  -33.2672 H   0  0  0  0  0  0  0  0  0  0  0  0
   -5.9130   21.2030  -33.6320 H   0  0  0  0  0  0  0  0  0  0  0  0
   -2.6753   22.3750  -30.9955 H   0  0  0  0  0  0  0  0  0  0  0  0
   -1.1325   22.5774  -27.4255 H   0  0  0  0  0  0  0  0  0  0  0  0
    0.2068   22.7206  -25.3140 H   0  0  0  0  0  0  0  0  0  0  0  0
    0.0297   24.7658  -23.8992 H   0  0  0  0  0  0  0  0  0  0  0  0
   -1.4579   26.6241  -24.5925 H   0  0  0  0  0  0  0  0  0  0  0  0
   -2.7837   26.4658  -26.6945 H   0  0  0  0  0  0  0  0  0  0  0  0
  1  2  2  0
  2  3  1  0
  3  4  1  0
  4  5  2  0
  5  6  1  0
  6  7  2  0
  7  8  1  0
  8  9  1  0
  9 10  2  0
 10 11  1  0
 11 12  1  0
 12 13  2  0
 13 14  1  0
 14 15  2  0
 15 16  1  0
 16 17  2  0
 17 18  1  0
 18 19  2  0
 19 20  1  0
 20 21  2  0
 21 22  1  0
 22 23  2  0
 23 24  1  0
  8 25  2  0
  2 26  1  0
 26 27  2  0
 27 28  1  0
 28 29  2  0
 29 30  1  0
 30 31  2  0
 25  4  1  0
 31 26  1  0
 15 10  1  0
 24 16  1  0
 23 18  1  0
  3 32  1  0
  5 33  1  0
  6 34  1  0
  7 35  1  0
 11 36  1  0
 12 37  1  0
 13 38  1  0
 14 39  1  0
 19 40  1  0
 20 41  1  0
 21 42  1  0
 22 43  1  0
 24 44  1  0
 25 45  1  0
 27 46  1  0
 28 47  1  0
 29 48  1  0
 30 49  1  0
 31 50  1  0
M  END
>  <smiles>  (9) 
O=C(Nc1cccc(N=c2[nH]cccc2-c2nc3ccccc3[nH]2)c1)c1ccccc1

>  <score_type>  (9) 
oracle

>  <origin>  (9) 
adg

>  <m_score__min__energy>  (9) 
-9.9399999999999995

>  <m_primary>  (9) 
energy

$$$$
9:0
     RDKit          3D

 40 42  0  0  0  0  0  0  0  0999 V2000
    0.1780   23.0960  -25.3970 C   0  0  0  0  0  0  0  0  0  0  0  0
    0.9370   22.9430  -26.5910 O   0  0  0  0  0  0  0  0  0  0  0  0
    0.7200   23.7260  -27.7310 C   0  0  0  0  0  0  0  0  0  0  0  0
    1.6230   24.5060  -28.1410 O   0  0  0  0  0  0  0  0  0  0  0  0
   -0.5690   23.6340  -28.4520 C   0  0  0  0  0  0  0  0  0  0  0  0
   -0.8380   22.5500  -29.3060 C   0  0  0  0  0  0  0  0  0  0  0  0
   -2.0560   22.4670  -29.9860 C   0  0  0  0  0  0  0  0  0  0  0  0
   -3.0370   23.4640  -29.8230 C   0  0  0  0  0  0  0  0  0  0  0  0
   -4.3350   23.3980  -30.5420 C   0  0  0  0  0  0  0  0  0  0  0  0
   -4.9700   22.1740  -30.8110 C   0  0  0  0  0  0  0  0  0  0  0  0
   -6.1970   22.1760  -31.4960 C   0  0  0  0  0  0  0  0  0  0  0  0
   -6.8890   20.9450  -31.8010 N   0  0  0  0  0  0  0  0  0  0  0  0
   -6.1280   19.7290  -32.1120 C   0  0  0  0  0  0  0  0  0  0  0  0
   -6.9070   18.8700  -33.1180 C   0  0  0  0  0  0  0  0  0  0  0  0
   -8.2990   18.5830  -32.7100 N   0  0  0  0  0  0  0  0  0  0  0  0
   -8.7930   19.3830  -31.5790 C   0  0  0  0  0  0  0  0  0  0  0  0
   -8.3500   20.8490  -31.6710 C   0  0  0  0  0  0  0  0  0  0  0  0
   -6.7420   23.3670  -31.8640 N   0  0  0  0  0  0  0  0  0  0  0  0
   -6.1260   24.5440  -31.5890 C   0  0  0  0  0  0  0  0  0  0  0  0
   -4.9380   24.5530  -30.9350 N   0  0  0  0  0  0  0  0  0  0  0  0
   -2.7600   24.5530  -28.9790 C   0  0  0  0  0  0  0  0  0  0  0  0
   -1.5410   24.6350  -28.2980 C   0  0  0  0  0  0  0  0  0  0  0  0
    0.8354   22.9635  -24.5251 H   0  0  0  0  0  0  0  0  0  0  0  0
   -0.2666   24.1018  -25.3715 H   0  0  0  0  0  0  0  0  0  0  0  0
   -0.6215   22.3410  -25.3715 H   0  0  0  0  0  0  0  0  0  0  0  0
   -0.0835   21.7608  -29.4400 H   0  0  0  0  0  0  0  0  0  0  0  0
   -2.2502   21.6153  -30.6545 H   0  0  0  0  0  0  0  0  0  0  0  0
   -4.5127   21.2266  -30.4897 H   0  0  0  0  0  0  0  0  0  0  0  0
   -5.1561   20.0075  -32.5454 H   0  0  0  0  0  0  0  0  0  0  0  0
   -5.9710   19.1530  -31.1881 H   0  0  0  0  0  0  0  0  0  0  0  0
   -6.9309   19.4008  -34.0811 H   0  0  0  0  0  0  0  0  0  0  0  0
   -6.3872   17.9027  -33.1815 H   0  0  0  0  0  0  0  0  0  0  0  0
   -8.9280   18.7520  -33.5310 H   0  0  0  0  0  0  0  0  0  0  0  0
   -9.8923   19.3446  -31.5709 H   0  0  0  0  0  0  0  0  0  0  0  0
   -8.3717   18.9595  -30.6553 H   0  0  0  0  0  0  0  0  0  0  0  0
   -8.8216   21.3139  -32.5493 H   0  0  0  0  0  0  0  0  0  0  0  0
   -8.6573   21.3688  -30.7516 H   0  0  0  0  0  0  0  0  0  0  0  0
   -6.5907   25.4923  -31.8969 H   0  0  0  0  0  0  0  0  0  0  0  0
   -3.5091   25.3486  -28.8527 H   0  0  0  0  0  0  0  0  0  0  0  0
   -1.3424   25.4910  -27.6363 H   0  0  0  0  0  0  0  0  0  0  0  0
  1  2  1  0
  2  3  1  0
  3  4  2  0
  3  5  1  0
  5  6  2  0
  6  7  1  0
  7  8  2  0
  8  9  1  0
  9 10  2  0
 10 11  1  0
 11 12  1  0
 12 13  1  0
 13 14  1  0
 14 15  1  0
 15 16  1  0
 16 17  1  0
 11 18  2  0
 18 19  1  0
 19 20  2  0
  8 21  1  0
 21 22  2  0
 22  5  1  0
 20  9  1  0
 17 12  1  0
  1 23  1  0
  1 24  1  0
  1 25  1  0
  6 26  1  0
  7 27  1  0
 10 28  1  0
 13 29  1  0
 13 30  1  0
 14 31  1  0
 14 32  1  0
 15 33  1  0
 16 34  1  0
 16 35  1  0
 17 36  1  0
 17 37  1  0
 19 38  1  0
 21 39  1  0
 22 40  1  0
M  END
>  <UniqueID>  (10) 
9

>  <SMILES>  (10) 
COC(=O)c1ccc(-c2cc(N3CCNCC3)ncn2)cc1

>  <Energy>  (10) 
51.13090369828092

>  <Genealogy>  (10) 
COC(=O)c1ccc(-c2cc(N3CCNCC3)ncn2)cc1 (3D coordinates assigned)
COC(=O)c1ccc(-c2cc(N3CCNCC3)ncn2)cc1 (nonaromatic ring conformer: 51.13090369828092 kcal/mol)

>  <smiles>  (10) 
COC(=O)c1ccc(-c2cc(N3CCNCC3)ncn2)cc1

>  <score_type>  (10) 
oracle

>  <origin>  (10) 
adg

>  <m_score__min__energy>  (10) 
-7.7000000000000002

>  <m_primary>  (10) 
energy

$$$$
10:0
     RDKit          3D

 47 49  0  0  0  0  0  0  0  0999 V2000
   -6.0947   22.7298  -33.2909 H   0  0  0  0  0  0  0  0  0  0  0  0
   -6.4150   22.2790  -32.3400 C   0  0  0  0  0  0  0  0  0  0  0  0
   -7.6590   21.9390  -32.1740 N   0  0  0  0  0  0  0  0  0  0  0  0
   -8.1850   20.6210  -32.3910 C   0  0  0  0  0  0  0  0  0  0  0  0
   -9.4280   20.4460  -32.2900 O   0  0  0  0  0  0  0  0  0  0  0  0
   -7.3190   19.4580  -32.7020 C   0  0  0  0  0  0  0  0  0  0  0  0
   -7.3150   18.3190  -31.8750 C   0  0  0  0  0  0  0  0  0  0  0  0
   -7.9505   18.2918  -30.9775 H   0  0  0  0  0  0  0  0  0  0  0  0
   -6.5070   17.2220  -32.1890 C   0  0  0  0  0  0  0  0  0  0  0  0
   -6.5002   16.3396  -31.5322 H   0  0  0  0  0  0  0  0  0  0  0  0
   -5.7090   17.2440  -33.3340 C   0  0  0  0  0  0  0  0  0  0  0  0
   -5.0711   16.3814  -33.5768 H   0  0  0  0  0  0  0  0  0  0  0  0
   -5.7210   18.3630  -34.1720 C   0  0  0  0  0  0  0  0  0  0  0  0
   -5.0958   18.3779  -35.0770 H   0  0  0  0  0  0  0  0  0  0  0  0
   -6.5260   19.4630  -33.8620 C   0  0  0  0  0  0  0  0  0  0  0  0
   -6.5387   20.3371  -34.5297 H   0  0  0  0  0  0  0  0  0  0  0  0
   -5.4490   22.0690  -31.2840 N   0  0  0  0  0  0  0  0  0  0  0  0
   -4.4940   20.9500  -31.4400 C   0  0  0  0  0  0  0  0  0  0  0  0
   -5.0623   20.0099  -31.4966 H   0  0  0  0  0  0  0  0  0  0  0  0
   -3.9159   21.1372  -32.3569 H   0  0  0  0  0  0  0  0  0  0  0  0
   -3.4920   20.8470  -30.2790 C   0  0  0  0  0  0  0  0  0  0  0  0
   -3.9873   20.3858  -29.4119 H   0  0  0  0  0  0  0  0  0  0  0  0
   -2.6380   20.2307  -30.5967 H   0  0  0  0  0  0  0  0  0  0  0  0
   -2.9940   22.2140  -29.8970 C   0  0  0  0  0  0  0  0  0  0  0  0
   -1.6400   22.4340  -29.6190 C   0  0  0  0  0  0  0  0  0  0  0  0
   -0.9260   21.6000  -29.6874 H   0  0  0  0  0  0  0  0  0  0  0  0
   -1.1860   23.7130  -29.2530 C   0  0  0  0  0  0  0  0  0  0  0  0
    0.1670   23.9740  -28.9750 O   0  0  0  0  0  0  0  0  0  0  0  0
    0.8250   23.6150  -27.7650 C   0  0  0  0  0  0  0  0  0  0  0  0
    0.2206   23.9448  -26.9071 H   0  0  0  0  0  0  0  0  0  0  0  0
    0.9513   22.5230  -27.7264 H   0  0  0  0  0  0  0  0  0  0  0  0
    1.8116   24.0998  -27.7264 H   0  0  0  0  0  0  0  0  0  0  0  0
   -2.0990   24.7730  -29.1590 C   0  0  0  0  0  0  0  0  0  0  0  0
   -1.6110   26.0390  -28.7960 O   0  0  0  0  0  0  0  0  0  0  0  0
   -1.0760   26.3640  -27.5160 C   0  0  0  0  0  0  0  0  0  0  0  0
   -1.7346   25.9639  -26.7310 H   0  0  0  0  0  0  0  0  0  0  0  0
   -0.0739   25.9219  -27.4144 H   0  0  0  0  0  0  0  0  0  0  0  0
   -1.0065   27.4571  -27.4144 H   0  0  0  0  0  0  0  0  0  0  0  0
   -3.4640   24.5450  -29.4240 C   0  0  0  0  0  0  0  0  0  0  0  0
   -4.1800   25.3762  -29.3437 H   0  0  0  0  0  0  0  0  0  0  0  0
   -3.9220   23.2630  -29.7910 C   0  0  0  0  0  0  0  0  0  0  0  0
   -5.3820   22.9170  -30.0650 C   0  0  1  0  0  0  0  0  0  0  0  0
   -5.7707   22.3389  -29.2137 H   0  0  0  0  0  0  0  0  0  0  0  0
   -6.3250   24.1380  -30.0940 C   0  0  0  0  0  0  0  0  0  0  0  0
   -6.5610   24.4436  -29.0640 H   0  0  0  0  0  0  0  0  0  0  0  0
   -5.8323   24.9694  -30.6193 H   0  0  0  0  0  0  0  0  0  0  0  0
   -7.2540   23.8714  -30.6193 H   0  0  0  0  0  0  0  0  0  0  0  0
  1  2  1  0
  2  3  2  0
  3  4  1  0
  4  5  2  0
  4  6  1  0
  6  7  2  0
  7  8  1  0
  7  9  1  0
  9 10  1  0
  9 11  2  0
 11 12  1  0
 11 13  1  0
 13 14  1  0
 13 15  2  0
 15 16  1  0
  2 17  1  0
 17 18  1  0
 18 19  1  0
 18 20  1  0
 18 21  1  0
 21 22  1  0
 21 23  1  0
 21 24  1  0
 24 25  2  0
 25 26  1  0
 25 27  1  0
 27 28  1  0
 28 29  1  0
 29 30  1  0
 29 31  1  0
 29 32  1  0
 27 33  2  0
 33 34  1  0
 34 35  1  0
 35 36  1  0
 35 37  1  0
 35 38  1  0
 33 39  1  0
 39 40  1  0
 39 41  2  0
 41 42  1  0
 42 43  1  1
 42 44  1  0
 44 45  1  0
 44 46  1  0
 44 47  1  0
 15  6  1  0
 42 17  1  0
 41 24  1  0
M  END
>  <UniqueID>  (11) 
10

>  <SMILES>  (11) 
COc1cc2c(cc1OC)[C@@H](C)N(/C=N/C(=O)c1ccccc1)CC2

>  <Energy>  (11) 
61.731370313594866

>  <Genealogy>  (11) 
COc1cc2c(cc1OC)[C@@H](C)N(C=NC(=O)c1ccccc1)CC2 (chirality)
COc1cc2c(cc1OC)[C@@H](C)N(/C=N/C(=O)c1ccccc1)CC2 (cis-trans isomerization)
COc1cc2c(cc1OC)[C@@H](C)N(/C=N/C(=O)c1ccccc1)CC2 (3D coordinates assigned)
COc1cc2c(cc1OC)[C@@H](C)N(/C=N/C(=O)c1ccccc1)CC2 (nonaromatic ring conformer: 61.731370313594866 kcal/mol)

>  <smiles>  (11) 
COc1cc2c(cc1OC)C(C)N(C=NC(=O)c1ccccc1)CC2

>  <score_type>  (11) 
oracle

>  <origin>  (11) 
adg

>  <m_score__min__energy>  (11) 
-8.2699999999999996

>  <m_primary>  (11) 
energy

$$$$
11:0
     RDKit          3D

 37 38  0  0  0  0  0  0  0  0999 V2000
   -3.8416   20.5190  -32.9997 H   0  0  0  0  0  0  0  0  0  0  0  0
   -4.9220   20.3350  -32.9050 C   0  0  0  0  0  0  0  0  0  0  0  0
   -5.6890   21.3490  -32.4740 C   0  0  0  0  0  0  0  0  0  0  0  0
   -7.4790   21.2800  -32.6290 S   0  0  0  0  0  0  0  0  0  0  0  0
   -7.5510   22.8840  -31.8270 C   0  0  0  0  0  0  0  0  0  0  0  0
   -8.6450   23.4610  -31.5900 O   0  0  0  0  0  0  0  0  0  0  0  0
   -6.2960   23.4690  -31.4870 N   0  0  0  0  0  0  0  0  0  0  0  0
   -6.1270   24.8400  -31.0070 C   0  0  0  0  0  0  0  0  0  0  0  0
   -7.0441   25.1613  -30.4916 H   0  0  0  0  0  0  0  0  0  0  0  0
   -5.9299   25.5012  -31.8637 H   0  0  0  0  0  0  0  0  0  0  0  0
   -4.9720   24.9100  -30.0550 C   0  0  0  0  0  0  0  0  0  0  0  0
   -3.8530   25.3160  -30.4700 O   0  0  0  0  0  0  0  0  0  0  0  0
   -5.1310   24.4740  -28.6970 N   0  0  0  0  0  0  0  0  0  0  0  0
   -6.0780   24.1820  -28.3680 H   0  0  0  0  0  0  0  0  0  0  0  0
   -4.0510   24.5300  -27.7120 C   0  0  0  0  0  0  0  0  0  0  0  0
   -4.4501   24.2587  -26.7235 H   0  0  0  0  0  0  0  0  0  0  0  0
   -3.6436   25.5516  -27.6933 H   0  0  0  0  0  0  0  0  0  0  0  0
   -2.9250   23.5590  -28.0830 C   0  0  0  0  0  0  0  0  0  0  0  0
   -2.2234   23.4906  -27.2385 H   0  0  0  0  0  0  0  0  0  0  0  0
   -2.4285   23.9459  -28.9851 H   0  0  0  0  0  0  0  0  0  0  0  0
   -3.4510   22.1610  -28.4000 C   0  0  0  0  0  0  0  0  0  0  0  0
   -3.6531   21.6238  -27.4616 H   0  0  0  0  0  0  0  0  0  0  0  0
   -4.3800   22.2423  -28.9834 H   0  0  0  0  0  0  0  0  0  0  0  0
   -2.6988   21.6098  -28.9834 H   0  0  0  0  0  0  0  0  0  0  0  0
   -5.2330   22.6200  -31.8940 C   0  0  0  0  0  0  0  0  0  0  0  0
   -4.0260   22.9730  -31.8200 O   0  0  0  0  0  0  0  0  0  0  0  0
   -5.4190   18.9930  -33.2610 C   0  0  0  0  0  0  0  0  0  0  0  0
   -6.2910   18.3260  -32.3880 C   0  0  0  0  0  0  0  0  0  0  0  0
   -6.6280   18.8224  -31.4660 H   0  0  0  0  0  0  0  0  0  0  0  0
   -6.7340   17.0330  -32.6840 C   0  0  0  0  0  0  0  0  0  0  0  0
   -7.4292   16.5210  -32.0024 H   0  0  0  0  0  0  0  0  0  0  0  0
   -6.2940   16.3900  -33.8460 C   0  0  0  0  0  0  0  0  0  0  0  0
   -6.8490   14.7670  -34.2150 Cl  0  0  0  0  0  0  0  0  0  0  0  0
   -5.4000   17.0370  -34.7060 C   0  0  0  0  0  0  0  0  0  0  0  0
   -5.0469   16.5285  -35.6153 H   0  0  0  0  0  0  0  0  0  0  0  0
   -4.9550   18.3290  -34.4110 C   0  0  0  0  0  0  0  0  0  0  0  0
   -4.2393   18.8283  -35.0807 H   0  0  0  0  0  0  0  0  0  0  0  0
  1  2  1  0
  2  3  2  0
  3  4  1  0
  4  5  1  0
  5  6  2  0
  5  7  1  0
  7  8  1  0
  8  9  1  0
  8 10  1  0
  8 11  1  0
 11 12  2  0
 11 13  1  0
 13 14  1  0
 13 15  1  0
 15 16  1  0
 15 17  1  0
 15 18  1  0
 18 19  1  0
 18 20  1  0
 18 21  1  0
 21 22  1  0
 21 23  1  0
 21 24  1  0
  7 25  1  0
 25 26  2  0
  2 27  1  0
 27 28  2  0
 28 29  1  0
 28 30  1  0
 30 31  1  0
 30 32  2  0
 32 33  1  0
 32 34  1  0
 34 35  1  0
 34 36  2  0
 36 37  1  0
 25  3  1  0
 36 27  1  0
M  END
>  <UniqueID>  (12) 
11

>  <SMILES>  (12) 
CCCNC(=O)CN1C(=O)S/C(=C/c2ccc(Cl)cc2)C1=O

>  <Energy>  (12) 
55.23901936060488

>  <Genealogy>  (12) 
CCCNC(=O)CN1C(=O)S/C(=C/c2ccc(Cl)cc2)C1=O (cis-trans isomerization)
CCCNC(=O)CN1C(=O)S/C(=C/c2ccc(Cl)cc2)C1=O (3D coordinates assigned)
CCCNC(=O)CN1C(=O)S/C(=C/c2ccc(Cl)cc2)C1=O (nonaromatic ring conformer: 55.23901936060488 kcal/mol)

>  <smiles>  (12) 
CCCNC(=O)CN1C(=O)SC(=Cc2ccc(Cl)cc2)C1=O

>  <score_type>  (12) 
oracle

>  <origin>  (12) 
adg

>  <m_score__min__energy>  (12) 
-8.5899999999999999

>  <m_primary>  (12) 
energy

$$$$
12:0
     RDKit          3D

 31 32  0  0  0  0  0  0  0  0999 V2000
   -9.1610   23.3680  -32.3090 C   0  0  0  0  0  0  0  0  0  0  0  0
   -8.3520   22.1870  -31.9570 N   0  0  0  0  0  0  0  0  0  0  0  0
   -7.7200   22.3190  -30.6240 C   0  0  0  0  0  0  0  0  0  0  0  0
   -6.6400   23.3810  -30.5650 C   0  0  0  0  0  0  0  0  0  0  0  0
   -6.8670   24.5970  -29.9010 C   0  0  0  0  0  0  0  0  0  0  0  0
   -5.8600   25.5630  -29.8490 C   0  0  0  0  0  0  0  0  0  0  0  0
   -4.6350   25.3080  -30.4650 C   0  0  0  0  0  0  0  0  0  0  0  0
   -4.4300   24.1310  -31.1130 N   0  0  0  0  0  0  0  0  0  0  0  0
   -5.3940   23.1740  -31.1770 C   0  0  0  0  0  0  0  0  0  0  0  0
   -9.1210   20.9330  -32.0960 C   0  0  0  0  0  0  0  0  0  0  0  0
   -8.2190   19.8060  -32.5210 C   0  0  0  0  0  0  0  0  0  0  0  0
   -8.3790   18.5230  -31.9850 C   0  0  0  0  0  0  0  0  0  0  0  0
   -7.5450   17.5200  -32.3630 N   0  0  0  0  0  0  0  0  0  0  0  0
   -6.5460   17.7410  -33.2570 C   0  0  0  0  0  0  0  0  0  0  0  0
   -6.3660   18.9800  -33.7870 N   0  0  0  0  0  0  0  0  0  0  0  0
   -7.1780   20.0120  -33.4350 C   0  0  0  0  0  0  0  0  0  0  0  0
   -9.5022   23.8660  -31.3895 H   0  0  0  0  0  0  0  0  0  0  0  0
   -8.5513   24.0672  -32.9001 H   0  0  0  0  0  0  0  0  0  0  0  0
  -10.0332   23.0520  -32.9001 H   0  0  0  0  0  0  0  0  0  0  0  0
   -8.5008   22.5766  -29.8933 H   0  0  0  0  0  0  0  0  0  0  0  0
   -7.2372   21.3563  -30.4000 H   0  0  0  0  0  0  0  0  0  0  0  0
   -7.8383   24.7888  -29.4216 H   0  0  0  0  0  0  0  0  0  0  0  0
   -6.0313   26.5161  -29.3271 H   0  0  0  0  0  0  0  0  0  0  0  0
   -3.8336   26.0605  -30.4263 H   0  0  0  0  0  0  0  0  0  0  0  0
   -5.1963   22.2329  -31.7111 H   0  0  0  0  0  0  0  0  0  0  0  0
   -9.5826   20.6824  -31.1295 H   0  0  0  0  0  0  0  0  0  0  0  0
   -9.8978   21.0751  -32.8618 H   0  0  0  0  0  0  0  0  0  0  0  0
   -9.1804   18.3270  -31.2574 H   0  0  0  0  0  0  0  0  0  0  0  0
   -5.8815   16.9158  -33.5526 H   0  0  0  0  0  0  0  0  0  0  0  0
   -5.5920   19.1410  -34.4700 H   0  0  0  0  0  0  0  0  0  0  0  0
   -7.0172   21.0101  -33.8686 H   0  0  0  0  0  0  0  0  0  0  0  0
  1  2  1  0
  2  3  1  0
  3  4  1  0
  4  5  2  0
  5  6  1  0
  6  7  2  0
  7  8  1  0
  8  9  2  0
  2 10  1  0
 10 11  1  0
 11 12  2  0
 12 13  1  0
 13 14  2  0
 14 15  1  0
 15 16  2  0
  9  4  1  0
 16 11  1  0
  1 17  1  0
  1 18  1  0
  1 19  1  0
  3 20  1  0
  3 21  1  0
  5 22  1  0
  6 23  1  0
  7 24  1  0
  9 25  1  0
 10 26  1  0
 10 27  1  0
 12 28  1  0
 14 29  1  0
 15 30  1  0
 16 31  1  0
M  CHG  1  15   1
M  END
>  <UniqueID>  (13) 
12

>  <SMILES>  (13) 
CN(Cc1cccnc1)Cc1cnc[nH+]c1

>  <Energy>  (13) 
35.19123905250882

>  <Genealogy>  (13) 
CN(Cc1cccnc1)Cc1cnc[nH+]c1 (protonated)
CN(Cc1cccnc1)Cc1cnc[nH+]c1 (3D coordinates assigned)
CN(Cc1cccnc1)Cc1cnc[nH+]c1 (optimized conformer: 35.19123905250882 kcal/mol)

>  <smiles>  (13) 
CN(Cc1cccnc1)Cc1cncnc1

>  <score_type>  (13) 
oracle

>  <origin>  (13) 
adg

>  <m_score__min__energy>  (13) 
-5.8700000000000001

>  <m_primary>  (13) 
energy

$$$$
13:0
     RDKit          3D

 41 43  0  0  0  0  0  0  0  0999 V2000
   -3.9590   25.4370  -30.9170 O   0  0  0  0  0  0  0  0  0  0  0  0
   -3.5820   24.9250  -29.8300 C   0  0  0  0  0  0  0  0  0  0  0  0
   -2.3230   25.2340  -29.3250 O   0  0  0  0  0  0  0  0  0  0  0  0
   -4.4980   24.0110  -29.0720 C   0  0  0  0  0  0  0  0  0  0  0  0
   -3.7440   23.2090  -28.0060 C   0  0  0  0  0  0  0  0  0  0  0  0
   -2.9950   22.0570  -28.6110 C   0  0  0  0  0  0  0  0  0  0  0  0
   -3.1340   20.9020  -28.1220 O   0  0  0  0  0  0  0  0  0  0  0  0
   -2.1390   22.2650  -29.7410 N   0  0  0  0  0  0  0  0  0  0  0  0
   -1.5130   21.1900  -30.3980 N   0  0  0  0  0  0  0  0  0  0  0  0
   -1.6740   20.8160  -31.6920 C   0  0  0  0  0  0  0  0  0  0  0  0
   -2.5320   21.5440  -32.6860 C   0  0  0  0  0  0  0  0  0  0  0  0
   -3.6560   20.7440  -33.0510 O   0  0  0  0  0  0  0  0  0  0  0  0
   -4.9870   20.9990  -32.6780 C   0  0  0  0  0  0  0  0  0  0  0  0
   -5.3570   22.1410  -31.9380 C   0  0  0  0  0  0  0  0  0  0  0  0
   -6.6950   22.3610  -31.6000 C   0  0  0  0  0  0  0  0  0  0  0  0
   -7.6750   21.4460  -31.9890 C   0  0  0  0  0  0  0  0  0  0  0  0
   -9.3540   21.7280  -31.5660 Cl  0  0  0  0  0  0  0  0  0  0  0  0
   -7.3180   20.3070  -32.7160 C   0  0  0  0  0  0  0  0  0  0  0  0
   -5.9800   20.0800  -33.0580 C   0  0  0  0  0  0  0  0  0  0  0  0
   -5.5590   18.6450  -33.9790 Cl  0  0  0  0  0  0  0  0  0  0  0  0
   -0.9530   19.7090  -32.0160 N   0  0  0  0  0  0  0  0  0  0  0  0
   -0.3330   19.3990  -30.8590 C   0  0  0  0  0  0  0  0  0  0  0  0
    0.5260   18.3310  -30.6180 C   0  0  0  0  0  0  0  0  0  0  0  0
    1.0360   18.1820  -29.3140 C   0  0  0  0  0  0  0  0  0  0  0  0
    0.6680   19.0870  -28.2930 C   0  0  0  0  0  0  0  0  0  0  0  0
   -0.2050   20.1550  -28.5680 C   0  0  0  0  0  0  0  0  0  0  0  0
   -0.6700   20.2860  -29.8760 C   0  0  0  0  0  0  0  0  0  0  0  0
   -5.2762   24.6135  -28.5806 H   0  0  0  0  0  0  0  0  0  0  0  0
   -4.9411   23.3008  -29.7856 H   0  0  0  0  0  0  0  0  0  0  0  0
   -3.0289   23.8731  -27.4984 H   0  0  0  0  0  0  0  0  0  0  0  0
   -4.4788   22.8065  -27.2932 H   0  0  0  0  0  0  0  0  0  0  0  0
   -1.8740   23.2410  -30.0010 H   0  0  0  0  0  0  0  0  0  0  0  0
   -2.8861   22.4847  -32.2392 H   0  0  0  0  0  0  0  0  0  0  0  0
   -1.9359   21.7548  -33.5861 H   0  0  0  0  0  0  0  0  0  0  0  0
   -4.5881   22.8627  -31.6251 H   0  0  0  0  0  0  0  0  0  0  0  0
   -6.9765   23.2565  -31.0266 H   0  0  0  0  0  0  0  0  0  0  0  0
   -8.0914   19.5864  -33.0205 H   0  0  0  0  0  0  0  0  0  0  0  0
    0.7973   17.6273  -31.4188 H   0  0  0  0  0  0  0  0  0  0  0  0
    1.7257   17.3553  -29.0885 H   0  0  0  0  0  0  0  0  0  0  0  0
    1.0669   18.9554  -27.2764 H   0  0  0  0  0  0  0  0  0  0  0  0
   -0.5095   20.8604  -27.7808 H   0  0  0  0  0  0  0  0  0  0  0  0
  1  2  2  0
  2  3  1  0
  2  4  1  0
  4  5  1  0
  5  6  1  0
  6  7  2  0
  6  8  1  0
  8  9  1  0
  9 10  1  0
 10 11  1  0
 11 12  1  0
 12 13  1  0
 13 14  2  0
 14 15  1  0
 15 16  2  0
 16 17  1  0
 16 18  1  0
 18 19  2  0
 19 20  1  0
 10 21  2  0
 21 22  1  0
 22 23  2  0
 23 24  1  0
 24 25  2  0
 25 26  1  0
 26 27  2  0
 27  9  1  0
 19 13  1  0
 27 22  1  0
  4 28  1  0
  4 29  1  0
  5 30  1  0
  5 31  1  0
  8 32  1  0
 11 33  1  0
 11 34  1  0
 14 35  1  0
 15 36  1  0
 18 37  1  0
 23 38  1  0
 24 39  1  0
 25 40  1  0
 26 41  1  0
M  CHG  1   3  -1
M  END
>  <UniqueID>  (14) 
13

>  <SMILES>  (14) 
O=C([O-])CCC(=O)Nn1c(COc2ccc(Cl)cc2Cl)nc2ccccc21

>  <Energy>  (14) 
80.5195210217302

>  <Genealogy>  (14) 
O=C([O-])CCC(=O)Nn1c(COc2ccc(Cl)cc2Cl)nc2ccccc21 (protonated)
O=C([O-])CCC(=O)Nn1c(COc2ccc(Cl)cc2Cl)nc2ccccc21 (3D coordinates assigned)
O=C([O-])CCC(=O)Nn1c(COc2ccc(Cl)cc2Cl)nc2ccccc21 (optimized conformer: 80.5195210217302 kcal/mol)

>  <smiles>  (14) 
O=C(O)CCC(=O)Nn1c(COc2ccc(Cl)cc2Cl)nc2ccccc21

>  <score_type>  (14) 
oracle

>  <origin>  (14) 
adg

>  <m_score__min__energy>  (14) 
-10.369999999999999

>  <m_primary>  (14) 
energy

$$$$
14:0
     RDKit          3D

 50 52  0  0  0  0  0  0  0  0999 V2000
   -0.2527   24.4202  -27.6122 H   0  0  0  0  0  0  0  0  0  0  0  0
   -1.1620   24.0590  -28.1150 C   0  0  0  0  0  0  0  0  0  0  0  0
   -1.6030   22.7510  -27.9030 C   0  0  0  0  0  0  0  0  0  0  0  0
   -1.0382   22.0814  -27.2376 H   0  0  0  0  0  0  0  0  0  0  0  0
   -2.7600   22.2930  -28.5350 C   0  0  0  0  0  0  0  0  0  0  0  0
   -3.1025   21.2610  -28.3687 H   0  0  0  0  0  0  0  0  0  0  0  0
   -3.4880   23.1420  -29.3810 C   0  0  0  0  0  0  0  0  0  0  0  0
   -4.6790   22.6620  -30.0220 N   0  0  0  0  0  0  0  0  0  0  0  0
   -5.9480   22.6830  -29.2850 C   0  0  0  0  0  0  0  0  0  0  0  0
   -5.9165   21.9235  -28.4899 H   0  0  0  0  0  0  0  0  0  0  0  0
   -6.0885   23.6840  -28.8510 H   0  0  0  0  0  0  0  0  0  0  0  0
   -7.1210   22.3830  -30.2200 C   0  0  0  0  0  0  0  0  0  0  0  0
   -7.2284   21.2951  -30.3420 H   0  0  0  0  0  0  0  0  0  0  0  0
   -8.0517   22.7883  -29.7962 H   0  0  0  0  0  0  0  0  0  0  0  0
   -6.8520   23.0050  -31.5290 N   0  0  0  0  0  0  0  0  0  0  0  0
   -8.0670   23.0700  -32.3670 C   0  0  0  0  0  0  0  0  0  0  0  0
   -8.3615   24.1226  -32.4912 H   0  0  0  0  0  0  0  0  0  0  0  0
   -7.8429   22.6127  -33.3420 H   0  0  0  0  0  0  0  0  0  0  0  0
   -9.2300   22.2960  -31.7210 C   0  0  0  0  0  0  0  0  0  0  0  0
   -9.0308   22.1989  -30.6435 H   0  0  0  0  0  0  0  0  0  0  0  0
  -10.1522   22.8622  -31.9186 H   0  0  0  0  0  0  0  0  0  0  0  0
   -9.4180   20.8880  -32.3140 C   0  0  0  0  0  0  0  0  0  0  0  0
  -10.4584   20.5688  -32.1536 H   0  0  0  0  0  0  0  0  0  0  0  0
   -9.1824   20.9318  -33.3876 H   0  0  0  0  0  0  0  0  0  0  0  0
   -8.5210   19.9170  -31.6870 N   0  0  0  0  0  0  0  0  0  0  0  0
   -7.5640   19.2400  -32.2590 C   0  0  0  0  0  0  0  0  0  0  0  0
   -6.8730   18.2880  -31.4970 C   0  0  0  0  0  0  0  0  0  0  0  0
   -7.1380   18.1265  -30.4417 H   0  0  0  0  0  0  0  0  0  0  0  0
   -5.8470   17.5460  -32.0840 C   0  0  0  0  0  0  0  0  0  0  0  0
   -5.3002   16.7971  -31.4923 H   0  0  0  0  0  0  0  0  0  0  0  0
   -5.5170   17.7560  -33.4210 C   0  0  0  0  0  0  0  0  0  0  0  0
   -4.7125   17.1730  -33.8932 H   0  0  0  0  0  0  0  0  0  0  0  0
   -6.2180   18.7140  -34.1550 C   0  0  0  0  0  0  0  0  0  0  0  0
   -5.9619   18.8899  -35.2102 H   0  0  0  0  0  0  0  0  0  0  0  0
   -7.2170   19.4320  -33.5720 N   0  0  0  0  0  0  0  0  0  0  0  0
   -7.6990   20.1410  -34.1650 H   0  0  0  0  0  0  0  0  0  0  0  0
   -5.7660   22.2840  -32.2290 C   0  0  0  0  0  0  0  0  0  0  0  0
   -6.1720   21.3467  -32.6373 H   0  0  0  0  0  0  0  0  0  0  0  0
   -5.3876   22.9437  -33.0237 H   0  0  0  0  0  0  0  0  0  0  0  0
   -4.5790   21.9450  -31.2990 C   0  0  0  0  0  0  0  0  0  0  0  0
   -4.5756   20.8627  -31.1027 H   0  0  0  0  0  0  0  0  0  0  0  0
   -3.6485   22.2535  -31.7979 H   0  0  0  0  0  0  0  0  0  0  0  0
   -3.0400   24.4560  -29.6120 C   0  0  0  0  0  0  0  0  0  0  0  0
   -3.7680   25.2700  -30.4960 O   0  0  0  0  0  0  0  0  0  0  0  0
   -5.1620   25.5350  -30.3870 C   0  0  0  0  0  0  0  0  0  0  0  0
   -5.4431   25.5884  -29.3249 H   0  0  0  0  0  0  0  0  0  0  0  0
   -5.3924   26.4930  -30.8759 H   0  0  0  0  0  0  0  0  0  0  0  0
   -5.7279   24.7283  -30.8759 H   0  0  0  0  0  0  0  0  0  0  0  0
   -1.8740   24.9100  -28.9650 C   0  0  0  0  0  0  0  0  0  0  0  0
   -1.5221   25.9391  -29.1295 H   0  0  0  0  0  0  0  0  0  0  0  0
  1  2  1  0
  2  3  2  0
  3  4  1  0
  3  5  1  0
  5  6  1  0
  5  7  2  0
  7  8  1  0
  8  9  1  0
  9 10  1  0
  9 11  1  0
  9 12  1  0
 12 13  1  0
 12 14  1  0
 12 15  1  0
 15 16  1  0
 16 17  1  0
 16 18  1  0
 16 19  1  0
 19 20  1  0
 19 21  1  0
 19 22  1  0
 22 23  1  0
 22 24  1  0
 22 25  1  0
 25 26  2  0
 26 27  1  0
 27 28  1  0
 27 29  2  0
 29 30  1  0
 29 31  1  0
 31 32  1  0
 31 33  2  0
 33 34  1  0
 33 35  1  0
 35 36  1  0
 15 37  1  0
 37 38  1  0
 37 39  1  0
 37 40  1  0
 40 41  1  0
 40 42  1  0
  7 43  1  0
 43 44  1  0
 44 45  1  0
 45 46  1  0
 45 47  1  0
 45 48  1  0
 43 49  2  0
 49 50  1  0
 49  2  1  0
 40  8  1  0
 35 26  1  0
M  END
>  <UniqueID>  (15) 
14

>  <SMILES>  (15) 
COc1ccccc1N1CCN(CCC/N=c2/cccc[nH]2)CC1

>  <Energy>  (15) 
59.95708425742855

>  <Genealogy>  (15) 
COc1ccccc1N1CCN(CCC/N=c2/cccc[nH]2)CC1 (cis-trans isomerization)
COc1ccccc1N1CCN(CCC/N=c2/cccc[nH]2)CC1 (3D coordinates assigned)
COc1ccccc1N1CCN(CCC/N=c2/cccc[nH]2)CC1 (nonaromatic ring conformer: 59.95708425742855 kcal/mol)

>  <smiles>  (15) 
COc1ccccc1N1CCN(CCCN=c2cccc[nH]2)CC1

>  <score_type>  (15) 
oracle

>  <origin>  (15) 
adg

>  <m_score__min__energy>  (15) 
-8.3800000000000008

>  <m_primary>  (15) 
energy

$$$$
15:0
     RDKit          3D

 37 39  0  0  0  0  0  0  0  0999 V2000
   -2.6900   18.9390  -26.1680 C   0  0  0  0  0  0  0  0  0  0  0  0
   -1.5940   19.6930  -26.6760 O   0  0  0  0  0  0  0  0  0  0  0  0
   -1.6650   21.0350  -27.0820 C   0  0  0  0  0  0  0  0  0  0  0  0
   -2.1950   21.3100  -28.3440 C   0  0  0  0  0  0  0  0  0  0  0  0
   -2.3010   22.6230  -28.7980 C   0  0  0  0  0  0  0  0  0  0  0  0
   -1.8640   23.6950  -28.0000 C   0  0  0  0  0  0  0  0  0  0  0  0
   -1.9940   25.0160  -28.4570 C   0  0  0  0  0  0  0  0  0  0  0  0
   -2.5360   25.2900  -29.7100 O   0  0  0  0  0  0  0  0  0  0  0  0
   -1.5890   26.0790  -27.6550 C   0  0  0  0  0  0  0  0  0  0  0  0
   -1.0300   25.8550  -26.3940 C   0  0  0  0  0  0  0  0  0  0  0  0
   -0.8290   24.5320  -25.9290 C   0  0  0  0  0  0  0  0  0  0  0  0
   -1.2970   23.4390  -26.7190 C   0  0  0  0  0  0  0  0  0  0  0  0
   -1.2260   22.0990  -26.2700 C   0  0  0  0  0  0  0  0  0  0  0  0
   -0.1810   24.3100  -24.5640 C   0  0  0  0  0  0  0  0  0  0  0  0
    0.5710   25.4850  -24.0600 N   0  0  1  0  0  0  0  0  0  0  0  0
    1.8800   25.6960  -24.6770 C   0  0  0  0  0  0  0  0  0  0  0  0
    2.9100   26.6480  -24.1230 C   0  0  0  0  0  0  0  0  0  0  0  0
    2.1470   25.1200  -25.7240 O   0  0  0  0  0  0  0  0  0  0  0  0
   -0.2690   26.6980  -24.1440 C   0  0  0  0  0  0  0  0  0  0  0  0
   -0.5900   27.0550  -25.5950 C   0  0  0  0  0  0  0  0  0  0  0  0
   -2.6674   18.9545  -25.0683 H   0  0  0  0  0  0  0  0  0  0  0  0
   -3.6337   19.3800  -26.5216 H   0  0  0  0  0  0  0  0  0  0  0  0
   -2.6156   17.9001  -26.5216 H   0  0  0  0  0  0  0  0  0  0  0  0
   -2.5320   20.4826  -28.9857 H   0  0  0  0  0  0  0  0  0  0  0  0
   -2.7308   22.8229  -29.7906 H   0  0  0  0  0  0  0  0  0  0  0  0
   -1.7107   27.1099  -28.0189 H   0  0  0  0  0  0  0  0  0  0  0  0
   -0.8211   21.8846  -25.2699 H   0  0  0  0  0  0  0  0  0  0  0  0
   -0.9726   24.0681  -23.8395 H   0  0  0  0  0  0  0  0  0  0  0  0
    0.5449   23.4922  -24.6832 H   0  0  0  0  0  0  0  0  0  0  0  0
    0.7500   25.3080  -23.0440 H   0  0  0  0  0  0  0  0  0  0  0  0
    2.8806   26.6209  -23.0237 H   0  0  0  0  0  0  0  0  0  0  0  0
    3.9100   26.3492  -24.4706 H   0  0  0  0  0  0  0  0  0  0  0  0
    2.6907   27.6683  -24.4706 H   0  0  0  0  0  0  0  0  0  0  0  0
   -1.2099   26.5199  -23.6028 H   0  0  0  0  0  0  0  0  0  0  0  0
    0.2865   27.5353  -23.6964 H   0  0  0  0  0  0  0  0  0  0  0  0
   -1.3969   27.8025  -25.6054 H   0  0  0  0  0  0  0  0  0  0  0  0
    0.3276   27.4490  -26.0562 H   0  0  0  0  0  0  0  0  0  0  0  0
  1  2  1  0
  2  3  1  0
  3  4  2  0
  4  5  1  0
  5  6  2  0
  6  7  1  0
  7  8  1  0
  7  9  2  0
  9 10  1  0
 10 11  2  0
 11 12  1  0
 12 13  2  0
 11 14  1  0
 14 15  1  0
 15 16  1  0
 16 17  1  0
 16 18  2  0
 15 19  1  0
 19 20  1  0
 13  3  1  0
 12  6  1  0
 20 10  1  0
  1 21  1  0
  1 22  1  0
  1 23  1  0
  4 24  1  0
  5 25  1  0
  9 26  1  0
 13 27  1  0
 14 28  1  0
 14 29  1  0
 15 30  1  1
 17 31  1  0
 17 32  1  0
 17 33  1  0
 19 34  1  0
 19 35  1  0
 20 36  1  0
 20 37  1  0
M  CHG  2   8  -1  15   1
M  END
>  <UniqueID>  (16) 
15

>  <SMILES>  (16) 
COc1ccc2c([O-])cc3c(c2c1)C[N@@H+](C(C)=O)CC3

>  <Energy>  (16) 
53.97804067842396

>  <Genealogy>  (16) 
COc1ccc2c([O-])cc3c(c2c1)C[NH+](C(C)=O)CC3 (protonated)
COc1ccc2c([O-])cc3c(c2c1)C[N@@H+](C(C)=O)CC3 (chirality)
COc1ccc2c([O-])cc3c(c2c1)C[N@@H+](C(C)=O)CC3 (3D coordinates assigned)
COc1ccc2c([O-])cc3c(c2c1)C[N@@H+](C(C)=O)CC3 (nonaromatic ring conformer: 53.97804067842396 kcal/mol)

>  <smiles>  (16) 
COc1ccc2c(O)cc3c(c2c1)CN(C(C)=O)CC3

>  <score_type>  (16) 
oracle

>  <origin>  (16) 
adg

>  <m_score__min__energy>  (16) 
-9.5899999999999999

>  <m_primary>  (16) 
energy

$$$$
16:0
     RDKit          3D

 42 43  0  0  0  0  0  0  0  0999 V2000
   -7.7164   23.6622  -32.8828 H   0  0  0  0  0  0  0  0  0  0  0  0
   -7.2600   22.8820  -32.2560 C   0  0  0  0  0  0  0  0  0  0  0  0
   -7.9950   21.7920  -31.9740 C   0  0  0  0  0  0  0  0  0  0  0  0
   -7.6030   20.4370  -32.4130 C   0  0  0  0  0  0  0  0  0  0  0  0
   -8.1590   19.3000  -31.8040 C   0  0  0  0  0  0  0  0  0  0  0  0
   -8.9007   19.4163  -31.0001 H   0  0  0  0  0  0  0  0  0  0  0  0
   -7.7730   18.0210  -32.2160 C   0  0  0  0  0  0  0  0  0  0  0  0
   -8.2181   17.1335  -31.7425 H   0  0  0  0  0  0  0  0  0  0  0  0
   -6.8220   17.8690  -33.2290 C   0  0  0  0  0  0  0  0  0  0  0  0
   -6.5223   16.8622  -33.5555 H   0  0  0  0  0  0  0  0  0  0  0  0
   -6.2520   18.9960  -33.8270 C   0  0  0  0  0  0  0  0  0  0  0  0
   -5.5000   18.8754  -34.6207 H   0  0  0  0  0  0  0  0  0  0  0  0
   -6.6360   20.2770  -33.4180 C   0  0  0  0  0  0  0  0  0  0  0  0
   -6.1790   21.1618  -33.8851 H   0  0  0  0  0  0  0  0  0  0  0  0
   -9.2050   21.9390  -31.0940 C   0  0  0  0  0  0  0  0  0  0  0  0
   -8.8975   21.9016  -30.0385 H   0  0  0  0  0  0  0  0  0  0  0  0
   -9.6931   22.9030  -31.2998 H   0  0  0  0  0  0  0  0  0  0  0  0
   -9.9098   21.1199  -31.2998 H   0  0  0  0  0  0  0  0  0  0  0  0
   -5.6090   23.1420  -31.6850 S   0  0  0  0  0  0  0  0  0  0  0  0
   -5.3930   22.3470  -30.4290 O   0  0  0  0  0  0  0  0  0  0  0  0
   -5.3570   24.5990  -31.4080 O   0  0  0  0  0  0  0  0  0  0  0  0
   -4.4930   22.5980  -32.8940 N   0  0  0  0  0  0  0  0  0  0  0  0
   -4.5990   23.0000  -33.8520 H   0  0  0  0  0  0  0  0  0  0  0  0
   -3.4260   21.6720  -32.6180 C   0  0  0  0  0  0  0  0  0  0  0  0
   -3.2250   20.5550  -33.4500 C   0  0  0  0  0  0  0  0  0  0  0  0
   -3.9166   20.3666  -34.2844 H   0  0  0  0  0  0  0  0  0  0  0  0
   -2.1580   19.6840  -33.2280 C   0  0  0  0  0  0  0  0  0  0  0  0
   -2.0155   18.8123  -33.8836 H   0  0  0  0  0  0  0  0  0  0  0  0
   -1.2730   19.9160  -32.1780 C   0  0  0  0  0  0  0  0  0  0  0  0
   -0.2380   19.0680  -31.9650 F   0  0  0  0  0  0  0  0  0  0  0  0
   -1.4560   21.0170  -31.3400 C   0  0  0  0  0  0  0  0  0  0  0  0
   -0.7542   21.1926  -30.5114 H   0  0  0  0  0  0  0  0  0  0  0  0
   -2.5310   21.9070  -31.5440 C   0  0  0  0  0  0  0  0  0  0  0  0
   -2.7530   23.0050  -30.6370 N   0  0  0  0  0  0  0  0  0  0  0  0
   -3.6300   23.5650  -30.7250 H   0  0  0  0  0  0  0  0  0  0  0  0
   -1.8190   23.4010  -29.5810 C   0  0  0  0  0  0  0  0  0  0  0  0
   -1.0444   24.0530  -30.0110 H   0  0  0  0  0  0  0  0  0  0  0  0
   -1.3645   22.4943  -29.1551 H   0  0  0  0  0  0  0  0  0  0  0  0
   -2.5430   24.1520  -28.4690 C   0  0  0  0  0  0  0  0  0  0  0  0
   -2.1922   23.7881  -27.4920 H   0  0  0  0  0  0  0  0  0  0  0  0
   -2.3330   25.2282  -28.5564 H   0  0  0  0  0  0  0  0  0  0  0  0
   -3.6262   23.9815  -28.5564 H   0  0  0  0  0  0  0  0  0  0  0  0
  1  2  1  0
  2  3  2  0
  3  4  1  0
  4  5  2  0
  5  6  1  0
  5  7  1  0
  7  8  1  0
  7  9  2  0
  9 10  1  0
  9 11  1  0
 11 12  1  0
 11 13  2  0
 13 14  1  0
  3 15  1  0
 15 16  1  0
 15 17  1  0
 15 18  1  0
  2 19  1  0
 19 20  2  0
 19 21  2  0
 19 22  1  0
 22 23  1  0
 22 24  1  0
 24 25  2  0
 25 26  1  0
 25 27  1  0
 27 28  1  0
 27 29  2  0
 29 30  1  0
 29 31  1  0
 31 32  1  0
 31 33  2  0
 33 34  1  0
 34 35  1  0
 34 36  1  0
 36 37  1  0
 36 38  1  0
 36 39  1  0
 39 40  1  0
 39 41  1  0
 39 42  1  0
 13  4  1  0
 33 24  1  0
M  END
>  <UniqueID>  (17) 
16

>  <SMILES>  (17) 
CCNc1cc(F)ccc1NS(=O)(=O)/C=C(/C)c1ccccc1

>  <Energy>  (17) 
51.34064942170897

>  <Genealogy>  (17) 
CCNc1cc(F)ccc1NS(=O)(=O)/C=C(/C)c1ccccc1 (cis-trans isomerization)
CCNc1cc(F)ccc1NS(=O)(=O)/C=C(/C)c1ccccc1 (3D coordinates assigned)
CCNc1cc(F)ccc1NS(=O)(=O)/C=C(/C)c1ccccc1 (optimized conformer: 51.34064942170897 kcal/mol)

>  <smiles>  (17) 
CCNc1cc(F)ccc1NS(=O)(=O)C=C(C)c1ccccc1

>  <score_type>  (17) 
oracle

>  <origin>  (17) 
adg

>  <m_score__min__energy>  (17) 
-9.2899999999999991

>  <m_primary>  (17) 
energy

$$$$
17:0
     RDKit          3D

 51 53  0  0  0  0  0  0  0  0999 V2000
   -1.8680   25.1090  -26.8810 C   0  0  0  0  0  0  0  0  0  0  0  0
   -1.4470   25.0650  -28.3110 C   0  0  0  0  0  0  0  0  0  0  0  0
   -0.2260   24.9290  -28.5950 O   0  0  0  0  0  0  0  0  0  0  0  0
   -2.4210   25.2850  -29.3390 N   0  0  0  0  0  0  0  0  0  0  0  0
   -3.3670   24.3280  -29.8370 C   0  0  0  0  0  0  0  0  0  0  0  0
   -3.0730   22.9650  -29.7140 C   0  0  0  0  0  0  0  0  0  0  0  0
   -3.9580   21.9990  -30.2010 C   0  0  0  0  0  0  0  0  0  0  0  0
   -5.1580   22.3860  -30.8220 C   0  0  0  0  0  0  0  0  0  0  0  0
   -6.0720   21.4150  -31.3590 N   0  0  0  0  0  0  0  0  0  0  0  0
   -7.4860   21.6460  -31.5160 C   0  0  0  0  0  0  0  0  0  0  0  0
   -7.9910   22.7140  -31.0800 O   0  0  0  0  0  0  0  0  0  0  0  0
   -8.3940   20.5380  -32.0510 C   0  0  2  0  0  0  0  0  0  0  0  0
   -9.8210   21.0800  -32.2120 C   0  0  0  0  0  0  0  0  0  0  0  0
   -8.3620   19.2510  -31.2190 C   0  0  0  0  0  0  0  0  0  0  0  0
   -8.0010   18.5590  -32.5160 C   0  0  0  0  0  0  0  0  0  0  0  0
   -7.9930   19.8130  -33.2900 N   0  0  0  0  0  0  0  0  0  0  0  0
   -6.6520   20.0680  -33.8620 C   0  0  0  0  0  0  0  0  0  0  0  0
   -5.8010   18.7940  -33.7930 C   0  0  0  0  0  0  0  0  0  0  0  0
   -4.7990   18.9070  -32.7810 O   0  0  0  0  0  0  0  0  0  0  0  0
   -3.5420   19.5130  -32.9370 C   0  0  0  0  0  0  0  0  0  0  0  0
   -2.3290   18.8140  -32.7620 C   0  0  0  0  0  0  0  0  0  0  0  0
   -1.1070   19.4730  -32.9320 C   0  0  0  0  0  0  0  0  0  0  0  0
   -1.0810   20.8270  -33.2710 C   0  0  0  0  0  0  0  0  0  0  0  0
   -2.2780   21.5280  -33.4390 C   0  0  0  0  0  0  0  0  0  0  0  0
   -3.5010   20.8730  -33.2710 C   0  0  0  0  0  0  0  0  0  0  0  0
   -5.4280   23.7510  -30.9910 C   0  0  0  0  0  0  0  0  0  0  0  0
   -4.5440   24.7170  -30.5020 C   0  0  0  0  0  0  0  0  0  0  0  0
   -0.9825   25.0165  -26.2351 H   0  0  0  0  0  0  0  0  0  0  0  0
   -2.3727   26.0648  -26.6766 H   0  0  0  0  0  0  0  0  0  0  0  0
   -2.5594   24.2782  -26.6766 H   0  0  0  0  0  0  0  0  0  0  0  0
   -2.1366   22.6512  -29.2295 H   0  0  0  0  0  0  0  0  0  0  0  0
   -3.7143   20.9313  -30.0978 H   0  0  0  0  0  0  0  0  0  0  0  0
   -5.6600   20.5230  -31.7110 H   0  0  0  0  0  0  0  0  0  0  0  0
  -10.2636   21.2481  -31.2191 H   0  0  0  0  0  0  0  0  0  0  0  0
   -9.7921   22.0298  -32.7661 H   0  0  0  0  0  0  0  0  0  0  0  0
  -10.4299   20.3505  -32.7661 H   0  0  0  0  0  0  0  0  0  0  0  0
   -7.5847   19.2182  -30.4414 H   0  0  0  0  0  0  0  0  0  0  0  0
   -9.2039   18.9298  -30.5881 H   0  0  0  0  0  0  0  0  0  0  0  0
   -7.0207   18.0609  -32.4849 H   0  0  0  0  0  0  0  0  0  0  0  0
   -8.6374   17.7320  -32.8640 H   0  0  0  0  0  0  0  0  0  0  0  0
   -6.7570   20.3794  -34.9118 H   0  0  0  0  0  0  0  0  0  0  0  0
   -6.1585   20.8634  -33.2843 H   0  0  0  0  0  0  0  0  0  0  0  0
   -6.4518   17.9378  -33.5620 H   0  0  0  0  0  0  0  0  0  0  0  0
   -5.3059   18.6478  -34.7644 H   0  0  0  0  0  0  0  0  0  0  0  0
   -2.3443   17.7480  -32.4912 H   0  0  0  0  0  0  0  0  0  0  0  0
   -0.1639   18.9229  -32.7982 H   0  0  0  0  0  0  0  0  0  0  0  0
   -0.1184   21.3419  -33.4058 H   0  0  0  0  0  0  0  0  0  0  0  0
   -2.2577   22.5955  -33.7035 H   0  0  0  0  0  0  0  0  0  0  0  0
   -4.4402   21.4304  -33.4022 H   0  0  0  0  0  0  0  0  0  0  0  0
   -6.3439   24.0648  -31.5132 H   0  0  0  0  0  0  0  0  0  0  0  0
   -4.7695   25.7851  -30.6376 H   0  0  0  0  0  0  0  0  0  0  0  0
  1  2  1  0
  2  3  2  0
  2  4  1  0
  4  5  1  0
  5  6  2  0
  6  7  1  0
  7  8  2  0
  8  9  1  0
  9 10  1  0
 10 11  2  0
 10 12  1  0
 12 13  1  6
 12 14  1  0
 14 15  1  0
 15 16  1  0
 16 17  1  0
 17 18  1  0
 18 19  1  0
 19 20  1  0
 20 21  2  0
 21 22  1  0
 22 23  2  0
 23 24  1  0
 24 25  2  0
  8 26  1  0
 26 27  2  0
 27  5  1  0
 16 12  1  0
 25 20  1  0
  1 28  1  0
  1 29  1  0
  1 30  1  0
  6 31  1  0
  7 32  1  0
  9 33  1  0
 13 34  1  0
 13 35  1  0
 13 36  1  0
 14 37  1  0
 14 38  1  0
 15 39  1  0
 15 40  1  0
 17 41  1  0
 17 42  1  0
 18 43  1  0
 18 44  1  0
 21 45  1  0
 22 46  1  0
 23 47  1  0
 24 48  1  0
 25 49  1  0
 26 50  1  0
 27 51  1  0
M  CHG  1   4  -1
M  END
>  <UniqueID>  (18) 
17

>  <SMILES>  (18) 
CC(=O)[N-]c1ccc(NC(=O)[C@]2(C)CCN2CCOc2ccccc2)cc1

>  <Energy>  (18) 
136.08762841584442

>  <Genealogy>  (18) 
CC(=O)[N-]c1ccc(NC(=O)C2(C)CCN2CCOc2ccccc2)cc1 (protonated)
CC(=O)[N-]c1ccc(NC(=O)[C@]2(C)CCN2CCOc2ccccc2)cc1 (chirality)
CC(=O)[N-]c1ccc(NC(=O)[C@]2(C)CCN2CCOc2ccccc2)cc1 (3D coordinates assigned)
CC(=O)[N-]c1ccc(NC(=O)[C@]2(C)CCN2CCOc2ccccc2)cc1 (nonaromatic ring conformer: 136.08762841584442 kcal/mol)

>  <smiles>  (18) 
CC(=O)Nc1ccc(NC(=O)C2(C)CCN2CCOc2ccccc2)cc1

>  <score_type>  (18) 
oracle

>  <origin>  (18) 
adg

>  <m_score__min__energy>  (18) 
-9.7400000000000002

>  <m_primary>  (18) 
energy

$$$$
18:0
     RDKit          3D

 27 29  0  0  0  0  0  0  0  0999 V2000
   -4.2320   25.9260  -31.6260 H   0  0  0  0  0  0  0  0  0  0  0  0
   -4.2350   25.6320  -30.6220 N   0  0  0  0  0  0  0  0  0  0  0  0
   -3.4980   24.6640  -30.1800 C   0  0  0  0  0  0  0  0  0  0  0  0
   -2.4330   24.9300  -29.3660 N   0  0  0  0  0  0  0  0  0  0  0  0
   -1.6260   23.9350  -28.8760 C   0  0  0  0  0  0  0  0  0  0  0  0
   -0.7792   24.1907  -28.2221 H   0  0  0  0  0  0  0  0  0  0  0  0
   -1.8740   22.5900  -29.2040 C   0  0  0  0  0  0  0  0  0  0  0  0
   -1.2368   21.7790  -28.8215 H   0  0  0  0  0  0  0  0  0  0  0  0
   -2.9600   22.3300  -30.0330 C   0  0  0  0  0  0  0  0  0  0  0  0
   -3.4580   21.1480  -30.5280 C   0  0  0  0  0  0  0  0  0  0  0  0
   -3.0758   20.1311  -30.3553 H   0  0  0  0  0  0  0  0  0  0  0  0
   -4.5590   21.5290  -31.3000 C   0  0  0  0  0  0  0  0  0  0  0  0
   -5.4600   20.6310  -32.0610 C   0  0  0  0  0  0  0  0  0  0  0  0
   -4.9610   19.7160  -33.0040 C   0  0  0  0  0  0  0  0  0  0  0  0
   -3.8795   19.6524  -33.1943 H   0  0  0  0  0  0  0  0  0  0  0  0
   -5.8460   18.8880  -33.6980 C   0  0  0  0  0  0  0  0  0  0  0  0
   -5.4605   18.1692  -34.4361 H   0  0  0  0  0  0  0  0  0  0  0  0
   -7.1810   18.9680  -33.4640 N   0  0  0  0  0  0  0  0  0  0  0  0
   -7.7000   19.8410  -32.5600 C   0  0  0  0  0  0  0  0  0  0  0  0
   -9.1770   19.8920  -32.3360 C   0  0  0  0  0  0  0  0  0  0  0  0
   -9.3840   19.8991  -31.2557 H   0  0  0  0  0  0  0  0  0  0  0  0
   -9.5860   20.8048  -32.7937 H   0  0  0  0  0  0  0  0  0  0  0  0
   -9.6480   19.0096  -32.7937 H   0  0  0  0  0  0  0  0  0  0  0  0
   -6.8450   20.6880  -31.8420 C   0  0  0  0  0  0  0  0  0  0  0  0
   -7.2585   21.3958  -31.1085 H   0  0  0  0  0  0  0  0  0  0  0  0
   -4.7060   22.8440  -31.2680 O   0  0  0  0  0  0  0  0  0  0  0  0
   -3.7540   23.3320  -30.5120 C   0  0  0  0  0  0  0  0  0  0  0  0
  1  2  1  0
  2  3  2  0
  3  4  1  0
  4  5  1  0
  5  6  1  0
  5  7  2  0
  7  8  1  0
  7  9  1  0
  9 10  1  0
 10 11  1  0
 10 12  2  0
 12 13  1  0
 13 14  2  0
 14 15  1  0
 14 16  1  0
 16 17  1  0
 16 18  2  0
 18 19  1  0
 19 20  1  0
 20 21  1  0
 20 22  1  0
 20 23  1  0
 19 24  2  0
 24 25  1  0
 12 26  1  0
 26 27  1  0
 27  3  1  0
 27  9  2  0
 24 13  1  0
M  CHG  1   4  -1
M  END
>  <UniqueID>  (19) 
18

>  <SMILES>  (19) 
[H]/N=c1/[n-]ccc2cc(-c3ccnc(C)c3)oc12

>  <Energy>  (19) 
65.64651327797137

>  <Genealogy>  (19) 
Cc1cc(-c2cc3cc[n-]c(=N)c3o2)ccn1 (protonated)
[H]/N=c1/[n-]ccc2cc(-c3ccnc(C)c3)oc12 (cis-trans isomerization)
[H]/N=c1/[n-]ccc2cc(-c3ccnc(C)c3)oc12 (3D coordinates assigned)
[H]/N=c1/[n-]ccc2cc(-c3ccnc(C)c3)oc12 (optimized conformer: 65.64651327797137 kcal/mol)

>  <smiles>  (19) 
Cc1cc(-c2cc3cc[nH]c(=N)c3o2)ccn1

>  <score_type>  (19) 
oracle

>  <origin>  (19) 
adg

>  <m_score__min__energy>  (19) 
-8.5099999999999998

>  <m_primary>  (19) 
energy

$$$$
19:0
     RDKit          3D

 22 23  0  0  0  0  0  0  0  0999 V2000
  -10.5839   20.5109  -32.1937 H   0  0  0  0  0  0  0  0  0  0  0  0
   -9.4910   20.6010  -32.1070 C   0  0  0  0  0  0  0  0  0  0  0  0
   -8.6920   19.4570  -32.1430 C   0  0  0  0  0  0  0  0  0  0  0  0
   -9.1568   18.4668  -32.2591 H   0  0  0  0  0  0  0  0  0  0  0  0
   -7.3040   19.5660  -32.0320 C   0  0  0  0  0  0  0  0  0  0  0  0
   -6.6810   18.6596  -32.0480 H   0  0  0  0  0  0  0  0  0  0  0  0
   -6.6990   20.8280  -31.9000 C   0  0  0  0  0  0  0  0  0  0  0  0
   -7.5100   21.9870  -31.8590 C   0  0  0  0  0  0  0  0  0  0  0  0
   -8.9040   21.8600  -31.9610 C   0  0  0  0  0  0  0  0  0  0  0  0
   -9.5385   22.7579  -31.9257 H   0  0  0  0  0  0  0  0  0  0  0  0
   -6.9320   23.2940  -31.6960 N   0  0  0  0  0  0  0  0  0  0  0  0
   -7.5440   24.0980  -31.4260 H   0  0  0  0  0  0  0  0  0  0  0  0
   -5.5230   23.5050  -31.8030 C   0  0  0  0  0  0  0  0  0  0  0  0
   -4.9830   24.5320  -31.2180 N   0  0  0  0  0  0  0  0  0  0  0  0
   -5.6150   25.2990  -30.1500 C   0  0  0  0  0  0  0  0  0  0  0  0
   -5.2910   24.9058  -29.1751 H   0  0  0  0  0  0  0  0  0  0  0  0
   -5.3221   26.3559  -30.2348 H   0  0  0  0  0  0  0  0  0  0  0  0
   -6.7084   25.2136  -30.2348 H   0  0  0  0  0  0  0  0  0  0  0  0
   -4.5370   22.2980  -32.7050 S   0  0  0  0  0  0  0  0  0  0  0  0
   -5.2040   20.9240  -31.7180 C   0  0  0  0  0  0  0  0  0  0  0  0
   -4.9778   21.0968  -30.6555 H   0  0  0  0  0  0  0  0  0  0  0  0
   -4.7410   19.9841  -32.0530 H   0  0  0  0  0  0  0  0  0  0  0  0
  1  2  1  0
  2  3  2  0
  3  4  1  0
  3  5  1  0
  5  6  1  0
  5  7  2  0
  7  8  1  0
  8  9  2  0
  9 10  1  0
  8 11  1  0
 11 12  1  0
 11 13  1  0
 13 14  2  0
 14 15  1  0
 15 16  1  0
 15 17  1  0
 15 18  1  0
 13 19  1  0
 19 20  1  0
 20 21  1  0
 20 22  1  0
  9  2  1  0
 20  7  1  0
M  END
>  <UniqueID>  (20) 
19

>  <SMILES>  (20) 
C/N=C1/Nc2ccccc2CS1

>  <Energy>  (20) 
23.846929478338854

>  <Genealogy>  (20) 
C/N=C1/Nc2ccccc2CS1 (cis-trans isomerization)
C/N=C1/Nc2ccccc2CS1 (3D coordinates assigned)
C/N=C1/Nc2ccccc2CS1 (nonaromatic ring conformer: 23.846929478338854 kcal/mol)

>  <smiles>  (20) 
CN=C1Nc2ccccc2CS1

>  <score_type>  (20) 
oracle

>  <origin>  (20) 
adg

>  <m_score__min__energy>  (20) 
-5.8300000000000001

>  <m_primary>  (20) 
energy

$$$$
20:0
     RDKit          3D

 36 37  0  0  0  0  0  0  0  0999 V2000
   -8.0303   17.7543  -33.4765 H   0  0  0  0  0  0  0  0  0  0  0  0
   -7.9980   18.1710  -32.4590 C   0  0  0  0  0  0  0  0  0  0  0  0
   -8.9710   18.9960  -32.0530 C   0  0  0  0  0  0  0  0  0  0  0  0
   -9.8419   18.5778  -31.5271 H   0  0  0  0  0  0  0  0  0  0  0  0
   -8.9060   20.4850  -32.2970 C   0  0  0  0  0  0  0  0  0  0  0  0
   -8.9291   20.6707  -33.3810 H   0  0  0  0  0  0  0  0  0  0  0  0
   -9.7684   20.9536  -31.8004 H   0  0  0  0  0  0  0  0  0  0  0  0
   -7.6690   21.0750  -31.7340 N   0  0  2  0  0  0  0  0  0  0  0  0
   -7.4050   20.5400  -30.8710 H   0  0  0  0  0  0  0  0  0  0  0  0
   -7.9220   22.4810  -31.3470 C   0  0  0  0  0  0  0  0  0  0  0  0
   -8.6617   22.4967  -30.5330 H   0  0  0  0  0  0  0  0  0  0  0  0
   -8.2924   23.0142  -32.2350 H   0  0  0  0  0  0  0  0  0  0  0  0
   -6.6660   23.1790  -30.8770 C   0  0  0  0  0  0  0  0  0  0  0  0
   -6.7710   24.3500  -30.1130 C   0  0  0  0  0  0  0  0  0  0  0  0
   -7.7633   24.7241  -29.8210 H   0  0  0  0  0  0  0  0  0  0  0  0
   -5.6250   25.0450  -29.7200 C   0  0  0  0  0  0  0  0  0  0  0  0
   -5.7195   25.9589  -29.1151 H   0  0  0  0  0  0  0  0  0  0  0  0
   -4.3510   24.5820  -30.0940 C   0  0  0  0  0  0  0  0  0  0  0  0
   -3.1710   25.2400  -29.7190 O   0  0  0  0  0  0  0  0  0  0  0  0
   -2.2390   24.7400  -28.7650 C   0  0  0  0  0  0  0  0  0  0  0  0
   -2.6112   24.9397  -27.7493 H   0  0  0  0  0  0  0  0  0  0  0  0
   -2.1176   23.6556  -28.9045 H   0  0  0  0  0  0  0  0  0  0  0  0
   -1.2684   25.2385  -28.9045 H   0  0  0  0  0  0  0  0  0  0  0  0
   -4.2470   23.4210  -30.8700 C   0  0  0  0  0  0  0  0  0  0  0  0
   -3.2534   23.0500  -31.1618 H   0  0  0  0  0  0  0  0  0  0  0  0
   -5.3940   22.7250  -31.2800 C   0  0  0  0  0  0  0  0  0  0  0  0
   -5.2410   21.4500  -32.0660 C   0  0  0  0  0  0  0  0  0  0  0  0
   -4.8959   20.6548  -31.3888 H   0  0  0  0  0  0  0  0  0  0  0  0
   -4.5129   21.6324  -32.8701 H   0  0  0  0  0  0  0  0  0  0  0  0
   -6.5600   21.0110  -32.7130 C   0  0  0  0  0  0  0  0  0  0  0  0
   -6.4579   19.9777  -33.0761 H   0  0  0  0  0  0  0  0  0  0  0  0
   -6.7867   21.6884  -33.5495 H   0  0  0  0  0  0  0  0  0  0  0  0
   -6.8660   17.8070  -31.5480 C   0  0  0  0  0  0  0  0  0  0  0  0
   -7.1894   17.9110  -30.5018 H   0  0  0  0  0  0  0  0  0  0  0  0
   -6.5636   16.7663  -31.7366 H   0  0  0  0  0  0  0  0  0  0  0  0
   -6.0137   18.4764  -31.7366 H   0  0  0  0  0  0  0  0  0  0  0  0
  1  2  1  0
  2  3  2  0
  3  4  1  0
  3  5  1  0
  5  6  1  0
  5  7  1  0
  5  8  1  0
  8  9  1  1
  8 10  1  0
 10 11  1  0
 10 12  1  0
 10 13  1  0
 13 14  2  0
 14 15  1  0
 14 16  1  0
 16 17  1  0
 16 18  2  0
 18 19  1  0
 19 20  1  0
 20 21  1  0
 20 22  1  0
 20 23  1  0
 18 24  1  0
 24 25  1  0
 24 26  2  0
 26 27  1  0
 27 28  1  0
 27 29  1  0
 27 30  1  0
 30 31  1  0
 30 32  1  0
  2 33  1  0
 33 34  1  0
 33 35  1  0
 33 36  1  0
 30  8  1  0
 26 13  1  0
M  CHG  1   8   1
M  END
>  <UniqueID>  (21) 
20

>  <SMILES>  (21) 
C/C=C/C[N@H+]1CCc2cc(OC)ccc2C1

>  <Energy>  (21) 
34.518184502148856

>  <Genealogy>  (21) 
CC=CC[NH+]1CCc2cc(OC)ccc2C1 (protonated)
CC=CC[N@H+]1CCc2cc(OC)ccc2C1 (chirality)
C/C=C/C[N@H+]1CCc2cc(OC)ccc2C1 (cis-trans isomerization)
C/C=C/C[N@H+]1CCc2cc(OC)ccc2C1 (3D coordinates assigned)
C/C=C/C[N@H+]1CCc2cc(OC)ccc2C1 (nonaromatic ring conformer: 34.518184502148856 kcal/mol)

>  <smiles>  (21) 
CC=CCN1CCc2cc(OC)ccc2C1

>  <score_type>  (21) 
oracle

>  <origin>  (21) 
adg

>  <m_score__min__energy>  (21) 
-6.6299999999999999

>  <m_primary>  (21) 
energy

$$$$
21:0
     RDKit          3D

 48 50  0  0  0  0  0  0  0  0999 V2000
   -4.5950   17.4860  -33.5930 C   0  0  0  0  0  0  0  0  0  0  0  0
   -6.0050   17.1750  -33.1840 C   0  0  0  0  0  0  0  0  0  0  0  0
   -6.4030   15.9800  -33.2490 O   0  0  0  0  0  0  0  0  0  0  0  0
   -6.9130   18.2110  -32.7540 N   0  0  0  0  0  0  0  0  0  0  0  0
   -6.5970   19.6320  -32.9340 C   0  0  0  0  0  0  0  0  0  0  0  0
   -7.8920   20.4370  -33.1170 C   0  0  0  0  0  0  0  0  0  0  0  0
   -8.8720   20.2500  -32.0100 N   0  0  0  0  0  0  0  0  0  0  0  0
   -8.9380   21.4420  -31.1330 C   0  0  0  0  0  0  0  0  0  0  0  0
   -8.9900   22.7450  -31.9560 C   0  0  0  0  0  0  0  0  0  0  0  0
   -7.6880   23.4300  -32.0090 N   0  0  0  0  0  0  0  0  0  0  0  0
   -6.7870   23.0130  -30.9250 C   0  0  0  0  0  0  0  0  0  0  0  0
   -5.5820   23.9090  -30.8920 C   0  0  0  0  0  0  0  0  0  0  0  0
   -5.5560   25.2070  -30.4260 C   0  0  0  0  0  0  0  0  0  0  0  0
   -4.2830   25.6420  -30.3920 N   0  0  0  0  0  0  0  0  0  0  0  0
   -3.4900   24.6680  -30.8130 N   0  0  0  0  0  0  0  0  0  0  0  0
   -4.2480   23.6000  -31.1300 C   0  0  0  0  0  0  0  0  0  0  0  0
   -3.6750   22.3100  -31.5660 C   0  0  0  0  0  0  0  0  0  0  0  0
   -3.9750   21.8160  -32.8460 C   0  0  0  0  0  0  0  0  0  0  0  0
   -3.4440   20.5960  -33.2760 C   0  0  0  0  0  0  0  0  0  0  0  0
   -2.6170   19.8550  -32.4310 C   0  0  0  0  0  0  0  0  0  0  0  0
   -2.3310   20.3260  -31.1460 C   0  0  0  0  0  0  0  0  0  0  0  0
   -2.8660   21.5420  -30.7100 C   0  0  0  0  0  0  0  0  0  0  0  0
   -8.6770   19.0050  -31.2270 C   0  0  0  0  0  0  0  0  0  0  0  0
   -8.1690   17.8440  -32.0890 C   0  0  0  0  0  0  0  0  0  0  0  0
   -3.9745   17.6229  -32.6951 H   0  0  0  0  0  0  0  0  0  0  0  0
   -4.1950   16.6545  -34.1918 H   0  0  0  0  0  0  0  0  0  0  0  0
   -4.5820   18.4086  -34.1918 H   0  0  0  0  0  0  0  0  0  0  0  0
   -6.0603   20.0013  -32.0477 H   0  0  0  0  0  0  0  0  0  0  0  0
   -5.9668   19.7522  -33.8275 H   0  0  0  0  0  0  0  0  0  0  0  0
   -7.6327   21.5044  -33.1753 H   0  0  0  0  0  0  0  0  0  0  0  0
   -8.3714   20.0721  -34.0374 H   0  0  0  0  0  0  0  0  0  0  0  0
   -9.8412   21.3771  -30.5085 H   0  0  0  0  0  0  0  0  0  0  0  0
   -8.0322   21.4629  -30.5092 H   0  0  0  0  0  0  0  0  0  0  0  0
   -9.3029   22.5020  -32.9822 H   0  0  0  0  0  0  0  0  0  0  0  0
   -9.7045   23.4223  -31.4653 H   0  0  0  0  0  0  0  0  0  0  0  0
   -7.8400   24.4660  -31.9570 H   0  0  0  0  0  0  0  0  0  0  0  0
   -7.3174   23.0788  -29.9636 H   0  0  0  0  0  0  0  0  0  0  0  0
   -6.4640   21.9761  -31.0999 H   0  0  0  0  0  0  0  0  0  0  0  0
   -6.4374   25.7943  -30.1289 H   0  0  0  0  0  0  0  0  0  0  0  0
   -4.6317   22.3923  -33.5143 H   0  0  0  0  0  0  0  0  0  0  0  0
   -3.6787   20.2196  -34.2826 H   0  0  0  0  0  0  0  0  0  0  0  0
   -2.1905   18.9013  -32.7755 H   0  0  0  0  0  0  0  0  0  0  0  0
   -1.6843   19.7391  -30.4772 H   0  0  0  0  0  0  0  0  0  0  0  0
   -2.6529   21.8997  -29.6919 H   0  0  0  0  0  0  0  0  0  0  0  0
   -7.9439   19.2002  -30.4304 H   0  0  0  0  0  0  0  0  0  0  0  0
   -9.6539   18.7128  -30.8143 H   0  0  0  0  0  0  0  0  0  0  0  0
   -7.9971   16.9659  -31.4492 H   0  0  0  0  0  0  0  0  0  0  0  0
   -8.9235   17.6120  -32.8551 H   0  0  0  0  0  0  0  0  0  0  0  0
  1  2  1  0
  2  3  2  0
  2  4  1  0
  4  5  1  0
  5  6  1  0
  6  7  1  0
  7  8  1  0
  8  9  1  0
  9 10  1  0
 10 11  1  0
 11 12  1  0
 12 13  2  0
 13 14  1  0
 14 15  1  0
 15 16  2  0
 16 17  1  0
 17 18  2  0
 18 19  1  0
 19 20  2  0
 20 21  1  0
 21 22  2  0
  7 23  1  0
 23 24  1  0
 24  4  1  0
 16 12  1  0
 22 17  1  0
  1 25  1  0
  1 26  1  0
  1 27  1  0
  5 28  1  0
  5 29  1  0
  6 30  1  0
  6 31  1  0
  8 32  1  0
  8 33  1  0
  9 34  1  0
  9 35  1  0
 10 36  1  0
 11 37  1  0
 11 38  1  0
 13 39  1  0
 18 40  1  0
 19 41  1  0
 20 42  1  0
 21 43  1  0
 22 44  1  0
 23 45  1  0
 23 46  1  0
 24 47  1  0
 24 48  1  0
M  CHG  1  14  -1
M  END
>  <UniqueID>  (22) 
21

>  <SMILES>  (22) 
CC(=O)N1CCN(CCNCc2c[n-]nc2-c2ccccc2)CC1

>  <Energy>  (22) 
89.2743382225018

>  <Genealogy>  (22) 
CC(=O)N1CCN(CCNCc2c[n-]nc2-c2ccccc2)CC1 (protonated)
CC(=O)N1CCN(CCNCc2c[n-]nc2-c2ccccc2)CC1 (3D coordinates assigned)
CC(=O)N1CCN(CCNCc2c[n-]nc2-c2ccccc2)CC1 (nonaromatic ring conformer: 89.2743382225018 kcal/mol)

>  <smiles>  (22) 
CC(=O)N1CCN(CCNCc2c[nH]nc2-c2ccccc2)CC1

>  <score_type>  (22) 
oracle

>  <origin>  (22) 
adg

>  <m_score__min__energy>  (22) 
-9.7599999999999998

>  <m_primary>  (22) 
energy

$$$$
22:0
     RDKit          3D

 43 45  0  0  0  0  0  0  0  0999 V2000
   -9.1560   22.8690  -31.9760 C   0  0  0  0  0  0  0  0  0  0  0  0
   -8.4330   21.6240  -32.2850 N   0  0  0  0  0  0  0  0  0  0  0  0
   -9.3470   20.4680  -32.2170 C   0  0  0  0  0  0  0  0  0  0  0  0
   -7.1890   21.4850  -31.4770 C   0  0  0  0  0  0  0  0  0  0  0  0
   -5.8710   21.7330  -32.2730 C   0  0  0  0  0  0  0  0  0  0  0  0
   -5.2620   23.1220  -32.0240 C   0  0  0  0  0  0  0  0  0  0  0  0
   -5.1220   23.4030  -30.5880 N   0  0  0  0  0  0  0  0  0  0  0  0
   -4.3390   24.5400  -30.1770 C   0  0  0  0  0  0  0  0  0  0  0  0
   -4.2910   25.5580  -30.9190 O   0  0  0  0  0  0  0  0  0  0  0  0
   -3.5800   24.5490  -28.9130 C   0  0  0  0  0  0  0  0  0  0  0  0
   -4.0990   24.4820  -27.6230 C   0  0  0  0  0  0  0  0  0  0  0  0
   -3.1670   24.4600  -26.6330 N   0  0  0  0  0  0  0  0  0  0  0  0
   -1.9020   24.5030  -27.1120 C   0  0  0  0  0  0  0  0  0  0  0  0
   -0.7010   24.4900  -26.2460 C   0  0  0  0  0  0  0  0  0  0  0  0
    0.5650   24.2170  -26.7900 C   0  0  0  0  0  0  0  0  0  0  0  0
    1.6920   24.2060  -25.9690 C   0  0  0  0  0  0  0  0  0  0  0  0
    1.5520   24.4670  -24.6070 C   0  0  0  0  0  0  0  0  0  0  0  0
    0.3230   24.7310  -24.0870 N   0  0  0  0  0  0  0  0  0  0  0  0
   -0.7930   24.7470  -24.8670 C   0  0  0  0  0  0  0  0  0  0  0  0
   -1.9020   24.5600  -28.7980 S   0  0  0  0  0  0  0  0  0  0  0  0
   -5.9080   22.6390  -29.6070 C   0  0  0  0  0  0  0  0  0  0  0  0
   -7.2900   22.3250  -30.1820 C   0  0  0  0  0  0  0  0  0  0  0  0
   -9.2267   22.9908  -30.8851 H   0  0  0  0  0  0  0  0  0  0  0  0
   -8.6140   23.7242  -32.4061 H   0  0  0  0  0  0  0  0  0  0  0  0
  -10.1674   22.8221  -32.4061 H   0  0  0  0  0  0  0  0  0  0  0  0
   -9.5445   20.2182  -31.1641 H   0  0  0  0  0  0  0  0  0  0  0  0
  -10.2935   20.7190  -32.7181 H   0  0  0  0  0  0  0  0  0  0  0  0
   -8.8845   19.6049  -32.7181 H   0  0  0  0  0  0  0  0  0  0  0  0
   -7.1155   20.4257  -31.1899 H   0  0  0  0  0  0  0  0  0  0  0  0
   -5.1353   20.9710  -31.9761 H   0  0  0  0  0  0  0  0  0  0  0  0
   -6.1207   21.6740  -33.3427 H   0  0  0  0  0  0  0  0  0  0  0  0
   -4.2687   23.1656  -32.4946 H   0  0  0  0  0  0  0  0  0  0  0  0
   -5.9361   23.8755  -32.4575 H   0  0  0  0  0  0  0  0  0  0  0  0
   -5.1796   24.4494  -27.4201 H   0  0  0  0  0  0  0  0  0  0  0  0
    0.6675   24.0115  -27.8658 H   0  0  0  0  0  0  0  0  0  0  0  0
    2.6843   23.9929  -26.3931 H   0  0  0  0  0  0  0  0  0  0  0  0
    2.4358   24.4595  -23.9522 H   0  0  0  0  0  0  0  0  0  0  0  0
    0.2340   24.9250  -23.0650 H   0  0  0  0  0  0  0  0  0  0  0  0
   -1.7726   24.9624  -24.4153 H   0  0  0  0  0  0  0  0  0  0  0  0
   -5.3870   21.6986  -29.3744 H   0  0  0  0  0  0  0  0  0  0  0  0
   -6.0231   23.2356  -28.6900 H   0  0  0  0  0  0  0  0  0  0  0  0
   -7.8682   21.7615  -29.4349 H   0  0  0  0  0  0  0  0  0  0  0  0
   -7.7860   23.2760  -30.4259 H   0  0  0  0  0  0  0  0  0  0  0  0
  1  2  1  0
  2  3  1  0
  2  4  1  0
  4  5  1  0
  5  6  1  0
  6  7  1  0
  7  8  1  0
  8  9  2  0
  8 10  1  0
 10 11  2  0
 11 12  1  0
 12 13  2  0
 13 14  1  0
 14 15  2  0
 15 16  1  0
 16 17  2  0
 17 18  1  0
 18 19  2  0
 13 20  1  0
  7 21  1  0
 21 22  1  0
 22  4  1  0
 20 10  1  0
 19 14  1  0
  1 23  1  0
  1 24  1  0
  1 25  1  0
  3 26  1  0
  3 27  1  0
  3 28  1  0
  4 29  1  0
  5 30  1  0
  5 31  1  0
  6 32  1  0
  6 33  1  0
 11 34  1  0
 15 35  1  0
 16 36  1  0
 17 37  1  0
 18 38  1  0
 19 39  1  0
 21 40  1  0
 21 41  1  0
 22 42  1  0
 22 43  1  0
M  CHG  1  18   1
M  END
>  <UniqueID>  (23) 
22

>  <SMILES>  (23) 
CN(C)C1CCN(C(=O)c2cnc(-c3ccc[nH+]c3)s2)CC1

>  <Energy>  (23) 
85.79086508132087

>  <Genealogy>  (23) 
CN(C)C1CCN(C(=O)c2cnc(-c3ccc[nH+]c3)s2)CC1 (protonated)
CN(C)C1CCN(C(=O)c2cnc(-c3ccc[nH+]c3)s2)CC1 (3D coordinates assigned)
CN(C)C1CCN(C(=O)c2cnc(-c3ccc[nH+]c3)s2)CC1 (nonaromatic ring conformer: 85.79086508132087 kcal/mol)

>  <smiles>  (23) 
CN(C)C1CCN(C(=O)c2cnc(-c3cccnc3)s2)CC1

>  <score_type>  (23) 
oracle

>  <origin>  (23) 
adg

>  <m_score__min__energy>  (23) 
-8.0999999999999996

>  <m_primary>  (23) 
energy

$$$$
23:0
     RDKit          3D

 38 41  0  0  0  0  0  0  0  0999 V2000
   -8.4650   18.8360  -32.0310 C   0  0  0  0  0  0  0  0  0  0  0  0
   -7.3890   18.0130  -32.4730 O   0  0  0  0  0  0  0  0  0  0  0  0
   -6.1000   18.4830  -32.7620 C   0  0  0  0  0  0  0  0  0  0  0  0
   -5.2900   17.9000  -33.7550 C   0  0  0  0  0  0  0  0  0  0  0  0
   -4.0070   18.3990  -33.9960 C   0  0  0  0  0  0  0  0  0  0  0  0
   -3.5240   19.4830  -33.2620 C   0  0  0  0  0  0  0  0  0  0  0  0
   -4.3280   20.0890  -32.2840 C   0  0  0  0  0  0  0  0  0  0  0  0
   -3.8000   21.2370  -31.5110 C   0  0  0  0  0  0  0  0  0  0  0  0
   -2.4860   21.3270  -31.1660 N   0  0  0  0  0  0  0  0  0  0  0  0
   -2.4380   22.4850  -30.4840 C   0  0  0  0  0  0  0  0  0  0  0  0
   -1.3320   23.0590  -29.9510 N   0  0  0  0  0  0  0  0  0  0  0  0
   -1.4620   24.2770  -29.3410 C   0  0  0  0  0  0  0  0  0  0  0  0
   -0.4560   24.8360  -28.8280 O   0  0  0  0  0  0  0  0  0  0  0  0
   -2.6820   24.8990  -29.2900 N   0  0  0  0  0  0  0  0  0  0  0  0
   -3.7960   24.3260  -29.8330 C   0  0  0  0  0  0  0  0  0  0  0  0
   -4.9000   24.9300  -29.7990 O   0  0  0  0  0  0  0  0  0  0  0  0
   -3.6590   23.0710  -30.4270 C   0  0  0  0  0  0  0  0  0  0  0  0
   -4.5470   22.2930  -31.0720 N   0  0  0  0  0  0  0  0  0  0  0  0
   -5.9250   22.5840  -31.3570 C   0  0  0  0  0  0  0  0  0  0  0  0
   -6.2620   23.4310  -32.4250 C   0  0  0  0  0  0  0  0  0  0  0  0
   -7.6030   23.6890  -32.7210 C   0  0  0  0  0  0  0  0  0  0  0  0
   -8.6150   23.1020  -31.9540 C   0  0  0  0  0  0  0  0  0  0  0  0
   -8.2850   22.2550  -30.8930 C   0  0  0  0  0  0  0  0  0  0  0  0
   -6.9440   21.9940  -30.5950 C   0  0  0  0  0  0  0  0  0  0  0  0
   -5.6080   19.5690  -32.0290 C   0  0  0  0  0  0  0  0  0  0  0  0
   -8.4864   18.8523  -30.9313 H   0  0  0  0  0  0  0  0  0  0  0  0
   -8.3240   19.8589  -32.4102 H   0  0  0  0  0  0  0  0  0  0  0  0
   -9.4153   18.4321  -32.4102 H   0  0  0  0  0  0  0  0  0  0  0  0
   -5.6677   17.0501  -34.3423 H   0  0  0  0  0  0  0  0  0  0  0  0
   -3.3751   17.9352  -34.7677 H   0  0  0  0  0  0  0  0  0  0  0  0
   -2.5095   19.8640  -33.4505 H   0  0  0  0  0  0  0  0  0  0  0  0
   -0.4040   22.5830  -30.0130 H   0  0  0  0  0  0  0  0  0  0  0  0
   -5.4681   23.8927  -33.0304 H   0  0  0  0  0  0  0  0  0  0  0  0
   -7.8631   24.3541  -33.5577 H   0  0  0  0  0  0  0  0  0  0  0  0
   -9.6704   23.3073  -32.1862 H   0  0  0  0  0  0  0  0  0  0  0  0
   -9.0813   21.7928  -30.2912 H   0  0  0  0  0  0  0  0  0  0  0  0
   -6.6876   21.3243  -29.7609 H   0  0  0  0  0  0  0  0  0  0  0  0
   -6.2313   20.0211  -31.2434 H   0  0  0  0  0  0  0  0  0  0  0  0
  1  2  1  0
  2  3  1  0
  3  4  2  0
  4  5  1  0
  5  6  2  0
  6  7  1  0
  7  8  1  0
  8  9  2  0
  9 10  1  0
 10 11  1  0
 11 12  1  0
 12 13  2  0
 12 14  1  0
 14 15  1  0
 15 16  2  0
 15 17  1  0
 17 18  1  0
 18 19  1  0
 19 20  2  0
 20 21  1  0
 21 22  2  0
 22 23  1  0
 23 24  2  0
  7 25  2  0
 25  3  1  0
 18  8  1  0
 24 19  1  0
 17 10  2  0
  1 26  1  0
  1 27  1  0
  1 28  1  0
  4 29  1  0
  5 30  1  0
  6 31  1  0
 11 32  1  0
 20 33  1  0
 21 34  1  0
 22 35  1  0
 23 36  1  0
 24 37  1  0
 25 38  1  0
M  CHG  1  14  -1
M  END
>  <UniqueID>  (24) 
23

>  <SMILES>  (24) 
COc1cccc(-c2nc3[nH]c(=O)[n-]c(=O)c3n2-c2ccccc2)c1

>  <Energy>  (24) 
93.52363711642533

>  <Genealogy>  (24) 
COc1cccc(-c2nc3[nH]c(=O)[n-]c(=O)c3n2-c2ccccc2)c1 (protonated)
COc1cccc(-c2nc3[nH]c(=O)[n-]c(=O)c3n2-c2ccccc2)c1 (3D coordinates assigned)
COc1cccc(-c2nc3[nH]c(=O)[n-]c(=O)c3n2-c2ccccc2)c1 (optimized conformer: 93.52363711642533 kcal/mol)

>  <smiles>  (24) 
COc1cccc(-c2nc3[nH]c(=O)[nH]c(=O)c3n2-c2ccccc2)c1

>  <score_type>  (24) 
oracle

>  <origin>  (24) 
adg

>  <m_score__min__energy>  (24) 
-8.5800000000000001

>  <m_primary>  (24) 
energy

$$$$
24:0
     RDKit          3D

 54 56  0  0  0  0  0  0  0  0999 V2000
   -2.7560   25.6690  -26.3140 C   0  0  0  0  0  0  0  0  0  0  0  0
   -2.5510   24.3590  -27.0000 C   0  0  0  0  0  0  0  0  0  0  0  0
   -1.5690   23.4900  -26.6830 N   0  0  0  0  0  0  0  0  0  0  0  0
   -1.7690   22.3820  -27.3840 N   0  0  0  0  0  0  0  0  0  0  0  0
   -0.9060   21.2100  -27.2980 C   0  0  0  0  0  0  0  0  0  0  0  0
   -2.8760   22.5130  -28.1480 C   0  0  0  0  0  0  0  0  0  0  0  0
   -3.4340   21.4560  -29.0500 C   0  0  0  0  0  0  0  0  0  0  0  0
   -3.4050   23.7660  -27.9080 C   0  0  0  0  0  0  0  0  0  0  0  0
   -4.6470   24.2950  -28.3770 N   0  0  0  0  0  0  0  0  0  0  0  0
   -4.8700   24.6200  -30.0620 S   0  0  0  0  0  0  0  0  0  0  0  0
   -3.6500   25.2870  -30.6300 O   0  0  0  0  0  0  0  0  0  0  0  0
   -6.0420   25.5430  -30.2370 O   0  0  0  0  0  0  0  0  0  0  0  0
   -5.1910   23.1060  -30.9040 C   0  0  0  0  0  0  0  0  0  0  0  0
   -6.3400   22.3650  -30.6020 C   0  0  0  0  0  0  0  0  0  0  0  0
   -6.5780   21.1440  -31.2370 C   0  0  0  0  0  0  0  0  0  0  0  0
   -5.6620   20.6390  -32.1770 C   0  0  0  0  0  0  0  0  0  0  0  0
   -5.9130   19.3420  -32.8510 C   0  0  0  0  0  0  0  0  0  0  0  0
   -7.0840   18.6120  -32.5790 C   0  0  0  0  0  0  0  0  0  0  0  0
   -7.3240   17.3960  -33.2230 C   0  0  0  0  0  0  0  0  0  0  0  0
   -6.4000   16.8920  -34.1400 C   0  0  0  0  0  0  0  0  0  0  0  0
   -5.2200   17.5980  -34.4150 C   0  0  0  0  0  0  0  0  0  0  0  0
   -4.2320   17.0530  -35.4140 C   0  0  0  0  0  0  0  0  0  0  0  0
   -2.9690   16.6790  -34.7440 N   0  0  0  0  0  0  0  0  0  0  0  0
   -2.1710   15.8100  -35.6240 C   0  0  0  0  0  0  0  0  0  0  0  0
   -3.2350   15.9810  -33.4740 C   0  0  0  0  0  0  0  0  0  0  0  0
   -4.9850   18.8250  -33.7730 C   0  0  0  0  0  0  0  0  0  0  0  0
   -4.5050   21.3820  -32.4670 C   0  0  0  0  0  0  0  0  0  0  0  0
   -4.2730   22.6070  -31.8350 C   0  0  0  0  0  0  0  0  0  0  0  0
   -2.7327   25.5199  -25.2244 H   0  0  0  0  0  0  0  0  0  0  0  0
   -1.9558   26.3650  -26.6061 H   0  0  0  0  0  0  0  0  0  0  0  0
   -3.7305   26.0873  -26.6061 H   0  0  0  0  0  0  0  0  0  0  0  0
   -0.7252   20.9645  -26.2411 H   0  0  0  0  0  0  0  0  0  0  0  0
   -1.3941   20.3581  -27.7940 H   0  0  0  0  0  0  0  0  0  0  0  0
    0.0524   21.4232  -27.7940 H   0  0  0  0  0  0  0  0  0  0  0  0
   -3.8623   20.6447  -28.4430 H   0  0  0  0  0  0  0  0  0  0  0  0
   -4.2191   21.8927  -29.6848 H   0  0  0  0  0  0  0  0  0  0  0  0
   -2.6305   21.0541  -29.6848 H   0  0  0  0  0  0  0  0  0  0  0  0
   -5.5060   24.0960  -27.8180 H   0  0  0  0  0  0  0  0  0  0  0  0
   -7.0584   22.7462  -29.8613 H   0  0  0  0  0  0  0  0  0  0  0  0
   -7.4882   20.5735  -31.0002 H   0  0  0  0  0  0  0  0  0  0  0  0
   -7.8151   19.0009  -31.8549 H   0  0  0  0  0  0  0  0  0  0  0  0
   -8.2443   16.8336  -33.0068 H   0  0  0  0  0  0  0  0  0  0  0  0
   -6.5983   15.9372  -34.6489 H   0  0  0  0  0  0  0  0  0  0  0  0
   -4.6612   16.1639  -35.8991 H   0  0  0  0  0  0  0  0  0  0  0  0
   -4.0199   17.8296  -36.1635 H   0  0  0  0  0  0  0  0  0  0  0  0
   -1.5528   15.1368  -35.0119 H   0  0  0  0  0  0  0  0  0  0  0  0
   -2.8434   15.2144  -36.2589 H   0  0  0  0  0  0  0  0  0  0  0  0
   -1.5204   16.4294  -36.2589 H   0  0  0  0  0  0  0  0  0  0  0  0
   -2.9829   16.6426  -32.6322 H   0  0  0  0  0  0  0  0  0  0  0  0
   -4.2996   15.7095  -33.4208 H   0  0  0  0  0  0  0  0  0  0  0  0
   -2.6211   15.0698  -33.4208 H   0  0  0  0  0  0  0  0  0  0  0  0
   -4.0657   19.3874  -33.9935 H   0  0  0  0  0  0  0  0  0  0  0  0
   -3.7770   20.9970  -33.1963 H   0  0  0  0  0  0  0  0  0  0  0  0
   -3.3649   23.1813  -32.0705 H   0  0  0  0  0  0  0  0  0  0  0  0
  1  2  1  0
  2  3  2  0
  3  4  1  0
  4  5  1  0
  4  6  1  0
  6  7  1  0
  6  8  2  0
  8  9  1  0
  9 10  1  0
 10 11  2  0
 10 12  2  0
 10 13  1  0
 13 14  2  0
 14 15  1  0
 15 16  2  0
 16 17  1  0
 17 18  2  0
 18 19  1  0
 19 20  2  0
 20 21  1  0
 21 22  1  0
 22 23  1  0
 23 24  1  0
 23 25  1  0
 21 26  2  0
 16 27  1  0
 27 28  2  0
  8  2  1  0
 28 13  1  0
 26 17  1  0
  1 29  1  0
  1 30  1  0
  1 31  1  0
  5 32  1  0
  5 33  1  0
  5 34  1  0
  7 35  1  0
  7 36  1  0
  7 37  1  0
  9 38  1  0
 14 39  1  0
 15 40  1  0
 18 41  1  0
 19 42  1  0
 20 43  1  0
 22 44  1  0
 22 45  1  0
 24 46  1  0
 24 47  1  0
 24 48  1  0
 25 49  1  0
 25 50  1  0
 25 51  1  0
 26 52  1  0
 27 53  1  0
 28 54  1  0
M  END
>  <UniqueID>  (25) 
24

>  <SMILES>  (25) 
Cc1nn(C)c(C)c1NS(=O)(=O)c1ccc(-c2cccc(CN(C)C)c2)cc1

>  <Energy>  (25) 
94.05670373788848

>  <Genealogy>  (25) 
Cc1nn(C)c(C)c1NS(=O)(=O)c1ccc(-c2cccc(CN(C)C)c2)cc1 (3D coordinates assigned)
Cc1nn(C)c(C)c1NS(=O)(=O)c1ccc(-c2cccc(CN(C)C)c2)cc1 (optimized conformer: 94.05670373788848 kcal/mol)

>  <smiles>  (25) 
Cc1nn(C)c(C)c1NS(=O)(=O)c1ccc(-c2cccc(CN(C)C)c2)cc1

>  <score_type>  (25) 
oracle

>  <origin>  (25) 
adg

>  <m_score__min__energy>  (25) 
-9.0199999999999996

>  <m_primary>  (25) 
energy

$$$$
25:0
     RDKit          3D

 53 55  0  0  0  0  0  0  0  0999 V2000
   -6.4700   17.7880  -31.2360 C   0  0  0  0  0  0  0  0  0  0  0  0
   -7.8100   18.2190  -31.4420 O   0  0  0  0  0  0  0  0  0  0  0  0
   -8.1330   19.3270  -32.2310 C   0  0  0  0  0  0  0  0  0  0  0  0
   -9.3100   19.7820  -32.2530 O   0  0  0  0  0  0  0  0  0  0  0  0
   -7.0630   20.0030  -33.0250 C   0  0  0  0  0  0  0  0  0  0  0  0
   -6.9110   21.5030  -32.6810 C   0  0  0  0  0  0  0  0  0  0  0  0
   -5.6830   21.8650  -31.9320 N   0  0  0  0  0  0  0  0  0  0  0  0
   -4.5680   22.3390  -32.7820 C   0  0  0  0  0  0  0  0  0  0  0  0
   -3.5250   21.2590  -32.8760 C   0  0  0  0  0  0  0  0  0  0  0  0
   -3.8910   19.9530  -33.2510 C   0  0  0  0  0  0  0  0  0  0  0  0
   -2.9150   18.9600  -33.3940 C   0  0  0  0  0  0  0  0  0  0  0  0
   -1.5690   19.2650  -33.1640 C   0  0  0  0  0  0  0  0  0  0  0  0
   -1.1970   20.5610  -32.7890 C   0  0  0  0  0  0  0  0  0  0  0  0
   -2.1680   21.5580  -32.6520 C   0  0  0  0  0  0  0  0  0  0  0  0
   -5.9210   22.6850  -30.7250 C   0  0  0  0  0  0  0  0  0  0  0  0
   -4.6110   23.2330  -30.1880 C   0  0  0  0  0  0  0  0  0  0  0  0
   -4.3950   24.6290  -30.0820 C   0  0  0  0  0  0  0  0  0  0  0  0
   -5.4260   25.6330  -30.5100 C   0  0  0  0  0  0  0  0  0  0  0  0
   -3.2300   25.0930  -29.5590 N   0  0  0  0  0  0  0  0  0  0  0  0
   -2.2370   24.2750  -29.1250 C   0  0  0  0  0  0  0  0  0  0  0  0
   -1.0520   24.8200  -28.5900 C   0  0  0  0  0  0  0  0  0  0  0  0
   -0.8720   26.3100  -28.4870 C   0  0  0  0  0  0  0  0  0  0  0  0
   -0.0400   23.9580  -28.1360 C   0  0  0  0  0  0  0  0  0  0  0  0
   -0.2000   22.5740  -28.2200 C   0  0  0  0  0  0  0  0  0  0  0  0
   -1.3690   22.0310  -28.7530 C   0  0  0  0  0  0  0  0  0  0  0  0
   -2.3990   22.8740  -29.2110 C   0  0  0  0  0  0  0  0  0  0  0  0
   -3.5940   22.3570  -29.7480 C   0  0  0  0  0  0  0  0  0  0  0  0
   -3.7560   21.1070  -29.8300 O   0  0  0  0  0  0  0  0  0  0  0  0
   -6.2676   17.7229  -30.1567 H   0  0  0  0  0  0  0  0  0  0  0  0
   -6.3281   16.7989  -31.6960 H   0  0  0  0  0  0  0  0  0  0  0  0
   -5.7781   18.5089  -31.6960 H   0  0  0  0  0  0  0  0  0  0  0  0
   -6.1062   19.4987  -32.8244 H   0  0  0  0  0  0  0  0  0  0  0  0
   -7.3483   19.9361  -34.0852 H   0  0  0  0  0  0  0  0  0  0  0  0
   -6.9118   22.0688  -33.6243 H   0  0  0  0  0  0  0  0  0  0  0  0
   -7.7530   21.7474  -32.0167 H   0  0  0  0  0  0  0  0  0  0  0  0
   -4.9462   22.5740  -33.7879 H   0  0  0  0  0  0  0  0  0  0  0  0
   -4.1249   23.2437  -32.3403 H   0  0  0  0  0  0  0  0  0  0  0  0
   -4.9487   19.7115  -33.4325 H   0  0  0  0  0  0  0  0  0  0  0  0
   -3.2060   17.9405  -33.6870 H   0  0  0  0  0  0  0  0  0  0  0  0
   -0.8019   18.4849  -33.2781 H   0  0  0  0  0  0  0  0  0  0  0  0
   -0.1388   20.7959  -32.6017 H   0  0  0  0  0  0  0  0  0  0  0  0
   -1.8705   22.5784  -32.3685 H   0  0  0  0  0  0  0  0  0  0  0  0
   -6.5858   23.5229  -30.9819 H   0  0  0  0  0  0  0  0  0  0  0  0
   -6.3864   22.0549  -29.9528 H   0  0  0  0  0  0  0  0  0  0  0  0
   -5.8896   26.0845  -29.6205 H   0  0  0  0  0  0  0  0  0  0  0  0
   -4.9453   26.4185  -31.1116 H   0  0  0  0  0  0  0  0  0  0  0  0
   -6.1985   25.1316  -31.1116 H   0  0  0  0  0  0  0  0  0  0  0  0
   -0.8366   26.6027  -27.4272 H   0  0  0  0  0  0  0  0  0  0  0  0
    0.0678   26.6007  -28.9792 H   0  0  0  0  0  0  0  0  0  0  0  0
   -1.7155   26.8161  -28.9792 H   0  0  0  0  0  0  0  0  0  0  0  0
    0.8845   24.3764  -27.7115 H   0  0  0  0  0  0  0  0  0  0  0  0
    0.5999   21.9081  -27.8640 H   0  0  0  0  0  0  0  0  0  0  0  0
   -1.4865   20.9391  -28.8157 H   0  0  0  0  0  0  0  0  0  0  0  0
  1  2  1  0
  2  3  1  0
  3  4  2  0
  3  5  1  0
  5  6  1  0
  6  7  1  0
  7  8  1  0
  8  9  1  0
  9 10  2  0
 10 11  1  0
 11 12  2  0
 12 13  1  0
 13 14  2  0
  7 15  1  0
 15 16  1  0
 16 17  2  0
 17 18  1  0
 17 19  1  0
 19 20  1  0
 20 21  2  0
 21 22  1  0
 21 23  1  0
 23 24  2  0
 24 25  1  0
 25 26  2  0
 26 27  1  0
 27 28  2  0
 14  9  1  0
 27 16  1  0
 26 20  1  0
  1 29  1  0
  1 30  1  0
  1 31  1  0
  5 32  1  0
  5 33  1  0
  6 34  1  0
  6 35  1  0
  8 36  1  0
  8 37  1  0
 10 38  1  0
 11 39  1  0
 12 40  1  0
 13 41  1  0
 14 42  1  0
 15 43  1  0
 15 44  1  0
 18 45  1  0
 18 46  1  0
 18 47  1  0
 22 48  1  0
 22 49  1  0
 22 50  1  0
 23 51  1  0
 24 52  1  0
 25 53  1  0
M  CHG  1  19  -1
M  END
>  <UniqueID>  (26) 
25

>  <SMILES>  (26) 
COC(=O)CCN(Cc1ccccc1)Cc1c(C)[n-]c2c(C)cccc2c1=O

>  <Energy>  (26) 
60.96104240424803

>  <Genealogy>  (26) 
COC(=O)CCN(Cc1ccccc1)Cc1c(C)[n-]c2c(C)cccc2c1=O (protonated)
COC(=O)CCN(Cc1ccccc1)Cc1c(C)[n-]c2c(C)cccc2c1=O (3D coordinates assigned)
COC(=O)CCN(Cc1ccccc1)Cc1c(C)[n-]c2c(C)cccc2c1=O (optimized conformer: 60.96104240424803 kcal/mol)

>  <smiles>  (26) 
COC(=O)CCN(Cc1ccccc1)Cc1c(C)[nH]c2c(C)cccc2c1=O

>  <score_type>  (26) 
oracle

>  <origin>  (26) 
adg

>  <m_score__min__energy>  (26) 
-9.3699999999999992

>  <m_primary>  (26) 
energy

$$$$
26:0
     RDKit          3D

 47 48  0  0  0  0  0  0  0  0999 V2000
   -3.4420   20.7660  -32.9980 C   0  0  0  0  0  0  0  0  0  0  0  0
   -2.2930   21.5470  -32.5130 N   0  0  0  0  0  0  0  0  0  0  0  0
   -1.0740   21.1210  -33.2240 C   0  0  0  0  0  0  0  0  0  0  0  0
   -2.1360   21.3880  -31.0500 C   0  0  0  0  0  0  0  0  0  0  0  0
   -1.5650   22.6630  -30.4190 C   0  0  0  0  0  0  0  0  0  0  0  0
   -2.5830   23.3440  -29.6000 N   0  0  0  0  0  0  0  0  0  0  0  0
   -2.2970   23.5690  -28.1780 C   0  0  0  0  0  0  0  0  0  0  0  0
   -3.8660   23.7060  -30.1720 C   0  0  0  0  0  0  0  0  0  0  0  0
   -4.8090   22.7340  -30.5520 C   0  0  0  0  0  0  0  0  0  0  0  0
   -6.0300   23.1450  -31.1120 C   0  0  0  0  0  0  0  0  0  0  0  0
   -7.0650   22.1660  -31.5350 C   0  0  0  0  0  0  0  0  0  0  0  0
   -8.4150   22.3280  -31.1760 C   0  0  0  0  0  0  0  0  0  0  0  0
   -9.3700   21.3930  -31.5780 C   0  0  0  0  0  0  0  0  0  0  0  0
   -8.9940   20.2820  -32.3330 C   0  0  0  0  0  0  0  0  0  0  0  0
   -7.6470   20.0860  -32.6890 C   0  0  0  0  0  0  0  0  0  0  0  0
   -7.2180   18.9520  -33.4660 N   0  0  0  0  0  0  0  0  0  0  0  0
   -6.5670   17.4880  -32.7960 S   0  0  0  0  0  0  0  0  0  0  0  0
   -4.8130   17.4020  -33.0940 C   0  0  0  0  0  0  0  0  0  0  0  0
   -6.8550   17.4230  -31.3230 O   0  0  0  0  0  0  0  0  0  0  0  0
   -7.2230   16.3150  -33.4680 O   0  0  0  0  0  0  0  0  0  0  0  0
   -6.6930   21.0350  -32.2850 C   0  0  0  0  0  0  0  0  0  0  0  0
   -6.2780   24.4760  -31.2520 N   0  0  0  0  0  0  0  0  0  0  0  0
   -5.3660   25.4060  -30.8770 C   0  0  0  0  0  0  0  0  0  0  0  0
   -4.1790   25.0200  -30.3480 N   0  0  0  0  0  0  0  0  0  0  0  0
   -4.0110   20.3792  -32.1397 H   0  0  0  0  0  0  0  0  0  0  0  0
   -4.0919   21.4103  -33.6084 H   0  0  0  0  0  0  0  0  0  0  0  0
   -3.0821   19.9247  -33.6084 H   0  0  0  0  0  0  0  0  0  0  0  0
   -0.2986   20.8500  -32.4924 H   0  0  0  0  0  0  0  0  0  0  0  0
   -1.3032   20.2497  -33.8551 H   0  0  0  0  0  0  0  0  0  0  0  0
   -0.7106   21.9454  -33.8551 H   0  0  0  0  0  0  0  0  0  0  0  0
   -3.1183   21.1741  -30.6036 H   0  0  0  0  0  0  0  0  0  0  0  0
   -1.4385   20.5590  -30.8596 H   0  0  0  0  0  0  0  0  0  0  0  0
   -0.7085   22.3974  -29.7819 H   0  0  0  0  0  0  0  0  0  0  0  0
   -1.2482   23.3427  -31.2238 H   0  0  0  0  0  0  0  0  0  0  0  0
   -3.0152   23.0040  -27.5657 H   0  0  0  0  0  0  0  0  0  0  0  0
   -1.2754   23.2299  -27.9513 H   0  0  0  0  0  0  0  0  0  0  0  0
   -2.3861   24.6417  -27.9513 H   0  0  0  0  0  0  0  0  0  0  0  0
   -4.5929   21.6645  -30.4123 H   0  0  0  0  0  0  0  0  0  0  0  0
   -8.7202   23.1970  -30.5746 H   0  0  0  0  0  0  0  0  0  0  0  0
  -10.4245   21.5329  -31.2980 H   0  0  0  0  0  0  0  0  0  0  0  0
   -9.7552   19.5548  -32.6520 H   0  0  0  0  0  0  0  0  0  0  0  0
   -7.2320   19.0220  -34.5080 H   0  0  0  0  0  0  0  0  0  0  0  0
   -4.2786   17.3758  -32.1329 H   0  0  0  0  0  0  0  0  0  0  0  0
   -4.5826   16.4915  -33.6666 H   0  0  0  0  0  0  0  0  0  0  0  0
   -4.4946   18.2856  -33.6666 H   0  0  0  0  0  0  0  0  0  0  0  0
   -5.6375   20.8915  -32.5596 H   0  0  0  0  0  0  0  0  0  0  0  0
   -5.5894   26.4758  -31.0021 H   0  0  0  0  0  0  0  0  0  0  0  0
  1  2  1  0
  2  3  1  0
  2  4  1  0
  4  5  1  0
  5  6  1  0
  6  7  1  0
  6  8  1  0
  8  9  2  0
  9 10  1  0
 10 11  1  0
 11 12  2  0
 12 13  1  0
 13 14  2  0
 14 15  1  0
 15 16  1  0
 16 17  1  0
 17 18  1  0
 17 19  2  0
 17 20  2  0
 15 21  2  0
 10 22  2  0
 22 23  1  0
 23 24  2  0
 24  8  1  0
 21 11  1  0
  1 25  1  0
  1 26  1  0
  1 27  1  0
  3 28  1  0
  3 29  1  0
  3 30  1  0
  4 31  1  0
  4 32  1  0
  5 33  1  0
  5 34  1  0
  7 35  1  0
  7 36  1  0
  7 37  1  0
  9 38  1  0
 12 39  1  0
 13 40  1  0
 14 41  1  0
 16 42  1  0
 18 43  1  0
 18 44  1  0
 18 45  1  0
 21 46  1  0
 23 47  1  0
M  END
>  <UniqueID>  (27) 
26

>  <SMILES>  (27) 
CN(C)CCN(C)c1cc(-c2cccc(NS(C)(=O)=O)c2)ncn1

>  <Energy>  (27) 
48.826793596412

>  <Genealogy>  (27) 
CN(C)CCN(C)c1cc(-c2cccc(NS(C)(=O)=O)c2)ncn1 (3D coordinates assigned)
CN(C)CCN(C)c1cc(-c2cccc(NS(C)(=O)=O)c2)ncn1 (optimized conformer: 48.826793596412 kcal/mol)

>  <smiles>  (27) 
CN(C)CCN(C)c1cc(-c2cccc(NS(C)(=O)=O)c2)ncn1

>  <score_type>  (27) 
oracle

>  <origin>  (27) 
adg

>  <m_score__min__energy>  (27) 
-8.2799999999999994

>  <m_primary>  (27) 
energy

$$$$
27:0
     RDKit          3D

 54 57  0  0  0  0  0  0  0  0999 V2000
    1.4740   27.9370  -22.7650 C   0  0  0  0  0  0  0  0  0  0  0  0
    0.3640   27.3280  -23.5510 C   0  0  0  0  0  0  0  0  0  0  0  0
    0.5410   26.6600  -24.7100 N   0  0  0  0  0  0  0  0  0  0  0  0
   -0.7300   26.3330  -25.0380 C   0  0  0  0  0  0  0  0  0  0  0  0
   -1.0900   25.5710  -26.2590 C   0  0  0  0  0  0  0  0  0  0  0  0
   -0.0790   25.1330  -27.1330 C   0  0  0  0  0  0  0  0  0  0  0  0
   -0.3980   24.4130  -28.2880 C   0  0  0  0  0  0  0  0  0  0  0  0
   -1.7340   24.1230  -28.5950 C   0  0  0  0  0  0  0  0  0  0  0  0
   -2.0690   23.3230  -29.8290 C   0  0  0  0  0  0  0  0  0  0  0  0
   -3.5230   23.0670  -29.9190 N   0  0  0  0  0  0  0  0  0  0  0  0
   -3.8100   21.8380  -30.7070 C   0  0  0  0  0  0  0  0  0  0  0  0
   -4.3810   22.1470  -32.0970 C   0  0  0  0  0  0  0  0  0  0  0  0
   -5.7490   22.8830  -31.9850 C   0  0  0  0  0  0  0  0  0  0  0  0
   -6.9110   21.9640  -31.7680 N   0  0  0  0  0  0  0  0  0  0  0  0
   -6.8580   20.7410  -32.6170 C   0  0  0  0  0  0  0  0  0  0  0  0
   -8.2190   20.0230  -32.7580 C   0  0  0  0  0  0  0  0  0  0  0  0
   -9.1230   20.3280  -31.5650 C   0  0  0  0  0  0  0  0  0  0  0  0
   -9.3720   21.8390  -31.4450 C   0  0  0  0  0  0  0  0  0  0  0  0
   -8.1970   22.6710  -31.9870 C   0  0  0  0  0  0  0  0  0  0  0  0
   -5.6810   23.9300  -30.8290 C   0  0  0  0  0  0  0  0  0  0  0  0
   -4.2480   24.2710  -30.4010 C   0  0  0  0  0  0  0  0  0  0  0  0
   -2.7470   24.5510  -27.7250 C   0  0  0  0  0  0  0  0  0  0  0  0
   -2.4300   25.2700  -26.5690 C   0  0  0  0  0  0  0  0  0  0  0  0
   -1.6060   26.7900  -24.1190 N   0  0  0  0  0  0  0  0  0  0  0  0
   -0.9000   27.4000  -23.2180 O   0  0  0  0  0  0  0  0  0  0  0  0
    1.2675   27.8237  -21.6905 H   0  0  0  0  0  0  0  0  0  0  0  0
    2.4189   27.4310  -23.0122 H   0  0  0  0  0  0  0  0  0  0  0  0
    1.5549   29.0058  -23.0122 H   0  0  0  0  0  0  0  0  0  0  0  0
    0.9732   25.3592  -26.9055 H   0  0  0  0  0  0  0  0  0  0  0  0
    0.4040   24.0723  -28.9593 H   0  0  0  0  0  0  0  0  0  0  0  0
   -1.7471   23.8836  -30.7190 H   0  0  0  0  0  0  0  0  0  0  0  0
   -1.5469   22.3565  -29.7713 H   0  0  0  0  0  0  0  0  0  0  0  0
   -2.8751   21.2713  -30.8284 H   0  0  0  0  0  0  0  0  0  0  0  0
   -4.5672   21.2596  -30.1573 H   0  0  0  0  0  0  0  0  0  0  0  0
   -3.6719   22.7861  -32.6437 H   0  0  0  0  0  0  0  0  0  0  0  0
   -4.5351   21.1985  -32.6324 H   0  0  0  0  0  0  0  0  0  0  0  0
   -5.9224   23.3773  -32.9523 H   0  0  0  0  0  0  0  0  0  0  0  0
   -6.5121   21.0296  -33.6205 H   0  0  0  0  0  0  0  0  0  0  0  0
   -6.1726   20.0364  -32.1232 H   0  0  0  0  0  0  0  0  0  0  0  0
   -8.7123   20.3643  -33.6801 H   0  0  0  0  0  0  0  0  0  0  0  0
   -8.0415   18.9381  -32.7958 H   0  0  0  0  0  0  0  0  0  0  0  0
  -10.0855   19.8130  -31.7003 H   0  0  0  0  0  0  0  0  0  0  0  0
   -8.6282   19.9771  -30.6474 H   0  0  0  0  0  0  0  0  0  0  0  0
  -10.2780   22.0942  -32.0143 H   0  0  0  0  0  0  0  0  0  0  0  0
   -9.4872   22.0765  -30.3771 H   0  0  0  0  0  0  0  0  0  0  0  0
   -8.3389   22.8374  -33.0650 H   0  0  0  0  0  0  0  0  0  0  0  0
   -8.1680   23.6327  -31.4538 H   0  0  0  0  0  0  0  0  0  0  0  0
   -6.1738   24.8540  -31.1657 H   0  0  0  0  0  0  0  0  0  0  0  0
   -6.1836   23.4853  -29.9574 H   0  0  0  0  0  0  0  0  0  0  0  0
   -3.7084   24.6924  -31.2620 H   0  0  0  0  0  0  0  0  0  0  0  0
   -4.2975   24.9974  -29.5764 H   0  0  0  0  0  0  0  0  0  0  0  0
   -3.7978   24.3195  -27.9537 H   0  0  0  0  0  0  0  0  0  0  0  0
   -3.2338   25.6033  -25.8961 H   0  0  0  0  0  0  0  0  0  0  0  0
   -2.6440   26.6980  -24.0980 H   0  0  0  0  0  0  0  0  0  0  0  0
  1  2  1  0
  2  3  2  0
  3  4  1  0
  4  5  1  0
  5  6  2  0
  6  7  1  0
  7  8  2  0
  8  9  1  0
  9 10  1  0
 10 11  1  0
 11 12  1  0
 12 13  1  0
 13 14  1  0
 14 15  1  0
 15 16  1  0
 16 17  1  0
 17 18  1  0
 18 19  1  0
 13 20  1  0
 20 21  1  0
  8 22  1  0
 22 23  2  0
  4 24  2  0
 24 25  1  0
 25  2  1  0
 23  5  1  0
 21 10  1  0
 19 14  1  0
  1 26  1  0
  1 27  1  0
  1 28  1  0
  6 29  1  0
  7 30  1  0
  9 31  1  0
  9 32  1  0
 11 33  1  0
 11 34  1  0
 12 35  1  0
 12 36  1  0
 13 37  1  0
 15 38  1  0
 15 39  1  0
 16 40  1  0
 16 41  1  0
 17 42  1  0
 17 43  1  0
 18 44  1  0
 18 45  1  0
 19 46  1  0
 19 47  1  0
 20 48  1  0
 20 49  1  0
 21 50  1  0
 21 51  1  0
 22 52  1  0
 23 53  1  0
 24 54  1  0
M  CHG  1  24   1
M  END
>  <UniqueID>  (28) 
27

>  <SMILES>  (28) 
Cc1nc(-c2ccc(CN3CCC(N4CCCCC4)CC3)cc2)[nH+]o1

>  <Energy>  (28) 
110.36891817261358

>  <Genealogy>  (28) 
Cc1nc(-c2ccc(CN3CCC(N4CCCCC4)CC3)cc2)[nH+]o1 (protonated)
Cc1nc(-c2ccc(CN3CCC(N4CCCCC4)CC3)cc2)[nH+]o1 (3D coordinates assigned)
Cc1nc(-c2ccc(CN3CCC(N4CCCCC4)CC3)cc2)[nH+]o1 (nonaromatic ring conformer: 110.36891817261358 kcal/mol)

>  <smiles>  (28) 
Cc1nc(-c2ccc(CN3CCC(N4CCCCC4)CC3)cc2)no1

>  <score_type>  (28) 
oracle

>  <origin>  (28) 
adg

>  <m_score__min__energy>  (28) 
-8.9199999999999999

>  <m_primary>  (28) 
energy

$$$$
28:0
     RDKit          3D

 53 54  0  0  0  0  0  0  0  0999 V2000
   -5.3950   16.0120  -33.0810 C   0  0  0  0  0  0  0  0  0  0  0  0
   -4.3190   16.8850  -33.7220 C   0  0  0  0  0  0  0  0  0  0  0  0
   -4.1060   18.1940  -32.9490 C   0  0  0  0  0  0  0  0  0  0  0  0
   -4.4650   19.3650  -33.7860 N   0  0  0  0  0  0  0  0  0  0  0  0
   -5.9150   19.3820  -34.1040 C   0  0  0  0  0  0  0  0  0  0  0  0
   -6.7430   19.1210  -32.8400 C   0  0  0  0  0  0  0  0  0  0  0  0
   -7.6060   20.3010  -32.4760 C   0  0  0  0  0  0  0  0  0  0  0  0
   -8.9930   20.1370  -32.3110 C   0  0  0  0  0  0  0  0  0  0  0  0
   -9.7950   21.2300  -31.9600 C   0  0  0  0  0  0  0  0  0  0  0  0
   -9.2200   22.4930  -31.7760 C   0  0  0  0  0  0  0  0  0  0  0  0
   -7.8410   22.6630  -31.9340 C   0  0  0  0  0  0  0  0  0  0  0  0
   -7.0330   21.5720  -32.2780 C   0  0  0  0  0  0  0  0  0  0  0  0
   -4.0290   20.6320  -33.1520 C   0  0  0  0  0  0  0  0  0  0  0  0
   -3.9970   20.4750  -31.6260 C   0  0  0  0  0  0  0  0  0  0  0  0
   -3.5050   21.7380  -30.9680 C   0  0  0  0  0  0  0  0  0  0  0  0
   -2.4030   21.7010  -30.1020 C   0  0  0  0  0  0  0  0  0  0  0  0
   -1.9410   22.8710  -29.4940 C   0  0  0  0  0  0  0  0  0  0  0  0
   -2.5870   24.1000  -29.7340 C   0  0  0  0  0  0  0  0  0  0  0  0
   -2.1460   25.3010  -29.1530 O   0  0  0  0  0  0  0  0  0  0  0  0
   -1.6110   25.4130  -27.8380 C   0  0  0  0  0  0  0  0  0  0  0  0
   -3.7100   24.1420  -30.5780 C   0  0  0  0  0  0  0  0  0  0  0  0
   -4.3420   25.3790  -30.7890 O   0  0  0  0  0  0  0  0  0  0  0  0
   -5.7010   25.6600  -30.4610 C   0  0  0  0  0  0  0  0  0  0  0  0
   -4.1660   22.9550  -31.1900 C   0  0  0  0  0  0  0  0  0  0  0  0
   -5.3153   16.0767  -31.9858 H   0  0  0  0  0  0  0  0  0  0  0  0
   -6.3884   16.3626  -33.3977 H   0  0  0  0  0  0  0  0  0  0  0  0
   -5.2566   14.9677  -33.3977 H   0  0  0  0  0  0  0  0  0  0  0  0
   -3.3721   16.3254  -33.7409 H   0  0  0  0  0  0  0  0  0  0  0  0
   -4.6499   17.1407  -34.7394 H   0  0  0  0  0  0  0  0  0  0  0  0
   -4.7373   18.1876  -32.0482 H   0  0  0  0  0  0  0  0  0  0  0  0
   -3.0442   18.2710  -32.6722 H   0  0  0  0  0  0  0  0  0  0  0  0
   -6.1840   20.3655  -34.5167 H   0  0  0  0  0  0  0  0  0  0  0  0
   -6.1281   18.5922  -34.8394 H   0  0  0  0  0  0  0  0  0  0  0  0
   -7.3897   18.2482  -33.0132 H   0  0  0  0  0  0  0  0  0  0  0  0
   -6.0456   18.9412  -32.0085 H   0  0  0  0  0  0  0  0  0  0  0  0
   -9.4493   19.1470  -32.4581 H   0  0  0  0  0  0  0  0  0  0  0  0
  -10.8789   21.0959  -31.8286 H   0  0  0  0  0  0  0  0  0  0  0  0
   -9.8528   23.3516  -31.5072 H   0  0  0  0  0  0  0  0  0  0  0  0
   -7.3900   23.6556  -31.7878 H   0  0  0  0  0  0  0  0  0  0  0  0
   -5.9476   21.7083  -32.3938 H   0  0  0  0  0  0  0  0  0  0  0  0
   -3.0225   20.8914  -33.5121 H   0  0  0  0  0  0  0  0  0  0  0  0
   -4.7387   21.4296  -33.4168 H   0  0  0  0  0  0  0  0  0  0  0  0
   -5.0119   20.2522  -31.2651 H   0  0  0  0  0  0  0  0  0  0  0  0
   -3.3108   19.6541  -31.3705 H   0  0  0  0  0  0  0  0  0  0  0  0
   -1.8988   20.7445  -29.8999 H   0  0  0  0  0  0  0  0  0  0  0  0
   -1.0688   22.8325  -28.8248 H   0  0  0  0  0  0  0  0  0  0  0  0
   -2.4106   25.2456  -27.1014 H   0  0  0  0  0  0  0  0  0  0  0  0
   -0.8205   24.6609  -27.6984 H   0  0  0  0  0  0  0  0  0  0  0  0
   -1.1886   26.4190  -27.6984 H   0  0  0  0  0  0  0  0  0  0  0  0
   -5.8168   25.6840  -29.3674 H   0  0  0  0  0  0  0  0  0  0  0  0
   -5.9854   26.6359  -30.8813 H   0  0  0  0  0  0  0  0  0  0  0  0
   -6.3491   24.8769  -30.8813 H   0  0  0  0  0  0  0  0  0  0  0  0
   -5.0477   22.9845  -31.8470 H   0  0  0  0  0  0  0  0  0  0  0  0
  1  2  1  0
  2  3  1  0
  3  4  1  0
  4  5  1  0
  5  6  1  0
  6  7  1  0
  7  8  2  0
  8  9  1  0
  9 10  2  0
 10 11  1  0
 11 12  2  0
  4 13  1  0
 13 14  1  0
 14 15  1  0
 15 16  2  0
 16 17  1  0
 17 18  2  0
 18 19  1  0
 19 20  1  0
 18 21  1  0
 21 22  1  0
 22 23  1  0
 21 24  2  0
 12  7  1  0
 24 15  1  0
  1 25  1  0
  1 26  1  0
  1 27  1  0
  2 28  1  0
  2 29  1  0
  3 30  1  0
  3 31  1  0
  5 32  1  0
  5 33  1  0
  6 34  1  0
  6 35  1  0
  8 36  1  0
  9 37  1  0
 10 38  1  0
 11 39  1  0
 12 40  1  0
 13 41  1  0
 13 42  1  0
 14 43  1  0
 14 44  1  0
 16 45  1  0
 17 46  1  0
 20 47  1  0
 20 48  1  0
 20 49  1  0
 23 50  1  0
 23 51  1  0
 23 52  1  0
 24 53  1  0
M  END
>  <UniqueID>  (29) 
28

>  <SMILES>  (29) 
CCCN(CCc1ccccc1)CCc1ccc(OC)c(OC)c1

>  <Energy>  (29) 
43.256442932185294

>  <Genealogy>  (29) 
CCCN(CCc1ccccc1)CCc1ccc(OC)c(OC)c1 (3D coordinates assigned)
CCCN(CCc1ccccc1)CCc1ccc(OC)c(OC)c1 (optimized conformer: 43.256442932185294 kcal/mol)

>  <smiles>  (29) 
CCCN(CCc1ccccc1)CCc1ccc(OC)c(OC)c1

>  <score_type>  (29) 
oracle

>  <origin>  (29) 
adg

>  <m_score__min__energy>  (29) 
-8.4900000000000002

>  <m_primary>  (29) 
energy

$$$$
29:0
     RDKit          3D

 41 43  0  0  0  0  0  0  0  0999 V2000
    0.0410   25.4000  -27.3210 C   0  0  0  0  0  0  0  0  0  0  0  0
   -1.3480   25.4710  -27.9590 C   0  0  1  0  0  0  0  0  0  0  0  0
   -1.2420   25.9660  -29.2680 O   0  0  0  0  0  0  0  0  0  0  0  0
   -2.0000   24.0830  -27.9870 C   0  0  0  0  0  0  0  0  0  0  0  0
   -1.9480   23.5220  -29.3360 N   0  0  0  0  0  0  0  0  0  0  0  0
   -1.4690   22.1950  -29.6050 C   0  0  0  0  0  0  0  0  0  0  0  0
   -0.9730   21.5050  -28.6730 O   0  0  0  0  0  0  0  0  0  0  0  0
   -1.5140   21.6350  -30.9750 C   0  0  0  0  0  0  0  0  0  0  0  0
   -0.6150   20.6190  -31.3390 C   0  0  0  0  0  0  0  0  0  0  0  0
   -0.6360   20.0900  -32.6290 C   0  0  0  0  0  0  0  0  0  0  0  0
   -1.5640   20.5710  -33.5490 C   0  0  0  0  0  0  0  0  0  0  0  0
   -2.4440   21.5370  -33.1830 N   0  0  0  0  0  0  0  0  0  0  0  0
   -2.4470   22.0830  -31.9330 C   0  0  0  0  0  0  0  0  0  0  0  0
   -3.4160   23.0330  -31.5790 O   0  0  0  0  0  0  0  0  0  0  0  0
   -4.8010   22.8140  -31.5620 C   0  0  0  0  0  0  0  0  0  0  0  0
   -5.6280   23.8100  -31.0310 C   0  0  0  0  0  0  0  0  0  0  0  0
   -7.0150   23.6450  -31.0010 C   0  0  0  0  0  0  0  0  0  0  0  0
   -7.5950   22.4780  -31.5170 C   0  0  0  0  0  0  0  0  0  0  0  0
   -8.9840   22.2960  -31.4960 C   0  0  0  0  0  0  0  0  0  0  0  0
   -9.5300   21.1250  -32.0280 C   0  0  0  0  0  0  0  0  0  0  0  0
   -8.7190   20.1730  -32.5640 N   0  0  0  0  0  0  0  0  0  0  0  0
   -7.3680   20.3200  -32.5990 C   0  0  0  0  0  0  0  0  0  0  0  0
   -6.7710   21.4750  -32.0740 C   0  0  0  0  0  0  0  0  0  0  0  0
   -5.3790   21.6480  -32.1010 C   0  0  0  0  0  0  0  0  0  0  0  0
   -0.0580   25.4051  -26.2255 H   0  0  0  0  0  0  0  0  0  0  0  0
    0.5439   24.4750  -27.6394 H   0  0  0  0  0  0  0  0  0  0  0  0
    0.6356   26.2689  -27.6394 H   0  0  0  0  0  0  0  0  0  0  0  0
   -1.9763   26.1448  -27.3580 H   0  0  0  0  0  0  0  0  0  0  0  0
   -2.0580   25.6730  -29.7520 H   0  0  0  0  0  0  0  0  0  0  0  0
   -1.4628   23.4163  -27.2964 H   0  0  0  0  0  0  0  0  0  0  0  0
   -3.0522   24.1771  -27.6803 H   0  0  0  0  0  0  0  0  0  0  0  0
   -2.1250   24.1710  -30.1360 H   0  0  0  0  0  0  0  0  0  0  0  0
    0.1089   20.2389  -30.6031 H   0  0  0  0  0  0  0  0  0  0  0  0
    0.0736   19.3004  -32.9171 H   0  0  0  0  0  0  0  0  0  0  0  0
   -1.5838   20.1680  -34.5723 H   0  0  0  0  0  0  0  0  0  0  0  0
   -5.1812   24.7330  -30.6328 H   0  0  0  0  0  0  0  0  0  0  0  0
   -7.6527   24.4319  -30.5719 H   0  0  0  0  0  0  0  0  0  0  0  0
   -9.6386   23.0677  -31.0647 H   0  0  0  0  0  0  0  0  0  0  0  0
  -10.6192   20.9723  -32.0134 H   0  0  0  0  0  0  0  0  0  0  0  0
   -6.7416   19.5308  -33.0403 H   0  0  0  0  0  0  0  0  0  0  0  0
   -4.7378   20.8717  -32.5439 H   0  0  0  0  0  0  0  0  0  0  0  0
  1  2  1  0
  2  3  1  0
  2  4  1  0
  4  5  1  0
  5  6  1  0
  6  7  2  0
  6  8  1  0
  8  9  2  0
  9 10  1  0
 10 11  2  0
 11 12  1  0
 12 13  2  0
 13 14  1  0
 14 15  1  0
 15 16  2  0
 16 17  1  0
 17 18  2  0
 18 19  1  0
 19 20  2  0
 20 21  1  0
 21 22  2  0
 22 23  1  0
 23 24  2  0
 13  8  1  0
 24 15  1  0
 23 18  1  0
  1 25  1  0
  1 26  1  0
  1 27  1  0
  2 28  1  1
  3 29  1  0
  4 30  1  0
  4 31  1  0
  5 32  1  0
  9 33  1  0
 10 34  1  0
 11 35  1  0
 16 36  1  0
 17 37  1  0
 19 38  1  0
 20 39  1  0
 22 40  1  0
 24 41  1  0
M  END
>  <UniqueID>  (30) 
29

>  <SMILES>  (30) 
C[C@@H](O)CNC(=O)c1cccnc1Oc1ccc2ccncc2c1

>  <Energy>  (30) 
51.00281746462558

>  <Genealogy>  (30) 
C[C@@H](O)CNC(=O)c1cccnc1Oc1ccc2ccncc2c1 (chirality)
C[C@@H](O)CNC(=O)c1cccnc1Oc1ccc2ccncc2c1 (3D coordinates assigned)
C[C@@H](O)CNC(=O)c1cccnc1Oc1ccc2ccncc2c1 (optimized conformer: 51.00281746462558 kcal/mol)

>  <smiles>  (30) 
CC(O)CNC(=O)c1cccnc1Oc1ccc2ccncc2c1

>  <score_type>  (30) 
oracle

>  <origin>  (30) 
adg

>  <m_score__min__energy>  (30) 
-8.4399999999999995

>  <m_primary>  (30) 
energy

$$$$
30:0
     RDKit          3D

 45 47  0  0  0  0  0  0  0  0999 V2000
   -5.4690   25.7420  -30.4870 C   0  0  0  0  0  0  0  0  0  0  0  0
   -4.2580   25.1490  -30.9030 O   0  0  0  0  0  0  0  0  0  0  0  0
   -3.8520   24.1560  -29.9810 C   0  0  0  0  0  0  0  0  0  0  0  0
   -4.1000   22.7560  -30.5680 C   0  0  0  0  0  0  0  0  0  0  0  0
   -4.7710   22.8270  -31.8880 N   0  0  1  0  0  0  0  0  0  0  0  0
   -4.3270   21.7530  -32.8350 C   0  0  0  0  0  0  0  0  0  0  0  0
   -5.5340   20.8070  -33.1040 C   0  0  0  0  0  0  0  0  0  0  0  0
   -6.3900   21.1200  -31.9090 C   0  0  1  0  0  0  0  0  0  0  0  0
   -6.2170   22.5900  -31.8370 C   0  0  1  0  0  0  0  0  0  0  0  0
   -7.1570   22.9670  -30.7040 C   0  0  0  0  0  0  0  0  0  0  0  0
   -8.3690   22.0530  -31.0460 C   0  0  0  0  0  0  0  0  0  0  0  0
   -7.8300   20.9800  -31.9020 N   0  0  0  0  0  0  0  0  0  0  0  0
   -8.5400   19.7920  -32.2920 C   0  0  0  0  0  0  0  0  0  0  0  0
   -9.5010   19.8750  -33.1010 O   0  0  0  0  0  0  0  0  0  0  0  0
   -8.1870   18.4530  -31.7130 C   0  0  0  0  0  0  0  0  0  0  0  0
   -7.0290   17.8450  -32.4530 C   0  0  0  0  0  0  0  0  0  0  0  0
   -6.1020   17.0250  -31.7920 C   0  0  0  0  0  0  0  0  0  0  0  0
   -5.0280   16.4920  -32.5080 C   0  0  0  0  0  0  0  0  0  0  0  0
   -4.8840   16.7830  -33.8650 C   0  0  0  0  0  0  0  0  0  0  0  0
   -5.8220   17.6070  -34.4900 C   0  0  0  0  0  0  0  0  0  0  0  0
   -6.8610   18.1180  -33.7780 N   0  0  0  0  0  0  0  0  0  0  0  0
   -5.5091   25.7616  -29.3879 H   0  0  0  0  0  0  0  0  0  0  0  0
   -5.5260   26.7699  -30.8744 H   0  0  0  0  0  0  0  0  0  0  0  0
   -6.3160   25.1567  -30.8744 H   0  0  0  0  0  0  0  0  0  0  0  0
   -2.7798   24.2757  -29.7662 H   0  0  0  0  0  0  0  0  0  0  0  0
   -4.4342   24.2659  -29.0542 H   0  0  0  0  0  0  0  0  0  0  0  0
   -3.1344   22.2425  -30.6859 H   0  0  0  0  0  0  0  0  0  0  0  0
   -4.7568   22.2058  -29.8781 H   0  0  0  0  0  0  0  0  0  0  0  0
   -4.6010   23.7700  -32.3140 H   0  0  0  0  0  0  0  0  0  0  0  0
   -3.9918   22.2058  -33.7798 H   0  0  0  0  0  0  0  0  0  0  0  0
   -3.4914   21.1858  -32.3991 H   0  0  0  0  0  0  0  0  0  0  0  0
   -6.0439   21.0554  -34.0465 H   0  0  0  0  0  0  0  0  0  0  0  0
   -5.2710   19.7449  -33.2173 H   0  0  0  0  0  0  0  0  0  0  0  0
   -6.0685   20.4052  -31.1372 H   0  0  0  0  0  0  0  0  0  0  0  0
   -6.5181   23.2886  -32.6315 H   0  0  0  0  0  0  0  0  0  0  0  0
   -6.7283   22.7259  -29.7201 H   0  0  0  0  0  0  0  0  0  0  0  0
   -7.3903   24.0396  -30.6319 H   0  0  0  0  0  0  0  0  0  0  0  0
   -8.8017   21.6300  -30.1274 H   0  0  0  0  0  0  0  0  0  0  0  0
   -9.1697   22.6125  -31.5518 H   0  0  0  0  0  0  0  0  0  0  0  0
   -7.9144   18.5774  -30.6546 H   0  0  0  0  0  0  0  0  0  0  0  0
   -9.0568   17.7861  -31.8063 H   0  0  0  0  0  0  0  0  0  0  0  0
   -6.2200   16.8042  -30.7209 H   0  0  0  0  0  0  0  0  0  0  0  0
   -4.2967   15.8438  -32.0030 H   0  0  0  0  0  0  0  0  0  0  0  0
   -4.0406   16.3677  -34.4362 H   0  0  0  0  0  0  0  0  0  0  0  0
   -5.7201   17.8429  -35.5596 H   0  0  0  0  0  0  0  0  0  0  0  0
  1  2  1  0
  2  3  1  0
  3  4  1  0
  4  5  1  0
  5  6  1  0
  6  7  1  0
  7  8  1  0
  8  9  1  0
  9 10  1  0
 10 11  1  0
 11 12  1  0
 12 13  1  0
 13 14  2  0
 13 15  1  0
 15 16  1  0
 16 17  2  0
 17 18  1  0
 18 19  2  0
 19 20  1  0
 20 21  2  0
  9  5  1  0
 21 16  1  0
 12  8  1  0
  1 22  1  0
  1 23  1  0
  1 24  1  0
  3 25  1  0
  3 26  1  0
  4 27  1  0
  4 28  1  0
  5 29  1  6
  6 30  1  0
  6 31  1  0
  7 32  1  0
  7 33  1  0
  8 34  1  1
  9 35  1  6
 10 36  1  0
 10 37  1  0
 11 38  1  0
 11 39  1  0
 15 40  1  0
 15 41  1  0
 17 42  1  0
 18 43  1  0
 19 44  1  0
 20 45  1  0
M  CHG  1   5   1
M  END
>  <UniqueID>  (31) 
30

>  <SMILES>  (31) 
COCC[N@H+]1CC[C@H]2C1CCN2C(=O)Cc1ccccn1

>  <Energy>  (31) 
87.33252237960554

>  <Genealogy>  (31) 
COCC[NH+]1CCC2C1CCN2C(=O)Cc1ccccn1 (protonated)
COCC[N@H+]1CC[C@H]2C1CCN2C(=O)Cc1ccccn1 (chirality)
COCC[N@H+]1CC[C@H]2C1CCN2C(=O)Cc1ccccn1 (3D coordinates assigned)
COCC[N@H+]1CC[C@H]2C1CCN2C(=O)Cc1ccccn1 (nonaromatic ring conformer: 87.33252237960554 kcal/mol)

>  <smiles>  (31) 
COCCN1CCC2C1CCN2C(=O)Cc1ccccn1

>  <score_type>  (31) 
oracle

>  <origin>  (31) 
adg

>  <m_score__min__energy>  (31) 
-7.04

>  <m_primary>  (31) 
energy

$$$$
31:0
     RDKit          3D

 33 35  0  0  0  0  0  0  0  0999 V2000
   -1.3190   20.2610  -26.8020 C   0  0  0  0  0  0  0  0  0  0  0  0
   -1.2240   21.4980  -25.9110 C   0  0  0  0  0  0  0  0  0  0  0  0
   -0.7490   22.6770  -26.6610 N   0  0  0  0  0  0  0  0  0  0  0  0
   -0.0970   22.5020  -27.9580 C   0  0  0  0  0  0  0  0  0  0  0  0
   -1.1140   22.7320  -29.0310 C   0  0  0  0  0  0  0  0  0  0  0  0
   -1.4490   21.6950  -29.9120 C   0  0  0  0  0  0  0  0  0  0  0  0
   -2.4540   21.8770  -30.8550 C   0  0  0  0  0  0  0  0  0  0  0  0
   -3.1190   23.0970  -30.9150 C   0  0  0  0  0  0  0  0  0  0  0  0
   -2.7790   24.1120  -30.0720 N   0  0  0  0  0  0  0  0  0  0  0  0
   -3.4730   25.2960  -30.1730 O   0  0  0  0  0  0  0  0  0  0  0  0
   -1.7900   23.9660  -29.1310 C   0  0  0  0  0  0  0  0  0  0  0  0
   -1.3580   25.1480  -28.3410 C   0  0  0  0  0  0  0  0  0  0  0  0
   -1.2240   26.2320  -28.9750 O   0  0  0  0  0  0  0  0  0  0  0  0
   -1.0960   25.1580  -26.8650 C   0  0  0  0  0  0  0  0  0  0  0  0
   -1.1230   26.4150  -26.2170 C   0  0  0  0  0  0  0  0  0  0  0  0
   -0.8630   26.5330  -24.8530 C   0  0  0  0  0  0  0  0  0  0  0  0
   -0.5560   25.4060  -24.1020 C   0  0  0  0  0  0  0  0  0  0  0  0
   -0.5240   24.1530  -24.7090 C   0  0  0  0  0  0  0  0  0  0  0  0
   -0.8160   23.9980  -26.0810 C   0  0  0  0  0  0  0  0  0  0  0  0
   -1.3881   19.3609  -26.1735 H   0  0  0  0  0  0  0  0  0  0  0  0
   -2.2142   20.3344  -27.4371 H   0  0  0  0  0  0  0  0  0  0  0  0
   -0.4231   20.1969  -27.4371 H   0  0  0  0  0  0  0  0  0  0  0  0
   -2.2195   21.7163  -25.4972 H   0  0  0  0  0  0  0  0  0  0  0  0
   -0.5007   21.2879  -25.1093 H   0  0  0  0  0  0  0  0  0  0  0  0
    0.7239   23.2268  -28.0623 H   0  0  0  0  0  0  0  0  0  0  0  0
    0.3165   21.4860  -28.0398 H   0  0  0  0  0  0  0  0  0  0  0  0
   -0.9154   20.7346  -29.8572 H   0  0  0  0  0  0  0  0  0  0  0  0
   -2.7206   21.0643  -31.5467 H   0  0  0  0  0  0  0  0  0  0  0  0
   -3.9255   23.2436  -31.6485 H   0  0  0  0  0  0  0  0  0  0  0  0
   -1.3539   27.3177  -26.8016 H   0  0  0  0  0  0  0  0  0  0  0  0
   -0.9010   27.5207  -24.3703 H   0  0  0  0  0  0  0  0  0  0  0  0
   -0.3382   25.5029  -23.0281 H   0  0  0  0  0  0  0  0  0  0  0  0
   -0.2665   23.2682  -24.1083 H   0  0  0  0  0  0  0  0  0  0  0  0
  1  2  1  0
  2  3  1  0
  3  4  1  0
  4  5  1  0
  5  6  2  0
  6  7  1  0
  7  8  2  0
  8  9  1  0
  9 10  1  0
  9 11  2  0
 11 12  1  0
 12 13  2  0
 12 14  1  0
 14 15  2  0
 15 16  1  0
 16 17  2  0
 17 18  1  0
 18 19  2  0
 19  3  1  0
 11  5  1  0
 19 14  1  0
  1 20  1  0
  1 21  1  0
  1 22  1  0
  2 23  1  0
  2 24  1  0
  4 25  1  0
  4 26  1  0
  6 27  1  0
  7 28  1  0
  8 29  1  0
 15 30  1  0
 16 31  1  0
 17 32  1  0
 18 33  1  0
M  CHG  2   9   1  10  -1
M  END
>  <UniqueID>  (32) 
31

>  <SMILES>  (32) 
CCN1Cc2ccc[n+]([O-])c2C(=O)c2ccccc21

>  <Energy>  (32) 
52.635481835173366

>  <Genealogy>  (32) 
CCN1Cc2ccc[n+]([O-])c2C(=O)c2ccccc21 (3D coordinates assigned)
CCN1Cc2ccc[n+]([O-])c2C(=O)c2ccccc21 (nonaromatic ring conformer: 52.635481835173366 kcal/mol)

>  <smiles>  (32) 
CCN1Cc2ccc[n+]([O-])c2C(=O)c2ccccc21

>  <score_type>  (32) 
oracle

>  <origin>  (32) 
adg

>  <m_score__min__energy>  (32) 
-7.8499999999999996

>  <m_primary>  (32) 
energy

$$$$
32:0
     RDKit          3D

 26 28  0  0  0  0  0  0  0  0999 V2000
   -4.4710   22.5180  -32.7030 O   0  0  0  0  0  0  0  0  0  0  0  0
   -5.6500   22.2860  -32.3240 C   0  0  0  0  0  0  0  0  0  0  0  0
   -6.3250   21.0480  -32.6910 C   0  0  0  0  0  0  0  0  0  0  0  0
   -5.8090   20.0220  -33.3920 N   0  0  0  0  0  0  0  0  0  0  0  0
   -6.8730   19.1850  -33.4660 C   0  0  0  0  0  0  0  0  0  0  0  0
   -7.9750   19.6790  -32.8560 N   0  0  0  0  0  0  0  0  0  0  0  0
   -7.5990   20.8400  -32.3580 N   0  0  0  0  0  0  0  0  0  0  0  0
   -8.4590   21.8310  -31.7160 C   0  0  0  0  0  0  0  0  0  0  0  0
   -7.6150   22.7820  -30.8370 C   0  0  0  0  0  0  0  0  0  0  0  0
   -6.3920   23.2360  -31.5310 N   0  0  0  0  0  0  0  0  0  0  0  0
   -5.8190   24.5460  -31.2060 C   0  0  0  0  0  0  0  0  0  0  0  0
   -4.6970   24.3860  -30.2300 C   0  0  0  0  0  0  0  0  0  0  0  0
   -4.7610   23.7160  -29.0250 C   0  0  0  0  0  0  0  0  0  0  0  0
   -3.5130   23.8580  -28.4560 C   0  0  0  0  0  0  0  0  0  0  0  0
   -2.7700   24.6060  -29.3470 C   0  0  0  0  0  0  0  0  0  0  0  0
   -3.5040   24.9080  -30.3940 O   0  0  0  0  0  0  0  0  0  0  0  0
   -6.8434   18.2072  -33.9690 H   0  0  0  0  0  0  0  0  0  0  0  0
   -8.9786   22.4162  -32.4890 H   0  0  0  0  0  0  0  0  0  0  0  0
   -9.1922   21.3120  -31.0811 H   0  0  0  0  0  0  0  0  0  0  0  0
   -8.2238   23.6609  -30.5784 H   0  0  0  0  0  0  0  0  0  0  0  0
   -7.3098   22.2308  -29.9353 H   0  0  0  0  0  0  0  0  0  0  0  0
   -5.4381   25.0151  -32.1252 H   0  0  0  0  0  0  0  0  0  0  0  0
   -6.5987   25.1801  -30.7589 H   0  0  0  0  0  0  0  0  0  0  0  0
   -5.6261   23.1810  -28.6063 H   0  0  0  0  0  0  0  0  0  0  0  0
   -3.1776   23.4566  -27.4883 H   0  0  0  0  0  0  0  0  0  0  0  0
   -1.7212   24.9043  -29.2022 H   0  0  0  0  0  0  0  0  0  0  0  0
  1  2  2  0
  2  3  1  0
  3  4  2  0
  4  5  1  0
  5  6  2  0
  6  7  1  0
  7  8  1  0
  8  9  1  0
  9 10  1  0
 10 11  1  0
 11 12  1  0
 12 13  2  0
 13 14  1  0
 14 15  2  0
 15 16  1  0
 10  2  1  0
 16 12  1  0
  7  3  1  0
  5 17  1  0
  8 18  1  0
  8 19  1  0
  9 20  1  0
  9 21  1  0
 11 22  1  0
 11 23  1  0
 13 24  1  0
 14 25  1  0
 15 26  1  0
M  END
>  <UniqueID>  (33) 
32

>  <SMILES>  (33) 
O=C1c2ncnn2CCN1Cc1ccco1

>  <Energy>  (33) 
86.635140651587

>  <Genealogy>  (33) 
O=C1c2ncnn2CCN1Cc1ccco1 (3D coordinates assigned)
O=C1c2ncnn2CCN1Cc1ccco1 (nonaromatic ring conformer: 86.635140651587 kcal/mol)

>  <smiles>  (33) 
O=C1c2ncnn2CCN1Cc1ccco1

>  <score_type>  (33) 
oracle

>  <origin>  (33) 
adg

>  <m_score__min__energy>  (33) 
-6.1699999999999999

>  <m_primary>  (33) 
energy

$$$$
33:0
     RDKit          3D

 34 35  0  0  0  0  0  0  0  0999 V2000
   -2.0810   24.9370  -28.1550 C   0  0  0  0  0  0  0  0  0  0  0  0
   -2.7730   25.2950  -29.3460 O   0  0  0  0  0  0  0  0  0  0  0  0
   -3.5710   24.4140  -30.0930 C   0  0  0  0  0  0  0  0  0  0  0  0
   -4.8320   24.7850  -30.6020 C   0  0  0  0  0  0  0  0  0  0  0  0
   -5.5880   23.8700  -31.3420 C   0  0  0  0  0  0  0  0  0  0  0  0
   -5.0950   22.5830  -31.5880 C   0  0  0  0  0  0  0  0  0  0  0  0
   -5.9000   21.6260  -32.3610 C   0  0  0  0  0  0  0  0  0  0  0  0
   -5.3840   21.0840  -33.3760 O   0  0  0  0  0  0  0  0  0  0  0  0
   -7.2440   21.2910  -31.9660 N   0  0  0  0  0  0  0  0  0  0  0  0
   -7.9290   21.9290  -30.8530 C   0  0  0  0  0  0  0  0  0  0  0  0
   -9.4020   21.5890  -31.0190 C   0  0  0  0  0  0  0  0  0  0  0  0
   -9.4610   20.4120  -31.9880 C   0  0  0  0  0  0  0  0  0  0  0  0
   -8.1050   20.3770  -32.7090 C   0  0  2  0  0  0  0  0  0  0  0  0
   -7.5170   18.9560  -32.7340 C   0  0  0  0  0  0  0  0  0  0  0  0
   -6.6710   18.8100  -33.8410 O   0  0  0  0  0  0  0  0  0  0  0  0
   -3.8460   22.2090  -31.0750 C   0  0  0  0  0  0  0  0  0  0  0  0
   -3.0900   23.1230  -30.3350 C   0  0  0  0  0  0  0  0  0  0  0  0
   -2.6736   25.2436  -27.2804 H   0  0  0  0  0  0  0  0  0  0  0  0
   -1.9300   23.8477  -28.1320 H   0  0  0  0  0  0  0  0  0  0  0  0
   -1.1046   25.4431  -28.1320 H   0  0  0  0  0  0  0  0  0  0  0  0
   -5.2225   25.7966  -30.4168 H   0  0  0  0  0  0  0  0  0  0  0  0
   -6.5739   24.1628  -31.7322 H   0  0  0  0  0  0  0  0  0  0  0  0
   -7.5516   21.5378  -29.8967 H   0  0  0  0  0  0  0  0  0  0  0  0
   -7.7640   23.0165  -30.8476 H   0  0  0  0  0  0  0  0  0  0  0  0
   -9.8398   21.3074  -30.0500 H   0  0  0  0  0  0  0  0  0  0  0  0
   -9.9716   22.4499  -31.3991 H   0  0  0  0  0  0  0  0  0  0  0  0
   -9.6238   19.4736  -31.4376 H   0  0  0  0  0  0  0  0  0  0  0  0
  -10.2901   20.5239  -32.7021 H   0  0  0  0  0  0  0  0  0  0  0  0
   -8.2032   20.6777  -33.7625 H   0  0  0  0  0  0  0  0  0  0  0  0
   -6.9439   18.7820  -31.8114 H   0  0  0  0  0  0  0  0  0  0  0  0
   -8.3366   18.2259  -32.8055 H   0  0  0  0  0  0  0  0  0  0  0  0
   -6.7350   19.6580  -34.3520 H   0  0  0  0  0  0  0  0  0  0  0  0
   -3.4597   21.1949  -31.2547 H   0  0  0  0  0  0  0  0  0  0  0  0
   -2.1080   22.8242  -29.9395 H   0  0  0  0  0  0  0  0  0  0  0  0
  1  2  1  0
  2  3  1  0
  3  4  2  0
  4  5  1  0
  5  6  2  0
  6  7  1  0
  7  8  2  0
  7  9  1  0
  9 10  1  0
 10 11  1  0
 11 12  1  0
 12 13  1  0
 13 14  1  0
 14 15  1  0
  6 16  1  0
 16 17  2  0
 17  3  1  0
 13  9  1  0
  1 18  1  0
  1 19  1  0
  1 20  1  0
  4 21  1  0
  5 22  1  0
 10 23  1  0
 10 24  1  0
 11 25  1  0
 11 26  1  0
 12 27  1  0
 12 28  1  0
 13 29  1  6
 14 30  1  0
 14 31  1  0
 15 32  1  0
 16 33  1  0
 17 34  1  0
M  END
>  <UniqueID>  (34) 
33

>  <SMILES>  (34) 
COc1ccc(C(=O)N2CCC[C@@H]2CO)cc1

>  <Energy>  (34) 
38.306248321534866

>  <Genealogy>  (34) 
COc1ccc(C(=O)N2CCC[C@@H]2CO)cc1 (chirality)
COc1ccc(C(=O)N2CCC[C@@H]2CO)cc1 (3D coordinates assigned)
COc1ccc(C(=O)N2CCC[C@@H]2CO)cc1 (nonaromatic ring conformer: 38.306248321534866 kcal/mol)

>  <smiles>  (34) 
COc1ccc(C(=O)N2CCCC2CO)cc1

>  <score_type>  (34) 
oracle

>  <origin>  (34) 
adg

>  <m_score__min__energy>  (34) 
-6.8899999999999997

>  <m_primary>  (34) 
energy

$$$$
34:0
     RDKit          3D

 39 42  0  0  0  0  0  0  0  0999 V2000
   -9.2851   20.0990  -32.3394 H   0  0  0  0  0  0  0  0  0  0  0  0
   -8.4800   20.8460  -32.2780 C   0  0  0  0  0  0  0  0  0  0  0  0
   -8.7490   22.1240  -31.7810 C   0  0  0  0  0  0  0  0  0  0  0  0
   -9.7646   22.3803  -31.4452 H   0  0  0  0  0  0  0  0  0  0  0  0
   -7.7280   23.0780  -31.7100 C   0  0  0  0  0  0  0  0  0  0  0  0
   -7.9394   24.0768  -31.3005 H   0  0  0  0  0  0  0  0  0  0  0  0
   -6.4380   22.7670  -32.1580 C   0  0  0  0  0  0  0  0  0  0  0  0
   -5.4030   23.7550  -32.0390 N   0  0  0  0  0  0  0  0  0  0  0  0
   -4.7580   24.0760  -30.9550 C   0  0  0  0  0  0  0  0  0  0  0  0
   -4.2620   25.3160  -30.7450 N   0  0  0  0  0  0  0  0  0  0  0  0
   -3.5150   25.2710  -29.6510 N   0  0  0  0  0  0  0  0  0  0  0  0
   -2.8840   26.0420  -29.3390 H   0  0  0  0  0  0  0  0  0  0  0  0
   -3.5520   24.0210  -29.1610 C   0  0  0  0  0  0  0  0  0  0  0  0
   -4.3220   23.2220  -29.9490 C   0  0  0  0  0  0  0  0  0  0  0  0
   -3.7850   21.8180  -30.0060 C   0  0  0  0  0  0  0  0  0  0  0  0
   -4.5099   21.0881  -29.6165 H   0  0  0  0  0  0  0  0  0  0  0  0
   -3.5587   21.4505  -31.0178 H   0  0  0  0  0  0  0  0  0  0  0  0
   -2.5900   21.9550  -29.1010 C   0  0  0  0  0  0  0  0  0  0  0  0
   -1.6460   20.9820  -28.7800 C   0  0  0  0  0  0  0  0  0  0  0  0
   -1.7527   19.9543  -29.1575 H   0  0  0  0  0  0  0  0  0  0  0  0
   -0.5480   21.3360  -27.9610 C   0  0  0  0  0  0  0  0  0  0  0  0
    0.4340   20.4020  -27.5950 O   0  0  0  0  0  0  0  0  0  0  0  0
    0.3570   19.0050  -27.8620 C   0  0  0  0  0  0  0  0  0  0  0  0
    0.3265   18.4513  -26.9120 H   0  0  0  0  0  0  0  0  0  0  0  0
   -0.5543   18.7919  -28.4401 H   0  0  0  0  0  0  0  0  0  0  0  0
    1.2393   18.6930  -28.4401 H   0  0  0  0  0  0  0  0  0  0  0  0
   -0.4130   22.6660  -27.4930 C   0  0  0  0  0  0  0  0  0  0  0  0
    0.6950   22.9790  -26.6900 O   0  0  0  0  0  0  0  0  0  0  0  0
    0.6180   23.6620  -25.4430 C   0  0  0  0  0  0  0  0  0  0  0  0
    0.6999   22.9353  -24.6213 H   0  0  0  0  0  0  0  0  0  0  0  0
    1.4398   24.3898  -25.3722 H   0  0  0  0  0  0  0  0  0  0  0  0
   -0.3452   24.1885  -25.3722 H   0  0  0  0  0  0  0  0  0  0  0  0
   -1.3810   23.6380  -27.8400 C   0  0  0  0  0  0  0  0  0  0  0  0
   -1.2840   24.6783  -27.4959 H   0  0  0  0  0  0  0  0  0  0  0  0
   -2.4580   23.2450  -28.6270 C   0  0  0  0  0  0  0  0  0  0  0  0
   -6.1650   21.4690  -32.6260 C   0  0  0  0  0  0  0  0  0  0  0  0
   -5.1444   21.2015  -32.9371 H   0  0  0  0  0  0  0  0  0  0  0  0
   -7.1880   20.5170  -32.6970 C   0  0  0  0  0  0  0  0  0  0  0  0
   -6.9752   19.5091  -33.0828 H   0  0  0  0  0  0  0  0  0  0  0  0
  1  2  1  0
  2  3  2  0
  3  4  1  0
  3  5  1  0
  5  6  1  0
  5  7  2  0
  7  8  1  0
  8  9  2  0
  9 10  1  0
 10 11  1  0
 11 12  1  0
 11 13  1  0
 13 14  2  0
 14 15  1  0
 15 16  1  0
 15 17  1  0
 15 18  1  0
 18 19  2  0
 19 20  1  0
 19 21  1  0
 21 22  1  0
 22 23  1  0
 23 24  1  0
 23 25  1  0
 23 26  1  0
 21 27  2  0
 27 28  1  0
 28 29  1  0
 29 30  1  0
 29 31  1  0
 29 32  1  0
 27 33  1  0
 33 34  1  0
 33 35  2  0
  7 36  1  0
 36 37  1  0
 36 38  2  0
 38 39  1  0
 38  2  1  0
 14  9  1  0
 35 18  1  0
 35 13  1  0
M  CHG  1  10  -1
M  END
>  <UniqueID>  (35) 
34

>  <SMILES>  (35) 
COc1cc2c(cc1OC)-c1[nH][n-]/c(=N/c3ccccc3)c1C2

>  <Energy>  (35) 
120.32357631506484

>  <Genealogy>  (35) 
COc1cc2c(cc1OC)-c1[nH][n-]c(=Nc3ccccc3)c1C2 (protonated)
COc1cc2c(cc1OC)-c1[nH][n-]/c(=N/c3ccccc3)c1C2 (cis-trans isomerization)
COc1cc2c(cc1OC)-c1[nH][n-]/c(=N/c3ccccc3)c1C2 (3D coordinates assigned)
COc1cc2c(cc1OC)-c1[nH][n-]/c(=N/c3ccccc3)c1C2 (nonaromatic ring conformer: 120.32357631506484 kcal/mol)

>  <smiles>  (35) 
COc1cc2c(cc1OC)-c1[nH][nH]c(=Nc3ccccc3)c1C2

>  <score_type>  (35) 
oracle

>  <origin>  (35) 
adg

>  <m_score__min__energy>  (35) 
-8.7599999999999998

>  <m_primary>  (35) 
energy

$$$$
35:0
     RDKit          3D

 45 46  0  0  0  0  0  0  0  0999 V2000
   -0.8640   26.0470  -27.8880 C   0  0  0  0  0  0  0  0  0  0  0  0
   -1.4400   25.4580  -29.0330 O   0  0  0  0  0  0  0  0  0  0  0  0
   -2.1570   24.3020  -28.6530 C   0  0  0  0  0  0  0  0  0  0  0  0
   -3.5720   24.4310  -29.1240 C   0  0  0  0  0  0  0  0  0  0  0  0
   -4.4930   23.8740  -28.4670 O   0  0  0  0  0  0  0  0  0  0  0  0
   -3.8800   25.1880  -30.3040 N   0  0  0  0  0  0  0  0  0  0  0  0
   -5.2370   25.2980  -30.8350 C   0  0  0  0  0  0  0  0  0  0  0  0
   -5.7110   23.9620  -31.3410 C   0  0  0  0  0  0  0  0  0  0  0  0
   -4.7910   23.0460  -31.8690 C   0  0  0  0  0  0  0  0  0  0  0  0
   -5.2160   21.7920  -32.3130 C   0  0  0  0  0  0  0  0  0  0  0  0
   -6.5760   21.4250  -32.2290 C   0  0  0  0  0  0  0  0  0  0  0  0
   -7.0700   20.1750  -32.6510 O   0  0  0  0  0  0  0  0  0  0  0  0
   -6.3320   19.0080  -33.0400 C   0  0  0  0  0  0  0  0  0  0  0  0
   -6.0340   18.9880  -34.5470 C   0  0  0  0  0  0  0  0  0  0  0  0
   -5.1680   17.7680  -34.9150 C   0  0  0  0  0  0  0  0  0  0  0  0
   -5.5500   16.5100  -34.2150 N   0  0  0  0  0  0  0  0  0  0  0  0
   -4.4940   16.0420  -33.3010 C   0  0  0  0  0  0  0  0  0  0  0  0
   -6.8710   16.5580  -33.5530 C   0  0  0  0  0  0  0  0  0  0  0  0
   -6.9760   17.7010  -32.5270 C   0  0  0  0  0  0  0  0  0  0  0  0
   -7.4940   22.3510  -31.7060 C   0  0  0  0  0  0  0  0  0  0  0  0
   -9.1990   21.9410  -31.5850 Cl  0  0  0  0  0  0  0  0  0  0  0  0
   -7.0650   23.6070  -31.2610 C   0  0  0  0  0  0  0  0  0  0  0  0
   -1.3029   25.5982  -26.9847 H   0  0  0  0  0  0  0  0  0  0  0  0
    0.2222   25.8731  -27.8932 H   0  0  0  0  0  0  0  0  0  0  0  0
   -1.0621   27.1290  -27.8932 H   0  0  0  0  0  0  0  0  0  0  0  0
   -1.6953   23.4144  -29.1103 H   0  0  0  0  0  0  0  0  0  0  0  0
   -2.1374   24.1949  -27.5584 H   0  0  0  0  0  0  0  0  0  0  0  0
   -3.1070   25.6730  -30.8160 H   0  0  0  0  0  0  0  0  0  0  0  0
   -5.9114   25.6440  -30.0379 H   0  0  0  0  0  0  0  0  0  0  0  0
   -5.2376   26.0163  -31.6681 H   0  0  0  0  0  0  0  0  0  0  0  0
   -3.7268   23.3167  -31.9341 H   0  0  0  0  0  0  0  0  0  0  0  0
   -4.4848   21.0847  -32.7315 H   0  0  0  0  0  0  0  0  0  0  0  0
   -5.3544   19.0685  -32.5393 H   0  0  0  0  0  0  0  0  0  0  0  0
   -6.9824   18.9381  -35.1020 H   0  0  0  0  0  0  0  0  0  0  0  0
   -5.4849   19.9039  -34.8110 H   0  0  0  0  0  0  0  0  0  0  0  0
   -5.2542   17.5989  -35.9985 H   0  0  0  0  0  0  0  0  0  0  0  0
   -4.1413   18.0044  -34.5989 H   0  0  0  0  0  0  0  0  0  0  0  0
   -4.8195   16.1862  -32.2602 H   0  0  0  0  0  0  0  0  0  0  0  0
   -4.3009   14.9740  -33.4801 H   0  0  0  0  0  0  0  0  0  0  0  0
   -3.5730   16.6162  -33.4801 H   0  0  0  0  0  0  0  0  0  0  0  0
   -7.6453   16.7014  -34.3211 H   0  0  0  0  0  0  0  0  0  0  0  0
   -7.0080   15.6101  -33.0120 H   0  0  0  0  0  0  0  0  0  0  0  0
   -8.0387   17.8896  -32.3146 H   0  0  0  0  0  0  0  0  0  0  0  0
   -6.4348   17.3915  -31.6207 H   0  0  0  0  0  0  0  0  0  0  0  0
   -7.7938   24.3190  -30.8465 H   0  0  0  0  0  0  0  0  0  0  0  0
  1  2  1  0
  2  3  1  0
  3  4  1  0
  4  5  2  0
  4  6  1  0
  6  7  1  0
  7  8  1  0
  8  9  2  0
  9 10  1  0
 10 11  2  0
 11 12  1  0
 12 13  1  0
 13 14  1  0
 14 15  1  0
 15 16  1  0
 16 17  1  0
 16 18  1  0
 18 19  1  0
 11 20  1  0
 20 21  1  0
 20 22  2  0
 22  8  1  0
 19 13  1  0
  1 23  1  0
  1 24  1  0
  1 25  1  0
  3 26  1  0
  3 27  1  0
  6 28  1  0
  7 29  1  0
  7 30  1  0
  9 31  1  0
 10 32  1  0
 13 33  1  0
 14 34  1  0
 14 35  1  0
 15 36  1  0
 15 37  1  0
 17 38  1  0
 17 39  1  0
 17 40  1  0
 18 41  1  0
 18 42  1  0
 19 43  1  0
 19 44  1  0
 22 45  1  0
M  END
>  <UniqueID>  (36) 
35

>  <SMILES>  (36) 
COCC(=O)NCc1ccc(OC2CCN(C)CC2)c(Cl)c1

>  <Energy>  (36) 
53.25058263678237

>  <Genealogy>  (36) 
COCC(=O)NCc1ccc(OC2CCN(C)CC2)c(Cl)c1 (3D coordinates assigned)
COCC(=O)NCc1ccc(OC2CCN(C)CC2)c(Cl)c1 (nonaromatic ring conformer: 53.25058263678237 kcal/mol)

>  <smiles>  (36) 
COCC(=O)NCc1ccc(OC2CCN(C)CC2)c(Cl)c1

>  <score_type>  (36) 
oracle

>  <origin>  (36) 
adg

>  <m_score__min__energy>  (36) 
-8.8699999999999992

>  <m_primary>  (36) 
energy

$$$$
36:0
     RDKit          3D

 61 65  0  0  0  0  0  0  0  0999 V2000
   -4.3280   24.0300  -31.7280 H   0  0  0  0  0  0  0  0  0  0  0  0
   -5.1230   23.4610  -31.9060 O   0  0  0  0  0  0  0  0  0  0  0  0
   -4.7030   22.1310  -31.7750 C   0  0  2  0  0  0  0  0  0  0  0  0
   -4.8499   21.8284  -30.7277 H   0  0  0  0  0  0  0  0  0  0  0  0
   -3.3000   22.0220  -32.1580 N   0  0  0  0  0  0  0  0  0  0  0  0
   -2.2350   22.2500  -31.4430 C   0  0  0  0  0  0  0  0  0  0  0  0
   -2.1220   22.9720  -30.2560 C   0  0  0  0  0  0  0  0  0  0  0  0
   -2.9620   24.0470  -29.7100 C   0  0  0  0  0  0  0  0  0  0  0  0
   -3.4790   24.8990  -30.4820 O   0  0  0  0  0  0  0  0  0  0  0  0
   -3.1350   24.1710  -28.2940 N   0  0  0  0  0  0  0  0  0  0  0  0
   -2.3660   25.0730  -27.4900 C   0  0  0  0  0  0  0  0  0  0  0  0
   -1.2480   25.7360  -28.0210 C   0  0  0  0  0  0  0  0  0  0  0  0
   -0.9612   25.5698  -29.0699 H   0  0  0  0  0  0  0  0  0  0  0  0
   -0.4970   26.6060  -27.2250 C   0  0  0  0  0  0  0  0  0  0  0  0
    0.3759   27.1227  -27.6506 H   0  0  0  0  0  0  0  0  0  0  0  0
   -0.8540   26.8230  -25.8810 C   0  0  0  0  0  0  0  0  0  0  0  0
   -0.1320   27.6850  -25.0360 O   0  0  0  0  0  0  0  0  0  0  0  0
    0.4760   27.3140  -23.7960 C   0  0  0  0  0  0  0  0  0  0  0  0
   -0.3070   27.0050  -23.0879 H   0  0  0  0  0  0  0  0  0  0  0  0
    1.0285   28.1788  -23.3999 H   0  0  0  0  0  0  0  0  0  0  0  0
    1.4510   26.1600  -23.9990 C   0  0  0  0  0  0  0  0  0  0  0  0
    1.7747   25.7769  -23.0200 H   0  0  0  0  0  0  0  0  0  0  0  0
    0.9549   25.3555  -24.5618 H   0  0  0  0  0  0  0  0  0  0  0  0
    2.3270   26.5148  -24.5618 H   0  0  0  0  0  0  0  0  0  0  0  0
   -1.9590   26.1450  -25.3510 C   0  0  0  0  0  0  0  0  0  0  0  0
   -2.2387   26.2980  -24.2982 H   0  0  0  0  0  0  0  0  0  0  0  0
   -2.7120   25.2730  -26.1500 C   0  0  0  0  0  0  0  0  0  0  0  0
   -3.5768   24.7451  -25.7218 H   0  0  0  0  0  0  0  0  0  0  0  0
   -0.8330   22.7080  -29.8210 C   0  0  0  0  0  0  0  0  0  0  0  0
   -0.3883   23.0925  -28.8913 H   0  0  0  0  0  0  0  0  0  0  0  0
   -0.2060   21.9100  -30.7070 N   0  0  0  0  0  0  0  0  0  0  0  0
   -1.0540   21.6410  -31.6890 N   0  0  0  0  0  0  0  0  0  0  0  0
   -0.7130   20.8320  -32.8270 C   0  0  0  0  0  0  0  0  0  0  0  0
   -0.5270   19.4480  -32.6800 C   0  0  0  0  0  0  0  0  0  0  0  0
   -0.6675   18.9793  -31.6948 H   0  0  0  0  0  0  0  0  0  0  0  0
   -0.1640   18.6610  -33.7790 C   0  0  0  0  0  0  0  0  0  0  0  0
   -0.0351   17.5750  -33.6603 H   0  0  0  0  0  0  0  0  0  0  0  0
    0.0340   19.2560  -35.0250 C   0  0  0  0  0  0  0  0  0  0  0  0
    0.3295   18.6395  -35.8867 H   0  0  0  0  0  0  0  0  0  0  0  0
   -0.1420   20.6320  -35.1810 C   0  0  0  0  0  0  0  0  0  0  0  0
    0.0109   21.0971  -36.1660 H   0  0  0  0  0  0  0  0  0  0  0  0
   -0.5120   21.4190  -34.0880 C   0  0  0  0  0  0  0  0  0  0  0  0
   -0.6467   22.5033  -34.2148 H   0  0  0  0  0  0  0  0  0  0  0  0
   -5.4980   21.2310  -32.6860 C   0  0  0  0  0  0  0  0  0  0  0  0
   -6.8890   21.1890  -32.7800 C   0  0  0  0  0  0  0  0  0  0  0  0
   -7.8570   22.0720  -32.0550 C   0  0  0  0  0  0  0  0  0  0  0  0
   -7.7231   21.9498  -30.9700 H   0  0  0  0  0  0  0  0  0  0  0  0
   -7.6742   23.1210  -32.3312 H   0  0  0  0  0  0  0  0  0  0  0  0
   -8.8848   21.7939  -32.3312 H   0  0  0  0  0  0  0  0  0  0  0  0
   -7.2600   20.1140  -33.5100 N   0  0  0  0  0  0  0  0  0  0  0  0
   -8.2300   19.7800  -33.7130 H   0  0  0  0  0  0  0  0  0  0  0  0
   -6.1040   19.5040  -33.8270 C   0  0  0  0  0  0  0  0  0  0  0  0
   -5.9810   18.2900  -34.4980 C   0  0  0  0  0  0  0  0  0  0  0  0
   -6.8627   17.7707  -34.9016 H   0  0  0  0  0  0  0  0  0  0  0  0
   -4.6940   17.7530  -34.6410 C   0  0  0  0  0  0  0  0  0  0  0  0
   -4.5539   16.8016  -35.1751 H   0  0  0  0  0  0  0  0  0  0  0  0
   -3.5800   18.4260  -34.1040 C   0  0  0  0  0  0  0  0  0  0  0  0
   -2.5722   17.9980  -34.2097 H   0  0  0  0  0  0  0  0  0  0  0  0
   -3.7610   19.6440  -33.4340 C   0  0  0  0  0  0  0  0  0  0  0  0
   -2.9054   20.1818  -32.9996 H   0  0  0  0  0  0  0  0  0  0  0  0
   -5.0240   20.1440  -33.3350 N   0  0  0  0  0  0  0  0  0  0  0  0
  1  2  1  0
  2  3  1  0
  3  4  1  1
  3  5  1  0
  5  6  2  0
  6  7  1  0
  7  8  1  0
  8  9  2  0
  8 10  1  0
 10 11  1  0
 11 12  2  0
 12 13  1  0
 12 14  1  0
 14 15  1  0
 14 16  2  0
 16 17  1  0
 17 18  1  0
 18 19  1  0
 18 20  1  0
 18 21  1  0
 21 22  1  0
 21 23  1  0
 21 24  1  0
 16 25  1  0
 25 26  1  0
 25 27  2  0
 27 28  1  0
  7 29  2  0
 29 30  1  0
 29 31  1  0
 31 32  1  0
 32 33  1  0
 33 34  2  0
 34 35  1  0
 34 36  1  0
 36 37  1  0
 36 38  2  0
 38 39  1  0
 38 40  1  0
 40 41  1  0
 40 42  2  0
 42 43  1  0
  3 44  1  0
 44 45  2  0
 45 46  1  0
 46 47  1  0
 46 48  1  0
 46 49  1  0
 45 50  1  0
 50 51  1  0
 50 52  2  0
 52 53  1  0
 53 54  1  0
 53 55  2  0
 55 56  1  0
 55 57  1  0
 57 58  1  0
 57 59  2  0
 59 60  1  0
 59 61  1  0
 32  6  1  0
 42 33  1  0
 61 44  1  0
 27 11  1  0
 61 52  1  0
M  CHG  3  10  -1  31  -1  50   1
M  END
>  <UniqueID>  (37) 
36

>  <SMILES>  (37) 
CCOc1ccc([N-]C(=O)c2c[n-]n(-c3ccccc3)/c2=N/[C@@H](O)c2c(C)[nH+]c3ccccn23)cc1

>  <Energy>  (37) 
151.5902091728585

>  <Genealogy>  (37) 
CCOc1ccc([N-]C(=O)c2c[n-]n(-c3ccccc3)c2=NC(O)c2c(C)[nH+]c3ccccn23)cc1 (protonated)
CCOc1ccc([N-]C(=O)c2c[n-]n(-c3ccccc3)c2=N[C@@H](O)c2c(C)[nH+]c3ccccn23)cc1 (chirality)
CCOc1ccc([N-]C(=O)c2c[n-]n(-c3ccccc3)/c2=N/[C@@H](O)c2c(C)[nH+]c3ccccn23)cc1 (cis-trans isomerization)
CCOc1ccc([N-]C(=O)c2c[n-]n(-c3ccccc3)/c2=N/[C@@H](O)c2c(C)[nH+]c3ccccn23)cc1 (3D coordinates assigned)
CCOc1ccc([N-]C(=O)c2c[n-]n(-c3ccccc3)/c2=N/[C@@H](O)c2c(C)[nH+]c3ccccn23)cc1 (optimized conformer: 151.5902091728585 kcal/mol)

>  <smiles>  (37) 
CCOc1ccc(NC(=O)c2c[nH]n(-c3ccccc3)c2=NC(O)c2c(C)nc3ccccn23)cc1

>  <score_type>  (37) 
oracle

>  <origin>  (37) 
adg

>  <m_score__min__energy>  (37) 
-10.76

>  <m_primary>  (37) 
energy

$$$$
37:0
     RDKit          3D

 29 31  0  0  0  0  0  0  0  0999 V2000
   -1.8740   24.9770  -28.1580 C   0  0  0  0  0  0  0  0  0  0  0  0
   -2.5870   25.2980  -29.3480 O   0  0  0  0  0  0  0  0  0  0  0  0
   -3.4720   24.4260  -30.0000 C   0  0  0  0  0  0  0  0  0  0  0  0
   -3.0800   23.0960  -30.1840 C   0  0  0  0  0  0  0  0  0  0  0  0
   -3.9270   22.1880  -30.8260 C   0  0  0  0  0  0  0  0  0  0  0  0
   -5.1920   22.5960  -31.2820 C   0  0  0  0  0  0  0  0  0  0  0  0
   -6.0900   21.6540  -31.9830 C   0  0  0  0  0  0  0  0  0  0  0  0
   -5.5850   20.8360  -32.9530 N   0  0  0  0  0  0  0  0  0  0  0  0
   -6.3750   19.9450  -33.6220 C   0  0  0  0  0  0  0  0  0  0  0  0
   -7.7020   19.8640  -33.3280 N   0  0  0  0  0  0  0  0  0  0  0  0
   -8.2010   20.6680  -32.3910 N   0  0  0  0  0  0  0  0  0  0  0  0
   -9.4790   20.7790  -31.9940 C   0  0  0  0  0  0  0  0  0  0  0  0
   -9.5560   21.7810  -31.0380 C   0  0  0  0  0  0  0  0  0  0  0  0
   -8.2710   22.2850  -30.8600 C   0  0  0  0  0  0  0  0  0  0  0  0
   -7.4610   21.5560  -31.7150 C   0  0  0  0  0  0  0  0  0  0  0  0
   -5.5770   23.9350  -31.1160 C   0  0  0  0  0  0  0  0  0  0  0  0
   -4.7300   24.8430  -30.4740 C   0  0  0  0  0  0  0  0  0  0  0  0
   -2.4807   25.2502  -27.2821 H   0  0  0  0  0  0  0  0  0  0  0  0
   -1.6639   23.8975  -28.1363 H   0  0  0  0  0  0  0  0  0  0  0  0
   -0.9265   25.5354  -28.1363 H   0  0  0  0  0  0  0  0  0  0  0  0
   -2.0971   22.7618  -29.8205 H   0  0  0  0  0  0  0  0  0  0  0  0
   -3.6013   21.1479  -30.9751 H   0  0  0  0  0  0  0  0  0  0  0  0
   -5.9406   19.2950  -34.3958 H   0  0  0  0  0  0  0  0  0  0  0  0
   -8.3170   19.1920  -33.8400 H   0  0  0  0  0  0  0  0  0  0  0  0
  -10.3221   20.1772  -32.3643 H   0  0  0  0  0  0  0  0  0  0  0  0
  -10.4650   22.1156  -30.5167 H   0  0  0  0  0  0  0  0  0  0  0  0
   -7.9627   23.0940  -30.1814 H   0  0  0  0  0  0  0  0  0  0  0  0
   -6.5531   24.2729  -31.4941 H   0  0  0  0  0  0  0  0  0  0  0  0
   -5.0478   25.8874  -30.3387 H   0  0  0  0  0  0  0  0  0  0  0  0
  1  2  1  0
  2  3  1  0
  3  4  2  0
  4  5  1  0
  5  6  2  0
  6  7  1  0
  7  8  2  0
  8  9  1  0
  9 10  2  0
 10 11  1  0
 11 12  1  0
 12 13  2  0
 13 14  1  0
 14 15  2  0
  6 16  1  0
 16 17  2  0
 17  3  1  0
 15  7  1  0
 15 11  1  0
  1 18  1  0
  1 19  1  0
  1 20  1  0
  4 21  1  0
  5 22  1  0
  9 23  1  0
 10 24  1  0
 12 25  1  0
 13 26  1  0
 14 27  1  0
 16 28  1  0
 17 29  1  0
M  CHG  1  10   1
M  END
>  <UniqueID>  (38) 
37

>  <SMILES>  (38) 
COc1ccc(-c2nc[nH+]n3cccc23)cc1

>  <Energy>  (38) 
69.57571390256615

>  <Genealogy>  (38) 
COc1ccc(-c2nc[nH+]n3cccc23)cc1 (protonated)
COc1ccc(-c2nc[nH+]n3cccc23)cc1 (3D coordinates assigned)
COc1ccc(-c2nc[nH+]n3cccc23)cc1 (optimized conformer: 69.57571390256615 kcal/mol)

>  <smiles>  (38) 
COc1ccc(-c2ncnn3cccc23)cc1

>  <score_type>  (38) 
oracle

>  <origin>  (38) 
adg

>  <m_score__min__energy>  (38) 
-7.1100000000000003

>  <m_primary>  (38) 
energy

$$$$
38:0
     RDKit          3D

 48 50  0  0  0  0  0  0  0  0999 V2000
   -4.0280   15.4620  -34.4890 C   0  0  0  0  0  0  0  0  0  0  0  0
   -5.4320   15.7040  -34.5140 O   0  0  0  0  0  0  0  0  0  0  0  0
   -6.0530   16.8290  -33.9500 C   0  0  0  0  0  0  0  0  0  0  0  0
   -6.8560   16.7480  -32.7970 C   0  0  0  0  0  0  0  0  0  0  0  0
   -7.4560   17.8960  -32.2730 C   0  0  0  0  0  0  0  0  0  0  0  0
   -7.2760   19.1420  -32.8960 C   0  0  0  0  0  0  0  0  0  0  0  0
   -7.9210   20.3890  -32.3210 C   0  0  0  0  0  0  0  0  0  0  0  0
   -6.9820   21.3000  -31.6200 N   0  0  0  0  0  0  0  0  0  0  0  0
   -6.3500   22.2790  -32.5310 C   0  0  0  0  0  0  0  0  0  0  0  0
   -5.1440   22.9380  -31.8450 C   0  0  0  0  0  0  0  0  0  0  0  0
   -5.3750   23.0740  -30.4030 N   0  0  0  0  0  0  0  0  0  0  0  0
   -4.2660   23.3100  -29.5210 C   0  0  0  0  0  0  0  0  0  0  0  0
   -3.8600   22.3120  -28.6210 C   0  0  0  0  0  0  0  0  0  0  0  0
   -2.7820   22.5330  -27.7610 C   0  0  0  0  0  0  0  0  0  0  0  0
   -2.1030   23.7520  -27.7910 C   0  0  0  0  0  0  0  0  0  0  0  0
   -2.5030   24.7570  -28.6750 C   0  0  0  0  0  0  0  0  0  0  0  0
   -3.5920   24.5480  -29.5440 C   0  0  0  0  0  0  0  0  0  0  0  0
   -4.0410   25.5450  -30.4250 O   0  0  0  0  0  0  0  0  0  0  0  0
   -5.3760   26.0360  -30.4780 C   0  0  0  0  0  0  0  0  0  0  0  0
   -6.7490   23.1280  -29.8910 C   0  0  0  0  0  0  0  0  0  0  0  0
   -7.6070   21.9710  -30.4540 C   0  0  0  0  0  0  0  0  0  0  0  0
   -6.4580   19.2230  -34.0350 C   0  0  0  0  0  0  0  0  0  0  0  0
   -5.8570   18.0740  -34.5600 C   0  0  0  0  0  0  0  0  0  0  0  0
   -5.0790   18.1740  -35.6660 F   0  0  0  0  0  0  0  0  0  0  0  0
   -3.6847   15.4028  -33.4456 H   0  0  0  0  0  0  0  0  0  0  0  0
   -3.8103   14.5131  -35.0010 H   0  0  0  0  0  0  0  0  0  0  0  0
   -3.5052   16.2833  -35.0010 H   0  0  0  0  0  0  0  0  0  0  0  0
   -7.0120   15.7762  -32.3059 H   0  0  0  0  0  0  0  0  0  0  0  0
   -8.0739   17.8234  -31.3658 H   0  0  0  0  0  0  0  0  0  0  0  0
   -8.3883   20.9460  -33.1465 H   0  0  0  0  0  0  0  0  0  0  0  0
   -8.6464   20.0473  -31.5679 H   0  0  0  0  0  0  0  0  0  0  0  0
   -6.2200   20.6820  -31.2470 H   0  0  0  0  0  0  0  0  0  0  0  0
   -6.0129   21.7630  -33.4421 H   0  0  0  0  0  0  0  0  0  0  0  0
   -7.0848   23.0555  -32.7901 H   0  0  0  0  0  0  0  0  0  0  0  0
   -4.2513   22.3168  -32.0102 H   0  0  0  0  0  0  0  0  0  0  0  0
   -4.9982   23.9400  -32.2747 H   0  0  0  0  0  0  0  0  0  0  0  0
   -4.3939   21.3507  -28.5930 H   0  0  0  0  0  0  0  0  0  0  0  0
   -2.4679   21.7459  -27.0597 H   0  0  0  0  0  0  0  0  0  0  0  0
   -1.2506   23.9218  -27.1168 H   0  0  0  0  0  0  0  0  0  0  0  0
   -1.9650   25.7163  -28.6927 H   0  0  0  0  0  0  0  0  0  0  0  0
   -5.7561   26.1758  -29.4553 H   0  0  0  0  0  0  0  0  0  0  0  0
   -5.3917   26.9988  -31.0098 H   0  0  0  0  0  0  0  0  0  0  0  0
   -6.0118   25.3129  -31.0098 H   0  0  0  0  0  0  0  0  0  0  0  0
   -6.7252   23.0547  -28.7937 H   0  0  0  0  0  0  0  0  0  0  0  0
   -7.1997   24.0797  -30.2090 H   0  0  0  0  0  0  0  0  0  0  0  0
   -7.7555   21.2257  -29.6588 H   0  0  0  0  0  0  0  0  0  0  0  0
   -8.5594   22.4033  -30.7947 H   0  0  0  0  0  0  0  0  0  0  0  0
   -6.2888   20.1969  -34.5176 H   0  0  0  0  0  0  0  0  0  0  0  0
  1  2  1  0
  2  3  1  0
  3  4  2  0
  4  5  1  0
  5  6  2  0
  6  7  1  0
  7  8  1  0
  8  9  1  0
  9 10  1  0
 10 11  1  0
 11 12  1  0
 12 13  2  0
 13 14  1  0
 14 15  2  0
 15 16  1  0
 16 17  2  0
 17 18  1  0
 18 19  1  0
 11 20  1  0
 20 21  1  0
  6 22  1  0
 22 23  2  0
 23 24  1  0
 23  3  1  0
 21  8  1  0
 17 12  1  0
  1 25  1  0
  1 26  1  0
  1 27  1  0
  4 28  1  0
  5 29  1  0
  7 30  1  0
  7 31  1  0
  8 32  1  0
  9 33  1  0
  9 34  1  0
 10 35  1  0
 10 36  1  0
 13 37  1  0
 14 38  1  0
 15 39  1  0
 16 40  1  0
 19 41  1  0
 19 42  1  0
 19 43  1  0
 20 44  1  0
 20 45  1  0
 21 46  1  0
 21 47  1  0
 22 48  1  0
M  CHG  1   8   1
M  END
>  <UniqueID>  (39) 
38

>  <SMILES>  (39) 
COc1ccc(C[NH+]2CCN(c3ccccc3OC)CC2)cc1F

>  <Energy>  (39) 
61.92968030736083

>  <Genealogy>  (39) 
COc1ccc(C[NH+]2CCN(c3ccccc3OC)CC2)cc1F (protonated)
COc1ccc(C[NH+]2CCN(c3ccccc3OC)CC2)cc1F (3D coordinates assigned)
COc1ccc(C[NH+]2CCN(c3ccccc3OC)CC2)cc1F (nonaromatic ring conformer: 61.92968030736083 kcal/mol)

>  <smiles>  (39) 
COc1ccc(CN2CCN(c3ccccc3OC)CC2)cc1F

>  <score_type>  (39) 
oracle

>  <origin>  (39) 
adg

>  <m_score__min__energy>  (39) 
-6.9000000000000004

>  <m_primary>  (39) 
energy

$$$$
39:0
     RDKit          3D

 28 29  0  0  0  0  0  0  0  0999 V2000
   -0.4450   24.0200  -29.0130 C   0  0  0  0  0  0  0  0  0  0  0  0
   -1.4170   25.0920  -28.7460 N   0  0  0  0  0  0  0  0  0  0  0  0
   -0.8630   26.0810  -27.8060 C   0  0  0  0  0  0  0  0  0  0  0  0
   -2.7260   24.5670  -28.3000 C   0  0  0  0  0  0  0  0  0  0  0  0
   -3.7040   24.3670  -29.4260 C   0  0  0  0  0  0  0  0  0  0  0  0
   -4.5390   23.3150  -29.5210 N   0  0  0  0  0  0  0  0  0  0  0  0
   -5.2040   23.6040  -30.6610 C   0  0  0  0  0  0  0  0  0  0  0  0
   -6.2650   22.7490  -31.2340 C   0  0  0  0  0  0  0  0  0  0  0  0
   -5.9350   21.5940  -31.9650 C   0  0  0  0  0  0  0  0  0  0  0  0
   -6.9410   20.7880  -32.5070 C   0  0  0  0  0  0  0  0  0  0  0  0
   -8.2840   21.1270  -32.3240 C   0  0  0  0  0  0  0  0  0  0  0  0
   -8.6240   22.2720  -31.6000 C   0  0  0  0  0  0  0  0  0  0  0  0
   -7.6210   23.0810  -31.0560 C   0  0  0  0  0  0  0  0  0  0  0  0
   -4.7890   24.7610  -31.2160 N   0  0  0  0  0  0  0  0  0  0  0  0
   -3.8630   25.2020  -30.4220 O   0  0  0  0  0  0  0  0  0  0  0  0
   -0.0764   23.6135  -28.0597 H   0  0  0  0  0  0  0  0  0  0  0  0
   -0.9314   23.2193  -29.5895 H   0  0  0  0  0  0  0  0  0  0  0  0
    0.3994   24.4259  -29.5895 H   0  0  0  0  0  0  0  0  0  0  0  0
   -1.0486   25.7497  -26.7736 H   0  0  0  0  0  0  0  0  0  0  0  0
    0.2203   26.1771  -27.9711 H   0  0  0  0  0  0  0  0  0  0  0  0
   -1.3469   27.0550  -27.9711 H   0  0  0  0  0  0  0  0  0  0  0  0
   -2.5628   23.5990  -27.8037 H   0  0  0  0  0  0  0  0  0  0  0  0
   -3.1614   25.3142  -27.6202 H   0  0  0  0  0  0  0  0  0  0  0  0
   -4.8790   21.3228  -32.1114 H   0  0  0  0  0  0  0  0  0  0  0  0
   -6.6748   19.8863  -33.0779 H   0  0  0  0  0  0  0  0  0  0  0  0
   -9.0742   20.4916  -32.7505 H   0  0  0  0  0  0  0  0  0  0  0  0
   -9.6818   22.5379  -31.4575 H   0  0  0  0  0  0  0  0  0  0  0  0
   -7.8935   23.9815  -30.4860 H   0  0  0  0  0  0  0  0  0  0  0  0
  1  2  1  0
  2  3  1  0
  2  4  1  0
  4  5  1  0
  5  6  2  0
  6  7  1  0
  7  8  1  0
  8  9  2  0
  9 10  1  0
 10 11  2  0
 11 12  1  0
 12 13  2  0
  7 14  2  0
 14 15  1  0
 15  5  1  0
 13  8  1  0
  1 16  1  0
  1 17  1  0
  1 18  1  0
  3 19  1  0
  3 20  1  0
  3 21  1  0
  4 22  1  0
  4 23  1  0
  9 24  1  0
 10 25  1  0
 11 26  1  0
 12 27  1  0
 13 28  1  0
M  END
>  <UniqueID>  (40) 
39

>  <SMILES>  (40) 
CN(C)Cc1nc(-c2ccccc2)no1

>  <Energy>  (40) 
62.50095759178069

>  <Genealogy>  (40) 
CN(C)Cc1nc(-c2ccccc2)no1 (3D coordinates assigned)
CN(C)Cc1nc(-c2ccccc2)no1 (optimized conformer: 62.50095759178069 kcal/mol)

>  <smiles>  (40) 
CN(C)Cc1nc(-c2ccccc2)no1

>  <score_type>  (40) 
oracle

>  <origin>  (40) 
adg

>  <m_score__min__energy>  (40) 
-6.9199999999999999

>  <m_primary>  (40) 
energy

$$$$
40:0
     RDKit          3D

 54 57  0  0  0  0  0  0  0  0999 V2000
   -4.4750   12.3410  -34.4890 C   0  0  0  0  0  0  0  0  0  0  0  0
   -5.6400   13.1580  -34.5600 O   0  0  0  0  0  0  0  0  0  0  0  0
   -5.6700   14.5260  -34.2500 C   0  0  0  0  0  0  0  0  0  0  0  0
   -6.8570   15.2740  -34.2470 C   0  0  0  0  0  0  0  0  0  0  0  0
   -6.8400   16.6250  -33.8920 C   0  0  0  0  0  0  0  0  0  0  0  0
   -5.6390   17.2680  -33.5040 C   0  0  0  0  0  0  0  0  0  0  0  0
   -5.6320   18.6610  -33.0460 N   0  0  0  0  0  0  0  0  0  0  0  0
   -6.7410   19.1430  -32.1890 C   0  0  0  0  0  0  0  0  0  0  0  0
   -6.5530   20.5590  -31.6270 C   0  0  0  0  0  0  0  0  0  0  0  0
   -5.9080   21.4430  -32.6060 N   0  0  0  0  0  0  0  0  0  0  0  0
   -5.9260   22.8250  -32.1540 C   0  0  0  0  0  0  0  0  0  0  0  0
   -6.6560   23.6520  -32.7670 O   0  0  0  0  0  0  0  0  0  0  0  0
   -5.0970   23.3390  -31.0310 C   0  0  0  0  0  0  0  0  0  0  0  0
   -3.7120   23.1160  -30.9670 C   0  0  0  0  0  0  0  0  0  0  0  0
   -2.9620   23.6190  -29.8990 C   0  0  0  0  0  0  0  0  0  0  0  0
   -3.5810   24.3390  -28.8650 C   0  0  0  0  0  0  0  0  0  0  0  0
   -2.8060   24.8940  -27.7830 N   0  0  0  0  0  0  0  0  0  0  0  0
   -3.2150   24.8810  -26.3870 C   0  0  0  0  0  0  0  0  0  0  0  0
   -2.2600   25.8400  -25.6520 C   0  0  0  0  0  0  0  0  0  0  0  0
   -1.1170   26.1720  -26.6210 C   0  0  0  0  0  0  0  0  0  0  0  0
   -1.5690   25.5810  -27.8940 C   0  0  0  0  0  0  0  0  0  0  0  0
   -0.8880   25.6180  -28.9560 O   0  0  0  0  0  0  0  0  0  0  0  0
   -4.9690   24.5490  -28.9250 C   0  0  0  0  0  0  0  0  0  0  0  0
   -5.7210   24.0410  -29.9880 C   0  0  0  0  0  0  0  0  0  0  0  0
   -4.5540   20.9480  -32.8850 C   0  0  0  0  0  0  0  0  0  0  0  0
   -4.6000   19.5810  -33.5750 C   0  0  0  0  0  0  0  0  0  0  0  0
   -4.4470   16.5070  -33.5650 C   0  0  0  0  0  0  0  0  0  0  0  0
   -4.4690   15.1590  -33.9260 C   0  0  0  0  0  0  0  0  0  0  0  0
   -4.2175   12.1604  -33.4349 H   0  0  0  0  0  0  0  0  0  0  0  0
   -4.6697   11.3805  -34.9886 H   0  0  0  0  0  0  0  0  0  0  0  0
   -3.6383   12.8512  -34.9886 H   0  0  0  0  0  0  0  0  0  0  0  0
   -7.8066   14.7938  -34.5258 H   0  0  0  0  0  0  0  0  0  0  0  0
   -7.7772   17.2005  -33.9142 H   0  0  0  0  0  0  0  0  0  0  0  0
   -7.6645   19.1320  -32.7865 H   0  0  0  0  0  0  0  0  0  0  0  0
   -6.7768   18.4681  -31.3211 H   0  0  0  0  0  0  0  0  0  0  0  0
   -7.5376   20.9735  -31.3647 H   0  0  0  0  0  0  0  0  0  0  0  0
   -5.9067   20.4959  -30.7391 H   0  0  0  0  0  0  0  0  0  0  0  0
   -6.4610   21.4060  -33.4980 H   0  0  0  0  0  0  0  0  0  0  0  0
   -3.2137   22.5419  -31.7621 H   0  0  0  0  0  0  0  0  0  0  0  0
   -1.8757   23.4486  -29.8689 H   0  0  0  0  0  0  0  0  0  0  0  0
   -4.2540   25.2290  -26.2906 H   0  0  0  0  0  0  0  0  0  0  0  0
   -3.1686   23.8664  -25.9646 H   0  0  0  0  0  0  0  0  0  0  0  0
   -2.7933   26.7595  -25.3688 H   0  0  0  0  0  0  0  0  0  0  0  0
   -1.8713   25.3764  -24.7333 H   0  0  0  0  0  0  0  0  0  0  0  0
   -0.9849   27.2598  -26.7165 H   0  0  0  0  0  0  0  0  0  0  0  0
   -0.1435   25.7833  -26.2876 H   0  0  0  0  0  0  0  0  0  0  0  0
   -5.4686   25.1187  -28.1276 H   0  0  0  0  0  0  0  0  0  0  0  0
   -6.8103   24.1925  -30.0073 H   0  0  0  0  0  0  0  0  0  0  0  0
   -4.0371   21.6644  -33.5404 H   0  0  0  0  0  0  0  0  0  0  0  0
   -4.0168   20.8409  -31.9311 H   0  0  0  0  0  0  0  0  0  0  0  0
   -4.7994   19.7425  -34.6446 H   0  0  0  0  0  0  0  0  0  0  0  0
   -3.6277   19.1024  -33.3863 H   0  0  0  0  0  0  0  0  0  0  0  0
   -3.4868   16.9863  -33.3237 H   0  0  0  0  0  0  0  0  0  0  0  0
   -3.5288   14.5888  -33.9555 H   0  0  0  0  0  0  0  0  0  0  0  0
  1  2  1  0
  2  3  1  0
  3  4  2  0
  4  5  1  0
  5  6  2  0
  6  7  1  0
  7  8  1  0
  8  9  1  0
  9 10  1  0
 10 11  1  0
 11 12  2  0
 11 13  1  0
 13 14  2  0
 14 15  1  0
 15 16  2  0
 16 17  1  0
 17 18  1  0
 18 19  1  0
 19 20  1  0
 20 21  1  0
 21 22  2  0
 16 23  1  0
 23 24  2  0
 10 25  1  0
 25 26  1  0
  6 27  1  0
 27 28  2  0
 28  3  1  0
 26  7  1  0
 24 13  1  0
 21 17  1  0
  1 29  1  0
  1 30  1  0
  1 31  1  0
  4 32  1  0
  5 33  1  0
  8 34  1  0
  8 35  1  0
  9 36  1  0
  9 37  1  0
 10 38  1  0
 14 39  1  0
 15 40  1  0
 18 41  1  0
 18 42  1  0
 19 43  1  0
 19 44  1  0
 20 45  1  0
 20 46  1  0
 23 47  1  0
 24 48  1  0
 25 49  1  0
 25 50  1  0
 26 51  1  0
 26 52  1  0
 27 53  1  0
 28 54  1  0
M  CHG  1  10   1
M  END
>  <UniqueID>  (41) 
40

>  <SMILES>  (41) 
COc1ccc(N2CC[NH+](C(=O)c3ccc(N4CCCC4=O)cc3)CC2)cc1

>  <Energy>  (41) 
85.20037585303473

>  <Genealogy>  (41) 
COc1ccc(N2CC[NH+](C(=O)c3ccc(N4CCCC4=O)cc3)CC2)cc1 (protonated)
COc1ccc(N2CC[NH+](C(=O)c3ccc(N4CCCC4=O)cc3)CC2)cc1 (3D coordinates assigned)
COc1ccc(N2CC[NH+](C(=O)c3ccc(N4CCCC4=O)cc3)CC2)cc1 (nonaromatic ring conformer: 85.20037585303473 kcal/mol)

>  <smiles>  (41) 
COc1ccc(N2CCN(C(=O)c3ccc(N4CCCC4=O)cc3)CC2)cc1

>  <score_type>  (41) 
oracle

>  <origin>  (41) 
adg

>  <m_score__min__energy>  (41) 
-7.5599999999999996

>  <m_primary>  (41) 
energy

$$$$
41:0
     RDKit          3D

 35 37  0  0  0  0  0  0  0  0999 V2000
   -5.5730   26.4460  -30.5620 O   0  0  0  0  0  0  0  0  0  0  0  0
   -4.9840   25.3350  -30.6530 C   0  0  0  0  0  0  0  0  0  0  0  0
   -3.5680   25.2500  -30.4370 N   0  0  0  0  0  0  0  0  0  0  0  0
   -2.8970   24.5610  -29.3690 C   0  0  0  0  0  0  0  0  0  0  0  0
   -3.4040   23.3680  -28.8200 C   0  0  0  0  0  0  0  0  0  0  0  0
   -2.7340   22.7400  -27.7650 C   0  0  0  0  0  0  0  0  0  0  0  0
   -1.5670   23.3010  -27.2430 C   0  0  0  0  0  0  0  0  0  0  0  0
   -1.0720   24.4970  -27.7660 C   0  0  0  0  0  0  0  0  0  0  0  0
   -1.7360   25.1300  -28.8210 C   0  0  0  0  0  0  0  0  0  0  0  0
   -1.2370   26.3250  -29.3280 O   0  0  0  0  0  0  0  0  0  0  0  0
   -5.7640   24.1030  -30.9190 C   0  0  0  0  0  0  0  0  0  0  0  0
   -7.0000   23.8890  -30.2840 C   0  0  0  0  0  0  0  0  0  0  0  0
   -7.7280   22.7210  -30.5310 C   0  0  0  0  0  0  0  0  0  0  0  0
   -7.2270   21.7520  -31.4020 C   0  0  0  0  0  0  0  0  0  0  0  0
   -5.9890   21.9360  -32.0280 C   0  0  0  0  0  0  0  0  0  0  0  0
   -5.5120   20.9310  -32.9330 N   0  0  0  0  0  0  0  0  0  0  0  0
   -6.2800   19.8580  -33.4930 C   0  0  0  0  0  0  0  0  0  0  0  0
   -5.9770   19.4280  -34.6380 O   0  0  0  0  0  0  0  0  0  0  0  0
   -7.4510   19.2930  -32.7960 C   0  0  0  0  0  0  0  0  0  0  0  0
   -7.4120   18.4540  -31.7000 C   0  0  0  0  0  0  0  0  0  0  0  0
   -8.7280   18.1830  -31.3910 C   0  0  0  0  0  0  0  0  0  0  0  0
   -9.4870   18.8670  -32.3190 C   0  0  0  0  0  0  0  0  0  0  0  0
   -8.6980   19.5150  -33.1440 O   0  0  0  0  0  0  0  0  0  0  0  0
   -5.2750   23.1290  -31.8080 C   0  0  0  0  0  0  0  0  0  0  0  0
   -4.3291   22.9287  -29.2216 H   0  0  0  0  0  0  0  0  0  0  0  0
   -3.1274   21.8022  -27.3457 H   0  0  0  0  0  0  0  0  0  0  0  0
   -1.0372   22.8004  -26.4192 H   0  0  0  0  0  0  0  0  0  0  0  0
   -0.1575   24.9423  -27.3471 H   0  0  0  0  0  0  0  0  0  0  0  0
   -7.3963   24.6442  -29.5894 H   0  0  0  0  0  0  0  0  0  0  0  0
   -8.6986   22.5652  -30.0374 H   0  0  0  0  0  0  0  0  0  0  0  0
   -7.8084   20.8389  -31.5973 H   0  0  0  0  0  0  0  0  0  0  0  0
   -6.5171   18.0797  -31.1813 H   0  0  0  0  0  0  0  0  0  0  0  0
   -9.0981   17.5500  -30.5711 H   0  0  0  0  0  0  0  0  0  0  0  0
  -10.5862   18.8688  -32.3609 H   0  0  0  0  0  0  0  0  0  0  0  0
   -4.3257   23.3011  -32.3363 H   0  0  0  0  0  0  0  0  0  0  0  0
  1  2  2  0
  2  3  1  0
  3  4  1  0
  4  5  2  0
  5  6  1  0
  6  7  2  0
  7  8  1  0
  8  9  2  0
  9 10  1  0
  2 11  1  0
 11 12  2  0
 12 13  1  0
 13 14  2  0
 14 15  1  0
 15 16  1  0
 16 17  1  0
 17 18  2  0
 17 19  1  0
 19 20  2  0
 20 21  1  0
 21 22  2  0
 22 23  1  0
 15 24  2  0
  9  4  1  0
 24 11  1  0
 23 19  1  0
  5 25  1  0
  6 26  1  0
  7 27  1  0
  8 28  1  0
 12 29  1  0
 13 30  1  0
 14 31  1  0
 20 32  1  0
 21 33  1  0
 22 34  1  0
 24 35  1  0
M  CHG  3   3  -1  10  -1  16  -1
M  END
>  <UniqueID>  (42) 
41

>  <SMILES>  (42) 
O=C([N-]c1ccccc1[O-])c1cccc([N-]C(=O)c2ccco2)c1

>  <Energy>  (42) 
72.20098484457377

>  <Genealogy>  (42) 
O=C([N-]c1ccccc1[O-])c1cccc([N-]C(=O)c2ccco2)c1 (protonated)
O=C([N-]c1ccccc1[O-])c1cccc([N-]C(=O)c2ccco2)c1 (3D coordinates assigned)
O=C([N-]c1ccccc1[O-])c1cccc([N-]C(=O)c2ccco2)c1 (optimized conformer: 72.20098484457377 kcal/mol)

>  <smiles>  (42) 
O=C(Nc1ccccc1O)c1cccc(NC(=O)c2ccco2)c1

>  <score_type>  (42) 
oracle

>  <origin>  (42) 
adg

>  <m_score__min__energy>  (42) 
-13.470000000000001

>  <m_primary>  (42) 
energy

$$$$
42:0
     RDKit          3D

 37 39  0  0  0  0  0  0  0  0999 V2000
   -2.4410   24.5510  -28.3070 C   0  0  0  0  0  0  0  0  0  0  0  0
   -3.0190   25.1580  -29.4580 O   0  0  0  0  0  0  0  0  0  0  0  0
   -4.1320   24.6520  -30.1450 C   0  0  0  0  0  0  0  0  0  0  0  0
   -4.0810   23.4570  -30.8890 C   0  0  0  0  0  0  0  0  0  0  0  0
   -5.2170   22.9960  -31.5600 C   0  0  0  0  0  0  0  0  0  0  0  0
   -6.4200   23.7150  -31.4950 C   0  0  0  0  0  0  0  0  0  0  0  0
   -7.6300   23.2440  -32.2660 C   0  0  0  0  0  0  0  0  0  0  0  0
   -8.4610   22.3240  -31.4720 N   0  0  0  0  0  0  0  0  0  0  0  0
   -8.1540   20.9450  -31.7740 C   0  0  0  0  0  0  0  0  0  0  0  0
   -8.9610   19.9030  -31.2530 C   0  0  0  0  0  0  0  0  0  0  0  0
   -8.7010   18.5620  -31.5800 C   0  0  0  0  0  0  0  0  0  0  0  0
   -7.6370   18.2730  -32.4330 C   0  0  0  0  0  0  0  0  0  0  0  0
   -7.2880   17.0210  -32.8270 N   0  0  0  0  0  0  0  0  0  0  0  0
   -6.2250   17.0570  -33.6690 C   0  0  0  0  0  0  0  0  0  0  0  0
   -5.5780   15.8330  -34.2180 C   0  0  0  0  0  0  0  0  0  0  0  0
   -5.6650   18.6340  -33.9300 S   0  0  0  0  0  0  0  0  0  0  0  0
   -6.8510   19.2920  -32.9420 C   0  0  0  0  0  0  0  0  0  0  0  0
   -7.0790   20.6290  -32.6340 C   0  0  0  0  0  0  0  0  0  0  0  0
   -6.4690   24.9080  -30.7570 C   0  0  0  0  0  0  0  0  0  0  0  0
   -5.3320   25.3690  -30.0870 C   0  0  0  0  0  0  0  0  0  0  0  0
   -2.8703   25.0018  -27.4001 H   0  0  0  0  0  0  0  0  0  0  0  0
   -2.6535   23.4718  -28.3158 H   0  0  0  0  0  0  0  0  0  0  0  0
   -1.3527   24.7105  -28.3158 H   0  0  0  0  0  0  0  0  0  0  0  0
   -3.1433   22.8844  -30.9421 H   0  0  0  0  0  0  0  0  0  0  0  0
   -5.1676   22.0641  -32.1424 H   0  0  0  0  0  0  0  0  0  0  0  0
   -8.2356   24.1183  -32.5467 H   0  0  0  0  0  0  0  0  0  0  0  0
   -7.2781   22.7037  -33.1572 H   0  0  0  0  0  0  0  0  0  0  0  0
   -9.4680   22.5050  -31.6940 H   0  0  0  0  0  0  0  0  0  0  0  0
   -8.3300   22.5150  -30.4500 H   0  0  0  0  0  0  0  0  0  0  0  0
   -9.8003   20.1471  -30.5851 H   0  0  0  0  0  0  0  0  0  0  0  0
   -9.3256   17.7545  -31.1704 H   0  0  0  0  0  0  0  0  0  0  0  0
   -5.2401   15.1937  -33.3891 H   0  0  0  0  0  0  0  0  0  0  0  0
   -6.3021   15.2809  -34.8352 H   0  0  0  0  0  0  0  0  0  0  0  0
   -4.7140   16.1204  -34.8352 H   0  0  0  0  0  0  0  0  0  0  0  0
   -6.4382   21.4205  -33.0497 H   0  0  0  0  0  0  0  0  0  0  0  0
   -7.4057   25.4824  -30.7057 H   0  0  0  0  0  0  0  0  0  0  0  0
   -5.3812   26.3037  -29.5091 H   0  0  0  0  0  0  0  0  0  0  0  0
  1  2  1  0
  2  3  1  0
  3  4  2  0
  4  5  1  0
  5  6  2  0
  6  7  1  0
  7  8  1  0
  8  9  1  0
  9 10  2  0
 10 11  1  0
 11 12  2  0
 12 13  1  0
 13 14  2  0
 14 15  1  0
 14 16  1  0
 16 17  1  0
 17 18  2  0
  6 19  1  0
 19 20  2  0
 20  3  1  0
 18  9  1  0
 17 12  1  0
  1 21  1  0
  1 22  1  0
  1 23  1  0
  4 24  1  0
  5 25  1  0
  7 26  1  0
  7 27  1  0
  8 28  1  0
  8 29  1  0
 10 30  1  0
 11 31  1  0
 15 32  1  0
 15 33  1  0
 15 34  1  0
 18 35  1  0
 19 36  1  0
 20 37  1  0
M  CHG  1   8   1
M  END
>  <UniqueID>  (43) 
42

>  <SMILES>  (43) 
COc1ccc(C[NH2+]c2ccc3nc(C)sc3c2)cc1

>  <Energy>  (43) 
70.77514421926809

>  <Genealogy>  (43) 
COc1ccc(C[NH2+]c2ccc3nc(C)sc3c2)cc1 (protonated)
COc1ccc(C[NH2+]c2ccc3nc(C)sc3c2)cc1 (3D coordinates assigned)
COc1ccc(C[NH2+]c2ccc3nc(C)sc3c2)cc1 (optimized conformer: 70.77514421926809 kcal/mol)

>  <smiles>  (43) 
COc1ccc(CNc2ccc3nc(C)sc3c2)cc1

>  <score_type>  (43) 
oracle

>  <origin>  (43) 
adg

>  <m_score__min__energy>  (43) 
-7.6799999999999997

>  <m_primary>  (43) 
energy

$$$$
43:0
     RDKit          3D

 51 55  0  0  0  0  0  0  0  0999 V2000
   -2.2819   17.4294  -35.0890 H   0  0  0  0  0  0  0  0  0  0  0  0
   -2.1840   18.3520  -34.4980 C   0  0  0  0  0  0  0  0  0  0  0  0
   -0.9460   18.8170  -34.2800 C   0  0  0  0  0  0  0  0  0  0  0  0
   -0.3726   19.1699  -35.1499 H   0  0  0  0  0  0  0  0  0  0  0  0
   -0.2830   18.8910  -32.9280 C   0  0  1  0  0  0  0  0  0  0  0  0
   -0.2411   17.8010  -32.7861 H   0  0  0  0  0  0  0  0  0  0  0  0
    0.7280   20.0170  -32.6520 C   0  0  1  0  0  0  0  0  0  0  0  0
    1.7349   20.0563  -32.2110 H   0  0  0  0  0  0  0  0  0  0  0  0
    1.0870   20.9310  -33.7930 C   0  0  0  0  0  0  0  0  0  0  0  0
    0.3020   21.9160  -34.2830 N   0  0  0  0  0  0  0  0  0  0  0  0
    0.8500   22.5700  -35.3070 N   0  0  0  0  0  0  0  0  0  0  0  0
    2.0780   22.1160  -35.6440 C   0  0  0  0  0  0  0  0  0  0  0  0
    2.6927   22.5218  -36.4610 H   0  0  0  0  0  0  0  0  0  0  0  0
    2.5370   20.8440  -34.6410 S   0  0  0  0  0  0  0  0  0  0  0  0
   -0.7040   20.1270  -32.1260 C   0  0  2  0  0  0  0  0  0  0  0  0
   -1.5114   20.8689  -32.2135 H   0  0  0  0  0  0  0  0  0  0  0  0
   -0.8930   19.9450  -30.6300 C   0  0  0  0  0  0  0  0  0  0  0  0
   -0.0720   19.1290  -29.8220 C   0  0  0  0  0  0  0  0  0  0  0  0
    0.7653   18.5774  -30.2744 H   0  0  0  0  0  0  0  0  0  0  0  0
   -0.3100   19.0210  -28.4890 N   0  0  0  0  0  0  0  0  0  0  0  0
   -1.3330   19.6840  -27.8810 C   0  0  0  0  0  0  0  0  0  0  0  0
   -1.5540   19.5560  -26.5070 O   0  0  0  0  0  0  0  0  0  0  0  0
   -2.7040   18.9160  -25.9690 C   0  0  0  0  0  0  0  0  0  0  0  0
   -2.6577   18.9418  -24.8703 H   0  0  0  0  0  0  0  0  0  0  0  0
   -3.6088   19.4403  -26.3102 H   0  0  0  0  0  0  0  0  0  0  0  0
   -2.7353   17.8707  -26.3102 H   0  0  0  0  0  0  0  0  0  0  0  0
   -2.1700   20.5030  -28.6380 C   0  0  0  0  0  0  0  0  0  0  0  0
   -2.9983   21.0442  -28.1573 H   0  0  0  0  0  0  0  0  0  0  0  0
   -1.9490   20.6310  -30.0100 C   0  0  0  0  0  0  0  0  0  0  0  0
   -2.6081   21.2750  -30.6107 H   0  0  0  0  0  0  0  0  0  0  0  0
   -3.4280   18.9810  -34.0070 C   0  0  0  0  0  0  0  0  0  0  0  0
   -3.4460   20.2750  -33.4610 C   0  0  0  0  0  0  0  0  0  0  0  0
   -2.5137   20.8557  -33.4012 H   0  0  0  0  0  0  0  0  0  0  0  0
   -4.6410   20.8300  -32.9930 C   0  0  0  0  0  0  0  0  0  0  0  0
   -4.6392   21.8383  -32.5534 H   0  0  0  0  0  0  0  0  0  0  0  0
   -5.8450   20.1090  -33.0800 C   0  0  0  0  0  0  0  0  0  0  0  0
   -7.1110   20.6880  -32.5670 C   0  0  0  0  0  0  0  0  0  0  0  0
   -7.1430   22.0050  -32.0670 C   0  0  0  0  0  0  0  0  0  0  0  0
   -6.2229   22.6077  -32.0553 H   0  0  0  0  0  0  0  0  0  0  0  0
   -8.3360   22.5500  -31.5860 C   0  0  0  0  0  0  0  0  0  0  0  0
   -8.3515   23.5790  -31.1975 H   0  0  0  0  0  0  0  0  0  0  0  0
   -9.5090   21.7920  -31.5970 C   0  0  0  0  0  0  0  0  0  0  0  0
  -10.4468   22.2240  -31.2176 H   0  0  0  0  0  0  0  0  0  0  0  0
   -9.4910   20.4850  -32.0900 C   0  0  0  0  0  0  0  0  0  0  0  0
  -10.4150   19.8882  -32.0976 H   0  0  0  0  0  0  0  0  0  0  0  0
   -8.3000   19.9340  -32.5740 C   0  0  0  0  0  0  0  0  0  0  0  0
   -8.2922   18.9050  -32.9626 H   0  0  0  0  0  0  0  0  0  0  0  0
   -5.8300   18.8300  -33.6660 C   0  0  0  0  0  0  0  0  0  0  0  0
   -6.7661   18.2592  -33.7554 H   0  0  0  0  0  0  0  0  0  0  0  0
   -4.6350   18.2800  -34.1350 C   0  0  0  0  0  0  0  0  0  0  0  0
   -4.6411   17.2875  -34.6092 H   0  0  0  0  0  0  0  0  0  0  0  0
  1  2  1  0
  2  3  2  0
  3  4  1  0
  3  5  1  0
  5  6  1  1
  5  7  1  0
  7  8  1  1
  7  9  1  0
  9 10  2  0
 10 11  1  0
 11 12  2  0
 12 13  1  0
 12 14  1  0
  7 15  1  0
 15 16  1  6
 15 17  1  0
 17 18  2  0
 18 19  1  0
 18 20  1  0
 20 21  2  0
 21 22  1  0
 22 23  1  0
 23 24  1  0
 23 25  1  0
 23 26  1  0
 21 27  1  0
 27 28  1  0
 27 29  2  0
 29 30  1  0
  2 31  1  0
 31 32  2  0
 32 33  1  0
 32 34  1  0
 34 35  1  0
 34 36  2  0
 36 37  1  0
 37 38  2  0
 38 39  1  0
 38 40  1  0
 40 41  1  0
 40 42  2  0
 42 43  1  0
 42 44  1  0
 44 45  1  0
 44 46  2  0
 46 47  1  0
 36 48  1  0
 48 49  1  0
 48 50  2  0
 50 51  1  0
 15  5  1  0
 29 17  1  0
 50 31  1  0
 14  9  1  0
 46 37  1  0
M  END
>  <UniqueID>  (44) 
43

>  <SMILES>  (44) 
COc1ccc([C@H]2C(c3nncs3)[C@@H]2/C=C\c2ccc(-c3ccccc3)cc2)cn1

>  <Energy>  (44) 
369.39918207852884

>  <Genealogy>  (44) 
COc1ccc([C@H]2C(c3nncs3)[C@@H]2C=Cc2ccc(-c3ccccc3)cc2)cn1 (chirality)
COc1ccc([C@H]2C(c3nncs3)[C@@H]2/C=C\c2ccc(-c3ccccc3)cc2)cn1 (cis-trans isomerization)
COc1ccc([C@H]2C(c3nncs3)[C@@H]2/C=C\c2ccc(-c3ccccc3)cc2)cn1 (3D coordinates assigned)
COc1ccc([C@H]2C(c3nncs3)[C@@H]2/C=C\c2ccc(-c3ccccc3)cc2)cn1 (nonaromatic ring conformer: 369.39918207852884 kcal/mol)

>  <smiles>  (44) 
COc1ccc(C2C(C=Cc3ccc(-c4ccccc4)cc3)C2c2nncs2)cn1

>  <score_type>  (44) 
oracle

>  <origin>  (44) 
adg

>  <m_score__min__energy>  (44) 
-9.8000000000000007

>  <m_primary>  (44) 
energy

$$$$
44:0
     RDKit          3D

 41 44  0  0  0  0  0  0  0  0999 V2000
   -3.3030   18.0810  -34.1870 C   0  0  0  0  0  0  0  0  0  0  0  0
   -4.0730   19.1710  -33.6010 N   0  0  0  0  0  0  0  0  0  0  0  0
   -3.6230   20.4190  -33.3690 C   0  0  0  0  0  0  0  0  0  0  0  0
   -4.6790   21.1830  -32.9040 C   0  0  0  0  0  0  0  0  0  0  0  0
   -4.6470   22.6700  -32.6840 C   0  0  0  0  0  0  0  0  0  0  0  0
   -4.6640   22.9820  -31.2420 N   0  0  0  0  0  0  0  0  0  0  0  0
   -5.3580   24.2700  -30.9870 C   0  0  0  0  0  0  0  0  0  0  0  0
   -5.5710   24.4770  -29.4780 C   0  0  0  0  0  0  0  0  0  0  0  0
   -4.3070   24.1780  -28.7420 C   0  0  0  0  0  0  0  0  0  0  0  0
   -3.9610   24.5270  -27.1360 S   0  0  0  0  0  0  0  0  0  0  0  0
   -2.4490   23.7780  -27.1240 C   0  0  0  0  0  0  0  0  0  0  0  0
   -2.2100   23.2340  -28.3830 C   0  0  0  0  0  0  0  0  0  0  0  0
   -3.2670   23.4420  -29.2780 C   0  0  0  0  0  0  0  0  0  0  0  0
   -3.2770   23.0200  -30.7180 C   0  0  0  0  0  0  0  0  0  0  0  0
   -5.7740   20.3210  -32.8990 C   0  0  0  0  0  0  0  0  0  0  0  0
   -7.1710   20.6320  -32.5370 C   0  0  0  0  0  0  0  0  0  0  0  0
   -8.1700   19.6610  -32.7040 C   0  0  0  0  0  0  0  0  0  0  0  0
   -9.4860   19.9550  -32.3380 C   0  0  0  0  0  0  0  0  0  0  0  0
   -9.7920   21.1700  -31.8120 N   0  0  0  0  0  0  0  0  0  0  0  0
   -8.8420   22.1240  -31.6220 C   0  0  0  0  0  0  0  0  0  0  0  0
   -7.5140   21.8700  -31.9740 C   0  0  0  0  0  0  0  0  0  0  0  0
   -5.3670   19.1130  -33.3390 N   0  0  0  0  0  0  0  0  0  0  0  0
   -2.8687   17.4662  -33.3848 H   0  0  0  0  0  0  0  0  0  0  0  0
   -3.9632   17.4589  -34.8092 H   0  0  0  0  0  0  0  0  0  0  0  0
   -2.4960   18.4953  -34.8092 H   0  0  0  0  0  0  0  0  0  0  0  0
   -2.5922   20.7709  -33.5228 H   0  0  0  0  0  0  0  0  0  0  0  0
   -3.7309   23.0822  -33.1323 H   0  0  0  0  0  0  0  0  0  0  0  0
   -5.5352   23.1173  -33.1542 H   0  0  0  0  0  0  0  0  0  0  0  0
   -4.7474   25.0949  -31.3830 H   0  0  0  0  0  0  0  0  0  0  0  0
   -6.3383   24.2509  -31.4855 H   0  0  0  0  0  0  0  0  0  0  0  0
   -5.8644   25.5205  -29.2906 H   0  0  0  0  0  0  0  0  0  0  0  0
   -6.3638   23.7998  -29.1273 H   0  0  0  0  0  0  0  0  0  0  0  0
   -1.7653   23.7279  -26.2637 H   0  0  0  0  0  0  0  0  0  0  0  0
   -1.2872   22.6968  -28.6473 H   0  0  0  0  0  0  0  0  0  0  0  0
   -2.6871   23.7364  -31.3086 H   0  0  0  0  0  0  0  0  0  0  0  0
   -2.8414   22.0129  -30.7951 H   0  0  0  0  0  0  0  0  0  0  0  0
   -7.9187   18.6744  -33.1205 H   0  0  0  0  0  0  0  0  0  0  0  0
  -10.2756   19.2017  -32.4759 H   0  0  0  0  0  0  0  0  0  0  0  0
   -9.1194   23.0971  -31.1906 H   0  0  0  0  0  0  0  0  0  0  0  0
   -6.7420   22.6364  -31.8106 H   0  0  0  0  0  0  0  0  0  0  0  0
   -5.9640   18.2650  -33.4660 H   0  0  0  0  0  0  0  0  0  0  0  0
  1  2  1  0
  2  3  1  0
  3  4  2  0
  4  5  1  0
  5  6  1  0
  6  7  1  0
  7  8  1  0
  8  9  1  0
  9 10  1  0
 10 11  1  0
 11 12  2  0
 12 13  1  0
 13 14  1  0
  4 15  1  0
 15 16  1  0
 16 17  2  0
 17 18  1  0
 18 19  2  0
 19 20  1  0
 20 21  2  0
 15 22  2  0
 22  2  1  0
 14  6  1  0
 21 16  1  0
 13  9  2  0
  1 23  1  0
  1 24  1  0
  1 25  1  0
  3 26  1  0
  5 27  1  0
  5 28  1  0
  7 29  1  0
  7 30  1  0
  8 31  1  0
  8 32  1  0
 11 33  1  0
 12 34  1  0
 14 35  1  0
 14 36  1  0
 17 37  1  0
 18 38  1  0
 20 39  1  0
 21 40  1  0
 22 41  1  0
M  CHG  1  22   1
M  END
>  <UniqueID>  (45) 
44

>  <SMILES>  (45) 
Cn1cc(CN2CCc3sccc3C2)c(-c2ccncc2)[nH+]1

>  <Energy>  (45) 
108.10340184218828

>  <Genealogy>  (45) 
Cn1cc(CN2CCc3sccc3C2)c(-c2ccncc2)[nH+]1 (protonated)
Cn1cc(CN2CCc3sccc3C2)c(-c2ccncc2)[nH+]1 (3D coordinates assigned)
Cn1cc(CN2CCc3sccc3C2)c(-c2ccncc2)[nH+]1 (nonaromatic ring conformer: 108.10340184218828 kcal/mol)

>  <smiles>  (45) 
Cn1cc(CN2CCc3sccc3C2)c(-c2ccncc2)n1

>  <score_type>  (45) 
oracle

>  <origin>  (45) 
adg

>  <m_score__min__energy>  (45) 
-7.0700000000000003

>  <m_primary>  (45) 
energy

$$$$
45:0
     RDKit          3D

 47 49  0  0  0  0  0  0  0  0999 V2000
   -9.5370   19.0570  -32.3630 C   0  0  0  0  0  0  0  0  0  0  0  0
   -8.3610   18.3990  -32.8220 O   0  0  0  0  0  0  0  0  0  0  0  0
   -7.0640   18.9250  -32.7140 C   0  0  0  0  0  0  0  0  0  0  0  0
   -6.3810   19.0000  -31.4870 C   0  0  0  0  0  0  0  0  0  0  0  0
   -5.0910   19.5340  -31.4300 C   0  0  0  0  0  0  0  0  0  0  0  0
   -4.4600   20.0120  -32.5930 C   0  0  0  0  0  0  0  0  0  0  0  0
   -3.0840   20.5680  -32.5120 C   0  0  0  0  0  0  0  0  0  0  0  0
   -2.1910   20.5020  -33.5940 C   0  0  0  0  0  0  0  0  0  0  0  0
   -0.9090   21.0460  -33.4490 C   0  0  0  0  0  0  0  0  0  0  0  0
    0.0710   20.9950  -34.5850 C   0  0  0  0  0  0  0  0  0  0  0  0
    0.0210   22.1800  -35.2950 F   0  0  0  0  0  0  0  0  0  0  0  0
   -0.2490   19.9460  -35.4270 F   0  0  0  0  0  0  0  0  0  0  0  0
    1.3570   20.8110  -34.1100 F   0  0  0  0  0  0  0  0  0  0  0  0
   -0.5580   21.6280  -32.2720 N   0  0  0  0  0  0  0  0  0  0  0  0
   -1.4300   21.6910  -31.2350 C   0  0  0  0  0  0  0  0  0  0  0  0
   -0.9390   22.4610  -29.6950 S   0  0  0  0  0  0  0  0  0  0  0  0
   -2.6090   23.0780  -29.2880 C   0  0  0  0  0  0  0  0  0  0  0  0
   -2.7320   24.5470  -29.5820 C   0  0  0  0  0  0  0  0  0  0  0  0
   -1.9870   25.3570  -28.9700 O   0  0  0  0  0  0  0  0  0  0  0  0
   -3.6900   25.0570  -30.5160 N   0  0  0  0  0  0  0  0  0  0  0  0
   -5.0730   25.3770  -30.1900 C   0  0  0  0  0  0  0  0  0  0  0  0
   -5.9600   24.2500  -30.6310 C   0  0  0  0  0  0  0  0  0  0  0  0
   -6.8250   23.6260  -29.7160 C   0  0  0  0  0  0  0  0  0  0  0  0
   -7.6220   22.5500  -30.1210 C   0  0  0  0  0  0  0  0  0  0  0  0
   -7.5530   22.0850  -31.4380 C   0  0  0  0  0  0  0  0  0  0  0  0
   -6.6840   22.6910  -32.3490 C   0  0  0  0  0  0  0  0  0  0  0  0
   -5.8850   23.7660  -31.9470 C   0  0  0  0  0  0  0  0  0  0  0  0
   -2.6780   21.1710  -31.3620 N   0  0  0  0  0  0  0  0  0  0  0  0
   -5.1450   19.9210  -33.8200 C   0  0  0  0  0  0  0  0  0  0  0  0
   -6.4340   19.3860  -33.8740 C   0  0  0  0  0  0  0  0  0  0  0  0
   -9.5481   19.0632  -31.2631 H   0  0  0  0  0  0  0  0  0  0  0  0
   -9.5472   20.0919  -32.7356 H   0  0  0  0  0  0  0  0  0  0  0  0
  -10.4244   18.5243  -32.7356 H   0  0  0  0  0  0  0  0  0  0  0  0
   -6.8644   18.6367  -30.5681 H   0  0  0  0  0  0  0  0  0  0  0  0
   -4.5635   19.5811  -30.4659 H   0  0  0  0  0  0  0  0  0  0  0  0
   -2.4940   20.0304  -34.5404 H   0  0  0  0  0  0  0  0  0  0  0  0
   -3.3503   22.5288  -29.8870 H   0  0  0  0  0  0  0  0  0  0  0  0
   -2.7860   22.9216  -28.2137 H   0  0  0  0  0  0  0  0  0  0  0  0
   -5.1712   25.5183  -29.1035 H   0  0  0  0  0  0  0  0  0  0  0  0
   -5.3686   26.3023  -30.7062 H   0  0  0  0  0  0  0  0  0  0  0  0
   -6.8756   23.9850  -28.6775 H   0  0  0  0  0  0  0  0  0  0  0  0
   -8.3032   22.0696  -29.4033 H   0  0  0  0  0  0  0  0  0  0  0  0
   -8.1832   21.2417  -31.7570 H   0  0  0  0  0  0  0  0  0  0  0  0
   -6.6283   22.3220  -33.3838 H   0  0  0  0  0  0  0  0  0  0  0  0
   -5.1951   24.2342  -32.6645 H   0  0  0  0  0  0  0  0  0  0  0  0
   -4.6613   20.2739  -34.7428 H   0  0  0  0  0  0  0  0  0  0  0  0
   -6.9589   19.3267  -34.8389 H   0  0  0  0  0  0  0  0  0  0  0  0
  1  2  1  0
  2  3  1  0
  3  4  2  0
  4  5  1  0
  5  6  2  0
  6  7  1  0
  7  8  2  0
  8  9  1  0
  9 10  1  0
 10 11  1  0
 10 12  1  0
 10 13  1  0
  9 14  2  0
 14 15  1  0
 15 16  1  0
 16 17  1  0
 17 18  1  0
 18 19  2  0
 18 20  1  0
 20 21  1  0
 21 22  1  0
 22 23  2  0
 23 24  1  0
 24 25  2  0
 25 26  1  0
 26 27  2  0
 15 28  2  0
  6 29  1  0
 29 30  2  0
 30  3  1  0
 28  7  1  0
 27 22  1  0
  1 31  1  0
  1 32  1  0
  1 33  1  0
  4 34  1  0
  5 35  1  0
  8 36  1  0
 17 37  1  0
 17 38  1  0
 21 39  1  0
 21 40  1  0
 23 41  1  0
 24 42  1  0
 25 43  1  0
 26 44  1  0
 27 45  1  0
 29 46  1  0
 30 47  1  0
M  CHG  1  20  -1
M  END
>  <UniqueID>  (46) 
45

>  <SMILES>  (46) 
COc1ccc(-c2cc(C(F)(F)F)nc(SCC(=O)[N-]Cc3ccccc3)n2)cc1

>  <Energy>  (46) 
45.32298595365524

>  <Genealogy>  (46) 
COc1ccc(-c2cc(C(F)(F)F)nc(SCC(=O)[N-]Cc3ccccc3)n2)cc1 (protonated)
COc1ccc(-c2cc(C(F)(F)F)nc(SCC(=O)[N-]Cc3ccccc3)n2)cc1 (3D coordinates assigned)
COc1ccc(-c2cc(C(F)(F)F)nc(SCC(=O)[N-]Cc3ccccc3)n2)cc1 (optimized conformer: 45.32298595365524 kcal/mol)

>  <smiles>  (46) 
COc1ccc(-c2cc(C(F)(F)F)nc(SCC(=O)NCc3ccccc3)n2)cc1

>  <score_type>  (46) 
oracle

>  <origin>  (46) 
adg

>  <m_score__min__energy>  (46) 
-9.8900000000000006

>  <m_primary>  (46) 
energy

$$$$
46:0
     RDKit          3D

 25 26  0  0  0  0  0  0  0  0999 V2000
   -6.8760   17.7000  -32.9220 C   0  0  0  0  0  0  0  0  0  0  0  0
   -6.7060   19.0630  -33.2970 O   0  0  0  0  0  0  0  0  0  0  0  0
   -7.3890   20.1520  -32.7270 C   0  0  0  0  0  0  0  0  0  0  0  0
   -8.7830   20.0860  -32.5280 C   0  0  0  0  0  0  0  0  0  0  0  0
   -9.4770   21.1510  -31.9660 C   0  0  0  0  0  0  0  0  0  0  0  0
   -8.8010   22.3060  -31.5890 C   0  0  0  0  0  0  0  0  0  0  0  0
   -7.4160   22.4070  -31.7710 C   0  0  0  0  0  0  0  0  0  0  0  0
   -6.7640   23.5800  -31.3840 C   0  0  0  0  0  0  0  0  0  0  0  0
   -5.3900   23.6950  -31.5580 C   0  0  0  0  0  0  0  0  0  0  0  0
   -4.8020   24.7520  -31.2080 O   0  0  0  0  0  0  0  0  0  0  0  0
   -4.6820   22.6720  -32.1040 N   0  0  0  0  0  0  0  0  0  0  0  0
   -5.2690   21.5020  -32.5020 C   0  0  0  0  0  0  0  0  0  0  0  0
   -4.3750   20.4400  -33.0950 C   0  0  0  0  0  0  0  0  0  0  0  0
   -6.6800   21.3310  -32.3450 C   0  0  0  0  0  0  0  0  0  0  0  0
   -6.8860   17.6200  -31.8250 H   0  0  0  0  0  0  0  0  0  0  0  0
   -7.8279   17.3246  -33.3257 H   0  0  0  0  0  0  0  0  0  0  0  0
   -6.0454   17.1023  -33.3257 H   0  0  0  0  0  0  0  0  0  0  0  0
   -9.3298   19.1779  -32.8219 H   0  0  0  0  0  0  0  0  0  0  0  0
  -10.5648   21.0799  -31.8190 H   0  0  0  0  0  0  0  0  0  0  0  0
   -9.3570   23.1451  -31.1454 H   0  0  0  0  0  0  0  0  0  0  0  0
   -7.3360   24.4097  -30.9431 H   0  0  0  0  0  0  0  0  0  0  0  0
   -3.6510   22.8010  -32.2180 H   0  0  0  0  0  0  0  0  0  0  0  0
   -3.8955   19.8704  -32.2853 H   0  0  0  0  0  0  0  0  0  0  0  0
   -4.9761   19.7595  -33.7159 H   0  0  0  0  0  0  0  0  0  0  0  0
   -3.6019   20.9163  -33.7159 H   0  0  0  0  0  0  0  0  0  0  0  0
  1  2  1  0
  2  3  1  0
  3  4  2  0
  4  5  1  0
  5  6  2  0
  6  7  1  0
  7  8  2  0
  8  9  1  0
  9 10  2  0
  9 11  1  0
 11 12  1  0
 12 13  1  0
 12 14  2  0
 14  3  1  0
 14  7  1  0
  1 15  1  0
  1 16  1  0
  1 17  1  0
  4 18  1  0
  5 19  1  0
  6 20  1  0
  8 21  1  0
 11 22  1  0
 13 23  1  0
 13 24  1  0
 13 25  1  0
M  END
>  <UniqueID>  (47) 
46

>  <SMILES>  (47) 
COc1cccc2cc(=O)[nH]c(C)c12

>  <Energy>  (47) 
34.14135454402694

>  <Genealogy>  (47) 
COc1cccc2cc(=O)[nH]c(C)c12 (3D coordinates assigned)
COc1cccc2cc(=O)[nH]c(C)c12 (optimized conformer: 34.14135454402694 kcal/mol)

>  <smiles>  (47) 
COc1cccc2cc(=O)[nH]c(C)c12

>  <score_type>  (47) 
oracle

>  <origin>  (47) 
adg

>  <m_score__min__energy>  (47) 
-6.2199999999999998

>  <m_primary>  (47) 
energy

$$$$
