0:0
     RDKit          3D

 59 63  0  0  0  0  0  0  0  0999 V2000
   -6.6520   25.0230  -29.7540 C   0  0  0  0  0  0  0  0  0  0  0  0
   -5.6970   25.9610  -30.4820 C   0  0  0  0  0  0  0  0  0  0  0  0
   -4.7390   25.1070  -31.1900 N   0  0  0  0  0  0  0  0  0  0  0  0
   -4.1770   24.1470  -30.2350 C   0  0  0  0  0  0  0  0  0  0  0  0
   -3.9720   22.8310  -30.9330 C   0  0  0  0  0  0  0  0  0  0  0  0
   -4.7110   22.7490  -32.2060 N   0  0  0  0  0  0  0  0  0  0  0  0
   -5.2840   21.5010  -32.5090 C   0  0  0  0  0  0  0  0  0  0  0  0
   -6.6700   21.4370  -32.2400 C   0  0  0  0  0  0  0  0  0  0  0  0
   -7.3450   22.5540  -31.7730 C   0  0  0  0  0  0  0  0  0  0  0  0
   -8.6930   22.5670  -31.4950 C   0  0  0  0  0  0  0  0  0  0  0  0
   -9.3900   21.3980  -31.6970 C   0  0  0  0  0  0  0  0  0  0  0  0
   -8.7180   20.2910  -32.1600 C   0  0  0  0  0  0  0  0  0  0  0  0
   -7.3640   20.2760  -32.4400 C   0  0  0  0  0  0  0  0  0  0  0  0
   -6.7700   19.1380  -32.9000 N   0  0  0  0  0  0  0  0  0  0  0  0
   -7.6320   18.0060  -33.0450 C   0  0  0  0  0  0  0  0  0  0  0  0
   -5.4730   19.2050  -33.1530 C   0  0  0  0  0  0  0  0  0  0  0  0
   -4.8570   18.0540  -33.6330 C   0  0  0  0  0  0  0  0  0  0  0  0
   -3.5090   18.0110  -33.9400 C   0  0  0  0  0  0  0  0  0  0  0  0
   -2.9800   16.7690  -34.4670 C   0  0  0  0  0  0  0  0  0  0  0  0
   -2.0580   15.9750  -33.8270 C   0  0  0  0  0  0  0  0  0  0  0  0
   -1.5750   14.7900  -34.3370 C   0  0  0  0  0  0  0  0  0  0  0  0
   -2.0220   14.3460  -35.5620 C   0  0  0  0  0  0  0  0  0  0  0  0
   -2.9550   15.1170  -36.2450 C   0  0  0  0  0  0  0  0  0  0  0  0
   -3.4230   16.3000  -35.7110 C   0  0  0  0  0  0  0  0  0  0  0  0
   -2.7900   19.1660  -33.7520 C   0  0  0  0  0  0  0  0  0  0  0  0
   -1.4460   19.1120  -34.0790 C   0  0  0  0  0  0  0  0  0  0  0  0
   -0.6650   20.2330  -33.9380 C   0  0  0  0  0  0  0  0  0  0  0  0
   -1.1900   21.3900  -33.4840 C   0  0  0  0  0  0  0  0  0  0  0  0
   -2.5540   21.4200  -33.1570 C   0  0  0  0  0  0  0  0  0  0  0  0
   -3.3810   20.3400  -33.2720 C   0  0  0  0  0  0  0  0  0  0  0  0
   -4.7030   20.3700  -32.9700 C   0  0  0  0  0  0  0  0  0  0  0  0
   -6.5283   25.1445  -28.6677 H   0  0  0  0  0  0  0  0  0  0  0  0
   -7.6879   25.2644  -30.0344 H   0  0  0  0  0  0  0  0  0  0  0  0
   -6.4292   23.9829  -30.0344 H   0  0  0  0  0  0  0  0  0  0  0  0
   -6.2501   26.5870  -31.1976 H   0  0  0  0  0  0  0  0  0  0  0  0
   -5.1866   26.6356  -29.7788 H   0  0  0  0  0  0  0  0  0  0  0  0
   -3.9830   25.6770  -31.5800 H   0  0  0  0  0  0  0  0  0  0  0  0
   -3.2127   24.5204  -29.8598 H   0  0  0  0  0  0  0  0  0  0  0  0
   -4.8660   24.0167  -29.3875 H   0  0  0  0  0  0  0  0  0  0  0  0
   -2.8989   22.7036  -31.1386 H   0  0  0  0  0  0  0  0  0  0  0  0
   -4.3527   22.0381  -30.2725 H   0  0  0  0  0  0  0  0  0  0  0  0
   -4.8290   23.6170  -32.8170 H   0  0  0  0  0  0  0  0  0  0  0  0
   -6.7724   23.4800  -31.6161 H   0  0  0  0  0  0  0  0  0  0  0  0
   -9.1927   23.4750  -31.1264 H   0  0  0  0  0  0  0  0  0  0  0  0
  -10.4695   21.3495  -31.4911 H   0  0  0  0  0  0  0  0  0  0  0  0
   -9.2903   19.3647  -32.3165 H   0  0  0  0  0  0  0  0  0  0  0  0
   -7.9167   17.6321  -32.0504 H   0  0  0  0  0  0  0  0  0  0  0  0
   -8.5357   18.3017  -33.5980 H   0  0  0  0  0  0  0  0  0  0  0  0
   -7.1066   17.2135  -33.5980 H   0  0  0  0  0  0  0  0  0  0  0  0
   -5.4628   17.1466  -33.7733 H   0  0  0  0  0  0  0  0  0  0  0  0
   -1.6829   16.3063  -32.8474 H   0  0  0  0  0  0  0  0  0  0  0  0
   -0.8377   14.2026  -33.7702 H   0  0  0  0  0  0  0  0  0  0  0  0
   -1.6493   13.4035  -35.9895 H   0  0  0  0  0  0  0  0  0  0  0  0
   -3.3253   14.7796  -37.2243 H   0  0  0  0  0  0  0  0  0  0  0  0
   -4.1613   16.8889  -36.2751 H   0  0  0  0  0  0  0  0  0  0  0  0
   -1.0052   18.1750  -34.4503 H   0  0  0  0  0  0  0  0  0  0  0  0
    0.4027   20.1869  -34.1987 H   0  0  0  0  0  0  0  0  0  0  0  0
   -0.5640   22.2877  -33.3730 H   0  0  0  0  0  0  0  0  0  0  0  0
   -2.9800   22.3647  -32.7881 H   0  0  0  0  0  0  0  0  0  0  0  0
  1  2  1  0
  2  3  1  0
  3  4  1  0
  4  5  1  0
  5  6  1  0
  6  7  1  0
  7  8  2  0
  8  9  1  0
  9 10  2  0
 10 11  1  0
 11 12  2  0
 12 13  1  0
 13 14  2  0
 14 15  1  0
 14 16  1  0
 16 17  2  0
 17 18  1  0
 18 19  1  0
 19 20  2  0
 20 21  1  0
 21 22  2  0
 22 23  1  0
 23 24  2  0
 18 25  2  0
 25 26  1  0
 26 27  2  0
 27 28  1  0
 28 29  2  0
 29 30  1  0
 30 31  2  0
 31  7  1  0
 13  8  1  0
 31 16  1  0
 24 19  1  0
 30 25  1  0
  1 32  1  0
  1 33  1  0
  1 34  1  0
  2 35  1  0
  2 36  1  0
  3 37  1  0
  4 38  1  0
  4 39  1  0
  5 40  1  0
  5 41  1  0
  6 42  1  0
  9 43  1  0
 10 44  1  0
 11 45  1  0
 12 46  1  0
 15 47  1  0
 15 48  1  0
 15 49  1  0
 17 50  1  0
 20 51  1  0
 21 52  1  0
 22 53  1  0
 23 54  1  0
 24 55  1  0
 26 56  1  0
 27 57  1  0
 28 58  1  0
 29 59  1  0
M  CHG  1  14   1
M  END
>  <smiles>  (1) 
CCNCCNc1c2ccccc2[n+](C)c2cc(-c3ccccc3)c3ccccc3c12

>  <score_type>  (1) 
oracle

>  <origin>  (1) 
adg

>  <m_score__min__energy>  (1) 
-10.73

>  <m_primary>  (1) 
energy

$$$$
1:0
     RDKit          3D

 66 70  0  0  0  0  0  0  0  0999 V2000
   -2.6670   15.1330  -33.7860 C   0  0  0  0  0  0  0  0  0  0  0  0
   -2.4060   16.5750  -33.7660 C   0  0  0  0  0  0  0  0  0  0  0  0
   -1.2450   17.0730  -34.3310 C   0  0  0  0  0  0  0  0  0  0  0  0
   -0.9820   18.3860  -34.3270 N   0  0  0  0  0  0  0  0  0  0  0  0
   -1.8150   19.2940  -33.7810 C   0  0  0  0  0  0  0  0  0  0  0  0
   -2.9870   18.8680  -33.2020 C   0  0  0  0  0  0  0  0  0  0  0  0
   -3.2720   17.5090  -33.2010 C   0  0  0  0  0  0  0  0  0  0  0  0
   -3.6760   19.9480  -32.7120 N   0  0  0  0  0  0  0  0  0  0  0  0
   -4.9460   19.7630  -32.0420 C   0  0  0  0  0  0  0  0  0  0  0  0
   -5.9470   20.6970  -32.7060 C   0  0  0  0  0  0  0  0  0  0  0  0
   -5.7010   22.0780  -32.4760 N   0  0  0  0  0  0  0  0  0  0  0  0
   -6.9730   22.7860  -32.2210 C   0  0  0  0  0  0  0  0  0  0  0  0
   -6.6650   24.1640  -31.7290 C   0  0  0  0  0  0  0  0  0  0  0  0
   -5.3440   24.4830  -31.5500 N   0  0  0  0  0  0  0  0  0  0  0  0
   -4.7790   25.1470  -30.4570 C   0  0  0  0  0  0  0  0  0  0  0  0
   -3.9710   24.3470  -29.4710 C   0  0  0  0  0  0  0  0  0  0  0  0
   -3.8590   22.9880  -29.9910 N   0  0  0  0  0  0  0  0  0  0  0  0
   -3.1320   21.9640  -29.3230 C   0  0  0  0  0  0  0  0  0  0  0  0
   -3.2630   21.7730  -27.9370 C   0  0  0  0  0  0  0  0  0  0  0  0
   -2.5600   20.7970  -27.2670 C   0  0  0  0  0  0  0  0  0  0  0  0
   -1.6920   19.9580  -27.9220 C   0  0  0  0  0  0  0  0  0  0  0  0
   -0.9680   18.9610  -27.3250 C   0  0  0  0  0  0  0  0  0  0  0  0
   -0.1090   18.1330  -28.0300 C   0  0  0  0  0  0  0  0  0  0  0  0
    0.6220   17.1300  -27.4700 C   0  0  0  0  0  0  0  0  0  0  0  0
    1.4550   16.3490  -28.2700 C   0  0  0  0  0  0  0  0  0  0  0  0
    2.4010   15.0470  -27.5680 Cl  0  0  0  0  0  0  0  0  0  0  0  0
    1.5600   16.5660  -29.6310 C   0  0  0  0  0  0  0  0  0  0  0  0
    0.8220   17.5830  -30.2050 C   0  0  0  0  0  0  0  0  0  0  0  0
    0.0070   18.3390  -29.3880 C   0  0  0  0  0  0  0  0  0  0  0  0
   -0.7050   19.3190  -29.9750 N   0  0  0  0  0  0  0  0  0  0  0  0
   -1.5420   20.1240  -29.2790 C   0  0  0  0  0  0  0  0  0  0  0  0
   -2.2540   21.1110  -29.9530 C   0  0  0  0  0  0  0  0  0  0  0  0
   -2.9500   21.0270  -32.9800 C   0  0  0  0  0  0  0  0  0  0  0  0
   -3.2830   22.2000  -32.6720 O   0  0  0  0  0  0  0  0  0  0  0  0
   -1.8130   20.6310  -33.6320 N   0  0  0  0  0  0  0  0  0  0  0  0
   -0.7370   21.5060  -34.1070 C   0  0  0  0  0  0  0  0  0  0  0  0
   -2.7348   14.7583  -32.7540 H   0  0  0  0  0  0  0  0  0  0  0  0
   -3.6148   14.9392  -34.3095 H   0  0  0  0  0  0  0  0  0  0  0  0
   -1.8473   14.6192  -34.3095 H   0  0  0  0  0  0  0  0  0  0  0  0
   -0.5263   16.3788  -34.7910 H   0  0  0  0  0  0  0  0  0  0  0  0
   -4.2082   17.1598  -32.7410 H   0  0  0  0  0  0  0  0  0  0  0  0
   -5.2782   18.7195  -32.1460 H   0  0  0  0  0  0  0  0  0  0  0  0
   -4.8567   19.9866  -30.9687 H   0  0  0  0  0  0  0  0  0  0  0  0
   -5.9178   20.5180  -33.7909 H   0  0  0  0  0  0  0  0  0  0  0  0
   -6.9283   20.4739  -32.2618 H   0  0  0  0  0  0  0  0  0  0  0  0
   -5.3080   22.5120  -33.3450 H   0  0  0  0  0  0  0  0  0  0  0  0
   -7.5556   22.8471  -33.1520 H   0  0  0  0  0  0  0  0  0  0  0  0
   -7.5601   22.2415  -31.4668 H   0  0  0  0  0  0  0  0  0  0  0  0
   -7.0822   24.8763  -32.4561 H   0  0  0  0  0  0  0  0  0  0  0  0
   -7.1079   24.2124  -30.7233 H   0  0  0  0  0  0  0  0  0  0  0  0
   -4.6420   24.0150  -32.1660 H   0  0  0  0  0  0  0  0  0  0  0  0
   -4.1190   25.9301  -30.8584 H   0  0  0  0  0  0  0  0  0  0  0  0
   -5.6455   25.4953  -29.8758 H   0  0  0  0  0  0  0  0  0  0  0  0
   -2.9701   24.7896  -29.3597 H   0  0  0  0  0  0  0  0  0  0  0  0
   -4.4583   24.3441  -28.4848 H   0  0  0  0  0  0  0  0  0  0  0  0
   -4.3280   22.7350  -30.8880 H   0  0  0  0  0  0  0  0  0  0  0  0
   -3.9471   22.4222  -27.3708 H   0  0  0  0  0  0  0  0  0  0  0  0
   -2.6968   20.6866  -26.1811 H   0  0  0  0  0  0  0  0  0  0  0  0
   -1.0725   18.8109  -26.2403 H   0  0  0  0  0  0  0  0  0  0  0  0
    0.5555   16.9364  -26.3892 H   0  0  0  0  0  0  0  0  0  0  0  0
    2.2208   15.9388  -30.2474 H   0  0  0  0  0  0  0  0  0  0  0  0
    0.8826   17.7846  -31.2847 H   0  0  0  0  0  0  0  0  0  0  0  0
   -2.1089   21.2146  -31.0385 H   0  0  0  0  0  0  0  0  0  0  0  0
   -0.2072   21.9369  -33.2447 H   0  0  0  0  0  0  0  0  0  0  0  0
   -0.0316   20.9220  -34.7164 H   0  0  0  0  0  0  0  0  0  0  0  0
   -1.1649   22.3157  -34.7164 H   0  0  0  0  0  0  0  0  0  0  0  0
  1  2  1  0
  2  3  2  0
  3  4  1  0
  4  5  2  0
  5  6  1  0
  6  7  2  0
  6  8  1  0
  8  9  1  0
  9 10  1  0
 10 11  1  0
 11 12  1  0
 12 13  1  0
 13 14  1  0
 14 15  1  0
 15 16  1  0
 16 17  1  0
 17 18  1  0
 18 19  2  0
 19 20  1  0
 20 21  2  0
 21 22  1  0
 22 23  2  0
 23 24  1  0
 24 25  2  0
 25 26  1  0
 25 27  1  0
 27 28  2  0
 28 29  1  0
 29 30  2  0
 30 31  1  0
 31 32  2  0
  8 33  1  0
 33 34  2  0
 33 35  1  0
 35 36  1  0
  7  2  1  0
 32 18  1  0
 35  5  1  0
 31 21  1  0
 29 23  1  0
  1 37  1  0
  1 38  1  0
  1 39  1  0
  3 40  1  0
  7 41  1  0
  9 42  1  0
  9 43  1  0
 10 44  1  0
 10 45  1  0
 11 46  1  0
 12 47  1  0
 12 48  1  0
 13 49  1  0
 13 50  1  0
 14 51  1  0
 15 52  1  0
 15 53  1  0
 16 54  1  0
 16 55  1  0
 17 56  1  0
 19 57  1  0
 20 58  1  0
 22 59  1  0
 24 60  1  0
 27 61  1  0
 28 62  1  0
 32 63  1  0
 36 64  1  0
 36 65  1  0
 36 66  1  0
M  END
>  <smiles>  (2) 
Cc1cnc2c(c1)n(CCNCCNCCNc1ccc3cc4cc(Cl)ccc4nc3c1)c(=O)n2C

>  <score_type>  (2) 
oracle

>  <origin>  (2) 
adg

>  <m_score__min__energy>  (2) 
-9.7599999999999998

>  <m_primary>  (2) 
energy

$$$$
2:0
     RDKit          3D

 27 28  0  0  0  0  0  0  0  0999 V2000
   -5.8750   25.0290  -30.4300 C   0  0  0  0  0  0  0  0  0  0  0  0
   -6.8390   23.8810  -30.4540 C   0  0  0  0  0  0  0  0  0  0  0  0
   -7.2120   23.4180  -32.1590 S   0  0  0  0  0  0  0  0  0  0  0  0
   -7.2900   21.6480  -32.3430 C   0  0  0  0  0  0  0  0  0  0  0  0
   -6.2400   21.0620  -32.9880 N   0  0  0  0  0  0  0  0  0  0  0  0
   -6.2300   19.7420  -33.1770 C   0  0  0  0  0  0  0  0  0  0  0  0
   -5.1440   19.2010  -33.8360 C   0  0  0  0  0  0  0  0  0  0  0  0
   -5.1170   17.8220  -34.0430 C   0  0  0  0  0  0  0  0  0  0  0  0
   -6.1760   17.0770  -33.5790 C   0  0  0  0  0  0  0  0  0  0  0  0
   -7.2630   17.6070  -32.9220 C   0  0  0  0  0  0  0  0  0  0  0  0
   -7.2880   18.9810  -32.7160 C   0  0  0  0  0  0  0  0  0  0  0  0
   -8.3510   19.5930  -32.0600 C   0  0  0  0  0  0  0  0  0  0  0  0
   -9.3220   18.8800  -31.6370 O   0  0  0  0  0  0  0  0  0  0  0  0
   -8.3280   20.9310  -31.8850 N   0  0  0  0  0  0  0  0  0  0  0  0
   -9.4720   21.5140  -31.2140 C   0  0  0  0  0  0  0  0  0  0  0  0
   -5.6499   25.2970  -29.3872 H   0  0  0  0  0  0  0  0  0  0  0  0
   -4.9461   24.7386  -30.9426 H   0  0  0  0  0  0  0  0  0  0  0  0
   -6.3217   25.8937  -30.9426 H   0  0  0  0  0  0  0  0  0  0  0  0
   -6.3933   23.0209  -29.9328 H   0  0  0  0  0  0  0  0  0  0  0  0
   -7.7698   24.1825  -29.9514 H   0  0  0  0  0  0  0  0  0  0  0  0
   -4.3216   19.8408  -34.1885 H   0  0  0  0  0  0  0  0  0  0  0  0
   -4.2732   17.3441  -34.5623 H   0  0  0  0  0  0  0  0  0  0  0  0
   -6.1527   15.9896  -33.7433 H   0  0  0  0  0  0  0  0  0  0  0  0
   -8.0844   16.9646  -32.5718 H   0  0  0  0  0  0  0  0  0  0  0  0
   -9.3336   21.4435  -30.1250 H   0  0  0  0  0  0  0  0  0  0  0  0
   -9.5677   22.5708  -31.5037 H   0  0  0  0  0  0  0  0  0  0  0  0
  -10.3833   20.9704  -31.5037 H   0  0  0  0  0  0  0  0  0  0  0  0
  1  2  1  0
  2  3  1  0
  3  4  1  0
  4  5  2  0
  5  6  1  0
  6  7  2  0
  7  8  1  0
  8  9  2  0
  9 10  1  0
 10 11  2  0
 11 12  1  0
 12 13  2  0
 12 14  1  0
 14 15  1  0
 14  4  1  0
 11  6  1  0
  1 16  1  0
  1 17  1  0
  1 18  1  0
  2 19  1  0
  2 20  1  0
  7 21  1  0
  8 22  1  0
  9 23  1  0
 10 24  1  0
 15 25  1  0
 15 26  1  0
 15 27  1  0
M  END
>  <smiles>  (3) 
CCSc1nc2ccccc2c(=O)n1C

>  <score_type>  (3) 
oracle

>  <origin>  (3) 
adg

>  <m_score__min__energy>  (3) 
-6.3799999999999999

>  <m_primary>  (3) 
energy

$$$$
3:0
     RDKit          3D

 59 61  0  0  0  0  0  0  0  0999 V2000
   -3.8610   23.5490  -28.1370 C   0  0  0  0  0  0  0  0  0  0  0  0
   -2.8890   23.7930  -29.2280 C   0  0  0  0  0  0  0  0  0  0  0  0
   -2.4480   22.5490  -29.8220 N   0  0  0  0  0  0  0  0  0  0  0  0
   -3.4160   21.5520  -29.2700 C   0  0  0  0  0  0  0  0  0  0  0  0
   -1.1230   22.1750  -29.3570 C   0  0  0  0  0  0  0  0  0  0  0  0
   -0.4230   21.2360  -30.3250 C   0  0  0  0  0  0  0  0  0  0  0  0
   -0.7270   21.5090  -31.6320 O   0  0  0  0  0  0  0  0  0  0  0  0
   -0.4800   20.4310  -32.5150 C   0  0  0  0  0  0  0  0  0  0  0  0
   -1.2250   20.5640  -33.7920 C   0  0  0  0  0  0  0  0  0  0  0  0
   -2.5630   21.1710  -33.8050 C   0  0  0  0  0  0  0  0  0  0  0  0
   -3.3890   21.2850  -32.6820 N   0  0  0  0  0  0  0  0  0  0  0  0
   -4.7560   21.0390  -32.4900 C   0  0  0  0  0  0  0  0  0  0  0  0
   -5.3790   19.8480  -32.8610 C   0  0  0  0  0  0  0  0  0  0  0  0
   -4.6310   18.8050  -33.3600 C   0  0  0  0  0  0  0  0  0  0  0  0
   -5.1360   17.5840  -33.7230 C   0  0  0  0  0  0  0  0  0  0  0  0
   -6.4810   17.3760  -33.5830 C   0  0  0  0  0  0  0  0  0  0  0  0
   -7.2570   18.4170  -33.0790 C   0  0  0  0  0  0  0  0  0  0  0  0
   -6.7320   19.6370  -32.7190 C   0  0  0  0  0  0  0  0  0  0  0  0
   -7.5510   20.6010  -32.1950 N   0  0  0  0  0  0  0  0  0  0  0  0
   -8.9390   20.2800  -32.1030 C   0  0  0  0  0  0  0  0  0  0  0  0
   -6.9820   21.7560  -31.8250 C   0  0  0  0  0  0  0  0  0  0  0  0
   -7.7870   22.7400  -31.2880 C   0  0  0  0  0  0  0  0  0  0  0  0
   -7.2630   23.9730  -30.8740 C   0  0  0  0  0  0  0  0  0  0  0  0
   -5.9150   24.2200  -31.0020 C   0  0  0  0  0  0  0  0  0  0  0  0
   -5.4090   25.5410  -30.5510 C   0  0  0  0  0  0  0  0  0  0  0  0
   -5.1120   23.2360  -31.5380 C   0  0  0  0  0  0  0  0  0  0  0  0
   -5.6170   22.0040  -31.9550 C   0  0  0  0  0  0  0  0  0  0  0  0
   -3.3608   23.6746  -27.1654 H   0  0  0  0  0  0  0  0  0  0  0  0
   -4.6907   24.2667  -28.2178 H   0  0  0  0  0  0  0  0  0  0  0  0
   -4.2533   22.5245  -28.2178 H   0  0  0  0  0  0  0  0  0  0  0  0
   -3.3662   24.4114  -30.0025 H   0  0  0  0  0  0  0  0  0  0  0  0
   -2.0133   24.3082  -28.8065 H   0  0  0  0  0  0  0  0  0  0  0  0
   -3.3867   21.5822  -28.1708 H   0  0  0  0  0  0  0  0  0  0  0  0
   -4.4311   21.7958  -29.6166 H   0  0  0  0  0  0  0  0  0  0  0  0
   -3.1423   20.5445  -29.6166 H   0  0  0  0  0  0  0  0  0  0  0  0
   -0.5162   23.0856  -29.2443 H   0  0  0  0  0  0  0  0  0  0  0  0
   -1.2359   21.6502  -28.3969 H   0  0  0  0  0  0  0  0  0  0  0  0
    0.6640   21.3338  -30.1877 H   0  0  0  0  0  0  0  0  0  0  0  0
   -0.7675   20.2141  -30.1079 H   0  0  0  0  0  0  0  0  0  0  0  0
    0.5969   20.3951  -32.7363 H   0  0  0  0  0  0  0  0  0  0  0  0
   -0.8209   19.5086  -32.0221 H   0  0  0  0  0  0  0  0  0  0  0  0
   -0.5968   21.1669  -34.4642 H   0  0  0  0  0  0  0  0  0  0  0  0
   -1.4194   19.5203  -34.0798 H   0  0  0  0  0  0  0  0  0  0  0  0
   -2.4191   22.1977  -34.1726 H   0  0  0  0  0  0  0  0  0  0  0  0
   -3.1198   20.4279  -34.3947 H   0  0  0  0  0  0  0  0  0  0  0  0
   -2.8980   21.6320  -31.7680 H   0  0  0  0  0  0  0  0  0  0  0  0
   -3.5487   18.9637  -33.4757 H   0  0  0  0  0  0  0  0  0  0  0  0
   -4.4790   16.7939  -34.1156 H   0  0  0  0  0  0  0  0  0  0  0  0
   -6.9365   16.4140  -33.8606 H   0  0  0  0  0  0  0  0  0  0  0  0
   -8.3391   18.2566  -32.9634 H   0  0  0  0  0  0  0  0  0  0  0  0
   -9.2304   20.2126  -31.0444 H   0  0  0  0  0  0  0  0  0  0  0  0
   -9.5304   21.0651  -32.5968 H   0  0  0  0  0  0  0  0  0  0  0  0
   -9.1257   19.3150  -32.5968 H   0  0  0  0  0  0  0  0  0  0  0  0
   -8.8657   22.5525  -31.1822 H   0  0  0  0  0  0  0  0  0  0  0  0
   -7.9268   24.7400  -30.4485 H   0  0  0  0  0  0  0  0  0  0  0  0
   -5.3967   25.5730  -29.4515 H   0  0  0  0  0  0  0  0  0  0  0  0
   -4.3890   25.6931  -30.9337 H   0  0  0  0  0  0  0  0  0  0  0  0
   -6.0664   26.3356  -30.9337 H   0  0  0  0  0  0  0  0  0  0  0  0
   -4.0340   23.4291  -31.6407 H   0  0  0  0  0  0  0  0  0  0  0  0
  1  2  1  0
  2  3  1  0
  3  4  1  0
  3  5  1  0
  5  6  1  0
  6  7  1  0
  7  8  1  0
  8  9  1  0
  9 10  1  0
 10 11  1  0
 11 12  1  0
 12 13  2  0
 13 14  1  0
 14 15  2  0
 15 16  1  0
 16 17  2  0
 17 18  1  0
 18 19  2  0
 19 20  1  0
 19 21  1  0
 21 22  2  0
 22 23  1  0
 23 24  2  0
 24 25  1  0
 24 26  1  0
 26 27  2  0
 27 12  1  0
 18 13  1  0
 27 21  1  0
  1 28  1  0
  1 29  1  0
  1 30  1  0
  2 31  1  0
  2 32  1  0
  4 33  1  0
  4 34  1  0
  4 35  1  0
  5 36  1  0
  5 37  1  0
  6 38  1  0
  6 39  1  0
  8 40  1  0
  8 41  1  0
  9 42  1  0
  9 43  1  0
 10 44  1  0
 10 45  1  0
 11 46  1  0
 14 47  1  0
 15 48  1  0
 16 49  1  0
 17 50  1  0
 20 51  1  0
 20 52  1  0
 20 53  1  0
 22 54  1  0
 23 55  1  0
 25 56  1  0
 25 57  1  0
 25 58  1  0
 26 59  1  0
M  CHG  1  19   1
M  END
>  <smiles>  (4) 
CCN(C)CCOCCCNc1c2ccccc2[n+](C)c2ccc(C)cc12

>  <score_type>  (4) 
oracle

>  <origin>  (4) 
adg

>  <m_score__min__energy>  (4) 
-9.2400000000000002

>  <m_primary>  (4) 
energy

$$$$
4:0
     RDKit          3D

 42 44  0  0  0  0  0  0  0  0999 V2000
   -1.5750   26.0570  -26.5400 C   0  0  0  0  0  0  0  0  0  0  0  0
   -0.9140   26.2260  -27.8740 C   0  0  0  0  0  0  0  0  0  0  0  0
   -1.6200   25.6880  -28.9600 O   0  0  0  0  0  0  0  0  0  0  0  0
   -1.6720   24.3290  -29.1580 C   0  0  0  0  0  0  0  0  0  0  0  0
   -0.5870   23.4840  -29.1150 C   0  0  0  0  0  0  0  0  0  0  0  0
   -0.6600   22.1230  -29.3170 C   0  0  0  0  0  0  0  0  0  0  0  0
   -1.8880   21.5310  -29.5810 C   0  0  0  0  0  0  0  0  0  0  0  0
   -2.9940   22.3460  -29.6310 C   0  0  0  0  0  0  0  0  0  0  0  0
   -2.9080   23.7240  -29.4260 C   0  0  0  0  0  0  0  0  0  0  0  0
   -4.0900   24.5980  -29.5000 C   0  0  0  0  0  0  0  0  0  0  0  0
   -4.4410   24.8540  -30.8560 N   0  0  0  0  0  0  0  0  0  0  0  0
   -5.7750   24.4540  -31.2430 C   0  0  0  0  0  0  0  0  0  0  0  0
   -5.7430   23.0940  -31.8960 C   0  0  0  0  0  0  0  0  0  0  0  0
   -4.6430   22.5710  -32.4770 N   0  0  0  0  0  0  0  0  0  0  0  0
   -4.9420   21.3590  -32.9700 N   0  0  0  0  0  0  0  0  0  0  0  0
   -6.2340   21.1360  -32.6900 C   0  0  0  0  0  0  0  0  0  0  0  0
   -7.0730   20.0390  -32.9650 C   0  0  0  0  0  0  0  0  0  0  0  0
   -6.4510   18.9000  -33.7100 C   0  0  0  0  0  0  0  0  0  0  0  0
   -8.3950   20.0350  -32.5700 C   0  0  0  0  0  0  0  0  0  0  0  0
   -8.8460   21.1500  -31.9000 C   0  0  0  0  0  0  0  0  0  0  0  0
   -8.0300   22.2320  -31.6250 C   0  0  0  0  0  0  0  0  0  0  0  0
   -6.7560   22.2080  -32.0180 N   0  0  0  0  0  0  0  0  0  0  0  0
   -0.8422   26.2444  -25.7413 H   0  0  0  0  0  0  0  0  0  0  0  0
   -2.4065   26.7714  -26.4497 H   0  0  0  0  0  0  0  0  0  0  0  0
   -1.9616   25.0311  -26.4497 H   0  0  0  0  0  0  0  0  0  0  0  0
   -0.7804   27.3029  -28.0542 H   0  0  0  0  0  0  0  0  0  0  0  0
    0.0337   25.6703  -27.8190 H   0  0  0  0  0  0  0  0  0  0  0  0
    0.4001   23.9223  -28.9064 H   0  0  0  0  0  0  0  0  0  0  0  0
    0.2507   21.5080  -29.2693 H   0  0  0  0  0  0  0  0  0  0  0  0
   -1.9730   20.4466  -29.7446 H   0  0  0  0  0  0  0  0  0  0  0  0
   -3.9770   21.8984  -29.8390 H   0  0  0  0  0  0  0  0  0  0  0  0
   -4.9347   24.1070  -28.9946 H   0  0  0  0  0  0  0  0  0  0  0  0
   -3.8553   25.5536  -29.0084 H   0  0  0  0  0  0  0  0  0  0  0  0
   -3.7130   24.5590  -31.5430 H   0  0  0  0  0  0  0  0  0  0  0  0
   -6.4155   24.4130  -30.3496 H   0  0  0  0  0  0  0  0  0  0  0  0
   -6.1755   25.1865  -31.9593 H   0  0  0  0  0  0  0  0  0  0  0  0
   -6.0511   18.1678  -32.9931 H   0  0  0  0  0  0  0  0  0  0  0  0
   -7.2106   18.4170  -34.3423 H   0  0  0  0  0  0  0  0  0  0  0  0
   -5.6341   19.2780  -34.3423 H   0  0  0  0  0  0  0  0  0  0  0  0
   -9.0568   19.1819  -32.7803 H   0  0  0  0  0  0  0  0  0  0  0  0
   -9.8952   21.1813  -31.5710 H   0  0  0  0  0  0  0  0  0  0  0  0
   -8.4283   23.1048  -31.0868 H   0  0  0  0  0  0  0  0  0  0  0  0
  1  2  1  0
  2  3  1  0
  3  4  1  0
  4  5  2  0
  5  6  1  0
  6  7  2  0
  7  8  1  0
  8  9  2  0
  9 10  1  0
 10 11  1  0
 11 12  1  0
 12 13  1  0
 13 14  2  0
 14 15  1  0
 15 16  2  0
 16 17  1  0
 17 18  1  0
 17 19  2  0
 19 20  1  0
 20 21  2  0
 21 22  1  0
  9  4  1  0
 22 13  1  0
 22 16  1  0
  1 23  1  0
  1 24  1  0
  1 25  1  0
  2 26  1  0
  2 27  1  0
  5 28  1  0
  6 29  1  0
  7 30  1  0
  8 31  1  0
 10 32  1  0
 10 33  1  0
 11 34  1  0
 12 35  1  0
 12 36  1  0
 18 37  1  0
 18 38  1  0
 18 39  1  0
 19 40  1  0
 20 41  1  0
 21 42  1  0
M  END
>  <smiles>  (5) 
CCOc1ccccc1CNCc1nnc2c(C)cccn12

>  <score_type>  (5) 
oracle

>  <origin>  (5) 
adg

>  <m_score__min__energy>  (5) 
-8.8399999999999999

>  <m_primary>  (5) 
energy

$$$$
5:0
     RDKit          3D

 46 49  0  0  0  0  0  0  0  0999 V2000
    0.3010   19.7350  -35.2830 C   0  0  0  0  0  0  0  0  0  0  0  0
    0.2900   21.2460  -35.5570 C   0  0  0  0  0  0  0  0  0  0  0  0
   -0.2630   21.9000  -34.4150 N   0  0  0  0  0  0  0  0  0  0  0  0
   -0.1420   21.1730  -33.1690 C   0  0  0  0  0  0  0  0  0  0  0  0
   -1.4950   20.7660  -32.6910 C   0  0  0  0  0  0  0  0  0  0  0  0
   -2.5260   20.6870  -33.6650 N   0  0  0  0  0  0  0  0  0  0  0  0
   -3.7250   19.9370  -33.5260 C   0  0  0  0  0  0  0  0  0  0  0  0
   -3.6960   18.5980  -33.8640 C   0  0  0  0  0  0  0  0  0  0  0  0
   -2.5310   18.0710  -34.3140 C   0  0  0  0  0  0  0  0  0  0  0  0
   -2.4850   16.7450  -34.6700 C   0  0  0  0  0  0  0  0  0  0  0  0
   -3.6460   16.0250  -34.5460 C   0  0  0  0  0  0  0  0  0  0  0  0
   -4.8380   16.5760  -34.0830 C   0  0  0  0  0  0  0  0  0  0  0  0
   -4.8940   17.9280  -33.7150 C   0  0  0  0  0  0  0  0  0  0  0  0
   -6.0340   18.4650  -33.2830 N   0  0  0  0  0  0  0  0  0  0  0  0
   -7.1720   17.5980  -33.0990 C   0  0  0  0  0  0  0  0  0  0  0  0
   -6.0980   19.8160  -32.9390 C   0  0  0  0  0  0  0  0  0  0  0  0
   -4.9090   20.4450  -33.0940 C   0  0  0  0  0  0  0  0  0  0  0  0
   -5.1210   22.1430  -32.6340 S   0  0  0  0  0  0  0  0  0  0  0  0
   -6.8820   21.8920  -32.2480 C   0  0  0  0  0  0  0  0  0  0  0  0
   -7.7700   22.8440  -31.8140 C   0  0  0  0  0  0  0  0  0  0  0  0
   -9.0880   22.4890  -31.5880 C   0  0  0  0  0  0  0  0  0  0  0  0
   -9.4040   21.1880  -31.8240 C   0  0  0  0  0  0  0  0  0  0  0  0
   -8.5000   20.2290  -32.2630 C   0  0  0  0  0  0  0  0  0  0  0  0
   -7.1490   20.5600  -32.4980 C   0  0  0  0  0  0  0  0  0  0  0  0
    0.3023   19.5593  -34.1971 H   0  0  0  0  0  0  0  0  0  0  0  0
   -0.5938   19.2752  -35.7278 H   0  0  0  0  0  0  0  0  0  0  0  0
    1.2024   19.2882  -35.7278 H   0  0  0  0  0  0  0  0  0  0  0  0
    1.3168   21.6011  -35.7292 H   0  0  0  0  0  0  0  0  0  0  0  0
   -0.3117   21.4667  -36.4510 H   0  0  0  0  0  0  0  0  0  0  0  0
   -1.2980   22.0420  -34.6250 H   0  0  0  0  0  0  0  0  0  0  0  0
    0.4749   20.2762  -33.3274 H   0  0  0  0  0  0  0  0  0  0  0  0
    0.3317   21.8188  -32.4150 H   0  0  0  0  0  0  0  0  0  0  0  0
   -1.3986   19.7727  -32.2284 H   0  0  0  0  0  0  0  0  0  0  0  0
   -1.8094   21.5676  -32.0065 H   0  0  0  0  0  0  0  0  0  0  0  0
   -2.4390   21.2120  -34.5890 H   0  0  0  0  0  0  0  0  0  0  0  0
   -1.6313   18.6989  -34.3933 H   0  0  0  0  0  0  0  0  0  0  0  0
   -1.5581   16.2811  -35.0382 H   0  0  0  0  0  0  0  0  0  0  0  0
   -3.6348   14.9612  -34.8258 H   0  0  0  0  0  0  0  0  0  0  0  0
   -5.7384   15.9489  -34.0057 H   0  0  0  0  0  0  0  0  0  0  0  0
   -7.3560   17.4578  -32.0236 H   0  0  0  0  0  0  0  0  0  0  0  0
   -8.0582   18.0519  -33.5665 H   0  0  0  0  0  0  0  0  0  0  0  0
   -6.9696   16.6231  -33.5665 H   0  0  0  0  0  0  0  0  0  0  0  0
   -7.4372   23.8791  -31.6474 H   0  0  0  0  0  0  0  0  0  0  0  0
   -9.8356   23.2161  -31.2382 H   0  0  0  0  0  0  0  0  0  0  0  0
  -10.4447   20.8738  -31.6562 H   0  0  0  0  0  0  0  0  0  0  0  0
   -8.8424   19.1970  -32.4297 H   0  0  0  0  0  0  0  0  0  0  0  0
  1  2  1  0
  2  3  1  0
  3  4  1  0
  4  5  1  0
  5  6  1  0
  6  7  1  0
  7  8  2  0
  8  9  1  0
  9 10  2  0
 10 11  1  0
 11 12  2  0
 12 13  1  0
 13 14  2  0
 14 15  1  0
 14 16  1  0
 16 17  2  0
 17 18  1  0
 18 19  1  0
 19 20  2  0
 20 21  1  0
 21 22  2  0
 22 23  1  0
 23 24  2  0
 17  7  1  0
 24 19  1  0
 13  8  1  0
 24 16  1  0
  1 25  1  0
  1 26  1  0
  1 27  1  0
  2 28  1  0
  2 29  1  0
  3 30  1  0
  4 31  1  0
  4 32  1  0
  5 33  1  0
  5 34  1  0
  6 35  1  0
  9 36  1  0
 10 37  1  0
 11 38  1  0
 12 39  1  0
 15 40  1  0
 15 41  1  0
 15 42  1  0
 20 43  1  0
 21 44  1  0
 22 45  1  0
 23 46  1  0
M  CHG  1  14   1
M  END
>  <smiles>  (6) 
CCNCCNc1c2ccccc2[n+](C)c2c1sc1ccccc12

>  <score_type>  (6) 
oracle

>  <origin>  (6) 
adg

>  <m_score__min__energy>  (6) 
-9.1300000000000008

>  <m_primary>  (6) 
energy

$$$$
6:0
     RDKit          3D

 36 36  0  0  0  0  0  0  0  0999 V2000
   -9.4820   20.3960  -32.3160 C   0  0  0  0  0  0  0  0  0  0  0  0
   -8.7170   19.5660  -31.3380 C   0  0  0  0  0  0  0  0  0  0  0  0
   -8.2040   18.2590  -31.9010 C   0  0  0  0  0  0  0  0  0  0  0  0
   -6.7620   18.3010  -32.2590 C   0  0  0  0  0  0  0  0  0  0  0  0
   -6.6440   18.9280  -33.5830 N   0  0  0  0  0  0  0  0  0  0  0  0
   -5.7590   20.0780  -33.5080 C   0  0  0  0  0  0  0  0  0  0  0  0
   -5.1850   20.3170  -32.1330 C   0  0  0  0  0  0  0  0  0  0  0  0
   -5.5830   21.6810  -31.7900 N   0  0  0  0  0  0  0  0  0  0  0  0
   -6.7620   22.1030  -32.3380 C   0  0  0  0  0  0  0  0  0  0  0  0
   -7.2480   23.3820  -32.1040 C   0  0  0  0  0  0  0  0  0  0  0  0
   -6.5120   24.2150  -31.3030 C   0  0  0  0  0  0  0  0  0  0  0  0
   -5.3300   23.7470  -30.7700 C   0  0  0  0  0  0  0  0  0  0  0  0
   -4.5380   24.6580  -29.8990 C   0  0  0  0  0  0  0  0  0  0  0  0
   -3.8680   25.6180  -30.6920 O   0  0  0  0  0  0  0  0  0  0  0  0
   -4.8500   22.4790  -31.0040 C   0  0  0  0  0  0  0  0  0  0  0  0
  -10.1301   21.0991  -31.7723 H   0  0  0  0  0  0  0  0  0  0  0  0
   -8.7793   20.9588  -32.9480 H   0  0  0  0  0  0  0  0  0  0  0  0
  -10.1001   19.7414  -32.9480 H   0  0  0  0  0  0  0  0  0  0  0  0
   -7.8549   20.1527  -30.9877 H   0  0  0  0  0  0  0  0  0  0  0  0
   -9.4151   19.3087  -30.5278 H   0  0  0  0  0  0  0  0  0  0  0  0
   -8.3544   17.4711  -31.1482 H   0  0  0  0  0  0  0  0  0  0  0  0
   -8.7646   18.0594  -32.8261 H   0  0  0  0  0  0  0  0  0  0  0  0
   -6.2090   18.8926  -31.5145 H   0  0  0  0  0  0  0  0  0  0  0  0
   -6.3417   17.2846  -32.2772 H   0  0  0  0  0  0  0  0  0  0  0  0
   -7.5600   19.2960  -33.9050 H   0  0  0  0  0  0  0  0  0  0  0  0
   -4.9259   19.9206  -34.2089 H   0  0  0  0  0  0  0  0  0  0  0  0
   -6.3616   20.9627  -33.7615 H   0  0  0  0  0  0  0  0  0  0  0  0
   -5.6006   19.5995  -31.4102 H   0  0  0  0  0  0  0  0  0  0  0  0
   -4.0929   20.1872  -32.1124 H   0  0  0  0  0  0  0  0  0  0  0  0
   -7.3366   21.4160  -32.9766 H   0  0  0  0  0  0  0  0  0  0  0  0
   -8.1966   23.7171  -32.5488 H   0  0  0  0  0  0  0  0  0  0  0  0
   -6.8575   25.2372  -31.0894 H   0  0  0  0  0  0  0  0  0  0  0  0
   -5.2129   25.1707  -29.1978 H   0  0  0  0  0  0  0  0  0  0  0  0
   -3.7968   24.0699  -29.3379 H   0  0  0  0  0  0  0  0  0  0  0  0
   -4.2380   25.6320  -31.6000 H   0  0  0  0  0  0  0  0  0  0  0  0
   -3.9027   22.1351  -30.5632 H   0  0  0  0  0  0  0  0  0  0  0  0
  1  2  1  0
  2  3  1  0
  3  4  1  0
  4  5  1  0
  5  6  1  0
  6  7  1  0
  7  8  1  0
  8  9  2  0
  9 10  1  0
 10 11  2  0
 11 12  1  0
 12 13  1  0
 13 14  1  0
 12 15  2  0
 15  8  1  0
  1 16  1  0
  1 17  1  0
  1 18  1  0
  2 19  1  0
  2 20  1  0
  3 21  1  0
  3 22  1  0
  4 23  1  0
  4 24  1  0
  5 25  1  0
  6 26  1  0
  6 27  1  0
  7 28  1  0
  7 29  1  0
  9 30  1  0
 10 31  1  0
 11 32  1  0
 13 33  1  0
 13 34  1  0
 14 35  1  0
 15 36  1  0
M  CHG  1   8   1
M  END
>  <smiles>  (7) 
CCCCNCC[n+]1cccc(CO)c1

>  <score_type>  (7) 
oracle

>  <origin>  (7) 
adg

>  <m_score__min__energy>  (7) 
-6.1799999999999997

>  <m_primary>  (7) 
energy

$$$$
7:0
     RDKit          3D

 65 67  0  0  0  0  0  0  0  0999 V2000
   -3.8000   23.2980  -28.3750 C   0  0  0  0  0  0  0  0  0  0  0  0
   -3.5290   24.5400  -29.1820 C   0  0  0  0  0  0  0  0  0  0  0  0
   -4.1310   24.5560  -30.4590 N   0  0  0  0  0  0  0  0  0  0  0  0
   -5.2060   25.4510  -30.6740 C   0  0  0  0  0  0  0  0  0  0  0  0
   -6.1540   25.4990  -29.4890 C   0  0  0  0  0  0  0  0  0  0  0  0
   -4.1610   23.3120  -31.1780 C   0  0  0  0  0  0  0  0  0  0  0  0
   -5.5780   22.9280  -31.3500 C   0  0  0  0  0  0  0  0  0  0  0  0
   -5.9700   22.4210  -32.6380 N   0  0  0  0  0  0  0  0  0  0  0  0
   -5.9250   21.0000  -32.8090 C   0  0  0  0  0  0  0  0  0  0  0  0
   -7.0750   20.2500  -32.5650 C   0  0  0  0  0  0  0  0  0  0  0  0
   -8.2170   20.8920  -32.1320 C   0  0  0  0  0  0  0  0  0  0  0  0
   -9.3840   20.2070  -31.8610 C   0  0  0  0  0  0  0  0  0  0  0  0
   -9.3670   18.8460  -32.0390 C   0  0  0  0  0  0  0  0  0  0  0  0
   -8.2270   18.1830  -32.4730 C   0  0  0  0  0  0  0  0  0  0  0  0
   -7.0410   18.8720  -32.7500 C   0  0  0  0  0  0  0  0  0  0  0  0
   -5.9300   18.2260  -33.1590 N   0  0  0  0  0  0  0  0  0  0  0  0
   -6.0240   16.7980  -33.3390 C   0  0  0  0  0  0  0  0  0  0  0  0
   -4.8400   18.9600  -33.3840 C   0  0  0  0  0  0  0  0  0  0  0  0
   -3.6750   18.3280  -33.7720 C   0  0  0  0  0  0  0  0  0  0  0  0
   -2.5000   19.0440  -33.9910 C   0  0  0  0  0  0  0  0  0  0  0  0
   -2.4350   20.4100  -33.8360 C   0  0  0  0  0  0  0  0  0  0  0  0
   -1.2540   21.1720  -34.0500 N   0  0  0  0  0  0  0  0  0  0  0  0
    0.0420   20.8350  -33.5180 C   0  0  0  0  0  0  0  0  0  0  0  0
    1.2130   21.4100  -34.2310 C   0  0  0  0  0  0  0  0  0  0  0  0
    0.7280   22.2940  -35.2810 N   0  0  0  0  0  0  0  0  0  0  0  0
    0.3500   21.5380  -36.4650 C   0  0  0  0  0  0  0  0  0  0  0  0
    1.7550   23.2600  -35.6550 C   0  0  0  0  0  0  0  0  0  0  0  0
   -3.6170   21.0330  -33.4450 C   0  0  0  0  0  0  0  0  0  0  0  0
   -4.7870   20.3370  -33.2250 C   0  0  0  0  0  0  0  0  0  0  0  0
   -3.7475   23.5386  -27.3029 H   0  0  0  0  0  0  0  0  0  0  0  0
   -4.8027   22.9155  -28.6163 H   0  0  0  0  0  0  0  0  0  0  0  0
   -3.0477   22.5326  -28.6163 H   0  0  0  0  0  0  0  0  0  0  0  0
   -3.9036   25.4054  -28.6156 H   0  0  0  0  0  0  0  0  0  0  0  0
   -2.4423   24.5708  -29.3500 H   0  0  0  0  0  0  0  0  0  0  0  0
   -4.7998   26.4589  -30.8445 H   0  0  0  0  0  0  0  0  0  0  0  0
   -5.7728   25.0965  -31.5475 H   0  0  0  0  0  0  0  0  0  0  0  0
   -5.5745   25.4697  -28.5545 H   0  0  0  0  0  0  0  0  0  0  0  0
   -6.7417   26.4281  -29.5270 H   0  0  0  0  0  0  0  0  0  0  0  0
   -6.8326   24.6341  -29.5270 H   0  0  0  0  0  0  0  0  0  0  0  0
   -3.6841   23.4358  -32.1615 H   0  0  0  0  0  0  0  0  0  0  0  0
   -3.6146   22.5336  -30.6252 H   0  0  0  0  0  0  0  0  0  0  0  0
   -5.8027   22.1499  -30.6057 H   0  0  0  0  0  0  0  0  0  0  0  0
   -6.1422   23.8647  -31.2303 H   0  0  0  0  0  0  0  0  0  0  0  0
   -6.2810   23.0240  -33.4450 H   0  0  0  0  0  0  0  0  0  0  0  0
   -8.1966   21.9837  -31.9987 H   0  0  0  0  0  0  0  0  0  0  0  0
  -10.2890   20.7292  -31.5171 H   0  0  0  0  0  0  0  0  0  0  0  0
  -10.2789   18.2665  -31.8327 H   0  0  0  0  0  0  0  0  0  0  0  0
   -8.2568   17.0910  -32.6021 H   0  0  0  0  0  0  0  0  0  0  0  0
   -6.0564   16.3058  -32.3558 H   0  0  0  0  0  0  0  0  0  0  0  0
   -6.9399   16.5586  -33.8993 H   0  0  0  0  0  0  0  0  0  0  0  0
   -5.1474   16.4406  -33.8993 H   0  0  0  0  0  0  0  0  0  0  0  0
   -3.6747   17.2368  -33.9110 H   0  0  0  0  0  0  0  0  0  0  0  0
   -1.5947   18.4997  -34.2978 H   0  0  0  0  0  0  0  0  0  0  0  0
   -1.3510   22.0450  -34.6440 H   0  0  0  0  0  0  0  0  0  0  0  0
    0.0785   21.1849  -32.4758 H   0  0  0  0  0  0  0  0  0  0  0  0
    0.1333   19.7448  -33.6326 H   0  0  0  0  0  0  0  0  0  0  0  0
    1.8343   21.9797  -33.5243 H   0  0  0  0  0  0  0  0  0  0  0  0
    1.8201   20.6038  -34.6686 H   0  0  0  0  0  0  0  0  0  0  0  0
   -0.1228   20.5925  -36.1609 H   0  0  0  0  0  0  0  0  0  0  0  0
   -0.3599   22.1266  -37.0647 H   0  0  0  0  0  0  0  0  0  0  0  0
    1.2468   21.3233  -37.0647 H   0  0  0  0  0  0  0  0  0  0  0  0
    2.2068   23.6850  -34.7466 H   0  0  0  0  0  0  0  0  0  0  0  0
    2.5317   22.7575  -36.2502 H   0  0  0  0  0  0  0  0  0  0  0  0
    1.3010   24.0659  -36.2502 H   0  0  0  0  0  0  0  0  0  0  0  0
   -3.6177   22.1242  -33.3060 H   0  0  0  0  0  0  0  0  0  0  0  0
  1  2  1  0
  2  3  1  0
  3  4  1  0
  4  5  1  0
  3  6  1  0
  6  7  1  0
  7  8  1  0
  8  9  1  0
  9 10  2  0
 10 11  1  0
 11 12  2  0
 12 13  1  0
 13 14  2  0
 14 15  1  0
 15 16  2  0
 16 17  1  0
 16 18  1  0
 18 19  2  0
 19 20  1  0
 20 21  2  0
 21 22  1  0
 22 23  1  0
 23 24  1  0
 24 25  1  0
 25 26  1  0
 25 27  1  0
 21 28  1  0
 28 29  2  0
 29  9  1  0
 15 10  1  0
 29 18  1  0
  1 30  1  0
  1 31  1  0
  1 32  1  0
  2 33  1  0
  2 34  1  0
  4 35  1  0
  4 36  1  0
  5 37  1  0
  5 38  1  0
  5 39  1  0
  6 40  1  0
  6 41  1  0
  7 42  1  0
  7 43  1  0
  8 44  1  0
 11 45  1  0
 12 46  1  0
 13 47  1  0
 14 48  1  0
 17 49  1  0
 17 50  1  0
 17 51  1  0
 19 52  1  0
 20 53  1  0
 22 54  1  0
 23 55  1  0
 23 56  1  0
 24 57  1  0
 24 58  1  0
 26 59  1  0
 26 60  1  0
 26 61  1  0
 27 62  1  0
 27 63  1  0
 27 64  1  0
 28 65  1  0
M  CHG  1  16   1
M  END
>  <smiles>  (8) 
CCN(CC)CCNc1c2ccccc2[n+](C)c2ccc(NCCN(C)C)cc12

>  <score_type>  (8) 
oracle

>  <origin>  (8) 
adg

>  <m_score__min__energy>  (8) 
-9.3499999999999996

>  <m_primary>  (8) 
energy

$$$$
8:0
     RDKit          3D

 56 58  0  0  0  0  0  0  0  0999 V2000
   -1.2920   20.3320  -30.1070 C   0  0  0  0  0  0  0  0  0  0  0  0
   -1.1240   21.7850  -30.4840 C   0  0  0  0  0  0  0  0  0  0  0  0
   -2.3640   22.5400  -30.3780 N   0  0  0  0  0  0  0  0  0  0  0  0
   -3.2910   21.7730  -29.5280 C   0  0  0  0  0  0  0  0  0  0  0  0
   -2.1540   23.7860  -29.6630 C   0  0  0  0  0  0  0  0  0  0  0  0
   -3.4250   24.5040  -29.3600 C   0  0  0  0  0  0  0  0  0  0  0  0
   -3.8690   25.2280  -30.4430 O   0  0  0  0  0  0  0  0  0  0  0  0
   -5.2030   25.5650  -30.3790 C   0  0  0  0  0  0  0  0  0  0  0  0
   -6.1140   24.7950  -31.2760 C   0  0  0  0  0  0  0  0  0  0  0  0
   -5.5540   23.3960  -31.3850 C   0  0  0  0  0  0  0  0  0  0  0  0
   -6.0460   22.6780  -32.5610 N   0  0  0  0  0  0  0  0  0  0  0  0
   -5.8940   21.2660  -32.6650 C   0  0  0  0  0  0  0  0  0  0  0  0
   -4.6510   20.7300  -32.9820 C   0  0  0  0  0  0  0  0  0  0  0  0
   -3.5740   21.5710  -33.1660 C   0  0  0  0  0  0  0  0  0  0  0  0
   -2.3090   21.1070  -33.4750 C   0  0  0  0  0  0  0  0  0  0  0  0
   -2.1620   19.7440  -33.5950 C   0  0  0  0  0  0  0  0  0  0  0  0
   -3.2200   18.8740  -33.4170 C   0  0  0  0  0  0  0  0  0  0  0  0
   -4.4860   19.3560  -33.1060 C   0  0  0  0  0  0  0  0  0  0  0  0
   -5.4900   18.4820  -32.9310 N   0  0  0  0  0  0  0  0  0  0  0  0
   -5.3880   17.0640  -33.0450 C   0  0  0  0  0  0  0  0  0  0  0  0
   -6.7120   18.9900  -32.6170 C   0  0  0  0  0  0  0  0  0  0  0  0
   -7.7830   18.1300  -32.4000 C   0  0  0  0  0  0  0  0  0  0  0  0
   -9.0410   18.5760  -32.0560 C   0  0  0  0  0  0  0  0  0  0  0  0
   -9.2280   19.9320  -31.9250 C   0  0  0  0  0  0  0  0  0  0  0  0
   -8.1690   20.8090  -32.1390 C   0  0  0  0  0  0  0  0  0  0  0  0
   -8.5240   22.5060  -31.8800 Cl  0  0  0  0  0  0  0  0  0  0  0  0
   -6.9150   20.3630  -32.4840 C   0  0  0  0  0  0  0  0  0  0  0  0
   -1.3031   20.2364  -29.0112 H   0  0  0  0  0  0  0  0  0  0  0  0
   -2.2398   19.9539  -30.5176 H   0  0  0  0  0  0  0  0  0  0  0  0
   -0.4554   19.7476  -30.5176 H   0  0  0  0  0  0  0  0  0  0  0  0
   -0.3778   22.2382  -29.8148 H   0  0  0  0  0  0  0  0  0  0  0  0
   -0.8024   21.8204  -31.5353 H   0  0  0  0  0  0  0  0  0  0  0  0
   -3.0607   21.9636  -28.4694 H   0  0  0  0  0  0  0  0  0  0  0  0
   -4.3248   22.0833  -29.7399 H   0  0  0  0  0  0  0  0  0  0  0  0
   -3.1797   20.6994  -29.7399 H   0  0  0  0  0  0  0  0  0  0  0  0
   -1.6418   23.5644  -28.7151 H   0  0  0  0  0  0  0  0  0  0  0  0
   -1.5524   24.4403  -30.3110 H   0  0  0  0  0  0  0  0  0  0  0  0
   -4.1938   23.7674  -29.0837 H   0  0  0  0  0  0  0  0  0  0  0  0
   -3.2357   25.2039  -28.5327 H   0  0  0  0  0  0  0  0  0  0  0  0
   -5.5402   25.4107  -29.3434 H   0  0  0  0  0  0  0  0  0  0  0  0
   -5.2627   26.6092  -30.7197 H   0  0  0  0  0  0  0  0  0  0  0  0
   -7.1268   24.7635  -30.8478 H   0  0  0  0  0  0  0  0  0  0  0  0
   -6.1791   25.2684  -32.2668 H   0  0  0  0  0  0  0  0  0  0  0  0
   -4.4576   23.4601  -31.4457 H   0  0  0  0  0  0  0  0  0  0  0  0
   -5.8817   22.8380  -30.4954 H   0  0  0  0  0  0  0  0  0  0  0  0
   -6.5040   23.2270  -33.3080 H   0  0  0  0  0  0  0  0  0  0  0  0
   -3.7276   22.6553  -33.0627 H   0  0  0  0  0  0  0  0  0  0  0  0
   -1.4615   21.7936  -33.6179 H   0  0  0  0  0  0  0  0  0  0  0  0
   -1.1710   19.3345  -33.8403 H   0  0  0  0  0  0  0  0  0  0  0  0
   -3.0593   17.7909  -33.5222 H   0  0  0  0  0  0  0  0  0  0  0  0
   -5.3558   16.6168  -32.0405 H   0  0  0  0  0  0  0  0  0  0  0  0
   -6.2606   16.6763  -33.5912 H   0  0  0  0  0  0  0  0  0  0  0  0
   -4.4689   16.8052  -33.5912 H   0  0  0  0  0  0  0  0  0  0  0  0
   -7.6192   17.0476  -32.5075 H   0  0  0  0  0  0  0  0  0  0  0  0
   -9.8685   17.8701  -31.8916 H   0  0  0  0  0  0  0  0  0  0  0  0
  -10.2180   20.3248  -31.6501 H   0  0  0  0  0  0  0  0  0  0  0  0
  1  2  1  0
  2  3  1  0
  3  4  1  0
  3  5  1  0
  5  6  1  0
  6  7  1  0
  7  8  1  0
  8  9  1  0
  9 10  1  0
 10 11  1  0
 11 12  1  0
 12 13  2  0
 13 14  1  0
 14 15  2  0
 15 16  1  0
 16 17  2  0
 17 18  1  0
 18 19  2  0
 19 20  1  0
 19 21  1  0
 21 22  2  0
 22 23  1  0
 23 24  2  0
 24 25  1  0
 25 26  1  0
 25 27  2  0
 27 12  1  0
 18 13  1  0
 27 21  1  0
  1 28  1  0
  1 29  1  0
  1 30  1  0
  2 31  1  0
  2 32  1  0
  4 33  1  0
  4 34  1  0
  4 35  1  0
  5 36  1  0
  5 37  1  0
  6 38  1  0
  6 39  1  0
  8 40  1  0
  8 41  1  0
  9 42  1  0
  9 43  1  0
 10 44  1  0
 10 45  1  0
 11 46  1  0
 14 47  1  0
 15 48  1  0
 16 49  1  0
 17 50  1  0
 20 51  1  0
 20 52  1  0
 20 53  1  0
 22 54  1  0
 23 55  1  0
 24 56  1  0
M  CHG  1  19   1
M  END
>  <smiles>  (9) 
CCN(C)CCOCCCNc1c2ccccc2[n+](C)c2cccc(Cl)c12

>  <score_type>  (9) 
oracle

>  <origin>  (9) 
adg

>  <m_score__min__energy>  (9) 
-9.1400000000000006

>  <m_primary>  (9) 
energy

$$$$
9:0
     RDKit          3D

 48 49  0  0  0  0  0  0  0  0999 V2000
   -3.6910   24.1070  -29.9330 C   0  0  0  0  0  0  0  0  0  0  0  0
   -4.6830   24.6360  -30.8310 N   0  0  0  0  0  0  0  0  0  0  0  0
   -5.4920   25.6760  -30.2890 C   0  0  0  0  0  0  0  0  0  0  0  0
   -5.4080   23.6160  -31.5590 C   0  0  0  0  0  0  0  0  0  0  0  0
   -6.9040   23.7310  -31.3820 C   0  0  0  0  0  0  0  0  0  0  0  0
   -7.5960   22.6420  -32.2090 C   0  0  0  0  0  0  0  0  0  0  0  0
   -8.9540   22.4250  -31.5970 C   0  0  0  0  0  0  0  0  0  0  0  0
   -9.0910   21.0550  -30.9540 C   0  0  0  0  0  0  0  0  0  0  0  0
   -9.1840   20.0570  -32.0710 C   0  0  0  0  0  0  0  0  0  0  0  0
   -7.9020   19.3210  -32.2670 C   0  0  0  0  0  0  0  0  0  0  0  0
   -7.4950   18.6350  -31.3160 O   0  0  0  0  0  0  0  0  0  0  0  0
   -7.2010   19.4110  -33.4820 N   0  0  0  0  0  0  0  0  0  0  0  0
   -5.9800   18.7630  -33.7890 C   0  0  0  0  0  0  0  0  0  0  0  0
   -5.8870   17.4850  -34.2920 C   0  0  0  0  0  0  0  0  0  0  0  0
   -4.6680   16.8750  -34.5910 C   0  0  0  0  0  0  0  0  0  0  0  0
   -3.4860   17.5360  -34.3950 C   0  0  0  0  0  0  0  0  0  0  0  0
   -3.5650   18.8250  -33.8880 C   0  0  0  0  0  0  0  0  0  0  0  0
   -2.3530   19.4630  -33.7030 C   0  0  0  0  0  0  0  0  0  0  0  0
   -2.3300   20.7420  -33.2080 C   0  0  0  0  0  0  0  0  0  0  0  0
   -3.5030   21.3820  -32.8990 C   0  0  0  0  0  0  0  0  0  0  0  0
   -4.7100   20.7150  -33.0950 C   0  0  0  0  0  0  0  0  0  0  0  0
   -4.7810   19.4310  -33.5910 C   0  0  0  0  0  0  0  0  0  0  0  0
   -4.0093   24.2768  -28.8938 H   0  0  0  0  0  0  0  0  0  0  0  0
   -3.5753   23.0274  -30.1093 H   0  0  0  0  0  0  0  0  0  0  0  0
   -2.7300   24.6124  -30.1093 H   0  0  0  0  0  0  0  0  0  0  0  0
   -5.4580   25.6322  -29.1904 H   0  0  0  0  0  0  0  0  0  0  0  0
   -5.1124   26.6508  -30.6291 H   0  0  0  0  0  0  0  0  0  0  0  0
   -6.5302   25.5479  -30.6291 H   0  0  0  0  0  0  0  0  0  0  0  0
   -5.1712   23.7108  -32.6290 H   0  0  0  0  0  0  0  0  0  0  0  0
   -5.0988   22.6382  -31.1611 H   0  0  0  0  0  0  0  0  0  0  0  0
   -7.1594   23.6039  -30.3196 H   0  0  0  0  0  0  0  0  0  0  0  0
   -7.2406   24.7218  -31.7213 H   0  0  0  0  0  0  0  0  0  0  0  0
   -7.6999   22.9693  -33.2540 H   0  0  0  0  0  0  0  0  0  0  0  0
   -7.0090   21.7117  -32.2049 H   0  0  0  0  0  0  0  0  0  0  0  0
   -9.1212   23.1937  -30.8282 H   0  0  0  0  0  0  0  0  0  0  0  0
   -9.6985   22.4911  -32.4041 H   0  0  0  0  0  0  0  0  0  0  0  0
   -8.2122   20.8413  -30.3279 H   0  0  0  0  0  0  0  0  0  0  0  0
   -9.9815   21.0094  -30.3099 H   0  0  0  0  0  0  0  0  0  0  0  0
   -9.9776   19.3326  -31.8355 H   0  0  0  0  0  0  0  0  0  0  0  0
   -9.4087   20.6036  -32.9988 H   0  0  0  0  0  0  0  0  0  0  0  0
   -7.6600   20.0320  -34.2100 H   0  0  0  0  0  0  0  0  0  0  0  0
   -6.8144   16.9197  -34.4659 H   0  0  0  0  0  0  0  0  0  0  0  0
   -4.6572   15.8497  -34.9893 H   0  0  0  0  0  0  0  0  0  0  0  0
   -2.5186   17.0674  -34.6285 H   0  0  0  0  0  0  0  0  0  0  0  0
   -1.4130   18.9484  -33.9511 H   0  0  0  0  0  0  0  0  0  0  0  0
   -1.3687   21.2555  -33.0586 H   0  0  0  0  0  0  0  0  0  0  0  0
   -3.4908   22.4078  -32.5019 H   0  0  0  0  0  0  0  0  0  0  0  0
   -5.6461   21.2350  -32.8433 H   0  0  0  0  0  0  0  0  0  0  0  0
  1  2  1  0
  2  3  1  0
  2  4  1  0
  4  5  1  0
  5  6  1  0
  6  7  1  0
  7  8  1  0
  8  9  1  0
  9 10  1  0
 10 11  2  0
 10 12  1  0
 12 13  1  0
 13 14  2  0
 14 15  1  0
 15 16  2  0
 16 17  1  0
 17 18  2  0
 18 19  1  0
 19 20  2  0
 20 21  1  0
 21 22  2  0
 22 13  1  0
 22 17  1  0
  1 23  1  0
  1 24  1  0
  1 25  1  0
  3 26  1  0
  3 27  1  0
  3 28  1  0
  4 29  1  0
  4 30  1  0
  5 31  1  0
  5 32  1  0
  6 33  1  0
  6 34  1  0
  7 35  1  0
  7 36  1  0
  8 37  1  0
  8 38  1  0
  9 39  1  0
  9 40  1  0
 12 41  1  0
 14 42  1  0
 15 43  1  0
 16 44  1  0
 18 45  1  0
 19 46  1  0
 20 47  1  0
 21 48  1  0
M  END
>  <smiles>  (10) 
CN(C)CCCCCCC(=O)Nc1cccc2ccccc12

>  <score_type>  (10) 
oracle

>  <origin>  (10) 
adg

>  <m_score__min__energy>  (10) 
-8.4199999999999999

>  <m_primary>  (10) 
energy

$$$$
10:0
     RDKit          3D

 48 49  0  0  0  0  0  0  0  0999 V2000
   -8.0480   18.1980  -31.4940 C   0  0  0  0  0  0  0  0  0  0  0  0
   -6.8140   17.4630  -31.9150 C   0  0  0  0  0  0  0  0  0  0  0  0
   -6.6450   17.2750  -33.3140 N   0  0  0  0  0  0  0  0  0  0  0  0
   -6.8540   15.9700  -33.8260 C   0  0  0  0  0  0  0  0  0  0  0  0
   -5.4040   17.8420  -33.7530 C   0  0  0  0  0  0  0  0  0  0  0  0
   -5.5400   19.2950  -34.1670 C   0  0  0  0  0  0  0  0  0  0  0  0
   -6.6620   19.9410  -33.5320 N   0  0  0  0  0  0  0  0  0  0  0  0
   -6.4070   21.0820  -32.7280 C   0  0  0  0  0  0  0  0  0  0  0  0
   -5.1430   21.6170  -32.6420 C   0  0  0  0  0  0  0  0  0  0  0  0
   -4.8150   22.7110  -31.8740 C   0  0  0  0  0  0  0  0  0  0  0  0
   -5.8200   23.3190  -31.1340 C   0  0  0  0  0  0  0  0  0  0  0  0
   -5.3660   24.6980  -30.1670 S   0  0  0  0  0  0  0  0  0  0  0  0
   -6.5550   25.6060  -30.0870 O   0  0  0  0  0  0  0  0  0  0  0  0
   -4.2380   25.4120  -30.8330 O   0  0  0  0  0  0  0  0  0  0  0  0
   -4.9580   24.2550  -28.5540 N   0  0  0  0  0  0  0  0  0  0  0  0
   -3.7350   23.6000  -28.3030 C   0  0  0  0  0  0  0  0  0  0  0  0
   -2.5760   24.3510  -28.5440 C   0  0  0  0  0  0  0  0  0  0  0  0
   -1.3450   23.7770  -28.3160 C   0  0  0  0  0  0  0  0  0  0  0  0
   -1.2150   22.4840  -27.8560 C   0  0  0  0  0  0  0  0  0  0  0  0
   -2.3760   21.7530  -27.6220 C   0  0  0  0  0  0  0  0  0  0  0  0
   -3.6290   22.3090  -27.8450 C   0  0  0  0  0  0  0  0  0  0  0  0
   -7.0970   22.8100  -31.1960 C   0  0  0  0  0  0  0  0  0  0  0  0
   -7.3970   21.6950  -31.9880 C   0  0  0  0  0  0  0  0  0  0  0  0
   -8.7450   21.2650  -31.9720 N   0  0  0  0  0  0  0  0  0  0  0  0
   -9.5890   21.5840  -31.1220 O   0  0  0  0  0  0  0  0  0  0  0  0
   -9.1980   20.4040  -32.9730 O   0  0  0  0  0  0  0  0  0  0  0  0
   -8.0997   18.2288  -30.3956 H   0  0  0  0  0  0  0  0  0  0  0  0
   -8.0160   19.2243  -31.8885 H   0  0  0  0  0  0  0  0  0  0  0  0
   -8.9352   17.6811  -31.8885 H   0  0  0  0  0  0  0  0  0  0  0  0
   -5.9446   18.0256  -31.5440 H   0  0  0  0  0  0  0  0  0  0  0  0
   -6.9124   16.4529  -31.4908 H   0  0  0  0  0  0  0  0  0  0  0  0
   -6.9673   15.2625  -32.9914 H   0  0  0  0  0  0  0  0  0  0  0  0
   -7.7653   15.9594  -34.4420 H   0  0  0  0  0  0  0  0  0  0  0  0
   -5.9916   15.6753  -34.4420 H   0  0  0  0  0  0  0  0  0  0  0  0
   -4.6765   17.7767  -32.9305 H   0  0  0  0  0  0  0  0  0  0  0  0
   -5.0720   17.2743  -34.6347 H   0  0  0  0  0  0  0  0  0  0  0  0
   -4.6198   19.8299  -33.8891 H   0  0  0  0  0  0  0  0  0  0  0  0
   -5.7067   19.3216  -35.2540 H   0  0  0  0  0  0  0  0  0  0  0  0
   -7.6000   19.5260  -33.7010 H   0  0  0  0  0  0  0  0  0  0  0  0
   -4.3418   21.1394  -33.2251 H   0  0  0  0  0  0  0  0  0  0  0  0
   -3.7840   23.0934  -31.8472 H   0  0  0  0  0  0  0  0  0  0  0  0
   -5.5800   24.4500  -27.7280 H   0  0  0  0  0  0  0  0  0  0  0  0
   -2.6489   25.3856  -28.9105 H   0  0  0  0  0  0  0  0  0  0  0  0
   -0.4375   24.3686  -28.5069 H   0  0  0  0  0  0  0  0  0  0  0  0
   -0.2229   22.0430  -27.6791 H   0  0  0  0  0  0  0  0  0  0  0  0
   -2.3000   20.7189  -27.2548 H   0  0  0  0  0  0  0  0  0  0  0  0
   -4.5359   21.7162  -27.6551 H   0  0  0  0  0  0  0  0  0  0  0  0
   -7.8973   23.2882  -30.6122 H   0  0  0  0  0  0  0  0  0  0  0  0
  1  2  1  0
  2  3  1  0
  3  4  1  0
  3  5  1  0
  5  6  1  0
  6  7  1  0
  7  8  1  0
  8  9  2  0
  9 10  1  0
 10 11  2  0
 11 12  1  0
 12 13  2  0
 12 14  2  0
 12 15  1  0
 15 16  1  0
 16 17  2  0
 17 18  1  0
 18 19  2  0
 19 20  1  0
 20 21  2  0
 11 22  1  0
 22 23  2  0
 23 24  1  0
 24 25  2  0
 24 26  1  0
 23  8  1  0
 21 16  1  0
  1 27  1  0
  1 28  1  0
  1 29  1  0
  2 30  1  0
  2 31  1  0
  4 32  1  0
  4 33  1  0
  4 34  1  0
  5 35  1  0
  5 36  1  0
  6 37  1  0
  6 38  1  0
  7 39  1  0
  9 40  1  0
 10 41  1  0
 15 42  1  0
 17 43  1  0
 18 44  1  0
 19 45  1  0
 20 46  1  0
 21 47  1  0
 22 48  1  0
M  CHG  2  24   1  26  -1
M  END
>  <smiles>  (11) 
CCN(C)CCNc1ccc(S(=O)(=O)Nc2ccccc2)cc1[N+](=O)[O-]

>  <score_type>  (11) 
oracle

>  <origin>  (11) 
adg

>  <m_score__min__energy>  (11) 
-9.3300000000000001

>  <m_primary>  (11) 
energy

$$$$
11:0
     RDKit          3D

 75 78  0  0  0  0  0  0  0  0999 V2000
   -0.0500   21.5760  -34.9780 C   0  0  0  0  0  0  0  0  0  0  0  0
   -0.5200   20.2820  -34.3440 C   0  0  0  0  0  0  0  0  0  0  0  0
   -1.1150   20.6220  -33.0010 C   0  0  0  0  0  0  0  0  0  0  0  0
   -2.3250   21.5560  -33.1440 C   0  0  0  0  0  0  0  0  0  0  0  0
   -3.1080   21.6220  -31.9190 N   0  0  0  0  0  0  0  0  0  0  0  0
   -4.5330   21.6040  -31.9100 C   0  0  0  0  0  0  0  0  0  0  0  0
   -5.1370   20.5030  -32.4830 C   0  0  0  0  0  0  0  0  0  0  0  0
   -4.3560   19.4950  -33.0590 C   0  0  0  0  0  0  0  0  0  0  0  0
   -4.9100   18.4020  -33.6410 C   0  0  0  0  0  0  0  0  0  0  0  0
   -4.1220   17.4130  -34.2070 O   0  0  0  0  0  0  0  0  0  0  0  0
   -2.7270   17.4150  -33.9280 C   0  0  0  0  0  0  0  0  0  0  0  0
   -6.2820   18.2910  -33.6620 C   0  0  0  0  0  0  0  0  0  0  0  0
   -6.8280   17.1760  -34.2580 O   0  0  0  0  0  0  0  0  0  0  0  0
   -6.5830   15.8480  -33.9110 C   0  0  0  0  0  0  0  0  0  0  0  0
   -7.0610   19.3000  -33.0860 C   0  0  0  0  0  0  0  0  0  0  0  0
   -6.5340   20.4070  -32.4940 C   0  0  0  0  0  0  0  0  0  0  0  0
   -7.2980   21.3960  -31.9410 N   0  0  0  0  0  0  0  0  0  0  0  0
   -8.7270   21.2330  -31.9570 C   0  0  0  0  0  0  0  0  0  0  0  0
   -6.6770   22.4720  -31.3850 C   0  0  0  0  0  0  0  0  0  0  0  0
   -7.4380   23.4850  -30.8430 C   0  0  0  0  0  0  0  0  0  0  0  0
   -6.8660   24.6240  -30.2720 C   0  0  0  0  0  0  0  0  0  0  0  0
   -5.4900   24.7130  -30.2640 C   0  0  0  0  0  0  0  0  0  0  0  0
   -4.6830   23.7350  -30.7910 C   0  0  0  0  0  0  0  0  0  0  0  0
   -3.3190   23.7490  -30.8220 O   0  0  0  0  0  0  0  0  0  0  0  0
   -2.5240   23.7770  -29.6780 C   0  0  0  0  0  0  0  0  0  0  0  0
   -1.2320   23.0550  -29.7200 C   0  0  0  0  0  0  0  0  0  0  0  0
   -1.3500   21.8530  -28.8790 N   0  0  0  0  0  0  0  0  0  0  0  0
   -0.8140   20.6970  -29.5450 C   0  0  0  0  0  0  0  0  0  0  0  0
   -0.5800   22.0860  -27.6780 C   0  0  0  0  0  0  0  0  0  0  0  0
   -1.1630   21.4750  -26.4440 C   0  0  0  0  0  0  0  0  0  0  0  0
   -1.9520   20.2500  -26.7540 C   0  0  0  0  0  0  0  0  0  0  0  0
   -3.0060   20.4120  -27.7980 C   0  0  0  0  0  0  0  0  0  0  0  0
   -2.7450   21.6400  -28.6060 C   0  0  0  0  0  0  0  0  0  0  0  0
   -5.3050   22.6040  -31.3550 C   0  0  0  0  0  0  0  0  0  0  0  0
    0.2118   22.2968  -34.1894 H   0  0  0  0  0  0  0  0  0  0  0  0
    0.8338   21.3785  -35.6024 H   0  0  0  0  0  0  0  0  0  0  0  0
   -0.8545   21.9918  -35.6024 H   0  0  0  0  0  0  0  0  0  0  0  0
   -1.2800   19.8064  -34.9814 H   0  0  0  0  0  0  0  0  0  0  0  0
    0.3200   19.5813  -34.2281 H   0  0  0  0  0  0  0  0  0  0  0  0
   -1.4363   19.6934  -32.5066 H   0  0  0  0  0  0  0  0  0  0  0  0
   -0.3487   21.1376  -32.4037 H   0  0  0  0  0  0  0  0  0  0  0  0
   -1.9671   22.5661  -33.3920 H   0  0  0  0  0  0  0  0  0  0  0  0
   -2.9709   21.1573  -33.9401 H   0  0  0  0  0  0  0  0  0  0  0  0
   -2.5620   21.6870  -31.0060 H   0  0  0  0  0  0  0  0  0  0  0  0
   -3.2604   19.5917  -33.0393 H   0  0  0  0  0  0  0  0  0  0  0  0
   -2.5708   17.4152  -32.8391 H   0  0  0  0  0  0  0  0  0  0  0  0
   -2.2645   16.5175  -34.3646 H   0  0  0  0  0  0  0  0  0  0  0  0
   -2.2670   18.3138  -34.3646 H   0  0  0  0  0  0  0  0  0  0  0  0
   -6.5654   15.7526  -32.8153 H   0  0  0  0  0  0  0  0  0  0  0  0
   -7.3784   15.2089  -34.3220 H   0  0  0  0  0  0  0  0  0  0  0  0
   -5.6119   15.5348  -34.3220 H   0  0  0  0  0  0  0  0  0  0  0  0
   -8.1555   19.1936  -33.1127 H   0  0  0  0  0  0  0  0  0  0  0  0
   -9.1027   21.1901  -30.9241 H   0  0  0  0  0  0  0  0  0  0  0  0
   -9.1873   22.0845  -32.4796 H   0  0  0  0  0  0  0  0  0  0  0  0
   -8.9838   20.2997  -32.4796 H   0  0  0  0  0  0  0  0  0  0  0  0
   -8.5340   23.3933  -30.8607 H   0  0  0  0  0  0  0  0  0  0  0  0
   -7.4909   25.4217  -29.8439 H   0  0  0  0  0  0  0  0  0  0  0  0
   -5.0205   25.6022  -29.8180 H   0  0  0  0  0  0  0  0  0  0  0  0
   -2.3039   24.8318  -29.4566 H   0  0  0  0  0  0  0  0  0  0  0  0
   -3.1142   23.2467  -28.9162 H   0  0  0  0  0  0  0  0  0  0  0  0
   -1.0015   22.7640  -30.7554 H   0  0  0  0  0  0  0  0  0  0  0  0
   -0.4231   23.7012  -29.3483 H   0  0  0  0  0  0  0  0  0  0  0  0
   -0.4752   19.9664  -28.7957 H   0  0  0  0  0  0  0  0  0  0  0  0
   -1.5932   20.2423  -30.1744 H   0  0  0  0  0  0  0  0  0  0  0  0
    0.0365   20.9979  -30.1744 H   0  0  0  0  0  0  0  0  0  0  0  0
    0.4261   21.6671  -27.8273 H   0  0  0  0  0  0  0  0  0  0  0  0
   -0.5709   23.1740  -27.5162 H   0  0  0  0  0  0  0  0  0  0  0  0
   -0.3454   21.2081  -25.7582 H   0  0  0  0  0  0  0  0  0  0  0  0
   -1.8395   22.2107  -25.9845 H   0  0  0  0  0  0  0  0  0  0  0  0
   -1.2520   19.4737  -27.0966 H   0  0  0  0  0  0  0  0  0  0  0  0
   -2.4830   19.9899  -25.8264 H   0  0  0  0  0  0  0  0  0  0  0  0
   -3.0004   19.5333  -28.4597 H   0  0  0  0  0  0  0  0  0  0  0  0
   -3.9862   20.5058  -27.3077 H   0  0  0  0  0  0  0  0  0  0  0  0
   -3.2785   21.5482  -29.5636 H   0  0  0  0  0  0  0  0  0  0  0  0
   -3.0975   22.4995  -28.0170 H   0  0  0  0  0  0  0  0  0  0  0  0
  1  2  1  0
  2  3  1  0
  3  4  1  0
  4  5  1  0
  5  6  1  0
  6  7  2  0
  7  8  1  0
  8  9  2  0
  9 10  1  0
 10 11  1  0
  9 12  1  0
 12 13  1  0
 13 14  1  0
 12 15  2  0
 15 16  1  0
 16 17  2  0
 17 18  1  0
 17 19  1  0
 19 20  2  0
 20 21  1  0
 21 22  2  0
 22 23  1  0
 23 24  1  0
 24 25  1  0
 25 26  1  0
 26 27  1  0
 27 28  1  0
 27 29  1  0
 29 30  1  0
 30 31  1  0
 31 32  1  0
 32 33  1  0
 23 34  2  0
 34  6  1  0
 16  7  1  0
 34 19  1  0
 33 27  1  0
  1 35  1  0
  1 36  1  0
  1 37  1  0
  2 38  1  0
  2 39  1  0
  3 40  1  0
  3 41  1  0
  4 42  1  0
  4 43  1  0
  5 44  1  0
  8 45  1  0
 11 46  1  0
 11 47  1  0
 11 48  1  0
 14 49  1  0
 14 50  1  0
 14 51  1  0
 15 52  1  0
 18 53  1  0
 18 54  1  0
 18 55  1  0
 20 56  1  0
 21 57  1  0
 22 58  1  0
 25 59  1  0
 25 60  1  0
 26 61  1  0
 26 62  1  0
 28 63  1  0
 28 64  1  0
 28 65  1  0
 29 66  1  0
 29 67  1  0
 30 68  1  0
 30 69  1  0
 31 70  1  0
 31 71  1  0
 32 72  1  0
 32 73  1  0
 33 74  1  0
 33 75  1  0
M  CHG  2  17   1  27   1
M  END
>  <smiles>  (12) 
CCCCNc1c2cc(OC)c(OC)cc2[n+](C)c2cccc(OCC[N+]3(C)CCCCC3)c12

>  <score_type>  (12) 
oracle

>  <origin>  (12) 
adg

>  <m_score__min__energy>  (12) 
-8.25

>  <m_primary>  (12) 
energy

$$$$
12:0
     RDKit          3D

 53 55  0  0  0  0  0  0  0  0999 V2000
   -6.7460   25.3660  -29.5520 C   0  0  0  0  0  0  0  0  0  0  0  0
   -5.5780   25.6750  -30.4730 C   0  0  0  0  0  0  0  0  0  0  0  0
   -4.4100   24.8450  -29.9620 C   0  0  0  0  0  0  0  0  0  0  0  0
   -3.9820   24.0310  -31.0870 N   0  0  0  0  0  0  0  0  0  0  0  0
   -4.1190   22.6000  -30.7720 C   0  0  0  0  0  0  0  0  0  0  0  0
   -2.9320   21.9260  -31.3760 C   0  0  0  0  0  0  0  0  0  0  0  0
   -3.1750   21.3450  -32.7480 C   0  0  0  0  0  0  0  0  0  0  0  0
   -4.4960   21.5610  -33.2330 N   0  0  0  0  0  0  0  0  0  0  0  0
   -5.6210   20.7350  -32.9720 C   0  0  0  0  0  0  0  0  0  0  0  0
   -5.6120   19.3600  -33.1510 C   0  0  0  0  0  0  0  0  0  0  0  0
   -6.7180   18.6180  -32.8760 C   0  0  0  0  0  0  0  0  0  0  0  0
   -7.8330   19.2630  -32.4210 N   0  0  0  0  0  0  0  0  0  0  0  0
   -9.0530   18.5490  -32.0980 C   0  0  0  0  0  0  0  0  0  0  0  0
   -7.8540   20.6000  -32.2440 C   0  0  0  0  0  0  0  0  0  0  0  0
   -8.9930   21.2470  -31.7830 C   0  0  0  0  0  0  0  0  0  0  0  0
   -9.0350   22.6220  -31.5970 C   0  0  0  0  0  0  0  0  0  0  0  0
   -7.9300   23.4010  -31.8670 C   0  0  0  0  0  0  0  0  0  0  0  0
   -6.7970   22.7600  -32.3250 C   0  0  0  0  0  0  0  0  0  0  0  0
   -6.7610   21.3950  -32.5080 C   0  0  0  0  0  0  0  0  0  0  0  0
   -6.8380   17.1550  -33.0270 C   0  0  0  0  0  0  0  0  0  0  0  0
   -5.6540   16.5630  -33.6980 C   0  0  0  0  0  0  0  0  0  0  0  0
   -4.3490   17.2390  -33.4640 C   0  0  0  0  0  0  0  0  0  0  0  0
   -4.3740   18.7220  -33.6520 C   0  0  0  0  0  0  0  0  0  0  0  0
   -6.4201   25.4522  -28.5049 H   0  0  0  0  0  0  0  0  0  0  0  0
   -7.5615   26.0793  -29.7421 H   0  0  0  0  0  0  0  0  0  0  0  0
   -7.1021   24.3427  -29.7421 H   0  0  0  0  0  0  0  0  0  0  0  0
   -5.8227   25.3940  -31.5080 H   0  0  0  0  0  0  0  0  0  0  0  0
   -5.3391   26.7487  -30.4743 H   0  0  0  0  0  0  0  0  0  0  0  0
   -3.5911   25.4998  -29.6292 H   0  0  0  0  0  0  0  0  0  0  0  0
   -4.6993   24.2255  -29.1003 H   0  0  0  0  0  0  0  0  0  0  0  0
   -4.6170   24.2900  -31.8750 H   0  0  0  0  0  0  0  0  0  0  0  0
   -4.1303   22.4486  -29.6825 H   0  0  0  0  0  0  0  0  0  0  0  0
   -5.0589   22.1898  -31.1699 H   0  0  0  0  0  0  0  0  0  0  0  0
   -2.1201   22.6641  -31.4539 H   0  0  0  0  0  0  0  0  0  0  0  0
   -2.6822   21.0811  -30.7174 H   0  0  0  0  0  0  0  0  0  0  0  0
   -2.4665   21.8066  -33.4515 H   0  0  0  0  0  0  0  0  0  0  0  0
   -3.0353   20.2569  -32.6668 H   0  0  0  0  0  0  0  0  0  0  0  0
   -4.6700   22.4000  -33.8390 H   0  0  0  0  0  0  0  0  0  0  0  0
   -9.1621   18.4851  -31.0053 H   0  0  0  0  0  0  0  0  0  0  0  0
   -9.9149   19.0853  -32.5218 H   0  0  0  0  0  0  0  0  0  0  0  0
   -9.0075   17.5350  -32.5218 H   0  0  0  0  0  0  0  0  0  0  0  0
   -9.8900   20.6513  -31.5582 H   0  0  0  0  0  0  0  0  0  0  0  0
   -9.9584   23.0944  -31.2308 H   0  0  0  0  0  0  0  0  0  0  0  0
   -7.9507   24.4913  -31.7229 H   0  0  0  0  0  0  0  0  0  0  0  0
   -5.8992   23.3544  -32.5498 H   0  0  0  0  0  0  0  0  0  0  0  0
   -6.9431   16.7031  -32.0296 H   0  0  0  0  0  0  0  0  0  0  0  0
   -7.7190   16.9507  -33.6531 H   0  0  0  0  0  0  0  0  0  0  0  0
   -5.5585   15.5236  -33.3509 H   0  0  0  0  0  0  0  0  0  0  0  0
   -5.8473   16.6700  -34.7756 H   0  0  0  0  0  0  0  0  0  0  0  0
   -4.0343   17.0293  -32.4311 H   0  0  0  0  0  0  0  0  0  0  0  0
   -3.6523   16.8410  -34.2164 H   0  0  0  0  0  0  0  0  0  0  0  0
   -3.5172   19.1555  -33.1153 H   0  0  0  0  0  0  0  0  0  0  0  0
   -4.3276   18.9117  -34.7345 H   0  0  0  0  0  0  0  0  0  0  0  0
  1  2  1  0
  2  3  1  0
  3  4  1  0
  4  5  1  0
  5  6  1  0
  6  7  1  0
  7  8  1  0
  8  9  1  0
  9 10  2  0
 10 11  1  0
 11 12  2  0
 12 13  1  0
 12 14  1  0
 14 15  2  0
 15 16  1  0
 16 17  2  0
 17 18  1  0
 18 19  2  0
 11 20  1  0
 20 21  1  0
 21 22  1  0
 22 23  1  0
 19  9  1  0
 23 10  1  0
 19 14  1  0
  1 24  1  0
  1 25  1  0
  1 26  1  0
  2 27  1  0
  2 28  1  0
  3 29  1  0
  3 30  1  0
  4 31  1  0
  5 32  1  0
  5 33  1  0
  6 34  1  0
  6 35  1  0
  7 36  1  0
  7 37  1  0
  8 38  1  0
 13 39  1  0
 13 40  1  0
 13 41  1  0
 15 42  1  0
 16 43  1  0
 17 44  1  0
 18 45  1  0
 20 46  1  0
 20 47  1  0
 21 48  1  0
 21 49  1  0
 22 50  1  0
 22 51  1  0
 23 52  1  0
 23 53  1  0
M  CHG  1  12   1
M  END
>  <smiles>  (13) 
CCCNCCCNc1c2c([n+](C)c3ccccc13)CCCC2

>  <score_type>  (13) 
oracle

>  <origin>  (13) 
adg

>  <m_score__min__energy>  (13) 
-9.1199999999999992

>  <m_primary>  (13) 
energy

$$$$
13:0
     RDKit          3D

 46 48  0  0  0  0  0  0  0  0999 V2000
   -3.7350   22.8530  -28.0790 C   0  0  0  0  0  0  0  0  0  0  0  0
   -3.2310   24.1980  -28.6100 C   0  0  0  0  0  0  0  0  0  0  0  0
   -3.2960   24.0500  -30.1410 C   0  0  0  0  0  0  0  0  0  0  0  0
   -3.8790   25.2650  -30.6230 N   0  0  0  0  0  0  0  0  0  0  0  0
   -5.3160   25.2300  -30.5480 C   0  0  0  0  0  0  0  0  0  0  0  0
   -5.8010   23.8240  -30.5900 C   0  0  0  0  0  0  0  0  0  0  0  0
   -7.0640   23.7040  -31.4640 C   0  0  0  0  0  0  0  0  0  0  0  0
   -6.6760   23.0180  -32.6590 N   0  0  0  0  0  0  0  0  0  0  0  0
   -6.2600   21.6740  -32.6140 C   0  0  0  0  0  0  0  0  0  0  0  0
   -7.2140   20.7060  -32.4290 C   0  0  0  0  0  0  0  0  0  0  0  0
   -8.5310   21.0930  -32.2970 C   0  0  0  0  0  0  0  0  0  0  0  0
   -9.4790   20.1100  -32.1110 C   0  0  0  0  0  0  0  0  0  0  0  0
   -9.1800   18.7660  -32.0510 C   0  0  0  0  0  0  0  0  0  0  0  0
   -7.8560   18.3760  -32.1830 C   0  0  0  0  0  0  0  0  0  0  0  0
   -6.9270   19.3520  -32.3670 C   0  0  0  0  0  0  0  0  0  0  0  0
   -5.6350   19.0180  -32.5000 N   0  0  0  0  0  0  0  0  0  0  0  0
   -5.2190   17.6210  -32.4520 C   0  0  0  0  0  0  0  0  0  0  0  0
   -4.6700   19.9600  -32.6850 C   0  0  0  0  0  0  0  0  0  0  0  0
   -2.8930   19.7770  -32.8900 S   0  0  0  0  0  0  0  0  0  0  0  0
   -2.5970   21.5400  -33.0530 C   0  0  0  0  0  0  0  0  0  0  0  0
   -3.8560   22.1170  -32.9400 C   0  0  0  0  0  0  0  0  0  0  0  0
   -4.8970   21.3080  -32.7540 C   0  0  0  0  0  0  0  0  0  0  0  0
   -3.7295   22.8677  -26.9791 H   0  0  0  0  0  0  0  0  0  0  0  0
   -4.7598   22.6777  -28.4382 H   0  0  0  0  0  0  0  0  0  0  0  0
   -3.0777   22.0474  -28.4382 H   0  0  0  0  0  0  0  0  0  0  0  0
   -3.8793   25.0190  -28.2699 H   0  0  0  0  0  0  0  0  0  0  0  0
   -2.2186   24.4384  -28.2533 H   0  0  0  0  0  0  0  0  0  0  0  0
   -2.2862   23.9178  -30.5568 H   0  0  0  0  0  0  0  0  0  0  0  0
   -3.8855   23.1705  -30.4393 H   0  0  0  0  0  0  0  0  0  0  0  0
   -3.5770   25.5040  -31.5820 H   0  0  0  0  0  0  0  0  0  0  0  0
   -5.6418   25.6983  -29.6075 H   0  0  0  0  0  0  0  0  0  0  0  0
   -5.7326   25.7781  -31.4059 H   0  0  0  0  0  0  0  0  0  0  0  0
   -5.0112   23.1829  -31.0085 H   0  0  0  0  0  0  0  0  0  0  0  0
   -6.0505   23.5076  -29.5665 H   0  0  0  0  0  0  0  0  0  0  0  0
   -7.8389   23.1314  -30.9332 H   0  0  0  0  0  0  0  0  0  0  0  0
   -7.4797   24.6958  -31.6954 H   0  0  0  0  0  0  0  0  0  0  0  0
   -6.6790   23.4730  -33.6200 H   0  0  0  0  0  0  0  0  0  0  0  0
   -8.8164   22.1545  -32.3389 H   0  0  0  0  0  0  0  0  0  0  0  0
  -10.5307   20.4145  -32.0047 H   0  0  0  0  0  0  0  0  0  0  0  0
   -9.9739   18.0194  -31.9017 H   0  0  0  0  0  0  0  0  0  0  0  0
   -7.5674   17.3154  -32.1404 H   0  0  0  0  0  0  0  0  0  0  0  0
   -5.1242   17.3025  -31.4034 H   0  0  0  0  0  0  0  0  0  0  0  0
   -5.9703   16.9971  -32.9582 H   0  0  0  0  0  0  0  0  0  0  0  0
   -4.2487   17.5097  -32.9582 H   0  0  0  0  0  0  0  0  0  0  0  0
   -1.6345   22.0495  -33.2077 H   0  0  0  0  0  0  0  0  0  0  0  0
   -3.9884   23.2072  -33.0022 H   0  0  0  0  0  0  0  0  0  0  0  0
  1  2  1  0
  2  3  1  0
  3  4  1  0
  4  5  1  0
  5  6  1  0
  6  7  1  0
  7  8  1  0
  8  9  1  0
  9 10  2  0
 10 11  1  0
 11 12  2  0
 12 13  1  0
 13 14  2  0
 14 15  1  0
 15 16  2  0
 16 17  1  0
 16 18  1  0
 18 19  1  0
 19 20  1  0
 20 21  2  0
 21 22  1  0
 22  9  1  0
 15 10  1  0
 22 18  2  0
  1 23  1  0
  1 24  1  0
  1 25  1  0
  2 26  1  0
  2 27  1  0
  3 28  1  0
  3 29  1  0
  4 30  1  0
  5 31  1  0
  5 32  1  0
  6 33  1  0
  6 34  1  0
  7 35  1  0
  7 36  1  0
  8 37  1  0
 11 38  1  0
 12 39  1  0
 13 40  1  0
 14 41  1  0
 17 42  1  0
 17 43  1  0
 17 44  1  0
 20 45  1  0
 21 46  1  0
M  CHG  1  16   1
M  END
>  <smiles>  (14) 
CCCNCCCNc1c2ccccc2[n+](C)c2sccc12

>  <score_type>  (14) 
oracle

>  <origin>  (14) 
adg

>  <m_score__min__energy>  (14) 
-8.6999999999999993

>  <m_primary>  (14) 
energy

$$$$
14:0
     RDKit          3D

 57 59  0  0  0  0  0  0  0  0999 V2000
   -5.7370   24.2020  -29.6590 C   0  0  0  0  0  0  0  0  0  0  0  0
   -4.9770   25.2960  -30.3490 C   0  0  0  0  0  0  0  0  0  0  0  0
   -3.6040   25.0760  -30.4690 O   0  0  0  0  0  0  0  0  0  0  0  0
   -2.8080   24.3700  -29.5960 C   0  0  0  0  0  0  0  0  0  0  0  0
   -2.1330   24.9270  -28.5310 C   0  0  0  0  0  0  0  0  0  0  0  0
   -1.3420   24.1910  -27.6710 C   0  0  0  0  0  0  0  0  0  0  0  0
   -1.2300   22.8370  -27.9010 C   0  0  0  0  0  0  0  0  0  0  0  0
   -1.8810   22.2280  -28.9480 C   0  0  0  0  0  0  0  0  0  0  0  0
   -2.6640   22.9910  -29.7900 C   0  0  0  0  0  0  0  0  0  0  0  0
   -3.3690   22.4040  -30.9040 N   0  0  0  0  0  0  0  0  0  0  0  0
   -2.6120   21.8270  -31.9710 C   0  0  0  0  0  0  0  0  0  0  0  0
   -1.3460   21.8580  -31.8880 O   0  0  0  0  0  0  0  0  0  0  0  0
   -3.2490   21.2060  -33.1520 C   0  0  0  0  0  0  0  0  0  0  0  0
   -4.6510   21.4020  -33.1110 O   0  0  0  0  0  0  0  0  0  0  0  0
   -5.4250   20.9120  -32.0800 C   0  0  0  0  0  0  0  0  0  0  0  0
   -4.8540   20.1990  -31.2160 O   0  0  0  0  0  0  0  0  0  0  0  0
   -6.8520   21.1840  -31.9560 C   0  0  0  0  0  0  0  0  0  0  0  0
   -7.3150   22.4820  -32.0450 C   0  0  0  0  0  0  0  0  0  0  0  0
   -8.6780   22.6820  -31.9220 C   0  0  0  0  0  0  0  0  0  0  0  0
   -9.5650   21.6500  -31.7180 C   0  0  0  0  0  0  0  0  0  0  0  0
   -9.0760   20.3480  -31.6310 C   0  0  0  0  0  0  0  0  0  0  0  0
   -7.7060   20.1190  -31.7520 C   0  0  0  0  0  0  0  0  0  0  0  0
   -7.0630   18.4580  -31.6440 S   0  0  0  0  0  0  0  0  0  0  0  0
   -7.1780   17.6920  -33.2860 C   0  0  0  0  0  0  0  0  0  0  0  0
   -6.0460   18.1590  -34.1430 C   0  0  0  0  0  0  0  0  0  0  0  0
   -6.1360   19.1710  -34.8910 O   0  0  0  0  0  0  0  0  0  0  0  0
   -4.8100   17.4550  -34.1340 N   0  0  0  0  0  0  0  0  0  0  0  0
   -3.6590   17.8380  -34.9350 C   0  0  0  0  0  0  0  0  0  0  0  0
   -2.4510   17.4390  -34.1190 C   0  0  0  0  0  0  0  0  0  0  0  0
   -2.9500   16.4520  -33.0700 C   0  0  0  0  0  0  0  0  0  0  0  0
   -4.4140   16.2850  -33.3970 C   0  0  0  0  0  0  0  0  0  0  0  0
   -5.6506   24.3264  -28.5695 H   0  0  0  0  0  0  0  0  0  0  0  0
   -6.7965   24.2512  -29.9508 H   0  0  0  0  0  0  0  0  0  0  0  0
   -5.3212   23.2263  -29.9508 H   0  0  0  0  0  0  0  0  0  0  0  0
   -5.3931   25.4150  -31.3603 H   0  0  0  0  0  0  0  0  0  0  0  0
   -5.0908   26.1922  -29.7213 H   0  0  0  0  0  0  0  0  0  0  0  0
   -2.2290   26.0091  -28.3580 H   0  0  0  0  0  0  0  0  0  0  0  0
   -0.8187   24.6697  -26.8302 H   0  0  0  0  0  0  0  0  0  0  0  0
   -0.6048   22.2286  -27.2309 H   0  0  0  0  0  0  0  0  0  0  0  0
   -1.7788   21.1452  -29.1124 H   0  0  0  0  0  0  0  0  0  0  0  0
   -4.4180   22.3980  -30.9360 H   0  0  0  0  0  0  0  0  0  0  0  0
   -2.8445   21.6647  -34.0663 H   0  0  0  0  0  0  0  0  0  0  0  0
   -3.0372   20.1266  -33.1481 H   0  0  0  0  0  0  0  0  0  0  0  0
   -6.6264   23.3243  -32.2074 H   0  0  0  0  0  0  0  0  0  0  0  0
   -9.0689   23.7079  -31.9900 H   0  0  0  0  0  0  0  0  0  0  0  0
  -10.6427   21.8496  -31.6251 H   0  0  0  0  0  0  0  0  0  0  0  0
   -9.7659   19.5069  -31.4680 H   0  0  0  0  0  0  0  0  0  0  0  0
   -7.1306   16.5979  -33.1827 H   0  0  0  0  0  0  0  0  0  0  0  0
   -8.1308   17.9791  -33.7547 H   0  0  0  0  0  0  0  0  0  0  0  0
   -3.6659   17.3059  -35.8977 H   0  0  0  0  0  0  0  0  0  0  0  0
   -3.6603   18.9138  -35.1645 H   0  0  0  0  0  0  0  0  0  0  0  0
   -1.6973   16.9620  -34.7627 H   0  0  0  0  0  0  0  0  0  0  0  0
   -1.9779   18.3148  -33.6508 H   0  0  0  0  0  0  0  0  0  0  0  0
   -2.4187   15.4923  -33.1514 H   0  0  0  0  0  0  0  0  0  0  0  0
   -2.7823   16.8046  -32.0416 H   0  0  0  0  0  0  0  0  0  0  0  0
   -4.5652   15.3830  -34.0082 H   0  0  0  0  0  0  0  0  0  0  0  0
   -5.0132   16.1731  -32.4814 H   0  0  0  0  0  0  0  0  0  0  0  0
  1  2  1  0
  2  3  1  0
  3  4  1  0
  4  5  2  0
  5  6  1  0
  6  7  2  0
  7  8  1  0
  8  9  2  0
  9 10  1  0
 10 11  1  0
 11 12  2  0
 11 13  1  0
 13 14  1  0
 14 15  1  0
 15 16  2  0
 15 17  1  0
 17 18  2  0
 18 19  1  0
 19 20  2  0
 20 21  1  0
 21 22  2  0
 22 23  1  0
 23 24  1  0
 24 25  1  0
 25 26  2  0
 25 27  1  0
 27 28  1  0
 28 29  1  0
 29 30  1  0
 30 31  1  0
  9  4  1  0
 22 17  1  0
 31 27  1  0
  1 32  1  0
  1 33  1  0
  1 34  1  0
  2 35  1  0
  2 36  1  0
  5 37  1  0
  6 38  1  0
  7 39  1  0
  8 40  1  0
 10 41  1  0
 13 42  1  0
 13 43  1  0
 18 44  1  0
 19 45  1  0
 20 46  1  0
 21 47  1  0
 24 48  1  0
 24 49  1  0
 28 50  1  0
 28 51  1  0
 29 52  1  0
 29 53  1  0
 30 54  1  0
 30 55  1  0
 31 56  1  0
 31 57  1  0
M  END
>  <smiles>  (15) 
CCOc1ccccc1NC(=O)COC(=O)c1ccccc1SCC(=O)N1CCCC1

>  <score_type>  (15) 
oracle

>  <origin>  (15) 
adg

>  <m_score__min__energy>  (15) 
-9.3399999999999999

>  <m_primary>  (15) 
energy

$$$$
16:0
     RDKit          3D

 48 51  0  0  1  0  0  0  0  0999 V2000
   -3.3980   24.5890  -26.7670 C   0  0  0  0  0  0  0  0  0  0  0  0
   -3.5050   23.7810  -27.9630 N   0  0  0  0  0  0  0  0  0  0  0  0
   -4.2690   22.5360  -27.8510 C   0  0  0  0  0  0  0  0  0  0  0  0
   -2.9010   24.1610  -29.2220 C   0  0  0  0  0  0  0  0  0  0  0  0
   -2.2600   25.2030  -29.3350 O   0  0  0  0  0  0  0  0  0  0  0  0
   -3.1330   23.1970  -30.3150 C   0  0  0  0  0  0  0  0  0  0  0  0
   -4.2700   23.2370  -31.0930 C   0  0  0  0  0  0  0  0  0  0  0  0
   -4.3910   22.3260  -32.1420 C   0  0  0  0  0  0  0  0  0  0  0  0
   -3.3770   21.3880  -32.4040 C   0  0  0  0  0  0  0  0  0  0  0  0
   -3.4850   20.5180  -33.5000 N   0  0  0  0  0  0  0  0  0  0  0  0
   -4.1720   19.4700  -33.6380 C   0  0  0  0  0  0  0  0  0  0  0  0
   -5.3910   19.3360  -33.0910 N   0  0  0  0  0  0  0  0  0  0  0  0
   -6.0530   18.2040  -33.2530 C   0  0  0  0  0  0  0  0  0  0  0  0
   -7.3840   17.9650  -32.7440 N   0  0  0  0  0  0  0  0  0  0  0  0
   -8.0670   19.0650  -32.5160 C   0  0  0  0  0  0  0  0  0  0  0  0
   -7.6770   20.0340  -31.5790 C   0  0  0  0  0  0  0  0  0  0  0  0
   -8.6130   21.0790  -31.6260 C   0  0  0  0  0  0  0  0  0  0  0  0
   -8.5430   22.2880  -30.7860 C   0  0  0  0  0  0  0  0  0  0  0  0
   -7.3320   22.7110  -30.0620 C   0  0  0  0  0  0  0  0  0  0  0  0
   -7.6160   23.3460  -31.3670 C   0  0  0  0  0  0  0  0  0  0  0  0
   -9.5010   20.7070  -32.5630 N   0  0  0  0  0  0  0  0  0  0  0  0
   -9.1740   19.5210  -33.0810 N   0  0  0  0  0  0  0  0  0  0  0  0
   -5.5400   17.1180  -33.9820 C   0  0  0  0  0  0  0  0  0  0  0  0
   -6.4870   15.4930  -34.1970 Br  0  0  0  0  0  0  0  0  0  0  0  0
   -4.2910   17.2890  -34.5290 C   0  0  0  0  0  0  0  0  0  0  0  0
   -3.6130   18.4540  -34.3600 N   0  0  0  0  0  0  0  0  0  0  0  0
   -2.2410   21.3760  -31.5930 C   0  0  0  0  0  0  0  0  0  0  0  0
   -2.1230   22.2720  -30.5590 C   0  0  0  0  0  0  0  0  0  0  0  0
   -3.4834   23.9441  -25.8800 H   0  0  0  0  0  0  0  0  0  0  0  0
   -2.4243   25.1006  -26.7560 H   0  0  0  0  0  0  0  0  0  0  0  0
   -4.2050   25.3364  -26.7560 H   0  0  0  0  0  0  0  0  0  0  0  0
   -4.4187   22.2920  -26.7889 H   0  0  0  0  0  0  0  0  0  0  0  0
   -5.2465   22.6604  -28.3400 H   0  0  0  0  0  0  0  0  0  0  0  0
   -3.7154   21.7209  -28.3400 H   0  0  0  0  0  0  0  0  0  0  0  0
   -5.0641   23.9709  -30.8911 H   0  0  0  0  0  0  0  0  0  0  0  0
   -5.2919   22.3415  -32.7729 H   0  0  0  0  0  0  0  0  0  0  0  0
   -6.7946   19.9836  -30.9241 H   0  0  0  0  0  0  0  0  0  0  0  0
   -9.5804   22.1665  -30.4410 H   0  0  0  0  0  0  0  0  0  0  0  0
   -7.4283   23.2998  -29.1379 H   0  0  0  0  0  0  0  0  0  0  0  0
   -6.4659   22.1784  -29.6423 H   0  0  0  0  0  0  0  0  0  0  0  0
   -7.9362   24.3974  -31.4128 H   0  0  0  0  0  0  0  0  0  0  0  0
   -7.0686   23.4765  -32.3121 H   0  0  0  0  0  0  0  0  0  0  0  0
  -10.3130   21.2830  -32.8290 H   0  0  0  0  0  0  0  0  0  0  0  0
   -9.7080   19.0330  -33.8250 H   0  0  0  0  0  0  0  0  0  0  0  0
   -3.8353   16.4737  -35.1100 H   0  0  0  0  0  0  0  0  0  0  0  0
   -2.6710   18.5840  -34.7770 H   0  0  0  0  0  0  0  0  0  0  0  0
   -1.4388   20.6475  -31.7825 H   0  0  0  0  0  0  0  0  0  0  0  0
   -1.2267   22.2582  -29.9215 H   0  0  0  0  0  0  0  0  0  0  0  0
  1  2  1  0
  2  3  1  0
  2  4  1  0
  4  5  2  0
  4  6  1  0
  6  7  2  0
  7  8  1  0
  8  9  2  0
  9 10  1  0
 10 11  2  0
 11 12  1  0
 12 13  2  0
 13 14  1  0
 14 15  2  0
 15 16  1  0
 16 17  2  0
 17 18  1  0
 18 19  1  0
 19 20  1  0
 17 21  1  0
 21 22  1  0
 13 23  1  0
 23 24  1  0
 23 25  2  0
 25 26  1  0
  9 27  1  0
 27 28  2  0
 28  6  1  0
 26 11  1  0
 22 15  1  0
 20 18  1  0
  1 29  1  0
  1 30  1  0
  1 31  1  0
  3 32  1  0
  3 33  1  0
  3 34  1  0
  7 35  1  0
  8 36  1  0
 16 37  1  0
 18 38  1  0
 19 39  1  0
 19 40  1  0
 20 41  1  0
 20 42  1  0
 21 43  1  0
 22 44  1  0
 25 45  1  0
 26 46  1  0
 27 47  1  0
 28 48  1  0
M  END
>  <smiles>  (16) 
CN(C)C(=O)c1ccc(N=c2nc(N=c3cc(C4CC4)[nH][nH]3)c(Br)c[nH]2)cc1

>  <score_type>  (16) 
oracle

>  <origin>  (16) 
adg

>  <m_score__min__energy>  (16) 
-9.0899999999999999

>  <m_primary>  (16) 
energy

$$$$
17:0
     RDKit          3D

 49 51  0  0  1  0  0  0  0  0999 V2000
   -9.4850   19.4560  -32.6080 C   0  0  0  0  0  0  0  0  0  0  0  0
   -8.7650   18.5470  -31.6050 C   0  0  0  0  0  0  0  0  0  0  0  0
   -7.5230   17.9960  -32.2660 C   0  0  0  0  0  0  0  0  0  0  0  0
   -6.8990   18.8800  -33.1940 N   0  0  0  0  0  0  0  0  0  0  0  0
   -5.7800   19.6200  -32.7000 C   0  0  0  0  0  0  0  0  0  0  0  0
   -6.1190   21.0850  -32.7160 C   0  0  1  0  0  0  0  0  0  0  0  0
   -7.1930   21.4190  -31.6940 C   0  0  0  0  0  0  0  0  0  0  0  0
   -7.4380   22.9250  -31.8410 C   0  0  0  0  0  0  0  0  0  0  0  0
   -6.2950   23.5910  -31.1540 C   0  0  0  0  0  0  0  0  0  0  0  0
   -6.4580   24.6580  -30.2930 C   0  0  0  0  0  0  0  0  0  0  0  0
   -5.3370   25.2100  -29.7030 C   0  0  0  0  0  0  0  0  0  0  0  0
   -4.0650   24.7000  -29.9730 C   0  0  0  0  0  0  0  0  0  0  0  0
   -2.9590   25.2960  -29.3490 O   0  0  0  0  0  0  0  0  0  0  0  0
   -2.5450   24.7280  -28.1130 C   0  0  0  0  0  0  0  0  0  0  0  0
   -2.2730   23.2870  -28.2850 C   0  0  0  0  0  0  0  0  0  0  0  0
   -1.1670   22.9210  -29.0350 C   0  0  0  0  0  0  0  0  0  0  0  0
   -0.8570   21.5860  -29.2340 C   0  0  0  0  0  0  0  0  0  0  0  0
   -1.6740   20.6350  -28.6690 C   0  0  0  0  0  0  0  0  0  0  0  0
   -2.7630   20.9780  -27.9300 C   0  0  0  0  0  0  0  0  0  0  0  0
   -3.0730   22.3090  -27.7310 C   0  0  0  0  0  0  0  0  0  0  0  0
   -3.9370   23.6330  -30.8380 C   0  0  0  0  0  0  0  0  0  0  0  0
   -5.0330   23.0600  -31.4420 C   0  0  0  0  0  0  0  0  0  0  0  0
   -4.9470   21.9330  -32.3630 C   0  0  0  0  0  0  0  0  0  0  0  0
   -3.8290   21.6740  -32.8730 O   0  0  0  0  0  0  0  0  0  0  0  0
  -10.0784   20.2052  -32.0635 H   0  0  0  0  0  0  0  0  0  0  0  0
   -8.7425   19.9651  -33.2401 H   0  0  0  0  0  0  0  0  0  0  0  0
  -10.1506   18.8498  -33.2401 H   0  0  0  0  0  0  0  0  0  0  0  0
   -8.4850   19.1266  -30.7130 H   0  0  0  0  0  0  0  0  0  0  0  0
   -9.4269   17.7235  -31.2988 H   0  0  0  0  0  0  0  0  0  0  0  0
   -6.7937   17.7559  -31.4783 H   0  0  0  0  0  0  0  0  0  0  0  0
   -7.8431   17.1159  -32.8430 H   0  0  0  0  0  0  0  0  0  0  0  0
   -7.5120   19.3600  -33.8610 H   0  0  0  0  0  0  0  0  0  0  0  0
   -5.5541   19.3045  -31.6707 H   0  0  0  0  0  0  0  0  0  0  0  0
   -4.9009   19.4341  -33.3346 H   0  0  0  0  0  0  0  0  0  0  0  0
   -6.4597   21.2911  -33.7414 H   0  0  0  0  0  0  0  0  0  0  0  0
   -8.1143   20.8564  -31.9056 H   0  0  0  0  0  0  0  0  0  0  0  0
   -6.8840   21.1519  -30.6726 H   0  0  0  0  0  0  0  0  0  0  0  0
   -7.4631   23.2071  -32.9039 H   0  0  0  0  0  0  0  0  0  0  0  0
   -8.4025   23.2230  -31.4040 H   0  0  0  0  0  0  0  0  0  0  0  0
   -7.4596   25.0604  -30.0811 H   0  0  0  0  0  0  0  0  0  0  0  0
   -5.4475   26.0599  -29.0135 H   0  0  0  0  0  0  0  0  0  0  0  0
   -1.6304   25.2327  -27.7684 H   0  0  0  0  0  0  0  0  0  0  0  0
   -3.3456   24.8580  -27.3699 H   0  0  0  0  0  0  0  0  0  0  0  0
   -0.5280   23.6995  -29.4773 H   0  0  0  0  0  0  0  0  0  0  0  0
    0.0207   21.2937  -29.8291 H   0  0  0  0  0  0  0  0  0  0  0  0
   -1.4409   19.5704  -28.8185 H   0  0  0  0  0  0  0  0  0  0  0  0
   -3.3976   20.1944  -27.4903 H   0  0  0  0  0  0  0  0  0  0  0  0
   -3.9535   22.5880  -27.1337 H   0  0  0  0  0  0  0  0  0  0  0  0
   -2.9354   23.2307  -31.0500 H   0  0  0  0  0  0  0  0  0  0  0  0
  1  2  1  0
  2  3  1  0
  3  4  1  0
  4  5  1  0
  5  6  1  0
  6  7  1  0
  7  8  1  0
  8  9  1  0
  9 10  2  0
 10 11  1  0
 11 12  2  0
 12 13  1  0
 13 14  1  0
 14 15  1  0
 15 16  2  0
 16 17  1  0
 17 18  2  0
 18 19  1  0
 19 20  2  0
 12 21  1  0
 21 22  2  0
 22 23  1  0
 23 24  2  0
 23  6  1  0
 22  9  1  0
 20 15  1  0
  1 25  1  0
  1 26  1  0
  1 27  1  0
  2 28  1  0
  2 29  1  0
  3 30  1  0
  3 31  1  0
  4 32  1  0
  5 33  1  0
  5 34  1  0
  6 35  1  6
  7 36  1  0
  7 37  1  0
  8 38  1  0
  8 39  1  0
 10 40  1  0
 11 41  1  0
 14 42  1  0
 14 43  1  0
 16 44  1  0
 17 45  1  0
 18 46  1  0
 19 47  1  0
 20 48  1  0
 21 49  1  0
M  END
>  <smiles>  (17) 
CCCNCC1CCc2ccc(OCc3ccccc3)cc2C1=O

>  <score_type>  (17) 
oracle

>  <origin>  (17) 
adg

>  <m_score__min__energy>  (17) 
-9.4800000000000004

>  <m_primary>  (17) 
energy

$$$$
18:0
     RDKit          3D

 55 57  0  0  0  0  0  0  0  0999 V2000
   -3.0390   21.5700  -29.6410 C   0  0  0  0  0  0  0  0  0  0  0  0
   -2.4440   22.7440  -30.4060 C   0  0  0  0  0  0  0  0  0  0  0  0
   -2.5880   24.0260  -29.6250 C   0  0  0  0  0  0  0  0  0  0  0  0
   -3.5350   24.9430  -30.1790 N   0  0  0  0  0  0  0  0  0  0  0  0
   -4.8860   24.7350  -29.6580 C   0  0  0  0  0  0  0  0  0  0  0  0
   -5.9310   25.2360  -30.6040 C   0  0  0  0  0  0  0  0  0  0  0  0
   -6.4820   24.1710  -31.5390 C   0  0  0  0  0  0  0  0  0  0  0  0
   -5.6090   22.9790  -31.4650 C   0  0  0  0  0  0  0  0  0  0  0  0
   -5.1900   22.3830  -32.6970 N   0  0  0  0  0  0  0  0  0  0  0  0
   -5.0030   20.9880  -32.9010 C   0  0  0  0  0  0  0  0  0  0  0  0
   -6.0950   20.1390  -32.8510 C   0  0  0  0  0  0  0  0  0  0  0  0
   -5.9410   18.7600  -33.0550 C   0  0  0  0  0  0  0  0  0  0  0  0
   -4.7320   18.2130  -33.3060 N   0  0  0  0  0  0  0  0  0  0  0  0
   -4.6680   16.7770  -33.4850 C   0  0  0  0  0  0  0  0  0  0  0  0
   -3.6630   19.0240  -33.3590 C   0  0  0  0  0  0  0  0  0  0  0  0
   -2.4170   18.5000  -33.6270 C   0  0  0  0  0  0  0  0  0  0  0  0
   -1.2760   19.3090  -33.7030 C   0  0  0  0  0  0  0  0  0  0  0  0
   -1.4020   20.6500  -33.5080 C   0  0  0  0  0  0  0  0  0  0  0  0
   -2.6570   21.1690  -33.2400 C   0  0  0  0  0  0  0  0  0  0  0  0
   -3.7820   20.4060  -33.1600 C   0  0  0  0  0  0  0  0  0  0  0  0
   -7.1710   17.9670  -33.0010 C   0  0  0  0  0  0  0  0  0  0  0  0
   -7.2100   16.9670  -33.7920 O   0  0  0  0  0  0  0  0  0  0  0  0
   -8.2950   18.3030  -32.0890 C   0  0  0  0  0  0  0  0  0  0  0  0
   -8.0680   19.6960  -31.5260 C   0  0  0  0  0  0  0  0  0  0  0  0
   -7.4720   20.6000  -32.5820 C   0  0  0  0  0  0  0  0  0  0  0  0
   -2.9467   21.7521  -28.5601 H   0  0  0  0  0  0  0  0  0  0  0  0
   -4.1012   21.4608  -29.9051 H   0  0  0  0  0  0  0  0  0  0  0  0
   -2.4990   20.6488  -29.9051 H   0  0  0  0  0  0  0  0  0  0  0  0
   -1.3763   22.5512  -30.5875 H   0  0  0  0  0  0  0  0  0  0  0  0
   -2.9833   22.8513  -31.3587 H   0  0  0  0  0  0  0  0  0  0  0  0
   -2.9079   23.7741  -28.6031 H   0  0  0  0  0  0  0  0  0  0  0  0
   -1.6086   24.5260  -29.6520 H   0  0  0  0  0  0  0  0  0  0  0  0
   -3.5120   24.9260  -31.2280 H   0  0  0  0  0  0  0  0  0  0  0  0
   -5.0419   23.6587  -29.4931 H   0  0  0  0  0  0  0  0  0  0  0  0
   -4.9794   25.2974  -28.7173 H   0  0  0  0  0  0  0  0  0  0  0  0
   -6.7652   25.6429  -30.0137 H   0  0  0  0  0  0  0  0  0  0  0  0
   -5.4489   25.9958  -31.2367 H   0  0  0  0  0  0  0  0  0  0  0  0
   -7.5035   23.9016  -31.2325 H   0  0  0  0  0  0  0  0  0  0  0  0
   -6.5081   24.5537  -32.5699 H   0  0  0  0  0  0  0  0  0  0  0  0
   -4.7015   23.2701  -30.9157 H   0  0  0  0  0  0  0  0  0  0  0  0
   -6.2293   22.2101  -30.9813 H   0  0  0  0  0  0  0  0  0  0  0  0
   -4.9860   22.9780  -33.5630 H   0  0  0  0  0  0  0  0  0  0  0  0
   -4.6461   16.2855  -32.5012 H   0  0  0  0  0  0  0  0  0  0  0  0
   -5.5519   16.4375  -34.0449 H   0  0  0  0  0  0  0  0  0  0  0  0
   -3.7574   16.5175  -34.0449 H   0  0  0  0  0  0  0  0  0  0  0  0
   -2.3156   17.4162  -33.7857 H   0  0  0  0  0  0  0  0  0  0  0  0
   -0.2919   18.8666  -33.9173 H   0  0  0  0  0  0  0  0  0  0  0  0
   -0.5230   21.3091  -33.5623 H   0  0  0  0  0  0  0  0  0  0  0  0
   -2.7503   22.2538  -33.0836 H   0  0  0  0  0  0  0  0  0  0  0  0
   -9.2431   18.2793  -32.6462 H   0  0  0  0  0  0  0  0  0  0  0  0
   -8.3430   17.5713  -31.2690 H   0  0  0  0  0  0  0  0  0  0  0  0
   -9.0295   20.1133  -31.1921 H   0  0  0  0  0  0  0  0  0  0  0  0
   -7.3705   19.6292  -30.6780 H   0  0  0  0  0  0  0  0  0  0  0  0
   -8.0712   20.5444  -33.5028 H   0  0  0  0  0  0  0  0  0  0  0  0
   -7.4651   21.6432  -32.2333 H   0  0  0  0  0  0  0  0  0  0  0  0
  1  2  1  0
  2  3  1  0
  3  4  1  0
  4  5  1  0
  5  6  1  0
  6  7  1  0
  7  8  1  0
  8  9  1  0
  9 10  1  0
 10 11  2  0
 11 12  1  0
 12 13  2  0
 13 14  1  0
 13 15  1  0
 15 16  2  0
 16 17  1  0
 17 18  2  0
 18 19  1  0
 19 20  2  0
 12 21  1  0
 21 22  2  0
 21 23  1  0
 23 24  1  0
 24 25  1  0
 20 10  1  0
 25 11  1  0
 20 15  1  0
  1 26  1  0
  1 27  1  0
  1 28  1  0
  2 29  1  0
  2 30  1  0
  3 31  1  0
  3 32  1  0
  4 33  1  0
  5 34  1  0
  5 35  1  0
  6 36  1  0
  6 37  1  0
  7 38  1  0
  7 39  1  0
  8 40  1  0
  8 41  1  0
  9 42  1  0
 14 43  1  0
 14 44  1  0
 14 45  1  0
 16 46  1  0
 17 47  1  0
 18 48  1  0
 19 49  1  0
 23 50  1  0
 23 51  1  0
 24 52  1  0
 24 53  1  0
 25 54  1  0
 25 55  1  0
M  CHG  1  13   1
M  END
>  <smiles>  (18) 
CCCNCCCCNc1c2c([n+](C)c3ccccc13)C(=O)CCC2

>  <score_type>  (18) 
oracle

>  <origin>  (18) 
adg

>  <m_score__min__energy>  (18) 
-8.9399999999999995

>  <m_primary>  (18) 
energy

$$$$
19:0
     RDKit          3D

 61 62  0  0  0  0  0  0  0  0999 V2000
   -1.9660   25.6240  -26.5420 C   0  0  0  0  0  0  0  0  0  0  0  0
   -1.1500   25.9040  -27.7760 C   0  0  0  0  0  0  0  0  0  0  0  0
   -1.8350   25.6590  -28.9680 O   0  0  0  0  0  0  0  0  0  0  0  0
   -2.2310   24.3020  -28.9460 C   0  0  0  0  0  0  0  0  0  0  0  0
   -3.1550   23.9950  -30.1080 C   0  0  0  0  0  0  0  0  0  0  0  0
   -3.7960   25.1710  -30.4720 O   0  0  0  0  0  0  0  0  0  0  0  0
   -5.0770   25.2100  -30.0330 C   0  0  0  0  0  0  0  0  0  0  0  0
   -6.0820   24.9630  -31.2090 C   0  0  0  0  0  0  0  0  0  0  0  0
   -5.7240   23.8990  -31.8970 O   0  0  0  0  0  0  0  0  0  0  0  0
   -5.7890   22.6300  -32.1770 C   0  0  0  0  0  0  0  0  0  0  0  0
   -4.7520   21.8800  -32.6130 C   0  0  0  0  0  0  0  0  0  0  0  0
   -4.8440   20.5280  -32.9010 C   0  0  0  0  0  0  0  0  0  0  0  0
   -3.9440   19.6430  -33.4380 N   0  0  0  0  0  0  0  0  0  0  0  0
   -3.0250   18.7530  -33.9480 C   0  0  0  0  0  0  0  0  0  0  0  0
   -1.5820   19.3090  -33.9690 C   0  0  0  0  0  0  0  0  0  0  0  0
   -1.4670   20.6360  -33.2930 C   0  0  0  0  0  0  0  0  0  0  0  0
   -1.5370   20.4130  -31.8380 N   0  0  0  0  0  0  0  0  0  0  0  0
   -0.5280   19.4060  -31.4830 C   0  0  0  0  0  0  0  0  0  0  0  0
   -1.0400   21.6500  -31.1960 C   0  0  0  0  0  0  0  0  0  0  0  0
   -6.1510   19.9390  -32.7050 C   0  0  0  0  0  0  0  0  0  0  0  0
   -6.3000   18.5760  -32.9670 C   0  0  0  0  0  0  0  0  0  0  0  0
   -7.5430   17.9420  -32.7880 C   0  0  0  0  0  0  0  0  0  0  0  0
   -8.5370   18.7870  -32.3430 C   0  0  0  0  0  0  0  0  0  0  0  0
   -8.4370   20.0910  -32.0830 C   0  0  0  0  0  0  0  0  0  0  0  0
   -7.1920   20.7110  -32.2630 C   0  0  0  0  0  0  0  0  0  0  0  0
   -6.9880   21.9910  -32.0230 N   0  0  0  0  0  0  0  0  0  0  0  0
   -8.1110   22.7830  -31.5620 C   0  0  0  0  0  0  0  0  0  0  0  0
   -1.3608   25.8317  -25.6473 H   0  0  0  0  0  0  0  0  0  0  0  0
   -2.8582   26.2674  -26.5386 H   0  0  0  0  0  0  0  0  0  0  0  0
   -2.2752   24.5684  -26.5386 H   0  0  0  0  0  0  0  0  0  0  0  0
   -0.8475   26.9615  -27.7600 H   0  0  0  0  0  0  0  0  0  0  0  0
   -0.2879   25.2212  -27.7538 H   0  0  0  0  0  0  0  0  0  0  0  0
   -1.3378   23.6639  -29.0165 H   0  0  0  0  0  0  0  0  0  0  0  0
   -2.7672   24.1051  -28.0059 H   0  0  0  0  0  0  0  0  0  0  0  0
   -2.5710   23.6105  -30.9572 H   0  0  0  0  0  0  0  0  0  0  0  0
   -3.8932   23.2332  -29.8167 H   0  0  0  0  0  0  0  0  0  0  0  0
   -5.2192   24.4315  -29.2690 H   0  0  0  0  0  0  0  0  0  0  0  0
   -5.2718   26.2063  -29.6094 H   0  0  0  0  0  0  0  0  0  0  0  0
   -7.0907   24.8078  -30.7985 H   0  0  0  0  0  0  0  0  0  0  0  0
   -6.0781   25.8389  -31.8745 H   0  0  0  0  0  0  0  0  0  0  0  0
   -3.7776   22.3724  -32.7470 H   0  0  0  0  0  0  0  0  0  0  0  0
   -3.3640   19.4600  -32.2240 H   0  0  0  0  0  0  0  0  0  0  0  0
   -3.0397   17.8432  -33.3299 H   0  0  0  0  0  0  0  0  0  0  0  0
   -3.3114   18.5503  -34.9905 H   0  0  0  0  0  0  0  0  0  0  0  0
   -0.9217   18.5942  -33.4562 H   0  0  0  0  0  0  0  0  0  0  0  0
   -1.2932   19.4456  -35.0216 H   0  0  0  0  0  0  0  0  0  0  0  0
   -0.5068   21.1055  -33.5530 H   0  0  0  0  0  0  0  0  0  0  0  0
   -2.2802   21.3020  -33.6173 H   0  0  0  0  0  0  0  0  0  0  0  0
   -0.4536   19.3317  -30.3880 H   0  0  0  0  0  0  0  0  0  0  0  0
   -0.8219   18.4304  -31.8976 H   0  0  0  0  0  0  0  0  0  0  0  0
    0.4470   19.7019  -31.8976 H   0  0  0  0  0  0  0  0  0  0  0  0
   -1.0846   21.5390  -30.1025 H   0  0  0  0  0  0  0  0  0  0  0  0
    0.0004   21.8305  -31.5041 H   0  0  0  0  0  0  0  0  0  0  0  0
   -1.6664   22.5002  -31.5041 H   0  0  0  0  0  0  0  0  0  0  0  0
   -5.4364   17.9915  -33.3171 H   0  0  0  0  0  0  0  0  0  0  0  0
   -7.7064   16.8721  -32.9847 H   0  0  0  0  0  0  0  0  0  0  0  0
   -9.5265   18.3334  -32.1841 H   0  0  0  0  0  0  0  0  0  0  0  0
   -9.3085   20.6656  -31.7363 H   0  0  0  0  0  0  0  0  0  0  0  0
   -8.1255   22.7932  -30.4621 H   0  0  0  0  0  0  0  0  0  0  0  0
   -8.0122   23.8124  -31.9370 H   0  0  0  0  0  0  0  0  0  0  0  0
   -9.0475   22.3444  -31.9370 H   0  0  0  0  0  0  0  0  0  0  0  0
  1  2  1  0
  2  3  1  0
  3  4  1  0
  4  5  1  0
  5  6  1  0
  6  7  1  0
  7  8  1  0
  8  9  1  0
  9 10  1  0
 10 11  2  0
 11 12  1  0
 12 13  1  0
 13 14  1  0
 14 15  1  0
 15 16  1  0
 16 17  1  0
 17 18  1  0
 17 19  1  0
 12 20  2  0
 20 21  1  0
 21 22  2  0
 22 23  1  0
 23 24  2  0
 24 25  1  0
 25 26  2  0
 26 27  1  0
 26 10  1  0
 25 20  1  0
  1 28  1  0
  1 29  1  0
  1 30  1  0
  2 31  1  0
  2 32  1  0
  4 33  1  0
  4 34  1  0
  5 35  1  0
  5 36  1  0
  7 37  1  0
  7 38  1  0
  8 39  1  0
  8 40  1  0
 11 41  1  0
 13 42  1  0
 14 43  1  0
 14 44  1  0
 15 45  1  0
 15 46  1  0
 16 47  1  0
 16 48  1  0
 18 49  1  0
 18 50  1  0
 18 51  1  0
 19 52  1  0
 19 53  1  0
 19 54  1  0
 21 55  1  0
 22 56  1  0
 23 57  1  0
 24 58  1  0
 27 59  1  0
 27 60  1  0
 27 61  1  0
M  CHG  1  26   1
M  END
>  <smiles>  (19) 
CCOCCOCCOc1cc(NCCCN(C)C)c2ccccc2[n+]1C

>  <score_type>  (19) 
oracle

>  <origin>  (19) 
adg

>  <m_score__min__energy>  (19) 
-7.4100000000000001

>  <m_primary>  (19) 
energy

$$$$
20:0
     RDKit          3D

 73 75  0  0  0  0  0  0  0  0999 V2000
   -2.4210   25.3060  -26.2530 C   0  0  0  0  0  0  0  0  0  0  0  0
   -3.8860   24.9560  -26.3720 C   0  0  0  0  0  0  0  0  0  0  0  0
   -4.1480   23.9370  -27.4580 C   0  0  0  0  0  0  0  0  0  0  0  0
   -2.8990   23.2170  -27.8940 C   0  0  0  0  0  0  0  0  0  0  0  0
   -3.0220   22.0790  -28.6690 N   0  0  0  0  0  0  0  0  0  0  0  0
   -2.7310   20.7980  -28.2500 C   0  0  0  0  0  0  0  0  0  0  0  0
   -1.9630   20.4170  -27.0760 C   0  0  0  0  0  0  0  0  0  0  0  0
   -2.0350   18.9470  -26.7200 C   0  0  0  0  0  0  0  0  0  0  0  0
   -3.3290   18.5860  -25.9930 C   0  0  0  0  0  0  0  0  0  0  0  0
   -2.7760   22.2860  -30.0700 C   0  0  0  0  0  0  0  0  0  0  0  0
   -1.4650   21.6480  -30.4410 C   0  0  0  0  0  0  0  0  0  0  0  0
   -1.6230   20.4210  -31.1840 N   0  0  0  0  0  0  0  0  0  0  0  0
   -2.9670   20.3190  -31.7300 C   0  0  0  0  0  0  0  0  0  0  0  0
   -3.1170   20.8110  -33.1310 C   0  0  0  0  0  0  0  0  0  0  0  0
   -4.2920   21.5670  -33.4180 N   0  0  0  0  0  0  0  0  0  0  0  0
   -5.4820   21.6340  -32.6810 C   0  0  0  0  0  0  0  0  0  0  0  0
   -6.3930   20.6030  -32.8580 C   0  0  0  0  0  0  0  0  0  0  0  0
   -7.6000   20.5590  -32.1760 C   0  0  0  0  0  0  0  0  0  0  0  0
   -7.9320   21.5460  -31.2950 N   0  0  0  0  0  0  0  0  0  0  0  0
   -9.1950   21.4580  -30.6360 C   0  0  0  0  0  0  0  0  0  0  0  0
   -7.0430   22.5480  -31.1270 C   0  0  0  0  0  0  0  0  0  0  0  0
   -7.3440   23.5650  -30.2490 C   0  0  0  0  0  0  0  0  0  0  0  0
   -6.4640   24.6310  -30.0420 C   0  0  0  0  0  0  0  0  0  0  0  0
   -5.2490   24.7100  -30.7090 C   0  0  0  0  0  0  0  0  0  0  0  0
   -4.9840   23.6610  -31.5840 C   0  0  0  0  0  0  0  0  0  0  0  0
   -5.8390   22.6160  -31.7910 C   0  0  0  0  0  0  0  0  0  0  0  0
   -8.4760   19.3970  -32.4460 C   0  0  0  0  0  0  0  0  0  0  0  0
   -7.6980   18.1020  -32.4260 C   0  0  0  0  0  0  0  0  0  0  0  0
   -6.4010   18.1440  -33.1750 C   0  0  0  0  0  0  0  0  0  0  0  0
   -6.1310   19.4840  -33.8070 C   0  0  0  0  0  0  0  0  0  0  0  0
   -2.1449   25.3720  -25.1903 H   0  0  0  0  0  0  0  0  0  0  0  0
   -1.8171   24.5269  -26.7411 H   0  0  0  0  0  0  0  0  0  0  0  0
   -2.2345   26.2740  -26.7411 H   0  0  0  0  0  0  0  0  0  0  0  0
   -4.2304   24.5452  -25.4114 H   0  0  0  0  0  0  0  0  0  0  0  0
   -4.4304   25.8748  -26.6354 H   0  0  0  0  0  0  0  0  0  0  0  0
   -4.8671   23.1959  -27.0789 H   0  0  0  0  0  0  0  0  0  0  0  0
   -4.5421   24.4768  -28.3317 H   0  0  0  0  0  0  0  0  0  0  0  0
   -2.2956   23.9354  -28.4682 H   0  0  0  0  0  0  0  0  0  0  0  0
   -2.4607   22.8519  -26.9535 H   0  0  0  0  0  0  0  0  0  0  0  0
   -3.7096   20.3131  -28.1187 H   0  0  0  0  0  0  0  0  0  0  0  0
   -2.0121   20.5140  -29.0326 H   0  0  0  0  0  0  0  0  0  0  0  0
   -0.9090   20.6737  -27.2584 H   0  0  0  0  0  0  0  0  0  0  0  0
   -2.4021   20.9630  -26.2280 H   0  0  0  0  0  0  0  0  0  0  0  0
   -1.9734   18.3560  -27.6457 H   0  0  0  0  0  0  0  0  0  0  0  0
   -1.1970   18.7247  -26.0430 H   0  0  0  0  0  0  0  0  0  0  0  0
   -3.1642   18.6320  -24.9064 H   0  0  0  0  0  0  0  0  0  0  0  0
   -4.1187   19.2981  -26.2745 H   0  0  0  0  0  0  0  0  0  0  0  0
   -3.6360   17.5679  -26.2745 H   0  0  0  0  0  0  0  0  0  0  0  0
   -3.5865   21.8298  -30.6573 H   0  0  0  0  0  0  0  0  0  0  0  0
   -2.7359   23.3644  -30.2830 H   0  0  0  0  0  0  0  0  0  0  0  0
   -0.8916   22.3579  -31.0552 H   0  0  0  0  0  0  0  0  0  0  0  0
   -0.9443   21.3997  -29.5044 H   0  0  0  0  0  0  0  0  0  0  0  0
   -0.9760   20.4770  -32.0110 H   0  0  0  0  0  0  0  0  0  0  0  0
   -3.2658   19.2606  -31.7061 H   0  0  0  0  0  0  0  0  0  0  0  0
   -3.6021   20.9659  -31.1070 H   0  0  0  0  0  0  0  0  0  0  0  0
   -2.2477   21.4459  -33.3570 H   0  0  0  0  0  0  0  0  0  0  0  0
   -3.1951   19.9055  -33.7506 H   0  0  0  0  0  0  0  0  0  0  0  0
   -4.2700   22.1640  -34.3040 H   0  0  0  0  0  0  0  0  0  0  0  0
   -9.0418   21.4687  -29.5468 H   0  0  0  0  0  0  0  0  0  0  0  0
   -9.8207   22.3147  -30.9267 H   0  0  0  0  0  0  0  0  0  0  0  0
   -9.6959   20.5228  -30.9267 H   0  0  0  0  0  0  0  0  0  0  0  0
   -8.2964   23.5380  -29.6993 H   0  0  0  0  0  0  0  0  0  0  0  0
   -6.7406   25.4261  -29.3339 H   0  0  0  0  0  0  0  0  0  0  0  0
   -4.5461   25.5423  -30.5567 H   0  0  0  0  0  0  0  0  0  0  0  0
   -4.0344   23.6740  -32.1391 H   0  0  0  0  0  0  0  0  0  0  0  0
   -9.2610   19.3545  -31.6766 H   0  0  0  0  0  0  0  0  0  0  0  0
   -8.9156   19.5207  -33.4467 H   0  0  0  0  0  0  0  0  0  0  0  0
   -7.4813   17.8477  -31.3780 H   0  0  0  0  0  0  0  0  0  0  0  0
   -8.3258   17.3524  -32.9299 H   0  0  0  0  0  0  0  0  0  0  0  0
   -5.5840   17.9154  -32.4748 H   0  0  0  0  0  0  0  0  0  0  0  0
   -6.4648   17.4038  -33.9862 H   0  0  0  0  0  0  0  0  0  0  0  0
   -5.0781   19.5236  -34.1231 H   0  0  0  0  0  0  0  0  0  0  0  0
   -6.8054   19.5994  -34.6684 H   0  0  0  0  0  0  0  0  0  0  0  0
  1  2  1  0
  2  3  1  0
  3  4  1  0
  4  5  1  0
  5  6  1  0
  6  7  1  0
  7  8  1  0
  8  9  1  0
  5 10  1  0
 10 11  1  0
 11 12  1  0
 12 13  1  0
 13 14  1  0
 14 15  1  0
 15 16  1  0
 16 17  2  0
 17 18  1  0
 18 19  2  0
 19 20  1  0
 19 21  1  0
 21 22  2  0
 22 23  1  0
 23 24  2  0
 24 25  1  0
 25 26  2  0
 18 27  1  0
 27 28  1  0
 28 29  1  0
 29 30  1  0
 26 16  1  0
 30 17  1  0
 26 21  1  0
  1 31  1  0
  1 32  1  0
  1 33  1  0
  2 34  1  0
  2 35  1  0
  3 36  1  0
  3 37  1  0
  4 38  1  0
  4 39  1  0
  6 40  1  0
  6 41  1  0
  7 42  1  0
  7 43  1  0
  8 44  1  0
  8 45  1  0
  9 46  1  0
  9 47  1  0
  9 48  1  0
 10 49  1  0
 10 50  1  0
 11 51  1  0
 11 52  1  0
 12 53  1  0
 13 54  1  0
 13 55  1  0
 14 56  1  0
 14 57  1  0
 15 58  1  0
 20 59  1  0
 20 60  1  0
 20 61  1  0
 22 62  1  0
 23 63  1  0
 24 64  1  0
 25 65  1  0
 27 66  1  0
 27 67  1  0
 28 68  1  0
 28 69  1  0
 29 70  1  0
 29 71  1  0
 30 72  1  0
 30 73  1  0
M  CHG  1  19   1
M  END
>  <smiles>  (20) 
CCCCN(CCCC)CCNCCNc1c2c([n+](C)c3ccccc13)CCCC2

>  <score_type>  (20) 
oracle

>  <origin>  (20) 
adg

>  <m_score__min__energy>  (20) 
-9.5500000000000007

>  <m_primary>  (20) 
energy

$$$$
21:0
     RDKit          3D

 38 41  0  0  0  0  0  0  0  0999 V2000
   -9.4710   18.9290  -32.6800 C   0  0  0  0  0  0  0  0  0  0  0  0
   -8.9090   20.1980  -32.2730 N   0  0  0  0  0  0  0  0  0  0  0  0
   -7.6590   20.4680  -31.8500 C   0  0  0  0  0  0  0  0  0  0  0  0
   -7.5700   21.8160  -31.5690 C   0  0  0  0  0  0  0  0  0  0  0  0
   -6.4500   22.6020  -31.0870 C   0  0  0  0  0  0  0  0  0  0  0  0
   -6.5430   23.9760  -30.9960 C   0  0  0  0  0  0  0  0  0  0  0  0
   -5.5110   24.7750  -30.5460 C   0  0  0  0  0  0  0  0  0  0  0  0
   -4.3150   24.1570  -30.1650 C   0  0  0  0  0  0  0  0  0  0  0  0
   -3.2980   24.9260  -29.7220 N   0  0  0  0  0  0  0  0  0  0  0  0
   -2.1220   24.3480  -29.3450 C   0  0  0  0  0  0  0  0  0  0  0  0
   -1.0560   25.1360  -28.8820 O   0  0  0  0  0  0  0  0  0  0  0  0
   -1.1200   25.7430  -27.6580 C   0  0  0  0  0  0  0  0  0  0  0  0
   -0.5010   26.9750  -27.4360 C   0  0  0  0  0  0  0  0  0  0  0  0
   -0.5750   27.5840  -26.1820 C   0  0  0  0  0  0  0  0  0  0  0  0
   -1.2640   26.9570  -25.1690 C   0  0  0  0  0  0  0  0  0  0  0  0
   -1.8810   25.7310  -25.3880 C   0  0  0  0  0  0  0  0  0  0  0  0
   -1.8210   25.1070  -26.6280 C   0  0  0  0  0  0  0  0  0  0  0  0
   -2.0030   22.9750  -29.4250 C   0  0  0  0  0  0  0  0  0  0  0  0
   -3.0190   22.1540  -29.8710 C   0  0  0  0  0  0  0  0  0  0  0  0
   -4.2130   22.7720  -30.2520 C   0  0  0  0  0  0  0  0  0  0  0  0
   -5.2600   21.9890  -30.7070 C   0  0  0  0  0  0  0  0  0  0  0  0
   -8.8330   22.3240  -31.8490 C   0  0  0  0  0  0  0  0  0  0  0  0
   -9.6250   21.3240  -32.2730 N   0  0  0  0  0  0  0  0  0  0  0  0
   -9.7317   18.3404  -31.7880 H   0  0  0  0  0  0  0  0  0  0  0  0
  -10.3756   19.1044  -33.2808 H   0  0  0  0  0  0  0  0  0  0  0  0
   -8.7332   18.3770  -33.2808 H   0  0  0  0  0  0  0  0  0  0  0  0
   -6.8447   19.7358  -31.7459 H   0  0  0  0  0  0  0  0  0  0  0  0
   -7.4851   24.4578  -31.2966 H   0  0  0  0  0  0  0  0  0  0  0  0
   -5.6259   25.8675  -30.4886 H   0  0  0  0  0  0  0  0  0  0  0  0
    0.0472   27.4676  -28.2526 H   0  0  0  0  0  0  0  0  0  0  0  0
   -0.0879   28.5544  -26.0055 H   0  0  0  0  0  0  0  0  0  0  0  0
   -1.3269   27.4300  -24.1779 H   0  0  0  0  0  0  0  0  0  0  0  0
   -2.4265   25.2461  -24.5650 H   0  0  0  0  0  0  0  0  0  0  0  0
   -2.3124   24.1372  -26.7955 H   0  0  0  0  0  0  0  0  0  0  0  0
   -1.0529   22.5131  -29.1186 H   0  0  0  0  0  0  0  0  0  0  0  0
   -2.8944   21.0624  -29.9241 H   0  0  0  0  0  0  0  0  0  0  0  0
   -5.1526   20.8959  -30.7674 H   0  0  0  0  0  0  0  0  0  0  0  0
   -9.1360   23.3759  -31.7410 H   0  0  0  0  0  0  0  0  0  0  0  0
  1  2  1  0
  2  3  1  0
  3  4  2  0
  4  5  1  0
  5  6  2  0
  6  7  1  0
  7  8  2  0
  8  9  1  0
  9 10  2  0
 10 11  1  0
 11 12  1  0
 12 13  2  0
 13 14  1  0
 14 15  2  0
 15 16  1  0
 16 17  2  0
 10 18  1  0
 18 19  2  0
 19 20  1  0
 20 21  2  0
  4 22  1  0
 22 23  2  0
 23  2  1  0
 21  5  1  0
 20  8  1  0
 17 12  1  0
  1 24  1  0
  1 25  1  0
  1 26  1  0
  3 27  1  0
  6 28  1  0
  7 29  1  0
 13 30  1  0
 14 31  1  0
 15 32  1  0
 16 33  1  0
 17 34  1  0
 18 35  1  0
 19 36  1  0
 21 37  1  0
 22 38  1  0
M  END
>  <smiles>  (21) 
Cn1cc(-c2ccc3nc(Oc4ccccc4)ccc3c2)cn1

>  <score_type>  (21) 
oracle

>  <origin>  (21) 
adg

>  <m_score__min__energy>  (21) 
-8.4600000000000009

>  <m_primary>  (21) 
energy

$$$$
22:0
     RDKit          3D

 53 55  0  0  0  0  0  0  0  0999 V2000
   -1.5350   21.6610  -28.0150 C   0  0  0  0  0  0  0  0  0  0  0  0
   -2.9720   21.5110  -28.4000 C   0  0  0  0  0  0  0  0  0  0  0  0
   -3.2740   22.4650  -29.4450 N   0  0  0  0  0  0  0  0  0  0  0  0
   -3.8060   23.6930  -29.2570 C   0  0  0  0  0  0  0  0  0  0  0  0
   -4.1780   24.2890  -27.9420 C   0  0  0  0  0  0  0  0  0  0  0  0
   -2.8990   24.8280  -27.3510 C   0  0  0  0  0  0  0  0  0  0  0  0
   -1.9680   25.0190  -28.1560 O   0  0  0  0  0  0  0  0  0  0  0  0
   -2.8060   25.0860  -25.9690 N   0  0  0  0  0  0  0  0  0  0  0  0
   -1.6830   25.5860  -25.2850 C   0  0  0  0  0  0  0  0  0  0  0  0
   -0.5890   24.7510  -25.1520 C   0  0  0  0  0  0  0  0  0  0  0  0
    0.5430   25.1800  -24.4930 C   0  0  0  0  0  0  0  0  0  0  0  0
    0.6600   26.4350  -23.9350 C   0  0  0  0  0  0  0  0  0  0  0  0
   -0.4280   27.2740  -24.0630 C   0  0  0  0  0  0  0  0  0  0  0  0
   -1.5740   26.8360  -24.7320 C   0  0  0  0  0  0  0  0  0  0  0  0
   -3.9400   24.2870  -30.4790 N   0  0  0  0  0  0  0  0  0  0  0  0
   -3.4990   23.4310  -31.3810 N   0  0  0  0  0  0  0  0  0  0  0  0
   -3.0850   22.3080  -30.7680 C   0  0  0  0  0  0  0  0  0  0  0  0
   -2.4130   20.8850  -31.6040 S   0  0  0  0  0  0  0  0  0  0  0  0
   -3.3960   20.4240  -33.0280 C   0  0  0  0  0  0  0  0  0  0  0  0
   -4.7370   21.1330  -33.0950 C   0  0  0  0  0  0  0  0  0  0  0  0
   -5.5550   20.7970  -31.9950 O   0  0  0  0  0  0  0  0  0  0  0  0
   -6.9320   20.8620  -32.0000 C   0  0  0  0  0  0  0  0  0  0  0  0
   -7.7380   19.7490  -32.1830 C   0  0  0  0  0  0  0  0  0  0  0  0
   -9.1100   19.8750  -32.1780 C   0  0  0  0  0  0  0  0  0  0  0  0
   -9.6760   21.1400  -31.9850 C   0  0  0  0  0  0  0  0  0  0  0  0
   -8.8610   22.2560  -31.8010 C   0  0  0  0  0  0  0  0  0  0  0  0
   -7.4860   22.1320  -31.8060 C   0  0  0  0  0  0  0  0  0  0  0  0
   -6.6970   23.2540  -31.6220 O   0  0  0  0  0  0  0  0  0  0  0  0
   -6.9910   24.0410  -30.4780 C   0  0  0  0  0  0  0  0  0  0  0  0
   -1.4482   21.6701  -26.9185 H   0  0  0  0  0  0  0  0  0  0  0  0
   -0.9566   20.8184  -28.4216 H   0  0  0  0  0  0  0  0  0  0  0  0
   -1.1431   22.6049  -28.4216 H   0  0  0  0  0  0  0  0  0  0  0  0
   -3.1522   20.4900  -28.7675 H   0  0  0  0  0  0  0  0  0  0  0  0
   -3.6152   21.6952  -27.5269 H   0  0  0  0  0  0  0  0  0  0  0  0
   -4.9057   25.1017  -28.0832 H   0  0  0  0  0  0  0  0  0  0  0  0
   -4.6442   23.5441  -27.2803 H   0  0  0  0  0  0  0  0  0  0  0  0
   -3.6880   24.8710  -25.4100 H   0  0  0  0  0  0  0  0  0  0  0  0
   -0.6223   23.7363  -25.5755 H   0  0  0  0  0  0  0  0  0  0  0  0
    1.3937   24.4878  -24.4083 H   0  0  0  0  0  0  0  0  0  0  0  0
    1.5752   26.7519  -23.4136 H   0  0  0  0  0  0  0  0  0  0  0  0
   -0.3932   28.2881  -23.6382 H   0  0  0  0  0  0  0  0  0  0  0  0
   -2.4271   27.5250  -24.8189 H   0  0  0  0  0  0  0  0  0  0  0  0
   -2.8273   20.6686  -33.9373 H   0  0  0  0  0  0  0  0  0  0  0  0
   -3.6039   19.3472  -32.9421 H   0  0  0  0  0  0  0  0  0  0  0  0
   -4.5671   22.2198  -33.0954 H   0  0  0  0  0  0  0  0  0  0  0  0
   -5.2492   20.8165  -34.0156 H   0  0  0  0  0  0  0  0  0  0  0  0
   -7.2798   18.7603  -32.3330 H   0  0  0  0  0  0  0  0  0  0  0  0
   -9.7515   18.9934  -32.3237 H   0  0  0  0  0  0  0  0  0  0  0  0
  -10.7700   21.2545  -31.9784 H   0  0  0  0  0  0  0  0  0  0  0  0
   -9.3180   23.2452  -31.6503 H   0  0  0  0  0  0  0  0  0  0  0  0
   -6.7744   23.4613  -29.5686 H   0  0  0  0  0  0  0  0  0  0  0  0
   -6.3719   24.9501  -30.4894 H   0  0  0  0  0  0  0  0  0  0  0  0
   -8.0546   24.3215  -30.4894 H   0  0  0  0  0  0  0  0  0  0  0  0
  1  2  1  0
  2  3  1  0
  3  4  1  0
  4  5  1  0
  5  6  1  0
  6  7  2  0
  6  8  1  0
  8  9  1  0
  9 10  2  0
 10 11  1  0
 11 12  2  0
 12 13  1  0
 13 14  2  0
  4 15  2  0
 15 16  1  0
 16 17  2  0
 17 18  1  0
 18 19  1  0
 19 20  1  0
 20 21  1  0
 21 22  1  0
 22 23  2  0
 23 24  1  0
 24 25  2  0
 25 26  1  0
 26 27  2  0
 27 28  1  0
 28 29  1  0
 17  3  1  0
 27 22  1  0
 14  9  1  0
  1 30  1  0
  1 31  1  0
  1 32  1  0
  2 33  1  0
  2 34  1  0
  5 35  1  0
  5 36  1  0
  8 37  1  0
 10 38  1  0
 11 39  1  0
 12 40  1  0
 13 41  1  0
 14 42  1  0
 19 43  1  0
 19 44  1  0
 20 45  1  0
 20 46  1  0
 23 47  1  0
 24 48  1  0
 25 49  1  0
 26 50  1  0
 29 51  1  0
 29 52  1  0
 29 53  1  0
M  END
>  <smiles>  (22) 
CCn1c(CC(=O)Nc2ccccc2)nnc1SCCOc1ccccc1OC

>  <score_type>  (22) 
oracle

>  <origin>  (22) 
adg

>  <m_score__min__energy>  (22) 
-8.9600000000000009

>  <m_primary>  (22) 
energy

$$$$
23:0
     RDKit          3D

 66 68  0  0  0  0  0  0  0  0999 V2000
   -0.0490   19.0720  -28.9900 C   0  0  0  0  0  0  0  0  0  0  0  0
   -0.3200   18.3630  -27.7080 C   0  0  0  0  0  0  0  0  0  0  0  0
   -1.0940   18.9890  -26.8270 O   0  0  0  0  0  0  0  0  0  0  0  0
   -2.2720   18.5460  -26.3380 C   0  0  0  0  0  0  0  0  0  0  0  0
   -3.5040   19.2730  -26.7140 C   0  0  0  0  0  0  0  0  0  0  0  0
   -3.4950   20.5240  -27.1180 O   0  0  0  0  0  0  0  0  0  0  0  0
   -2.7420   21.2580  -27.8750 C   0  0  0  0  0  0  0  0  0  0  0  0
   -2.8910   21.1910  -29.3660 C   0  0  0  0  0  0  0  0  0  0  0  0
   -3.9920   22.0600  -29.6700 O   0  0  0  0  0  0  0  0  0  0  0  0
   -3.9020   23.1980  -28.8610 C   0  0  0  0  0  0  0  0  0  0  0  0
   -4.6800   24.2890  -29.5990 C   0  0  0  0  0  0  0  0  0  0  0  0
   -6.0110   23.7600  -30.0200 C   0  0  0  0  0  0  0  0  0  0  0  0
   -6.4970   24.1850  -31.3530 C   0  0  0  0  0  0  0  0  0  0  0  0
   -6.3500   23.2890  -32.4540 N   0  0  0  0  0  0  0  0  0  0  0  0
   -6.1430   21.9040  -32.3850 C   0  0  0  0  0  0  0  0  0  0  0  0
   -7.2740   21.1330  -32.0470 C   0  0  0  0  0  0  0  0  0  0  0  0
   -7.1790   19.7450  -31.9540 C   0  0  0  0  0  0  0  0  0  0  0  0
   -6.0300   19.0800  -32.1740 N   0  0  0  0  0  0  0  0  0  0  0  0
   -5.9810   17.6460  -32.0450 C   0  0  0  0  0  0  0  0  0  0  0  0
   -4.9300   19.8210  -32.5030 C   0  0  0  0  0  0  0  0  0  0  0  0
   -3.7250   19.1980  -32.7530 C   0  0  0  0  0  0  0  0  0  0  0  0
   -2.5770   19.9130  -33.1030 C   0  0  0  0  0  0  0  0  0  0  0  0
   -2.6430   21.2840  -33.2030 C   0  0  0  0  0  0  0  0  0  0  0  0
   -3.8580   21.8760  -32.9480 C   0  0  0  0  0  0  0  0  0  0  0  0
   -4.9980   21.2040  -32.6050 C   0  0  0  0  0  0  0  0  0  0  0  0
   -8.4620   19.0490  -31.6060 C   0  0  0  0  0  0  0  0  0  0  0  0
   -9.4760   19.6640  -32.5850 C   0  0  0  0  0  0  0  0  0  0  0  0
   -9.7810   21.0480  -32.0660 C   0  0  0  0  0  0  0  0  0  0  0  0
   -8.5410   21.8180  -31.7890 C   0  0  0  0  0  0  0  0  0  0  0  0
    0.3363   20.0801  -28.7771 H   0  0  0  0  0  0  0  0  0  0  0  0
    0.6973   18.5090  -29.5697 H   0  0  0  0  0  0  0  0  0  0  0  0
   -0.9806   19.1504  -29.5697 H   0  0  0  0  0  0  0  0  0  0  0  0
   -0.8027   17.4055  -27.9533 H   0  0  0  0  0  0  0  0  0  0  0  0
    0.6601   18.2738  -27.2166 H   0  0  0  0  0  0  0  0  0  0  0  0
   -2.3929   17.5051  -26.6725 H   0  0  0  0  0  0  0  0  0  0  0  0
   -2.1889   18.6955  -25.2514 H   0  0  0  0  0  0  0  0  0  0  0  0
   -3.9632   18.6933  -27.5283 H   0  0  0  0  0  0  0  0  0  0  0  0
   -4.0195   19.3547  -25.7457 H   0  0  0  0  0  0  0  0  0  0  0  0
   -2.9210   22.3036  -27.5839 H   0  0  0  0  0  0  0  0  0  0  0  0
   -1.7343   20.8524  -27.7015 H   0  0  0  0  0  0  0  0  0  0  0  0
   -1.9739   21.5413  -29.8621 H   0  0  0  0  0  0  0  0  0  0  0  0
   -3.0670   20.1636  -29.7173 H   0  0  0  0  0  0  0  0  0  0  0  0
   -4.3515   23.0054  -27.8757 H   0  0  0  0  0  0  0  0  0  0  0  0
   -2.8565   23.4912  -28.6853 H   0  0  0  0  0  0  0  0  0  0  0  0
   -4.8237   25.1511  -28.9311 H   0  0  0  0  0  0  0  0  0  0  0  0
   -4.1140   24.6017  -30.4889 H   0  0  0  0  0  0  0  0  0  0  0  0
   -5.9496   22.6617  -30.0207 H   0  0  0  0  0  0  0  0  0  0  0  0
   -6.7315   24.1756  -29.3002 H   0  0  0  0  0  0  0  0  0  0  0  0
   -7.5709   24.4007  -31.2524 H   0  0  0  0  0  0  0  0  0  0  0  0
   -5.8511   25.0364  -31.6136 H   0  0  0  0  0  0  0  0  0  0  0  0
   -6.4030   23.7130  -33.4270 H   0  0  0  0  0  0  0  0  0  0  0  0
   -5.9717   17.3738  -30.9792 H   0  0  0  0  0  0  0  0  0  0  0  0
   -6.8646   17.2039  -32.5286 H   0  0  0  0  0  0  0  0  0  0  0  0
   -5.0693   17.2653  -32.5286 H   0  0  0  0  0  0  0  0  0  0  0  0
   -3.6661   18.1024  -32.6742 H   0  0  0  0  0  0  0  0  0  0  0  0
   -1.6310   19.3861  -33.2965 H   0  0  0  0  0  0  0  0  0  0  0  0
   -1.7606   21.8816  -33.4756 H   0  0  0  0  0  0  0  0  0  0  0  0
   -3.9168   22.9717  -33.0258 H   0  0  0  0  0  0  0  0  0  0  0  0
   -8.3752   17.9632  -31.7593 H   0  0  0  0  0  0  0  0  0  0  0  0
   -8.7491   19.1780  -30.5520 H   0  0  0  0  0  0  0  0  0  0  0  0
   -9.0431   19.7227  -33.5945 H   0  0  0  0  0  0  0  0  0  0  0  0
  -10.3879   19.0525  -32.6522 H   0  0  0  0  0  0  0  0  0  0  0  0
  -10.3749   21.5877  -32.8183 H   0  0  0  0  0  0  0  0  0  0  0  0
  -10.3378   20.9450  -31.1230 H   0  0  0  0  0  0  0  0  0  0  0  0
   -8.5640   22.7237  -32.4129 H   0  0  0  0  0  0  0  0  0  0  0  0
   -8.5531   22.0080  -30.7056 H   0  0  0  0  0  0  0  0  0  0  0  0
  1  2  1  0
  2  3  1  0
  3  4  1  0
  4  5  1  0
  5  6  1  0
  6  7  1  0
  7  8  1  0
  8  9  1  0
  9 10  1  0
 10 11  1  0
 11 12  1  0
 12 13  1  0
 13 14  1  0
 14 15  1  0
 15 16  2  0
 16 17  1  0
 17 18  2  0
 18 19  1  0
 18 20  1  0
 20 21  2  0
 21 22  1  0
 22 23  2  0
 23 24  1  0
 24 25  2  0
 17 26  1  0
 26 27  1  0
 27 28  1  0
 28 29  1  0
 25 15  1  0
 29 16  1  0
 25 20  1  0
  1 30  1  0
  1 31  1  0
  1 32  1  0
  2 33  1  0
  2 34  1  0
  4 35  1  0
  4 36  1  0
  5 37  1  0
  5 38  1  0
  7 39  1  0
  7 40  1  0
  8 41  1  0
  8 42  1  0
 10 43  1  0
 10 44  1  0
 11 45  1  0
 11 46  1  0
 12 47  1  0
 12 48  1  0
 13 49  1  0
 13 50  1  0
 14 51  1  0
 19 52  1  0
 19 53  1  0
 19 54  1  0
 21 55  1  0
 22 56  1  0
 23 57  1  0
 24 58  1  0
 26 59  1  0
 26 60  1  0
 27 61  1  0
 27 62  1  0
 28 63  1  0
 28 64  1  0
 29 65  1  0
 29 66  1  0
M  CHG  1  18   1
M  END
>  <smiles>  (23) 
CCOCCOCCOCCCCNc1c2c([n+](C)c3ccccc13)CCCC2

>  <score_type>  (23) 
oracle

>  <origin>  (23) 
adg

>  <m_score__min__energy>  (23) 
-9.2799999999999994

>  <m_primary>  (23) 
energy

$$$$
24:0
     RDKit          3D

 55 58  0  0  0  0  0  0  0  0999 V2000
   -5.9510   24.9880  -29.4240 C   0  0  0  0  0  0  0  0  0  0  0  0
   -5.6320   25.4520  -30.8180 C   0  0  0  0  0  0  0  0  0  0  0  0
   -4.3450   25.0420  -31.1400 O   0  0  0  0  0  0  0  0  0  0  0  0
   -3.6530   24.8470  -29.9990 N   0  0  0  0  0  0  0  0  0  0  0  0
   -2.7950   23.6720  -30.0480 C   0  0  0  0  0  0  0  0  0  0  0  0
   -3.6470   22.4370  -29.7240 C   0  0  0  0  0  0  0  0  0  0  0  0
   -3.5550   21.4270  -30.8420 C   0  0  0  0  0  0  0  0  0  0  0  0
   -3.3810   22.1930  -32.1520 C   0  0  0  0  0  0  0  0  0  0  0  0
   -4.4660   21.9940  -33.0570 N   0  0  0  0  0  0  0  0  0  0  0  0
   -5.4840   21.0170  -32.9290 C   0  0  0  0  0  0  0  0  0  0  0  0
   -5.2720   19.6740  -33.2890 C   0  0  0  0  0  0  0  0  0  0  0  0
   -6.2680   18.7340  -33.1670 C   0  0  0  0  0  0  0  0  0  0  0  0
   -7.4540   19.1400  -32.6840 N   0  0  0  0  0  0  0  0  0  0  0  0
   -8.5160   18.2120  -32.3660 C   0  0  0  0  0  0  0  0  0  0  0  0
   -7.6720   20.4350  -32.3370 C   0  0  0  0  0  0  0  0  0  0  0  0
   -8.9050   20.8730  -31.8710 C   0  0  0  0  0  0  0  0  0  0  0  0
   -9.1000   22.2270  -31.5420 C   0  0  0  0  0  0  0  0  0  0  0  0
   -8.1040   23.1600  -31.6640 C   0  0  0  0  0  0  0  0  0  0  0  0
   -6.8850   22.7300  -32.1260 C   0  0  0  0  0  0  0  0  0  0  0  0
   -6.7000   21.4060  -32.4470 C   0  0  0  0  0  0  0  0  0  0  0  0
   -6.0000   17.3160  -33.5730 C   0  0  0  0  0  0  0  0  0  0  0  0
   -6.8430   16.2710  -33.6300 C   0  0  0  0  0  0  0  0  0  0  0  0
   -6.3380   15.0740  -34.1430 C   0  0  0  0  0  0  0  0  0  0  0  0
   -4.6360   15.3930  -34.5670 S   0  0  0  0  0  0  0  0  0  0  0  0
   -4.7310   17.1230  -34.0190 C   0  0  0  0  0  0  0  0  0  0  0  0
   -3.5930   18.0090  -34.0750 C   0  0  0  0  0  0  0  0  0  0  0  0
   -3.8980   19.4270  -33.8060 C   0  0  0  0  0  0  0  0  0  0  0  0
   -5.4840   25.6672  -28.6956 H   0  0  0  0  0  0  0  0  0  0  0  0
   -7.0413   24.9875  -29.2782 H   0  0  0  0  0  0  0  0  0  0  0  0
   -5.5611   23.9698  -29.2782 H   0  0  0  0  0  0  0  0  0  0  0  0
   -6.3488   25.0128  -31.5274 H   0  0  0  0  0  0  0  0  0  0  0  0
   -5.7009   26.5485  -30.8731 H   0  0  0  0  0  0  0  0  0  0  0  0
   -3.0880   25.6750  -29.7160 H   0  0  0  0  0  0  0  0  0  0  0  0
   -2.3608   23.5706  -31.0536 H   0  0  0  0  0  0  0  0  0  0  0  0
   -1.9777   23.7697  -29.3183 H   0  0  0  0  0  0  0  0  0  0  0  0
   -3.2834   21.9801  -28.7918 H   0  0  0  0  0  0  0  0  0  0  0  0
   -4.6960   22.7472  -29.6084 H   0  0  0  0  0  0  0  0  0  0  0  0
   -2.6916   20.7654  -30.6782 H   0  0  0  0  0  0  0  0  0  0  0  0
   -4.4645   20.8092  -30.8767 H   0  0  0  0  0  0  0  0  0  0  0  0
   -3.3057   23.2665  -31.9241 H   0  0  0  0  0  0  0  0  0  0  0  0
   -2.4700   21.8144  -32.6386 H   0  0  0  0  0  0  0  0  0  0  0  0
   -4.5370   22.6210  -33.9010 H   0  0  0  0  0  0  0  0  0  0  0  0
   -8.6136   18.1267  -31.2737 H   0  0  0  0  0  0  0  0  0  0  0  0
   -9.4622   18.5779  -32.7912 H   0  0  0  0  0  0  0  0  0  0  0  0
   -8.2803   17.2253  -32.7912 H   0  0  0  0  0  0  0  0  0  0  0  0
   -9.7331   20.1577  -31.7586 H   0  0  0  0  0  0  0  0  0  0  0  0
  -10.0859   22.5476  -31.1742 H   0  0  0  0  0  0  0  0  0  0  0  0
   -8.2749   24.2145  -31.4015 H   0  0  0  0  0  0  0  0  0  0  0  0
   -6.0564   23.4445  -32.2394 H   0  0  0  0  0  0  0  0  0  0  0  0
   -7.8850   16.3546  -33.2877 H   0  0  0  0  0  0  0  0  0  0  0  0
   -6.8814   14.1250  -34.2616 H   0  0  0  0  0  0  0  0  0  0  0  0
   -2.8585   17.6698  -33.3297 H   0  0  0  0  0  0  0  0  0  0  0  0
   -3.2167   17.9641  -35.1077 H   0  0  0  0  0  0  0  0  0  0  0  0
   -3.1785   19.7982  -33.0613 H   0  0  0  0  0  0  0  0  0  0  0  0
   -3.8269   19.9514  -34.7703 H   0  0  0  0  0  0  0  0  0  0  0  0
  1  2  1  0
  2  3  1  0
  3  4  1  0
  4  5  1  0
  5  6  1  0
  6  7  1  0
  7  8  1  0
  8  9  1  0
  9 10  1  0
 10 11  2  0
 11 12  1  0
 12 13  2  0
 13 14  1  0
 13 15  1  0
 15 16  2  0
 16 17  1  0
 17 18  2  0
 18 19  1  0
 19 20  2  0
 12 21  1  0
 21 22  1  0
 22 23  2  0
 23 24  1  0
 24 25  1  0
 25 26  1  0
 26 27  1  0
 20 10  1  0
 25 21  2  0
 27 11  1  0
 20 15  1  0
  1 28  1  0
  1 29  1  0
  1 30  1  0
  2 31  1  0
  2 32  1  0
  4 33  1  0
  5 34  1  0
  5 35  1  0
  6 36  1  0
  6 37  1  0
  7 38  1  0
  7 39  1  0
  8 40  1  0
  8 41  1  0
  9 42  1  0
 14 43  1  0
 14 44  1  0
 14 45  1  0
 16 46  1  0
 17 47  1  0
 18 48  1  0
 19 49  1  0
 22 50  1  0
 23 51  1  0
 26 52  1  0
 26 53  1  0
 27 54  1  0
 27 55  1  0
M  CHG  1  13   1
M  END
>  <smiles>  (24) 
CCONCCCCNc1c2c([n+](C)c3ccccc13)-c1ccsc1CC2

>  <score_type>  (24) 
oracle

>  <origin>  (24) 
adg

>  <m_score__min__energy>  (24) 
-10.26

>  <m_primary>  (24) 
energy

$$$$
