0:0
     RDKit          3D

 55 57  0  0  0  0  0  0  0  0999 V2000
   -0.3060   18.2480  -34.9770 C   0  0  0  0  0  0  0  0  0  0  0  0
   -1.3240   19.1050  -34.2070 C   0  0  0  0  0  0  0  0  0  0  0  0
   -1.2210   20.5710  -34.4540 N   0  0  0  0  0  0  0  0  0  0  0  0
   -0.0790   20.9450  -35.3290 C   0  0  0  0  0  0  0  0  0  0  0  0
    1.1040   21.5320  -34.5500 C   0  0  0  0  0  0  0  0  0  0  0  0
   -1.1920   21.3270  -33.1730 C   0  0  0  0  0  0  0  0  0  0  0  0
   -2.5440   21.2960  -32.4200 C   0  0  0  0  0  0  0  0  0  0  0  0
   -3.6760   21.4870  -33.3300 N   0  0  0  0  0  0  0  0  0  0  0  0
   -5.0210   21.0810  -33.0170 C   0  0  0  0  0  0  0  0  0  0  0  0
   -5.4400   19.7470  -33.2240 C   0  0  0  0  0  0  0  0  0  0  0  0
   -6.7770   19.3740  -32.8850 C   0  0  0  0  0  0  0  0  0  0  0  0
   -7.6130   20.2850  -32.2620 N   0  0  0  0  0  0  0  0  0  0  0  0
   -8.9870   19.9010  -31.8890 C   0  0  0  0  0  0  0  0  0  0  0  0
   -7.1540   21.5510  -32.0060 C   0  0  0  0  0  0  0  0  0  0  0  0
   -5.9030   21.9630  -32.3880 C   0  0  0  0  0  0  0  0  0  0  0  0
   -5.6350   23.3660  -31.9700 C   0  0  0  0  0  0  0  0  0  0  0  0
   -6.8140   23.7180  -31.0570 C   0  0  0  0  0  0  0  0  0  0  0  0
   -7.8710   22.6220  -31.2540 C   0  0  0  0  0  0  0  0  0  0  0  0
   -7.2440   17.9350  -33.0910 C   0  0  0  0  0  0  0  0  0  0  0  0
   -6.3530   17.1130  -34.0240 C   0  0  0  0  0  0  0  0  0  0  0  0
   -4.8890   17.3120  -33.6620 C   0  0  0  0  0  0  0  0  0  0  0  0
   -4.5010   18.7680  -33.9020 C   0  0  0  0  0  0  0  0  0  0  0  0
    0.3341   17.7091  -34.2630 H   0  0  0  0  0  0  0  0  0  0  0  0
   -0.8403   17.5238  -35.6095 H   0  0  0  0  0  0  0  0  0  0  0  0
    0.3165   18.8980  -35.6095 H   0  0  0  0  0  0  0  0  0  0  0  0
   -2.3340   18.7794  -34.4967 H   0  0  0  0  0  0  0  0  0  0  0  0
   -1.1093   18.9553  -33.1386 H   0  0  0  0  0  0  0  0  0  0  0  0
   -2.1040   20.8340  -34.9540 H   0  0  0  0  0  0  0  0  0  0  0  0
    0.2636   20.0458  -35.8620 H   0  0  0  0  0  0  0  0  0  0  0  0
   -0.4352   21.7216  -36.0218 H   0  0  0  0  0  0  0  0  0  0  0  0
    0.9149   21.4382  -33.4704 H   0  0  0  0  0  0  0  0  0  0  0  0
    2.0221   20.9849  -34.8103 H   0  0  0  0  0  0  0  0  0  0  0  0
    1.2237   22.5940  -34.8103 H   0  0  0  0  0  0  0  0  0  0  0  0
   -0.4197   20.8877  -32.5245 H   0  0  0  0  0  0  0  0  0  0  0  0
   -0.9758   22.3777  -33.4166 H   0  0  0  0  0  0  0  0  0  0  0  0
   -2.6503   20.3229  -31.9183 H   0  0  0  0  0  0  0  0  0  0  0  0
   -2.5486   22.1188  -31.6899 H   0  0  0  0  0  0  0  0  0  0  0  0
   -3.4930   21.9010  -34.2720 H   0  0  0  0  0  0  0  0  0  0  0  0
   -9.0760   19.8761  -30.7929 H   0  0  0  0  0  0  0  0  0  0  0  0
   -9.6967   20.6352  -32.2979 H   0  0  0  0  0  0  0  0  0  0  0  0
   -9.2132   18.9052  -32.2979 H   0  0  0  0  0  0  0  0  0  0  0  0
   -4.6835   23.4349  -31.4225 H   0  0  0  0  0  0  0  0  0  0  0  0
   -5.5460   24.0510  -32.8261 H   0  0  0  0  0  0  0  0  0  0  0  0
   -6.4857   23.7431  -30.0074 H   0  0  0  0  0  0  0  0  0  0  0  0
   -7.2224   24.7089  -31.3045 H   0  0  0  0  0  0  0  0  0  0  0  0
   -8.2276   22.2454  -30.2840 H   0  0  0  0  0  0  0  0  0  0  0  0
   -8.7611   22.9869  -31.7874 H   0  0  0  0  0  0  0  0  0  0  0  0
   -7.2688   17.4369  -32.1106 H   0  0  0  0  0  0  0  0  0  0  0  0
   -8.2341   17.9896  -33.5671 H   0  0  0  0  0  0  0  0  0  0  0  0
   -6.6099   16.0478  -33.9267 H   0  0  0  0  0  0  0  0  0  0  0  0
   -6.5150   17.4451  -35.0601 H   0  0  0  0  0  0  0  0  0  0  0  0
   -4.7357   17.0613  -32.6020 H   0  0  0  0  0  0  0  0  0  0  0  0
   -4.2637   16.6573  -34.2868 H   0  0  0  0  0  0  0  0  0  0  0  0
   -3.4847   18.9294  -33.5132 H   0  0  0  0  0  0  0  0  0  0  0  0
   -4.5580   18.9512  -34.9851 H   0  0  0  0  0  0  0  0  0  0  0  0
  1  2  1  0
  2  3  1  0
  3  4  1  0
  4  5  1  0
  3  6  1  0
  6  7  1  0
  7  8  1  0
  8  9  1  0
  9 10  2  0
 10 11  1  0
 11 12  2  0
 12 13  1  0
 12 14  1  0
 14 15  2  0
 15 16  1  0
 16 17  1  0
 17 18  1  0
 11 19  1  0
 19 20  1  0
 20 21  1  0
 21 22  1  0
 15  9  1  0
 22 10  1  0
 18 14  1  0
  1 23  1  0
  1 24  1  0
  1 25  1  0
  2 26  1  0
  2 27  1  0
  3 28  1  0
  4 29  1  0
  4 30  1  0
  5 31  1  0
  5 32  1  0
  5 33  1  0
  6 34  1  0
  6 35  1  0
  7 36  1  0
  7 37  1  0
  8 38  1  0
 13 39  1  0
 13 40  1  0
 13 41  1  0
 16 42  1  0
 16 43  1  0
 17 44  1  0
 17 45  1  0
 18 46  1  0
 18 47  1  0
 19 48  1  0
 19 49  1  0
 20 50  1  0
 20 51  1  0
 21 52  1  0
 21 53  1  0
 22 54  1  0
 22 55  1  0
M  CHG  2   3   1  12   1
M  END
>  <UniqueID>  (1) 
1

>  <SMILES>  (1) 
CC[NH+](CC)CCNc1c2c([n+](C)c3c1CCC3)CCCC2

>  <Energy>  (1) 
75.70799731816119

>  <Genealogy>  (1) 
CC[NH+](CC)CCNc1c2c([n+](C)c3c1CCC3)CCCC2 (protonated)
CC[NH+](CC)CCNc1c2c([n+](C)c3c1CCC3)CCCC2 (3D coordinates assigned)
CC[NH+](CC)CCNc1c2c([n+](C)c3c1CCC3)CCCC2 (nonaromatic ring conformer: 75.70799731816119 kcal/mol)

>  <smiles>  (1) 
CCN(CC)CCNc1c2c([n+](C)c3c1CCC3)CCCC2

>  <score_type>  (1) 
oracle

>  <origin>  (1) 
adg

>  <m_score__min__energy>  (1) 
-7.1200000000000001

>  <m_primary>  (1) 
energy

$$$$
1:0
     RDKit          3D

 36 37  0  0  0  0  0  0  0  0999 V2000
   -1.8580   23.7410  -29.3190 C   0  0  0  0  0  0  0  0  0  0  0  0
   -3.3590   23.8060  -29.6420 C   0  0  0  0  0  0  0  0  0  0  0  0
   -4.1370   24.1730  -28.3710 C   0  0  0  0  0  0  0  0  0  0  0  0
   -3.6490   24.8050  -30.6910 N   0  0  0  0  0  0  0  0  0  0  0  0
   -5.0660   25.2010  -30.8180 C   0  0  0  0  0  0  0  0  0  0  0  0
   -6.0010   24.0990  -31.3820 C   0  0  2  0  0  0  0  0  0  0  0  0
   -6.9310   23.5920  -30.2670 C   0  0  0  0  0  0  0  0  0  0  0  0
   -7.9720   22.6220  -30.8310 C   0  0  0  0  0  0  0  0  0  0  0  0
   -7.3510   21.5450  -31.6870 C   0  0  0  0  0  0  0  0  0  0  0  0
   -8.0990   20.3930  -31.9760 C   0  0  0  0  0  0  0  0  0  0  0  0
   -7.5800   19.4030  -32.8130 C   0  0  0  0  0  0  0  0  0  0  0  0
   -6.3140   19.5570  -33.3790 C   0  0  0  0  0  0  0  0  0  0  0  0
   -5.6040   18.1970  -34.5160 Br  0  0  0  0  0  0  0  0  0  0  0  0
   -5.5640   20.7060  -33.1120 C   0  0  0  0  0  0  0  0  0  0  0  0
   -6.0780   21.7170  -32.2820 C   0  0  0  0  0  0  0  0  0  0  0  0
   -5.2090   22.9130  -31.9700 C   0  0  0  0  0  0  0  0  0  0  0  0
   -1.7176   23.7349  -28.2280 H   0  0  0  0  0  0  0  0  0  0  0  0
   -1.4298   22.8235  -29.7489 H   0  0  0  0  0  0  0  0  0  0  0  0
   -1.3521   24.6181  -29.7489 H   0  0  0  0  0  0  0  0  0  0  0  0
   -3.6685   22.8180  -30.0135 H   0  0  0  0  0  0  0  0  0  0  0  0
   -3.5461   23.8943  -27.4861 H   0  0  0  0  0  0  0  0  0  0  0  0
   -4.3281   25.2562  -28.3580 H   0  0  0  0  0  0  0  0  0  0  0  0
   -5.0944   23.6316  -28.3580 H   0  0  0  0  0  0  0  0  0  0  0  0
   -3.0730   25.6630  -30.5290 H   0  0  0  0  0  0  0  0  0  0  0  0
   -5.4331   25.4837  -29.8204 H   0  0  0  0  0  0  0  0  0  0  0  0
   -5.0925   26.0297  -31.5409 H   0  0  0  0  0  0  0  0  0  0  0  0
   -6.5899   24.5460  -32.1965 H   0  0  0  0  0  0  0  0  0  0  0  0
   -6.3312   23.0745  -29.5038 H   0  0  0  0  0  0  0  0  0  0  0  0
   -7.4530   24.4524  -29.8230 H   0  0  0  0  0  0  0  0  0  0  0  0
   -8.5015   22.1455  -29.9928 H   0  0  0  0  0  0  0  0  0  0  0  0
   -8.6596   23.2000  -31.4659 H   0  0  0  0  0  0  0  0  0  0  0  0
   -9.1013   20.2691  -31.5400 H   0  0  0  0  0  0  0  0  0  0  0  0
   -8.1705   18.4998  -33.0266 H   0  0  0  0  0  0  0  0  0  0  0  0
   -4.5636   20.8198  -33.5550 H   0  0  0  0  0  0  0  0  0  0  0  0
   -4.4425   22.6086  -31.2421 H   0  0  0  0  0  0  0  0  0  0  0  0
   -4.7652   23.2523  -32.9176 H   0  0  0  0  0  0  0  0  0  0  0  0
  1  2  1  0
  2  3  1  0
  2  4  1  0
  4  5  1  0
  5  6  1  0
  6  7  1  0
  7  8  1  0
  8  9  1  0
  9 10  2  0
 10 11  1  0
 11 12  2  0
 12 13  1  0
 12 14  1  0
 14 15  2  0
 15 16  1  0
 16  6  1  0
 15  9  1  0
  1 17  1  0
  1 18  1  0
  1 19  1  0
  2 20  1  0
  3 21  1  0
  3 22  1  0
  3 23  1  0
  4 24  1  0
  5 25  1  0
  5 26  1  0
  6 27  1  6
  7 28  1  0
  7 29  1  0
  8 30  1  0
  8 31  1  0
 10 32  1  0
 11 33  1  0
 14 34  1  0
 16 35  1  0
 16 36  1  0
M  END
>  <UniqueID>  (2) 
2

>  <SMILES>  (2) 
CC(C)NC[C@@H]1CCc2ccc(Br)cc2C1

>  <Energy>  (2) 
33.35491908437673

>  <Genealogy>  (2) 
CC(C)NC[C@@H]1CCc2ccc(Br)cc2C1 (chirality)
CC(C)NC[C@@H]1CCc2ccc(Br)cc2C1 (3D coordinates assigned)
CC(C)NC[C@@H]1CCc2ccc(Br)cc2C1 (nonaromatic ring conformer: 33.35491908437673 kcal/mol)

>  <smiles>  (2) 
CC(C)NCC1CCc2ccc(Br)cc2C1

>  <score_type>  (2) 
oracle

>  <origin>  (2) 
adg

>  <m_score__min__energy>  (2) 
-8.6400000000000006

>  <m_primary>  (2) 
energy

$$$$
2:0
     RDKit          3D

 59 61  0  0  0  0  0  0  0  0999 V2000
   -0.5184   23.5131  -27.1224 H   0  0  0  0  0  0  0  0  0  0  0  0
   -1.2190   22.8690  -27.6740 C   0  0  0  0  0  0  0  0  0  0  0  0
   -2.3150   23.4540  -28.2020 C   0  0  0  0  0  0  0  0  0  0  0  0
   -3.6360   22.7880  -28.3250 C   0  0  0  0  0  0  0  0  0  0  0  0
   -3.9260   21.7800  -27.6220 O   0  0  0  0  0  0  0  0  0  0  0  0
   -4.6380   23.3670  -29.2420 C   0  0  0  0  0  0  0  0  0  0  0  0
   -5.8760   22.7410  -29.4710 C   0  0  0  0  0  0  0  0  0  0  0  0
   -6.1283   21.8140  -28.9352 H   0  0  0  0  0  0  0  0  0  0  0  0
   -6.7950   23.2960  -30.3840 C   0  0  0  0  0  0  0  0  0  0  0  0
   -8.0460   22.7150  -30.6520 O   0  0  0  0  0  0  0  0  0  0  0  0
   -8.7100   22.7200  -31.9170 C   0  0  0  0  0  0  0  0  0  0  0  0
   -8.0224   23.1050  -32.6845 H   0  0  0  0  0  0  0  0  0  0  0  0
   -9.6007   23.3617  -31.8470 H   0  0  0  0  0  0  0  0  0  0  0  0
   -9.1520   21.3010  -32.3020 C   0  0  0  0  0  0  0  0  0  0  0  0
   -9.8802   21.3696  -33.1236 H   0  0  0  0  0  0  0  0  0  0  0  0
   -9.5918   20.8350  -31.4079 H   0  0  0  0  0  0  0  0  0  0  0  0
   -7.9780   20.4190  -32.7570 C   0  0  0  0  0  0  0  0  0  0  0  0
   -8.1709   20.0725  -33.7830 H   0  0  0  0  0  0  0  0  0  0  0  0
   -7.8989   19.5722  -32.0594 H   0  0  0  0  0  0  0  0  0  0  0  0
   -6.6980   21.1490  -32.7340 N   0  0  0  0  0  0  0  0  0  0  0  0
   -6.7070   21.8880  -33.4740 H   0  0  0  0  0  0  0  0  0  0  0  0
   -6.5790   21.5870  -31.7930 H   0  0  0  0  0  0  0  0  0  0  0  0
   -5.5730   20.2280  -32.9690 C   0  0  0  0  0  0  0  0  0  0  0  0
   -5.2118   20.3648  -33.9990 H   0  0  0  0  0  0  0  0  0  0  0  0
   -5.9352   19.2022  -32.8061 H   0  0  0  0  0  0  0  0  0  0  0  0
   -4.4060   20.4790  -31.9960 C   0  0  0  0  0  0  0  0  0  0  0  0
   -3.6974   19.6419  -32.0806 H   0  0  0  0  0  0  0  0  0  0  0  0
   -4.8400   20.5619  -30.9887 H   0  0  0  0  0  0  0  0  0  0  0  0
   -3.6430   21.7920  -32.2670 C   0  0  0  0  0  0  0  0  0  0  0  0
   -4.2732   22.6376  -31.9542 H   0  0  0  0  0  0  0  0  0  0  0  0
   -3.4180   21.8326  -33.3430 H   0  0  0  0  0  0  0  0  0  0  0  0
   -2.3160   21.8630  -31.5110 C   0  0  0  0  0  0  0  0  0  0  0  0
   -2.5098   21.8526  -30.4283 H   0  0  0  0  0  0  0  0  0  0  0  0
   -1.6937   20.9969  -31.7804 H   0  0  0  0  0  0  0  0  0  0  0  0
   -1.7897   22.7906  -31.7804 H   0  0  0  0  0  0  0  0  0  0  0  0
   -6.4550   24.4700  -31.0670 C   0  0  0  0  0  0  0  0  0  0  0  0
   -7.1633   24.9064  -31.7866 H   0  0  0  0  0  0  0  0  0  0  0  0
   -5.2250   25.0920  -30.8430 C   0  0  0  0  0  0  0  0  0  0  0  0
   -4.9674   26.0103  -31.3911 H   0  0  0  0  0  0  0  0  0  0  0  0
   -4.3200   24.5520  -29.9250 C   0  0  0  0  0  0  0  0  0  0  0  0
   -3.0940   25.1910  -29.7060 O   0  0  0  0  0  0  0  0  0  0  0  0
   -2.2680   24.9160  -28.5720 C   0  0  0  0  0  0  0  0  0  0  0  0
   -2.6208   25.5133  -27.7183 H   0  0  0  0  0  0  0  0  0  0  0  0
   -1.2301   25.1768  -28.8267 H   0  0  0  0  0  0  0  0  0  0  0  0
   -0.8840   21.4330  -27.7770 C   0  0  0  0  0  0  0  0  0  0  0  0
    0.2320   20.9960  -28.5120 C   0  0  0  0  0  0  0  0  0  0  0  0
    0.8531   21.7257  -29.0522 H   0  0  0  0  0  0  0  0  0  0  0  0
    0.5540   19.6380  -28.5580 C   0  0  0  0  0  0  0  0  0  0  0  0
    1.4167   19.2990  -29.1504 H   0  0  0  0  0  0  0  0  0  0  0  0
   -0.2160   18.7080  -27.8540 C   0  0  0  0  0  0  0  0  0  0  0  0
    0.0363   17.6384  -27.9014 H   0  0  0  0  0  0  0  0  0  0  0  0
   -1.3130   19.1370  -27.0850 C   0  0  0  0  0  0  0  0  0  0  0  0
   -2.1080   18.2450  -26.3480 O   0  0  0  0  0  0  0  0  0  0  0  0
   -3.4030   18.5500  -25.8410 C   0  0  0  0  0  0  0  0  0  0  0  0
   -3.3770   18.5439  -24.7413 H   0  0  0  0  0  0  0  0  0  0  0  0
   -3.7103   19.5451  -26.1950 H   0  0  0  0  0  0  0  0  0  0  0  0
   -4.1221   17.7967  -26.1950 H   0  0  0  0  0  0  0  0  0  0  0  0
   -1.6310   20.4990  -27.0440 C   0  0  0  0  0  0  0  0  0  0  0  0
   -2.4768   20.8414  -26.4297 H   0  0  0  0  0  0  0  0  0  0  0  0
  1  2  1  0
  2  3  2  0
  3  4  1  0
  4  5  2  0
  4  6  1  0
  6  7  2  0
  7  8  1  0
  7  9  1  0
  9 10  1  0
 10 11  1  0
 11 12  1  0
 11 13  1  0
 11 14  1  0
 14 15  1  0
 14 16  1  0
 14 17  1  0
 17 18  1  0
 17 19  1  0
 17 20  1  0
 20 21  1  0
 20 22  1  0
 20 23  1  0
 23 24  1  0
 23 25  1  0
 23 26  1  0
 26 27  1  0
 26 28  1  0
 26 29  1  0
 29 30  1  0
 29 31  1  0
 29 32  1  0
 32 33  1  0
 32 34  1  0
 32 35  1  0
  9 36  2  0
 36 37  1  0
 36 38  1  0
 38 39  1  0
 38 40  2  0
 40 41  1  0
 41 42  1  0
 42 43  1  0
 42 44  1  0
  2 45  1  0
 45 46  2  0
 46 47  1  0
 46 48  1  0
 48 49  1  0
 48 50  2  0
 50 51  1  0
 50 52  1  0
 52 53  1  0
 53 54  1  0
 54 55  1  0
 54 56  1  0
 54 57  1  0
 52 58  2  0
 58 59  1  0
 42  3  1  0
 58 45  1  0
 40  6  1  0
M  CHG  1  20   1
M  END
>  <UniqueID>  (3) 
3

>  <SMILES>  (3) 
CCCC[NH2+]CCCOc1ccc2c(c1)C(=O)/C(=C\c1cccc(OC)c1)CO2

>  <Energy>  (3) 
64.36523085843984

>  <Genealogy>  (3) 
CCCC[NH2+]CCCOc1ccc2c(c1)C(=O)C(=Cc1cccc(OC)c1)CO2 (protonated)
CCCC[NH2+]CCCOc1ccc2c(c1)C(=O)/C(=C\c1cccc(OC)c1)CO2 (cis-trans isomerization)
CCCC[NH2+]CCCOc1ccc2c(c1)C(=O)/C(=C\c1cccc(OC)c1)CO2 (3D coordinates assigned)
CCCC[NH2+]CCCOc1ccc2c(c1)C(=O)/C(=C\c1cccc(OC)c1)CO2 (nonaromatic ring conformer: 64.36523085843984 kcal/mol)

>  <smiles>  (3) 
CCCCNCCCOc1ccc2c(c1)C(=O)C(=Cc1cccc(OC)c1)CO2

>  <score_type>  (3) 
oracle

>  <origin>  (3) 
adg

>  <m_score__min__energy>  (3) 
-8.1500000000000004

>  <m_primary>  (3) 
energy

$$$$
3:0
     RDKit          3D

 49 49  0  0  0  0  0  0  0  0999 V2000
   -6.1450   19.3030  -33.8870 C   0  0  0  0  0  0  0  0  0  0  0  0
   -5.5130   19.9490  -32.6550 C   0  0  0  0  0  0  0  0  0  0  0  0
   -5.5190   21.4850  -32.7090 C   0  0  0  0  0  0  0  0  0  0  0  0
   -5.8710   22.1330  -31.3640 C   0  0  0  0  0  0  0  0  0  0  0  0
   -6.5680   23.4250  -31.6030 N   0  0  0  0  0  0  0  0  0  0  0  0
   -7.8530   23.2310  -32.3190 C   0  0  0  0  0  0  0  0  0  0  0  0
   -8.8060   22.3210  -31.5280 C   0  0  0  0  0  0  0  0  0  0  0  0
   -9.1890   21.0670  -32.3260 C   0  0  0  0  0  0  0  0  0  0  0  0
   -8.7340   19.7990  -31.6100 C   0  0  0  0  0  0  0  0  0  0  0  0
   -6.7710   24.1930  -30.3520 C   0  0  0  0  0  0  0  0  0  0  0  0
   -5.8900   25.4530  -30.3170 C   0  0  0  0  0  0  0  0  0  0  0  0
   -4.5400   25.1760  -30.8270 N   0  0  0  0  0  0  0  0  0  0  0  0
   -3.6970   24.5560  -29.7950 C   0  0  0  0  0  0  0  0  0  0  0  0
   -3.0370   23.3280  -30.3360 C   0  0  0  0  0  0  0  0  0  0  0  0
   -2.2830   22.4230  -29.6110 C   0  0  0  0  0  0  0  0  0  0  0  0
   -1.8330   21.4940  -30.5260 C   0  0  0  0  0  0  0  0  0  0  0  0
   -2.3450   21.8930  -31.7460 C   0  0  0  0  0  0  0  0  0  0  0  0
   -2.1030   21.2190  -33.0530 C   0  0  0  0  0  0  0  0  0  0  0  0
   -3.0570   22.9860  -31.6030 O   0  0  0  0  0  0  0  0  0  0  0  0
   -6.8815   18.5502  -33.5692 H   0  0  0  0  0  0  0  0  0  0  0  0
   -6.6463   20.0749  -34.4894 H   0  0  0  0  0  0  0  0  0  0  0  0
   -5.3623   18.8188  -34.4894 H   0  0  0  0  0  0  0  0  0  0  0  0
   -6.0738   19.6279  -31.7649 H   0  0  0  0  0  0  0  0  0  0  0  0
   -4.4620   19.6264  -32.6185 H   0  0  0  0  0  0  0  0  0  0  0  0
   -4.5189   21.8286  -33.0120 H   0  0  0  0  0  0  0  0  0  0  0  0
   -6.2936   21.7848  -33.4302 H   0  0  0  0  0  0  0  0  0  0  0  0
   -6.5298   21.4609  -30.7945 H   0  0  0  0  0  0  0  0  0  0  0  0
   -4.9490   22.3143  -30.7921 H   0  0  0  0  0  0  0  0  0  0  0  0
   -8.3324   24.2102  -32.4648 H   0  0  0  0  0  0  0  0  0  0  0  0
   -7.6406   22.7515  -33.2859 H   0  0  0  0  0  0  0  0  0  0  0  0
   -8.3114   22.0123  -30.5952 H   0  0  0  0  0  0  0  0  0  0  0  0
   -9.7254   22.8876  -31.3189 H   0  0  0  0  0  0  0  0  0  0  0  0
  -10.2819   21.0384  -32.4472 H   0  0  0  0  0  0  0  0  0  0  0  0
   -8.6919   21.1118  -33.3062 H   0  0  0  0  0  0  0  0  0  0  0  0
   -8.7890   19.9524  -30.5221 H   0  0  0  0  0  0  0  0  0  0  0  0
   -9.3878   18.9618  -31.8958 H   0  0  0  0  0  0  0  0  0  0  0  0
   -7.6971   19.5685  -31.8958 H   0  0  0  0  0  0  0  0  0  0  0  0
   -7.8271   24.4929  -30.2837 H   0  0  0  0  0  0  0  0  0  0  0  0
   -6.4913   23.5517  -29.5032 H   0  0  0  0  0  0  0  0  0  0  0  0
   -6.3548   26.2324  -30.9387 H   0  0  0  0  0  0  0  0  0  0  0  0
   -5.8043   25.7873  -29.2725 H   0  0  0  0  0  0  0  0  0  0  0  0
   -4.6330   24.4860  -31.6100 H   0  0  0  0  0  0  0  0  0  0  0  0
   -2.9257   25.2729  -29.4770 H   0  0  0  0  0  0  0  0  0  0  0  0
   -4.3267   24.2767  -28.9374 H   0  0  0  0  0  0  0  0  0  0  0  0
   -2.0836   22.4405  -28.5294 H   0  0  0  0  0  0  0  0  0  0  0  0
   -1.1986   20.6179  -30.3261 H   0  0  0  0  0  0  0  0  0  0  0  0
   -1.7361   20.1972  -32.8762 H   0  0  0  0  0  0  0  0  0  0  0  0
   -3.0424   21.1777  -33.6237 H   0  0  0  0  0  0  0  0  0  0  0  0
   -1.3518   21.7847  -33.6237 H   0  0  0  0  0  0  0  0  0  0  0  0
  1  2  1  0
  2  3  1  0
  3  4  1  0
  4  5  1  0
  5  6  1  0
  6  7  1  0
  7  8  1  0
  8  9  1  0
  5 10  1  0
 10 11  1  0
 11 12  1  0
 12 13  1  0
 13 14  1  0
 14 15  2  0
 15 16  1  0
 16 17  2  0
 17 18  1  0
 17 19  1  0
 19 14  1  0
  1 20  1  0
  1 21  1  0
  1 22  1  0
  2 23  1  0
  2 24  1  0
  3 25  1  0
  3 26  1  0
  4 27  1  0
  4 28  1  0
  6 29  1  0
  6 30  1  0
  7 31  1  0
  7 32  1  0
  8 33  1  0
  8 34  1  0
  9 35  1  0
  9 36  1  0
  9 37  1  0
 10 38  1  0
 10 39  1  0
 11 40  1  0
 11 41  1  0
 12 42  1  0
 13 43  1  0
 13 44  1  0
 15 45  1  0
 16 46  1  0
 18 47  1  0
 18 48  1  0
 18 49  1  0
M  END
>  <UniqueID>  (4) 
4

>  <SMILES>  (4) 
CCCCN(CCCC)CCNCc1ccc(C)o1

>  <Energy>  (4) 
56.99270347689062

>  <Genealogy>  (4) 
CCCCN(CCCC)CCNCc1ccc(C)o1 (3D coordinates assigned)
CCCCN(CCCC)CCNCc1ccc(C)o1 (optimized conformer: 56.99270347689062 kcal/mol)

>  <smiles>  (4) 
CCCCN(CCCC)CCNCc1ccc(C)o1

>  <score_type>  (4) 
oracle

>  <origin>  (4) 
adg

>  <m_score__min__energy>  (4) 
-7.0599999999999996

>  <m_primary>  (4) 
energy

$$$$
4:0
     RDKit          3D

 24 23  0  0  0  0  0  0  0  0999 V2000
   -3.2670   22.0460  -28.3010 C   0  0  0  0  0  0  0  0  0  0  0  0
   -2.8330   23.5170  -28.3710 C   0  0  0  0  0  0  0  0  0  0  0  0
   -3.9560   24.4690  -28.1730 N   0  0  0  0  0  0  0  0  0  0  0  0
   -4.2170   24.6230  -26.7170 C   0  0  0  0  0  0  0  0  0  0  0  0
   -3.0640   25.2890  -25.9570 C   0  0  0  0  0  0  0  0  0  0  0  0
   -5.1710   24.1360  -28.9740 C   0  0  0  0  0  0  0  0  0  0  0  0
   -5.2960   24.8580  -30.3310 C   0  0  0  0  0  0  0  0  0  0  0  0
   -4.1370   25.5920  -30.6090 O   0  0  0  0  0  0  0  0  0  0  0  0
   -3.3573   21.7400  -27.2483 H   0  0  0  0  0  0  0  0  0  0  0  0
   -4.2388   21.9262  -28.8023 H   0  0  0  0  0  0  0  0  0  0  0  0
   -2.5159   21.4179  -28.8023 H   0  0  0  0  0  0  0  0  0  0  0  0
   -2.0803   23.6969  -27.5893 H   0  0  0  0  0  0  0  0  0  0  0  0
   -2.4310   23.6913  -29.3800 H   0  0  0  0  0  0  0  0  0  0  0  0
   -3.6220   25.4030  -28.5120 H   0  0  0  0  0  0  0  0  0  0  0  0
   -5.1202   25.2376  -26.5881 H   0  0  0  0  0  0  0  0  0  0  0  0
   -4.3380   23.6120  -26.3009 H   0  0  0  0  0  0  0  0  0  0  0  0
   -3.2334   25.1911  -24.8745 H   0  0  0  0  0  0  0  0  0  0  0  0
   -2.1164   24.7991  -26.2256 H   0  0  0  0  0  0  0  0  0  0  0  0
   -3.0149   26.3546  -26.2256 H   0  0  0  0  0  0  0  0  0  0  0  0
   -5.1623   23.0531  -29.1669 H   0  0  0  0  0  0  0  0  0  0  0  0
   -6.0281   24.4753  -28.3738 H   0  0  0  0  0  0  0  0  0  0  0  0
   -5.4499   24.1117  -31.1244 H   0  0  0  0  0  0  0  0  0  0  0  0
   -6.1505   25.5493  -30.2867 H   0  0  0  0  0  0  0  0  0  0  0  0
   -4.0940   25.6770  -31.5970 H   0  0  0  0  0  0  0  0  0  0  0  0
  1  2  1  0
  2  3  1  0
  3  4  1  0
  4  5  1  0
  3  6  1  0
  6  7  1  0
  7  8  1  0
  1  9  1  0
  1 10  1  0
  1 11  1  0
  2 12  1  0
  2 13  1  0
  3 14  1  0
  4 15  1  0
  4 16  1  0
  5 17  1  0
  5 18  1  0
  5 19  1  0
  6 20  1  0
  6 21  1  0
  7 22  1  0
  7 23  1  0
  8 24  1  0
M  CHG  1   3   1
M  END
>  <UniqueID>  (5) 
5

>  <SMILES>  (5) 
CC[NH+](CC)CCO

>  <Energy>  (5) 
22.748753798759797

>  <Genealogy>  (5) 
CC[NH+](CC)CCO (protonated)
CC[NH+](CC)CCO (3D coordinates assigned)
CC[NH+](CC)CCO (optimized conformer: 22.748753798759797 kcal/mol)

>  <smiles>  (5) 
CCN(CC)CC[O-]

>  <score_type>  (5) 
oracle

>  <origin>  (5) 
adg

>  <m_score__min__energy>  (5) 
-3.6000000000000001

>  <m_primary>  (5) 
energy

$$$$
5:0
     RDKit          3D

 51 53  0  0  0  0  0  0  0  0999 V2000
   -6.2620   25.5200  -29.5480 C   0  0  0  0  0  0  0  0  0  0  0  0
   -5.3910   25.4160  -30.7980 C   0  0  0  0  0  0  0  0  0  0  0  0
   -3.9650   25.3260  -30.4460 N   0  0  0  0  0  0  0  0  0  0  0  0
   -3.7250   24.5010  -29.2480 C   0  0  0  0  0  0  0  0  0  0  0  0
   -2.4430   23.6870  -29.4390 C   0  0  0  0  0  0  0  0  0  0  0  0
   -2.4670   22.9870  -30.7330 N   0  0  0  0  0  0  0  0  0  0  0  0
   -3.4460   21.8910  -30.7290 C   0  0  0  0  0  0  0  0  0  0  0  0
   -2.9470   20.7470  -31.6140 C   0  0  0  0  0  0  0  0  0  0  0  0
   -2.8830   21.1700  -33.0850 C   0  0  0  0  0  0  0  0  0  0  0  0
   -4.2280   21.3370  -33.6380 N   0  0  0  0  0  0  0  0  0  0  0  0
   -5.3540   20.5770  -33.1690 C   0  0  0  0  0  0  0  0  0  0  0  0
   -6.4530   21.2020  -32.5440 C   0  0  0  0  0  0  0  0  0  0  0  0
   -6.4610   22.5960  -32.3320 C   0  0  0  0  0  0  0  0  0  0  0  0
   -7.5180   23.2060  -31.6630 C   0  0  0  0  0  0  0  0  0  0  0  0
   -8.5750   22.4410  -31.1810 C   0  0  0  0  0  0  0  0  0  0  0  0
   -8.5950   21.0600  -31.3790 C   0  0  0  0  0  0  0  0  0  0  0  0
   -7.5530   20.4070  -32.0860 C   0  0  0  0  0  0  0  0  0  0  0  0
   -7.5750   19.0390  -32.3170 N   0  0  0  0  0  0  0  0  0  0  0  0
   -8.7650   18.2320  -31.9780 C   0  0  0  0  0  0  0  0  0  0  0  0
   -6.4650   18.4380  -32.8670 C   0  0  0  0  0  0  0  0  0  0  0  0
   -6.2710   17.0550  -33.0700 C   0  0  0  0  0  0  0  0  0  0  0  0
   -5.0620   16.7520  -33.6890 C   0  0  0  0  0  0  0  0  0  0  0  0
   -4.2230   18.1830  -33.9720 S   0  0  0  0  0  0  0  0  0  0  0  0
   -5.3840   19.1930  -33.2970 C   0  0  0  0  0  0  0  0  0  0  0  0
   -5.6282   25.4443  -28.6521 H   0  0  0  0  0  0  0  0  0  0  0  0
   -6.7861   26.4871  -29.5457 H   0  0  0  0  0  0  0  0  0  0  0  0
   -6.9991   24.7035  -29.5457 H   0  0  0  0  0  0  0  0  0  0  0  0
   -5.6789   24.5167  -31.3623 H   0  0  0  0  0  0  0  0  0  0  0  0
   -5.5438   26.3201  -31.4056 H   0  0  0  0  0  0  0  0  0  0  0  0
   -3.4720   24.8800  -31.2550 H   0  0  0  0  0  0  0  0  0  0  0  0
   -3.6178   25.1533  -28.3688 H   0  0  0  0  0  0  0  0  0  0  0  0
   -4.5741   23.8184  -29.0961 H   0  0  0  0  0  0  0  0  0  0  0  0
   -1.5763   24.3637  -29.4092 H   0  0  0  0  0  0  0  0  0  0  0  0
   -2.3698   22.9427  -28.6324 H   0  0  0  0  0  0  0  0  0  0  0  0
   -1.5210   22.5630  -30.8840 H   0  0  0  0  0  0  0  0  0  0  0  0
   -3.5803   21.5251  -29.7004 H   0  0  0  0  0  0  0  0  0  0  0  0
   -4.4059   22.2600  -31.1194 H   0  0  0  0  0  0  0  0  0  0  0  0
   -1.9412   20.4496  -31.2824 H   0  0  0  0  0  0  0  0  0  0  0  0
   -3.6502   19.9059  -31.5244 H   0  0  0  0  0  0  0  0  0  0  0  0
   -2.3405   22.1238  -33.1625 H   0  0  0  0  0  0  0  0  0  0  0  0
   -2.3630   20.3857  -33.6546 H   0  0  0  0  0  0  0  0  0  0  0  0
   -4.4020   22.1360  -34.2880 H   0  0  0  0  0  0  0  0  0  0  0  0
   -5.6235   23.2074  -32.6990 H   0  0  0  0  0  0  0  0  0  0  0  0
   -7.5175   24.2960  -31.5150 H   0  0  0  0  0  0  0  0  0  0  0  0
   -9.4001   22.9277  -30.6404 H   0  0  0  0  0  0  0  0  0  0  0  0
   -9.4322   20.4682  -30.9805 H   0  0  0  0  0  0  0  0  0  0  0  0
   -8.8634   18.1653  -30.8844 H   0  0  0  0  0  0  0  0  0  0  0  0
   -9.6630   18.7082  -32.3986 H   0  0  0  0  0  0  0  0  0  0  0  0
   -8.6548   17.2216  -32.3986 H   0  0  0  0  0  0  0  0  0  0  0  0
   -7.0034   16.2916  -32.7686 H   0  0  0  0  0  0  0  0  0  0  0  0
   -4.7121   15.7424  -33.9505 H   0  0  0  0  0  0  0  0  0  0  0  0
  1  2  1  0
  2  3  1  0
  3  4  1  0
  4  5  1  0
  5  6  1  0
  6  7  1  0
  7  8  1  0
  8  9  1  0
  9 10  1  0
 10 11  1  0
 11 12  2  0
 12 13  1  0
 13 14  2  0
 14 15  1  0
 15 16  2  0
 16 17  1  0
 17 18  2  0
 18 19  1  0
 18 20  1  0
 20 21  1  0
 21 22  2  0
 22 23  1  0
 23 24  1  0
 24 11  1  0
 17 12  1  0
 24 20  2  0
  1 25  1  0
  1 26  1  0
  1 27  1  0
  2 28  1  0
  2 29  1  0
  3 30  1  0
  4 31  1  0
  4 32  1  0
  5 33  1  0
  5 34  1  0
  6 35  1  0
  7 36  1  0
  7 37  1  0
  8 38  1  0
  8 39  1  0
  9 40  1  0
  9 41  1  0
 10 42  1  0
 13 43  1  0
 14 44  1  0
 15 45  1  0
 16 46  1  0
 19 47  1  0
 19 48  1  0
 19 49  1  0
 21 50  1  0
 22 51  1  0
M  CHG  1  18   1
M  END
>  <UniqueID>  (6) 
6

>  <SMILES>  (6) 
CCNCCNCCCNc1c2ccccc2[n+](C)c2ccsc12

>  <Energy>  (6) 
91.79931125004501

>  <Genealogy>  (6) 
CCNCCNCCCNc1c2ccccc2[n+](C)c2ccsc12 (3D coordinates assigned)
CCNCCNCCCNc1c2ccccc2[n+](C)c2ccsc12 (optimized conformer: 91.79931125004501 kcal/mol)

>  <smiles>  (6) 
CCNCCNCCCNc1c2ccccc2[n+](C)c2ccsc12

>  <score_type>  (6) 
oracle

>  <origin>  (6) 
adg

>  <m_score__min__energy>  (6) 
-9.1899999999999995

>  <m_primary>  (6) 
energy

$$$$
6:0
     RDKit          3D

 56 59  0  0  1  0  0  0  0  0999 V2000
   -0.8530   27.7050  -26.5150 C   0  0  0  0  0  0  0  0  0  0  0  0
   -0.6390   26.3000  -26.2730 N   0  0  0  0  0  0  0  0  0  0  0  0
   -1.7310   25.6100  -25.6790 C   0  0  0  0  0  0  0  0  0  0  0  0
   -2.7970   25.2990  -26.6700 C   0  0  0  0  0  0  0  0  0  0  0  0
   -2.4020   24.8890  -27.9520 N   0  0  0  0  0  0  0  0  0  0  0  0
   -2.8350   23.6370  -28.4410 C   0  0  0  0  0  0  0  0  0  0  0  0
   -3.7310   23.7370  -29.6690 C   0  0  0  0  0  0  0  0  0  0  0  0
   -3.7930   25.0520  -30.1840 N   0  0  0  0  0  0  0  0  0  0  0  0
   -5.0410   25.6300  -30.4910 C   0  0  0  0  0  0  0  0  0  0  0  0
   -6.2380   24.8450  -30.0040 C   0  0  0  0  0  0  0  0  0  0  0  0
   -6.8950   24.2420  -31.1490 N   0  0  0  0  0  0  0  0  0  0  0  0
   -6.3970   23.1770  -31.6770 C   0  0  0  0  0  0  0  0  0  0  0  0
   -5.1230   23.0370  -32.0490 N   0  0  0  0  0  0  0  0  0  0  0  0
   -4.7170   21.8860  -32.6310 C   0  0  0  0  0  0  0  0  0  0  0  0
   -3.3060   21.6700  -33.0730 C   0  0  0  0  0  0  0  0  0  0  0  0
   -2.6620   20.3410  -32.9010 C   0  0  0  0  0  0  0  0  0  0  0  0
   -2.3430   21.4930  -31.9390 C   0  0  0  0  0  0  0  0  0  0  0  0
   -5.5660   20.8570  -32.8520 N   0  0  0  0  0  0  0  0  0  0  0  0
   -6.8590   20.9380  -32.4970 C   0  0  0  0  0  0  0  0  0  0  0  0
   -7.7580   19.8870  -32.7140 C   0  0  0  0  0  0  0  0  0  0  0  0
   -9.0820   19.9900  -32.3430 C   0  0  0  0  0  0  0  0  0  0  0  0
   -9.4810   21.1670  -31.7500 C   0  0  0  0  0  0  0  0  0  0  0  0
   -8.6220   22.2250  -31.5220 C   0  0  0  0  0  0  0  0  0  0  0  0
   -7.2810   22.1180  -31.9000 C   0  0  0  0  0  0  0  0  0  0  0  0
   -1.1740   25.3800  -28.4810 C   0  0  0  0  0  0  0  0  0  0  0  0
   -0.1170   25.6100  -27.4310 C   0  0  0  0  0  0  0  0  0  0  0  0
   -0.9336   28.2344  -25.5542 H   0  0  0  0  0  0  0  0  0  0  0  0
   -0.0064   28.1115  -27.0877 H   0  0  0  0  0  0  0  0  0  0  0  0
   -1.7822   27.8411  -27.0877 H   0  0  0  0  0  0  0  0  0  0  0  0
   -1.3630   24.6684  -25.2454 H   0  0  0  0  0  0  0  0  0  0  0  0
   -2.1646   26.2605  -24.9052 H   0  0  0  0  0  0  0  0  0  0  0  0
   -3.4150   24.4945  -26.2447 H   0  0  0  0  0  0  0  0  0  0  0  0
   -3.3103   26.2581  -26.8331 H   0  0  0  0  0  0  0  0  0  0  0  0
   -1.9485   23.0417  -28.7052 H   0  0  0  0  0  0  0  0  0  0  0  0
   -3.4319   23.1691  -27.6442 H   0  0  0  0  0  0  0  0  0  0  0  0
   -3.3365   23.0699  -30.4496 H   0  0  0  0  0  0  0  0  0  0  0  0
   -4.7480   23.4462  -29.3672 H   0  0  0  0  0  0  0  0  0  0  0  0
   -3.1120   25.6560  -29.7150 H   0  0  0  0  0  0  0  0  0  0  0  0
   -5.0775   26.6296  -30.0332 H   0  0  0  0  0  0  0  0  0  0  0  0
   -5.1107   25.6537  -31.5885 H   0  0  0  0  0  0  0  0  0  0  0  0
   -5.9074   24.0582  -29.3099 H   0  0  0  0  0  0  0  0  0  0  0  0
   -6.9368   25.5133  -29.4794 H   0  0  0  0  0  0  0  0  0  0  0  0
   -4.4570   23.7990  -31.8830 H   0  0  0  0  0  0  0  0  0  0  0  0
   -3.4051   22.3231  -33.9526 H   0  0  0  0  0  0  0  0  0  0  0  0
   -3.2548   19.4815  -32.5549 H   0  0  0  0  0  0  0  0  0  0  0  0
   -2.0693   19.6714  -33.5416 H   0  0  0  0  0  0  0  0  0  0  0  0
   -2.7083   21.4653  -30.9018 H   0  0  0  0  0  0  0  0  0  0  0  0
   -1.4290   22.0014  -31.5982 H   0  0  0  0  0  0  0  0  0  0  0  0
   -7.4014   18.9614  -33.1895 H   0  0  0  0  0  0  0  0  0  0  0  0
   -9.7903   19.1659  -32.5137 H   0  0  0  0  0  0  0  0  0  0  0  0
  -10.5324   21.2697  -31.4436 H   0  0  0  0  0  0  0  0  0  0  0  0
   -8.9913   23.1454  -31.0461 H   0  0  0  0  0  0  0  0  0  0  0  0
   -0.7902   24.6483  -29.2072 H   0  0  0  0  0  0  0  0  0  0  0  0
   -1.3876   26.3545  -28.9445 H   0  0  0  0  0  0  0  0  0  0  0  0
    0.2837   24.6364  -27.1125 H   0  0  0  0  0  0  0  0  0  0  0  0
    0.6680   26.2402  -27.8743 H   0  0  0  0  0  0  0  0  0  0  0  0
  1  2  1  0
  2  3  1  0
  3  4  1  0
  4  5  1  0
  5  6  1  0
  6  7  1  0
  7  8  1  0
  8  9  1  0
  9 10  1  0
 10 11  1  0
 11 12  2  0
 12 13  1  0
 13 14  1  0
 14 15  1  0
 15 16  1  0
 16 17  1  0
 14 18  2  0
 18 19  1  0
 19 20  2  0
 20 21  1  0
 21 22  2  0
 22 23  1  0
 23 24  2  0
  5 25  1  0
 25 26  1  0
 26  2  1  0
 24 12  1  0
 17 15  1  0
 24 19  1  0
  1 27  1  0
  1 28  1  0
  1 29  1  0
  3 30  1  0
  3 31  1  0
  4 32  1  0
  4 33  1  0
  6 34  1  0
  6 35  1  0
  7 36  1  0
  7 37  1  0
  8 38  1  0
  9 39  1  0
  9 40  1  0
 10 41  1  0
 10 42  1  0
 13 43  1  0
 15 44  1  0
 16 45  1  0
 16 46  1  0
 17 47  1  0
 17 48  1  0
 20 49  1  0
 21 50  1  0
 22 51  1  0
 23 52  1  0
 25 53  1  0
 25 54  1  0
 26 55  1  0
 26 56  1  0
M  END
>  <smiles>  (7) 
CN1CCN(CCNCCN=c2[nH]c(C3CC3)nc3ccccc23)CC1

>  <score_type>  (7) 
oracle

>  <origin>  (7) 
adg

>  <m_score__min__energy>  (7) 
-9.2699999999999996

>  <m_primary>  (7) 
energy

$$$$
7:0
     RDKit          3D

 45 45  0  0  0  0  0  0  0  0999 V2000
   -8.3980   21.2760  -30.9550 C   0  0  0  0  0  0  0  0  0  0  0  0
   -8.4700   22.4420  -31.9360 C   0  0  0  0  0  0  0  0  0  0  0  0
   -7.6410   23.6440  -31.4740 C   0  0  0  0  0  0  0  0  0  0  0  0
   -6.3200   23.1950  -30.9520 N   0  0  0  0  0  0  0  0  0  0  0  0
   -5.3140   23.1210  -32.0390 C   0  0  0  0  0  0  0  0  0  0  0  0
   -4.9240   21.6710  -32.3830 C   0  0  0  0  0  0  0  0  0  0  0  0
   -3.5730   21.5810  -33.0870 C   0  0  0  0  0  0  0  0  0  0  0  0
   -5.8590   24.0700  -29.8490 C   0  0  0  0  0  0  0  0  0  0  0  0
   -4.9530   25.1460  -30.3830 C   0  0  0  0  0  0  0  0  0  0  0  0
   -5.4630   26.2050  -30.8360 O   0  0  0  0  0  0  0  0  0  0  0  0
   -3.5340   24.9680  -30.4740 N   0  0  0  0  0  0  0  0  0  0  0  0
   -2.7360   24.1000  -29.6570 C   0  0  0  0  0  0  0  0  0  0  0  0
   -2.9840   22.7190  -29.6130 C   0  0  0  0  0  0  0  0  0  0  0  0
   -2.2220   21.8900  -28.7890 C   0  0  0  0  0  0  0  0  0  0  0  0
   -1.2220   22.4300  -27.9660 C   0  0  0  0  0  0  0  0  0  0  0  0
   -0.3650   21.5290  -27.1110 C   0  0  0  0  0  0  0  0  0  0  0  0
    0.9530   21.9520  -27.1190 F   0  0  0  0  0  0  0  0  0  0  0  0
   -0.8370   21.5510  -25.8120 F   0  0  0  0  0  0  0  0  0  0  0  0
   -0.4040   20.2290  -27.5840 F   0  0  0  0  0  0  0  0  0  0  0  0
   -0.9720   23.8120  -28.0110 C   0  0  0  0  0  0  0  0  0  0  0  0
   -1.7380   24.6550  -28.8430 C   0  0  0  0  0  0  0  0  0  0  0  0
   -1.5260   26.0420  -28.8950 O   0  0  0  0  0  0  0  0  0  0  0  0
   -0.8510   26.7950  -27.8920 C   0  0  0  0  0  0  0  0  0  0  0  0
   -8.4218   21.6614  -29.9250 H   0  0  0  0  0  0  0  0  0  0  0  0
   -9.2566   20.6076  -31.1163 H   0  0  0  0  0  0  0  0  0  0  0  0
   -7.4637   20.7183  -31.1163 H   0  0  0  0  0  0  0  0  0  0  0  0
   -8.0917   22.1061  -32.9127 H   0  0  0  0  0  0  0  0  0  0  0  0
   -9.5202   22.7629  -32.0000 H   0  0  0  0  0  0  0  0  0  0  0  0
   -7.4826   24.3233  -32.3246 H   0  0  0  0  0  0  0  0  0  0  0  0
   -8.1837   24.1637  -30.6707 H   0  0  0  0  0  0  0  0  0  0  0  0
   -5.7309   23.5972  -32.9387 H   0  0  0  0  0  0  0  0  0  0  0  0
   -4.4073   23.6379  -31.6915 H   0  0  0  0  0  0  0  0  0  0  0  0
   -4.8759   21.0881  -31.4514 H   0  0  0  0  0  0  0  0  0  0  0  0
   -5.6860   21.2737  -33.0696 H   0  0  0  0  0  0  0  0  0  0  0  0
   -2.7710   21.5276  -32.3360 H   0  0  0  0  0  0  0  0  0  0  0  0
   -3.5468   20.6791  -33.7162 H   0  0  0  0  0  0  0  0  0  0  0  0
   -3.4274   22.4714  -33.7162 H   0  0  0  0  0  0  0  0  0  0  0  0
   -6.7308   24.5357  -29.3661 H   0  0  0  0  0  0  0  0  0  0  0  0
   -5.3039   23.4637  -29.1181 H   0  0  0  0  0  0  0  0  0  0  0  0
   -3.7843   22.2876  -30.2322 H   0  0  0  0  0  0  0  0  0  0  0  0
   -2.4065   20.8056  -28.7845 H   0  0  0  0  0  0  0  0  0  0  0  0
   -0.1708   24.2408  -27.3911 H   0  0  0  0  0  0  0  0  0  0  0  0
   -1.1647   26.4450  -26.8975 H   0  0  0  0  0  0  0  0  0  0  0  0
    0.2353   26.6613  -28.0020 H   0  0  0  0  0  0  0  0  0  0  0  0
   -1.1023   27.8603  -28.0020 H   0  0  0  0  0  0  0  0  0  0  0  0
  1  2  1  0
  2  3  1  0
  3  4  1  0
  4  5  1  0
  5  6  1  0
  6  7  1  0
  4  8  1  0
  8  9  1  0
  9 10  2  0
  9 11  1  0
 11 12  1  0
 12 13  2  0
 13 14  1  0
 14 15  2  0
 15 16  1  0
 16 17  1  0
 16 18  1  0
 16 19  1  0
 15 20  1  0
 20 21  2  0
 21 22  1  0
 22 23  1  0
 21 12  1  0
  1 24  1  0
  1 25  1  0
  1 26  1  0
  2 27  1  0
  2 28  1  0
  3 29  1  0
  3 30  1  0
  5 31  1  0
  5 32  1  0
  6 33  1  0
  6 34  1  0
  7 35  1  0
  7 36  1  0
  7 37  1  0
  8 38  1  0
  8 39  1  0
 13 40  1  0
 14 41  1  0
 20 42  1  0
 23 43  1  0
 23 44  1  0
 23 45  1  0
M  CHG  1  11  -1
M  END
>  <UniqueID>  (8) 
7

>  <SMILES>  (8) 
CCCN(CCC)CC(=O)[N-]c1ccc(C(F)(F)F)cc1OC

>  <Energy>  (8) 
42.72336498918506

>  <Genealogy>  (8) 
CCCN(CCC)CC(=O)[N-]c1ccc(C(F)(F)F)cc1OC (protonated)
CCCN(CCC)CC(=O)[N-]c1ccc(C(F)(F)F)cc1OC (3D coordinates assigned)
CCCN(CCC)CC(=O)[N-]c1ccc(C(F)(F)F)cc1OC (optimized conformer: 42.72336498918506 kcal/mol)

>  <smiles>  (8) 
CCCN(CCC)CC(=O)Nc1ccc(C(F)(F)F)cc1OC

>  <score_type>  (8) 
oracle

>  <origin>  (8) 
adg

>  <m_score__min__energy>  (8) 
-8.5700000000000003

>  <m_primary>  (8) 
energy

$$$$
8:0
     RDKit          3D

 46 48  0  0  0  0  0  0  0  0999 V2000
   -6.0560   25.2480  -29.5530 C   0  0  0  0  0  0  0  0  0  0  0  0
   -5.2250   25.3980  -30.8180 C   0  0  0  0  0  0  0  0  0  0  0  0
   -3.8550   25.3030  -30.4860 O   0  0  0  0  0  0  0  0  0  0  0  0
   -3.6610   24.3760  -29.4340 C   0  0  0  0  0  0  0  0  0  0  0  0
   -3.1550   23.0440  -29.9920 C   0  0  0  0  0  0  0  0  0  0  0  0
   -3.1970   23.0560  -31.4080 O   0  0  0  0  0  0  0  0  0  0  0  0
   -3.3210   21.7480  -31.9310 C   0  0  0  0  0  0  0  0  0  0  0  0
   -4.2310   21.7510  -33.1610 C   0  0  0  0  0  0  0  0  0  0  0  0
   -5.4360   20.9590  -32.9030 N   0  0  0  0  0  0  0  0  0  0  0  0
   -6.6340   21.4210  -32.4590 C   0  0  0  0  0  0  0  0  0  0  0  0
   -7.5540   20.3880  -32.3670 C   0  0  0  0  0  0  0  0  0  0  0  0
   -6.9080   19.2630  -32.8300 C   0  0  0  0  0  0  0  0  0  0  0  0
   -7.3620   17.9580  -33.0150 C   0  0  0  0  0  0  0  0  0  0  0  0
   -6.4580   17.0170  -33.5360 C   0  0  0  0  0  0  0  0  0  0  0  0
   -5.1380   17.3980  -33.8640 C   0  0  0  0  0  0  0  0  0  0  0  0
   -4.7080   18.7230  -33.6730 C   0  0  0  0  0  0  0  0  0  0  0  0
   -5.6230   19.6410  -33.1470 C   0  0  0  0  0  0  0  0  0  0  0  0
   -8.9920   20.5670  -31.9870 C   0  0  0  0  0  0  0  0  0  0  0  0
   -9.1880   21.9050  -31.2500 C   0  0  0  0  0  0  0  0  0  0  0  0
   -8.4650   23.0620  -31.9710 C   0  0  0  0  0  0  0  0  0  0  0  0
   -6.9430   22.8300  -32.0380 C   0  0  0  0  0  0  0  0  0  0  0  0
   -5.4075   25.3651  -28.6722 H   0  0  0  0  0  0  0  0  0  0  0  0
   -6.8403   26.0191  -29.5359 H   0  0  0  0  0  0  0  0  0  0  0  0
   -6.5212   24.2514  -29.5359 H   0  0  0  0  0  0  0  0  0  0  0  0
   -5.4880   24.6001  -31.5281 H   0  0  0  0  0  0  0  0  0  0  0  0
   -5.4271   26.3756  -31.2800 H   0  0  0  0  0  0  0  0  0  0  0  0
   -2.9210   24.7785  -28.7265 H   0  0  0  0  0  0  0  0  0  0  0  0
   -4.6192   24.2097  -28.9200 H   0  0  0  0  0  0  0  0  0  0  0  0
   -2.1185   22.8824  -29.6611 H   0  0  0  0  0  0  0  0  0  0  0  0
   -3.7997   22.2332  -29.6219 H   0  0  0  0  0  0  0  0  0  0  0  0
   -2.3261   21.3758  -32.2168 H   0  0  0  0  0  0  0  0  0  0  0  0
   -3.7613   21.0959  -31.1623 H   0  0  0  0  0  0  0  0  0  0  0  0
   -4.5203   22.7859  -33.3960 H   0  0  0  0  0  0  0  0  0  0  0  0
   -3.6875   21.3100  -34.0096 H   0  0  0  0  0  0  0  0  0  0  0  0
   -8.3941   17.6743  -32.7614 H   0  0  0  0  0  0  0  0  0  0  0  0
   -6.7804   15.9766  -33.6895 H   0  0  0  0  0  0  0  0  0  0  0  0
   -4.4405   16.6518  -34.2723 H   0  0  0  0  0  0  0  0  0  0  0  0
   -3.6829   19.0285  -33.9295 H   0  0  0  0  0  0  0  0  0  0  0  0
   -9.6111   20.5595  -32.8962 H   0  0  0  0  0  0  0  0  0  0  0  0
   -9.2908   19.7445  -31.3205 H   0  0  0  0  0  0  0  0  0  0  0  0
  -10.2633   22.1314  -31.2011 H   0  0  0  0  0  0  0  0  0  0  0  0
   -8.7606   21.8078  -30.2411 H   0  0  0  0  0  0  0  0  0  0  0  0
   -8.8583   23.1450  -32.9949 H   0  0  0  0  0  0  0  0  0  0  0  0
   -8.6461   23.9863  -31.4028 H   0  0  0  0  0  0  0  0  0  0  0  0
   -6.5039   23.5280  -32.7660 H   0  0  0  0  0  0  0  0  0  0  0  0
   -6.5170   22.9998  -31.0381 H   0  0  0  0  0  0  0  0  0  0  0  0
  1  2  1  0
  2  3  1  0
  3  4  1  0
  4  5  1  0
  5  6  1  0
  6  7  1  0
  7  8  1  0
  8  9  1  0
  9 10  1  0
 10 11  2  0
 11 12  1  0
 12 13  2  0
 13 14  1  0
 14 15  2  0
 15 16  1  0
 16 17  2  0
 11 18  1  0
 18 19  1  0
 19 20  1  0
 20 21  1  0
 17  9  1  0
 21 10  1  0
 17 12  1  0
  1 22  1  0
  1 23  1  0
  1 24  1  0
  2 25  1  0
  2 26  1  0
  4 27  1  0
  4 28  1  0
  5 29  1  0
  5 30  1  0
  7 31  1  0
  7 32  1  0
  8 33  1  0
  8 34  1  0
 13 35  1  0
 14 36  1  0
 15 37  1  0
 16 38  1  0
 18 39  1  0
 18 40  1  0
 19 41  1  0
 19 42  1  0
 20 43  1  0
 20 44  1  0
 21 45  1  0
 21 46  1  0
M  END
>  <UniqueID>  (9) 
8

>  <SMILES>  (9) 
CCOCCOCCn1c2c(c3ccccc31)CCCC2

>  <Energy>  (9) 
77.56338174301942

>  <Genealogy>  (9) 
CCOCCOCCn1c2c(c3ccccc31)CCCC2 (3D coordinates assigned)
CCOCCOCCn1c2c(c3ccccc31)CCCC2 (nonaromatic ring conformer: 77.56338174301942 kcal/mol)

>  <smiles>  (9) 
CCOCCOCCn1c2c(c3ccccc31)CCCC2

>  <score_type>  (9) 
oracle

>  <origin>  (9) 
adg

>  <m_score__min__energy>  (9) 
-8.8200000000000003

>  <m_primary>  (9) 
energy

$$$$
9:0
     RDKit          3D

 43 45  0  0  0  0  0  0  0  0999 V2000
   -6.1100   17.4200  -32.0040 C   0  0  0  0  0  0  0  0  0  0  0  0
   -5.0010   17.9150  -32.9190 C   0  0  0  0  0  0  0  0  0  0  0  0
   -4.3400   18.9990  -32.2990 O   0  0  0  0  0  0  0  0  0  0  0  0
   -4.1070   20.0400  -33.2310 C   0  0  0  0  0  0  0  0  0  0  0  0
   -4.9130   21.2980  -32.8590 C   0  0  2  0  0  0  0  0  0  0  0  0
   -4.2800   22.0050  -31.6360 C   0  0  0  0  0  0  0  0  0  0  0  0
   -5.1800   23.0480  -31.1060 N   0  0  0  0  0  0  0  0  0  0  0  0
   -4.6300   24.2830  -30.6180 C   0  0  0  0  0  0  0  0  0  0  0  0
   -4.9100   25.3640  -31.2020 O   0  0  0  0  0  0  0  0  0  0  0  0
   -3.7190   24.3160  -29.4630 C   0  0  0  0  0  0  0  0  0  0  0  0
   -3.7480   23.4730  -28.3640 C   0  0  0  0  0  0  0  0  0  0  0  0
   -2.7020   23.8690  -27.5590 C   0  0  0  0  0  0  0  0  0  0  0  0
   -2.0970   24.9180  -28.2200 C   0  0  0  0  0  0  0  0  0  0  0  0
   -0.9180   25.6900  -27.7310 C   0  0  0  0  0  0  0  0  0  0  0  0
   -2.7220   25.1640  -29.3480 O   0  0  0  0  0  0  0  0  0  0  0  0
   -6.5400   22.6700  -30.6870 C   0  0  0  0  0  0  0  0  0  0  0  0
   -7.0900   21.6250  -31.6090 C   0  0  0  0  0  0  0  0  0  0  0  0
   -6.3510   20.9720  -32.5580 C   0  0  0  0  0  0  0  0  0  0  0  0
   -7.1480   20.1450  -33.2670 N   0  0  0  0  0  0  0  0  0  0  0  0
   -8.3630   20.2900  -32.6870 C   0  0  0  0  0  0  0  0  0  0  0  0
   -8.3530   21.1740  -31.6660 N   0  0  0  0  0  0  0  0  0  0  0  0
   -9.5020   21.6390  -30.8990 C   0  0  0  0  0  0  0  0  0  0  0  0
   -5.8075   17.5550  -30.9551 H   0  0  0  0  0  0  0  0  0  0  0  0
   -7.0284   17.9936  -32.1975 H   0  0  0  0  0  0  0  0  0  0  0  0
   -6.2963   16.3533  -32.1975 H   0  0  0  0  0  0  0  0  0  0  0  0
   -4.2834   17.1016  -33.1015 H   0  0  0  0  0  0  0  0  0  0  0  0
   -5.4296   18.2416  -33.8780 H   0  0  0  0  0  0  0  0  0  0  0  0
   -3.0351   20.2868  -33.2354 H   0  0  0  0  0  0  0  0  0  0  0  0
   -4.4257   19.6991  -34.2271 H   0  0  0  0  0  0  0  0  0  0  0  0
   -4.8861   21.9694  -33.7299 H   0  0  0  0  0  0  0  0  0  0  0  0
   -4.0886   21.2607  -30.8490 H   0  0  0  0  0  0  0  0  0  0  0  0
   -3.3398   22.4801  -31.9526 H   0  0  0  0  0  0  0  0  0  0  0  0
   -4.4594   22.6559  -28.1733 H   0  0  0  0  0  0  0  0  0  0  0  0
   -2.4099   23.4380  -26.5900 H   0  0  0  0  0  0  0  0  0  0  0  0
   -0.9126   25.6935  -26.6310 H   0  0  0  0  0  0  0  0  0  0  0  0
    0.0060   25.2215  -28.1007 H   0  0  0  0  0  0  0  0  0  0  0  0
   -0.9780   26.7243  -28.1007 H   0  0  0  0  0  0  0  0  0  0  0  0
   -6.5075   22.2708  -29.6625 H   0  0  0  0  0  0  0  0  0  0  0  0
   -7.1878   23.5583  -30.7217 H   0  0  0  0  0  0  0  0  0  0  0  0
   -9.2619   19.7460  -33.0126 H   0  0  0  0  0  0  0  0  0  0  0  0
   -9.2852   21.5512  -29.8242 H   0  0  0  0  0  0  0  0  0  0  0  0
   -9.7070   22.6909  -31.1470 H   0  0  0  0  0  0  0  0  0  0  0  0
  -10.3809   21.0258  -31.1470 H   0  0  0  0  0  0  0  0  0  0  0  0
  1  2  1  0
  2  3  1  0
  3  4  1  0
  4  5  1  0
  5  6  1  0
  6  7  1  0
  7  8  1  0
  8  9  2  0
  8 10  1  0
 10 11  2  0
 11 12  1  0
 12 13  2  0
 13 14  1  0
 13 15  1  0
  7 16  1  0
 16 17  1  0
 17 18  2  0
 18 19  1  0
 19 20  2  0
 20 21  1  0
 21 22  1  0
 18  5  1  0
 15 10  1  0
 21 17  1  0
  1 23  1  0
  1 24  1  0
  1 25  1  0
  2 26  1  0
  2 27  1  0
  4 28  1  0
  4 29  1  0
  5 30  1  6
  6 31  1  0
  6 32  1  0
 11 33  1  0
 12 34  1  0
 14 35  1  0
 14 36  1  0
 14 37  1  0
 16 38  1  0
 16 39  1  0
 20 40  1  0
 22 41  1  0
 22 42  1  0
 22 43  1  0
M  END
>  <UniqueID>  (10) 
9

>  <SMILES>  (10) 
CCOC[C@@H]1CN(C(=O)c2ccc(C)o2)Cc2c1ncn2C

>  <Energy>  (10) 
100.84959094470169

>  <Genealogy>  (10) 
CCOC[C@@H]1CN(C(=O)c2ccc(C)o2)Cc2c1ncn2C (chirality)
CCOC[C@@H]1CN(C(=O)c2ccc(C)o2)Cc2c1ncn2C (3D coordinates assigned)
CCOC[C@@H]1CN(C(=O)c2ccc(C)o2)Cc2c1ncn2C (nonaromatic ring conformer: 100.84959094470169 kcal/mol)

>  <smiles>  (10) 
CCOCC1CN(C(=O)c2ccc(C)o2)Cc2c1ncn2C

>  <score_type>  (10) 
oracle

>  <origin>  (10) 
adg

>  <m_score__min__energy>  (10) 
-7.8499999999999996

>  <m_primary>  (10) 
energy

$$$$
10:0
     RDKit          3D

 81 84  0  0  0  0  0  0  0  0999 V2000
    1.7210   19.9840  -33.0490 C   0  0  0  0  0  0  0  0  0  0  0  0
    0.8830   20.0980  -34.3200 C   0  0  0  0  0  0  0  0  0  0  0  0
   -0.0120   21.2780  -34.2650 N   0  0  0  0  0  0  0  0  0  0  0  0
    0.2690   22.2600  -35.3490 C   0  0  0  0  0  0  0  0  0  0  0  0
    1.7550   22.5990  -35.5440 C   0  0  0  0  0  0  0  0  0  0  0  0
   -1.4350   20.8740  -34.1550 C   0  0  0  0  0  0  0  0  0  0  0  0
   -1.9230   20.7750  -32.6990 C   0  0  0  0  0  0  0  0  0  0  0  0
   -0.9130   21.2610  -31.7590 N   0  0  0  0  0  0  0  0  0  0  0  0
   -1.0970   21.1940  -30.3350 C   0  0  0  0  0  0  0  0  0  0  0  0
   -1.8060   22.2010  -29.6580 C   0  0  0  0  0  0  0  0  0  0  0  0
   -2.5000   23.2000  -30.3720 C   0  0  0  0  0  0  0  0  0  0  0  0
   -3.2490   24.1740  -29.7090 C   0  0  0  0  0  0  0  0  0  0  0  0
   -3.9380   25.1240  -30.4780 O   0  0  0  0  0  0  0  0  0  0  0  0
   -5.3570   25.1770  -30.6120 C   0  0  0  0  0  0  0  0  0  0  0  0
   -5.9590   23.8140  -30.2100 C   0  0  0  0  0  0  0  0  0  0  0  0
   -6.3980   22.9430  -31.3520 N   0  0  0  0  0  0  0  0  0  0  0  0
   -6.9230   23.7920  -32.4560 C   0  0  0  0  0  0  0  0  0  0  0  0
   -7.5150   22.0910  -30.8370 C   0  0  0  0  0  0  0  0  0  0  0  0
   -7.8740   20.9170  -31.7760 C   0  0  0  0  0  0  0  0  0  0  0  0
   -6.6990   20.0640  -32.1590 N   0  0  0  0  0  0  0  0  0  0  0  0
   -6.6090   19.9640  -33.6400 C   0  0  0  0  0  0  0  0  0  0  0  0
   -6.8890   18.6890  -31.6300 C   0  0  0  0  0  0  0  0  0  0  0  0
   -5.4180   20.5930  -31.6120 C   0  0  0  0  0  0  0  0  0  0  0  0
   -5.2480   22.1070  -31.8480 C   0  0  0  0  0  0  0  0  0  0  0  0
   -3.3050   24.1570  -28.3100 C   0  0  0  0  0  0  0  0  0  0  0  0
   -2.6260   23.1770  -27.5870 C   0  0  0  0  0  0  0  0  0  0  0  0
   -1.8510   22.1870  -28.2400 C   0  0  0  0  0  0  0  0  0  0  0  0
   -1.1720   21.2120  -27.5340 N   0  0  0  0  0  0  0  0  0  0  0  0
   -0.9550   21.3640  -26.0790 C   0  0  0  0  0  0  0  0  0  0  0  0
   -0.6750   20.1040  -28.1950 C   0  0  0  0  0  0  0  0  0  0  0  0
   -0.2360   18.9530  -27.4940 C   0  0  0  0  0  0  0  0  0  0  0  0
    0.3250   17.8670  -28.1720 C   0  0  0  0  0  0  0  0  0  0  0  0
    0.8640   16.4580  -27.2790 Cl  0  0  0  0  0  0  0  0  0  0  0  0
    0.4490   17.8990  -29.5570 C   0  0  0  0  0  0  0  0  0  0  0  0
   -0.0110   18.9990  -30.2750 C   0  0  0  0  0  0  0  0  0  0  0  0
   -0.5970   20.0980  -29.6120 C   0  0  0  0  0  0  0  0  0  0  0  0
    1.0667   20.0730  -32.1692 H   0  0  0  0  0  0  0  0  0  0  0  0
    2.2290   19.0085  -33.0310 H   0  0  0  0  0  0  0  0  0  0  0  0
    2.4711   20.7884  -33.0310 H   0  0  0  0  0  0  0  0  0  0  0  0
    1.5547   20.1966  -35.1855 H   0  0  0  0  0  0  0  0  0  0  0  0
    0.2636   19.1937  -34.4123 H   0  0  0  0  0  0  0  0  0  0  0  0
   -0.1140   21.8458  -36.2933 H   0  0  0  0  0  0  0  0  0  0  0  0
   -0.2255   23.1970  -35.0530 H   0  0  0  0  0  0  0  0  0  0  0  0
    2.2379   22.7092  -34.5618 H   0  0  0  0  0  0  0  0  0  0  0  0
    2.2452   21.7896  -36.1049 H   0  0  0  0  0  0  0  0  0  0  0  0
    1.8457   23.5409  -36.1049 H   0  0  0  0  0  0  0  0  0  0  0  0
   -2.0518   21.6174  -34.6813 H   0  0  0  0  0  0  0  0  0  0  0  0
   -1.5273   19.8727  -34.6009 H   0  0  0  0  0  0  0  0  0  0  0  0
   -2.8355   21.3788  -32.5864 H   0  0  0  0  0  0  0  0  0  0  0  0
   -2.1222   19.7169  -32.4738 H   0  0  0  0  0  0  0  0  0  0  0  0
   -0.0570   21.7320  -32.1320 H   0  0  0  0  0  0  0  0  0  0  0  0
   -2.4502   23.2119  -31.4708 H   0  0  0  0  0  0  0  0  0  0  0  0
   -5.7588   25.9637  -29.9565 H   0  0  0  0  0  0  0  0  0  0  0  0
   -5.6202   25.4023  -31.6560 H   0  0  0  0  0  0  0  0  0  0  0  0
   -5.1995   23.2635  -29.6355 H   0  0  0  0  0  0  0  0  0  0  0  0
   -6.8685   24.0416  -29.6347 H   0  0  0  0  0  0  0  0  0  0  0  0
   -7.4569   24.6554  -32.0324 H   0  0  0  0  0  0  0  0  0  0  0  0
   -6.0862   24.1464  -33.0758 H   0  0  0  0  0  0  0  0  0  0  0  0
   -7.6139   23.2016  -33.0758 H   0  0  0  0  0  0  0  0  0  0  0  0
   -7.2180   21.6790  -29.8613 H   0  0  0  0  0  0  0  0  0  0  0  0
   -8.4056   22.7324  -30.7635 H   0  0  0  0  0  0  0  0  0  0  0  0
   -8.6133   20.2804  -31.2678 H   0  0  0  0  0  0  0  0  0  0  0  0
   -8.2647   21.3585  -32.7047 H   0  0  0  0  0  0  0  0  0  0  0  0
   -5.8959   19.1716  -33.9113 H   0  0  0  0  0  0  0  0  0  0  0  0
   -7.5999   19.7224  -34.0521 H   0  0  0  0  0  0  0  0  0  0  0  0
   -6.2647   20.9240  -34.0521 H   0  0  0  0  0  0  0  0  0  0  0  0
   -6.8853   18.7155  -30.5303 H   0  0  0  0  0  0  0  0  0  0  0  0
   -7.8509   18.2896  -31.9840 H   0  0  0  0  0  0  0  0  0  0  0  0
   -6.0715   18.0437  -31.9840 H   0  0  0  0  0  0  0  0  0  0  0  0
   -5.3922   20.4009  -30.5292 H   0  0  0  0  0  0  0  0  0  0  0  0
   -4.5974   20.0817  -32.1366 H   0  0  0  0  0  0  0  0  0  0  0  0
   -4.3344   22.4361  -31.3312 H   0  0  0  0  0  0  0  0  0  0  0  0
   -5.1983   22.2531  -32.9371 H   0  0  0  0  0  0  0  0  0  0  0  0
   -3.8888   24.9222  -27.7775 H   0  0  0  0  0  0  0  0  0  0  0  0
   -2.6933   23.1725  -26.4891 H   0  0  0  0  0  0  0  0  0  0  0  0
   -1.7369   20.8163  -25.5325 H   0  0  0  0  0  0  0  0  0  0  0  0
    0.0319   20.9587  -25.8112 H   0  0  0  0  0  0  0  0  0  0  0  0
   -0.9986   22.4300  -25.8112 H   0  0  0  0  0  0  0  0  0  0  0  0
   -0.3384   18.9138  -26.3995 H   0  0  0  0  0  0  0  0  0  0  0  0
    0.9117   17.0529  -30.0861 H   0  0  0  0  0  0  0  0  0  0  0  0
    0.0833   19.0117  -31.3709 H   0  0  0  0  0  0  0  0  0  0  0  0
  1  2  1  0
  2  3  1  0
  3  4  1  0
  4  5  1  0
  3  6  1  0
  6  7  1  0
  7  8  1  0
  8  9  1  0
  9 10  2  0
 10 11  1  0
 11 12  2  0
 12 13  1  0
 13 14  1  0
 14 15  1  0
 15 16  1  0
 16 17  1  0
 16 18  1  0
 18 19  1  0
 19 20  1  0
 20 21  1  0
 20 22  1  0
 20 23  1  0
 23 24  1  0
 12 25  1  0
 25 26  2  0
 26 27  1  0
 27 28  2  0
 28 29  1  0
 28 30  1  0
 30 31  2  0
 31 32  1  0
 32 33  1  0
 32 34  2  0
 34 35  1  0
 35 36  2  0
 36  9  1  0
 27 10  1  0
 36 30  1  0
 24 16  1  0
  1 37  1  0
  1 38  1  0
  1 39  1  0
  2 40  1  0
  2 41  1  0
  4 42  1  0
  4 43  1  0
  5 44  1  0
  5 45  1  0
  5 46  1  0
  6 47  1  0
  6 48  1  0
  7 49  1  0
  7 50  1  0
  8 51  1  0
 11 52  1  0
 14 53  1  0
 14 54  1  0
 15 55  1  0
 15 56  1  0
 17 57  1  0
 17 58  1  0
 17 59  1  0
 18 60  1  0
 18 61  1  0
 19 62  1  0
 19 63  1  0
 21 64  1  0
 21 65  1  0
 21 66  1  0
 22 67  1  0
 22 68  1  0
 22 69  1  0
 23 70  1  0
 23 71  1  0
 24 72  1  0
 24 73  1  0
 25 74  1  0
 26 75  1  0
 29 76  1  0
 29 77  1  0
 29 78  1  0
 31 79  1  0
 34 80  1  0
 35 81  1  0
M  CHG  3  16   1  20   1  28   1
M  END
>  <UniqueID>  (11) 
10

>  <SMILES>  (11) 
CCN(CC)CCNc1c2cc(OCC[N+]3(C)CC[N+](C)(C)CC3)ccc2[n+](C)c2cc(Cl)ccc12

>  <Energy>  (11) 
134.29270132085705

>  <Genealogy>  (11) 
CCN(CC)CCNc1c2cc(OCC[N+]3(C)CC[N+](C)(C)CC3)ccc2[n+](C)c2cc(Cl)ccc12 (3D coordinates assigned)
CCN(CC)CCNc1c2cc(OCC[N+]3(C)CC[N+](C)(C)CC3)ccc2[n+](C)c2cc(Cl)ccc12 (nonaromatic ring conformer: 134.29270132085705 kcal/mol)

>  <smiles>  (11) 
CCN(CC)CCNc1c2cc(OCC[N+]3(C)CC[N+](C)(C)CC3)ccc2[n+](C)c2cc(Cl)ccc12

>  <score_type>  (11) 
oracle

>  <origin>  (11) 
adg

>  <m_score__min__energy>  (11) 
-8.8699999999999992

>  <m_primary>  (11) 
energy

$$$$
11:0
     RDKit          3D

 65 67  0  0  0  0  0  0  0  0999 V2000
   -5.6520   18.1700  -34.9680 C   0  0  0  0  0  0  0  0  0  0  0  0
   -4.6240   17.3130  -34.2390 C   0  0  0  0  0  0  0  0  0  0  0  0
   -3.4720   18.1300  -33.8400 N   0  0  0  0  0  0  0  0  0  0  0  0
   -2.2920   17.7600  -34.6320 C   0  0  0  0  0  0  0  0  0  0  0  0
   -0.9950   18.0990  -33.8830 C   0  0  0  0  0  0  0  0  0  0  0  0
   -1.0830   17.7810  -32.3900 C   0  0  0  0  0  0  0  0  0  0  0  0
   -1.6380   18.8970  -31.7260 O   0  0  0  0  0  0  0  0  0  0  0  0
   -0.6530   19.5920  -30.9840 C   0  0  0  0  0  0  0  0  0  0  0  0
   -0.2010   20.8730  -31.7080 C   0  0  0  0  0  0  0  0  0  0  0  0
   -1.2560   21.7720  -32.0150 O   0  0  0  0  0  0  0  0  0  0  0  0
   -1.8460   21.5470  -33.2860 C   0  0  0  0  0  0  0  0  0  0  0  0
   -3.3120   21.0520  -33.2470 C   0  0  0  0  0  0  0  0  0  0  0  0
   -3.6920   20.4280  -31.9610 N   0  0  0  0  0  0  0  0  0  0  0  0
   -4.9800   20.9050  -31.4740 C   0  0  0  0  0  0  0  0  0  0  0  0
   -6.1300   20.0980  -31.6430 C   0  0  0  0  0  0  0  0  0  0  0  0
   -7.4030   20.7180  -31.7630 C   0  0  0  0  0  0  0  0  0  0  0  0
   -7.5310   22.0820  -31.5790 N   0  0  0  0  0  0  0  0  0  0  0  0
   -8.8670   22.7210  -31.6480 C   0  0  0  0  0  0  0  0  0  0  0  0
   -6.4210   22.8610  -31.3060 C   0  0  0  0  0  0  0  0  0  0  0  0
   -6.4960   24.2760  -31.2640 C   0  0  0  0  0  0  0  0  0  0  0  0
   -5.4110   25.0400  -30.8450 C   0  0  0  0  0  0  0  0  0  0  0  0
   -4.2560   24.4170  -30.3990 C   0  0  0  0  0  0  0  0  0  0  0  0
   -4.1220   23.0310  -30.4840 C   0  0  0  0  0  0  0  0  0  0  0  0
   -2.8070   22.3230  -29.5420 Cl  0  0  0  0  0  0  0  0  0  0  0  0
   -5.1560   22.2520  -31.0790 C   0  0  0  0  0  0  0  0  0  0  0  0
   -8.6260   19.8660  -32.1000 C   0  0  0  0  0  0  0  0  0  0  0  0
   -8.2910   18.4680  -32.6080 C   0  0  0  0  0  0  0  0  0  0  0  0
   -7.2840   17.8160  -31.6790 C   0  0  0  0  0  0  0  0  0  0  0  0
   -5.9670   18.5840  -31.7400 C   0  0  0  0  0  0  0  0  0  0  0  0
   -6.2804   18.6938  -34.2326 H   0  0  0  0  0  0  0  0  0  0  0  0
   -5.1337   18.9072  -35.5988 H   0  0  0  0  0  0  0  0  0  0  0  0
   -6.2839   17.5275  -35.5988 H   0  0  0  0  0  0  0  0  0  0  0  0
   -5.0867   16.8753  -33.3422 H   0  0  0  0  0  0  0  0  0  0  0  0
   -4.2805   16.5145  -34.9132 H   0  0  0  0  0  0  0  0  0  0  0  0
   -3.2640   17.9210  -32.8330 H   0  0  0  0  0  0  0  0  0  0  0  0
   -2.3187   16.6788  -34.8329 H   0  0  0  0  0  0  0  0  0  0  0  0
   -2.3107   18.3287  -35.5734 H   0  0  0  0  0  0  0  0  0  0  0  0
   -0.1717   17.5152  -34.3204 H   0  0  0  0  0  0  0  0  0  0  0  0
   -0.8217   19.1804  -33.9856 H   0  0  0  0  0  0  0  0  0  0  0  0
   -1.7241   16.9006  -32.2353 H   0  0  0  0  0  0  0  0  0  0  0  0
   -0.0809   17.5651  -31.9910 H   0  0  0  0  0  0  0  0  0  0  0  0
   -1.0701   19.8640  -30.0031 H   0  0  0  0  0  0  0  0  0  0  0  0
    0.2208   18.9338  -30.8690 H   0  0  0  0  0  0  0  0  0  0  0  0
    0.5215   21.3962  -31.0643 H   0  0  0  0  0  0  0  0  0  0  0  0
    0.2335   20.5566  -32.6677 H   0  0  0  0  0  0  0  0  0  0  0  0
   -1.8198   22.4929  -33.8469 H   0  0  0  0  0  0  0  0  0  0  0  0
   -1.2621   20.7434  -33.7586 H   0  0  0  0  0  0  0  0  0  0  0  0
   -3.9743   21.9119  -33.4255 H   0  0  0  0  0  0  0  0  0  0  0  0
   -3.4122   20.2788  -34.0229 H   0  0  0  0  0  0  0  0  0  0  0  0
   -3.7230   19.3910  -32.0800 H   0  0  0  0  0  0  0  0  0  0  0  0
   -2.9120   20.6060  -31.3000 H   0  0  0  0  0  0  0  0  0  0  0  0
   -9.2410   22.8999  -30.6291 H   0  0  0  0  0  0  0  0  0  0  0  0
   -8.7881   23.6789  -32.1830 H   0  0  0  0  0  0  0  0  0  0  0  0
   -9.5632   22.0584  -32.1830 H   0  0  0  0  0  0  0  0  0  0  0  0
   -7.4266   24.7780  -31.5674 H   0  0  0  0  0  0  0  0  0  0  0  0
   -5.4700   26.1382  -30.8677 H   0  0  0  0  0  0  0  0  0  0  0  0
   -3.4393   25.0197  -29.9750 H   0  0  0  0  0  0  0  0  0  0  0  0
   -9.2380   19.7658  -31.1914 H   0  0  0  0  0  0  0  0  0  0  0  0
   -9.1559   20.3807  -32.9150 H   0  0  0  0  0  0  0  0  0  0  0  0
   -9.2075   17.8604  -32.6388 H   0  0  0  0  0  0  0  0  0  0  0  0
   -7.8624   18.5398  -33.6185 H   0  0  0  0  0  0  0  0  0  0  0  0
   -7.6707   17.8318  -30.6493 H   0  0  0  0  0  0  0  0  0  0  0  0
   -7.1168   16.7745  -31.9910 H   0  0  0  0  0  0  0  0  0  0  0  0
   -5.3320   18.2497  -30.9063 H   0  0  0  0  0  0  0  0  0  0  0  0
   -5.5192   18.3730  -32.7223 H   0  0  0  0  0  0  0  0  0  0  0  0
  1  2  1  0
  2  3  1  0
  3  4  1  0
  4  5  1  0
  5  6  1  0
  6  7  1  0
  7  8  1  0
  8  9  1  0
  9 10  1  0
 10 11  1  0
 11 12  1  0
 12 13  1  0
 13 14  1  0
 14 15  2  0
 15 16  1  0
 16 17  2  0
 17 18  1  0
 17 19  1  0
 19 20  2  0
 20 21  1  0
 21 22  2  0
 22 23  1  0
 23 24  1  0
 23 25  2  0
 16 26  1  0
 26 27  1  0
 27 28  1  0
 28 29  1  0
 25 14  1  0
 29 15  1  0
 25 19  1  0
  1 30  1  0
  1 31  1  0
  1 32  1  0
  2 33  1  0
  2 34  1  0
  3 35  1  0
  4 36  1  0
  4 37  1  0
  5 38  1  0
  5 39  1  0
  6 40  1  0
  6 41  1  0
  8 42  1  0
  8 43  1  0
  9 44  1  0
  9 45  1  0
 11 46  1  0
 11 47  1  0
 12 48  1  0
 12 49  1  0
 13 50  1  0
 13 51  1  0
 18 52  1  0
 18 53  1  0
 18 54  1  0
 20 55  1  0
 21 56  1  0
 22 57  1  0
 26 58  1  0
 26 59  1  0
 27 60  1  0
 27 61  1  0
 28 62  1  0
 28 63  1  0
 29 64  1  0
 29 65  1  0
M  CHG  2  13   1  17   1
M  END
>  <UniqueID>  (12) 
11

>  <SMILES>  (12) 
CCNCCCOCCOCC[NH2+]c1c2c([n+](C)c3cccc(Cl)c13)CCCC2

>  <Energy>  (12) 
97.15065335058472

>  <Genealogy>  (12) 
CCNCCCOCCOCC[NH2+]c1c2c([n+](C)c3cccc(Cl)c13)CCCC2 (protonated)
CCNCCCOCCOCC[NH2+]c1c2c([n+](C)c3cccc(Cl)c13)CCCC2 (3D coordinates assigned)
CCNCCCOCCOCC[NH2+]c1c2c([n+](C)c3cccc(Cl)c13)CCCC2 (nonaromatic ring conformer: 97.15065335058472 kcal/mol)

>  <smiles>  (12) 
CCNCCCOCCOCCNc1c2c([n+](C)c3cccc(Cl)c13)CCCC2

>  <score_type>  (12) 
oracle

>  <origin>  (12) 
adg

>  <m_score__min__energy>  (12) 
-8.3300000000000001

>  <m_primary>  (12) 
energy

$$$$
12:0
     RDKit          3D

 57 59  0  0  0  0  0  0  0  0999 V2000
   -1.9010   25.6240  -26.6000 C   0  0  0  0  0  0  0  0  0  0  0  0
   -0.9650   25.9280  -27.7580 C   0  0  0  0  0  0  0  0  0  0  0  0
   -1.6500   25.7130  -28.9740 O   0  0  0  0  0  0  0  0  0  0  0  0
   -2.2530   24.4320  -28.9860 C   0  0  0  0  0  0  0  0  0  0  0  0
   -3.7490   24.5520  -29.2770 C   0  0  0  0  0  0  0  0  0  0  0  0
   -3.9300   25.3020  -30.4630 O   0  0  0  0  0  0  0  0  0  0  0  0
   -5.3060   25.4610  -30.7580 C   0  0  0  0  0  0  0  0  0  0  0  0
   -6.0590   24.1210  -30.6920 C   0  0  0  0  0  0  0  0  0  0  0  0
   -5.5290   23.1930  -31.6220 O   0  0  0  0  0  0  0  0  0  0  0  0
   -4.7260   22.2200  -30.9770 C   0  0  0  0  0  0  0  0  0  0  0  0
   -3.6950   21.6270  -31.9510 C   0  0  0  0  0  0  0  0  0  0  0  0
   -4.2940   21.3940  -33.2790 N   0  0  0  0  0  0  0  0  0  0  0  0
   -4.8480   20.0510  -33.3700 C   0  0  0  0  0  0  0  0  0  0  0  0
   -4.0420   18.9500  -33.7580 C   0  0  0  0  0  0  0  0  0  0  0  0
   -2.7140   19.1280  -34.2190 C   0  0  0  0  0  0  0  0  0  0  0  0
   -1.9010   18.0340  -34.5030 C   0  0  0  0  0  0  0  0  0  0  0  0
   -2.3840   16.7450  -34.3360 C   0  0  0  0  0  0  0  0  0  0  0  0
   -3.7010   16.5410  -33.9340 C   0  0  0  0  0  0  0  0  0  0  0  0
   -4.5750   17.6320  -33.6910 C   0  0  0  0  0  0  0  0  0  0  0  0
   -5.9080   17.4300  -33.3920 N   0  0  0  0  0  0  0  0  0  0  0  0
   -6.5140   16.0960  -33.6060 C   0  0  0  0  0  0  0  0  0  0  0  0
   -6.6900   18.4810  -32.9550 C   0  0  0  0  0  0  0  0  0  0  0  0
   -7.9910   18.2680  -32.4280 C   0  0  0  0  0  0  0  0  0  0  0  0
   -8.8240   19.3360  -32.1040 C   0  0  0  0  0  0  0  0  0  0  0  0
   -8.3860   20.6410  -32.2830 C   0  0  0  0  0  0  0  0  0  0  0  0
   -9.4570   21.9850  -31.9340 Cl  0  0  0  0  0  0  0  0  0  0  0  0
   -7.0880   20.8820  -32.7260 C   0  0  0  0  0  0  0  0  0  0  0  0
   -6.2020   19.8140  -33.0160 C   0  0  0  0  0  0  0  0  0  0  0  0
   -1.3752   25.7948  -25.6490 H   0  0  0  0  0  0  0  0  0  0  0  0
   -2.7801   26.2828  -26.6564 H   0  0  0  0  0  0  0  0  0  0  0  0
   -2.2252   24.5744  -26.6564 H   0  0  0  0  0  0  0  0  0  0  0  0
   -0.6363   26.9762  -27.7006 H   0  0  0  0  0  0  0  0  0  0  0  0
   -0.0854   25.2695  -27.7065 H   0  0  0  0  0  0  0  0  0  0  0  0
   -1.7802   23.8157  -29.7649 H   0  0  0  0  0  0  0  0  0  0  0  0
   -2.1169   23.9634  -28.0001 H   0  0  0  0  0  0  0  0  0  0  0  0
   -4.1811   23.5486  -29.4058 H   0  0  0  0  0  0  0  0  0  0  0  0
   -4.2509   25.0568  -28.4384 H   0  0  0  0  0  0  0  0  0  0  0  0
   -5.7492   26.1556  -30.0292 H   0  0  0  0  0  0  0  0  0  0  0  0
   -5.3948   25.8550  -31.7812 H   0  0  0  0  0  0  0  0  0  0  0  0
   -5.9662   23.7061  -29.6775 H   0  0  0  0  0  0  0  0  0  0  0  0
   -7.1154   24.3007  -30.9404 H   0  0  0  0  0  0  0  0  0  0  0  0
   -4.1971   22.6902  -30.1349 H   0  0  0  0  0  0  0  0  0  0  0  0
   -5.3767   21.4094  -30.6173 H   0  0  0  0  0  0  0  0  0  0  0  0
   -2.8533   22.3277  -32.0541 H   0  0  0  0  0  0  0  0  0  0  0  0
   -3.3479   20.6635  -31.5496 H   0  0  0  0  0  0  0  0  0  0  0  0
   -3.6000   21.5410  -34.0460 H   0  0  0  0  0  0  0  0  0  0  0  0
   -5.0080   22.1270  -33.4800 H   0  0  0  0  0  0  0  0  0  0  0  0
   -2.3195   20.1458  -34.3545 H   0  0  0  0  0  0  0  0  0  0  0  0
   -0.8730   18.1926  -34.8607 H   0  0  0  0  0  0  0  0  0  0  0  0
   -1.7261   15.8831  -34.5213 H   0  0  0  0  0  0  0  0  0  0  0  0
   -4.0715   15.5137  -33.8021 H   0  0  0  0  0  0  0  0  0  0  0  0
   -6.7260   15.6292  -32.6328 H   0  0  0  0  0  0  0  0  0  0  0  0
   -7.4508   16.2054  -34.1721 H   0  0  0  0  0  0  0  0  0  0  0  0
   -5.8153   15.4624  -34.1721 H   0  0  0  0  0  0  0  0  0  0  0  0
   -8.3480   17.2392  -32.2726 H   0  0  0  0  0  0  0  0  0  0  0  0
   -9.8313   19.1450  -31.7054 H   0  0  0  0  0  0  0  0  0  0  0  0
   -6.7442   21.9191  -32.8531 H   0  0  0  0  0  0  0  0  0  0  0  0
  1  2  1  0
  2  3  1  0
  3  4  1  0
  4  5  1  0
  5  6  1  0
  6  7  1  0
  7  8  1  0
  8  9  1  0
  9 10  1  0
 10 11  1  0
 11 12  1  0
 12 13  1  0
 13 14  2  0
 14 15  1  0
 15 16  2  0
 16 17  1  0
 17 18  2  0
 18 19  1  0
 19 20  2  0
 20 21  1  0
 20 22  1  0
 22 23  2  0
 23 24  1  0
 24 25  2  0
 25 26  1  0
 25 27  1  0
 27 28  2  0
 28 13  1  0
 19 14  1  0
 28 22  1  0
  1 29  1  0
  1 30  1  0
  1 31  1  0
  2 32  1  0
  2 33  1  0
  4 34  1  0
  4 35  1  0
  5 36  1  0
  5 37  1  0
  7 38  1  0
  7 39  1  0
  8 40  1  0
  8 41  1  0
 10 42  1  0
 10 43  1  0
 11 44  1  0
 11 45  1  0
 12 46  1  0
 12 47  1  0
 15 48  1  0
 16 49  1  0
 17 50  1  0
 18 51  1  0
 21 52  1  0
 21 53  1  0
 21 54  1  0
 23 55  1  0
 24 56  1  0
 27 57  1  0
M  CHG  2  12   1  20   1
M  END
>  <UniqueID>  (13) 
12

>  <SMILES>  (13) 
CCOCCOCCOCC[NH2+]c1c2ccccc2[n+](C)c2ccc(Cl)cc12

>  <Energy>  (13) 
86.51542337143385

>  <Genealogy>  (13) 
CCOCCOCCOCC[NH2+]c1c2ccccc2[n+](C)c2ccc(Cl)cc12 (protonated)
CCOCCOCCOCC[NH2+]c1c2ccccc2[n+](C)c2ccc(Cl)cc12 (3D coordinates assigned)
CCOCCOCCOCC[NH2+]c1c2ccccc2[n+](C)c2ccc(Cl)cc12 (optimized conformer: 86.51542337143385 kcal/mol)

>  <smiles>  (13) 
CCOCCOCCOCCNc1c2ccccc2[n+](C)c2ccc(Cl)cc12

>  <score_type>  (13) 
oracle

>  <origin>  (13) 
adg

>  <m_score__min__energy>  (13) 
-8.8800000000000008

>  <m_primary>  (13) 
energy

$$$$
13:0
     RDKit          3D

 26 27  0  0  0  0  0  0  0  0999 V2000
   -8.5090   21.4850  -31.9490 C   0  0  0  0  0  0  0  0  0  0  0  0
   -7.2610   22.2690  -31.6450 C   0  0  0  0  0  0  0  0  0  0  0  0
   -7.3420   23.4450  -30.8830 C   0  0  0  0  0  0  0  0  0  0  0  0
   -6.1930   24.1860  -30.5880 C   0  0  0  0  0  0  0  0  0  0  0  0
   -6.3620   25.6640  -29.6490 Cl  0  0  0  0  0  0  0  0  0  0  0  0
   -4.9370   23.7610  -31.0640 C   0  0  0  0  0  0  0  0  0  0  0  0
   -3.7500   24.5050  -30.7410 N   0  0  0  0  0  0  0  0  0  0  0  0
   -3.1110   24.4660  -29.4570 C   0  0  0  0  0  0  0  0  0  0  0  0
   -3.4230   23.6190  -28.5380 N   0  0  0  0  0  0  0  0  0  0  0  0
   -2.5580   23.8190  -27.3810 C   0  0  0  0  0  0  0  0  0  0  0  0
   -1.6070   24.9600  -27.7800 C   0  0  0  0  0  0  0  0  0  0  0  0
   -2.0320   25.3120  -29.1200 N   0  0  0  0  0  0  0  0  0  0  0  0
   -4.8550   22.5730  -31.8100 C   0  0  0  0  0  0  0  0  0  0  0  0
   -6.0050   21.8320  -32.1040 C   0  0  0  0  0  0  0  0  0  0  0  0
   -5.8330   20.3540  -33.0450 Cl  0  0  0  0  0  0  0  0  0  0  0  0
   -8.9905   21.1825  -31.0074 H   0  0  0  0  0  0  0  0  0  0  0  0
   -9.2021   22.1102  -32.5309 H   0  0  0  0  0  0  0  0  0  0  0  0
   -8.2466   20.5892  -32.5309 H   0  0  0  0  0  0  0  0  0  0  0  0
   -8.3199   23.7876  -30.5138 H   0  0  0  0  0  0  0  0  0  0  0  0
   -3.2850   25.0630  -31.4920 H   0  0  0  0  0  0  0  0  0  0  0  0
   -3.1521   24.1026  -26.4998 H   0  0  0  0  0  0  0  0  0  0  0  0
   -2.0110   22.9028  -27.1137 H   0  0  0  0  0  0  0  0  0  0  0  0
   -1.7140   25.8160  -27.0975 H   0  0  0  0  0  0  0  0  0  0  0  0
   -0.5478   24.6669  -27.7330 H   0  0  0  0  0  0  0  0  0  0  0  0
   -1.6120   26.0500  -29.7270 H   0  0  0  0  0  0  0  0  0  0  0  0
   -3.8757   22.2215  -32.1669 H   0  0  0  0  0  0  0  0  0  0  0  0
  1  2  1  0
  2  3  2  0
  3  4  1  0
  4  5  1  0
  4  6  2  0
  6  7  1  0
  7  8  1  0
  8  9  2  0
  9 10  1  0
 10 11  1  0
 11 12  1  0
  6 13  1  0
 13 14  2  0
 14 15  1  0
 14  2  1  0
 12  8  1  0
  1 16  1  0
  1 17  1  0
  1 18  1  0
  3 19  1  0
  7 20  1  0
 10 21  1  0
 10 22  1  0
 11 23  1  0
 11 24  1  0
 12 25  1  0
 13 26  1  0
M  END
>  <UniqueID>  (14) 
13

>  <SMILES>  (14) 
Cc1cc(Cl)c(NC2=NCCN2)cc1Cl

>  <Energy>  (14) 
41.88943700947509

>  <Genealogy>  (14) 
Cc1cc(Cl)c(NC2=NCCN2)cc1Cl (3D coordinates assigned)
Cc1cc(Cl)c(NC2=NCCN2)cc1Cl (nonaromatic ring conformer: 41.88943700947509 kcal/mol)

>  <smiles>  (14) 
Cc1cc(Cl)c(NC2=NCCN2)cc1Cl

>  <score_type>  (14) 
oracle

>  <origin>  (14) 
adg

>  <m_score__min__energy>  (14) 
-7.5300000000000002

>  <m_primary>  (14) 
energy

$$$$
14:0
     RDKit          3D

 58 61  0  0  0  0  0  0  0  0999 V2000
   -3.3220   24.1330  -27.6760 C   0  0  0  0  0  0  0  0  0  0  0  0
   -2.6370   24.5350  -28.9860 C   0  0  0  0  0  0  0  0  0  0  0  0
   -3.3810   24.1500  -30.2100 N   0  0  0  0  0  0  0  0  0  0  0  0
   -4.6020   24.9520  -30.4690 C   0  0  0  0  0  0  0  0  0  0  0  0
   -5.9070   24.3150  -29.9610 C   0  0  0  0  0  0  0  0  0  0  0  0
   -3.5180   22.6970  -30.4510 C   0  0  0  0  0  0  0  0  0  0  0  0
   -2.3500   22.1550  -31.2840 C   0  0  0  0  0  0  0  0  0  0  0  0
   -2.7760   21.8810  -32.6560 N   0  0  0  0  0  0  0  0  0  0  0  0
   -3.3750   20.6220  -32.9790 C   0  0  0  0  0  0  0  0  0  0  0  0
   -4.7750   20.4800  -32.8680 C   0  0  0  0  0  0  0  0  0  0  0  0
   -5.3390   19.1880  -32.9270 C   0  0  0  0  0  0  0  0  0  0  0  0
   -4.5190   18.0800  -32.9410 N   0  0  0  0  0  0  0  0  0  0  0  0
   -5.0660   16.7590  -32.5620 C   0  0  0  0  0  0  0  0  0  0  0  0
   -3.1810   18.2100  -33.2600 C   0  0  0  0  0  0  0  0  0  0  0  0
   -2.3940   17.0700  -33.5520 C   0  0  0  0  0  0  0  0  0  0  0  0
   -1.0430   17.1830  -33.8430 C   0  0  0  0  0  0  0  0  0  0  0  0
   -0.4450   18.4300  -33.9010 C   0  0  0  0  0  0  0  0  0  0  0  0
   -1.1870   19.5990  -33.6760 C   0  0  0  0  0  0  0  0  0  0  0  0
   -0.4710   20.9080  -33.9150 C   0  0  0  0  0  0  0  0  0  0  0  0
   -2.5720   19.4990  -33.3080 C   0  0  0  0  0  0  0  0  0  0  0  0
   -6.8280   19.0670  -32.9710 C   0  0  0  0  0  0  0  0  0  0  0  0
   -7.3730   18.0400  -33.4630 O   0  0  0  0  0  0  0  0  0  0  0  0
   -7.6780   20.1860  -32.5230 C   0  0  0  0  0  0  0  0  0  0  0  0
   -9.0510   19.9990  -32.2790 C   0  0  0  0  0  0  0  0  0  0  0  0
   -9.8460   21.0720  -31.8700 C   0  0  0  0  0  0  0  0  0  0  0  0
   -9.2820   22.3380  -31.7070 C   0  0  0  0  0  0  0  0  0  0  0  0
   -7.9210   22.5360  -31.9540 C   0  0  0  0  0  0  0  0  0  0  0  0
   -7.1090   21.4600  -32.3610 C   0  0  0  0  0  0  0  0  0  0  0  0
   -5.6730   21.6600  -32.6530 C   0  0  0  0  0  0  0  0  0  0  0  0
   -5.2280   22.8360  -32.7370 O   0  0  0  0  0  0  0  0  0  0  0  0
   -2.7211   24.4856  -26.8248 H   0  0  0  0  0  0  0  0  0  0  0  0
   -4.3230   24.5870  -27.6313 H   0  0  0  0  0  0  0  0  0  0  0  0
   -3.4138   23.0377  -27.6313 H   0  0  0  0  0  0  0  0  0  0  0  0
   -2.5133   25.6280  -28.9882 H   0  0  0  0  0  0  0  0  0  0  0  0
   -1.6793   23.9948  -29.0180 H   0  0  0  0  0  0  0  0  0  0  0  0
   -4.4822   25.9281  -29.9761 H   0  0  0  0  0  0  0  0  0  0  0  0
   -4.6979   25.0292  -31.5621 H   0  0  0  0  0  0  0  0  0  0  0  0
   -5.9103   24.3134  -28.8610 H   0  0  0  0  0  0  0  0  0  0  0  0
   -6.7659   24.8952  -30.3294 H   0  0  0  0  0  0  0  0  0  0  0  0
   -5.9779   23.2809  -30.3294 H   0  0  0  0  0  0  0  0  0  0  0  0
   -3.5403   22.1743  -29.4834 H   0  0  0  0  0  0  0  0  0  0  0  0
   -4.4501   22.5252  -31.0092 H   0  0  0  0  0  0  0  0  0  0  0  0
   -1.5411   22.9003  -31.2992 H   0  0  0  0  0  0  0  0  0  0  0  0
   -1.9971   21.2174  -30.8297 H   0  0  0  0  0  0  0  0  0  0  0  0
   -2.8040   22.6470  -33.3680 H   0  0  0  0  0  0  0  0  0  0  0  0
   -5.0999   16.6771  -31.4656 H   0  0  0  0  0  0  0  0  0  0  0  0
   -6.0822   16.6524  -32.9693 H   0  0  0  0  0  0  0  0  0  0  0  0
   -4.4226   15.9652  -32.9693 H   0  0  0  0  0  0  0  0  0  0  0  0
   -2.8634   16.0752  -33.5479 H   0  0  0  0  0  0  0  0  0  0  0  0
   -0.4446   16.2788  -34.0283 H   0  0  0  0  0  0  0  0  0  0  0  0
    0.6289   18.5055  -34.1271 H   0  0  0  0  0  0  0  0  0  0  0  0
   -0.2185   21.3696  -32.9490 H   0  0  0  0  0  0  0  0  0  0  0  0
    0.4514   20.7227  -34.4850 H   0  0  0  0  0  0  0  0  0  0  0  0
   -1.1246   21.5847  -34.4850 H   0  0  0  0  0  0  0  0  0  0  0  0
   -9.5001   19.0036  -32.4109 H   0  0  0  0  0  0  0  0  0  0  0  0
  -10.9179   20.9190  -31.6761 H   0  0  0  0  0  0  0  0  0  0  0  0
   -9.9098   23.1814  -31.3836 H   0  0  0  0  0  0  0  0  0  0  0  0
   -7.4820   23.5369  -31.8299 H   0  0  0  0  0  0  0  0  0  0  0  0
  1  2  1  0
  2  3  1  0
  3  4  1  0
  4  5  1  0
  3  6  1  0
  6  7  1  0
  7  8  1  0
  8  9  1  0
  9 10  2  0
 10 11  1  0
 11 12  2  0
 12 13  1  0
 12 14  1  0
 14 15  2  0
 15 16  1  0
 16 17  2  0
 17 18  1  0
 18 19  1  0
 18 20  2  0
 11 21  1  0
 21 22  2  0
 21 23  1  0
 23 24  2  0
 24 25  1  0
 25 26  2  0
 26 27  1  0
 27 28  2  0
 28 29  1  0
 29 30  2  0
 20  9  1  0
 28 23  1  0
 29 10  1  0
 20 14  1  0
  1 31  1  0
  1 32  1  0
  1 33  1  0
  2 34  1  0
  2 35  1  0
  4 36  1  0
  4 37  1  0
  5 38  1  0
  5 39  1  0
  5 40  1  0
  6 41  1  0
  6 42  1  0
  7 43  1  0
  7 44  1  0
  8 45  1  0
 13 46  1  0
 13 47  1  0
 13 48  1  0
 15 49  1  0
 16 50  1  0
 17 51  1  0
 19 52  1  0
 19 53  1  0
 19 54  1  0
 24 55  1  0
 25 56  1  0
 26 57  1  0
 27 58  1  0
M  CHG  1  12   1
M  END
>  <UniqueID>  (15) 
14

>  <SMILES>  (15) 
CCN(CC)CCNc1c2c([n+](C)c3cccc(C)c13)C(=O)c1ccccc1C2=O

>  <Energy>  (15) 
105.14535752769577

>  <Genealogy>  (15) 
CCN(CC)CCNc1c2c([n+](C)c3cccc(C)c13)C(=O)c1ccccc1C2=O (3D coordinates assigned)
CCN(CC)CCNc1c2c([n+](C)c3cccc(C)c13)C(=O)c1ccccc1C2=O (nonaromatic ring conformer: 105.14535752769577 kcal/mol)

>  <smiles>  (15) 
CCN(CC)CCNc1c2c([n+](C)c3cccc(C)c13)C(=O)c1ccccc1C2=O

>  <score_type>  (15) 
oracle

>  <origin>  (15) 
adg

>  <m_score__min__energy>  (15) 
-8.6799999999999997

>  <m_primary>  (15) 
energy

$$$$
15:0
     RDKit          3D

 54 55  0  0  0  0  0  0  0  0999 V2000
   -3.7670   18.5560  -26.0030 C   0  0  0  0  0  0  0  0  0  0  0  0
   -2.4100   19.1450  -26.4050 C   0  0  0  0  0  0  0  0  0  0  0  0
   -2.5300   20.1650  -27.4610 N   0  0  0  0  0  0  0  0  0  0  0  0
   -1.6790   21.3380  -27.1980 C   0  0  0  0  0  0  0  0  0  0  0  0
   -2.1500   22.5600  -27.9930 C   0  0  0  0  0  0  0  0  0  0  0  0
   -3.2930   22.2270  -28.7560 O   0  0  0  0  0  0  0  0  0  0  0  0
   -4.3430   23.1420  -28.5100 C   0  0  0  0  0  0  0  0  0  0  0  0
   -4.2400   24.3750  -29.4210 C   0  0  0  0  0  0  0  0  0  0  0  0
   -4.5990   24.1230  -30.8320 N   0  0  0  0  0  0  0  0  0  0  0  0
   -4.0270   22.9260  -31.4770 C   0  0  0  0  0  0  0  0  0  0  0  0
   -5.0560   21.8050  -31.6890 C   0  0  0  0  0  0  0  0  0  0  0  0
   -6.2740   22.3210  -32.3530 N   0  0  0  0  0  0  0  0  0  0  0  0
   -7.2800   21.2620  -32.6840 C   0  0  0  0  0  0  0  0  0  0  0  0
   -6.5510   19.9410  -33.1000 C   0  0  0  0  0  0  0  0  0  0  0  0
   -6.7310   18.7920  -32.1000 C   0  0  0  0  0  0  0  0  0  0  0  0
   -8.2140   18.4650  -31.8670 C   0  0  0  0  0  0  0  0  0  0  0  0
   -9.1110   19.7170  -31.8200 C   0  0  0  0  0  0  0  0  0  0  0  0
   -8.3100   20.9940  -31.5480 C   0  0  0  0  0  0  0  0  0  0  0  0
   -6.8810   23.3260  -31.4510 C   0  0  0  0  0  0  0  0  0  0  0  0
   -5.9470   24.5250  -31.2720 C   0  0  0  0  0  0  0  0  0  0  0  0
   -3.8421   18.5234  -24.9061 H   0  0  0  0  0  0  0  0  0  0  0  0
   -4.5739   19.1849  -26.4072 H   0  0  0  0  0  0  0  0  0  0  0  0
   -3.8587   17.5371  -26.4072 H   0  0  0  0  0  0  0  0  0  0  0  0
   -1.9490   19.6064  -25.5192 H   0  0  0  0  0  0  0  0  0  0  0  0
   -1.7927   18.3248  -26.8002 H   0  0  0  0  0  0  0  0  0  0  0  0
   -2.2940   19.7480  -28.3930 H   0  0  0  0  0  0  0  0  0  0  0  0
   -3.5290   20.4760  -27.4850 H   0  0  0  0  0  0  0  0  0  0  0  0
   -1.7162   21.5736  -26.1242 H   0  0  0  0  0  0  0  0  0  0  0  0
   -0.6519   21.0973  -27.5095 H   0  0  0  0  0  0  0  0  0  0  0  0
   -2.4009   23.3736  -27.2965 H   0  0  0  0  0  0  0  0  0  0  0  0
   -1.3452   22.8840  -28.6692 H   0  0  0  0  0  0  0  0  0  0  0  0
   -5.3046   22.6407  -28.6943 H   0  0  0  0  0  0  0  0  0  0  0  0
   -4.2706   23.4778  -27.4650 H   0  0  0  0  0  0  0  0  0  0  0  0
   -4.9137   25.1505  -29.0278 H   0  0  0  0  0  0  0  0  0  0  0  0
   -3.1837   24.6819  -29.4158 H   0  0  0  0  0  0  0  0  0  0  0  0
   -3.6198   23.2171  -32.4565 H   0  0  0  0  0  0  0  0  0  0  0  0
   -3.2480   22.5333  -30.8070 H   0  0  0  0  0  0  0  0  0  0  0  0
   -4.6089   21.0205  -32.3172 H   0  0  0  0  0  0  0  0  0  0  0  0
   -5.3382   21.3983  -30.7067 H   0  0  0  0  0  0  0  0  0  0  0  0
   -7.8684   21.6443  -33.5311 H   0  0  0  0  0  0  0  0  0  0  0  0
   -6.9476   19.6182  -34.0739 H   0  0  0  0  0  0  0  0  0  0  0  0
   -5.4752   20.1673  -33.1369 H   0  0  0  0  0  0  0  0  0  0  0  0
   -6.2263   17.8966  -32.4919 H   0  0  0  0  0  0  0  0  0  0  0  0
   -6.2947   19.1034  -31.1395 H   0  0  0  0  0  0  0  0  0  0  0  0
   -8.5617   17.8162  -32.6844 H   0  0  0  0  0  0  0  0  0  0  0  0
   -8.2900   17.9712  -30.8870 H   0  0  0  0  0  0  0  0  0  0  0  0
   -9.6251   19.8207  -32.7869 H   0  0  0  0  0  0  0  0  0  0  0  0
   -9.8285   19.5871  -30.9964 H   0  0  0  0  0  0  0  0  0  0  0  0
   -9.0030   21.8458  -31.4831 H   0  0  0  0  0  0  0  0  0  0  0  0
   -7.7624   20.8682  -30.6023 H   0  0  0  0  0  0  0  0  0  0  0  0
   -7.8325   23.6705  -31.8822 H   0  0  0  0  0  0  0  0  0  0  0  0
   -7.0535   22.8618  -30.4688 H   0  0  0  0  0  0  0  0  0  0  0  0
   -5.8624   25.0541  -32.2327 H   0  0  0  0  0  0  0  0  0  0  0  0
   -6.3761   25.1726  -30.4932 H   0  0  0  0  0  0  0  0  0  0  0  0
  1  2  1  0
  2  3  1  0
  3  4  1  0
  4  5  1  0
  5  6  1  0
  6  7  1  0
  7  8  1  0
  8  9  1  0
  9 10  1  0
 10 11  1  0
 11 12  1  0
 12 13  1  0
 13 14  1  0
 14 15  1  0
 15 16  1  0
 16 17  1  0
 17 18  1  0
 12 19  1  0
 19 20  1  0
 20  9  1  0
 18 13  1  0
  1 21  1  0
  1 22  1  0
  1 23  1  0
  2 24  1  0
  2 25  1  0
  3 26  1  0
  3 27  1  0
  4 28  1  0
  4 29  1  0
  5 30  1  0
  5 31  1  0
  7 32  1  0
  7 33  1  0
  8 34  1  0
  8 35  1  0
 10 36  1  0
 10 37  1  0
 11 38  1  0
 11 39  1  0
 13 40  1  0
 14 41  1  0
 14 42  1  0
 15 43  1  0
 15 44  1  0
 16 45  1  0
 16 46  1  0
 17 47  1  0
 17 48  1  0
 18 49  1  0
 18 50  1  0
 19 51  1  0
 19 52  1  0
 20 53  1  0
 20 54  1  0
M  CHG  1   3   1
M  END
>  <UniqueID>  (16) 
15

>  <SMILES>  (16) 
CC[NH2+]CCOCCN1CCN(C2CCCCC2)CC1

>  <Energy>  (16) 
68.51749866664134

>  <Genealogy>  (16) 
CC[NH2+]CCOCCN1CCN(C2CCCCC2)CC1 (protonated)
CC[NH2+]CCOCCN1CCN(C2CCCCC2)CC1 (3D coordinates assigned)
CC[NH2+]CCOCCN1CCN(C2CCCCC2)CC1 (nonaromatic ring conformer: 68.51749866664134 kcal/mol)

>  <smiles>  (16) 
CCNCCOCCN1CCN(C2CCCCC2)CC1

>  <score_type>  (16) 
oracle

>  <origin>  (16) 
adg

>  <m_score__min__energy>  (16) 
-7.1299999999999999

>  <m_primary>  (16) 
energy

$$$$
16:0
     RDKit          3D

 49 52  0  0  0  0  0  0  0  0999 V2000
   -5.7700   25.7470  -30.2330 C   0  0  0  0  0  0  0  0  0  0  0  0
   -5.1770   24.3360  -30.1590 C   0  0  0  0  0  0  0  0  0  0  0  0
   -4.1610   24.1010  -31.2000 N   0  0  0  0  0  0  0  0  0  0  0  0
   -3.3910   22.8680  -30.9750 C   0  0  0  0  0  0  0  0  0  0  0  0
   -3.3360   22.0380  -32.2630 C   0  0  0  0  0  0  0  0  0  0  0  0
   -4.5290   22.2760  -33.0910 N   0  0  0  0  0  0  0  0  0  0  0  0
   -5.5050   21.2260  -32.8820 C   0  0  0  0  0  0  0  0  0  0  0  0
   -5.1460   19.8910  -33.1010 C   0  0  0  0  0  0  0  0  0  0  0  0
   -6.0670   18.8720  -32.8990 C   0  0  0  0  0  0  0  0  0  0  0  0
   -7.3520   19.0910  -32.4930 N   0  0  0  0  0  0  0  0  0  0  0  0
   -8.2870   17.9600  -32.3490 C   0  0  0  0  0  0  0  0  0  0  0  0
   -7.7380   20.3890  -32.2060 C   0  0  0  0  0  0  0  0  0  0  0  0
   -9.0310   20.6750  -31.7020 C   0  0  0  0  0  0  0  0  0  0  0  0
   -9.4180   21.9800  -31.4110 C   0  0  0  0  0  0  0  0  0  0  0  0
   -8.5330   23.0330  -31.6040 C   0  0  0  0  0  0  0  0  0  0  0  0
   -7.2500   22.7940  -32.0870 C   0  0  0  0  0  0  0  0  0  0  0  0
   -6.8220   21.4830  -32.3990 C   0  0  0  0  0  0  0  0  0  0  0  0
   -5.3600   17.6360  -33.1670 C   0  0  0  0  0  0  0  0  0  0  0  0
   -5.6020   16.3520  -33.0890 O   0  0  0  0  0  0  0  0  0  0  0  0
   -4.4720   15.7410  -33.4170 C   0  0  0  0  0  0  0  0  0  0  0  0
   -3.4840   16.6840  -33.7170 C   0  0  0  0  0  0  0  0  0  0  0  0
   -2.0430   16.4340  -34.0110 C   0  0  0  0  0  0  0  0  0  0  0  0
   -4.1040   17.8940  -33.5350 C   0  0  0  0  0  0  0  0  0  0  0  0
   -3.7910   19.3490  -33.5350 C   0  0  0  0  0  0  0  0  0  0  0  0
   -5.9313   26.1308  -29.2148 H   0  0  0  0  0  0  0  0  0  0  0  0
   -5.0742   26.4095  -30.7686 H   0  0  0  0  0  0  0  0  0  0  0  0
   -6.7302   25.7136  -30.7686 H   0  0  0  0  0  0  0  0  0  0  0  0
   -4.7105   24.1997  -29.1722 H   0  0  0  0  0  0  0  0  0  0  0  0
   -5.9951   23.6184  -30.3192 H   0  0  0  0  0  0  0  0  0  0  0  0
   -3.5040   24.9160  -31.2400 H   0  0  0  0  0  0  0  0  0  0  0  0
   -2.3679   23.1293  -30.6667 H   0  0  0  0  0  0  0  0  0  0  0  0
   -3.8804   22.2770  -30.1868 H   0  0  0  0  0  0  0  0  0  0  0  0
   -2.4389   22.3185  -32.8344 H   0  0  0  0  0  0  0  0  0  0  0  0
   -3.3015   20.9721  -31.9936 H   0  0  0  0  0  0  0  0  0  0  0  0
   -4.2440   22.3060  -34.0960 H   0  0  0  0  0  0  0  0  0  0  0  0
   -4.9450   23.2130  -32.8890 H   0  0  0  0  0  0  0  0  0  0  0  0
   -8.4550   17.7568  -31.2811 H   0  0  0  0  0  0  0  0  0  0  0  0
   -9.2440   18.2120  -32.8293 H   0  0  0  0  0  0  0  0  0  0  0  0
   -7.8596   17.0675  -32.8293 H   0  0  0  0  0  0  0  0  0  0  0  0
   -9.7414   19.8513  -31.5378 H   0  0  0  0  0  0  0  0  0  0  0  0
  -10.4293   22.1783  -31.0264 H   0  0  0  0  0  0  0  0  0  0  0  0
   -8.8480   24.0615  -31.3738 H   0  0  0  0  0  0  0  0  0  0  0  0
   -6.5584   23.6377  -32.2282 H   0  0  0  0  0  0  0  0  0  0  0  0
   -4.3320   14.6504  -33.4486 H   0  0  0  0  0  0  0  0  0  0  0  0
   -1.4874   16.3376  -33.0665 H   0  0  0  0  0  0  0  0  0  0  0  0
   -1.9430   15.5051  -34.5916 H   0  0  0  0  0  0  0  0  0  0  0  0
   -1.6360   17.2749  -34.5916 H   0  0  0  0  0  0  0  0  0  0  0  0
   -2.9980   19.5992  -32.8149 H   0  0  0  0  0  0  0  0  0  0  0  0
   -3.4072   19.7478  -34.4856 H   0  0  0  0  0  0  0  0  0  0  0  0
  1  2  1  0
  2  3  1  0
  3  4  1  0
  4  5  1  0
  5  6  1  0
  6  7  1  0
  7  8  2  0
  8  9  1  0
  9 10  2  0
 10 11  1  0
 10 12  1  0
 12 13  2  0
 13 14  1  0
 14 15  2  0
 15 16  1  0
 16 17  2  0
  9 18  1  0
 18 19  1  0
 19 20  1  0
 20 21  2  0
 21 22  1  0
 21 23  1  0
 23 24  1  0
 17  7  1  0
 23 18  2  0
 24  8  1  0
 17 12  1  0
  1 25  1  0
  1 26  1  0
  1 27  1  0
  2 28  1  0
  2 29  1  0
  3 30  1  0
  4 31  1  0
  4 32  1  0
  5 33  1  0
  5 34  1  0
  6 35  1  0
  6 36  1  0
 11 37  1  0
 11 38  1  0
 11 39  1  0
 13 40  1  0
 14 41  1  0
 15 42  1  0
 16 43  1  0
 20 44  1  0
 22 45  1  0
 22 46  1  0
 22 47  1  0
 24 48  1  0
 24 49  1  0
M  CHG  2   6   1  10   1
M  END
>  <UniqueID>  (17) 
16

>  <SMILES>  (17) 
CCNCC[NH2+]c1c2c([n+](C)c3ccccc13)-c1occ(C)c1C2

>  <Energy>  (17) 
128.4944645027225

>  <Genealogy>  (17) 
CCNCC[NH2+]c1c2c([n+](C)c3ccccc13)-c1occ(C)c1C2 (protonated)
CCNCC[NH2+]c1c2c([n+](C)c3ccccc13)-c1occ(C)c1C2 (3D coordinates assigned)
CCNCC[NH2+]c1c2c([n+](C)c3ccccc13)-c1occ(C)c1C2 (nonaromatic ring conformer: 128.4944645027225 kcal/mol)

>  <smiles>  (17) 
CCNCCNc1c2c([n+](C)c3ccccc13)-c1occ(C)c1C2

>  <score_type>  (17) 
oracle

>  <origin>  (17) 
adg

>  <m_score__min__energy>  (17) 
-8.2699999999999996

>  <m_primary>  (17) 
energy

$$$$
17:0
     RDKit          3D

 36 38  0  0  0  0  0  0  0  0999 V2000
   -0.9250   26.0710  -27.2100 C   0  0  0  0  0  0  0  0  0  0  0  0
   -2.0070   25.2630  -27.9100 C   0  0  0  0  0  0  0  0  0  0  0  0
   -1.6710   25.1180  -29.2720 O   0  0  0  0  0  0  0  0  0  0  0  0
   -2.3170   24.0100  -29.7330 N   0  0  0  0  0  0  0  0  0  0  0  0
   -3.5780   24.1830  -30.4030 C   0  0  0  0  0  0  0  0  0  0  0  0
   -4.0500   25.3410  -30.5640 O   0  0  0  0  0  0  0  0  0  0  0  0
   -4.3040   23.0070  -30.9110 C   0  0  0  0  0  0  0  0  0  0  0  0
   -5.5230   23.1330  -31.5940 C   0  0  0  0  0  0  0  0  0  0  0  0
   -6.1700   21.9990  -32.0930 C   0  0  0  0  0  0  0  0  0  0  0  0
   -5.6080   20.7210  -31.9230 C   0  0  0  0  0  0  0  0  0  0  0  0
   -6.2740   19.5520  -32.4430 N   0  0  0  0  0  0  0  0  0  0  0  0
   -7.3140   18.8930  -31.8970 C   0  0  0  0  0  0  0  0  0  0  0  0
   -7.6320   17.8360  -32.7180 C   0  0  0  0  0  0  0  0  0  0  0  0
   -6.8030   17.8250  -33.7800 N   0  0  0  0  0  0  0  0  0  0  0  0
   -5.9880   18.8810  -33.5790 C   0  0  0  0  0  0  0  0  0  0  0  0
   -4.3860   20.6030  -31.2360 C   0  0  0  0  0  0  0  0  0  0  0  0
   -3.7390   21.7390  -30.7240 C   0  0  0  0  0  0  0  0  0  0  0  0
   -2.5000   21.6050  -30.0160 N   0  0  0  0  0  0  0  0  0  0  0  0
   -1.9650   22.6880  -29.1800 C   0  0  1  0  0  0  0  0  0  0  0  0
   -0.4490   22.5210  -29.0340 C   0  0  0  0  0  0  0  0  0  0  0  0
   -1.0466   25.9802  -26.1205 H   0  0  0  0  0  0  0  0  0  0  0  0
    0.0644   25.6889  -27.5016 H   0  0  0  0  0  0  0  0  0  0  0  0
   -1.0104   27.1282  -27.5016 H   0  0  0  0  0  0  0  0  0  0  0  0
   -2.0848   24.2702  -27.4428 H   0  0  0  0  0  0  0  0  0  0  0  0
   -2.9720   25.7836  -27.8213 H   0  0  0  0  0  0  0  0  0  0  0  0
   -5.9710   24.1274  -31.7372 H   0  0  0  0  0  0  0  0  0  0  0  0
   -7.1275   22.1071  -32.6235 H   0  0  0  0  0  0  0  0  0  0  0  0
   -7.8215   19.1548  -30.9568 H   0  0  0  0  0  0  0  0  0  0  0  0
   -8.4391   17.1112  -32.5355 H   0  0  0  0  0  0  0  0  0  0  0  0
   -5.1777   19.1648  -34.2666 H   0  0  0  0  0  0  0  0  0  0  0  0
   -3.9326   19.6102  -31.0985 H   0  0  0  0  0  0  0  0  0  0  0  0
   -2.0820   20.6510  -29.9200 H   0  0  0  0  0  0  0  0  0  0  0  0
   -2.4205   22.6295  -28.1805 H   0  0  0  0  0  0  0  0  0  0  0  0
   -0.1844   22.4919  -27.9667 H   0  0  0  0  0  0  0  0  0  0  0  0
   -0.1354   21.5829  -29.5152 H   0  0  0  0  0  0  0  0  0  0  0  0
    0.0613   23.3684  -29.5152 H   0  0  0  0  0  0  0  0  0  0  0  0
  1  2  1  0
  2  3  1  0
  3  4  1  0
  4  5  1  0
  5  6  2  0
  5  7  1  0
  7  8  2  0
  8  9  1  0
  9 10  2  0
 10 11  1  0
 11 12  1  0
 12 13  2  0
 13 14  1  0
 14 15  2  0
 10 16  1  0
 16 17  2  0
 17 18  1  0
 18 19  1  0
 19 20  1  0
 19  4  1  0
 17  7  1  0
 15 11  1  0
  1 21  1  0
  1 22  1  0
  1 23  1  0
  2 24  1  0
  2 25  1  0
  8 26  1  0
  9 27  1  0
 12 28  1  0
 13 29  1  0
 15 30  1  0
 16 31  1  0
 18 32  1  0
 19 33  1  1
 20 34  1  0
 20 35  1  0
 20 36  1  0
M  END
>  <UniqueID>  (18) 
17

>  <SMILES>  (18) 
CCON1C(=O)c2ccc(-n3ccnc3)cc2N[C@H]1C

>  <Energy>  (18) 
67.05591357466292

>  <Genealogy>  (18) 
CCON1C(=O)c2ccc(-n3ccnc3)cc2N[C@H]1C (chirality)
CCON1C(=O)c2ccc(-n3ccnc3)cc2N[C@H]1C (3D coordinates assigned)
CCON1C(=O)c2ccc(-n3ccnc3)cc2N[C@H]1C (nonaromatic ring conformer: 67.05591357466292 kcal/mol)

>  <smiles>  (18) 
CCON1C(=O)c2ccc(-n3ccnc3)cc2NC1C

>  <score_type>  (18) 
oracle

>  <origin>  (18) 
adg

>  <m_score__min__energy>  (18) 
-7.0499999999999998

>  <m_primary>  (18) 
energy

$$$$
18:0
     RDKit          3D

 74 77  0  0  0  0  0  0  0  0999 V2000
   -3.9640   24.5490  -27.0720 C   0  0  0  0  0  0  0  0  0  0  0  0
   -4.4170   24.1500  -28.4800 C   0  0  0  0  0  0  0  0  0  0  0  0
   -5.5620   24.9560  -28.9490 N   0  0  0  0  0  0  0  0  0  0  0  0
   -5.8130   24.8160  -30.3970 C   0  0  0  0  0  0  0  0  0  0  0  0
   -4.8530   23.8110  -31.0570 C   0  0  0  0  0  0  0  0  0  0  0  0
   -5.4170   23.3040  -32.3080 N   0  0  0  0  0  0  0  0  0  0  0  0
   -5.7650   21.9190  -32.4750 C   0  0  0  0  0  0  0  0  0  0  0  0
   -7.0890   21.4990  -32.2770 C   0  0  0  0  0  0  0  0  0  0  0  0
   -8.1110   22.4330  -32.0020 C   0  0  0  0  0  0  0  0  0  0  0  0
   -9.4300   22.0170  -31.8420 C   0  0  0  0  0  0  0  0  0  0  0  0
   -9.7560   20.6710  -31.9650 C   0  0  0  0  0  0  0  0  0  0  0  0
   -8.7600   19.7280  -32.2230 C   0  0  0  0  0  0  0  0  0  0  0  0
   -7.4020   20.1150  -32.3520 C   0  0  0  0  0  0  0  0  0  0  0  0
   -6.3960   19.1890  -32.5550 N   0  0  0  0  0  0  0  0  0  0  0  0
   -6.6600   17.7500  -32.3280 C   0  0  0  0  0  0  0  0  0  0  0  0
   -5.1380   19.6090  -32.9500 C   0  0  0  0  0  0  0  0  0  0  0  0
   -4.1700   18.7010  -33.4450 C   0  0  0  0  0  0  0  0  0  0  0  0
   -2.8830   19.1300  -33.8110 C   0  0  0  0  0  0  0  0  0  0  0  0
   -1.9050   18.2390  -34.2870 O   0  0  0  0  0  0  0  0  0  0  0  0
   -2.1760   16.9700  -34.8700 C   0  0  0  0  0  0  0  0  0  0  0  0
   -2.5500   20.4820  -33.7190 C   0  0  0  0  0  0  0  0  0  0  0  0
   -1.2550   20.8710  -34.0920 O   0  0  0  0  0  0  0  0  0  0  0  0
   -0.0930   20.7250  -33.2830 C   0  0  0  0  0  0  0  0  0  0  0  0
   -0.3240   21.2550  -31.8470 C   0  0  0  0  0  0  0  0  0  0  0  0
   -0.7490   20.2550  -30.8030 N   0  0  0  0  0  0  0  0  0  0  0  0
   -0.5600   18.8660  -31.3040 C   0  0  0  0  0  0  0  0  0  0  0  0
   -2.1980   20.4480  -30.4390 C   0  0  0  0  0  0  0  0  0  0  0  0
   -2.4040   21.4100  -29.2570 C   0  0  0  0  0  0  0  0  0  0  0  0
   -1.7480   20.8590  -27.9820 C   0  0  0  0  0  0  0  0  0  0  0  0
   -0.5050   20.0090  -28.2840 C   0  0  0  0  0  0  0  0  0  0  0  0
    0.1470   20.4400  -29.6080 C   0  0  0  0  0  0  0  0  0  0  0  0
   -3.5090   21.4040  -33.2740 C   0  0  0  0  0  0  0  0  0  0  0  0
   -4.7980   20.9850  -32.8890 C   0  0  0  0  0  0  0  0  0  0  0  0
   -4.5709   24.0145  -26.3263 H   0  0  0  0  0  0  0  0  0  0  0  0
   -2.9043   24.2855  -26.9393 H   0  0  0  0  0  0  0  0  0  0  0  0
   -4.0916   25.6335  -26.9393 H   0  0  0  0  0  0  0  0  0  0  0  0
   -3.5765   24.2910  -29.1754 H   0  0  0  0  0  0  0  0  0  0  0  0
   -4.7371   23.0982  -28.4454 H   0  0  0  0  0  0  0  0  0  0  0  0
   -5.3930   25.9660  -28.7300 H   0  0  0  0  0  0  0  0  0  0  0  0
   -6.4160   24.6730  -28.4150 H   0  0  0  0  0  0  0  0  0  0  0  0
   -6.8463   24.4695  -30.5459 H   0  0  0  0  0  0  0  0  0  0  0  0
   -5.6495   25.7978  -30.8653 H   0  0  0  0  0  0  0  0  0  0  0  0
   -3.8961   24.3107  -31.2684 H   0  0  0  0  0  0  0  0  0  0  0  0
   -4.6980   22.9659  -30.3702 H   0  0  0  0  0  0  0  0  0  0  0  0
   -5.6210   23.9730  -33.0840 H   0  0  0  0  0  0  0  0  0  0  0  0
   -7.8627   23.5009  -31.9132 H   0  0  0  0  0  0  0  0  0  0  0  0
  -10.2152   22.7541  -31.6180 H   0  0  0  0  0  0  0  0  0  0  0  0
  -10.8022   20.3483  -31.8586 H   0  0  0  0  0  0  0  0  0  0  0  0
   -9.0329   18.6676  -32.3280 H   0  0  0  0  0  0  0  0  0  0  0  0
   -6.6967   17.5500  -31.2470 H   0  0  0  0  0  0  0  0  0  0  0  0
   -7.6231   17.4775  -32.7842 H   0  0  0  0  0  0  0  0  0  0  0  0
   -5.8563   17.1533  -32.7842 H   0  0  0  0  0  0  0  0  0  0  0  0
   -4.4314   17.6372  -33.5450 H   0  0  0  0  0  0  0  0  0  0  0  0
   -2.3346   16.2273  -34.0743 H   0  0  0  0  0  0  0  0  0  0  0  0
   -3.0798   17.0383  -35.4933 H   0  0  0  0  0  0  0  0  0  0  0  0
   -1.3231   16.6632  -35.4933 H   0  0  0  0  0  0  0  0  0  0  0  0
    0.1733   19.6590  -33.2309 H   0  0  0  0  0  0  0  0  0  0  0  0
    0.7178   21.3124  -33.7387 H   0  0  0  0  0  0  0  0  0  0  0  0
    0.6184   21.7086  -31.5063 H   0  0  0  0  0  0  0  0  0  0  0  0
   -1.1718   21.9503  -31.9348 H   0  0  0  0  0  0  0  0  0  0  0  0
   -0.4664   18.1780  -30.4508 H   0  0  0  0  0  0  0  0  0  0  0  0
   -1.4269   18.5757  -31.9157 H   0  0  0  0  0  0  0  0  0  0  0  0
    0.3530   18.8179  -31.9157 H   0  0  0  0  0  0  0  0  0  0  0  0
   -2.7274   20.8519  -31.3146 H   0  0  0  0  0  0  0  0  0  0  0  0
   -2.5913   19.4671  -30.1338 H   0  0  0  0  0  0  0  0  0  0  0  0
   -1.9539   22.3833  -29.5020 H   0  0  0  0  0  0  0  0  0  0  0  0
   -3.4836   21.5206  -29.0775 H   0  0  0  0  0  0  0  0  0  0  0  0
   -1.4514   21.7043  -27.3436 H   0  0  0  0  0  0  0  0  0  0  0  0
   -2.4824   20.2127  -27.4792 H   0  0  0  0  0  0  0  0  0  0  0  0
    0.2222   20.1320  -27.4678 H   0  0  0  0  0  0  0  0  0  0  0  0
   -0.8121   18.9563  -28.3702 H   0  0  0  0  0  0  0  0  0  0  0  0
    0.4151   21.5043  -29.5345 H   0  0  0  0  0  0  0  0  0  0  0  0
    1.0280   19.7991  -29.7601 H   0  0  0  0  0  0  0  0  0  0  0  0
   -3.2504   22.4720  -33.2248 H   0  0  0  0  0  0  0  0  0  0  0  0
  1  2  1  0
  2  3  1  0
  3  4  1  0
  4  5  1  0
  5  6  1  0
  6  7  1  0
  7  8  2  0
  8  9  1  0
  9 10  2  0
 10 11  1  0
 11 12  2  0
 12 13  1  0
 13 14  2  0
 14 15  1  0
 14 16  1  0
 16 17  2  0
 17 18  1  0
 18 19  1  0
 19 20  1  0
 18 21  2  0
 21 22  1  0
 22 23  1  0
 23 24  1  0
 24 25  1  0
 25 26  1  0
 25 27  1  0
 27 28  1  0
 28 29  1  0
 29 30  1  0
 30 31  1  0
 21 32  1  0
 32 33  2  0
 33  7  1  0
 13  8  1  0
 33 16  1  0
 31 25  1  0
  1 34  1  0
  1 35  1  0
  1 36  1  0
  2 37  1  0
  2 38  1  0
  3 39  1  0
  3 40  1  0
  4 41  1  0
  4 42  1  0
  5 43  1  0
  5 44  1  0
  6 45  1  0
  9 46  1  0
 10 47  1  0
 11 48  1  0
 12 49  1  0
 15 50  1  0
 15 51  1  0
 15 52  1  0
 17 53  1  0
 20 54  1  0
 20 55  1  0
 20 56  1  0
 23 57  1  0
 23 58  1  0
 24 59  1  0
 24 60  1  0
 26 61  1  0
 26 62  1  0
 26 63  1  0
 27 64  1  0
 27 65  1  0
 28 66  1  0
 28 67  1  0
 29 68  1  0
 29 69  1  0
 30 70  1  0
 30 71  1  0
 31 72  1  0
 31 73  1  0
 32 74  1  0
M  CHG  3   3   1  14   1  25   1
M  END
>  <UniqueID>  (19) 
18

>  <SMILES>  (19) 
CC[NH2+]CCNc1c2ccccc2[n+](C)c2cc(OC)c(OCC[N+]3(C)CCCCC3)cc12

>  <Energy>  (19) 
116.76357116624236

>  <Genealogy>  (19) 
CC[NH2+]CCNc1c2ccccc2[n+](C)c2cc(OC)c(OCC[N+]3(C)CCCCC3)cc12 (protonated)
CC[NH2+]CCNc1c2ccccc2[n+](C)c2cc(OC)c(OCC[N+]3(C)CCCCC3)cc12 (3D coordinates assigned)
CC[NH2+]CCNc1c2ccccc2[n+](C)c2cc(OC)c(OCC[N+]3(C)CCCCC3)cc12 (nonaromatic ring conformer: 116.76357116624236 kcal/mol)

>  <smiles>  (19) 
CCNCCNc1c2ccccc2[n+](C)c2cc(OC)c(OCC[N+]3(C)CCCCC3)cc12

>  <score_type>  (19) 
oracle

>  <origin>  (19) 
adg

>  <m_score__min__energy>  (19) 
-7.75

>  <m_primary>  (19) 
energy

$$$$
19:0
     RDKit          3D

 57 58  0  0  0  0  0  0  0  0999 V2000
   -0.4460   19.1440  -28.2830 C   0  0  0  0  0  0  0  0  0  0  0  0
   -1.2340   18.5710  -27.1050 C   0  0  0  0  0  0  0  0  0  0  0  0
   -2.2840   19.5230  -26.6720 N   0  0  0  0  0  0  0  0  0  0  0  0
   -3.4560   18.7950  -26.1500 C   0  0  0  0  0  0  0  0  0  0  0  0
   -2.7020   20.4150  -27.7760 C   0  0  0  0  0  0  0  0  0  0  0  0
   -2.3890   21.8790  -27.4540 C   0  0  0  0  0  0  0  0  0  0  0  0
   -1.0190   22.1400  -27.7120 O   0  0  0  0  0  0  0  0  0  0  0  0
   -0.6970   23.4810  -27.3920 C   0  0  0  0  0  0  0  0  0  0  0  0
   -0.7080   24.3400  -28.6550 C   0  0  0  0  0  0  0  0  0  0  0  0
   -1.7990   23.9700  -29.4630 O   0  0  0  0  0  0  0  0  0  0  0  0
   -2.7120   24.9710  -29.3570 N   0  0  0  0  0  0  0  0  0  0  0  0
   -4.0040   24.8840  -29.9680 C   0  0  0  0  0  0  0  0  0  0  0  0
   -4.2920   25.6650  -30.9110 O   0  0  0  0  0  0  0  0  0  0  0  0
   -5.0320   23.9010  -29.4760 C   0  0  0  0  0  0  0  0  0  0  0  0
   -6.3810   24.0930  -30.1780 C   0  0  0  0  0  0  0  0  0  0  0  0
   -6.7460   22.8940  -31.0080 C   0  0  0  0  0  0  0  0  0  0  0  0
   -8.0060   22.3110  -31.1000 C   0  0  0  0  0  0  0  0  0  0  0  0
   -7.9520   21.2010  -31.8760 N   0  0  0  0  0  0  0  0  0  0  0  0
   -9.0890   20.3500  -32.2330 C   0  0  0  0  0  0  0  0  0  0  0  0
   -8.8640   18.9280  -31.7320 C   0  0  0  0  0  0  0  0  0  0  0  0
   -6.6690   21.0810  -32.2800 C   0  0  0  0  0  0  0  0  0  0  0  0
   -6.1120   20.0960  -33.1000 C   0  0  0  0  0  0  0  0  0  0  0  0
   -4.7360   20.1680  -33.3780 C   0  0  0  0  0  0  0  0  0  0  0  0
   -3.9460   21.2090  -32.8350 C   0  0  0  0  0  0  0  0  0  0  0  0
   -2.5380   21.2670  -33.1260 C   0  0  0  0  0  0  0  0  0  0  0  0
   -1.4050   21.3150  -33.3590 N   0  0  0  0  0  0  0  0  0  0  0  0
   -4.5340   22.1900  -32.0130 C   0  0  0  0  0  0  0  0  0  0  0  0
   -5.9030   22.0960  -31.7590 C   0  0  0  0  0  0  0  0  0  0  0  0
    0.3894   19.7514  -27.9046 H   0  0  0  0  0  0  0  0  0  0  0  0
   -0.0520   18.3200  -28.8960 H   0  0  0  0  0  0  0  0  0  0  0  0
   -1.1084   19.7728  -28.8960 H   0  0  0  0  0  0  0  0  0  0  0  0
   -1.7060   17.6256  -27.4106 H   0  0  0  0  0  0  0  0  0  0  0  0
   -0.5440   18.3961  -26.2663 H   0  0  0  0  0  0  0  0  0  0  0  0
   -3.4356   18.8077  -25.0503 H   0  0  0  0  0  0  0  0  0  0  0  0
   -4.3771   19.2802  -26.5052 H   0  0  0  0  0  0  0  0  0  0  0  0
   -3.4293   17.7543  -26.5052 H   0  0  0  0  0  0  0  0  0  0  0  0
   -2.1663   20.1268  -28.6925 H   0  0  0  0  0  0  0  0  0  0  0  0
   -3.7886   20.3133  -27.9135 H   0  0  0  0  0  0  0  0  0  0  0  0
   -3.0111   22.5332  -28.0825 H   0  0  0  0  0  0  0  0  0  0  0  0
   -2.6048   22.0741  -26.3932 H   0  0  0  0  0  0  0  0  0  0  0  0
   -1.4377   23.8727  -26.6793 H   0  0  0  0  0  0  0  0  0  0  0  0
    0.3072   23.5128  -26.9441 H   0  0  0  0  0  0  0  0  0  0  0  0
   -0.8004   25.4002  -28.3768 H   0  0  0  0  0  0  0  0  0  0  0  0
    0.2289   24.1877  -29.2109 H   0  0  0  0  0  0  0  0  0  0  0  0
   -4.6710   22.8803  -29.6704 H   0  0  0  0  0  0  0  0  0  0  0  0
   -5.1789   24.0685  -28.3988 H   0  0  0  0  0  0  0  0  0  0  0  0
   -7.1600   24.2520  -29.4178 H   0  0  0  0  0  0  0  0  0  0  0  0
   -6.3017   24.9636  -30.8457 H   0  0  0  0  0  0  0  0  0  0  0  0
   -8.9146   22.6953  -30.6134 H   0  0  0  0  0  0  0  0  0  0  0  0
  -10.0034   20.7555  -31.7753 H   0  0  0  0  0  0  0  0  0  0  0  0
   -9.1917   20.3313  -33.3280 H   0  0  0  0  0  0  0  0  0  0  0  0
   -8.8631   18.9226  -30.6320 H   0  0  0  0  0  0  0  0  0  0  0  0
   -9.6704   18.2773  -32.1012 H   0  0  0  0  0  0  0  0  0  0  0  0
   -7.8961   18.5580  -32.1012 H   0  0  0  0  0  0  0  0  0  0  0  0
   -6.7321   19.2881  -33.5157 H   0  0  0  0  0  0  0  0  0  0  0  0
   -4.2694   19.4089  -34.0230 H   0  0  0  0  0  0  0  0  0  0  0  0
   -3.9326   23.0052  -31.5844 H   0  0  0  0  0  0  0  0  0  0  0  0
  1  2  1  0
  2  3  1  0
  3  4  1  0
  3  5  1  0
  5  6  1  0
  6  7  1  0
  7  8  1  0
  8  9  1  0
  9 10  1  0
 10 11  1  0
 11 12  1  0
 12 13  2  0
 12 14  1  0
 14 15  1  0
 15 16  1  0
 16 17  2  0
 17 18  1  0
 18 19  1  0
 19 20  1  0
 18 21  1  0
 21 22  2  0
 22 23  1  0
 23 24  2  0
 24 25  1  0
 25 26  3  0
 24 27  1  0
 27 28  2  0
 28 16  1  0
 28 21  1  0
  1 29  1  0
  1 30  1  0
  1 31  1  0
  2 32  1  0
  2 33  1  0
  4 34  1  0
  4 35  1  0
  4 36  1  0
  5 37  1  0
  5 38  1  0
  6 39  1  0
  6 40  1  0
  8 41  1  0
  8 42  1  0
  9 43  1  0
  9 44  1  0
 14 45  1  0
 14 46  1  0
 15 47  1  0
 15 48  1  0
 17 49  1  0
 19 50  1  0
 19 51  1  0
 20 52  1  0
 20 53  1  0
 20 54  1  0
 22 55  1  0
 23 56  1  0
 27 57  1  0
M  CHG  1  11  -1
M  END
>  <UniqueID>  (20) 
19

>  <SMILES>  (20) 
CCN(C)CCOCCO[N-]C(=O)CCc1cn(CC)c2ccc(C#N)cc12

>  <Energy>  (20) 
76.59117630644734

>  <Genealogy>  (20) 
CCN(C)CCOCCO[N-]C(=O)CCc1cn(CC)c2ccc(C#N)cc12 (protonated)
CCN(C)CCOCCO[N-]C(=O)CCc1cn(CC)c2ccc(C#N)cc12 (3D coordinates assigned)
CCN(C)CCOCCO[N-]C(=O)CCc1cn(CC)c2ccc(C#N)cc12 (optimized conformer: 76.59117630644734 kcal/mol)

>  <smiles>  (20) 
CCN(C)CCOCCONC(=O)CCc1cn(CC)c2ccc(C#N)cc12

>  <score_type>  (20) 
oracle

>  <origin>  (20) 
adg

>  <m_score__min__energy>  (20) 
-10.460000000000001

>  <m_primary>  (20) 
energy

$$$$
20:0
     RDKit          3D

103107  0  0  0  0  0  0  0  0999 V2000
   -2.8100   20.6080  -27.8120 C   0  0  0  0  0  0  0  0  0  0  0  0
   -2.0970   21.9270  -28.1570 C   0  0  0  0  0  0  0  0  0  0  0  0
   -1.2910   21.7920  -29.4570 C   0  0  0  0  0  0  0  0  0  0  0  0
   -3.0670   23.1360  -28.1870 C   0  0  0  0  0  0  0  0  0  0  0  0
   -2.7070   24.2160  -29.2260 C   0  0  0  0  0  0  0  0  0  0  0  0
   -3.8630   24.5490  -30.1880 C   0  0  0  0  0  0  0  0  0  0  0  0
   -5.2810   24.3980  -29.5540 C   0  0  1  0  0  0  0  0  0  0  0  0
   -6.1860   25.5530  -30.0290 C   0  0  0  0  0  0  0  0  0  0  0  0
   -6.0050   23.0330  -29.8410 C   0  0  1  0  0  0  0  0  0  0  0  0
   -7.5510   23.0420  -29.7810 C   0  0  0  0  0  0  0  0  0  0  0  0
   -8.0270   21.9510  -30.7520 C   0  0  0  0  0  0  0  0  0  0  0  0
   -6.7530   21.2040  -31.1540 C   0  0  1  0  0  0  0  0  0  0  0  0
   -6.7780   20.3610  -32.4560 C   0  0  2  0  0  0  0  0  0  0  0  0
   -7.7750   19.1800  -32.3060 C   0  0  0  0  0  0  0  0  0  0  0  0
   -7.1070   17.9160  -31.7780 C   0  0  0  0  0  0  0  0  0  0  0  0
   -6.0190   17.4610  -32.7170 C   0  0  0  0  0  0  0  0  0  0  0  0
   -5.7190   16.1450  -32.7700 C   0  0  0  0  0  0  0  0  0  0  0  0
   -4.6140   15.5450  -33.6220 C   0  0  1  0  0  0  0  0  0  0  0  0
   -5.1950   14.6910  -34.5910 O   0  0  0  0  0  0  0  0  0  0  0  0
   -4.8210   13.3430  -34.3890 C   0  0  0  0  0  0  0  0  0  0  0  0
   -5.3660   12.8630  -33.0400 C   0  0  0  0  0  0  0  0  0  0  0  0
   -4.3220   12.9040  -31.9080 C   0  0  0  0  0  0  0  0  0  0  0  0
   -2.9100   12.4860  -32.3530 C   0  0  0  0  0  0  0  0  0  0  0  0
   -2.0320   13.6570  -32.5680 N   0  0  0  0  0  0  0  0  0  0  0  0
   -0.9190   13.6860  -31.5870 C   0  0  0  0  0  0  0  0  0  0  0  0
    0.2580   14.5740  -32.0510 C   0  0  0  0  0  0  0  0  0  0  0  0
   -0.1600   15.5980  -33.0280 N   0  0  0  0  0  0  0  0  0  0  0  0
   -1.0110   16.6310  -32.4130 C   0  0  0  0  0  0  0  0  0  0  0  0
   -0.7840   14.9990  -34.2310 C   0  0  0  0  0  0  0  0  0  0  0  0
   -1.5140   13.6710  -33.9450 C   0  0  0  0  0  0  0  0  0  0  0  0
   -3.7400   16.5850  -34.3600 C   0  0  0  0  0  0  0  0  0  0  0  0
   -3.7910   17.9700  -33.7070 C   0  0  0  0  0  0  0  0  0  0  0  0
   -5.2540   18.4830  -33.5510 C   0  0  1  0  0  0  0  0  0  0  0  0
   -5.9010   18.5790  -34.9630 C   0  0  0  0  0  0  0  0  0  0  0  0
   -5.3100   19.9180  -32.8790 C   0  0  2  0  0  0  0  0  0  0  0  0
   -4.2780   20.1220  -31.7190 C   0  0  0  0  0  0  0  0  0  0  0  0
   -4.2650   21.5530  -31.1100 C   0  0  0  0  0  0  0  0  0  0  0  0
   -5.6470   22.2690  -31.1480 C   0  0  2  0  0  0  0  0  0  0  0  0
   -5.7230   23.2040  -32.3920 C   0  0  0  0  0  0  0  0  0  0  0  0
   -2.8693   20.4982  -26.7191 H   0  0  0  0  0  0  0  0  0  0  0  0
   -3.8253   20.6185  -28.2351 H   0  0  0  0  0  0  0  0  0  0  0  0
   -2.2451   19.7643  -28.2351 H   0  0  0  0  0  0  0  0  0  0  0  0
   -1.3839   22.1360  -27.3459 H   0  0  0  0  0  0  0  0  0  0  0  0
   -0.2326   21.6147  -29.2155 H   0  0  0  0  0  0  0  0  0  0  0  0
   -1.6799   20.9465  -30.0434 H   0  0  0  0  0  0  0  0  0  0  0  0
   -1.3831   22.7181  -30.0434 H   0  0  0  0  0  0  0  0  0  0  0  0
   -4.0759   22.7619  -28.4152 H   0  0  0  0  0  0  0  0  0  0  0  0
   -3.0006   23.6161  -27.1995 H   0  0  0  0  0  0  0  0  0  0  0  0
   -2.4235   25.1341  -28.6906 H   0  0  0  0  0  0  0  0  0  0  0  0
   -1.8820   23.8183  -29.8352 H   0  0  0  0  0  0  0  0  0  0  0  0
   -3.7438   25.5894  -30.5247 H   0  0  0  0  0  0  0  0  0  0  0  0
   -3.8062   23.8264  -31.0154 H   0  0  0  0  0  0  0  0  0  0  0  0
   -5.1128   24.4258  -28.4673 H   0  0  0  0  0  0  0  0  0  0  0  0
   -6.5982   26.0790  -29.1552 H   0  0  0  0  0  0  0  0  0  0  0  0
   -5.5957   26.2558  -30.6353 H   0  0  0  0  0  0  0  0  0  0  0  0
   -7.0096   25.1479  -30.6353 H   0  0  0  0  0  0  0  0  0  0  0  0
   -5.5758   22.4997  -28.9800 H   0  0  0  0  0  0  0  0  0  0  0  0
   -7.8938   22.8189  -28.7599 H   0  0  0  0  0  0  0  0  0  0  0  0
   -7.9559   24.0269  -30.0569 H   0  0  0  0  0  0  0  0  0  0  0  0
   -8.7345   21.2712  -30.2547 H   0  0  0  0  0  0  0  0  0  0  0  0
   -8.5551   22.3698  -31.6213 H   0  0  0  0  0  0  0  0  0  0  0  0
   -6.5904   20.3943  -30.4274 H   0  0  0  0  0  0  0  0  0  0  0  0
   -7.1472   20.9772  -33.2890 H   0  0  0  0  0  0  0  0  0  0  0  0
   -8.5708   19.4768  -31.6070 H   0  0  0  0  0  0  0  0  0  0  0  0
   -8.1774   18.9534  -33.3043 H   0  0  0  0  0  0  0  0  0  0  0  0
   -6.6692   18.1236  -30.7905 H   0  0  0  0  0  0  0  0  0  0  0  0
   -7.8632   17.1211  -31.6986 H   0  0  0  0  0  0  0  0  0  0  0  0
   -6.3174   15.4592  -32.1523 H   0  0  0  0  0  0  0  0  0  0  0  0
   -3.9519   15.0074  -32.9273 H   0  0  0  0  0  0  0  0  0  0  0  0
   -5.2371   12.7214  -35.1956 H   0  0  0  0  0  0  0  0  0  0  0  0
   -3.7241   13.2602  -34.3938 H   0  0  0  0  0  0  0  0  0  0  0  0
   -6.2123   13.5063  -32.7571 H   0  0  0  0  0  0  0  0  0  0  0  0
   -5.6661   11.8123  -33.1667 H   0  0  0  0  0  0  0  0  0  0  0  0
   -4.2732   13.9313  -31.5178 H   0  0  0  0  0  0  0  0  0  0  0  0
   -4.6461   12.1802  -31.1457 H   0  0  0  0  0  0  0  0  0  0  0  0
   -2.4665   11.8465  -31.5756 H   0  0  0  0  0  0  0  0  0  0  0  0
   -2.9984   11.9455  -33.3070 H   0  0  0  0  0  0  0  0  0  0  0  0
   -1.3007   14.0771  -30.6324 H   0  0  0  0  0  0  0  0  0  0  0  0
   -0.5404   12.6586  -31.4816 H   0  0  0  0  0  0  0  0  0  0  0  0
    0.6875   15.0783  -31.1728 H   0  0  0  0  0  0  0  0  0  0  0  0
    0.9954   13.9227  -32.5430 H   0  0  0  0  0  0  0  0  0  0  0  0
   -0.9475   16.5539  -31.3175 H   0  0  0  0  0  0  0  0  0  0  0  0
   -0.6673   17.6263  -32.7311 H   0  0  0  0  0  0  0  0  0  0  0  0
   -2.0537   16.4842  -32.7311 H   0  0  0  0  0  0  0  0  0  0  0  0
   -1.5113   15.7157  -34.6401 H   0  0  0  0  0  0  0  0  0  0  0  0
    0.0263   14.7779  -34.9413 H   0  0  0  0  0  0  0  0  0  0  0  0
   -2.3520   13.5592  -34.6487 H   0  0  0  0  0  0  0  0  0  0  0  0
   -0.8040   12.8398  -34.0677 H   0  0  0  0  0  0  0  0  0  0  0  0
   -2.6977   16.2333  -34.3584 H   0  0  0  0  0  0  0  0  0  0  0  0
   -4.1341   16.6848  -35.3821 H   0  0  0  0  0  0  0  0  0  0  0  0
   -3.3262   17.9117  -32.7117 H   0  0  0  0  0  0  0  0  0  0  0  0
   -3.2493   18.6740  -34.3559 H   0  0  0  0  0  0  0  0  0  0  0  0
   -6.9843   18.7397  -34.8598 H   0  0  0  0  0  0  0  0  0  0  0  0
   -5.4562   19.4210  -35.5137 H   0  0  0  0  0  0  0  0  0  0  0  0
   -5.7199   17.6441  -35.5137 H   0  0  0  0  0  0  0  0  0  0  0  0
   -4.9953   20.6013  -33.6815 H   0  0  0  0  0  0  0  0  0  0  0  0
   -4.5184   19.4094  -30.9163 H   0  0  0  0  0  0  0  0  0  0  0  0
   -3.2814   19.9592  -32.1553 H   0  0  0  0  0  0  0  0  0  0  0  0
   -3.9419   21.4798  -30.0611 H   0  0  0  0  0  0  0  0  0  0  0  0
   -3.5777   22.1541  -31.7234 H   0  0  0  0  0  0  0  0  0  0  0  0
   -5.8080   24.2494  -32.0603 H   0  0  0  0  0  0  0  0  0  0  0  0
   -4.8122   23.0841  -32.9970 H   0  0  0  0  0  0  0  0  0  0  0  0
   -6.6025   22.9386  -32.9970 H   0  0  0  0  0  0  0  0  0  0  0  0
  1  2  1  0
  2  3  1  0
  2  4  1  0
  4  5  1  0
  5  6  1  0
  6  7  1  0
  7  8  1  0
  7  9  1  0
  9 10  1  0
 10 11  1  0
 11 12  1  0
 12 13  1  0
 13 14  1  0
 14 15  1  0
 15 16  1  0
 16 17  2  0
 17 18  1  0
 18 19  1  0
 19 20  1  0
 20 21  1  0
 21 22  1  0
 22 23  1  0
 23 24  1  0
 24 25  1  0
 25 26  1  0
 26 27  1  0
 27 28  1  0
 27 29  1  0
 29 30  1  0
 18 31  1  0
 31 32  1  0
 32 33  1  0
 33 34  1  6
 33 35  1  0
 35 36  1  0
 36 37  1  0
 37 38  1  0
 38 39  1  6
 38  9  1  0
 38 12  1  0
 35 13  1  0
 33 16  1  0
 30 24  1  0
  1 40  1  0
  1 41  1  0
  1 42  1  0
  2 43  1  0
  3 44  1  0
  3 45  1  0
  3 46  1  0
  4 47  1  0
  4 48  1  0
  5 49  1  0
  5 50  1  0
  6 51  1  0
  6 52  1  0
  7 53  1  1
  8 54  1  0
  8 55  1  0
  8 56  1  0
  9 57  1  1
 10 58  1  0
 10 59  1  0
 11 60  1  0
 11 61  1  0
 12 62  1  1
 13 63  1  6
 14 64  1  0
 14 65  1  0
 15 66  1  0
 15 67  1  0
 17 68  1  0
 18 69  1  1
 20 70  1  0
 20 71  1  0
 21 72  1  0
 21 73  1  0
 22 74  1  0
 22 75  1  0
 23 76  1  0
 23 77  1  0
 25 78  1  0
 25 79  1  0
 26 80  1  0
 26 81  1  0
 28 82  1  0
 28 83  1  0
 28 84  1  0
 29 85  1  0
 29 86  1  0
 30 87  1  0
 30 88  1  0
 31 89  1  0
 31 90  1  0
 32 91  1  0
 32 92  1  0
 34 93  1  0
 34 94  1  0
 34 95  1  0
 35 96  1  6
 36 97  1  0
 36 98  1  0
 37 99  1  0
 37100  1  0
 39101  1  0
 39102  1  0
 39103  1  0
M  END
>  <UniqueID>  (21) 
20

>  <SMILES>  (21) 
CC(C)CCC[C@@H](C)[C@H]1CCC2C3CCC4=CC(OCCCCN5CCN(C)CC5)CCC4(C)C3CCC21C

>  <Energy>  (21) 
141.8685124609645

>  <Genealogy>  (21) 
CC(C)CCC[C@@H](C)[C@H]1CCC2C3CCC4=CC(OCCCCN5CCN(C)CC5)CCC4(C)C3CCC21C (chirality)
CC(C)CCC[C@@H](C)[C@H]1CCC2C3CCC4=CC(OCCCCN5CCN(C)CC5)CCC4(C)C3CCC21C (3D coordinates assigned)
CC(C)CCC[C@@H](C)[C@H]1CCC2C3CCC4=CC(OCCCCN5CCN(C)CC5)CCC4(C)C3CCC21C (nonaromatic ring conformer: 141.8685124609645 kcal/mol)

>  <smiles>  (21) 
CC(C)CCCC(C)C1CCC2C3CCC4=CC(OCCCCN5CCN(C)CC5)CCC4(C)C3CCC12C

>  <score_type>  (21) 
oracle

>  <origin>  (21) 
adg

>  <m_score__min__energy>  (21) 
-11.27

>  <m_primary>  (21) 
energy

$$$$
21:0
     RDKit          3D

 48 50  0  0  0  0  0  0  0  0999 V2000
   -9.4740   19.6500  -32.7360 C   0  0  0  0  0  0  0  0  0  0  0  0
   -8.4150   19.2160  -31.7250 C   0  0  0  0  0  0  0  0  0  0  0  0
   -7.0840   19.7540  -32.0760 N   0  0  0  0  0  0  0  0  0  0  0  0
   -6.7590   21.0870  -31.8680 C   0  0  0  0  0  0  0  0  0  0  0  0
   -7.8970   22.2570  -31.0960 S   0  0  0  0  0  0  0  0  0  0  0  0
   -6.9930   23.7670  -31.5990 C   0  0  0  0  0  0  0  0  0  0  0  0
   -6.7920   24.7390  -30.4280 C   0  0  0  0  0  0  0  0  0  0  0  0
   -5.3760   25.3160  -30.3600 C   0  0  0  0  0  0  0  0  0  0  0  0
   -4.6360   24.6650  -29.3290 O   0  0  0  0  0  0  0  0  0  0  0  0
   -3.7130   23.6320  -29.5350 C   0  0  0  0  0  0  0  0  0  0  0  0
   -4.1130   22.2960  -29.7090 C   0  0  0  0  0  0  0  0  0  0  0  0
   -3.1600   21.2940  -29.9000 C   0  0  0  0  0  0  0  0  0  0  0  0
   -1.7960   21.6120  -29.9320 C   0  0  0  0  0  0  0  0  0  0  0  0
   -0.7720   20.5270  -30.0850 C   0  0  0  0  0  0  0  0  0  0  0  0
   -1.3930   22.9420  -29.7420 C   0  0  0  0  0  0  0  0  0  0  0  0
   -2.3480   23.9570  -29.5450 C   0  0  0  0  0  0  0  0  0  0  0  0
   -1.9840   25.2960  -29.3290 O   0  0  0  0  0  0  0  0  0  0  0  0
   -1.2340   25.7580  -28.2100 C   0  0  0  0  0  0  0  0  0  0  0  0
   -5.5540   21.5770  -32.2830 N   0  0  0  0  0  0  0  0  0  0  0  0
   -4.6510   20.7590  -32.8670 C   0  0  0  0  0  0  0  0  0  0  0  0
   -3.3930   21.1480  -33.3300 C   0  0  0  0  0  0  0  0  0  0  0  0
   -2.6740   20.0800  -33.8650 C   0  0  0  0  0  0  0  0  0  0  0  0
   -3.6130   18.6740  -33.7610 S   0  0  0  0  0  0  0  0  0  0  0  0
   -4.9270   19.4290  -33.0360 C   0  0  0  0  0  0  0  0  0  0  0  0
   -6.1520   18.9110  -32.6430 C   0  0  0  0  0  0  0  0  0  0  0  0
   -6.4000   17.6860  -32.8210 O   0  0  0  0  0  0  0  0  0  0  0  0
  -10.3636   20.0146  -32.2015 H   0  0  0  0  0  0  0  0  0  0  0  0
   -9.0700   20.4551  -33.3674 H   0  0  0  0  0  0  0  0  0  0  0  0
   -9.7512   18.7930  -33.3674 H   0  0  0  0  0  0  0  0  0  0  0  0
   -8.6989   19.5847  -30.7283 H   0  0  0  0  0  0  0  0  0  0  0  0
   -8.3580   18.1175  -31.7323 H   0  0  0  0  0  0  0  0  0  0  0  0
   -6.0073   23.4758  -31.9910 H   0  0  0  0  0  0  0  0  0  0  0  0
   -7.5926   24.2803  -32.3652 H   0  0  0  0  0  0  0  0  0  0  0  0
   -7.5036   25.5706  -30.5378 H   0  0  0  0  0  0  0  0  0  0  0  0
   -6.9591   24.1722  -29.5002 H   0  0  0  0  0  0  0  0  0  0  0  0
   -4.8718   25.1600  -31.3251 H   0  0  0  0  0  0  0  0  0  0  0  0
   -5.4335   26.3923  -30.1404 H   0  0  0  0  0  0  0  0  0  0  0  0
   -5.1824   22.0386  -29.6946 H   0  0  0  0  0  0  0  0  0  0  0  0
   -3.4816   20.2496  -30.0260 H   0  0  0  0  0  0  0  0  0  0  0  0
   -0.4490   20.1848  -29.0907 H   0  0  0  0  0  0  0  0  0  0  0  0
   -1.2111   19.6837  -30.6382 H   0  0  0  0  0  0  0  0  0  0  0  0
    0.0952   20.9167  -30.6382 H   0  0  0  0  0  0  0  0  0  0  0  0
   -0.3222   23.1938  -29.7470 H   0  0  0  0  0  0  0  0  0  0  0  0
   -1.7347   25.4496  -27.2804 H   0  0  0  0  0  0  0  0  0  0  0  0
   -0.2229   25.3259  -28.2426 H   0  0  0  0  0  0  0  0  0  0  0  0
   -1.1650   26.8554  -28.2426 H   0  0  0  0  0  0  0  0  0  0  0  0
   -3.0126   22.1788  -33.2787 H   0  0  0  0  0  0  0  0  0  0  0  0
   -1.6599   20.1407  -34.2869 H   0  0  0  0  0  0  0  0  0  0  0  0
  1  2  1  0
  2  3  1  0
  3  4  1  0
  4  5  1  0
  5  6  1  0
  6  7  1  0
  7  8  1  0
  8  9  1  0
  9 10  1  0
 10 11  2  0
 11 12  1  0
 12 13  2  0
 13 14  1  0
 13 15  1  0
 15 16  2  0
 16 17  1  0
 17 18  1  0
  4 19  2  0
 19 20  1  0
 20 21  1  0
 21 22  2  0
 22 23  1  0
 23 24  1  0
 24 25  1  0
 25 26  2  0
 25  3  1  0
 16 10  1  0
 24 20  2  0
  1 27  1  0
  1 28  1  0
  1 29  1  0
  2 30  1  0
  2 31  1  0
  6 32  1  0
  6 33  1  0
  7 34  1  0
  7 35  1  0
  8 36  1  0
  8 37  1  0
 11 38  1  0
 12 39  1  0
 14 40  1  0
 14 41  1  0
 14 42  1  0
 15 43  1  0
 18 44  1  0
 18 45  1  0
 18 46  1  0
 21 47  1  0
 22 48  1  0
M  END
>  <UniqueID>  (22) 
21

>  <SMILES>  (22) 
CCn1c(SCCCOc2ccc(C)cc2OC)nc2ccsc2c1=O

>  <Energy>  (22) 
70.32362531266162

>  <Genealogy>  (22) 
CCn1c(SCCCOc2ccc(C)cc2OC)nc2ccsc2c1=O (3D coordinates assigned)
CCn1c(SCCCOc2ccc(C)cc2OC)nc2ccsc2c1=O (optimized conformer: 70.32362531266162 kcal/mol)

>  <smiles>  (22) 
CCn1c(SCCCOc2ccc(C)cc2OC)nc2ccsc2c1=O

>  <score_type>  (22) 
oracle

>  <origin>  (22) 
adg

>  <m_score__min__energy>  (22) 
-9.9800000000000004

>  <m_primary>  (22) 
energy

$$$$
22:0
     RDKit          3D

 59 61  0  0  0  0  0  0  0  0999 V2000
   -3.2510   18.8840  -26.3230 C   0  0  0  0  0  0  0  0  0  0  0  0
   -1.9880   19.7400  -26.4850 C   0  0  0  0  0  0  0  0  0  0  0  0
   -1.3290   19.5610  -27.8040 N   0  0  2  0  0  0  0  0  0  0  0  0
   -0.4290   18.3870  -27.7880 C   0  0  0  0  0  0  0  0  0  0  0  0
   -0.5780   20.7950  -28.1780 C   0  0  0  0  0  0  0  0  0  0  0  0
   -0.9450   21.3140  -29.5790 C   0  0  0  0  0  0  0  0  0  0  0  0
   -1.6590   20.2820  -30.3470 N   0  0  0  0  0  0  0  0  0  0  0  0
   -1.5460   20.4650  -31.8040 C   0  0  0  0  0  0  0  0  0  0  0  0
   -2.9030   20.7740  -32.4590 C   0  0  0  0  0  0  0  0  0  0  0  0
   -3.9950   20.4700  -31.5350 N   0  0  0  0  0  0  0  0  0  0  0  0
   -5.2500   21.1810  -31.5830 C   0  0  0  0  0  0  0  0  0  0  0  0
   -6.4300   20.5110  -31.9550 C   0  0  0  0  0  0  0  0  0  0  0  0
   -6.4220   19.1280  -32.2460 C   0  0  0  0  0  0  0  0  0  0  0  0
   -7.5930   18.4640  -32.6030 C   0  0  0  0  0  0  0  0  0  0  0  0
   -8.7990   19.1510  -32.6350 C   0  0  0  0  0  0  0  0  0  0  0  0
   -8.8410   20.5090  -32.3190 C   0  0  0  0  0  0  0  0  0  0  0  0
   -7.6580   21.2280  -31.9970 C   0  0  0  0  0  0  0  0  0  0  0  0
   -7.6840   22.5820  -31.7120 N   0  0  0  0  0  0  0  0  0  0  0  0
   -8.9010   23.3740  -32.0050 C   0  0  0  0  0  0  0  0  0  0  0  0
   -6.5700   23.1960  -31.1730 C   0  0  0  0  0  0  0  0  0  0  0  0
   -6.6290   24.4980  -30.6150 C   0  0  0  0  0  0  0  0  0  0  0  0
   -5.4840   25.1370  -30.1420 C   0  0  0  0  0  0  0  0  0  0  0  0
   -4.2420   24.5110  -30.2050 C   0  0  0  0  0  0  0  0  0  0  0  0
   -3.1200   25.2140  -29.7380 O   0  0  0  0  0  0  0  0  0  0  0  0
   -2.2040   24.7270  -28.7620 C   0  0  0  0  0  0  0  0  0  0  0  0
   -4.1610   23.2050  -30.7170 C   0  0  0  0  0  0  0  0  0  0  0  0
   -5.3180   22.5220  -31.1590 C   0  0  0  0  0  0  0  0  0  0  0  0
   -3.4622   18.7409  -25.2530 H   0  0  0  0  0  0  0  0  0  0  0  0
   -4.1020   19.3922  -26.7999 H   0  0  0  0  0  0  0  0  0  0  0  0
   -3.0943   17.9052  -26.7999 H   0  0  0  0  0  0  0  0  0  0  0  0
   -2.2655   20.7985  -26.3729 H   0  0  0  0  0  0  0  0  0  0  0  0
   -1.2723   19.4185  -25.7140 H   0  0  0  0  0  0  0  0  0  0  0  0
   -2.0800   19.3810  -28.5100 H   0  0  0  0  0  0  0  0  0  0  0  0
   -0.2128   18.1049  -26.7470 H   0  0  0  0  0  0  0  0  0  0  0  0
   -0.9153   17.5451  -28.3025 H   0  0  0  0  0  0  0  0  0  0  0  0
    0.5103   18.6380  -28.3025 H   0  0  0  0  0  0  0  0  0  0  0  0
   -0.8037   21.5806  -27.4418 H   0  0  0  0  0  0  0  0  0  0  0  0
    0.4923   20.5412  -28.1884 H   0  0  0  0  0  0  0  0  0  0  0  0
   -1.5898   22.1995  -29.4783 H   0  0  0  0  0  0  0  0  0  0  0  0
   -0.0190   21.5739  -30.1129 H   0  0  0  0  0  0  0  0  0  0  0  0
   -1.2980   19.3330  -30.0900 H   0  0  0  0  0  0  0  0  0  0  0  0
   -0.8582   21.2999  -32.0036 H   0  0  0  0  0  0  0  0  0  0  0  0
   -1.1705   19.5246  -32.2338 H   0  0  0  0  0  0  0  0  0  0  0  0
   -2.9416   21.8400  -32.7278 H   0  0  0  0  0  0  0  0  0  0  0  0
   -3.0143   20.1532  -33.3602 H   0  0  0  0  0  0  0  0  0  0  0  0
   -3.7770   19.9110  -30.6790 H   0  0  0  0  0  0  0  0  0  0  0  0
   -5.4770   18.5678  -32.1897 H   0  0  0  0  0  0  0  0  0  0  0  0
   -7.5623   17.3948  -32.8597 H   0  0  0  0  0  0  0  0  0  0  0  0
   -9.7239   18.6230  -32.9103 H   0  0  0  0  0  0  0  0  0  0  0  0
   -9.8080   21.0334  -32.3190 H   0  0  0  0  0  0  0  0  0  0  0  0
   -9.3742   23.6819  -31.0609 H   0  0  0  0  0  0  0  0  0  0  0  0
   -8.6264   24.2669  -32.5858 H   0  0  0  0  0  0  0  0  0  0  0  0
   -9.6062   22.7613  -32.5858 H   0  0  0  0  0  0  0  0  0  0  0  0
   -7.5983   25.0146  -30.5541 H   0  0  0  0  0  0  0  0  0  0  0  0
   -5.5626   26.1473  -29.7141 H   0  0  0  0  0  0  0  0  0  0  0  0
   -2.5957   24.9352  -27.7554 H   0  0  0  0  0  0  0  0  0  0  0  0
   -2.0761   23.6418  -28.8884 H   0  0  0  0  0  0  0  0  0  0  0  0
   -1.2328   25.2279  -28.8884 H   0  0  0  0  0  0  0  0  0  0  0  0
   -3.1824   22.7060  -30.7750 H   0  0  0  0  0  0  0  0  0  0  0  0
  1  2  1  0
  2  3  1  0
  3  4  1  0
  3  5  1  0
  5  6  1  0
  6  7  1  0
  7  8  1  0
  8  9  1  0
  9 10  1  0
 10 11  1  0
 11 12  2  0
 12 13  1  0
 13 14  2  0
 14 15  1  0
 15 16  2  0
 16 17  1  0
 17 18  2  0
 18 19  1  0
 18 20  1  0
 20 21  2  0
 21 22  1  0
 22 23  2  0
 23 24  1  0
 24 25  1  0
 23 26  1  0
 26 27  2  0
 27 11  1  0
 17 12  1  0
 27 20  1  0
  1 28  1  0
  1 29  1  0
  1 30  1  0
  2 31  1  0
  2 32  1  0
  3 33  1  6
  4 34  1  0
  4 35  1  0
  4 36  1  0
  5 37  1  0
  5 38  1  0
  6 39  1  0
  6 40  1  0
  7 41  1  0
  8 42  1  0
  8 43  1  0
  9 44  1  0
  9 45  1  0
 10 46  1  0
 13 47  1  0
 14 48  1  0
 15 49  1  0
 16 50  1  0
 19 51  1  0
 19 52  1  0
 19 53  1  0
 21 54  1  0
 22 55  1  0
 25 56  1  0
 25 57  1  0
 25 58  1  0
 26 59  1  0
M  CHG  2   3   1  18   1
M  END
>  <UniqueID>  (23) 
22

>  <SMILES>  (23) 
CC[N@H+](C)CCNCCNc1c2ccccc2[n+](C)c2ccc(OC)cc12

>  <Energy>  (23) 
87.53882106414552

>  <Genealogy>  (23) 
CC[NH+](C)CCNCCNc1c2ccccc2[n+](C)c2ccc(OC)cc12 (protonated)
CC[N@H+](C)CCNCCNc1c2ccccc2[n+](C)c2ccc(OC)cc12 (chirality)
CC[N@H+](C)CCNCCNc1c2ccccc2[n+](C)c2ccc(OC)cc12 (3D coordinates assigned)
CC[N@H+](C)CCNCCNc1c2ccccc2[n+](C)c2ccc(OC)cc12 (optimized conformer: 87.53882106414552 kcal/mol)

>  <smiles>  (23) 
CCN(C)CCNCCNc1c2ccccc2[n+](C)c2ccc(OC)cc12

>  <score_type>  (23) 
oracle

>  <origin>  (23) 
adg

>  <m_score__min__energy>  (23) 
-7.2300000000000004

>  <m_primary>  (23) 
energy

$$$$
