0:0
     RDKit          3D

 43 45  0  0  0  0  0  0  0  0999 V2000
   -4.2939   20.1607  -34.0116 H   0  0  0  0  0  0  0  0  0  0  0  0
   -4.1550   20.5820  -33.0050 C   0  0  0  0  0  0  0  0  0  0  0  0
   -5.0430   21.6980  -32.6070 C   0  0  0  0  0  0  0  0  0  0  0  0
   -4.6130   22.8760  -32.7290 O   0  0  0  0  0  0  0  0  0  0  0  0
   -6.4190   21.4870  -32.1050 C   0  0  0  0  0  0  0  0  0  0  0  0
   -7.1570   20.3980  -32.6040 C   0  0  0  0  0  0  0  0  0  0  0  0
   -6.6781   19.6835  -33.2897 H   0  0  0  0  0  0  0  0  0  0  0  0
   -8.4910   20.2160  -32.2370 C   0  0  0  0  0  0  0  0  0  0  0  0
   -9.0622   19.3690  -32.6450 H   0  0  0  0  0  0  0  0  0  0  0  0
   -9.1010   21.1060  -31.3540 C   0  0  0  0  0  0  0  0  0  0  0  0
  -10.1577   20.9712  -31.0798 H   0  0  0  0  0  0  0  0  0  0  0  0
   -8.3710   22.1680  -30.8180 C   0  0  0  0  0  0  0  0  0  0  0  0
   -8.8535   22.8572  -30.1093 H   0  0  0  0  0  0  0  0  0  0  0  0
   -7.0270   22.3660  -31.1740 C   0  0  0  0  0  0  0  0  0  0  0  0
   -6.2770   23.4020  -30.5140 N   0  0  0  0  0  0  0  0  0  0  0  0
   -6.5370   24.8070  -30.8450 C   0  0  0  0  0  0  0  0  0  0  0  0
   -6.7137   24.8989  -31.9268 H   0  0  0  0  0  0  0  0  0  0  0  0
   -7.4229   25.1488  -30.2897 H   0  0  0  0  0  0  0  0  0  0  0  0
   -5.3390   25.6710  -30.4540 C   0  0  0  0  0  0  0  0  0  0  0  0
   -5.3915   26.6346  -30.9820 H   0  0  0  0  0  0  0  0  0  0  0  0
   -5.3504   25.8521  -29.3691 H   0  0  0  0  0  0  0  0  0  0  0  0
   -4.1510   25.0000  -30.8120 O   0  0  0  0  0  0  0  0  0  0  0  0
   -3.9090   23.9150  -29.9300 C   0  0  0  0  0  0  0  0  0  0  0  0
   -3.1462   23.2649  -30.3834 H   0  0  0  0  0  0  0  0  0  0  0  0
   -3.5828   24.3504  -28.9740 H   0  0  0  0  0  0  0  0  0  0  0  0
   -5.1610   23.0560  -29.6250 C   0  0  0  0  0  0  0  0  0  0  0  0
   -4.9090   21.9942  -29.7634 H   0  0  0  0  0  0  0  0  0  0  0  0
   -5.4709   23.2514  -28.5878 H   0  0  0  0  0  0  0  0  0  0  0  0
   -3.1940   20.0420  -32.2380 C   0  0  0  0  0  0  0  0  0  0  0  0
   -2.9868   18.9693  -32.3658 H   0  0  0  0  0  0  0  0  0  0  0  0
   -2.3930   20.7750  -31.2360 C   0  0  0  0  0  0  0  0  0  0  0  0
   -2.7500   20.7790  -29.8780 C   0  0  0  0  0  0  0  0  0  0  0  0
   -3.6464   20.2343  -29.5466 H   0  0  0  0  0  0  0  0  0  0  0  0
   -1.9730   21.4710  -28.9450 C   0  0  0  0  0  0  0  0  0  0  0  0
   -2.2488   21.4480  -27.8804 H   0  0  0  0  0  0  0  0  0  0  0  0
   -0.8420   22.1960  -29.3570 C   0  0  0  0  0  0  0  0  0  0  0  0
   -0.0370   22.8990  -28.3920 N   0  0  0  0  0  0  0  0  0  0  0  0
    0.3500   22.3310  -27.3510 O   0  0  0  0  0  0  0  0  0  0  0  0
    0.3130   24.2140  -28.5990 O   0  0  0  0  0  0  0  0  0  0  0  0
   -0.5160   22.2280  -30.7250 C   0  0  0  0  0  0  0  0  0  0  0  0
    0.3585   22.8025  -31.0642 H   0  0  0  0  0  0  0  0  0  0  0  0
   -1.2940   21.5360  -31.6560 C   0  0  0  0  0  0  0  0  0  0  0  0
   -1.0424   21.5888  -32.7255 H   0  0  0  0  0  0  0  0  0  0  0  0
  1  2  1  0
  2  3  1  0
  3  4  2  0
  3  5  1  0
  5  6  2  0
  6  7  1  0
  6  8  1  0
  8  9  1  0
  8 10  2  0
 10 11  1  0
 10 12  1  0
 12 13  1  0
 12 14  2  0
 14 15  1  0
 15 16  1  0
 16 17  1  0
 16 18  1  0
 16 19  1  0
 19 20  1  0
 19 21  1  0
 19 22  1  0
 22 23  1  0
 23 24  1  0
 23 25  1  0
 23 26  1  0
 26 27  1  0
 26 28  1  0
  2 29  2  0
 29 30  1  0
 29 31  1  0
 31 32  2  0
 32 33  1  0
 32 34  1  0
 34 35  1  0
 34 36  2  0
 36 37  1  0
 37 38  2  0
 37 39  1  0
 36 40  1  0
 40 41  1  0
 40 42  2  0
 42 43  1  0
 14  5  1  0
 26 15  1  0
 42 31  1  0
M  CHG  2  37   1  39  -1
M  END
>  <UniqueID>  (1) 
1

>  <SMILES>  (1) 
O=C(/C=C\c1ccc([N+](=O)[O-])cc1)c1ccccc1N1CCOCC1

>  <Energy>  (1) 
67.8458954521627

>  <Genealogy>  (1) 
O=C(/C=C\c1ccc([N+](=O)[O-])cc1)c1ccccc1N1CCOCC1 (cis-trans isomerization)
O=C(/C=C\c1ccc([N+](=O)[O-])cc1)c1ccccc1N1CCOCC1 (3D coordinates assigned)
O=C(/C=C\c1ccc([N+](=O)[O-])cc1)c1ccccc1N1CCOCC1 (nonaromatic ring conformer: 67.8458954521627 kcal/mol)

>  <smiles>  (1) 
O=C(C=Cc1ccc([N+](=O)[O-])cc1)c1ccccc1N1CCOCC1

>  <score_type>  (1) 
oracle

>  <origin>  (1) 
adg

>  <m_score__min__energy>  (1) 
-8.9800000000000004

>  <m_primary>  (1) 
energy

$$$$
1:0
     RDKit          3D

 65 65  0  0  0  0  0  0  0  0999 V2000
   -3.9700   21.5350  -33.0070 C   0  0  0  0  0  0  0  0  0  0  0  0
   -4.4950   20.5320  -31.9700 C   0  0  0  0  0  0  0  0  0  0  0  0
   -5.6160   19.6900  -32.4580 N   0  0  0  0  0  0  0  0  0  0  0  0
   -6.1470   20.0590  -33.7900 C   0  0  0  0  0  0  0  0  0  0  0  0
   -6.0790   18.8910  -34.7760 C   0  0  0  0  0  0  0  0  0  0  0  0
   -5.3400   18.2400  -32.3380 C   0  0  0  0  0  0  0  0  0  0  0  0
   -6.1600   17.6530  -31.1890 C   0  0  0  0  0  0  0  0  0  0  0  0
   -7.4330   18.2730  -31.1290 O   0  0  0  0  0  0  0  0  0  0  0  0
   -8.1530   18.1090  -32.3370 C   0  0  0  0  0  0  0  0  0  0  0  0
   -9.4790   18.8850  -32.3140 C   0  0  0  0  0  0  0  0  0  0  0  0
   -9.3040   20.2430  -32.6740 O   0  0  0  0  0  0  0  0  0  0  0  0
   -9.3760   21.0940  -31.5440 C   0  0  0  0  0  0  0  0  0  0  0  0
   -9.2910   22.5530  -31.9970 C   0  0  0  0  0  0  0  0  0  0  0  0
   -7.8360   23.0070  -32.2040 C   0  0  0  0  0  0  0  0  0  0  0  0
   -7.2580   23.7170  -30.9680 C   0  0  0  0  0  0  0  0  0  0  0  0
   -5.7290   23.8610  -31.0340 C   0  0  0  0  0  0  0  0  0  0  0  0
   -5.2470   25.0270  -30.1500 C   0  0  0  0  0  0  0  0  0  0  0  0
   -3.7780   25.0800  -30.0410 N   0  0  0  0  0  0  0  0  0  0  0  0
   -3.1270   23.8260  -30.4420 C   0  0  0  0  0  0  0  0  0  0  0  0
   -2.7050   23.0240  -29.2300 C   0  0  0  0  0  0  0  0  0  0  0  0
   -3.4310   21.8600  -28.9110 C   0  0  0  0  0  0  0  0  0  0  0  0
   -3.0560   21.0580  -27.8330 C   0  0  0  0  0  0  0  0  0  0  0  0
   -1.9510   21.4030  -27.0580 C   0  0  0  0  0  0  0  0  0  0  0  0
   -1.2170   22.5520  -27.3560 C   0  0  0  0  0  0  0  0  0  0  0  0
   -1.5830   23.3820  -28.4310 C   0  0  0  0  0  0  0  0  0  0  0  0
   -0.7950   24.5560  -28.7050 N   0  0  0  0  0  0  0  0  0  0  0  0
    0.4450   24.5230  -28.5610 O   0  0  0  0  0  0  0  0  0  0  0  0
   -1.3980   25.7630  -28.9730 O   0  0  0  0  0  0  0  0  0  0  0  0
   -3.5198   22.3952  -32.4899 H   0  0  0  0  0  0  0  0  0  0  0  0
   -3.2113   21.0477  -33.6370 H   0  0  0  0  0  0  0  0  0  0  0  0
   -4.8028   21.8807  -33.6370 H   0  0  0  0  0  0  0  0  0  0  0  0
   -3.6663   19.8698  -31.6789 H   0  0  0  0  0  0  0  0  0  0  0  0
   -4.8833   21.1208  -31.1259 H   0  0  0  0  0  0  0  0  0  0  0  0
   -7.1961   20.3710  -33.6804 H   0  0  0  0  0  0  0  0  0  0  0  0
   -5.5289   20.8772  -34.1882 H   0  0  0  0  0  0  0  0  0  0  0  0
   -6.0239   17.9439  -34.2193 H   0  0  0  0  0  0  0  0  0  0  0  0
   -6.9788   18.8925  -35.4088 H   0  0  0  0  0  0  0  0  0  0  0  0
   -5.1855   18.9969  -35.4088 H   0  0  0  0  0  0  0  0  0  0  0  0
   -5.6137   17.7367  -33.2770 H   0  0  0  0  0  0  0  0  0  0  0  0
   -4.2694   18.0883  -32.1362 H   0  0  0  0  0  0  0  0  0  0  0  0
   -6.2894   16.5726  -31.3500 H   0  0  0  0  0  0  0  0  0  0  0  0
   -5.6293   17.8309  -30.2421 H   0  0  0  0  0  0  0  0  0  0  0  0
   -7.5384   18.4768  -33.1718 H   0  0  0  0  0  0  0  0  0  0  0  0
   -8.3816   17.0400  -32.4593 H   0  0  0  0  0  0  0  0  0  0  0  0
  -10.1772   18.4165  -33.0232 H   0  0  0  0  0  0  0  0  0  0  0  0
   -9.8740   18.8533  -31.2879 H   0  0  0  0  0  0  0  0  0  0  0  0
  -10.3289   20.9278  -31.0201 H   0  0  0  0  0  0  0  0  0  0  0  0
   -8.5399   20.8721  -30.8645 H   0  0  0  0  0  0  0  0  0  0  0  0
   -9.8359   22.6627  -32.9462 H   0  0  0  0  0  0  0  0  0  0  0  0
   -9.7344   23.1802  -31.2096 H   0  0  0  0  0  0  0  0  0  0  0  0
   -7.2188   22.1234  -32.4238 H   0  0  0  0  0  0  0  0  0  0  0  0
   -7.8258   23.7254  -33.0369 H   0  0  0  0  0  0  0  0  0  0  0  0
   -7.7041   24.7199  -30.8963 H   0  0  0  0  0  0  0  0  0  0  0  0
   -7.4985   23.1038  -30.0870 H   0  0  0  0  0  0  0  0  0  0  0  0
   -5.2641   22.9276  -30.6837 H   0  0  0  0  0  0  0  0  0  0  0  0
   -5.4405   24.0673  -32.0752 H   0  0  0  0  0  0  0  0  0  0  0  0
   -5.6031   25.9718  -30.5865 H   0  0  0  0  0  0  0  0  0  0  0  0
   -5.6527   24.8715  -29.1395 H   0  0  0  0  0  0  0  0  0  0  0  0
   -3.5040   25.3050  -29.0560 H   0  0  0  0  0  0  0  0  0  0  0  0
   -3.8316   23.2300  -31.0405 H   0  0  0  0  0  0  0  0  0  0  0  0
   -2.2308   24.0687  -31.0318 H   0  0  0  0  0  0  0  0  0  0  0  0
   -4.3039   21.5801  -29.5190 H   0  0  0  0  0  0  0  0  0  0  0  0
   -3.6333   20.1525  -27.5947 H   0  0  0  0  0  0  0  0  0  0  0  0
   -1.6563   20.7684  -26.2092 H   0  0  0  0  0  0  0  0  0  0  0  0
   -0.3416   22.8117  -26.7427 H   0  0  0  0  0  0  0  0  0  0  0  0
  1  2  1  0
  2  3  1  0
  3  4  1  0
  4  5  1  0
  3  6  1  0
  6  7  1  0
  7  8  1  0
  8  9  1  0
  9 10  1  0
 10 11  1  0
 11 12  1  0
 12 13  1  0
 13 14  1  0
 14 15  1  0
 15 16  1  0
 16 17  1  0
 17 18  1  0
 18 19  1  0
 19 20  1  0
 20 21  2  0
 21 22  1  0
 22 23  2  0
 23 24  1  0
 24 25  2  0
 25 26  1  0
 26 27  2  0
 26 28  1  0
 25 20  1  0
  1 29  1  0
  1 30  1  0
  1 31  1  0
  2 32  1  0
  2 33  1  0
  4 34  1  0
  4 35  1  0
  5 36  1  0
  5 37  1  0
  5 38  1  0
  6 39  1  0
  6 40  1  0
  7 41  1  0
  7 42  1  0
  9 43  1  0
  9 44  1  0
 10 45  1  0
 10 46  1  0
 12 47  1  0
 12 48  1  0
 13 49  1  0
 13 50  1  0
 14 51  1  0
 14 52  1  0
 15 53  1  0
 15 54  1  0
 16 55  1  0
 16 56  1  0
 17 57  1  0
 17 58  1  0
 18 59  1  0
 19 60  1  0
 19 61  1  0
 21 62  1  0
 22 63  1  0
 23 64  1  0
 24 65  1  0
M  CHG  2  26   1  28  -1
M  END
>  <UniqueID>  (2) 
2

>  <SMILES>  (2) 
CCN(CC)CCOCCOCCCCCCNCc1ccccc1[N+](=O)[O-]

>  <Energy>  (2) 
65.87518522825857

>  <Genealogy>  (2) 
CCN(CC)CCOCCOCCCCCCNCc1ccccc1[N+](=O)[O-] (3D coordinates assigned)
CCN(CC)CCOCCOCCCCCCNCc1ccccc1[N+](=O)[O-] (optimized conformer: 65.87518522825857 kcal/mol)

>  <smiles>  (2) 
CCN(CC)CCOCCOCCCCCCNCc1ccccc1[N+](=O)[O-]

>  <score_type>  (2) 
oracle

>  <origin>  (2) 
adg

>  <m_score__min__energy>  (2) 
-8.25

>  <m_primary>  (2) 
energy

$$$$
2:0
     RDKit          3D

 39 41  0  0  0  0  0  0  0  0999 V2000
   -9.4880   21.5330  -30.4860 C   0  0  0  0  0  0  0  0  0  0  0  0
   -8.5710   20.6920  -31.3140 C   0  0  0  0  0  0  0  0  0  0  0  0
   -8.4940   19.3500  -31.2360 N   0  0  0  0  0  0  0  0  0  0  0  0
   -7.5080   18.9400  -32.0180 N   0  0  0  0  0  0  0  0  0  0  0  0
   -7.0580   17.5580  -32.1170 C   0  0  0  0  0  0  0  0  0  0  0  0
   -6.9120   20.0070  -32.5860 C   0  0  0  0  0  0  0  0  0  0  0  0
   -7.5720   21.1460  -32.1630 C   0  0  0  0  0  0  0  0  0  0  0  0
   -7.2010   22.5680  -32.4670 C   0  0  0  0  0  0  0  0  0  0  0  0
   -6.2180   23.0710  -31.4870 N   0  0  0  0  0  0  0  0  0  0  0  0
   -6.1140   24.5370  -31.5640 C   0  0  0  0  0  0  0  0  0  0  0  0
   -5.3640   25.0360  -30.3310 C   0  0  0  0  0  0  0  0  0  0  0  0
   -4.1860   24.2040  -30.0520 N   0  0  0  0  0  0  0  0  0  0  0  0
   -3.3760   24.4920  -28.8960 C   0  0  0  0  0  0  0  0  0  0  0  0
   -2.1510   25.0610  -28.9640 N   0  0  0  0  0  0  0  0  0  0  0  0
   -1.5980   25.2250  -27.7320 C   0  0  0  0  0  0  0  0  0  0  0  0
   -2.3790   24.7860  -26.6690 C   0  0  0  0  0  0  0  0  0  0  0  0
   -3.8130   24.1720  -27.2990 S   0  0  0  0  0  0  0  0  0  0  0  0
   -3.7230   23.2320  -31.0540 C   0  0  0  0  0  0  0  0  0  0  0  0
   -4.8920   22.4300  -31.6710 C   0  0  0  0  0  0  0  0  0  0  0  0
   -9.2895   21.3510  -29.4195 H   0  0  0  0  0  0  0  0  0  0  0  0
   -9.3176   22.5954  -30.7146 H   0  0  0  0  0  0  0  0  0  0  0  0
  -10.5318   21.2716  -30.7146 H   0  0  0  0  0  0  0  0  0  0  0  0
   -9.0810   18.7280  -30.6360 H   0  0  0  0  0  0  0  0  0  0  0  0
   -6.9229   17.1431  -31.1072 H   0  0  0  0  0  0  0  0  0  0  0  0
   -7.8097   16.9656  -32.6593 H   0  0  0  0  0  0  0  0  0  0  0  0
   -6.1016   17.5217  -32.6593 H   0  0  0  0  0  0  0  0  0  0  0  0
   -6.0496   19.9770  -33.2682 H   0  0  0  0  0  0  0  0  0  0  0  0
   -6.7647   22.6198  -33.4754 H   0  0  0  0  0  0  0  0  0  0  0  0
   -8.1066   23.1898  -32.4110 H   0  0  0  0  0  0  0  0  0  0  0  0
   -5.5645   24.8226  -32.4731 H   0  0  0  0  0  0  0  0  0  0  0  0
   -7.1183   24.9843  -31.6004 H   0  0  0  0  0  0  0  0  0  0  0  0
   -5.0383   26.0723  -30.5043 H   0  0  0  0  0  0  0  0  0  0  0  0
   -6.0413   24.9814  -29.4660 H   0  0  0  0  0  0  0  0  0  0  0  0
   -0.6038   25.6730  -27.5872 H   0  0  0  0  0  0  0  0  0  0  0  0
   -2.1073   24.8320  -25.6041 H   0  0  0  0  0  0  0  0  0  0  0  0
   -3.2008   23.7724  -31.8573 H   0  0  0  0  0  0  0  0  0  0  0  0
   -3.0528   22.5199  -30.5503 H   0  0  0  0  0  0  0  0  0  0  0  0
   -4.7063   22.3196  -32.7496 H   0  0  0  0  0  0  0  0  0  0  0  0
   -4.9279   21.4618  -31.1501 H   0  0  0  0  0  0  0  0  0  0  0  0
  1  2  1  0
  2  3  2  0
  3  4  1  0
  4  5  1  0
  4  6  1  0
  6  7  2  0
  7  8  1  0
  8  9  1  0
  9 10  1  0
 10 11  1  0
 11 12  1  0
 12 13  1  0
 13 14  2  0
 14 15  1  0
 15 16  2  0
 16 17  1  0
 12 18  1  0
 18 19  1  0
  7  2  1  0
 19  9  1  0
 17 13  1  0
  1 20  1  0
  1 21  1  0
  1 22  1  0
  3 23  1  0
  5 24  1  0
  5 25  1  0
  5 26  1  0
  6 27  1  0
  8 28  1  0
  8 29  1  0
 10 30  1  0
 10 31  1  0
 11 32  1  0
 11 33  1  0
 15 34  1  0
 16 35  1  0
 18 36  1  0
 18 37  1  0
 19 38  1  0
 19 39  1  0
M  CHG  1   3   1
M  END
>  <UniqueID>  (3) 
3

>  <SMILES>  (3) 
Cc1[nH+]n(C)cc1CN1CCN(c2nccs2)CC1

>  <Energy>  (3) 
102.33160298462377

>  <Genealogy>  (3) 
Cc1[nH+]n(C)cc1CN1CCN(c2nccs2)CC1 (protonated)
Cc1[nH+]n(C)cc1CN1CCN(c2nccs2)CC1 (3D coordinates assigned)
Cc1[nH+]n(C)cc1CN1CCN(c2nccs2)CC1 (nonaromatic ring conformer: 102.33160298462377 kcal/mol)

>  <smiles>  (3) 
Cc1nn(C)cc1CN1CCN(c2nccs2)CC1

>  <score_type>  (3) 
oracle

>  <origin>  (3) 
adg

>  <m_score__min__energy>  (3) 
-6.8899999999999997

>  <m_primary>  (3) 
energy

$$$$
3:0
     RDKit          3D

 40 41  0  0  0  0  0  0  0  0999 V2000
   -1.7010   20.5960  -27.5470 C   0  0  0  0  0  0  0  0  0  0  0  0
   -3.0970   21.1480  -27.8470 C   0  0  0  0  0  0  0  0  0  0  0  0
   -3.0560   22.2730  -28.8330 N   0  0  0  0  0  0  0  0  0  0  0  0
   -2.7070   23.5590  -28.1710 C   0  0  0  0  0  0  0  0  0  0  0  0
   -3.8810   24.1490  -27.3780 C   0  0  0  0  0  0  0  0  0  0  0  0
   -2.0880   21.9610  -29.9170 C   0  0  0  0  0  0  0  0  0  0  0  0
   -2.6080   22.3370  -31.3210 C   0  0  0  0  0  0  0  0  0  0  0  0
   -3.7680   23.1650  -31.2260 O   0  0  0  0  0  0  0  0  0  0  0  0
   -5.0960   22.7320  -31.3830 C   0  0  0  0  0  0  0  0  0  0  0  0
   -5.4200   21.4640  -31.9070 C   0  0  0  0  0  0  0  0  0  0  0  0
   -6.7590   21.0730  -32.0480 C   0  0  0  0  0  0  0  0  0  0  0  0
   -7.0860   19.8130  -32.5750 C   0  0  0  0  0  0  0  0  0  0  0  0
   -8.4240   19.4340  -32.7120 C   0  0  0  0  0  0  0  0  0  0  0  0
   -9.4450   20.3070  -32.3250 C   0  0  0  0  0  0  0  0  0  0  0  0
   -9.1340   21.5650  -31.7990 C   0  0  0  0  0  0  0  0  0  0  0  0
   -7.7940   21.9560  -31.6580 C   0  0  0  0  0  0  0  0  0  0  0  0
   -7.4690   23.2140  -31.1330 C   0  0  0  0  0  0  0  0  0  0  0  0
   -6.1310   23.5980  -30.9960 C   0  0  0  0  0  0  0  0  0  0  0  0
   -5.7320   25.3280  -30.2790 Br  0  0  0  0  0  0  0  0  0  0  0  0
   -1.5556   20.5385  -26.4582 H   0  0  0  0  0  0  0  0  0  0  0  0
   -1.6024   19.5912  -27.9836 H   0  0  0  0  0  0  0  0  0  0  0  0
   -0.9419   21.2616  -27.9836 H   0  0  0  0  0  0  0  0  0  0  0  0
   -3.7181   20.3384  -28.2578 H   0  0  0  0  0  0  0  0  0  0  0  0
   -3.5179   21.5354  -26.9074 H   0  0  0  0  0  0  0  0  0  0  0  0
   -3.9960   22.3840  -29.2840 H   0  0  0  0  0  0  0  0  0  0  0  0
   -1.8678   23.3846  -27.4816 H   0  0  0  0  0  0  0  0  0  0  0  0
   -2.4402   24.2789  -28.9587 H   0  0  0  0  0  0  0  0  0  0  0  0
   -3.6827   24.0493  -26.3006 H   0  0  0  0  0  0  0  0  0  0  0  0
   -3.9976   25.2128  -27.6325 H   0  0  0  0  0  0  0  0  0  0  0  0
   -4.8042   23.6078  -27.6325 H   0  0  0  0  0  0  0  0  0  0  0  0
   -1.1586   22.5180  -29.7273 H   0  0  0  0  0  0  0  0  0  0  0  0
   -1.9257   20.8731  -29.9082 H   0  0  0  0  0  0  0  0  0  0  0  0
   -1.8205   22.8801  -31.8640 H   0  0  0  0  0  0  0  0  0  0  0  0
   -2.8755   21.4146  -31.8572 H   0  0  0  0  0  0  0  0  0  0  0  0
   -4.6160   20.7760  -32.2076 H   0  0  0  0  0  0  0  0  0  0  0  0
   -6.2864   19.1223  -32.8809 H   0  0  0  0  0  0  0  0  0  0  0  0
   -8.6746   18.4460  -33.1255 H   0  0  0  0  0  0  0  0  0  0  0  0
  -10.4966   20.0034  -32.4346 H   0  0  0  0  0  0  0  0  0  0  0  0
   -9.9407   22.2485  -31.4956 H   0  0  0  0  0  0  0  0  0  0  0  0
   -8.2701   23.9029  -30.8271 H   0  0  0  0  0  0  0  0  0  0  0  0
  1  2  1  0
  2  3  1  0
  3  4  1  0
  4  5  1  0
  3  6  1  0
  6  7  1  0
  7  8  1  0
  8  9  1  0
  9 10  2  0
 10 11  1  0
 11 12  2  0
 12 13  1  0
 13 14  2  0
 14 15  1  0
 15 16  2  0
 16 17  1  0
 17 18  2  0
 18 19  1  0
 18  9  1  0
 16 11  1  0
  1 20  1  0
  1 21  1  0
  1 22  1  0
  2 23  1  0
  2 24  1  0
  3 25  1  0
  4 26  1  0
  4 27  1  0
  5 28  1  0
  5 29  1  0
  5 30  1  0
  6 31  1  0
  6 32  1  0
  7 33  1  0
  7 34  1  0
 10 35  1  0
 12 36  1  0
 13 37  1  0
 14 38  1  0
 15 39  1  0
 17 40  1  0
M  CHG  1   3   1
M  END
>  <UniqueID>  (4) 
4

>  <SMILES>  (4) 
CC[NH+](CC)CCOc1cc2ccccc2cc1Br

>  <Energy>  (4) 
46.28300251445418

>  <Genealogy>  (4) 
CC[NH+](CC)CCOc1cc2ccccc2cc1Br (protonated)
CC[NH+](CC)CCOc1cc2ccccc2cc1Br (3D coordinates assigned)
CC[NH+](CC)CCOc1cc2ccccc2cc1Br (optimized conformer: 46.28300251445418 kcal/mol)

>  <smiles>  (4) 
CCN(CC)CCOc1cc2ccccc2cc1Br

>  <score_type>  (4) 
oracle

>  <origin>  (4) 
adg

>  <m_score__min__energy>  (4) 
-6.1100000000000003

>  <m_primary>  (4) 
energy

$$$$
4:0
     RDKit          3D

 37 40  0  0  0  0  0  0  0  0999 V2000
   -2.4900   20.6310  -33.7080 C   0  0  0  0  0  0  0  0  0  0  0  0
   -3.9410   20.4970  -33.3030 C   0  0  0  0  0  0  0  0  0  0  0  0
   -4.6830   19.3080  -33.5560 C   0  0  0  0  0  0  0  0  0  0  0  0
   -4.0690   18.1710  -34.1150 C   0  0  0  0  0  0  0  0  0  0  0  0
   -4.8050   17.0120  -34.3410 C   0  0  0  0  0  0  0  0  0  0  0  0
   -6.1270   16.9540  -34.0230 N   0  0  0  0  0  0  0  0  0  0  0  0
   -6.8610   15.7000  -34.2130 C   0  0  0  0  0  0  0  0  0  0  0  0
   -6.7560   18.0220  -33.4490 C   0  0  0  0  0  0  0  0  0  0  0  0
   -6.0750   19.2390  -33.2230 C   0  0  0  0  0  0  0  0  0  0  0  0
   -6.7340   20.3680  -32.6510 C   0  0  0  0  0  0  0  0  0  0  0  0
   -8.2340   20.4320  -32.4950 C   0  0  0  0  0  0  0  0  0  0  0  0
   -5.9300   21.4560  -32.2670 C   0  0  0  0  0  0  0  0  0  0  0  0
   -4.5870   21.5290  -32.6040 C   0  0  0  0  0  0  0  0  0  0  0  0
   -4.0290   22.6760  -32.1500 N   0  0  0  0  0  0  0  0  0  0  0  0
   -5.0160   23.3260  -31.5060 C   0  0  0  0  0  0  0  0  0  0  0  0
   -4.9030   24.5380  -30.8260 C   0  0  0  0  0  0  0  0  0  0  0  0
   -6.0350   25.0250  -30.1510 C   0  0  0  0  0  0  0  0  0  0  0  0
   -7.2350   24.2880  -30.1510 C   0  0  0  0  0  0  0  0  0  0  0  0
   -7.3250   23.0640  -30.8370 C   0  0  0  0  0  0  0  0  0  0  0  0
   -6.1980   22.6150  -31.5400 C   0  0  0  0  0  0  0  0  0  0  0  0
   -1.8617   20.6890  -32.8070 H   0  0  0  0  0  0  0  0  0  0  0  0
   -2.1939   19.7564  -34.3058 H   0  0  0  0  0  0  0  0  0  0  0  0
   -2.3591   21.5451  -34.3058 H   0  0  0  0  0  0  0  0  0  0  0  0
   -3.0005   18.1991  -34.3748 H   0  0  0  0  0  0  0  0  0  0  0  0
   -4.3127   16.1326  -34.7817 H   0  0  0  0  0  0  0  0  0  0  0  0
   -7.1126   15.2702  -33.2322 H   0  0  0  0  0  0  0  0  0  0  0  0
   -7.7858   15.8980  -34.7747 H   0  0  0  0  0  0  0  0  0  0  0  0
   -6.2356   14.9905  -34.7747 H   0  0  0  0  0  0  0  0  0  0  0  0
   -7.8128   17.9328  -33.1572 H   0  0  0  0  0  0  0  0  0  0  0  0
   -8.4913   20.4430  -31.4256 H   0  0  0  0  0  0  0  0  0  0  0  0
   -8.6136   21.3472  -32.9729 H   0  0  0  0  0  0  0  0  0  0  0  0
   -8.6902   19.5525  -32.9729 H   0  0  0  0  0  0  0  0  0  0  0  0
   -3.0370   22.9930  -32.2210 H   0  0  0  0  0  0  0  0  0  0  0  0
   -3.9554   25.0965  -30.8182 H   0  0  0  0  0  0  0  0  0  0  0  0
   -5.9836   25.9869  -29.6198 H   0  0  0  0  0  0  0  0  0  0  0  0
   -8.1108   24.6739  -29.6088 H   0  0  0  0  0  0  0  0  0  0  0  0
   -8.2539   22.4749  -30.8226 H   0  0  0  0  0  0  0  0  0  0  0  0
  1  2  1  0
  2  3  2  0
  3  4  1  0
  4  5  2  0
  5  6  1  0
  6  7  1  0
  6  8  2  0
  8  9  1  0
  9 10  2  0
 10 11  1  0
 10 12  1  0
 12 13  2  0
 13 14  1  0
 14 15  1  0
 15 16  2  0
 16 17  1  0
 17 18  2  0
 18 19  1  0
 19 20  2  0
 13  2  1  0
 20 15  1  0
  9  3  1  0
 20 12  1  0
  1 21  1  0
  1 22  1  0
  1 23  1  0
  4 24  1  0
  5 25  1  0
  7 26  1  0
  7 27  1  0
  7 28  1  0
  8 29  1  0
 11 30  1  0
 11 31  1  0
 11 32  1  0
 14 33  1  0
 16 34  1  0
 17 35  1  0
 18 36  1  0
 19 37  1  0
M  CHG  1   6   1
M  END
>  <UniqueID>  (5) 
5

>  <SMILES>  (5) 
Cc1c2cc[n+](C)cc2c(C)c2c1[nH]c1ccccc12

>  <Energy>  (5) 
95.23268283324622

>  <Genealogy>  (5) 
Cc1c2cc[n+](C)cc2c(C)c2c1[nH]c1ccccc12 (3D coordinates assigned)
Cc1c2cc[n+](C)cc2c(C)c2c1[nH]c1ccccc12 (optimized conformer: 95.23268283324622 kcal/mol)

>  <smiles>  (5) 
Cc1c2cc[n+](C)cc2c(C)c2c1[nH]c1ccccc12

>  <score_type>  (5) 
oracle

>  <origin>  (5) 
adg

>  <m_score__min__energy>  (5) 
-7.4900000000000002

>  <m_primary>  (5) 
energy

$$$$
5:0
     RDKit          3D

 75 77  0  0  0  0  0  0  0  0999 V2000
   -3.2060   18.9410  -26.6360 C   0  0  0  0  0  0  0  0  0  0  0  0
   -1.9350   19.6870  -26.2260 C   0  0  0  0  0  0  0  0  0  0  0  0
   -1.9970   21.1070  -26.6440 N   0  0  0  0  0  0  0  0  0  0  0  0
   -0.6520   21.7360  -26.6690 C   0  0  0  0  0  0  0  0  0  0  0  0
   -0.4700   22.6100  -25.4330 C   0  0  0  0  0  0  0  0  0  0  0  0
   -2.7060   21.2490  -27.9380 C   0  0  0  0  0  0  0  0  0  0  0  0
   -1.7930   21.8550  -29.0080 C   0  0  0  0  0  0  0  0  0  0  0  0
   -1.6340   20.9530  -30.0830 O   0  0  0  0  0  0  0  0  0  0  0  0
   -1.2240   19.6970  -29.5860 C   0  0  0  0  0  0  0  0  0  0  0  0
    0.2520   19.7550  -29.2160 C   0  0  0  0  0  0  0  0  0  0  0  0
    1.0300   19.9280  -30.3820 O   0  0  0  0  0  0  0  0  0  0  0  0
    0.3580   19.4020  -31.5130 C   0  0  0  0  0  0  0  0  0  0  0  0
    0.4370   20.3890  -32.6720 C   0  0  0  0  0  0  0  0  0  0  0  0
   -0.6310   21.3140  -32.5730 O   0  0  0  0  0  0  0  0  0  0  0  0
   -1.2640   21.4980  -33.8210 C   0  0  0  0  0  0  0  0  0  0  0  0
   -2.7250   21.0740  -33.6930 C   0  0  0  0  0  0  0  0  0  0  0  0
   -3.1300   20.7880  -32.2950 N   0  0  0  0  0  0  0  0  0  0  0  0
   -4.5500   20.4740  -32.1800 C   0  0  0  0  0  0  0  0  0  0  0  0
   -4.9910   19.1630  -32.5450 C   0  0  0  0  0  0  0  0  0  0  0  0
   -4.0770   18.1500  -32.9470 C   0  0  0  0  0  0  0  0  0  0  0  0
   -4.5160   16.8870  -33.3300 C   0  0  0  0  0  0  0  0  0  0  0  0
   -5.8690   16.5960  -33.3410 C   0  0  0  0  0  0  0  0  0  0  0  0
   -6.7900   17.5590  -32.9510 C   0  0  0  0  0  0  0  0  0  0  0  0
   -6.3730   18.8450  -32.5150 C   0  0  0  0  0  0  0  0  0  0  0  0
   -7.2900   19.7820  -32.1020 N   0  0  0  0  0  0  0  0  0  0  0  0
   -8.6780   19.3680  -31.7870 C   0  0  0  0  0  0  0  0  0  0  0  0
   -6.9190   21.1010  -31.9520 C   0  0  0  0  0  0  0  0  0  0  0  0
   -7.9060   22.1140  -31.9130 C   0  0  0  0  0  0  0  0  0  0  0  0
   -7.5760   23.4330  -31.6700 C   0  0  0  0  0  0  0  0  0  0  0  0
   -6.2650   23.7800  -31.4180 C   0  0  0  0  0  0  0  0  0  0  0  0
   -5.2370   22.8200  -31.4630 C   0  0  0  0  0  0  0  0  0  0  0  0
   -3.9440   23.1940  -31.0690 O   0  0  0  0  0  0  0  0  0  0  0  0
   -3.6270   24.1150  -30.0280 C   0  0  0  0  0  0  0  0  0  0  0  0
   -5.5390   21.4700  -31.8580 C   0  0  0  0  0  0  0  0  0  0  0  0
   -3.7504   18.6215  -25.7351 H   0  0  0  0  0  0  0  0  0  0  0  0
   -3.8454   19.6071  -27.2338 H   0  0  0  0  0  0  0  0  0  0  0  0
   -2.9362   18.0580  -27.2338 H   0  0  0  0  0  0  0  0  0  0  0  0
   -1.8255   19.6380  -25.1326 H   0  0  0  0  0  0  0  0  0  0  0  0
   -1.0743   19.2126  -26.7201 H   0  0  0  0  0  0  0  0  0  0  0  0
    0.1186   20.9510  -26.6784 H   0  0  0  0  0  0  0  0  0  0  0  0
   -0.5574   22.3575  -27.5716 H   0  0  0  0  0  0  0  0  0  0  0  0
   -0.5976   21.9971  -24.5285 H   0  0  0  0  0  0  0  0  0  0  0  0
    0.5387   23.0486  -25.4394 H   0  0  0  0  0  0  0  0  0  0  0  0
   -1.2198   23.4148  -25.4394 H   0  0  0  0  0  0  0  0  0  0  0  0
   -3.0420   20.2568  -28.2735 H   0  0  0  0  0  0  0  0  0  0  0  0
   -3.5644   21.9212  -27.7921 H   0  0  0  0  0  0  0  0  0  0  0  0
   -2.2400   22.7886  -29.3804 H   0  0  0  0  0  0  0  0  0  0  0  0
   -0.8078   22.0605  -28.5639 H   0  0  0  0  0  0  0  0  0  0  0  0
   -1.8160   19.4446  -28.6939 H   0  0  0  0  0  0  0  0  0  0  0  0
   -1.3787   18.9288  -30.3580 H   0  0  0  0  0  0  0  0  0  0  0  0
    0.4245   20.5998  -28.5329 H   0  0  0  0  0  0  0  0  0  0  0  0
    0.5404   18.8152  -28.7225 H   0  0  0  0  0  0  0  0  0  0  0  0
    0.8305   18.4538  -31.8091 H   0  0  0  0  0  0  0  0  0  0  0  0
   -0.6978   19.2288  -31.2575 H   0  0  0  0  0  0  0  0  0  0  0  0
    1.3950   20.9281  -32.6309 H   0  0  0  0  0  0  0  0  0  0  0  0
    0.3656   19.8445  -33.6251 H   0  0  0  0  0  0  0  0  0  0  0  0
   -1.2097   22.5576  -34.1115 H   0  0  0  0  0  0  0  0  0  0  0  0
   -0.7626   20.8917  -34.5898 H   0  0  0  0  0  0  0  0  0  0  0  0
   -3.3595   21.8840  -34.0821 H   0  0  0  0  0  0  0  0  0  0  0  0
   -2.8465   20.1427  -34.2656 H   0  0  0  0  0  0  0  0  0  0  0  0
   -2.5020   20.1000  -31.8380 H   0  0  0  0  0  0  0  0  0  0  0  0
   -2.9320   21.6290  -31.7070 H   0  0  0  0  0  0  0  0  0  0  0  0
   -2.9993   18.3703  -32.9552 H   0  0  0  0  0  0  0  0  0  0  0  0
   -3.7866   16.1181  -33.6247 H   0  0  0  0  0  0  0  0  0  0  0  0
   -6.2148   15.6013  -33.6589 H   0  0  0  0  0  0  0  0  0  0  0  0
   -7.8636   17.3214  -32.9802 H   0  0  0  0  0  0  0  0  0  0  0  0
   -8.8101   19.3286  -30.6957 H   0  0  0  0  0  0  0  0  0  0  0  0
   -9.3837   20.0948  -32.2158 H   0  0  0  0  0  0  0  0  0  0  0  0
   -8.8702   18.3734  -32.2158 H   0  0  0  0  0  0  0  0  0  0  0  0
   -8.9595   21.8451  -32.0799 H   0  0  0  0  0  0  0  0  0  0  0  0
   -8.3582   24.2063  -31.6774 H   0  0  0  0  0  0  0  0  0  0  0  0
   -6.0189   24.8249  -31.1778 H   0  0  0  0  0  0  0  0  0  0  0  0
   -3.7919   23.6358  -29.0517 H   0  0  0  0  0  0  0  0  0  0  0  0
   -2.5730   24.4176  -30.1145 H   0  0  0  0  0  0  0  0  0  0  0  0
   -4.2715   25.0022  -30.1145 H   0  0  0  0  0  0  0  0  0  0  0  0
  1  2  1  0
  2  3  1  0
  3  4  1  0
  4  5  1  0
  3  6  1  0
  6  7  1  0
  7  8  1  0
  8  9  1  0
  9 10  1  0
 10 11  1  0
 11 12  1  0
 12 13  1  0
 13 14  1  0
 14 15  1  0
 15 16  1  0
 16 17  1  0
 17 18  1  0
 18 19  2  0
 19 20  1  0
 20 21  2  0
 21 22  1  0
 22 23  2  0
 23 24  1  0
 24 25  2  0
 25 26  1  0
 25 27  1  0
 27 28  2  0
 28 29  1  0
 29 30  2  0
 30 31  1  0
 31 32  1  0
 32 33  1  0
 31 34  2  0
 34 18  1  0
 24 19  1  0
 34 27  1  0
  1 35  1  0
  1 36  1  0
  1 37  1  0
  2 38  1  0
  2 39  1  0
  4 40  1  0
  4 41  1  0
  5 42  1  0
  5 43  1  0
  5 44  1  0
  6 45  1  0
  6 46  1  0
  7 47  1  0
  7 48  1  0
  9 49  1  0
  9 50  1  0
 10 51  1  0
 10 52  1  0
 12 53  1  0
 12 54  1  0
 13 55  1  0
 13 56  1  0
 15 57  1  0
 15 58  1  0
 16 59  1  0
 16 60  1  0
 17 61  1  0
 17 62  1  0
 20 63  1  0
 21 64  1  0
 22 65  1  0
 23 66  1  0
 26 67  1  0
 26 68  1  0
 26 69  1  0
 28 70  1  0
 29 71  1  0
 30 72  1  0
 33 73  1  0
 33 74  1  0
 33 75  1  0
M  CHG  2  17   1  25   1
M  END
>  <UniqueID>  (6) 
6

>  <SMILES>  (6) 
CCN(CC)CCOCCOCCOCC[NH2+]c1c2ccccc2[n+](C)c2cccc(OC)c12

>  <Energy>  (6) 
109.23288688827678

>  <Genealogy>  (6) 
CCN(CC)CCOCCOCCOCC[NH2+]c1c2ccccc2[n+](C)c2cccc(OC)c12 (protonated)
CCN(CC)CCOCCOCCOCC[NH2+]c1c2ccccc2[n+](C)c2cccc(OC)c12 (3D coordinates assigned)
CCN(CC)CCOCCOCCOCC[NH2+]c1c2ccccc2[n+](C)c2cccc(OC)c12 (optimized conformer: 109.23288688827678 kcal/mol)

>  <smiles>  (6) 
CCN(CC)CCOCCOCCOCCNc1c2ccccc2[n+](C)c2cccc(OC)c12

>  <score_type>  (6) 
oracle

>  <origin>  (6) 
adg

>  <m_score__min__energy>  (6) 
-9.2300000000000004

>  <m_primary>  (6) 
energy

$$$$
6:0
     RDKit          3D

 90 94  0  0  0  0  0  0  0  0999 V2000
   -9.0153   22.9832  -30.9107 H   0  0  0  0  0  0  0  0  0  0  0  0
   -7.9250   22.8440  -30.8670 C   0  0  0  0  0  0  0  0  0  0  0  0
   -7.2890   21.9910  -31.7780 C   0  0  0  0  0  0  0  0  0  0  0  0
   -7.9960   21.2730  -32.7500 O   0  0  0  0  0  0  0  0  0  0  0  0
   -8.6650   20.0400  -32.5050 C   0  0  0  0  0  0  0  0  0  0  0  0
   -9.6459   20.2419  -32.0499 H   0  0  0  0  0  0  0  0  0  0  0  0
   -8.7985   19.5061  -33.4574 H   0  0  0  0  0  0  0  0  0  0  0  0
   -7.8260   19.1650  -31.5460 C   0  0  0  0  0  0  0  0  0  0  0  0
   -7.2941   19.8349  -30.8544 H   0  0  0  0  0  0  0  0  0  0  0  0
   -8.5403   18.4910  -31.0506 H   0  0  0  0  0  0  0  0  0  0  0  0
   -6.8090   18.2760  -32.2020 N   0  0  0  0  0  0  0  0  0  0  0  0
   -6.0940   17.4890  -31.1560 C   0  0  0  0  0  0  0  0  0  0  0  0
   -6.4073   17.8338  -30.1595 H   0  0  0  0  0  0  0  0  0  0  0  0
   -6.3385   16.4224  -31.2685 H   0  0  0  0  0  0  0  0  0  0  0  0
   -5.0089   17.6303  -31.2685 H   0  0  0  0  0  0  0  0  0  0  0  0
   -7.5670   17.3330  -33.0820 C   0  0  0  0  0  0  0  0  0  0  0  0
   -8.2335   16.7296  -32.4482 H   0  0  0  0  0  0  0  0  0  0  0  0
   -8.1151   17.9498  -33.8094 H   0  0  0  0  0  0  0  0  0  0  0  0
   -6.6720   16.3720  -33.8980 C   0  0  0  0  0  0  0  0  0  0  0  0
   -6.4325   15.5006  -33.2709 H   0  0  0  0  0  0  0  0  0  0  0  0
   -7.2339   16.0905  -34.8008 H   0  0  0  0  0  0  0  0  0  0  0  0
   -5.3570   17.0150  -34.3620 C   0  0  0  0  0  0  0  0  0  0  0  0
   -4.5523   16.7253  -33.6703 H   0  0  0  0  0  0  0  0  0  0  0  0
   -5.1379   16.6634  -35.3810 H   0  0  0  0  0  0  0  0  0  0  0  0
   -5.4660   18.5340  -34.3890 C   0  0  0  0  0  0  0  0  0  0  0  0
   -4.4991   18.9553  -34.7016 H   0  0  0  0  0  0  0  0  0  0  0  0
   -6.2626   18.8081  -35.0963 H   0  0  0  0  0  0  0  0  0  0  0  0
   -5.8360   19.1050  -33.0020 C   0  0  0  0  0  0  0  0  0  0  0  0
   -4.9099   19.2014  -32.4162 H   0  0  0  0  0  0  0  0  0  0  0  0
   -6.3391   20.0645  -33.1926 H   0  0  0  0  0  0  0  0  0  0  0  0
   -5.9000   21.8500  -31.7380 C   0  0  0  0  0  0  0  0  0  0  0  0
   -5.4140   21.1077  -32.3883 H   0  0  0  0  0  0  0  0  0  0  0  0
   -5.1090   22.6410  -30.8800 C   0  0  0  0  0  0  0  0  0  0  0  0
   -3.6830   22.6690  -30.9010 C   0  0  0  0  0  0  0  0  0  0  0  0
   -2.9570   22.4170  -31.9660 N   0  0  0  0  0  0  0  0  0  0  0  0
   -2.9680   21.3650  -32.9830 C   0  0  0  0  0  0  0  0  0  0  0  0
   -2.2468   21.6257  -33.7716 H   0  0  0  0  0  0  0  0  0  0  0  0
   -3.9889   21.2924  -33.3861 H   0  0  0  0  0  0  0  0  0  0  0  0
   -2.5920   20.0030  -32.4010 C   0  0  0  0  0  0  0  0  0  0  0  0
   -2.6069   20.0569  -31.3024 H   0  0  0  0  0  0  0  0  0  0  0  0
   -3.3150   19.2468  -32.7408 H   0  0  0  0  0  0  0  0  0  0  0  0
   -1.5835   19.7248  -32.7408 H   0  0  0  0  0  0  0  0  0  0  0  0
   -2.9990   23.1820  -29.7600 C   0  0  0  0  0  0  0  0  0  0  0  0
   -1.6030   23.0340  -29.5730 C   0  0  0  0  0  0  0  0  0  0  0  0
   -0.8530   22.1000  -30.3650 N   0  0  0  0  0  0  0  0  0  0  0  0
   -0.6930   22.3140  -31.3760 H   0  0  0  0  0  0  0  0  0  0  0  0
   -0.1670   20.9760  -29.7260 C   0  0  0  0  0  0  0  0  0  0  0  0
    0.3878   20.4132  -30.4911 H   0  0  0  0  0  0  0  0  0  0  0  0
    0.5177   21.3757  -28.9635 H   0  0  0  0  0  0  0  0  0  0  0  0
   -1.1600   20.0360  -29.0380 C   0  0  0  0  0  0  0  0  0  0  0  0
   -1.9881   19.8162  -29.7278 H   0  0  0  0  0  0  0  0  0  0  0  0
   -0.6392   19.1069  -28.7633 H   0  0  0  0  0  0  0  0  0  0  0  0
   -1.7020   20.6640  -27.8090 N   0  0  0  0  0  0  0  0  0  0  0  0
   -0.6830   20.7690  -26.7330 C   0  0  0  0  0  0  0  0  0  0  0  0
   -0.7146   19.8437  -26.1391 H   0  0  0  0  0  0  0  0  0  0  0  0
    0.2836   20.9277  -27.2335 H   0  0  0  0  0  0  0  0  0  0  0  0
   -0.8800   21.9580  -25.7790 C   0  0  0  0  0  0  0  0  0  0  0  0
   -0.8218   21.6066  -24.7383 H   0  0  0  0  0  0  0  0  0  0  0  0
   -0.0935   22.7059  -25.9580 H   0  0  0  0  0  0  0  0  0  0  0  0
   -1.8657   22.4123  -25.9580 H   0  0  0  0  0  0  0  0  0  0  0  0
   -2.9820   20.0490  -27.3900 C   0  0  0  0  0  0  0  0  0  0  0  0
   -3.6355   20.8337  -26.9811 H   0  0  0  0  0  0  0  0  0  0  0  0
   -3.4342   19.5730  -28.2726 H   0  0  0  0  0  0  0  0  0  0  0  0
   -2.7800   18.9700  -26.3240 C   0  0  0  0  0  0  0  0  0  0  0  0
   -2.8645   19.4216  -25.3245 H   0  0  0  0  0  0  0  0  0  0  0  0
   -3.5479   18.1911  -26.4406 H   0  0  0  0  0  0  0  0  0  0  0  0
   -1.7823   18.5216  -26.4406 H   0  0  0  0  0  0  0  0  0  0  0  0
   -0.9510   23.7840  -28.5770 C   0  0  0  0  0  0  0  0  0  0  0  0
    0.4450   23.6940  -28.4130 C   0  0  0  0  0  0  0  0  0  0  0  0
    1.0217   22.9927  -29.0339 H   0  0  0  0  0  0  0  0  0  0  0  0
    1.1010   24.4810  -27.4760 C   0  0  0  0  0  0  0  0  0  0  0  0
    2.1823   24.3585  -27.3154 H   0  0  0  0  0  0  0  0  0  0  0  0
    0.3930   25.4220  -26.7420 C   0  0  0  0  0  0  0  0  0  0  0  0
    0.9275   26.0704  -26.0321 H   0  0  0  0  0  0  0  0  0  0  0  0
   -0.9970   25.5580  -26.8930 C   0  0  0  0  0  0  0  0  0  0  0  0
   -1.6230   26.7820  -26.2670 C   0  0  0  0  0  0  0  0  0  0  0  0
   -1.5793   26.6965  -25.1712 H   0  0  0  0  0  0  0  0  0  0  0  0
   -1.0732   27.6794  -26.5870 H   0  0  0  0  0  0  0  0  0  0  0  0
   -2.6724   26.8615  -26.5870 H   0  0  0  0  0  0  0  0  0  0  0  0
   -1.7100   24.6350  -27.7260 C   0  0  0  0  0  0  0  0  0  0  0  0
   -3.0880   24.5240  -27.7390 N   0  0  0  0  0  0  0  0  0  0  0  0
   -3.9090   24.9250  -26.5790 C   0  0  0  0  0  0  0  0  0  0  0  0
   -3.3808   24.6670  -25.6492 H   0  0  0  0  0  0  0  0  0  0  0  0
   -4.0847   26.0104  -26.6118 H   0  0  0  0  0  0  0  0  0  0  0  0
   -4.8731   24.3963  -26.6118 H   0  0  0  0  0  0  0  0  0  0  0  0
   -3.7260   23.9100  -28.7910 C   0  0  0  0  0  0  0  0  0  0  0  0
   -5.0770   24.0070  -28.9080 N   0  0  0  0  0  0  0  0  0  0  0  0
   -5.7780   23.4010  -29.8920 C   0  0  0  0  0  0  0  0  0  0  0  0
   -7.1730   23.5160  -29.9050 C   0  0  0  0  0  0  0  0  0  0  0  0
   -7.6780   24.1396  -29.1526 H   0  0  0  0  0  0  0  0  0  0  0  0
  1  2  1  0
  2  3  2  0
  3  4  1  0
  4  5  1  0
  5  6  1  0
  5  7  1  0
  5  8  1  0
  8  9  1  0
  8 10  1  0
  8 11  1  0
 11 12  1  0
 12 13  1  0
 12 14  1  0
 12 15  1  0
 11 16  1  0
 16 17  1  0
 16 18  1  0
 16 19  1  0
 19 20  1  0
 19 21  1  0
 19 22  1  0
 22 23  1  0
 22 24  1  0
 22 25  1  0
 25 26  1  0
 25 27  1  0
 25 28  1  0
 28 29  1  0
 28 30  1  0
  3 31  1  0
 31 32  1  0
 31 33  2  0
 33 34  1  0
 34 35  2  0
 35 36  1  0
 36 37  1  0
 36 38  1  0
 36 39  1  0
 39 40  1  0
 39 41  1  0
 39 42  1  0
 34 43  1  0
 43 44  2  0
 44 45  1  0
 45 46  1  0
 45 47  1  0
 47 48  1  0
 47 49  1  0
 47 50  1  0
 50 51  1  0
 50 52  1  0
 50 53  1  0
 53 54  1  0
 54 55  1  0
 54 56  1  0
 54 57  1  0
 57 58  1  0
 57 59  1  0
 57 60  1  0
 53 61  1  0
 61 62  1  0
 61 63  1  0
 61 64  1  0
 64 65  1  0
 64 66  1  0
 64 67  1  0
 44 68  1  0
 68 69  2  0
 69 70  1  0
 69 71  1  0
 71 72  1  0
 71 73  2  0
 73 74  1  0
 73 75  1  0
 75 76  1  0
 76 77  1  0
 76 78  1  0
 76 79  1  0
 75 80  2  0
 80 81  1  0
 81 82  1  0
 82 83  1  0
 82 84  1  0
 82 85  1  0
 81 86  2  0
 86 87  1  0
 87 88  1  0
 88 89  2  0
 89 90  1  0
 89  2  1  0
 28 11  1  0
 88 33  1  0
 86 43  1  0
 80 68  1  0
M  CHG  3  11   1  81   1  87  -1
M  END
>  <UniqueID>  (7) 
7

>  <SMILES>  (7) 
CC/N=c1\c2cc(OCC[N+]3(C)CCCCC3)ccc2[n-]c2c1c(NCCN(CC)CC)c1cccc(C)c1[n+]2C

>  <Energy>  (7) 
165.68547998134022

>  <Genealogy>  (7) 
CCN=c1c2cc(OCC[N+]3(C)CCCCC3)ccc2[n-]c2c1c(NCCN(CC)CC)c1cccc(C)c1[n+]2C (protonated)
CC/N=c1\c2cc(OCC[N+]3(C)CCCCC3)ccc2[n-]c2c1c(NCCN(CC)CC)c1cccc(C)c1[n+]2C (cis-trans isomerization)
CC/N=c1\c2cc(OCC[N+]3(C)CCCCC3)ccc2[n-]c2c1c(NCCN(CC)CC)c1cccc(C)c1[n+]2C (3D coordinates assigned)
CC/N=c1\c2cc(OCC[N+]3(C)CCCCC3)ccc2[n-]c2c1c(NCCN(CC)CC)c1cccc(C)c1[n+]2C (nonaromatic ring conformer: 165.68547998134022 kcal/mol)

>  <smiles>  (7) 
CCN=c1c2cc(OCC[N+]3(C)CCCCC3)ccc2[nH]c2c1c(NCCN(CC)CC)c1cccc(C)c1[n+]2C

>  <score_type>  (7) 
oracle

>  <origin>  (7) 
adg

>  <m_score__min__energy>  (7) 
-9.2200000000000006

>  <m_primary>  (7) 
energy

$$$$
7:0
     RDKit          3D

 44 47  0  0  0  0  0  0  0  0999 V2000
   -5.7980   25.0010  -29.6750 C   0  0  0  0  0  0  0  0  0  0  0  0
   -4.6550   23.9910  -29.6970 C   0  0  0  0  0  0  0  0  0  0  0  0
   -4.3160   23.6420  -31.0260 O   0  0  0  0  0  0  0  0  0  0  0  0
   -5.4560   23.5360  -31.8620 C   0  0  0  0  0  0  0  0  0  0  0  0
   -5.6450   22.1060  -32.3580 C   0  0  0  0  0  0  0  0  0  0  0  0
   -4.5420   21.3330  -32.8000 C   0  0  0  0  0  0  0  0  0  0  0  0
   -4.7360   19.9690  -33.1210 C   0  0  0  0  0  0  0  0  0  0  0  0
   -6.0080   19.4630  -33.2660 N   0  0  0  0  0  0  0  0  0  0  0  0
   -6.2160   18.1970  -34.0000 C   0  0  0  0  0  0  0  0  0  0  0  0
   -7.0920   20.1670  -32.7840 C   0  0  0  0  0  0  0  0  0  0  0  0
   -8.3780   19.5720  -32.7060 C   0  0  0  0  0  0  0  0  0  0  0  0
   -9.4760   20.2880  -32.2340 C   0  0  0  0  0  0  0  0  0  0  0  0
   -9.3230   21.6030  -31.8190 C   0  0  0  0  0  0  0  0  0  0  0  0
   -8.0700   22.2070  -31.8570 C   0  0  0  0  0  0  0  0  0  0  0  0
   -6.9320   21.5060  -32.3270 C   0  0  0  0  0  0  0  0  0  0  0  0
   -3.5210   19.1060  -33.2630 C   0  0  0  0  0  0  0  0  0  0  0  0
   -3.5720   17.7730  -32.9800 N   0  0  0  0  0  0  0  0  0  0  0  0
   -2.4760   16.9740  -33.0570 C   0  0  0  0  0  0  0  0  0  0  0  0
   -1.2420   17.5150  -33.4200 C   0  0  0  0  0  0  0  0  0  0  0  0
   -1.1470   18.8820  -33.6830 C   0  0  0  0  0  0  0  0  0  0  0  0
   -2.2860   19.6910  -33.5800 C   0  0  0  0  0  0  0  0  0  0  0  0
   -2.2220   21.1640  -33.8380 C   0  0  0  0  0  0  0  0  0  0  0  0
   -3.1320   21.9140  -32.8590 C   0  0  0  0  0  0  0  0  0  0  0  0
   -6.0615   25.2339  -28.6327 H   0  0  0  0  0  0  0  0  0  0  0  0
   -5.4836   25.9218  -30.1882 H   0  0  0  0  0  0  0  0  0  0  0  0
   -6.6731   24.5757  -30.1882 H   0  0  0  0  0  0  0  0  0  0  0  0
   -3.7755   24.4314  -29.2046 H   0  0  0  0  0  0  0  0  0  0  0  0
   -4.9775   23.0831  -29.1662 H   0  0  0  0  0  0  0  0  0  0  0  0
   -6.3474   23.8393  -31.2934 H   0  0  0  0  0  0  0  0  0  0  0  0
   -5.3108   24.1908  -32.7338 H   0  0  0  0  0  0  0  0  0  0  0  0
   -6.3511   17.3748  -33.2819 H   0  0  0  0  0  0  0  0  0  0  0  0
   -7.1121   18.2827  -34.6322 H   0  0  0  0  0  0  0  0  0  0  0  0
   -5.3396   17.9914  -34.6322 H   0  0  0  0  0  0  0  0  0  0  0  0
   -8.5102   18.5272  -33.0238 H   0  0  0  0  0  0  0  0  0  0  0  0
  -10.4657   19.8100  -32.1903 H   0  0  0  0  0  0  0  0  0  0  0  0
  -10.1944   22.1696  -31.4590 H   0  0  0  0  0  0  0  0  0  0  0  0
   -7.9611   23.2472  -31.5161 H   0  0  0  0  0  0  0  0  0  0  0  0
   -2.5613   15.9004  -32.8332 H   0  0  0  0  0  0  0  0  0  0  0  0
   -0.3538   16.8708  -33.4980 H   0  0  0  0  0  0  0  0  0  0  0  0
   -0.1810   19.3229  -33.9702 H   0  0  0  0  0  0  0  0  0  0  0  0
   -1.1860   21.5106  -33.7091 H   0  0  0  0  0  0  0  0  0  0  0  0
   -2.5600   21.3629  -34.8657 H   0  0  0  0  0  0  0  0  0  0  0  0
   -2.6874   21.8606  -31.8543 H   0  0  0  0  0  0  0  0  0  0  0  0
   -3.2157   22.9521  -33.2130 H   0  0  0  0  0  0  0  0  0  0  0  0
  1  2  1  0
  2  3  1  0
  3  4  1  0
  4  5  1  0
  5  6  2  0
  6  7  1  0
  7  8  2  0
  8  9  1  0
  8 10  1  0
 10 11  2  0
 11 12  1  0
 12 13  2  0
 13 14  1  0
 14 15  2  0
  7 16  1  0
 16 17  2  0
 17 18  1  0
 18 19  2  0
 19 20  1  0
 20 21  2  0
 21 22  1  0
 22 23  1  0
 15  5  1  0
 21 16  1  0
 23  6  1  0
 15 10  1  0
  1 24  1  0
  1 25  1  0
  1 26  1  0
  2 27  1  0
  2 28  1  0
  4 29  1  0
  4 30  1  0
  9 31  1  0
  9 32  1  0
  9 33  1  0
 11 34  1  0
 12 35  1  0
 13 36  1  0
 14 37  1  0
 18 38  1  0
 19 39  1  0
 20 40  1  0
 22 41  1  0
 22 42  1  0
 23 43  1  0
 23 44  1  0
M  CHG  1   8   1
M  END
>  <UniqueID>  (8) 
8

>  <SMILES>  (8) 
CCOCc1c2c([n+](C)c3ccccc13)-c1ncccc1CC2

>  <Energy>  (8) 
76.607568925306

>  <Genealogy>  (8) 
CCOCc1c2c([n+](C)c3ccccc13)-c1ncccc1CC2 (3D coordinates assigned)
CCOCc1c2c([n+](C)c3ccccc13)-c1ncccc1CC2 (nonaromatic ring conformer: 76.607568925306 kcal/mol)

>  <smiles>  (8) 
CCOCc1c2c([n+](C)c3ccccc13)-c1ncccc1CC2

>  <score_type>  (8) 
oracle

>  <origin>  (8) 
adg

>  <m_score__min__energy>  (8) 
-8.1500000000000004

>  <m_primary>  (8) 
energy

$$$$
8:0
     RDKit          3D

 48 51  0  0  0  0  0  0  0  0999 V2000
   -1.8340   24.2310  -29.2230 C   0  0  0  0  0  0  0  0  0  0  0  0
   -3.3170   24.5340  -29.0520 C   0  0  0  0  0  0  0  0  0  0  0  0
   -3.8480   25.1300  -30.2330 O   0  0  0  0  0  0  0  0  0  0  0  0
   -5.0950   24.7950  -30.7770 C   0  0  0  0  0  0  0  0  0  0  0  0
   -6.0190   25.6540  -30.7960 O   0  0  0  0  0  0  0  0  0  0  0  0
   -5.3380   23.4320  -31.3250 C   0  0  0  0  0  0  0  0  0  0  0  0
   -6.6540   22.9660  -31.4660 C   0  0  0  0  0  0  0  0  0  0  0  0
   -6.9270   21.7100  -31.9330 N   0  0  0  0  0  0  0  0  0  0  0  0
   -8.3430   21.3000  -32.0190 C   0  0  0  0  0  0  0  0  0  0  0  0
   -9.3560   22.4420  -31.9590 C   0  0  0  0  0  0  0  0  0  0  0  0
   -9.1440   21.5600  -30.7460 C   0  0  0  0  0  0  0  0  0  0  0  0
   -5.9100   20.9000  -32.3910 C   0  0  0  0  0  0  0  0  0  0  0  0
   -6.1710   19.6520  -33.0050 C   0  0  0  0  0  0  0  0  0  0  0  0
   -5.1280   18.8240  -33.4410 C   0  0  0  0  0  0  0  0  0  0  0  0
   -5.4190   17.5520  -34.0440 N   0  0  0  0  0  0  0  0  0  0  0  0
   -4.5500   17.0070  -35.0920 C   0  0  0  0  0  0  0  0  0  0  0  0
   -4.2460   15.5160  -34.8350 C   0  0  0  0  0  0  0  0  0  0  0  0
   -5.2770   14.8230  -34.0350 N   0  0  0  0  0  0  0  0  0  0  0  0
   -6.6140   15.4010  -34.2200 C   0  0  0  0  0  0  0  0  0  0  0  0
   -6.6530   16.8400  -33.6920 C   0  0  0  0  0  0  0  0  0  0  0  0
   -3.8020   19.2390  -33.2700 C   0  0  0  0  0  0  0  0  0  0  0  0
   -2.7760   18.4340  -33.6480 F   0  0  0  0  0  0  0  0  0  0  0  0
   -3.5210   20.4760  -32.6950 C   0  0  0  0  0  0  0  0  0  0  0  0
   -4.5620   21.3220  -32.2630 C   0  0  0  0  0  0  0  0  0  0  0  0
   -4.2820   22.5870  -31.7150 C   0  0  0  0  0  0  0  0  0  0  0  0
   -3.0850   22.9660  -31.5870 O   0  0  0  0  0  0  0  0  0  0  0  0
   -1.3630   24.1348  -28.2336 H   0  0  0  0  0  0  0  0  0  0  0  0
   -1.7138   23.2898  -29.7794 H   0  0  0  0  0  0  0  0  0  0  0  0
   -1.3543   25.0497  -29.7794 H   0  0  0  0  0  0  0  0  0  0  0  0
   -3.8558   23.5973  -28.8464 H   0  0  0  0  0  0  0  0  0  0  0  0
   -3.4406   25.2365  -28.2146 H   0  0  0  0  0  0  0  0  0  0  0  0
   -7.4885   23.6288  -31.1936 H   0  0  0  0  0  0  0  0  0  0  0  0
   -8.1787   20.4420  -32.6875 H   0  0  0  0  0  0  0  0  0  0  0  0
   -9.0077   23.4853  -31.9473 H   0  0  0  0  0  0  0  0  0  0  0  0
  -10.2279   22.7390  -32.5603 H   0  0  0  0  0  0  0  0  0  0  0  0
   -8.6422   21.9639  -29.8543 H   0  0  0  0  0  0  0  0  0  0  0  0
   -9.7992   20.9530  -30.1039 H   0  0  0  0  0  0  0  0  0  0  0  0
   -7.2124   19.3257  -33.1426 H   0  0  0  0  0  0  0  0  0  0  0  0
   -5.0518   17.1097  -36.0655 H   0  0  0  0  0  0  0  0  0  0  0  0
   -3.6019   17.5648  -35.0878 H   0  0  0  0  0  0  0  0  0  0  0  0
   -4.1620   15.0074  -35.8067 H   0  0  0  0  0  0  0  0  0  0  0  0
   -3.3123   15.4764  -34.2549 H   0  0  0  0  0  0  0  0  0  0  0  0
   -5.0210   14.8940  -33.0210 H   0  0  0  0  0  0  0  0  0  0  0  0
   -6.8635   15.4013  -35.2913 H   0  0  0  0  0  0  0  0  0  0  0  0
   -7.3440   14.7966  -33.6616 H   0  0  0  0  0  0  0  0  0  0  0  0
   -7.5123   17.3647  -34.1351 H   0  0  0  0  0  0  0  0  0  0  0  0
   -6.7475   16.8137  -32.5964 H   0  0  0  0  0  0  0  0  0  0  0  0
   -2.4753   20.7961  -32.5768 H   0  0  0  0  0  0  0  0  0  0  0  0
  1  2  1  0
  2  3  1  0
  3  4  1  0
  4  5  2  0
  4  6  1  0
  6  7  2  0
  7  8  1  0
  8  9  1  0
  9 10  1  0
 10 11  1  0
  8 12  1  0
 12 13  2  0
 13 14  1  0
 14 15  1  0
 15 16  1  0
 16 17  1  0
 17 18  1  0
 18 19  1  0
 19 20  1  0
 14 21  2  0
 21 22  1  0
 21 23  1  0
 23 24  2  0
 24 25  1  0
 25 26  2  0
 25  6  1  0
 11  9  1  0
 24 12  1  0
 20 15  1  0
  1 27  1  0
  1 28  1  0
  1 29  1  0
  2 30  1  0
  2 31  1  0
  7 32  1  0
  9 33  1  0
 10 34  1  0
 10 35  1  0
 11 36  1  0
 11 37  1  0
 13 38  1  0
 16 39  1  0
 16 40  1  0
 17 41  1  0
 17 42  1  0
 18 43  1  0
 19 44  1  0
 19 45  1  0
 20 46  1  0
 20 47  1  0
 23 48  1  0
M  END
>  <UniqueID>  (9) 
9

>  <SMILES>  (9) 
CCOC(=O)c1cn(C2CC2)c2cc(N3CCNCC3)c(F)cc2c1=O

>  <Energy>  (9) 
331.71291588279445

>  <Genealogy>  (9) 
CCOC(=O)c1cn(C2CC2)c2cc(N3CCNCC3)c(F)cc2c1=O (3D coordinates assigned)
CCOC(=O)c1cn(C2CC2)c2cc(N3CCNCC3)c(F)cc2c1=O (nonaromatic ring conformer: 331.71291588279445 kcal/mol)

>  <smiles>  (9) 
CCOC(=O)c1cn(C2CC2)c2cc(N3CCNCC3)c(F)cc2c1=O

>  <score_type>  (9) 
oracle

>  <origin>  (9) 
adg

>  <m_score__min__energy>  (9) 
-8.7200000000000006

>  <m_primary>  (9) 
energy

$$$$
9:0
     RDKit          3D

 40 41  0  0  0  0  0  0  0  0999 V2000
   -8.7800   18.3660  -31.8390 C   0  0  0  0  0  0  0  0  0  0  0  0
   -9.2180   19.6410  -32.2500 O   0  0  0  0  0  0  0  0  0  0  0  0
   -9.1080   20.5450  -31.1700 C   0  0  0  0  0  0  0  0  0  0  0  0
   -8.7910   21.9520  -31.6840 C   0  0  0  0  0  0  0  0  0  0  0  0
   -7.3780   22.3060  -31.4160 N   0  0  0  0  0  0  0  0  0  0  0  0
   -7.2350   23.4760  -30.5130 C   0  0  0  0  0  0  0  0  0  0  0  0
   -5.7970   23.8390  -30.1930 C   0  0  0  0  0  0  0  0  0  0  0  0
   -5.0580   23.0760  -29.2750 C   0  0  0  0  0  0  0  0  0  0  0  0
   -3.7350   23.4130  -28.9860 C   0  0  0  0  0  0  0  0  0  0  0  0
   -3.1630   24.5230  -29.6060 C   0  0  0  0  0  0  0  0  0  0  0  0
   -3.8940   25.2710  -30.4720 N   0  0  0  0  0  0  0  0  0  0  0  0
   -5.1840   24.9610  -30.7740 C   0  0  0  0  0  0  0  0  0  0  0  0
   -6.5770   22.4170  -32.6560 C   0  0  0  0  0  0  0  0  0  0  0  0
   -5.8590   21.1300  -32.9570 C   0  0  0  0  0  0  0  0  0  0  0  0
   -6.4600   19.9800  -33.4340 C   0  0  0  0  0  0  0  0  0  0  0  0
   -5.4600   19.0340  -33.5460 C   0  0  0  0  0  0  0  0  0  0  0  0
   -4.2920   19.6360  -33.1240 C   0  0  0  0  0  0  0  0  0  0  0  0
   -4.5420   20.9070  -32.7510 N   0  0  0  0  0  0  0  0  0  0  0  0
   -3.5500   21.8580  -32.2560 C   0  0  0  0  0  0  0  0  0  0  0  0
   -8.7643   18.3203  -30.7401 H   0  0  0  0  0  0  0  0  0  0  0  0
   -9.4663   17.5995  -32.2281 H   0  0  0  0  0  0  0  0  0  0  0  0
   -7.7675   18.1831  -32.2281 H   0  0  0  0  0  0  0  0  0  0  0  0
  -10.0585   20.5665  -30.6167 H   0  0  0  0  0  0  0  0  0  0  0  0
   -8.2938   20.2142  -30.5084 H   0  0  0  0  0  0  0  0  0  0  0  0
   -8.9722   21.9887  -32.7684 H   0  0  0  0  0  0  0  0  0  0  0  0
   -9.4390   22.6715  -31.1619 H   0  0  0  0  0  0  0  0  0  0  0  0
   -7.7116   24.3433  -30.9932 H   0  0  0  0  0  0  0  0  0  0  0  0
   -7.7126   23.2021  -29.5607 H   0  0  0  0  0  0  0  0  0  0  0  0
   -5.5233   22.2098  -28.7820 H   0  0  0  0  0  0  0  0  0  0  0  0
   -3.1498   22.8094  -28.2767 H   0  0  0  0  0  0  0  0  0  0  0  0
   -2.1181   24.7932  -29.3934 H   0  0  0  0  0  0  0  0  0  0  0  0
   -5.7490   25.5918  -31.4761 H   0  0  0  0  0  0  0  0  0  0  0  0
   -7.2461   22.6592  -33.4948 H   0  0  0  0  0  0  0  0  0  0  0  0
   -5.8272   23.2097  -32.5164 H   0  0  0  0  0  0  0  0  0  0  0  0
   -7.5244   19.8451  -33.6764 H   0  0  0  0  0  0  0  0  0  0  0  0
   -5.5728   17.9996  -33.9029 H   0  0  0  0  0  0  0  0  0  0  0  0
   -3.3050   19.1513  -33.0962 H   0  0  0  0  0  0  0  0  0  0  0  0
   -3.5547   21.8535  -31.1560 H   0  0  0  0  0  0  0  0  0  0  0  0
   -2.5526   21.5700  -32.6196 H   0  0  0  0  0  0  0  0  0  0  0  0
   -3.7957   22.8667  -32.6196 H   0  0  0  0  0  0  0  0  0  0  0  0
  1  2  1  0
  2  3  1  0
  3  4  1  0
  4  5  1  0
  5  6  1  0
  6  7  1  0
  7  8  2  0
  8  9  1  0
  9 10  2  0
 10 11  1  0
 11 12  2  0
  5 13  1  0
 13 14  1  0
 14 15  2  0
 15 16  1  0
 16 17  2  0
 17 18  1  0
 18 19  1  0
 12  7  1  0
 18 14  1  0
  1 20  1  0
  1 21  1  0
  1 22  1  0
  3 23  1  0
  3 24  1  0
  4 25  1  0
  4 26  1  0
  6 27  1  0
  6 28  1  0
  8 29  1  0
  9 30  1  0
 10 31  1  0
 12 32  1  0
 13 33  1  0
 13 34  1  0
 15 35  1  0
 16 36  1  0
 17 37  1  0
 19 38  1  0
 19 39  1  0
 19 40  1  0
M  END
>  <UniqueID>  (10) 
10

>  <SMILES>  (10) 
COCCN(Cc1cccnc1)Cc1cccn1C

>  <Energy>  (10) 
68.53723396312813

>  <Genealogy>  (10) 
COCCN(Cc1cccnc1)Cc1cccn1C (3D coordinates assigned)
COCCN(Cc1cccnc1)Cc1cccn1C (optimized conformer: 68.53723396312813 kcal/mol)

>  <smiles>  (10) 
COCCN(Cc1cccnc1)Cc1cccn1C

>  <score_type>  (10) 
oracle

>  <origin>  (10) 
adg

>  <m_score__min__energy>  (10) 
-6.5199999999999996

>  <m_primary>  (10) 
energy

$$$$
10:0
     RDKit          3D

 54 57  0  0  0  0  0  0  0  0999 V2000
   -9.4790   21.5900  -30.7560 C   0  0  0  0  0  0  0  0  0  0  0  0
   -9.1990   20.6690  -31.8050 O   0  0  0  0  0  0  0  0  0  0  0  0
   -7.9110   20.3750  -32.2780 C   0  0  0  0  0  0  0  0  0  0  0  0
   -7.6360   19.2300  -33.0470 C   0  0  0  0  0  0  0  0  0  0  0  0
   -6.3410   18.9860  -33.5090 C   0  0  0  0  0  0  0  0  0  0  0  0
   -5.3040   19.8720  -33.2010 C   0  0  0  0  0  0  0  0  0  0  0  0
   -4.0550   19.6320  -33.6780 N   0  0  0  0  0  0  0  0  0  0  0  0
   -3.0040   20.4570  -33.4250 C   0  0  0  0  0  0  0  0  0  0  0  0
   -1.6710   20.1270  -33.9920 C   0  0  0  0  0  0  0  0  0  0  0  0
   -0.7270   21.1500  -34.2020 C   0  0  0  0  0  0  0  0  0  0  0  0
    0.5280   20.8580  -34.7420 C   0  0  0  0  0  0  0  0  0  0  0  0
    0.8550   19.5450  -35.0850 C   0  0  0  0  0  0  0  0  0  0  0  0
   -0.0760   18.5210  -34.8940 C   0  0  0  0  0  0  0  0  0  0  0  0
   -1.3340   18.8070  -34.3540 C   0  0  0  0  0  0  0  0  0  0  0  0
   -3.2110   21.6080  -32.6460 C   0  0  0  0  0  0  0  0  0  0  0  0
   -4.4780   21.8820  -32.1140 C   0  0  0  0  0  0  0  0  0  0  0  0
   -4.6330   23.0750  -31.2540 C   0  0  0  0  0  0  0  0  0  0  0  0
   -5.2610   24.0720  -31.7030 O   0  0  0  0  0  0  0  0  0  0  0  0
   -4.0620   23.1260  -29.9320 N   0  0  0  0  0  0  0  0  0  0  0  0
   -2.9210   22.2770  -29.5650 C   0  0  0  0  0  0  0  0  0  0  0  0
   -2.0340   23.0140  -28.5550 C   0  0  0  0  0  0  0  0  0  0  0  0
   -2.7690   23.4270  -27.3300 N   0  0  0  0  0  0  0  0  0  0  0  0
   -2.1540   24.6170  -26.6980 C   0  0  0  0  0  0  0  0  0  0  0  0
   -1.2810   25.4010  -27.6880 C   0  0  0  0  0  0  0  0  0  0  0  0
   -1.9910   25.6750  -28.8660 O   0  0  0  0  0  0  0  0  0  0  0  0
   -4.2300   23.6130  -27.5260 C   0  0  0  0  0  0  0  0  0  0  0  0
   -4.5910   24.0720  -28.9440 C   0  0  0  0  0  0  0  0  0  0  0  0
   -5.5560   21.0140  -32.4080 C   0  0  0  0  0  0  0  0  0  0  0  0
   -6.8730   21.2620  -31.9710 C   0  0  0  0  0  0  0  0  0  0  0  0
   -9.3288   21.0961  -29.7846 H   0  0  0  0  0  0  0  0  0  0  0  0
   -8.8029   22.4540  -30.8364 H   0  0  0  0  0  0  0  0  0  0  0  0
  -10.5216   21.9315  -30.8364 H   0  0  0  0  0  0  0  0  0  0  0  0
   -8.4447   18.5235  -33.2856 H   0  0  0  0  0  0  0  0  0  0  0  0
   -6.1358   18.0931  -34.1178 H   0  0  0  0  0  0  0  0  0  0  0  0
   -0.9796   22.1878  -33.9388 H   0  0  0  0  0  0  0  0  0  0  0  0
    1.2599   21.6644  -34.8972 H   0  0  0  0  0  0  0  0  0  0  0  0
    1.8454   19.3166  -35.5056 H   0  0  0  0  0  0  0  0  0  0  0  0
    0.1810   17.4874  -35.1690 H   0  0  0  0  0  0  0  0  0  0  0  0
   -2.0646   17.9972  -34.2109 H   0  0  0  0  0  0  0  0  0  0  0  0
   -2.3752   22.2966  -32.4531 H   0  0  0  0  0  0  0  0  0  0  0  0
   -3.2895   21.3432  -29.1153 H   0  0  0  0  0  0  0  0  0  0  0  0
   -2.3336   22.0458  -30.4659 H   0  0  0  0  0  0  0  0  0  0  0  0
   -1.2092   22.3481  -28.2613 H   0  0  0  0  0  0  0  0  0  0  0  0
   -1.6684   23.9290  -29.0439 H   0  0  0  0  0  0  0  0  0  0  0  0
   -2.9528   25.2765  -26.3279 H   0  0  0  0  0  0  0  0  0  0  0  0
   -1.5118   24.2730  -25.8738 H   0  0  0  0  0  0  0  0  0  0  0  0
   -0.9715   26.3492  -27.2241 H   0  0  0  0  0  0  0  0  0  0  0  0
   -0.3992   24.7935  -27.9398 H   0  0  0  0  0  0  0  0  0  0  0  0
   -2.9080   25.3180  -28.7350 H   0  0  0  0  0  0  0  0  0  0  0  0
   -4.7348   22.6559  -27.3283 H   0  0  0  0  0  0  0  0  0  0  0  0
   -4.5573   24.4011  -26.8319 H   0  0  0  0  0  0  0  0  0  0  0  0
   -5.6854   24.1251  -29.0413 H   0  0  0  0  0  0  0  0  0  0  0  0
   -4.1498   25.0634  -29.1239 H   0  0  0  0  0  0  0  0  0  0  0  0
   -7.0878   22.1650  -31.3807 H   0  0  0  0  0  0  0  0  0  0  0  0
  1  2  1  0
  2  3  1  0
  3  4  2  0
  4  5  1  0
  5  6  2  0
  6  7  1  0
  7  8  2  0
  8  9  1  0
  9 10  2  0
 10 11  1  0
 11 12  2  0
 12 13  1  0
 13 14  2  0
  8 15  1  0
 15 16  2  0
 16 17  1  0
 17 18  2  0
 17 19  1  0
 19 20  1  0
 20 21  1  0
 21 22  1  0
 22 23  1  0
 23 24  1  0
 24 25  1  0
 22 26  1  0
 26 27  1  0
 16 28  1  0
 28 29  2  0
 29  3  1  0
 28  6  1  0
 14  9  1  0
 27 19  1  0
  1 30  1  0
  1 31  1  0
  1 32  1  0
  4 33  1  0
  5 34  1  0
 10 35  1  0
 11 36  1  0
 12 37  1  0
 13 38  1  0
 14 39  1  0
 15 40  1  0
 20 41  1  0
 20 42  1  0
 21 43  1  0
 21 44  1  0
 23 45  1  0
 23 46  1  0
 24 47  1  0
 24 48  1  0
 25 49  1  0
 26 50  1  0
 26 51  1  0
 27 52  1  0
 27 53  1  0
 29 54  1  0
M  END
>  <UniqueID>  (11) 
11

>  <SMILES>  (11) 
COc1ccc2nc(-c3ccccc3)cc(C(=O)N3CCN(CCO)CC3)c2c1

>  <Energy>  (11) 
77.17033440643804

>  <Genealogy>  (11) 
COc1ccc2nc(-c3ccccc3)cc(C(=O)N3CCN(CCO)CC3)c2c1 (3D coordinates assigned)
COc1ccc2nc(-c3ccccc3)cc(C(=O)N3CCN(CCO)CC3)c2c1 (nonaromatic ring conformer: 77.17033440643804 kcal/mol)

>  <smiles>  (11) 
COc1ccc2nc(-c3ccccc3)cc(C(=O)N3CCN(CCO)CC3)c2c1

>  <score_type>  (11) 
oracle

>  <origin>  (11) 
adg

>  <m_score__min__energy>  (11) 
-9.2200000000000006

>  <m_primary>  (11) 
energy

$$$$
11:0
     RDKit          3D

 46 46  0  0  0  0  0  0  0  0999 V2000
   -4.6110   14.5260  -32.0310 C   0  0  0  0  0  0  0  0  0  0  0  0
   -4.9880   15.0430  -33.4170 C   0  0  0  0  0  0  0  0  0  0  0  0
   -4.1270   16.2600  -33.8070 C   0  0  0  0  0  0  0  0  0  0  0  0
   -4.7320   17.5580  -33.4080 N   0  0  0  0  0  0  0  0  0  0  0  0
   -3.7560   18.5080  -32.8030 C   0  0  0  0  0  0  0  0  0  0  0  0
   -2.9940   19.3900  -33.8230 C   0  0  0  0  0  0  0  0  0  0  0  0
   -3.0240   20.8760  -33.4710 C   0  0  0  0  0  0  0  0  0  0  0  0
   -5.5070   18.2150  -34.4640 C   0  0  0  0  0  0  0  0  0  0  0  0
   -5.3640   17.8350  -35.6190 O   0  0  0  0  0  0  0  0  0  0  0  0
   -6.4460   19.3910  -34.2410 C   0  0  0  0  0  0  0  0  0  0  0  0
   -6.8000   19.5460  -32.8240 N   0  0  0  0  0  0  0  0  0  0  0  0
   -6.9670   20.8530  -32.2460 C   0  0  0  0  0  0  0  0  0  0  0  0
   -8.2430   21.4380  -32.1550 C   0  0  0  0  0  0  0  0  0  0  0  0
   -8.3990   22.7100  -31.5990 C   0  0  0  0  0  0  0  0  0  0  0  0
   -7.2850   23.4080  -31.1230 C   0  0  0  0  0  0  0  0  0  0  0  0
   -6.0160   22.8310  -31.1980 C   0  0  0  0  0  0  0  0  0  0  0  0
   -5.8560   21.5570  -31.7510 C   0  0  0  0  0  0  0  0  0  0  0  0
   -7.3940   18.1670  -31.9410 S   0  0  0  0  0  0  0  0  0  0  0  0
   -8.9850   18.5580  -31.2480 C   0  0  0  0  0  0  0  0  0  0  0  0
   -7.5450   16.9880  -32.8620 O   0  0  0  0  0  0  0  0  0  0  0  0
   -6.4400   17.8020  -30.8400 O   0  0  0  0  0  0  0  0  0  0  0  0
   -5.0752   15.1626  -31.2634 H   0  0  0  0  0  0  0  0  0  0  0  0
   -4.9688   13.4922  -31.9154 H   0  0  0  0  0  0  0  0  0  0  0  0
   -3.5174   14.5506  -31.9154 H   0  0  0  0  0  0  0  0  0  0  0  0
   -4.8324   14.2415  -34.1542 H   0  0  0  0  0  0  0  0  0  0  0  0
   -6.0435   15.3522  -33.3999 H   0  0  0  0  0  0  0  0  0  0  0  0
   -3.1467   16.1660  -33.3170 H   0  0  0  0  0  0  0  0  0  0  0  0
   -4.0425   16.2624  -34.9037 H   0  0  0  0  0  0  0  0  0  0  0  0
   -5.4290   17.3380  -32.6570 H   0  0  0  0  0  0  0  0  0  0  0  0
   -4.3036   19.1718  -32.1178 H   0  0  0  0  0  0  0  0  0  0  0  0
   -2.9975   17.8934  -32.2961 H   0  0  0  0  0  0  0  0  0  0  0  0
   -1.9454   19.0595  -33.8569 H   0  0  0  0  0  0  0  0  0  0  0  0
   -3.4945   19.2733  -34.7956 H   0  0  0  0  0  0  0  0  0  0  0  0
   -3.0264   20.9938  -32.3773 H   0  0  0  0  0  0  0  0  0  0  0  0
   -2.1357   21.3703  -33.8911 H   0  0  0  0  0  0  0  0  0  0  0  0
   -3.9316   21.3341  -33.8911 H   0  0  0  0  0  0  0  0  0  0  0  0
   -5.9526   20.3111  -34.5873 H   0  0  0  0  0  0  0  0  0  0  0  0
   -7.3709   19.2015  -34.8055 H   0  0  0  0  0  0  0  0  0  0  0  0
   -9.1230   20.8907  -32.5238 H   0  0  0  0  0  0  0  0  0  0  0  0
   -9.3994   23.1630  -31.5356 H   0  0  0  0  0  0  0  0  0  0  0  0
   -7.4084   24.4114  -30.6896 H   0  0  0  0  0  0  0  0  0  0  0  0
   -5.1403   23.3798  -30.8213 H   0  0  0  0  0  0  0  0  0  0  0  0
   -4.8551   21.1032  -31.7989 H   0  0  0  0  0  0  0  0  0  0  0  0
   -8.9206   18.5422  -30.1500 H   0  0  0  0  0  0  0  0  0  0  0  0
   -9.2948   19.5590  -31.5827 H   0  0  0  0  0  0  0  0  0  0  0  0
   -9.7235   17.8146  -31.5827 H   0  0  0  0  0  0  0  0  0  0  0  0
  1  2  1  0
  2  3  1  0
  3  4  1  0
  4  5  1  0
  5  6  1  0
  6  7  1  0
  4  8  1  0
  8  9  2  0
  8 10  1  0
 10 11  1  0
 11 12  1  0
 12 13  2  0
 13 14  1  0
 14 15  2  0
 15 16  1  0
 16 17  2  0
 11 18  1  0
 18 19  1  0
 18 20  2  0
 18 21  2  0
 17 12  1  0
  1 22  1  0
  1 23  1  0
  1 24  1  0
  2 25  1  0
  2 26  1  0
  3 27  1  0
  3 28  1  0
  4 29  1  0
  5 30  1  0
  5 31  1  0
  6 32  1  0
  6 33  1  0
  7 34  1  0
  7 35  1  0
  7 36  1  0
 10 37  1  0
 10 38  1  0
 13 39  1  0
 14 40  1  0
 15 41  1  0
 16 42  1  0
 17 43  1  0
 19 44  1  0
 19 45  1  0
 19 46  1  0
M  CHG  1   4   1
M  END
>  <UniqueID>  (12) 
12

>  <SMILES>  (12) 
CCC[NH+](CCC)C(=O)CN(c1ccccc1)S(C)(=O)=O

>  <Energy>  (12) 
47.63994869927631

>  <Genealogy>  (12) 
CCC[NH+](CCC)C(=O)CN(c1ccccc1)S(C)(=O)=O (protonated)
CCC[NH+](CCC)C(=O)CN(c1ccccc1)S(C)(=O)=O (3D coordinates assigned)
CCC[NH+](CCC)C(=O)CN(c1ccccc1)S(C)(=O)=O (optimized conformer: 47.63994869927631 kcal/mol)

>  <smiles>  (12) 
CCCN(CCC)C(=O)CN(c1ccccc1)S(C)(=O)=O

>  <score_type>  (12) 
oracle

>  <origin>  (12) 
adg

>  <m_score__min__energy>  (12) 
-6.6600000000000001

>  <m_primary>  (12) 
energy

$$$$
12:0
     RDKit          3D

 55 57  0  0  0  0  0  0  0  0999 V2000
   -4.1160   23.5760  -28.6300 C   0  0  0  0  0  0  0  0  0  0  0  0
   -3.4750   24.4770  -29.6880 C   0  0  0  0  0  0  0  0  0  0  0  0
   -4.3860   24.6970  -30.8400 N   0  0  0  0  0  0  0  0  0  0  0  0
   -5.4490   25.6650  -30.4710 C   0  0  0  0  0  0  0  0  0  0  0  0
   -6.6940   24.9400  -29.9640 C   0  0  0  0  0  0  0  0  0  0  0  0
   -4.9830   23.4090  -31.2720 C   0  0  0  0  0  0  0  0  0  0  0  0
   -3.9250   22.4180  -31.7760 C   0  0  0  0  0  0  0  0  0  0  0  0
   -4.3400   21.7830  -33.0280 N   0  0  0  0  0  0  0  0  0  0  0  0
   -4.3950   20.3500  -33.1670 C   0  0  0  0  0  0  0  0  0  0  0  0
   -3.2560   19.6220  -33.5680 C   0  0  0  0  0  0  0  0  0  0  0  0
   -2.0990   20.2810  -34.0330 C   0  0  0  0  0  0  0  0  0  0  0  0
   -0.9850   19.5580  -34.4540 C   0  0  0  0  0  0  0  0  0  0  0  0
   -1.0130   18.1700  -34.4450 C   0  0  0  0  0  0  0  0  0  0  0  0
   -2.1530   17.4940  -34.0100 C   0  0  0  0  0  0  0  0  0  0  0  0
   -3.2910   18.2010  -33.5460 C   0  0  0  0  0  0  0  0  0  0  0  0
   -4.4230   17.5430  -33.1050 N   0  0  0  0  0  0  0  0  0  0  0  0
   -4.3670   16.0970  -32.7970 C   0  0  0  0  0  0  0  0  0  0  0  0
   -5.6050   18.2400  -32.9420 C   0  0  0  0  0  0  0  0  0  0  0  0
   -6.8440   17.5730  -32.7860 C   0  0  0  0  0  0  0  0  0  0  0  0
   -8.0240   18.2830  -32.5700 C   0  0  0  0  0  0  0  0  0  0  0  0
   -8.0110   19.6770  -32.5140 C   0  0  0  0  0  0  0  0  0  0  0  0
   -9.2850   20.4380  -32.2450 C   0  0  0  0  0  0  0  0  0  0  0  0
   -9.0740   21.5460  -31.2120 C   0  0  0  0  0  0  0  0  0  0  0  0
   -8.5800   23.0770  -31.9830 Cl  0  0  0  0  0  0  0  0  0  0  0  0
   -6.8030   20.3600  -32.6970 C   0  0  0  0  0  0  0  0  0  0  0  0
   -5.6010   19.6600  -32.9380 C   0  0  0  0  0  0  0  0  0  0  0  0
   -3.8539   23.9443  -27.6272 H   0  0  0  0  0  0  0  0  0  0  0  0
   -5.2092   23.5887  -28.7512 H   0  0  0  0  0  0  0  0  0  0  0  0
   -3.7456   22.5474  -28.7512 H   0  0  0  0  0  0  0  0  0  0  0  0
   -3.2345   25.4486  -29.2318 H   0  0  0  0  0  0  0  0  0  0  0  0
   -2.5649   23.9818  -30.0574 H   0  0  0  0  0  0  0  0  0  0  0  0
   -5.0720   26.3297  -29.6798 H   0  0  0  0  0  0  0  0  0  0  0  0
   -5.7203   26.2466  -31.3644 H   0  0  0  0  0  0  0  0  0  0  0  0
   -6.6954   24.9392  -28.8640 H   0  0  0  0  0  0  0  0  0  0  0  0
   -7.5936   25.4555  -30.3314 H   0  0  0  0  0  0  0  0  0  0  0  0
   -6.6897   23.9032  -30.3314 H   0  0  0  0  0  0  0  0  0  0  0  0
   -5.5108   22.9594  -30.4180 H   0  0  0  0  0  0  0  0  0  0  0  0
   -5.6716   23.6188  -32.1038 H   0  0  0  0  0  0  0  0  0  0  0  0
   -2.9811   22.9572  -31.9441 H   0  0  0  0  0  0  0  0  0  0  0  0
   -3.7967   21.6330  -31.0161 H   0  0  0  0  0  0  0  0  0  0  0  0
   -4.6150   22.3880  -33.8330 H   0  0  0  0  0  0  0  0  0  0  0  0
   -2.0759   21.3803  -34.0637 H   0  0  0  0  0  0  0  0  0  0  0  0
   -0.0826   20.0873  -34.7938 H   0  0  0  0  0  0  0  0  0  0  0  0
   -0.1336   17.6016  -34.7819 H   0  0  0  0  0  0  0  0  0  0  0  0
   -2.1693   16.3943  -34.0272 H   0  0  0  0  0  0  0  0  0  0  0  0
   -4.3615   15.9544  -31.7063 H   0  0  0  0  0  0  0  0  0  0  0  0
   -5.2464   15.5960  -33.2279 H   0  0  0  0  0  0  0  0  0  0  0  0
   -3.4515   15.6655  -33.2279 H   0  0  0  0  0  0  0  0  0  0  0  0
   -6.8761   16.4746  -32.8361 H   0  0  0  0  0  0  0  0  0  0  0  0
   -8.9723   17.7403  -32.4428 H   0  0  0  0  0  0  0  0  0  0  0  0
   -9.6363   20.8889  -33.1849 H   0  0  0  0  0  0  0  0  0  0  0  0
  -10.0281   19.7326  -31.8447 H   0  0  0  0  0  0  0  0  0  0  0  0
  -10.0148   21.7087  -30.6657 H   0  0  0  0  0  0  0  0  0  0  0  0
   -8.2722   21.2307  -30.5281 H   0  0  0  0  0  0  0  0  0  0  0  0
   -6.7901   21.4590  -32.6523 H   0  0  0  0  0  0  0  0  0  0  0  0
  1  2  1  0
  2  3  1  0
  3  4  1  0
  4  5  1  0
  3  6  1  0
  6  7  1  0
  7  8  1  0
  8  9  1  0
  9 10  2  0
 10 11  1  0
 11 12  2  0
 12 13  1  0
 13 14  2  0
 14 15  1  0
 15 16  2  0
 16 17  1  0
 16 18  1  0
 18 19  2  0
 19 20  1  0
 20 21  2  0
 21 22  1  0
 22 23  1  0
 23 24  1  0
 21 25  1  0
 25 26  2  0
 26  9  1  0
 15 10  1  0
 26 18  1  0
  1 27  1  0
  1 28  1  0
  1 29  1  0
  2 30  1  0
  2 31  1  0
  4 32  1  0
  4 33  1  0
  5 34  1  0
  5 35  1  0
  5 36  1  0
  6 37  1  0
  6 38  1  0
  7 39  1  0
  7 40  1  0
  8 41  1  0
 11 42  1  0
 12 43  1  0
 13 44  1  0
 14 45  1  0
 17 46  1  0
 17 47  1  0
 17 48  1  0
 19 49  1  0
 20 50  1  0
 22 51  1  0
 22 52  1  0
 23 53  1  0
 23 54  1  0
 25 55  1  0
M  CHG  1  16   1
M  END
>  <UniqueID>  (13) 
13

>  <SMILES>  (13) 
CCN(CC)CCNc1c2ccccc2[n+](C)c2ccc(CCCl)cc12

>  <Energy>  (13) 
73.68894130851622

>  <Genealogy>  (13) 
CCN(CC)CCNc1c2ccccc2[n+](C)c2ccc(CCCl)cc12 (3D coordinates assigned)
CCN(CC)CCNc1c2ccccc2[n+](C)c2ccc(CCCl)cc12 (optimized conformer: 73.68894130851622 kcal/mol)

>  <smiles>  (13) 
CCN(CC)CCNc1c2ccccc2[n+](C)c2ccc(CCCl)cc12

>  <score_type>  (13) 
oracle

>  <origin>  (13) 
adg

>  <m_score__min__energy>  (13) 
-8.9399999999999995

>  <m_primary>  (13) 
energy

$$$$
13:0
     RDKit          3D

 46 47  0  0  0  0  0  0  0  0999 V2000
   -1.3310   24.7390  -26.5690 C   0  0  0  0  0  0  0  0  0  0  0  0
   -1.2190   25.6670  -27.7730 C   0  0  0  0  0  0  0  0  0  0  0  0
   -0.5760   24.9690  -28.8960 N   0  0  0  0  0  0  0  0  0  0  0  0
   -0.2900   23.5540  -28.5980 C   0  0  0  0  0  0  0  0  0  0  0  0
   -1.1930   22.6000  -29.3890 C   0  0  0  0  0  0  0  0  0  0  0  0
   -2.4200   23.2470  -29.6590 O   0  0  0  0  0  0  0  0  0  0  0  0
   -3.4080   22.8560  -28.7240 C   0  0  0  0  0  0  0  0  0  0  0  0
   -4.6510   23.7430  -28.8740 C   0  0  0  0  0  0  0  0  0  0  0  0
   -4.4480   24.8880  -29.8780 C   0  0  0  0  0  0  0  0  0  0  0  0
   -5.7240   25.2350  -30.6470 C   0  0  0  0  0  0  0  0  0  0  0  0
   -5.7250   24.5450  -31.8930 O   0  0  0  0  0  0  0  0  0  0  0  0
   -6.0210   23.1820  -32.0470 C   0  0  0  0  0  0  0  0  0  0  0  0
   -4.9710   22.3050  -32.3400 C   0  0  0  0  0  0  0  0  0  0  0  0
   -5.2070   20.9380  -32.5040 C   0  0  0  0  0  0  0  0  0  0  0  0
   -6.5060   20.4260  -32.3760 C   0  0  0  0  0  0  0  0  0  0  0  0
   -6.7540   19.0540  -32.5390 C   0  0  0  0  0  0  0  0  0  0  0  0
   -8.0540   18.5560  -32.4090 C   0  0  0  0  0  0  0  0  0  0  0  0
   -9.1120   19.4210  -32.1170 C   0  0  0  0  0  0  0  0  0  0  0  0
   -8.8770   20.7900  -31.9530 C   0  0  0  0  0  0  0  0  0  0  0  0
   -7.5770   21.3030  -32.0800 C   0  0  0  0  0  0  0  0  0  0  0  0
   -7.3290   22.6750  -31.9180 C   0  0  0  0  0  0  0  0  0  0  0  0
   -1.2598   25.3291  -25.6434 H   0  0  0  0  0  0  0  0  0  0  0  0
   -2.2987   24.2167  -26.5974 H   0  0  0  0  0  0  0  0  0  0  0  0
   -0.5153   24.0015  -26.5974 H   0  0  0  0  0  0  0  0  0  0  0  0
   -2.2254   25.9919  -28.0758 H   0  0  0  0  0  0  0  0  0  0  0  0
   -0.6089   26.5397  -27.4971 H   0  0  0  0  0  0  0  0  0  0  0  0
   -1.1920   25.0350  -29.7400 H   0  0  0  0  0  0  0  0  0  0  0  0
    0.7587   23.3432  -28.8547 H   0  0  0  0  0  0  0  0  0  0  0  0
   -0.4818   23.3896  -27.5274 H   0  0  0  0  0  0  0  0  0  0  0  0
   -0.7031   22.3282  -30.3356 H   0  0  0  0  0  0  0  0  0  0  0  0
   -1.3748   21.6876  -28.8021 H   0  0  0  0  0  0  0  0  0  0  0  0
   -3.6851   21.8068  -28.9038 H   0  0  0  0  0  0  0  0  0  0  0  0
   -3.0061   22.9659  -27.7060 H   0  0  0  0  0  0  0  0  0  0  0  0
   -5.4888   23.1186  -29.2178 H   0  0  0  0  0  0  0  0  0  0  0  0
   -4.8551   24.1957  -27.8924 H   0  0  0  0  0  0  0  0  0  0  0  0
   -4.1142   25.7812  -29.3297 H   0  0  0  0  0  0  0  0  0  0  0  0
   -3.6988   24.5562  -30.6119 H   0  0  0  0  0  0  0  0  0  0  0  0
   -6.6020   24.9313  -30.0581 H   0  0  0  0  0  0  0  0  0  0  0  0
   -5.7627   26.3196  -30.8264 H   0  0  0  0  0  0  0  0  0  0  0  0
   -3.9481   22.6964  -32.4424 H   0  0  0  0  0  0  0  0  0  0  0  0
   -4.3711   20.2611  -32.7343 H   0  0  0  0  0  0  0  0  0  0  0  0
   -5.9243   18.3696  -32.7694 H   0  0  0  0  0  0  0  0  0  0  0  0
   -8.2445   17.4802  -32.5369 H   0  0  0  0  0  0  0  0  0  0  0  0
  -10.1328   19.0240  -32.0158 H   0  0  0  0  0  0  0  0  0  0  0  0
   -9.7136   21.4665  -31.7238 H   0  0  0  0  0  0  0  0  0  0  0  0
   -8.1604   23.3579  -31.6891 H   0  0  0  0  0  0  0  0  0  0  0  0
  1  2  1  0
  2  3  1  0
  3  4  1  0
  4  5  1  0
  5  6  1  0
  6  7  1  0
  7  8  1  0
  8  9  1  0
  9 10  1  0
 10 11  1  0
 11 12  1  0
 12 13  2  0
 13 14  1  0
 14 15  2  0
 15 16  1  0
 16 17  2  0
 17 18  1  0
 18 19  2  0
 19 20  1  0
 20 21  2  0
 21 12  1  0
 20 15  1  0
  1 22  1  0
  1 23  1  0
  1 24  1  0
  2 25  1  0
  2 26  1  0
  3 27  1  0
  4 28  1  0
  4 29  1  0
  5 30  1  0
  5 31  1  0
  7 32  1  0
  7 33  1  0
  8 34  1  0
  8 35  1  0
  9 36  1  0
  9 37  1  0
 10 38  1  0
 10 39  1  0
 13 40  1  0
 14 41  1  0
 16 42  1  0
 17 43  1  0
 18 44  1  0
 19 45  1  0
 21 46  1  0
M  END
>  <UniqueID>  (14) 
14

>  <SMILES>  (14) 
CCNCCOCCCCOc1ccc2ccccc2c1

>  <Energy>  (14) 
41.962155173021074

>  <Genealogy>  (14) 
CCNCCOCCCCOc1ccc2ccccc2c1 (3D coordinates assigned)
CCNCCOCCCCOc1ccc2ccccc2c1 (optimized conformer: 41.962155173021074 kcal/mol)

>  <smiles>  (14) 
CCNCCOCCCCOc1ccc2ccccc2c1

>  <score_type>  (14) 
oracle

>  <origin>  (14) 
adg

>  <m_score__min__energy>  (14) 
-7.9199999999999999

>  <m_primary>  (14) 
energy

$$$$
14:0
     RDKit          3D

 60 62  0  0  0  0  0  0  0  0999 V2000
   -8.1000   18.2900  -32.1560 C   0  0  0  0  0  0  0  0  0  0  0  0
   -6.7070   17.6960  -31.9300 C   0  0  0  0  0  0  0  0  0  0  0  0
   -5.8750   17.7430  -33.1530 N   0  0  0  0  0  0  0  0  0  0  0  0
   -6.5010   17.0230  -34.2820 C   0  0  0  0  0  0  0  0  0  0  0  0
   -6.4310   15.5150  -34.0460 C   0  0  0  0  0  0  0  0  0  0  0  0
   -4.4350   17.4270  -32.9610 C   0  0  0  0  0  0  0  0  0  0  0  0
   -3.4530   18.6130  -33.1060 C   0  0  0  0  0  0  0  0  0  0  0  0
   -4.0620   19.7800  -33.7640 N   0  0  0  0  0  0  0  0  0  0  0  0
   -4.1160   20.8820  -32.8440 C   0  0  0  0  0  0  0  0  0  0  0  0
   -3.0600   21.7160  -32.4690 C   0  0  0  0  0  0  0  0  0  0  0  0
   -1.6050   21.5060  -32.7720 C   0  0  0  0  0  0  0  0  0  0  0  0
   -1.4560   20.8520  -34.0800 N   0  0  0  0  0  0  0  0  0  0  0  0
   -0.0440   20.6180  -34.3920 C   0  0  0  0  0  0  0  0  0  0  0  0
   -3.5200   22.7390  -31.7700 O   0  0  0  0  0  0  0  0  0  0  0  0
   -4.8290   22.6150  -31.6880 C   0  0  0  0  0  0  0  0  0  0  0  0
   -5.7360   23.4860  -31.0820 C   0  0  0  0  0  0  0  0  0  0  0  0
   -5.2280   25.0160  -30.3710 S   0  0  0  0  0  0  0  0  0  0  0  0
   -5.7390   26.1430  -31.2220 O   0  0  0  0  0  0  0  0  0  0  0  0
   -5.7610   25.1740  -28.9720 O   0  0  0  0  0  0  0  0  0  0  0  0
   -3.4960   25.0630  -30.3330 N   0  0  0  0  0  0  0  0  0  0  0  0
   -2.6790   24.4420  -29.3260 C   0  0  0  0  0  0  0  0  0  0  0  0
   -3.1630   23.3010  -28.6740 C   0  0  0  0  0  0  0  0  0  0  0  0
   -2.4110   22.6830  -27.6670 C   0  0  0  0  0  0  0  0  0  0  0  0
   -1.1600   23.1950  -27.3140 C   0  0  0  0  0  0  0  0  0  0  0  0
   -0.6650   24.3310  -27.9670 C   0  0  0  0  0  0  0  0  0  0  0  0
   -1.4160   24.9500  -28.9710 C   0  0  0  0  0  0  0  0  0  0  0  0
   -7.1030   23.1530  -31.1460 C   0  0  0  0  0  0  0  0  0  0  0  0
   -7.5300   21.9830  -31.8140 C   0  0  0  0  0  0  0  0  0  0  0  0
   -6.5970   21.1340  -32.4310 C   0  0  0  0  0  0  0  0  0  0  0  0
   -5.2500   21.4780  -32.3370 C   0  0  0  0  0  0  0  0  0  0  0  0
   -8.5744   18.4923  -31.1844 H   0  0  0  0  0  0  0  0  0  0  0  0
   -8.0109   19.2284  -32.7230 H   0  0  0  0  0  0  0  0  0  0  0  0
   -8.7155   17.5761  -32.7230 H   0  0  0  0  0  0  0  0  0  0  0  0
   -6.2028   18.2668  -31.1362 H   0  0  0  0  0  0  0  0  0  0  0  0
   -6.8315   16.6406  -31.6462 H   0  0  0  0  0  0  0  0  0  0  0  0
   -7.5539   17.3291  -34.3698 H   0  0  0  0  0  0  0  0  0  0  0  0
   -5.9616   17.2680  -35.2089 H   0  0  0  0  0  0  0  0  0  0  0  0
   -6.4216   15.3131  -32.9647 H   0  0  0  0  0  0  0  0  0  0  0  0
   -7.3077   15.0315  -34.5017 H   0  0  0  0  0  0  0  0  0  0  0  0
   -5.5133   15.1148  -34.5017 H   0  0  0  0  0  0  0  0  0  0  0  0
   -4.3139   17.0121  -31.9494 H   0  0  0  0  0  0  0  0  0  0  0  0
   -4.1755   16.7279  -33.7697 H   0  0  0  0  0  0  0  0  0  0  0  0
   -3.1129   18.9124  -32.1036 H   0  0  0  0  0  0  0  0  0  0  0  0
   -2.6171   18.2759  -33.7365 H   0  0  0  0  0  0  0  0  0  0  0  0
   -5.0300   19.5470  -34.0850 H   0  0  0  0  0  0  0  0  0  0  0  0
   -3.4960   20.0710  -34.5900 H   0  0  0  0  0  0  0  0  0  0  0  0
   -1.0920   22.4789  -32.7900 H   0  0  0  0  0  0  0  0  0  0  0  0
   -1.1617   20.8664  -31.9946 H   0  0  0  0  0  0  0  0  0  0  0  0
   -1.8380   21.4980  -34.8130 H   0  0  0  0  0  0  0  0  0  0  0  0
    0.5273   20.5233  -33.4568 H   0  0  0  0  0  0  0  0  0  0  0  0
    0.0536   19.6914  -34.9767 H   0  0  0  0  0  0  0  0  0  0  0  0
    0.3473   21.4635  -34.9767 H   0  0  0  0  0  0  0  0  0  0  0  0
   -4.1424   22.8866  -28.9552 H   0  0  0  0  0  0  0  0  0  0  0  0
   -2.8057   21.7938  -27.1536 H   0  0  0  0  0  0  0  0  0  0  0  0
   -0.5662   22.7080  -26.5265 H   0  0  0  0  0  0  0  0  0  0  0  0
    0.3184   24.7378  -27.6889 H   0  0  0  0  0  0  0  0  0  0  0  0
   -1.0179   25.8373  -29.4851 H   0  0  0  0  0  0  0  0  0  0  0  0
   -7.8461   23.8105  -30.6711 H   0  0  0  0  0  0  0  0  0  0  0  0
   -8.6012   21.7356  -31.8509 H   0  0  0  0  0  0  0  0  0  0  0  0
   -6.9180   20.2299  -32.9692 H   0  0  0  0  0  0  0  0  0  0  0  0
  1  2  1  0
  2  3  1  0
  3  4  1  0
  4  5  1  0
  3  6  1  0
  6  7  1  0
  7  8  1  0
  8  9  1  0
  9 10  2  0
 10 11  1  0
 11 12  1  0
 12 13  1  0
 10 14  1  0
 14 15  1  0
 15 16  2  0
 16 17  1  0
 17 18  2  0
 17 19  2  0
 17 20  1  0
 20 21  1  0
 21 22  2  0
 22 23  1  0
 23 24  2  0
 24 25  1  0
 25 26  2  0
 16 27  1  0
 27 28  2  0
 28 29  1  0
 29 30  2  0
 30  9  1  0
 30 15  1  0
 26 21  1  0
  1 31  1  0
  1 32  1  0
  1 33  1  0
  2 34  1  0
  2 35  1  0
  4 36  1  0
  4 37  1  0
  5 38  1  0
  5 39  1  0
  5 40  1  0
  6 41  1  0
  6 42  1  0
  7 43  1  0
  7 44  1  0
  8 45  1  0
  8 46  1  0
 11 47  1  0
 11 48  1  0
 12 49  1  0
 13 50  1  0
 13 51  1  0
 13 52  1  0
 22 53  1  0
 23 54  1  0
 24 55  1  0
 25 56  1  0
 26 57  1  0
 27 58  1  0
 28 59  1  0
 29 60  1  0
M  CHG  2   8   1  20  -1
M  END
>  <UniqueID>  (15) 
15

>  <SMILES>  (15) 
CCN(CC)CC[NH2+]c1c(CNC)oc2c(S(=O)(=O)[N-]c3ccccc3)cccc12

>  <Energy>  (15) 
100.0960249211323

>  <Genealogy>  (15) 
CCN(CC)CC[NH2+]c1c(CNC)oc2c(S(=O)(=O)[N-]c3ccccc3)cccc12 (protonated)
CCN(CC)CC[NH2+]c1c(CNC)oc2c(S(=O)(=O)[N-]c3ccccc3)cccc12 (3D coordinates assigned)
CCN(CC)CC[NH2+]c1c(CNC)oc2c(S(=O)(=O)[N-]c3ccccc3)cccc12 (optimized conformer: 100.0960249211323 kcal/mol)

>  <smiles>  (15) 
CCN(CC)CCNc1c(CNC)oc2c(S(=O)(=O)Nc3ccccc3)cccc12

>  <score_type>  (15) 
oracle

>  <origin>  (15) 
adg

>  <m_score__min__energy>  (15) 
-9.6199999999999992

>  <m_primary>  (15) 
energy

$$$$
15:0
     RDKit          3D

 45 46  0  0  0  0  0  0  0  0999 V2000
   -3.4990   22.5030  -31.5060 C   0  0  0  0  0  0  0  0  0  0  0  0
   -3.2560   23.5400  -30.4060 C   0  0  0  0  0  0  0  0  0  0  0  0
   -4.0310   24.7730  -30.6110 N   0  0  0  0  0  0  0  0  0  0  0  0
   -5.1450   24.8990  -29.6640 C   0  0  0  0  0  0  0  0  0  0  0  0
   -6.4840   24.9120  -30.4050 C   0  0  0  0  0  0  0  0  0  0  0  0
   -6.4260   24.1090  -31.5860 O   0  0  0  0  0  0  0  0  0  0  0  0
   -7.1970   22.9630  -31.8500 C   0  0  0  0  0  0  0  0  0  0  0  0
   -8.5840   23.0560  -31.6940 C   0  0  0  0  0  0  0  0  0  0  0  0
   -9.4030   21.9540  -31.9500 C   0  0  0  0  0  0  0  0  0  0  0  0
   -8.8420   20.7450  -32.3650 C   0  0  0  0  0  0  0  0  0  0  0  0
   -7.4510   20.6230  -32.5200 C   0  0  0  0  0  0  0  0  0  0  0  0
   -6.8530   19.3410  -32.9730 C   0  0  0  0  0  0  0  0  0  0  0  0
   -7.0180   18.1680  -32.2190 C   0  0  0  0  0  0  0  0  0  0  0  0
   -6.4560   16.9630  -32.6460 C   0  0  0  0  0  0  0  0  0  0  0  0
   -5.7110   16.8950  -33.8410 C   0  0  0  0  0  0  0  0  0  0  0  0
   -5.1250   15.6430  -34.2850 N   0  0  0  0  0  0  0  0  0  0  0  0
   -3.7610   15.6070  -34.8250 C   0  0  0  0  0  0  0  0  0  0  0  0
   -5.8870   14.3910  -34.1990 C   0  0  0  0  0  0  0  0  0  0  0  0
   -5.5500   18.0760  -34.5930 C   0  0  0  0  0  0  0  0  0  0  0  0
   -6.1130   19.2810  -34.1640 C   0  0  0  0  0  0  0  0  0  0  0  0
   -6.6320   21.7350  -32.2480 C   0  0  0  0  0  0  0  0  0  0  0  0
   -3.7272   21.5293  -31.0480 H   0  0  0  0  0  0  0  0  0  0  0  0
   -4.3467   22.8223  -32.1301 H   0  0  0  0  0  0  0  0  0  0  0  0
   -2.5977   22.4125  -32.1301 H   0  0  0  0  0  0  0  0  0  0  0  0
   -3.5414   23.1011  -29.4386 H   0  0  0  0  0  0  0  0  0  0  0  0
   -2.1895   23.8085  -30.4305 H   0  0  0  0  0  0  0  0  0  0  0  0
   -4.4090   24.7840  -31.5890 H   0  0  0  0  0  0  0  0  0  0  0  0
   -5.1255   24.0476  -28.9678 H   0  0  0  0  0  0  0  0  0  0  0  0
   -5.0360   25.8445  -29.1125 H   0  0  0  0  0  0  0  0  0  0  0  0
   -7.2664   24.5173  -29.7402 H   0  0  0  0  0  0  0  0  0  0  0  0
   -6.7116   25.9477  -30.6974 H   0  0  0  0  0  0  0  0  0  0  0  0
   -9.0335   24.0052  -31.3669 H   0  0  0  0  0  0  0  0  0  0  0  0
  -10.4925   22.0390  -31.8243 H   0  0  0  0  0  0  0  0  0  0  0  0
   -9.4929   19.8827  -32.5719 H   0  0  0  0  0  0  0  0  0  0  0  0
   -7.5954   18.1985  -31.2832 H   0  0  0  0  0  0  0  0  0  0  0  0
   -6.5965   16.0546  -32.0418 H   0  0  0  0  0  0  0  0  0  0  0  0
   -3.0387   15.5879  -33.9956 H   0  0  0  0  0  0  0  0  0  0  0  0
   -3.6346   14.7052  -35.4421 H   0  0  0  0  0  0  0  0  0  0  0  0
   -3.5872   16.5009  -35.4421 H   0  0  0  0  0  0  0  0  0  0  0  0
   -6.0457   14.1302  -33.1422 H   0  0  0  0  0  0  0  0  0  0  0  0
   -6.8603   14.5193  -34.6952 H   0  0  0  0  0  0  0  0  0  0  0  0
   -5.3259   13.5854  -34.6952 H   0  0  0  0  0  0  0  0  0  0  0  0
   -4.9738   18.0490  -35.5296 H   0  0  0  0  0  0  0  0  0  0  0  0
   -5.9748   20.1914  -34.7657 H   0  0  0  0  0  0  0  0  0  0  0  0
   -5.5402   21.6445  -32.3471 H   0  0  0  0  0  0  0  0  0  0  0  0
  1  2  1  0
  2  3  1  0
  3  4  1  0
  4  5  1  0
  5  6  1  0
  6  7  1  0
  7  8  2  0
  8  9  1  0
  9 10  2  0
 10 11  1  0
 11 12  1  0
 12 13  2  0
 13 14  1  0
 14 15  2  0
 15 16  1  0
 16 17  1  0
 16 18  1  0
 15 19  1  0
 19 20  2  0
 11 21  2  0
 21  7  1  0
 20 12  1  0
  1 22  1  0
  1 23  1  0
  1 24  1  0
  2 25  1  0
  2 26  1  0
  3 27  1  0
  4 28  1  0
  4 29  1  0
  5 30  1  0
  5 31  1  0
  8 32  1  0
  9 33  1  0
 10 34  1  0
 13 35  1  0
 14 36  1  0
 17 37  1  0
 17 38  1  0
 17 39  1  0
 18 40  1  0
 18 41  1  0
 18 42  1  0
 19 43  1  0
 20 44  1  0
 21 45  1  0
M  END
>  <UniqueID>  (16) 
16

>  <SMILES>  (16) 
CCNCCOc1cccc(-c2ccc(N(C)C)cc2)c1

>  <Energy>  (16) 
48.02549559585196

>  <Genealogy>  (16) 
CCNCCOc1cccc(-c2ccc(N(C)C)cc2)c1 (3D coordinates assigned)
CCNCCOc1cccc(-c2ccc(N(C)C)cc2)c1 (optimized conformer: 48.02549559585196 kcal/mol)

>  <smiles>  (16) 
CCNCCOc1cccc(-c2ccc(N(C)C)cc2)c1

>  <score_type>  (16) 
oracle

>  <origin>  (16) 
adg

>  <m_score__min__energy>  (16) 
-7.6299999999999999

>  <m_primary>  (16) 
energy

$$$$
16:0
     RDKit          3D

 79 82  0  0  0  0  0  0  0  0999 V2000
    0.3350   22.2870  -35.6750 C   0  0  0  0  0  0  0  0  0  0  0  0
    0.1510   20.8890  -35.0760 C   0  0  0  0  0  0  0  0  0  0  0  0
   -1.1610   20.7480  -34.3950 N   0  0  1  0  0  0  0  0  0  0  0  0
   -1.4700   19.3150  -34.2060 C   0  0  0  0  0  0  0  0  0  0  0  0
   -1.1490   21.4470  -33.0810 C   0  0  0  0  0  0  0  0  0  0  0  0
   -2.4870   21.3070  -32.3320 C   0  0  0  0  0  0  0  0  0  0  0  0
   -3.6200   21.5940  -33.2110 N   0  0  0  0  0  0  0  0  0  0  0  0
   -4.9600   21.3660  -32.7510 C   0  0  0  0  0  0  0  0  0  0  0  0
   -5.6020   22.3190  -31.9420 C   0  0  0  0  0  0  0  0  0  0  0  0
   -4.9180   23.4720  -31.5030 C   0  0  0  0  0  0  0  0  0  0  0  0
   -5.5400   24.3850  -30.6580 C   0  0  0  0  0  0  0  0  0  0  0  0
   -6.8460   24.1690  -30.2420 C   0  0  0  0  0  0  0  0  0  0  0  0
   -7.5500   23.0470  -30.6810 C   0  0  0  0  0  0  0  0  0  0  0  0
   -6.9550   22.1160  -31.5670 C   0  0  0  0  0  0  0  0  0  0  0  0
   -7.6490   21.0170  -32.0390 N   0  0  0  0  0  0  0  0  0  0  0  0
   -9.1200   20.9560  -31.9070 C   0  0  0  0  0  0  0  0  0  0  0  0
   -6.9690   19.9850  -32.6570 C   0  0  0  0  0  0  0  0  0  0  0  0
   -7.5770   18.7280  -32.8950 C   0  0  0  0  0  0  0  0  0  0  0  0
   -6.8740   17.6910  -33.5050 C   0  0  0  0  0  0  0  0  0  0  0  0
   -5.5480   17.8600  -33.8860 C   0  0  0  0  0  0  0  0  0  0  0  0
   -4.8830   16.7540  -34.4360 O   0  0  0  0  0  0  0  0  0  0  0  0
   -3.6330   16.7980  -35.1230 C   0  0  0  0  0  0  0  0  0  0  0  0
   -3.0840   15.3670  -35.2200 C   0  0  0  0  0  0  0  0  0  0  0  0
   -2.3250   14.8560  -34.0280 N   0  0  0  0  0  0  0  0  0  0  0  0
   -0.8990   15.2610  -34.1560 C   0  0  0  0  0  0  0  0  0  0  0  0
   -2.8350   15.4120  -32.7400 C   0  0  0  0  0  0  0  0  0  0  0  0
   -4.2330   14.8850  -32.3880 C   0  0  0  0  0  0  0  0  0  0  0  0
   -4.3130   13.3830  -32.3540 N   0  0  0  0  0  0  0  0  0  0  0  0
   -4.6380   12.9400  -30.9740 C   0  0  0  0  0  0  0  0  0  0  0  0
   -5.4110   12.9160  -33.2410 C   0  0  0  0  0  0  0  0  0  0  0  0
   -3.0300   12.7310  -32.7540 C   0  0  0  0  0  0  0  0  0  0  0  0
   -2.4010   13.3500  -34.0260 C   0  0  0  0  0  0  0  0  0  0  0  0
   -4.9250   19.1010  -33.6800 C   0  0  0  0  0  0  0  0  0  0  0  0
   -5.6170   20.1580  -33.0490 C   0  0  0  0  0  0  0  0  0  0  0  0
    0.4320   23.0236  -34.8638 H   0  0  0  0  0  0  0  0  0  0  0  0
    1.2430   22.3034  -36.2956 H   0  0  0  0  0  0  0  0  0  0  0  0
   -0.5379   22.5378  -36.2956 H   0  0  0  0  0  0  0  0  0  0  0  0
    0.2146   20.1447  -35.8834 H   0  0  0  0  0  0  0  0  0  0  0  0
    0.9424   20.7309  -34.3285 H   0  0  0  0  0  0  0  0  0  0  0  0
   -1.9110   21.1510  -35.0080 H   0  0  0  0  0  0  0  0  0  0  0  0
   -1.5187   19.0892  -33.1305 H   0  0  0  0  0  0  0  0  0  0  0  0
   -2.4386   19.0840  -34.6734 H   0  0  0  0  0  0  0  0  0  0  0  0
   -0.6827   18.7054  -34.6734 H   0  0  0  0  0  0  0  0  0  0  0  0
   -0.3492   21.0180  -32.4595 H   0  0  0  0  0  0  0  0  0  0  0  0
   -0.9802   22.5173  -33.2709 H   0  0  0  0  0  0  0  0  0  0  0  0
   -2.5794   20.2787  -31.9524 H   0  0  0  0  0  0  0  0  0  0  0  0
   -2.4985   22.0301  -31.5031 H   0  0  0  0  0  0  0  0  0  0  0  0
   -3.4730   21.8320  -34.2180 H   0  0  0  0  0  0  0  0  0  0  0  0
   -3.8836   23.6506  -31.8319 H   0  0  0  0  0  0  0  0  0  0  0  0
   -4.9961   25.2791  -30.3192 H   0  0  0  0  0  0  0  0  0  0  0  0
   -7.3291   24.8863  -29.5623 H   0  0  0  0  0  0  0  0  0  0  0  0
   -8.5810   22.8834  -30.3342 H   0  0  0  0  0  0  0  0  0  0  0  0
   -9.3924   20.9447  -30.8413 H   0  0  0  0  0  0  0  0  0  0  0  0
   -9.5684   21.8363  -32.3907 H   0  0  0  0  0  0  0  0  0  0  0  0
   -9.4939   20.0416  -32.3907 H   0  0  0  0  0  0  0  0  0  0  0  0
   -8.6225   18.5676  -32.5930 H   0  0  0  0  0  0  0  0  0  0  0  0
   -7.3739   16.7282  -33.6870 H   0  0  0  0  0  0  0  0  0  0  0  0
   -3.7780   17.2097  -36.1327 H   0  0  0  0  0  0  0  0  0  0  0  0
   -2.9242   17.4392  -34.5785 H   0  0  0  0  0  0  0  0  0  0  0  0
   -3.9370   14.6928  -35.3868 H   0  0  0  0  0  0  0  0  0  0  0  0
   -2.3525   15.3917  -36.0412 H   0  0  0  0  0  0  0  0  0  0  0  0
   -0.4618   15.3852  -33.1543 H   0  0  0  0  0  0  0  0  0  0  0  0
   -0.3451   14.4846  -34.7042 H   0  0  0  0  0  0  0  0  0  0  0  0
   -0.8359   16.2126  -34.7042 H   0  0  0  0  0  0  0  0  0  0  0  0
   -2.1393   15.1333  -31.9348 H   0  0  0  0  0  0  0  0  0  0  0  0
   -2.9063   16.5041  -32.8509 H   0  0  0  0  0  0  0  0  0  0  0  0
   -4.5123   15.2718  -31.3969 H   0  0  0  0  0  0  0  0  0  0  0  0
   -4.9184   15.2295  -33.1764 H   0  0  0  0  0  0  0  0  0  0  0  0
   -4.1483   13.6075  -30.2497 H   0  0  0  0  0  0  0  0  0  0  0  0
   -5.7274   12.9735  -30.8251 H   0  0  0  0  0  0  0  0  0  0  0  0
   -4.2790   11.9109  -30.8251 H   0  0  0  0  0  0  0  0  0  0  0  0
   -6.2512   12.5587  -32.6274 H   0  0  0  0  0  0  0  0  0  0  0  0
   -5.7486   13.7484  -33.8759 H   0  0  0  0  0  0  0  0  0  0  0  0
   -5.0456   12.0954  -33.8759 H   0  0  0  0  0  0  0  0  0  0  0  0
   -2.3136   12.8318  -31.9254 H   0  0  0  0  0  0  0  0  0  0  0  0
   -3.2553   11.6784  -32.9803 H   0  0  0  0  0  0  0  0  0  0  0  0
   -1.3790   12.9561  -34.1283 H   0  0  0  0  0  0  0  0  0  0  0  0
   -3.0599   13.0731  -34.8622 H   0  0  0  0  0  0  0  0  0  0  0  0
   -3.8876   19.2516  -34.0134 H   0  0  0  0  0  0  0  0  0  0  0  0
  1  2  1  0
  2  3  1  0
  3  4  1  0
  3  5  1  0
  5  6  1  0
  6  7  1  0
  7  8  1  0
  8  9  2  0
  9 10  1  0
 10 11  2  0
 11 12  1  0
 12 13  2  0
 13 14  1  0
 14 15  2  0
 15 16  1  0
 15 17  1  0
 17 18  2  0
 18 19  1  0
 19 20  2  0
 20 21  1  0
 21 22  1  0
 22 23  1  0
 23 24  1  0
 24 25  1  0
 24 26  1  0
 26 27  1  0
 27 28  1  0
 28 29  1  0
 28 30  1  0
 28 31  1  0
 31 32  1  0
 20 33  1  0
 33 34  2  0
 34  8  1  0
 14  9  1  0
 34 17  1  0
 32 24  1  0
  1 35  1  0
  1 36  1  0
  1 37  1  0
  2 38  1  0
  2 39  1  0
  3 40  1  6
  4 41  1  0
  4 42  1  0
  4 43  1  0
  5 44  1  0
  5 45  1  0
  6 46  1  0
  6 47  1  0
  7 48  1  0
 10 49  1  0
 11 50  1  0
 12 51  1  0
 13 52  1  0
 16 53  1  0
 16 54  1  0
 16 55  1  0
 18 56  1  0
 19 57  1  0
 22 58  1  0
 22 59  1  0
 23 60  1  0
 23 61  1  0
 25 62  1  0
 25 63  1  0
 25 64  1  0
 26 65  1  0
 26 66  1  0
 27 67  1  0
 27 68  1  0
 29 69  1  0
 29 70  1  0
 29 71  1  0
 30 72  1  0
 30 73  1  0
 30 74  1  0
 31 75  1  0
 31 76  1  0
 32 77  1  0
 32 78  1  0
 33 79  1  0
M  CHG  4   3   1  15   1  24   1  28   1
M  END
>  <UniqueID>  (17) 
17

>  <SMILES>  (17) 
CC[N@@H+](C)CCNc1c2ccccc2[n+](C)c2ccc(OCC[N+]3(C)CC[N+](C)(C)CC3)cc12

>  <Energy>  (17) 
138.11315274983122

>  <Genealogy>  (17) 
CC[NH+](C)CCNc1c2ccccc2[n+](C)c2ccc(OCC[N+]3(C)CC[N+](C)(C)CC3)cc12 (protonated)
CC[N@@H+](C)CCNc1c2ccccc2[n+](C)c2ccc(OCC[N+]3(C)CC[N+](C)(C)CC3)cc12 (chirality)
CC[N@@H+](C)CCNc1c2ccccc2[n+](C)c2ccc(OCC[N+]3(C)CC[N+](C)(C)CC3)cc12 (3D coordinates assigned)
CC[N@@H+](C)CCNc1c2ccccc2[n+](C)c2ccc(OCC[N+]3(C)CC[N+](C)(C)CC3)cc12 (nonaromatic ring conformer: 138.11315274983122 kcal/mol)

>  <smiles>  (17) 
CCN(C)CCNc1c2ccccc2[n+](C)c2ccc(OCC[N+]3(C)CC[N+](C)(C)CC3)cc12

>  <score_type>  (17) 
oracle

>  <origin>  (17) 
adg

>  <m_score__min__energy>  (17) 
-7.4699999999999998

>  <m_primary>  (17) 
energy

$$$$
17:0
     RDKit          3D

 28 28  0  0  0  0  0  0  0  0999 V2000
   -6.6620   25.4702  -31.6692 H   0  0  0  0  0  0  0  0  0  0  0  0
   -6.1070   24.6220  -31.2420 C   0  0  0  0  0  0  0  0  0  0  0  0
   -5.0020   24.8940  -30.5310 C   0  0  0  0  0  0  0  0  0  0  0  0
   -4.4680   25.8281  -30.7598 H   0  0  0  0  0  0  0  0  0  0  0  0
   -4.4360   24.0170  -29.4420 C   0  0  0  0  0  0  0  0  0  0  0  0
   -3.3449   23.9513  -29.5655 H   0  0  0  0  0  0  0  0  0  0  0  0
   -4.8970   23.0215  -29.5226 H   0  0  0  0  0  0  0  0  0  0  0  0
   -4.7360   24.5620  -28.1070 N   0  0  0  0  0  0  0  0  0  0  0  0
   -5.7250   24.3400  -27.8490 H   0  0  0  0  0  0  0  0  0  0  0  0
   -4.6080   25.6020  -28.1250 H   0  0  0  0  0  0  0  0  0  0  0  0
   -3.8390   23.9800  -27.0980 C   0  0  0  0  0  0  0  0  0  0  0  0
   -3.3330   23.1033  -27.5285 H   0  0  0  0  0  0  0  0  0  0  0  0
   -4.4373   23.6865  -26.2228 H   0  0  0  0  0  0  0  0  0  0  0  0
   -2.7880   24.9960  -26.6530 C   0  0  0  0  0  0  0  0  0  0  0  0
   -2.7530   25.0299  -25.5541 H   0  0  0  0  0  0  0  0  0  0  0  0
   -1.8030   24.6990  -27.0423 H   0  0  0  0  0  0  0  0  0  0  0  0
   -3.0515   25.9905  -27.0423 H   0  0  0  0  0  0  0  0  0  0  0  0
   -6.6300   23.2640  -31.4910 C   0  0  0  0  0  0  0  0  0  0  0  0
   -7.9870   22.9980  -31.2610 C   0  0  0  0  0  0  0  0  0  0  0  0
   -8.6461   23.7960  -30.8885 H   0  0  0  0  0  0  0  0  0  0  0  0
   -8.5060   21.7230  -31.5030 C   0  0  0  0  0  0  0  0  0  0  0  0
   -9.5681   21.5159  -31.3054 H   0  0  0  0  0  0  0  0  0  0  0  0
   -7.6770   20.7100  -31.9960 C   0  0  0  0  0  0  0  0  0  0  0  0
   -8.3880   18.9690  -32.3280 Br  0  0  0  0  0  0  0  0  0  0  0  0
   -6.3300   20.9780  -32.2580 C   0  0  0  0  0  0  0  0  0  0  0  0
   -5.6797   20.1848  -32.6554 H   0  0  0  0  0  0  0  0  0  0  0  0
   -5.8080   22.2520  -32.0160 C   0  0  0  0  0  0  0  0  0  0  0  0
   -4.7513   22.4630  -32.2370 H   0  0  0  0  0  0  0  0  0  0  0  0
  1  2  1  0
  2  3  2  0
  3  4  1  0
  3  5  1  0
  5  6  1  0
  5  7  1  0
  5  8  1  0
  8  9  1  0
  8 10  1  0
  8 11  1  0
 11 12  1  0
 11 13  1  0
 11 14  1  0
 14 15  1  0
 14 16  1  0
 14 17  1  0
  2 18  1  0
 18 19  2  0
 19 20  1  0
 19 21  1  0
 21 22  1  0
 21 23  2  0
 23 24  1  0
 23 25  1  0
 25 26  1  0
 25 27  2  0
 27 28  1  0
 27 18  1  0
M  CHG  1   8   1
M  END
>  <UniqueID>  (18) 
18

>  <SMILES>  (18) 
CC[NH2+]C/C=C\c1ccc(Br)cc1

>  <Energy>  (18) 
26.88452549314245

>  <Genealogy>  (18) 
CC[NH2+]CC=Cc1ccc(Br)cc1 (protonated)
CC[NH2+]C/C=C\c1ccc(Br)cc1 (cis-trans isomerization)
CC[NH2+]C/C=C\c1ccc(Br)cc1 (3D coordinates assigned)
CC[NH2+]C/C=C\c1ccc(Br)cc1 (optimized conformer: 26.88452549314245 kcal/mol)

>  <smiles>  (18) 
CCNCC=Cc1ccc(Br)cc1

>  <score_type>  (18) 
oracle

>  <origin>  (18) 
adg

>  <m_score__min__energy>  (18) 
-5.7699999999999996

>  <m_primary>  (18) 
energy

$$$$
18:0
     RDKit          3D

 68 71  0  0  0  0  0  0  0  0999 V2000
   -5.9180   21.9500  -32.2400 C   0  0  0  0  0  0  0  0  0  0  0  0
   -7.3750   21.5510  -32.0190 C   0  0  0  0  0  0  0  0  0  0  0  0
   -7.7260   20.3870  -32.8580 N   0  0  0  0  0  0  0  0  0  0  0  0
   -8.6830   19.4710  -32.1850 C   0  0  0  0  0  0  0  0  0  0  0  0
   -7.9860   18.2600  -31.5580 C   0  0  0  0  0  0  0  0  0  0  0  0
   -7.1850   17.4840  -32.6210 C   0  0  0  0  0  0  0  0  0  0  0  0
   -6.8280   18.3270  -33.7890 N   0  0  0  0  0  0  0  0  0  0  0  0
   -5.6970   17.7490  -34.5470 C   0  0  0  0  0  0  0  0  0  0  0  0
   -4.3810   18.4650  -34.2130 C   0  0  0  0  0  0  0  0  0  0  0  0
   -3.7760   17.8770  -33.0080 N   0  0  0  0  0  0  0  0  0  0  0  0
   -2.5520   17.1120  -33.3050 C   0  0  0  0  0  0  0  0  0  0  0  0
   -1.3230   18.0190  -33.4600 C   0  0  0  0  0  0  0  0  0  0  0  0
   -1.3940   19.1150  -32.4720 N   0  0  0  0  0  0  0  0  0  0  0  0
   -2.2310   20.2820  -32.8310 C   0  0  1  0  0  0  0  0  0  0  0  0
   -2.4960   21.1810  -31.5980 C   0  0  0  0  0  0  0  0  0  0  0  0
   -1.2580   21.4500  -30.7310 C   0  0  0  0  0  0  0  0  0  0  0  0
   -0.4690   20.1710  -30.4450 C   0  0  0  0  0  0  0  0  0  0  0  0
   -0.1430   19.3920  -31.7290 C   0  0  2  0  0  0  0  0  0  0  0  0
    0.9860   20.0640  -32.5710 C   0  0  0  0  0  0  0  0  0  0  0  0
    0.5830   20.3000  -33.9750 N   0  0  0  0  0  0  0  0  0  0  0  0
    1.7270   20.2230  -34.9220 C   0  0  0  0  0  0  0  0  0  0  0  0
    2.3780   21.5840  -35.1690 C   0  0  0  0  0  0  0  0  0  0  0  0
    1.3300   22.4820  -35.7200 C   0  0  0  0  0  0  0  0  0  0  0  0
    1.6260   23.4150  -36.5130 O   0  0  0  0  0  0  0  0  0  0  0  0
   -0.0220   22.2610  -35.3290 N   0  0  0  0  0  0  0  0  0  0  0  0
   -0.2950   21.4980  -34.1040 C   0  0  1  0  0  0  0  0  0  0  0  0
   -1.7620   21.0540  -34.0950 C   0  0  0  0  0  0  0  0  0  0  0  0
   -6.5090   19.7010  -33.3520 C   0  0  0  0  0  0  0  0  0  0  0  0
   -5.4233   22.0855  -31.2669 H   0  0  0  0  0  0  0  0  0  0  0  0
   -5.4033   21.1598  -32.8062 H   0  0  0  0  0  0  0  0  0  0  0  0
   -5.8777   22.8923  -32.8062 H   0  0  0  0  0  0  0  0  0  0  0  0
   -7.5226   21.2917  -30.9602 H   0  0  0  0  0  0  0  0  0  0  0  0
   -8.0213   22.3969  -32.2961 H   0  0  0  0  0  0  0  0  0  0  0  0
   -9.2071   20.0265  -31.3933 H   0  0  0  0  0  0  0  0  0  0  0  0
   -9.3842   19.0986  -32.9464 H   0  0  0  0  0  0  0  0  0  0  0  0
   -7.3007   18.6054  -30.7700 H   0  0  0  0  0  0  0  0  0  0  0  0
   -8.7499   17.5924  -31.1327 H   0  0  0  0  0  0  0  0  0  0  0  0
   -6.2593   17.1082  -32.1608 H   0  0  0  0  0  0  0  0  0  0  0  0
   -7.8187   16.6611  -32.9832 H   0  0  0  0  0  0  0  0  0  0  0  0
   -5.6007   16.6835  -34.2910 H   0  0  0  0  0  0  0  0  0  0  0  0
   -5.8981   17.8733  -35.6213 H   0  0  0  0  0  0  0  0  0  0  0  0
   -3.6848   18.3591  -35.0581 H   0  0  0  0  0  0  0  0  0  0  0  0
   -4.5876   19.5296  -34.0287 H   0  0  0  0  0  0  0  0  0  0  0  0
   -3.5610   18.6390  -32.3230 H   0  0  0  0  0  0  0  0  0  0  0  0
   -2.3685   16.4046  -32.4829 H   0  0  0  0  0  0  0  0  0  0  0  0
   -2.7059   16.5868  -34.2592 H   0  0  0  0  0  0  0  0  0  0  0  0
   -0.4091   17.4308  -33.2905 H   0  0  0  0  0  0  0  0  0  0  0  0
   -1.3035   18.4408  -34.4757 H   0  0  0  0  0  0  0  0  0  0  0  0
   -3.2045   19.8779  -33.1457 H   0  0  0  0  0  0  0  0  0  0  0  0
   -3.2549   20.6900  -30.9711 H   0  0  0  0  0  0  0  0  0  0  0  0
   -2.8254   22.1563  -31.9858 H   0  0  0  0  0  0  0  0  0  0  0  0
   -1.5821   21.8883  -29.7756 H   0  0  0  0  0  0  0  0  0  0  0  0
   -0.6005   22.1384  -31.2823 H   0  0  0  0  0  0  0  0  0  0  0  0
   -1.0655   19.5274  -29.7817 H   0  0  0  0  0  0  0  0  0  0  0  0
    0.4822   20.4588  -29.9733 H   0  0  0  0  0  0  0  0  0  0  0  0
    0.2900   18.4168  -31.4617 H   0  0  0  0  0  0  0  0  0  0  0  0
    1.8693   19.4085  -32.5632 H   0  0  0  0  0  0  0  0  0  0  0  0
    1.2035   21.0422  -32.1173 H   0  0  0  0  0  0  0  0  0  0  0  0
    1.3639   19.8267  -35.8817 H   0  0  0  0  0  0  0  0  0  0  0  0
    2.4872   19.5664  -34.4737 H   0  0  0  0  0  0  0  0  0  0  0  0
    3.2027   21.4815  -35.8896 H   0  0  0  0  0  0  0  0  0  0  0  0
    2.7900   21.9937  -34.2350 H   0  0  0  0  0  0  0  0  0  0  0  0
   -0.7720   22.8490  -35.7600 H   0  0  0  0  0  0  0  0  0  0  0  0
   -0.0850   22.1587  -33.2500 H   0  0  0  0  0  0  0  0  0  0  0  0
   -1.9219   20.4020  -34.9664 H   0  0  0  0  0  0  0  0  0  0  0  0
   -2.3532   21.9815  -34.1130 H   0  0  0  0  0  0  0  0  0  0  0  0
   -5.7641   19.6595  -32.5436 H   0  0  0  0  0  0  0  0  0  0  0  0
   -6.1091   20.2620  -34.2095 H   0  0  0  0  0  0  0  0  0  0  0  0
  1  2  1  0
  2  3  1  0
  3  4  1  0
  4  5  1  0
  5  6  1  0
  6  7  1  0
  7  8  1  0
  8  9  1  0
  9 10  1  0
 10 11  1  0
 11 12  1  0
 12 13  1  0
 13 14  1  0
 14 15  1  0
 15 16  1  0
 16 17  1  0
 17 18  1  0
 18 19  1  0
 19 20  1  0
 20 21  1  0
 21 22  1  0
 22 23  1  0
 23 24  2  0
 23 25  1  0
 25 26  1  0
 26 27  1  0
  7 28  1  0
 28  3  1  0
 18 13  1  0
 26 20  1  0
 27 14  1  0
  1 29  1  0
  1 30  1  0
  1 31  1  0
  2 32  1  0
  2 33  1  0
  4 34  1  0
  4 35  1  0
  5 36  1  0
  5 37  1  0
  6 38  1  0
  6 39  1  0
  8 40  1  0
  8 41  1  0
  9 42  1  0
  9 43  1  0
 10 44  1  0
 11 45  1  0
 11 46  1  0
 12 47  1  0
 12 48  1  0
 14 49  1  6
 15 50  1  0
 15 51  1  0
 16 52  1  0
 16 53  1  0
 17 54  1  0
 17 55  1  0
 18 56  1  1
 19 57  1  0
 19 58  1  0
 21 59  1  0
 21 60  1  0
 22 61  1  0
 22 62  1  0
 25 63  1  0
 26 64  1  1
 27 65  1  0
 27 66  1  0
 28 67  1  0
 28 68  1  0
M  END
>  <UniqueID>  (19) 
19

>  <SMILES>  (19) 
CCN1CCCN(CCNCCN2[C@@H]3CCC[C@H]2CC2NC(=O)CCN2C3)C1

>  <Energy>  (19) 
102.09014955558469

>  <Genealogy>  (19) 
CCN1CCCN(CCNCCN2C3CCCC2CN2CCC(=O)NC2C3)C1 (protonated)
CCN1CCCN(CCNCCN2[C@@H]3CCC[C@H]2CC2NC(=O)CCN2C3)C1 (chirality)
CCN1CCCN(CCNCCN2[C@@H]3CCC[C@H]2CC2NC(=O)CCN2C3)C1 (3D coordinates assigned)
CCN1CCCN(CCNCCN2[C@@H]3CCC[C@H]2CC2NC(=O)CCN2C3)C1 (nonaromatic ring conformer: 102.09014955558469 kcal/mol)

>  <smiles>  (19) 
CC[N+]1CCCN(CCNCCN2C3CCCC2CN2CCC(=O)NC2C3)C1

>  <score_type>  (19) 
oracle

>  <origin>  (19) 
adg

>  <m_score__min__energy>  (19) 
-7.6600000000000001

>  <m_primary>  (19) 
energy

$$$$
19:0
     RDKit          3D

 49 51  0  0  0  0  0  0  0  0999 V2000
   -2.7980   21.0980  -28.0940 C   0  0  0  0  0  0  0  0  0  0  0  0
   -3.1360   21.0640  -29.5920 C   0  0  0  0  0  0  0  0  0  0  0  0
   -2.6450   22.2330  -30.3680 N   0  0  2  0  0  0  0  0  0  0  0  0
   -1.9590   21.8090  -31.6030 C   0  0  0  0  0  0  0  0  0  0  0  0
   -1.7810   23.1630  -29.6000 C   0  0  0  0  0  0  0  0  0  0  0  0
   -2.4490   24.5240  -29.3370 C   0  0  0  0  0  0  0  0  0  0  0  0
   -3.5270   24.7190  -30.2340 O   0  0  0  0  0  0  0  0  0  0  0  0
   -4.7550   24.7460  -29.5360 C   0  0  0  0  0  0  0  0  0  0  0  0
   -5.8090   23.9960  -30.3470 C   0  0  0  0  0  0  0  0  0  0  0  0
   -5.2330   22.8790  -30.9980 O   0  0  0  0  0  0  0  0  0  0  0  0
   -5.6480   22.7840  -32.3510 C   0  0  2  0  0  0  0  0  0  0  0  0
   -7.0550   23.3930  -32.4700 C   0  0  0  0  0  0  0  0  0  0  0  0
   -8.0230   22.5570  -31.8340 O   0  0  0  0  0  0  0  0  0  0  0  0
   -7.9960   21.1690  -31.9980 C   0  0  0  0  0  0  0  0  0  0  0  0
   -9.1170   20.3980  -31.6790 C   0  0  0  0  0  0  0  0  0  0  0  0
   -9.1040   19.0170  -31.8980 C   0  0  0  0  0  0  0  0  0  0  0  0
   -7.9700   18.3970  -32.4340 C   0  0  0  0  0  0  0  0  0  0  0  0
   -6.8300   19.1560  -32.7360 C   0  0  0  0  0  0  0  0  0  0  0  0
   -5.6780   18.5520  -33.2620 C   0  0  0  0  0  0  0  0  0  0  0  0
   -4.5440   19.3230  -33.5350 C   0  0  0  0  0  0  0  0  0  0  0  0
   -4.5420   20.6970  -33.2720 C   0  0  0  0  0  0  0  0  0  0  0  0
   -5.6860   21.3220  -32.7510 C   0  0  0  0  0  0  0  0  0  0  0  0
   -6.8360   20.5500  -32.4970 C   0  0  0  0  0  0  0  0  0  0  0  0
   -3.7236   21.0049  -27.5071 H   0  0  0  0  0  0  0  0  0  0  0  0
   -2.1243   20.2631  -27.8511 H   0  0  0  0  0  0  0  0  0  0  0  0
   -2.3040   22.0504  -27.8511 H   0  0  0  0  0  0  0  0  0  0  0  0
   -2.6902   20.1554  -30.0230 H   0  0  0  0  0  0  0  0  0  0  0  0
   -4.2336   21.0841  -29.6626 H   0  0  0  0  0  0  0  0  0  0  0  0
   -3.4920   22.7710  -30.6740 H   0  0  0  0  0  0  0  0  0  0  0  0
   -1.0498   21.2471  -31.3430 H   0  0  0  0  0  0  0  0  0  0  0  0
   -2.6300   21.1679  -32.1935 H   0  0  0  0  0  0  0  0  0  0  0  0
   -1.6856   22.6959  -32.1935 H   0  0  0  0  0  0  0  0  0  0  0  0
   -1.5386   22.6986  -28.6328 H   0  0  0  0  0  0  0  0  0  0  0  0
   -0.8799   23.3493  -30.2028 H   0  0  0  0  0  0  0  0  0  0  0  0
   -2.8261   24.5505  -28.3040 H   0  0  0  0  0  0  0  0  0  0  0  0
   -1.7080   25.3232  -29.4859 H   0  0  0  0  0  0  0  0  0  0  0  0
   -4.6319   24.2623  -28.5557 H   0  0  0  0  0  0  0  0  0  0  0  0
   -5.0741   25.7884  -29.3889 H   0  0  0  0  0  0  0  0  0  0  0  0
   -6.6061   23.6502  -29.6724 H   0  0  0  0  0  0  0  0  0  0  0  0
   -6.2226   24.6756  -31.1067 H   0  0  0  0  0  0  0  0  0  0  0  0
   -4.9516   23.3231  -33.0100 H   0  0  0  0  0  0  0  0  0  0  0  0
   -7.0617   24.3827  -31.9900 H   0  0  0  0  0  0  0  0  0  0  0  0
   -7.3119   23.4836  -33.5357 H   0  0  0  0  0  0  0  0  0  0  0  0
  -10.0111   20.8783  -31.2549 H   0  0  0  0  0  0  0  0  0  0  0  0
   -9.9899   18.4149  -31.6476 H   0  0  0  0  0  0  0  0  0  0  0  0
   -7.9726   17.3126  -32.6188 H   0  0  0  0  0  0  0  0  0  0  0  0
   -5.6670   17.4700  -33.4600 H   0  0  0  0  0  0  0  0  0  0  0  0
   -3.6480   18.8463  -33.9591 H   0  0  0  0  0  0  0  0  0  0  0  0
   -3.6387   21.2912  -33.4746 H   0  0  0  0  0  0  0  0  0  0  0  0
  1  2  1  0
  2  3  1  0
  3  4  1  0
  3  5  1  0
  5  6  1  0
  6  7  1  0
  7  8  1  0
  8  9  1  0
  9 10  1  0
 10 11  1  0
 11 12  1  0
 12 13  1  0
 13 14  1  0
 14 15  1  0
 15 16  2  0
 16 17  1  0
 17 18  2  0
 18 19  1  0
 19 20  2  0
 20 21  1  0
 21 22  2  0
 22 23  1  0
 22 11  1  0
 23 14  2  0
 23 18  1  0
  1 24  1  0
  1 25  1  0
  1 26  1  0
  2 27  1  0
  2 28  1  0
  3 29  1  6
  4 30  1  0
  4 31  1  0
  4 32  1  0
  5 33  1  0
  5 34  1  0
  6 35  1  0
  6 36  1  0
  8 37  1  0
  8 38  1  0
  9 39  1  0
  9 40  1  0
 11 41  1  6
 12 42  1  0
 12 43  1  0
 15 44  1  0
 16 45  1  0
 17 46  1  0
 19 47  1  0
 20 48  1  0
 21 49  1  0
M  CHG  1   3   1
M  END
>  <UniqueID>  (20) 
20

>  <SMILES>  (20) 
CC[N@H+](C)CCOCCO[C@@H]1COc2cccc3cccc1c23

>  <Energy>  (20) 
60.03237710509424

>  <Genealogy>  (20) 
CC[NH+](C)CCOCCOC1COc2cccc3cccc1c23 (protonated)
CC[N@H+](C)CCOCCO[C@@H]1COc2cccc3cccc1c23 (chirality)
CC[N@H+](C)CCOCCO[C@@H]1COc2cccc3cccc1c23 (3D coordinates assigned)
CC[N@H+](C)CCOCCO[C@@H]1COc2cccc3cccc1c23 (nonaromatic ring conformer: 60.03237710509424 kcal/mol)

>  <smiles>  (20) 
CCN(C)CCOCCOC1COc2cccc3cccc1c23

>  <score_type>  (20) 
oracle

>  <origin>  (20) 
adg

>  <m_score__min__energy>  (20) 
-5.9100000000000001

>  <m_primary>  (20) 
energy

$$$$
20:0
     RDKit          3D

 49 52  0  0  0  0  0  0  0  0999 V2000
   -4.2020   24.2500  -28.2780 C   0  0  0  0  0  0  0  0  0  0  0  0
   -3.2350   24.5510  -29.4290 C   0  0  0  0  0  0  0  0  0  0  0  0
   -3.9180   25.1120  -30.6050 N   0  0  0  0  0  0  0  0  0  0  0  0
   -5.3660   25.2500  -30.3920 C   0  0  0  0  0  0  0  0  0  0  0  0
   -6.1250   24.0060  -30.9000 C   0  0  0  0  0  0  0  0  0  0  0  0
   -5.4510   22.7280  -30.5760 N   0  0  0  0  0  0  0  0  0  0  0  0
   -5.6170   21.7200  -31.6160 C   0  0  0  0  0  0  0  0  0  0  0  0
   -4.4940   21.2230  -32.3300 C   0  0  0  0  0  0  0  0  0  0  0  0
   -4.6300   20.0240  -33.0710 C   0  0  0  0  0  0  0  0  0  0  0  0
   -5.8770   19.5420  -33.3980 N   0  0  0  0  0  0  0  0  0  0  0  0
   -6.0260   18.5700  -34.5030 C   0  0  0  0  0  0  0  0  0  0  0  0
   -6.9980   20.0380  -32.7660 C   0  0  0  0  0  0  0  0  0  0  0  0
   -8.2750   19.4490  -32.9620 C   0  0  0  0  0  0  0  0  0  0  0  0
   -9.4110   19.9680  -32.3500 C   0  0  0  0  0  0  0  0  0  0  0  0
   -9.3120   21.0800  -31.5270 C   0  0  0  0  0  0  0  0  0  0  0  0
   -8.0720   21.6660  -31.2900 C   0  0  0  0  0  0  0  0  0  0  0  0
   -6.8920   21.1470  -31.8770 C   0  0  0  0  0  0  0  0  0  0  0  0
   -3.3730   19.3320  -33.4670 C   0  0  0  0  0  0  0  0  0  0  0  0
   -3.1620   17.9440  -33.5560 C   0  0  0  0  0  0  0  0  0  0  0  0
   -1.8380   17.6040  -33.8150 C   0  0  0  0  0  0  0  0  0  0  0  0
   -0.9170   19.0140  -33.8760 S   0  0  0  0  0  0  0  0  0  0  0  0
   -2.2040   20.0510  -33.5880 C   0  0  0  0  0  0  0  0  0  0  0  0
   -2.1580   21.5220  -33.3840 C   0  0  0  0  0  0  0  0  0  0  0  0
   -3.1220   21.9080  -32.2470 C   0  0  0  0  0  0  0  0  0  0  0  0
   -3.6899   24.4094  -27.3176 H   0  0  0  0  0  0  0  0  0  0  0  0
   -5.0719   24.9199  -28.3453 H   0  0  0  0  0  0  0  0  0  0  0  0
   -4.5380   23.2047  -28.3453 H   0  0  0  0  0  0  0  0  0  0  0  0
   -2.4837   25.2741  -29.0788 H   0  0  0  0  0  0  0  0  0  0  0  0
   -2.7706   23.6013  -29.7330 H   0  0  0  0  0  0  0  0  0  0  0  0
   -3.4920   26.0370  -30.8370 H   0  0  0  0  0  0  0  0  0  0  0  0
   -5.5603   25.3747  -29.3165 H   0  0  0  0  0  0  0  0  0  0  0  0
   -5.7190   26.1274  -30.9538 H   0  0  0  0  0  0  0  0  0  0  0  0
   -7.1252   23.9977  -30.4422 H   0  0  0  0  0  0  0  0  0  0  0  0
   -6.1679   24.0795  -31.9967 H   0  0  0  0  0  0  0  0  0  0  0  0
   -4.4320   22.9000  -30.4250 H   0  0  0  0  0  0  0  0  0  0  0  0
   -5.7920   22.4160  -29.6430 H   0  0  0  0  0  0  0  0  0  0  0  0
   -6.1803   17.5633  -34.0875 H   0  0  0  0  0  0  0  0  0  0  0  0
   -6.8920   18.8480  -35.1216 H   0  0  0  0  0  0  0  0  0  0  0  0
   -5.1165   18.5759  -35.1216 H   0  0  0  0  0  0  0  0  0  0  0  0
   -8.3676   18.5652  -33.6103 H   0  0  0  0  0  0  0  0  0  0  0  0
  -10.3899   19.4956  -32.5190 H   0  0  0  0  0  0  0  0  0  0  0  0
  -10.2155   21.4997  -31.0606 H   0  0  0  0  0  0  0  0  0  0  0  0
   -8.0072   22.5476  -30.6354 H   0  0  0  0  0  0  0  0  0  0  0  0
   -3.9641   17.2013  -33.4330 H   0  0  0  0  0  0  0  0  0  0  0  0
   -1.4552   16.5825  -33.9567 H   0  0  0  0  0  0  0  0  0  0  0  0
   -1.1347   21.8242  -33.1167 H   0  0  0  0  0  0  0  0  0  0  0  0
   -2.4582   22.0323  -34.3111 H   0  0  0  0  0  0  0  0  0  0  0  0
   -2.6554   21.6324  -31.2897 H   0  0  0  0  0  0  0  0  0  0  0  0
   -3.3011   22.9897  -32.3358 H   0  0  0  0  0  0  0  0  0  0  0  0
  1  2  1  0
  2  3  1  0
  3  4  1  0
  4  5  1  0
  5  6  1  0
  6  7  1  0
  7  8  2  0
  8  9  1  0
  9 10  2  0
 10 11  1  0
 10 12  1  0
 12 13  2  0
 13 14  1  0
 14 15  2  0
 15 16  1  0
 16 17  2  0
  9 18  1  0
 18 19  1  0
 19 20  2  0
 20 21  1  0
 21 22  1  0
 22 23  1  0
 23 24  1  0
 17  7  1  0
 22 18  2  0
 24  8  1  0
 17 12  1  0
  1 25  1  0
  1 26  1  0
  1 27  1  0
  2 28  1  0
  2 29  1  0
  3 30  1  0
  4 31  1  0
  4 32  1  0
  5 33  1  0
  5 34  1  0
  6 35  1  0
  6 36  1  0
 11 37  1  0
 11 38  1  0
 11 39  1  0
 13 40  1  0
 14 41  1  0
 15 42  1  0
 16 43  1  0
 19 44  1  0
 20 45  1  0
 23 46  1  0
 23 47  1  0
 24 48  1  0
 24 49  1  0
M  CHG  2   6   1  10   1
M  END
>  <UniqueID>  (21) 
21

>  <SMILES>  (21) 
CCNCC[NH2+]c1c2c([n+](C)c3ccccc13)-c1ccsc1CC2

>  <Energy>  (21) 
107.72722984186402

>  <Genealogy>  (21) 
CCNCC[NH2+]c1c2c([n+](C)c3ccccc13)-c1ccsc1CC2 (protonated)
CCNCC[NH2+]c1c2c([n+](C)c3ccccc13)-c1ccsc1CC2 (3D coordinates assigned)
CCNCC[NH2+]c1c2c([n+](C)c3ccccc13)-c1ccsc1CC2 (nonaromatic ring conformer: 107.72722984186402 kcal/mol)

>  <smiles>  (21) 
CCNCCNc1c2c([n+](C)c3ccccc13)-c1ccsc1CC2

>  <score_type>  (21) 
oracle

>  <origin>  (21) 
adg

>  <m_score__min__energy>  (21) 
-8.4299999999999997

>  <m_primary>  (21) 
energy

$$$$
21:0
     RDKit          3D

 43 46  0  0  0  0  0  0  0  0999 V2000
   -8.3530   22.4550  -31.2090 C   0  0  0  0  0  0  0  0  0  0  0  0
   -7.6290   21.4400  -31.9720 N   0  0  0  0  0  0  0  0  0  0  0  0
   -8.2130   20.3570  -32.5410 C   0  0  0  0  0  0  0  0  0  0  0  0
   -7.3250   19.5600  -33.1730 N   0  0  0  0  0  0  0  0  0  0  0  0
   -6.1420   20.1630  -32.9840 C   0  0  0  0  0  0  0  0  0  0  0  0
   -4.9030   19.7530  -33.4670 C   0  0  0  0  0  0  0  0  0  0  0  0
   -3.7890   20.5510  -33.1720 C   0  0  0  0  0  0  0  0  0  0  0  0
   -3.9350   21.7270  -32.4090 C   0  0  0  0  0  0  0  0  0  0  0  0
   -5.2020   22.1310  -31.9260 C   0  0  0  0  0  0  0  0  0  0  0  0
   -5.3170   23.3190  -31.1240 N   0  0  0  0  0  0  0  0  0  0  0  0
   -6.1060   24.4540  -31.5960 C   0  0  0  0  0  0  0  0  0  0  0  0
   -6.4380   25.2880  -30.3590 C   0  0  0  0  0  0  0  0  0  0  0  0
   -5.5540   24.7390  -29.2460 C   0  0  0  0  0  0  0  0  0  0  0  0
   -5.2810   23.3000  -29.6630 C   0  0  2  0  0  0  0  0  0  0  0  0
   -3.9980   22.6860  -29.0530 C   0  0  0  0  0  0  0  0  0  0  0  0
   -2.9800   23.6740  -28.5390 C   0  0  0  0  0  0  0  0  0  0  0  0
   -3.0550   24.1800  -27.2320 C   0  0  0  0  0  0  0  0  0  0  0  0
   -2.0880   25.0750  -26.7710 C   0  0  0  0  0  0  0  0  0  0  0  0
   -1.0390   25.4430  -27.6140 C   0  0  0  0  0  0  0  0  0  0  0  0
   -0.9570   24.9220  -28.8660 N   0  0  0  0  0  0  0  0  0  0  0  0
   -1.8890   24.0520  -29.3390 C   0  0  0  0  0  0  0  0  0  0  0  0
   -6.3060   21.3050  -32.2390 C   0  0  0  0  0  0  0  0  0  0  0  0
   -8.2202   22.2689  -30.1330 H   0  0  0  0  0  0  0  0  0  0  0  0
   -7.9606   23.4515  -31.4599 H   0  0  0  0  0  0  0  0  0  0  0  0
   -9.4230   22.4084  -31.4599 H   0  0  0  0  0  0  0  0  0  0  0  0
   -9.2923   20.1501  -32.4931 H   0  0  0  0  0  0  0  0  0  0  0  0
   -7.5200   18.6790  -33.6970 H   0  0  0  0  0  0  0  0  0  0  0  0
   -4.8011   18.8327  -34.0609 H   0  0  0  0  0  0  0  0  0  0  0  0
   -2.7942   20.2575  -33.5384 H   0  0  0  0  0  0  0  0  0  0  0  0
   -3.0498   22.3405  -32.1855 H   0  0  0  0  0  0  0  0  0  0  0  0
   -5.5236   25.0511  -32.3131 H   0  0  0  0  0  0  0  0  0  0  0  0
   -7.0191   24.1204  -32.1108 H   0  0  0  0  0  0  0  0  0  0  0  0
   -6.2131   26.3495  -30.5398 H   0  0  0  0  0  0  0  0  0  0  0  0
   -7.5052   25.2251  -30.0999 H   0  0  0  0  0  0  0  0  0  0  0  0
   -4.6162   25.3095  -29.1751 H   0  0  0  0  0  0  0  0  0  0  0  0
   -6.0295   24.8085  -28.2565 H   0  0  0  0  0  0  0  0  0  0  0  0
   -6.0424   22.6165  -29.2591 H   0  0  0  0  0  0  0  0  0  0  0  0
   -4.2979   22.0420  -28.2131 H   0  0  0  0  0  0  0  0  0  0  0  0
   -3.5039   22.1467  -29.8746 H   0  0  0  0  0  0  0  0  0  0  0  0
   -3.8771   23.8708  -26.5698 H   0  0  0  0  0  0  0  0  0  0  0  0
   -2.1525   25.4862  -25.7528 H   0  0  0  0  0  0  0  0  0  0  0  0
   -0.2775   26.1558  -27.2646 H   0  0  0  0  0  0  0  0  0  0  0  0
   -1.7879   23.6416  -30.3546 H   0  0  0  0  0  0  0  0  0  0  0  0
  1  2  1  0
  2  3  1  0
  3  4  2  0
  4  5  1  0
  5  6  2  0
  6  7  1  0
  7  8  2  0
  8  9  1  0
  9 10  1  0
 10 11  1  0
 11 12  1  0
 12 13  1  0
 13 14  1  0
 14 15  1  0
 15 16  1  0
 16 17  2  0
 17 18  1  0
 18 19  2  0
 19 20  1  0
 20 21  2  0
  9 22  2  0
 22  2  1  0
 22  5  1  0
 14 10  1  0
 21 16  1  0
  1 23  1  0
  1 24  1  0
  1 25  1  0
  3 26  1  0
  4 27  1  0
  6 28  1  0
  7 29  1  0
  8 30  1  0
 11 31  1  0
 11 32  1  0
 12 33  1  0
 12 34  1  0
 13 35  1  0
 13 36  1  0
 14 37  1  1
 15 38  1  0
 15 39  1  0
 17 40  1  0
 18 41  1  0
 19 42  1  0
 21 43  1  0
M  CHG  1   4   1
M  END
>  <UniqueID>  (22) 
22

>  <SMILES>  (22) 
Cn1c[nH+]c2cccc(N3CCC[C@@H]3Cc3cccnc3)c21

>  <Energy>  (22) 
93.90856965989843

>  <Genealogy>  (22) 
Cn1c[nH+]c2cccc(N3CCCC3Cc3cccnc3)c21 (protonated)
Cn1c[nH+]c2cccc(N3CCC[C@@H]3Cc3cccnc3)c21 (chirality)
Cn1c[nH+]c2cccc(N3CCC[C@@H]3Cc3cccnc3)c21 (3D coordinates assigned)
Cn1c[nH+]c2cccc(N3CCC[C@@H]3Cc3cccnc3)c21 (nonaromatic ring conformer: 93.90856965989843 kcal/mol)

>  <smiles>  (22) 
Cn1cnc2cccc(N3CCCC3Cc3cccnc3)c21

>  <score_type>  (22) 
oracle

>  <origin>  (22) 
adg

>  <m_score__min__energy>  (22) 
-7.4900000000000002

>  <m_primary>  (22) 
energy

$$$$
22:0
     RDKit          3D

 92 95  0  0  0  0  0  0  0  0999 V2000
   -0.2770   21.1410  -34.7640 C   0  0  0  0  0  0  0  0  0  0  0  0
   -1.3370   20.7020  -33.7480 C   0  0  0  0  0  0  0  0  0  0  0  0
   -1.1010   19.3080  -33.2540 N   0  0  0  0  0  0  0  0  0  0  0  0
   -0.2440   19.3000  -32.0370 C   0  0  0  0  0  0  0  0  0  0  0  0
   -0.0040   20.6970  -31.4530 C   0  0  0  0  0  0  0  0  0  0  0  0
   -0.4830   18.5040  -34.3430 C   0  0  0  0  0  0  0  0  0  0  0  0
   -1.3560   17.3390  -34.8430 C   0  0  0  0  0  0  0  0  0  0  0  0
   -2.4240   17.1440  -33.9370 O   0  0  0  0  0  0  0  0  0  0  0  0
   -3.6710   17.1450  -34.6120 C   0  0  0  0  0  0  0  0  0  0  0  0
   -4.7930   17.7710  -33.7650 C   0  0  0  0  0  0  0  0  0  0  0  0
   -4.6230   19.2880  -33.5970 C   0  0  0  0  0  0  0  0  0  0  0  0
   -4.6950   19.6810  -32.1860 N   0  0  0  0  0  0  0  0  0  0  0  0
   -5.3270   20.9000  -31.7570 C   0  0  0  0  0  0  0  0  0  0  0  0
   -6.7270   21.0200  -31.8290 C   0  0  0  0  0  0  0  0  0  0  0  0
   -7.5150   19.9880  -32.3860 C   0  0  0  0  0  0  0  0  0  0  0  0
   -8.9050   20.0700  -32.3860 C   0  0  0  0  0  0  0  0  0  0  0  0
   -9.5330   21.1700  -31.8240 C   0  0  0  0  0  0  0  0  0  0  0  0
   -8.7780   22.2130  -31.2850 C   0  0  0  0  0  0  0  0  0  0  0  0
   -7.3590   22.1840  -31.3160 C   0  0  0  0  0  0  0  0  0  0  0  0
   -6.6000   23.2400  -30.8440 N   0  0  0  0  0  0  0  0  0  0  0  0
   -7.2380   24.5490  -30.5550 C   0  0  0  0  0  0  0  0  0  0  0  0
   -5.2350   23.0920  -30.6840 C   0  0  0  0  0  0  0  0  0  0  0  0
   -4.4530   24.0720  -30.0200 C   0  0  0  0  0  0  0  0  0  0  0  0
   -3.0550   23.9890  -29.9750 C   0  0  0  0  0  0  0  0  0  0  0  0
   -2.3600   25.0120  -29.3170 O   0  0  0  0  0  0  0  0  0  0  0  0
   -1.0940   24.8990  -28.6620 C   0  0  0  0  0  0  0  0  0  0  0  0
   -1.2650   24.2910  -27.2480 C   0  0  0  0  0  0  0  0  0  0  0  0
   -1.6680   25.2550  -26.1660 N   0  0  0  0  0  0  0  0  0  0  0  0
   -3.1540   25.3040  -26.0710 C   0  0  0  0  0  0  0  0  0  0  0  0
   -1.1330   26.6280  -26.4550 C   0  0  0  0  0  0  0  0  0  0  0  0
   -0.8810   27.4390  -25.1700 C   0  0  0  0  0  0  0  0  0  0  0  0
    0.1800   26.8150  -24.3140 N   0  0  0  0  0  0  0  0  0  0  0  0
    1.5070   27.3880  -24.6650 C   0  0  0  0  0  0  0  0  0  0  0  0
   -0.0990   27.1420  -22.8930 C   0  0  0  0  0  0  0  0  0  0  0  0
    0.2350   25.3260  -24.4880 C   0  0  0  0  0  0  0  0  0  0  0  0
   -1.1420   24.7330  -24.8550 C   0  0  0  0  0  0  0  0  0  0  0  0
   -2.4110   22.8840  -30.5590 C   0  0  0  0  0  0  0  0  0  0  0  0
   -3.1620   21.8730  -31.1550 C   0  0  0  0  0  0  0  0  0  0  0  0
   -4.5700   21.9430  -31.1970 C   0  0  0  0  0  0  0  0  0  0  0  0
    0.6118   21.5091  -34.2307 H   0  0  0  0  0  0  0  0  0  0  0  0
    0.0027   20.2847  -35.3953 H   0  0  0  0  0  0  0  0  0  0  0  0
   -0.6847   21.9443  -35.3953 H   0  0  0  0  0  0  0  0  0  0  0  0
   -1.3133   21.3908  -32.8907 H   0  0  0  0  0  0  0  0  0  0  0  0
   -2.3158   20.7224  -34.2496 H   0  0  0  0  0  0  0  0  0  0  0  0
   -2.0170   18.8550  -33.0170 H   0  0  0  0  0  0  0  0  0  0  0  0
   -0.7326   18.6807  -31.2704 H   0  0  0  0  0  0  0  0  0  0  0  0
    0.7365   18.8984  -32.3326 H   0  0  0  0  0  0  0  0  0  0  0  0
   -0.0135   20.6418  -30.3544 H   0  0  0  0  0  0  0  0  0  0  0  0
    0.9720   21.0737  -31.7928 H   0  0  0  0  0  0  0  0  0  0  0  0
   -0.7983   21.3779  -31.7928 H   0  0  0  0  0  0  0  0  0  0  0  0
   -0.2809   19.1726  -35.1928 H   0  0  0  0  0  0  0  0  0  0  0  0
    0.4307   18.0564  -33.9248 H   0  0  0  0  0  0  0  0  0  0  0  0
   -1.7562   17.5788  -35.8392 H   0  0  0  0  0  0  0  0  0  0  0  0
   -0.7515   16.4224  -34.9087 H   0  0  0  0  0  0  0  0  0  0  0  0
   -3.5683   17.7203  -35.5439 H   0  0  0  0  0  0  0  0  0  0  0  0
   -3.9453   16.0990  -34.8138 H   0  0  0  0  0  0  0  0  0  0  0  0
   -5.7575   17.5760  -34.2567 H   0  0  0  0  0  0  0  0  0  0  0  0
   -4.7513   17.3161  -32.7643 H   0  0  0  0  0  0  0  0  0  0  0  0
   -3.6445   19.5856  -34.0020 H   0  0  0  0  0  0  0  0  0  0  0  0
   -5.4384   19.7900  -34.1385 H   0  0  0  0  0  0  0  0  0  0  0  0
   -4.1650   19.1200  -31.4810 H   0  0  0  0  0  0  0  0  0  0  0  0
   -7.0236   19.1076  -32.8257 H   0  0  0  0  0  0  0  0  0  0  0  0
   -9.5041   19.2623  -32.8317 H   0  0  0  0  0  0  0  0  0  0  0  0
  -10.6316   21.2215  -31.8025 H   0  0  0  0  0  0  0  0  0  0  0  0
   -9.2913   23.0721  -30.8284 H   0  0  0  0  0  0  0  0  0  0  0  0
   -7.3071   24.6908  -29.4664 H   0  0  0  0  0  0  0  0  0  0  0  0
   -6.6324   25.3565  -30.9922 H   0  0  0  0  0  0  0  0  0  0  0  0
   -8.2472   24.5695  -30.9922 H   0  0  0  0  0  0  0  0  0  0  0  0
   -4.9564   24.9176  -29.5285 H   0  0  0  0  0  0  0  0  0  0  0  0
   -0.4354   24.2498  -29.2576 H   0  0  0  0  0  0  0  0  0  0  0  0
   -0.6532   25.9023  -28.5660 H   0  0  0  0  0  0  0  0  0  0  0  0
   -2.0362   23.5089  -27.3078 H   0  0  0  0  0  0  0  0  0  0  0  0
   -0.2710   23.9176  -26.9608 H   0  0  0  0  0  0  0  0  0  0  0  0
   -3.4536   25.3139  -25.0126 H   0  0  0  0  0  0  0  0  0  0  0  0
   -3.5232   26.2148  -26.5651 H   0  0  0  0  0  0  0  0  0  0  0  0
   -3.5824   24.4195  -26.5651 H   0  0  0  0  0  0  0  0  0  0  0  0
   -0.1844   26.5300  -27.0033 H   0  0  0  0  0  0  0  0  0  0  0  0
   -1.8868   27.1648  -27.0496 H   0  0  0  0  0  0  0  0  0  0  0  0
   -0.5624   28.4547  -25.4473 H   0  0  0  0  0  0  0  0  0  0  0  0
   -1.8165   27.4607  -24.5917 H   0  0  0  0  0  0  0  0  0  0  0  0
    2.0588   27.6263  -23.7437 H   0  0  0  0  0  0  0  0  0  0  0  0
    2.0778   26.6562  -25.2554 H   0  0  0  0  0  0  0  0  0  0  0  0
    1.3657   28.3053  -25.2554 H   0  0  0  0  0  0  0  0  0  0  0  0
    0.4764   26.4676  -22.2418 H   0  0  0  0  0  0  0  0  0  0  0  0
    0.1932   28.1833  -22.6922 H   0  0  0  0  0  0  0  0  0  0  0  0
   -1.1733   27.0174  -22.6922 H   0  0  0  0  0  0  0  0  0  0  0  0
    0.9487   25.0888  -25.2908 H   0  0  0  0  0  0  0  0  0  0  0  0
    0.5497   24.8845  -23.5309 H   0  0  0  0  0  0  0  0  0  0  0  0
   -1.0472   23.6393  -24.9241 H   0  0  0  0  0  0  0  0  0  0  0  0
   -1.8523   25.0305  -24.0695 H   0  0  0  0  0  0  0  0  0  0  0  0
   -1.3131   22.8176  -30.5454 H   0  0  0  0  0  0  0  0  0  0  0  0
   -2.6491   21.0073  -31.5994 H   0  0  0  0  0  0  0  0  0  0  0  0
  1  2  1  0
  2  3  1  0
  3  4  1  0
  4  5  1  0
  3  6  1  0
  6  7  1  0
  7  8  1  0
  8  9  1  0
  9 10  1  0
 10 11  1  0
 11 12  1  0
 12 13  1  0
 13 14  2  0
 14 15  1  0
 15 16  2  0
 16 17  1  0
 17 18  2  0
 18 19  1  0
 19 20  2  0
 20 21  1  0
 20 22  1  0
 22 23  2  0
 23 24  1  0
 24 25  1  0
 25 26  1  0
 26 27  1  0
 27 28  1  0
 28 29  1  0
 28 30  1  0
 30 31  1  0
 31 32  1  0
 32 33  1  0
 32 34  1  0
 32 35  1  0
 35 36  1  0
 24 37  2  0
 37 38  1  0
 38 39  2  0
 39 13  1  0
 19 14  1  0
 39 22  1  0
 36 28  1  0
  1 40  1  0
  1 41  1  0
  1 42  1  0
  2 43  1  0
  2 44  1  0
  3 45  1  0
  4 46  1  0
  4 47  1  0
  5 48  1  0
  5 49  1  0
  5 50  1  0
  6 51  1  0
  6 52  1  0
  7 53  1  0
  7 54  1  0
  9 55  1  0
  9 56  1  0
 10 57  1  0
 10 58  1  0
 11 59  1  0
 11 60  1  0
 12 61  1  0
 15 62  1  0
 16 63  1  0
 17 64  1  0
 18 65  1  0
 21 66  1  0
 21 67  1  0
 21 68  1  0
 23 69  1  0
 26 70  1  0
 26 71  1  0
 27 72  1  0
 27 73  1  0
 29 74  1  0
 29 75  1  0
 29 76  1  0
 30 77  1  0
 30 78  1  0
 31 79  1  0
 31 80  1  0
 33 81  1  0
 33 82  1  0
 33 83  1  0
 34 84  1  0
 34 85  1  0
 34 86  1  0
 35 87  1  0
 35 88  1  0
 36 89  1  0
 36 90  1  0
 37 91  1  0
 38 92  1  0
M  CHG  4   3   1  20   1  28   1  32   1
M  END
>  <UniqueID>  (23) 
23

>  <SMILES>  (23) 
CC[NH+](CC)CCOCCCNc1c2ccccc2[n+](C)c2cc(OCC[N+]3(C)CC[N+](C)(C)CC3)ccc12

>  <Energy>  (23) 
147.5872695935105

>  <Genealogy>  (23) 
CC[NH+](CC)CCOCCCNc1c2ccccc2[n+](C)c2cc(OCC[N+]3(C)CC[N+](C)(C)CC3)ccc12 (protonated)
CC[NH+](CC)CCOCCCNc1c2ccccc2[n+](C)c2cc(OCC[N+]3(C)CC[N+](C)(C)CC3)ccc12 (3D coordinates assigned)
CC[NH+](CC)CCOCCCNc1c2ccccc2[n+](C)c2cc(OCC[N+]3(C)CC[N+](C)(C)CC3)ccc12 (nonaromatic ring conformer: 147.5872695935105 kcal/mol)

>  <smiles>  (23) 
CCN(CC)CCOCCCNc1c2ccccc2[n+](C)c2cc(OCC[N+]3(C)CC[N+](C)(C)CC3)ccc12

>  <score_type>  (23) 
oracle

>  <origin>  (23) 
adg

>  <m_score__min__energy>  (23) 
-7.4199999999999999

>  <m_primary>  (23) 
energy

$$$$
23:0
     RDKit          3D

 39 41  0  0  0  0  0  0  0  0999 V2000
   -2.3760   24.1690  -29.3510 C   0  0  0  0  0  0  0  0  0  0  0  0
   -3.7660   24.2990  -29.7520 N   0  0  0  0  0  0  0  0  0  0  0  0
   -4.7430   23.4260  -29.4760 C   0  0  0  0  0  0  0  0  0  0  0  0
   -5.8950   23.9010  -30.0610 C   0  0  0  0  0  0  0  0  0  0  0  0
   -7.2150   23.2070  -30.1560 C   0  0  0  0  0  0  0  0  0  0  0  0
   -7.8110   23.4190  -31.4870 N   0  0  0  0  0  0  0  0  0  0  0  0
   -6.8920   23.1750  -32.6110 C   0  0  0  0  0  0  0  0  0  0  0  0
   -6.4440   21.7150  -32.6980 C   0  0  0  0  0  0  0  0  0  0  0  0
   -7.5310   20.7520  -32.4250 N   0  0  0  0  0  0  0  0  0  0  0  0
   -7.2530   19.3450  -32.6070 C   0  0  0  0  0  0  0  0  0  0  0  0
   -7.8460   18.2860  -31.9530 C   0  0  0  0  0  0  0  0  0  0  0  0
   -7.4030   17.1350  -32.4860 N   0  0  0  0  0  0  0  0  0  0  0  0
   -6.5480   17.4360  -33.4480 N   0  0  0  0  0  0  0  0  0  0  0  0
   -5.7600   16.4450  -34.1690 C   0  0  0  0  0  0  0  0  0  0  0  0
   -6.4100   18.7700  -33.5430 C   0  0  0  0  0  0  0  0  0  0  0  0
   -8.8300   21.1340  -31.8300 C   0  0  0  0  0  0  0  0  0  0  0  0
   -9.0440   22.6620  -31.6900 C   0  0  0  0  0  0  0  0  0  0  0  0
   -5.5390   25.0730  -30.6820 C   0  0  0  0  0  0  0  0  0  0  0  0
   -4.2300   25.2970  -30.4930 N   0  0  0  0  0  0  0  0  0  0  0  0
   -2.3102   24.1628  -28.2530 H   0  0  0  0  0  0  0  0  0  0  0  0
   -1.9662   23.2286  -29.7482 H   0  0  0  0  0  0  0  0  0  0  0  0
   -1.7989   25.0171  -29.7482 H   0  0  0  0  0  0  0  0  0  0  0  0
   -4.6435   22.5004  -28.8901 H   0  0  0  0  0  0  0  0  0  0  0  0
   -7.0707   22.1291  -29.9908 H   0  0  0  0  0  0  0  0  0  0  0  0
   -7.8910   23.6188  -29.3921 H   0  0  0  0  0  0  0  0  0  0  0  0
   -7.4021   23.4434  -33.5479 H   0  0  0  0  0  0  0  0  0  0  0  0
   -5.9946   23.7897  -32.4472 H   0  0  0  0  0  0  0  0  0  0  0  0
   -6.0584   21.5280  -33.7111 H   0  0  0  0  0  0  0  0  0  0  0  0
   -5.6743   21.5642  -31.9267 H   0  0  0  0  0  0  0  0  0  0  0  0
   -8.5670   18.3700  -31.1265 H   0  0  0  0  0  0  0  0  0  0  0  0
   -5.2423   15.7939  -33.4492 H   0  0  0  0  0  0  0  0  0  0  0  0
   -6.4244   15.8375  -34.8010 H   0  0  0  0  0  0  0  0  0  0  0  0
   -5.0184   16.9554  -34.8010 H   0  0  0  0  0  0  0  0  0  0  0  0
   -5.7478   19.3071  -34.2380 H   0  0  0  0  0  0  0  0  0  0  0  0
   -9.6318   20.7310  -32.4661 H   0  0  0  0  0  0  0  0  0  0  0  0
   -8.8429   20.7201  -30.8109 H   0  0  0  0  0  0  0  0  0  0  0  0
   -9.5280   23.0289  -32.6071 H   0  0  0  0  0  0  0  0  0  0  0  0
   -9.6628   22.8157  -30.7936 H   0  0  0  0  0  0  0  0  0  0  0  0
   -6.2209   25.7261  -31.2463 H   0  0  0  0  0  0  0  0  0  0  0  0
  1  2  1  0
  2  3  1  0
  3  4  2  0
  4  5  1  0
  5  6  1  0
  6  7  1  0
  7  8  1  0
  8  9  1  0
  9 10  1  0
 10 11  1  0
 11 12  2  0
 12 13  1  0
 13 14  1  0
 13 15  1  0
  9 16  1  0
 16 17  1  0
  4 18  1  0
 18 19  2  0
 19  2  1  0
 17  6  1  0
 15 10  2  0
  1 20  1  0
  1 21  1  0
  1 22  1  0
  3 23  1  0
  5 24  1  0
  5 25  1  0
  7 26  1  0
  7 27  1  0
  8 28  1  0
  8 29  1  0
 11 30  1  0
 14 31  1  0
 14 32  1  0
 14 33  1  0
 15 34  1  0
 16 35  1  0
 16 36  1  0
 17 37  1  0
 17 38  1  0
 18 39  1  0
M  END
>  <UniqueID>  (24) 
24

>  <SMILES>  (24) 
Cn1cc(CN2CCN(c3cnn(C)c3)CC2)cn1

>  <Energy>  (24) 
105.65799305663768

>  <Genealogy>  (24) 
Cn1cc(CN2CCN(c3cnn(C)c3)CC2)cn1 (3D coordinates assigned)
Cn1cc(CN2CCN(c3cnn(C)c3)CC2)cn1 (nonaromatic ring conformer: 105.65799305663768 kcal/mol)

>  <smiles>  (24) 
Cn1cc(CN2CCN(c3cnn(C)c3)CC2)cn1

>  <score_type>  (24) 
oracle

>  <origin>  (24) 
adg

>  <m_score__min__energy>  (24) 
-7.2599999999999998

>  <m_primary>  (24) 
energy

$$$$
24:0
     RDKit          3D

 56 58  0  0  0  0  0  0  0  0999 V2000
   -1.1530   20.3210  -34.2020 C   0  0  0  0  0  0  0  0  0  0  0  0
   -2.5580   20.3680  -33.9810 O   0  0  0  0  0  0  0  0  0  0  0  0
   -3.3600   19.2490  -33.7080 C   0  0  0  0  0  0  0  0  0  0  0  0
   -3.1810   18.0190  -34.3780 C   0  0  0  0  0  0  0  0  0  0  0  0
   -4.0220   16.9350  -34.1060 C   0  0  0  0  0  0  0  0  0  0  0  0
   -5.0450   17.0640  -33.1670 C   0  0  0  0  0  0  0  0  0  0  0  0
   -5.2220   18.2700  -32.4870 C   0  0  0  0  0  0  0  0  0  0  0  0
   -4.3820   19.3630  -32.7460 C   0  0  0  0  0  0  0  0  0  0  0  0
   -4.5570   20.5840  -32.0030 N   0  0  0  0  0  0  0  0  0  0  0  0
   -3.6610   20.8840  -30.8730 C   0  0  0  0  0  0  0  0  0  0  0  0
   -2.7500   22.0920  -31.1480 C   0  0  0  0  0  0  0  0  0  0  0  0
   -3.2670   23.3490  -30.5010 C   0  0  0  0  0  0  0  0  0  0  0  0
   -3.9050   24.1750  -31.2080 O   0  0  0  0  0  0  0  0  0  0  0  0
   -3.0320   23.6430  -29.1100 N   0  0  0  0  0  0  0  0  0  0  0  0
   -1.8210   23.1750  -28.4250 C   0  0  0  0  0  0  0  0  0  0  0  0
   -1.3740   24.2140  -27.3940 C   0  0  0  0  0  0  0  0  0  0  0  0
   -2.4290   24.5170  -26.3940 N   0  0  0  0  0  0  0  0  0  0  0  0
   -2.2230   25.8510  -25.8140 C   0  0  0  0  0  0  0  0  0  0  0  0
   -3.8220   24.3440  -26.8810 C   0  0  0  0  0  0  0  0  0  0  0  0
   -3.9560   24.5320  -28.3980 C   0  0  0  0  0  0  0  0  0  0  0  0
   -5.3680   21.6540  -32.6000 C   0  0  0  0  0  0  0  0  0  0  0  0
   -6.8390   21.4150  -32.3560 C   0  0  0  0  0  0  0  0  0  0  0  0
   -7.4650   20.3200  -32.9820 C   0  0  0  0  0  0  0  0  0  0  0  0
   -8.8100   20.0310  -32.7350 C   0  0  0  0  0  0  0  0  0  0  0  0
   -9.5480   20.8330  -31.8670 C   0  0  0  0  0  0  0  0  0  0  0  0
   -8.9470   21.9300  -31.2500 C   0  0  0  0  0  0  0  0  0  0  0  0
   -7.5990   22.2340  -31.4890 C   0  0  0  0  0  0  0  0  0  0  0  0
   -6.8760   23.7910  -30.6380 Br  0  0  0  0  0  0  0  0  0  0  0  0
   -0.6300   20.3035  -33.2344 H   0  0  0  0  0  0  0  0  0  0  0  0
   -0.9015   19.4139  -34.7712 H   0  0  0  0  0  0  0  0  0  0  0  0
   -0.8414   21.2092  -34.7712 H   0  0  0  0  0  0  0  0  0  0  0  0
   -2.3748   17.9126  -35.1188 H   0  0  0  0  0  0  0  0  0  0  0  0
   -3.8765   15.9804  -34.6329 H   0  0  0  0  0  0  0  0  0  0  0  0
   -5.7131   16.2145  -32.9621 H   0  0  0  0  0  0  0  0  0  0  0  0
   -6.0262   18.3640  -31.7424 H   0  0  0  0  0  0  0  0  0  0  0  0
   -4.2733   21.0990  -29.9848 H   0  0  0  0  0  0  0  0  0  0  0  0
   -3.0153   20.0073  -30.7168 H   0  0  0  0  0  0  0  0  0  0  0  0
   -1.7462   21.8766  -30.7530 H   0  0  0  0  0  0  0  0  0  0  0  0
   -2.7238   22.2564  -32.2353 H   0  0  0  0  0  0  0  0  0  0  0  0
   -2.0341   22.2235  -27.9158 H   0  0  0  0  0  0  0  0  0  0  0  0
   -1.0194   23.0286  -29.1640 H   0  0  0  0  0  0  0  0  0  0  0  0
   -0.4889   23.8287  -26.8666 H   0  0  0  0  0  0  0  0  0  0  0  0
   -1.1506   25.1453  -27.9350 H   0  0  0  0  0  0  0  0  0  0  0  0
   -2.2341   25.7793  -24.7164 H   0  0  0  0  0  0  0  0  0  0  0  0
   -1.2527   26.2492  -26.1457 H   0  0  0  0  0  0  0  0  0  0  0  0
   -3.0280   26.5233  -26.1457 H   0  0  0  0  0  0  0  0  0  0  0  0
   -4.1600   23.3296  -26.6226 H   0  0  0  0  0  0  0  0  0  0  0  0
   -4.4371   25.1179  -26.3986 H   0  0  0  0  0  0  0  0  0  0  0  0
   -4.9875   24.3001  -28.7017 H   0  0  0  0  0  0  0  0  0  0  0  0
   -3.7115   25.5744  -28.6500 H   0  0  0  0  0  0  0  0  0  0  0  0
   -5.0803   22.6166  -32.1520 H   0  0  0  0  0  0  0  0  0  0  0  0
   -5.1892   21.6667  -33.6853 H   0  0  0  0  0  0  0  0  0  0  0  0
   -6.8897   19.6856  -33.6724 H   0  0  0  0  0  0  0  0  0  0  0  0
   -9.2863   19.1697  -33.2263 H   0  0  0  0  0  0  0  0  0  0  0  0
  -10.6047   20.6010  -31.6683 H   0  0  0  0  0  0  0  0  0  0  0  0
   -9.5359   22.5626  -30.5696 H   0  0  0  0  0  0  0  0  0  0  0  0
  1  2  1  0
  2  3  1  0
  3  4  2  0
  4  5  1  0
  5  6  2  0
  6  7  1  0
  7  8  2  0
  8  9  1  0
  9 10  1  0
 10 11  1  0
 11 12  1  0
 12 13  2  0
 12 14  1  0
 14 15  1  0
 15 16  1  0
 16 17  1  0
 17 18  1  0
 17 19  1  0
 19 20  1  0
  9 21  1  0
 21 22  1  0
 22 23  2  0
 23 24  1  0
 24 25  2  0
 25 26  1  0
 26 27  2  0
 27 28  1  0
  8  3  1  0
 20 14  1  0
 27 22  1  0
  1 29  1  0
  1 30  1  0
  1 31  1  0
  4 32  1  0
  5 33  1  0
  6 34  1  0
  7 35  1  0
 10 36  1  0
 10 37  1  0
 11 38  1  0
 11 39  1  0
 15 40  1  0
 15 41  1  0
 16 42  1  0
 16 43  1  0
 18 44  1  0
 18 45  1  0
 18 46  1  0
 19 47  1  0
 19 48  1  0
 20 49  1  0
 20 50  1  0
 21 51  1  0
 21 52  1  0
 23 53  1  0
 24 54  1  0
 25 55  1  0
 26 56  1  0
M  END
>  <UniqueID>  (25) 
25

>  <SMILES>  (25) 
COc1ccccc1N(CCC(=O)N1CCN(C)CC1)Cc1ccccc1Br

>  <Energy>  (25) 
63.45608241245606

>  <Genealogy>  (25) 
COc1ccccc1N(CCC(=O)N1CCN(C)CC1)Cc1ccccc1Br (3D coordinates assigned)
COc1ccccc1N(CCC(=O)N1CCN(C)CC1)Cc1ccccc1Br (nonaromatic ring conformer: 63.45608241245606 kcal/mol)

>  <smiles>  (25) 
COc1ccccc1N(CCC(=O)N1CCN(C)CC1)Cc1ccccc1Br

>  <score_type>  (25) 
oracle

>  <origin>  (25) 
adg

>  <m_score__min__energy>  (25) 
-8.7799999999999994

>  <m_primary>  (25) 
energy

$$$$
