0:0
     RDKit          3D

 39 42  0  0  0  0  0  0  0  0999 V2000
   -6.2640   16.6540  -33.6670 C   0  0  0  0  0  0  0  0  0  0  0  0
   -6.9320   17.1750  -32.5220 O   0  0  0  0  0  0  0  0  0  0  0  0
   -7.4870   18.4610  -32.4450 C   0  0  0  0  0  0  0  0  0  0  0  0
   -8.8550   18.5780  -32.1690 C   0  0  0  0  0  0  0  0  0  0  0  0
   -9.4520   19.8380  -32.0730 C   0  0  0  0  0  0  0  0  0  0  0  0
   -8.6880   20.9920  -32.2620 C   0  0  0  0  0  0  0  0  0  0  0  0
   -7.3250   20.8970  -32.5600 C   0  0  0  0  0  0  0  0  0  0  0  0
   -6.5900   22.0790  -32.7320 O   0  0  0  0  0  0  0  0  0  0  0  0
   -5.7370   22.6530  -31.7770 C   0  0  0  0  0  0  0  0  0  0  0  0
   -4.5800   21.9960  -31.3220 C   0  0  0  0  0  0  0  0  0  0  0  0
   -3.7470   22.6060  -30.3800 C   0  0  0  0  0  0  0  0  0  0  0  0
   -4.0490   23.8860  -29.8850 C   0  0  0  0  0  0  0  0  0  0  0  0
   -3.1670   24.5320  -28.8870 C   0  0  0  0  0  0  0  0  0  0  0  0
   -3.3580   24.4130  -27.5450 N   0  0  0  0  0  0  0  0  0  0  0  0
   -2.3540   25.1430  -27.0380 C   0  0  0  0  0  0  0  0  0  0  0  0
   -2.0580   25.3730  -25.6960 C   0  0  0  0  0  0  0  0  0  0  0  0
   -0.9430   26.1800  -25.4030 C   0  0  0  0  0  0  0  0  0  0  0  0
   -0.1630   26.7290  -26.4470 C   0  0  0  0  0  0  0  0  0  0  0  0
   -0.4930   26.4720  -27.7920 C   0  0  0  0  0  0  0  0  0  0  0  0
   -1.6030   25.6700  -28.0420 C   0  0  0  0  0  0  0  0  0  0  0  0
   -2.0960   25.2980  -29.2320 N   0  0  0  0  0  0  0  0  0  0  0  0
   -5.1950   24.5480  -30.3590 C   0  0  0  0  0  0  0  0  0  0  0  0
   -6.0250   23.9360  -31.3020 C   0  0  0  0  0  0  0  0  0  0  0  0
   -6.7220   19.6270  -32.6340 C   0  0  0  0  0  0  0  0  0  0  0  0
   -5.4346   16.0071  -33.3449 H   0  0  0  0  0  0  0  0  0  0  0  0
   -6.9731   16.0680  -34.2702 H   0  0  0  0  0  0  0  0  0  0  0  0
   -5.8684   17.4845  -34.2702 H   0  0  0  0  0  0  0  0  0  0  0  0
   -9.4634   17.6726  -32.0269 H   0  0  0  0  0  0  0  0  0  0  0  0
  -10.5256   19.9211  -31.8482 H   0  0  0  0  0  0  0  0  0  0  0  0
   -9.1612   21.9813  -32.1759 H   0  0  0  0  0  0  0  0  0  0  0  0
   -4.3294   20.9974  -31.7092 H   0  0  0  0  0  0  0  0  0  0  0  0
   -2.8488   22.0805  -30.0236 H   0  0  0  0  0  0  0  0  0  0  0  0
   -2.6738   24.9393  -24.8943 H   0  0  0  0  0  0  0  0  0  0  0  0
   -0.6766   26.3850  -24.3556 H   0  0  0  0  0  0  0  0  0  0  0  0
    0.7057   27.3599  -26.2075 H   0  0  0  0  0  0  0  0  0  0  0  0
    0.1049   26.8900  -28.6153 H   0  0  0  0  0  0  0  0  0  0  0  0
   -5.4397   25.5533  -29.9855 H   0  0  0  0  0  0  0  0  0  0  0  0
   -6.9128   24.4684  -31.6739 H   0  0  0  0  0  0  0  0  0  0  0  0
   -5.6448   19.5455  -32.8411 H   0  0  0  0  0  0  0  0  0  0  0  0
  1  2  1  0
  2  3  1  0
  3  4  2  0
  4  5  1  0
  5  6  2  0
  6  7  1  0
  7  8  1  0
  8  9  1  0
  9 10  2  0
 10 11  1  0
 11 12  2  0
 12 13  1  0
 13 14  2  0
 14 15  1  0
 15 16  2  0
 16 17  1  0
 17 18  2  0
 18 19  1  0
 19 20  2  0
 20 21  1  0
 12 22  1  0
 22 23  2  0
  7 24  2  0
 24  3  1  0
 23  9  1  0
 21 13  1  0
 20 15  1  0
  1 25  1  0
  1 26  1  0
  1 27  1  0
  4 28  1  0
  5 29  1  0
  6 30  1  0
 10 31  1  0
 11 32  1  0
 16 33  1  0
 17 34  1  0
 18 35  1  0
 19 36  1  0
 22 37  1  0
 23 38  1  0
 24 39  1  0
M  CHG  1  21  -1
M  END
>  <UniqueID>  (1) 
1

>  <SMILES>  (1) 
COc1cccc(Oc2ccc(-c3nc4ccccc4[n-]3)cc2)c1

>  <Energy>  (1) 
84.91694854137705

>  <Genealogy>  (1) 
COc1cccc(Oc2ccc(-c3nc4ccccc4[n-]3)cc2)c1 (protonated)
COc1cccc(Oc2ccc(-c3nc4ccccc4[n-]3)cc2)c1 (3D coordinates assigned)
COc1cccc(Oc2ccc(-c3nc4ccccc4[n-]3)cc2)c1 (optimized conformer: 84.91694854137705 kcal/mol)

>  <smiles>  (1) 
COc1cccc(Oc2ccc(-c3nc4ccccc4[nH]3)cc2)c1

>  <score_type>  (1) 
oracle

>  <origin>  (1) 
adg

>  <m_score__min__energy>  (1) 
-9.0299999999999994

>  <m_primary>  (1) 
energy

$$$$
1:0
     RDKit          3D

 30 32  0  0  0  0  0  0  0  0999 V2000
   -6.8660   24.5490  -30.3560 C   0  0  0  0  0  0  0  0  0  0  0  0
   -7.0180   23.2430  -31.0940 C   0  0  0  0  0  0  0  0  0  0  0  0
   -8.3060   22.7020  -31.2220 C   0  0  0  0  0  0  0  0  0  0  0  0
   -8.5100   21.4830  -31.8590 C   0  0  0  0  0  0  0  0  0  0  0  0
   -7.4290   20.7690  -32.3830 C   0  0  0  0  0  0  0  0  0  0  0  0
   -6.1280   21.3090  -32.3130 C   0  0  0  0  0  0  0  0  0  0  0  0
   -5.9090   22.5450  -31.6520 C   0  0  0  0  0  0  0  0  0  0  0  0
   -4.5060   23.0400  -31.5650 C   0  0  0  0  0  0  0  0  0  0  0  0
   -4.2390   24.2210  -31.2180 O   0  0  0  0  0  0  0  0  0  0  0  0
   -3.3770   22.1100  -31.8830 C   0  0  0  0  0  0  0  0  0  0  0  0
   -3.7340   21.2660  -33.1020 C   0  0  0  0  0  0  0  0  0  0  0  0
   -5.0160   20.5830  -32.8960 N   0  0  0  0  0  0  0  0  0  0  0  0
   -5.2270   19.2990  -33.5810 C   0  0  0  0  0  0  0  0  0  0  0  0
   -6.4450   18.5640  -33.0240 C   0  0  0  0  0  0  0  0  0  0  0  0
   -7.6780   19.4620  -33.0880 C   0  0  0  0  0  0  0  0  0  0  0  0
   -6.8877   24.3624  -29.2722 H   0  0  0  0  0  0  0  0  0  0  0  0
   -5.9076   25.0149  -30.6287 H   0  0  0  0  0  0  0  0  0  0  0  0
   -7.6918   25.2225  -30.6287 H   0  0  0  0  0  0  0  0  0  0  0  0
   -9.1672   23.2502  -30.8124 H   0  0  0  0  0  0  0  0  0  0  0  0
   -9.5286   21.0781  -31.9511 H   0  0  0  0  0  0  0  0  0  0  0  0
   -2.4703   22.6951  -32.0962 H   0  0  0  0  0  0  0  0  0  0  0  0
   -3.1962   21.4490  -31.0226 H   0  0  0  0  0  0  0  0  0  0  0  0
   -3.8090   21.9182  -33.9846 H   0  0  0  0  0  0  0  0  0  0  0  0
   -2.9488   20.5108  -33.2544 H   0  0  0  0  0  0  0  0  0  0  0  0
   -5.3819   19.4868  -34.6537 H   0  0  0  0  0  0  0  0  0  0  0  0
   -4.3391   18.6701  -33.4192 H   0  0  0  0  0  0  0  0  0  0  0  0
   -6.6252   17.6566  -33.6191 H   0  0  0  0  0  0  0  0  0  0  0  0
   -6.2522   18.2935  -31.9753 H   0  0  0  0  0  0  0  0  0  0  0  0
   -7.9232   19.6622  -34.1415 H   0  0  0  0  0  0  0  0  0  0  0  0
   -8.5131   18.9478  -32.5897 H   0  0  0  0  0  0  0  0  0  0  0  0
  1  2  1  0
  2  3  2  0
  3  4  1  0
  4  5  2  0
  5  6  1  0
  6  7  2  0
  7  8  1  0
  8  9  2  0
  8 10  1  0
 10 11  1  0
 11 12  1  0
 12 13  1  0
 13 14  1  0
 14 15  1  0
  7  2  1  0
 15  5  1  0
 12  6  1  0
  1 16  1  0
  1 17  1  0
  1 18  1  0
  3 19  1  0
  4 20  1  0
 10 21  1  0
 10 22  1  0
 11 23  1  0
 11 24  1  0
 13 25  1  0
 13 26  1  0
 14 27  1  0
 14 28  1  0
 15 29  1  0
 15 30  1  0
M  END
>  <UniqueID>  (2) 
2

>  <SMILES>  (2) 
Cc1ccc2c3c1C(=O)CCN3CCC2

>  <Energy>  (2) 
34.45747143818875

>  <Genealogy>  (2) 
Cc1ccc2c3c1C(=O)CCN3CCC2 (3D coordinates assigned)
Cc1ccc2c3c1C(=O)CCN3CCC2 (nonaromatic ring conformer: 34.45747143818875 kcal/mol)

>  <smiles>  (2) 
Cc1ccc2c3c1C(=O)CCN3CCC2

>  <score_type>  (2) 
oracle

>  <origin>  (2) 
adg

>  <m_score__min__energy>  (2) 
-7.2400000000000002

>  <m_primary>  (2) 
energy

$$$$
2:0
     RDKit          3D

 38 40  0  0  0  0  0  0  0  0999 V2000
   -9.2270   21.4150  -31.6360 C   0  0  0  0  0  0  0  0  0  0  0  0
   -9.2030   20.1740  -32.1300 C   0  0  0  0  0  0  0  0  0  0  0  0
   -8.5120   19.0610  -31.3900 C   0  0  0  0  0  0  0  0  0  0  0  0
   -7.3220   18.5540  -32.1690 C   0  0  0  0  0  0  0  0  0  0  0  0
   -7.3420   17.2670  -32.7290 C   0  0  0  0  0  0  0  0  0  0  0  0
   -6.2490   16.7940  -33.4600 C   0  0  0  0  0  0  0  0  0  0  0  0
   -6.2920   15.0360  -34.2070 Br  0  0  0  0  0  0  0  0  0  0  0  0
   -5.1240   17.6030  -33.6480 C   0  0  0  0  0  0  0  0  0  0  0  0
   -5.0910   18.8990  -33.1070 C   0  0  0  0  0  0  0  0  0  0  0  0
   -3.9930   19.7570  -33.2860 C   0  0  0  0  0  0  0  0  0  0  0  0
   -2.9820   19.3900  -33.9430 O   0  0  0  0  0  0  0  0  0  0  0  0
   -4.0260   21.0390  -32.7360 C   0  0  0  0  0  0  0  0  0  0  0  0
   -5.1570   21.4470  -32.0070 C   0  0  0  0  0  0  0  0  0  0  0  0
   -5.2700   22.8010  -31.4090 C   0  0  0  0  0  0  0  0  0  0  0  0
   -6.4730   23.5320  -31.4390 C   0  0  0  0  0  0  0  0  0  0  0  0
   -6.5380   24.8090  -30.8770 C   0  0  0  0  0  0  0  0  0  0  0  0
   -5.4070   25.3760  -30.2880 C   0  0  0  0  0  0  0  0  0  0  0  0
   -4.1970   24.6770  -30.2580 C   0  0  0  0  0  0  0  0  0  0  0  0
   -3.0850   25.2930  -29.6630 O   0  0  0  0  0  0  0  0  0  0  0  0
   -2.3040   24.7120  -28.6230 C   0  0  0  0  0  0  0  0  0  0  0  0
   -4.1320   23.3890  -30.8220 C   0  0  0  0  0  0  0  0  0  0  0  0
   -6.1770   20.6040  -31.8600 O   0  0  0  0  0  0  0  0  0  0  0  0
   -6.1950   19.3750  -32.3660 C   0  0  0  0  0  0  0  0  0  0  0  0
   -9.7365   22.2175  -32.1895 H   0  0  0  0  0  0  0  0  0  0  0  0
   -8.7373   21.6343  -30.6758 H   0  0  0  0  0  0  0  0  0  0  0  0
   -9.6951   19.9630  -33.0909 H   0  0  0  0  0  0  0  0  0  0  0  0
   -8.1705   19.4352  -30.4136 H   0  0  0  0  0  0  0  0  0  0  0  0
   -9.2235   18.2328  -31.2563 H   0  0  0  0  0  0  0  0  0  0  0  0
   -8.2251   16.6257  -32.5913 H   0  0  0  0  0  0  0  0  0  0  0  0
   -4.2641   17.2242  -34.2200 H   0  0  0  0  0  0  0  0  0  0  0  0
   -3.1757   21.7236  -32.8714 H   0  0  0  0  0  0  0  0  0  0  0  0
   -7.3669   23.0948  -31.9078 H   0  0  0  0  0  0  0  0  0  0  0  0
   -7.4841   25.3698  -30.8987 H   0  0  0  0  0  0  0  0  0  0  0  0
   -5.4683   26.3806  -29.8440 H   0  0  0  0  0  0  0  0  0  0  0  0
   -2.7105   25.0144  -27.6466 H   0  0  0  0  0  0  0  0  0  0  0  0
   -2.3353   23.6159  -28.7096 H   0  0  0  0  0  0  0  0  0  0  0  0
   -1.2631   25.0571  -28.7096 H   0  0  0  0  0  0  0  0  0  0  0  0
   -3.1818   22.8351  -30.8043 H   0  0  0  0  0  0  0  0  0  0  0  0
  1  2  2  0
  2  3  1  0
  3  4  1  0
  4  5  2  0
  5  6  1  0
  6  7  1  0
  6  8  2  0
  8  9  1  0
  9 10  1  0
 10 11  2  0
 10 12  1  0
 12 13  2  0
 13 14  1  0
 14 15  2  0
 15 16  1  0
 16 17  2  0
 17 18  1  0
 18 19  1  0
 19 20  1  0
 18 21  2  0
 13 22  1  0
 22 23  1  0
 23  4  1  0
 23  9  2  0
 21 14  1  0
  1 24  1  0
  1 25  1  0
  2 26  1  0
  3 27  1  0
  3 28  1  0
  5 29  1  0
  8 30  1  0
 12 31  1  0
 15 32  1  0
 16 33  1  0
 17 34  1  0
 20 35  1  0
 20 36  1  0
 20 37  1  0
 21 38  1  0
M  END
>  <UniqueID>  (3) 
3

>  <SMILES>  (3) 
C=CCc1cc(Br)cc2c(=O)cc(-c3cccc(OC)c3)oc12

>  <Energy>  (3) 
44.30483873158406

>  <Genealogy>  (3) 
C=CCc1cc(Br)cc2c(=O)cc(-c3cccc(OC)c3)oc12 (3D coordinates assigned)
C=CCc1cc(Br)cc2c(=O)cc(-c3cccc(OC)c3)oc12 (optimized conformer: 44.30483873158406 kcal/mol)

>  <smiles>  (3) 
C=CCc1cc(Br)cc2c(=O)cc(-c3cccc(OC)c3)oc12

>  <score_type>  (3) 
oracle

>  <origin>  (3) 
adg

>  <m_score__min__energy>  (3) 
-9.25

>  <m_primary>  (3) 
energy

$$$$
3:0
     RDKit          3D

 47 50  0  0  0  0  0  0  0  0999 V2000
   -0.8540   24.9280  -28.5920 C   0  0  0  0  0  0  0  0  0  0  0  0
   -1.9750   24.1660  -29.2350 C   0  0  0  0  0  0  0  0  0  0  0  0
   -3.3050   24.5440  -29.0120 C   0  0  0  0  0  0  0  0  0  0  0  0
   -4.3530   23.8130  -29.5800 C   0  0  0  0  0  0  0  0  0  0  0  0
   -4.0870   22.6840  -30.3780 C   0  0  0  0  0  0  0  0  0  0  0  0
   -5.1840   21.8870  -30.9840 C   0  0  0  0  0  0  0  0  0  0  0  0
   -6.5140   22.3370  -30.9760 C   0  0  0  0  0  0  0  0  0  0  0  0
   -7.5170   21.5480  -31.5510 C   0  0  0  0  0  0  0  0  0  0  0  0
   -8.8550   21.9770  -31.5330 C   0  0  0  0  0  0  0  0  0  0  0  0
   -9.8570   21.1770  -32.0860 C   0  0  0  0  0  0  0  0  0  0  0  0
   -9.5350   19.9440  -32.6570 C   0  0  0  0  0  0  0  0  0  0  0  0
   -8.2090   19.5080  -32.6860 C   0  0  0  0  0  0  0  0  0  0  0  0
   -7.1830   20.3080  -32.1470 C   0  0  0  0  0  0  0  0  0  0  0  0
   -5.8300   19.9090  -32.1640 C   0  0  0  0  0  0  0  0  0  0  0  0
   -5.4150   18.6830  -32.7850 N   0  0  0  0  0  0  0  0  0  0  0  0
   -4.6670   18.7240  -34.0440 C   0  0  0  0  0  0  0  0  0  0  0  0
   -5.0280   17.5230  -34.9410 C   0  0  0  0  0  0  0  0  0  0  0  0
   -5.4060   16.2940  -34.1960 N   0  0  0  0  0  0  0  0  0  0  0  0
   -6.8570   16.0410  -34.2490 C   0  0  0  0  0  0  0  0  0  0  0  0
   -4.8920   16.2660  -32.8120 C   0  0  0  0  0  0  0  0  0  0  0  0
   -5.4070   17.4550  -31.9870 C   0  0  0  0  0  0  0  0  0  0  0  0
   -4.8900   20.6990  -31.5800 N   0  0  0  0  0  0  0  0  0  0  0  0
   -2.7490   22.2920  -30.5710 C   0  0  0  0  0  0  0  0  0  0  0  0
   -1.7030   23.0260  -30.0030 C   0  0  0  0  0  0  0  0  0  0  0  0
   -0.9476   24.8644  -27.4978 H   0  0  0  0  0  0  0  0  0  0  0  0
    0.1087   24.4964  -28.9033 H   0  0  0  0  0  0  0  0  0  0  0  0
   -0.9011   25.9820  -28.9033 H   0  0  0  0  0  0  0  0  0  0  0  0
   -3.5265   25.4212  -28.3863 H   0  0  0  0  0  0  0  0  0  0  0  0
   -5.3934   24.1225  -29.4019 H   0  0  0  0  0  0  0  0  0  0  0  0
   -6.7666   23.3055  -30.5198 H   0  0  0  0  0  0  0  0  0  0  0  0
   -9.1139   22.9462  -31.0818 H   0  0  0  0  0  0  0  0  0  0  0  0
  -10.9024   21.5189  -32.0718 H   0  0  0  0  0  0  0  0  0  0  0  0
  -10.3287   19.3142  -33.0853 H   0  0  0  0  0  0  0  0  0  0  0  0
   -7.9641   18.5331  -33.1328 H   0  0  0  0  0  0  0  0  0  0  0  0
   -4.9091   19.6558  -34.5760 H   0  0  0  0  0  0  0  0  0  0  0  0
   -3.5921   18.6792  -33.8145 H   0  0  0  0  0  0  0  0  0  0  0  0
   -5.8753   17.8127  -35.5798 H   0  0  0  0  0  0  0  0  0  0  0  0
   -4.1232   17.2766  -35.5160 H   0  0  0  0  0  0  0  0  0  0  0  0
   -7.2547   15.9717  -33.2258 H   0  0  0  0  0  0  0  0  0  0  0  0
   -7.3539   16.8661  -34.7804 H   0  0  0  0  0  0  0  0  0  0  0  0
   -7.0453   15.0965  -34.7804 H   0  0  0  0  0  0  0  0  0  0  0  0
   -5.2166   15.3317  -32.3307 H   0  0  0  0  0  0  0  0  0  0  0  0
   -3.7946   16.3292  -32.8539 H   0  0  0  0  0  0  0  0  0  0  0  0
   -6.4308   17.2403  -31.6469 H   0  0  0  0  0  0  0  0  0  0  0  0
   -4.7377   17.6006  -31.1263 H   0  0  0  0  0  0  0  0  0  0  0  0
   -2.5241   21.4001  -31.1742 H   0  0  0  0  0  0  0  0  0  0  0  0
   -0.6620   22.7070  -30.1598 H   0  0  0  0  0  0  0  0  0  0  0  0
  1  2  1  0
  2  3  2  0
  3  4  1  0
  4  5  2  0
  5  6  1  0
  6  7  2  0
  7  8  1  0
  8  9  2  0
  9 10  1  0
 10 11  2  0
 11 12  1  0
 12 13  2  0
 13 14  1  0
 14 15  1  0
 15 16  1  0
 16 17  1  0
 17 18  1  0
 18 19  1  0
 18 20  1  0
 20 21  1  0
 14 22  2  0
  5 23  1  0
 23 24  2  0
 24  2  1  0
 22  6  1  0
 13  8  1  0
 21 15  1  0
  1 25  1  0
  1 26  1  0
  1 27  1  0
  3 28  1  0
  4 29  1  0
  7 30  1  0
  9 31  1  0
 10 32  1  0
 11 33  1  0
 12 34  1  0
 16 35  1  0
 16 36  1  0
 17 37  1  0
 17 38  1  0
 19 39  1  0
 19 40  1  0
 19 41  1  0
 20 42  1  0
 20 43  1  0
 21 44  1  0
 21 45  1  0
 23 46  1  0
 24 47  1  0
M  END
>  <UniqueID>  (4) 
4

>  <SMILES>  (4) 
Cc1ccc(-c2cc3ccccc3c(N3CCN(C)CC3)n2)cc1

>  <Energy>  (4) 
69.54656836494145

>  <Genealogy>  (4) 
Cc1ccc(-c2cc3ccccc3c(N3CCN(C)CC3)n2)cc1 (3D coordinates assigned)
Cc1ccc(-c2cc3ccccc3c(N3CCN(C)CC3)n2)cc1 (nonaromatic ring conformer: 69.54656836494145 kcal/mol)

>  <smiles>  (4) 
Cc1ccc(-c2cc3ccccc3c(N3CCN(C)CC3)n2)cc1

>  <score_type>  (4) 
oracle

>  <origin>  (4) 
adg

>  <m_score__min__energy>  (4) 
-8.2200000000000006

>  <m_primary>  (4) 
energy

$$$$
4:0
     RDKit          3D

 39 42  0  0  0  0  0  0  0  0999 V2000
   -5.3260   19.6660  -33.9020 C   0  0  0  0  0  0  0  0  0  0  0  0
   -6.0190   20.2860  -32.7080 C   0  0  0  0  0  0  0  0  0  0  0  0
   -7.3780   19.9630  -32.4720 C   0  0  0  0  0  0  0  0  0  0  0  0
   -7.9880   18.7790  -33.0230 N   0  0  0  0  0  0  0  0  0  0  0  0
   -7.6850   17.4300  -32.5440 C   0  0  0  0  0  0  0  0  0  0  0  0
   -6.4180   17.3680  -31.7070 C   0  0  0  0  0  0  0  0  0  0  0  0
   -6.4180   16.8190  -33.1240 C   0  0  0  0  0  0  0  0  0  0  0  0
   -8.1660   20.8170  -31.6930 C   0  0  0  0  0  0  0  0  0  0  0  0
   -9.4790   20.5420  -31.4880 F   0  0  0  0  0  0  0  0  0  0  0  0
   -7.6220   21.9690  -31.1380 C   0  0  0  0  0  0  0  0  0  0  0  0
   -6.2510   22.2450  -31.2610 C   0  0  0  0  0  0  0  0  0  0  0  0
   -5.7040   23.4150  -30.7040 C   0  0  0  0  0  0  0  0  0  0  0  0
   -6.4530   24.2370  -30.1060 O   0  0  0  0  0  0  0  0  0  0  0  0
   -4.3290   23.6740  -30.8260 C   0  0  0  0  0  0  0  0  0  0  0  0
   -3.7110   24.9250  -30.3060 C   0  0  0  0  0  0  0  0  0  0  0  0
   -4.2780   26.0370  -30.4810 O   0  0  0  0  0  0  0  0  0  0  0  0
   -2.5060   24.8970  -29.6140 O   0  0  0  0  0  0  0  0  0  0  0  0
   -3.5180   22.6950  -31.4160 C   0  0  0  0  0  0  0  0  0  0  0  0
   -4.0370   21.5170  -31.8800 N   0  0  0  0  0  0  0  0  0  0  0  0
   -3.0690   20.4510  -32.2040 C   0  0  0  0  0  0  0  0  0  0  0  0
   -1.6040   20.8220  -31.9860 C   0  0  0  0  0  0  0  0  0  0  0  0
   -2.1630   20.7820  -33.3920 C   0  0  0  0  0  0  0  0  0  0  0  0
   -5.4070   21.3400  -31.9570 C   0  0  0  0  0  0  0  0  0  0  0  0
   -4.5483   18.9702  -33.5541 H   0  0  0  0  0  0  0  0  0  0  0  0
   -6.0618   19.1192  -34.5099 H   0  0  0  0  0  0  0  0  0  0  0  0
   -4.8641   20.4579  -34.5099 H   0  0  0  0  0  0  0  0  0  0  0  0
   -8.7850   18.8850  -33.6890 H   0  0  0  0  0  0  0  0  0  0  0  0
   -8.7245   17.0884  -32.4316 H   0  0  0  0  0  0  0  0  0  0  0  0
   -5.8666   18.2911  -31.4750 H   0  0  0  0  0  0  0  0  0  0  0  0
   -6.1594   16.9644  -30.7170 H   0  0  0  0  0  0  0  0  0  0  0  0
   -5.8671   17.3449  -33.9177 H   0  0  0  0  0  0  0  0  0  0  0  0
   -6.1599   15.8539  -33.5845 H   0  0  0  0  0  0  0  0  0  0  0  0
   -8.2723   22.6719  -30.5967 H   0  0  0  0  0  0  0  0  0  0  0  0
   -2.4373   22.8782  -31.5084 H   0  0  0  0  0  0  0  0  0  0  0  0
   -3.7090   19.6067  -31.9081 H   0  0  0  0  0  0  0  0  0  0  0  0
   -1.3449   21.7869  -31.5257 H   0  0  0  0  0  0  0  0  0  0  0  0
   -0.7518   20.3482  -31.4768 H   0  0  0  0  0  0  0  0  0  0  0  0
   -2.3104   21.7176  -33.9515 H   0  0  0  0  0  0  0  0  0  0  0  0
   -1.8852   20.2676  -34.3238 H   0  0  0  0  0  0  0  0  0  0  0  0
  1  2  1  0
  2  3  2  0
  3  4  1  0
  4  5  1  0
  5  6  1  0
  6  7  1  0
  3  8  1  0
  8  9  1  0
  8 10  2  0
 10 11  1  0
 11 12  1  0
 12 13  2  0
 12 14  1  0
 14 15  1  0
 15 16  2  0
 15 17  1  0
 14 18  2  0
 18 19  1  0
 19 20  1  0
 20 21  1  0
 21 22  1  0
 19 23  1  0
 23  2  1  0
  7  5  1  0
 23 11  2  0
 22 20  1  0
  1 24  1  0
  1 25  1  0
  1 26  1  0
  4 27  1  0
  5 28  1  0
  6 29  1  0
  6 30  1  0
  7 31  1  0
  7 32  1  0
 10 33  1  0
 18 34  1  0
 20 35  1  0
 21 36  1  0
 21 37  1  0
 22 38  1  0
 22 39  1  0
M  CHG  1  17  -1
M  END
>  <UniqueID>  (5) 
5

>  <SMILES>  (5) 
Cc1c(NC2CC2)c(F)cc2c(=O)c(C(=O)[O-])cn(C3CC3)c12

>  <Energy>  (5) 
597.7354024997536

>  <Genealogy>  (5) 
Cc1c(NC2CC2)c(F)cc2c(=O)c(C(=O)[O-])cn(C3CC3)c12 (protonated)
Cc1c(NC2CC2)c(F)cc2c(=O)c(C(=O)[O-])cn(C3CC3)c12 (3D coordinates assigned)
Cc1c(NC2CC2)c(F)cc2c(=O)c(C(=O)[O-])cn(C3CC3)c12 (nonaromatic ring conformer: 597.7354024997536 kcal/mol)

>  <smiles>  (5) 
Cc1c(NC2CC2)c(F)cc2c(=O)c(C(=O)O)cn(C3CC3)c12

>  <score_type>  (5) 
oracle

>  <origin>  (5) 
adg

>  <m_score__min__energy>  (5) 
-10.19

>  <m_primary>  (5) 
energy

$$$$
5:0
     RDKit          3D

 46 49  0  0  0  0  0  0  0  0999 V2000
   -3.0830   13.2150  -31.7370 C   0  0  0  0  0  0  0  0  0  0  0  0
   -2.8300   14.0550  -32.8590 O   0  0  0  0  0  0  0  0  0  0  0  0
   -3.5850   15.1910  -33.1850 C   0  0  0  0  0  0  0  0  0  0  0  0
   -3.2320   15.9140  -34.3330 C   0  0  0  0  0  0  0  0  0  0  0  0
   -3.9490   17.0540  -34.7050 C   0  0  0  0  0  0  0  0  0  0  0  0
   -5.0300   17.4860  -33.9320 C   0  0  0  0  0  0  0  0  0  0  0  0
   -5.7240   18.5990  -34.2900 N   0  0  0  0  0  0  0  0  0  0  0  0
   -6.7800   19.0500  -33.5620 C   0  0  0  0  0  0  0  0  0  0  0  0
   -7.1920   18.3620  -32.4100 C   0  0  0  0  0  0  0  0  0  0  0  0
   -8.3310   18.8830  -31.5770 C   0  0  0  0  0  0  0  0  0  0  0  0
   -8.3970   20.3840  -31.6690 C   0  0  0  0  0  0  0  0  0  0  0  0
   -9.5150   21.0110  -32.2250 C   0  0  0  0  0  0  0  0  0  0  0  0
   -9.5480   22.3620  -32.3460 N   0  0  0  0  0  0  0  0  0  0  0  0
   -8.5140   23.1470  -31.9460 C   0  0  0  0  0  0  0  0  0  0  0  0
   -7.3470   22.5800  -31.3830 C   0  0  0  0  0  0  0  0  0  0  0  0
   -6.2220   23.4100  -30.9620 N   0  0  0  0  0  0  0  0  0  0  0  0
   -4.8510   22.8630  -31.0360 C   0  0  0  0  0  0  0  0  0  0  0  0
   -3.7800   23.8130  -30.4910 C   0  0  0  0  0  0  0  0  0  0  0  0
   -4.0680   25.1480  -30.8300 O   0  0  0  0  0  0  0  0  0  0  0  0
   -5.2070   25.5520  -30.1100 C   0  0  0  0  0  0  0  0  0  0  0  0
   -6.4590   24.8270  -30.6130 C   0  0  0  0  0  0  0  0  0  0  0  0
   -7.3130   21.1710  -31.2620 C   0  0  0  0  0  0  0  0  0  0  0  0
   -6.4840   17.2180  -32.0140 C   0  0  0  0  0  0  0  0  0  0  0  0
   -5.3970   16.7670  -32.7750 C   0  0  0  0  0  0  0  0  0  0  0  0
   -4.6750   15.6230  -32.4040 C   0  0  0  0  0  0  0  0  0  0  0  0
   -2.9125   13.7810  -30.8093 H   0  0  0  0  0  0  0  0  0  0  0  0
   -4.1259   12.8666  -31.7675 H   0  0  0  0  0  0  0  0  0  0  0  0
   -2.4060   12.3486  -31.7675 H   0  0  0  0  0  0  0  0  0  0  0  0
   -2.3823   15.5806  -34.9469 H   0  0  0  0  0  0  0  0  0  0  0  0
   -3.6620   17.6126  -35.6081 H   0  0  0  0  0  0  0  0  0  0  0  0
   -7.3141   19.9585  -33.8773 H   0  0  0  0  0  0  0  0  0  0  0  0
   -9.2754   18.4544  -31.9438 H   0  0  0  0  0  0  0  0  0  0  0  0
   -8.1704   18.5940  -30.5279 H   0  0  0  0  0  0  0  0  0  0  0  0
  -10.3700   20.4083  -32.5652 H   0  0  0  0  0  0  0  0  0  0  0  0
   -8.5853   24.2386  -32.0616 H   0  0  0  0  0  0  0  0  0  0  0  0
   -4.8171   21.9304  -30.4537 H   0  0  0  0  0  0  0  0  0  0  0  0
   -4.6260   22.7009  -32.1005 H   0  0  0  0  0  0  0  0  0  0  0  0
   -3.7415   23.7207  -29.3956 H   0  0  0  0  0  0  0  0  0  0  0  0
   -2.8116   23.5404  -30.9359 H   0  0  0  0  0  0  0  0  0  0  0  0
   -5.0604   25.3201  -29.0448 H   0  0  0  0  0  0  0  0  0  0  0  0
   -5.3468   26.6337  -30.2527 H   0  0  0  0  0  0  0  0  0  0  0  0
   -7.2248   24.8676  -29.8244 H   0  0  0  0  0  0  0  0  0  0  0  0
   -6.7792   25.3369  -31.5336 H   0  0  0  0  0  0  0  0  0  0  0  0
   -6.4201   20.6857  -30.8412 H   0  0  0  0  0  0  0  0  0  0  0  0
   -6.7821   16.6743  -31.1054 H   0  0  0  0  0  0  0  0  0  0  0  0
   -4.9604   15.0623  -31.5017 H   0  0  0  0  0  0  0  0  0  0  0  0
  1  2  1  0
  2  3  1  0
  3  4  2  0
  4  5  1  0
  5  6  2  0
  6  7  1  0
  7  8  2  0
  8  9  1  0
  9 10  1  0
 10 11  1  0
 11 12  2  0
 12 13  1  0
 13 14  2  0
 14 15  1  0
 15 16  1  0
 16 17  1  0
 17 18  1  0
 18 19  1  0
 19 20  1  0
 20 21  1  0
 15 22  2  0
  9 23  2  0
 23 24  1  0
 24 25  2  0
 25  3  1  0
 24  6  1  0
 22 11  1  0
 21 16  1  0
  1 26  1  0
  1 27  1  0
  1 28  1  0
  4 29  1  0
  5 30  1  0
  8 31  1  0
 10 32  1  0
 10 33  1  0
 12 34  1  0
 14 35  1  0
 17 36  1  0
 17 37  1  0
 18 38  1  0
 18 39  1  0
 20 40  1  0
 20 41  1  0
 21 42  1  0
 21 43  1  0
 22 44  1  0
 23 45  1  0
 25 46  1  0
M  END
>  <UniqueID>  (6) 
6

>  <SMILES>  (6) 
COc1ccc2ncc(Cc3cncc(N4CCOCC4)c3)cc2c1

>  <Energy>  (6) 
58.79404330121156

>  <Genealogy>  (6) 
COc1ccc2ncc(Cc3cncc(N4CCOCC4)c3)cc2c1 (3D coordinates assigned)
COc1ccc2ncc(Cc3cncc(N4CCOCC4)c3)cc2c1 (nonaromatic ring conformer: 58.79404330121156 kcal/mol)

>  <smiles>  (6) 
COc1ccc2ncc(Cc3cncc(N4CCOCC4)c3)cc2c1

>  <score_type>  (6) 
oracle

>  <origin>  (6) 
adg

>  <m_score__min__energy>  (6) 
-8.9399999999999995

>  <m_primary>  (6) 
energy

$$$$
6:0
     RDKit          3D

 44 45  0  0  0  0  0  0  0  0999 V2000
   -6.1420   25.3070  -29.7220 C   0  0  0  0  0  0  0  0  0  0  0  0
   -5.1350   25.5960  -30.8300 C   0  0  0  0  0  0  0  0  0  0  0  0
   -3.8390   25.1110  -30.4750 O   0  0  0  0  0  0  0  0  0  0  0  0
   -3.5710   23.9850  -29.6750 C   0  0  0  0  0  0  0  0  0  0  0  0
   -3.5710   24.0460  -28.2680 C   0  0  0  0  0  0  0  0  0  0  0  0
   -3.2950   22.9060  -27.5090 C   0  0  0  0  0  0  0  0  0  0  0  0
   -3.0140   21.6940  -28.1410 C   0  0  0  0  0  0  0  0  0  0  0  0
   -2.6630   20.2660  -27.1850 Cl  0  0  0  0  0  0  0  0  0  0  0  0
   -3.0080   21.6200  -29.5360 C   0  0  0  0  0  0  0  0  0  0  0  0
   -3.2840   22.7590  -30.3110 C   0  0  0  0  0  0  0  0  0  0  0  0
   -3.2660   22.6650  -31.8180 C   0  0  0  0  0  0  0  0  0  0  0  0
   -4.6170   22.3590  -32.3320 N   0  0  0  0  0  0  0  0  0  0  0  0
   -5.5920   22.2850  -31.2180 C   0  0  0  0  0  0  0  0  0  0  0  0
   -6.8700   21.5470  -31.6210 C   0  0  0  0  0  0  0  0  0  0  0  0
   -6.5440   20.1850  -32.0580 N   0  0  0  0  0  0  0  0  0  0  0  0
   -7.5480   19.1510  -31.9780 C   0  0  0  0  0  0  0  0  0  0  0  0
   -8.7680   19.4730  -31.9400 O   0  0  0  0  0  0  0  0  0  0  0  0
   -7.1760   17.6890  -31.9910 C   0  0  0  0  0  0  0  0  0  0  0  0
   -6.8110   17.2100  -33.3960 C   0  0  0  0  0  0  0  0  0  0  0  0
   -5.2050   19.9130  -32.5940 C   0  0  0  0  0  0  0  0  0  0  0  0
   -4.6190   21.1780  -33.2380 C   0  0  0  0  0  0  0  0  0  0  0  0
   -5.6598   25.4454  -28.7431 H   0  0  0  0  0  0  0  0  0  0  0  0
   -6.9941   25.9969  -29.8118 H   0  0  0  0  0  0  0  0  0  0  0  0
   -6.4985   24.2703  -29.8118 H   0  0  0  0  0  0  0  0  0  0  0  0
   -5.4646   25.1009  -31.7554 H   0  0  0  0  0  0  0  0  0  0  0  0
   -5.0763   26.6843  -30.9788 H   0  0  0  0  0  0  0  0  0  0  0  0
   -3.7899   24.9983  -27.7629 H   0  0  0  0  0  0  0  0  0  0  0  0
   -3.2992   22.9639  -26.4105 H   0  0  0  0  0  0  0  0  0  0  0  0
   -2.7856   20.6633  -30.0312 H   0  0  0  0  0  0  0  0  0  0  0  0
   -2.9277   23.6243  -32.2368 H   0  0  0  0  0  0  0  0  0  0  0  0
   -2.5799   21.8587  -32.1167 H   0  0  0  0  0  0  0  0  0  0  0  0
   -5.1270   21.7544  -30.3741 H   0  0  0  0  0  0  0  0  0  0  0  0
   -5.8675   23.3129  -30.9396 H   0  0  0  0  0  0  0  0  0  0  0  0
   -7.5513   21.5000  -30.7587 H   0  0  0  0  0  0  0  0  0  0  0  0
   -7.3539   22.0865  -32.4485 H   0  0  0  0  0  0  0  0  0  0  0  0
   -6.3129   17.5350  -31.3266 H   0  0  0  0  0  0  0  0  0  0  0  0
   -8.0466   17.1110  -31.6475 H   0  0  0  0  0  0  0  0  0  0  0  0
   -6.1457   16.3369  -33.3244 H   0  0  0  0  0  0  0  0  0  0  0  0
   -7.7267   16.9298  -33.9373 H   0  0  0  0  0  0  0  0  0  0  0  0
   -6.2979   18.0186  -33.9373 H   0  0  0  0  0  0  0  0  0  0  0  0
   -4.5470   19.5846  -31.7760 H   0  0  0  0  0  0  0  0  0  0  0  0
   -5.2798   19.1254  -33.3583 H   0  0  0  0  0  0  0  0  0  0  0  0
   -3.5818   20.9675  -33.5380 H   0  0  0  0  0  0  0  0  0  0  0  0
   -5.2586   21.4300  -34.0967 H   0  0  0  0  0  0  0  0  0  0  0  0
  1  2  1  0
  2  3  1  0
  3  4  1  0
  4  5  2  0
  5  6  1  0
  6  7  2  0
  7  8  1  0
  7  9  1  0
  9 10  2  0
 10 11  1  0
 11 12  1  0
 12 13  1  0
 13 14  1  0
 14 15  1  0
 15 16  1  0
 16 17  2  0
 16 18  1  0
 18 19  1  0
 15 20  1  0
 20 21  1  0
 10  4  1  0
 21 12  1  0
  1 22  1  0
  1 23  1  0
  1 24  1  0
  2 25  1  0
  2 26  1  0
  5 27  1  0
  6 28  1  0
  9 29  1  0
 11 30  1  0
 11 31  1  0
 13 32  1  0
 13 33  1  0
 14 34  1  0
 14 35  1  0
 18 36  1  0
 18 37  1  0
 19 38  1  0
 19 39  1  0
 19 40  1  0
 20 41  1  0
 20 42  1  0
 21 43  1  0
 21 44  1  0
M  END
>  <UniqueID>  (7) 
7

>  <SMILES>  (7) 
CCOc1ccc(Cl)cc1CN1CCN(C(=O)CC)CC1

>  <Energy>  (7) 
45.831300300243846

>  <Genealogy>  (7) 
CCOc1ccc(Cl)cc1CN1CCN(C(=O)CC)CC1 (3D coordinates assigned)
CCOc1ccc(Cl)cc1CN1CCN(C(=O)CC)CC1 (nonaromatic ring conformer: 45.831300300243846 kcal/mol)

>  <smiles>  (7) 
CCOc1ccc(Cl)cc1CN1CCN(C(=O)CC)CC1

>  <score_type>  (7) 
oracle

>  <origin>  (7) 
adg

>  <m_score__min__energy>  (7) 
-7.6200000000000001

>  <m_primary>  (7) 
energy

$$$$
7:0
     RDKit          3D

 31 33  0  0  0  0  0  0  0  0999 V2000
   -4.9470   22.1100  -32.5340 C   0  0  0  0  0  0  0  0  0  0  0  0
   -6.3830   21.7600  -32.2440 C   0  0  0  0  0  0  0  0  0  0  0  0
   -6.9010   20.5430  -32.7250 C   0  0  0  0  0  0  0  0  0  0  0  0
   -8.2300   20.1910  -32.4810 C   0  0  0  0  0  0  0  0  0  0  0  0
   -9.0580   21.0480  -31.7570 C   0  0  0  0  0  0  0  0  0  0  0  0
   -8.5600   22.2560  -31.2680 C   0  0  0  0  0  0  0  0  0  0  0  0
   -7.2200   22.6220  -31.4910 C   0  0  0  0  0  0  0  0  0  0  0  0
   -6.7350   23.9540  -30.9690 C   0  0  0  0  0  0  0  0  0  0  0  0
   -5.5470   23.7730  -30.1380 N   0  0  0  0  0  0  0  0  0  0  0  0
   -5.3710   22.7610  -29.2930 N   0  0  0  0  0  0  0  0  0  0  0  0
   -4.1400   22.9430  -28.7680 C   0  0  0  0  0  0  0  0  0  0  0  0
   -3.5070   22.1380  -27.8260 C   0  0  0  0  0  0  0  0  0  0  0  0
   -2.2120   22.5110  -27.4200 C   0  0  0  0  0  0  0  0  0  0  0  0
   -1.5980   23.6610  -27.9600 C   0  0  0  0  0  0  0  0  0  0  0  0
   -2.2850   24.4330  -28.9090 C   0  0  0  0  0  0  0  0  0  0  0  0
   -3.5310   24.0320  -29.2660 N   0  0  0  0  0  0  0  0  0  0  0  0
   -4.4290   24.5320  -30.1260 C   0  0  0  0  0  0  0  0  0  0  0  0
   -4.2500   25.5630  -30.8280 O   0  0  0  0  0  0  0  0  0  0  0  0
   -4.4034   22.2425  -31.5869 H   0  0  0  0  0  0  0  0  0  0  0  0
   -4.4817   21.2990  -33.1134 H   0  0  0  0  0  0  0  0  0  0  0  0
   -4.9071   23.0442  -33.1134 H   0  0  0  0  0  0  0  0  0  0  0  0
   -6.2533   19.8633  -33.2981 H   0  0  0  0  0  0  0  0  0  0  0  0
   -8.6242   19.2367  -32.8603 H   0  0  0  0  0  0  0  0  0  0  0  0
  -10.1062   20.7710  -31.5710 H   0  0  0  0  0  0  0  0  0  0  0  0
   -9.2215   22.9288  -30.7026 H   0  0  0  0  0  0  0  0  0  0  0  0
   -6.4872   24.6077  -31.8183 H   0  0  0  0  0  0  0  0  0  0  0  0
   -7.5300   24.4099  -30.3607 H   0  0  0  0  0  0  0  0  0  0  0  0
   -3.9996   21.2447  -27.4145 H   0  0  0  0  0  0  0  0  0  0  0  0
   -1.6753   21.9024  -26.6773 H   0  0  0  0  0  0  0  0  0  0  0  0
   -0.5866   23.9506  -27.6388 H   0  0  0  0  0  0  0  0  0  0  0  0
   -1.8291   25.3324  -29.3485 H   0  0  0  0  0  0  0  0  0  0  0  0
  1  2  1  0
  2  3  2  0
  3  4  1  0
  4  5  2  0
  5  6  1  0
  6  7  2  0
  7  8  1  0
  8  9  1  0
  9 10  1  0
 10 11  2  0
 11 12  1  0
 12 13  2  0
 13 14  1  0
 14 15  2  0
 15 16  1  0
 16 17  1  0
 17 18  2  0
  7  2  1  0
 17  9  1  0
 16 11  1  0
  1 19  1  0
  1 20  1  0
  1 21  1  0
  3 22  1  0
  4 23  1  0
  5 24  1  0
  6 25  1  0
  8 26  1  0
  8 27  1  0
 12 28  1  0
 13 29  1  0
 14 30  1  0
 15 31  1  0
M  END
>  <UniqueID>  (8) 
8

>  <SMILES>  (8) 
Cc1ccccc1Cn1nc2ccccn2c1=O

>  <Energy>  (8) 
77.37048496944898

>  <Genealogy>  (8) 
Cc1ccccc1Cn1nc2ccccn2c1=O (3D coordinates assigned)
Cc1ccccc1Cn1nc2ccccn2c1=O (optimized conformer: 77.37048496944898 kcal/mol)

>  <smiles>  (8) 
Cc1ccccc1Cn1nc2ccccn2c1=O

>  <score_type>  (8) 
oracle

>  <origin>  (8) 
adg

>  <m_score__min__energy>  (8) 
-7.1600000000000001

>  <m_primary>  (8) 
energy

$$$$
8:0
     RDKit          3D

 40 43  0  0  0  0  0  0  0  0999 V2000
   -5.3670   26.0360  -30.4620 C   0  0  0  0  0  0  0  0  0  0  0  0
   -4.1080   25.3860  -30.6010 O   0  0  0  0  0  0  0  0  0  0  0  0
   -3.8870   24.0240  -30.3400 C   0  0  0  0  0  0  0  0  0  0  0  0
   -3.3970   23.6620  -29.0800 C   0  0  0  0  0  0  0  0  0  0  0  0
   -3.1650   22.3210  -28.7690 C   0  0  0  0  0  0  0  0  0  0  0  0
   -3.4150   21.3280  -29.7190 C   0  0  0  0  0  0  0  0  0  0  0  0
   -3.8900   21.6710  -30.9950 C   0  0  0  0  0  0  0  0  0  0  0  0
   -4.1640   20.6270  -32.0070 C   0  0  0  0  0  0  0  0  0  0  0  0
   -3.1920   19.8300  -32.5190 N   0  0  0  0  0  0  0  0  0  0  0  0
   -3.8260   19.0560  -33.4140 C   0  0  0  0  0  0  0  0  0  0  0  0
   -3.2920   18.0420  -34.2050 C   0  0  0  0  0  0  0  0  0  0  0  0
   -4.1740   17.3360  -35.0420 C   0  0  0  0  0  0  0  0  0  0  0  0
   -5.5520   17.6490  -35.0590 C   0  0  0  0  0  0  0  0  0  0  0  0
   -6.0610   18.6780  -34.2430 C   0  0  0  0  0  0  0  0  0  0  0  0
   -5.1540   19.3750  -33.4390 C   0  0  0  0  0  0  0  0  0  0  0  0
   -5.3870   20.3690  -32.5560 N   0  0  0  0  0  0  0  0  0  0  0  0
   -6.6620   20.9270  -32.1940 C   0  0  0  0  0  0  0  0  0  0  0  0
   -7.6790   20.1010  -31.6860 C   0  0  0  0  0  0  0  0  0  0  0  0
   -8.9120   20.6470  -31.3210 C   0  0  0  0  0  0  0  0  0  0  0  0
   -9.1400   22.0190  -31.4630 C   0  0  0  0  0  0  0  0  0  0  0  0
   -8.1340   22.8470  -31.9700 C   0  0  0  0  0  0  0  0  0  0  0  0
   -6.8980   22.3040  -32.3330 C   0  0  0  0  0  0  0  0  0  0  0  0
   -4.1370   23.0210  -31.2960 C   0  0  0  0  0  0  0  0  0  0  0  0
   -5.6013   26.1570  -29.3941 H   0  0  0  0  0  0  0  0  0  0  0  0
   -5.3242   27.0247  -30.9423 H   0  0  0  0  0  0  0  0  0  0  0  0
   -6.1483   25.4286  -30.9423 H   0  0  0  0  0  0  0  0  0  0  0  0
   -3.1932   24.4398  -28.3293 H   0  0  0  0  0  0  0  0  0  0  0  0
   -2.7847   22.0459  -27.7742 H   0  0  0  0  0  0  0  0  0  0  0  0
   -3.2389   20.2720  -29.4662 H   0  0  0  0  0  0  0  0  0  0  0  0
   -2.1740   19.8230  -32.2830 H   0  0  0  0  0  0  0  0  0  0  0  0
   -2.2189   17.8020  -34.1761 H   0  0  0  0  0  0  0  0  0  0  0  0
   -3.7885   16.5339  -35.6885 H   0  0  0  0  0  0  0  0  0  0  0  0
   -6.2320   17.0849  -35.7143 H   0  0  0  0  0  0  0  0  0  0  0  0
   -7.1331   18.9243  -34.2384 H   0  0  0  0  0  0  0  0  0  0  0  0
   -7.5036   19.0207  -31.5754 H   0  0  0  0  0  0  0  0  0  0  0  0
   -9.7042   19.9968  -30.9215 H   0  0  0  0  0  0  0  0  0  0  0  0
  -10.1116   22.4473  -31.1756 H   0  0  0  0  0  0  0  0  0  0  0  0
   -8.3151   23.9261  -32.0833 H   0  0  0  0  0  0  0  0  0  0  0  0
   -6.1073   22.9581  -32.7291 H   0  0  0  0  0  0  0  0  0  0  0  0
   -4.5288   23.2965  -32.2863 H   0  0  0  0  0  0  0  0  0  0  0  0
  1  2  1  0
  2  3  1  0
  3  4  2  0
  4  5  1  0
  5  6  2  0
  6  7  1  0
  7  8  1  0
  8  9  2  0
  9 10  1  0
 10 11  2  0
 11 12  1  0
 12 13  2  0
 13 14  1  0
 14 15  2  0
 15 16  1  0
 16 17  1  0
 17 18  2  0
 18 19  1  0
 19 20  2  0
 20 21  1  0
 21 22  2  0
  7 23  2  0
 23  3  1  0
 16  8  1  0
 22 17  1  0
 15 10  1  0
  1 24  1  0
  1 25  1  0
  1 26  1  0
  4 27  1  0
  5 28  1  0
  6 29  1  0
  9 30  1  0
 11 31  1  0
 12 32  1  0
 13 33  1  0
 14 34  1  0
 18 35  1  0
 19 36  1  0
 20 37  1  0
 21 38  1  0
 22 39  1  0
 23 40  1  0
M  CHG  1   9   1
M  END
>  <UniqueID>  (9) 
9

>  <SMILES>  (9) 
COc1cccc(-c2[nH+]c3ccccc3n2-c2ccccc2)c1

>  <Energy>  (9) 
92.53705342426377

>  <Genealogy>  (9) 
COc1cccc(-c2[nH+]c3ccccc3n2-c2ccccc2)c1 (protonated)
COc1cccc(-c2[nH+]c3ccccc3n2-c2ccccc2)c1 (3D coordinates assigned)
COc1cccc(-c2[nH+]c3ccccc3n2-c2ccccc2)c1 (optimized conformer: 92.53705342426377 kcal/mol)

>  <smiles>  (9) 
COc1cccc(-c2nc3ccccc3n2-c2ccccc2)c1

>  <score_type>  (9) 
oracle

>  <origin>  (9) 
adg

>  <m_score__min__energy>  (9) 
-8.2799999999999994

>  <m_primary>  (9) 
energy

$$$$
9:0
     RDKit          3D

 59 63  0  0  0  0  0  0  0  0999 V2000
    0.2640   23.0780  -28.5470 C   0  0  0  0  0  0  0  0  0  0  0  0
   -1.2280   23.0410  -28.7790 C   0  0  0  0  0  0  0  0  0  0  0  0
   -1.8490   24.1760  -29.3340 C   0  0  0  0  0  0  0  0  0  0  0  0
   -3.2250   24.1920  -29.5710 C   0  0  0  0  0  0  0  0  0  0  0  0
   -3.8140   25.3010  -30.0990 N   0  0  0  0  0  0  0  0  0  0  0  0
   -5.1530   25.3560  -30.3430 C   0  0  0  0  0  0  0  0  0  0  0  0
   -5.6600   26.4040  -30.8260 O   0  0  0  0  0  0  0  0  0  0  0  0
   -5.9630   24.2500  -30.0560 C   0  0  0  0  0  0  0  0  0  0  0  0
   -5.3880   23.1000  -29.5120 C   0  0  0  0  0  0  0  0  0  0  0  0
   -4.0070   23.0610  -29.2620 C   0  0  0  0  0  0  0  0  0  0  0  0
   -3.4020   21.9310  -28.7010 C   0  0  0  0  0  0  0  0  0  0  0  0
   -2.0200   21.9100  -28.4370 C   0  0  0  0  0  0  0  0  0  0  0  0
   -1.4410   20.6870  -27.7480 C   0  0  0  0  0  0  0  0  0  0  0  0
   -0.8550   19.6670  -28.7390 C   0  0  0  0  0  0  0  0  0  0  0  0
   -0.5870   20.2720  -30.1290 C   0  0  0  0  0  0  0  0  0  0  0  0
   -1.4530   19.6300  -31.2300 C   0  0  0  0  0  0  0  0  0  0  0  0
   -1.6610   20.5740  -32.3570 N   0  0  0  0  0  0  0  0  0  0  0  0
   -2.5690   21.6840  -32.0380 C   0  0  0  0  0  0  0  0  0  0  0  0
   -4.0400   21.2500  -31.8540 C   0  0  0  0  0  0  0  0  0  0  0  0
   -4.4660   20.0560  -32.6280 N   0  0  0  0  0  0  0  0  0  0  0  0
   -5.8750   19.6360  -32.5540 C   0  0  0  0  0  0  0  0  0  0  0  0
   -6.2300   18.2570  -32.6790 C   0  0  0  0  0  0  0  0  0  0  0  0
   -7.5550   17.8150  -32.5490 C   0  0  0  0  0  0  0  0  0  0  0  0
   -8.5830   18.7210  -32.2930 C   0  0  0  0  0  0  0  0  0  0  0  0
   -8.2830   20.0780  -32.2010 C   0  0  0  0  0  0  0  0  0  0  0  0
   -9.2340   21.0880  -31.9840 C   0  0  0  0  0  0  0  0  0  0  0  0
   -8.6910   22.3640  -31.9810 C   0  0  0  0  0  0  0  0  0  0  0  0
   -7.0330   22.2210  -32.2250 S   0  0  0  0  0  0  0  0  0  0  0  0
   -6.9680   20.5320  -32.3420 C   0  0  0  0  0  0  0  0  0  0  0  0
   -3.4920   19.2460  -33.3890 C   0  0  0  0  0  0  0  0  0  0  0  0
   -2.1310   19.9170  -33.5830 C   0  0  0  0  0  0  0  0  0  0  0  0
    0.4669   23.0830  -27.4659 H   0  0  0  0  0  0  0  0  0  0  0  0
    0.7281   22.1911  -29.0031 H   0  0  0  0  0  0  0  0  0  0  0  0
    0.6836   23.9868  -29.0031 H   0  0  0  0  0  0  0  0  0  0  0  0
   -1.2437   25.0599  -29.5837 H   0  0  0  0  0  0  0  0  0  0  0  0
   -7.0437   24.2872  -30.2576 H   0  0  0  0  0  0  0  0  0  0  0  0
   -6.0153   22.2267  -29.2798 H   0  0  0  0  0  0  0  0  0  0  0  0
   -4.0141   21.0484  -28.4635 H   0  0  0  0  0  0  0  0  0  0  0  0
   -0.6423   21.0131  -27.0656 H   0  0  0  0  0  0  0  0  0  0  0  0
   -2.2612   20.1912  -27.2082 H   0  0  0  0  0  0  0  0  0  0  0  0
    0.0937   19.2869  -28.3323 H   0  0  0  0  0  0  0  0  0  0  0  0
   -1.5960   18.8638  -28.8646 H   0  0  0  0  0  0  0  0  0  0  0  0
   -0.8049   21.3496  -30.0925 H   0  0  0  0  0  0  0  0  0  0  0  0
    0.4669   20.0802  -30.3790 H   0  0  0  0  0  0  0  0  0  0  0  0
   -0.9485   18.7272  -31.6046 H   0  0  0  0  0  0  0  0  0  0  0  0
   -2.4328   19.3722  -30.8015 H   0  0  0  0  0  0  0  0  0  0  0  0
   -2.2267   22.1554  -31.1049 H   0  0  0  0  0  0  0  0  0  0  0  0
   -2.5427   22.3764  -32.8924 H   0  0  0  0  0  0  0  0  0  0  0  0
   -4.1965   21.0333  -30.7870 H   0  0  0  0  0  0  0  0  0  0  0  0
   -4.6464   22.0843  -32.2363 H   0  0  0  0  0  0  0  0  0  0  0  0
   -5.4398   17.5196  -32.8835 H   0  0  0  0  0  0  0  0  0  0  0  0
   -7.7848   16.7440  -32.6500 H   0  0  0  0  0  0  0  0  0  0  0  0
   -9.6173   18.3689  -32.1654 H   0  0  0  0  0  0  0  0  0  0  0  0
  -10.3046   20.8868  -31.8314 H   0  0  0  0  0  0  0  0  0  0  0  0
   -9.2464   23.3035  -31.8434 H   0  0  0  0  0  0  0  0  0  0  0  0
   -3.3359   18.2994  -32.8508 H   0  0  0  0  0  0  0  0  0  0  0  0
   -3.9181   19.1016  -34.3928 H   0  0  0  0  0  0  0  0  0  0  0  0
   -1.3975   19.1528  -33.8798 H   0  0  0  0  0  0  0  0  0  0  0  0
   -2.2402   20.6875  -34.3605 H   0  0  0  0  0  0  0  0  0  0  0  0
  1  2  1  0
  2  3  2  0
  3  4  1  0
  4  5  1  0
  5  6  1  0
  6  7  2  0
  6  8  1  0
  8  9  2  0
  9 10  1  0
 10 11  1  0
 11 12  2  0
 12 13  1  0
 13 14  1  0
 14 15  1  0
 15 16  1  0
 16 17  1  0
 17 18  1  0
 18 19  1  0
 19 20  1  0
 20 21  1  0
 21 22  2  0
 22 23  1  0
 23 24  2  0
 24 25  1  0
 25 26  1  0
 26 27  2  0
 27 28  1  0
 28 29  1  0
 20 30  1  0
 30 31  1  0
 12  2  1  0
 31 17  1  0
 10  4  2  0
 29 21  1  0
 29 25  2  0
  1 32  1  0
  1 33  1  0
  1 34  1  0
  3 35  1  0
  8 36  1  0
  9 37  1  0
 11 38  1  0
 13 39  1  0
 13 40  1  0
 14 41  1  0
 14 42  1  0
 15 43  1  0
 15 44  1  0
 16 45  1  0
 16 46  1  0
 18 47  1  0
 18 48  1  0
 19 49  1  0
 19 50  1  0
 22 51  1  0
 23 52  1  0
 24 53  1  0
 26 54  1  0
 27 55  1  0
 30 56  1  0
 30 57  1  0
 31 58  1  0
 31 59  1  0
M  CHG  1   5  -1
M  END
>  <UniqueID>  (10) 
10

>  <SMILES>  (10) 
Cc1cc2[n-]c(=O)ccc2cc1CCCCN1CCN(c2cccc3ccsc23)CC1

>  <Energy>  (10) 
114.35132247278196

>  <Genealogy>  (10) 
Cc1cc2[n-]c(=O)ccc2cc1CCCCN1CCN(c2cccc3ccsc23)CC1 (protonated)
Cc1cc2[n-]c(=O)ccc2cc1CCCCN1CCN(c2cccc3ccsc23)CC1 (3D coordinates assigned)
Cc1cc2[n-]c(=O)ccc2cc1CCCCN1CCN(c2cccc3ccsc23)CC1 (nonaromatic ring conformer: 114.35132247278196 kcal/mol)

>  <smiles>  (10) 
Cc1cc2[nH]c(=O)ccc2cc1CCCCN1CCN(c2cccc3ccsc23)CC1

>  <score_type>  (10) 
oracle

>  <origin>  (10) 
adg

>  <m_score__min__energy>  (10) 
-11.640000000000001

>  <m_primary>  (10) 
energy

$$$$
10:0
     RDKit          3D

 52 54  0  0  0  0  0  0  0  0999 V2000
   -6.4550   17.7150  -31.5860 C   0  0  0  0  0  0  0  0  0  0  0  0
   -7.5140   17.8730  -32.6850 C   0  0  0  0  0  0  0  0  0  0  0  0
   -7.9420   19.2840  -32.8530 N   0  0  0  0  0  0  0  0  0  0  0  0
   -6.7910   20.1830  -33.1620 C   0  0  0  0  0  0  0  0  0  0  0  0
   -6.3840   21.0610  -31.9690 C   0  0  0  0  0  0  0  0  0  0  0  0
   -7.5050   21.9280  -31.5400 N   0  0  0  0  0  0  0  0  0  0  0  0
   -7.2300   22.5130  -30.2110 C   0  0  0  0  0  0  0  0  0  0  0  0
   -7.1170   24.0420  -30.3140 C   0  0  0  0  0  0  0  0  0  0  0  0
   -6.0160   24.4930  -31.2860 C   0  0  0  0  0  0  0  0  0  0  0  0
   -5.2070   25.6820  -30.7490 C   0  0  0  0  0  0  0  0  0  0  0  0
   -3.8650   25.2880  -30.4650 O   0  0  0  0  0  0  0  0  0  0  0  0
   -3.4770   24.2150  -29.6380 C   0  0  0  0  0  0  0  0  0  0  0  0
   -3.3270   24.3650  -28.2440 C   0  0  0  0  0  0  0  0  0  0  0  0
   -2.9450   23.2830  -27.4500 C   0  0  0  0  0  0  0  0  0  0  0  0
   -2.7080   22.0340  -28.0250 C   0  0  0  0  0  0  0  0  0  0  0  0
   -2.8530   21.8570  -29.4070 C   0  0  0  0  0  0  0  0  0  0  0  0
   -2.6160   20.6020  -29.9880 C   0  0  0  0  0  0  0  0  0  0  0  0
   -2.7600   20.4270  -31.3660 C   0  0  0  0  0  0  0  0  0  0  0  0
   -3.1410   21.4990  -32.1740 C   0  0  0  0  0  0  0  0  0  0  0  0
   -3.3810   22.7550  -31.6100 C   0  0  0  0  0  0  0  0  0  0  0  0
   -3.2410   22.9530  -30.2230 C   0  0  0  0  0  0  0  0  0  0  0  0
   -8.8280   21.2500  -31.5980 C   0  0  0  0  0  0  0  0  0  0  0  0
   -8.7070   19.7210  -31.6580 C   0  0  0  0  0  0  0  0  0  0  0  0
   -6.9366   17.7869  -30.5997 H   0  0  0  0  0  0  0  0  0  0  0  0
   -5.9671   16.7341  -31.6852 H   0  0  0  0  0  0  0  0  0  0  0  0
   -5.7020   18.5107  -31.6852 H   0  0  0  0  0  0  0  0  0  0  0  0
   -7.0934   17.5148  -33.6362 H   0  0  0  0  0  0  0  0  0  0  0  0
   -8.3961   17.2855  -32.3906 H   0  0  0  0  0  0  0  0  0  0  0  0
   -8.6070   19.3280  -33.6630 H   0  0  0  0  0  0  0  0  0  0  0  0
   -5.9296   19.5637  -33.4526 H   0  0  0  0  0  0  0  0  0  0  0  0
   -7.1042   20.8541  -33.9753 H   0  0  0  0  0  0  0  0  0  0  0  0
   -6.0889   20.4135  -31.1302 H   0  0  0  0  0  0  0  0  0  0  0  0
   -5.5440   21.7014  -32.2762 H   0  0  0  0  0  0  0  0  0  0  0  0
   -8.0499   22.2552  -29.5244 H   0  0  0  0  0  0  0  0  0  0  0  0
   -6.2797   22.1088  -29.8320 H   0  0  0  0  0  0  0  0  0  0  0  0
   -8.0800   24.4429  -30.6631 H   0  0  0  0  0  0  0  0  0  0  0  0
   -6.8544   24.4229  -29.3160 H   0  0  0  0  0  0  0  0  0  0  0  0
   -5.3311   23.6498  -31.4586 H   0  0  0  0  0  0  0  0  0  0  0  0
   -6.5046   24.8152  -32.2174 H   0  0  0  0  0  0  0  0  0  0  0  0
   -5.1970   26.4827  -31.5031 H   0  0  0  0  0  0  0  0  0  0  0  0
   -5.6759   26.0401  -29.8206 H   0  0  0  0  0  0  0  0  0  0  0  0
   -3.5128   25.3440  -27.7781 H   0  0  0  0  0  0  0  0  0  0  0  0
   -2.8300   23.4155  -26.3641 H   0  0  0  0  0  0  0  0  0  0  0  0
   -2.4067   21.1865  -27.3918 H   0  0  0  0  0  0  0  0  0  0  0  0
   -2.3158   19.7532  -29.3560 H   0  0  0  0  0  0  0  0  0  0  0  0
   -2.5725   19.4409  -31.8159 H   0  0  0  0  0  0  0  0  0  0  0  0
   -3.2528   21.3550  -33.2588 H   0  0  0  0  0  0  0  0  0  0  0  0
   -3.6813   23.5946  -32.2541 H   0  0  0  0  0  0  0  0  0  0  0  0
   -9.4030   21.5227  -30.7008 H   0  0  0  0  0  0  0  0  0  0  0  0
   -9.3309   21.5802  -32.5189 H   0  0  0  0  0  0  0  0  0  0  0  0
   -8.1905   19.3672  -30.7535 H   0  0  0  0  0  0  0  0  0  0  0  0
   -9.7196   19.2961  -31.7211 H   0  0  0  0  0  0  0  0  0  0  0  0
  1  2  1  0
  2  3  1  0
  3  4  1  0
  4  5  1  0
  5  6  1  0
  6  7  1  0
  7  8  1  0
  8  9  1  0
  9 10  1  0
 10 11  1  0
 11 12  1  0
 12 13  2  0
 13 14  1  0
 14 15  2  0
 15 16  1  0
 16 17  2  0
 17 18  1  0
 18 19  2  0
 19 20  1  0
 20 21  2  0
  6 22  1  0
 22 23  1  0
 23  3  1  0
 21 12  1  0
 21 16  1  0
  1 24  1  0
  1 25  1  0
  1 26  1  0
  2 27  1  0
  2 28  1  0
  3 29  1  0
  4 30  1  0
  4 31  1  0
  5 32  1  0
  5 33  1  0
  7 34  1  0
  7 35  1  0
  8 36  1  0
  8 37  1  0
  9 38  1  0
  9 39  1  0
 10 40  1  0
 10 41  1  0
 13 42  1  0
 14 43  1  0
 15 44  1  0
 17 45  1  0
 18 46  1  0
 19 47  1  0
 20 48  1  0
 22 49  1  0
 22 50  1  0
 23 51  1  0
 23 52  1  0
M  CHG  1   3   1
M  END
>  <UniqueID>  (11) 
11

>  <SMILES>  (11) 
CC[NH+]1CCN(CCCCOc2cccc3ccccc23)CC1

>  <Energy>  (11) 
65.37986302601654

>  <Genealogy>  (11) 
CC[NH+]1CCN(CCCCOc2cccc3ccccc23)CC1 (protonated)
CC[NH+]1CCN(CCCCOc2cccc3ccccc23)CC1 (3D coordinates assigned)
CC[NH+]1CCN(CCCCOc2cccc3ccccc23)CC1 (nonaromatic ring conformer: 65.37986302601654 kcal/mol)

>  <smiles>  (11) 
CCN1CCN(CCCCOc2cccc3ccccc23)CC1

>  <score_type>  (11) 
oracle

>  <origin>  (11) 
adg

>  <m_score__min__energy>  (11) 
-8.1999999999999993

>  <m_primary>  (11) 
energy

$$$$
11:0
     RDKit          3D

 47 50  0  0  0  0  0  0  0  0999 V2000
   -2.8520   23.7060  -27.0570 O   0  0  0  0  0  0  0  0  0  0  0  0
   -3.4720   23.2920  -28.0730 C   0  0  0  0  0  0  0  0  0  0  0  0
   -4.3210   24.0650  -28.7780 N   0  0  0  0  0  0  0  0  0  0  0  0
   -4.7300   23.2750  -29.7910 C   0  0  0  0  0  0  0  0  0  0  0  0
   -5.6850   23.6740  -30.7900 N   0  0  0  0  0  0  0  0  0  0  0  0
   -5.4300   23.4200  -32.2090 C   0  0  0  0  0  0  0  0  0  0  0  0
   -6.2610   22.2090  -32.6800 C   0  0  0  0  0  0  0  0  0  0  0  0
   -7.1520   21.7080  -31.6020 N   0  0  0  0  0  0  0  0  0  0  0  0
   -8.0080   20.6040  -32.0850 C   0  0  0  0  0  0  0  0  0  0  0  0
   -7.1640   19.4220  -32.4930 C   0  0  0  0  0  0  0  0  0  0  0  0
   -6.9460   18.3680  -31.5890 C   0  0  0  0  0  0  0  0  0  0  0  0
   -6.1280   17.2890  -31.9450 C   0  0  0  0  0  0  0  0  0  0  0  0
   -5.5230   17.2550  -33.2050 C   0  0  0  0  0  0  0  0  0  0  0  0
   -5.7350   18.3010  -34.1100 C   0  0  0  0  0  0  0  0  0  0  0  0
   -6.5480   19.3840  -33.7560 C   0  0  0  0  0  0  0  0  0  0  0  0
   -7.9780   22.8100  -31.0590 C   0  0  0  0  0  0  0  0  0  0  0  0
   -7.0830   23.8920  -30.4120 C   0  0  0  0  0  0  0  0  0  0  0  0
   -4.1310   22.0330  -29.6820 C   0  0  0  0  0  0  0  0  0  0  0  0
   -3.3400   22.0450  -28.5860 N   0  0  0  0  0  0  0  0  0  0  0  0
   -2.5540   20.9440  -28.0840 C   0  0  0  0  0  0  0  0  0  0  0  0
   -1.2150   20.7670  -28.4870 C   0  0  0  0  0  0  0  0  0  0  0  0
   -0.4560   19.7060  -27.9790 C   0  0  0  0  0  0  0  0  0  0  0  0
   -1.0210   18.8140  -27.0650 C   0  0  0  0  0  0  0  0  0  0  0  0
   -2.3460   18.9810  -26.6540 C   0  0  0  0  0  0  0  0  0  0  0  0
   -3.1100   20.0400  -27.1610 C   0  0  0  0  0  0  0  0  0  0  0  0
   -4.5850   25.0590  -28.5930 H   0  0  0  0  0  0  0  0  0  0  0  0
   -5.7122   24.3069  -32.7953 H   0  0  0  0  0  0  0  0  0  0  0  0
   -4.3608   23.2054  -32.3534 H   0  0  0  0  0  0  0  0  0  0  0  0
   -6.8759   22.5105  -33.5408 H   0  0  0  0  0  0  0  0  0  0  0  0
   -5.5676   21.4016  -32.9579 H   0  0  0  0  0  0  0  0  0  0  0  0
   -8.6938   20.2990  -31.2808 H   0  0  0  0  0  0  0  0  0  0  0  0
   -8.5793   20.9521  -32.9582 H   0  0  0  0  0  0  0  0  0  0  0  0
   -7.4205   18.3910  -30.5969 H   0  0  0  0  0  0  0  0  0  0  0  0
   -5.9612   16.4674  -31.2329 H   0  0  0  0  0  0  0  0  0  0  0  0
   -4.8809   16.4067  -33.4847 H   0  0  0  0  0  0  0  0  0  0  0  0
   -5.2614   18.2721  -35.1024 H   0  0  0  0  0  0  0  0  0  0  0  0
   -6.7053   20.2076  -34.4680 H   0  0  0  0  0  0  0  0  0  0  0  0
   -8.5594   23.2626  -31.8758 H   0  0  0  0  0  0  0  0  0  0  0  0
   -8.6533   22.4028  -30.2921 H   0  0  0  0  0  0  0  0  0  0  0  0
   -7.4038   24.8856  -30.7583 H   0  0  0  0  0  0  0  0  0  0  0  0
   -7.1758   23.8318  -29.3176 H   0  0  0  0  0  0  0  0  0  0  0  0
   -4.2734   21.1843  -30.3671 H   0  0  0  0  0  0  0  0  0  0  0  0
   -0.7635   21.4671  -29.2053 H   0  0  0  0  0  0  0  0  0  0  0  0
    0.5877   19.5746  -28.3005 H   0  0  0  0  0  0  0  0  0  0  0  0
   -0.4231   17.9801  -26.6687 H   0  0  0  0  0  0  0  0  0  0  0  0
   -2.7896   18.2801  -25.9315 H   0  0  0  0  0  0  0  0  0  0  0  0
   -4.1530   20.1656  -26.8347 H   0  0  0  0  0  0  0  0  0  0  0  0
  1  2  2  0
  2  3  1  0
  3  4  1  0
  4  5  1  0
  5  6  1  0
  6  7  1  0
  7  8  1  0
  8  9  1  0
  9 10  1  0
 10 11  2  0
 11 12  1  0
 12 13  2  0
 13 14  1  0
 14 15  2  0
  8 16  1  0
 16 17  1  0
  4 18  2  0
 18 19  1  0
 19 20  1  0
 20 21  2  0
 21 22  1  0
 22 23  2  0
 23 24  1  0
 24 25  2  0
 19  2  1  0
 25 20  1  0
 17  5  1  0
 15 10  1  0
  3 26  1  0
  6 27  1  0
  6 28  1  0
  7 29  1  0
  7 30  1  0
  9 31  1  0
  9 32  1  0
 11 33  1  0
 12 34  1  0
 13 35  1  0
 14 36  1  0
 15 37  1  0
 16 38  1  0
 16 39  1  0
 17 40  1  0
 17 41  1  0
 18 42  1  0
 21 43  1  0
 22 44  1  0
 23 45  1  0
 24 46  1  0
 25 47  1  0
M  END
>  <UniqueID>  (12) 
12

>  <SMILES>  (12) 
O=c1[nH]c(N2CCN(Cc3ccccc3)CC2)cn1-c1ccccc1

>  <Energy>  (12) 
97.61644509169938

>  <Genealogy>  (12) 
O=c1[nH]c(N2CCN(Cc3ccccc3)CC2)cn1-c1ccccc1 (3D coordinates assigned)
O=c1[nH]c(N2CCN(Cc3ccccc3)CC2)cn1-c1ccccc1 (nonaromatic ring conformer: 97.61644509169938 kcal/mol)

>  <smiles>  (12) 
O=c1[nH]c(N2CCN(Cc3ccccc3)CC2)cn1-c1ccccc1

>  <score_type>  (12) 
oracle

>  <origin>  (12) 
adg

>  <m_score__min__energy>  (12) 
-8.1300000000000008

>  <m_primary>  (12) 
energy

$$$$
12:0
     RDKit          3D

 35 36  0  0  0  0  0  0  0  0999 V2000
   -9.2940   20.7790  -31.9570 C   0  0  0  0  0  0  0  0  0  0  0  0
   -8.4730   20.0420  -32.7110 C   0  0  0  0  0  0  0  0  0  0  0  0
   -7.3400   19.2510  -32.1190 C   0  0  0  0  0  0  0  0  0  0  0  0
   -6.0950   19.2680  -33.0270 C   0  0  0  0  0  0  0  0  0  0  0  0
   -5.3610   20.6010  -33.3060 C   0  0  0  0  0  0  0  0  0  0  0  0
   -4.5430   21.0940  -32.0970 C   0  0  0  0  0  0  0  0  0  0  0  0
   -5.2800   22.1150  -31.2690 C   0  0  0  0  0  0  0  0  0  0  0  0
   -6.4760   22.4690  -31.6160 N   0  0  0  0  0  0  0  0  0  0  0  0
   -7.2870   23.4100  -30.8630 C   0  0  0  0  0  0  0  0  0  0  0  0
   -6.5510   24.7360  -30.6590 C   0  0  0  0  0  0  0  0  0  0  0  0
   -4.9470   24.4340  -29.9420 S   0  0  0  0  0  0  0  0  0  0  0  0
   -3.7680   25.2820  -30.7860 O   0  0  0  0  0  0  0  0  0  0  0  0
   -4.6250   22.6860  -30.0330 C   0  0  0  0  0  0  0  0  0  0  0  0
   -6.0830   18.2410  -34.1580 C   0  0  0  0  0  0  0  0  0  0  0  0
   -5.1990   18.0370  -32.9360 C   0  0  0  0  0  0  0  0  0  0  0  0
  -10.1124   21.3446  -32.4263 H   0  0  0  0  0  0  0  0  0  0  0  0
   -9.1514   20.8200  -30.8671 H   0  0  0  0  0  0  0  0  0  0  0  0
   -8.6312   20.0132  -33.7992 H   0  0  0  0  0  0  0  0  0  0  0  0
   -7.0750   19.6840  -31.1432 H   0  0  0  0  0  0  0  0  0  0  0  0
   -7.6708   18.2074  -32.0115 H   0  0  0  0  0  0  0  0  0  0  0  0
   -4.6789   20.4557  -34.1567 H   0  0  0  0  0  0  0  0  0  0  0  0
   -6.1252   21.3620  -33.5225 H   0  0  0  0  0  0  0  0  0  0  0  0
   -4.3042   20.2304  -31.4589 H   0  0  0  0  0  0  0  0  0  0  0  0
   -3.6352   21.5775  -32.4870 H   0  0  0  0  0  0  0  0  0  0  0  0
   -8.2208   23.5989  -31.4128 H   0  0  0  0  0  0  0  0  0  0  0  0
   -7.4994   22.9742  -29.8756 H   0  0  0  0  0  0  0  0  0  0  0  0
   -6.4281   25.2383  -31.6299 H   0  0  0  0  0  0  0  0  0  0  0  0
   -7.1364   25.3753  -29.9818 H   0  0  0  0  0  0  0  0  0  0  0  0
   -4.2380   25.6360  -31.5810 H   0  0  0  0  0  0  0  0  0  0  0  0
   -3.5394   22.5155  -30.0818 H   0  0  0  0  0  0  0  0  0  0  0  0
   -5.0350   22.1915  -29.1400 H   0  0  0  0  0  0  0  0  0  0  0  0
   -6.9557   17.5912  -34.3201 H   0  0  0  0  0  0  0  0  0  0  0  0
   -5.9116   18.2818  -35.2438 H   0  0  0  0  0  0  0  0  0  0  0  0
   -5.4328   17.2392  -32.2157 H   0  0  0  0  0  0  0  0  0  0  0  0
   -4.1240   17.8690  -32.7743 H   0  0  0  0  0  0  0  0  0  0  0  0
  1  2  2  0
  2  3  1  0
  3  4  1  0
  4  5  1  0
  5  6  1  0
  6  7  1  0
  7  8  2  0
  8  9  1  0
  9 10  1  0
 10 11  1  0
 11 12  1  6
 11 13  1  0
  4 14  1  0
 14 15  1  0
 15  4  1  0
 13  7  1  0
  1 16  1  0
  1 17  1  0
  2 18  1  0
  3 19  1  0
  3 20  1  0
  5 21  1  0
  5 22  1  0
  6 23  1  0
  6 24  1  0
  9 25  1  0
  9 26  1  0
 10 27  1  0
 10 28  1  0
 12 29  1  0
 13 30  1  0
 13 31  1  0
 14 32  1  0
 14 33  1  0
 15 34  1  0
 15 35  1  0
M  CHG  1  11   1
M  END
>  <UniqueID>  (13) 
13

>  <SMILES>  (13) 
C=CCC1(CCC2=NCC[S@+](O)C2)CC1

>  <Energy>  (13) 
287.7958203743538

>  <Genealogy>  (13) 
C=CCC1(CCC2=NCC[S+](O)C2)CC1 (protonated)
C=CCC1(CCC2=NCC[S@+](O)C2)CC1 (chirality)
C=CCC1(CCC2=NCC[S@+](O)C2)CC1 (3D coordinates assigned)
C=CCC1(CCC2=NCC[S@+](O)C2)CC1 (nonaromatic ring conformer: 287.7958203743538 kcal/mol)

>  <smiles>  (13) 
C=CCC1(CCC2=NCC[S+]([O-])C2)CC1

>  <score_type>  (13) 
oracle

>  <origin>  (13) 
adg

>  <m_score__min__energy>  (13) 
-6.2400000000000002

>  <m_primary>  (13) 
energy

$$$$
13:0
     RDKit          3D

 30 31  0  0  0  0  0  0  0  0999 V2000
   -2.2030   24.9230  -28.6120 C   0  0  0  0  0  0  0  0  0  0  0  0
   -3.0780   25.2540  -29.6850 O   0  0  0  0  0  0  0  0  0  0  0  0
   -4.0830   24.4070  -30.1810 C   0  0  0  0  0  0  0  0  0  0  0  0
   -5.4360   24.7890  -30.2060 C   0  0  0  0  0  0  0  0  0  0  0  0
   -6.4070   23.9210  -30.7080 C   0  0  0  0  0  0  0  0  0  0  0  0
   -6.0450   22.6580  -31.1970 C   0  0  0  0  0  0  0  0  0  0  0  0
   -7.0510   21.7600  -31.7080 N   0  0  0  0  0  0  0  0  0  0  0  0
   -8.2990   21.7740  -31.1500 C   0  0  0  0  0  0  0  0  0  0  0  0
   -9.2900   20.9140  -31.6130 C   0  0  0  0  0  0  0  0  0  0  0  0
   -8.9840   20.0430  -32.6560 C   0  0  0  0  0  0  0  0  0  0  0  0
   -9.8600   19.2530  -33.0930 O   0  0  0  0  0  0  0  0  0  0  0  0
   -7.7380   20.0510  -33.1990 N   0  0  0  0  0  0  0  0  0  0  0  0
   -6.7760   20.9000  -32.7400 C   0  0  0  0  0  0  0  0  0  0  0  0
   -5.6370   20.8930  -33.2860 O   0  0  0  0  0  0  0  0  0  0  0  0
   -4.6960   22.2710  -31.1670 C   0  0  0  0  0  0  0  0  0  0  0  0
   -3.7100   23.1420  -30.6630 C   0  0  0  0  0  0  0  0  0  0  0  0
   -2.3520   22.7870  -30.6230 O   0  0  0  0  0  0  0  0  0  0  0  0
   -1.8130   21.5960  -31.1860 C   0  0  0  0  0  0  0  0  0  0  0  0
   -2.7088   25.1143  -27.6541 H   0  0  0  0  0  0  0  0  0  0  0  0
   -1.9298   23.8594  -28.6764 H   0  0  0  0  0  0  0  0  0  0  0  0
   -1.2943   25.5395  -28.6764 H   0  0  0  0  0  0  0  0  0  0  0  0
   -5.7313   25.7787  -29.8273 H   0  0  0  0  0  0  0  0  0  0  0  0
   -7.4627   24.2298  -30.7200 H   0  0  0  0  0  0  0  0  0  0  0  0
   -8.5215   22.4708  -30.3284 H   0  0  0  0  0  0  0  0  0  0  0  0
  -10.2944   20.9218  -31.1646 H   0  0  0  0  0  0  0  0  0  0  0  0
   -7.5170   19.3980  -33.9860 H   0  0  0  0  0  0  0  0  0  0  0  0
   -4.4059   21.2779  -31.5407 H   0  0  0  0  0  0  0  0  0  0  0  0
   -1.5050   20.9155  -30.3785 H   0  0  0  0  0  0  0  0  0  0  0  0
   -2.5770   21.1057  -31.8073 H   0  0  0  0  0  0  0  0  0  0  0  0
   -0.9405   21.8464  -31.8073 H   0  0  0  0  0  0  0  0  0  0  0  0
  1  2  1  0
  2  3  1  0
  3  4  2  0
  4  5  1  0
  5  6  2  0
  6  7  1  0
  7  8  1  0
  8  9  2  0
  9 10  1  0
 10 11  2  0
 10 12  1  0
 12 13  1  0
 13 14  2  0
  6 15  1  0
 15 16  2  0
 16 17  1  0
 17 18  1  0
 16  3  1  0
 13  7  1  0
  1 19  1  0
  1 20  1  0
  1 21  1  0
  4 22  1  0
  5 23  1  0
  8 24  1  0
  9 25  1  0
 12 26  1  0
 15 27  1  0
 18 28  1  0
 18 29  1  0
 18 30  1  0
M  END
>  <UniqueID>  (14) 
14

>  <SMILES>  (14) 
COc1ccc(-n2ccc(=O)[nH]c2=O)cc1OC

>  <Energy>  (14) 
38.37391386299265

>  <Genealogy>  (14) 
COc1ccc(-n2ccc(=O)[nH]c2=O)cc1OC (3D coordinates assigned)
COc1ccc(-n2ccc(=O)[nH]c2=O)cc1OC (optimized conformer: 38.37391386299265 kcal/mol)

>  <smiles>  (14) 
COc1ccc(-n2ccc(=O)[nH]c2=O)cc1OC

>  <score_type>  (14) 
oracle

>  <origin>  (14) 
adg

>  <m_score__min__energy>  (14) 
-6.5300000000000002

>  <m_primary>  (14) 
energy

$$$$
14:0
     RDKit          3D

 31 33  0  0  0  0  0  0  0  0999 V2000
   -1.6760   25.0410  -28.1680 C   0  0  0  0  0  0  0  0  0  0  0  0
   -2.4320   25.2990  -29.3460 O   0  0  0  0  0  0  0  0  0  0  0  0
   -3.5300   24.5330  -29.7670 C   0  0  0  0  0  0  0  0  0  0  0  0
   -4.6310   25.0970  -30.4370 C   0  0  0  0  0  0  0  0  0  0  0  0
   -5.7010   24.2900  -30.8380 C   0  0  0  0  0  0  0  0  0  0  0  0
   -5.6780   22.9080  -30.5910 C   0  0  0  0  0  0  0  0  0  0  0  0
   -6.8200   22.0530  -30.9770 C   0  0  0  0  0  0  0  0  0  0  0  0
   -8.0530   22.3880  -30.5100 N   0  0  0  0  0  0  0  0  0  0  0  0
   -9.1490   21.6990  -30.8320 N   0  0  0  0  0  0  0  0  0  0  0  0
   -9.0900   20.6210  -31.6540 C   0  0  0  0  0  0  0  0  0  0  0  0
   -7.8580   20.2020  -32.1600 C   0  0  0  0  0  0  0  0  0  0  0  0
   -7.7730   19.0750  -32.9930 C   0  0  0  0  0  0  0  0  0  0  0  0
   -6.5320   18.6450  -33.4660 C   0  0  0  0  0  0  0  0  0  0  0  0
   -5.3700   19.3280  -33.1040 C   0  0  0  0  0  0  0  0  0  0  0  0
   -5.4410   20.4530  -32.2780 C   0  0  0  0  0  0  0  0  0  0  0  0
   -6.6890   20.9170  -31.8120 C   0  0  0  0  0  0  0  0  0  0  0  0
   -4.5910   22.3520  -29.9030 C   0  0  0  0  0  0  0  0  0  0  0  0
   -3.5220   23.1590  -29.5020 C   0  0  0  0  0  0  0  0  0  0  0  0
   -2.2936   25.2518  -27.2825 H   0  0  0  0  0  0  0  0  0  0  0  0
   -1.3651   23.9859  -28.1556 H   0  0  0  0  0  0  0  0  0  0  0  0
   -0.7850   25.6859  -28.1556 H   0  0  0  0  0  0  0  0  0  0  0  0
   -4.6506   26.1767  -30.6464 H   0  0  0  0  0  0  0  0  0  0  0  0
   -6.5646   24.7403  -31.3493 H   0  0  0  0  0  0  0  0  0  0  0  0
  -10.0710   22.0020  -30.4480 H   0  0  0  0  0  0  0  0  0  0  0  0
  -10.0094   20.0792  -31.9207 H   0  0  0  0  0  0  0  0  0  0  0  0
   -8.6862   18.5297  -33.2735 H   0  0  0  0  0  0  0  0  0  0  0  0
   -6.4699   17.7665  -34.1251 H   0  0  0  0  0  0  0  0  0  0  0  0
   -4.3934   18.9791  -33.4707 H   0  0  0  0  0  0  0  0  0  0  0  0
   -4.5191   20.9793  -31.9898 H   0  0  0  0  0  0  0  0  0  0  0  0
   -4.5788   21.2755  -29.6774 H   0  0  0  0  0  0  0  0  0  0  0  0
   -2.6678   22.7102  -28.9739 H   0  0  0  0  0  0  0  0  0  0  0  0
  1  2  1  0
  2  3  1  0
  3  4  2  0
  4  5  1  0
  5  6  2  0
  6  7  1  0
  7  8  2  0
  8  9  1  0
  9 10  2  0
 10 11  1  0
 11 12  2  0
 12 13  1  0
 13 14  2  0
 14 15  1  0
 15 16  2  0
  6 17  1  0
 17 18  2  0
 18  3  1  0
 16  7  1  0
 16 11  1  0
  1 19  1  0
  1 20  1  0
  1 21  1  0
  4 22  1  0
  5 23  1  0
  9 24  1  0
 10 25  1  0
 12 26  1  0
 13 27  1  0
 14 28  1  0
 15 29  1  0
 17 30  1  0
 18 31  1  0
M  CHG  1   9   1
M  END
>  <UniqueID>  (15) 
15

>  <SMILES>  (15) 
COc1ccc(-c2n[nH+]cc3ccccc23)cc1

>  <Energy>  (15) 
44.700827966095

>  <Genealogy>  (15) 
COc1ccc(-c2n[nH+]cc3ccccc23)cc1 (protonated)
COc1ccc(-c2n[nH+]cc3ccccc23)cc1 (3D coordinates assigned)
COc1ccc(-c2n[nH+]cc3ccccc23)cc1 (optimized conformer: 44.700827966095 kcal/mol)

>  <smiles>  (15) 
COc1ccc(-c2nncc3ccccc23)cc1

>  <score_type>  (15) 
oracle

>  <origin>  (15) 
adg

>  <m_score__min__energy>  (15) 
-7.46

>  <m_primary>  (15) 
energy

$$$$
15:0
     RDKit          3D

 39 41  0  0  0  0  0  0  0  0999 V2000
   -6.9400   24.1507  -32.5816 H   0  0  0  0  0  0  0  0  0  0  0  0
   -6.1790   23.4690  -32.1740 C   0  0  0  0  0  0  0  0  0  0  0  0
   -6.0420   22.2830  -32.6790 N   0  0  0  0  0  0  0  0  0  0  0  0
   -6.9600   21.2030  -32.4590 C   0  0  0  0  0  0  0  0  0  0  0  0
   -8.1780   21.4870  -31.8250 C   0  0  0  0  0  0  0  0  0  0  0  0
   -8.4031   22.5170  -31.5111 H   0  0  0  0  0  0  0  0  0  0  0  0
   -9.1080   20.4710  -31.5890 C   0  0  0  0  0  0  0  0  0  0  0  0
  -10.0678   20.7065  -31.1061 H   0  0  0  0  0  0  0  0  0  0  0  0
   -8.8210   19.1580  -31.9650 C   0  0  0  0  0  0  0  0  0  0  0  0
   -9.5591   18.3617  -31.7887 H   0  0  0  0  0  0  0  0  0  0  0  0
   -7.5970   18.8550  -32.5650 C   0  0  0  0  0  0  0  0  0  0  0  0
   -7.3698   17.8168  -32.8488 H   0  0  0  0  0  0  0  0  0  0  0  0
   -6.6560   19.8650  -32.8080 C   0  0  0  0  0  0  0  0  0  0  0  0
   -5.0880   19.3950  -33.4550 Cl  0  0  0  0  0  0  0  0  0  0  0  0
   -5.3250   23.9110  -31.0600 C   0  0  0  0  0  0  0  0  0  0  0  0
   -5.6900   24.7060  -29.9840 C   0  0  0  0  0  0  0  0  0  0  0  0
   -7.0410   25.2950  -29.7300 C   0  0  0  0  0  0  0  0  0  0  0  0
   -7.2108   25.3690  -28.6457 H   0  0  0  0  0  0  0  0  0  0  0  0
   -7.0940   26.2979  -30.1787 H   0  0  0  0  0  0  0  0  0  0  0  0
   -7.8119   24.6513  -30.1787 H   0  0  0  0  0  0  0  0  0  0  0  0
   -4.6230   24.8740  -29.1750 N   0  0  0  0  0  0  0  0  0  0  0  0
   -4.6020   25.4390  -28.2960 H   0  0  0  0  0  0  0  0  0  0  0  0
   -3.5870   24.2280  -29.6900 N   0  0  0  0  0  0  0  0  0  0  0  0
   -2.2780   24.1830  -29.0910 C   0  0  0  0  0  0  0  0  0  0  0  0
   -1.5040   23.0150  -29.1760 C   0  0  0  0  0  0  0  0  0  0  0  0
   -1.9016   22.1331  -29.6996 H   0  0  0  0  0  0  0  0  0  0  0  0
   -0.2320   22.9650  -28.6000 C   0  0  0  0  0  0  0  0  0  0  0  0
    0.3706   22.0482  -28.6793 H   0  0  0  0  0  0  0  0  0  0  0  0
    0.2760   24.0760  -27.9240 C   0  0  0  0  0  0  0  0  0  0  0  0
    1.2834   24.0363  -27.4839 H   0  0  0  0  0  0  0  0  0  0  0  0
   -0.4930   25.2420  -27.8040 C   0  0  0  0  0  0  0  0  0  0  0  0
    0.0620   26.4460  -27.1020 C   0  0  0  0  0  0  0  0  0  0  0  0
   -0.0055   26.2995  -26.0139 H   0  0  0  0  0  0  0  0  0  0  0  0
    1.1149   26.5847  -27.3887 H   0  0  0  0  0  0  0  0  0  0  0  0
   -0.5164   27.3366  -27.3887 H   0  0  0  0  0  0  0  0  0  0  0  0
   -1.7630   25.2960  -28.4000 C   0  0  0  0  0  0  0  0  0  0  0  0
   -2.3610   26.2163  -28.3263 H   0  0  0  0  0  0  0  0  0  0  0  0
   -3.9910   23.6310  -30.8330 C   0  0  0  0  0  0  0  0  0  0  0  0
   -3.2600   22.9000  -31.5550 O   0  0  0  0  0  0  0  0  0  0  0  0
  1  2  1  0
  2  3  2  0
  3  4  1  0
  4  5  2  0
  5  6  1  0
  5  7  1  0
  7  8  1  0
  7  9  2  0
  9 10  1  0
  9 11  1  0
 11 12  1  0
 11 13  2  0
 13 14  1  0
  2 15  1  0
 15 16  2  0
 16 17  1  0
 17 18  1  0
 17 19  1  0
 17 20  1  0
 16 21  1  0
 21 22  1  0
 21 23  1  0
 23 24  1  0
 24 25  2  0
 25 26  1  0
 25 27  1  0
 27 28  1  0
 27 29  2  0
 29 30  1  0
 29 31  1  0
 31 32  1  0
 32 33  1  0
 32 34  1  0
 32 35  1  0
 31 36  2  0
 36 37  1  0
 23 38  1  0
 38 39  2  0
 13  4  1  0
 38 15  1  0
 36 24  1  0
M  END
>  <UniqueID>  (16) 
16

>  <SMILES>  (16) 
Cc1cccc(-n2[nH]c(C)c(/C=N/c3ccccc3Cl)c2=O)c1

>  <Energy>  (16) 
83.33910986056036

>  <Genealogy>  (16) 
Cc1cccc(-n2[nH]c(C)c(/C=N/c3ccccc3Cl)c2=O)c1 (cis-trans isomerization)
Cc1cccc(-n2[nH]c(C)c(/C=N/c3ccccc3Cl)c2=O)c1 (3D coordinates assigned)
Cc1cccc(-n2[nH]c(C)c(/C=N/c3ccccc3Cl)c2=O)c1 (optimized conformer: 83.33910986056036 kcal/mol)

>  <smiles>  (16) 
Cc1cccc(-n2[nH]c(C)c(C=Nc3ccccc3Cl)c2=O)c1

>  <score_type>  (16) 
oracle

>  <origin>  (16) 
adg

>  <m_score__min__energy>  (16) 
-8.5800000000000001

>  <m_primary>  (16) 
energy

$$$$
16:0
     RDKit          3D

 39 38  0  0  0  0  0  0  0  0999 V2000
   -0.4990   21.1330  -34.4860 C   0  0  0  0  0  0  0  0  0  0  0  0
   -1.0970   21.5360  -33.1380 C   0  0  0  0  0  0  0  0  0  0  0  0
   -2.6280   21.2990  -33.0720 C   0  0  1  0  0  0  0  0  0  0  0  0
   -2.9860   19.8610  -33.4940 C   0  0  0  0  0  0  0  0  0  0  0  0
   -3.2020   21.6590  -31.6660 C   0  0  2  0  0  0  0  0  0  0  0  0
   -4.0300   22.8830  -31.7030 N   0  0  0  0  0  0  0  0  0  0  0  0
   -4.7990   23.0550  -30.4590 C   0  0  0  0  0  0  0  0  0  0  0  0
   -4.8240   24.5360  -30.0270 C   0  0  1  0  0  0  0  0  0  0  0  0
   -3.8840   25.3100  -30.8440 N   0  0  0  0  0  0  0  0  0  0  0  0
   -6.2450   25.1210  -30.1360 C   0  0  0  0  0  0  0  0  0  0  0  0
   -7.3510   23.9850  -30.9520 S   0  0  0  0  0  0  0  0  0  0  0  0
   -2.0710   21.8200  -30.6750 C   0  0  0  0  0  0  0  0  0  0  0  0
   -1.3520   20.8280  -30.3720 O   0  0  0  0  0  0  0  0  0  0  0  0
   -1.8300   23.0950  -30.0630 N   0  0  0  0  0  0  0  0  0  0  0  0
   -0.6750   23.3460  -29.2080 C   0  0  0  0  0  0  0  0  0  0  0  0
   -0.6290   24.7910  -28.8230 C   0  0  0  0  0  0  0  0  0  0  0  0
    0.2630   25.2100  -28.0370 O   0  0  0  0  0  0  0  0  0  0  0  0
   -1.5920   25.6680  -29.2950 O   0  0  0  0  0  0  0  0  0  0  0  0
    0.4028   20.5253  -34.3201 H   0  0  0  0  0  0  0  0  0  0  0  0
   -1.2367   20.5471  -35.0539 H   0  0  0  0  0  0  0  0  0  0  0  0
   -0.2328   22.0367  -35.0539 H   0  0  0  0  0  0  0  0  0  0  0  0
   -0.6141   20.9437  -32.3468 H   0  0  0  0  0  0  0  0  0  0  0  0
   -0.9197   22.6132  -33.0027 H   0  0  0  0  0  0  0  0  0  0  0  0
   -3.1061   21.9778  -33.7936 H   0  0  0  0  0  0  0  0  0  0  0  0
   -3.1398   19.2432  -32.5970 H   0  0  0  0  0  0  0  0  0  0  0  0
   -3.9084   19.8736  -34.0931 H   0  0  0  0  0  0  0  0  0  0  0  0
   -2.1653   19.4396  -34.0931 H   0  0  0  0  0  0  0  0  0  0  0  0
   -3.8544   20.8324  -31.3482 H   0  0  0  0  0  0  0  0  0  0  0  0
   -4.7240   22.7990  -32.4790 H   0  0  0  0  0  0  0  0  0  0  0  0
   -5.8307   22.7102  -30.6228 H   0  0  0  0  0  0  0  0  0  0  0  0
   -4.3183   22.4654  -29.6645 H   0  0  0  0  0  0  0  0  0  0  0  0
   -4.5161   24.5967  -28.9727 H   0  0  0  0  0  0  0  0  0  0  0  0
   -3.4290   24.6620  -31.5270 H   0  0  0  0  0  0  0  0  0  0  0  0
   -3.1140   25.6580  -30.2290 H   0  0  0  0  0  0  0  0  0  0  0  0
   -6.6259   25.3284  -29.1251 H   0  0  0  0  0  0  0  0  0  0  0  0
   -6.1958   26.0455  -30.7300 H   0  0  0  0  0  0  0  0  0  0  0  0
   -2.4920   23.8820  -30.2520 H   0  0  0  0  0  0  0  0  0  0  0  0
   -0.7525   22.7293  -28.3004 H   0  0  0  0  0  0  0  0  0  0  0  0
    0.2433   23.0885  -29.7561 H   0  0  0  0  0  0  0  0  0  0  0  0
  1  2  1  0
  2  3  1  0
  3  4  1  0
  3  5  1  0
  5  6  1  0
  6  7  1  0
  7  8  1  0
  8  9  1  0
  8 10  1  0
 10 11  1  0
  5 12  1  0
 12 13  2  0
 12 14  1  0
 14 15  1  0
 15 16  1  0
 16 17  2  0
 16 18  1  0
  1 19  1  0
  1 20  1  0
  1 21  1  0
  2 22  1  0
  2 23  1  0
  3 24  1  6
  4 25  1  0
  4 26  1  0
  4 27  1  0
  5 28  1  1
  6 29  1  0
  7 30  1  0
  7 31  1  0
  8 32  1  1
  9 33  1  0
  9 34  1  0
 10 35  1  0
 10 36  1  0
 14 37  1  0
 15 38  1  0
 15 39  1  0
M  CHG  2  11  -1  18  -1
M  END
>  <UniqueID>  (17) 
17

>  <SMILES>  (17) 
CC[C@@H](C)[C@H](NCC(N)C[S-])C(=O)NCC(=O)[O-]

>  <Energy>  (17) 
23.577761485548

>  <Genealogy>  (17) 
CCC(C)C(NCC(N)C[S-])C(=O)NCC(=O)[O-] (protonated)
CC[C@@H](C)[C@H](NCC(N)C[S-])C(=O)NCC(=O)[O-] (chirality)
CC[C@@H](C)[C@H](NCC(N)C[S-])C(=O)NCC(=O)[O-] (3D coordinates assigned)
CC[C@@H](C)[C@H](NCC(N)C[S-])C(=O)NCC(=O)[O-] (optimized conformer: 23.577761485548 kcal/mol)

>  <smiles>  (17) 
CCC(C)C(NCC(N)CS)C(=O)NCC(=O)O

>  <score_type>  (17) 
oracle

>  <origin>  (17) 
adg

>  <m_score__min__energy>  (17) 
-8.5999999999999996

>  <m_primary>  (17) 
energy

$$$$
17:0
     RDKit          3D

 43 45  0  0  0  0  0  0  0  0999 V2000
   -2.8990   24.9820  -26.5630 C   0  0  0  0  0  0  0  0  0  0  0  0
   -4.2360   24.5340  -27.1450 C   0  0  0  0  0  0  0  0  0  0  0  0
   -4.0580   24.0190  -28.5080 N   0  0  0  0  0  0  0  0  0  0  0  0
   -3.0800   23.0010  -28.7890 C   0  0  0  0  0  0  0  0  0  0  0  0
   -3.1510   21.7480  -28.1560 C   0  0  0  0  0  0  0  0  0  0  0  0
   -2.2030   20.7600  -28.4400 C   0  0  0  0  0  0  0  0  0  0  0  0
   -1.1800   21.0130  -29.3570 C   0  0  0  0  0  0  0  0  0  0  0  0
   -1.1040   22.2550  -29.9940 C   0  0  0  0  0  0  0  0  0  0  0  0
   -2.0500   23.2460  -29.7120 C   0  0  0  0  0  0  0  0  0  0  0  0
   -5.0740   24.6200  -29.7870 S   0  0  0  0  0  0  0  0  0  0  0  0
   -4.2250   25.2790  -30.8380 O   0  0  0  0  0  0  0  0  0  0  0  0
   -6.0230   25.6510  -29.2420 O   0  0  0  0  0  0  0  0  0  0  0  0
   -5.9880   23.2910  -30.4920 C   0  0  0  0  0  0  0  0  0  0  0  0
   -7.2990   23.0440  -30.0640 C   0  0  0  0  0  0  0  0  0  0  0  0
   -8.0290   21.9800  -30.5980 C   0  0  0  0  0  0  0  0  0  0  0  0
   -7.4560   21.1480  -31.5700 C   0  0  0  0  0  0  0  0  0  0  0  0
   -8.1790   20.0760  -32.1110 C   0  0  0  0  0  0  0  0  0  0  0  0
   -7.5970   19.2530  -33.0780 C   0  0  0  0  0  0  0  0  0  0  0  0
   -6.2890   19.4830  -33.5200 C   0  0  0  0  0  0  0  0  0  0  0  0
   -5.7560   18.6230  -34.4920 O   0  0  0  0  0  0  0  0  0  0  0  0
   -5.7380   17.2030  -34.3880 C   0  0  0  0  0  0  0  0  0  0  0  0
   -5.5570   20.5580  -32.9800 C   0  0  0  0  0  0  0  0  0  0  0  0
   -6.1330   21.3920  -32.0090 C   0  0  0  0  0  0  0  0  0  0  0  0
   -5.4080   22.4640  -31.4660 C   0  0  0  0  0  0  0  0  0  0  0  0
   -2.9528   24.9640  -25.4645 H   0  0  0  0  0  0  0  0  0  0  0  0
   -2.1047   24.3009  -26.9024 H   0  0  0  0  0  0  0  0  0  0  0  0
   -2.6754   26.0042  -26.9024 H   0  0  0  0  0  0  0  0  0  0  0  0
   -4.6590   23.7409  -26.5110 H   0  0  0  0  0  0  0  0  0  0  0  0
   -4.9165   25.3976  -27.1776 H   0  0  0  0  0  0  0  0  0  0  0  0
   -3.9556   21.5438  -27.4343 H   0  0  0  0  0  0  0  0  0  0  0  0
   -2.2629   19.7818  -27.9404 H   0  0  0  0  0  0  0  0  0  0  0  0
   -0.4344   20.2350  -29.5778 H   0  0  0  0  0  0  0  0  0  0  0  0
   -0.2996   22.4532  -30.7176 H   0  0  0  0  0  0  0  0  0  0  0  0
   -1.9870   24.2220  -30.2155 H   0  0  0  0  0  0  0  0  0  0  0  0
   -7.7563   23.6925  -29.3022 H   0  0  0  0  0  0  0  0  0  0  0  0
   -9.0574   21.7940  -30.2547 H   0  0  0  0  0  0  0  0  0  0  0  0
   -9.2077   19.8822  -31.7731 H   0  0  0  0  0  0  0  0  0  0  0  0
   -8.1731   18.4147  -33.4968 H   0  0  0  0  0  0  0  0  0  0  0  0
   -5.7343   16.9131  -33.3269 H   0  0  0  0  0  0  0  0  0  0  0  0
   -6.6310   16.7881  -34.8784 H   0  0  0  0  0  0  0  0  0  0  0  0
   -4.8348   16.8109  -34.8784 H   0  0  0  0  0  0  0  0  0  0  0  0
   -4.5281   20.7452  -33.3210 H   0  0  0  0  0  0  0  0  0  0  0  0
   -4.3797   22.6569  -31.8057 H   0  0  0  0  0  0  0  0  0  0  0  0
  1  2  1  0
  2  3  1  0
  3  4  1  0
  4  5  2  0
  5  6  1  0
  6  7  2  0
  7  8  1  0
  8  9  2  0
  3 10  1  0
 10 11  2  0
 10 12  2  0
 10 13  1  0
 13 14  2  0
 14 15  1  0
 15 16  2  0
 16 17  1  0
 17 18  2  0
 18 19  1  0
 19 20  1  0
 20 21  1  0
 19 22  2  0
 22 23  1  0
 23 24  2  0
  9  4  1  0
 24 13  1  0
 23 16  1  0
  1 25  1  0
  1 26  1  0
  1 27  1  0
  2 28  1  0
  2 29  1  0
  5 30  1  0
  6 31  1  0
  7 32  1  0
  8 33  1  0
  9 34  1  0
 14 35  1  0
 15 36  1  0
 17 37  1  0
 18 38  1  0
 21 39  1  0
 21 40  1  0
 21 41  1  0
 22 42  1  0
 24 43  1  0
M  END
>  <UniqueID>  (18) 
18

>  <SMILES>  (18) 
CCN(c1ccccc1)S(=O)(=O)c1ccc2ccc(OC)cc2c1

>  <Energy>  (18) 
48.936194209210875

>  <Genealogy>  (18) 
CCN(c1ccccc1)S(=O)(=O)c1ccc2ccc(OC)cc2c1 (3D coordinates assigned)
CCN(c1ccccc1)S(=O)(=O)c1ccc2ccc(OC)cc2c1 (optimized conformer: 48.936194209210875 kcal/mol)

>  <smiles>  (18) 
CCN(c1ccccc1)S(=O)(=O)c1ccc2ccc(OC)cc2c1

>  <score_type>  (18) 
oracle

>  <origin>  (18) 
adg

>  <m_score__min__energy>  (18) 
-9.0500000000000007

>  <m_primary>  (18) 
energy

$$$$
18:0
     RDKit          3D

 44 48  0  0  0  0  0  0  0  0999 V2000
    1.7700   22.5370  -35.6370 C   0  0  0  0  0  0  0  0  0  0  0  0
    1.2250   22.0590  -34.4120 O   0  0  0  0  0  0  0  0  0  0  0  0
    0.1360   21.1800  -34.3190 C   0  0  0  0  0  0  0  0  0  0  0  0
   -1.0050   21.4690  -33.5500 C   0  0  0  0  0  0  0  0  0  0  0  0
   -2.0660   20.5600  -33.4910 C   0  0  0  0  0  0  0  0  0  0  0  0
   -2.0110   19.3560  -34.2100 C   0  0  0  0  0  0  0  0  0  0  0  0
   -3.1320   18.3950  -34.1200 C   0  0  0  0  0  0  0  0  0  0  0  0
   -2.9090   17.0770  -34.3970 N   0  0  0  0  0  0  0  0  0  0  0  0
   -3.9060   16.1440  -34.3400 C   0  0  0  0  0  0  0  0  0  0  0  0
   -3.6440   14.8030  -34.6370 C   0  0  0  0  0  0  0  0  0  0  0  0
   -4.6740   13.8590  -34.5720 C   0  0  0  0  0  0  0  0  0  0  0  0
   -5.9690   14.2510  -34.2110 C   0  0  0  0  0  0  0  0  0  0  0  0
   -6.9620   13.3290  -34.1500 F   0  0  0  0  0  0  0  0  0  0  0  0
   -6.2430   15.5910  -33.9110 C   0  0  0  0  0  0  0  0  0  0  0  0
   -5.2130   16.5420  -33.9760 C   0  0  0  0  0  0  0  0  0  0  0  0
   -5.4160   17.8560  -33.6890 N   0  0  0  0  0  0  0  0  0  0  0  0
   -6.5440   18.4160  -33.2870 N   0  0  0  0  0  0  0  0  0  0  0  0
   -6.2800   19.7260  -33.0720 C   0  0  0  0  0  0  0  0  0  0  0  0
   -7.2990   20.6960  -32.5990 C   0  0  0  0  0  0  0  0  0  0  0  0
   -8.6360   20.3070  -32.3850 C   0  0  0  0  0  0  0  0  0  0  0  0
   -9.5810   21.2370  -31.9390 C   0  0  0  0  0  0  0  0  0  0  0  0
   -9.2050   22.5610  -31.7020 C   0  0  0  0  0  0  0  0  0  0  0  0
   -7.8830   22.9580  -31.9090 C   0  0  0  0  0  0  0  0  0  0  0  0
   -6.9340   22.0340  -32.3550 C   0  0  0  0  0  0  0  0  0  0  0  0
   -4.9380   19.9910  -33.3460 C   0  0  0  0  0  0  0  0  0  0  0  0
   -4.4340   18.7690  -33.7450 C   0  0  0  0  0  0  0  0  0  0  0  0
   -0.8620   19.0600  -34.9610 C   0  0  0  0  0  0  0  0  0  0  0  0
    0.1980   19.9690  -35.0190 C   0  0  0  0  0  0  0  0  0  0  0  0
    2.5814   23.2486  -35.4244 H   0  0  0  0  0  0  0  0  0  0  0  0
    2.1671   21.6906  -36.2166 H   0  0  0  0  0  0  0  0  0  0  0  0
    0.9827   23.0411  -36.2166 H   0  0  0  0  0  0  0  0  0  0  0  0
   -1.0634   22.4151  -32.9919 H   0  0  0  0  0  0  0  0  0  0  0  0
   -2.9493   20.7901  -32.8772 H   0  0  0  0  0  0  0  0  0  0  0  0
   -2.6284   14.4906  -34.9216 H   0  0  0  0  0  0  0  0  0  0  0  0
   -4.4660   12.8044  -34.8054 H   0  0  0  0  0  0  0  0  0  0  0  0
   -7.2604   15.8967  -33.6258 H   0  0  0  0  0  0  0  0  0  0  0  0
   -8.9387   19.2657  -32.5697 H   0  0  0  0  0  0  0  0  0  0  0  0
  -10.6228   20.9247  -31.7745 H   0  0  0  0  0  0  0  0  0  0  0  0
   -9.9503   23.2906  -31.3524 H   0  0  0  0  0  0  0  0  0  0  0  0
   -7.5873   24.0006  -31.7207 H   0  0  0  0  0  0  0  0  0  0  0  0
   -5.8942   22.3543  -32.5166 H   0  0  0  0  0  0  0  0  0  0  0  0
   -4.4055   20.9500  -33.2634 H   0  0  0  0  0  0  0  0  0  0  0  0
   -0.7958   18.1072  -35.5068 H   0  0  0  0  0  0  0  0  0  0  0  0
    1.0884   19.7311  -35.6196 H   0  0  0  0  0  0  0  0  0  0  0  0
  1  2  1  0
  2  3  1  0
  3  4  2  0
  4  5  1  0
  5  6  2  0
  6  7  1  0
  7  8  2  0
  8  9  1  0
  9 10  2  0
 10 11  1  0
 11 12  2  0
 12 13  1  0
 12 14  1  0
 14 15  2  0
 15 16  1  0
 16 17  1  0
 17 18  2  0
 18 19  1  0
 19 20  2  0
 20 21  1  0
 21 22  2  0
 22 23  1  0
 23 24  2  0
 18 25  1  0
 25 26  2  0
  6 27  1  0
 27 28  2  0
 28  3  1  0
 26  7  1  0
 15  9  1  0
 26 16  1  0
 24 19  1  0
  1 29  1  0
  1 30  1  0
  1 31  1  0
  4 32  1  0
  5 33  1  0
 10 34  1  0
 11 35  1  0
 14 36  1  0
 20 37  1  0
 21 38  1  0
 22 39  1  0
 23 40  1  0
 24 41  1  0
 25 42  1  0
 27 43  1  0
 28 44  1  0
M  END
>  <UniqueID>  (19) 
19

>  <SMILES>  (19) 
COc1ccc(-c2nc3ccc(F)cc3n3nc(-c4ccccc4)cc23)cc1

>  <Energy>  (19) 
96.57650487614998

>  <Genealogy>  (19) 
COc1ccc(-c2nc3ccc(F)cc3n3nc(-c4ccccc4)cc23)cc1 (3D coordinates assigned)
COc1ccc(-c2nc3ccc(F)cc3n3nc(-c4ccccc4)cc23)cc1 (optimized conformer: 96.57650487614998 kcal/mol)

>  <smiles>  (19) 
COc1ccc(-c2nc3ccc(F)cc3n3nc(-c4ccccc4)cc23)cc1

>  <score_type>  (19) 
oracle

>  <origin>  (19) 
adg

>  <m_score__min__energy>  (19) 
-8.4399999999999995

>  <m_primary>  (19) 
energy

$$$$
19:0
     RDKit          3D

 46 48  0  0  0  0  0  0  0  0999 V2000
   -3.4180   13.3080  -31.5950 C   0  0  0  0  0  0  0  0  0  0  0  0
   -2.5020   13.9150  -32.6650 C   0  0  0  0  0  0  0  0  0  0  0  0
   -3.2290   14.7560  -33.6540 N   0  0  0  0  0  0  0  0  0  0  0  0
   -2.3460   15.7170  -34.3740 C   0  0  0  0  0  0  0  0  0  0  0  0
   -2.4380   17.1720  -33.8870 C   0  0  0  0  0  0  0  0  0  0  0  0
   -4.3880   15.4050  -32.9850 C   0  0  0  0  0  0  0  0  0  0  0  0
   -5.7410   15.0450  -33.6270 C   0  0  0  0  0  0  0  0  0  0  0  0
   -6.3580   16.2330  -34.2210 N   0  0  0  0  0  0  0  0  0  0  0  0
   -6.4890   17.5060  -33.5570 C   0  0  0  0  0  0  0  0  0  0  0  0
   -7.6080   17.7300  -32.7200 C   0  0  0  0  0  0  0  0  0  0  0  0
   -7.7770   18.9530  -32.0540 C   0  0  0  0  0  0  0  0  0  0  0  0
   -6.8160   19.9430  -32.2410 C   0  0  0  0  0  0  0  0  0  0  0  0
   -5.7220   19.7480  -33.0600 C   0  0  0  0  0  0  0  0  0  0  0  0
   -5.5370   18.5390  -33.7320 C   0  0  0  0  0  0  0  0  0  0  0  0
   -4.8390   20.9620  -33.1000 C   0  0  0  0  0  0  0  0  0  0  0  0
   -5.5930   21.8800  -32.1830 C   0  0  0  0  0  0  0  0  0  0  0  0
   -5.2580   23.1840  -31.8160 C   0  0  0  0  0  0  0  0  0  0  0  0
   -6.1090   23.8760  -30.9360 C   0  0  0  0  0  0  0  0  0  0  0  0
   -5.6840   25.6620  -30.4120 Br  0  0  0  0  0  0  0  0  0  0  0  0
   -7.2740   23.2560  -30.4380 C   0  0  0  0  0  0  0  0  0  0  0  0
   -7.5970   21.9440  -30.8160 C   0  0  0  0  0  0  0  0  0  0  0  0
   -6.7360   21.2790  -31.6910 C   0  0  0  0  0  0  0  0  0  0  0  0
   -3.0339   13.5625  -30.5962 H   0  0  0  0  0  0  0  0  0  0  0  0
   -4.4347   13.7117  -31.7107 H   0  0  0  0  0  0  0  0  0  0  0  0
   -3.4424   12.2144  -31.7107 H   0  0  0  0  0  0  0  0  0  0  0  0
   -1.7464   14.5387  -32.1648 H   0  0  0  0  0  0  0  0  0  0  0  0
   -2.0492   13.0792  -33.2185 H   0  0  0  0  0  0  0  0  0  0  0  0
   -3.6200   14.1050  -34.3740 H   0  0  0  0  0  0  0  0  0  0  0  0
   -1.3055   15.3814  -34.2527 H   0  0  0  0  0  0  0  0  0  0  0  0
   -2.6838   15.7207  -35.4209 H   0  0  0  0  0  0  0  0  0  0  0  0
   -2.4392   17.1912  -32.7872 H   0  0  0  0  0  0  0  0  0  0  0  0
   -1.5740   17.7397  -34.2627 H   0  0  0  0  0  0  0  0  0  0  0  0
   -3.3667   17.6264  -34.2627 H   0  0  0  0  0  0  0  0  0  0  0  0
   -4.4058   15.0880  -31.9318 H   0  0  0  0  0  0  0  0  0  0  0  0
   -4.2571   16.4923  -33.0881 H   0  0  0  0  0  0  0  0  0  0  0  0
   -5.5805   14.2900  -34.4107 H   0  0  0  0  0  0  0  0  0  0  0  0
   -6.4097   14.6474  -32.8493 H   0  0  0  0  0  0  0  0  0  0  0  0
   -6.7380   16.1370  -35.1910 H   0  0  0  0  0  0  0  0  0  0  0  0
   -8.3558   16.9338  -32.5898 H   0  0  0  0  0  0  0  0  0  0  0  0
   -8.6456   19.1253  -31.4014 H   0  0  0  0  0  0  0  0  0  0  0  0
   -4.6657   18.3911  -34.3870 H   0  0  0  0  0  0  0  0  0  0  0  0
   -3.8311   20.7437  -32.7171 H   0  0  0  0  0  0  0  0  0  0  0  0
   -4.6609   21.3659  -34.1076 H   0  0  0  0  0  0  0  0  0  0  0  0
   -4.3471   23.6607  -32.2070 H   0  0  0  0  0  0  0  0  0  0  0  0
   -7.9333   23.8044  -29.7491 H   0  0  0  0  0  0  0  0  0  0  0  0
   -8.5038   21.4528  -30.4334 H   0  0  0  0  0  0  0  0  0  0  0  0
  1  2  1  0
  2  3  1  0
  3  4  1  0
  4  5  1  0
  3  6  1  0
  6  7  1  0
  7  8  1  0
  8  9  1  0
  9 10  2  0
 10 11  1  0
 11 12  2  0
 12 13  1  0
 13 14  2  0
 13 15  1  0
 15 16  1  0
 16 17  2  0
 17 18  1  0
 18 19  1  0
 18 20  2  0
 20 21  1  0
 21 22  2  0
 14  9  1  0
 22 16  1  0
 22 12  1  0
  1 23  1  0
  1 24  1  0
  1 25  1  0
  2 26  1  0
  2 27  1  0
  3 28  1  0
  4 29  1  0
  4 30  1  0
  5 31  1  0
  5 32  1  0
  5 33  1  0
  6 34  1  0
  6 35  1  0
  7 36  1  0
  7 37  1  0
  8 38  1  0
 10 39  1  0
 11 40  1  0
 14 41  1  0
 15 42  1  0
 15 43  1  0
 17 44  1  0
 20 45  1  0
 21 46  1  0
M  CHG  1   3   1
M  END
>  <UniqueID>  (20) 
20

>  <SMILES>  (20) 
CC[NH+](CC)CCNc1ccc2c(c1)Cc1cc(Br)ccc1-2

>  <Energy>  (20) 
71.07839066250072

>  <Genealogy>  (20) 
CC[NH+](CC)CCNc1ccc2c(c1)Cc1cc(Br)ccc1-2 (protonated)
CC[NH+](CC)CCNc1ccc2c(c1)Cc1cc(Br)ccc1-2 (3D coordinates assigned)
CC[NH+](CC)CCNc1ccc2c(c1)Cc1cc(Br)ccc1-2 (nonaromatic ring conformer: 71.07839066250072 kcal/mol)

>  <smiles>  (20) 
CCN(CC)CCNc1ccc2c(c1)Cc1cc(Br)ccc1-2

>  <score_type>  (20) 
oracle

>  <origin>  (20) 
adg

>  <m_score__min__energy>  (20) 
-7.2800000000000002

>  <m_primary>  (20) 
energy

$$$$
20:0
     RDKit          3D

 35 36  0  0  0  0  0  0  0  0999 V2000
   -6.5870   25.0170  -29.7290 C   0  0  0  0  0  0  0  0  0  0  0  0
   -5.4220   25.6590  -30.4740 C   0  0  0  0  0  0  0  0  0  0  0  0
   -4.6120   24.6440  -31.1390 N   0  0  0  0  0  0  0  0  0  0  0  0
   -4.9660   23.2630  -31.2810 C   0  0  0  0  0  0  0  0  0  0  0  0
   -4.4540   22.4220  -30.4930 O   0  0  0  0  0  0  0  0  0  0  0  0
   -5.8780   22.8240  -32.3000 N   0  0  0  0  0  0  0  0  0  0  0  0
   -6.2940   21.4570  -32.3970 C   0  0  0  0  0  0  0  0  0  0  0  0
   -5.5290   20.5720  -33.1690 C   0  0  0  0  0  0  0  0  0  0  0  0
   -5.9030   19.2320  -33.2800 C   0  0  0  0  0  0  0  0  0  0  0  0
   -7.0700   18.7750  -32.6600 C   0  0  0  0  0  0  0  0  0  0  0  0
   -7.8430   19.6470  -31.8920 C   0  0  0  0  0  0  0  0  0  0  0  0
   -7.4670   20.9950  -31.7490 C   0  0  0  0  0  0  0  0  0  0  0  0
   -8.3860   21.9350  -31.0050 C   0  0  0  0  0  0  0  0  0  0  0  0
   -9.0830   22.8840  -31.9740 C   0  0  0  0  0  0  0  0  0  0  0  0
   -7.4510   17.4390  -32.8280 O   0  0  0  0  0  0  0  0  0  0  0  0
   -6.8390   16.6150  -33.8220 C   0  0  0  0  0  0  0  0  0  0  0  0
   -5.3380   16.9200  -33.9130 C   0  0  0  0  0  0  0  0  0  0  0  0
   -5.1230   18.3300  -34.0120 O   0  0  0  0  0  0  0  0  0  0  0  0
   -6.4233   25.1072  -28.6450 H   0  0  0  0  0  0  0  0  0  0  0  0
   -7.5226   25.5269  -30.0022 H   0  0  0  0  0  0  0  0  0  0  0  0
   -6.6556   23.9537  -30.0022 H   0  0  0  0  0  0  0  0  0  0  0  0
   -5.8161   26.3569  -31.2274 H   0  0  0  0  0  0  0  0  0  0  0  0
   -4.7916   26.1951  -29.7493 H   0  0  0  0  0  0  0  0  0  0  0  0
   -6.0880   23.4490  -33.1090 H   0  0  0  0  0  0  0  0  0  0  0  0
   -4.6304   20.9350  -33.6894 H   0  0  0  0  0  0  0  0  0  0  0  0
   -8.7523   19.2778  -31.3952 H   0  0  0  0  0  0  0  0  0  0  0  0
   -9.1441   21.3479  -30.4659 H   0  0  0  0  0  0  0  0  0  0  0  0
   -7.7887   22.5277  -30.2965 H   0  0  0  0  0  0  0  0  0  0  0  0
   -9.6407   23.6433  -31.4062 H   0  0  0  0  0  0  0  0  0  0  0  0
   -8.3317   23.3783  -32.6074 H   0  0  0  0  0  0  0  0  0  0  0  0
   -9.7794   22.3150  -32.6074 H   0  0  0  0  0  0  0  0  0  0  0  0
   -6.9792   15.5574  -33.5538 H   0  0  0  0  0  0  0  0  0  0  0  0
   -7.3066   16.8208  -34.7962 H   0  0  0  0  0  0  0  0  0  0  0  0
   -4.8350   16.5387  -33.0121 H   0  0  0  0  0  0  0  0  0  0  0  0
   -4.9275   16.4318  -34.8092 H   0  0  0  0  0  0  0  0  0  0  0  0
  1  2  1  0
  2  3  1  0
  3  4  1  0
  4  5  2  0
  4  6  1  0
  6  7  1  0
  7  8  2  0
  8  9  1  0
  9 10  2  0
 10 11  1  0
 11 12  2  0
 12 13  1  0
 13 14  1  0
 10 15  1  0
 15 16  1  0
 16 17  1  0
 17 18  1  0
 12  7  1  0
 18  9  1  0
  1 19  1  0
  1 20  1  0
  1 21  1  0
  2 22  1  0
  2 23  1  0
  6 24  1  0
  8 25  1  0
 11 26  1  0
 13 27  1  0
 13 28  1  0
 14 29  1  0
 14 30  1  0
 14 31  1  0
 16 32  1  0
 16 33  1  0
 17 34  1  0
 17 35  1  0
M  CHG  1   3  -1
M  END
>  <UniqueID>  (21) 
21

>  <SMILES>  (21) 
CC[N-]C(=O)Nc1cc2c(cc1CC)OCCO2

>  <Energy>  (21) 
34.24132142405556

>  <Genealogy>  (21) 
CC[N-]C(=O)Nc1cc2c(cc1CC)OCCO2 (protonated)
CC[N-]C(=O)Nc1cc2c(cc1CC)OCCO2 (3D coordinates assigned)
CC[N-]C(=O)Nc1cc2c(cc1CC)OCCO2 (nonaromatic ring conformer: 34.24132142405556 kcal/mol)

>  <smiles>  (21) 
CCNC(=O)Nc1cc2c(cc1CC)OCCO2

>  <score_type>  (21) 
oracle

>  <origin>  (21) 
adg

>  <m_score__min__energy>  (21) 
-7.4400000000000004

>  <m_primary>  (21) 
energy

$$$$
21:0
     RDKit          3D

 60 62  0  0  0  0  0  0  0  0999 V2000
   -0.0007   23.1583  -27.9739 H   0  0  0  0  0  0  0  0  0  0  0  0
   -0.7480   22.6130  -28.5690 C   0  0  0  0  0  0  0  0  0  0  0  0
   -1.1800   23.1930  -29.6990 C   0  0  0  0  0  0  0  0  0  0  0  0
   -0.4226   23.5197  -30.4268 H   0  0  0  0  0  0  0  0  0  0  0  0
   -2.6020   23.4250  -30.0370 C   0  0  0  0  0  0  0  0  0  0  0  0
   -3.2460   24.5850  -29.7430 N   0  0  0  0  0  0  0  0  0  0  0  0
   -4.5100   24.3440  -30.1320 C   0  0  0  0  0  0  0  0  0  0  0  0
   -5.5980   25.2060  -30.0330 C   0  0  0  0  0  0  0  0  0  0  0  0
   -5.4827   26.2230  -29.6299 H   0  0  0  0  0  0  0  0  0  0  0  0
   -6.8480   24.7340  -30.4650 C   0  0  0  0  0  0  0  0  0  0  0  0
   -7.7286   25.3907  -30.4073 H   0  0  0  0  0  0  0  0  0  0  0  0
   -6.9840   23.4230  -30.9730 C   0  0  0  0  0  0  0  0  0  0  0  0
   -7.9697   23.0668  -31.3069 H   0  0  0  0  0  0  0  0  0  0  0  0
   -5.8610   22.5630  -31.0560 C   0  0  0  0  0  0  0  0  0  0  0  0
   -5.9440   21.2480  -31.5380 O   0  0  0  0  0  0  0  0  0  0  0  0
   -6.0070   20.8720  -32.9120 C   0  0  0  0  0  0  0  0  0  0  0  0
   -4.9881   20.8691  -33.3265 H   0  0  0  0  0  0  0  0  0  0  0  0
   -6.6468   21.5986  -33.4342 H   0  0  0  0  0  0  0  0  0  0  0  0
   -6.6260   19.4690  -33.1000 C   0  0  0  0  0  0  0  0  0  0  0  0
   -5.8779   18.8231  -33.5828 H   0  0  0  0  0  0  0  0  0  0  0  0
   -7.5310   19.6005  -33.7113 H   0  0  0  0  0  0  0  0  0  0  0  0
   -7.0550   18.8200  -31.8310 N   0  0  0  0  0  0  0  0  0  0  0  0
   -6.7100   19.4150  -31.0430 H   0  0  0  0  0  0  0  0  0  0  0  0
   -6.4180   17.4860  -31.6510 C   0  0  0  0  0  0  0  0  0  0  0  0
   -7.2028   16.7553  -31.4059 H   0  0  0  0  0  0  0  0  0  0  0  0
   -5.6766   17.5868  -30.8447 H   0  0  0  0  0  0  0  0  0  0  0  0
   -5.6640   16.9920  -32.9030 C   0  0  0  0  0  0  0  0  0  0  0  0
   -4.8573   16.3127  -32.5904 H   0  0  0  0  0  0  0  0  0  0  0  0
   -5.2547   17.8671  -33.4290 H   0  0  0  0  0  0  0  0  0  0  0  0
   -6.5970   16.2500  -33.8570 C   0  0  0  0  0  0  0  0  0  0  0  0
   -7.3282   15.6685  -33.2764 H   0  0  0  0  0  0  0  0  0  0  0  0
   -7.1265   16.9764  -34.4910 H   0  0  0  0  0  0  0  0  0  0  0  0
   -6.0084   15.5705  -34.4910 H   0  0  0  0  0  0  0  0  0  0  0  0
   -8.5420   18.8270  -31.6890 C   0  0  0  0  0  0  0  0  0  0  0  0
   -8.9024   17.8157  -31.9284 H   0  0  0  0  0  0  0  0  0  0  0  0
   -8.7274   19.1546  -30.6554 H   0  0  0  0  0  0  0  0  0  0  0  0
   -9.3320   19.8260  -32.5740 C   0  0  0  0  0  0  0  0  0  0  0  0
   -8.7982   19.9319  -33.5300 H   0  0  0  0  0  0  0  0  0  0  0  0
  -10.3434   19.4078  -32.6845 H   0  0  0  0  0  0  0  0  0  0  0  0
   -9.5070   21.2170  -31.9720 C   0  0  0  0  0  0  0  0  0  0  0  0
   -9.4980   21.1453  -30.8744 H   0  0  0  0  0  0  0  0  0  0  0  0
   -8.6835   21.8664  -32.3038 H   0  0  0  0  0  0  0  0  0  0  0  0
  -10.4657   21.6422  -32.3038 H   0  0  0  0  0  0  0  0  0  0  0  0
   -4.6290   23.0780  -30.6290 C   0  0  0  0  0  0  0  0  0  0  0  0
   -3.4220   22.4800  -30.5780 N   0  0  0  0  0  0  0  0  0  0  0  0
   -3.0840   21.1130  -30.9800 C   0  0  0  0  0  0  0  0  0  0  0  0
   -2.9310   20.4944  -30.0834 H   0  0  0  0  0  0  0  0  0  0  0  0
   -3.9054   20.6933  -31.5793 H   0  0  0  0  0  0  0  0  0  0  0  0
   -2.1616   21.1245  -31.5793 H   0  0  0  0  0  0  0  0  0  0  0  0
   -1.1960   21.3000  -28.0600 C   0  0  0  0  0  0  0  0  0  0  0  0
   -0.2740   20.2440  -27.9820 C   0  0  0  0  0  0  0  0  0  0  0  0
    0.7602   20.3933  -28.3258 H   0  0  0  0  0  0  0  0  0  0  0  0
   -0.6650   19.0030  -27.4690 C   0  0  0  0  0  0  0  0  0  0  0  0
    0.0579   18.1752  -27.4235 H   0  0  0  0  0  0  0  0  0  0  0  0
   -1.9730   18.8130  -27.0140 C   0  0  0  0  0  0  0  0  0  0  0  0
   -2.2805   17.8337  -26.6186 H   0  0  0  0  0  0  0  0  0  0  0  0
   -2.8900   19.8660  -27.0610 C   0  0  0  0  0  0  0  0  0  0  0  0
   -3.9175   19.7169  -26.6976 H   0  0  0  0  0  0  0  0  0  0  0  0
   -2.5020   21.1100  -27.5700 C   0  0  0  0  0  0  0  0  0  0  0  0
   -3.2202   21.9430  -27.5874 H   0  0  0  0  0  0  0  0  0  0  0  0
  1  2  1  0
  2  3  2  0
  3  4  1  0
  3  5  1  0
  5  6  2  0
  6  7  1  0
  7  8  2  0
  8  9  1  0
  8 10  1  0
 10 11  1  0
 10 12  2  0
 12 13  1  0
 12 14  1  0
 14 15  1  0
 15 16  1  0
 16 17  1  0
 16 18  1  0
 16 19  1  0
 19 20  1  0
 19 21  1  0
 19 22  1  0
 22 23  1  0
 22 24  1  0
 24 25  1  0
 24 26  1  0
 24 27  1  0
 27 28  1  0
 27 29  1  0
 27 30  1  0
 30 31  1  0
 30 32  1  0
 30 33  1  0
 22 34  1  0
 34 35  1  0
 34 36  1  0
 34 37  1  0
 37 38  1  0
 37 39  1  0
 37 40  1  0
 40 41  1  0
 40 42  1  0
 40 43  1  0
 14 44  2  0
 44 45  1  0
 45 46  1  0
 46 47  1  0
 46 48  1  0
 46 49  1  0
  2 50  1  0
 50 51  2  0
 51 52  1  0
 51 53  1  0
 53 54  1  0
 53 55  2  0
 55 56  1  0
 55 57  1  0
 57 58  1  0
 57 59  2  0
 59 60  1  0
 45  5  1  0
 59 50  1  0
 44  7  1  0
M  CHG  1  22   1
M  END
>  <UniqueID>  (22) 
22

>  <SMILES>  (22) 
CCC[NH+](CCC)CCOc1cccc2nc(/C=C\c3ccccc3)n(C)c12

>  <Energy>  (22) 
109.9976248424197

>  <Genealogy>  (22) 
CCC[NH+](CCC)CCOc1cccc2nc(C=Cc3ccccc3)n(C)c12 (protonated)
CCC[NH+](CCC)CCOc1cccc2nc(/C=C\c3ccccc3)n(C)c12 (cis-trans isomerization)
CCC[NH+](CCC)CCOc1cccc2nc(/C=C\c3ccccc3)n(C)c12 (3D coordinates assigned)
CCC[NH+](CCC)CCOc1cccc2nc(/C=C\c3ccccc3)n(C)c12 (optimized conformer: 109.9976248424197 kcal/mol)

>  <smiles>  (22) 
CCCN(CCC)CCOc1cccc2nc(C=Cc3ccccc3)n(C)c12

>  <score_type>  (22) 
oracle

>  <origin>  (22) 
adg

>  <m_score__min__energy>  (22) 
-7.5

>  <m_primary>  (22) 
energy

$$$$
22:0
     RDKit          3D

 33 36  0  0  0  0  0  0  0  0999 V2000
    0.3680   26.8610  -23.6980 C   0  0  0  0  0  0  0  0  0  0  0  0
    0.3900   26.8730  -25.1210 O   0  0  0  0  0  0  0  0  0  0  0  0
   -0.5520   26.2250  -25.9340 C   0  0  0  0  0  0  0  0  0  0  0  0
   -0.3010   25.9210  -27.2850 C   0  0  0  0  0  0  0  0  0  0  0  0
   -1.2730   25.2740  -28.0540 C   0  0  0  0  0  0  0  0  0  0  0  0
   -2.5110   24.9170  -27.4920 C   0  0  0  0  0  0  0  0  0  0  0  0
   -3.5420   24.2290  -28.3110 C   0  0  0  0  0  0  0  0  0  0  0  0
   -3.3970   22.9810  -28.9450 C   0  0  0  0  0  0  0  0  0  0  0  0
   -4.5620   22.7650  -29.5610 N   0  0  0  0  0  0  0  0  0  0  0  0
   -5.0420   21.7930  -30.3190 N   0  0  0  0  0  0  0  0  0  0  0  0
   -6.3150   22.1040  -30.6990 C   0  0  0  0  0  0  0  0  0  0  0  0
   -7.1280   21.2260  -31.5480 C   0  0  0  0  0  0  0  0  0  0  0  0
   -6.6530   20.2430  -32.4090 C   0  0  0  0  0  0  0  0  0  0  0  0
   -7.6720   19.5660  -33.0880 C   0  0  0  0  0  0  0  0  0  0  0  0
   -8.9490   20.0100  -32.7660 C   0  0  0  0  0  0  0  0  0  0  0  0
   -8.8080   21.2460  -31.6350 S   0  0  0  0  0  0  0  0  0  0  0  0
   -6.8400   23.6270  -30.0740 S   0  0  0  0  0  0  0  0  0  0  0  0
   -5.3490   23.7860  -29.3300 C   0  0  0  0  0  0  0  0  0  0  0  0
   -4.7890   24.7320  -28.5640 N   0  0  0  0  0  0  0  0  0  0  0  0
   -2.7550   25.2260  -26.1420 C   0  0  0  0  0  0  0  0  0  0  0  0
   -1.7840   25.8720  -25.3750 C   0  0  0  0  0  0  0  0  0  0  0  0
    1.2727   27.3544  -23.3131 H   0  0  0  0  0  0  0  0  0  0  0  0
   -0.5229   27.3981  -23.3405 H   0  0  0  0  0  0  0  0  0  0  0  0
    0.3372   25.8212  -23.3405 H   0  0  0  0  0  0  0  0  0  0  0  0
    0.6638   26.1935  -27.7377 H   0  0  0  0  0  0  0  0  0  0  0  0
   -1.0669   25.0420  -29.1093 H   0  0  0  0  0  0  0  0  0  0  0  0
   -2.5142   22.3248  -28.9353 H   0  0  0  0  0  0  0  0  0  0  0  0
   -5.5842   20.0201  -32.5428 H   0  0  0  0  0  0  0  0  0  0  0  0
   -7.4803   18.7579  -33.8093 H   0  0  0  0  0  0  0  0  0  0  0  0
   -9.8904   19.6197  -33.1800 H   0  0  0  0  0  0  0  0  0  0  0  0
   -5.2130   25.6380  -28.2650 H   0  0  0  0  0  0  0  0  0  0  0  0
   -3.7193   24.9563  -25.6865 H   0  0  0  0  0  0  0  0  0  0  0  0
   -1.9902   26.1057  -24.3201 H   0  0  0  0  0  0  0  0  0  0  0  0
  1  2  1  0
  2  3  1  0
  3  4  2  0
  4  5  1  0
  5  6  2  0
  6  7  1  0
  7  8  2  0
  8  9  1  0
  9 10  1  0
 10 11  2  0
 11 12  1  0
 12 13  2  0
 13 14  1  0
 14 15  2  0
 15 16  1  0
 11 17  1  0
 17 18  1  0
 18 19  2  0
  6 20  1  0
 20 21  2  0
 21  3  1  0
 19  7  1  0
 18  9  1  0
 16 12  1  0
  1 22  1  0
  1 23  1  0
  1 24  1  0
  4 25  1  0
  5 26  1  0
  8 27  1  0
 13 28  1  0
 14 29  1  0
 15 30  1  0
 19 31  1  0
 20 32  1  0
 21 33  1  0
M  CHG  1  19   1
M  END
>  <UniqueID>  (23) 
23

>  <SMILES>  (23) 
COc1ccc(-c2cn3nc(-c4cccs4)sc3[nH+]2)cc1

>  <Energy>  (23) 
150.0669743227181

>  <Genealogy>  (23) 
COc1ccc(-c2cn3nc(-c4cccs4)sc3[nH+]2)cc1 (protonated)
COc1ccc(-c2cn3nc(-c4cccs4)sc3[nH+]2)cc1 (3D coordinates assigned)
COc1ccc(-c2cn3nc(-c4cccs4)sc3[nH+]2)cc1 (optimized conformer: 150.0669743227181 kcal/mol)

>  <smiles>  (23) 
COc1ccc(-c2cn3nc(-c4cccs4)sc3n2)cc1

>  <score_type>  (23) 
oracle

>  <origin>  (23) 
adg

>  <m_score__min__energy>  (23) 
-6.3099999999999996

>  <m_primary>  (23) 
energy

$$$$
23:0
     RDKit          3D

 42 44  0  0  0  0  0  0  0  0999 V2000
   -6.1660   17.3650  -34.2110 C   0  0  0  0  0  0  0  0  0  0  0  0
   -5.7860   18.6650  -34.5510 C   0  0  0  0  0  0  0  0  0  0  0  0
   -6.0950   19.7320  -33.7000 C   0  0  0  0  0  0  0  0  0  0  0  0
   -6.7900   19.5030  -32.5010 C   0  0  0  0  0  0  0  0  0  0  0  0
   -7.1040   20.6520  -31.5760 C   0  0  0  0  0  0  0  0  0  0  0  0
   -7.2720   21.9850  -32.3360 C   0  0  0  0  0  0  0  0  0  0  0  0
   -6.0460   22.8270  -32.3450 N   0  0  0  0  0  0  0  0  0  0  0  0
   -4.8730   22.0760  -31.8140 C   0  0  0  0  0  0  0  0  0  0  0  0
   -3.7940   22.9890  -31.2160 C   0  0  0  0  0  0  0  0  0  0  0  0
   -4.3690   23.8210  -30.1510 N   0  0  0  0  0  0  0  0  0  0  0  0
   -3.5620   24.3140  -29.0610 C   0  0  0  0  0  0  0  0  0  0  0  0
   -3.9820   24.1890  -27.7240 C   0  0  0  0  0  0  0  0  0  0  0  0
   -3.1690   24.6770  -26.6990 C   0  0  0  0  0  0  0  0  0  0  0  0
   -1.9480   25.2780  -27.0050 C   0  0  0  0  0  0  0  0  0  0  0  0
   -1.5550   25.3810  -28.3390 C   0  0  0  0  0  0  0  0  0  0  0  0
   -2.3590   24.9020  -29.3240 N   0  0  0  0  0  0  0  0  0  0  0  0
   -5.8070   24.1130  -30.1860 C   0  0  0  0  0  0  0  0  0  0  0  0
   -6.2980   24.1170  -31.6390 C   0  0  0  0  0  0  0  0  0  0  0  0
   -7.1700   18.1920  -32.1660 C   0  0  0  0  0  0  0  0  0  0  0  0
   -6.8580   17.1280  -33.0190 C   0  0  0  0  0  0  0  0  0  0  0  0
   -5.9211   16.5274  -34.8807 H   0  0  0  0  0  0  0  0  0  0  0  0
   -5.2428   18.8506  -35.4894 H   0  0  0  0  0  0  0  0  0  0  0  0
   -5.7924   20.7542  -33.9711 H   0  0  0  0  0  0  0  0  0  0  0  0
   -8.0386   20.4298  -31.0401 H   0  0  0  0  0  0  0  0  0  0  0  0
   -6.2597   20.7649  -30.8800 H   0  0  0  0  0  0  0  0  0  0  0  0
   -7.5457   21.7590  -33.3772 H   0  0  0  0  0  0  0  0  0  0  0  0
   -8.0513   22.5577  -31.8119 H   0  0  0  0  0  0  0  0  0  0  0  0
   -5.8370   23.0740  -33.3410 H   0  0  0  0  0  0  0  0  0  0  0  0
   -5.2233   21.3882  -31.0303 H   0  0  0  0  0  0  0  0  0  0  0  0
   -4.4171   21.5395  -32.6592 H   0  0  0  0  0  0  0  0  0  0  0  0
   -2.9855   22.3711  -30.7983 H   0  0  0  0  0  0  0  0  0  0  0  0
   -3.3963   23.6417  -32.0071 H   0  0  0  0  0  0  0  0  0  0  0  0
   -4.9438   23.7103  -27.4879 H   0  0  0  0  0  0  0  0  0  0  0  0
   -3.4912   24.5876  -25.6510 H   0  0  0  0  0  0  0  0  0  0  0  0
   -1.3026   25.6662  -26.2033 H   0  0  0  0  0  0  0  0  0  0  0  0
   -0.5934   25.8504  -28.5940 H   0  0  0  0  0  0  0  0  0  0  0  0
   -6.3504   23.3432  -29.6184 H   0  0  0  0  0  0  0  0  0  0  0  0
   -5.9894   25.1004  -29.7369 H   0  0  0  0  0  0  0  0  0  0  0  0
   -7.3805   24.3123  -31.6423 H   0  0  0  0  0  0  0  0  0  0  0  0
   -5.7371   24.8983  -32.1728 H   0  0  0  0  0  0  0  0  0  0  0  0
   -7.7148   18.0018  -31.2295 H   0  0  0  0  0  0  0  0  0  0  0  0
   -7.1573   16.1038  -32.7519 H   0  0  0  0  0  0  0  0  0  0  0  0
  1  2  2  0
  2  3  1  0
  3  4  2  0
  4  5  1  0
  5  6  1  0
  6  7  1  0
  7  8  1  0
  8  9  1  0
  9 10  1  0
 10 11  1  0
 11 12  2  0
 12 13  1  0
 13 14  2  0
 14 15  1  0
 15 16  2  0
 10 17  1  0
 17 18  1  0
  4 19  1  0
 19 20  2  0
 20  1  1  0
 18  7  1  0
 16 11  1  0
  1 21  1  0
  2 22  1  0
  3 23  1  0
  5 24  1  0
  5 25  1  0
  6 26  1  0
  6 27  1  0
  7 28  1  0
  8 29  1  0
  8 30  1  0
  9 31  1  0
  9 32  1  0
 12 33  1  0
 13 34  1  0
 14 35  1  0
 15 36  1  0
 17 37  1  0
 17 38  1  0
 18 39  1  0
 18 40  1  0
 19 41  1  0
 20 42  1  0
M  CHG  1   7   1
M  END
>  <UniqueID>  (24) 
24

>  <SMILES>  (24) 
c1ccc(CC[NH+]2CCN(c3ccccn3)CC2)cc1

>  <Energy>  (24) 
53.07167178617397

>  <Genealogy>  (24) 
c1ccc(CC[NH+]2CCN(c3ccccn3)CC2)cc1 (protonated)
c1ccc(CC[NH+]2CCN(c3ccccn3)CC2)cc1 (3D coordinates assigned)
c1ccc(CC[NH+]2CCN(c3ccccn3)CC2)cc1 (nonaromatic ring conformer: 53.07167178617397 kcal/mol)

>  <smiles>  (24) 
c1ccc(CCN2CCN(c3ccccn3)CC2)cc1

>  <score_type>  (24) 
oracle

>  <origin>  (24) 
adg

>  <m_score__min__energy>  (24) 
-6.9900000000000002

>  <m_primary>  (24) 
energy

$$$$
24:0
     RDKit          3D

 41 43  0  0  0  0  0  0  0  0999 V2000
   -4.3270   17.3730  -35.1430 C   0  0  0  0  0  0  0  0  0  0  0  0
   -4.7600   18.5110  -34.2560 C   0  0  0  0  0  0  0  0  0  0  0  0
   -6.1010   18.9260  -34.2720 C   0  0  0  0  0  0  0  0  0  0  0  0
   -6.5290   19.9800  -33.4630 C   0  0  0  0  0  0  0  0  0  0  0  0
   -5.6260   20.6410  -32.6220 C   0  0  0  0  0  0  0  0  0  0  0  0
   -6.0700   21.7340  -31.7930 N   0  0  0  0  0  0  0  0  0  0  0  0
   -7.2910   21.6380  -31.1880 C   0  0  0  0  0  0  0  0  0  0  0  0
   -7.7700   22.6710  -30.3890 C   0  0  0  0  0  0  0  0  0  0  0  0
   -6.9950   23.8110  -30.2030 C   0  0  0  0  0  0  0  0  0  0  0  0
   -5.7350   23.9230  -30.8110 C   0  0  0  0  0  0  0  0  0  0  0  0
   -4.9260   25.1560  -30.5920 C   0  0  0  0  0  0  0  0  0  0  0  0
   -5.5080   26.2700  -30.4810 O   0  0  0  0  0  0  0  0  0  0  0  0
   -3.5000   25.0840  -30.4540 N   0  0  0  0  0  0  0  0  0  0  0  0
   -2.7710   24.3380  -29.4680 C   0  0  0  0  0  0  0  0  0  0  0  0
   -1.5790   24.8770  -28.9650 C   0  0  0  0  0  0  0  0  0  0  0  0
   -0.8490   24.1920  -27.9880 C   0  0  0  0  0  0  0  0  0  0  0  0
    0.3090   24.7180  -27.5180 F   0  0  0  0  0  0  0  0  0  0  0  0
   -1.3160   22.9700  -27.4930 C   0  0  0  0  0  0  0  0  0  0  0  0
   -0.6090   22.3080  -26.5430 F   0  0  0  0  0  0  0  0  0  0  0  0
   -2.5170   22.4380  -27.9700 C   0  0  0  0  0  0  0  0  0  0  0  0
   -2.9830   21.2640  -27.4760 F   0  0  0  0  0  0  0  0  0  0  0  0
   -3.2480   23.1200  -28.9490 C   0  0  0  0  0  0  0  0  0  0  0  0
   -5.2830   22.8460  -31.6150 C   0  0  0  0  0  0  0  0  0  0  0  0
   -4.1450   22.9000  -32.1600 O   0  0  0  0  0  0  0  0  0  0  0  0
   -4.2810   20.2400  -32.6080 C   0  0  0  0  0  0  0  0  0  0  0  0
   -3.8360   19.1820  -33.4200 C   0  0  0  0  0  0  0  0  0  0  0  0
   -2.3850   18.7780  -33.3750 C   0  0  0  0  0  0  0  0  0  0  0  0
   -4.0044   16.5253  -34.5206 H   0  0  0  0  0  0  0  0  0  0  0  0
   -5.1696   17.0620  -35.7780 H   0  0  0  0  0  0  0  0  0  0  0  0
   -3.4908   17.7008  -35.7780 H   0  0  0  0  0  0  0  0  0  0  0  0
   -6.8214   18.4157  -34.9283 H   0  0  0  0  0  0  0  0  0  0  0  0
   -7.5832   20.2933  -33.4865 H   0  0  0  0  0  0  0  0  0  0  0  0
   -7.9015   20.7347  -31.3341 H   0  0  0  0  0  0  0  0  0  0  0  0
   -8.7554   22.5869  -29.9073 H   0  0  0  0  0  0  0  0  0  0  0  0
   -7.3726   24.6311  -29.5745 H   0  0  0  0  0  0  0  0  0  0  0  0
   -1.2153   25.8447  -29.3409 H   0  0  0  0  0  0  0  0  0  0  0  0
   -4.1982   22.7029  -29.3140 H   0  0  0  0  0  0  0  0  0  0  0  0
   -3.5660   20.7600  -31.9535 H   0  0  0  0  0  0  0  0  0  0  0  0
   -2.0618   18.6880  -32.3274 H   0  0  0  0  0  0  0  0  0  0  0  0
   -2.2579   17.8103  -33.8824 H   0  0  0  0  0  0  0  0  0  0  0  0
   -1.7761   19.5408  -33.8824 H   0  0  0  0  0  0  0  0  0  0  0  0
  1  2  1  0
  2  3  2  0
  3  4  1  0
  4  5  2  0
  5  6  1  0
  6  7  1  0
  7  8  2  0
  8  9  1  0
  9 10  2  0
 10 11  1  0
 11 12  2  0
 11 13  1  0
 13 14  1  0
 14 15  2  0
 15 16  1  0
 16 17  1  0
 16 18  2  0
 18 19  1  0
 18 20  1  0
 20 21  1  0
 20 22  2  0
 10 23  1  0
 23 24  2  0
  5 25  1  0
 25 26  2  0
 26 27  1  0
 26  2  1  0
 23  6  1  0
 22 14  1  0
  1 28  1  0
  1 29  1  0
  1 30  1  0
  3 31  1  0
  4 32  1  0
  7 33  1  0
  8 34  1  0
  9 35  1  0
 15 36  1  0
 22 37  1  0
 25 38  1  0
 27 39  1  0
 27 40  1  0
 27 41  1  0
M  CHG  1  13  -1
M  END
>  <UniqueID>  (25) 
25

>  <SMILES>  (25) 
Cc1ccc(-n2cccc(C(=O)[N-]c3cc(F)c(F)c(F)c3)c2=O)cc1C

>  <Energy>  (25) 
59.665652575770245

>  <Genealogy>  (25) 
Cc1ccc(-n2cccc(C(=O)[N-]c3cc(F)c(F)c(F)c3)c2=O)cc1C (protonated)
Cc1ccc(-n2cccc(C(=O)[N-]c3cc(F)c(F)c(F)c3)c2=O)cc1C (3D coordinates assigned)
Cc1ccc(-n2cccc(C(=O)[N-]c3cc(F)c(F)c(F)c3)c2=O)cc1C (optimized conformer: 59.665652575770245 kcal/mol)

>  <smiles>  (25) 
Cc1ccc(-n2cccc(C(=O)Nc3cc(F)c(F)c(F)c3)c2=O)cc1C

>  <score_type>  (25) 
oracle

>  <origin>  (25) 
adg

>  <m_score__min__energy>  (25) 
-10.15

>  <m_primary>  (25) 
energy

$$$$
25:0
     RDKit          3D

 28 29  0  0  0  0  0  0  0  0999 V2000
   -8.2390   21.9790  -31.1820 C   0  0  0  0  0  0  0  0  0  0  0  0
   -8.0200   23.3170  -31.8780 C   0  0  0  0  0  0  0  0  0  0  0  0
   -6.9600   24.0650  -31.2090 N   0  0  0  0  0  0  0  0  0  0  0  0
   -5.6440   23.9790  -31.4790 C   0  0  0  0  0  0  0  0  0  0  0  0
   -4.9850   24.7890  -30.5790 C   0  0  0  0  0  0  0  0  0  0  0  0
   -3.6100   25.0190  -30.4640 O   0  0  0  0  0  0  0  0  0  0  0  0
   -2.7330   24.1810  -29.7150 C   0  0  0  0  0  0  0  0  0  0  0  0
   -2.3010   24.8630  -28.4490 C   0  0  0  0  0  0  0  0  0  0  0  0
   -2.9400   24.5790  -27.2340 C   0  0  0  0  0  0  0  0  0  0  0  0
   -2.5090   25.2160  -26.0690 C   0  0  0  0  0  0  0  0  0  0  0  0
   -1.4520   26.1270  -26.1260 C   0  0  0  0  0  0  0  0  0  0  0  0
   -0.8490   27.0070  -24.5420 Br  0  0  0  0  0  0  0  0  0  0  0  0
   -0.8420   26.3890  -27.3550 C   0  0  0  0  0  0  0  0  0  0  0  0
   -1.2750   25.7570  -28.4790 N   0  0  0  0  0  0  0  0  0  0  0  0
   -5.9640   25.3420  -29.7800 C   0  0  0  0  0  0  0  0  0  0  0  0
   -7.1640   24.8760  -30.1800 N   0  0  0  0  0  0  0  0  0  0  0  0
   -8.2152   22.1245  -30.0919 H   0  0  0  0  0  0  0  0  0  0  0  0
   -9.2163   21.5685  -31.4759 H   0  0  0  0  0  0  0  0  0  0  0  0
   -7.4436   21.2783  -31.4759 H   0  0  0  0  0  0  0  0  0  0  0  0
   -7.7342   23.1394  -32.9253 H   0  0  0  0  0  0  0  0  0  0  0  0
   -8.9519   23.9000  -31.8370 H   0  0  0  0  0  0  0  0  0  0  0  0
   -5.1800   23.3739  -32.2718 H   0  0  0  0  0  0  0  0  0  0  0  0
   -3.2550   23.2464  -29.4618 H   0  0  0  0  0  0  0  0  0  0  0  0
   -1.8420   23.9672  -30.3237 H   0  0  0  0  0  0  0  0  0  0  0  0
   -3.7728   23.8613  -27.1990 H   0  0  0  0  0  0  0  0  0  0  0  0
   -3.0006   25.0010  -25.1087 H   0  0  0  0  0  0  0  0  0  0  0  0
   -0.0108   27.1070  -27.4139 H   0  0  0  0  0  0  0  0  0  0  0  0
   -5.7936   26.0469  -28.9529 H   0  0  0  0  0  0  0  0  0  0  0  0
  1  2  1  0
  2  3  1  0
  3  4  1  0
  4  5  2  0
  5  6  1  0
  6  7  1  0
  7  8  1  0
  8  9  2  0
  9 10  1  0
 10 11  2  0
 11 12  1  0
 11 13  1  0
 13 14  2  0
  5 15  1  0
 15 16  2  0
 16  3  1  0
 14  8  1  0
  1 17  1  0
  1 18  1  0
  1 19  1  0
  2 20  1  0
  2 21  1  0
  4 22  1  0
  7 23  1  0
  7 24  1  0
  9 25  1  0
 10 26  1  0
 13 27  1  0
 15 28  1  0
M  END
>  <UniqueID>  (26) 
26

>  <SMILES>  (26) 
CCn1cc(OCc2ccc(Br)cn2)cn1

>  <Energy>  (26) 
53.474034298595555

>  <Genealogy>  (26) 
CCn1cc(OCc2ccc(Br)cn2)cn1 (3D coordinates assigned)
CCn1cc(OCc2ccc(Br)cn2)cn1 (optimized conformer: 53.474034298595555 kcal/mol)

>  <smiles>  (26) 
CCn1cc(OCc2ccc(Br)cn2)cn1

>  <score_type>  (26) 
oracle

>  <origin>  (26) 
adg

>  <m_score__min__energy>  (26) 
-6.6600000000000001

>  <m_primary>  (26) 
energy

$$$$
26:0
     RDKit          3D

 50 52  0  0  0  0  0  0  0  0999 V2000
   -5.3110   23.5430  -29.4710 C   0  0  0  0  0  0  0  0  0  0  0  0
   -5.0060   24.6540  -30.4740 C   0  0  0  0  0  0  0  0  0  0  0  0
   -5.7810   25.9240  -30.1070 C   0  0  0  0  0  0  0  0  0  0  0  0
   -3.6130   24.9190  -30.4400 O   0  0  0  0  0  0  0  0  0  0  0  0
   -3.0330   24.5150  -29.2140 C   0  0  0  0  0  0  0  0  0  0  0  0
   -1.7010   23.7970  -29.4680 C   0  0  0  0  0  0  0  0  0  0  0  0
   -1.9060   22.3350  -29.8840 C   0  0  0  0  0  0  0  0  0  0  0  0
   -2.6320   22.2400  -31.1510 N   0  0  0  0  0  0  0  0  0  0  0  0
   -2.3980   21.1870  -32.0970 C   0  0  0  0  0  0  0  0  0  0  0  0
   -1.5330   20.3000  -31.8610 O   0  0  0  0  0  0  0  0  0  0  0  0
   -3.1560   21.1530  -33.3930 C   0  0  0  0  0  0  0  0  0  0  0  0
   -4.5840   20.8160  -33.1590 N   0  0  0  0  0  0  0  0  0  0  0  0
   -5.4240   21.8110  -32.7200 C   0  0  0  0  0  0  0  0  0  0  0  0
   -4.9860   22.9880  -32.5720 O   0  0  0  0  0  0  0  0  0  0  0  0
   -6.7730   21.5460  -32.4300 C   0  0  0  0  0  0  0  0  0  0  0  0
   -7.6120   22.5770  -31.9530 C   0  0  0  0  0  0  0  0  0  0  0  0
   -8.9460   22.3250  -31.6480 C   0  0  0  0  0  0  0  0  0  0  0  0
   -9.4650   21.0460  -31.8110 C   0  0  0  0  0  0  0  0  0  0  0  0
   -8.6550   20.0130  -32.2850 C   0  0  0  0  0  0  0  0  0  0  0  0
   -7.2920   20.2410  -32.6110 C   0  0  0  0  0  0  0  0  0  0  0  0
   -6.4350   19.2260  -33.1170 C   0  0  0  0  0  0  0  0  0  0  0  0
   -6.8920   17.9040  -33.3640 C   0  0  0  0  0  0  0  0  0  0  0  0
   -6.0410   16.9330  -33.8810 C   0  0  0  0  0  0  0  0  0  0  0  0
   -4.7240   17.2440  -34.1760 C   0  0  0  0  0  0  0  0  0  0  0  0
   -4.2410   18.5280  -33.9450 C   0  0  0  0  0  0  0  0  0  0  0  0
   -5.0700   19.5430  -33.4010 C   0  0  0  0  0  0  0  0  0  0  0  0
   -5.2039   23.9330  -28.4480 H   0  0  0  0  0  0  0  0  0  0  0  0
   -6.3405   23.1857  -29.6213 H   0  0  0  0  0  0  0  0  0  0  0  0
   -4.6082   22.7102  -29.6213 H   0  0  0  0  0  0  0  0  0  0  0  0
   -5.3094   24.3379  -31.4830 H   0  0  0  0  0  0  0  0  0  0  0  0
   -5.8371   26.0159  -29.0123 H   0  0  0  0  0  0  0  0  0  0  0  0
   -5.2645   26.8017  -30.5226 H   0  0  0  0  0  0  0  0  0  0  0  0
   -6.7978   25.8660  -30.5226 H   0  0  0  0  0  0  0  0  0  0  0  0
   -2.8542   25.4012  -28.5874 H   0  0  0  0  0  0  0  0  0  0  0  0
   -3.7203   23.8252  -28.7023 H   0  0  0  0  0  0  0  0  0  0  0  0
   -1.1619   24.3222  -30.2702 H   0  0  0  0  0  0  0  0  0  0  0  0
   -1.1263   23.8058  -28.5301 H   0  0  0  0  0  0  0  0  0  0  0  0
   -0.9235   21.8534  -29.9969 H   0  0  0  0  0  0  0  0  0  0  0  0
   -2.4985   21.8321  -29.1055 H   0  0  0  0  0  0  0  0  0  0  0  0
   -3.3830   22.9400  -31.3430 H   0  0  0  0  0  0  0  0  0  0  0  0
   -3.0924   22.1401  -33.8743 H   0  0  0  0  0  0  0  0  0  0  0  0
   -2.7130   20.3824  -34.0410 H   0  0  0  0  0  0  0  0  0  0  0  0
   -7.2063   23.5909  -31.8211 H   0  0  0  0  0  0  0  0  0  0  0  0
   -9.5892   23.1372  -31.2783 H   0  0  0  0  0  0  0  0  0  0  0  0
  -10.5186   20.8471  -31.5654 H   0  0  0  0  0  0  0  0  0  0  0  0
   -9.0795   19.0057  -32.4080 H   0  0  0  0  0  0  0  0  0  0  0  0
   -7.9375   17.6436  -33.1425 H   0  0  0  0  0  0  0  0  0  0  0  0
   -6.4155   15.9137  -34.0564 H   0  0  0  0  0  0  0  0  0  0  0  0
   -4.0586   16.4742  -34.5938 H   0  0  0  0  0  0  0  0  0  0  0  0
   -3.1942   18.7614  -34.1893 H   0  0  0  0  0  0  0  0  0  0  0  0
  1  2  1  0
  2  3  1  0
  2  4  1  0
  4  5  1  0
  5  6  1  0
  6  7  1  0
  7  8  1  0
  8  9  1  0
  9 10  2  0
  9 11  1  0
 11 12  1  0
 12 13  1  0
 13 14  2  0
 13 15  1  0
 15 16  2  0
 16 17  1  0
 17 18  2  0
 18 19  1  0
 19 20  2  0
 20 21  1  0
 21 22  2  0
 22 23  1  0
 23 24  2  0
 24 25  1  0
 25 26  2  0
 26 12  1  0
 20 15  1  0
 26 21  1  0
  1 27  1  0
  1 28  1  0
  1 29  1  0
  2 30  1  0
  3 31  1  0
  3 32  1  0
  3 33  1  0
  5 34  1  0
  5 35  1  0
  6 36  1  0
  6 37  1  0
  7 38  1  0
  7 39  1  0
  8 40  1  0
 11 41  1  0
 11 42  1  0
 16 43  1  0
 17 44  1  0
 18 45  1  0
 19 46  1  0
 22 47  1  0
 23 48  1  0
 24 49  1  0
 25 50  1  0
M  END
>  <UniqueID>  (27) 
27

>  <SMILES>  (27) 
CC(C)OCCCNC(=O)Cn1c(=O)c2ccccc2c2ccccc21

>  <Energy>  (27) 
64.75030614517762

>  <Genealogy>  (27) 
CC(C)OCCCNC(=O)Cn1c(=O)c2ccccc2c2ccccc21 (3D coordinates assigned)
CC(C)OCCCNC(=O)Cn1c(=O)c2ccccc2c2ccccc21 (optimized conformer: 64.75030614517762 kcal/mol)

>  <smiles>  (27) 
CC(C)OCCCNC(=O)Cn1c(=O)c2ccccc2c2ccccc21

>  <score_type>  (27) 
oracle

>  <origin>  (27) 
adg

>  <m_score__min__energy>  (27) 
-10.19

>  <m_primary>  (27) 
energy

$$$$
27:0
     RDKit          3D

 33 34  0  0  0  0  0  0  0  0999 V2000
   -4.2050   24.1650  -28.3190 C   0  0  0  0  0  0  0  0  0  0  0  0
   -3.1690   24.5580  -29.3590 C   0  0  0  0  0  0  0  0  0  0  0  0
   -3.8170   25.1680  -30.4710 O   0  0  0  0  0  0  0  0  0  0  0  0
   -5.1780   24.9940  -30.7460 C   0  0  0  0  0  0  0  0  0  0  0  0
   -5.9910   25.9220  -30.4770 O   0  0  0  0  0  0  0  0  0  0  0  0
   -5.6690   23.7250  -31.3510 C   0  0  0  0  0  0  0  0  0  0  0  0
   -7.0490   23.4750  -31.4080 C   0  0  0  0  0  0  0  0  0  0  0  0
   -7.5540   22.3200  -31.9440 N   0  0  0  0  0  0  0  0  0  0  0  0
   -9.0240   22.1650  -31.9340 C   0  0  0  0  0  0  0  0  0  0  0  0
   -9.4920   21.5330  -30.6260 C   0  0  0  0  0  0  0  0  0  0  0  0
   -6.7070   21.3760  -32.4910 C   0  0  0  0  0  0  0  0  0  0  0  0
   -7.1920   20.1950  -33.1040 C   0  0  0  0  0  0  0  0  0  0  0  0
   -6.3140   19.2510  -33.6390 C   0  0  0  0  0  0  0  0  0  0  0  0
   -4.9390   19.4580  -33.5810 C   0  0  0  0  0  0  0  0  0  0  0  0
   -4.0930   18.5360  -34.1030 F   0  0  0  0  0  0  0  0  0  0  0  0
   -4.4320   20.6160  -32.9940 C   0  0  0  0  0  0  0  0  0  0  0  0
   -5.3010   21.5840  -32.4510 C   0  0  0  0  0  0  0  0  0  0  0  0
   -4.7910   22.7610  -31.8740 C   0  0  0  0  0  0  0  0  0  0  0  0
   -3.5430   22.9480  -31.8320 O   0  0  0  0  0  0  0  0  0  0  0  0
   -3.7914   24.3219  -27.3119 H   0  0  0  0  0  0  0  0  0  0  0  0
   -5.1053   24.7841  -28.4462 H   0  0  0  0  0  0  0  0  0  0  0  0
   -4.4682   23.1046  -28.4462 H   0  0  0  0  0  0  0  0  0  0  0  0
   -2.4561   25.2687  -28.9155 H   0  0  0  0  0  0  0  0  0  0  0  0
   -2.6311   23.6599  -29.6968 H   0  0  0  0  0  0  0  0  0  0  0  0
   -7.7451   24.2284  -31.0107 H   0  0  0  0  0  0  0  0  0  0  0  0
   -9.4920   23.1543  -32.0445 H   0  0  0  0  0  0  0  0  0  0  0  0
   -9.3157   21.5090  -32.7674 H   0  0  0  0  0  0  0  0  0  0  0  0
   -9.0755   22.0955  -29.7774 H   0  0  0  0  0  0  0  0  0  0  0  0
  -10.5907   21.5585  -30.5789 H   0  0  0  0  0  0  0  0  0  0  0  0
   -9.1471   20.4895  -30.5789 H   0  0  0  0  0  0  0  0  0  0  0  0
   -8.2764   20.0191  -33.1593 H   0  0  0  0  0  0  0  0  0  0  0  0
   -6.7108   18.3389  -34.1088 H   0  0  0  0  0  0  0  0  0  0  0  0
   -3.3444   20.7759  -32.9541 H   0  0  0  0  0  0  0  0  0  0  0  0
  1  2  1  0
  2  3  1  0
  3  4  1  0
  4  5  2  0
  4  6  1  0
  6  7  2  0
  7  8  1  0
  8  9  1  0
  9 10  1  0
  8 11  1  0
 11 12  2  0
 12 13  1  0
 13 14  2  0
 14 15  1  0
 14 16  1  0
 16 17  2  0
 17 18  1  0
 18 19  2  0
 18  6  1  0
 17 11  1  0
  1 20  1  0
  1 21  1  0
  1 22  1  0
  2 23  1  0
  2 24  1  0
  7 25  1  0
  9 26  1  0
  9 27  1  0
 10 28  1  0
 10 29  1  0
 10 30  1  0
 12 31  1  0
 13 32  1  0
 16 33  1  0
M  END
>  <UniqueID>  (28) 
28

>  <SMILES>  (28) 
CCOC(=O)c1cn(CC)c2ccc(F)cc2c1=O

>  <Energy>  (28) 
38.01614367232222

>  <Genealogy>  (28) 
CCOC(=O)c1cn(CC)c2ccc(F)cc2c1=O (3D coordinates assigned)
CCOC(=O)c1cn(CC)c2ccc(F)cc2c1=O (optimized conformer: 38.01614367232222 kcal/mol)

>  <smiles>  (28) 
CCOC(=O)c1cn(CC)c2ccc(F)cc2c1=O

>  <score_type>  (28) 
oracle

>  <origin>  (28) 
adg

>  <m_score__min__energy>  (28) 
-7.4699999999999998

>  <m_primary>  (28) 
energy

$$$$
28:0
     RDKit          3D

 48 49  0  0  0  0  0  0  0  0999 V2000
   -2.6900   20.8980  -27.8060 C   0  0  0  0  0  0  0  0  0  0  0  0
   -3.0970   21.7910  -28.9750 C   0  0  0  0  0  0  0  0  0  0  0  0
   -2.3950   23.1650  -28.8870 C   0  0  0  0  0  0  0  0  0  0  0  0
   -3.3000   24.2870  -28.5360 N   0  0  0  0  0  0  0  0  0  0  0  0
   -3.3420   24.5600  -27.0790 C   0  0  0  0  0  0  0  0  0  0  0  0
   -1.9440   24.9480  -26.5900 C   0  0  0  0  0  0  0  0  0  0  0  0
   -2.0110   26.0350  -25.5200 C   0  0  0  0  0  0  0  0  0  0  0  0
   -4.6410   24.1700  -29.1530 C   0  0  0  0  0  0  0  0  0  0  0  0
   -4.6370   24.7230  -30.5570 C   0  0  0  0  0  0  0  0  0  0  0  0
   -3.8680   25.6760  -30.8520 O   0  0  0  0  0  0  0  0  0  0  0  0
   -5.4700   24.1720  -31.5850 N   0  0  0  0  0  0  0  0  0  0  0  0
   -5.4430   22.8240  -32.0780 C   0  0  0  0  0  0  0  0  0  0  0  0
   -4.2220   22.1980  -32.3870 C   0  0  0  0  0  0  0  0  0  0  0  0
   -4.1990   20.8860  -32.8650 C   0  0  0  0  0  0  0  0  0  0  0  0
   -5.3900   20.1760  -33.0250 C   0  0  0  0  0  0  0  0  0  0  0  0
   -6.6110   20.7700  -32.6810 C   0  0  0  0  0  0  0  0  0  0  0  0
   -6.6420   22.0890  -32.1930 C   0  0  0  0  0  0  0  0  0  0  0  0
   -7.9930   22.6960  -31.8930 C   0  0  0  0  0  0  0  0  0  0  0  0
   -8.8910   21.7030  -31.1330 C   0  0  0  0  0  0  0  0  0  0  0  0
   -8.8280   20.2430  -31.6500 C   0  0  0  0  0  0  0  0  0  0  0  0
   -7.9120   20.0390  -32.8680 C   0  0  0  0  0  0  0  0  0  0  0  0
   -2.9216   21.4063  -26.8584 H   0  0  0  0  0  0  0  0  0  0  0  0
   -3.2448   19.9496  -27.8586 H   0  0  0  0  0  0  0  0  0  0  0  0
   -1.6103   20.6946  -27.8586 H   0  0  0  0  0  0  0  0  0  0  0  0
   -2.8139   21.3013  -29.9184 H   0  0  0  0  0  0  0  0  0  0  0  0
   -4.1850   21.9481  -28.9363 H   0  0  0  0  0  0  0  0  0  0  0  0
   -1.6088   23.1026  -28.1201 H   0  0  0  0  0  0  0  0  0  0  0  0
   -1.9956   23.3815  -29.8888 H   0  0  0  0  0  0  0  0  0  0  0  0
   -4.0415   25.3855  -26.8810 H   0  0  0  0  0  0  0  0  0  0  0  0
   -3.6782   23.6577  -26.5473 H   0  0  0  0  0  0  0  0  0  0  0  0
   -1.4530   24.0591  -26.1672 H   0  0  0  0  0  0  0  0  0  0  0  0
   -1.3735   25.3385  -27.4456 H   0  0  0  0  0  0  0  0  0  0  0  0
   -1.9824   25.5706  -24.5232 H   0  0  0  0  0  0  0  0  0  0  0  0
   -1.1530   26.7140  -25.6329 H   0  0  0  0  0  0  0  0  0  0  0  0
   -2.9459   26.6035  -25.6329 H   0  0  0  0  0  0  0  0  0  0  0  0
   -4.9319   23.1096  -29.1843 H   0  0  0  0  0  0  0  0  0  0  0  0
   -5.3574   24.7469  -28.5497 H   0  0  0  0  0  0  0  0  0  0  0  0
   -3.2780   22.7460  -32.2511 H   0  0  0  0  0  0  0  0  0  0  0  0
   -3.2393   20.4107  -33.1162 H   0  0  0  0  0  0  0  0  0  0  0  0
   -5.3698   19.1500  -33.4212 H   0  0  0  0  0  0  0  0  0  0  0  0
   -7.8532   23.5972  -31.2779 H   0  0  0  0  0  0  0  0  0  0  0  0
   -8.4811   22.9496  -32.8456 H   0  0  0  0  0  0  0  0  0  0  0  0
   -8.5859   21.7053  -30.0762 H   0  0  0  0  0  0  0  0  0  0  0  0
   -9.9263   22.0416  -31.2864 H   0  0  0  0  0  0  0  0  0  0  0  0
   -8.4612   19.6043  -30.8330 H   0  0  0  0  0  0  0  0  0  0  0  0
   -9.8456   19.9812  -31.9754 H   0  0  0  0  0  0  0  0  0  0  0  0
   -7.7086   18.9650  -32.9914 H   0  0  0  0  0  0  0  0  0  0  0  0
   -8.4164   20.4361  -33.7612 H   0  0  0  0  0  0  0  0  0  0  0  0
  1  2  1  0
  2  3  1  0
  3  4  1  0
  4  5  1  0
  5  6  1  0
  6  7  1  0
  4  8  1  0
  8  9  1  0
  9 10  2  0
  9 11  1  0
 11 12  1  0
 12 13  2  0
 13 14  1  0
 14 15  2  0
 15 16  1  0
 16 17  2  0
 17 18  1  0
 18 19  1  0
 19 20  1  0
 20 21  1  0
 17 12  1  0
 21 16  1  0
  1 22  1  0
  1 23  1  0
  1 24  1  0
  2 25  1  0
  2 26  1  0
  3 27  1  0
  3 28  1  0
  5 29  1  0
  5 30  1  0
  6 31  1  0
  6 32  1  0
  7 33  1  0
  7 34  1  0
  7 35  1  0
  8 36  1  0
  8 37  1  0
 13 38  1  0
 14 39  1  0
 15 40  1  0
 18 41  1  0
 18 42  1  0
 19 43  1  0
 19 44  1  0
 20 45  1  0
 20 46  1  0
 21 47  1  0
 21 48  1  0
M  CHG  1  11  -1
M  END
>  <UniqueID>  (29) 
29

>  <SMILES>  (29) 
CCCN(CCC)CC(=O)[N-]c1cccc2c1CCCC2

>  <Energy>  (29) 
54.33044297667605

>  <Genealogy>  (29) 
CCCN(CCC)CC(=O)[N-]c1cccc2c1CCCC2 (protonated)
CCCN(CCC)CC(=O)[N-]c1cccc2c1CCCC2 (3D coordinates assigned)
CCCN(CCC)CC(=O)[N-]c1cccc2c1CCCC2 (nonaromatic ring conformer: 54.33044297667605 kcal/mol)

>  <smiles>  (29) 
CCCN(CCC)CC(=O)Nc1cccc2c1CCCC2

>  <score_type>  (29) 
oracle

>  <origin>  (29) 
adg

>  <m_score__min__energy>  (29) 
-8.7799999999999994

>  <m_primary>  (29) 
energy

$$$$
29:0
     RDKit          3D

 35 38  0  0  0  0  0  0  0  0999 V2000
   -1.6100   26.0540  -29.7140 H   0  0  0  0  0  0  0  0  0  0  0  0
   -1.1890   26.6660  -29.0250 O   0  0  0  0  0  0  0  0  0  0  0  0
   -0.9970   26.2570  -27.7050 C   0  0  0  0  0  0  0  0  0  0  0  0
   -0.9210   24.8880  -27.3750 C   0  0  0  0  0  0  0  0  0  0  0  0
   -1.0020   23.8270  -28.4060 C   0  0  0  0  0  0  0  0  0  0  0  0
   -0.0410   22.7950  -28.4920 C   0  0  0  0  0  0  0  0  0  0  0  0
    0.8044   22.7778  -27.7884 H   0  0  0  0  0  0  0  0  0  0  0  0
   -0.1550   21.7880  -29.4700 C   0  0  0  0  0  0  0  0  0  0  0  0
    0.6015   20.9922  -29.5356 H   0  0  0  0  0  0  0  0  0  0  0  0
   -1.2380   21.8060  -30.3590 C   0  0  0  0  0  0  0  0  0  0  0  0
   -1.3485   21.0321  -31.1329 H   0  0  0  0  0  0  0  0  0  0  0  0
   -2.1450   22.8050  -30.2370 N   0  0  0  0  0  0  0  0  0  0  0  0
   -3.2240   22.9930  -30.9690 N   0  0  0  0  0  0  0  0  0  0  0  0
   -3.7810   24.1160  -30.4610 C   0  0  0  0  0  0  0  0  0  0  0  0
   -4.8990   24.6010  -30.9150 N   0  0  0  0  0  0  0  0  0  0  0  0
   -6.1380   23.8890  -31.0800 C   0  0  0  0  0  0  0  0  0  0  0  0
   -6.6390   23.1540  -29.9970 C   0  0  0  0  0  0  0  0  0  0  0  0
   -6.0939   23.1493  -29.0415 H   0  0  0  0  0  0  0  0  0  0  0  0
   -7.8260   22.4270  -30.1220 C   0  0  0  0  0  0  0  0  0  0  0  0
   -8.2196   21.8653  -29.2620 H   0  0  0  0  0  0  0  0  0  0  0  0
   -8.5130   22.4130  -31.3380 C   0  0  0  0  0  0  0  0  0  0  0  0
   -9.4517   21.8475  -31.4332 H   0  0  0  0  0  0  0  0  0  0  0  0
   -8.0070   23.1180  -32.4340 C   0  0  0  0  0  0  0  0  0  0  0  0
   -8.5445   23.1003  -33.3936 H   0  0  0  0  0  0  0  0  0  0  0  0
   -6.8200   23.8450  -32.3130 C   0  0  0  0  0  0  0  0  0  0  0  0
   -6.4164   24.3846  -33.1824 H   0  0  0  0  0  0  0  0  0  0  0  0
   -3.0910   24.6420  -29.4150 N   0  0  0  0  0  0  0  0  0  0  0  0
   -2.0640   23.7750  -29.3180 C   0  0  0  0  0  0  0  0  0  0  0  0
   -0.7900   24.5260  -26.0670 N   0  0  0  0  0  0  0  0  0  0  0  0
   -0.7090   25.4400  -25.0650 C   0  0  0  0  0  0  0  0  0  0  0  0
   -0.6032   25.1053  -24.0225 H   0  0  0  0  0  0  0  0  0  0  0  0
   -0.7600   26.8020  -25.3580 C   0  0  0  0  0  0  0  0  0  0  0  0
   -0.6866   27.5470  -24.5520 H   0  0  0  0  0  0  0  0  0  0  0  0
   -0.9050   27.2100  -26.6830 C   0  0  0  0  0  0  0  0  0  0  0  0
   -0.9472   28.2820  -26.9261 H   0  0  0  0  0  0  0  0  0  0  0  0
  1  2  1  0
  2  3  1  0
  3  4  2  0
  4  5  1  0
  5  6  2  0
  6  7  1  0
  6  8  1  0
  8  9  1  0
  8 10  2  0
 10 11  1  0
 10 12  1  0
 12 13  1  0
 13 14  1  0
 14 15  2  0
 15 16  1  0
 16 17  2  0
 17 18  1  0
 17 19  1  0
 19 20  1  0
 19 21  2  0
 21 22  1  0
 21 23  1  0
 23 24  1  0
 23 25  2  0
 25 26  1  0
 14 27  1  0
 27 28  2  0
  4 29  1  0
 29 30  2  0
 30 31  1  0
 30 32  1  0
 32 33  1  0
 32 34  2  0
 34 35  1  0
 34  3  1  0
 28  5  1  0
 28 12  1  0
 25 16  1  0
M  CHG  1  13  -1
M  END
>  <UniqueID>  (30) 
30

>  <SMILES>  (30) 
Oc1cccnc1-c1cccn2[n-]/c(=N/c3ccccc3)nc12

>  <Energy>  (30) 
90.0864462544345

>  <Genealogy>  (30) 
Oc1cccnc1-c1cccn2[n-]c(=Nc3ccccc3)nc12 (protonated)
Oc1cccnc1-c1cccn2[n-]/c(=N/c3ccccc3)nc12 (cis-trans isomerization)
Oc1cccnc1-c1cccn2[n-]/c(=N/c3ccccc3)nc12 (3D coordinates assigned)
Oc1cccnc1-c1cccn2[n-]/c(=N/c3ccccc3)nc12 (optimized conformer: 90.0864462544345 kcal/mol)

>  <smiles>  (30) 
Oc1cccnc1-c1cccn2[nH]c(=Nc3ccccc3)nc12

>  <score_type>  (30) 
oracle

>  <origin>  (30) 
adg

>  <m_score__min__energy>  (30) 
-9.9600000000000009

>  <m_primary>  (30) 
energy

$$$$
30:0
     RDKit          3D

 43 46  0  0  0  0  0  0  0  0999 V2000
   -8.6900   21.9040  -32.0170 C   0  0  0  0  0  0  0  0  0  0  0  0
   -8.2530   20.4690  -32.1310 C   0  0  0  0  0  0  0  0  0  0  0  0
   -9.2490   19.4760  -32.0730 C   0  0  0  0  0  0  0  0  0  0  0  0
   -8.9120   18.1220  -32.0710 C   0  0  0  0  0  0  0  0  0  0  0  0
   -7.5750   17.7380  -32.1200 C   0  0  0  0  0  0  0  0  0  0  0  0
   -6.5740   18.7060  -32.1940 C   0  0  0  0  0  0  0  0  0  0  0  0
   -6.8880   20.0720  -32.2340 C   0  0  0  0  0  0  0  0  0  0  0  0
   -5.7920   20.9490  -32.3740 O   0  0  0  0  0  0  0  0  0  0  0  0
   -4.8310   21.3320  -31.3780 C   0  0  0  0  0  0  0  0  0  0  0  0
   -3.4140   21.2970  -31.9170 C   0  0  0  0  0  0  0  0  0  0  0  0
   -3.2010   21.0120  -33.2850 C   0  0  0  0  0  0  0  0  0  0  0  0
   -1.9150   20.9440  -33.8150 C   0  0  0  0  0  0  0  0  0  0  0  0
   -0.8120   21.1590  -32.9990 C   0  0  0  0  0  0  0  0  0  0  0  0
   -0.9890   21.4540  -31.6500 C   0  0  0  0  0  0  0  0  0  0  0  0
   -2.2760   21.5390  -31.0790 C   0  0  0  0  0  0  0  0  0  0  0  0
   -2.2910   21.9180  -29.5940 C   0  0  0  0  0  0  0  0  0  0  0  0
   -3.6280   22.1320  -28.8620 C   0  0  0  0  0  0  0  0  0  0  0  0
   -4.5220   23.0940  -29.5980 C   0  0  0  0  0  0  0  0  0  0  0  0
   -4.7140   24.3960  -29.1040 C   0  0  0  0  0  0  0  0  0  0  0  0
   -5.4580   25.3240  -29.8330 C   0  0  0  0  0  0  0  0  0  0  0  0
   -5.9880   24.9740  -31.0750 C   0  0  0  0  0  0  0  0  0  0  0  0
   -5.7950   23.6880  -31.5810 C   0  0  0  0  0  0  0  0  0  0  0  0
   -5.1010   22.7190  -30.8280 C   0  0  0  0  0  0  0  0  0  0  0  0
   -8.7736   22.1786  -30.9551 H   0  0  0  0  0  0  0  0  0  0  0  0
   -7.9488   22.5530  -32.5063 H   0  0  0  0  0  0  0  0  0  0  0  0
   -9.6671   22.0297  -32.5063 H   0  0  0  0  0  0  0  0  0  0  0  0
  -10.3076   19.7715  -32.0286 H   0  0  0  0  0  0  0  0  0  0  0  0
   -9.7027   17.3583  -32.0307 H   0  0  0  0  0  0  0  0  0  0  0  0
   -7.3081   16.6711  -32.1003 H   0  0  0  0  0  0  0  0  0  0  0  0
   -5.5199   18.3926  -32.2215 H   0  0  0  0  0  0  0  0  0  0  0  0
   -4.9338   20.5946  -30.5682 H   0  0  0  0  0  0  0  0  0  0  0  0
   -4.0662   20.8409  -33.9424 H   0  0  0  0  0  0  0  0  0  0  0  0
   -1.7725   20.7195  -34.8824 H   0  0  0  0  0  0  0  0  0  0  0  0
    0.2027   21.0961  -33.4191 H   0  0  0  0  0  0  0  0  0  0  0  0
   -0.1064   21.6244  -31.0159 H   0  0  0  0  0  0  0  0  0  0  0  0
   -1.7613   21.1169  -29.0577 H   0  0  0  0  0  0  0  0  0  0  0  0
   -1.8387   22.9207  -29.5871 H   0  0  0  0  0  0  0  0  0  0  0  0
   -4.1436   21.1644  -28.7726 H   0  0  0  0  0  0  0  0  0  0  0  0
   -3.4105   22.5578  -27.8714 H   0  0  0  0  0  0  0  0  0  0  0  0
   -4.2753   24.6846  -28.1375 H   0  0  0  0  0  0  0  0  0  0  0  0
   -5.6269   26.3327  -29.4281 H   0  0  0  0  0  0  0  0  0  0  0  0
   -6.5590   25.7129  -31.6564 H   0  0  0  0  0  0  0  0  0  0  0  0
   -6.1874   23.4282  -32.5752 H   0  0  0  0  0  0  0  0  0  0  0  0
  1  2  1  0
  2  3  2  0
  3  4  1  0
  4  5  2  0
  5  6  1  0
  6  7  2  0
  7  8  1  0
  8  9  1  0
  9 10  1  0
 10 11  2  0
 11 12  1  0
 12 13  2  0
 13 14  1  0
 14 15  2  0
 15 16  1  0
 16 17  1  0
 17 18  1  0
 18 19  2  0
 19 20  1  0
 20 21  2  0
 21 22  1  0
 22 23  2  0
  7  2  1  0
 23  9  1  0
 15 10  1  0
 23 18  1  0
  1 24  1  0
  1 25  1  0
  1 26  1  0
  3 27  1  0
  4 28  1  0
  5 29  1  0
  6 30  1  0
  9 31  1  0
 11 32  1  0
 12 33  1  0
 13 34  1  0
 14 35  1  0
 16 36  1  0
 16 37  1  0
 17 38  1  0
 17 39  1  0
 19 40  1  0
 20 41  1  0
 21 42  1  0
 22 43  1  0
M  END
>  <UniqueID>  (31) 
31

>  <SMILES>  (31) 
Cc1ccccc1OC1c2ccccc2CCc2ccccc21

>  <Energy>  (31) 
69.78642908685748

>  <Genealogy>  (31) 
Cc1ccccc1OC1c2ccccc2CCc2ccccc21 (3D coordinates assigned)
Cc1ccccc1OC1c2ccccc2CCc2ccccc21 (nonaromatic ring conformer: 69.78642908685748 kcal/mol)

>  <smiles>  (31) 
Cc1ccccc1OC1c2ccccc2CCc2ccccc21

>  <score_type>  (31) 
oracle

>  <origin>  (31) 
adg

>  <m_score__min__energy>  (31) 
-7.2000000000000002

>  <m_primary>  (31) 
energy

$$$$
31:0
     RDKit          3D

 47 48  0  0  0  0  0  0  0  0999 V2000
   -6.4410   17.4350  -33.7360 C   0  0  0  0  0  0  0  0  0  0  0  0
   -7.2460   17.9820  -32.5430 C   0  0  0  0  0  0  0  0  0  0  0  0
   -6.4440   17.8310  -31.2340 C   0  0  0  0  0  0  0  0  0  0  0  0
   -7.8000   19.3490  -32.8000 N   0  0  1  0  0  0  0  0  0  0  0  0
   -8.4570   19.9270  -31.6120 C   0  0  0  0  0  0  0  0  0  0  0  0
   -6.9230   20.3260  -33.5080 C   0  0  0  0  0  0  0  0  0  0  0  0
   -6.3750   21.4580  -32.6610 C   0  0  0  0  0  0  0  0  0  0  0  0
   -5.1100   21.3580  -32.0640 C   0  0  0  0  0  0  0  0  0  0  0  0
   -4.6240   22.3850  -31.2530 C   0  0  0  0  0  0  0  0  0  0  0  0
   -5.3960   23.5360  -30.9980 C   0  0  0  0  0  0  0  0  0  0  0  0
   -4.8270   24.6130  -30.0700 C   0  0  2  0  0  0  0  0  0  0  0  0
   -5.9150   25.3060  -29.2080 C   0  0  0  0  0  0  0  0  0  0  0  0
   -4.2400   25.6010  -30.8910 O   0  0  0  0  0  0  0  0  0  0  0  0
   -3.7790   23.9560  -29.1630 C   0  0  0  0  0  0  0  0  0  0  0  0
   -2.4120   24.3050  -29.2310 C   0  0  0  0  0  0  0  0  0  0  0  0
   -1.4720   23.6710  -28.4130 C   0  0  0  0  0  0  0  0  0  0  0  0
   -1.8730   22.6710  -27.5270 C   0  0  0  0  0  0  0  0  0  0  0  0
   -3.2150   22.2960  -27.4620 C   0  0  0  0  0  0  0  0  0  0  0  0
   -4.1600   22.9250  -28.2760 C   0  0  0  0  0  0  0  0  0  0  0  0
   -6.6970   23.5960  -31.5430 C   0  0  0  0  0  0  0  0  0  0  0  0
   -7.1800   22.5670  -32.3550 C   0  0  0  0  0  0  0  0  0  0  0  0
   -5.5846   16.8531  -33.3645 H   0  0  0  0  0  0  0  0  0  0  0  0
   -7.0864   16.7877  -34.3479 H   0  0  0  0  0  0  0  0  0  0  0  0
   -6.0768   18.2734  -34.3479 H   0  0  0  0  0  0  0  0  0  0  0  0
   -8.1476   17.3657  -32.4118 H   0  0  0  0  0  0  0  0  0  0  0  0
   -7.1182   17.9579  -30.3742 H   0  0  0  0  0  0  0  0  0  0  0  0
   -5.9871   16.8311  -31.1972 H   0  0  0  0  0  0  0  0  0  0  0  0
   -5.6547   18.5963  -31.1972 H   0  0  0  0  0  0  0  0  0  0  0  0
   -8.5920   19.1890  -33.4700 H   0  0  0  0  0  0  0  0  0  0  0  0
   -7.9933   19.5191  -30.7017 H   0  0  0  0  0  0  0  0  0  0  0  0
   -8.3405   21.0207  -31.6243 H   0  0  0  0  0  0  0  0  0  0  0  0
   -9.5270   19.6721  -31.6243 H   0  0  0  0  0  0  0  0  0  0  0  0
   -6.0686   19.7722  -33.9242 H   0  0  0  0  0  0  0  0  0  0  0  0
   -7.5605   20.8033  -34.2668 H   0  0  0  0  0  0  0  0  0  0  0  0
   -4.4952   20.4623  -32.2363 H   0  0  0  0  0  0  0  0  0  0  0  0
   -3.6230   22.2944  -30.8061 H   0  0  0  0  0  0  0  0  0  0  0  0
   -5.6861   25.1602  -28.1420 H   0  0  0  0  0  0  0  0  0  0  0  0
   -5.9326   26.3821  -29.4354 H   0  0  0  0  0  0  0  0  0  0  0  0
   -6.8976   24.8670  -29.4354 H   0  0  0  0  0  0  0  0  0  0  0  0
   -4.9620   26.0790  -31.3810 H   0  0  0  0  0  0  0  0  0  0  0  0
   -2.0835   25.0838  -29.9350 H   0  0  0  0  0  0  0  0  0  0  0  0
   -0.4126   23.9618  -28.4683 H   0  0  0  0  0  0  0  0  0  0  0  0
   -1.1318   22.1787  -26.8803 H   0  0  0  0  0  0  0  0  0  0  0  0
   -3.5299   21.5029  -26.7679 H   0  0  0  0  0  0  0  0  0  0  0  0
   -5.2138   22.6136  -28.2256 H   0  0  0  0  0  0  0  0  0  0  0  0
   -7.3379   24.4632  -31.3257 H   0  0  0  0  0  0  0  0  0  0  0  0
   -8.2015   22.6261  -32.7588 H   0  0  0  0  0  0  0  0  0  0  0  0
  1  2  1  0
  2  3  1  0
  2  4  1  0
  4  5  1  0
  4  6  1  0
  6  7  1  0
  7  8  2  0
  8  9  1  0
  9 10  2  0
 10 11  1  0
 11 12  1  0
 11 13  1  6
 11 14  1  0
 14 15  2  0
 15 16  1  0
 16 17  2  0
 17 18  1  0
 18 19  2  0
 10 20  1  0
 20 21  2  0
 21  7  1  0
 19 14  1  0
  1 22  1  0
  1 23  1  0
  1 24  1  0
  2 25  1  0
  3 26  1  0
  3 27  1  0
  3 28  1  0
  4 29  1  6
  5 30  1  0
  5 31  1  0
  5 32  1  0
  6 33  1  0
  6 34  1  0
  8 35  1  0
  9 36  1  0
 12 37  1  0
 12 38  1  0
 12 39  1  0
 13 40  1  0
 15 41  1  0
 16 42  1  0
 17 43  1  0
 18 44  1  0
 19 45  1  0
 20 46  1  0
 21 47  1  0
M  CHG  1   4   1
M  END
>  <UniqueID>  (32) 
32

>  <SMILES>  (32) 
CC(C)[N@@H+](C)Cc1ccc([C@](C)(O)c2ccccc2)cc1

>  <Energy>  (32) 
63.852561981407106

>  <Genealogy>  (32) 
CC(C)[NH+](C)Cc1ccc(C(C)(O)c2ccccc2)cc1 (protonated)
CC(C)[N@@H+](C)Cc1ccc([C@](C)(O)c2ccccc2)cc1 (chirality)
CC(C)[N@@H+](C)Cc1ccc([C@](C)(O)c2ccccc2)cc1 (3D coordinates assigned)
CC(C)[N@@H+](C)Cc1ccc([C@](C)(O)c2ccccc2)cc1 (optimized conformer: 63.852561981407106 kcal/mol)

>  <smiles>  (32) 
CC(C)N(C)Cc1ccc(C(C)(O)c2ccccc2)cc1

>  <score_type>  (32) 
oracle

>  <origin>  (32) 
adg

>  <m_score__min__energy>  (32) 
-8.4499999999999993

>  <m_primary>  (32) 
energy

$$$$
32:0
     RDKit          3D

 76 79  0  0  0  0  0  0  0  0999 V2000
   -4.2310   24.5290  -26.9400 C   0  0  0  0  0  0  0  0  0  0  0  0
   -3.3110   25.3110  -25.9970 C   0  0  0  0  0  0  0  0  0  0  0  0
   -1.8610   24.9980  -26.1240 N   0  0  0  0  0  0  0  0  0  0  0  0
   -1.0720   26.1010  -26.7330 C   0  0  0  0  0  0  0  0  0  0  0  0
   -0.9710   25.9780  -28.2590 C   0  0  0  0  0  0  0  0  0  0  0  0
   -1.2110   24.5770  -24.8580 C   0  0  0  0  0  0  0  0  0  0  0  0
    0.3180   24.3730  -24.9810 C   0  0  0  0  0  0  0  0  0  0  0  0
    0.6520   23.0720  -25.7310 C   0  0  0  0  0  0  0  0  0  0  0  0
   -0.5390   22.4250  -26.1770 O   0  0  0  0  0  0  0  0  0  0  0  0
   -0.8390   22.1280  -27.5150 C   0  0  0  0  0  0  0  0  0  0  0  0
   -0.0470   21.2660  -28.2950 C   0  0  0  0  0  0  0  0  0  0  0  0
   -0.4310   20.9380  -29.6010 C   0  0  0  0  0  0  0  0  0  0  0  0
   -1.5910   21.4930  -30.1580 C   0  0  0  0  0  0  0  0  0  0  0  0
   -2.0260   21.1170  -31.5250 C   0  0  0  0  0  0  0  0  0  0  0  0
   -1.2650   21.4820  -32.6480 C   0  0  0  0  0  0  0  0  0  0  0  0
   -1.6620   21.1050  -33.8920 N   0  0  0  0  0  0  0  0  0  0  0  0
   -2.7840   20.3640  -34.0920 C   0  0  0  0  0  0  0  0  0  0  0  0
   -3.5790   19.9650  -33.0080 C   0  0  0  0  0  0  0  0  0  0  0  0
   -4.7970   19.1360  -33.2110 C   0  0  0  0  0  0  0  0  0  0  0  0
   -4.9230   18.3030  -34.3380 C   0  0  0  0  0  0  0  0  0  0  0  0
   -6.0450   17.4910  -34.4970 C   0  0  0  0  0  0  0  0  0  0  0  0
   -7.0500   17.4770  -33.5270 C   0  0  0  0  0  0  0  0  0  0  0  0
   -6.9530   18.3080  -32.4030 C   0  0  0  0  0  0  0  0  0  0  0  0
   -7.9930   18.2680  -31.3130 C   0  0  0  0  0  0  0  0  0  0  0  0
   -9.0500   19.2420  -31.6080 N   0  0  0  0  0  0  0  0  0  0  0  0
   -8.5200   20.3790  -32.3740 C   0  0  0  0  0  0  0  0  0  0  0  0
   -8.6750   21.6830  -31.5780 C   0  0  0  0  0  0  0  0  0  0  0  0
   -7.3640   22.4140  -31.4400 C   0  0  0  0  0  0  0  0  0  0  0  0
   -6.3610   22.2590  -32.4050 C   0  0  0  0  0  0  0  0  0  0  0  0
   -5.1770   22.9940  -32.2900 C   0  0  0  0  0  0  0  0  0  0  0  0
   -4.9970   23.8420  -31.2450 N   0  0  0  0  0  0  0  0  0  0  0  0
   -5.9530   24.0110  -30.2940 C   0  0  0  0  0  0  0  0  0  0  0  0
   -7.1590   23.3110  -30.3800 C   0  0  0  0  0  0  0  0  0  0  0  0
   -5.8180   19.1230  -32.2430 C   0  0  0  0  0  0  0  0  0  0  0  0
   -3.1960   20.3730  -31.7170 C   0  0  0  0  0  0  0  0  0  0  0  0
   -2.3620   22.3840  -29.3870 C   0  0  0  0  0  0  0  0  0  0  0  0
   -1.9960   22.6770  -28.0690 C   0  0  0  0  0  0  0  0  0  0  0  0
   -4.9376   23.9284  -26.3483 H   0  0  0  0  0  0  0  0  0  0  0  0
   -4.7897   25.2329  -27.5744 H   0  0  0  0  0  0  0  0  0  0  0  0
   -3.6263   23.8642  -27.5744 H   0  0  0  0  0  0  0  0  0  0  0  0
   -3.4470   26.3834  -26.2005 H   0  0  0  0  0  0  0  0  0  0  0  0
   -3.5988   25.0181  -24.9765 H   0  0  0  0  0  0  0  0  0  0  0  0
   -1.5556   27.0580  -26.4875 H   0  0  0  0  0  0  0  0  0  0  0  0
   -0.0519   26.0470  -26.3251 H   0  0  0  0  0  0  0  0  0  0  0  0
   -0.2923   25.1514  -28.5161 H   0  0  0  0  0  0  0  0  0  0  0  0
   -1.9683   25.7772  -28.6775 H   0  0  0  0  0  0  0  0  0  0  0  0
   -0.5800   26.9172  -28.6775 H   0  0  0  0  0  0  0  0  0  0  0  0
   -1.3981   25.3499  -24.0980 H   0  0  0  0  0  0  0  0  0  0  0  0
   -1.6438   23.6039  -24.5829 H   0  0  0  0  0  0  0  0  0  0  0  0
    0.7496   25.2232  -25.5295 H   0  0  0  0  0  0  0  0  0  0  0  0
    0.7411   24.3070  -23.9678 H   0  0  0  0  0  0  0  0  0  0  0  0
    1.2815   23.3088  -26.6014 H   0  0  0  0  0  0  0  0  0  0  0  0
    1.1851   22.3966  -25.0458 H   0  0  0  0  0  0  0  0  0  0  0  0
    0.8799   20.8469  -27.8763 H   0  0  0  0  0  0  0  0  0  0  0  0
    0.1809   20.2412  -30.1927 H   0  0  0  0  0  0  0  0  0  0  0  0
   -0.3465   22.0737  -32.5204 H   0  0  0  0  0  0  0  0  0  0  0  0
   -1.0820   21.3780  -34.7130 H   0  0  0  0  0  0  0  0  0  0  0  0
   -3.0709   20.0747  -35.1137 H   0  0  0  0  0  0  0  0  0  0  0  0
   -4.1296   18.2924  -35.0999 H   0  0  0  0  0  0  0  0  0  0  0  0
   -6.1394   16.8577  -35.3914 H   0  0  0  0  0  0  0  0  0  0  0  0
   -7.9187   16.8127  -33.6457 H   0  0  0  0  0  0  0  0  0  0  0  0
   -8.4287   17.2594  -31.2591 H   0  0  0  0  0  0  0  0  0  0  0  0
   -7.5238   18.5173  -30.3498 H   0  0  0  0  0  0  0  0  0  0  0  0
   -9.3950   19.6110  -30.6880 H   0  0  0  0  0  0  0  0  0  0  0  0
   -7.4540   20.2081  -32.5847 H   0  0  0  0  0  0  0  0  0  0  0  0
   -9.0831   20.4675  -33.3148 H   0  0  0  0  0  0  0  0  0  0  0  0
   -9.3928   22.3344  -32.0980 H   0  0  0  0  0  0  0  0  0  0  0  0
   -9.0317   21.4274  -30.5693 H   0  0  0  0  0  0  0  0  0  0  0  0
   -6.5034   21.5649  -33.2464 H   0  0  0  0  0  0  0  0  0  0  0  0
   -4.3884   22.8848  -33.0491 H   0  0  0  0  0  0  0  0  0  0  0  0
   -5.7769   24.7002  -29.4550 H   0  0  0  0  0  0  0  0  0  0  0  0
   -7.9422   23.4617  -29.6225 H   0  0  0  0  0  0  0  0  0  0  0  0
   -5.7274   19.7584  -31.3497 H   0  0  0  0  0  0  0  0  0  0  0  0
   -3.8207   20.1053  -30.8521 H   0  0  0  0  0  0  0  0  0  0  0  0
   -3.2567   22.8521  -29.8233 H   0  0  0  0  0  0  0  0  0  0  0  0
   -2.6258   23.3460  -27.4641 H   0  0  0  0  0  0  0  0  0  0  0  0
  1  2  1  0
  2  3  1  0
  3  4  1  0
  4  5  1  0
  3  6  1  0
  6  7  1  0
  7  8  1  0
  8  9  1  0
  9 10  1  0
 10 11  2  0
 11 12  1  0
 12 13  2  0
 13 14  1  0
 14 15  2  0
 15 16  1  0
 16 17  2  0
 17 18  1  0
 18 19  1  0
 19 20  2  0
 20 21  1  0
 21 22  2  0
 22 23  1  0
 23 24  1  0
 24 25  1  0
 25 26  1  0
 26 27  1  0
 27 28  1  0
 28 29  2  0
 29 30  1  0
 30 31  2  0
 31 32  1  0
 32 33  2  0
 23 34  2  0
 18 35  2  0
 13 36  1  0
 36 37  2  0
 37 10  1  0
 35 14  1  0
 34 19  1  0
 33 28  1  0
  1 38  1  0
  1 39  1  0
  1 40  1  0
  2 41  1  0
  2 42  1  0
  4 43  1  0
  4 44  1  0
  5 45  1  0
  5 46  1  0
  5 47  1  0
  6 48  1  0
  6 49  1  0
  7 50  1  0
  7 51  1  0
  8 52  1  0
  8 53  1  0
 11 54  1  0
 12 55  1  0
 15 56  1  0
 16 57  1  0
 17 58  1  0
 20 59  1  0
 21 60  1  0
 22 61  1  0
 24 62  1  0
 24 63  1  0
 25 64  1  0
 26 65  1  0
 26 66  1  0
 27 67  1  0
 27 68  1  0
 29 69  1  0
 30 70  1  0
 32 71  1  0
 33 72  1  0
 34 73  1  0
 35 74  1  0
 36 75  1  0
 37 76  1  0
M  CHG  1  16   1
M  END
>  <UniqueID>  (33) 
33

>  <SMILES>  (33) 
CCN(CC)CCCOc1ccc(-c2c[nH+]cc(-c3cccc(CNCCc4ccncc4)c3)c2)cc1

>  <Energy>  (33) 
90.58006975414256

>  <Genealogy>  (33) 
CCN(CC)CCCOc1ccc(-c2c[nH+]cc(-c3cccc(CNCCc4ccncc4)c3)c2)cc1 (protonated)
CCN(CC)CCCOc1ccc(-c2c[nH+]cc(-c3cccc(CNCCc4ccncc4)c3)c2)cc1 (3D coordinates assigned)
CCN(CC)CCCOc1ccc(-c2c[nH+]cc(-c3cccc(CNCCc4ccncc4)c3)c2)cc1 (optimized conformer: 90.58006975414256 kcal/mol)

>  <smiles>  (33) 
CCN(CC)CCCOc1ccc(-c2cncc(-c3cccc(CNCCc4ccncc4)c3)c2)cc1

>  <score_type>  (33) 
oracle

>  <origin>  (33) 
adg

>  <m_score__min__energy>  (33) 
-9.0899999999999999

>  <m_primary>  (33) 
energy

$$$$
33:0
     RDKit          3D

 46 48  0  0  0  0  0  0  0  0999 V2000
   -2.7360   18.9120  -26.3870 C   0  0  0  0  0  0  0  0  0  0  0  0
   -2.0080   19.6700  -27.4120 N   0  0  0  0  0  0  0  0  0  0  0  0
   -0.6900   19.1880  -27.8470 C   0  0  0  0  0  0  0  0  0  0  0  0
   -2.5770   20.8770  -27.9830 C   0  0  0  0  0  0  0  0  0  0  0  0
   -2.6110   22.0790  -27.2490 C   0  0  0  0  0  0  0  0  0  0  0  0
   -3.1580   23.2410  -27.8010 C   0  0  0  0  0  0  0  0  0  0  0  0
   -3.6860   23.2300  -29.0980 C   0  0  0  0  0  0  0  0  0  0  0  0
   -4.2410   24.4970  -29.7040 C   0  0  0  0  0  0  0  0  0  0  0  0
   -5.5360   24.8680  -29.1060 N   0  0  0  0  0  0  0  0  0  0  0  0
   -6.6210   24.8670  -30.1040 C   0  0  0  0  0  0  0  0  0  0  0  0
   -6.1770   24.2200  -31.4240 C   0  0  0  0  0  0  0  0  0  0  0  0
   -7.0260   23.0310  -31.7690 C   0  0  0  0  0  0  0  0  0  0  0  0
   -8.3920   22.8980  -31.5360 C   0  0  0  0  0  0  0  0  0  0  0  0
   -8.8160   21.6660  -31.8990 N   0  0  0  0  0  0  0  0  0  0  0  0
   -7.7280   21.0160  -32.3480 C   0  0  0  0  0  0  0  0  0  0  0  0
   -7.6590   19.7020  -32.8100 C   0  0  0  0  0  0  0  0  0  0  0  0
   -6.4040   19.2100  -33.2120 C   0  0  0  0  0  0  0  0  0  0  0  0
   -5.2570   20.0310  -33.1390 C   0  0  0  0  0  0  0  0  0  0  0  0
   -4.0520   19.5420  -33.5230 F   0  0  0  0  0  0  0  0  0  0  0  0
   -5.3550   21.3520  -32.6660 C   0  0  0  0  0  0  0  0  0  0  0  0
   -6.6140   21.8150  -32.2810 C   0  0  0  0  0  0  0  0  0  0  0  0
   -3.6560   22.0400  -29.8400 C   0  0  0  0  0  0  0  0  0  0  0  0
   -3.1100   20.8780  -29.2900 C   0  0  0  0  0  0  0  0  0  0  0  0
   -2.4162   19.2449  -25.3885 H   0  0  0  0  0  0  0  0  0  0  0  0
   -3.8164   19.0837  -26.5022 H   0  0  0  0  0  0  0  0  0  0  0  0
   -2.5208   17.8394  -26.5022 H   0  0  0  0  0  0  0  0  0  0  0  0
   -0.0727   18.9623  -26.9650 H   0  0  0  0  0  0  0  0  0  0  0  0
   -0.8137   18.2769  -28.4509 H   0  0  0  0  0  0  0  0  0  0  0  0
   -0.1968   19.9639  -28.4509 H   0  0  0  0  0  0  0  0  0  0  0  0
   -2.2018   22.1035  -26.2282 H   0  0  0  0  0  0  0  0  0  0  0  0
   -3.1738   24.1703  -27.2126 H   0  0  0  0  0  0  0  0  0  0  0  0
   -3.5245   25.3149  -29.5375 H   0  0  0  0  0  0  0  0  0  0  0  0
   -4.3982   24.3218  -30.7785 H   0  0  0  0  0  0  0  0  0  0  0  0
   -5.4550   25.8110  -28.6590 H   0  0  0  0  0  0  0  0  0  0  0  0
   -5.7610   24.1690  -28.3610 H   0  0  0  0  0  0  0  0  0  0  0  0
   -7.4758   24.3042  -29.7008 H   0  0  0  0  0  0  0  0  0  0  0  0
   -6.8988   25.9112  -30.3100 H   0  0  0  0  0  0  0  0  0  0  0  0
   -6.2583   24.9631  -32.2310 H   0  0  0  0  0  0  0  0  0  0  0  0
   -5.1377   23.8789  -31.3078 H   0  0  0  0  0  0  0  0  0  0  0  0
   -9.0361   23.6844  -31.1157 H   0  0  0  0  0  0  0  0  0  0  0  0
   -9.7880   21.2920  -31.8270 H   0  0  0  0  0  0  0  0  0  0  0  0
   -8.5580   19.0700  -32.8585 H   0  0  0  0  0  0  0  0  0  0  0  0
   -6.3153   18.1792  -33.5856 H   0  0  0  0  0  0  0  0  0  0  0  0
   -4.4679   21.9993  -32.6016 H   0  0  0  0  0  0  0  0  0  0  0  0
   -4.0649   22.0218  -30.8610 H   0  0  0  0  0  0  0  0  0  0  0  0
   -3.0952   19.9517  -29.8831 H   0  0  0  0  0  0  0  0  0  0  0  0
  1  2  1  0
  2  3  1  0
  2  4  1  0
  4  5  2  0
  5  6  1  0
  6  7  2  0
  7  8  1  0
  8  9  1  0
  9 10  1  0
 10 11  1  0
 11 12  1  0
 12 13  2  0
 13 14  1  0
 14 15  1  0
 15 16  2  0
 16 17  1  0
 17 18  2  0
 18 19  1  0
 18 20  1  0
 20 21  2  0
  7 22  1  0
 22 23  2  0
 23  4  1  0
 21 12  1  0
 21 15  1  0
  1 24  1  0
  1 25  1  0
  1 26  1  0
  3 27  1  0
  3 28  1  0
  3 29  1  0
  5 30  1  0
  6 31  1  0
  8 32  1  0
  8 33  1  0
  9 34  1  0
  9 35  1  0
 10 36  1  0
 10 37  1  0
 11 38  1  0
 11 39  1  0
 13 40  1  0
 14 41  1  0
 16 42  1  0
 17 43  1  0
 20 44  1  0
 22 45  1  0
 23 46  1  0
M  CHG  1   9   1
M  END
>  <UniqueID>  (34) 
34

>  <SMILES>  (34) 
CN(C)c1ccc(C[NH2+]CCc2c[nH]c3ccc(F)cc23)cc1

>  <Energy>  (34) 
78.07376464522251

>  <Genealogy>  (34) 
CN(C)c1ccc(C[NH2+]CCc2c[nH]c3ccc(F)cc23)cc1 (protonated)
CN(C)c1ccc(C[NH2+]CCc2c[nH]c3ccc(F)cc23)cc1 (3D coordinates assigned)
CN(C)c1ccc(C[NH2+]CCc2c[nH]c3ccc(F)cc23)cc1 (optimized conformer: 78.07376464522251 kcal/mol)

>  <smiles>  (34) 
CN(C)c1ccc(CNCCc2c[nH]c3ccc(F)cc23)cc1

>  <score_type>  (34) 
oracle

>  <origin>  (34) 
adg

>  <m_score__min__energy>  (34) 
-7.1100000000000003

>  <m_primary>  (34) 
energy

$$$$
34:0
     RDKit          3D

 41 43  0  0  0  0  0  0  0  0999 V2000
   -7.4376   22.3425  -29.9341 H   0  0  0  0  0  0  0  0  0  0  0  0
   -7.8870   21.7090  -30.7130 C   0  0  0  0  0  0  0  0  0  0  0  0
   -7.1420   20.7470  -31.3190 N   0  0  0  0  0  0  0  0  0  0  0  0
   -7.6550   19.9410  -32.2920 C   0  0  0  0  0  0  0  0  0  0  0  0
   -6.8220   18.9280  -32.8950 N   0  0  0  0  0  0  0  0  0  0  0  0
   -7.2830   17.6400  -32.8950 C   0  0  0  0  0  0  0  0  0  0  0  0
   -8.2587   17.4123  -32.4409 H   0  0  0  0  0  0  0  0  0  0  0  0
   -6.5320   16.6130  -33.4630 C   0  0  0  0  0  0  0  0  0  0  0  0
   -6.9144   15.5816  -33.4634 H   0  0  0  0  0  0  0  0  0  0  0  0
   -5.2960   16.9020  -34.0290 C   0  0  0  0  0  0  0  0  0  0  0  0
   -4.6982   16.1001  -34.4869 H   0  0  0  0  0  0  0  0  0  0  0  0
   -4.8160   18.2100  -34.0150 C   0  0  0  0  0  0  0  0  0  0  0  0
   -3.8360   18.4428  -34.4570 H   0  0  0  0  0  0  0  0  0  0  0  0
   -5.5910   19.2350  -33.4320 C   0  0  0  0  0  0  0  0  0  0  0  0
   -5.1500   20.4640  -33.3710 N   0  0  0  0  0  0  0  0  0  0  0  0
   -3.7590   20.8960  -33.2590 C   0  0  0  0  0  0  0  0  0  0  0  0
   -3.4364   21.3486  -34.2083 H   0  0  0  0  0  0  0  0  0  0  0  0
   -3.1192   20.0299  -33.0345 H   0  0  0  0  0  0  0  0  0  0  0  0
   -3.6450   21.9120  -32.1510 C   0  0  0  0  0  0  0  0  0  0  0  0
   -2.4850   21.9300  -31.3620 C   0  0  0  0  0  0  0  0  0  0  0  0
   -1.6874   21.1968  -31.5523 H   0  0  0  0  0  0  0  0  0  0  0  0
   -2.3300   22.8680  -30.3370 C   0  0  0  0  0  0  0  0  0  0  0  0
   -0.8620   22.8480  -29.3710 Cl  0  0  0  0  0  0  0  0  0  0  0  0
   -3.3300   23.8140  -30.0870 C   0  0  0  0  0  0  0  0  0  0  0  0
   -3.1400   24.7390  -29.0490 O   0  0  0  0  0  0  0  0  0  0  0  0
   -3.5040   24.5170  -27.6910 C   0  0  0  0  0  0  0  0  0  0  0  0
   -2.7530   24.9750  -27.0305 H   0  0  0  0  0  0  0  0  0  0  0  0
   -4.4878   24.9690  -27.4965 H   0  0  0  0  0  0  0  0  0  0  0  0
   -3.5525   23.4354  -27.4965 H   0  0  0  0  0  0  0  0  0  0  0  0
   -4.4910   23.8110  -30.8820 C   0  0  0  0  0  0  0  0  0  0  0  0
   -5.2806   24.5527  -30.6913 H   0  0  0  0  0  0  0  0  0  0  0  0
   -4.6560   22.8750  -31.9150 C   0  0  0  0  0  0  0  0  0  0  0  0
   -5.8490   22.9280  -32.7130 N   0  0  0  0  0  0  0  0  0  0  0  0
   -6.1130   23.8070  -33.2100 H   0  0  0  0  0  0  0  0  0  0  0  0
   -6.4750   22.1040  -32.8420 H   0  0  0  0  0  0  0  0  0  0  0  0
   -9.0000   20.0900  -32.6710 C   0  0  0  0  0  0  0  0  0  0  0  0
   -9.4348   19.4359  -33.4412 H   0  0  0  0  0  0  0  0  0  0  0  0
   -9.7800   21.0750  -32.0620 C   0  0  0  0  0  0  0  0  0  0  0  0
  -10.8317   21.2056  -32.3566 H   0  0  0  0  0  0  0  0  0  0  0  0
   -9.2220   21.8940  -31.0780 C   0  0  0  0  0  0  0  0  0  0  0  0
   -9.8273   22.6759  -30.5960 H   0  0  0  0  0  0  0  0  0  0  0  0
  1  2  1  0
  2  3  2  0
  3  4  1  0
  4  5  1  0
  5  6  1  0
  6  7  1  0
  6  8  2  0
  8  9  1  0
  8 10  1  0
 10 11  1  0
 10 12  2  0
 12 13  1  0
 12 14  1  0
 14 15  2  0
 15 16  1  0
 16 17  1  0
 16 18  1  0
 16 19  1  0
 19 20  2  0
 20 21  1  0
 20 22  1  0
 22 23  1  0
 22 24  2  0
 24 25  1  0
 25 26  1  0
 26 27  1  0
 26 28  1  0
 26 29  1  0
 24 30  1  0
 30 31  1  0
 30 32  2  0
 32 33  1  0
 33 34  1  0
 33 35  1  0
  4 36  2  0
 36 37  1  0
 36 38  1  0
 38 39  1  0
 38 40  2  0
 40 41  1  0
 40  2  1  0
 14  5  1  0
 32 19  1  0
M  END
>  <UniqueID>  (35) 
35

>  <SMILES>  (35) 
COc1cc(N)c(C/N=c2\ccccn2-c2ccccn2)cc1Cl

>  <Energy>  (35) 
54.12034644279033

>  <Genealogy>  (35) 
COc1cc(N)c(C/N=c2\ccccn2-c2ccccn2)cc1Cl (cis-trans isomerization)
COc1cc(N)c(C/N=c2\ccccn2-c2ccccn2)cc1Cl (3D coordinates assigned)
COc1cc(N)c(C/N=c2\ccccn2-c2ccccn2)cc1Cl (optimized conformer: 54.12034644279033 kcal/mol)

>  <smiles>  (35) 
COc1cc(N)c(CN=c2ccccn2-c2ccccn2)cc1Cl

>  <score_type>  (35) 
oracle

>  <origin>  (35) 
adg

>  <m_score__min__energy>  (35) 
-7.4400000000000004

>  <m_primary>  (35) 
energy

$$$$
35:0
     RDKit          3D

 41 43  0  0  0  0  0  0  0  0999 V2000
   -4.0720   24.2180  -28.6600 O   0  0  0  0  0  0  0  0  0  0  0  0
   -3.3710   24.8310  -29.5090 C   0  0  0  0  0  0  0  0  0  0  0  0
   -3.9320   25.1020  -30.7970 N   0  0  0  0  0  0  0  0  0  0  0  0
   -5.3540   25.2940  -31.0460 C   0  0  0  0  0  0  0  0  0  0  0  0
   -6.0470   23.9620  -31.0320 C   0  0  0  0  0  0  0  0  0  0  0  0
   -7.0760   23.7090  -30.1170 C   0  0  0  0  0  0  0  0  0  0  0  0
   -7.6850   22.4550  -30.0980 C   0  0  0  0  0  0  0  0  0  0  0  0
   -7.2720   21.4840  -30.9540 N   0  0  0  0  0  0  0  0  0  0  0  0
   -6.2620   21.6840  -31.8480 C   0  0  0  0  0  0  0  0  0  0  0  0
   -5.8670   20.6100  -32.7240 N   0  0  0  0  0  0  0  0  0  0  0  0
   -4.4900   20.2750  -33.0520 C   0  0  0  0  0  0  0  0  0  0  0  0
   -4.5610   18.9910  -33.8690 C   0  0  0  0  0  0  0  0  0  0  0  0
   -6.0120   18.8650  -34.3240 C   0  0  0  0  0  0  0  0  0  0  0  0
   -6.8260   19.7340  -33.3750 C   0  0  0  0  0  0  0  0  0  0  0  0
   -5.6280   22.9390  -31.8950 C   0  0  0  0  0  0  0  0  0  0  0  0
   -2.0470   25.2770  -29.1680 N   0  0  0  0  0  0  0  0  0  0  0  0
   -1.3100   24.8020  -28.0270 C   0  0  0  0  0  0  0  0  0  0  0  0
   -0.6730   23.5530  -28.0910 C   0  0  0  0  0  0  0  0  0  0  0  0
    0.0300   23.0610  -26.9880 C   0  0  0  0  0  0  0  0  0  0  0  0
    0.0900   23.8040  -25.8060 C   0  0  0  0  0  0  0  0  0  0  0  0
   -0.5600   25.0390  -25.7230 C   0  0  0  0  0  0  0  0  0  0  0  0
   -0.5000   26.0420  -24.0990 Br  0  0  0  0  0  0  0  0  0  0  0  0
   -1.2640   25.5350  -26.8260 C   0  0  0  0  0  0  0  0  0  0  0  0
   -5.7802   25.9377  -30.2624 H   0  0  0  0  0  0  0  0  0  0  0  0
   -5.4941   25.7708  -32.0273 H   0  0  0  0  0  0  0  0  0  0  0  0
   -7.4016   24.4937  -29.4183 H   0  0  0  0  0  0  0  0  0  0  0  0
   -8.5010   22.2514  -29.3890 H   0  0  0  0  0  0  0  0  0  0  0  0
   -4.0297   21.0806  -33.6429 H   0  0  0  0  0  0  0  0  0  0  0  0
   -3.8770   20.1472  -32.1476 H   0  0  0  0  0  0  0  0  0  0  0  0
   -3.8911   19.0536  -34.7392 H   0  0  0  0  0  0  0  0  0  0  0  0
   -4.2456   18.1183  -33.2783 H   0  0  0  0  0  0  0  0  0  0  0  0
   -6.1207   19.2230  -35.3584 H   0  0  0  0  0  0  0  0  0  0  0  0
   -6.3513   17.8188  -34.3038 H   0  0  0  0  0  0  0  0  0  0  0  0
   -7.5662   20.3243  -33.9351 H   0  0  0  0  0  0  0  0  0  0  0  0
   -7.3824   19.1274  -32.6453 H   0  0  0  0  0  0  0  0  0  0  0  0
   -4.8073   23.1171  -32.6055 H   0  0  0  0  0  0  0  0  0  0  0  0
   -1.6280   26.0560  -29.7240 H   0  0  0  0  0  0  0  0  0  0  0  0
   -0.7274   22.9580  -29.0146 H   0  0  0  0  0  0  0  0  0  0  0  0
    0.5372   22.0869  -27.0503 H   0  0  0  0  0  0  0  0  0  0  0  0
    0.6486   23.4172  -24.9409 H   0  0  0  0  0  0  0  0  0  0  0  0
   -1.7837   26.5018  -26.7543 H   0  0  0  0  0  0  0  0  0  0  0  0
  1  2  2  0
  2  3  1  0
  3  4  1  0
  4  5  1  0
  5  6  2  0
  6  7  1  0
  7  8  2  0
  8  9  1  0
  9 10  1  0
 10 11  1  0
 11 12  1  0
 12 13  1  0
 13 14  1  0
  9 15  2  0
  2 16  1  0
 16 17  1  0
 17 18  2  0
 18 19  1  0
 19 20  2  0
 20 21  1  0
 21 22  1  0
 21 23  2  0
 15  5  1  0
 23 17  1  0
 14 10  1  0
  4 24  1  0
  4 25  1  0
  6 26  1  0
  7 27  1  0
 11 28  1  0
 11 29  1  0
 12 30  1  0
 12 31  1  0
 13 32  1  0
 13 33  1  0
 14 34  1  0
 14 35  1  0
 15 36  1  0
 16 37  1  0
 18 38  1  0
 19 39  1  0
 20 40  1  0
 23 41  1  0
M  CHG  1   3  -1
M  END
>  <UniqueID>  (36) 
36

>  <SMILES>  (36) 
O=C([N-]Cc1ccnc(N2CCCC2)c1)Nc1cccc(Br)c1

>  <Energy>  (36) 
43.470353256513164

>  <Genealogy>  (36) 
O=C([N-]Cc1ccnc(N2CCCC2)c1)Nc1cccc(Br)c1 (protonated)
O=C([N-]Cc1ccnc(N2CCCC2)c1)Nc1cccc(Br)c1 (3D coordinates assigned)
O=C([N-]Cc1ccnc(N2CCCC2)c1)Nc1cccc(Br)c1 (nonaromatic ring conformer: 43.470353256513164 kcal/mol)

>  <smiles>  (36) 
O=C(NCc1ccnc(N2CCCC2)c1)Nc1cccc(Br)c1

>  <score_type>  (36) 
oracle

>  <origin>  (36) 
adg

>  <m_score__min__energy>  (36) 
-10.029999999999999

>  <m_primary>  (36) 
energy

$$$$
36:0
     RDKit          3D

 49 51  0  0  0  0  0  0  0  0999 V2000
   -1.5160   19.7190  -32.8230 O   0  0  0  0  0  0  0  0  0  0  0  0
   -0.9270   20.7630  -32.4710 N   0  0  0  0  0  0  0  0  0  0  0  0
   -0.2000   21.4600  -33.4090 O   0  0  0  0  0  0  0  0  0  0  0  0
   -1.0180   21.2370  -31.1150 C   0  0  0  0  0  0  0  0  0  0  0  0
   -0.4970   20.4730  -30.0620 C   0  0  0  0  0  0  0  0  0  0  0  0
   -0.5800   20.9280  -28.7470 C   0  0  0  0  0  0  0  0  0  0  0  0
   -1.1780   22.1680  -28.4470 C   0  0  0  0  0  0  0  0  0  0  0  0
   -1.2940   22.6110  -27.0770 N   0  0  0  0  0  0  0  0  0  0  0  0
   -0.5680   22.0160  -25.9540 C   0  0  0  0  0  0  0  0  0  0  0  0
   -0.1010   23.0990  -24.9680 C   0  0  0  0  0  0  0  0  0  0  0  0
   -0.6090   24.4310  -25.3600 N   0  0  0  0  0  0  0  0  0  0  0  0
   -0.7550   25.2920  -24.1720 C   0  0  0  0  0  0  0  0  0  0  0  0
   -1.3110   26.6740  -24.5730 C   0  0  0  0  0  0  0  0  0  0  0  0
   -1.3540   26.8510  -25.9780 O   0  0  0  0  0  0  0  0  0  0  0  0
   -0.0850   26.5720  -26.5310 C   0  0  0  0  0  0  0  0  0  0  0  0
    0.2790   25.0840  -26.3500 C   0  0  0  0  0  0  0  0  0  0  0  0
   -1.6890   22.9540  -29.5070 C   0  0  0  0  0  0  0  0  0  0  0  0
   -2.3770   24.5610  -29.2240 S   0  0  0  0  0  0  0  0  0  0  0  0
   -3.0910   24.5590  -27.9010 O   0  0  0  0  0  0  0  0  0  0  0  0
   -1.2920   25.6020  -29.1970 O   0  0  0  0  0  0  0  0  0  0  0  0
   -3.5140   24.9810  -30.4670 N   0  0  0  0  0  0  0  0  0  0  0  0
   -4.7470   24.2950  -30.7250 C   0  0  0  0  0  0  0  0  0  0  0  0
   -5.9870   24.7850  -30.2700 C   0  0  0  0  0  0  0  0  0  0  0  0
   -7.1650   24.0840  -30.5450 C   0  0  0  0  0  0  0  0  0  0  0  0
   -7.1180   22.8920  -31.2750 C   0  0  0  0  0  0  0  0  0  0  0  0
   -8.7290   21.9360  -31.6450 Br  0  0  0  0  0  0  0  0  0  0  0  0
   -5.8900   22.4030  -31.7310 C   0  0  0  0  0  0  0  0  0  0  0  0
   -4.7110   23.1030  -31.4600 C   0  0  0  0  0  0  0  0  0  0  0  0
   -1.6200   22.4720  -30.8250 C   0  0  0  0  0  0  0  0  0  0  0  0
   -0.0184   19.5058  -30.2750 H   0  0  0  0  0  0  0  0  0  0  0  0
   -0.1731   20.3106  -27.9325 H   0  0  0  0  0  0  0  0  0  0  0  0
   -1.9380   23.4000  -26.8490 H   0  0  0  0  0  0  0  0  0  0  0  0
   -1.2306   21.3123  -25.4289 H   0  0  0  0  0  0  0  0  0  0  0  0
    0.3163   21.4915  -26.3451 H   0  0  0  0  0  0  0  0  0  0  0  0
   -0.4737   22.8541  -23.9625 H   0  0  0  0  0  0  0  0  0  0  0  0
    0.9986   23.1282  -24.9765 H   0  0  0  0  0  0  0  0  0  0  0  0
   -1.4469   24.8153  -23.4620 H   0  0  0  0  0  0  0  0  0  0  0  0
    0.2323   25.4267  -23.7060 H   0  0  0  0  0  0  0  0  0  0  0  0
   -2.3307   26.7744  -24.1728 H   0  0  0  0  0  0  0  0  0  0  0  0
   -0.6386   27.4396  -24.1586 H   0  0  0  0  0  0  0  0  0  0  0  0
   -0.0994   26.8113  -27.6046 H   0  0  0  0  0  0  0  0  0  0  0  0
    0.6672   27.1836  -26.0112 H   0  0  0  0  0  0  0  0  0  0  0  0
    0.1774   24.5697  -27.3171 H   0  0  0  0  0  0  0  0  0  0  0  0
    1.3143   25.0211  -25.9836 H   0  0  0  0  0  0  0  0  0  0  0  0
   -6.0285   25.7226  -29.6962 H   0  0  0  0  0  0  0  0  0  0  0  0
   -8.1304   24.4707  -30.1866 H   0  0  0  0  0  0  0  0  0  0  0  0
   -5.8517   21.4651  -32.3044 H   0  0  0  0  0  0  0  0  0  0  0  0
   -3.7488   22.7155  -31.8261 H   0  0  0  0  0  0  0  0  0  0  0  0
   -2.0446   23.0721  -31.6433 H   0  0  0  0  0  0  0  0  0  0  0  0
  1  2  2  0
  2  3  1  0
  2  4  1  0
  4  5  2  0
  5  6  1  0
  6  7  2  0
  7  8  1  0
  8  9  1  0
  9 10  1  0
 10 11  1  0
 11 12  1  0
 12 13  1  0
 13 14  1  0
 14 15  1  0
 15 16  1  0
  7 17  1  0
 17 18  1  0
 18 19  2  0
 18 20  2  0
 18 21  1  0
 21 22  1  0
 22 23  2  0
 23 24  1  0
 24 25  2  0
 25 26  1  0
 25 27  1  0
 27 28  2  0
 17 29  2  0
 29  4  1  0
 16 11  1  0
 28 22  1  0
  5 30  1  0
  6 31  1  0
  8 32  1  0
  9 33  1  0
  9 34  1  0
 10 35  1  0
 10 36  1  0
 12 37  1  0
 12 38  1  0
 13 39  1  0
 13 40  1  0
 15 41  1  0
 15 42  1  0
 16 43  1  0
 16 44  1  0
 23 45  1  0
 24 46  1  0
 27 47  1  0
 28 48  1  0
 29 49  1  0
M  CHG  3   2   1   3  -1  21  -1
M  END
>  <UniqueID>  (37) 
37

>  <SMILES>  (37) 
O=[N+]([O-])c1ccc(NCCN2CCOCC2)c(S(=O)(=O)[N-]c2ccc(Br)cc2)c1

>  <Energy>  (37) 
65.0485642640265

>  <Genealogy>  (37) 
O=[N+]([O-])c1ccc(NCCN2CCOCC2)c(S(=O)(=O)[N-]c2ccc(Br)cc2)c1 (protonated)
O=[N+]([O-])c1ccc(NCCN2CCOCC2)c(S(=O)(=O)[N-]c2ccc(Br)cc2)c1 (3D coordinates assigned)
O=[N+]([O-])c1ccc(NCCN2CCOCC2)c(S(=O)(=O)[N-]c2ccc(Br)cc2)c1 (nonaromatic ring conformer: 65.0485642640265 kcal/mol)

>  <smiles>  (37) 
O=[N+]([O-])c1ccc(NCCN2CCOCC2)c(S(=O)(=O)Nc2ccc(Br)cc2)c1

>  <score_type>  (37) 
oracle

>  <origin>  (37) 
adg

>  <m_score__min__energy>  (37) 
-9.9600000000000009

>  <m_primary>  (37) 
energy

$$$$
37:0
     RDKit          3D

 44 46  0  0  0  0  0  0  0  0999 V2000
   -4.9260   24.6060  -29.4440 C   0  0  0  0  0  0  0  0  0  0  0  0
   -4.1530   24.4570  -30.6290 O   0  0  0  0  0  0  0  0  0  0  0  0
   -3.7340   23.2240  -31.1590 C   0  0  0  0  0  0  0  0  0  0  0  0
   -2.4710   22.6770  -30.8560 C   0  0  0  0  0  0  0  0  0  0  0  0
   -2.0890   21.4430  -31.3870 C   0  0  0  0  0  0  0  0  0  0  0  0
   -2.9590   20.7380  -32.2200 C   0  0  0  0  0  0  0  0  0  0  0  0
   -2.4790   19.1840  -32.8750 Cl  0  0  0  0  0  0  0  0  0  0  0  0
   -4.2140   21.2700  -32.5290 C   0  0  0  0  0  0  0  0  0  0  0  0
   -4.6050   22.5170  -32.0160 C   0  0  0  0  0  0  0  0  0  0  0  0
   -5.9710   23.0560  -32.3400 C   0  0  0  0  0  0  0  0  0  0  0  0
   -7.1020   22.7230  -30.9470 S   0  0  0  0  0  0  0  0  0  0  0  0
   -8.6390   22.7530  -31.9340 C   0  0  0  0  0  0  0  0  0  0  0  0
   -9.1630   21.3550  -32.1200 C   0  0  0  0  0  0  0  0  0  0  0  0
  -10.4110   21.1780  -32.0690 O   0  0  0  0  0  0  0  0  0  0  0  0
   -8.2860   20.2190  -32.2900 N   0  0  0  0  0  0  0  0  0  0  0  0
   -8.6170   18.9660  -31.5910 C   0  0  0  0  0  0  0  0  0  0  0  0
   -7.3570   18.1640  -31.2780 C   0  0  0  0  0  0  0  0  0  0  0  0
   -6.5790   17.9310  -32.5370 C   0  0  0  0  0  0  0  0  0  0  0  0
   -5.8780   16.7310  -32.7330 C   0  0  0  0  0  0  0  0  0  0  0  0
   -5.1310   16.5360  -33.8980 C   0  0  0  0  0  0  0  0  0  0  0  0
   -5.0660   17.5430  -34.8640 C   0  0  0  0  0  0  0  0  0  0  0  0
   -5.7480   18.7470  -34.6670 C   0  0  0  0  0  0  0  0  0  0  0  0
   -6.5150   18.9480  -33.5090 C   0  0  0  0  0  0  0  0  0  0  0  0
   -7.1910   20.2780  -33.2790 C   0  0  0  0  0  0  0  0  0  0  0  0
   -4.2770   24.4809  -28.5647 H   0  0  0  0  0  0  0  0  0  0  0  0
   -5.3794   25.6081  -29.4255 H   0  0  0  0  0  0  0  0  0  0  0  0
   -5.7193   23.8442  -29.4255 H   0  0  0  0  0  0  0  0  0  0  0  0
   -1.7817   23.2254  -30.1971 H   0  0  0  0  0  0  0  0  0  0  0  0
   -1.0997   21.0256  -31.1480 H   0  0  0  0  0  0  0  0  0  0  0  0
   -4.9004   20.7075  -33.1789 H   0  0  0  0  0  0  0  0  0  0  0  0
   -5.9066   24.1411  -32.5088 H   0  0  0  0  0  0  0  0  0  0  0  0
   -6.3529   22.5660  -33.2478 H   0  0  0  0  0  0  0  0  0  0  0  0
   -9.3947   23.3580  -31.4117 H   0  0  0  0  0  0  0  0  0  0  0  0
   -8.4244   23.1906  -32.9201 H   0  0  0  0  0  0  0  0  0  0  0  0
   -9.1341   19.2050  -30.6500 H   0  0  0  0  0  0  0  0  0  0  0  0
   -9.2637   18.3613  -32.2438 H   0  0  0  0  0  0  0  0  0  0  0  0
   -6.7360   18.7236  -30.5630 H   0  0  0  0  0  0  0  0  0  0  0  0
   -7.6417   17.1951  -30.8419 H   0  0  0  0  0  0  0  0  0  0  0  0
   -5.9166   15.9419  -31.9676 H   0  0  0  0  0  0  0  0  0  0  0  0
   -4.5939   15.5889  -34.0544 H   0  0  0  0  0  0  0  0  0  0  0  0
   -4.4776   17.3883  -35.7804 H   0  0  0  0  0  0  0  0  0  0  0  0
   -5.6832   19.5421  -35.4244 H   0  0  0  0  0  0  0  0  0  0  0  0
   -6.4370   20.9946  -32.9213 H   0  0  0  0  0  0  0  0  0  0  0  0
   -7.6364   20.5845  -34.2370 H   0  0  0  0  0  0  0  0  0  0  0  0
  1  2  1  0
  2  3  1  0
  3  4  2  0
  4  5  1  0
  5  6  2  0
  6  7  1  0
  6  8  1  0
  8  9  2  0
  9 10  1  0
 10 11  1  0
 11 12  1  0
 12 13  1  0
 13 14  2  0
 13 15  1  0
 15 16  1  0
 16 17  1  0
 17 18  1  0
 18 19  2  0
 19 20  1  0
 20 21  2  0
 21 22  1  0
 22 23  2  0
 23 24  1  0
  9  3  1  0
 24 15  1  0
 23 18  1  0
  1 25  1  0
  1 26  1  0
  1 27  1  0
  4 28  1  0
  5 29  1  0
  8 30  1  0
 10 31  1  0
 10 32  1  0
 12 33  1  0
 12 34  1  0
 16 35  1  0
 16 36  1  0
 17 37  1  0
 17 38  1  0
 19 39  1  0
 20 40  1  0
 21 41  1  0
 22 42  1  0
 24 43  1  0
 24 44  1  0
M  END
>  <UniqueID>  (38) 
38

>  <SMILES>  (38) 
COc1ccc(Cl)cc1CSCC(=O)N1CCc2ccccc2C1

>  <Energy>  (38) 
43.06623250109866

>  <Genealogy>  (38) 
COc1ccc(Cl)cc1CSCC(=O)N1CCc2ccccc2C1 (3D coordinates assigned)
COc1ccc(Cl)cc1CSCC(=O)N1CCc2ccccc2C1 (nonaromatic ring conformer: 43.06623250109866 kcal/mol)

>  <smiles>  (38) 
COc1ccc(Cl)cc1CSCC(=O)N1CCc2ccccc2C1

>  <score_type>  (38) 
oracle

>  <origin>  (38) 
adg

>  <m_score__min__energy>  (38) 
-9.5600000000000005

>  <m_primary>  (38) 
energy

$$$$
38:0
     RDKit          3D

 40 41  0  0  0  0  0  0  0  0999 V2000
   -5.8610   17.6500  -34.5230 C   0  0  0  0  0  0  0  0  0  0  0  0
   -6.5940   18.4330  -33.4860 C   0  0  0  0  0  0  0  0  0  0  0  0
   -7.6450   17.9710  -32.7180 C   0  0  0  0  0  0  0  0  0  0  0  0
   -7.9900   19.0170  -31.8880 C   0  0  0  0  0  0  0  0  0  0  0  0
   -7.1180   20.0450  -32.1990 C   0  0  0  0  0  0  0  0  0  0  0  0
   -7.0920   21.3700  -31.5740 C   0  0  0  0  0  0  0  0  0  0  0  0
   -7.7700   21.6890  -30.4530 N   0  0  0  0  0  0  0  0  0  0  0  0
   -7.4680   22.9560  -30.2240 N   0  0  0  0  0  0  0  0  0  0  0  0
   -6.6500   23.3790  -31.1750 N   0  0  0  0  0  0  0  0  0  0  0  0
   -6.0480   24.7050  -31.2100 C   0  0  0  0  0  0  0  0  0  0  0  0
   -4.9620   24.7930  -30.1840 C   0  0  0  0  0  0  0  0  0  0  0  0
   -3.8630   25.3290  -30.4890 O   0  0  0  0  0  0  0  0  0  0  0  0
   -5.1520   24.2140  -28.8850 N   0  0  0  0  0  0  0  0  0  0  0  0
   -4.1170   24.2370  -27.8520 C   0  0  0  0  0  0  0  0  0  0  0  0
   -3.1550   23.0570  -28.0110 C   0  0  0  0  0  0  0  0  0  0  0  0
   -3.7620   21.8880  -29.2890 S   0  0  0  0  0  0  0  0  0  0  0  0
   -2.6930   22.3540  -30.7130 C   0  0  0  0  0  0  0  0  0  0  0  0
   -1.2240   21.9800  -30.4980 C   0  0  0  0  0  0  0  0  0  0  0  0
   -3.2370   21.8150  -32.0390 C   0  0  0  0  0  0  0  0  0  0  0  0
   -6.3780   22.4150  -32.0360 N   0  0  0  0  0  0  0  0  0  0  0  0
   -6.2960   19.6680  -33.1520 O   0  0  0  0  0  0  0  0  0  0  0  0
   -5.1882   16.9313  -34.0323 H   0  0  0  0  0  0  0  0  0  0  0  0
   -6.5828   17.1069  -35.1507 H   0  0  0  0  0  0  0  0  0  0  0  0
   -5.2715   18.3345  -35.1507 H   0  0  0  0  0  0  0  0  0  0  0  0
   -8.1104   16.9752  -32.7597 H   0  0  0  0  0  0  0  0  0  0  0  0
   -8.7919   19.0310  -31.1352 H   0  0  0  0  0  0  0  0  0  0  0  0
   -5.6236   24.8877  -32.2083 H   0  0  0  0  0  0  0  0  0  0  0  0
   -6.8174   25.4603  -30.9919 H   0  0  0  0  0  0  0  0  0  0  0  0
   -6.0410   23.7010  -28.6860 H   0  0  0  0  0  0  0  0  0  0  0  0
   -3.5501   25.1763  -27.9320 H   0  0  0  0  0  0  0  0  0  0  0  0
   -4.6030   24.1620  -26.8680 H   0  0  0  0  0  0  0  0  0  0  0  0
   -2.1662   23.4356  -28.3092 H   0  0  0  0  0  0  0  0  0  0  0  0
   -3.0879   22.5252  -27.0504 H   0  0  0  0  0  0  0  0  0  0  0  0
   -2.7233   23.4518  -30.7752 H   0  0  0  0  0  0  0  0  0  0  0  0
   -1.0133   21.9264  -29.4197 H   0  0  0  0  0  0  0  0  0  0  0  0
   -1.0232   21.0021  -30.9599 H   0  0  0  0  0  0  0  0  0  0  0  0
   -0.5800   22.7428  -30.9599 H   0  0  0  0  0  0  0  0  0  0  0  0
   -4.0052   21.0538  -31.8379 H   0  0  0  0  0  0  0  0  0  0  0  0
   -3.6804   22.6400  -32.6159 H   0  0  0  0  0  0  0  0  0  0  0  0
   -2.4161   21.3640  -32.6159 H   0  0  0  0  0  0  0  0  0  0  0  0
  1  2  1  0
  2  3  2  0
  3  4  1  0
  4  5  2  0
  5  6  1  0
  6  7  1  0
  7  8  2  0
  8  9  1  0
  9 10  1  0
 10 11  1  0
 11 12  2  0
 11 13  1  0
 13 14  1  0
 14 15  1  0
 15 16  1  0
 16 17  1  0
 17 18  1  0
 17 19  1  0
  9 20  1  0
  5 21  1  0
 21  2  1  0
 20  6  2  0
  1 22  1  0
  1 23  1  0
  1 24  1  0
  3 25  1  0
  4 26  1  0
 10 27  1  0
 10 28  1  0
 13 29  1  0
 14 30  1  0
 14 31  1  0
 15 32  1  0
 15 33  1  0
 17 34  1  0
 18 35  1  0
 18 36  1  0
 18 37  1  0
 19 38  1  0
 19 39  1  0
 19 40  1  0
M  END
>  <UniqueID>  (39) 
39

>  <SMILES>  (39) 
Cc1ccc(-c2nnn(CC(=O)NCCSC(C)C)n2)o1

>  <Energy>  (39) 
91.08114195747594

>  <Genealogy>  (39) 
Cc1ccc(-c2nnn(CC(=O)NCCSC(C)C)n2)o1 (3D coordinates assigned)
Cc1ccc(-c2nnn(CC(=O)NCCSC(C)C)n2)o1 (optimized conformer: 91.08114195747594 kcal/mol)

>  <smiles>  (39) 
Cc1ccc(-c2nnn(CC(=O)NCCSC(C)C)n2)o1

>  <score_type>  (39) 
oracle

>  <origin>  (39) 
adg

>  <m_score__min__energy>  (39) 
-7.7699999999999996

>  <m_primary>  (39) 
energy

$$$$
39:0
     RDKit          3D

 52 56  0  0  0  0  0  0  0  0999 V2000
    1.0041   24.5468  -27.8509 H   0  0  0  0  0  0  0  0  0  0  0  0
    0.1010   24.0950  -28.2870 C   0  0  0  0  0  0  0  0  0  0  0  0
    0.0010   22.7060  -28.4010 C   0  0  0  0  0  0  0  0  0  0  0  0
    0.8194   22.0653  -28.0407 H   0  0  0  0  0  0  0  0  0  0  0  0
   -1.1370   22.1290  -28.9720 C   0  0  0  0  0  0  0  0  0  0  0  0
   -1.2121   21.0348  -29.0555 H   0  0  0  0  0  0  0  0  0  0  0  0
   -2.1880   22.9410  -29.4410 C   0  0  0  0  0  0  0  0  0  0  0  0
   -2.0920   24.3370  -29.2850 C   0  0  0  0  0  0  0  0  0  0  0  0
   -0.9440   24.9100  -28.7260 C   0  0  0  0  0  0  0  0  0  0  0  0
   -0.8650   26.0032  -28.6325 H   0  0  0  0  0  0  0  0  0  0  0  0
   -3.1550   25.1570  -29.6710 O   0  0  0  0  0  0  0  0  0  0  0  0
   -4.3910   24.6210  -30.0380 C   0  0  0  0  0  0  0  0  0  0  0  0
   -5.4900   25.4700  -30.2070 C   0  0  0  0  0  0  0  0  0  0  0  0
   -5.3594   26.5596  -30.1309 H   0  0  0  0  0  0  0  0  0  0  0  0
   -6.7520   24.9360  -30.4720 C   0  0  0  0  0  0  0  0  0  0  0  0
   -7.6134   25.6054  -30.6132 H   0  0  0  0  0  0  0  0  0  0  0  0
   -6.9220   23.5530  -30.5580 C   0  0  0  0  0  0  0  0  0  0  0  0
   -7.9233   23.1336  -30.7356 H   0  0  0  0  0  0  0  0  0  0  0  0
   -5.8230   22.6990  -30.4190 C   0  0  0  0  0  0  0  0  0  0  0  0
   -5.9653   21.6099  -30.4800 H   0  0  0  0  0  0  0  0  0  0  0  0
   -4.5330   23.2270  -30.2010 C   0  0  0  0  0  0  0  0  0  0  0  0
   -3.3550   22.3880  -30.1000 N   0  0  0  0  0  0  0  0  0  0  0  0
   -3.2460   21.1380  -30.8840 C   0  0  0  0  0  0  0  0  0  0  0  0
   -4.2525   20.8350  -31.2081 H   0  0  0  0  0  0  0  0  0  0  0  0
   -2.7848   20.3756  -30.2389 H   0  0  0  0  0  0  0  0  0  0  0  0
   -2.3530   21.3040  -32.1300 C   0  0  0  0  0  0  0  0  0  0  0  0
   -1.6445   20.4632  -32.1625 H   0  0  0  0  0  0  0  0  0  0  0  0
   -1.8501   22.2776  -32.0342 H   0  0  0  0  0  0  0  0  0  0  0  0
   -3.1310   21.3330  -33.4570 C   0  0  0  0  0  0  0  0  0  0  0  0
   -2.6860   20.5995  -34.1455 H   0  0  0  0  0  0  0  0  0  0  0  0
   -3.0674   22.3524  -33.8654 H   0  0  0  0  0  0  0  0  0  0  0  0
   -4.5480   21.0080  -33.2710 N   0  0  0  0  0  0  0  0  0  0  0  0
   -5.1180   19.8330  -33.2900 C   0  0  0  0  0  0  0  0  0  0  0  0
   -4.4380   18.6810  -33.7300 C   0  0  0  0  0  0  0  0  0  0  0  0
   -3.4019   18.7604  -34.0907 H   0  0  0  0  0  0  0  0  0  0  0  0
   -5.0760   17.4350  -33.7100 C   0  0  0  0  0  0  0  0  0  0  0  0
   -4.3280   16.2070  -34.1390 C   0  0  0  0  0  0  0  0  0  0  0  0
   -3.9910   15.6537  -33.2500 H   0  0  0  0  0  0  0  0  0  0  0  0
   -4.9894   15.5663  -34.7407 H   0  0  0  0  0  0  0  0  0  0  0  0
   -3.4553   16.5008  -34.7407 H   0  0  0  0  0  0  0  0  0  0  0  0
   -6.3500   17.3290  -33.2400 N   0  0  0  0  0  0  0  0  0  0  0  0
   -6.8010   16.3850  -33.2070 H   0  0  0  0  0  0  0  0  0  0  0  0
   -7.0530   18.4200  -32.8250 C   0  0  0  0  0  0  0  0  0  0  0  0
   -8.3730   18.2760  -32.3660 C   0  0  0  0  0  0  0  0  0  0  0  0
   -8.8359   17.2786  -32.3364 H   0  0  0  0  0  0  0  0  0  0  0  0
   -9.1010   19.3920  -31.9470 C   0  0  0  0  0  0  0  0  0  0  0  0
  -10.1330   19.2702  -31.5863 H   0  0  0  0  0  0  0  0  0  0  0  0
   -8.5220   20.6610  -31.9850 C   0  0  0  0  0  0  0  0  0  0  0  0
   -9.1000   21.5377  -31.6575 H   0  0  0  0  0  0  0  0  0  0  0  0
   -7.2100   20.8210  -32.4380 C   0  0  0  0  0  0  0  0  0  0  0  0
   -6.7632   21.8256  -32.4720 H   0  0  0  0  0  0  0  0  0  0  0  0
   -6.4540   19.7050  -32.8520 C   0  0  0  0  0  0  0  0  0  0  0  0
  1  2  1  0
  2  3  2  0
  3  4  1  0
  3  5  1  0
  5  6  1  0
  5  7  2  0
  7  8  1  0
  8  9  2  0
  9 10  1  0
  8 11  1  0
 11 12  1  0
 12 13  2  0
 13 14  1  0
 13 15  1  0
 15 16  1  0
 15 17  2  0
 17 18  1  0
 17 19  1  0
 19 20  1  0
 19 21  2  0
 21 22  1  0
 22 23  1  0
 23 24  1  0
 23 25  1  0
 23 26  1  0
 26 27  1  0
 26 28  1  0
 26 29  1  0
 29 30  1  0
 29 31  1  0
 29 32  1  0
 32 33  2  0
 33 34  1  0
 34 35  1  0
 34 36  2  0
 36 37  1  0
 37 38  1  0
 37 39  1  0
 37 40  1  0
 36 41  1  0
 41 42  1  0
 41 43  1  0
 43 44  2  0
 44 45  1  0
 44 46  1  0
 46 47  1  0
 46 48  2  0
 48 49  1  0
 48 50  1  0
 50 51  1  0
 50 52  2  0
  9  2  1  0
 21 12  1  0
 52 33  1  0
 22  7  1  0
 52 43  1  0
M  END
>  <UniqueID>  (40) 
40

>  <SMILES>  (40) 
Cc1c/c(=N\CCCN2c3ccccc3Oc3ccccc32)c2ccccc2[nH]1

>  <Energy>  (40) 
69.00802284763373

>  <Genealogy>  (40) 
Cc1c/c(=N\CCCN2c3ccccc3Oc3ccccc32)c2ccccc2[nH]1 (cis-trans isomerization)
Cc1c/c(=N\CCCN2c3ccccc3Oc3ccccc32)c2ccccc2[nH]1 (3D coordinates assigned)
Cc1c/c(=N\CCCN2c3ccccc3Oc3ccccc32)c2ccccc2[nH]1 (nonaromatic ring conformer: 69.00802284763373 kcal/mol)

>  <smiles>  (40) 
Cc1cc(=NCCCN2c3ccccc3Oc3ccccc32)c2ccccc2[nH]1

>  <score_type>  (40) 
oracle

>  <origin>  (40) 
adg

>  <m_score__min__energy>  (40) 
-10.15

>  <m_primary>  (40) 
energy

$$$$
40:0
     RDKit          3D

 54 57  0  0  0  0  0  0  0  0999 V2000
   -2.0870   22.9350  -28.7160 C   0  0  0  0  0  0  0  0  0  0  0  0
   -3.3460   23.3200  -29.4160 C   0  0  0  0  0  0  0  0  0  0  0  0
   -4.0820   22.5070  -30.2590 C   0  0  0  0  0  0  0  0  0  0  0  0
   -5.0890   23.3280  -30.7220 C   0  0  0  0  0  0  0  0  0  0  0  0
   -6.1360   22.9480  -31.7310 C   0  0  0  0  0  0  0  0  0  0  0  0
   -6.9950   21.8630  -31.2140 N   0  0  0  0  0  0  0  0  0  0  0  0
   -8.3990   21.9960  -31.6940 C   0  0  0  0  0  0  0  0  0  0  0  0
   -9.1430   20.6520  -31.7180 C   0  0  0  0  0  0  0  0  0  0  0  0
   -8.4600   19.6590  -32.6760 C   0  0  0  0  0  0  0  0  0  0  0  0
   -6.9350   19.8810  -32.7550 C   0  0  2  0  0  0  0  0  0  0  0  0
   -6.1910   18.6320  -33.2310 C   0  0  0  0  0  0  0  0  0  0  0  0
   -6.9440   17.5290  -33.5380 N   0  0  0  0  0  0  0  0  0  0  0  0
   -6.3780   16.3630  -33.9490 C   0  0  0  0  0  0  0  0  0  0  0  0
   -7.2360   15.1840  -34.2840 C   0  0  0  0  0  0  0  0  0  0  0  0
   -5.0300   16.2620  -34.0510 N   0  0  0  0  0  0  0  0  0  0  0  0
   -4.2270   17.3090  -33.7470 C   0  0  0  0  0  0  0  0  0  0  0  0
   -4.7750   18.5230  -33.3180 C   0  0  0  0  0  0  0  0  0  0  0  0
   -3.8360   19.6140  -33.0030 C   0  0  0  0  0  0  0  0  0  0  0  0
   -2.6380   19.3530  -32.3270 C   0  0  0  0  0  0  0  0  0  0  0  0
   -1.7510   20.4010  -32.0720 C   0  0  0  0  0  0  0  0  0  0  0  0
   -2.0390   21.6580  -32.5030 N   0  0  0  0  0  0  0  0  0  0  0  0
   -3.1790   21.9320  -33.1910 C   0  0  0  0  0  0  0  0  0  0  0  0
   -4.0930   20.9130  -33.4670 C   0  0  0  0  0  0  0  0  0  0  0  0
   -6.3970   20.5240  -31.4590 C   0  0  0  0  0  0  0  0  0  0  0  0
   -4.9330   24.5560  -30.1820 N   0  0  0  0  0  0  0  0  0  0  0  0
   -5.7300   25.7430  -30.4670 C   0  0  0  0  0  0  0  0  0  0  0  0
   -3.8660   24.5640  -29.3990 N   0  0  0  0  0  0  0  0  0  0  0  0
   -2.2430   22.9827  -27.6282 H   0  0  0  0  0  0  0  0  0  0  0  0
   -1.8073   21.9103  -29.0017 H   0  0  0  0  0  0  0  0  0  0  0  0
   -1.2820   23.6280  -29.0017 H   0  0  0  0  0  0  0  0  0  0  0  0
   -3.9050   21.4493  -30.5038 H   0  0  0  0  0  0  0  0  0  0  0  0
   -6.7594   23.8270  -31.9520 H   0  0  0  0  0  0  0  0  0  0  0  0
   -5.6337   22.5949  -32.6437 H   0  0  0  0  0  0  0  0  0  0  0  0
   -8.9365   22.6847  -31.0256 H   0  0  0  0  0  0  0  0  0  0  0  0
   -8.3647   22.3772  -32.7253 H   0  0  0  0  0  0  0  0  0  0  0  0
   -9.1494   20.2264  -30.7037 H   0  0  0  0  0  0  0  0  0  0  0  0
  -10.1705   20.8270  -32.0696 H   0  0  0  0  0  0  0  0  0  0  0  0
   -8.6511   18.6356  -32.3209 H   0  0  0  0  0  0  0  0  0  0  0  0
   -8.8771   19.8182  -33.6813 H   0  0  0  0  0  0  0  0  0  0  0  0
   -6.7266   20.6199  -33.5427 H   0  0  0  0  0  0  0  0  0  0  0  0
   -7.9860   17.5700  -33.4570 H   0  0  0  0  0  0  0  0  0  0  0  0
   -7.5829   14.7073  -33.3553 H   0  0  0  0  0  0  0  0  0  0  0  0
   -8.1042   15.5174  -34.8715 H   0  0  0  0  0  0  0  0  0  0  0  0
   -6.6518   14.4605  -34.8715 H   0  0  0  0  0  0  0  0  0  0  0  0
   -3.1358   17.2045  -33.8379 H   0  0  0  0  0  0  0  0  0  0  0  0
   -2.3975   18.3308  -31.9995 H   0  0  0  0  0  0  0  0  0  0  0  0
   -0.8180   20.2093  -31.5217 H   0  0  0  0  0  0  0  0  0  0  0  0
   -3.3818   22.9583  -33.5309 H   0  0  0  0  0  0  0  0  0  0  0  0
   -5.0057   21.1266  -34.0426 H   0  0  0  0  0  0  0  0  0  0  0  0
   -6.6367   19.8669  -30.6101 H   0  0  0  0  0  0  0  0  0  0  0  0
   -5.3098   20.6512  -31.5678 H   0  0  0  0  0  0  0  0  0  0  0  0
   -6.0435   26.2099  -29.5216 H   0  0  0  0  0  0  0  0  0  0  0  0
   -5.1283   26.4580  -31.0472 H   0  0  0  0  0  0  0  0  0  0  0  0
   -6.6196   25.4567  -31.0472 H   0  0  0  0  0  0  0  0  0  0  0  0
  1  2  1  0
  2  3  1  0
  3  4  2  0
  4  5  1  0
  5  6  1  0
  6  7  1  0
  7  8  1  0
  8  9  1  0
  9 10  1  0
 10 11  1  0
 11 12  2  0
 12 13  1  0
 13 14  1  0
 13 15  2  0
 15 16  1  0
 16 17  2  0
 17 18  1  0
 18 19  2  0
 19 20  1  0
 20 21  2  0
 21 22  1  0
 22 23  2  0
 10 24  1  0
  4 25  1  0
 25 26  1  0
 25 27  1  0
 27  2  2  0
 24  6  1  0
 17 11  1  0
 23 18  1  0
  1 28  1  0
  1 29  1  0
  1 30  1  0
  3 31  1  0
  5 32  1  0
  5 33  1  0
  7 34  1  0
  7 35  1  0
  8 36  1  0
  8 37  1  0
  9 38  1  0
  9 39  1  0
 10 40  1  6
 12 41  1  0
 14 42  1  0
 14 43  1  0
 14 44  1  0
 16 45  1  0
 19 46  1  0
 20 47  1  0
 22 48  1  0
 23 49  1  0
 24 50  1  0
 24 51  1  0
 26 52  1  0
 26 53  1  0
 26 54  1  0
M  CHG  1  12   1
M  END
>  <UniqueID>  (41) 
41

>  <SMILES>  (41) 
Cc1cc(CN2CCC[C@H](c3[nH+]c(C)ncc3-c3ccncc3)C2)n(C)n1

>  <Energy>  (41) 
104.8587422978483

>  <Genealogy>  (41) 
Cc1cc(CN2CCCC(c3[nH+]c(C)ncc3-c3ccncc3)C2)n(C)n1 (protonated)
Cc1cc(CN2CCC[C@H](c3[nH+]c(C)ncc3-c3ccncc3)C2)n(C)n1 (chirality)
Cc1cc(CN2CCC[C@H](c3[nH+]c(C)ncc3-c3ccncc3)C2)n(C)n1 (3D coordinates assigned)
Cc1cc(CN2CCC[C@H](c3[nH+]c(C)ncc3-c3ccncc3)C2)n(C)n1 (nonaromatic ring conformer: 104.8587422978483 kcal/mol)

>  <smiles>  (41) 
Cc1cc(CN2CCCC(c3nc(C)ncc3-c3ccncc3)C2)n(C)n1

>  <score_type>  (41) 
oracle

>  <origin>  (41) 
adg

>  <m_score__min__energy>  (41) 
-8.7200000000000006

>  <m_primary>  (41) 
energy

$$$$
41:0
     RDKit          3D

 53 55  0  0  0  0  0  0  0  0999 V2000
   -2.3730   20.4390  -28.6690 C   0  0  0  0  0  0  0  0  0  0  0  0
   -2.7330   21.2710  -27.4370 C   0  0  0  0  0  0  0  0  0  0  0  0
   -1.4860   21.5890  -26.6050 C   0  0  0  0  0  0  0  0  0  0  0  0
   -3.3990   22.5070  -27.8490 N   0  0  0  0  0  0  0  0  0  0  0  0
   -3.4510   23.6590  -27.1540 C   0  0  0  0  0  0  0  0  0  0  0  0
   -4.2050   24.5620  -27.8020 N   0  0  0  0  0  0  0  0  0  0  0  0
   -4.6120   23.8990  -28.9020 C   0  0  0  0  0  0  0  0  0  0  0  0
   -5.6670   24.5790  -30.1310 S   0  0  0  0  0  0  0  0  0  0  0  0
   -5.4270   26.0610  -30.2060 O   0  0  0  0  0  0  0  0  0  0  0  0
   -7.1000   24.3550  -29.7270 O   0  0  0  0  0  0  0  0  0  0  0  0
   -5.3840   23.8630  -31.7030 N   0  0  0  0  0  0  0  0  0  0  0  0
   -4.1970   22.9790  -31.7110 C   0  0  0  0  0  0  0  0  0  0  0  0
   -4.4470   21.6110  -32.3600 C   0  0  0  0  0  0  0  0  0  0  0  0
   -5.6700   20.9230  -31.7080 C   0  0  0  0  0  0  0  0  0  0  0  0
   -5.9750   19.5910  -32.3130 N   0  0  0  0  0  0  0  0  0  0  0  0
   -6.1220   19.6890  -33.7800 C   0  0  0  0  0  0  0  0  0  0  0  0
   -6.1080   18.2790  -34.4030 C   0  0  0  0  0  0  0  0  0  0  0  0
   -6.6860   17.2410  -33.5160 N   0  0  0  0  0  0  0  0  0  0  0  0
   -5.6490   16.5000  -32.7720 C   0  0  0  0  0  0  0  0  0  0  0  0
   -7.7200   17.7900  -32.6180 C   0  0  0  0  0  0  0  0  0  0  0  0
   -7.1910   18.9550  -31.7470 C   0  0  0  0  0  0  0  0  0  0  0  0
   -6.9120   21.8550  -31.8150 C   0  0  0  0  0  0  0  0  0  0  0  0
   -6.6110   23.2890  -32.2910 C   0  0  0  0  0  0  0  0  0  0  0  0
   -4.1310   22.6420  -28.9440 N   0  0  0  0  0  0  0  0  0  0  0  0
   -1.9550   19.4729  -28.3497 H   0  0  0  0  0  0  0  0  0  0  0  0
   -3.2769   20.2662  -29.2717 H   0  0  0  0  0  0  0  0  0  0  0  0
   -1.6283   20.9795  -29.2717 H   0  0  0  0  0  0  0  0  0  0  0  0
   -3.4189   20.6840  -26.8086 H   0  0  0  0  0  0  0  0  0  0  0  0
   -1.7332   21.5260  -25.5350 H   0  0  0  0  0  0  0  0  0  0  0  0
   -0.6929   20.8644  -26.8414 H   0  0  0  0  0  0  0  0  0  0  0  0
   -1.1368   22.6049  -26.8414 H   0  0  0  0  0  0  0  0  0  0  0  0
   -2.9475   23.8355  -26.1921 H   0  0  0  0  0  0  0  0  0  0  0  0
   -4.4370   25.5370  -27.5080 H   0  0  0  0  0  0  0  0  0  0  0  0
   -3.3924   23.4840  -32.2656 H   0  0  0  0  0  0  0  0  0  0  0  0
   -3.9309   22.7910  -30.6604 H   0  0  0  0  0  0  0  0  0  0  0  0
   -4.6381   21.7486  -33.4345 H   0  0  0  0  0  0  0  0  0  0  0  0
   -3.5597   20.9777  -32.2132 H   0  0  0  0  0  0  0  0  0  0  0  0
   -5.4202   20.7435  -30.6519 H   0  0  0  0  0  0  0  0  0  0  0  0
   -7.0747   20.1841  -34.0190 H   0  0  0  0  0  0  0  0  0  0  0  0
   -5.2860   20.2748  -34.1898 H   0  0  0  0  0  0  0  0  0  0  0  0
   -6.6893   18.3038  -35.3366 H   0  0  0  0  0  0  0  0  0  0  0  0
   -5.0558   18.0099  -34.5774 H   0  0  0  0  0  0  0  0  0  0  0  0
   -5.8167   16.6199  -31.6915 H   0  0  0  0  0  0  0  0  0  0  0  0
   -5.7008   15.4332  -33.0350 H   0  0  0  0  0  0  0  0  0  0  0  0
   -4.6565   16.8947  -33.0350 H   0  0  0  0  0  0  0  0  0  0  0  0
   -8.5579   18.1581  -33.2283 H   0  0  0  0  0  0  0  0  0  0  0  0
   -8.0368   16.9833  -31.9405 H   0  0  0  0  0  0  0  0  0  0  0  0
   -7.9796   19.7173  -31.6633 H   0  0  0  0  0  0  0  0  0  0  0  0
   -6.9202   18.5381  -30.7658 H   0  0  0  0  0  0  0  0  0  0  0  0
   -7.6190   21.4011  -32.5250 H   0  0  0  0  0  0  0  0  0  0  0  0
   -7.3154   21.9477  -30.7959 H   0  0  0  0  0  0  0  0  0  0  0  0
   -6.4986   23.2756  -33.3852 H   0  0  0  0  0  0  0  0  0  0  0  0
   -7.4506   23.9199  -31.9637 H   0  0  0  0  0  0  0  0  0  0  0  0
  1  2  1  0
  2  3  1  0
  2  4  1  0
  4  5  1  0
  5  6  2  0
  6  7  1  0
  7  8  1  0
  8  9  2  0
  8 10  2  0
  8 11  1  0
 11 12  1  0
 12 13  1  0
 13 14  1  0
 14 15  1  0
 15 16  1  0
 16 17  1  0
 17 18  1  0
 18 19  1  0
 18 20  1  0
 20 21  1  0
 14 22  1  0
 22 23  1  0
  7 24  2  0
 24  4  1  0
 23 11  1  0
 21 15  1  0
  1 25  1  0
  1 26  1  0
  1 27  1  0
  2 28  1  0
  3 29  1  0
  3 30  1  0
  3 31  1  0
  5 32  1  0
  6 33  1  0
 12 34  1  0
 12 35  1  0
 13 36  1  0
 13 37  1  0
 14 38  1  0
 16 39  1  0
 16 40  1  0
 17 41  1  0
 17 42  1  0
 19 43  1  0
 19 44  1  0
 19 45  1  0
 20 46  1  0
 20 47  1  0
 21 48  1  0
 21 49  1  0
 22 50  1  0
 22 51  1  0
 23 52  1  0
 23 53  1  0
M  CHG  1   6   1
M  END
>  <UniqueID>  (42) 
42

>  <SMILES>  (42) 
CC(C)n1c[nH+]c(S(=O)(=O)N2CCC(N3CCN(C)CC3)CC2)n1

>  <Energy>  (42) 
103.36884677874117

>  <Genealogy>  (42) 
CC(C)n1c[nH+]c(S(=O)(=O)N2CCC(N3CCN(C)CC3)CC2)n1 (protonated)
CC(C)n1c[nH+]c(S(=O)(=O)N2CCC(N3CCN(C)CC3)CC2)n1 (3D coordinates assigned)
CC(C)n1c[nH+]c(S(=O)(=O)N2CCC(N3CCN(C)CC3)CC2)n1 (nonaromatic ring conformer: 103.36884677874117 kcal/mol)

>  <smiles>  (42) 
CC(C)n1cnc(S(=O)(=O)N2CCC(N3CCN(C)CC3)CC2)n1

>  <score_type>  (42) 
oracle

>  <origin>  (42) 
adg

>  <m_score__min__energy>  (42) 
-8.2300000000000004

>  <m_primary>  (42) 
energy

$$$$
42:0
     RDKit          3D

 64 66  0  0  0  0  0  0  0  0999 V2000
   -3.6838   22.4270  -31.1831 H   0  0  0  0  0  0  0  0  0  0  0  0
   -3.7040   23.0590  -30.2830 C   0  0  0  0  0  0  0  0  0  0  0  0
   -4.8820   23.5660  -29.8680 C   0  0  0  0  0  0  0  0  0  0  0  0
   -6.1450   23.4110  -30.7010 C   0  0  1  0  0  0  0  0  0  0  0  0
   -6.4757   24.4285  -30.9568 H   0  0  0  0  0  0  0  0  0  0  0  0
   -5.8620   22.6930  -31.9960 C   0  0  0  0  0  0  0  0  0  0  0  0
   -4.8298   22.6978  -32.3762 H   0  0  0  0  0  0  0  0  0  0  0  0
   -6.7940   22.0500  -32.7100 C   0  0  0  0  0  0  0  0  0  0  0  0
   -7.3208   22.5734  -33.5215 H   0  0  0  0  0  0  0  0  0  0  0  0
   -7.1180   20.6370  -32.4110 C   0  0  0  0  0  0  0  0  0  0  0  0
   -8.3810   20.3000  -32.0280 C   0  0  0  0  0  0  0  0  0  0  0  0
   -9.4620   21.3510  -31.8980 C   0  0  0  0  0  0  0  0  0  0  0  0
   -9.6600   21.5435  -30.8332 H   0  0  0  0  0  0  0  0  0  0  0  0
   -9.1298   22.2807  -32.3831 H   0  0  0  0  0  0  0  0  0  0  0  0
  -10.3819   20.9928  -32.3831 H   0  0  0  0  0  0  0  0  0  0  0  0
   -8.7460   18.8970  -31.5840 C   0  0  0  0  0  0  0  0  0  0  0  0
   -9.7266   18.6457  -32.0145 H   0  0  0  0  0  0  0  0  0  0  0  0
   -8.7464   18.9097  -30.4841 H   0  0  0  0  0  0  0  0  0  0  0  0
   -7.7500   17.8140  -32.0030 C   0  0  0  0  0  0  0  0  0  0  0  0
   -7.9307   17.5460  -33.0544 H   0  0  0  0  0  0  0  0  0  0  0  0
   -7.8902   16.9375  -31.3533 H   0  0  0  0  0  0  0  0  0  0  0  0
   -6.3140   18.3070  -31.8530 C   0  0  0  0  0  0  0  0  0  0  0  0
   -5.6273   17.5120  -32.1792 H   0  0  0  0  0  0  0  0  0  0  0  0
   -6.1451   18.5613  -30.7962 H   0  0  0  0  0  0  0  0  0  0  0  0
   -6.0570   19.5750  -32.7050 C   0  0  0  0  0  0  0  0  0  0  0  0
   -4.6430   20.0980  -32.3540 C   0  0  0  0  0  0  0  0  0  0  0  0
   -4.5286   20.1403  -31.2608 H   0  0  0  0  0  0  0  0  0  0  0  0
   -3.8862   19.4203  -32.7759 H   0  0  0  0  0  0  0  0  0  0  0  0
   -4.5093   21.1050  -32.7759 H   0  0  0  0  0  0  0  0  0  0  0  0
   -6.0900   19.2340  -34.2150 C   0  0  0  0  0  0  0  0  0  0  0  0
   -6.1952   18.1466  -34.3431 H   0  0  0  0  0  0  0  0  0  0  0  0
   -6.9431   19.7431  -34.6873 H   0  0  0  0  0  0  0  0  0  0  0  0
   -5.1551   19.5701  -34.6873 H   0  0  0  0  0  0  0  0  0  0  0  0
   -7.3230   22.8080  -29.9280 C   0  0  0  0  0  0  0  0  0  0  0  0
   -7.1392   22.9021  -28.8476 H   0  0  0  0  0  0  0  0  0  0  0  0
   -8.2469   23.3440  -30.1908 H   0  0  0  0  0  0  0  0  0  0  0  0
   -7.4284   21.7451  -30.1908 H   0  0  0  0  0  0  0  0  0  0  0  0
   -4.9430   24.4680  -28.6520 C   0  0  0  0  0  0  0  0  0  0  0  0
   -5.9052   24.3104  -28.1427 H   0  0  0  0  0  0  0  0  0  0  0  0
   -4.8368   25.5067  -28.9980 H   0  0  0  0  0  0  0  0  0  0  0  0
   -3.8090   24.1860  -27.6610 C   0  0  0  0  0  0  0  0  0  0  0  0
   -3.9499   23.1853  -27.2265 H   0  0  0  0  0  0  0  0  0  0  0  0
   -3.8310   24.9518  -26.8717 H   0  0  0  0  0  0  0  0  0  0  0  0
   -2.4510   24.2420  -28.3620 C   0  0  0  0  0  0  0  0  0  0  0  0
   -1.6672   23.9271  -27.6574 H   0  0  0  0  0  0  0  0  0  0  0  0
   -2.2680   25.2730  -28.6988 H   0  0  0  0  0  0  0  0  0  0  0  0
   -2.4350   23.3260  -29.5650 C   0  0  0  0  0  0  0  0  0  0  0  0
   -1.2850   22.8710  -30.0920 C   0  0  0  0  0  0  0  0  0  0  0  0
   -0.5732   23.6034  -30.5006 H   0  0  0  0  0  0  0  0  0  0  0  0
   -0.9280   21.4430  -30.1510 C   0  0  0  0  0  0  0  0  0  0  0  0
   -0.9380   20.7120  -31.2870 N   0  0  0  0  0  0  0  0  0  0  0  0
   -1.2980   21.1610  -32.6270 C   0  0  0  0  0  0  0  0  0  0  0  0
   -1.9846   22.0173  -32.5546 H   0  0  0  0  0  0  0  0  0  0  0  0
   -0.3897   21.4640  -33.1685 H   0  0  0  0  0  0  0  0  0  0  0  0
   -1.7912   20.3403  -33.1685 H   0  0  0  0  0  0  0  0  0  0  0  0
   -0.6730   19.4440  -30.9130 C   0  0  0  0  0  0  0  0  0  0  0  0
   -0.6169   18.5734  -31.5830 H   0  0  0  0  0  0  0  0  0  0  0  0
   -0.4840   19.4250  -29.5450 C   0  0  0  0  0  0  0  0  0  0  0  0
   -0.2316   18.5394  -28.9434 H   0  0  0  0  0  0  0  0  0  0  0  0
   -0.6610   20.6750  -29.0710 N   0  0  0  0  0  0  0  0  0  0  0  0
   -0.5760   21.0800  -27.6700 C   0  0  0  0  0  0  0  0  0  0  0  0
   -0.7590   20.2083  -27.0246 H   0  0  0  0  0  0  0  0  0  0  0  0
    0.4265   21.4839  -27.4652 H   0  0  0  0  0  0  0  0  0  0  0  0
   -1.3315   21.8528  -27.4652 H   0  0  0  0  0  0  0  0  0  0  0  0
  1  2  1  0
  2  3  2  0
  3  4  1  0
  4  5  1  6
  4  6  1  0
  6  7  1  0
  6  8  2  0
  8  9  1  0
  8 10  1  0
 10 11  2  0
 11 12  1  0
 12 13  1  0
 12 14  1  0
 12 15  1  0
 11 16  1  0
 16 17  1  0
 16 18  1  0
 16 19  1  0
 19 20  1  0
 19 21  1  0
 19 22  1  0
 22 23  1  0
 22 24  1  0
 22 25  1  0
 25 26  1  0
 26 27  1  0
 26 28  1  0
 26 29  1  0
 25 30  1  0
 30 31  1  0
 30 32  1  0
 30 33  1  0
  4 34  1  0
 34 35  1  0
 34 36  1  0
 34 37  1  0
  3 38  1  0
 38 39  1  0
 38 40  1  0
 38 41  1  0
 41 42  1  0
 41 43  1  0
 41 44  1  0
 44 45  1  0
 44 46  1  0
 44 47  1  0
 47 48  2  0
 48 49  1  0
 48 50  1  0
 50 51  1  0
 51 52  1  0
 52 53  1  0
 52 54  1  0
 52 55  1  0
 51 56  1  0
 56 57  1  0
 56 58  2  0
 58 59  1  0
 58 60  1  0
 60 61  1  0
 61 62  1  0
 61 63  1  0
 61 64  1  0
 47  2  1  0
 60 50  2  0
 25 10  1  0
M  CHG  1  60   1
M  END
>  <UniqueID>  (43) 
43

>  <SMILES>  (43) 
CC1=C(/C=C/[C@@H](C)C2=C/C(=C/c3n(C)cc[n+]3C)CCC2)C(C)(C)CCC1

>  <Energy>  (43) 
101.67060200341493

>  <Genealogy>  (43) 
CC1=C(C=C[C@@H](C)C2=CC(=Cc3n(C)cc[n+]3C)CCC2)C(C)(C)CCC1 (chirality)
CC1=C(/C=C/[C@@H](C)C2=C/C(=C/c3n(C)cc[n+]3C)CCC2)C(C)(C)CCC1 (cis-trans isomerization)
CC1=C(/C=C/[C@@H](C)C2=C/C(=C/c3n(C)cc[n+]3C)CCC2)C(C)(C)CCC1 (3D coordinates assigned)
CC1=C(/C=C/[C@@H](C)C2=C/C(=C/c3n(C)cc[n+]3C)CCC2)C(C)(C)CCC1 (nonaromatic ring conformer: 101.67060200341493 kcal/mol)

>  <smiles>  (43) 
CC1=C(C=CC(C)C2=CC(=Cc3n(C)cc[n+]3C)CCC2)C(C)(C)CCC1

>  <score_type>  (43) 
oracle

>  <origin>  (43) 
adg

>  <m_score__min__energy>  (43) 
-9.4399999999999995

>  <m_primary>  (43) 
energy

$$$$
43:0
     RDKit          3D

 42 44  0  0  0  0  0  0  0  0999 V2000
   -2.1802   20.9185  -31.4755 H   0  0  0  0  0  0  0  0  0  0  0  0
   -2.4830   21.8350  -30.9480 C   0  0  0  0  0  0  0  0  0  0  0  0
   -1.7570   22.2670  -29.8370 C   0  0  0  0  0  0  0  0  0  0  0  0
   -0.8989   21.6784  -29.4804 H   0  0  0  0  0  0  0  0  0  0  0  0
   -2.1180   23.4500  -29.1730 C   0  0  0  0  0  0  0  0  0  0  0  0
   -1.4030   23.9350  -28.0280 N   0  0  0  0  0  0  0  0  0  0  0  0
   -0.7640   25.5350  -27.8320 S   0  0  0  0  0  0  0  0  0  0  0  0
   -1.2130   26.4110  -28.9670 O   0  0  0  0  0  0  0  0  0  0  0  0
    0.7350   25.4600  -27.8420 O   0  0  0  0  0  0  0  0  0  0  0  0
   -1.2920   26.2180  -26.2740 C   0  0  0  0  0  0  0  0  0  0  0  0
   -0.8459   25.6409  -25.4506 H   0  0  0  0  0  0  0  0  0  0  0  0
   -0.9675   27.2668  -26.2046 H   0  0  0  0  0  0  0  0  0  0  0  0
   -2.3887   26.1681  -26.2046 H   0  0  0  0  0  0  0  0  0  0  0  0
   -3.2080   24.1930  -29.6420 C   0  0  0  0  0  0  0  0  0  0  0  0
   -3.4908   25.1248  -29.1303 H   0  0  0  0  0  0  0  0  0  0  0  0
   -3.9470   23.7620  -30.7610 C   0  0  0  0  0  0  0  0  0  0  0  0
   -5.0350   24.4940  -31.2650 O   0  0  0  0  0  0  0  0  0  0  0  0
   -6.1710   24.8820  -30.4980 C   0  0  0  0  0  0  0  0  0  0  0  0
   -5.9350   24.8014  -29.4266 H   0  0  0  0  0  0  0  0  0  0  0  0
   -6.4373   25.9220  -30.7375 H   0  0  0  0  0  0  0  0  0  0  0  0
   -7.0179   24.2222  -30.7375 H   0  0  0  0  0  0  0  0  0  0  0  0
   -3.5970   22.5620  -31.3970 C   0  0  0  0  0  0  0  0  0  0  0  0
   -4.3150   22.1530  -32.5730 N   0  0  0  0  0  0  0  0  0  0  0  0
   -4.6500   20.9400  -32.9260 C   0  0  0  0  0  0  0  0  0  0  0  0
   -3.7160   20.0390  -33.4800 C   0  0  0  0  0  0  0  0  0  0  0  0
   -2.6723   20.3531  -33.6285 H   0  0  0  0  0  0  0  0  0  0  0  0
   -4.1140   18.7470  -33.8410 C   0  0  0  0  0  0  0  0  0  0  0  0
   -3.1240   17.7840  -34.4150 C   0  0  0  0  0  0  0  0  0  0  0  0
   -2.5960   17.2704  -33.5980 H   0  0  0  0  0  0  0  0  0  0  0  0
   -3.6502   17.0429  -35.0346 H   0  0  0  0  0  0  0  0  0  0  0  0
   -2.3977   18.3305  -35.0346 H   0  0  0  0  0  0  0  0  0  0  0  0
   -5.3960   18.3500  -33.6320 N   0  0  0  0  0  0  0  0  0  0  0  0
   -6.3250   19.1740  -33.0840 C   0  0  0  0  0  0  0  0  0  0  0  0
   -7.6310   18.7090  -32.8870 C   0  0  0  0  0  0  0  0  0  0  0  0
   -7.8976   17.6825  -33.1788 H   0  0  0  0  0  0  0  0  0  0  0  0
   -8.5960   19.5450  -32.3210 C   0  0  0  0  0  0  0  0  0  0  0  0
   -9.6206   19.1752  -32.1677 H   0  0  0  0  0  0  0  0  0  0  0  0
   -8.2630   20.8500  -31.9490 C   0  0  0  0  0  0  0  0  0  0  0  0
   -9.4820   21.8930  -31.2380 Cl  0  0  0  0  0  0  0  0  0  0  0  0
   -6.9620   21.3250  -32.1400 C   0  0  0  0  0  0  0  0  0  0  0  0
   -6.7068   22.3532  -31.8440 H   0  0  0  0  0  0  0  0  0  0  0  0
   -5.9740   20.4940  -32.7100 C   0  0  0  0  0  0  0  0  0  0  0  0
  1  2  1  0
  2  3  2  0
  3  4  1  0
  3  5  1  0
  5  6  1  0
  6  7  1  0
  7  8  2  0
  7  9  2  0
  7 10  1  0
 10 11  1  0
 10 12  1  0
 10 13  1  0
  5 14  2  0
 14 15  1  0
 14 16  1  0
 16 17  1  0
 17 18  1  0
 18 19  1  0
 18 20  1  0
 18 21  1  0
 16 22  2  0
 22 23  1  0
 23 24  2  0
 24 25  1  0
 25 26  1  0
 25 27  2  0
 27 28  1  0
 28 29  1  0
 28 30  1  0
 28 31  1  0
 27 32  1  0
 32 33  1  0
 33 34  2  0
 34 35  1  0
 34 36  1  0
 36 37  1  0
 36 38  2  0
 38 39  1  0
 38 40  1  0
 40 41  1  0
 40 42  2  0
 22  2  1  0
 42 24  1  0
 42 33  1  0
M  CHG  2   6  -1  32  -1
M  END
>  <UniqueID>  (44) 
44

>  <SMILES>  (44) 
COc1cc([N-]S(C)(=O)=O)ccc1/N=c1\cc(C)[n-]c2ccc(Cl)cc12

>  <Energy>  (44) 
55.851590660787274

>  <Genealogy>  (44) 
COc1cc([N-]S(C)(=O)=O)ccc1N=c1cc(C)[n-]c2ccc(Cl)cc12 (protonated)
COc1cc([N-]S(C)(=O)=O)ccc1/N=c1\cc(C)[n-]c2ccc(Cl)cc12 (cis-trans isomerization)
COc1cc([N-]S(C)(=O)=O)ccc1/N=c1\cc(C)[n-]c2ccc(Cl)cc12 (3D coordinates assigned)
COc1cc([N-]S(C)(=O)=O)ccc1/N=c1\cc(C)[n-]c2ccc(Cl)cc12 (optimized conformer: 55.851590660787274 kcal/mol)

>  <smiles>  (44) 
COc1cc(NS(C)(=O)=O)ccc1N=c1cc(C)[nH]c2ccc(Cl)cc12

>  <score_type>  (44) 
oracle

>  <origin>  (44) 
adg

>  <m_score__min__energy>  (44) 
-10.15

>  <m_primary>  (44) 
energy

$$$$
44:0
     RDKit          3D

 46 48  0  0  0  0  0  0  0  0999 V2000
   -5.3840   25.6390  -30.7810 C   0  0  0  0  0  0  0  0  0  0  0  0
   -4.0520   25.1360  -30.7530 O   0  0  0  0  0  0  0  0  0  0  0  0
   -3.5820   24.1820  -29.8380 C   0  0  0  0  0  0  0  0  0  0  0  0
   -3.1180   24.5370  -28.5580 C   0  0  0  0  0  0  0  0  0  0  0  0
   -2.6580   23.5550  -27.6760 C   0  0  0  0  0  0  0  0  0  0  0  0
   -2.6420   22.2040  -28.0560 C   0  0  0  0  0  0  0  0  0  0  0  0
   -2.1410   21.1440  -27.0940 C   0  0  0  0  0  0  0  0  0  0  0  0
   -0.7970   21.4240  -26.5370 N   0  0  0  0  0  0  0  0  0  0  0  0
   -0.7880   22.5010  -25.5200 C   0  0  0  0  0  0  0  0  0  0  0  0
    0.6370   23.0080  -25.2620 C   0  0  0  0  0  0  0  0  0  0  0  0
    1.2620   23.5440  -26.4940 N   0  0  0  0  0  0  0  0  0  0  0  0
    1.3820   25.0190  -26.5330 C   0  0  0  0  0  0  0  0  0  0  0  0
    0.7170   25.7240  -25.3670 C   0  0  0  0  0  0  0  0  0  0  0  0
   -0.6250   26.1300  -25.4390 C   0  0  0  0  0  0  0  0  0  0  0  0
   -1.2190   26.7800  -24.3570 C   0  0  0  0  0  0  0  0  0  0  0  0
   -0.4750   27.0000  -23.1980 C   0  0  0  0  0  0  0  0  0  0  0  0
    0.8160   26.5800  -23.1260 N   0  0  0  0  0  0  0  0  0  0  0  0
    1.4190   25.9490  -24.1710 C   0  0  0  0  0  0  0  0  0  0  0  0
    0.7510   22.9590  -27.7560 C   0  0  0  0  0  0  0  0  0  0  0  0
    0.2840   21.5130  -27.5490 C   0  0  0  0  0  0  0  0  0  0  0  0
   -3.1290   21.8490  -29.3250 C   0  0  0  0  0  0  0  0  0  0  0  0
   -3.5800   22.8300  -30.2130 C   0  0  0  0  0  0  0  0  0  0  0  0
   -4.2040   22.3010  -31.9440 Br  0  0  0  0  0  0  0  0  0  0  0  0
   -5.7460   25.7757  -29.7513 H   0  0  0  0  0  0  0  0  0  0  0  0
   -5.4001   26.6051  -31.3067 H   0  0  0  0  0  0  0  0  0  0  0  0
   -6.0347   24.9247  -31.3067 H   0  0  0  0  0  0  0  0  0  0  0  0
   -3.1172   25.5929  -28.2498 H   0  0  0  0  0  0  0  0  0  0  0  0
   -2.3053   23.8437  -26.6749 H   0  0  0  0  0  0  0  0  0  0  0  0
   -2.8532   21.0701  -26.2589 H   0  0  0  0  0  0  0  0  0  0  0  0
   -2.0604   20.2075  -27.6654 H   0  0  0  0  0  0  0  0  0  0  0  0
   -1.4072   23.3371  -25.8772 H   0  0  0  0  0  0  0  0  0  0  0  0
   -1.1893   22.0956  -24.5795 H   0  0  0  0  0  0  0  0  0  0  0  0
    0.5996   23.8058  -24.5057 H   0  0  0  0  0  0  0  0  0  0  0  0
    1.2436   22.1597  -24.9122 H   0  0  0  0  0  0  0  0  0  0  0  0
    2.4508   25.2791  -26.5302 H   0  0  0  0  0  0  0  0  0  0  0  0
    0.8659   25.3558  -27.4442 H   0  0  0  0  0  0  0  0  0  0  0  0
   -1.2093   25.9352  -26.3504 H   0  0  0  0  0  0  0  0  0  0  0  0
   -2.2647   27.1160  -24.4174 H   0  0  0  0  0  0  0  0  0  0  0  0
   -0.9336   27.5143  -22.3406 H   0  0  0  0  0  0  0  0  0  0  0  0
    1.3580   26.7440  -22.2470 H   0  0  0  0  0  0  0  0  0  0  0  0
    2.4624   25.6133  -24.0783 H   0  0  0  0  0  0  0  0  0  0  0  0
   -0.0968   23.5620  -28.1133 H   0  0  0  0  0  0  0  0  0  0  0  0
    1.5662   22.9590  -28.4946 H   0  0  0  0  0  0  0  0  0  0  0  0
   -0.0901   21.1190  -28.5055 H   0  0  0  0  0  0  0  0  0  0  0  0
    1.1405   20.9249  -27.1878 H   0  0  0  0  0  0  0  0  0  0  0  0
   -3.1557   20.7903  -29.6224 H   0  0  0  0  0  0  0  0  0  0  0  0
  1  2  1  0
  2  3  1  0
  3  4  2  0
  4  5  1  0
  5  6  2  0
  6  7  1  0
  7  8  1  0
  8  9  1  0
  9 10  1  0
 10 11  1  0
 11 12  1  0
 12 13  1  0
 13 14  2  0
 14 15  1  0
 15 16  2  0
 16 17  1  0
 17 18  2  0
 11 19  1  0
 19 20  1  0
  6 21  1  0
 21 22  2  0
 22 23  1  0
 22  3  1  0
 20  8  1  0
 18 13  1  0
  1 24  1  0
  1 25  1  0
  1 26  1  0
  4 27  1  0
  5 28  1  0
  7 29  1  0
  7 30  1  0
  9 31  1  0
  9 32  1  0
 10 33  1  0
 10 34  1  0
 12 35  1  0
 12 36  1  0
 14 37  1  0
 15 38  1  0
 16 39  1  0
 17 40  1  0
 18 41  1  0
 19 42  1  0
 19 43  1  0
 20 44  1  0
 20 45  1  0
 21 46  1  0
M  CHG  1  17   1
M  END
>  <UniqueID>  (45) 
45

>  <SMILES>  (45) 
COc1ccc(CN2CCN(Cc3ccc[nH+]c3)CC2)cc1Br

>  <Energy>  (45) 
60.45912309216265

>  <Genealogy>  (45) 
COc1ccc(CN2CCN(Cc3ccc[nH+]c3)CC2)cc1Br (protonated)
COc1ccc(CN2CCN(Cc3ccc[nH+]c3)CC2)cc1Br (3D coordinates assigned)
COc1ccc(CN2CCN(Cc3ccc[nH+]c3)CC2)cc1Br (nonaromatic ring conformer: 60.45912309216265 kcal/mol)

>  <smiles>  (45) 
COc1ccc(CN2CCN(Cc3cccnc3)CC2)cc1Br

>  <score_type>  (45) 
oracle

>  <origin>  (45) 
adg

>  <m_score__min__energy>  (45) 
-8.0299999999999994

>  <m_primary>  (45) 
energy

$$$$
45:0
     RDKit          3D

 46 47  0  0  0  0  0  0  0  0999 V2000
   -3.1420   18.9460  -26.2600 C   0  0  0  0  0  0  0  0  0  0  0  0
   -2.4110   19.6050  -27.4240 C   0  0  0  0  0  0  0  0  0  0  0  0
   -2.2340   21.0020  -27.1850 O   0  0  0  0  0  0  0  0  0  0  0  0
   -2.6250   22.0350  -28.0520 C   0  0  0  0  0  0  0  0  0  0  0  0
   -3.0380   23.2470  -27.4890 C   0  0  0  0  0  0  0  0  0  0  0  0
   -3.4430   24.3080  -28.3030 C   0  0  0  0  0  0  0  0  0  0  0  0
   -3.4490   24.1780  -29.6970 C   0  0  0  0  0  0  0  0  0  0  0  0
   -3.8690   25.2840  -30.4560 O   0  0  0  0  0  0  0  0  0  0  0  0
   -5.2050   25.7780  -30.5820 C   0  0  0  0  0  0  0  0  0  0  0  0
   -6.1870   24.9490  -29.7410 C   0  0  0  0  0  0  0  0  0  0  0  0
   -6.9070   23.8330  -30.5200 C   0  0  0  0  0  0  0  0  0  0  0  0
   -6.5120   23.7580  -32.0070 C   0  0  0  0  0  0  0  0  0  0  0  0
   -5.5600   22.6020  -32.3500 C   0  0  0  0  0  0  0  0  0  0  0  0
   -5.8920   21.4200  -31.6170 O   0  0  0  0  0  0  0  0  0  0  0  0
   -6.9730   20.5540  -31.8590 C   0  0  0  0  0  0  0  0  0  0  0  0
   -8.2400   21.1260  -32.0380 C   0  0  0  0  0  0  0  0  0  0  0  0
   -9.3570   20.3220  -32.2820 C   0  0  0  0  0  0  0  0  0  0  0  0
   -9.2180   18.9340  -32.3480 C   0  0  0  0  0  0  0  0  0  0  0  0
   -7.9630   18.3500  -32.1660 C   0  0  0  0  0  0  0  0  0  0  0  0
   -6.8430   19.1510  -31.9190 C   0  0  0  0  0  0  0  0  0  0  0  0
   -3.0300   22.9600  -30.2680 C   0  0  0  0  0  0  0  0  0  0  0  0
   -2.6270   21.8980  -29.4530 C   0  0  0  0  0  0  0  0  0  0  0  0
   -2.7296   19.3178  -25.3104 H   0  0  0  0  0  0  0  0  0  0  0  0
   -4.2133   19.1894  -26.3148 H   0  0  0  0  0  0  0  0  0  0  0  0
   -3.0106   17.8553  -26.3148 H   0  0  0  0  0  0  0  0  0  0  0  0
   -1.4253   19.1320  -27.5453 H   0  0  0  0  0  0  0  0  0  0  0  0
   -3.0118   19.4763  -28.3364 H   0  0  0  0  0  0  0  0  0  0  0  0
   -3.0440   23.3659  -26.3955 H   0  0  0  0  0  0  0  0  0  0  0  0
   -3.7606   25.2557  -27.8436 H   0  0  0  0  0  0  0  0  0  0  0  0
   -5.2344   26.8233  -30.2407 H   0  0  0  0  0  0  0  0  0  0  0  0
   -5.5044   25.7054  -31.6380 H   0  0  0  0  0  0  0  0  0  0  0  0
   -5.6269   24.4859  -28.9153 H   0  0  0  0  0  0  0  0  0  0  0  0
   -6.9668   25.6430  -29.3942 H   0  0  0  0  0  0  0  0  0  0  0  0
   -6.6654   22.8692  -30.0480 H   0  0  0  0  0  0  0  0  0  0  0  0
   -7.9826   24.0610  -30.4855 H   0  0  0  0  0  0  0  0  0  0  0  0
   -7.4295   23.6369  -32.6016 H   0  0  0  0  0  0  0  0  0  0  0  0
   -5.9734   24.6890  -32.2375 H   0  0  0  0  0  0  0  0  0  0  0  0
   -5.6303   22.3875  -33.4266 H   0  0  0  0  0  0  0  0  0  0  0  0
   -4.5372   22.9027  -32.0788 H   0  0  0  0  0  0  0  0  0  0  0  0
   -8.3565   22.2186  -31.9859 H   0  0  0  0  0  0  0  0  0  0  0  0
  -10.3460   20.7828  -32.4221 H   0  0  0  0  0  0  0  0  0  0  0  0
  -10.0965   18.3014  -32.5432 H   0  0  0  0  0  0  0  0  0  0  0  0
   -7.8545   17.2565  -32.2170 H   0  0  0  0  0  0  0  0  0  0  0  0
   -5.8576   18.6850  -31.7711 H   0  0  0  0  0  0  0  0  0  0  0  0
   -3.0199   22.8440  -31.3618 H   0  0  0  0  0  0  0  0  0  0  0  0
   -2.3093   20.9490  -29.9096 H   0  0  0  0  0  0  0  0  0  0  0  0
  1  2  1  0
  2  3  1  0
  3  4  1  0
  4  5  2  0
  5  6  1  0
  6  7  2  0
  7  8  1  0
  8  9  1  0
  9 10  1  0
 10 11  1  0
 11 12  1  0
 12 13  1  0
 13 14  1  0
 14 15  1  0
 15 16  2  0
 16 17  1  0
 17 18  2  0
 18 19  1  0
 19 20  2  0
  7 21  1  0
 21 22  2  0
 22  4  1  0
 20 15  1  0
  1 23  1  0
  1 24  1  0
  1 25  1  0
  2 26  1  0
  2 27  1  0
  5 28  1  0
  6 29  1  0
  9 30  1  0
  9 31  1  0
 10 32  1  0
 10 33  1  0
 11 34  1  0
 11 35  1  0
 12 36  1  0
 12 37  1  0
 13 38  1  0
 13 39  1  0
 16 40  1  0
 17 41  1  0
 18 42  1  0
 19 43  1  0
 20 44  1  0
 21 45  1  0
 22 46  1  0
M  END
>  <UniqueID>  (46) 
46

>  <SMILES>  (46) 
CCOc1ccc(OCCCCCOc2ccccc2)cc1

>  <Energy>  (46) 
43.71061063447091

>  <Genealogy>  (46) 
CCOc1ccc(OCCCCCOc2ccccc2)cc1 (3D coordinates assigned)
CCOc1ccc(OCCCCCOc2ccccc2)cc1 (optimized conformer: 43.71061063447091 kcal/mol)

>  <smiles>  (46) 
CCOc1ccc(OCCCCCOc2ccccc2)cc1

>  <score_type>  (46) 
oracle

>  <origin>  (46) 
adg

>  <m_score__min__energy>  (46) 
-7.5899999999999999

>  <m_primary>  (46) 
energy

$$$$
46:0
     RDKit          3D

 12 12  0  0  0  0  0  0  0  0999 V2000
   -5.4610   26.4360  -30.4150 O   0  0  0  0  0  0  0  0  0  0  0  0
   -4.8600   25.3540  -30.6440 C   0  0  0  0  0  0  0  0  0  0  0  0
   -3.4820   25.2870  -30.4790 O   0  0  0  0  0  0  0  0  0  0  0  0
   -5.6060   24.1680  -31.0820 C   0  0  0  0  0  0  0  0  0  0  0  0
   -6.8960   23.9870  -30.6870 N   0  0  0  0  0  0  0  0  0  0  0  0
   -7.6020   22.8970  -31.0820 C   0  0  0  0  0  0  0  0  0  0  0  0
   -7.0050   21.9430  -31.9050 C   0  0  0  0  0  0  0  0  0  0  0  0
   -5.6840   22.1420  -32.3010 C   0  0  0  0  0  0  0  0  0  0  0  0
   -5.0100   23.2460  -31.8850 N   0  0  0  0  0  0  0  0  0  0  0  0
   -8.6436   22.7666  -30.7533 H   0  0  0  0  0  0  0  0  0  0  0  0
   -7.5636   21.0543  -32.2339 H   0  0  0  0  0  0  0  0  0  0  0  0
   -5.1871   21.4058  -32.9500 H   0  0  0  0  0  0  0  0  0  0  0  0
  1  2  2  0
  2  3  1  0
  2  4  1  0
  4  5  2  0
  5  6  1  0
  6  7  2  0
  7  8  1  0
  8  9  2  0
  9  4  1  0
  6 10  1  0
  7 11  1  0
  8 12  1  0
M  CHG  1   3  -1
M  END
>  <UniqueID>  (47) 
47

>  <SMILES>  (47) 
O=C([O-])c1ncccn1

>  <Energy>  (47) 
10.708443134546616

>  <Genealogy>  (47) 
O=C([O-])c1ncccn1 (protonated)
O=C([O-])c1ncccn1 (3D coordinates assigned)
O=C([O-])c1ncccn1 (optimized conformer: 10.708443134546616 kcal/mol)

>  <smiles>  (47) 
O=C(O)c1ncccn1

>  <score_type>  (47) 
oracle

>  <origin>  (47) 
adg

>  <m_score__min__energy>  (47) 
-5.8899999999999997

>  <m_primary>  (47) 
energy

$$$$
47:0
     RDKit          3D

 36 38  0  0  0  0  0  0  0  0999 V2000
   -9.3360   21.8860  -31.6390 C   0  0  0  0  0  0  0  0  0  0  0  0
   -7.9050   21.8570  -31.9280 N   0  0  0  0  0  0  0  0  0  0  0  0
   -7.2060   20.8850  -32.5670 C   0  0  0  0  0  0  0  0  0  0  0  0
   -7.7400   19.8590  -33.0670 O   0  0  0  0  0  0  0  0  0  0  0  0
   -5.8700   21.1260  -32.5960 N   0  0  0  0  0  0  0  0  0  0  0  0
   -4.8170   20.2680  -33.1320 C   0  0  0  0  0  0  0  0  0  0  0  0
   -5.7270   22.2780  -31.9120 C   0  0  0  0  0  0  0  0  0  0  0  0
   -4.5560   22.9600  -31.5860 C   0  0  0  0  0  0  0  0  0  0  0  0
   -4.6700   24.1510  -30.8300 C   0  0  0  0  0  0  0  0  0  0  0  0
   -3.5210   24.9310  -30.4680 N   0  0  0  0  0  0  0  0  0  0  0  0
   -2.4290   24.5520  -29.1760 S   0  0  0  0  0  0  0  0  0  0  0  0
   -3.1210   24.7960  -27.8630 O   0  0  0  0  0  0  0  0  0  0  0  0
   -1.2250   25.4450  -29.2690 O   0  0  0  0  0  0  0  0  0  0  0  0
   -1.9060   22.8750  -29.3020 C   0  0  0  0  0  0  0  0  0  0  0  0
   -2.0940   22.0020  -28.2220 C   0  0  0  0  0  0  0  0  0  0  0  0
   -1.6620   20.6740  -28.3090 C   0  0  0  0  0  0  0  0  0  0  0  0
   -1.0410   20.2140  -29.4740 C   0  0  0  0  0  0  0  0  0  0  0  0
   -0.6210   18.9280  -29.5570 F   0  0  0  0  0  0  0  0  0  0  0  0
   -0.8560   21.0810  -30.5560 C   0  0  0  0  0  0  0  0  0  0  0  0
   -1.2880   22.4090  -30.4710 C   0  0  0  0  0  0  0  0  0  0  0  0
   -5.9460   24.5990  -30.4140 C   0  0  0  0  0  0  0  0  0  0  0  0
   -7.1090   23.8800  -30.7470 C   0  0  0  0  0  0  0  0  0  0  0  0
   -6.9590   22.7210  -31.5070 C   0  0  0  0  0  0  0  0  0  0  0  0
   -9.4901   21.8891  -30.5499 H   0  0  0  0  0  0  0  0  0  0  0  0
   -9.7798   22.7933  -32.0747 H   0  0  0  0  0  0  0  0  0  0  0  0
   -9.8161   20.9974  -32.0747 H   0  0  0  0  0  0  0  0  0  0  0  0
   -4.2575   19.8121  -32.3019 H   0  0  0  0  0  0  0  0  0  0  0  0
   -5.2675   19.4765  -33.7489 H   0  0  0  0  0  0  0  0  0  0  0  0
   -4.1328   20.8691  -33.7489 H   0  0  0  0  0  0  0  0  0  0  0  0
   -3.5732   22.5840  -31.9065 H   0  0  0  0  0  0  0  0  0  0  0  0
   -2.5821   22.3615  -27.3041 H   0  0  0  0  0  0  0  0  0  0  0  0
   -1.8112   19.9911  -27.4597 H   0  0  0  0  0  0  0  0  0  0  0  0
   -0.3706   20.7185  -31.4742 H   0  0  0  0  0  0  0  0  0  0  0  0
   -1.1424   23.0890  -31.3233 H   0  0  0  0  0  0  0  0  0  0  0  0
   -6.0301   25.5223  -29.8220 H   0  0  0  0  0  0  0  0  0  0  0  0
   -8.1021   24.2207  -30.4189 H   0  0  0  0  0  0  0  0  0  0  0  0
  1  2  1  0
  2  3  1  0
  3  4  2  0
  3  5  1  0
  5  6  1  0
  5  7  1  0
  7  8  2  0
  8  9  1  0
  9 10  1  0
 10 11  1  0
 11 12  2  0
 11 13  2  0
 11 14  1  0
 14 15  2  0
 15 16  1  0
 16 17  2  0
 17 18  1  0
 17 19  1  0
 19 20  2  0
  9 21  2  0
 21 22  1  0
 22 23  2  0
 23  2  1  0
 23  7  1  0
 20 14  1  0
  1 24  1  0
  1 25  1  0
  1 26  1  0
  6 27  1  0
  6 28  1  0
  6 29  1  0
  8 30  1  0
 15 31  1  0
 16 32  1  0
 19 33  1  0
 20 34  1  0
 21 35  1  0
 22 36  1  0
M  CHG  1  10  -1
M  END
>  <UniqueID>  (48) 
48

>  <SMILES>  (48) 
Cn1c(=O)n(C)c2cc([N-]S(=O)(=O)c3ccc(F)cc3)ccc21

>  <Energy>  (48) 
81.3378192579708

>  <Genealogy>  (48) 
Cn1c(=O)n(C)c2cc([N-]S(=O)(=O)c3ccc(F)cc3)ccc21 (protonated)
Cn1c(=O)n(C)c2cc([N-]S(=O)(=O)c3ccc(F)cc3)ccc21 (3D coordinates assigned)
Cn1c(=O)n(C)c2cc([N-]S(=O)(=O)c3ccc(F)cc3)ccc21 (optimized conformer: 81.3378192579708 kcal/mol)

>  <smiles>  (48) 
Cn1c(=O)n(C)c2cc(NS(=O)(=O)c3ccc(F)cc3)ccc21

>  <score_type>  (48) 
oracle

>  <origin>  (48) 
adg

>  <m_score__min__energy>  (48) 
-9.25

>  <m_primary>  (48) 
energy

$$$$
48:0
     RDKit          3D

 58 60  0  0  0  0  0  0  0  0999 V2000
   -0.4690   22.6800  -25.1300 C   0  0  0  0  0  0  0  0  0  0  0  0
   -0.6940   21.9770  -26.4650 C   0  0  0  0  0  0  0  0  0  0  0  0
   -1.7690   22.6710  -27.2570 C   0  0  0  0  0  0  0  0  0  0  0  0
   -1.5340   23.9400  -27.8100 C   0  0  0  0  0  0  0  0  0  0  0  0
   -2.5210   24.5710  -28.5720 C   0  0  0  0  0  0  0  0  0  0  0  0
   -3.7500   23.9370  -28.8010 C   0  0  0  0  0  0  0  0  0  0  0  0
   -4.9890   24.7310  -29.7760 S   0  0  0  0  0  0  0  0  0  0  0  0
   -5.8750   25.5540  -28.8830 O   0  0  0  0  0  0  0  0  0  0  0  0
   -4.3250   25.6590  -30.7550 O   0  0  0  0  0  0  0  0  0  0  0  0
   -5.9590   23.5710  -30.6490 N   0  0  0  0  0  0  0  0  0  0  0  0
   -6.4670   24.1670  -31.9020 C   0  0  0  0  0  0  0  0  0  0  0  0
   -7.5970   23.3280  -32.5410 C   0  0  0  0  0  0  0  0  0  0  0  0
   -7.6280   21.8830  -32.0140 C   0  0  0  0  0  0  0  0  0  0  0  0
   -6.4250   21.1010  -32.5240 C   0  0  0  0  0  0  0  0  0  0  0  0
   -6.5480   20.3520  -33.4850 O   0  0  0  0  0  0  0  0  0  0  0  0
   -5.1380   21.2170  -31.8610 N   0  0  0  0  0  0  0  0  0  0  0  0
   -4.2710   22.1960  -32.5750 C   0  0  0  0  0  0  0  0  0  0  0  0
   -3.2470   21.5310  -33.5080 C   0  0  0  0  0  0  0  0  0  0  0  0
   -2.4390   20.5540  -32.7640 N   0  0  0  0  0  0  0  0  0  0  0  0
   -1.1080   20.2020  -33.1970 C   0  0  0  0  0  0  0  0  0  0  0  0
   -0.5970   20.5900  -34.5520 C   0  0  0  0  0  0  0  0  0  0  0  0
   -0.3390   19.5760  -32.4180 O   0  0  0  0  0  0  0  0  0  0  0  0
   -3.0080   19.9300  -31.5630 C   0  0  0  0  0  0  0  0  0  0  0  0
   -4.5340   19.8710  -31.6830 C   0  0  0  0  0  0  0  0  0  0  0  0
   -7.7480   21.8700  -30.4690 C   0  0  0  0  0  0  0  0  0  0  0  0
   -7.0570   23.0790  -29.8040 C   0  0  0  0  0  0  0  0  0  0  0  0
   -3.9830   22.6660  -28.2580 C   0  0  0  0  0  0  0  0  0  0  0  0
   -2.9970   22.0330  -27.4960 C   0  0  0  0  0  0  0  0  0  0  0  0
   -0.6916   21.9846  -24.3073 H   0  0  0  0  0  0  0  0  0  0  0  0
    0.5788   23.0074  -25.0600 H   0  0  0  0  0  0  0  0  0  0  0  0
   -1.1320   23.5550  -25.0600 H   0  0  0  0  0  0  0  0  0  0  0  0
    0.2429   21.9878  -27.0412 H   0  0  0  0  0  0  0  0  0  0  0  0
   -1.0106   20.9416  -26.2706 H   0  0  0  0  0  0  0  0  0  0  0  0
   -0.5685   24.4398  -27.6427 H   0  0  0  0  0  0  0  0  0  0  0  0
   -2.3327   25.5693  -28.9938 H   0  0  0  0  0  0  0  0  0  0  0  0
   -6.8553   25.1725  -31.6823 H   0  0  0  0  0  0  0  0  0  0  0  0
   -5.6322   24.2032  -32.6174 H   0  0  0  0  0  0  0  0  0  0  0  0
   -8.5617   23.8062  -32.3162 H   0  0  0  0  0  0  0  0  0  0  0  0
   -7.4096   23.2848  -33.6241 H   0  0  0  0  0  0  0  0  0  0  0  0
   -8.5218   21.3739  -32.4037 H   0  0  0  0  0  0  0  0  0  0  0  0
   -5.3000   21.6030  -30.9010 H   0  0  0  0  0  0  0  0  0  0  0  0
   -4.9124   22.8581  -33.1752 H   0  0  0  0  0  0  0  0  0  0  0  0
   -3.7055   22.7495  -31.8109 H   0  0  0  0  0  0  0  0  0  0  0  0
   -3.7783   21.0173  -34.3228 H   0  0  0  0  0  0  0  0  0  0  0  0
   -2.5829   22.3048  -33.9205 H   0  0  0  0  0  0  0  0  0  0  0  0
    0.2745   21.2517  -34.4396 H   0  0  0  0  0  0  0  0  0  0  0  0
   -0.3021   19.6862  -35.1053 H   0  0  0  0  0  0  0  0  0  0  0  0
   -1.3884   21.1168  -35.1053 H   0  0  0  0  0  0  0  0  0  0  0  0
   -2.6101   18.9099  -31.4580 H   0  0  0  0  0  0  0  0  0  0  0  0
   -2.7357   20.5265  -30.6798 H   0  0  0  0  0  0  0  0  0  0  0  0
   -4.7968   19.2478  -32.5505 H   0  0  0  0  0  0  0  0  0  0  0  0
   -4.9289   19.4458  -30.7485 H   0  0  0  0  0  0  0  0  0  0  0  0
   -8.8144   21.8829  -30.1994 H   0  0  0  0  0  0  0  0  0  0  0  0
   -7.2456   20.9612  -30.1060 H   0  0  0  0  0  0  0  0  0  0  0  0
   -7.7931   23.8838  -29.6614 H   0  0  0  0  0  0  0  0  0  0  0  0
   -6.6466   22.7654  -28.8328 H   0  0  0  0  0  0  0  0  0  0  0  0
   -4.9463   22.1644  -28.4324 H   0  0  0  0  0  0  0  0  0  0  0  0
   -3.1836   21.0312  -27.0819 H   0  0  0  0  0  0  0  0  0  0  0  0
  1  2  1  0
  2  3  1  0
  3  4  2  0
  4  5  1  0
  5  6  2  0
  6  7  1  0
  7  8  2  0
  7  9  2  0
  7 10  1  0
 10 11  1  0
 11 12  1  0
 12 13  1  0
 13 14  1  0
 14 15  2  0
 14 16  1  0
 16 17  1  0
 17 18  1  0
 18 19  1  0
 19 20  1  0
 20 21  1  0
 20 22  2  0
 19 23  1  0
 23 24  1  0
 13 25  1  0
 25 26  1  0
  6 27  1  0
 27 28  2  0
 28  3  1  0
 26 10  1  0
 24 16  1  0
  1 29  1  0
  1 30  1  0
  1 31  1  0
  2 32  1  0
  2 33  1  0
  4 34  1  0
  5 35  1  0
 11 36  1  0
 11 37  1  0
 12 38  1  0
 12 39  1  0
 13 40  1  0
 16 41  1  0
 17 42  1  0
 17 43  1  0
 18 44  1  0
 18 45  1  0
 21 46  1  0
 21 47  1  0
 21 48  1  0
 23 49  1  0
 23 50  1  0
 24 51  1  0
 24 52  1  0
 25 53  1  0
 25 54  1  0
 26 55  1  0
 26 56  1  0
 27 57  1  0
 28 58  1  0
M  CHG  1  16   1
M  END
>  <UniqueID>  (49) 
49

>  <SMILES>  (49) 
CCc1ccc(S(=O)(=O)N2CCC(C(=O)[NH+]3CCN(C(C)=O)CC3)CC2)cc1

>  <Energy>  (49) 
65.32771977079874

>  <Genealogy>  (49) 
CCc1ccc(S(=O)(=O)N2CCC(C(=O)[NH+]3CCN(C(C)=O)CC3)CC2)cc1 (protonated)
CCc1ccc(S(=O)(=O)N2CCC(C(=O)[NH+]3CCN(C(C)=O)CC3)CC2)cc1 (3D coordinates assigned)
CCc1ccc(S(=O)(=O)N2CCC(C(=O)[NH+]3CCN(C(C)=O)CC3)CC2)cc1 (nonaromatic ring conformer: 65.32771977079874 kcal/mol)

>  <smiles>  (49) 
CCc1ccc(S(=O)(=O)N2CCC(C(=O)N3CCN(C(C)=O)CC3)CC2)cc1

>  <score_type>  (49) 
oracle

>  <origin>  (49) 
adg

>  <m_score__min__energy>  (49) 
-9.5899999999999999

>  <m_primary>  (49) 
energy

$$$$
