0:0
     RDKit          3D

 42 43  0  0  0  0  0  0  0  0999 V2000
    0.3650   26.1460  -27.6150 O   0  0  0  0  0  0  0  0  0  0  0  0
   -0.8750   26.3510  -27.6750 C   0  0  0  0  0  0  0  0  0  0  0  0
   -1.5820   26.0490  -28.8800 N   0  0  0  0  0  0  0  0  0  0  0  0
   -1.9350   24.7360  -29.3440 C   0  0  0  0  0  0  0  0  0  0  0  0
   -3.2340   24.4400  -29.7960 C   0  0  0  0  0  0  0  0  0  0  0  0
   -3.5560   23.1570  -30.2710 C   0  0  0  0  0  0  0  0  0  0  0  0
   -4.9400   22.8890  -30.8310 C   0  0  1  0  0  0  0  0  0  0  0  0
   -5.2430   21.5260  -30.6940 O   0  0  0  0  0  0  0  0  0  0  0  0
   -6.0450   23.7160  -30.1410 C   0  0  0  0  0  0  0  0  0  0  0  0
   -7.3890   23.1360  -30.3000 N   0  0  0  0  0  0  0  0  0  0  0  0
   -7.9580   23.4030  -31.6330 C   0  0  0  0  0  0  0  0  0  0  0  0
   -9.0860   22.4220  -31.9790 C   0  0  0  0  0  0  0  0  0  0  0  0
   -9.1110   20.9470  -30.8950 S   0  0  0  0  0  0  0  0  0  0  0  0
   -8.0730   19.9290  -31.9470 C   0  0  0  0  0  0  0  0  0  0  0  0
   -7.2420   20.5260  -32.9030 C   0  0  0  0  0  0  0  0  0  0  0  0
   -6.3990   19.7350  -33.6900 C   0  0  0  0  0  0  0  0  0  0  0  0
   -6.3670   18.3480  -33.5060 C   0  0  0  0  0  0  0  0  0  0  0  0
   -5.2040   17.2680  -34.5670 Br  0  0  0  0  0  0  0  0  0  0  0  0
   -7.1810   17.7540  -32.5360 C   0  0  0  0  0  0  0  0  0  0  0  0
   -8.0430   18.5410  -31.7660 C   0  0  0  0  0  0  0  0  0  0  0  0
   -2.5550   22.1730  -30.3130 C   0  0  0  0  0  0  0  0  0  0  0  0
   -1.2670   22.4590  -29.8600 C   0  0  0  0  0  0  0  0  0  0  0  0
   -0.9490   23.7320  -29.3790 C   0  0  0  0  0  0  0  0  0  0  0  0
    0.3540   23.9770  -28.9410 O   0  0  0  0  0  0  0  0  0  0  0  0
   -1.4113   26.7599  -26.8060 H   0  0  0  0  0  0  0  0  0  0  0  0
   -4.0071   25.2223  -29.7774 H   0  0  0  0  0  0  0  0  0  0  0  0
   -4.9172   23.1887  -31.8891 H   0  0  0  0  0  0  0  0  0  0  0  0
   -6.2140   21.4260  -30.8780 H   0  0  0  0  0  0  0  0  0  0  0  0
   -5.8159   23.7781  -29.0669 H   0  0  0  0  0  0  0  0  0  0  0  0
   -6.0581   24.7067  -30.6189 H   0  0  0  0  0  0  0  0  0  0  0  0
   -7.2750   22.1020  -30.1830 H   0  0  0  0  0  0  0  0  0  0  0  0
   -8.3593   24.4271  -31.6501 H   0  0  0  0  0  0  0  0  0  0  0  0
   -7.1574   23.2791  -32.3771 H   0  0  0  0  0  0  0  0  0  0  0  0
  -10.0483   22.9457  -31.8801 H   0  0  0  0  0  0  0  0  0  0  0  0
   -8.9123   22.0712  -33.0070 H   0  0  0  0  0  0  0  0  0  0  0  0
   -7.2523   21.6180  -33.0350 H   0  0  0  0  0  0  0  0  0  0  0  0
   -5.7608   20.2031  -34.4539 H   0  0  0  0  0  0  0  0  0  0  0  0
   -7.1430   16.6660  -32.3786 H   0  0  0  0  0  0  0  0  0  0  0  0
   -8.6975   18.0696  -31.0181 H   0  0  0  0  0  0  0  0  0  0  0  0
   -2.7877   21.1719  -30.7050 H   0  0  0  0  0  0  0  0  0  0  0  0
   -0.4950   21.6757  -29.8816 H   0  0  0  0  0  0  0  0  0  0  0  0
    0.6620   24.8940  -28.6430 H   0  0  0  0  0  0  0  0  0  0  0  0
  1  2  2  0
  2  3  1  0
  3  4  1  0
  4  5  2  0
  5  6  1  0
  6  7  1  0
  7  8  1  0
  7  9  1  0
  9 10  1  0
 10 11  1  0
 11 12  1  0
 12 13  1  0
 13 14  1  0
 14 15  2  0
 15 16  1  0
 16 17  2  0
 17 18  1  0
 17 19  1  0
 19 20  2  0
  6 21  2  0
 21 22  1  0
 22 23  2  0
 23 24  1  0
 23  4  1  0
 20 14  1  0
  2 25  1  0
  5 26  1  0
  7 27  1  6
  8 28  1  0
  9 29  1  0
  9 30  1  0
 10 31  1  0
 11 32  1  0
 11 33  1  0
 12 34  1  0
 12 35  1  0
 15 36  1  0
 16 37  1  0
 19 38  1  0
 20 39  1  0
 21 40  1  0
 22 41  1  0
 24 42  1  0
M  CHG  1   3  -1
M  END
>  <UniqueID>  (1) 
1

>  <SMILES>  (1) 
O=C[N-]c1cc([C@@H](O)CNCCSc2ccc(Br)cc2)ccc1O

>  <Energy>  (1) 
35.271857237091716

>  <Genealogy>  (1) 
O=C[N-]c1cc(C(O)CNCCSc2ccc(Br)cc2)ccc1O (protonated)
O=C[N-]c1cc([C@@H](O)CNCCSc2ccc(Br)cc2)ccc1O (chirality)
O=C[N-]c1cc([C@@H](O)CNCCSc2ccc(Br)cc2)ccc1O (3D coordinates assigned)
O=C[N-]c1cc([C@@H](O)CNCCSc2ccc(Br)cc2)ccc1O (optimized conformer: 35.271857237091716 kcal/mol)

>  <smiles>  (1) 
O=CNc1cc(C(O)CNCCSc2ccc(Br)cc2)ccc1O

>  <score_type>  (1) 
oracle

>  <origin>  (1) 
adg

>  <m_score__min__energy>  (1) 
-9.6400000000000006

>  <m_primary>  (1) 
energy

$$$$
1:0
     RDKit          3D

 31 32  0  0  0  0  0  0  0  0999 V2000
   -3.6350   24.4950  -27.0980 C   0  0  0  0  0  0  0  0  0  0  0  0
   -3.2860   24.5110  -28.2510 C   0  0  0  0  0  0  0  0  0  0  0  0
   -2.8610   24.5310  -29.6580 C   0  0  1  0  0  0  0  0  0  0  0  0
   -2.6520   23.1020  -30.1510 C   0  0  0  0  0  0  0  0  0  0  0  0
   -3.8890   25.1740  -30.4710 N   0  0  0  0  0  0  0  0  0  0  0  0
   -5.2930   24.8830  -30.4430 C   0  0  0  0  0  0  0  0  0  0  0  0
   -5.8890   24.8950  -29.3350 O   0  0  0  0  0  0  0  0  0  0  0  0
   -6.0770   24.5470  -31.6880 C   0  0  0  0  0  0  0  0  0  0  0  0
   -6.2850   23.0930  -31.8260 N   0  0  0  0  0  0  0  0  0  0  0  0
   -5.1840   22.2850  -31.9330 C   0  0  0  0  0  0  0  0  0  0  0  0
   -5.3140   20.9040  -32.0720 C   0  0  0  0  0  0  0  0  0  0  0  0
   -6.5840   20.3370  -32.1200 C   0  0  0  0  0  0  0  0  0  0  0  0
   -6.7240   18.9900  -32.2470 N   0  0  0  0  0  0  0  0  0  0  0  0
   -7.9490   18.4010  -32.3000 C   0  0  0  0  0  0  0  0  0  0  0  0
   -9.1050   19.1790  -32.2280 C   0  0  0  0  0  0  0  0  0  0  0  0
   -8.9930   20.5650  -32.0990 C   0  0  0  0  0  0  0  0  0  0  0  0
   -7.7220   21.1640  -32.0430 C   0  0  0  0  0  0  0  0  0  0  0  0
   -7.5510   22.5560  -31.9060 C   0  0  0  0  0  0  0  0  0  0  0  0
   -8.5660   23.3050  -31.8510 O   0  0  0  0  0  0  0  0  0  0  0  0
   -3.9537   24.4804  -26.0453 H   0  0  0  0  0  0  0  0  0  0  0  0
   -1.9185   25.0918  -29.7430 H   0  0  0  0  0  0  0  0  0  0  0  0
   -2.5533   22.4271  -29.2880 H   0  0  0  0  0  0  0  0  0  0  0  0
   -3.5147   22.7944  -30.7602 H   0  0  0  0  0  0  0  0  0  0  0  0
   -1.7373   23.0544  -30.7602 H   0  0  0  0  0  0  0  0  0  0  0  0
   -7.0570   25.0441  -31.6372 H   0  0  0  0  0  0  0  0  0  0  0  0
   -5.5030   24.8955  -32.5592 H   0  0  0  0  0  0  0  0  0  0  0  0
   -4.1799   22.7336  -31.9088 H   0  0  0  0  0  0  0  0  0  0  0  0
   -4.4197   20.2674  -32.1432 H   0  0  0  0  0  0  0  0  0  0  0  0
   -8.0285   17.3084  -32.3999 H   0  0  0  0  0  0  0  0  0  0  0  0
  -10.0964   18.7045  -32.2725 H   0  0  0  0  0  0  0  0  0  0  0  0
   -9.8981   21.1875  -32.0413 H   0  0  0  0  0  0  0  0  0  0  0  0
  1  2  3  0
  2  3  1  0
  3  4  1  0
  3  5  1  0
  5  6  1  0
  6  7  2  0
  6  8  1  0
  8  9  1  0
  9 10  1  0
 10 11  2  0
 11 12  1  0
 12 13  2  0
 13 14  1  0
 14 15  2  0
 15 16  1  0
 16 17  2  0
 17 18  1  0
 18 19  2  0
 18  9  1  0
 17 12  1  0
  1 20  1  0
  3 21  1  1
  4 22  1  0
  4 23  1  0
  4 24  1  0
  8 25  1  0
  8 26  1  0
 10 27  1  0
 11 28  1  0
 14 29  1  0
 15 30  1  0
 16 31  1  0
M  CHG  1   5  -1
M  END
>  <UniqueID>  (2) 
2

>  <SMILES>  (2) 
C#C[C@@H](C)[N-]C(=O)Cn1ccc2ncccc2c1=O

>  <Energy>  (2) 
31.288570618009597

>  <Genealogy>  (2) 
C#CC(C)[N-]C(=O)Cn1ccc2ncccc2c1=O (protonated)
C#C[C@@H](C)[N-]C(=O)Cn1ccc2ncccc2c1=O (chirality)
C#C[C@@H](C)[N-]C(=O)Cn1ccc2ncccc2c1=O (3D coordinates assigned)
C#C[C@@H](C)[N-]C(=O)Cn1ccc2ncccc2c1=O (optimized conformer: 31.288570618009597 kcal/mol)

>  <smiles>  (2) 
C#CC(C)NC(=O)Cn1ccc2ncccc2c1=O

>  <score_type>  (2) 
oracle

>  <origin>  (2) 
adg

>  <m_score__min__energy>  (2) 
-8.5399999999999991

>  <m_primary>  (2) 
energy

$$$$
2:0
     RDKit          3D

 37 38  0  0  0  0  0  0  0  0999 V2000
   -0.8600   21.1240  -32.1610 C   0  0  0  0  0  0  0  0  0  0  0  0
   -1.1330   22.1040  -31.1640 O   0  0  0  0  0  0  0  0  0  0  0  0
   -1.4210   21.8180  -29.8190 C   0  0  0  0  0  0  0  0  0  0  0  0
   -1.5950   20.4950  -29.3650 C   0  0  0  0  0  0  0  0  0  0  0  0
   -1.8770   20.2370  -28.0220 C   0  0  0  0  0  0  0  0  0  0  0  0
   -1.9990   21.2920  -27.1170 C   0  0  0  0  0  0  0  0  0  0  0  0
   -1.8380   22.6080  -27.5540 C   0  0  0  0  0  0  0  0  0  0  0  0
   -1.5350   22.8840  -28.8990 C   0  0  0  0  0  0  0  0  0  0  0  0
   -1.4050   24.3210  -29.3430 C   0  0  0  0  0  0  0  0  0  0  0  0
   -2.6980   24.9870  -29.2340 N   0  0  0  0  0  0  0  0  0  0  0  0
   -3.7950   24.7390  -30.1200 C   0  0  0  0  0  0  0  0  0  0  0  0
   -4.2500   25.6610  -30.8490 O   0  0  0  0  0  0  0  0  0  0  0  0
   -4.3830   23.3670  -30.2120 C   0  0  0  0  0  0  0  0  0  0  0  0
   -5.1130   23.2200  -31.4730 N   0  0  0  0  0  0  0  0  0  0  0  0
   -5.3080   21.9620  -32.1460 C   0  0  0  0  0  0  0  0  0  0  0  0
   -6.5900   21.4000  -32.3080 C   0  0  0  0  0  0  0  0  0  0  0  0
   -6.7430   20.1720  -32.9590 C   0  0  0  0  0  0  0  0  0  0  0  0
   -5.6250   19.4870  -33.4400 C   0  0  0  0  0  0  0  0  0  0  0  0
   -5.8390   17.8020  -34.3130 Br  0  0  0  0  0  0  0  0  0  0  0  0
   -4.3490   20.0380  -33.2870 C   0  0  0  0  0  0  0  0  0  0  0  0
   -4.1930   21.2730  -32.6530 C   0  0  0  0  0  0  0  0  0  0  0  0
   -0.5949   20.1725  -31.6769 H   0  0  0  0  0  0  0  0  0  0  0  0
   -1.7523   20.9803  -32.7880 H   0  0  0  0  0  0  0  0  0  0  0  0
   -0.0219   21.4624  -32.7880 H   0  0  0  0  0  0  0  0  0  0  0  0
   -1.5079   19.6589  -30.0745 H   0  0  0  0  0  0  0  0  0  0  0  0
   -2.0032   19.2002  -27.6769 H   0  0  0  0  0  0  0  0  0  0  0  0
   -2.2220   21.0868  -26.0596 H   0  0  0  0  0  0  0  0  0  0  0  0
   -1.9492   23.4368  -26.8394 H   0  0  0  0  0  0  0  0  0  0  0  0
   -0.6729   24.8365  -28.7040 H   0  0  0  0  0  0  0  0  0  0  0  0
   -1.0667   24.3503  -30.3893 H   0  0  0  0  0  0  0  0  0  0  0  0
   -3.5759   22.6209  -30.1689 H   0  0  0  0  0  0  0  0  0  0  0  0
   -5.0769   23.2138  -29.3724 H   0  0  0  0  0  0  0  0  0  0  0  0
   -5.3850   24.0980  -31.9720 H   0  0  0  0  0  0  0  0  0  0  0  0
   -7.4734   21.9291  -31.9210 H   0  0  0  0  0  0  0  0  0  0  0  0
   -7.7474   19.7440  -33.0928 H   0  0  0  0  0  0  0  0  0  0  0  0
   -3.4681   19.4990  -33.6658 H   0  0  0  0  0  0  0  0  0  0  0  0
   -3.1888   21.7099  -32.5497 H   0  0  0  0  0  0  0  0  0  0  0  0
  1  2  1  0
  2  3  1  0
  3  4  2  0
  4  5  1  0
  5  6  2  0
  6  7  1  0
  7  8  2  0
  8  9  1  0
  9 10  1  0
 10 11  1  0
 11 12  2  0
 11 13  1  0
 13 14  1  0
 14 15  1  0
 15 16  2  0
 16 17  1  0
 17 18  2  0
 18 19  1  0
 18 20  1  0
 20 21  2  0
  8  3  1  0
 21 15  1  0
  1 22  1  0
  1 23  1  0
  1 24  1  0
  4 25  1  0
  5 26  1  0
  6 27  1  0
  7 28  1  0
  9 29  1  0
  9 30  1  0
 13 31  1  0
 13 32  1  0
 14 33  1  0
 16 34  1  0
 17 35  1  0
 20 36  1  0
 21 37  1  0
M  CHG  1  10  -1
M  END
>  <UniqueID>  (3) 
3

>  <SMILES>  (3) 
COc1ccccc1C[N-]C(=O)CNc1ccc(Br)cc1

>  <Energy>  (3) 
29.979189457669236

>  <Genealogy>  (3) 
COc1ccccc1C[N-]C(=O)CNc1ccc(Br)cc1 (protonated)
COc1ccccc1C[N-]C(=O)CNc1ccc(Br)cc1 (3D coordinates assigned)
COc1ccccc1C[N-]C(=O)CNc1ccc(Br)cc1 (optimized conformer: 29.979189457669236 kcal/mol)

>  <smiles>  (3) 
COc1ccccc1CNC(=O)CNc1ccc(Br)cc1

>  <score_type>  (3) 
oracle

>  <origin>  (3) 
adg

>  <m_score__min__energy>  (3) 
-9

>  <m_primary>  (3) 
energy

$$$$
3:0
     RDKit          3D

 46 48  0  0  0  0  0  0  0  0999 V2000
   -3.1580   14.0460  -35.8980 C   0  0  0  0  0  0  0  0  0  0  0  0
   -4.2280   13.6410  -34.8860 C   0  0  0  0  0  0  0  0  0  0  0  0
   -4.6380   14.7930  -34.0550 N   0  0  0  0  0  0  0  0  0  0  0  0
   -3.9820   14.8300  -32.7250 C   0  0  0  0  0  0  0  0  0  0  0  0
   -4.5980   13.7700  -31.8220 C   0  0  0  0  0  0  0  0  0  0  0  0
   -6.1100   14.9380  -33.9720 C   0  0  0  0  0  0  0  0  0  0  0  0
   -6.5930   16.4080  -33.8590 C   0  0  0  0  0  0  0  0  0  0  0  0
   -5.6530   17.3400  -34.5000 N   0  0  0  0  0  0  0  0  0  0  0  0
   -5.6450   18.5980  -33.7950 C   0  0  0  0  0  0  0  0  0  0  0  0
   -4.4430   19.2830  -33.5800 C   0  0  0  0  0  0  0  0  0  0  0  0
   -4.4290   20.5150  -32.9260 C   0  0  0  0  0  0  0  0  0  0  0  0
   -5.6300   21.1120  -32.4700 C   0  0  0  0  0  0  0  0  0  0  0  0
   -6.8490   20.4180  -32.7060 C   0  0  0  0  0  0  0  0  0  0  0  0
   -6.8460   19.1780  -33.3650 C   0  0  0  0  0  0  0  0  0  0  0  0
   -8.0650   20.9650  -32.2850 C   0  0  0  0  0  0  0  0  0  0  0  0
   -8.1040   22.1910  -31.6300 C   0  0  0  0  0  0  0  0  0  0  0  0
   -9.3080   22.6850  -31.2390 F   0  0  0  0  0  0  0  0  0  0  0  0
   -6.9200   22.8990  -31.3800 C   0  0  0  0  0  0  0  0  0  0  0  0
   -6.9730   24.1360  -30.7160 C   0  0  0  0  0  0  0  0  0  0  0  0
   -5.7980   24.8360  -30.4690 C   0  0  0  0  0  0  0  0  0  0  0  0
   -4.6060   24.3250  -30.8660 N   0  0  0  0  0  0  0  0  0  0  0  0
   -4.5100   23.1330  -31.5110 C   0  0  0  0  0  0  0  0  0  0  0  0
   -5.6670   22.3700  -31.7960 C   0  0  0  0  0  0  0  0  0  0  0  0
   -2.2585   14.3865  -35.3641 H   0  0  0  0  0  0  0  0  0  0  0  0
   -2.9045   13.1816  -36.5293 H   0  0  0  0  0  0  0  0  0  0  0  0
   -3.5404   14.8616  -36.5293 H   0  0  0  0  0  0  0  0  0  0  0  0
   -5.1061   13.2569  -35.4259 H   0  0  0  0  0  0  0  0  0  0  0  0
   -3.8099   12.8660  -34.2268 H   0  0  0  0  0  0  0  0  0  0  0  0
   -2.9064   14.6314  -32.8417 H   0  0  0  0  0  0  0  0  0  0  0  0
   -4.1263   15.8228  -32.2740 H   0  0  0  0  0  0  0  0  0  0  0  0
   -4.4373   14.0465  -30.7695 H   0  0  0  0  0  0  0  0  0  0  0  0
   -5.6774   13.7001  -32.0221 H   0  0  0  0  0  0  0  0  0  0  0  0
   -4.1243   12.7976  -32.0221 H   0  0  0  0  0  0  0  0  0  0  0  0
   -6.5528   14.4969  -34.8772 H   0  0  0  0  0  0  0  0  0  0  0  0
   -6.4292   14.4261  -33.0522 H   0  0  0  0  0  0  0  0  0  0  0  0
   -7.5744   16.4994  -34.3473 H   0  0  0  0  0  0  0  0  0  0  0  0
   -6.6583   16.6665  -32.7918 H   0  0  0  0  0  0  0  0  0  0  0  0
   -4.6900   16.9280  -34.4960 H   0  0  0  0  0  0  0  0  0  0  0  0
   -5.9280   17.5020  -35.4960 H   0  0  0  0  0  0  0  0  0  0  0  0
   -3.4976   18.8440  -33.9313 H   0  0  0  0  0  0  0  0  0  0  0  0
   -3.4713   21.0306  -32.7619 H   0  0  0  0  0  0  0  0  0  0  0  0
   -7.7972   18.6560  -33.5457 H   0  0  0  0  0  0  0  0  0  0  0  0
   -9.0012   20.4194  -32.4741 H   0  0  0  0  0  0  0  0  0  0  0  0
   -7.9402   24.5487  -30.3930 H   0  0  0  0  0  0  0  0  0  0  0  0
   -5.8348   25.8056  -29.9509 H   0  0  0  0  0  0  0  0  0  0  0  0
   -3.5220   22.7570  -31.8150 H   0  0  0  0  0  0  0  0  0  0  0  0
  1  2  1  0
  2  3  1  0
  3  4  1  0
  4  5  1  0
  3  6  1  0
  6  7  1  0
  7  8  1  0
  8  9  1  0
  9 10  2  0
 10 11  1  0
 11 12  2  0
 12 13  1  0
 13 14  2  0
 13 15  1  0
 15 16  2  0
 16 17  1  0
 16 18  1  0
 18 19  2  0
 19 20  1  0
 20 21  2  0
 21 22  1  0
 22 23  2  0
 14  9  1  0
 23 18  1  0
 23 12  1  0
  1 24  1  0
  1 25  1  0
  1 26  1  0
  2 27  1  0
  2 28  1  0
  4 29  1  0
  4 30  1  0
  5 31  1  0
  5 32  1  0
  5 33  1  0
  6 34  1  0
  6 35  1  0
  7 36  1  0
  7 37  1  0
  8 38  1  0
  8 39  1  0
 10 40  1  0
 11 41  1  0
 14 42  1  0
 15 43  1  0
 19 44  1  0
 20 45  1  0
 22 46  1  0
M  CHG  1   8   1
M  END
>  <UniqueID>  (4) 
4

>  <SMILES>  (4) 
CCN(CC)CC[NH2+]c1ccc2c(c1)cc(F)c1ccncc12

>  <Energy>  (4) 
62.86401817672691

>  <Genealogy>  (4) 
CCN(CC)CC[NH2+]c1ccc2c(c1)cc(F)c1ccncc12 (protonated)
CCN(CC)CC[NH2+]c1ccc2c(c1)cc(F)c1ccncc12 (3D coordinates assigned)
CCN(CC)CC[NH2+]c1ccc2c(c1)cc(F)c1ccncc12 (optimized conformer: 62.86401817672691 kcal/mol)

>  <smiles>  (4) 
CCN(CC)CCNc1ccc2c(c1)cc(F)c1ccncc12

>  <score_type>  (4) 
oracle

>  <origin>  (4) 
adg

>  <m_score__min__energy>  (4) 
-6.7400000000000002

>  <m_primary>  (4) 
energy

$$$$
4:0
     RDKit          3D

 39 40  0  0  0  0  0  0  0  0999 V2000
   -8.1390   18.2050  -31.6840 C   0  0  0  0  0  0  0  0  0  0  0  0
   -9.4770   18.6100  -32.2900 C   0  0  0  0  0  0  0  0  0  0  0  0
   -9.6370   20.0260  -32.2630 O   0  0  0  0  0  0  0  0  0  0  0  0
   -8.6330   20.9070  -31.8450 C   0  0  0  0  0  0  0  0  0  0  0  0
   -8.7670   21.5690  -30.7790 O   0  0  0  0  0  0  0  0  0  0  0  0
   -7.4580   21.0580  -32.6500 N   0  0  0  0  0  0  0  0  0  0  0  0
   -6.3290   21.8490  -32.2510 C   0  0  0  0  0  0  0  0  0  0  0  0
   -6.4880   23.1090  -31.6570 C   0  0  0  0  0  0  0  0  0  0  0  0
   -5.2850   23.7010  -31.2870 C   0  0  0  0  0  0  0  0  0  0  0  0
   -5.1160   25.0090  -30.6300 C   0  0  0  0  0  0  0  0  0  0  0  0
   -6.1890   25.5810  -29.7580 C   0  0  0  0  0  0  0  0  0  0  0  0
   -4.0500   25.6580  -30.8040 O   0  0  0  0  0  0  0  0  0  0  0  0
   -4.0280   22.6680  -31.7180 S   0  0  0  0  0  0  0  0  0  0  0  0
   -4.9900   21.4530  -32.3820 C   0  0  0  0  0  0  0  0  0  0  0  0
   -4.4580   20.2540  -33.0640 C   0  0  0  0  0  0  0  0  0  0  0  0
   -3.0730   20.0940  -33.2230 C   0  0  0  0  0  0  0  0  0  0  0  0
   -2.5590   18.9650  -33.8710 C   0  0  0  0  0  0  0  0  0  0  0  0
   -3.4290   17.9820  -34.3800 C   0  0  0  0  0  0  0  0  0  0  0  0
   -2.9650   16.8320  -35.0340 O   0  0  0  0  0  0  0  0  0  0  0  0
   -3.6060   15.5620  -34.9790 C   0  0  0  0  0  0  0  0  0  0  0  0
   -4.8100   18.1530  -34.2360 C   0  0  0  0  0  0  0  0  0  0  0  0
   -5.3230   19.2820  -33.5900 C   0  0  0  0  0  0  0  0  0  0  0  0
   -8.2118   18.2270  -30.5866 H   0  0  0  0  0  0  0  0  0  0  0  0
   -7.8798   17.1882  -32.0139 H   0  0  0  0  0  0  0  0  0  0  0  0
   -7.3594   18.9074  -32.0139 H   0  0  0  0  0  0  0  0  0  0  0  0
   -9.5208   18.2619  -33.3326 H   0  0  0  0  0  0  0  0  0  0  0  0
  -10.2844   18.1526  -31.6994 H   0  0  0  0  0  0  0  0  0  0  0  0
   -7.4960   20.7140  -33.6350 H   0  0  0  0  0  0  0  0  0  0  0  0
   -7.4680   23.5829  -31.4991 H   0  0  0  0  0  0  0  0  0  0  0  0
   -5.9186   25.4369  -28.7015 H   0  0  0  0  0  0  0  0  0  0  0  0
   -6.2961   26.6559  -29.9657 H   0  0  0  0  0  0  0  0  0  0  0  0
   -7.1411   25.0708  -29.9657 H   0  0  0  0  0  0  0  0  0  0  0  0
   -2.3865   20.8613  -32.8356 H   0  0  0  0  0  0  0  0  0  0  0  0
   -1.4713   18.8452  -33.9830 H   0  0  0  0  0  0  0  0  0  0  0  0
   -3.7530   15.2707  -33.9285 H   0  0  0  0  0  0  0  0  0  0  0  0
   -4.5819   15.6217  -35.4830 H   0  0  0  0  0  0  0  0  0  0  0  0
   -2.9783   14.8123  -35.4830 H   0  0  0  0  0  0  0  0  0  0  0  0
   -5.4981   17.3929  -34.6343 H   0  0  0  0  0  0  0  0  0  0  0  0
   -6.4114   19.4091  -33.4935 H   0  0  0  0  0  0  0  0  0  0  0  0
  1  2  1  0
  2  3  1  0
  3  4  1  0
  4  5  2  0
  4  6  1  0
  6  7  1  0
  7  8  1  0
  8  9  2  0
  9 10  1  0
 10 11  1  0
 10 12  2  0
  9 13  1  0
 13 14  1  0
 14 15  1  0
 15 16  2  0
 16 17  1  0
 17 18  2  0
 18 19  1  0
 19 20  1  0
 18 21  1  0
 21 22  2  0
 14  7  2  0
 22 15  1  0
  1 23  1  0
  1 24  1  0
  1 25  1  0
  2 26  1  0
  2 27  1  0
  6 28  1  0
  8 29  1  0
 11 30  1  0
 11 31  1  0
 11 32  1  0
 16 33  1  0
 17 34  1  0
 20 35  1  0
 20 36  1  0
 20 37  1  0
 21 38  1  0
 22 39  1  0
M  END
>  <UniqueID>  (5) 
5

>  <SMILES>  (5) 
CCOC(=O)Nc1cc(C(C)=O)sc1-c1ccc(OC)cc1

>  <Energy>  (5) 
66.10038222850417

>  <Genealogy>  (5) 
CCOC(=O)Nc1cc(C(C)=O)sc1-c1ccc(OC)cc1 (3D coordinates assigned)
CCOC(=O)Nc1cc(C(C)=O)sc1-c1ccc(OC)cc1 (optimized conformer: 66.10038222850417 kcal/mol)

>  <smiles>  (5) 
CCOC(=O)Nc1cc(C(C)=O)sc1-c1ccc(OC)cc1

>  <score_type>  (5) 
oracle

>  <origin>  (5) 
adg

>  <m_score__min__energy>  (5) 
-7.3799999999999999

>  <m_primary>  (5) 
energy

$$$$
5:0
     RDKit          3D

 29 29  0  0  0  0  0  0  0  0999 V2000
   -3.7530   22.3150  -29.5830 C   0  0  0  0  0  0  0  0  0  0  0  0
   -3.7100   23.2120  -30.8320 C   0  0  0  0  0  0  0  0  0  0  0  0
   -4.7270   24.2900  -30.8500 N   0  0  0  0  0  0  0  0  0  0  0  0
   -5.2400   24.6800  -29.5180 C   0  0  0  0  0  0  0  0  0  0  0  0
   -6.4130   25.6510  -29.6260 C   0  0  0  0  0  0  0  0  0  0  0  0
   -5.7430   24.1620  -31.9250 C   0  0  0  0  0  0  0  0  0  0  0  0
   -6.4720   22.8380  -31.9300 C   0  0  0  0  0  0  0  0  0  0  0  0
   -5.9110   21.7170  -32.5650 C   0  0  0  0  0  0  0  0  0  0  0  0
   -6.5870   20.4940  -32.5630 C   0  0  0  0  0  0  0  0  0  0  0  0
   -7.8220   20.3750  -31.9180 C   0  0  0  0  0  0  0  0  0  0  0  0
   -8.7440   18.7030  -31.9190 Br  0  0  0  0  0  0  0  0  0  0  0  0
   -8.3780   21.4800  -31.2680 C   0  0  0  0  0  0  0  0  0  0  0  0
   -7.7050   22.7060  -31.2680 C   0  0  0  0  0  0  0  0  0  0  0  0
   -3.7229   22.9423  -28.6799 H   0  0  0  0  0  0  0  0  0  0  0  0
   -4.6805   21.7237  -29.5880 H   0  0  0  0  0  0  0  0  0  0  0  0
   -2.8863   21.6377  -29.5880 H   0  0  0  0  0  0  0  0  0  0  0  0
   -2.7149   23.6776  -30.8865 H   0  0  0  0  0  0  0  0  0  0  0  0
   -3.9284   22.5616  -31.6918 H   0  0  0  0  0  0  0  0  0  0  0  0
   -5.5730   23.7767  -28.9859 H   0  0  0  0  0  0  0  0  0  0  0  0
   -4.4282   25.1828  -28.9720 H   0  0  0  0  0  0  0  0  0  0  0  0
   -6.7513   25.9310  -28.6174 H   0  0  0  0  0  0  0  0  0  0  0  0
   -6.0938   26.5527  -30.1692 H   0  0  0  0  0  0  0  0  0  0  0  0
   -7.2392   25.1690  -30.1692 H   0  0  0  0  0  0  0  0  0  0  0  0
   -6.4846   24.9643  -31.7969 H   0  0  0  0  0  0  0  0  0  0  0  0
   -5.2037   24.2310  -32.8813 H   0  0  0  0  0  0  0  0  0  0  0  0
   -4.9354   21.8026  -33.0659 H   0  0  0  0  0  0  0  0  0  0  0  0
   -6.1466   19.6228  -33.0700 H   0  0  0  0  0  0  0  0  0  0  0  0
   -9.3467   21.3854  -30.7554 H   0  0  0  0  0  0  0  0  0  0  0  0
   -8.1425   23.5708  -30.7477 H   0  0  0  0  0  0  0  0  0  0  0  0
  1  2  1  0
  2  3  1  0
  3  4  1  0
  4  5  1  0
  3  6  1  0
  6  7  1  0
  7  8  2  0
  8  9  1  0
  9 10  2  0
 10 11  1  0
 10 12  1  0
 12 13  2  0
 13  7  1  0
  1 14  1  0
  1 15  1  0
  1 16  1  0
  2 17  1  0
  2 18  1  0
  4 19  1  0
  4 20  1  0
  5 21  1  0
  5 22  1  0
  5 23  1  0
  6 24  1  0
  6 25  1  0
  8 26  1  0
  9 27  1  0
 12 28  1  0
 13 29  1  0
M  END
>  <UniqueID>  (6) 
6

>  <SMILES>  (6) 
CCN(CC)Cc1ccc(Br)cc1

>  <Energy>  (6) 
31.71297519810065

>  <Genealogy>  (6) 
CCN(CC)Cc1ccc(Br)cc1 (3D coordinates assigned)
CCN(CC)Cc1ccc(Br)cc1 (optimized conformer: 31.71297519810065 kcal/mol)

>  <smiles>  (6) 
CCN(CC)Cc1ccc(Br)cc1

>  <score_type>  (6) 
oracle

>  <origin>  (6) 
adg

>  <m_score__min__energy>  (6) 
-6.0599999999999996

>  <m_primary>  (6) 
energy

$$$$
6:0
     RDKit          3D

 39 41  0  0  0  0  0  0  0  0999 V2000
   -3.4680   21.0780  -31.9870 C   0  0  0  0  0  0  0  0  0  0  0  0
   -4.4650   21.4250  -33.0870 C   0  0  0  0  0  0  0  0  0  0  0  0
   -5.8330   21.4250  -32.5610 N   0  0  0  0  0  0  0  0  0  0  0  0
   -6.5260   22.4530  -31.9950 C   0  0  0  0  0  0  0  0  0  0  0  0
   -5.9940   23.8470  -31.8270 C   0  0  0  0  0  0  0  0  0  0  0  0
   -6.7580   24.5690  -30.8010 N   0  0  0  0  0  0  0  0  0  0  0  0
   -5.8700   25.1800  -29.8050 C   0  0  0  0  0  0  0  0  0  0  0  0
   -4.7260   24.2510  -29.5160 C   0  0  0  0  0  0  0  0  0  0  0  0
   -3.4350   24.5500  -29.9850 C   0  0  0  0  0  0  0  0  0  0  0  0
   -2.3620   23.7060  -29.6810 C   0  0  0  0  0  0  0  0  0  0  0  0
   -2.5680   22.5650  -28.9000 C   0  0  0  0  0  0  0  0  0  0  0  0
   -3.8460   22.2680  -28.4200 C   0  0  0  0  0  0  0  0  0  0  0  0
   -4.9220   23.1100  -28.7210 C   0  0  0  0  0  0  0  0  0  0  0  0
   -7.7600   22.0930  -31.5530 N   0  0  0  0  0  0  0  0  0  0  0  0
   -7.8250   20.7860  -31.8620 C   0  0  0  0  0  0  0  0  0  0  0  0
   -8.8790   19.9090  -31.6190 C   0  0  0  0  0  0  0  0  0  0  0  0
   -8.7210   18.5680  -32.0170 C   0  0  0  0  0  0  0  0  0  0  0  0
   -7.5270   18.1430  -32.6390 C   0  0  0  0  0  0  0  0  0  0  0  0
   -6.4780   19.0540  -32.8690 C   0  0  0  0  0  0  0  0  0  0  0  0
   -6.6700   20.3760  -32.4640 C   0  0  0  0  0  0  0  0  0  0  0  0
   -3.9349   21.2405  -31.0044 H   0  0  0  0  0  0  0  0  0  0  0  0
   -3.1701   20.0233  -32.0815 H   0  0  0  0  0  0  0  0  0  0  0  0
   -2.5797   21.7198  -32.0815 H   0  0  0  0  0  0  0  0  0  0  0  0
   -4.2308   22.4231  -33.4857 H   0  0  0  0  0  0  0  0  0  0  0  0
   -4.3911   20.6704  -33.8840 H   0  0  0  0  0  0  0  0  0  0  0  0
   -4.9378   23.7973  -31.5238 H   0  0  0  0  0  0  0  0  0  0  0  0
   -6.0891   24.3818  -32.7835 H   0  0  0  0  0  0  0  0  0  0  0  0
   -7.3600   23.8700  -30.3050 H   0  0  0  0  0  0  0  0  0  0  0  0
   -5.4799   26.1311  -30.1963 H   0  0  0  0  0  0  0  0  0  0  0  0
   -6.4327   25.3673  -28.8786 H   0  0  0  0  0  0  0  0  0  0  0  0
   -3.2681   25.4511  -30.5934 H   0  0  0  0  0  0  0  0  0  0  0  0
   -1.3551   23.9402  -30.0568 H   0  0  0  0  0  0  0  0  0  0  0  0
   -1.7237   21.9009  -28.6633 H   0  0  0  0  0  0  0  0  0  0  0  0
   -4.0065   21.3706  -27.8044 H   0  0  0  0  0  0  0  0  0  0  0  0
   -5.9250   22.8775  -28.3336 H   0  0  0  0  0  0  0  0  0  0  0  0
   -9.8038   20.2525  -31.1325 H   0  0  0  0  0  0  0  0  0  0  0  0
   -9.5329   17.8467  -31.8423 H   0  0  0  0  0  0  0  0  0  0  0  0
   -7.4153   17.0927  -32.9462 H   0  0  0  0  0  0  0  0  0  0  0  0
   -5.5415   18.7355  -33.3502 H   0  0  0  0  0  0  0  0  0  0  0  0
  1  2  1  0
  2  3  1  0
  3  4  1  0
  4  5  1  0
  5  6  1  0
  6  7  1  0
  7  8  1  0
  8  9  2  0
  9 10  1  0
 10 11  2  0
 11 12  1  0
 12 13  2  0
  4 14  2  0
 14 15  1  0
 15 16  2  0
 16 17  1  0
 17 18  2  0
 18 19  1  0
 19 20  2  0
 20  3  1  0
 13  8  1  0
 20 15  1  0
  1 21  1  0
  1 22  1  0
  1 23  1  0
  2 24  1  0
  2 25  1  0
  5 26  1  0
  5 27  1  0
  6 28  1  0
  7 29  1  0
  7 30  1  0
  9 31  1  0
 10 32  1  0
 11 33  1  0
 12 34  1  0
 13 35  1  0
 16 36  1  0
 17 37  1  0
 18 38  1  0
 19 39  1  0
M  END
>  <UniqueID>  (7) 
7

>  <SMILES>  (7) 
CCn1c(CNCc2ccccc2)nc2ccccc21

>  <Energy>  (7) 
71.90423218157974

>  <Genealogy>  (7) 
CCn1c(CNCc2ccccc2)nc2ccccc21 (3D coordinates assigned)
CCn1c(CNCc2ccccc2)nc2ccccc21 (optimized conformer: 71.90423218157974 kcal/mol)

>  <smiles>  (7) 
CCn1c(CNCc2ccccc2)nc2ccccc21

>  <score_type>  (7) 
oracle

>  <origin>  (7) 
adg

>  <m_score__min__energy>  (7) 
-7.4199999999999999

>  <m_primary>  (7) 
energy

$$$$
7:0
     RDKit          3D

 50 53  0  0  0  0  0  0  0  0999 V2000
   -5.6720   17.7930  -34.9510 C   0  0  0  0  0  0  0  0  0  0  0  0
   -5.8040   17.7410  -33.5330 O   0  0  0  0  0  0  0  0  0  0  0  0
   -6.6590   18.5660  -32.7830 C   0  0  0  0  0  0  0  0  0  0  0  0
   -7.9690   18.1740  -32.4450 C   0  0  0  0  0  0  0  0  0  0  0  0
   -8.8000   19.0350  -31.7230 C   0  0  0  0  0  0  0  0  0  0  0  0
   -8.3340   20.2910  -31.3290 C   0  0  0  0  0  0  0  0  0  0  0  0
   -7.0350   20.6860  -31.6530 C   0  0  0  0  0  0  0  0  0  0  0  0
   -6.1900   19.8280  -32.3740 C   0  0  0  0  0  0  0  0  0  0  0  0
   -4.8450   20.2350  -32.6710 N   0  0  0  0  0  0  0  0  0  0  0  0
   -3.7310   19.3140  -32.4400 C   0  0  0  0  0  0  0  0  0  0  0  0
   -2.7030   19.4560  -33.5730 C   0  0  0  0  0  0  0  0  0  0  0  0
   -2.3110   20.8720  -33.8530 N   0  0  0  0  0  0  0  0  0  0  0  0
   -0.8890   21.0640  -33.6220 C   0  0  0  0  0  0  0  0  0  0  0  0
   -0.2740   21.9150  -34.2490 O   0  0  0  0  0  0  0  0  0  0  0  0
   -0.1430   20.2460  -32.6040 C   0  0  0  0  0  0  0  0  0  0  0  0
   -0.0570   20.9800  -31.3880 O   0  0  0  0  0  0  0  0  0  0  0  0
   -0.6620   20.5280  -30.2150 C   0  0  0  0  0  0  0  0  0  0  0  0
   -0.2370   19.3360  -29.5880 C   0  0  0  0  0  0  0  0  0  0  0  0
    1.1010   18.4020  -30.2420 Cl  0  0  0  0  0  0  0  0  0  0  0  0
   -0.8630   18.8930  -28.4060 C   0  0  0  0  0  0  0  0  0  0  0  0
   -1.9070   19.6320  -27.8310 C   0  0  0  0  0  0  0  0  0  0  0  0
   -2.7470   19.0180  -26.2250 Br  0  0  0  0  0  0  0  0  0  0  0  0
   -2.3020   20.8140  -28.4620 C   0  0  0  0  0  0  0  0  0  0  0  0
   -3.5070   21.8950  -28.0150 S   0  0  0  0  0  0  0  0  0  0  0  0
   -3.2660   22.9550  -29.3100 C   0  0  0  0  0  0  0  0  0  0  0  0
   -2.2350   22.4660  -30.1080 C   0  0  0  0  0  0  0  0  0  0  0  0
   -1.6970   21.2630  -29.6280 C   0  0  0  0  0  0  0  0  0  0  0  0
   -3.0710   21.8900  -33.0890 C   0  0  0  0  0  0  0  0  0  0  0  0
   -4.5760   21.6050  -33.1160 C   0  0  0  0  0  0  0  0  0  0  0  0
   -4.6779   18.1846  -35.2126 H   0  0  0  0  0  0  0  0  0  0  0  0
   -5.7889   16.7816  -35.3675 H   0  0  0  0  0  0  0  0  0  0  0  0
   -6.4473   18.4529  -35.3675 H   0  0  0  0  0  0  0  0  0  0  0  0
   -8.3400   17.1847  -32.7510 H   0  0  0  0  0  0  0  0  0  0  0  0
   -9.8227   18.7228  -31.4647 H   0  0  0  0  0  0  0  0  0  0  0  0
   -8.9903   20.9689  -30.7635 H   0  0  0  0  0  0  0  0  0  0  0  0
   -6.6712   21.6762  -31.3412 H   0  0  0  0  0  0  0  0  0  0  0  0
   -3.2520   19.5522  -31.4788 H   0  0  0  0  0  0  0  0  0  0  0  0
   -4.1090   18.2813  -32.4164 H   0  0  0  0  0  0  0  0  0  0  0  0
   -1.7994   18.8937  -33.2950 H   0  0  0  0  0  0  0  0  0  0  0  0
   -3.1747   19.0655  -34.4868 H   0  0  0  0  0  0  0  0  0  0  0  0
   -2.5090   21.0530  -34.8660 H   0  0  0  0  0  0  0  0  0  0  0  0
   -0.6782   19.3015  -32.4268 H   0  0  0  0  0  0  0  0  0  0  0  0
    0.8686   20.0255  -32.9756 H   0  0  0  0  0  0  0  0  0  0  0  0
   -0.5298   17.9590  -27.9299 H   0  0  0  0  0  0  0  0  0  0  0  0
   -3.8318   23.8805  -29.4925 H   0  0  0  0  0  0  0  0  0  0  0  0
   -1.8799   22.9701  -31.0189 H   0  0  0  0  0  0  0  0  0  0  0  0
   -2.7250   21.8850  -32.0448 H   0  0  0  0  0  0  0  0  0  0  0  0
   -2.8974   22.8713  -33.5546 H   0  0  0  0  0  0  0  0  0  0  0  0
   -5.0905   22.3108  -32.4473 H   0  0  0  0  0  0  0  0  0  0  0  0
   -4.9430   21.7239  -34.1461 H   0  0  0  0  0  0  0  0  0  0  0  0
  1  2  1  0
  2  3  1  0
  3  4  2  0
  4  5  1  0
  5  6  2  0
  6  7  1  0
  7  8  2  0
  8  9  1  0
  9 10  1  0
 10 11  1  0
 11 12  1  0
 12 13  1  0
 13 14  2  0
 13 15  1  0
 15 16  1  0
 16 17  1  0
 17 18  2  0
 18 19  1  0
 18 20  1  0
 20 21  2  0
 21 22  1  0
 21 23  1  0
 23 24  1  0
 24 25  1  0
 25 26  2  0
 26 27  1  0
 12 28  1  0
 28 29  1  0
  8  3  1  0
 29  9  1  0
 27 17  1  0
 27 23  2  0
  1 30  1  0
  1 31  1  0
  1 32  1  0
  4 33  1  0
  5 34  1  0
  6 35  1  0
  7 36  1  0
 10 37  1  0
 10 38  1  0
 11 39  1  0
 11 40  1  0
 12 41  1  0
 15 42  1  0
 15 43  1  0
 20 44  1  0
 25 45  1  0
 26 46  1  0
 28 47  1  0
 28 48  1  0
 29 49  1  0
 29 50  1  0
M  CHG  1  12   1
M  END
>  <UniqueID>  (8) 
8

>  <SMILES>  (8) 
COc1ccccc1N1CC[NH+](C(=O)COc2c(Cl)cc(Br)c3sccc23)CC1

>  <Energy>  (8) 
101.63488657067437

>  <Genealogy>  (8) 
COc1ccccc1N1CC[NH+](C(=O)COc2c(Cl)cc(Br)c3sccc23)CC1 (protonated)
COc1ccccc1N1CC[NH+](C(=O)COc2c(Cl)cc(Br)c3sccc23)CC1 (3D coordinates assigned)
COc1ccccc1N1CC[NH+](C(=O)COc2c(Cl)cc(Br)c3sccc23)CC1 (nonaromatic ring conformer: 101.63488657067437 kcal/mol)

>  <smiles>  (8) 
COc1ccccc1N1CCN(C(=O)COc2c(Cl)cc(Br)c3sccc23)CC1

>  <score_type>  (8) 
oracle

>  <origin>  (8) 
adg

>  <m_score__min__energy>  (8) 
-8.8699999999999992

>  <m_primary>  (8) 
energy

$$$$
8:0
     RDKit          3D

 42 43  0  0  0  0  0  0  0  0999 V2000
   -5.7210   25.9990  -30.4920 C   0  0  0  0  0  0  0  0  0  0  0  0
   -4.4670   25.3290  -30.4370 O   0  0  0  0  0  0  0  0  0  0  0  0
   -4.1720   24.2360  -29.6050 C   0  0  0  0  0  0  0  0  0  0  0  0
   -4.0050   24.4850  -28.2750 N   0  0  0  0  0  0  0  0  0  0  0  0
   -3.7090   23.4960  -27.3920 C   0  0  0  0  0  0  0  0  0  0  0  0
   -3.5900   22.1870  -27.8450 C   0  0  0  0  0  0  0  0  0  0  0  0
   -3.7860   21.9170  -29.1590 N   0  0  0  0  0  0  0  0  0  0  0  0
   -4.0730   22.8940  -30.0630 C   0  0  0  0  0  0  0  0  0  0  0  0
   -4.3660   22.4660  -31.4760 C   0  0  0  0  0  0  0  0  0  0  0  0
   -5.6780   23.0840  -31.9860 C   0  0  0  0  0  0  0  0  0  0  0  0
   -6.8780   22.6260  -31.1510 C   0  0  0  0  0  0  0  0  0  0  0  0
   -7.9980   22.2250  -32.0360 N   0  0  0  0  0  0  0  0  0  0  0  0
   -9.0570   23.2470  -32.0380 C   0  0  0  0  0  0  0  0  0  0  0  0
   -8.5530   20.9100  -31.6560 C   0  0  0  0  0  0  0  0  0  0  0  0
   -7.7860   19.8100  -32.3420 C   0  0  0  0  0  0  0  0  0  0  0  0
   -6.8640   20.1260  -33.3540 C   0  0  0  0  0  0  0  0  0  0  0  0
   -6.1170   19.1150  -33.9650 C   0  0  0  0  0  0  0  0  0  0  0  0
   -6.2860   17.7840  -33.5740 C   0  0  0  0  0  0  0  0  0  0  0  0
   -7.2030   17.4620  -32.5700 C   0  0  0  0  0  0  0  0  0  0  0  0
   -7.9510   18.4700  -31.9530 C   0  0  0  0  0  0  0  0  0  0  0  0
   -6.0795   26.1906  -29.4699 H   0  0  0  0  0  0  0  0  0  0  0  0
   -5.6032   26.9544  -31.0243 H   0  0  0  0  0  0  0  0  0  0  0  0
   -6.4497   25.3701  -31.0243 H   0  0  0  0  0  0  0  0  0  0  0  0
   -4.0910   25.4650  -27.9220 H   0  0  0  0  0  0  0  0  0  0  0  0
   -3.5646   23.7291  -26.3267 H   0  0  0  0  0  0  0  0  0  0  0  0
   -3.3391   21.3777  -27.1436 H   0  0  0  0  0  0  0  0  0  0  0  0
   -3.5405   22.7898  -32.1270 H   0  0  0  0  0  0  0  0  0  0  0  0
   -4.4683   21.3709  -31.4930 H   0  0  0  0  0  0  0  0  0  0  0  0
   -5.6018   24.1800  -31.9306 H   0  0  0  0  0  0  0  0  0  0  0  0
   -5.8340   22.7535  -33.0235 H   0  0  0  0  0  0  0  0  0  0  0  0
   -6.5814   21.7681  -30.5297 H   0  0  0  0  0  0  0  0  0  0  0  0
   -7.2076   23.4583  -30.5118 H   0  0  0  0  0  0  0  0  0  0  0  0
   -9.3219   23.5026  -31.0014 H   0  0  0  0  0  0  0  0  0  0  0  0
   -8.6966   24.1474  -32.5570 H   0  0  0  0  0  0  0  0  0  0  0  0
   -9.9440   22.8549  -32.5570 H   0  0  0  0  0  0  0  0  0  0  0  0
   -8.4758   20.7831  -30.5661 H   0  0  0  0  0  0  0  0  0  0  0  0
   -9.6081   20.8607  -31.9632 H   0  0  0  0  0  0  0  0  0  0  0  0
   -6.7297   21.1721  -33.6663 H   0  0  0  0  0  0  0  0  0  0  0  0
   -5.3946   19.3675  -34.7552 H   0  0  0  0  0  0  0  0  0  0  0  0
   -5.6972   16.9899  -34.0565 H   0  0  0  0  0  0  0  0  0  0  0  0
   -7.3368   16.4138  -32.2643 H   0  0  0  0  0  0  0  0  0  0  0  0
   -8.6702   18.2131  -31.1613 H   0  0  0  0  0  0  0  0  0  0  0  0
  1  2  1  0
  2  3  1  0
  3  4  2  0
  4  5  1  0
  5  6  2  0
  6  7  1  0
  7  8  2  0
  8  9  1  0
  9 10  1  0
 10 11  1  0
 11 12  1  0
 12 13  1  0
 12 14  1  0
 14 15  1  0
 15 16  2  0
 16 17  1  0
 17 18  2  0
 18 19  1  0
 19 20  2  0
  8  3  1  0
 20 15  1  0
  1 21  1  0
  1 22  1  0
  1 23  1  0
  4 24  1  0
  5 25  1  0
  6 26  1  0
  9 27  1  0
  9 28  1  0
 10 29  1  0
 10 30  1  0
 11 31  1  0
 11 32  1  0
 13 33  1  0
 13 34  1  0
 13 35  1  0
 14 36  1  0
 14 37  1  0
 16 38  1  0
 17 39  1  0
 18 40  1  0
 19 41  1  0
 20 42  1  0
M  CHG  1   4   1
M  END
>  <UniqueID>  (9) 
9

>  <SMILES>  (9) 
COc1[nH+]ccnc1CCCN(C)Cc1ccccc1

>  <Energy>  (9) 
45.88498033189541

>  <Genealogy>  (9) 
COc1[nH+]ccnc1CCCN(C)Cc1ccccc1 (protonated)
COc1[nH+]ccnc1CCCN(C)Cc1ccccc1 (3D coordinates assigned)
COc1[nH+]ccnc1CCCN(C)Cc1ccccc1 (optimized conformer: 45.88498033189541 kcal/mol)

>  <smiles>  (9) 
COc1nccnc1CCCN(C)Cc1ccccc1

>  <score_type>  (9) 
oracle

>  <origin>  (9) 
adg

>  <m_score__min__energy>  (9) 
-6.5099999999999998

>  <m_primary>  (9) 
energy

$$$$
9:0
     RDKit          3D

 47 49  0  0  0  0  0  0  0  0999 V2000
   -0.8120   27.6350  -24.4570 C   0  0  0  0  0  0  0  0  0  0  0  0
   -0.4990   26.5070  -23.4680 C   0  0  0  0  0  0  0  0  0  0  0  0
   -0.4420   25.1830  -24.1280 N   0  0  0  0  0  0  0  0  0  0  0  0
    0.0310   25.2490  -25.5220 C   0  0  0  0  0  0  0  0  0  0  0  0
   -1.0640   24.9330  -26.5040 C   0  0  0  0  0  0  0  0  0  0  0  0
   -0.7890   24.8000  -27.8700 C   0  0  0  0  0  0  0  0  0  0  0  0
   -1.8340   24.5400  -28.7580 C   0  0  0  0  0  0  0  0  0  0  0  0
   -3.1530   24.4100  -28.2880 C   0  0  0  0  0  0  0  0  0  0  0  0
   -4.2670   24.1370  -29.2340 C   0  0  0  0  0  0  0  0  0  0  0  0
   -5.3730   24.9540  -29.4900 C   0  0  0  0  0  0  0  0  0  0  0  0
   -6.2560   24.4270  -30.4410 C   0  0  0  0  0  0  0  0  0  0  0  0
   -5.8520   23.2000  -30.9500 C   0  0  0  0  0  0  0  0  0  0  0  0
   -6.5940   22.3860  -31.9740 C   0  0  0  0  0  0  0  0  0  0  0  0
   -7.2580   21.1950  -31.4050 N   0  0  0  0  0  0  0  0  0  0  0  0
   -8.7080   21.3380  -31.1590 C   0  0  0  0  0  0  0  0  0  0  0  0
   -9.5850   20.8260  -32.3260 C   0  0  0  0  0  0  0  0  0  0  0  0
   -9.0090   19.6950  -33.0740 N   0  0  0  0  0  0  0  0  0  0  0  0
   -7.9910   18.9730  -32.3090 C   0  0  0  0  0  0  0  0  0  0  0  0
   -6.8180   19.9020  -31.9760 C   0  0  0  0  0  0  0  0  0  0  0  0
   -4.4130   22.7630  -30.2030 S   0  0  0  0  0  0  0  0  0  0  0  0
   -3.3780   24.5540  -26.9070 C   0  0  0  0  0  0  0  0  0  0  0  0
   -2.3440   24.8100  -26.0630 N   0  0  0  0  0  0  0  0  0  0  0  0
   -1.0658   28.5498  -23.9014 H   0  0  0  0  0  0  0  0  0  0  0  0
    0.0680   27.8226  -25.0897 H   0  0  0  0  0  0  0  0  0  0  0  0
   -1.6629   27.3423  -25.0897 H   0  0  0  0  0  0  0  0  0  0  0  0
    0.4738   26.7096  -22.9962 H   0  0  0  0  0  0  0  0  0  0  0  0
   -1.3076   26.4778  -22.7228 H   0  0  0  0  0  0  0  0  0  0  0  0
   -1.3670   24.6920  -24.0870 H   0  0  0  0  0  0  0  0  0  0  0  0
    0.2390   24.5890  -23.6000 H   0  0  0  0  0  0  0  0  0  0  0  0
    0.4057   26.2636  -25.7222 H   0  0  0  0  0  0  0  0  0  0  0  0
    0.8263   24.4994  -25.6469 H   0  0  0  0  0  0  0  0  0  0  0  0
    0.2419   24.8995  -28.2405 H   0  0  0  0  0  0  0  0  0  0  0  0
   -1.6244   24.4361  -29.8328 H   0  0  0  0  0  0  0  0  0  0  0  0
   -5.5344   25.9208  -28.9907 H   0  0  0  0  0  0  0  0  0  0  0  0
   -7.1797   24.9357  -30.7541 H   0  0  0  0  0  0  0  0  0  0  0  0
   -7.3600   23.0241  -32.4388 H   0  0  0  0  0  0  0  0  0  0  0  0
   -5.8534   22.0281  -32.7044 H   0  0  0  0  0  0  0  0  0  0  0  0
   -8.9655   20.7683  -30.2539 H   0  0  0  0  0  0  0  0  0  0  0  0
   -8.9129   22.4130  -31.0475 H   0  0  0  0  0  0  0  0  0  0  0  0
  -10.5535   20.5071  -31.9134 H   0  0  0  0  0  0  0  0  0  0  0  0
   -9.6737   21.6591  -33.0388 H   0  0  0  0  0  0  0  0  0  0  0  0
   -8.5700   20.0540  -33.9560 H   0  0  0  0  0  0  0  0  0  0  0  0
   -8.4356   18.6005  -31.3744 H   0  0  0  0  0  0  0  0  0  0  0  0
   -7.6206   18.1307  -32.9118 H   0  0  0  0  0  0  0  0  0  0  0  0
   -6.1664   19.3986  -31.2466 H   0  0  0  0  0  0  0  0  0  0  0  0
   -6.2871   20.1168  -32.9152 H   0  0  0  0  0  0  0  0  0  0  0  0
   -4.3983   24.4587  -26.5072 H   0  0  0  0  0  0  0  0  0  0  0  0
  1  2  1  0
  2  3  1  0
  3  4  1  0
  4  5  1  0
  5  6  2  0
  6  7  1  0
  7  8  2  0
  8  9  1  0
  9 10  2  0
 10 11  1  0
 11 12  2  0
 12 13  1  0
 13 14  1  0
 14 15  1  0
 15 16  1  0
 16 17  1  0
 17 18  1  0
 18 19  1  0
 12 20  1  0
  8 21  1  0
 21 22  2  0
 22  5  1  0
 20  9  1  0
 19 14  1  0
  1 23  1  0
  1 24  1  0
  1 25  1  0
  2 26  1  0
  2 27  1  0
  3 28  1  0
  3 29  1  0
  4 30  1  0
  4 31  1  0
  6 32  1  0
  7 33  1  0
 10 34  1  0
 11 35  1  0
 13 36  1  0
 13 37  1  0
 15 38  1  0
 15 39  1  0
 16 40  1  0
 16 41  1  0
 17 42  1  0
 18 43  1  0
 18 44  1  0
 19 45  1  0
 19 46  1  0
 21 47  1  0
M  CHG  1   3   1
M  END
>  <UniqueID>  (10) 
10

>  <SMILES>  (10) 
CC[NH2+]Cc1ccc(-c2ccc(CN3CCNCC3)s2)cn1

>  <Energy>  (10) 
88.41541529745508

>  <Genealogy>  (10) 
CC[NH2+]Cc1ccc(-c2ccc(CN3CCNCC3)s2)cn1 (protonated)
CC[NH2+]Cc1ccc(-c2ccc(CN3CCNCC3)s2)cn1 (3D coordinates assigned)
CC[NH2+]Cc1ccc(-c2ccc(CN3CCNCC3)s2)cn1 (nonaromatic ring conformer: 88.41541529745508 kcal/mol)

>  <smiles>  (10) 
CCNCc1ccc(-c2ccc(CN3CCNCC3)s2)cn1

>  <score_type>  (10) 
oracle

>  <origin>  (10) 
adg

>  <m_score__min__energy>  (10) 
-8.25

>  <m_primary>  (10) 
energy

$$$$
10:0
     RDKit          3D

 28 30  0  0  0  0  0  0  0  0999 V2000
   -9.1040   18.7430  -32.3430 C   0  0  0  0  0  0  0  0  0  0  0  0
   -8.7500   20.1560  -32.0260 C   0  0  0  0  0  0  0  0  0  0  0  0
   -9.6380   21.2120  -31.9590 C   0  0  0  0  0  0  0  0  0  0  0  0
   -8.8760   22.3220  -31.6580 C   0  0  0  0  0  0  0  0  0  0  0  0
   -7.5730   21.8670  -31.5630 C   0  0  0  0  0  0  0  0  0  0  0  0
   -6.3900   22.6790  -31.2590 C   0  0  0  0  0  0  0  0  0  0  0  0
   -5.6500   23.3420  -32.1640 N   0  0  0  0  0  0  0  0  0  0  0  0
   -4.6760   23.9530  -31.5100 N   0  0  0  0  0  0  0  0  0  0  0  0
   -4.8590   23.6360  -30.2120 C   0  0  0  0  0  0  0  0  0  0  0  0
   -3.9960   24.1030  -29.1100 C   0  0  0  0  0  0  0  0  0  0  0  0
   -4.5060   24.1950  -27.8040 C   0  0  0  0  0  0  0  0  0  0  0  0
   -3.6910   24.6370  -26.7560 C   0  0  0  0  0  0  0  0  0  0  0  0
   -2.3610   24.9910  -27.0030 C   0  0  0  0  0  0  0  0  0  0  0  0
   -1.2500   25.5940  -25.5710 Br  0  0  0  0  0  0  0  0  0  0  0  0
   -1.8460   24.9030  -28.3000 C   0  0  0  0  0  0  0  0  0  0  0  0
   -2.6570   24.4610  -29.3490 C   0  0  0  0  0  0  0  0  0  0  0  0
   -5.9070   22.8560  -30.0520 O   0  0  0  0  0  0  0  0  0  0  0  0
   -7.5280   20.5750  -31.7890 O   0  0  0  0  0  0  0  0  0  0  0  0
   -9.2447   18.1815  -31.4076 H   0  0  0  0  0  0  0  0  0  0  0  0
  -10.0355   18.7207  -32.9277 H   0  0  0  0  0  0  0  0  0  0  0  0
   -8.2931   18.2841  -32.9277 H   0  0  0  0  0  0  0  0  0  0  0  0
  -10.7265   21.1755  -32.1135 H   0  0  0  0  0  0  0  0  0  0  0  0
   -9.2308   23.3543  -31.5218 H   0  0  0  0  0  0  0  0  0  0  0  0
   -5.7910   23.3860  -33.1980 H   0  0  0  0  0  0  0  0  0  0  0  0
   -5.5517   23.9180  -27.6043 H   0  0  0  0  0  0  0  0  0  0  0  0
   -4.0973   24.7061  -25.7361 H   0  0  0  0  0  0  0  0  0  0  0  0
   -0.8001   25.1823  -28.4952 H   0  0  0  0  0  0  0  0  0  0  0  0
   -2.2458   24.3928  -30.3670 H   0  0  0  0  0  0  0  0  0  0  0  0
  1  2  1  0
  2  3  2  0
  3  4  1  0
  4  5  2  0
  5  6  1  0
  6  7  2  0
  7  8  1  0
  8  9  2  0
  9 10  1  0
 10 11  2  0
 11 12  1  0
 12 13  2  0
 13 14  1  0
 13 15  1  0
 15 16  2  0
  9 17  1  0
  5 18  1  0
 18  2  1  0
 17  6  1  0
 16 10  1  0
  1 19  1  0
  1 20  1  0
  1 21  1  0
  3 22  1  0
  4 23  1  0
  7 24  1  0
 11 25  1  0
 12 26  1  0
 15 27  1  0
 16 28  1  0
M  CHG  1   7   1
M  END
>  <UniqueID>  (11) 
11

>  <SMILES>  (11) 
Cc1ccc(-c2[nH+]nc(-c3ccc(Br)cc3)o2)o1

>  <Energy>  (11) 
89.54360925526736

>  <Genealogy>  (11) 
Cc1ccc(-c2[nH+]nc(-c3ccc(Br)cc3)o2)o1 (protonated)
Cc1ccc(-c2[nH+]nc(-c3ccc(Br)cc3)o2)o1 (3D coordinates assigned)
Cc1ccc(-c2[nH+]nc(-c3ccc(Br)cc3)o2)o1 (optimized conformer: 89.54360925526736 kcal/mol)

>  <smiles>  (11) 
Cc1ccc(-c2nnc(-c3ccc(Br)cc3)o2)o1

>  <score_type>  (11) 
oracle

>  <origin>  (11) 
adg

>  <m_score__min__energy>  (11) 
-6.6600000000000001

>  <m_primary>  (11) 
energy

$$$$
11:0
     RDKit          3D

 42 44  0  0  0  0  0  0  0  0999 V2000
   -3.7780   19.8330  -33.4700 C   0  0  0  0  0  0  0  0  0  0  0  0
   -4.7180   18.8950  -34.2170 C   0  0  0  0  0  0  0  0  0  0  0  0
   -5.2280   17.8620  -33.2830 N   0  0  0  0  0  0  0  0  0  0  0  0
   -4.4940   16.5810  -33.3620 C   0  0  0  0  0  0  0  0  0  0  0  0
   -5.4610   15.4070  -33.4860 C   0  0  0  0  0  0  0  0  0  0  0  0
   -6.6960   17.6900  -33.3610 C   0  0  0  0  0  0  0  0  0  0  0  0
   -7.4870   18.7870  -32.6060 C   0  0  0  0  0  0  0  0  0  0  0  0
   -6.6240   19.5750  -31.7090 N   0  0  0  0  0  0  0  0  0  0  0  0
   -7.0530   20.9530  -31.6300 C   0  0  0  0  0  0  0  0  0  0  0  0
   -8.3350   21.3380  -32.0860 C   0  0  0  0  0  0  0  0  0  0  0  0
   -8.7540   22.6810  -32.0150 C   0  0  0  0  0  0  0  0  0  0  0  0
   -7.9050   23.6640  -31.4890 C   0  0  0  0  0  0  0  0  0  0  0  0
   -6.6530   23.2700  -31.0270 C   0  0  0  0  0  0  0  0  0  0  0  0
   -6.2170   21.9540  -31.1000 C   0  0  0  0  0  0  0  0  0  0  0  0
   -4.7800   21.8330  -30.6410 C   0  0  0  0  0  0  0  0  0  0  0  0
   -4.5060   23.2600  -30.2790 C   0  0  0  0  0  0  0  0  0  0  0  0
   -3.4110   24.0640  -30.4950 C   0  0  0  0  0  0  0  0  0  0  0  0
   -3.8510   25.3050  -30.8100 N   0  0  0  0  0  0  0  0  0  0  0  0
   -5.1810   25.2950  -30.8550 N   0  0  0  0  0  0  0  0  0  0  0  0
   -5.5720   24.0620  -30.4950 C   0  0  0  0  0  0  0  0  0  0  0  0
   -3.9117   19.6996  -32.3863 H   0  0  0  0  0  0  0  0  0  0  0  0
   -2.7374   19.6025  -33.7422 H   0  0  0  0  0  0  0  0  0  0  0  0
   -4.0062   20.8741  -33.7422 H   0  0  0  0  0  0  0  0  0  0  0  0
   -5.5624   19.4700  -34.6249 H   0  0  0  0  0  0  0  0  0  0  0  0
   -4.1743   18.4093  -35.0407 H   0  0  0  0  0  0  0  0  0  0  0  0
   -3.8333   16.5980  -34.2413 H   0  0  0  0  0  0  0  0  0  0  0  0
   -3.9048   16.4558  -32.4416 H   0  0  0  0  0  0  0  0  0  0  0  0
   -5.7469   15.0599  -32.4821 H   0  0  0  0  0  0  0  0  0  0  0  0
   -6.3598   15.7285  -34.0326 H   0  0  0  0  0  0  0  0  0  0  0  0
   -4.9733   14.5864  -34.0326 H   0  0  0  0  0  0  0  0  0  0  0  0
   -6.9935   17.7124  -34.4198 H   0  0  0  0  0  0  0  0  0  0  0  0
   -6.9355   16.7297  -32.8809 H   0  0  0  0  0  0  0  0  0  0  0  0
   -7.9453   19.4639  -33.3421 H   0  0  0  0  0  0  0  0  0  0  0  0
   -8.2512   18.2902  -31.9903 H   0  0  0  0  0  0  0  0  0  0  0  0
   -5.6290   19.5190  -32.0290 H   0  0  0  0  0  0  0  0  0  0  0  0
   -6.6580   19.1530  -30.7520 H   0  0  0  0  0  0  0  0  0  0  0  0
   -9.0139   20.5788  -32.5016 H   0  0  0  0  0  0  0  0  0  0  0  0
   -9.7552   22.9602  -32.3752 H   0  0  0  0  0  0  0  0  0  0  0  0
   -8.2194   24.7171  -31.4427 H   0  0  0  0  0  0  0  0  0  0  0  0
   -4.6830   21.1649  -29.7725 H   0  0  0  0  0  0  0  0  0  0  0  0
   -4.0905   21.4005  -31.3809 H   0  0  0  0  0  0  0  0  0  0  0  0
   -2.3585   23.7522  -30.4240 H   0  0  0  0  0  0  0  0  0  0  0  0
  1  2  1  0
  2  3  1  0
  3  4  1  0
  4  5  1  0
  3  6  1  0
  6  7  1  0
  7  8  1  0
  8  9  1  0
  9 10  2  0
 10 11  1  0
 11 12  2  0
 12 13  1  0
 13 14  2  0
 14 15  1  0
 15 16  1  0
 16 17  2  0
 17 18  1  0
 18 19  1  0
 19 20  2  0
 14  9  1  0
 20 16  1  0
 20 13  1  0
  1 21  1  0
  1 22  1  0
  1 23  1  0
  2 24  1  0
  2 25  1  0
  4 26  1  0
  4 27  1  0
  5 28  1  0
  5 29  1  0
  5 30  1  0
  6 31  1  0
  6 32  1  0
  7 33  1  0
  7 34  1  0
  8 35  1  0
  8 36  1  0
 10 37  1  0
 11 38  1  0
 12 39  1  0
 15 40  1  0
 15 41  1  0
 17 42  1  0
M  CHG  2   8   1  18  -1
M  END
>  <UniqueID>  (12) 
12

>  <SMILES>  (12) 
CCN(CC)CC[NH2+]c1cccc2c1Cc1c[n-]nc1-2

>  <Energy>  (12) 
115.1748001213953

>  <Genealogy>  (12) 
CCN(CC)CC[NH2+]c1cccc2c1Cc1c[n-]nc1-2 (protonated)
CCN(CC)CC[NH2+]c1cccc2c1Cc1c[n-]nc1-2 (3D coordinates assigned)
CCN(CC)CC[NH2+]c1cccc2c1Cc1c[n-]nc1-2 (nonaromatic ring conformer: 115.1748001213953 kcal/mol)

>  <smiles>  (12) 
CCN(CC)CCNc1cccc2c1Cc1c[nH]nc1-2

>  <score_type>  (12) 
oracle

>  <origin>  (12) 
adg

>  <m_score__min__energy>  (12) 
-8.2100000000000009

>  <m_primary>  (12) 
energy

$$$$
12:0
     RDKit          3D

 48 49  0  0  0  0  0  0  0  0999 V2000
   -6.1330   25.6840  -29.6510 C   0  0  0  0  0  0  0  0  0  0  0  0
   -5.2610   25.2950  -30.8410 C   0  0  0  0  0  0  0  0  0  0  0  0
   -3.8520   25.2790  -30.4610 N   0  0  0  0  0  0  0  0  0  0  0  0
   -3.2730   24.5160  -29.3920 C   0  0  0  0  0  0  0  0  0  0  0  0
   -3.8760   24.4770  -28.2870 O   0  0  0  0  0  0  0  0  0  0  0  0
   -2.0240   23.6900  -29.5740 C   0  0  0  0  0  0  0  0  0  0  0  0
   -2.3630   22.2910  -29.9070 N   0  0  0  0  0  0  0  0  0  0  0  0
   -1.6820   21.8330  -31.1470 C   0  0  0  0  0  0  0  0  0  0  0  0
   -2.6210   21.8230  -32.3590 C   0  0  0  0  0  0  0  0  0  0  0  0
   -3.7630   20.9050  -32.1440 N   0  0  0  0  0  0  0  0  0  0  0  0
   -4.8620   21.2120  -33.0810 C   0  0  0  0  0  0  0  0  0  0  0  0
   -6.0660   20.3540  -32.7780 C   0  0  0  0  0  0  0  0  0  0  0  0
   -5.9520   18.9540  -32.7930 C   0  0  0  0  0  0  0  0  0  0  0  0
   -7.0620   18.1520  -32.5210 C   0  0  0  0  0  0  0  0  0  0  0  0
   -8.2940   18.7390  -32.2310 C   0  0  0  0  0  0  0  0  0  0  0  0
   -8.4220   20.1290  -32.2130 C   0  0  0  0  0  0  0  0  0  0  0  0
   -7.3100   20.9510  -32.4870 C   0  0  0  0  0  0  0  0  0  0  0  0
   -7.4040   22.3520  -32.4820 O   0  0  0  0  0  0  0  0  0  0  0  0
   -7.9000   23.1300  -31.3970 C   0  0  0  0  0  0  0  0  0  0  0  0
   -7.3550   22.5750  -30.0900 C   0  0  0  0  0  0  0  0  0  0  0  0
   -4.2260   20.8550  -30.7320 C   0  0  0  0  0  0  0  0  0  0  0  0
   -3.8330   22.1130  -29.9450 C   0  0  0  0  0  0  0  0  0  0  0  0
   -5.6038   25.4479  -28.7160 H   0  0  0  0  0  0  0  0  0  0  0  0
   -6.3460   26.7625  -29.6895 H   0  0  0  0  0  0  0  0  0  0  0  0
   -7.0778   25.1220  -29.6895 H   0  0  0  0  0  0  0  0  0  0  0  0
   -5.5526   24.2938  -31.1910 H   0  0  0  0  0  0  0  0  0  0  0  0
   -5.4040   26.0345  -31.6426 H   0  0  0  0  0  0  0  0  0  0  0  0
   -1.4236   24.1193  -30.3896 H   0  0  0  0  0  0  0  0  0  0  0  0
   -1.4549   23.7000  -28.6327 H   0  0  0  0  0  0  0  0  0  0  0  0
   -0.8400   22.5086  -31.3579 H   0  0  0  0  0  0  0  0  0  0  0  0
   -1.3385   20.8014  -30.9799 H   0  0  0  0  0  0  0  0  0  0  0  0
   -3.0048   22.8406  -32.5240 H   0  0  0  0  0  0  0  0  0  0  0  0
   -2.0547   21.4752  -33.2356 H   0  0  0  0  0  0  0  0  0  0  0  0
   -5.1379   22.2721  -32.9813 H   0  0  0  0  0  0  0  0  0  0  0  0
   -4.5247   21.0044  -34.1072 H   0  0  0  0  0  0  0  0  0  0  0  0
   -4.9825   18.4868  -33.0204 H   0  0  0  0  0  0  0  0  0  0  0  0
   -6.9651   17.0564  -32.5354 H   0  0  0  0  0  0  0  0  0  0  0  0
   -9.1667   18.1049  -32.0160 H   0  0  0  0  0  0  0  0  0  0  0  0
   -9.3962   20.5855  -31.9837 H   0  0  0  0  0  0  0  0  0  0  0  0
   -7.5766   24.1746  -31.5159 H   0  0  0  0  0  0  0  0  0  0  0  0
   -8.9991   23.0877  -31.3854 H   0  0  0  0  0  0  0  0  0  0  0  0
   -7.8480   23.0771  -29.2445 H   0  0  0  0  0  0  0  0  0  0  0  0
   -7.5522   21.4940  -30.0401 H   0  0  0  0  0  0  0  0  0  0  0  0
   -6.2706   22.7525  -30.0401 H   0  0  0  0  0  0  0  0  0  0  0  0
   -5.3218   20.7596  -30.7222 H   0  0  0  0  0  0  0  0  0  0  0  0
   -3.7433   19.9921  -30.2500 H   0  0  0  0  0  0  0  0  0  0  0  0
   -4.2874   22.9920  -30.4255 H   0  0  0  0  0  0  0  0  0  0  0  0
   -4.1945   22.0015  -28.9121 H   0  0  0  0  0  0  0  0  0  0  0  0
  1  2  1  0
  2  3  1  0
  3  4  1  0
  4  5  2  0
  4  6  1  0
  6  7  1  0
  7  8  1  0
  8  9  1  0
  9 10  1  0
 10 11  1  0
 11 12  1  0
 12 13  2  0
 13 14  1  0
 14 15  2  0
 15 16  1  0
 16 17  2  0
 17 18  1  0
 18 19  1  0
 19 20  1  0
 10 21  1  0
 21 22  1  0
 22  7  1  0
 17 12  1  0
  1 23  1  0
  1 24  1  0
  1 25  1  0
  2 26  1  0
  2 27  1  0
  6 28  1  0
  6 29  1  0
  8 30  1  0
  8 31  1  0
  9 32  1  0
  9 33  1  0
 11 34  1  0
 11 35  1  0
 13 36  1  0
 14 37  1  0
 15 38  1  0
 16 39  1  0
 19 40  1  0
 19 41  1  0
 20 42  1  0
 20 43  1  0
 20 44  1  0
 21 45  1  0
 21 46  1  0
 22 47  1  0
 22 48  1  0
M  CHG  1   3  -1
M  END
>  <UniqueID>  (13) 
13

>  <SMILES>  (13) 
CC[N-]C(=O)CN1CCN(Cc2ccccc2OCC)CC1

>  <Energy>  (13) 
51.64900256164904

>  <Genealogy>  (13) 
CC[N-]C(=O)CN1CCN(Cc2ccccc2OCC)CC1 (protonated)
CC[N-]C(=O)CN1CCN(Cc2ccccc2OCC)CC1 (3D coordinates assigned)
CC[N-]C(=O)CN1CCN(Cc2ccccc2OCC)CC1 (nonaromatic ring conformer: 51.64900256164904 kcal/mol)

>  <smiles>  (13) 
CCNC(=O)CN1CCN(Cc2ccccc2OCC)CC1

>  <score_type>  (13) 
oracle

>  <origin>  (13) 
adg

>  <m_score__min__energy>  (13) 
-8.9299999999999997

>  <m_primary>  (13) 
energy

$$$$
13:0
     RDKit          3D

 43 45  0  0  0  0  0  0  0  0999 V2000
   -1.2530   25.8780  -25.2540 C   0  0  0  0  0  0  0  0  0  0  0  0
   -1.9450   25.3000  -26.4540 C   0  0  0  0  0  0  0  0  0  0  0  0
   -1.2820   25.2180  -27.6880 C   0  0  0  0  0  0  0  0  0  0  0  0
   -1.9450   24.7210  -28.8140 C   0  0  0  0  0  0  0  0  0  0  0  0
   -3.2820   24.2870  -28.7290 C   0  0  0  0  0  0  0  0  0  0  0  0
   -4.0200   23.8300  -29.9820 C   0  0  1  0  0  0  0  0  0  0  0  0
   -5.1540   22.7950  -29.6950 C   0  0  0  0  0  0  0  0  0  0  0  0
   -6.2260   22.8580  -30.7130 N   0  0  2  0  0  0  0  0  0  0  0  0
   -5.7420   22.3470  -31.9810 C   0  0  0  0  0  0  0  0  0  0  0  0
   -4.9750   23.0450  -32.7030 O   0  0  0  0  0  0  0  0  0  0  0  0
   -6.0320   20.9580  -32.3910 C   0  0  0  0  0  0  0  0  0  0  0  0
   -7.2660   20.3750  -32.0770 C   0  0  0  0  0  0  0  0  0  0  0  0
   -7.5460   19.0660  -32.4810 C   0  0  0  0  0  0  0  0  0  0  0  0
   -6.5740   18.3430  -33.1850 C   0  0  0  0  0  0  0  0  0  0  0  0
   -6.8550   16.9470  -33.6440 C   0  0  0  0  0  0  0  0  0  0  0  0
   -5.3760   18.9230  -33.4700 N   0  0  0  0  0  0  0  0  0  0  0  0
   -5.0900   20.2030  -33.1030 C   0  0  0  0  0  0  0  0  0  0  0  0
   -6.7850   24.2300  -30.8320 C   0  0  0  0  0  0  0  0  0  0  0  0
   -5.7740   25.3160  -30.4240 C   0  0  0  0  0  0  0  0  0  0  0  0
   -4.4610   24.9290  -30.7700 O   0  0  0  0  0  0  0  0  0  0  0  0
   -3.9530   24.4130  -27.4950 C   0  0  0  0  0  0  0  0  0  0  0  0
   -3.2900   24.9160  -26.3710 C   0  0  0  0  0  0  0  0  0  0  0  0
   -1.7203   25.4877  -24.3379 H   0  0  0  0  0  0  0  0  0  0  0  0
   -0.1900   25.5956  -25.2723 H   0  0  0  0  0  0  0  0  0  0  0  0
   -1.3415   26.9743  -25.2723 H   0  0  0  0  0  0  0  0  0  0  0  0
   -0.2354   25.5464  -27.7698 H   0  0  0  0  0  0  0  0  0  0  0  0
   -1.4164   24.6684  -29.7772 H   0  0  0  0  0  0  0  0  0  0  0  0
   -3.2819   23.2820  -30.5861 H   0  0  0  0  0  0  0  0  0  0  0  0
   -4.7215   21.7836  -29.6955 H   0  0  0  0  0  0  0  0  0  0  0  0
   -5.5966   23.0352  -28.7170 H   0  0  0  0  0  0  0  0  0  0  0  0
   -6.9930   22.2290  -30.3810 H   0  0  0  0  0  0  0  0  0  0  0  0
   -8.0160   20.9477  -31.5117 H   0  0  0  0  0  0  0  0  0  0  0  0
   -8.5191   18.6087  -32.2486 H   0  0  0  0  0  0  0  0  0  0  0  0
   -6.9866   16.2930  -32.7694 H   0  0  0  0  0  0  0  0  0  0  0  0
   -7.7730   16.9381  -34.2500 H   0  0  0  0  0  0  0  0  0  0  0  0
   -6.0120   16.5836  -34.2500 H   0  0  0  0  0  0  0  0  0  0  0  0
   -4.1177   20.6452  -33.3659 H   0  0  0  0  0  0  0  0  0  0  0  0
   -7.0828   24.4001  -31.8772 H   0  0  0  0  0  0  0  0  0  0  0  0
   -7.6449   24.3008  -30.1497 H   0  0  0  0  0  0  0  0  0  0  0  0
   -6.0226   26.2540  -30.9420 H   0  0  0  0  0  0  0  0  0  0  0  0
   -5.8262   25.4571  -29.3343 H   0  0  0  0  0  0  0  0  0  0  0  0
   -5.0082   24.1127  -27.4158 H   0  0  0  0  0  0  0  0  0  0  0  0
   -3.8276   25.0107  -25.4160 H   0  0  0  0  0  0  0  0  0  0  0  0
  1  2  1  0
  2  3  2  0
  3  4  1  0
  4  5  2  0
  5  6  1  0
  6  7  1  0
  7  8  1  0
  8  9  1  0
  9 10  2  0
  9 11  1  0
 11 12  2  0
 12 13  1  0
 13 14  2  0
 14 15  1  0
 14 16  1  0
 16 17  2  0
  8 18  1  0
 18 19  1  0
 19 20  1  0
  5 21  1  0
 21 22  2  0
 22  2  1  0
 20  6  1  0
 17 11  1  0
  1 23  1  0
  1 24  1  0
  1 25  1  0
  3 26  1  0
  4 27  1  0
  6 28  1  6
  7 29  1  0
  7 30  1  0
  8 31  1  1
 12 32  1  0
 13 33  1  0
 15 34  1  0
 15 35  1  0
 15 36  1  0
 17 37  1  0
 18 38  1  0
 18 39  1  0
 19 40  1  0
 19 41  1  0
 21 42  1  0
 22 43  1  0
M  CHG  1   8   1
M  END
>  <UniqueID>  (14) 
14

>  <SMILES>  (14) 
Cc1ccc([C@H]2C[N@H+](C(=O)c3ccc(C)nc3)CCO2)cc1

>  <Energy>  (14) 
66.00464728722949

>  <Genealogy>  (14) 
Cc1ccc(C2C[NH+](C(=O)c3ccc(C)nc3)CCO2)cc1 (protonated)
Cc1ccc([C@H]2C[N@H+](C(=O)c3ccc(C)nc3)CCO2)cc1 (chirality)
Cc1ccc([C@H]2C[N@H+](C(=O)c3ccc(C)nc3)CCO2)cc1 (3D coordinates assigned)
Cc1ccc([C@H]2C[N@H+](C(=O)c3ccc(C)nc3)CCO2)cc1 (nonaromatic ring conformer: 66.00464728722949 kcal/mol)

>  <smiles>  (14) 
Cc1ccc(C2CN(C(=O)c3ccc(C)nc3)CCO2)cc1

>  <score_type>  (14) 
oracle

>  <origin>  (14) 
adg

>  <m_score__min__energy>  (14) 
-7.9800000000000004

>  <m_primary>  (14) 
energy

$$$$
14:0
     RDKit          3D

 43 46  0  0  0  0  0  0  0  0999 V2000
   -5.4100   24.9160  -29.5330 C   0  0  0  0  0  0  0  0  0  0  0  0
   -4.0380   24.3470  -29.3040 C   0  0  0  0  0  0  0  0  0  0  0  0
   -3.3910   24.5420  -28.0720 C   0  0  0  0  0  0  0  0  0  0  0  0
   -2.1140   24.0210  -27.8540 C   0  0  0  0  0  0  0  0  0  0  0  0
   -1.2430   24.2920  -26.1760 Br  0  0  0  0  0  0  0  0  0  0  0  0
   -1.4720   23.3020  -28.8650 C   0  0  0  0  0  0  0  0  0  0  0  0
   -2.1050   23.1020  -30.0940 C   0  0  0  0  0  0  0  0  0  0  0  0
   -3.3930   23.6230  -30.3260 C   0  0  0  0  0  0  0  0  0  0  0  0
   -4.0630   23.4430  -31.5500 O   0  0  0  0  0  0  0  0  0  0  0  0
   -3.9960   22.2770  -32.3710 C   0  0  0  0  0  0  0  0  0  0  0  0
   -4.4320   21.0220  -31.5880 C   0  0  0  0  0  0  0  0  0  0  0  0
   -5.6720   20.4440  -32.1300 N   0  0  0  0  0  0  0  0  0  0  0  0
   -6.9490   21.0980  -31.9360 C   0  0  0  0  0  0  0  0  0  0  0  0
   -7.0720   22.5000  -31.9970 C   0  0  0  0  0  0  0  0  0  0  0  0
   -8.3350   23.1000  -31.9720 C   0  0  0  0  0  0  0  0  0  0  0  0
   -9.4850   22.3130  -31.8960 C   0  0  0  0  0  0  0  0  0  0  0  0
   -9.3780   20.9230  -31.8180 C   0  0  0  0  0  0  0  0  0  0  0  0
   -8.1160   20.3180  -31.8180 C   0  0  0  0  0  0  0  0  0  0  0  0
   -7.9760   18.5530  -31.5390 S   0  0  0  0  0  0  0  0  0  0  0  0
   -6.7460   18.3330  -32.8230 C   0  0  0  0  0  0  0  0  0  0  0  0
   -6.8290   17.2330  -33.6840 C   0  0  0  0  0  0  0  0  0  0  0  0
   -5.7990   16.9770  -34.5920 C   0  0  0  0  0  0  0  0  0  0  0  0
   -4.6840   17.8170  -34.6390 C   0  0  0  0  0  0  0  0  0  0  0  0
   -4.6080   18.9320  -33.7980 C   0  0  0  0  0  0  0  0  0  0  0  0
   -5.6470   19.2120  -32.8910 C   0  0  0  0  0  0  0  0  0  0  0  0
   -5.8907   25.1154  -28.5639 H   0  0  0  0  0  0  0  0  0  0  0  0
   -5.3277   25.8542  -30.1014 H   0  0  0  0  0  0  0  0  0  0  0  0
   -6.0158   24.1949  -30.1014 H   0  0  0  0  0  0  0  0  0  0  0  0
   -3.8936   25.1086  -27.2743 H   0  0  0  0  0  0  0  0  0  0  0  0
   -0.4657   22.8924  -28.6929 H   0  0  0  0  0  0  0  0  0  0  0  0
   -1.5944   22.5340  -30.8857 H   0  0  0  0  0  0  0  0  0  0  0  0
   -4.6606   22.4089  -33.2376 H   0  0  0  0  0  0  0  0  0  0  0  0
   -2.9553   22.1401  -32.6998 H   0  0  0  0  0  0  0  0  0  0  0  0
   -3.6322   20.2691  -31.6478 H   0  0  0  0  0  0  0  0  0  0  0  0
   -4.6194   21.3172  -30.5451 H   0  0  0  0  0  0  0  0  0  0  0  0
   -6.1700   23.1260  -32.0646 H   0  0  0  0  0  0  0  0  0  0  0  0
   -8.4223   24.1958  -32.0124 H   0  0  0  0  0  0  0  0  0  0  0  0
  -10.4770   22.7883  -31.8975 H   0  0  0  0  0  0  0  0  0  0  0  0
  -10.2851   20.3038  -31.7566 H   0  0  0  0  0  0  0  0  0  0  0  0
   -7.7057   16.5697  -33.6457 H   0  0  0  0  0  0  0  0  0  0  0  0
   -5.8659   16.1136  -35.2703 H   0  0  0  0  0  0  0  0  0  0  0  0
   -3.8636   17.6011  -35.3392 H   0  0  0  0  0  0  0  0  0  0  0  0
   -3.7308   19.5940  -33.8458 H   0  0  0  0  0  0  0  0  0  0  0  0
  1  2  1  0
  2  3  2  0
  3  4  1  0
  4  5  1  0
  4  6  2  0
  6  7  1  0
  7  8  2  0
  8  9  1  0
  9 10  1  0
 10 11  1  0
 11 12  1  0
 12 13  1  0
 13 14  2  0
 14 15  1  0
 15 16  2  0
 16 17  1  0
 17 18  2  0
 18 19  1  0
 19 20  1  0
 20 21  2  0
 21 22  1  0
 22 23  2  0
 23 24  1  0
 24 25  2  0
  8  2  1  0
 25 12  1  0
 18 13  1  0
 25 20  1  0
  1 26  1  0
  1 27  1  0
  1 28  1  0
  3 29  1  0
  6 30  1  0
  7 31  1  0
 10 32  1  0
 10 33  1  0
 11 34  1  0
 11 35  1  0
 14 36  1  0
 15 37  1  0
 16 38  1  0
 17 39  1  0
 21 40  1  0
 22 41  1  0
 23 42  1  0
 24 43  1  0
M  END
>  <UniqueID>  (15) 
15

>  <SMILES>  (15) 
Cc1cc(Br)ccc1OCCN1c2ccccc2Sc2ccccc21

>  <Energy>  (15) 
65.64245432053234

>  <Genealogy>  (15) 
Cc1cc(Br)ccc1OCCN1c2ccccc2Sc2ccccc21 (3D coordinates assigned)
Cc1cc(Br)ccc1OCCN1c2ccccc2Sc2ccccc21 (nonaromatic ring conformer: 65.64245432053234 kcal/mol)

>  <smiles>  (15) 
Cc1cc(Br)ccc1OCCN1c2ccccc2Sc2ccccc21

>  <score_type>  (15) 
oracle

>  <origin>  (15) 
adg

>  <m_score__min__energy>  (15) 
-9.4600000000000009

>  <m_primary>  (15) 
energy

$$$$
15:0
     RDKit          3D

 47 48  0  0  0  0  0  0  0  0999 V2000
   -2.2620   19.1140  -33.5100 C   0  0  0  0  0  0  0  0  0  0  0  0
   -3.5630   18.3330  -33.3280 C   0  0  0  0  0  0  0  0  0  0  0  0
   -4.2800   18.1310  -34.6100 N   0  0  0  0  0  0  0  0  0  0  0  0
   -3.6740   16.9870  -35.3370 C   0  0  0  0  0  0  0  0  0  0  0  0
   -3.8570   15.6810  -34.5640 C   0  0  0  0  0  0  0  0  0  0  0  0
   -5.7400   17.9210  -34.4010 C   0  0  0  0  0  0  0  0  0  0  0  0
   -6.0510   17.5810  -32.9350 C   0  0  0  0  0  0  0  0  0  0  0  0
   -7.5460   17.3280  -32.6970 C   0  0  0  0  0  0  0  0  0  0  0  0
   -8.1580   18.2710  -31.6440 C   0  0  0  0  0  0  0  0  0  0  0  0
   -9.1130   19.3220  -32.2380 C   0  0  0  0  0  0  0  0  0  0  0  0
   -8.3960   20.3250  -33.0300 N   0  0  0  0  0  0  0  0  0  0  0  0
   -7.6880   21.4290  -32.4370 C   0  0  0  0  0  0  0  0  0  0  0  0
   -8.3290   22.4080  -31.6410 C   0  0  0  0  0  0  0  0  0  0  0  0
   -7.5950   23.4780  -31.0820 C   0  0  0  0  0  0  0  0  0  0  0  0
   -6.2020   23.6020  -31.2970 C   0  0  0  0  0  0  0  0  0  0  0  0
   -5.4660   24.6920  -30.7120 N   0  0  0  0  0  0  0  0  0  0  0  0
   -6.0500   25.6300  -30.1350 O   0  0  0  0  0  0  0  0  0  0  0  0
   -4.0970   24.7500  -30.8450 O   0  0  0  0  0  0  0  0  0  0  0  0
   -5.6040   22.6130  -32.0970 C   0  0  0  0  0  0  0  0  0  0  0  0
   -4.3320   22.4670  -32.5050 N   0  0  0  0  0  0  0  0  0  0  0  0
   -4.3130   21.3910  -33.2450 O   0  0  0  0  0  0  0  0  0  0  0  0
   -5.4810   20.8130  -33.3610 N   0  0  0  0  0  0  0  0  0  0  0  0
   -6.3140   21.5840  -32.6370 C   0  0  0  0  0  0  0  0  0  0  0  0
   -1.8440   19.3649  -32.5240 H   0  0  0  0  0  0  0  0  0  0  0  0
   -1.5405   18.4995  -34.0685 H   0  0  0  0  0  0  0  0  0  0  0  0
   -2.4651   20.0396  -34.0685 H   0  0  0  0  0  0  0  0  0  0  0  0
   -3.3280   17.3495  -32.8950 H   0  0  0  0  0  0  0  0  0  0  0  0
   -4.2171   18.9173  -32.6641 H   0  0  0  0  0  0  0  0  0  0  0  0
   -4.1557   16.8918  -36.3213 H   0  0  0  0  0  0  0  0  0  0  0  0
   -2.5964   17.1772  -35.4491 H   0  0  0  0  0  0  0  0  0  0  0  0
   -3.8281   15.8871  -33.4839 H   0  0  0  0  0  0  0  0  0  0  0  0
   -4.8267   15.2327  -34.8259 H   0  0  0  0  0  0  0  0  0  0  0  0
   -3.0478   14.9834  -34.8259 H   0  0  0  0  0  0  0  0  0  0  0  0
   -6.2774   18.8401  -34.6774 H   0  0  0  0  0  0  0  0  0  0  0  0
   -6.0628   17.0776  -35.0290 H   0  0  0  0  0  0  0  0  0  0  0  0
   -5.4909   16.6764  -32.6558 H   0  0  0  0  0  0  0  0  0  0  0  0
   -5.7552   18.4442  -32.3207 H   0  0  0  0  0  0  0  0  0  0  0  0
   -8.0809   17.4704  -33.6476 H   0  0  0  0  0  0  0  0  0  0  0  0
   -7.6485   16.3009  -32.3167 H   0  0  0  0  0  0  0  0  0  0  0  0
   -8.7177   17.6640  -30.9172 H   0  0  0  0  0  0  0  0  0  0  0  0
   -7.3251   18.8186  -31.1788 H   0  0  0  0  0  0  0  0  0  0  0  0
   -9.8435   18.8138  -32.8846 H   0  0  0  0  0  0  0  0  0  0  0  0
   -9.6128   19.8383  -31.4052 H   0  0  0  0  0  0  0  0  0  0  0  0
   -8.3910   20.2410  -34.0720 H   0  0  0  0  0  0  0  0  0  0  0  0
   -9.4108   22.3350  -31.4555 H   0  0  0  0  0  0  0  0  0  0  0  0
   -8.1158   24.2281  -30.4687 H   0  0  0  0  0  0  0  0  0  0  0  0
   -3.5030   23.0680  -32.3100 H   0  0  0  0  0  0  0  0  0  0  0  0
  1  2  1  0
  2  3  1  0
  3  4  1  0
  4  5  1  0
  3  6  1  0
  6  7  1  0
  7  8  1  0
  8  9  1  0
  9 10  1  0
 10 11  1  0
 11 12  1  0
 12 13  2  0
 13 14  1  0
 14 15  2  0
 15 16  1  0
 16 17  2  0
 16 18  1  0
 15 19  1  0
 19 20  2  0
 20 21  1  0
 21 22  1  0
 22 23  2  0
 23 12  1  0
 23 19  1  0
  1 24  1  0
  1 25  1  0
  1 26  1  0
  2 27  1  0
  2 28  1  0
  4 29  1  0
  4 30  1  0
  5 31  1  0
  5 32  1  0
  5 33  1  0
  6 34  1  0
  6 35  1  0
  7 36  1  0
  7 37  1  0
  8 38  1  0
  8 39  1  0
  9 40  1  0
  9 41  1  0
 10 42  1  0
 10 43  1  0
 11 44  1  0
 13 45  1  0
 14 46  1  0
 20 47  1  0
M  CHG  3  16   1  18  -1  20   1
M  END
>  <UniqueID>  (16) 
16

>  <SMILES>  (16) 
CCN(CC)CCCCCNc1ccc([N+](=O)[O-])c2[nH+]onc12

>  <Energy>  (16) 
87.20469626039662

>  <Genealogy>  (16) 
CCN(CC)CCCCCNc1ccc([N+](=O)[O-])c2[nH+]onc12 (protonated)
CCN(CC)CCCCCNc1ccc([N+](=O)[O-])c2[nH+]onc12 (3D coordinates assigned)
CCN(CC)CCCCCNc1ccc([N+](=O)[O-])c2[nH+]onc12 (optimized conformer: 87.20469626039662 kcal/mol)

>  <smiles>  (16) 
CCN(CC)CCCCCNc1ccc([N+](=O)[O-])c2nonc12

>  <score_type>  (16) 
oracle

>  <origin>  (16) 
adg

>  <m_score__min__energy>  (16) 
-7.6699999999999999

>  <m_primary>  (16) 
energy

$$$$
16:0
     RDKit          3D

 46 49  0  0  0  0  0  0  0  0999 V2000
   -9.1080   19.4020  -31.6110 C   0  0  0  0  0  0  0  0  0  0  0  0
   -8.3680   18.1330  -32.0330 C   0  0  0  0  0  0  0  0  0  0  0  0
   -6.9740   18.0210  -31.3850 C   0  0  0  0  0  0  0  0  0  0  0  0
   -5.9850   17.1390  -32.1690 C   0  0  0  0  0  0  0  0  0  0  0  0
   -6.4140   16.8390  -33.6200 C   0  0  0  0  0  0  0  0  0  0  0  0
   -5.9590   17.8990  -34.6370 C   0  0  0  0  0  0  0  0  0  0  0  0
   -4.9950   18.8300  -34.0440 N   0  0  0  0  0  0  0  0  0  0  0  0
   -3.6360   18.7610  -34.0650 C   0  0  0  0  0  0  0  0  0  0  0  0
   -2.8320   17.7670  -34.6300 C   0  0  0  0  0  0  0  0  0  0  0  0
   -1.4350   17.9090  -34.5290 C   0  0  0  0  0  0  0  0  0  0  0  0
   -0.8700   19.0250  -33.8740 C   0  0  0  0  0  0  0  0  0  0  0  0
   -1.6920   20.0150  -33.3070 C   0  0  0  0  0  0  0  0  0  0  0  0
   -3.0680   19.8490  -33.4200 C   0  0  0  0  0  0  0  0  0  0  0  0
   -4.1220   20.6130  -32.9870 C   0  0  0  0  0  0  0  0  0  0  0  0
   -4.1450   21.7850  -32.3120 N   0  0  0  0  0  0  0  0  0  0  0  0
   -5.3590   22.3420  -32.0080 C   0  0  0  0  0  0  0  0  0  0  0  0
   -5.4460   23.5690  -31.3090 C   0  0  0  0  0  0  0  0  0  0  0  0
   -4.2670   24.2760  -30.8650 N   0  0  0  0  0  0  0  0  0  0  0  0
   -3.2220   23.6500  -30.5940 O   0  0  0  0  0  0  0  0  0  0  0  0
   -4.2460   25.6500  -30.7870 O   0  0  0  0  0  0  0  0  0  0  0  0
   -6.7210   24.1090  -31.0470 C   0  0  0  0  0  0  0  0  0  0  0  0
   -7.8830   23.4480  -31.4560 C   0  0  0  0  0  0  0  0  0  0  0  0
   -7.8040   22.2340  -32.1370 C   0  0  0  0  0  0  0  0  0  0  0  0
   -6.5590   21.6730  -32.4210 C   0  0  0  0  0  0  0  0  0  0  0  0
   -6.4870   20.4890  -33.1010 N   0  0  0  0  0  0  0  0  0  0  0  0
   -5.2660   19.9730  -33.3750 C   0  0  0  0  0  0  0  0  0  0  0  0
   -9.1413   19.4591  -30.5130 H   0  0  0  0  0  0  0  0  0  0  0  0
   -8.5818   20.2826  -32.0082 H   0  0  0  0  0  0  0  0  0  0  0  0
  -10.1335   19.3777  -32.0082 H   0  0  0  0  0  0  0  0  0  0  0  0
   -8.9669   17.2596  -31.7353 H   0  0  0  0  0  0  0  0  0  0  0  0
   -8.2280   18.1740  -33.1233 H   0  0  0  0  0  0  0  0  0  0  0  0
   -6.5476   19.0319  -31.3061 H   0  0  0  0  0  0  0  0  0  0  0  0
   -7.1174   17.5425  -30.4050 H   0  0  0  0  0  0  0  0  0  0  0  0
   -5.0126   17.6525  -32.1965 H   0  0  0  0  0  0  0  0  0  0  0  0
   -5.9433   16.1718  -31.6467 H   0  0  0  0  0  0  0  0  0  0  0  0
   -5.9848   15.8699  -33.9146 H   0  0  0  0  0  0  0  0  0  0  0  0
   -7.5139   16.8358  -33.6332 H   0  0  0  0  0  0  0  0  0  0  0  0
   -5.4886   17.3943  -35.4937 H   0  0  0  0  0  0  0  0  0  0  0  0
   -6.8414   18.4721  -34.9579 H   0  0  0  0  0  0  0  0  0  0  0  0
   -3.2777   16.8994  -35.1386 H   0  0  0  0  0  0  0  0  0  0  0  0
   -0.7770   17.1428  -34.9648 H   0  0  0  0  0  0  0  0  0  0  0  0
    0.2237   19.1209  -33.8066 H   0  0  0  0  0  0  0  0  0  0  0  0
   -1.2627   20.8879  -32.7934 H   0  0  0  0  0  0  0  0  0  0  0  0
   -6.8033   25.0665  -30.5118 H   0  0  0  0  0  0  0  0  0  0  0  0
   -8.8670   23.8891  -31.2389 H   0  0  0  0  0  0  0  0  0  0  0  0
   -8.7238   21.7185  -32.4504 H   0  0  0  0  0  0  0  0  0  0  0  0
  1  2  1  0
  2  3  1  0
  3  4  1  0
  4  5  1  0
  5  6  1  0
  6  7  1  0
  7  8  1  0
  8  9  2  0
  9 10  1  0
 10 11  2  0
 11 12  1  0
 12 13  2  0
 13 14  1  0
 14 15  2  0
 15 16  1  0
 16 17  2  0
 17 18  1  0
 18 19  2  0
 18 20  1  0
 17 21  1  0
 21 22  2  0
 22 23  1  0
 23 24  2  0
 24 25  1  0
 25 26  2  0
 26  7  1  0
 13  8  1  0
 26 14  1  0
 24 16  1  0
  1 27  1  0
  1 28  1  0
  1 29  1  0
  2 30  1  0
  2 31  1  0
  3 32  1  0
  3 33  1  0
  4 34  1  0
  4 35  1  0
  5 36  1  0
  5 37  1  0
  6 38  1  0
  6 39  1  0
  9 40  1  0
 10 41  1  0
 11 42  1  0
 12 43  1  0
 21 44  1  0
 22 45  1  0
 23 46  1  0
M  CHG  2  18   1  20  -1
M  END
>  <UniqueID>  (17) 
17

>  <SMILES>  (17) 
CCCCCCn1c2ccccc2c2nc3c([N+](=O)[O-])cccc3nc21

>  <Energy>  (17) 
96.12612615493903

>  <Genealogy>  (17) 
CCCCCCn1c2ccccc2c2nc3c([N+](=O)[O-])cccc3nc21 (3D coordinates assigned)
CCCCCCn1c2ccccc2c2nc3c([N+](=O)[O-])cccc3nc21 (optimized conformer: 96.12612615493903 kcal/mol)

>  <smiles>  (17) 
CCCCCCn1c2ccccc2c2nc3c([N+](=O)[O-])cccc3nc21

>  <score_type>  (17) 
oracle

>  <origin>  (17) 
adg

>  <m_score__min__energy>  (17) 
-9.7899999999999991

>  <m_primary>  (17) 
energy

$$$$
17:0
     RDKit          3D

 40 41  0  0  0  0  0  0  0  0999 V2000
   -4.0520   24.5560  -27.0570 C   0  0  0  0  0  0  0  0  0  0  0  0
   -2.6900   24.1910  -27.5990 C   0  0  0  0  0  0  0  0  0  0  0  0
   -1.5170   24.5420  -26.8900 C   0  0  0  0  0  0  0  0  0  0  0  0
   -1.5710   25.4310  -25.3700 Cl  0  0  0  0  0  0  0  0  0  0  0  0
   -0.2610   24.1960  -27.3970 C   0  0  0  0  0  0  0  0  0  0  0  0
   -0.1510   23.5260  -28.6120 C   0  0  0  0  0  0  0  0  0  0  0  0
   -1.2960   23.2020  -29.3390 C   0  0  0  0  0  0  0  0  0  0  0  0
   -2.5710   23.5270  -28.8460 C   0  0  0  0  0  0  0  0  0  0  0  0
   -3.7370   23.2460  -29.6430 N   0  0  0  0  0  0  0  0  0  0  0  0
   -4.3850   24.2260  -30.4680 C   0  0  0  0  0  0  0  0  0  0  0  0
   -3.8660   25.3610  -30.6400 O   0  0  0  0  0  0  0  0  0  0  0  0
   -5.6750   23.8880  -31.1740 C   0  0  0  0  0  0  0  0  0  0  0  0
   -5.7000   22.5150  -31.7270 N   0  0  0  0  0  0  0  0  0  0  0  0
   -4.4960   22.2200  -32.5240 C   0  0  0  0  0  0  0  0  0  0  0  0
   -6.9390   22.2380  -32.4860 C   0  0  0  0  0  0  0  0  0  0  0  0
   -7.3660   20.8080  -32.2880 C   0  0  0  0  0  0  0  0  0  0  0  0
   -6.4540   19.7650  -32.5140 C   0  0  0  0  0  0  0  0  0  0  0  0
   -6.8510   18.4330  -32.3520 C   0  0  0  0  0  0  0  0  0  0  0  0
   -8.1610   18.1370  -31.9680 C   0  0  0  0  0  0  0  0  0  0  0  0
   -9.0770   19.1690  -31.7480 C   0  0  0  0  0  0  0  0  0  0  0  0
   -8.6830   20.5010  -31.9080 C   0  0  0  0  0  0  0  0  0  0  0  0
   -4.0232   24.5483  -25.9574 H   0  0  0  0  0  0  0  0  0  0  0  0
   -4.3298   25.5603  -27.4095 H   0  0  0  0  0  0  0  0  0  0  0  0
   -4.7948   23.8252  -27.4095 H   0  0  0  0  0  0  0  0  0  0  0  0
    0.6465   24.4550  -26.8319 H   0  0  0  0  0  0  0  0  0  0  0  0
    0.8412   23.2515  -28.9996 H   0  0  0  0  0  0  0  0  0  0  0  0
   -1.2003   22.6876  -30.3066 H   0  0  0  0  0  0  0  0  0  0  0  0
   -4.1090   22.2700  -29.6510 H   0  0  0  0  0  0  0  0  0  0  0  0
   -6.5024   23.9900  -30.4564 H   0  0  0  0  0  0  0  0  0  0  0  0
   -5.7725   24.5816  -32.0222 H   0  0  0  0  0  0  0  0  0  0  0  0
   -3.6517   22.0131  -31.8499 H   0  0  0  0  0  0  0  0  0  0  0  0
   -4.6826   21.3410  -33.1585 H   0  0  0  0  0  0  0  0  0  0  0  0
   -4.2551   23.0857  -33.1585 H   0  0  0  0  0  0  0  0  0  0  0  0
   -7.7376   22.9071  -32.1332 H   0  0  0  0  0  0  0  0  0  0  0  0
   -6.7484   22.4090  -33.5558 H   0  0  0  0  0  0  0  0  0  0  0  0
   -5.4229   19.9958  -32.8198 H   0  0  0  0  0  0  0  0  0  0  0  0
   -6.1317   17.6193  -32.5270 H   0  0  0  0  0  0  0  0  0  0  0  0
   -8.4720   17.0898  -31.8386 H   0  0  0  0  0  0  0  0  0  0  0  0
  -10.1089   18.9333  -31.4487 H   0  0  0  0  0  0  0  0  0  0  0  0
   -9.4068   21.3112  -31.7357 H   0  0  0  0  0  0  0  0  0  0  0  0
  1  2  1  0
  2  3  2  0
  3  4  1  0
  3  5  1  0
  5  6  2  0
  6  7  1  0
  7  8  2  0
  8  9  1  0
  9 10  1  0
 10 11  2  0
 10 12  1  0
 12 13  1  0
 13 14  1  0
 13 15  1  0
 15 16  1  0
 16 17  2  0
 17 18  1  0
 18 19  2  0
 19 20  1  0
 20 21  2  0
  8  2  1  0
 21 16  1  0
  1 22  1  0
  1 23  1  0
  1 24  1  0
  5 25  1  0
  6 26  1  0
  7 27  1  0
  9 28  1  0
 12 29  1  0
 12 30  1  0
 14 31  1  0
 14 32  1  0
 14 33  1  0
 15 34  1  0
 15 35  1  0
 17 36  1  0
 18 37  1  0
 19 38  1  0
 20 39  1  0
 21 40  1  0
M  END
>  <UniqueID>  (18) 
18

>  <SMILES>  (18) 
Cc1c(Cl)cccc1NC(=O)CN(C)Cc1ccccc1

>  <Energy>  (18) 
47.532310817941216

>  <Genealogy>  (18) 
Cc1c(Cl)cccc1NC(=O)CN(C)Cc1ccccc1 (3D coordinates assigned)
Cc1c(Cl)cccc1NC(=O)CN(C)Cc1ccccc1 (optimized conformer: 47.532310817941216 kcal/mol)

>  <smiles>  (18) 
Cc1c(Cl)cccc1NC(=O)CN(C)Cc1ccccc1

>  <score_type>  (18) 
oracle

>  <origin>  (18) 
adg

>  <m_score__min__energy>  (18) 
-8.5999999999999996

>  <m_primary>  (18) 
energy

$$$$
18:0
     RDKit          3D

 52 54  0  0  0  0  0  0  0  0999 V2000
   -1.4650   21.5850  -31.3260 C   0  0  0  0  0  0  0  0  0  0  0  0
   -2.8220   22.1100  -31.1340 N   0  0  0  0  0  0  0  0  0  0  0  0
   -3.5680   22.1290  -32.3970 C   0  0  0  0  0  0  0  0  0  0  0  0
   -4.2030   20.7920  -32.6550 C   0  0  0  0  0  0  0  0  0  0  0  0
   -5.4270   20.4660  -32.1610 N   0  0  0  0  0  0  0  0  0  0  0  0
   -5.6410   19.2340  -32.6600 C   0  0  0  0  0  0  0  0  0  0  0  0
   -6.7640   18.4290  -32.4710 C   0  0  0  0  0  0  0  0  0  0  0  0
   -7.8140   18.8970  -31.6650 O   0  0  0  0  0  0  0  0  0  0  0  0
   -9.1460   19.1420  -32.1110 C   0  0  0  0  0  0  0  0  0  0  0  0
   -9.4050   20.6430  -32.3400 C   0  0  0  0  0  0  0  0  0  0  0  0
   -8.1930   21.4710  -32.1780 N   0  0  0  0  0  0  0  0  0  0  0  0
   -8.3670   22.5760  -31.2220 C   0  0  0  0  0  0  0  0  0  0  0  0
   -7.0350   23.1740  -30.8490 C   0  0  0  0  0  0  0  0  0  0  0  0
   -6.3000   22.6680  -29.7630 C   0  0  0  0  0  0  0  0  0  0  0  0
   -5.0820   23.2500  -29.4010 C   0  0  0  0  0  0  0  0  0  0  0  0
   -4.5730   24.3440  -30.1290 C   0  0  0  0  0  0  0  0  0  0  0  0
   -3.3570   24.9650  -29.8040 O   0  0  0  0  0  0  0  0  0  0  0  0
   -2.4790   24.5240  -28.7710 C   0  0  0  0  0  0  0  0  0  0  0  0
   -5.3040   24.8390  -31.2190 C   0  0  0  0  0  0  0  0  0  0  0  0
   -6.5290   24.2660  -31.5730 C   0  0  0  0  0  0  0  0  0  0  0  0
   -6.7710   17.1670  -33.1160 C   0  0  0  0  0  0  0  0  0  0  0  0
   -5.6750   16.7620  -33.9100 C   0  0  0  0  0  0  0  0  0  0  0  0
   -4.5630   17.6060  -34.0780 C   0  0  0  0  0  0  0  0  0  0  0  0
   -4.5850   18.8410  -33.4300 C   0  0  0  0  0  0  0  0  0  0  0  0
   -3.6580   19.8160  -33.4320 N   0  0  0  0  0  0  0  0  0  0  0  0
   -2.4130   19.8460  -34.1960 C   0  0  0  0  0  0  0  0  0  0  0  0
   -0.9994   21.4049  -30.3458 H   0  0  0  0  0  0  0  0  0  0  0  0
   -1.5133   20.6407  -31.8881 H   0  0  0  0  0  0  0  0  0  0  0  0
   -0.8652   22.3160  -31.8881 H   0  0  0  0  0  0  0  0  0  0  0  0
   -2.7270   23.1020  -30.8050 H   0  0  0  0  0  0  0  0  0  0  0  0
   -4.3529   22.8976  -32.3419 H   0  0  0  0  0  0  0  0  0  0  0  0
   -2.8713   22.3555  -33.2176 H   0  0  0  0  0  0  0  0  0  0  0  0
   -9.3096   18.6040  -33.0564 H   0  0  0  0  0  0  0  0  0  0  0  0
   -9.8379   18.7904  -31.3315 H   0  0  0  0  0  0  0  0  0  0  0  0
   -9.7888   20.7802  -33.3617 H   0  0  0  0  0  0  0  0  0  0  0  0
  -10.1301   20.9705  -31.5804 H   0  0  0  0  0  0  0  0  0  0  0  0
   -7.3890   20.8780  -31.8650 H   0  0  0  0  0  0  0  0  0  0  0  0
   -8.9961   23.3536  -31.6798 H   0  0  0  0  0  0  0  0  0  0  0  0
   -8.8452   22.1839  -30.3123 H   0  0  0  0  0  0  0  0  0  0  0  0
   -6.6857   21.8088  -29.1946 H   0  0  0  0  0  0  0  0  0  0  0  0
   -4.5183   22.8524  -28.5442 H   0  0  0  0  0  0  0  0  0  0  0  0
   -2.9247   24.7479  -27.7906 H   0  0  0  0  0  0  0  0  0  0  0  0
   -2.3205   23.4393  -28.8627 H   0  0  0  0  0  0  0  0  0  0  0  0
   -1.5143   25.0445  -28.8627 H   0  0  0  0  0  0  0  0  0  0  0  0
   -4.9099   25.6856  -31.8004 H   0  0  0  0  0  0  0  0  0  0  0  0
   -7.0988   24.6719  -32.4218 H   0  0  0  0  0  0  0  0  0  0  0  0
   -7.6361   16.4980  -32.9975 H   0  0  0  0  0  0  0  0  0  0  0  0
   -5.6917   15.7778  -34.4011 H   0  0  0  0  0  0  0  0  0  0  0  0
   -3.7065   17.3032  -34.6982 H   0  0  0  0  0  0  0  0  0  0  0  0
   -1.5584   19.8666  -33.5037 H   0  0  0  0  0  0  0  0  0  0  0  0
   -2.3500   18.9491  -34.8297 H   0  0  0  0  0  0  0  0  0  0  0  0
   -2.3933   20.7449  -34.8297 H   0  0  0  0  0  0  0  0  0  0  0  0
  1  2  1  0
  2  3  1  0
  3  4  1  0
  4  5  2  0
  5  6  1  0
  6  7  2  0
  7  8  1  0
  8  9  1  0
  9 10  1  0
 10 11  1  0
 11 12  1  0
 12 13  1  0
 13 14  2  0
 14 15  1  0
 15 16  2  0
 16 17  1  0
 17 18  1  0
 16 19  1  0
 19 20  2  0
  7 21  1  0
 21 22  2  0
 22 23  1  0
 23 24  2  0
 24 25  1  0
 25 26  1  0
 25  4  1  0
 24  6  1  0
 20 13  1  0
  1 27  1  0
  1 28  1  0
  1 29  1  0
  2 30  1  0
  3 31  1  0
  3 32  1  0
  9 33  1  0
  9 34  1  0
 10 35  1  0
 10 36  1  0
 11 37  1  0
 12 38  1  0
 12 39  1  0
 14 40  1  0
 15 41  1  0
 18 42  1  0
 18 43  1  0
 18 44  1  0
 19 45  1  0
 20 46  1  0
 21 47  1  0
 22 48  1  0
 23 49  1  0
 26 50  1  0
 26 51  1  0
 26 52  1  0
M  END
>  <UniqueID>  (19) 
19

>  <SMILES>  (19) 
CNCc1nc2c(OCCNCc3ccc(OC)cc3)cccc2n1C

>  <Energy>  (19) 
86.24896238869374

>  <Genealogy>  (19) 
CNCc1nc2c(OCCNCc3ccc(OC)cc3)cccc2n1C (3D coordinates assigned)
CNCc1nc2c(OCCNCc3ccc(OC)cc3)cccc2n1C (optimized conformer: 86.24896238869374 kcal/mol)

>  <smiles>  (19) 
CNCc1nc2c(OCCNCc3ccc(OC)cc3)cccc2n1C

>  <score_type>  (19) 
oracle

>  <origin>  (19) 
adg

>  <m_score__min__energy>  (19) 
-7.7999999999999998

>  <m_primary>  (19) 
energy

$$$$
19:0
     RDKit          3D

 41 42  0  0  0  0  0  0  0  0999 V2000
   -3.9010   24.1290  -27.4640 C   0  0  0  0  0  0  0  0  0  0  0  0
   -3.2660   24.2540  -28.8490 C   0  0  0  0  0  0  0  0  0  0  0  0
   -4.0600   23.4900  -29.9130 C   0  0  0  0  0  0  0  0  0  0  0  0
   -4.3440   24.3600  -31.0630 N   0  0  0  0  0  0  0  0  0  0  0  0
   -5.4580   25.2780  -30.7860 C   0  0  0  0  0  0  0  0  0  0  0  0
   -6.6890   24.4960  -30.3010 C   0  0  0  0  0  0  0  0  0  0  0  0
   -7.3990   23.7410  -31.4410 C   0  0  0  0  0  0  0  0  0  0  0  0
   -6.5270   22.7780  -32.1430 N   0  0  0  0  0  0  0  0  0  0  0  0
   -7.1480   21.4710  -32.2680 C   0  0  0  0  0  0  0  0  0  0  0  0
   -8.4830   21.3300  -31.8400 C   0  0  0  0  0  0  0  0  0  0  0  0
   -9.1450   20.1070  -31.9260 C   0  0  0  0  0  0  0  0  0  0  0  0
   -8.4920   18.9920  -32.4400 C   0  0  0  0  0  0  0  0  0  0  0  0
   -7.1640   19.0880  -32.8740 C   0  0  0  0  0  0  0  0  0  0  0  0
   -6.5230   17.9480  -33.3860 C   0  0  0  0  0  0  0  0  0  0  0  0
   -5.1990   18.0180  -33.8170 C   0  0  0  0  0  0  0  0  0  0  0  0
   -4.5060   19.2230  -33.7450 C   0  0  0  0  0  0  0  0  0  0  0  0
   -5.1270   20.3680  -33.2420 C   0  0  0  0  0  0  0  0  0  0  0  0
   -6.4700   20.3290  -32.7950 C   0  0  0  0  0  0  0  0  0  0  0  0
   -3.1314   24.2805  -26.6928 H   0  0  0  0  0  0  0  0  0  0  0  0
   -4.6877   24.8895  -27.3513 H   0  0  0  0  0  0  0  0  0  0  0  0
   -4.3408   23.1270  -27.3513 H   0  0  0  0  0  0  0  0  0  0  0  0
   -3.2288   25.3173  -29.1284 H   0  0  0  0  0  0  0  0  0  0  0  0
   -2.2561   23.8207  -28.8011 H   0  0  0  0  0  0  0  0  0  0  0  0
   -3.4729   22.6232  -30.2505 H   0  0  0  0  0  0  0  0  0  0  0  0
   -5.0119   23.1545  -29.4756 H   0  0  0  0  0  0  0  0  0  0  0  0
   -3.4890   24.9380  -31.2400 H   0  0  0  0  0  0  0  0  0  0  0  0
   -5.1533   25.9932  -30.0078 H   0  0  0  0  0  0  0  0  0  0  0  0
   -5.7174   25.8136  -31.7111 H   0  0  0  0  0  0  0  0  0  0  0  0
   -6.3669   23.7670  -29.5428 H   0  0  0  0  0  0  0  0  0  0  0  0
   -7.4035   25.2230  -29.8875 H   0  0  0  0  0  0  0  0  0  0  0  0
   -8.2526   23.1923  -31.0164 H   0  0  0  0  0  0  0  0  0  0  0  0
   -7.7121   24.4925  -32.1807 H   0  0  0  0  0  0  0  0  0  0  0  0
   -6.3650   23.1500  -33.1080 H   0  0  0  0  0  0  0  0  0  0  0  0
   -5.5770   22.7410  -31.7180 H   0  0  0  0  0  0  0  0  0  0  0  0
   -9.0129   22.2024  -31.4300 H   0  0  0  0  0  0  0  0  0  0  0  0
  -10.1878   20.0232  -31.5861 H   0  0  0  0  0  0  0  0  0  0  0  0
   -9.0212   18.0299  -32.5060 H   0  0  0  0  0  0  0  0  0  0  0  0
   -7.0686   16.9948  -33.4473 H   0  0  0  0  0  0  0  0  0  0  0  0
   -4.7019   17.1207  -34.2141 H   0  0  0  0  0  0  0  0  0  0  0  0
   -3.4617   19.2736  -34.0868 H   0  0  0  0  0  0  0  0  0  0  0  0
   -4.5656   21.3126  -33.1923 H   0  0  0  0  0  0  0  0  0  0  0  0
  1  2  1  0
  2  3  1  0
  3  4  1  0
  4  5  1  0
  5  6  1  0
  6  7  1  0
  7  8  1  0
  8  9  1  0
  9 10  2  0
 10 11  1  0
 11 12  2  0
 12 13  1  0
 13 14  2  0
 14 15  1  0
 15 16  2  0
 16 17  1  0
 17 18  2  0
 18  9  1  0
 18 13  1  0
  1 19  1  0
  1 20  1  0
  1 21  1  0
  2 22  1  0
  2 23  1  0
  3 24  1  0
  3 25  1  0
  4 26  1  0
  5 27  1  0
  5 28  1  0
  6 29  1  0
  6 30  1  0
  7 31  1  0
  7 32  1  0
  8 33  1  0
  8 34  1  0
 10 35  1  0
 11 36  1  0
 12 37  1  0
 14 38  1  0
 15 39  1  0
 16 40  1  0
 17 41  1  0
M  CHG  1   8   1
M  END
>  <UniqueID>  (20) 
20

>  <SMILES>  (20) 
CCCNCCC[NH2+]c1cccc2ccccc12

>  <Energy>  (20) 
41.80107549577734

>  <Genealogy>  (20) 
CCCNCCC[NH2+]c1cccc2ccccc12 (protonated)
CCCNCCC[NH2+]c1cccc2ccccc12 (3D coordinates assigned)
CCCNCCC[NH2+]c1cccc2ccccc12 (optimized conformer: 41.80107549577734 kcal/mol)

>  <smiles>  (20) 
CCCNCCCNc1cccc2ccccc12

>  <score_type>  (20) 
oracle

>  <origin>  (20) 
adg

>  <m_score__min__energy>  (20) 
-7.8499999999999996

>  <m_primary>  (20) 
energy

$$$$
20:0
     RDKit          3D

 62 65  0  0  0  0  0  0  0  0999 V2000
   -2.8600   18.9200  -26.4080 C   0  0  0  0  0  0  0  0  0  0  0  0
   -1.5830   19.2990  -27.1610 C   0  0  0  0  0  0  0  0  0  0  0  0
   -1.8700   20.0520  -28.4700 C   0  0  0  0  0  0  0  0  0  0  0  0
   -0.8420   19.7870  -29.4910 N   0  0  0  0  0  0  0  0  0  0  0  0
   -0.8980   20.8000  -30.5570 C   0  0  0  0  0  0  0  0  0  0  0  0
   -1.8530   21.9270  -30.1750 C   0  0  0  0  0  0  0  0  0  0  0  0
   -3.1710   21.9430  -30.7050 C   0  0  0  0  0  0  0  0  0  0  0  0
   -3.6370   20.8930  -31.6370 C   0  0  0  0  0  0  0  0  0  0  0  0
   -3.0460   20.7650  -32.9030 C   0  0  0  0  0  0  0  0  0  0  0  0
   -3.4870   19.7740  -33.7840 C   0  0  0  0  0  0  0  0  0  0  0  0
   -4.5160   18.9080  -33.4060 C   0  0  0  0  0  0  0  0  0  0  0  0
   -5.1130   19.0330  -32.1440 C   0  0  0  0  0  0  0  0  0  0  0  0
   -6.4420   17.9250  -31.6670 S   0  0  0  0  0  0  0  0  0  0  0  0
   -7.7580   19.1910  -31.7620 C   0  0  0  0  0  0  0  0  0  0  0  0
   -7.7000   19.9350  -33.0910 C   0  0  0  0  0  0  0  0  0  0  0  0
   -4.6840   20.0360  -31.2670 C   0  0  0  0  0  0  0  0  0  0  0  0
   -4.0410   22.9980  -30.3680 C   0  0  0  0  0  0  0  0  0  0  0  0
   -5.4260   23.0420  -30.8670 C   0  0  0  0  0  0  0  0  0  0  0  0
   -6.4860   22.6600  -30.0320 C   0  0  0  0  0  0  0  0  0  0  0  0
   -7.7990   22.6820  -30.5090 C   0  0  0  0  0  0  0  0  0  0  0  0
   -8.0630   23.0710  -31.8330 C   0  0  0  0  0  0  0  0  0  0  0  0
   -9.4740   23.1320  -32.3400 C   0  0  0  0  0  0  0  0  0  0  0  0
   -7.0010   23.4660  -32.6640 C   0  0  0  0  0  0  0  0  0  0  0  0
   -5.6870   23.4510  -32.1830 C   0  0  0  0  0  0  0  0  0  0  0  0
   -3.6170   23.9970  -29.5570 N   0  0  0  0  0  0  0  0  0  0  0  0
   -2.3630   24.0350  -29.0460 C   0  0  0  0  0  0  0  0  0  0  0  0
   -1.9960   25.1060  -28.2210 C   0  0  0  0  0  0  0  0  0  0  0  0
   -0.7060   25.1780  -27.6950 C   0  0  0  0  0  0  0  0  0  0  0  0
    0.2270   24.1880  -28.0010 C   0  0  0  0  0  0  0  0  0  0  0  0
   -0.1250   23.1130  -28.8220 C   0  0  0  0  0  0  0  0  0  0  0  0
   -1.4340   23.0080  -29.3500 C   0  0  0  0  0  0  0  0  0  0  0  0
   -2.6767   18.9744  -25.3247 H   0  0  0  0  0  0  0  0  0  0  0  0
   -3.6662   19.6176  -26.6790 H   0  0  0  0  0  0  0  0  0  0  0  0
   -3.1551   17.8956  -26.6790 H   0  0  0  0  0  0  0  0  0  0  0  0
   -0.9691   19.9412  -26.5125 H   0  0  0  0  0  0  0  0  0  0  0  0
   -1.0603   18.3666  -27.4207 H   0  0  0  0  0  0  0  0  0  0  0  0
   -2.8480   19.7312  -28.8580 H   0  0  0  0  0  0  0  0  0  0  0  0
   -1.8650   21.1302  -28.2520 H   0  0  0  0  0  0  0  0  0  0  0  0
    0.1020   19.8090  -29.0420 H   0  0  0  0  0  0  0  0  0  0  0  0
   -1.0000   18.8440  -29.9120 H   0  0  0  0  0  0  0  0  0  0  0  0
    0.1081   21.2160  -30.7140 H   0  0  0  0  0  0  0  0  0  0  0  0
   -1.2607   20.3246  -31.4803 H   0  0  0  0  0  0  0  0  0  0  0  0
   -2.2350   21.4452  -33.2023 H   0  0  0  0  0  0  0  0  0  0  0  0
   -3.0232   19.6756  -34.7766 H   0  0  0  0  0  0  0  0  0  0  0  0
   -4.8584   18.1264  -34.1002 H   0  0  0  0  0  0  0  0  0  0  0  0
   -8.7378   18.7003  -31.6661 H   0  0  0  0  0  0  0  0  0  0  0  0
   -7.6101   19.9145  -30.9467 H   0  0  0  0  0  0  0  0  0  0  0  0
   -7.6158   21.0155  -32.9029 H   0  0  0  0  0  0  0  0  0  0  0  0
   -6.8258   19.5934  -33.6646 H   0  0  0  0  0  0  0  0  0  0  0  0
   -8.6166   19.7330  -33.6646 H   0  0  0  0  0  0  0  0  0  0  0  0
   -5.1686   20.1523  -30.2863 H   0  0  0  0  0  0  0  0  0  0  0  0
   -6.2831   22.3422  -28.9986 H   0  0  0  0  0  0  0  0  0  0  0  0
   -8.6283   22.3940  -29.8462 H   0  0  0  0  0  0  0  0  0  0  0  0
  -10.1689   23.1620  -31.4878 H   0  0  0  0  0  0  0  0  0  0  0  0
   -9.6050   24.0366  -32.9519 H   0  0  0  0  0  0  0  0  0  0  0  0
   -9.6825   22.2420  -32.9519 H   0  0  0  0  0  0  0  0  0  0  0  0
   -7.2032   23.7881  -33.6962 H   0  0  0  0  0  0  0  0  0  0  0  0
   -4.8585   23.7601  -32.8372 H   0  0  0  0  0  0  0  0  0  0  0  0
   -2.7278   25.8932  -27.9871 H   0  0  0  0  0  0  0  0  0  0  0  0
   -0.4250   26.0153  -27.0392 H   0  0  0  0  0  0  0  0  0  0  0  0
    1.2467   24.2534  -27.5936 H   0  0  0  0  0  0  0  0  0  0  0  0
    0.6221   22.3415  -29.0600 H   0  0  0  0  0  0  0  0  0  0  0  0
  1  2  1  0
  2  3  1  0
  3  4  1  0
  4  5  1  0
  5  6  1  0
  6  7  2  0
  7  8  1  0
  8  9  2  0
  9 10  1  0
 10 11  2  0
 11 12  1  0
 12 13  1  0
 13 14  1  0
 14 15  1  0
 12 16  2  0
  7 17  1  0
 17 18  1  0
 18 19  2  0
 19 20  1  0
 20 21  2  0
 21 22  1  0
 21 23  1  0
 23 24  2  0
 17 25  2  0
 25 26  1  0
 26 27  2  0
 27 28  1  0
 28 29  2  0
 29 30  1  0
 30 31  2  0
 31  6  1  0
 16  8  1  0
 24 18  1  0
 31 26  1  0
  1 32  1  0
  1 33  1  0
  1 34  1  0
  2 35  1  0
  2 36  1  0
  3 37  1  0
  3 38  1  0
  4 39  1  0
  4 40  1  0
  5 41  1  0
  5 42  1  0
  9 43  1  0
 10 44  1  0
 11 45  1  0
 14 46  1  0
 14 47  1  0
 15 48  1  0
 15 49  1  0
 15 50  1  0
 16 51  1  0
 19 52  1  0
 20 53  1  0
 22 54  1  0
 22 55  1  0
 22 56  1  0
 23 57  1  0
 24 58  1  0
 27 59  1  0
 28 60  1  0
 29 61  1  0
 30 62  1  0
M  CHG  1   4   1
M  END
>  <UniqueID>  (21) 
21

>  <SMILES>  (21) 
CCC[NH2+]Cc1c(-c2cccc(SCC)c2)c(-c2ccc(C)cc2)nc2ccccc12

>  <Energy>  (21) 
74.01375832720032

>  <Genealogy>  (21) 
CCC[NH2+]Cc1c(-c2cccc(SCC)c2)c(-c2ccc(C)cc2)nc2ccccc12 (protonated)
CCC[NH2+]Cc1c(-c2cccc(SCC)c2)c(-c2ccc(C)cc2)nc2ccccc12 (3D coordinates assigned)
CCC[NH2+]Cc1c(-c2cccc(SCC)c2)c(-c2ccc(C)cc2)nc2ccccc12 (optimized conformer: 74.01375832720032 kcal/mol)

>  <smiles>  (21) 
CCCNCc1c(-c2cccc(SCC)c2)c(-c2ccc(C)cc2)nc2ccccc12

>  <score_type>  (21) 
oracle

>  <origin>  (21) 
adg

>  <m_score__min__energy>  (21) 
-8.5500000000000007

>  <m_primary>  (21) 
energy

$$$$
21:0
     RDKit          3D

 59 63  0  0  0  0  0  0  0  0999 V2000
    0.0690   30.2040  -24.7390 C   0  0  0  0  0  0  0  0  0  0  0  0
   -0.4020   28.7760  -24.7360 C   0  0  0  0  0  0  0  0  0  0  0  0
   -1.2120   28.4310  -25.5860 O   0  0  0  0  0  0  0  0  0  0  0  0
    0.0820   27.8250  -23.7460 N   0  0  0  0  0  0  0  0  0  0  0  0
    1.3830   27.2490  -24.1550 C   0  0  0  0  0  0  0  0  0  0  0  0
    1.2610   26.2570  -25.3390 C   0  0  0  0  0  0  0  0  0  0  0  0
   -0.1020   25.6840  -25.4730 N   0  0  0  0  0  0  0  0  0  0  0  0
   -0.1900   24.4500  -26.3080 C   0  0  2  0  0  0  0  0  0  0  0  0
    0.8430   24.3190  -27.4650 C   0  0  0  0  0  0  0  0  0  0  0  0
    0.1180   23.5950  -28.6060 C   0  0  0  0  0  0  0  0  0  0  0  0
   -1.3060   23.8770  -28.3220 C   0  0  0  0  0  0  0  0  0  0  0  0
   -2.3790   23.6730  -29.1900 C   0  0  0  0  0  0  0  0  0  0  0  0
   -3.6820   24.0070  -28.7650 C   0  0  0  0  0  0  0  0  0  0  0  0
   -4.8440   23.8060  -29.6670 C   0  0  0  0  0  0  0  0  0  0  0  0
   -5.8210   24.8070  -29.8050 C   0  0  0  0  0  0  0  0  0  0  0  0
   -6.9110   24.6170  -30.6550 C   0  0  0  0  0  0  0  0  0  0  0  0
   -7.0440   23.4280  -31.3760 C   0  0  0  0  0  0  0  0  0  0  0  0
   -6.0810   22.4120  -31.2540 C   0  0  0  0  0  0  0  0  0  0  0  0
   -6.2190   21.1470  -32.0210 C   0  0  0  0  0  0  0  0  0  0  0  0
   -5.1400   20.6430  -32.7720 C   0  0  0  0  0  0  0  0  0  0  0  0
   -5.2740   19.4530  -33.4920 C   0  0  0  0  0  0  0  0  0  0  0  0
   -6.4820   18.7540  -33.4730 C   0  0  0  0  0  0  0  0  0  0  0  0
   -7.5600   19.2430  -32.7320 C   0  0  0  0  0  0  0  0  0  0  0  0
   -7.4330   20.4320  -32.0080 C   0  0  0  0  0  0  0  0  0  0  0  0
   -4.9830   22.6110  -30.3970 C   0  0  0  0  0  0  0  0  0  0  0  0
   -3.8630   24.5410  -27.4680 C   0  0  0  0  0  0  0  0  0  0  0  0
   -2.7700   24.7280  -26.6100 C   0  0  0  0  0  0  0  0  0  0  0  0
   -1.4870   24.3860  -27.0560 C   0  0  0  0  0  0  0  0  0  0  0  0
   -0.6590   25.4410  -24.1280 C   0  0  0  0  0  0  0  0  0  0  0  0
   -0.9320   26.7840  -23.4300 C   0  0  0  0  0  0  0  0  0  0  0  0
    0.1845   30.5542  -23.7026 H   0  0  0  0  0  0  0  0  0  0  0  0
    1.0365   30.2699  -25.2583 H   0  0  0  0  0  0  0  0  0  0  0  0
   -0.6694   30.8326  -25.2583 H   0  0  0  0  0  0  0  0  0  0  0  0
    0.2630   28.3490  -22.8580 H   0  0  0  0  0  0  0  0  0  0  0  0
    2.0515   28.0701  -24.4532 H   0  0  0  0  0  0  0  0  0  0  0  0
    1.7791   26.6882  -23.2956 H   0  0  0  0  0  0  0  0  0  0  0  0
    1.5118   26.7878  -26.2692 H   0  0  0  0  0  0  0  0  0  0  0  0
    1.9523   25.4237  -25.1448 H   0  0  0  0  0  0  0  0  0  0  0  0
   -0.0310   23.6710  -25.5478 H   0  0  0  0  0  0  0  0  0  0  0  0
    1.1744   25.3147  -27.7949 H   0  0  0  0  0  0  0  0  0  0  0  0
    1.7373   23.7652  -27.1431 H   0  0  0  0  0  0  0  0  0  0  0  0
    0.4146   24.0010  -29.5844 H   0  0  0  0  0  0  0  0  0  0  0  0
    0.3474   22.5203  -28.6546 H   0  0  0  0  0  0  0  0  0  0  0  0
   -2.2109   23.2565  -30.1941 H   0  0  0  0  0  0  0  0  0  0  0  0
   -5.7257   25.7457  -29.2395 H   0  0  0  0  0  0  0  0  0  0  0  0
   -7.6692   25.4073  -30.7579 H   0  0  0  0  0  0  0  0  0  0  0  0
   -7.9072   23.2863  -32.0429 H   0  0  0  0  0  0  0  0  0  0  0  0
   -4.1855   21.1894  -32.7921 H   0  0  0  0  0  0  0  0  0  0  0  0
   -4.4254   19.0661  -34.0752 H   0  0  0  0  0  0  0  0  0  0  0  0
   -6.5849   17.8180  -34.0416 H   0  0  0  0  0  0  0  0  0  0  0  0
   -8.5114   18.6911  -32.7180 H   0  0  0  0  0  0  0  0  0  0  0  0
   -8.2852   20.8114  -31.4251 H   0  0  0  0  0  0  0  0  0  0  0  0
   -4.2232   21.8220  -30.2963 H   0  0  0  0  0  0  0  0  0  0  0  0
   -4.8733   24.8129  -27.1283 H   0  0  0  0  0  0  0  0  0  0  0  0
   -2.9181   25.1379  -25.6000 H   0  0  0  0  0  0  0  0  0  0  0  0
   -1.5996   24.8778  -24.2180 H   0  0  0  0  0  0  0  0  0  0  0  0
    0.0629   24.8616  -23.5338 H   0  0  0  0  0  0  0  0  0  0  0  0
   -1.9193   27.1494  -23.7488 H   0  0  0  0  0  0  0  0  0  0  0  0
   -0.8886   26.6038  -22.3457 H   0  0  0  0  0  0  0  0  0  0  0  0
  1  2  1  0
  2  3  2  0
  2  4  1  0
  4  5  1  0
  5  6  1  0
  6  7  1  0
  7  8  1  0
  8  9  1  0
  9 10  1  0
 10 11  1  0
 11 12  2  0
 12 13  1  0
 13 14  1  0
 14 15  2  0
 15 16  1  0
 16 17  2  0
 17 18  1  0
 18 19  1  0
 19 20  2  0
 20 21  1  0
 21 22  2  0
 22 23  1  0
 23 24  2  0
 18 25  2  0
 13 26  2  0
 26 27  1  0
 27 28  2  0
  7 29  1  0
 29 30  1  0
 30  4  1  0
 28  8  1  0
 28 11  1  0
 25 14  1  0
 24 19  1  0
  1 31  1  0
  1 32  1  0
  1 33  1  0
  4 34  1  0
  5 35  1  0
  5 36  1  0
  6 37  1  0
  6 38  1  0
  8 39  1  1
  9 40  1  0
  9 41  1  0
 10 42  1  0
 10 43  1  0
 12 44  1  0
 15 45  1  0
 16 46  1  0
 17 47  1  0
 20 48  1  0
 21 49  1  0
 22 50  1  0
 23 51  1  0
 24 52  1  0
 25 53  1  0
 26 54  1  0
 27 55  1  0
 29 56  1  0
 29 57  1  0
 30 58  1  0
 30 59  1  0
M  CHG  1   4   1
M  END
>  <UniqueID>  (22) 
22

>  <SMILES>  (22) 
CC(=O)[NH+]1CCN([C@@H]2CCc3cc(-c4cccc(-c5ccccc5)c4)ccc32)CC1

>  <Energy>  (22) 
102.30322281973028

>  <Genealogy>  (22) 
CC(=O)[NH+]1CCN(C2CCc3cc(-c4cccc(-c5ccccc5)c4)ccc32)CC1 (protonated)
CC(=O)[NH+]1CCN([C@@H]2CCc3cc(-c4cccc(-c5ccccc5)c4)ccc32)CC1 (chirality)
CC(=O)[NH+]1CCN([C@@H]2CCc3cc(-c4cccc(-c5ccccc5)c4)ccc32)CC1 (3D coordinates assigned)
CC(=O)[NH+]1CCN([C@@H]2CCc3cc(-c4cccc(-c5ccccc5)c4)ccc32)CC1 (nonaromatic ring conformer: 102.30322281973028 kcal/mol)

>  <smiles>  (22) 
CC(=O)N1CCN(C2CCc3cc(-c4cccc(-c5ccccc5)c4)ccc32)CC1

>  <score_type>  (22) 
oracle

>  <origin>  (22) 
adg

>  <m_score__min__energy>  (22) 
-10.18

>  <m_primary>  (22) 
energy

$$$$
22:0
     RDKit          3D

 49 51  0  0  0  0  0  0  0  0999 V2000
   -7.2080   14.4740  -34.5920 C   0  0  0  0  0  0  0  0  0  0  0  0
   -5.9340   15.0910  -34.2340 N   0  0  0  0  0  0  0  0  0  0  0  0
   -5.7870   16.4860  -33.9070 C   0  0  0  0  0  0  0  0  0  0  0  0
   -4.5990   17.1750  -34.1510 C   0  0  0  0  0  0  0  0  0  0  0  0
   -4.4960   18.5340  -33.8650 C   0  0  0  0  0  0  0  0  0  0  0  0
   -5.5810   19.2570  -33.3070 C   0  0  0  0  0  0  0  0  0  0  0  0
   -5.5240   20.6640  -33.0800 C   0  0  0  0  0  0  0  0  0  0  0  0
   -4.3410   21.4430  -33.4310 N   0  0  0  0  0  0  0  0  0  0  0  0
   -3.6270   21.9350  -32.2360 C   0  0  0  0  0  0  0  0  0  0  0  0
   -2.1500   21.5090  -32.2180 C   0  0  0  0  0  0  0  0  0  0  0  0
   -1.8550   20.6120  -33.3570 N   0  0  0  0  0  0  0  0  0  0  0  0
   -1.4540   19.2820  -32.8680 C   0  0  0  0  0  0  0  0  0  0  0  0
   -0.7810   21.1650  -34.2030 C   0  0  0  0  0  0  0  0  0  0  0  0
   -6.6750   21.3140  -32.5500 C   0  0  0  0  0  0  0  0  0  0  0  0
   -6.7110   22.7170  -32.3390 C   0  0  0  0  0  0  0  0  0  0  0  0
   -7.8660   23.3510  -31.8910 C   0  0  0  0  0  0  0  0  0  0  0  0
   -9.0150   22.6140  -31.6510 C   0  0  0  0  0  0  0  0  0  0  0  0
   -9.0040   21.2330  -31.8180 C   0  0  0  0  0  0  0  0  0  0  0  0
   -7.8280   20.5490  -32.2230 C   0  0  0  0  0  0  0  0  0  0  0  0
   -7.8000   19.1720  -32.3130 N   0  0  0  0  0  0  0  0  0  0  0  0
   -8.8620   18.3690  -31.6620 C   0  0  0  0  0  0  0  0  0  0  0  0
   -6.7640   18.5400  -32.9660 C   0  0  0  0  0  0  0  0  0  0  0  0
   -6.8560   17.1700  -33.3240 C   0  0  0  0  0  0  0  0  0  0  0  0
   -7.7568   14.2082  -33.6765 H   0  0  0  0  0  0  0  0  0  0  0  0
   -7.8050   15.1828  -35.1846 H   0  0  0  0  0  0  0  0  0  0  0  0
   -7.0220   13.5661  -35.1846 H   0  0  0  0  0  0  0  0  0  0  0  0
   -5.0890   14.4760  -34.2230 H   0  0  0  0  0  0  0  0  0  0  0  0
   -3.7356   16.6400  -34.5732 H   0  0  0  0  0  0  0  0  0  0  0  0
   -3.5524   19.0582  -34.0765 H   0  0  0  0  0  0  0  0  0  0  0  0
   -4.6180   22.2570  -34.0240 H   0  0  0  0  0  0  0  0  0  0  0  0
   -3.6850   20.9430  -34.0640 H   0  0  0  0  0  0  0  0  0  0  0  0
   -3.6778   23.0337  -32.2218 H   0  0  0  0  0  0  0  0  0  0  0  0
   -4.1128   21.4971  -31.3515 H   0  0  0  0  0  0  0  0  0  0  0  0
   -1.5143   22.4040  -32.2881 H   0  0  0  0  0  0  0  0  0  0  0  0
   -1.9464   20.9715  -31.2801 H   0  0  0  0  0  0  0  0  0  0  0  0
   -1.4536   19.2806  -31.7680 H   0  0  0  0  0  0  0  0  0  0  0  0
   -2.1644   18.5267  -33.2354 H   0  0  0  0  0  0  0  0  0  0  0  0
   -0.4445   19.0453  -33.2354 H   0  0  0  0  0  0  0  0  0  0  0  0
    0.0149   21.5748  -33.5638 H   0  0  0  0  0  0  0  0  0  0  0  0
   -0.3673   20.3678  -34.8381 H   0  0  0  0  0  0  0  0  0  0  0  0
   -1.1896   21.9648  -34.8381 H   0  0  0  0  0  0  0  0  0  0  0  0
   -5.8084   23.3149  -32.5334 H   0  0  0  0  0  0  0  0  0  0  0  0
   -7.8670   24.4387  -31.7271 H   0  0  0  0  0  0  0  0  0  0  0  0
   -9.9361   23.1214  -31.3283 H   0  0  0  0  0  0  0  0  0  0  0  0
   -9.9245   20.6600  -31.6326 H   0  0  0  0  0  0  0  0  0  0  0  0
   -8.7614   18.4451  -30.5693 H   0  0  0  0  0  0  0  0  0  0  0  0
   -9.8481   18.7494  -31.9668 H   0  0  0  0  0  0  0  0  0  0  0  0
   -8.7647   17.3165  -31.9668 H   0  0  0  0  0  0  0  0  0  0  0  0
   -7.7965   16.6311  -33.1369 H   0  0  0  0  0  0  0  0  0  0  0  0
  1  2  1  0
  2  3  1  0
  3  4  2  0
  4  5  1  0
  5  6  2  0
  6  7  1  0
  7  8  1  0
  8  9  1  0
  9 10  1  0
 10 11  1  0
 11 12  1  0
 11 13  1  0
  7 14  2  0
 14 15  1  0
 15 16  2  0
 16 17  1  0
 17 18  2  0
 18 19  1  0
 19 20  2  0
 20 21  1  0
 20 22  1  0
 22 23  2  0
 23  3  1  0
 22  6  1  0
 19 14  1  0
  1 24  1  0
  1 25  1  0
  1 26  1  0
  2 27  1  0
  4 28  1  0
  5 29  1  0
  8 30  1  0
  8 31  1  0
  9 32  1  0
  9 33  1  0
 10 34  1  0
 10 35  1  0
 12 36  1  0
 12 37  1  0
 12 38  1  0
 13 39  1  0
 13 40  1  0
 13 41  1  0
 15 42  1  0
 16 43  1  0
 17 44  1  0
 18 45  1  0
 21 46  1  0
 21 47  1  0
 21 48  1  0
 23 49  1  0
M  CHG  2   8   1  20   1
M  END
>  <UniqueID>  (23) 
23

>  <SMILES>  (23) 
CNc1ccc2c([NH2+]CCN(C)C)c3ccccc3[n+](C)c2c1

>  <Energy>  (23) 
78.61695287655715

>  <Genealogy>  (23) 
CNc1ccc2c([NH2+]CCN(C)C)c3ccccc3[n+](C)c2c1 (protonated)
CNc1ccc2c([NH2+]CCN(C)C)c3ccccc3[n+](C)c2c1 (3D coordinates assigned)
CNc1ccc2c([NH2+]CCN(C)C)c3ccccc3[n+](C)c2c1 (optimized conformer: 78.61695287655715 kcal/mol)

>  <smiles>  (23) 
CNc1ccc2c(NCCN(C)C)c3ccccc3[n+](C)c2c1

>  <score_type>  (23) 
oracle

>  <origin>  (23) 
adg

>  <m_score__min__energy>  (23) 
-7.5999999999999996

>  <m_primary>  (23) 
energy

$$$$
23:0
     RDKit          3D

 38 41  0  0  0  0  0  0  0  0999 V2000
   -4.2410   17.3400  -34.9900 C   0  0  0  0  0  0  0  0  0  0  0  0
   -4.9870   18.5480  -34.8810 O   0  0  0  0  0  0  0  0  0  0  0  0
   -5.9310   18.8090  -33.8770 C   0  0  0  0  0  0  0  0  0  0  0  0
   -6.8650   17.8450  -33.4520 C   0  0  0  0  0  0  0  0  0  0  0  0
   -7.7860   18.1540  -32.4480 C   0  0  0  0  0  0  0  0  0  0  0  0
   -7.7860   19.4200  -31.8600 C   0  0  0  0  0  0  0  0  0  0  0  0
   -6.8580   20.3910  -32.2690 C   0  0  0  0  0  0  0  0  0  0  0  0
   -6.8590   21.7020  -31.6710 N   0  0  0  0  0  0  0  0  0  0  0  0
   -7.9180   22.5480  -31.9220 C   0  0  0  0  0  0  0  0  0  0  0  0
   -7.9780   23.7890  -31.3550 N   0  0  0  0  0  0  0  0  0  0  0  0
   -6.9600   24.1780  -30.5570 C   0  0  0  0  0  0  0  0  0  0  0  0
   -6.8520   25.3110  -29.9090 O   0  0  0  0  0  0  0  0  0  0  0  0
   -5.7370   25.3100  -29.2310 N   0  0  0  0  0  0  0  0  0  0  0  0
   -5.0910   24.1410  -29.4560 C   0  0  0  0  0  0  0  0  0  0  0  0
   -3.7770   23.7960  -28.8770 C   0  0  0  0  0  0  0  0  0  0  0  0
   -3.6410   22.7170  -27.9890 C   0  0  0  0  0  0  0  0  0  0  0  0
   -2.3880   22.3880  -27.4640 C   0  0  0  0  0  0  0  0  0  0  0  0
   -1.2580   23.1260  -27.8310 C   0  0  0  0  0  0  0  0  0  0  0  0
    0.4530   22.6740  -27.1140 Br  0  0  0  0  0  0  0  0  0  0  0  0
   -1.3820   24.1890  -28.7300 C   0  0  0  0  0  0  0  0  0  0  0  0
   -2.6340   24.5190  -29.2580 C   0  0  0  0  0  0  0  0  0  0  0  0
   -5.8820   23.3880  -30.3110 C   0  0  0  0  0  0  0  0  0  0  0  0
   -5.8250   22.1070  -30.8550 C   0  0  0  0  0  0  0  0  0  0  0  0
   -4.8560   21.3420  -30.6010 O   0  0  0  0  0  0  0  0  0  0  0  0
   -5.9370   20.0770  -33.2840 C   0  0  0  0  0  0  0  0  0  0  0  0
   -4.0072   16.9614  -33.9840 H   0  0  0  0  0  0  0  0  0  0  0  0
   -4.8339   16.5908  -35.5351 H   0  0  0  0  0  0  0  0  0  0  0  0
   -3.3056   17.5346  -35.5351 H   0  0  0  0  0  0  0  0  0  0  0  0
   -6.8696   16.8457  -33.9118 H   0  0  0  0  0  0  0  0  0  0  0  0
   -8.5136   17.3971  -32.1197 H   0  0  0  0  0  0  0  0  0  0  0  0
   -8.5164   19.6580  -31.0726 H   0  0  0  0  0  0  0  0  0  0  0  0
   -8.7277   22.2183  -32.5896 H   0  0  0  0  0  0  0  0  0  0  0  0
   -5.4060   26.1020  -28.6360 H   0  0  0  0  0  0  0  0  0  0  0  0
   -4.5252   22.1274  -27.7049 H   0  0  0  0  0  0  0  0  0  0  0  0
   -2.2905   21.5474  -26.7612 H   0  0  0  0  0  0  0  0  0  0  0  0
   -0.4931   24.7670  -29.0227 H   0  0  0  0  0  0  0  0  0  0  0  0
   -2.7245   25.3484  -29.9749 H   0  0  0  0  0  0  0  0  0  0  0  0
   -5.2133   20.8361  -33.6157 H   0  0  0  0  0  0  0  0  0  0  0  0
  1  2  1  0
  2  3  1  0
  3  4  2  0
  4  5  1  0
  5  6  2  0
  6  7  1  0
  7  8  1  0
  8  9  1  0
  9 10  2  0
 10 11  1  0
 11 12  1  0
 12 13  1  0
 13 14  2  0
 14 15  1  0
 15 16  2  0
 16 17  1  0
 17 18  2  0
 18 19  1  0
 18 20  1  0
 20 21  2  0
 14 22  1  0
 22 23  1  0
 23 24  2  0
  7 25  2  0
 25  3  1  0
 23  8  1  0
 22 11  2  0
 21 15  1  0
  1 26  1  0
  1 27  1  0
  1 28  1  0
  4 29  1  0
  5 30  1  0
  6 31  1  0
  9 32  1  0
 13 33  1  0
 16 34  1  0
 17 35  1  0
 20 36  1  0
 21 37  1  0
 25 38  1  0
M  CHG  1  13   1
M  END
>  <UniqueID>  (24) 
24

>  <SMILES>  (24) 
COc1cccc(-n2cnc3o[nH+]c(-c4ccc(Br)cc4)c3c2=O)c1

>  <Energy>  (24) 
99.03141413657127

>  <Genealogy>  (24) 
COc1cccc(-n2cnc3o[nH+]c(-c4ccc(Br)cc4)c3c2=O)c1 (protonated)
COc1cccc(-n2cnc3o[nH+]c(-c4ccc(Br)cc4)c3c2=O)c1 (3D coordinates assigned)
COc1cccc(-n2cnc3o[nH+]c(-c4ccc(Br)cc4)c3c2=O)c1 (optimized conformer: 99.03141413657127 kcal/mol)

>  <smiles>  (24) 
COc1cccc(-n2cnc3onc(-c4ccc(Br)cc4)c3c2=O)c1

>  <score_type>  (24) 
oracle

>  <origin>  (24) 
adg

>  <m_score__min__energy>  (24) 
-8.3900000000000006

>  <m_primary>  (24) 
energy

$$$$
24:0
     RDKit          3D

 52 55  0  0  0  0  0  0  0  0999 V2000
   -0.5080   28.2300  -26.4550 C   0  0  0  0  0  0  0  0  0  0  0  0
   -0.6620   26.8040  -26.6420 N   0  0  0  0  0  0  0  0  0  0  0  0
   -1.5780   26.2030  -25.7180 C   0  0  0  0  0  0  0  0  0  0  0  0
   -0.8600   26.4280  -28.0110 C   0  0  0  0  0  0  0  0  0  0  0  0
   -1.6230   25.1760  -28.2150 C   0  0  0  0  0  0  0  0  0  0  0  0
   -2.3570   25.1600  -29.3700 O   0  0  0  0  0  0  0  0  0  0  0  0
   -3.4670   24.5270  -29.7900 C   0  0  0  0  0  0  0  0  0  0  0  0
   -4.7690   24.9280  -29.6430 C   0  0  0  0  0  0  0  0  0  0  0  0
   -5.8540   24.1960  -30.1130 C   0  0  0  0  0  0  0  0  0  0  0  0
   -5.6520   23.0020  -30.7700 C   0  0  0  0  0  0  0  0  0  0  0  0
   -6.7410   22.1840  -31.2890 C   0  0  0  0  0  0  0  0  0  0  0  0
   -7.9950   22.7480  -31.3510 C   0  0  0  0  0  0  0  0  0  0  0  0
   -9.0770   22.0700  -31.8190 N   0  0  0  0  0  0  0  0  0  0  0  0
   -8.9430   20.8190  -32.2360 C   0  0  0  0  0  0  0  0  0  0  0  0
   -9.8040   19.9010  -32.7440 N   0  0  0  0  0  0  0  0  0  0  0  0
   -9.1320   18.8010  -32.9950 N   0  0  0  0  0  0  0  0  0  0  0  0
   -7.8270   18.9620  -32.6640 C   0  0  0  0  0  0  0  0  0  0  0  0
   -6.8760   17.9190  -32.8370 N   0  0  0  0  0  0  0  0  0  0  0  0
   -5.7420   17.7440  -31.9160 C   0  0  0  0  0  0  0  0  0  0  0  0
   -4.5470   17.3190  -32.7320 C   0  0  0  0  0  0  0  0  0  0  0  0
   -4.6510   17.7290  -34.0410 O   0  0  0  0  0  0  0  0  0  0  0  0
   -5.6990   17.1220  -34.7260 C   0  0  0  0  0  0  0  0  0  0  0  0
   -6.9470   16.9550  -33.9250 C   0  0  0  0  0  0  0  0  0  0  0  0
   -7.7010   20.2280  -32.1860 C   0  0  0  0  0  0  0  0  0  0  0  0
   -6.5890   20.8920  -31.7170 C   0  0  0  0  0  0  0  0  0  0  0  0
   -4.3520   22.5730  -30.9340 C   0  0  0  0  0  0  0  0  0  0  0  0
   -3.2860   23.3040  -30.4630 C   0  0  0  0  0  0  0  0  0  0  0  0
   -0.4834   28.4582  -25.3792 H   0  0  0  0  0  0  0  0  0  0  0  0
    0.4312   28.5617  -26.9218 H   0  0  0  0  0  0  0  0  0  0  0  0
   -1.3547   28.7546  -26.9218 H   0  0  0  0  0  0  0  0  0  0  0  0
   -1.2533   26.4160  -24.6888 H   0  0  0  0  0  0  0  0  0  0  0  0
   -2.5846   26.6168  -25.8780 H   0  0  0  0  0  0  0  0  0  0  0  0
   -1.5992   25.1149  -25.8780 H   0  0  0  0  0  0  0  0  0  0  0  0
   -1.4021   27.2429  -28.5131 H   0  0  0  0  0  0  0  0  0  0  0  0
    0.1422   26.2468  -28.4266 H   0  0  0  0  0  0  0  0  0  0  0  0
   -0.9121   24.3371  -28.2439 H   0  0  0  0  0  0  0  0  0  0  0  0
   -2.3354   25.0946  -27.3808 H   0  0  0  0  0  0  0  0  0  0  0  0
   -4.9663   25.8787  -29.1261 H   0  0  0  0  0  0  0  0  0  0  0  0
   -6.8765   24.5714  -29.9597 H   0  0  0  0  0  0  0  0  0  0  0  0
   -8.1268   23.7853  -31.0094 H   0  0  0  0  0  0  0  0  0  0  0  0
  -10.8210   20.0090  -32.9190 H   0  0  0  0  0  0  0  0  0  0  0  0
   -5.5266   18.6930  -31.4031 H   0  0  0  0  0  0  0  0  0  0  0  0
   -5.9779   16.9848  -31.1558 H   0  0  0  0  0  0  0  0  0  0  0  0
   -3.6402   17.7595  -32.2918 H   0  0  0  0  0  0  0  0  0  0  0  0
   -4.4981   16.2201  -32.7205 H   0  0  0  0  0  0  0  0  0  0  0  0
   -5.9357   17.7370  -35.6068 H   0  0  0  0  0  0  0  0  0  0  0  0
   -5.3572   16.1097  -34.9877 H   0  0  0  0  0  0  0  0  0  0  0  0
   -7.8292   17.1540  -34.5512 H   0  0  0  0  0  0  0  0  0  0  0  0
   -7.0363   15.9285  -33.5398 H   0  0  0  0  0  0  0  0  0  0  0  0
   -5.6064   20.3983  -31.6871 H   0  0  0  0  0  0  0  0  0  0  0  0
   -4.1625   21.6226  -31.4544 H   0  0  0  0  0  0  0  0  0  0  0  0
   -2.2656   22.9228  -30.6163 H   0  0  0  0  0  0  0  0  0  0  0  0
  1  2  1  0
  2  3  1  0
  2  4  1  0
  4  5  1  0
  5  6  1  0
  6  7  1  0
  7  8  2  0
  8  9  1  0
  9 10  2  0
 10 11  1  0
 11 12  2  0
 12 13  1  0
 13 14  2  0
 14 15  1  0
 15 16  1  0
 16 17  2  0
 17 18  1  0
 18 19  1  0
 19 20  1  0
 20 21  1  0
 21 22  1  0
 22 23  1  0
 17 24  1  0
 24 25  2  0
 10 26  1  0
 26 27  2  0
 27  7  1  0
 25 11  1  0
 24 14  1  0
 23 18  1  0
  1 28  1  0
  1 29  1  0
  1 30  1  0
  3 31  1  0
  3 32  1  0
  3 33  1  0
  4 34  1  0
  4 35  1  0
  5 36  1  0
  5 37  1  0
  8 38  1  0
  9 39  1  0
 12 40  1  0
 15 41  1  0
 19 42  1  0
 19 43  1  0
 20 44  1  0
 20 45  1  0
 22 46  1  0
 22 47  1  0
 23 48  1  0
 23 49  1  0
 25 50  1  0
 26 51  1  0
 27 52  1  0
M  END
>  <smiles>  (25) 
CN(C)CCOc1ccc(-c2cnc3[nH]nc(N4CCOCC4)c3c2)cc1

>  <score_type>  (25) 
oracle

>  <origin>  (25) 
adg

>  <m_score__min__energy>  (25) 
-8.6899999999999995

>  <m_primary>  (25) 
energy

$$$$
25:0
     RDKit          3D

 43 43  0  0  0  0  0  0  0  0999 V2000
   -4.0340   22.3600  -27.7940 C   0  0  0  0  0  0  0  0  0  0  0  0
   -3.8500   23.7690  -27.2200 C   0  0  0  0  0  0  0  0  0  0  0  0
   -3.0480   24.6470  -28.1190 N   0  0  0  0  0  0  0  0  0  0  0  0
   -1.9070   25.2430  -27.3740 C   0  0  0  0  0  0  0  0  0  0  0  0
   -2.2920   25.6530  -25.9470 C   0  0  0  0  0  0  0  0  0  0  0  0
   -2.5590   23.8620  -29.2850 C   0  0  0  0  0  0  0  0  0  0  0  0
   -3.4800   23.9810  -30.5220 C   0  0  0  0  0  0  0  0  0  0  0  0
   -4.1340   25.2980  -30.5800 N   0  0  0  0  0  0  0  0  0  0  0  0
   -5.4490   25.3500  -29.9160 C   0  0  0  0  0  0  0  0  0  0  0  0
   -6.2740   24.0510  -30.0690 C   0  0  0  0  0  0  0  0  0  0  0  0
   -6.3710   23.5390  -31.4870 C   0  0  0  0  0  0  0  0  0  0  0  0
   -5.7480   24.1670  -32.3850 O   0  0  0  0  0  0  0  0  0  0  0  0
   -7.1310   22.3210  -31.8740 C   0  0  0  0  0  0  0  0  0  0  0  0
   -8.5080   22.2870  -31.5880 C   0  0  0  0  0  0  0  0  0  0  0  0
   -9.2910   21.1940  -31.9690 C   0  0  0  0  0  0  0  0  0  0  0  0
   -8.7080   20.1110  -32.6230 C   0  0  0  0  0  0  0  0  0  0  0  0
   -7.3370   20.1080  -32.8800 C   0  0  0  0  0  0  0  0  0  0  0  0
   -6.5390   21.1960  -32.5040 C   0  0  0  0  0  0  0  0  0  0  0  0
   -4.8060   21.0510  -32.7690 Cl  0  0  0  0  0  0  0  0  0  0  0  0
   -4.1283   21.6377  -26.9697 H   0  0  0  0  0  0  0  0  0  0  0  0
   -4.9435   22.3318  -28.4121 H   0  0  0  0  0  0  0  0  0  0  0  0
   -3.1623   22.0992  -28.4121 H   0  0  0  0  0  0  0  0  0  0  0  0
   -4.8410   24.2235  -27.0740 H   0  0  0  0  0  0  0  0  0  0  0  0
   -3.3060   23.6758  -26.2685 H   0  0  0  0  0  0  0  0  0  0  0  0
   -3.6620   25.4200  -28.4700 H   0  0  0  0  0  0  0  0  0  0  0  0
   -1.0940   24.5038  -27.3222 H   0  0  0  0  0  0  0  0  0  0  0  0
   -1.5926   26.1502  -27.9108 H   0  0  0  0  0  0  0  0  0  0  0  0
   -1.7236   25.0476  -25.2256 H   0  0  0  0  0  0  0  0  0  0  0  0
   -2.0595   26.7175  -25.7960 H   0  0  0  0  0  0  0  0  0  0  0  0
   -3.3690   25.4879  -25.7960 H   0  0  0  0  0  0  0  0  0  0  0  0
   -1.5573   24.2258  -29.5574 H   0  0  0  0  0  0  0  0  0  0  0  0
   -2.5439   22.8034  -28.9863 H   0  0  0  0  0  0  0  0  0  0  0  0
   -2.8776   23.8402  -31.4315 H   0  0  0  0  0  0  0  0  0  0  0  0
   -4.2608   23.2098  -30.4476 H   0  0  0  0  0  0  0  0  0  0  0  0
   -4.2300   25.5870  -31.5820 H   0  0  0  0  0  0  0  0  0  0  0  0
   -5.2895   25.5359  -28.8436 H   0  0  0  0  0  0  0  0  0  0  0  0
   -6.0224   26.1541  -30.4004 H   0  0  0  0  0  0  0  0  0  0  0  0
   -5.8047   23.2703  -29.4523 H   0  0  0  0  0  0  0  0  0  0  0  0
   -7.2992   24.2897  -29.7497 H   0  0  0  0  0  0  0  0  0  0  0  0
   -8.9740   23.1309  -31.0581 H   0  0  0  0  0  0  0  0  0  0  0  0
  -10.3694   21.1888  -31.7521 H   0  0  0  0  0  0  0  0  0  0  0  0
   -9.3285   19.2586  -32.9366 H   0  0  0  0  0  0  0  0  0  0  0  0
   -6.8785   19.2435  -33.3824 H   0  0  0  0  0  0  0  0  0  0  0  0
  1  2  1  0
  2  3  1  0
  3  4  1  0
  4  5  1  0
  3  6  1  0
  6  7  1  0
  7  8  1  0
  8  9  1  0
  9 10  1  0
 10 11  1  0
 11 12  2  0
 11 13  1  0
 13 14  2  0
 14 15  1  0
 15 16  2  0
 16 17  1  0
 17 18  2  0
 18 19  1  0
 18 13  1  0
  1 20  1  0
  1 21  1  0
  1 22  1  0
  2 23  1  0
  2 24  1  0
  3 25  1  0
  4 26  1  0
  4 27  1  0
  5 28  1  0
  5 29  1  0
  5 30  1  0
  6 31  1  0
  6 32  1  0
  7 33  1  0
  7 34  1  0
  8 35  1  0
  9 36  1  0
  9 37  1  0
 10 38  1  0
 10 39  1  0
 14 40  1  0
 15 41  1  0
 16 42  1  0
 17 43  1  0
M  CHG  1   3   1
M  END
>  <UniqueID>  (26) 
25

>  <SMILES>  (26) 
CC[NH+](CC)CCNCCC(=O)c1ccccc1Cl

>  <Energy>  (26) 
48.10685869405512

>  <Genealogy>  (26) 
CC[NH+](CC)CCNCCC(=O)c1ccccc1Cl (protonated)
CC[NH+](CC)CCNCCC(=O)c1ccccc1Cl (3D coordinates assigned)
CC[NH+](CC)CCNCCC(=O)c1ccccc1Cl (optimized conformer: 48.10685869405512 kcal/mol)

>  <smiles>  (26) 
CCN(CC)CCNCCC(=O)c1ccccc1Cl

>  <score_type>  (26) 
oracle

>  <origin>  (26) 
adg

>  <m_score__min__energy>  (26) 
-6.7599999999999998

>  <m_primary>  (26) 
energy

$$$$
26:0
     RDKit          3D

 46 48  0  0  0  0  0  0  0  0999 V2000
   -5.3280   24.8930  -28.5690 O   0  0  0  0  0  0  0  0  0  0  0  0
   -5.1650   25.0660  -30.0530 S   0  0  0  0  0  0  0  0  0  0  0  0
   -5.6060   26.4530  -30.4260 O   0  0  0  0  0  0  0  0  0  0  0  0
   -3.4900   24.8480  -30.4710 N   0  0  0  0  0  0  0  0  0  0  0  0
   -2.8290   23.9000  -29.5680 C   0  0  0  0  0  0  0  0  0  0  0  0
   -3.5510   22.5460  -29.5650 C   0  0  0  0  0  0  0  0  0  0  0  0
   -2.6920   21.4290  -30.1820 C   0  0  0  0  0  0  0  0  0  0  0  0
   -2.3110   21.7280  -31.5850 N   0  0  0  0  0  0  0  0  0  0  0  0
   -3.4450   22.3040  -32.3480 C   0  0  0  0  0  0  0  0  0  0  0  0
   -4.2600   21.2700  -33.1610 C   0  0  0  0  0  0  0  0  0  0  0  0
   -4.0520   19.8990  -32.6760 N   0  0  0  0  0  0  0  0  0  0  0  0
   -5.1360   18.9500  -32.7110 C   0  0  0  0  0  0  0  0  0  0  0  0
   -5.9260   18.7320  -31.5690 C   0  0  0  0  0  0  0  0  0  0  0  0
   -6.9790   17.8120  -31.6030 C   0  0  0  0  0  0  0  0  0  0  0  0
   -7.2510   17.1020  -32.7760 C   0  0  0  0  0  0  0  0  0  0  0  0
   -6.4740   17.3140  -33.9170 C   0  0  0  0  0  0  0  0  0  0  0  0
   -5.4210   18.2340  -33.8880 C   0  0  0  0  0  0  0  0  0  0  0  0
   -2.6870   19.4160  -32.4320 C   0  0  0  0  0  0  0  0  0  0  0  0
   -1.7070   20.5880  -32.3080 C   0  0  0  0  0  0  0  0  0  0  0  0
   -6.1690   23.8870  -30.8750 C   0  0  0  0  0  0  0  0  0  0  0  0
   -6.3410   23.7950  -32.2490 C   0  0  0  0  0  0  0  0  0  0  0  0
   -7.2440   22.7930  -32.6200 C   0  0  0  0  0  0  0  0  0  0  0  0
   -7.7770   22.1090  -31.5350 C   0  0  0  0  0  0  0  0  0  0  0  0
   -9.0460   20.6910  -31.6260 Br  0  0  0  0  0  0  0  0  0  0  0  0
   -7.1370   22.7420  -30.1140 S   0  0  0  0  0  0  0  0  0  0  0  0
   -1.7904   23.7528  -29.8991 H   0  0  0  0  0  0  0  0  0  0  0  0
   -2.8546   24.3122  -28.5485 H   0  0  0  0  0  0  0  0  0  0  0  0
   -3.7919   22.2751  -28.5264 H   0  0  0  0  0  0  0  0  0  0  0  0
   -4.4618   22.6472  -30.1735 H   0  0  0  0  0  0  0  0  0  0  0  0
   -1.7768   21.3135  -29.5829 H   0  0  0  0  0  0  0  0  0  0  0  0
   -3.2881   20.5045  -30.1826 H   0  0  0  0  0  0  0  0  0  0  0  0
   -4.1248   22.7946  -31.6358 H   0  0  0  0  0  0  0  0  0  0  0  0
   -3.0096   23.0033  -33.0769 H   0  0  0  0  0  0  0  0  0  0  0  0
   -5.3288   21.5170  -33.0792 H   0  0  0  0  0  0  0  0  0  0  0  0
   -3.9192   21.3154  -34.2059 H   0  0  0  0  0  0  0  0  0  0  0  0
   -5.7150   19.2879  -30.6436 H   0  0  0  0  0  0  0  0  0  0  0  0
   -7.5937   17.6470  -30.7058 H   0  0  0  0  0  0  0  0  0  0  0  0
   -8.0772   16.3762  -32.8004 H   0  0  0  0  0  0  0  0  0  0  0  0
   -6.6906   16.7564  -34.8401 H   0  0  0  0  0  0  0  0  0  0  0  0
   -4.8128   18.3985  -34.7897 H   0  0  0  0  0  0  0  0  0  0  0  0
   -2.6723   18.8337  -31.4989 H   0  0  0  0  0  0  0  0  0  0  0  0
   -2.3789   18.7881  -33.2811 H   0  0  0  0  0  0  0  0  0  0  0  0
   -0.8144   20.2507  -31.7608 H   0  0  0  0  0  0  0  0  0  0  0  0
   -1.4425   20.9243  -33.3214 H   0  0  0  0  0  0  0  0  0  0  0  0
   -5.8216   24.4423  -32.9709 H   0  0  0  0  0  0  0  0  0  0  0  0
   -7.5054   22.5695  -33.6649 H   0  0  0  0  0  0  0  0  0  0  0  0
  1  2  2  0
  2  3  2  0
  2  4  1  0
  4  5  1  0
  5  6  1  0
  6  7  1  0
  7  8  1  0
  8  9  1  0
  9 10  1  0
 10 11  1  0
 11 12  1  0
 12 13  2  0
 13 14  1  0
 14 15  2  0
 15 16  1  0
 16 17  2  0
 11 18  1  0
 18 19  1  0
  2 20  1  0
 20 21  2  0
 21 22  1  0
 22 23  2  0
 23 24  1  0
 23 25  1  0
 19  8  1  0
 25 20  1  0
 17 12  1  0
  5 26  1  0
  5 27  1  0
  6 28  1  0
  6 29  1  0
  7 30  1  0
  7 31  1  0
  9 32  1  0
  9 33  1  0
 10 34  1  0
 10 35  1  0
 13 36  1  0
 14 37  1  0
 15 38  1  0
 16 39  1  0
 17 40  1  0
 18 41  1  0
 18 42  1  0
 19 43  1  0
 19 44  1  0
 21 45  1  0
 22 46  1  0
M  CHG  1   4  -1
M  END
>  <UniqueID>  (27) 
26

>  <SMILES>  (27) 
O=S(=O)([N-]CCCN1CCN(c2ccccc2)CC1)c1ccc(Br)s1

>  <Energy>  (27) 
83.14454401415853

>  <Genealogy>  (27) 
O=S(=O)([N-]CCCN1CCN(c2ccccc2)CC1)c1ccc(Br)s1 (protonated)
O=S(=O)([N-]CCCN1CCN(c2ccccc2)CC1)c1ccc(Br)s1 (3D coordinates assigned)
O=S(=O)([N-]CCCN1CCN(c2ccccc2)CC1)c1ccc(Br)s1 (nonaromatic ring conformer: 83.14454401415853 kcal/mol)

>  <smiles>  (27) 
O=S(=O)(NCCCN1CCN(c2ccccc2)CC1)c1ccc(Br)s1

>  <score_type>  (27) 
oracle

>  <origin>  (27) 
adg

>  <m_score__min__energy>  (27) 
-10.42

>  <m_primary>  (27) 
energy

$$$$
27:0
     RDKit          3D

 68 71  0  0  0  0  0  0  0  0999 V2000
   -5.3580   25.9370  -30.7930 C   0  0  0  0  0  0  0  0  0  0  0  0
   -4.0770   25.3950  -30.4910 O   0  0  0  0  0  0  0  0  0  0  0  0
   -3.8340   24.4260  -29.5040 C   0  0  0  0  0  0  0  0  0  0  0  0
   -4.7150   23.3520  -29.2860 C   0  0  0  0  0  0  0  0  0  0  0  0
   -4.4510   22.4190  -28.2850 C   0  0  0  0  0  0  0  0  0  0  0  0
   -3.3050   22.5360  -27.5030 C   0  0  0  0  0  0  0  0  0  0  0  0
   -2.4000   23.5900  -27.7120 C   0  0  0  0  0  0  0  0  0  0  0  0
   -2.6780   24.5560  -28.7140 C   0  0  0  0  0  0  0  0  0  0  0  0
   -1.8540   25.6690  -28.9580 O   0  0  0  0  0  0  0  0  0  0  0  0
   -0.7480   26.0870  -28.1610 C   0  0  0  0  0  0  0  0  0  0  0  0
   -1.1350   26.1370  -26.6850 C   0  0  0  0  0  0  0  0  0  0  0  0
   -0.9800   24.7720  -25.9990 C   0  0  0  0  0  0  0  0  0  0  0  0
   -1.1970   23.6440  -26.9220 N   0  0  0  0  0  0  0  0  0  0  0  0
   -0.3360   22.4850  -26.8430 C   0  0  0  0  0  0  0  0  0  0  0  0
   -0.1070   21.9500  -25.7220 O   0  0  0  0  0  0  0  0  0  0  0  0
    0.2490   21.8640  -28.0930 C   0  0  0  0  0  0  0  0  0  0  0  0
   -0.1640   22.5910  -29.3860 C   0  0  0  0  0  0  0  0  0  0  0  0
   -0.8780   21.6710  -30.3920 C   0  0  0  0  0  0  0  0  0  0  0  0
   -0.1070   21.5570  -31.7270 C   0  0  0  0  0  0  0  0  0  0  0  0
   -0.3430   20.2870  -32.4630 N   0  0  0  0  0  0  0  0  0  0  0  0
   -1.2250   19.3620  -31.6950 C   0  0  0  0  0  0  0  0  0  0  0  0
   -2.0740   18.4730  -32.6000 C   0  0  0  0  0  0  0  0  0  0  0  0
   -2.8690   19.3270  -33.4790 N   0  0  0  0  0  0  0  0  0  0  0  0
   -4.3020   19.2920  -33.3940 C   0  0  0  0  0  0  0  0  0  0  0  0
   -4.9710   18.1160  -33.7670 C   0  0  0  0  0  0  0  0  0  0  0  0
   -6.3610   18.0370  -33.6860 C   0  0  0  0  0  0  0  0  0  0  0  0
   -7.0960   19.1270  -33.2230 C   0  0  0  0  0  0  0  0  0  0  0  0
   -6.4430   20.3010  -32.8350 C   0  0  0  0  0  0  0  0  0  0  0  0
   -5.0410   20.4090  -32.9300 C   0  0  0  0  0  0  0  0  0  0  0  0
   -4.3470   21.6730  -32.4650 C   0  0  0  0  0  0  0  0  0  0  0  0
   -5.2260   22.5200  -31.8120 F   0  0  0  0  0  0  0  0  0  0  0  0
   -3.8180   22.3620  -33.5410 F   0  0  0  0  0  0  0  0  0  0  0  0
   -3.3270   21.3410  -31.5930 F   0  0  0  0  0  0  0  0  0  0  0  0
   -2.2250   20.4470  -34.1700 C   0  0  0  0  0  0  0  0  0  0  0  0
   -0.7090   20.4890  -33.8960 C   0  0  0  0  0  0  0  0  0  0  0  0
   -5.8906   26.1624  -29.8573 H   0  0  0  0  0  0  0  0  0  0  0  0
   -5.2367   26.8609  -31.3775 H   0  0  0  0  0  0  0  0  0  0  0  0
   -5.9366   25.2066  -31.3775 H   0  0  0  0  0  0  0  0  0  0  0  0
   -5.6162   23.2478  -29.9081 H   0  0  0  0  0  0  0  0  0  0  0  0
   -5.1502   21.5876  -28.1122 H   0  0  0  0  0  0  0  0  0  0  0  0
   -3.1063   21.7959  -26.7138 H   0  0  0  0  0  0  0  0  0  0  0  0
    0.0813   25.3764  -28.2930 H   0  0  0  0  0  0  0  0  0  0  0  0
   -0.4421   27.0941  -28.4808 H   0  0  0  0  0  0  0  0  0  0  0  0
   -0.4890   26.8660  -26.1738 H   0  0  0  0  0  0  0  0  0  0  0  0
   -2.1939   26.4283  -26.6229 H   0  0  0  0  0  0  0  0  0  0  0  0
    0.0372   24.6988  -25.5868 H   0  0  0  0  0  0  0  0  0  0  0  0
   -1.7441   24.7078  -25.2103 H   0  0  0  0  0  0  0  0  0  0  0  0
    1.3459   21.8882  -28.0142 H   0  0  0  0  0  0  0  0  0  0  0  0
   -0.1398   20.8371  -28.1587 H   0  0  0  0  0  0  0  0  0  0  0  0
   -0.8425   23.4159  -29.1228 H   0  0  0  0  0  0  0  0  0  0  0  0
    0.7561   22.9535  -29.8676 H   0  0  0  0  0  0  0  0  0  0  0  0
   -0.9719   20.6680  -29.9502 H   0  0  0  0  0  0  0  0  0  0  0  0
   -1.8646   22.1070  -30.6076 H   0  0  0  0  0  0  0  0  0  0  0  0
   -0.4131   22.3922  -32.3741 H   0  0  0  0  0  0  0  0  0  0  0  0
    0.9636   21.5813  -31.4756 H   0  0  0  0  0  0  0  0  0  0  0  0
    0.5970   19.8200  -32.4870 H   0  0  0  0  0  0  0  0  0  0  0  0
   -0.5954   18.7202  -31.0611 H   0  0  0  0  0  0  0  0  0  0  0  0
   -1.9110   19.9778  -31.0948 H   0  0  0  0  0  0  0  0  0  0  0  0
   -1.4200   17.8266  -33.2037 H   0  0  0  0  0  0  0  0  0  0  0  0
   -2.7364   17.8403  -31.9910 H   0  0  0  0  0  0  0  0  0  0  0  0
   -4.3948   17.2504  -34.1258 H   0  0  0  0  0  0  0  0  0  0  0  0
   -6.8776   17.1139  -33.9877 H   0  0  0  0  0  0  0  0  0  0  0  0
   -8.1925   19.0635  -33.1627 H   0  0  0  0  0  0  0  0  0  0  0  0
   -7.0296   21.1489  -32.4517 H   0  0  0  0  0  0  0  0  0  0  0  0
   -2.3889   20.3400  -35.2524 H   0  0  0  0  0  0  0  0  0  0  0  0
   -2.6676   21.3817  -33.7952 H   0  0  0  0  0  0  0  0  0  0  0  0
   -0.2285   19.6977  -34.4901 H   0  0  0  0  0  0  0  0  0  0  0  0
   -0.3644   21.4964  -34.1725 H   0  0  0  0  0  0  0  0  0  0  0  0
  1  2  1  0
  2  3  1  0
  3  4  2  0
  4  5  1  0
  5  6  2  0
  6  7  1  0
  7  8  2  0
  8  9  1  0
  9 10  1  0
 10 11  1  0
 11 12  1  0
 12 13  1  0
 13 14  1  0
 14 15  2  0
 14 16  1  0
 16 17  1  0
 17 18  1  0
 18 19  1  0
 19 20  1  0
 20 21  1  0
 21 22  1  0
 22 23  1  0
 23 24  1  0
 24 25  2  0
 25 26  1  0
 26 27  2  0
 27 28  1  0
 28 29  2  0
 29 30  1  0
 30 31  1  0
 30 32  1  0
 30 33  1  0
 23 34  1  0
 34 35  1  0
  8  3  1  0
 35 20  1  0
 13  7  1  0
 29 24  1  0
  1 36  1  0
  1 37  1  0
  1 38  1  0
  4 39  1  0
  5 40  1  0
  6 41  1  0
 10 42  1  0
 10 43  1  0
 11 44  1  0
 11 45  1  0
 12 46  1  0
 12 47  1  0
 16 48  1  0
 16 49  1  0
 17 50  1  0
 17 51  1  0
 18 52  1  0
 18 53  1  0
 19 54  1  0
 19 55  1  0
 20 56  1  0
 21 57  1  0
 21 58  1  0
 22 59  1  0
 22 60  1  0
 25 61  1  0
 26 62  1  0
 27 63  1  0
 28 64  1  0
 34 65  1  0
 34 66  1  0
 35 67  1  0
 35 68  1  0
M  CHG  1  20   1
M  END
>  <UniqueID>  (28) 
27

>  <SMILES>  (28) 
COc1cccc2c1OCCCN2C(=O)CCCC[NH+]1CCN(c2ccccc2C(F)(F)F)CC1

>  <Energy>  (28) 
93.72809548991421

>  <Genealogy>  (28) 
COc1cccc2c1OCCCN2C(=O)CCCC[NH+]1CCN(c2ccccc2C(F)(F)F)CC1 (protonated)
COc1cccc2c1OCCCN2C(=O)CCCC[NH+]1CCN(c2ccccc2C(F)(F)F)CC1 (3D coordinates assigned)
COc1cccc2c1OCCCN2C(=O)CCCC[NH+]1CCN(c2ccccc2C(F)(F)F)CC1 (nonaromatic ring conformer: 93.72809548991421 kcal/mol)

>  <smiles>  (28) 
COc1cccc2c1OCCCN2C(=O)CCCCN1CCN(c2ccccc2C(F)(F)F)CC1

>  <score_type>  (28) 
oracle

>  <origin>  (28) 
adg

>  <m_score__min__energy>  (28) 
-7.7999999999999998

>  <m_primary>  (28) 
energy

$$$$
28:0
     RDKit          3D

 28 30  0  0  0  0  0  0  0  0999 V2000
   -9.4710   19.9090  -32.1860 F   0  0  0  0  0  0  0  0  0  0  0  0
   -8.3840   20.7190  -32.1500 C   0  0  0  0  0  0  0  0  0  0  0  0
   -7.1740   20.3000  -32.7520 C   0  0  0  0  0  0  0  0  0  0  0  0
   -6.0380   21.1300  -32.7210 C   0  0  0  0  0  0  0  0  0  0  0  0
   -6.1570   22.3640  -32.0840 C   0  0  0  0  0  0  0  0  0  0  0  0
   -5.2140   23.3040  -31.9360 N   0  0  0  0  0  0  0  0  0  0  0  0
   -5.8750   24.2760  -31.2540 C   0  0  0  0  0  0  0  0  0  0  0  0
   -5.2220   25.5550  -30.8340 C   0  0  0  0  0  0  0  0  0  0  0  0
   -3.8620   25.3280  -30.4660 O   0  0  0  0  0  0  0  0  0  0  0  0
   -3.4120   24.2960  -29.6250 C   0  0  0  0  0  0  0  0  0  0  0  0
   -3.9820   24.1860  -28.3490 C   0  0  0  0  0  0  0  0  0  0  0  0
   -3.5710   23.1750  -27.4730 C   0  0  0  0  0  0  0  0  0  0  0  0
   -2.5860   22.2660  -27.8660 C   0  0  0  0  0  0  0  0  0  0  0  0
   -2.0080   22.3680  -29.1340 C   0  0  0  0  0  0  0  0  0  0  0  0
   -2.4150   23.3790  -30.0120 C   0  0  0  0  0  0  0  0  0  0  0  0
   -7.1710   23.9840  -30.9630 N   0  0  0  0  0  0  0  0  0  0  0  0
   -7.3210   22.7670  -31.5060 C   0  0  0  0  0  0  0  0  0  0  0  0
   -8.4640   21.9730  -31.5150 C   0  0  0  0  0  0  0  0  0  0  0  0
   -7.1210   19.3193  -33.2474 H   0  0  0  0  0  0  0  0  0  0  0  0
   -5.0903   20.8162  -33.1829 H   0  0  0  0  0  0  0  0  0  0  0  0
   -5.2558   26.2695  -31.6697 H   0  0  0  0  0  0  0  0  0  0  0  0
   -5.7615   25.9596  -29.9650 H   0  0  0  0  0  0  0  0  0  0  0  0
   -4.7578   24.8994  -28.0341 H   0  0  0  0  0  0  0  0  0  0  0  0
   -4.0242   23.0961  -26.4738 H   0  0  0  0  0  0  0  0  0  0  0  0
   -2.2655   21.4702  -27.1776 H   0  0  0  0  0  0  0  0  0  0  0  0
   -1.2317   21.6524  -29.4427 H   0  0  0  0  0  0  0  0  0  0  0  0
   -1.9547   23.4579  -31.0079 H   0  0  0  0  0  0  0  0  0  0  0  0
   -9.3972   22.3133  -31.0425 H   0  0  0  0  0  0  0  0  0  0  0  0
  1  2  1  0
  2  3  2  0
  3  4  1  0
  4  5  2  0
  5  6  1  0
  6  7  1  0
  7  8  1  0
  8  9  1  0
  9 10  1  0
 10 11  2  0
 11 12  1  0
 12 13  2  0
 13 14  1  0
 14 15  2  0
  7 16  2  0
 16 17  1  0
 17 18  2  0
 18  2  1  0
 17  5  1  0
 15 10  1  0
  3 19  1  0
  4 20  1  0
  8 21  1  0
  8 22  1  0
 11 23  1  0
 12 24  1  0
 13 25  1  0
 14 26  1  0
 15 27  1  0
 18 28  1  0
M  CHG  1   6  -1
M  END
>  <UniqueID>  (29) 
28

>  <SMILES>  (29) 
Fc1ccc2[n-]c(COc3ccccc3)nc2c1

>  <Energy>  (29) 
64.53605628239109

>  <Genealogy>  (29) 
Fc1ccc2[n-]c(COc3ccccc3)nc2c1 (protonated)
Fc1ccc2[n-]c(COc3ccccc3)nc2c1 (3D coordinates assigned)
Fc1ccc2[n-]c(COc3ccccc3)nc2c1 (optimized conformer: 64.53605628239109 kcal/mol)

>  <smiles>  (29) 
Fc1ccc2[nH]c(COc3ccccc3)nc2c1

>  <score_type>  (29) 
oracle

>  <origin>  (29) 
adg

>  <m_score__min__energy>  (29) 
-7.3700000000000001

>  <m_primary>  (29) 
energy

$$$$
29:0
     RDKit          3D

 37 38  0  0  0  0  0  0  0  0999 V2000
   -1.8750   24.9480  -28.0090 C   0  0  0  0  0  0  0  0  0  0  0  0
   -2.3570   25.2790  -29.3420 N   0  0  0  0  0  0  0  0  0  0  0  0
   -3.6520   24.9270  -29.8440 C   0  0  0  0  0  0  0  0  0  0  0  0
   -4.1050   25.5540  -30.8380 O   0  0  0  0  0  0  0  0  0  0  0  0
   -4.5070   23.8900  -29.1650 C   0  0  0  0  0  0  0  0  0  0  0  0
   -4.5440   22.6540  -29.9410 N   0  0  0  0  0  0  0  0  0  0  0  0
   -5.0440   22.5780  -31.2820 C   0  0  0  0  0  0  0  0  0  0  0  0
   -4.2730   22.8200  -32.2510 O   0  0  0  0  0  0  0  0  0  0  0  0
   -6.4590   22.2160  -31.5320 C   0  0  0  0  0  0  0  0  0  0  0  0
   -7.4770   23.1780  -31.3920 C   0  0  0  0  0  0  0  0  0  0  0  0
   -8.8100   22.8390  -31.6380 C   0  0  0  0  0  0  0  0  0  0  0  0
   -9.1450   21.5390  -32.0220 C   0  0  0  0  0  0  0  0  0  0  0  0
   -8.1470   20.5620  -32.1540 C   0  0  0  0  0  0  0  0  0  0  0  0
   -8.5040   19.1720  -32.6070 C   0  0  0  0  0  0  0  0  0  0  0  0
   -7.2710   18.3110  -32.6580 C   0  0  0  0  0  0  0  0  0  0  0  0
   -6.9200   17.5100  -31.5580 C   0  0  0  0  0  0  0  0  0  0  0  0
   -5.7960   16.6810  -31.6220 C   0  0  0  0  0  0  0  0  0  0  0  0
   -5.0200   16.6390  -32.7830 C   0  0  0  0  0  0  0  0  0  0  0  0
   -5.3700   17.4240  -33.8870 C   0  0  0  0  0  0  0  0  0  0  0  0
   -4.4020   17.3610  -35.3480 Cl  0  0  0  0  0  0  0  0  0  0  0  0
   -6.4940   18.2550  -33.8270 C   0  0  0  0  0  0  0  0  0  0  0  0
   -6.8060   20.9070  -31.9180 C   0  0  0  0  0  0  0  0  0  0  0  0
   -2.5365   25.4023  -27.2566 H   0  0  0  0  0  0  0  0  0  0  0  0
   -1.8706   23.8554  -27.8815 H   0  0  0  0  0  0  0  0  0  0  0  0
   -0.8537   25.3362  -27.8815 H   0  0  0  0  0  0  0  0  0  0  0  0
   -4.0917   23.6772  -28.1689 H   0  0  0  0  0  0  0  0  0  0  0  0
   -5.5315   24.2813  -29.0794 H   0  0  0  0  0  0  0  0  0  0  0  0
   -7.2214   24.2035  -31.0869 H   0  0  0  0  0  0  0  0  0  0  0  0
   -9.5980   23.5987  -31.5288 H   0  0  0  0  0  0  0  0  0  0  0  0
  -10.1953   21.2800  -32.2217 H   0  0  0  0  0  0  0  0  0  0  0  0
   -9.2248   18.7334  -31.9013 H   0  0  0  0  0  0  0  0  0  0  0  0
   -8.9479   19.2243  -33.6121 H   0  0  0  0  0  0  0  0  0  0  0  0
   -7.5314   17.5353  -30.6439 H   0  0  0  0  0  0  0  0  0  0  0  0
   -5.5220   16.0603  -30.7562 H   0  0  0  0  0  0  0  0  0  0  0  0
   -4.1339   15.9888  -32.8291 H   0  0  0  0  0  0  0  0  0  0  0  0
   -6.7703   18.8668  -34.6984 H   0  0  0  0  0  0  0  0  0  0  0  0
   -6.0193   20.1473  -32.0359 H   0  0  0  0  0  0  0  0  0  0  0  0
  1  2  1  0
  2  3  1  0
  3  4  2  0
  3  5  1  0
  5  6  1  0
  6  7  1  0
  7  8  2  0
  7  9  1  0
  9 10  2  0
 10 11  1  0
 11 12  2  0
 12 13  1  0
 13 14  1  0
 14 15  1  0
 15 16  2  0
 16 17  1  0
 17 18  2  0
 18 19  1  0
 19 20  1  0
 19 21  2  0
 13 22  2  0
 22  9  1  0
 21 15  1  0
  1 23  1  0
  1 24  1  0
  1 25  1  0
  5 26  1  0
  5 27  1  0
 10 28  1  0
 11 29  1  0
 12 30  1  0
 14 31  1  0
 14 32  1  0
 16 33  1  0
 17 34  1  0
 18 35  1  0
 21 36  1  0
 22 37  1  0
M  CHG  2   2  -1   6  -1
M  END
>  <UniqueID>  (30) 
29

>  <SMILES>  (30) 
C[N-]C(=O)C[N-]C(=O)c1cccc(Cc2cccc(Cl)c2)c1

>  <Energy>  (30) 
32.00184381744076

>  <Genealogy>  (30) 
C[N-]C(=O)C[N-]C(=O)c1cccc(Cc2cccc(Cl)c2)c1 (protonated)
C[N-]C(=O)C[N-]C(=O)c1cccc(Cc2cccc(Cl)c2)c1 (3D coordinates assigned)
C[N-]C(=O)C[N-]C(=O)c1cccc(Cc2cccc(Cl)c2)c1 (optimized conformer: 32.00184381744076 kcal/mol)

>  <smiles>  (30) 
CNC(=O)CNC(=O)c1cccc(Cc2cccc(Cl)c2)c1

>  <score_type>  (30) 
oracle

>  <origin>  (30) 
adg

>  <m_score__min__energy>  (30) 
-11.35

>  <m_primary>  (30) 
energy

$$$$
30:0
     RDKit          3D

 39 41  0  0  0  0  0  0  0  0999 V2000
    0.2185   24.3598  -25.8228 H   0  0  0  0  0  0  0  0  0  0  0  0
   -0.5180   23.9240  -26.5140 C   0  0  0  0  0  0  0  0  0  0  0  0
   -0.8070   22.5950  -26.4490 N   0  0  0  0  0  0  0  0  0  0  0  0
   -1.7110   22.0160  -27.2840 C   0  0  0  0  0  0  0  0  0  0  0  0
   -1.9224   20.9394  -27.2051 H   0  0  0  0  0  0  0  0  0  0  0  0
   -2.3730   22.7920  -28.2450 C   0  0  0  0  0  0  0  0  0  0  0  0
   -2.0870   24.1660  -28.3260 C   0  0  0  0  0  0  0  0  0  0  0  0
   -2.7270   24.9260  -29.2500 N   0  0  0  0  0  0  0  0  0  0  0  0
   -3.6400   24.3880  -30.1070 C   0  0  0  0  0  0  0  0  0  0  0  0
   -4.2600   25.1390  -30.9710 N   0  0  0  0  0  0  0  0  0  0  0  0
   -5.6370   25.6140  -30.8380 C   0  0  0  0  0  0  0  0  0  0  0  0
   -6.2930   25.0020  -31.4745 H   0  0  0  0  0  0  0  0  0  0  0  0
   -5.6786   26.6684  -31.1487 H   0  0  0  0  0  0  0  0  0  0  0  0
   -6.1060   25.5110  -29.3910 C   0  0  0  0  0  0  0  0  0  0  0  0
   -5.2574   25.6974  -28.7164 H   0  0  0  0  0  0  0  0  0  0  0  0
   -6.8922   26.2579  -29.2063 H   0  0  0  0  0  0  0  0  0  0  0  0
   -6.5068   24.5034  -29.2063 H   0  0  0  0  0  0  0  0  0  0  0  0
   -3.9140   23.0060  -30.0370 C   0  0  0  0  0  0  0  0  0  0  0  0
   -4.8960   22.3710  -30.9460 C   0  0  0  0  0  0  0  0  0  0  0  0
   -6.2570   22.4350  -30.6110 C   0  0  0  0  0  0  0  0  0  0  0  0
   -6.5655   22.9302  -29.6785 H   0  0  0  0  0  0  0  0  0  0  0  0
   -7.2280   21.8740  -31.4530 C   0  0  0  0  0  0  0  0  0  0  0  0
   -8.6770   21.9240  -31.0700 C   0  0  0  0  0  0  0  0  0  0  0  0
   -8.7666   21.9271  -29.9737 H   0  0  0  0  0  0  0  0  0  0  0  0
   -9.1327   22.8384  -31.4777 H   0  0  0  0  0  0  0  0  0  0  0  0
   -9.1946   21.0432  -31.4777 H   0  0  0  0  0  0  0  0  0  0  0  0
   -6.8280   21.2130  -32.6210 C   0  0  0  0  0  0  0  0  0  0  0  0
   -7.5837   20.7575  -33.2779 H   0  0  0  0  0  0  0  0  0  0  0  0
   -5.4760   21.1290  -32.9560 C   0  0  0  0  0  0  0  0  0  0  0  0
   -5.1754   20.6201  -33.8837 H   0  0  0  0  0  0  0  0  0  0  0  0
   -4.4950   21.6880  -32.1200 C   0  0  0  0  0  0  0  0  0  0  0  0
   -3.0450   21.5650  -32.5080 C   0  0  0  0  0  0  0  0  0  0  0  0
   -2.4258   21.5125  -31.6004 H   0  0  0  0  0  0  0  0  0  0  0  0
   -2.9010   20.6514  -33.1035 H   0  0  0  0  0  0  0  0  0  0  0  0
   -2.7492   22.4413  -33.1035 H   0  0  0  0  0  0  0  0  0  0  0  0
   -3.2830   22.2440  -29.0980 N   0  0  0  0  0  0  0  0  0  0  0  0
   -3.4940   21.2220  -29.0420 H   0  0  0  0  0  0  0  0  0  0  0  0
   -1.1550   24.7360  -27.4570 C   0  0  0  0  0  0  0  0  0  0  0  0
   -0.9248   25.8102  -27.5135 H   0  0  0  0  0  0  0  0  0  0  0  0
  1  2  1  0
  2  3  2  0
  3  4  1  0
  4  5  1  0
  4  6  2  0
  6  7  1  0
  7  8  1  0
  8  9  1  0
  9 10  2  0
 10 11  1  0
 11 12  1  0
 11 13  1  0
 11 14  1  0
 14 15  1  0
 14 16  1  0
 14 17  1  0
  9 18  1  0
 18 19  1  0
 19 20  2  0
 20 21  1  0
 20 22  1  0
 22 23  1  0
 23 24  1  0
 23 25  1  0
 23 26  1  0
 22 27  2  0
 27 28  1  0
 27 29  1  0
 29 30  1  0
 29 31  2  0
 31 32  1  0
 32 33  1  0
 32 34  1  0
 32 35  1  0
 18 36  2  0
 36 37  1  0
  7 38  2  0
 38 39  1  0
 38  2  1  0
 36  6  1  0
 31 19  1  0
M  CHG  2   8  -1  36   1
M  END
>  <UniqueID>  (31) 
30

>  <SMILES>  (31) 
CC/N=c1\[n-]c2ccncc2[nH+]c1-c1cc(C)ccc1C

>  <Energy>  (31) 
50.042139899373886

>  <Genealogy>  (31) 
CCN=c1[n-]c2ccncc2[nH+]c1-c1cc(C)ccc1C (protonated)
CC/N=c1\[n-]c2ccncc2[nH+]c1-c1cc(C)ccc1C (cis-trans isomerization)
CC/N=c1\[n-]c2ccncc2[nH+]c1-c1cc(C)ccc1C (3D coordinates assigned)
CC/N=c1\[n-]c2ccncc2[nH+]c1-c1cc(C)ccc1C (optimized conformer: 50.042139899373886 kcal/mol)

>  <smiles>  (31) 
CCN=c1[nH]c2ccncc2nc1-c1cc(C)ccc1C

>  <score_type>  (31) 
oracle

>  <origin>  (31) 
adg

>  <m_score__min__energy>  (31) 
-8.2300000000000004

>  <m_primary>  (31) 
energy

$$$$
31:0
     RDKit          3D

 31 33  0  0  0  0  0  0  0  0999 V2000
   -4.4940   16.0890  -34.3080 C   0  0  0  0  0  0  0  0  0  0  0  0
   -4.7260   17.5230  -34.7710 C   0  0  0  0  0  0  0  0  0  0  0  0
   -5.6490   18.2080  -33.8660 N   0  0  0  0  0  0  0  0  0  0  0  0
   -6.8610   17.7490  -33.4720 C   0  0  0  0  0  0  0  0  0  0  0  0
   -7.4950   18.6820  -32.6580 C   0  0  0  0  0  0  0  0  0  0  0  0
   -6.6230   19.7470  -32.5770 C   0  0  0  0  0  0  0  0  0  0  0  0
   -6.7440   20.9600  -31.9040 C   0  0  0  0  0  0  0  0  0  0  0  0
   -5.6860   21.8930  -32.0110 C   0  0  0  0  0  0  0  0  0  0  0  0
   -5.7400   23.1940  -31.3050 C   0  0  0  0  0  0  0  0  0  0  0  0
   -4.6040   23.9410  -31.2070 N   0  0  0  0  0  0  0  0  0  0  0  0
   -4.5780   25.1440  -30.5760 C   0  0  0  0  0  0  0  0  0  0  0  0
   -5.7420   25.6570  -30.0020 C   0  0  0  0  0  0  0  0  0  0  0  0
   -6.9260   24.9250  -30.0950 C   0  0  0  0  0  0  0  0  0  0  0  0
   -6.9370   23.6910  -30.7500 C   0  0  0  0  0  0  0  0  0  0  0  0
   -8.1100   23.0220  -30.8800 F   0  0  0  0  0  0  0  0  0  0  0  0
   -4.5360   21.5570  -32.7740 C   0  0  0  0  0  0  0  0  0  0  0  0
   -4.4470   20.3240  -33.4420 C   0  0  0  0  0  0  0  0  0  0  0  0
   -5.5160   19.4340  -33.3210 C   0  0  0  0  0  0  0  0  0  0  0  0
   -4.4885   16.0550  -33.2085 H   0  0  0  0  0  0  0  0  0  0  0  0
   -5.2997   15.4452  -34.6907 H   0  0  0  0  0  0  0  0  0  0  0  0
   -3.5264   15.7321  -34.6907 H   0  0  0  0  0  0  0  0  0  0  0  0
   -3.7658   18.0596  -34.7838 H   0  0  0  0  0  0  0  0  0  0  0  0
   -5.1628   17.5058  -35.7804 H   0  0  0  0  0  0  0  0  0  0  0  0
   -7.2848   16.7745  -33.7561 H   0  0  0  0  0  0  0  0  0  0  0  0
   -8.4817   18.5898  -32.1807 H   0  0  0  0  0  0  0  0  0  0  0  0
   -7.6384   21.1867  -31.3051 H   0  0  0  0  0  0  0  0  0  0  0  0
   -3.6390   25.7139  -30.5175 H   0  0  0  0  0  0  0  0  0  0  0  0
   -5.7261   26.6265  -29.4826 H   0  0  0  0  0  0  0  0  0  0  0  0
   -7.8522   25.3200  -29.6520 H   0  0  0  0  0  0  0  0  0  0  0  0
   -3.7032   22.2723  -32.8429 H   0  0  0  0  0  0  0  0  0  0  0  0
   -3.5616   20.0676  -34.0423 H   0  0  0  0  0  0  0  0  0  0  0  0
  1  2  1  0
  2  3  1  0
  3  4  1  0
  4  5  2  0
  5  6  1  0
  6  7  2  0
  7  8  1  0
  8  9  1  0
  9 10  2  0
 10 11  1  0
 11 12  2  0
 12 13  1  0
 13 14  2  0
 14 15  1  0
  8 16  2  0
 16 17  1  0
 17 18  2  0
 18  3  1  0
 18  6  1  0
 14  9  1  0
  1 19  1  0
  1 20  1  0
  1 21  1  0
  2 22  1  0
  2 23  1  0
  4 24  1  0
  5 25  1  0
  7 26  1  0
 11 27  1  0
 12 28  1  0
 13 29  1  0
 16 30  1  0
 17 31  1  0
M  END
>  <UniqueID>  (32) 
31

>  <SMILES>  (32) 
CCn1ccc2cc(-c3ncccc3F)ccc21

>  <Energy>  (32) 
69.23084003246247

>  <Genealogy>  (32) 
CCn1ccc2cc(-c3ncccc3F)ccc21 (3D coordinates assigned)
CCn1ccc2cc(-c3ncccc3F)ccc21 (optimized conformer: 69.23084003246247 kcal/mol)

>  <smiles>  (32) 
CCn1ccc2cc(-c3ncccc3F)ccc21

>  <score_type>  (32) 
oracle

>  <origin>  (32) 
adg

>  <m_score__min__energy>  (32) 
-6.8799999999999999

>  <m_primary>  (32) 
energy

$$$$
32:0
     RDKit          2D

 51 54  0  0  0  0  0  0  0  0999 V2000
  -10.5000   -7.7942    0.0000 C   0  0  0  0  0  0  0  0  0  0  0  0
   -9.0000   -7.7942    0.0000 C   0  0  0  0  0  0  0  0  0  0  0  0
   -7.5000   -7.7942    0.0000 N   0  0  0  0  0  0  0  0  0  0  0  0
   -6.7500   -9.0933    0.0000 C   0  0  0  0  0  0  0  0  0  0  0  0
   -6.0000  -10.3923    0.0000 C   0  0  0  0  0  0  0  0  0  0  0  0
   -6.7500   -6.4952    0.0000 C   0  0  0  0  0  0  0  0  0  0  0  0
   -6.0000   -5.1962    0.0000 C   0  0  0  0  0  0  0  0  0  0  0  0
   -5.2500   -3.8971    0.0000 N   0  0  0  0  0  0  0  0  0  0  0  0
   -3.7500   -3.8971    0.0000 C   0  0  0  0  0  0  0  0  0  0  0  0
   -3.0000   -5.1962    0.0000 O   0  0  0  0  0  0  0  0  0  0  0  0
   -3.0000   -2.5981    0.0000 C   0  0  0  0  0  0  0  0  0  0  0  0
   -3.7500   -1.2990    0.0000 C   0  0  0  0  0  0  0  0  0  0  0  0
   -3.0000    0.0000    0.0000 C   0  0  0  0  0  0  0  0  0  0  0  0
   -1.5000    0.0000    0.0000 C   0  0  0  0  0  0  0  0  0  0  0  0
   -0.7500   -1.2990    0.0000 C   0  0  0  0  0  0  0  0  0  0  0  0
   -1.5000   -2.5981    0.0000 C   0  0  0  0  0  0  0  0  0  0  0  0
    0.7500   -1.2990    0.0000 C   0  0  0  0  0  0  0  0  0  0  0  0
    1.5000    0.0000    0.0000 C   0  0  0  0  0  0  0  0  0  0  0  0
    0.7500    1.2990    0.0000 C   0  0  0  0  0  0  0  0  0  0  0  0
    2.2500    1.2990    0.0000 C   0  0  0  0  0  0  0  0  0  0  0  0
    3.0000    2.5981    0.0000 C   0  0  0  0  0  0  0  0  0  0  0  0
    4.5000    2.5981    0.0000 C   0  0  0  0  0  0  0  0  0  0  0  0
    5.2500    1.2990    0.0000 C   0  0  0  0  0  0  0  0  0  0  0  0
    4.5000   -0.0000    0.0000 C   0  0  0  0  0  0  0  0  0  0  0  0
    3.0000   -0.0000    0.0000 C   0  0  0  0  0  0  0  0  0  0  0  0
    2.2500   -1.2990    0.0000 C   0  0  0  0  0  0  0  0  0  0  0  0
   -0.7500    1.2990    0.0000 O   0  0  0  0  0  0  0  0  0  0  0  0
  -12.0000   -7.7942    0.0000 H   0  0  0  0  0  0  0  0  0  0  0  0
  -10.5000   -6.2942    0.0000 H   0  0  0  0  0  0  0  0  0  0  0  0
  -10.5000   -9.2942    0.0000 H   0  0  0  0  0  0  0  0  0  0  0  0
   -9.0000   -6.2942    0.0000 H   0  0  0  0  0  0  0  0  0  0  0  0
   -9.0000   -9.2942    0.0000 H   0  0  0  0  0  0  0  0  0  0  0  0
   -5.4510   -8.3433    0.0000 H   0  0  0  0  0  0  0  0  0  0  0  0
   -8.0490   -9.8433    0.0000 H   0  0  0  0  0  0  0  0  0  0  0  0
   -5.2500  -11.6913    0.0000 H   0  0  0  0  0  0  0  0  0  0  0  0
   -4.7010   -9.6423    0.0000 H   0  0  0  0  0  0  0  0  0  0  0  0
   -7.2990  -11.1423    0.0000 H   0  0  0  0  0  0  0  0  0  0  0  0
   -5.4510   -7.2452    0.0000 H   0  0  0  0  0  0  0  0  0  0  0  0
   -8.0490   -5.7452    0.0000 H   0  0  0  0  0  0  0  0  0  0  0  0
   -4.7010   -5.9462    0.0000 H   0  0  0  0  0  0  0  0  0  0  0  0
   -7.2990   -4.4462    0.0000 H   0  0  0  0  0  0  0  0  0  0  0  0
   -6.0000   -2.5981    0.0000 H   0  0  0  0  0  0  0  0  0  0  0  0
   -5.2500   -1.2990    0.0000 H   0  0  0  0  0  0  0  0  0  0  0  0
   -3.7500    1.2990    0.0000 H   0  0  0  0  0  0  0  0  0  0  0  0
   -0.7500   -3.8971    0.0000 H   0  0  0  0  0  0  0  0  0  0  0  0
    2.2735    0.1929    0.0000 H   0  0  0  0  0  0  0  0  0  0  0  0
    2.2500    3.8971    0.0000 H   0  0  0  0  0  0  0  0  0  0  0  0
    5.2500    3.8971    0.0000 H   0  0  0  0  0  0  0  0  0  0  0  0
    6.7500    1.2990    0.0000 H   0  0  0  0  0  0  0  0  0  0  0  0
    5.2500   -1.2990    0.0000 H   0  0  0  0  0  0  0  0  0  0  0  0
    3.0000   -2.5981    0.0000 H   0  0  0  0  0  0  0  0  0  0  0  0
  1  2  1  0
  2  3  1  0
  3  4  1  0
  4  5  1  0
  3  6  1  0
  6  7  1  0
  7  8  1  0
  8  9  1  0
  9 10  2  0
  9 11  1  0
 11 12  2  0
 12 13  1  0
 13 14  2  0
 14 15  1  0
 15 16  2  0
 15 17  1  0
 17 18  2  0
 18 19  1  0
 19 20  2  0
 20 21  1  0
 21 22  2  0
 22 23  1  0
 23 24  2  0
 24 25  1  0
 25 26  2  0
 19 27  1  0
 16 11  1  0
 26 17  1  0
 27 14  1  0
 25 20  1  0
  1 28  1  0
  1 29  1  0
  1 30  1  0
  2 31  1  0
  2 32  1  0
  4 33  1  0
  4 34  1  0
  5 35  1  0
  5 36  1  0
  5 37  1  0
  6 38  1  0
  6 39  1  0
  7 40  1  0
  7 41  1  0
  8 42  1  0
 12 43  1  0
 13 44  1  0
 16 45  1  0
 18 46  1  0
 21 47  1  0
 22 48  1  0
 23 49  1  0
 24 50  1  0
 26 51  1  0
M  END
>  <smiles>  (33) 
CCN(CC)CCNC(=O)c1ccc2c(c1)-c1cc(c3ccccc3c1)O2

>  <m_score__min__energy>  (33) 
nan

>  <m_primary>  (33) 
energy

$$$$
33:0
     RDKit          3D

 36 37  0  0  0  0  0  0  0  0999 V2000
   -2.8920   24.5950  -27.0800 C   0  0  0  0  0  0  0  0  0  0  0  0
   -3.4720   24.1260  -28.4100 C   0  0  0  0  0  0  0  0  0  0  0  0
   -4.8700   24.5450  -28.5220 N   0  0  0  0  0  0  0  0  0  0  0  0
   -5.2690   24.8110  -30.1920 S   0  0  0  0  0  0  0  0  0  0  0  0
   -4.2230   25.6800  -30.8360 O   0  0  0  0  0  0  0  0  0  0  0  0
   -6.5940   25.5170  -30.2780 O   0  0  0  0  0  0  0  0  0  0  0  0
   -5.3860   23.2710  -31.0390 C   0  0  0  0  0  0  0  0  0  0  0  0
   -4.2330   22.5620  -31.3960 C   0  0  0  0  0  0  0  0  0  0  0  0
   -4.3360   21.3320  -32.0500 C   0  0  0  0  0  0  0  0  0  0  0  0
   -5.5970   20.7880  -32.3630 C   0  0  0  0  0  0  0  0  0  0  0  0
   -5.6970   19.5140  -33.0380 N   0  0  0  0  0  0  0  0  0  0  0  0
   -4.7230   18.9440  -33.9020 C   0  0  0  0  0  0  0  0  0  0  0  0
   -5.1330   17.7930  -34.3980 C   0  0  0  0  0  0  0  0  0  0  0  0
   -4.3290   16.9520  -35.3370 C   0  0  0  0  0  0  0  0  0  0  0  0
   -6.4950   17.4440  -33.9010 C   0  0  0  0  0  0  0  0  0  0  0  0
   -6.8370   18.6040  -32.9530 C   0  0  0  0  0  0  0  0  0  0  0  0
   -6.7520   21.5040  -31.9880 C   0  0  0  0  0  0  0  0  0  0  0  0
   -6.6440   22.7340  -31.3320 C   0  0  0  0  0  0  0  0  0  0  0  0
   -3.4559   24.1390  -26.2529 H   0  0  0  0  0  0  0  0  0  0  0  0
   -1.8361   24.2938  -27.0138 H   0  0  0  0  0  0  0  0  0  0  0  0
   -2.9656   25.6905  -27.0138 H   0  0  0  0  0  0  0  0  0  0  0  0
   -2.8927   24.5656  -29.2353 H   0  0  0  0  0  0  0  0  0  0  0  0
   -3.4189   23.0284  -28.4602 H   0  0  0  0  0  0  0  0  0  0  0  0
   -4.9730   25.4680  -28.0390 H   0  0  0  0  0  0  0  0  0  0  0  0
   -3.2412   22.9754  -31.1604 H   0  0  0  0  0  0  0  0  0  0  0  0
   -3.4230   20.7826  -32.3234 H   0  0  0  0  0  0  0  0  0  0  0  0
   -3.7501   19.4047  -34.1283 H   0  0  0  0  0  0  0  0  0  0  0  0
   -3.6817   16.2750  -34.7602 H   0  0  0  0  0  0  0  0  0  0  0  0
   -5.0061   16.3605  -35.9708 H   0  0  0  0  0  0  0  0  0  0  0  0
   -3.7077   17.6018  -35.9708 H   0  0  0  0  0  0  0  0  0  0  0  0
   -7.2146   17.3890  -34.7311 H   0  0  0  0  0  0  0  0  0  0  0  0
   -6.5332   16.4614  -33.4081 H   0  0  0  0  0  0  0  0  0  0  0  0
   -7.7590   19.1087  -33.2773 H   0  0  0  0  0  0  0  0  0  0  0  0
   -7.0117   18.2573  -31.9238 H   0  0  0  0  0  0  0  0  0  0  0  0
   -7.7465   21.0916  -32.2134 H   0  0  0  0  0  0  0  0  0  0  0  0
   -7.5532   23.2824  -31.0447 H   0  0  0  0  0  0  0  0  0  0  0  0
  1  2  1  0
  2  3  1  0
  3  4  1  0
  4  5  2  0
  4  6  2  0
  4  7  1  0
  7  8  2  0
  8  9  1  0
  9 10  2  0
 10 11  1  0
 11 12  1  0
 12 13  2  0
 13 14  1  0
 13 15  1  0
 15 16  1  0
 10 17  1  0
 17 18  2  0
 18  7  1  0
 16 11  1  0
  1 19  1  0
  1 20  1  0
  1 21  1  0
  2 22  1  0
  2 23  1  0
  3 24  1  0
  8 25  1  0
  9 26  1  0
 12 27  1  0
 14 28  1  0
 14 29  1  0
 14 30  1  0
 15 31  1  0
 15 32  1  0
 16 33  1  0
 16 34  1  0
 17 35  1  0
 18 36  1  0
M  END
>  <UniqueID>  (34) 
32

>  <SMILES>  (34) 
CCNS(=O)(=O)c1ccc(N2C=C(C)CC2)cc1

>  <Energy>  (34) 
39.04959202179793

>  <Genealogy>  (34) 
CCNS(=O)(=O)c1ccc(N2C=C(C)CC2)cc1 (3D coordinates assigned)
CCNS(=O)(=O)c1ccc(N2C=C(C)CC2)cc1 (nonaromatic ring conformer: 39.04959202179793 kcal/mol)

>  <smiles>  (34) 
CCNS(=O)(=O)c1ccc(N2C=C(C)CC2)cc1

>  <score_type>  (34) 
oracle

>  <origin>  (34) 
adg

>  <m_score__min__energy>  (34) 
-7.7000000000000002

>  <m_primary>  (34) 
energy

$$$$
34:0
     RDKit          3D

 48 50  0  0  0  0  0  0  0  0999 V2000
   -1.6380   25.2740  -27.7210 C   0  0  0  0  0  0  0  0  0  0  0  0
   -2.2920   25.4950  -28.9660 O   0  0  0  0  0  0  0  0  0  0  0  0
   -3.0760   24.5400  -29.6290 C   0  0  0  0  0  0  0  0  0  0  0  0
   -4.2780   24.9560  -30.2150 C   0  0  0  0  0  0  0  0  0  0  0  0
   -5.0960   24.0420  -30.8840 C   0  0  0  0  0  0  0  0  0  0  0  0
   -4.7280   22.6930  -30.9650 C   0  0  0  0  0  0  0  0  0  0  0  0
   -5.5580   21.7680  -31.6780 N   0  0  0  0  0  0  0  0  0  0  0  0
   -6.8220   21.5400  -31.3630 N   0  0  0  0  0  0  0  0  0  0  0  0
   -7.3250   20.6240  -32.2100 C   0  0  0  0  0  0  0  0  0  0  0  0
   -8.7780   20.2650  -32.2570 C   0  0  0  0  0  0  0  0  0  0  0  0
   -6.3270   20.2330  -33.1020 C   0  0  0  0  0  0  0  0  0  0  0  0
   -6.4570   19.2290  -34.2310 C   0  0  0  0  0  0  0  0  0  0  0  0
   -6.1870   17.8270  -33.8340 N   0  0  0  0  0  0  0  0  0  0  0  0
   -5.9180   17.6450  -32.3880 C   0  0  0  0  0  0  0  0  0  0  0  0
   -5.3910   16.2370  -32.0910 C   0  0  0  0  0  0  0  0  0  0  0  0
   -4.0580   15.9810  -32.8200 C   0  0  0  0  0  0  0  0  0  0  0  0
   -3.9130   16.8100  -34.1100 C   0  0  0  0  0  0  0  0  0  0  0  0
   -5.2820   17.0840  -34.7450 C   0  0  0  0  0  0  0  0  0  0  0  0
   -5.2200   21.0070  -32.7460 C   0  0  0  0  0  0  0  0  0  0  0  0
   -3.8560   20.9710  -33.3730 C   0  0  0  0  0  0  0  0  0  0  0  0
   -3.5150   22.2730  -30.3980 C   0  0  0  0  0  0  0  0  0  0  0  0
   -2.6960   23.1870  -29.7280 C   0  0  0  0  0  0  0  0  0  0  0  0
   -2.3288   25.5074  -26.8974 H   0  0  0  0  0  0  0  0  0  0  0  0
   -1.3275   24.2210  -27.6518 H   0  0  0  0  0  0  0  0  0  0  0  0
   -0.7524   25.9228  -27.6518 H   0  0  0  0  0  0  0  0  0  0  0  0
   -4.5807   26.0114  -30.1480 H   0  0  0  0  0  0  0  0  0  0  0  0
   -6.0327   24.3832  -31.3489 H   0  0  0  0  0  0  0  0  0  0  0  0
   -7.3450   22.0320  -30.6040 H   0  0  0  0  0  0  0  0  0  0  0  0
   -9.1654   20.1693  -31.2319 H   0  0  0  0  0  0  0  0  0  0  0  0
   -9.3334   21.0529  -32.7868 H   0  0  0  0  0  0  0  0  0  0  0  0
   -8.9026   19.3091  -32.7868 H   0  0  0  0  0  0  0  0  0  0  0  0
   -7.4826   19.2842  -34.6248 H   0  0  0  0  0  0  0  0  0  0  0  0
   -5.6968   19.4965  -34.9797 H   0  0  0  0  0  0  0  0  0  0  0  0
   -5.1678   18.3830  -32.0677 H   0  0  0  0  0  0  0  0  0  0  0  0
   -6.8613   17.7847  -31.8398 H   0  0  0  0  0  0  0  0  0  0  0  0
   -5.2340   16.1329  -31.0072 H   0  0  0  0  0  0  0  0  0  0  0  0
   -6.1306   15.5040  -32.4455 H   0  0  0  0  0  0  0  0  0  0  0  0
   -3.2315   16.2394  -32.1417 H   0  0  0  0  0  0  0  0  0  0  0  0
   -4.0358   14.9189  -33.1053 H   0  0  0  0  0  0  0  0  0  0  0  0
   -3.4301   17.7685  -33.8691 H   0  0  0  0  0  0  0  0  0  0  0  0
   -3.3028   16.2398  -34.8259 H   0  0  0  0  0  0  0  0  0  0  0  0
   -5.1353   17.6776  -35.6594 H   0  0  0  0  0  0  0  0  0  0  0  0
   -5.7503   16.1136  -34.9666 H   0  0  0  0  0  0  0  0  0  0  0  0
   -3.0901   20.9508  -32.5837 H   0  0  0  0  0  0  0  0  0  0  0  0
   -3.7631   20.0701  -33.9973 H   0  0  0  0  0  0  0  0  0  0  0  0
   -3.7157   21.8658  -33.9973 H   0  0  0  0  0  0  0  0  0  0  0  0
   -3.2072   21.2202  -30.4810 H   0  0  0  0  0  0  0  0  0  0  0  0
   -1.7517   22.8485  -29.2766 H   0  0  0  0  0  0  0  0  0  0  0  0
  1  2  1  0
  2  3  1  0
  3  4  2  0
  4  5  1  0
  5  6  2  0
  6  7  1  0
  7  8  1  0
  8  9  2  0
  9 10  1  0
  9 11  1  0
 11 12  1  0
 12 13  1  0
 13 14  1  0
 14 15  1  0
 15 16  1  0
 16 17  1  0
 17 18  1  0
 11 19  2  0
 19 20  1  0
  6 21  1  0
 21 22  2  0
 22  3  1  0
 19  7  1  0
 18 13  1  0
  1 23  1  0
  1 24  1  0
  1 25  1  0
  4 26  1  0
  5 27  1  0
  8 28  1  0
 10 29  1  0
 10 30  1  0
 10 31  1  0
 12 32  1  0
 12 33  1  0
 14 34  1  0
 14 35  1  0
 15 36  1  0
 15 37  1  0
 16 38  1  0
 16 39  1  0
 17 40  1  0
 17 41  1  0
 18 42  1  0
 18 43  1  0
 20 44  1  0
 20 45  1  0
 20 46  1  0
 21 47  1  0
 22 48  1  0
M  CHG  1   8   1
M  END
>  <UniqueID>  (35) 
33

>  <SMILES>  (35) 
COc1ccc(-n2[nH+]c(C)c(CN3CCCCC3)c2C)cc1

>  <Energy>  (35) 
94.0288699954859

>  <Genealogy>  (35) 
COc1ccc(-n2[nH+]c(C)c(CN3CCCCC3)c2C)cc1 (protonated)
COc1ccc(-n2[nH+]c(C)c(CN3CCCCC3)c2C)cc1 (3D coordinates assigned)
COc1ccc(-n2[nH+]c(C)c(CN3CCCCC3)c2C)cc1 (nonaromatic ring conformer: 94.0288699954859 kcal/mol)

>  <smiles>  (35) 
COc1ccc(-n2nc(C)c(CN3CCCCC3)c2C)cc1

>  <score_type>  (35) 
oracle

>  <origin>  (35) 
adg

>  <m_score__min__energy>  (35) 
-7.46

>  <m_primary>  (35) 
energy

$$$$
35:0
     RDKit          3D

 63 65  0  0  0  0  0  0  0  0999 V2000
   -0.8790   26.6050  -28.1530 C   0  0  0  0  0  0  0  0  0  0  0  0
   -1.4930   25.6090  -28.9700 O   0  0  0  0  0  0  0  0  0  0  0  0
   -1.2680   24.2320  -28.8430 C   0  0  0  0  0  0  0  0  0  0  0  0
   -0.1750   23.7320  -28.1060 C   0  0  0  0  0  0  0  0  0  0  0  0
    0.0730   22.3590  -28.0530 C   0  0  0  0  0  0  0  0  0  0  0  0
   -0.7400   21.4730  -28.7590 C   0  0  0  0  0  0  0  0  0  0  0  0
   -1.8320   21.9550  -29.4860 C   0  0  0  0  0  0  0  0  0  0  0  0
   -2.1370   23.3270  -29.4940 C   0  0  0  0  0  0  0  0  0  0  0  0
   -3.4150   23.7990  -30.1680 C   0  0  0  0  0  0  0  0  0  0  0  0
   -4.6160   23.6100  -29.3160 N   0  0  1  0  0  0  0  0  0  0  0  0
   -4.2300   23.4010  -27.9070 C   0  0  0  0  0  0  0  0  0  0  0  0
   -5.5790   24.6920  -29.4780 C   0  0  0  0  0  0  0  0  0  0  0  0
   -5.7530   25.4590  -28.5400 O   0  0  0  0  0  0  0  0  0  0  0  0
   -6.3410   24.9350  -30.7670 C   0  0  0  0  0  0  0  0  0  0  0  0
   -6.6330   23.6810  -31.4790 N   0  0  0  0  0  0  0  0  0  0  0  0
   -5.9100   23.3070  -32.7040 C   0  0  0  0  0  0  0  0  0  0  0  0
   -4.9580   22.1680  -32.4480 C   0  0  0  0  0  0  0  0  0  0  0  0
   -3.9120   21.8870  -33.3410 C   0  0  0  0  0  0  0  0  0  0  0  0
   -3.0140   20.8590  -33.0420 C   0  0  0  0  0  0  0  0  0  0  0  0
   -3.1740   20.1170  -31.8700 C   0  0  0  0  0  0  0  0  0  0  0  0
   -4.2350   20.4120  -31.0130 C   0  0  0  0  0  0  0  0  0  0  0  0
   -5.0950   21.4200  -31.3160 N   0  0  0  0  0  0  0  0  0  0  0  0
   -7.5120   22.7300  -30.8690 C   0  0  0  0  0  0  0  0  0  0  0  0
   -7.2230   22.2580  -29.7380 O   0  0  0  0  0  0  0  0  0  0  0  0
   -8.7460   22.3220  -31.5730 C   0  0  0  0  0  0  0  0  0  0  0  0
   -9.0430   21.0660  -31.9470 C   0  0  0  0  0  0  0  0  0  0  0  0
   -8.0560   20.0300  -32.3100 C   0  0  0  0  0  0  0  0  0  0  0  0
   -7.2280   20.1760  -33.4380 C   0  0  0  0  0  0  0  0  0  0  0  0
   -6.3550   19.1490  -33.8110 C   0  0  0  0  0  0  0  0  0  0  0  0
   -6.3220   17.9500  -33.0860 C   0  0  0  0  0  0  0  0  0  0  0  0
   -5.3890   16.8490  -33.4890 C   0  0  0  0  0  0  0  0  0  0  0  0
   -7.1790   17.7860  -31.9850 C   0  0  0  0  0  0  0  0  0  0  0  0
   -8.0420   18.8210  -31.6010 C   0  0  0  0  0  0  0  0  0  0  0  0
   -1.0328   26.3555  -27.0928 H   0  0  0  0  0  0  0  0  0  0  0  0
    0.1991   26.6423  -28.3682 H   0  0  0  0  0  0  0  0  0  0  0  0
   -1.3300   27.5849  -28.3682 H   0  0  0  0  0  0  0  0  0  0  0  0
    0.4865   24.4280  -27.5694 H   0  0  0  0  0  0  0  0  0  0  0  0
    0.9114   21.9754  -27.4531 H   0  0  0  0  0  0  0  0  0  0  0  0
   -0.5219   20.3949  -28.7437 H   0  0  0  0  0  0  0  0  0  0  0  0
   -2.4585   21.2541  -30.0572 H   0  0  0  0  0  0  0  0  0  0  0  0
   -3.3147   24.8691  -30.4023 H   0  0  0  0  0  0  0  0  0  0  0  0
   -3.5540   23.1947  -31.0766 H   0  0  0  0  0  0  0  0  0  0  0  0
   -5.0920   22.7220  -29.5970 H   0  0  0  0  0  0  0  0  0  0  0  0
   -5.0048   23.8205  -27.2485 H   0  0  0  0  0  0  0  0  0  0  0  0
   -4.1264   22.3235  -27.7112 H   0  0  0  0  0  0  0  0  0  0  0  0
   -3.2711   23.9031  -27.7112 H   0  0  0  0  0  0  0  0  0  0  0  0
   -7.2901   25.4377  -30.5292 H   0  0  0  0  0  0  0  0  0  0  0  0
   -5.7134   25.5587  -31.4205 H   0  0  0  0  0  0  0  0  0  0  0  0
   -6.6371   23.0015  -33.4708 H   0  0  0  0  0  0  0  0  0  0  0  0
   -5.3292   24.1767  -33.0451 H   0  0  0  0  0  0  0  0  0  0  0  0
   -3.8004   22.4703  -34.2669 H   0  0  0  0  0  0  0  0  0  0  0  0
   -2.1836   20.6350  -33.7278 H   0  0  0  0  0  0  0  0  0  0  0  0
   -2.4705   19.3078  -31.6247 H   0  0  0  0  0  0  0  0  0  0  0  0
   -4.3755   19.8282  -30.0913 H   0  0  0  0  0  0  0  0  0  0  0  0
   -9.4784   23.1080  -31.8092 H   0  0  0  0  0  0  0  0  0  0  0  0
  -10.1065   20.7876  -31.9858 H   0  0  0  0  0  0  0  0  0  0  0  0
   -7.2674   21.1026  -34.0296 H   0  0  0  0  0  0  0  0  0  0  0  0
   -5.6910   19.2829  -34.6777 H   0  0  0  0  0  0  0  0  0  0  0  0
   -4.9804   16.3668  -32.5887 H   0  0  0  0  0  0  0  0  0  0  0  0
   -5.9361   16.1053  -34.0871 H   0  0  0  0  0  0  0  0  0  0  0  0
   -4.5656   17.2666  -34.0871 H   0  0  0  0  0  0  0  0  0  0  0  0
   -7.1725   16.8410  -31.4219 H   0  0  0  0  0  0  0  0  0  0  0  0
   -8.7116   18.6840  -30.7391 H   0  0  0  0  0  0  0  0  0  0  0  0
  1  2  1  0
  2  3  1  0
  3  4  2  0
  4  5  1  0
  5  6  2  0
  6  7  1  0
  7  8  2  0
  8  9  1  0
  9 10  1  0
 10 11  1  0
 10 12  1  0
 12 13  2  0
 12 14  1  0
 14 15  1  0
 15 16  1  0
 16 17  1  0
 17 18  2  0
 18 19  1  0
 19 20  2  0
 20 21  1  0
 21 22  2  0
 15 23  1  0
 23 24  2  0
 23 25  1  0
 25 26  2  3
 26 27  1  0
 27 28  2  0
 28 29  1  0
 29 30  2  0
 30 31  1  0
 30 32  1  0
 32 33  2  0
  8  3  1  0
 22 17  1  0
 33 27  1  0
  1 34  1  0
  1 35  1  0
  1 36  1  0
  4 37  1  0
  5 38  1  0
  6 39  1  0
  7 40  1  0
  9 41  1  0
  9 42  1  0
 10 43  1  6
 11 44  1  0
 11 45  1  0
 11 46  1  0
 14 47  1  0
 14 48  1  0
 16 49  1  0
 16 50  1  0
 18 51  1  0
 19 52  1  0
 20 53  1  0
 21 54  1  0
 25 55  1  0
 26 56  1  0
 28 57  1  0
 29 58  1  0
 31 59  1  0
 31 60  1  0
 31 61  1  0
 32 62  1  0
 33 63  1  0
M  CHG  1  10   1
M  END
>  <UniqueID>  (36) 
34

>  <SMILES>  (36) 
COc1ccccc1C[N@@H+](C)C(=O)CN(Cc1ccccn1)C(=O)C=Cc1ccc(C)cc1

>  <Energy>  (36) 
82.45858757199827

>  <Genealogy>  (36) 
COc1ccccc1C[NH+](C)C(=O)CN(Cc1ccccn1)C(=O)C=Cc1ccc(C)cc1 (protonated)
COc1ccccc1C[N@@H+](C)C(=O)CN(Cc1ccccn1)C(=O)C=Cc1ccc(C)cc1 (chirality)
COc1ccccc1C[N@@H+](C)C(=O)CN(Cc1ccccn1)C(=O)C=Cc1ccc(C)cc1 (3D coordinates assigned)
COc1ccccc1C[N@@H+](C)C(=O)CN(Cc1ccccn1)C(=O)C=Cc1ccc(C)cc1 (optimized conformer: 82.45858757199827 kcal/mol)

>  <smiles>  (36) 
COc1ccccc1CN(C)C(=O)CN(Cc1ccccn1)C(=O)C=Cc1ccc(C)cc1

>  <score_type>  (36) 
oracle

>  <origin>  (36) 
adg

>  <m_score__min__energy>  (36) 
-9.4399999999999995

>  <m_primary>  (36) 
energy

$$$$
36:0
     RDKit          3D

 30 31  0  0  0  0  0  0  0  0999 V2000
   -6.4320   18.9330  -33.7730 C   0  0  0  0  0  0  0  0  0  0  0  0
   -7.2090   20.0490  -33.3500 O   0  0  0  0  0  0  0  0  0  0  0  0
   -6.6920   21.1610  -32.6680 C   0  0  0  0  0  0  0  0  0  0  0  0
   -5.3190   21.4770  -32.6690 C   0  0  0  0  0  0  0  0  0  0  0  0
   -4.8540   22.5970  -31.9750 C   0  0  0  0  0  0  0  0  0  0  0  0
   -5.7500   23.4160  -31.2740 C   0  0  0  0  0  0  0  0  0  0  0  0
   -5.1820   24.8430  -30.4110 S   0  0  0  0  0  0  0  0  0  0  0  0
   -5.6850   24.8280  -28.9950 O   0  0  0  0  0  0  0  0  0  0  0  0
   -5.7360   26.0590  -31.0960 O   0  0  0  0  0  0  0  0  0  0  0  0
   -3.4360   24.9160  -30.4580 N   0  0  0  0  0  0  0  0  0  0  0  0
   -2.7410   24.3610  -29.2830 C   0  0  1  0  0  0  0  0  0  0  0  0
   -2.3190   22.8920  -29.4680 C   0  0  0  0  0  0  0  0  0  0  0  0
   -0.7890   22.8520  -29.2740 C   0  0  0  0  0  0  0  0  0  0  0  0
   -0.3920   24.1780  -28.9670 O   0  0  0  0  0  0  0  0  0  0  0  0
   -1.4660   25.0380  -28.9560 C   0  0  0  0  0  0  0  0  0  0  0  0
   -1.3690   26.2510  -28.6350 O   0  0  0  0  0  0  0  0  0  0  0  0
   -7.1140   23.1030  -31.2720 C   0  0  0  0  0  0  0  0  0  0  0  0
   -7.5810   21.9820  -31.9650 C   0  0  0  0  0  0  0  0  0  0  0  0
   -6.0559   18.3929  -32.8916 H   0  0  0  0  0  0  0  0  0  0  0  0
   -7.0570   18.2589  -34.3771 H   0  0  0  0  0  0  0  0  0  0  0  0
   -5.5829   19.2853  -34.3771 H   0  0  0  0  0  0  0  0  0  0  0  0
   -4.6104   20.8396  -33.2182 H   0  0  0  0  0  0  0  0  0  0  0  0
   -3.7805   22.8370  -31.9787 H   0  0  0  0  0  0  0  0  0  0  0  0
   -3.4941   24.4973  -28.4929 H   0  0  0  0  0  0  0  0  0  0  0  0
   -2.8144   22.2564  -28.7192 H   0  0  0  0  0  0  0  0  0  0  0  0
   -2.6055   22.5163  -30.4614 H   0  0  0  0  0  0  0  0  0  0  0  0
   -0.5275   22.1751  -28.4473 H   0  0  0  0  0  0  0  0  0  0  0  0
   -0.2811   22.4814  -30.1766 H   0  0  0  0  0  0  0  0  0  0  0  0
   -7.8217   23.7415  -30.7229 H   0  0  0  0  0  0  0  0  0  0  0  0
   -8.6548   21.7437  -31.9576 H   0  0  0  0  0  0  0  0  0  0  0  0
  1  2  1  0
  2  3  1  0
  3  4  2  0
  4  5  1  0
  5  6  2  0
  6  7  1  0
  7  8  2  0
  7  9  2  0
  7 10  1  0
 10 11  1  0
 11 12  1  0
 12 13  1  0
 13 14  1  0
 14 15  1  0
 15 16  2  0
  6 17  1  0
 17 18  2  0
 18  3  1  0
 15 11  1  0
  1 19  1  0
  1 20  1  0
  1 21  1  0
  4 22  1  0
  5 23  1  0
 11 24  1  1
 12 25  1  0
 12 26  1  0
 13 27  1  0
 13 28  1  0
 17 29  1  0
 18 30  1  0
M  CHG  1  10  -1
M  END
>  <UniqueID>  (37) 
35

>  <SMILES>  (37) 
COc1ccc(S(=O)(=O)[N-][C@H]2CCOC2=O)cc1

>  <Energy>  (37) 
41.183059903450825

>  <Genealogy>  (37) 
COc1ccc(S(=O)(=O)[N-]C2CCOC2=O)cc1 (protonated)
COc1ccc(S(=O)(=O)[N-][C@H]2CCOC2=O)cc1 (chirality)
COc1ccc(S(=O)(=O)[N-][C@H]2CCOC2=O)cc1 (3D coordinates assigned)
COc1ccc(S(=O)(=O)[N-][C@H]2CCOC2=O)cc1 (nonaromatic ring conformer: 41.183059903450825 kcal/mol)

>  <smiles>  (37) 
COc1ccc(S(=O)(=O)NC2CCOC2=O)cc1

>  <score_type>  (37) 
oracle

>  <origin>  (37) 
adg

>  <m_score__min__energy>  (37) 
-8.1999999999999993

>  <m_primary>  (37) 
energy

$$$$
37:0
     RDKit          3D

 46 48  0  0  0  0  0  0  0  0999 V2000
   -6.4830   19.6700  -33.4470 C   0  0  0  0  0  0  0  0  0  0  0  0
   -7.1130   20.0160  -32.1220 C   0  0  0  0  0  0  0  0  0  0  0  0
   -8.5970   20.2120  -32.3490 C   0  0  0  0  0  0  0  0  0  0  0  0
   -8.9100   21.5870  -32.1070 N   0  0  0  0  0  0  0  0  0  0  0  0
   -7.9750   22.4050  -31.7910 C   0  0  0  0  0  0  0  0  0  0  0  0
   -7.8430   22.6870  -30.4680 N   0  0  0  0  0  0  0  0  0  0  0  0
   -6.8880   23.5350  -30.0540 C   0  0  0  0  0  0  0  0  0  0  0  0
   -6.0060   24.1580  -30.9120 C   0  0  0  0  0  0  0  0  0  0  0  0
   -4.9490   25.0920  -30.4750 C   0  0  0  0  0  0  0  0  0  0  0  0
   -3.6490   24.4730  -30.3460 N   0  0  0  0  0  0  0  0  0  0  0  0
   -3.5710   23.1900  -30.9680 C   0  0  0  0  0  0  0  0  0  0  0  0
   -2.5380   22.2870  -30.3300 C   0  0  0  0  0  0  0  0  0  0  0  0
   -2.8300   22.1480  -28.9110 N   0  0  0  0  0  0  0  0  0  0  0  0
   -2.3740   21.0430  -28.1790 C   0  0  0  0  0  0  0  0  0  0  0  0
   -1.0780   20.6810  -28.2860 N   0  0  0  0  0  0  0  0  0  0  0  0
   -0.6110   19.6080  -27.5830 C   0  0  0  0  0  0  0  0  0  0  0  0
   -1.5150   18.9230  -26.7690 C   0  0  0  0  0  0  0  0  0  0  0  0
   -2.8380   19.2990  -26.6640 C   0  0  0  0  0  0  0  0  0  0  0  0
   -3.2330   20.3730  -27.3900 N   0  0  0  0  0  0  0  0  0  0  0  0
   -3.6150   23.2080  -28.3000 C   0  0  0  0  0  0  0  0  0  0  0  0
   -3.2200   24.4960  -28.9850 C   0  0  0  0  0  0  0  0  0  0  0  0
   -6.1650   23.8500  -32.2670 C   0  0  0  0  0  0  0  0  0  0  0  0
   -7.1420   22.9850  -32.6710 N   0  0  0  0  0  0  0  0  0  0  0  0
   -5.5307   19.1470  -33.2748 H   0  0  0  0  0  0  0  0  0  0  0  0
   -7.1616   19.0180  -34.0166 H   0  0  0  0  0  0  0  0  0  0  0  0
   -6.2969   20.5925  -34.0166 H   0  0  0  0  0  0  0  0  0  0  0  0
   -6.9495   19.1976  -31.4054 H   0  0  0  0  0  0  0  0  0  0  0  0
   -6.6639   20.9326  -31.7121 H   0  0  0  0  0  0  0  0  0  0  0  0
   -8.8527   19.9491  -33.3861 H   0  0  0  0  0  0  0  0  0  0  0  0
   -9.1731   19.5666  -31.6697 H   0  0  0  0  0  0  0  0  0  0  0  0
   -6.8049   23.7432  -28.9771 H   0  0  0  0  0  0  0  0  0  0  0  0
   -4.8759   25.9047  -31.2127 H   0  0  0  0  0  0  0  0  0  0  0  0
   -5.2332   25.4580  -29.4774 H   0  0  0  0  0  0  0  0  0  0  0  0
   -4.5551   22.7041  -30.8944 H   0  0  0  0  0  0  0  0  0  0  0  0
   -3.2693   23.3485  -32.0139 H   0  0  0  0  0  0  0  0  0  0  0  0
   -2.5685   21.2977  -30.8099 H   0  0  0  0  0  0  0  0  0  0  0  0
   -1.5370   22.7245  -30.4587 H   0  0  0  0  0  0  0  0  0  0  0  0
    0.4408   19.2941  -27.6554 H   0  0  0  0  0  0  0  0  0  0  0  0
   -1.1608   18.0555  -26.1928 H   0  0  0  0  0  0  0  0  0  0  0  0
   -3.5413   18.7513  -26.0195 H   0  0  0  0  0  0  0  0  0  0  0  0
   -4.6883   23.0158  -28.4452 H   0  0  0  0  0  0  0  0  0  0  0  0
   -3.4273   23.2636  -27.2176 H   0  0  0  0  0  0  0  0  0  0  0  0
   -3.6925   25.3441  -28.4678 H   0  0  0  0  0  0  0  0  0  0  0  0
   -2.1258   24.6034  -28.9517 H   0  0  0  0  0  0  0  0  0  0  0  0
   -5.4984   24.3077  -33.0128 H   0  0  0  0  0  0  0  0  0  0  0  0
   -7.2360   22.7740  -33.6800 H   0  0  0  0  0  0  0  0  0  0  0  0
  1  2  1  0
  2  3  1  0
  3  4  1  0
  4  5  2  3
  5  6  1  0
  6  7  2  0
  7  8  1  0
  8  9  1  0
  9 10  1  0
 10 11  1  0
 11 12  1  0
 12 13  1  0
 13 14  1  0
 14 15  2  0
 15 16  1  0
 16 17  2  0
 17 18  1  0
 18 19  2  0
 13 20  1  0
 20 21  1  0
  8 22  2  0
 22 23  1  0
 23  5  1  0
 21 10  1  0
 19 14  1  0
  1 24  1  0
  1 25  1  0
  1 26  1  0
  2 27  1  0
  2 28  1  0
  3 29  1  0
  3 30  1  0
  7 31  1  0
  9 32  1  0
  9 33  1  0
 11 34  1  0
 11 35  1  0
 12 36  1  0
 12 37  1  0
 16 38  1  0
 17 39  1  0
 18 40  1  0
 20 41  1  0
 20 42  1  0
 21 43  1  0
 21 44  1  0
 22 45  1  0
 23 46  1  0
M  END
>  <smiles>  (38) 
CCCN=c1ncc(CN2CCN(c3ncccn3)CC2)c[nH]1

>  <score_type>  (38) 
oracle

>  <origin>  (38) 
adg

>  <m_score__min__energy>  (38) 
-7.5599999999999996

>  <m_primary>  (38) 
energy

$$$$
38:0
     RDKit          3D

 70 69  0  0  0  0  0  0  0  0999 V2000
   -4.6390   19.1960  -33.6160 C   0  0  0  0  0  0  0  0  0  0  0  0
   -6.0400   18.9720  -34.1790 C   0  0  0  0  0  0  0  0  0  0  0  0
   -6.5400   17.5530  -33.8740 C   0  0  0  0  0  0  0  0  0  0  0  0
   -6.5560   17.2850  -32.3620 C   0  0  0  0  0  0  0  0  0  0  0  0
   -7.2870   18.3840  -31.5670 C   0  0  0  0  0  0  0  0  0  0  0  0
   -8.7830   18.5420  -31.9000 C   0  0  0  0  0  0  0  0  0  0  0  0
   -9.0900   19.8410  -32.6620 C   0  0  0  0  0  0  0  0  0  0  0  0
   -9.4860   21.0000  -31.7300 C   0  0  0  0  0  0  0  0  0  0  0  0
   -8.3670   22.0430  -31.5610 C   0  0  0  0  0  0  0  0  0  0  0  0
   -7.0990   21.6940  -32.3640 C   0  0  0  0  0  0  0  0  0  0  0  0
   -5.7760   21.7410  -31.5700 C   0  0  0  0  0  0  0  0  0  0  0  0
   -4.9750   23.0530  -31.7050 C   0  0  0  0  0  0  0  0  0  0  0  0
   -5.8210   24.3350  -31.5850 C   0  0  0  0  0  0  0  0  0  0  0  0
   -5.3000   25.2800  -30.4940 C   0  0  0  0  0  0  0  0  0  0  0  0
   -3.8750   25.2540  -30.4370 O   0  0  0  0  0  0  0  0  0  0  0  0
   -3.1530   24.5500  -29.4640 C   0  0  0  0  0  0  0  0  0  0  0  0
   -1.8970   24.6200  -29.4140 O   0  0  0  0  0  0  0  0  0  0  0  0
   -3.8960   23.7240  -28.4540 C   0  0  0  0  0  0  0  0  0  0  0  0
   -3.0000   22.8150  -27.7230 N   0  0  0  0  0  0  0  0  0  0  0  0
   -3.2700   21.3930  -28.0040 C   0  0  0  0  0  0  0  0  0  0  0  0
   -2.3950   20.9170  -29.1700 C   0  0  0  0  0  0  0  0  0  0  0  0
   -1.6480   22.0390  -29.7700 N   0  0  0  0  0  0  0  0  0  0  0  0
   -0.6610   21.5820  -30.7660 C   0  0  0  0  0  0  0  0  0  0  0  0
   -1.2810   20.7040  -31.8730 C   0  0  0  0  0  0  0  0  0  0  0  0
   -2.2020   21.4960  -32.8010 C   0  0  0  0  0  0  0  0  0  0  0  0
   -4.6802   19.1894  -32.5168 H   0  0  0  0  0  0  0  0  0  0  0  0
   -3.9718   18.3931  -33.9627 H   0  0  0  0  0  0  0  0  0  0  0  0
   -4.2554   20.1669  -33.9627 H   0  0  0  0  0  0  0  0  0  0  0  0
   -6.7292   19.7003  -33.7267 H   0  0  0  0  0  0  0  0  0  0  0  0
   -6.0016   19.1008  -35.2708 H   0  0  0  0  0  0  0  0  0  0  0  0
   -7.5599   17.4387  -34.2698 H   0  0  0  0  0  0  0  0  0  0  0  0
   -5.8577   16.8327  -34.3491 H   0  0  0  0  0  0  0  0  0  0  0  0
   -7.0618   16.3251  -32.1808 H   0  0  0  0  0  0  0  0  0  0  0  0
   -5.5112   17.2679  -32.0183 H   0  0  0  0  0  0  0  0  0  0  0  0
   -7.1988   18.1469  -30.4965 H   0  0  0  0  0  0  0  0  0  0  0  0
   -6.8080   19.3346  -31.8444 H   0  0  0  0  0  0  0  0  0  0  0  0
   -9.0972   17.6888  -32.5191 H   0  0  0  0  0  0  0  0  0  0  0  0
   -9.3320   18.5793  -30.9475 H   0  0  0  0  0  0  0  0  0  0  0  0
   -8.1946   20.1360  -33.2287 H   0  0  0  0  0  0  0  0  0  0  0  0
   -9.9452   19.6420  -33.3246 H   0  0  0  0  0  0  0  0  0  0  0  0
  -10.3715   21.5003  -32.1491 H   0  0  0  0  0  0  0  0  0  0  0  0
   -9.6890   20.5706  -30.7378 H   0  0  0  0  0  0  0  0  0  0  0  0
   -8.7418   23.0191  -31.9027 H   0  0  0  0  0  0  0  0  0  0  0  0
   -8.0901   22.0621  -30.4966 H   0  0  0  0  0  0  0  0  0  0  0  0
   -7.2194   20.6756  -32.7620 H   0  0  0  0  0  0  0  0  0  0  0  0
   -7.0120   22.4666  -33.1421 H   0  0  0  0  0  0  0  0  0  0  0  0
   -6.0125   21.5946  -30.5057 H   0  0  0  0  0  0  0  0  0  0  0  0
   -5.1388   20.9496  -31.9914 H   0  0  0  0  0  0  0  0  0  0  0  0
   -4.2102   23.0712  -30.9146 H   0  0  0  0  0  0  0  0  0  0  0  0
   -4.5474   23.0549  -32.7185 H   0  0  0  0  0  0  0  0  0  0  0  0
   -5.8002   24.8635  -32.5495 H   0  0  0  0  0  0  0  0  0  0  0  0
   -6.8437   24.0373  -31.3103 H   0  0  0  0  0  0  0  0  0  0  0  0
   -5.6331   26.3046  -30.7157 H   0  0  0  0  0  0  0  0  0  0  0  0
   -5.6970   24.9490  -29.5230 H   0  0  0  0  0  0  0  0  0  0  0  0
   -4.3843   24.3972  -27.7340 H   0  0  0  0  0  0  0  0  0  0  0  0
   -4.6367   23.1135  -28.9913 H   0  0  0  0  0  0  0  0  0  0  0  0
   -2.0020   23.0410  -27.9540 H   0  0  0  0  0  0  0  0  0  0  0  0
   -3.0428   20.7947  -27.1093 H   0  0  0  0  0  0  0  0  0  0  0  0
   -4.3297   21.2714  -28.2728 H   0  0  0  0  0  0  0  0  0  0  0  0
   -1.6801   20.1676  -28.7994 H   0  0  0  0  0  0  0  0  0  0  0  0
   -3.0485   20.4823  -29.9407 H   0  0  0  0  0  0  0  0  0  0  0  0
   -1.1850   22.5980  -29.0170 H   0  0  0  0  0  0  0  0  0  0  0  0
   -2.3270   22.6670  -30.2630 H   0  0  0  0  0  0  0  0  0  0  0  0
   -0.2023   22.4649  -31.2351 H   0  0  0  0  0  0  0  0  0  0  0  0
    0.0800   20.9663  -30.2352 H   0  0  0  0  0  0  0  0  0  0  0  0
   -0.4690   20.2656  -32.4718 H   0  0  0  0  0  0  0  0  0  0  0  0
   -1.8871   19.9274  -31.3836 H   0  0  0  0  0  0  0  0  0  0  0  0
   -2.9003   22.0965  -32.1995 H   0  0  0  0  0  0  0  0  0  0  0  0
   -1.5986   22.1617  -33.4357 H   0  0  0  0  0  0  0  0  0  0  0  0
   -2.7698   20.7997  -33.4357 H   0  0  0  0  0  0  0  0  0  0  0  0
  1  2  1  0
  2  3  1  0
  3  4  1  0
  4  5  1  0
  5  6  1  0
  6  7  1  0
  7  8  1  0
  8  9  1  0
  9 10  1  0
 10 11  1  0
 11 12  1  0
 12 13  1  0
 13 14  1  0
 14 15  1  0
 15 16  1  0
 16 17  2  0
 16 18  1  0
 18 19  1  0
 19 20  1  0
 20 21  1  0
 21 22  1  0
 22 23  1  0
 23 24  1  0
 24 25  1  0
  1 26  1  0
  1 27  1  0
  1 28  1  0
  2 29  1  0
  2 30  1  0
  3 31  1  0
  3 32  1  0
  4 33  1  0
  4 34  1  0
  5 35  1  0
  5 36  1  0
  6 37  1  0
  6 38  1  0
  7 39  1  0
  7 40  1  0
  8 41  1  0
  8 42  1  0
  9 43  1  0
  9 44  1  0
 10 45  1  0
 10 46  1  0
 11 47  1  0
 11 48  1  0
 12 49  1  0
 12 50  1  0
 13 51  1  0
 13 52  1  0
 14 53  1  0
 14 54  1  0
 18 55  1  0
 18 56  1  0
 19 57  1  0
 20 58  1  0
 20 59  1  0
 21 60  1  0
 21 61  1  0
 22 62  1  0
 22 63  1  0
 23 64  1  0
 23 65  1  0
 24 66  1  0
 24 67  1  0
 25 68  1  0
 25 69  1  0
 25 70  1  0
M  CHG  1  22   1
M  END
>  <UniqueID>  (39) 
36

>  <SMILES>  (39) 
CCCCCCCCCCCCCCOC(=O)CNCC[NH2+]CCC

>  <Energy>  (39) 
39.39770760656121

>  <Genealogy>  (39) 
CCCCCCCCCCCCCCOC(=O)CNCC[NH2+]CCC (protonated)
CCCCCCCCCCCCCCOC(=O)CNCC[NH2+]CCC (3D coordinates assigned)
CCCCCCCCCCCCCCOC(=O)CNCC[NH2+]CCC (optimized conformer: 39.39770760656121 kcal/mol)

>  <smiles>  (39) 
CCCCCCCCCCCCCCOC(=O)CNCCNCCC

>  <score_type>  (39) 
oracle

>  <origin>  (39) 
adg

>  <m_score__min__energy>  (39) 
-7.0800000000000001

>  <m_primary>  (39) 
energy

$$$$
39:0
     RDKit          3D

 36 38  0  0  0  0  0  0  0  0999 V2000
   -7.2080   18.6190  -31.6020 C   0  0  0  0  0  0  0  0  0  0  0  0
   -7.7500   20.0140  -31.7460 C   0  0  0  0  0  0  0  0  0  0  0  0
   -9.1020   20.2590  -31.4680 C   0  0  0  0  0  0  0  0  0  0  0  0
   -9.6200   21.5500  -31.5760 C   0  0  0  0  0  0  0  0  0  0  0  0
   -8.7810   22.5900  -31.9710 C   0  0  0  0  0  0  0  0  0  0  0  0
   -7.4780   22.3410  -32.2630 N   0  0  0  0  0  0  0  0  0  0  0  0
   -6.9450   21.0910  -32.1800 C   0  0  0  0  0  0  0  0  0  0  0  0
   -5.5630   20.9030  -32.5240 N   0  0  0  0  0  0  0  0  0  0  0  0
   -5.0830   20.0660  -33.4690 C   0  0  0  0  0  0  0  0  0  0  0  0
   -5.9330   19.1540  -34.2960 C   0  0  0  0  0  0  0  0  0  0  0  0
   -3.7440   20.1550  -33.6190 N   0  0  0  0  0  0  0  0  0  0  0  0
   -3.3710   21.0870  -32.7190 C   0  0  0  0  0  0  0  0  0  0  0  0
   -1.9540   21.5260  -32.5290 C   0  0  0  0  0  0  0  0  0  0  0  0
   -4.4820   21.5510  -32.0360 C   0  0  0  0  0  0  0  0  0  0  0  0
   -4.4890   22.5720  -30.9640 C   0  0  0  0  0  0  0  0  0  0  0  0
   -4.1350   22.2480  -29.6440 C   0  0  0  0  0  0  0  0  0  0  0  0
   -4.1660   23.2390  -28.6620 C   0  0  0  0  0  0  0  0  0  0  0  0
   -4.5370   24.5410  -28.9990 C   0  0  0  0  0  0  0  0  0  0  0  0
   -4.8700   24.8350  -30.3220 C   0  0  0  0  0  0  0  0  0  0  0  0
   -4.8370   23.8550  -31.2640 N   0  0  0  0  0  0  0  0  0  0  0  0
   -7.1118   18.3714  -30.5346 H   0  0  0  0  0  0  0  0  0  0  0  0
   -7.8950   17.9072  -32.0830 H   0  0  0  0  0  0  0  0  0  0  0  0
   -6.2207   18.5578  -32.0830 H   0  0  0  0  0  0  0  0  0  0  0  0
   -9.7574   19.4297  -31.1634 H   0  0  0  0  0  0  0  0  0  0  0  0
  -10.6792   21.7447  -31.3518 H   0  0  0  0  0  0  0  0  0  0  0  0
   -9.1745   23.6144  -32.0465 H   0  0  0  0  0  0  0  0  0  0  0  0
   -6.5322   18.5111  -33.6345 H   0  0  0  0  0  0  0  0  0  0  0  0
   -6.6029   19.7525  -34.9308 H   0  0  0  0  0  0  0  0  0  0  0  0
   -5.2889   18.5278  -34.9308 H   0  0  0  0  0  0  0  0  0  0  0  0
   -1.7325   21.5946  -31.4537 H   0  0  0  0  0  0  0  0  0  0  0  0
   -1.2779   20.7952  -32.9968 H   0  0  0  0  0  0  0  0  0  0  0  0
   -1.8095   22.5110  -32.9968 H   0  0  0  0  0  0  0  0  0  0  0  0
   -3.8357   21.2213  -29.3863 H   0  0  0  0  0  0  0  0  0  0  0  0
   -3.8983   22.9939  -27.6236 H   0  0  0  0  0  0  0  0  0  0  0  0
   -4.5667   25.3273  -28.2303 H   0  0  0  0  0  0  0  0  0  0  0  0
   -5.1589   25.8586  -30.6025 H   0  0  0  0  0  0  0  0  0  0  0  0
  1  2  1  0
  2  3  2  0
  3  4  1  0
  4  5  2  0
  5  6  1  0
  6  7  2  0
  7  8  1  0
  8  9  1  0
  9 10  1  0
  9 11  2  0
 11 12  1  0
 12 13  1  0
 12 14  2  0
 14 15  1  0
 15 16  2  0
 16 17  1  0
 17 18  2  0
 18 19  1  0
 19 20  2  0
  7  2  1  0
 14  8  1  0
 20 15  1  0
  1 21  1  0
  1 22  1  0
  1 23  1  0
  3 24  1  0
  4 25  1  0
  5 26  1  0
 10 27  1  0
 10 28  1  0
 10 29  1  0
 13 30  1  0
 13 31  1  0
 13 32  1  0
 16 33  1  0
 17 34  1  0
 18 35  1  0
 19 36  1  0
M  END
>  <UniqueID>  (40) 
37

>  <SMILES>  (40) 
Cc1cccnc1-n1c(C)nc(C)c1-c1ccccn1

>  <Energy>  (40) 
76.87318852123366

>  <Genealogy>  (40) 
Cc1cccnc1-n1c(C)nc(C)c1-c1ccccn1 (3D coordinates assigned)
Cc1cccnc1-n1c(C)nc(C)c1-c1ccccn1 (optimized conformer: 76.87318852123366 kcal/mol)

>  <smiles>  (40) 
Cc1cccnc1-n1c(C)nc(C)c1-c1ccccn1

>  <score_type>  (40) 
oracle

>  <origin>  (40) 
adg

>  <m_score__min__energy>  (40) 
-7.4299999999999997

>  <m_primary>  (40) 
energy

$$$$
40:0
     RDKit          3D

 38 40  0  0  0  0  0  0  0  0999 V2000
   -5.0020   18.1100  -34.8330 C   0  0  0  0  0  0  0  0  0  0  0  0
   -6.0330   18.5090  -33.8210 C   0  0  0  0  0  0  0  0  0  0  0  0
   -6.8580   17.5210  -33.2210 C   0  0  0  0  0  0  0  0  0  0  0  0
   -7.8520   17.8820  -32.2930 C   0  0  0  0  0  0  0  0  0  0  0  0
   -8.0020   19.2340  -32.0010 C   0  0  0  0  0  0  0  0  0  0  0  0
   -8.8390   19.8040  -31.1680 O   0  0  0  0  0  0  0  0  0  0  0  0
   -8.5860   21.0990  -31.2410 C   0  0  0  0  0  0  0  0  0  0  0  0
   -9.1940   21.9620  -30.5540 O   0  0  0  0  0  0  0  0  0  0  0  0
   -7.5990   21.3990  -32.1220 N   0  0  0  0  0  0  0  0  0  0  0  0
   -7.0080   22.7090  -32.4000 C   0  0  0  0  0  0  0  0  0  0  0  0
   -5.5850   22.7740  -31.8410 C   0  0  0  0  0  0  0  0  0  0  0  0
   -5.6200   23.1100  -30.4000 N   0  0  0  0  0  0  0  0  0  0  0  0
   -6.2260   24.4330  -30.1490 C   0  0  0  0  0  0  0  0  0  0  0  0
   -5.3110   25.5850  -30.6210 C   0  0  0  0  0  0  0  0  0  0  0  0
   -3.8740   25.2970  -30.4660 N   0  0  0  0  0  0  0  0  0  0  0  0
   -3.6150   24.3060  -29.4160 C   0  0  0  0  0  0  0  0  0  0  0  0
   -4.3000   22.9600  -29.7360 C   0  0  0  0  0  0  0  0  0  0  0  0
   -7.2270   20.1940  -32.5910 C   0  0  0  0  0  0  0  0  0  0  0  0
   -6.2280   19.8730  -33.5110 C   0  0  0  0  0  0  0  0  0  0  0  0
   -4.0967   17.7596  -34.3156 H   0  0  0  0  0  0  0  0  0  0  0  0
   -5.4005   17.3011  -35.4631 H   0  0  0  0  0  0  0  0  0  0  0  0
   -4.7521   18.9764  -35.4631 H   0  0  0  0  0  0  0  0  0  0  0  0
   -6.7184   16.4622  -33.4846 H   0  0  0  0  0  0  0  0  0  0  0  0
   -8.4880   17.1222  -31.8153 H   0  0  0  0  0  0  0  0  0  0  0  0
   -6.9793   22.8717  -33.4875 H   0  0  0  0  0  0  0  0  0  0  0  0
   -7.6187   23.4882  -31.9206 H   0  0  0  0  0  0  0  0  0  0  0  0
   -5.0963   21.7977  -31.9753 H   0  0  0  0  0  0  0  0  0  0  0  0
   -5.0219   23.5512  -32.3785 H   0  0  0  0  0  0  0  0  0  0  0  0
   -7.1823   24.4943  -30.6892 H   0  0  0  0  0  0  0  0  0  0  0  0
   -6.3755   24.5391  -29.0644 H   0  0  0  0  0  0  0  0  0  0  0  0
   -5.5145   25.7775  -31.6847 H   0  0  0  0  0  0  0  0  0  0  0  0
   -5.5360   26.4562  -29.9882 H   0  0  0  0  0  0  0  0  0  0  0  0
   -3.4920   24.9330  -31.3690 H   0  0  0  0  0  0  0  0  0  0  0  0
   -2.5298   24.1456  -29.3341 H   0  0  0  0  0  0  0  0  0  0  0  0
   -4.0237   24.6878  -28.4688 H   0  0  0  0  0  0  0  0  0  0  0  0
   -3.6399   22.3826  -30.4000 H   0  0  0  0  0  0  0  0  0  0  0  0
   -4.4763   22.4507  -28.7771 H   0  0  0  0  0  0  0  0  0  0  0  0
   -5.6132   20.6559  -33.9790 H   0  0  0  0  0  0  0  0  0  0  0  0
  1  2  1  0
  2  3  2  0
  3  4  1  0
  4  5  2  0
  5  6  1  0
  6  7  1  0
  7  8  2  0
  7  9  1  0
  9 10  1  0
 10 11  1  0
 11 12  1  0
 12 13  1  0
 13 14  1  0
 14 15  1  0
 15 16  1  0
 16 17  1  0
  9 18  1  0
 18 19  2  0
 19  2  1  0
 18  5  1  0
 17 12  1  0
  1 20  1  0
  1 21  1  0
  1 22  1  0
  3 23  1  0
  4 24  1  0
 10 25  1  0
 10 26  1  0
 11 27  1  0
 11 28  1  0
 13 29  1  0
 13 30  1  0
 14 31  1  0
 14 32  1  0
 15 33  1  0
 16 34  1  0
 16 35  1  0
 17 36  1  0
 17 37  1  0
 19 38  1  0
M  END
>  <UniqueID>  (41) 
38

>  <SMILES>  (41) 
Cc1ccc2oc(=O)n(CCN3CCNCC3)c2c1

>  <Energy>  (41) 
87.88953692413781

>  <Genealogy>  (41) 
Cc1ccc2oc(=O)n(CCN3CCNCC3)c2c1 (3D coordinates assigned)
Cc1ccc2oc(=O)n(CCN3CCNCC3)c2c1 (nonaromatic ring conformer: 87.88953692413781 kcal/mol)

>  <smiles>  (41) 
Cc1ccc2oc(=O)n(CCN3CCNCC3)c2c1

>  <score_type>  (41) 
oracle

>  <origin>  (41) 
adg

>  <m_score__min__energy>  (41) 
-8.2100000000000009

>  <m_primary>  (41) 
energy

$$$$
41:0
     RDKit          3D

 31 31  0  0  0  0  0  0  0  0999 V2000
   -6.5460   25.6720  -29.3510 C   0  0  0  0  0  0  0  0  0  0  0  0
   -6.8930   24.3940  -30.1260 C   0  0  0  0  0  0  0  0  0  0  0  0
   -5.9320   24.0940  -31.2180 N   0  0  1  0  0  0  0  0  0  0  0  0
   -4.8220   23.1860  -30.8070 C   0  0  0  0  0  0  0  0  0  0  0  0
   -3.4880   23.8900  -30.4840 C   0  0  0  0  0  0  0  0  0  0  0  0
   -3.6190   25.2700  -30.6840 O   0  0  0  0  0  0  0  0  0  0  0  0
   -6.6730   23.6060  -32.4100 C   0  0  0  0  0  0  0  0  0  0  0  0
   -7.2940   22.2450  -32.1930 C   0  0  0  0  0  0  0  0  0  0  0  0
   -8.5510   22.1250  -31.5770 C   0  0  0  0  0  0  0  0  0  0  0  0
   -9.1120   20.8620  -31.3610 C   0  0  0  0  0  0  0  0  0  0  0  0
   -8.4240   19.7130  -31.7600 C   0  0  0  0  0  0  0  0  0  0  0  0
   -7.1740   19.8240  -32.3740 C   0  0  0  0  0  0  0  0  0  0  0  0
   -6.6090   21.0840  -32.5900 C   0  0  0  0  0  0  0  0  0  0  0  0
   -6.6003   25.4719  -28.2707 H   0  0  0  0  0  0  0  0  0  0  0  0
   -5.5277   25.9948  -29.6133 H   0  0  0  0  0  0  0  0  0  0  0  0
   -7.2612   26.4655  -29.6133 H   0  0  0  0  0  0  0  0  0  0  0  0
   -6.8979   23.5486  -29.4223 H   0  0  0  0  0  0  0  0  0  0  0  0
   -7.8779   24.5500  -30.5904 H   0  0  0  0  0  0  0  0  0  0  0  0
   -5.4900   25.0070  -31.4870 H   0  0  0  0  0  0  0  0  0  0  0  0
   -5.1444   22.6379  -29.9094 H   0  0  0  0  0  0  0  0  0  0  0  0
   -4.6236   22.5336  -31.6701 H   0  0  0  0  0  0  0  0  0  0  0  0
   -3.2179   23.6971  -29.4353 H   0  0  0  0  0  0  0  0  0  0  0  0
   -2.7018   23.5000  -31.1471 H   0  0  0  0  0  0  0  0  0  0  0  0
   -3.2650   25.4610  -31.5920 H   0  0  0  0  0  0  0  0  0  0  0  0
   -7.4722   24.3240  -32.6460 H   0  0  0  0  0  0  0  0  0  0  0  0
   -5.9518   23.5147  -33.2356 H   0  0  0  0  0  0  0  0  0  0  0  0
   -9.0960   23.0276  -31.2634 H   0  0  0  0  0  0  0  0  0  0  0  0
  -10.0956   20.7731  -30.8766 H   0  0  0  0  0  0  0  0  0  0  0  0
   -8.8669   18.7205  -31.5905 H   0  0  0  0  0  0  0  0  0  0  0  0
   -6.6338   18.9186  -32.6878 H   0  0  0  0  0  0  0  0  0  0  0  0
   -5.6241   21.1672  -33.0727 H   0  0  0  0  0  0  0  0  0  0  0  0
  1  2  1  0
  2  3  1  0
  3  4  1  0
  4  5  1  0
  5  6  1  0
  3  7  1  0
  7  8  1  0
  8  9  2  0
  9 10  1  0
 10 11  2  0
 11 12  1  0
 12 13  2  0
 13  8  1  0
  1 14  1  0
  1 15  1  0
  1 16  1  0
  2 17  1  0
  2 18  1  0
  3 19  1  6
  4 20  1  0
  4 21  1  0
  5 22  1  0
  5 23  1  0
  6 24  1  0
  7 25  1  0
  7 26  1  0
  9 27  1  0
 10 28  1  0
 11 29  1  0
 12 30  1  0
 13 31  1  0
M  CHG  1   3   1
M  END
>  <UniqueID>  (42) 
39

>  <SMILES>  (42) 
CC[N@@H+](CCO)Cc1ccccc1

>  <Energy>  (42) 
31.896250849822202

>  <Genealogy>  (42) 
CC[NH+](CCO)Cc1ccccc1 (protonated)
CC[N@@H+](CCO)Cc1ccccc1 (chirality)
CC[N@@H+](CCO)Cc1ccccc1 (3D coordinates assigned)
CC[N@@H+](CCO)Cc1ccccc1 (optimized conformer: 31.896250849822202 kcal/mol)

>  <smiles>  (42) 
CCN(CCO)Cc1ccccc1

>  <score_type>  (42) 
oracle

>  <origin>  (42) 
adg

>  <m_score__min__energy>  (42) 
-5.4699999999999998

>  <m_primary>  (42) 
energy

$$$$
42:0
     RDKit          3D

 41 44  0  0  1  0  0  0  0  0999 V2000
   -5.5870   25.4770  -30.4430 C   0  0  0  0  0  0  0  0  0  0  0  0
   -5.0330   24.4990  -31.2990 O   0  0  0  0  0  0  0  0  0  0  0  0
   -5.7520   23.3480  -31.5900 C   0  0  0  0  0  0  0  0  0  0  0  0
   -7.1230   23.2920  -31.4850 C   0  0  0  0  0  0  0  0  0  0  0  0
   -7.7310   22.1020  -31.7980 C   0  0  0  0  0  0  0  0  0  0  0  0
   -9.0990   22.0440  -31.6940 C   0  0  0  0  0  0  0  0  0  0  0  0
   -9.8320   20.9030  -31.9800 C   0  0  0  0  0  0  0  0  0  0  0  0
   -9.1430   19.7720  -32.3890 C   0  0  0  0  0  0  0  0  0  0  0  0
   -7.7670   19.7880  -32.5060 C   0  0  0  0  0  0  0  0  0  0  0  0
   -7.0780   20.9680  -32.2040 C   0  0  0  0  0  0  0  0  0  0  0  0
   -5.7070   21.0270  -32.3070 C   0  0  0  0  0  0  0  0  0  0  0  0
   -5.0610   22.2010  -32.0030 C   0  0  0  0  0  0  0  0  0  0  0  0
   -3.5360   22.3180  -32.0870 C   0  0  0  0  0  0  0  0  0  0  0  0
   -3.1970   21.9840  -30.7570 N   0  0  0  0  0  0  0  0  0  0  0  0
   -2.7390   22.7150  -29.8680 C   0  0  0  0  0  0  0  0  0  0  0  0
   -2.7460   24.0520  -30.0840 N   0  0  0  0  0  0  0  0  0  0  0  0
   -2.2880   24.9230  -29.1990 N   0  0  0  0  0  0  0  0  0  0  0  0
   -1.7800   24.5140  -28.0140 C   0  0  0  0  0  0  0  0  0  0  0  0
   -1.1660   25.6360  -26.8190 Cl  0  0  0  0  0  0  0  0  0  0  0  0
   -1.7710   23.1540  -27.7910 C   0  0  0  0  0  0  0  0  0  0  0  0
   -1.2480   22.7460  -26.5750 C   0  0  0  0  0  0  0  0  0  0  0  0
   -1.2380   21.3880  -26.3560 C   0  0  0  0  0  0  0  0  0  0  0  0
   -1.6950   20.4600  -27.2310 C   0  0  0  0  0  0  0  0  0  0  0  0
   -2.2310   20.8790  -28.4790 C   0  0  0  0  0  0  0  0  0  0  0  0
   -2.2430   22.2190  -28.6970 C   0  0  0  0  0  0  0  0  0  0  0  0
   -5.4211   25.1841  -29.3958 H   0  0  0  0  0  0  0  0  0  0  0  0
   -5.1042   26.4468  -30.6334 H   0  0  0  0  0  0  0  0  0  0  0  0
   -6.6671   25.5615  -30.6334 H   0  0  0  0  0  0  0  0  0  0  0  0
   -7.7082   24.1660  -31.1631 H   0  0  0  0  0  0  0  0  0  0  0  0
   -9.6385   22.9456  -31.3684 H   0  0  0  0  0  0  0  0  0  0  0  0
  -10.9279   20.8952  -31.8852 H   0  0  0  0  0  0  0  0  0  0  0  0
   -9.6982   18.8517  -32.6229 H   0  0  0  0  0  0  0  0  0  0  0  0
   -7.2223   18.8892  -32.8308 H   0  0  0  0  0  0  0  0  0  0  0  0
   -5.1348   20.1444  -32.6290 H   0  0  0  0  0  0  0  0  0  0  0  0
   -3.1100   21.6059  -32.8091 H   0  0  0  0  0  0  0  0  0  0  0  0
   -3.1619   23.2931  -32.4322 H   0  0  0  0  0  0  0  0  0  0  0  0
   -3.1180   24.4340  -30.9660 H   0  0  0  0  0  0  0  0  0  0  0  0
   -0.8654   23.4617  -25.8324 H   0  0  0  0  0  0  0  0  0  0  0  0
   -0.8288   21.0291  -25.4001 H   0  0  0  0  0  0  0  0  0  0  0  0
   -1.6516   19.3905  -26.9775 H   0  0  0  0  0  0  0  0  0  0  0  0
   -2.6122   20.1625  -29.2216 H   0  0  0  0  0  0  0  0  0  0  0  0
  1  2  1  0
  2  3  1  0
  3  4  2  0
  4  5  1  0
  5  6  2  0
  6  7  1  0
  7  8  2  0
  8  9  1  0
  9 10  2  0
 10 11  1  0
 11 12  2  0
 12 13  1  0
 13 14  1  0
 14 15  2  0
 15 16  1  0
 16 17  1  0
 17 18  2  0
 18 19  1  0
 18 20  1  0
 20 21  2  0
 21 22  1  0
 22 23  2  0
 23 24  1  0
 24 25  2  0
 12  3  1  0
 25 15  1  0
 10  5  1  0
 25 20  1  0
  1 26  1  0
  1 27  1  0
  1 28  1  0
  4 29  1  0
  6 30  1  0
  7 31  1  0
  8 32  1  0
  9 33  1  0
 11 34  1  0
 13 35  1  0
 13 36  1  0
 16 37  1  0
 21 38  1  0
 22 39  1  0
 23 40  1  0
 24 41  1  0
M  END
>  <smiles>  (43) 
COc1cc2ccccc2cc1CN=c1[nH]nc(Cl)c2ccccc12

>  <score_type>  (43) 
oracle

>  <origin>  (43) 
adg

>  <m_score__min__energy>  (43) 
-9.25

>  <m_primary>  (43) 
energy

$$$$
43:0
     RDKit          3D

 26 26  0  0  0  0  0  0  0  0999 V2000
   -5.3750   25.2830  -30.4500 Br  0  0  0  0  0  0  0  0  0  0  0  0
   -6.8650   24.0450  -30.5420 C   0  0  0  0  0  0  0  0  0  0  0  0
   -6.3870   22.5890  -30.4710 C   0  0  0  0  0  0  0  0  0  0  0  0
   -6.2930   21.9500  -31.8020 N   0  0  0  0  0  0  0  0  0  0  0  0
   -5.1450   22.2600  -32.6750 C   0  0  0  0  0  0  0  0  0  0  0  0
   -3.7750   22.0500  -32.0170 C   0  0  0  0  0  0  0  0  0  0  0  0
   -2.6000   20.9390  -33.0870 Br  0  0  0  0  0  0  0  0  0  0  0  0
   -6.8470   20.6280  -31.9720 C   0  0  0  0  0  0  0  0  0  0  0  0
   -5.9930   19.5390  -32.2180 C   0  0  0  0  0  0  0  0  0  0  0  0
   -6.5160   18.2550  -32.3960 C   0  0  0  0  0  0  0  0  0  0  0  0
   -7.8950   18.0470  -32.3380 C   0  0  0  0  0  0  0  0  0  0  0  0
   -8.7540   19.1240  -32.1070 C   0  0  0  0  0  0  0  0  0  0  0  0
   -8.2410   20.4140  -31.9280 C   0  0  0  0  0  0  0  0  0  0  0  0
   -9.4740   21.8430  -31.6170 Br  0  0  0  0  0  0  0  0  0  0  0  0
   -7.5451   24.2401  -29.6997 H   0  0  0  0  0  0  0  0  0  0  0  0
   -7.3807   24.1941  -31.5021 H   0  0  0  0  0  0  0  0  0  0  0  0
   -5.3930   22.5682  -30.0003 H   0  0  0  0  0  0  0  0  0  0  0  0
   -7.1283   22.0257  -29.8852 H   0  0  0  0  0  0  0  0  0  0  0  0
   -5.2032   21.6133  -33.5629 H   0  0  0  0  0  0  0  0  0  0  0  0
   -5.2157   23.3302  -32.9194 H   0  0  0  0  0  0  0  0  0  0  0  0
   -3.2986   23.0310  -31.8732 H   0  0  0  0  0  0  0  0  0  0  0  0
   -3.9398   21.5361  -31.0585 H   0  0  0  0  0  0  0  0  0  0  0  0
   -4.9059   19.6983  -32.2708 H   0  0  0  0  0  0  0  0  0  0  0  0
   -5.8400   17.4074  -32.5820 H   0  0  0  0  0  0  0  0  0  0  0  0
   -8.3051   17.0354  -32.4741 H   0  0  0  0  0  0  0  0  0  0  0  0
   -9.8405   18.9573  -32.0655 H   0  0  0  0  0  0  0  0  0  0  0  0
  1  2  1  0
  2  3  1  0
  3  4  1  0
  4  5  1  0
  5  6  1  0
  6  7  1  0
  4  8  1  0
  8  9  2  0
  9 10  1  0
 10 11  2  0
 11 12  1  0
 12 13  2  0
 13 14  1  0
 13  8  1  0
  2 15  1  0
  2 16  1  0
  3 17  1  0
  3 18  1  0
  5 19  1  0
  5 20  1  0
  6 21  1  0
  6 22  1  0
  9 23  1  0
 10 24  1  0
 11 25  1  0
 12 26  1  0
M  END
>  <UniqueID>  (44) 
40

>  <SMILES>  (44) 
BrCCN(CCBr)c1ccccc1Br

>  <Energy>  (44) 
28.233703682747702

>  <Genealogy>  (44) 
BrCCN(CCBr)c1ccccc1Br (3D coordinates assigned)
BrCCN(CCBr)c1ccccc1Br (optimized conformer: 28.233703682747702 kcal/mol)

>  <smiles>  (44) 
BrCCN(CCBr)c1ccccc1Br

>  <score_type>  (44) 
oracle

>  <origin>  (44) 
adg

>  <m_score__min__energy>  (44) 
-6.1500000000000004

>  <m_primary>  (44) 
energy

$$$$
44:0
     RDKit          3D

 45 48  0  0  0  0  0  0  0  0999 V2000
   -7.6210   17.8080  -31.6610 C   0  0  0  0  0  0  0  0  0  0  0  0
   -6.5120   17.9610  -32.4930 C   0  0  0  0  0  0  0  0  0  0  0  0
   -6.3580   19.0980  -33.2230 N   0  0  0  0  0  0  0  0  0  0  0  0
   -7.2760   20.1010  -33.1780 C   0  0  0  0  0  0  0  0  0  0  0  0
   -8.4320   19.9770  -32.3880 C   0  0  0  0  0  0  0  0  0  0  0  0
   -9.4560   21.0980  -32.3280 C   0  0  0  0  0  0  0  0  0  0  0  0
   -9.0630   22.2630  -31.5000 N   0  0  0  0  0  0  0  0  0  0  0  0
   -8.2160   21.9280  -30.3220 C   0  0  0  0  0  0  0  0  0  0  0  0
   -7.2460   23.0820  -30.2420 C   0  0  1  0  0  0  0  0  0  0  0  0
   -5.8440   23.0570  -29.6850 C   0  0  0  0  0  0  0  0  0  0  0  0
   -5.1540   24.1630  -30.4060 N   0  0  0  0  0  0  0  0  0  0  0  0
   -3.7830   23.7890  -30.8060 C   0  0  0  0  0  0  0  0  0  0  0  0
   -3.7800   22.4470  -31.4910 C   0  0  0  0  0  0  0  0  0  0  0  0
   -3.5130   21.2830  -30.7560 C   0  0  0  0  0  0  0  0  0  0  0  0
   -3.5350   20.0430  -31.3990 C   0  0  0  0  0  0  0  0  0  0  0  0
   -3.8180   19.9680  -32.7260 N   0  0  0  0  0  0  0  0  0  0  0  0
   -4.0860   21.0790  -33.4620 C   0  0  0  0  0  0  0  0  0  0  0  0
   -4.0740   22.3390  -32.8580 C   0  0  0  0  0  0  0  0  0  0  0  0
   -6.0000   24.4820  -31.5910 C   0  0  0  0  0  0  0  0  0  0  0  0
   -6.9720   23.3310  -31.6730 C   0  0  2  0  0  0  0  0  0  0  0  0
   -8.3700   23.3510  -32.2380 C   0  0  0  0  0  0  0  0  0  0  0  0
   -8.5740   18.8240  -31.5990 C   0  0  0  0  0  0  0  0  0  0  0  0
   -7.7426   16.8949  -31.0597 H   0  0  0  0  0  0  0  0  0  0  0  0
   -5.7605   17.1604  -32.5588 H   0  0  0  0  0  0  0  0  0  0  0  0
   -5.5120   19.2060  -33.8270 H   0  0  0  0  0  0  0  0  0  0  0  0
   -7.1122   21.0169  -33.7649 H   0  0  0  0  0  0  0  0  0  0  0  0
   -9.6335   21.4531  -33.3539 H   0  0  0  0  0  0  0  0  0  0  0  0
  -10.3511   20.6710  -31.8520 H   0  0  0  0  0  0  0  0  0  0  0  0
   -8.8237   21.8617  -29.4075 H   0  0  0  0  0  0  0  0  0  0  0  0
   -7.7142   20.9540  -30.4197 H   0  0  0  0  0  0  0  0  0  0  0  0
   -7.7594   23.7482  -29.5330 H   0  0  0  0  0  0  0  0  0  0  0  0
   -5.8501   23.2404  -28.6004 H   0  0  0  0  0  0  0  0  0  0  0  0
   -5.3487   22.0848  -29.8245 H   0  0  0  0  0  0  0  0  0  0  0  0
   -3.3876   24.5486  -31.4964 H   0  0  0  0  0  0  0  0  0  0  0  0
   -3.1537   23.7300  -29.9057 H   0  0  0  0  0  0  0  0  0  0  0  0
   -3.2879   21.3459  -29.6811 H   0  0  0  0  0  0  0  0  0  0  0  0
   -3.3229   19.1257  -30.8302 H   0  0  0  0  0  0  0  0  0  0  0  0
   -4.3126   20.9860  -34.5344 H   0  0  0  0  0  0  0  0  0  0  0  0
   -4.2935   23.2395  -33.4504 H   0  0  0  0  0  0  0  0  0  0  0  0
   -6.5331   25.4331  -31.4450 H   0  0  0  0  0  0  0  0  0  0  0  0
   -5.4087   24.6003  -32.5110 H   0  0  0  0  0  0  0  0  0  0  0  0
   -6.4591   22.6652  -32.3827 H   0  0  0  0  0  0  0  0  0  0  0  0
   -8.8543   24.3211  -32.0527 H   0  0  0  0  0  0  0  0  0  0  0  0
   -8.3915   23.2078  -33.3284 H   0  0  0  0  0  0  0  0  0  0  0  0
   -9.4406   18.7219  -30.9293 H   0  0  0  0  0  0  0  0  0  0  0  0
  1  2  2  0
  2  3  1  0
  3  4  2  0
  4  5  1  0
  5  6  1  0
  6  7  1  0
  7  8  1  0
  8  9  1  0
  9 10  1  0
 10 11  1  0
 11 12  1  0
 12 13  1  0
 13 14  2  0
 14 15  1  0
 15 16  2  0
 16 17  1  0
 17 18  2  0
 11 19  1  0
 19 20  1  0
 20 21  1  0
  5 22  2  0
 22  1  1  0
 21  7  1  0
 20  9  1  0
 18 13  1  0
  1 23  1  0
  2 24  1  0
  3 25  1  0
  4 26  1  0
  6 27  1  0
  6 28  1  0
  8 29  1  0
  8 30  1  0
  9 31  1  1
 10 32  1  0
 10 33  1  0
 12 34  1  0
 12 35  1  0
 14 36  1  0
 15 37  1  0
 17 38  1  0
 18 39  1  0
 19 40  1  0
 19 41  1  0
 20 42  1  6
 21 43  1  0
 21 44  1  0
 22 45  1  0
M  CHG  1   3   1
M  END
>  <UniqueID>  (45) 
41

>  <SMILES>  (45) 
c1c[nH+]cc(CN2C[C@H]3CN(Cc4ccncc4)C[C@@H]3C2)c1

>  <Energy>  (45) 
88.07632754579744

>  <Genealogy>  (45) 
c1c[nH+]cc(CN2CC3CN(Cc4ccncc4)CC3C2)c1 (protonated)
c1c[nH+]cc(CN2C[C@H]3CN(Cc4ccncc4)C[C@@H]3C2)c1 (chirality)
c1c[nH+]cc(CN2C[C@H]3CN(Cc4ccncc4)C[C@@H]3C2)c1 (3D coordinates assigned)
c1c[nH+]cc(CN2C[C@H]3CN(Cc4ccncc4)C[C@@H]3C2)c1 (nonaromatic ring conformer: 88.07632754579744 kcal/mol)

>  <smiles>  (45) 
c1cncc(CN2CC3CN(Cc4ccncc4)CC3C2)c1

>  <score_type>  (45) 
oracle

>  <origin>  (45) 
adg

>  <m_score__min__energy>  (45) 
-8.1799999999999997

>  <m_primary>  (45) 
energy

$$$$
45:0
     RDKit          3D

 30 31  0  0  0  0  0  0  0  0999 V2000
   -4.1450   22.6930  -28.3400 C   0  0  0  0  0  0  0  0  0  0  0  0
   -4.0560   24.2220  -28.3590 C   0  0  0  0  0  0  0  0  0  0  0  0
   -5.3420   24.8710  -28.6740 N   0  0  0  0  0  0  0  0  0  0  0  0
   -5.6170   25.0400  -30.1140 C   0  0  0  0  0  0  0  0  0  0  0  0
   -6.8370   24.2330  -30.5860 C   0  0  0  0  0  0  0  0  0  0  0  0
   -6.4000   23.0480  -31.4070 C   0  0  0  0  0  0  0  0  0  0  0  0
   -5.0610   22.9180  -31.8250 C   0  0  0  0  0  0  0  0  0  0  0  0
   -4.6440   21.7940  -32.5610 C   0  0  0  0  0  0  0  0  0  0  0  0
   -5.5550   20.7750  -32.8820 C   0  0  0  0  0  0  0  0  0  0  0  0
   -6.8790   20.8950  -32.4560 C   0  0  0  0  0  0  0  0  0  0  0  0
   -7.9010   19.9660  -32.6820 C   0  0  0  0  0  0  0  0  0  0  0  0
   -9.1180   20.3550  -32.1260 C   0  0  0  0  0  0  0  0  0  0  0  0
   -8.9180   21.8480  -31.3600 S   0  0  0  0  0  0  0  0  0  0  0  0
   -7.2850   22.0080  -31.7330 C   0  0  0  0  0  0  0  0  0  0  0  0
   -4.1656   22.3398  -27.2984 H   0  0  0  0  0  0  0  0  0  0  0  0
   -5.0633   22.3727  -28.8540 H   0  0  0  0  0  0  0  0  0  0  0  0
   -3.2701   22.2684  -28.8540 H   0  0  0  0  0  0  0  0  0  0  0  0
   -3.7233   24.5659  -27.3685 H   0  0  0  0  0  0  0  0  0  0  0  0
   -3.3449   24.5000  -29.1509 H   0  0  0  0  0  0  0  0  0  0  0  0
   -5.3620   25.8160  -28.2200 H   0  0  0  0  0  0  0  0  0  0  0  0
   -6.1140   24.3080  -28.2440 H   0  0  0  0  0  0  0  0  0  0  0  0
   -5.8019   26.1058  -30.3138 H   0  0  0  0  0  0  0  0  0  0  0  0
   -4.7405   24.6677  -30.6645 H   0  0  0  0  0  0  0  0  0  0  0  0
   -7.3980   23.8785  -29.7087 H   0  0  0  0  0  0  0  0  0  0  0  0
   -7.4735   24.8807  -31.2068 H   0  0  0  0  0  0  0  0  0  0  0  0
   -4.3337   23.7039  -31.5732 H   0  0  0  0  0  0  0  0  0  0  0  0
   -3.5967   21.7129  -32.8874 H   0  0  0  0  0  0  0  0  0  0  0  0
   -5.2309   19.8967  -33.4595 H   0  0  0  0  0  0  0  0  0  0  0  0
   -7.7587   19.0284  -33.2393 H   0  0  0  0  0  0  0  0  0  0  0  0
  -10.0563   19.7832  -32.1773 H   0  0  0  0  0  0  0  0  0  0  0  0
  1  2  1  0
  2  3  1  0
  3  4  1  0
  4  5  1  0
  5  6  1  0
  6  7  2  0
  7  8  1  0
  8  9  2  0
  9 10  1  0
 10 11  1  0
 11 12  2  0
 12 13  1  0
 13 14  1  0
 14  6  1  0
 14 10  2  0
  1 15  1  0
  1 16  1  0
  1 17  1  0
  2 18  1  0
  2 19  1  0
  3 20  1  0
  3 21  1  0
  4 22  1  0
  4 23  1  0
  5 24  1  0
  5 25  1  0
  7 26  1  0
  8 27  1  0
  9 28  1  0
 11 29  1  0
 12 30  1  0
M  CHG  1   3   1
M  END
>  <UniqueID>  (46) 
42

>  <SMILES>  (46) 
CC[NH2+]CCc1cccc2ccsc12

>  <Energy>  (46) 
57.755479606358904

>  <Genealogy>  (46) 
CC[NH2+]CCc1cccc2ccsc12 (protonated)
CC[NH2+]CCc1cccc2ccsc12 (3D coordinates assigned)
CC[NH2+]CCc1cccc2ccsc12 (optimized conformer: 57.755479606358904 kcal/mol)

>  <smiles>  (46) 
CCNCCc1cccc2ccsc12

>  <score_type>  (46) 
oracle

>  <origin>  (46) 
adg

>  <m_score__min__energy>  (46) 
-5.9699999999999998

>  <m_primary>  (46) 
energy

$$$$
46:0
     RDKit          3D

 70 71  0  0  0  0  0  0  0  0999 V2000
   -5.5630   25.6740  -30.4340 C   0  0  0  0  0  0  0  0  0  0  0  0
   -5.3920   24.6770  -29.2880 C   0  0  0  0  0  0  0  0  0  0  0  0
   -4.9630   23.2770  -29.7720 C   0  0  0  0  0  0  0  0  0  0  0  0
   -4.5250   23.2330  -31.2490 C   0  0  0  0  0  0  0  0  0  0  0  0
   -5.5240   22.5560  -32.2030 C   0  0  0  0  0  0  0  0  0  0  0  0
   -6.8480   23.3400  -32.3460 C   0  0  0  0  0  0  0  0  0  0  0  0
   -7.8770   23.0080  -31.2430 C   0  0  0  0  0  0  0  0  0  0  0  0
   -8.7330   21.7600  -31.5220 C   0  0  0  0  0  0  0  0  0  0  0  0
   -8.0720   20.7860  -32.5070 C   0  0  0  0  0  0  0  0  0  0  0  0
   -8.9090   19.5130  -32.7450 C   0  0  0  0  0  0  0  0  0  0  0  0
   -8.9150   18.5580  -31.5320 C   0  0  0  0  0  0  0  0  0  0  0  0
   -7.5750   17.8280  -31.3170 C   0  0  0  0  0  0  0  0  0  0  0  0
   -6.6090   18.1490  -32.3760 N   0  0  0  0  0  0  0  0  0  0  0  0
   -6.7190   17.5390  -33.5940 C   0  0  0  0  0  0  0  0  0  0  0  0
   -5.7420   17.7250  -34.5700 C   0  0  0  0  0  0  0  0  0  0  0  0
   -4.6370   18.5250  -34.2920 C   0  0  0  0  0  0  0  0  0  0  0  0
   -4.5240   19.1620  -33.0460 C   0  0  0  0  0  0  0  0  0  0  0  0
   -3.3160   19.9610  -32.7060 C   0  0  0  0  0  0  0  0  0  0  0  0
   -2.4640   20.4390  -33.7150 C   0  0  0  0  0  0  0  0  0  0  0  0
   -1.3500   21.2060  -33.3840 C   0  0  0  0  0  0  0  0  0  0  0  0
   -1.0970   21.5110  -32.0480 C   0  0  0  0  0  0  0  0  0  0  0  0
   -1.9200   21.0440  -31.0620 N   0  0  0  0  0  0  0  0  0  0  0  0
   -1.6760   21.4270  -29.6650 C   0  0  0  0  0  0  0  0  0  0  0  0
   -2.7090   20.7550  -28.7490 C   0  0  0  0  0  0  0  0  0  0  0  0
   -2.1400   20.4100  -27.3660 C   0  0  0  0  0  0  0  0  0  0  0  0
   -2.8140   19.1870  -26.7430 C   0  0  0  0  0  0  0  0  0  0  0  0
   -3.0140   20.2830  -31.3700 C   0  0  0  0  0  0  0  0  0  0  0  0
   -5.5540   18.9780  -32.1070 C   0  0  0  0  0  0  0  0  0  0  0  0
   -5.7355   26.6795  -30.0226 H   0  0  0  0  0  0  0  0  0  0  0  0
   -4.6531   25.6818  -31.0521 H   0  0  0  0  0  0  0  0  0  0  0  0
   -6.4235   25.3782  -31.0521 H   0  0  0  0  0  0  0  0  0  0  0  0
   -4.6248   25.0611  -28.5997 H   0  0  0  0  0  0  0  0  0  0  0  0
   -6.3686   24.5711  -28.7930 H   0  0  0  0  0  0  0  0  0  0  0  0
   -4.1204   22.9391  -29.1508 H   0  0  0  0  0  0  0  0  0  0  0  0
   -5.8438   22.6243  -29.6810 H   0  0  0  0  0  0  0  0  0  0  0  0
   -4.3737   24.2674  -31.5911 H   0  0  0  0  0  0  0  0  0  0  0  0
   -3.6091   22.6246  -31.2803 H   0  0  0  0  0  0  0  0  0  0  0  0
   -5.0580   22.4708  -33.1958 H   0  0  0  0  0  0  0  0  0  0  0  0
   -5.7688   21.5712  -31.7786 H   0  0  0  0  0  0  0  0  0  0  0  0
   -6.6232   24.4159  -32.3013 H   0  0  0  0  0  0  0  0  0  0  0  0
   -7.2962   23.0497  -33.3077 H   0  0  0  0  0  0  0  0  0  0  0  0
   -7.3313   22.8466  -30.3017 H   0  0  0  0  0  0  0  0  0  0  0  0
   -8.5718   23.8595  -31.1975 H   0  0  0  0  0  0  0  0  0  0  0  0
   -8.9054   21.2338  -30.5715 H   0  0  0  0  0  0  0  0  0  0  0  0
   -9.6732   22.1020  -31.9792 H   0  0  0  0  0  0  0  0  0  0  0  0
   -7.9337   21.3002  -33.4695 H   0  0  0  0  0  0  0  0  0  0  0  0
   -7.1129   20.4732  -32.0685 H   0  0  0  0  0  0  0  0  0  0  0  0
   -9.9456   19.8107  -32.9616 H   0  0  0  0  0  0  0  0  0  0  0  0
   -8.4521   18.9720  -33.5868 H   0  0  0  0  0  0  0  0  0  0  0  0
   -9.1410   19.1439  -30.6289 H   0  0  0  0  0  0  0  0  0  0  0  0
   -9.6746   17.7876  -31.7308 H   0  0  0  0  0  0  0  0  0  0  0  0
   -7.1549   18.1311  -30.3466 H   0  0  0  0  0  0  0  0  0  0  0  0
   -7.7652   16.7448  -31.3413 H   0  0  0  0  0  0  0  0  0  0  0  0
   -7.5859   16.8959  -33.8056 H   0  0  0  0  0  0  0  0  0  0  0  0
   -5.8431   17.2430  -35.5536 H   0  0  0  0  0  0  0  0  0  0  0  0
   -3.8510   18.6582  -35.0500 H   0  0  0  0  0  0  0  0  0  0  0  0
   -2.6772   20.2070  -34.7689 H   0  0  0  0  0  0  0  0  0  0  0  0
   -0.6739   21.5689  -34.1722 H   0  0  0  0  0  0  0  0  0  0  0  0
   -0.2282   22.1324  -31.7851 H   0  0  0  0  0  0  0  0  0  0  0  0
   -0.6654   21.1074  -29.3707 H   0  0  0  0  0  0  0  0  0  0  0  0
   -1.7642   22.5192  -29.5690 H   0  0  0  0  0  0  0  0  0  0  0  0
   -3.5607   21.4387  -28.6183 H   0  0  0  0  0  0  0  0  0  0  0  0
   -3.0131   19.8123  -29.2273 H   0  0  0  0  0  0  0  0  0  0  0  0
   -1.0640   20.2057  -27.4684 H   0  0  0  0  0  0  0  0  0  0  0  0
   -2.3280   21.2682  -26.7041 H   0  0  0  0  0  0  0  0  0  0  0  0
   -2.7717   19.2638  -25.6465 H   0  0  0  0  0  0  0  0  0  0  0  0
   -3.8642   19.1422  -27.0672 H   0  0  0  0  0  0  0  0  0  0  0  0
   -2.2910   18.2752  -27.0672 H   0  0  0  0  0  0  0  0  0  0  0  0
   -3.6661   19.9180  -30.5628 H   0  0  0  0  0  0  0  0  0  0  0  0
   -5.5113   19.5072  -31.1436 H   0  0  0  0  0  0  0  0  0  0  0  0
  1  2  1  0
  2  3  1  0
  3  4  1  0
  4  5  1  0
  5  6  1  0
  6  7  1  0
  7  8  1  0
  8  9  1  0
  9 10  1  0
 10 11  1  0
 11 12  1  0
 12 13  1  0
 13 14  2  0
 14 15  1  0
 15 16  2  0
 16 17  1  0
 17 18  1  0
 18 19  2  0
 19 20  1  0
 20 21  2  0
 21 22  1  0
 22 23  1  0
 23 24  1  0
 24 25  1  0
 25 26  1  0
 22 27  2  0
 17 28  2  0
 28 13  1  0
 27 18  1  0
  1 29  1  0
  1 30  1  0
  1 31  1  0
  2 32  1  0
  2 33  1  0
  3 34  1  0
  3 35  1  0
  4 36  1  0
  4 37  1  0
  5 38  1  0
  5 39  1  0
  6 40  1  0
  6 41  1  0
  7 42  1  0
  7 43  1  0
  8 44  1  0
  8 45  1  0
  9 46  1  0
  9 47  1  0
 10 48  1  0
 10 49  1  0
 11 50  1  0
 11 51  1  0
 12 52  1  0
 12 53  1  0
 14 54  1  0
 15 55  1  0
 16 56  1  0
 19 57  1  0
 20 58  1  0
 21 59  1  0
 23 60  1  0
 23 61  1  0
 24 62  1  0
 24 63  1  0
 25 64  1  0
 25 65  1  0
 26 66  1  0
 26 67  1  0
 26 68  1  0
 27 69  1  0
 28 70  1  0
M  CHG  2  13   1  22   1
M  END
>  <UniqueID>  (47) 
43

>  <SMILES>  (47) 
CCCCCCCCCCCC[n+]1cccc(-c2ccc[n+](CCCC)c2)c1

>  <Energy>  (47) 
51.41177758245095

>  <Genealogy>  (47) 
CCCCCCCCCCCC[n+]1cccc(-c2ccc[n+](CCCC)c2)c1 (3D coordinates assigned)
CCCCCCCCCCCC[n+]1cccc(-c2ccc[n+](CCCC)c2)c1 (optimized conformer: 51.41177758245095 kcal/mol)

>  <smiles>  (47) 
CCCCCCCCCCCC[n+]1cccc(-c2ccc[n+](CCCC)c2)c1

>  <score_type>  (47) 
oracle

>  <origin>  (47) 
adg

>  <m_score__min__energy>  (47) 
-6.8899999999999997

>  <m_primary>  (47) 
energy

$$$$
