0:0
     RDKit          3D

 37 39  0  0  0  0  0  0  0  0999 V2000
   -5.0720   24.5370  -29.0360 C   0  0  0  0  0  0  0  0  0  0  0  0
   -5.3090   23.8140  -30.2790 N   0  0  0  0  0  0  0  0  0  0  0  0
   -4.4740   23.8120  -31.3120 N   0  0  0  0  0  0  0  0  0  0  0  0
   -5.0110   23.0420  -32.2900 C   0  0  0  0  0  0  0  0  0  0  0  0
   -6.2200   22.5530  -31.8420 C   0  0  0  0  0  0  0  0  0  0  0  0
   -7.1700   21.7280  -32.4350 C   0  0  0  0  0  0  0  0  0  0  0  0
   -8.3260   21.4080  -31.6860 C   0  0  0  0  0  0  0  0  0  0  0  0
   -9.3840   20.5070  -32.2800 C   0  0  0  0  0  0  0  0  0  0  0  0
   -8.8020   19.4250  -33.0960 N   0  0  0  0  0  0  0  0  0  0  0  0
   -7.9080   18.5290  -32.3360 C   0  0  0  0  0  0  0  0  0  0  0  0
   -6.5130   18.4830  -32.9150 C   0  0  0  0  0  0  0  0  0  0  0  0
   -5.4360   19.0670  -32.2280 C   0  0  0  0  0  0  0  0  0  0  0  0
   -4.1450   19.0130  -32.7640 C   0  0  0  0  0  0  0  0  0  0  0  0
   -3.9230   18.3820  -33.9900 C   0  0  0  0  0  0  0  0  0  0  0  0
   -4.9900   17.8070  -34.6850 C   0  0  0  0  0  0  0  0  0  0  0  0
   -6.2820   17.8580  -34.1520 C   0  0  0  0  0  0  0  0  0  0  0  0
   -8.4880   21.9390  -30.3790 C   0  0  0  0  0  0  0  0  0  0  0  0
   -7.5040   22.7700  -29.8120 C   0  0  0  0  0  0  0  0  0  0  0  0
   -6.3770   23.0540  -30.5820 C   0  0  0  0  0  0  0  0  0  0  0  0
   -5.2879   23.8784  -28.1818 H   0  0  0  0  0  0  0  0  0  0  0  0
   -4.0211   24.8594  -28.9940 H   0  0  0  0  0  0  0  0  0  0  0  0
   -5.7281   25.4189  -28.9940 H   0  0  0  0  0  0  0  0  0  0  0  0
   -4.5595   22.8416  -33.2729 H   0  0  0  0  0  0  0  0  0  0  0  0
   -7.0268   21.3373  -33.4532 H   0  0  0  0  0  0  0  0  0  0  0  0
   -9.9673   20.0590  -31.4621 H   0  0  0  0  0  0  0  0  0  0  0  0
  -10.0191   21.1200  -32.9364 H   0  0  0  0  0  0  0  0  0  0  0  0
   -8.2620   19.8380  -33.8920 H   0  0  0  0  0  0  0  0  0  0  0  0
   -9.5820   18.8670  -33.5160 H   0  0  0  0  0  0  0  0  0  0  0  0
   -7.8482   18.8870  -31.2976 H   0  0  0  0  0  0  0  0  0  0  0  0
   -8.3270   17.5133  -32.3879 H   0  0  0  0  0  0  0  0  0  0  0  0
   -5.6085   19.5689  -31.2645 H   0  0  0  0  0  0  0  0  0  0  0  0
   -3.3043   19.4678  -32.2196 H   0  0  0  0  0  0  0  0  0  0  0  0
   -2.9069   18.3377  -34.4090 H   0  0  0  0  0  0  0  0  0  0  0  0
   -4.8137   17.3137  -35.6523 H   0  0  0  0  0  0  0  0  0  0  0  0
   -7.1204   17.4072  -34.7032 H   0  0  0  0  0  0  0  0  0  0  0  0
   -9.3935   21.6979  -29.8029 H   0  0  0  0  0  0  0  0  0  0  0  0
   -7.6198   23.1806  -28.7981 H   0  0  0  0  0  0  0  0  0  0  0  0
  1  2  1  0
  2  3  1  0
  3  4  2  0
  4  5  1  0
  5  6  2  0
  6  7  1  0
  7  8  1  0
  8  9  1  0
  9 10  1  0
 10 11  1  0
 11 12  2  0
 12 13  1  0
 13 14  2  0
 14 15  1  0
 15 16  2  0
  7 17  2  0
 17 18  1  0
 18 19  2  0
 19  2  1  0
 19  5  1  0
 16 11  1  0
  1 20  1  0
  1 21  1  0
  1 22  1  0
  4 23  1  0
  6 24  1  0
  8 25  1  0
  8 26  1  0
  9 27  1  0
  9 28  1  0
 10 29  1  0
 10 30  1  0
 12 31  1  0
 13 32  1  0
 14 33  1  0
 15 34  1  0
 16 35  1  0
 17 36  1  0
 18 37  1  0
M  CHG  1   9   1
M  END
>  <UniqueID>  (1) 
1

>  <SMILES>  (1) 
Cn1ncc2cc(C[NH2+]Cc3ccccc3)ccc21

>  <Energy>  (1) 
77.19742823537506

>  <Genealogy>  (1) 
Cn1ncc2cc(C[NH2+]Cc3ccccc3)ccc21 (protonated)
Cn1ncc2cc(C[NH2+]Cc3ccccc3)ccc21 (3D coordinates assigned)
Cn1ncc2cc(C[NH2+]Cc3ccccc3)ccc21 (optimized conformer: 77.19742823537506 kcal/mol)

>  <smiles>  (1) 
Cn1ncc2cc(CNCc3ccccc3)ccc21

>  <score_type>  (1) 
oracle

>  <origin>  (1) 
adg

>  <m_score__min__energy>  (1) 
-7.3799999999999999

>  <m_primary>  (1) 
energy

$$$$
1:0
     RDKit          3D

 70 73  0  0  0  0  0  0  0  0999 V2000
   -5.9920   16.9950  -33.1890 C   0  0  0  0  0  0  0  0  0  0  0  0
   -6.8350   17.7000  -32.1230 C   0  0  0  0  0  0  0  0  0  0  0  0
   -7.7380   18.7150  -32.7130 N   0  0  0  0  0  0  0  0  0  0  0  0
   -8.5920   19.3590  -31.6790 C   0  0  0  0  0  0  0  0  0  0  0  0
   -9.4830   20.4080  -32.3330 C   0  0  0  0  0  0  0  0  0  0  0  0
   -6.9420   19.7180  -33.4610 C   0  0  0  0  0  0  0  0  0  0  0  0
   -6.3160   20.7700  -32.5310 C   0  0  0  0  0  0  0  0  0  0  0  0
   -5.0330   21.2670  -33.0390 N   0  0  0  0  0  0  0  0  0  0  0  0
   -3.8000   21.1270  -32.3100 C   0  0  0  0  0  0  0  0  0  0  0  0
   -2.9650   20.0180  -32.5450 C   0  0  0  0  0  0  0  0  0  0  0  0
   -3.2240   19.1220  -33.6040 C   0  0  0  0  0  0  0  0  0  0  0  0
   -2.3770   18.0420  -33.8450 C   0  0  0  0  0  0  0  0  0  0  0  0
   -1.2670   17.8310  -33.0340 C   0  0  0  0  0  0  0  0  0  0  0  0
   -0.9950   18.6970  -31.9760 C   0  0  0  0  0  0  0  0  0  0  0  0
   -1.8430   19.8000  -31.7010 C   0  0  0  0  0  0  0  0  0  0  0  0
   -1.5860   20.6650  -30.6550 N   0  0  0  0  0  0  0  0  0  0  0  0
   -0.6410   20.2690  -29.5850 C   0  0  0  0  0  0  0  0  0  0  0  0
   -2.2370   21.8850  -30.5940 C   0  0  0  0  0  0  0  0  0  0  0  0
   -1.7620   22.9400  -29.7750 C   0  0  0  0  0  0  0  0  0  0  0  0
   -2.4430   24.1660  -29.6910 C   0  0  0  0  0  0  0  0  0  0  0  0
   -1.9940   25.2340  -28.8970 O   0  0  0  0  0  0  0  0  0  0  0  0
   -1.2630   25.1210  -27.6750 C   0  0  0  0  0  0  0  0  0  0  0  0
   -2.0890   25.6180  -26.4840 C   0  0  0  0  0  0  0  0  0  0  0  0
   -1.2620   26.3870  -25.5440 N   0  0  0  0  0  0  0  0  0  0  0  0
   -0.9330   25.8430  -24.3310 C   0  0  0  0  0  0  0  0  0  0  0  0
   -0.1650   26.5660  -23.4160 C   0  0  0  0  0  0  0  0  0  0  0  0
    0.2580   27.8520  -23.7460 C   0  0  0  0  0  0  0  0  0  0  0  0
   -0.0820   28.4010  -24.9810 C   0  0  0  0  0  0  0  0  0  0  0  0
   -0.8430   27.6470  -25.8760 C   0  0  0  0  0  0  0  0  0  0  0  0
   -3.6050   24.3520  -30.4420 C   0  0  0  0  0  0  0  0  0  0  0  0
   -4.3170   25.5460  -30.3470 O   0  0  0  0  0  0  0  0  0  0  0  0
   -5.7250   25.5640  -30.1650 C   0  0  0  0  0  0  0  0  0  0  0  0
   -4.0600   23.3500  -31.3000 C   0  0  0  0  0  0  0  0  0  0  0  0
   -3.3850   22.1170  -31.3950 C   0  0  0  0  0  0  0  0  0  0  0  0
   -5.2362   16.3629  -32.6999 H   0  0  0  0  0  0  0  0  0  0  0  0
   -6.6432   16.3688  -33.8165 H   0  0  0  0  0  0  0  0  0  0  0  0
   -5.4909   17.7467  -33.8165 H   0  0  0  0  0  0  0  0  0  0  0  0
   -7.4412   16.9489  -31.5953 H   0  0  0  0  0  0  0  0  0  0  0  0
   -6.1501   18.2141  -31.4327 H   0  0  0  0  0  0  0  0  0  0  0  0
   -9.2194   18.5959  -31.1952 H   0  0  0  0  0  0  0  0  0  0  0  0
   -7.9522   19.8415  -30.9254 H   0  0  0  0  0  0  0  0  0  0  0  0
   -9.9855   20.9997  -31.5536 H   0  0  0  0  0  0  0  0  0  0  0  0
   -8.8688   21.0722  -32.9587 H   0  0  0  0  0  0  0  0  0  0  0  0
  -10.2379   19.9094  -32.9587 H   0  0  0  0  0  0  0  0  0  0  0  0
   -6.1371   19.1996  -34.0027 H   0  0  0  0  0  0  0  0  0  0  0  0
   -7.6188   20.2388  -34.1544 H   0  0  0  0  0  0  0  0  0  0  0  0
   -7.0113   21.6171  -32.4360 H   0  0  0  0  0  0  0  0  0  0  0  0
   -6.1309   20.2921  -31.5577 H   0  0  0  0  0  0  0  0  0  0  0  0
   -4.9950   21.6310  -34.0180 H   0  0  0  0  0  0  0  0  0  0  0  0
   -4.1036   19.2777  -34.2459 H   0  0  0  0  0  0  0  0  0  0  0  0
   -2.5867   17.3551  -34.6782 H   0  0  0  0  0  0  0  0  0  0  0  0
   -0.6010   16.9773  -33.2282 H   0  0  0  0  0  0  0  0  0  0  0  0
   -0.1105   18.5224  -31.3458 H   0  0  0  0  0  0  0  0  0  0  0  0
   -1.0980   20.4605  -28.6029 H   0  0  0  0  0  0  0  0  0  0  0  0
   -0.4088   19.1979  -29.6788 H   0  0  0  0  0  0  0  0  0  0  0  0
    0.2854   20.8546  -29.6788 H   0  0  0  0  0  0  0  0  0  0  0  0
   -0.8401   22.7956  -29.1925 H   0  0  0  0  0  0  0  0  0  0  0  0
   -0.9983   24.0658  -27.5121 H   0  0  0  0  0  0  0  0  0  0  0  0
   -0.3582   25.7417  -27.7531 H   0  0  0  0  0  0  0  0  0  0  0  0
   -2.9015   26.2603  -26.8546 H   0  0  0  0  0  0  0  0  0  0  0  0
   -2.4948   24.7436  -25.9541 H   0  0  0  0  0  0  0  0  0  0  0  0
   -1.2761   24.8295  -24.0758 H   0  0  0  0  0  0  0  0  0  0  0  0
    0.1033   26.1249  -22.4447 H   0  0  0  0  0  0  0  0  0  0  0  0
    0.8599   28.4335  -23.0322 H   0  0  0  0  0  0  0  0  0  0  0  0
    0.2455   29.4167  -25.2475 H   0  0  0  0  0  0  0  0  0  0  0  0
   -1.1082   28.0691  -26.8565 H   0  0  0  0  0  0  0  0  0  0  0  0
   -5.9557   25.5669  -29.0895 H   0  0  0  0  0  0  0  0  0  0  0  0
   -6.1436   26.4676  -30.6323 H   0  0  0  0  0  0  0  0  0  0  0  0
   -6.1666   24.6714  -30.6323 H   0  0  0  0  0  0  0  0  0  0  0  0
   -4.9580   23.5252  -31.9106 H   0  0  0  0  0  0  0  0  0  0  0  0
  1  2  1  0
  2  3  1  0
  3  4  1  0
  4  5  1  0
  3  6  1  0
  6  7  1  0
  7  8  1  0
  8  9  1  0
  9 10  2  0
 10 11  1  0
 11 12  2  0
 12 13  1  0
 13 14  2  0
 14 15  1  0
 15 16  2  0
 16 17  1  0
 16 18  1  0
 18 19  2  0
 19 20  1  0
 20 21  1  0
 21 22  1  0
 22 23  1  0
 23 24  1  0
 24 25  2  0
 25 26  1  0
 26 27  2  0
 27 28  1  0
 28 29  2  0
 20 30  2  0
 30 31  1  0
 31 32  1  0
 30 33  1  0
 33 34  2  0
 34  9  1  0
 15 10  1  0
 34 18  1  0
 29 24  1  0
  1 35  1  0
  1 36  1  0
  1 37  1  0
  2 38  1  0
  2 39  1  0
  4 40  1  0
  4 41  1  0
  5 42  1  0
  5 43  1  0
  5 44  1  0
  6 45  1  0
  6 46  1  0
  7 47  1  0
  7 48  1  0
  8 49  1  0
 11 50  1  0
 12 51  1  0
 13 52  1  0
 14 53  1  0
 17 54  1  0
 17 55  1  0
 17 56  1  0
 19 57  1  0
 22 58  1  0
 22 59  1  0
 23 60  1  0
 23 61  1  0
 25 62  1  0
 26 63  1  0
 27 64  1  0
 28 65  1  0
 29 66  1  0
 32 67  1  0
 32 68  1  0
 32 69  1  0
 33 70  1  0
M  CHG  2  16   1  24   1
M  END
>  <UniqueID>  (2) 
2

>  <SMILES>  (2) 
CCN(CC)CCNc1c2ccccc2[n+](C)c2cc(OCC[n+]3ccccc3)c(OC)cc12

>  <Energy>  (2) 
101.61037468645333

>  <Genealogy>  (2) 
CCN(CC)CCNc1c2ccccc2[n+](C)c2cc(OCC[n+]3ccccc3)c(OC)cc12 (3D coordinates assigned)
CCN(CC)CCNc1c2ccccc2[n+](C)c2cc(OCC[n+]3ccccc3)c(OC)cc12 (optimized conformer: 101.61037468645333 kcal/mol)

>  <smiles>  (2) 
CCN(CC)CCNc1c2ccccc2[n+](C)c2cc(OCC[n+]3ccccc3)c(OC)cc12

>  <score_type>  (2) 
oracle

>  <origin>  (2) 
adg

>  <m_score__min__energy>  (2) 
-8.4900000000000002

>  <m_primary>  (2) 
energy

$$$$
2:0
     RDKit          3D

 67 70  0  0  0  0  0  0  0  0999 V2000
   -6.4510   25.1180  -29.6490 C   0  0  0  0  0  0  0  0  0  0  0  0
   -5.4330   25.9360  -30.4360 C   0  0  0  0  0  0  0  0  0  0  0  0
   -4.3200   25.0840  -30.8780 N   0  0  0  0  0  0  0  0  0  0  0  0
   -4.0530   24.0130  -29.9100 C   0  0  0  0  0  0  0  0  0  0  0  0
   -4.2560   22.6450  -30.5730 C   0  0  0  0  0  0  0  0  0  0  0  0
   -3.5310   22.5420  -31.9200 C   0  0  0  0  0  0  0  0  0  0  0  0
   -4.4370   22.1010  -32.9800 N   0  0  0  0  0  0  0  0  0  0  0  0
   -5.4310   21.0920  -32.7390 C   0  0  0  0  0  0  0  0  0  0  0  0
   -6.7180   21.4850  -32.3320 C   0  0  0  0  0  0  0  0  0  0  0  0
   -6.9870   22.8260  -31.9820 C   0  0  0  0  0  0  0  0  0  0  0  0
   -8.2740   23.2290  -31.6370 C   0  0  0  0  0  0  0  0  0  0  0  0
   -9.3170   22.3120  -31.6500 C   0  0  0  0  0  0  0  0  0  0  0  0
   -9.0740   20.9810  -31.9810 C   0  0  0  0  0  0  0  0  0  0  0  0
   -7.7660   20.5280  -32.2950 C   0  0  0  0  0  0  0  0  0  0  0  0
   -7.5070   19.2050  -32.5940 N   0  0  0  0  0  0  0  0  0  0  0  0
   -8.5320   18.1720  -32.3190 C   0  0  0  0  0  0  0  0  0  0  0  0
   -6.2770   18.8340  -33.1050 C   0  0  0  0  0  0  0  0  0  0  0  0
   -6.0790   17.5600  -33.6870 C   0  0  0  0  0  0  0  0  0  0  0  0
   -4.8200   17.1450  -34.0990 C   0  0  0  0  0  0  0  0  0  0  0  0
   -3.7190   17.9650  -33.9100 C   0  0  0  0  0  0  0  0  0  0  0  0
   -3.8650   19.2570  -33.3780 C   0  0  0  0  0  0  0  0  0  0  0  0
   -2.6880   20.0060  -33.0080 N   0  0  0  0  0  0  0  0  0  0  0  0
   -1.8100   19.6350  -31.8940 C   0  0  0  0  0  0  0  0  0  0  0  0
   -0.9610   20.8190  -31.4010 C   0  0  0  0  0  0  0  0  0  0  0  0
   -0.0860   20.5100  -30.1680 C   0  0  0  0  0  0  0  0  0  0  0  0
   -0.8810   20.0710  -29.0100 N   0  0  0  0  0  0  0  0  0  0  0  0
   -2.0010   20.7750  -28.6490 C   0  0  0  0  0  0  0  0  0  0  0  0
   -2.7540   20.3920  -27.5370 C   0  0  0  0  0  0  0  0  0  0  0  0
   -2.3560   19.2870  -26.7870 C   0  0  0  0  0  0  0  0  0  0  0  0
   -1.2060   18.5870  -27.1470 C   0  0  0  0  0  0  0  0  0  0  0  0
   -0.4690   19.0020  -28.2600 C   0  0  0  0  0  0  0  0  0  0  0  0
   -5.1770   19.7390  -33.0690 C   0  0  0  0  0  0  0  0  0  0  0  0
   -6.2785   25.2566  -28.5715 H   0  0  0  0  0  0  0  0  0  0  0  0
   -7.4670   25.4538  -29.9039 H   0  0  0  0  0  0  0  0  0  0  0  0
   -6.3419   24.0535  -29.9039 H   0  0  0  0  0  0  0  0  0  0  0  0
   -5.9245   26.3754  -31.3166 H   0  0  0  0  0  0  0  0  0  0  0  0
   -5.0369   26.7310  -29.7871 H   0  0  0  0  0  0  0  0  0  0  0  0
   -4.6060   24.6290  -31.7780 H   0  0  0  0  0  0  0  0  0  0  0  0
   -3.0157   24.0946  -29.5531 H   0  0  0  0  0  0  0  0  0  0  0  0
   -4.7475   24.1105  -29.0626 H   0  0  0  0  0  0  0  0  0  0  0  0
   -3.8686   21.8647  -29.9014 H   0  0  0  0  0  0  0  0  0  0  0  0
   -5.3326   22.5152  -30.7577 H   0  0  0  0  0  0  0  0  0  0  0  0
   -3.1244   23.5293  -32.1842 H   0  0  0  0  0  0  0  0  0  0  0  0
   -2.7237   21.8011  -31.8234 H   0  0  0  0  0  0  0  0  0  0  0  0
   -4.2580   22.4000  -33.9640 H   0  0  0  0  0  0  0  0  0  0  0  0
   -6.1692   23.5617  -31.9819 H   0  0  0  0  0  0  0  0  0  0  0  0
   -8.4651   24.2746  -31.3538 H   0  0  0  0  0  0  0  0  0  0  0  0
  -10.3372   22.6375  -31.3984 H   0  0  0  0  0  0  0  0  0  0  0  0
   -9.9112   20.2678  -31.9994 H   0  0  0  0  0  0  0  0  0  0  0  0
   -8.6501   18.0530  -31.2319 H   0  0  0  0  0  0  0  0  0  0  0  0
   -9.4911   18.4805  -32.7604 H   0  0  0  0  0  0  0  0  0  0  0  0
   -8.2160   17.2153  -32.7604 H   0  0  0  0  0  0  0  0  0  0  0  0
   -6.9385   16.8857  -33.8155 H   0  0  0  0  0  0  0  0  0  0  0  0
   -4.6959   16.1621  -34.5770 H   0  0  0  0  0  0  0  0  0  0  0  0
   -2.7173   17.5994  -34.1801 H   0  0  0  0  0  0  0  0  0  0  0  0
   -2.6440   20.9900  -33.3410 H   0  0  0  0  0  0  0  0  0  0  0  0
   -2.4298   19.2728  -31.0605 H   0  0  0  0  0  0  0  0  0  0  0  0
   -1.1230   18.8543  -32.2524 H   0  0  0  0  0  0  0  0  0  0  0  0
   -0.2993   21.1326  -32.2219 H   0  0  0  0  0  0  0  0  0  0  0  0
   -1.6677   21.6041  -31.0941 H   0  0  0  0  0  0  0  0  0  0  0  0
    0.6251   19.7129  -30.4306 H   0  0  0  0  0  0  0  0  0  0  0  0
    0.4334   21.4375  -29.8852 H   0  0  0  0  0  0  0  0  0  0  0  0
   -2.3092   21.6495  -29.2408 H   0  0  0  0  0  0  0  0  0  0  0  0
   -3.6541   20.9581  -27.2554 H   0  0  0  0  0  0  0  0  0  0  0  0
   -2.9466   18.9689  -25.9152 H   0  0  0  0  0  0  0  0  0  0  0  0
   -0.8809   17.7152  -26.5602 H   0  0  0  0  0  0  0  0  0  0  0  0
    0.4504   18.4648  -28.5359 H   0  0  0  0  0  0  0  0  0  0  0  0
  1  2  1  0
  2  3  1  0
  3  4  1  0
  4  5  1  0
  5  6  1  0
  6  7  1  0
  7  8  1  0
  8  9  2  0
  9 10  1  0
 10 11  2  0
 11 12  1  0
 12 13  2  0
 13 14  1  0
 14 15  2  0
 15 16  1  0
 15 17  1  0
 17 18  2  0
 18 19  1  0
 19 20  2  0
 20 21  1  0
 21 22  1  0
 22 23  1  0
 23 24  1  0
 24 25  1  0
 25 26  1  0
 26 27  2  0
 27 28  1  0
 28 29  2  0
 29 30  1  0
 30 31  2  0
 21 32  2  0
 32  8  1  0
 14  9  1  0
 32 17  1  0
 31 26  1  0
  1 33  1  0
  1 34  1  0
  1 35  1  0
  2 36  1  0
  2 37  1  0
  3 38  1  0
  4 39  1  0
  4 40  1  0
  5 41  1  0
  5 42  1  0
  6 43  1  0
  6 44  1  0
  7 45  1  0
 10 46  1  0
 11 47  1  0
 12 48  1  0
 13 49  1  0
 16 50  1  0
 16 51  1  0
 16 52  1  0
 18 53  1  0
 19 54  1  0
 20 55  1  0
 22 56  1  0
 23 57  1  0
 23 58  1  0
 24 59  1  0
 24 60  1  0
 25 61  1  0
 25 62  1  0
 27 63  1  0
 28 64  1  0
 29 65  1  0
 30 66  1  0
 31 67  1  0
M  CHG  2  15   1  26   1
M  END
>  <UniqueID>  (3) 
3

>  <SMILES>  (3) 
CCNCCCNc1c2ccccc2[n+](C)c2cccc(NCCC[n+]3ccccc3)c12

>  <Energy>  (3) 
93.51565711795621

>  <Genealogy>  (3) 
CCNCCCNc1c2ccccc2[n+](C)c2cccc(NCCC[n+]3ccccc3)c12 (3D coordinates assigned)
CCNCCCNc1c2ccccc2[n+](C)c2cccc(NCCC[n+]3ccccc3)c12 (optimized conformer: 93.51565711795621 kcal/mol)

>  <smiles>  (3) 
CCNCCCNc1c2ccccc2[n+](C)c2cccc(NCCC[n+]3ccccc3)c12

>  <score_type>  (3) 
oracle

>  <origin>  (3) 
adg

>  <m_score__min__energy>  (3) 
-9.5199999999999996

>  <m_primary>  (3) 
energy

$$$$
3:0
     RDKit          3D

 57 59  0  0  0  0  0  0  0  0999 V2000
   -6.1180   25.5910  -29.6030 C   0  0  0  0  0  0  0  0  0  0  0  0
   -5.2720   25.2340  -30.8200 C   0  0  0  0  0  0  0  0  0  0  0  0
   -3.9040   25.1630  -30.4660 O   0  0  0  0  0  0  0  0  0  0  0  0
   -3.7410   24.4500  -29.2570 C   0  0  0  0  0  0  0  0  0  0  0  0
   -4.0300   22.9750  -29.5030 C   0  0  0  0  0  0  0  0  0  0  0  0
   -3.1280   22.4860  -30.4740 O   0  0  0  0  0  0  0  0  0  0  0  0
   -1.8030   22.4960  -29.9750 C   0  0  0  0  0  0  0  0  0  0  0  0
   -0.8320   21.9270  -31.0160 C   0  0  0  0  0  0  0  0  0  0  0  0
   -1.4850   20.9900  -31.8520 O   0  0  0  0  0  0  0  0  0  0  0  0
   -1.8170   21.5560  -33.1070 C   0  0  0  0  0  0  0  0  0  0  0  0
   -3.3350   21.5490  -33.3280 C   0  0  0  0  0  0  0  0  0  0  0  0
   -4.0380   20.8700  -32.2220 N   0  0  0  0  0  0  0  0  0  0  0  0
   -4.7830   19.7160  -32.7000 C   0  0  0  0  0  0  0  0  0  0  0  0
   -4.0670   18.5710  -33.1610 C   0  0  0  0  0  0  0  0  0  0  0  0
   -2.6530   18.5760  -33.2950 C   0  0  0  0  0  0  0  0  0  0  0  0
   -1.9570   17.4380  -33.6930 C   0  0  0  0  0  0  0  0  0  0  0  0
   -2.6410   16.2630  -33.9570 C   0  0  0  0  0  0  0  0  0  0  0  0
   -4.0260   16.2260  -33.8510 C   0  0  0  0  0  0  0  0  0  0  0  0
   -4.7710   17.3790  -33.4840 C   0  0  0  0  0  0  0  0  0  0  0  0
   -6.1440   17.3400  -33.4030 N   0  0  0  0  0  0  0  0  0  0  0  0
   -6.8870   16.2080  -34.0050 C   0  0  0  0  0  0  0  0  0  0  0  0
   -6.8350   18.3680  -32.7970 C   0  0  0  0  0  0  0  0  0  0  0  0
   -8.1750   18.1770  -32.3830 C   0  0  0  0  0  0  0  0  0  0  0  0
   -8.9290   19.2240  -31.8770 C   0  0  0  0  0  0  0  0  0  0  0  0
   -8.3890   20.4940  -31.8150 C   0  0  0  0  0  0  0  0  0  0  0  0
   -7.0590   20.7270  -32.1770 C   0  0  0  0  0  0  0  0  0  0  0  0
   -6.6670   22.4430  -32.2900 Cl  0  0  0  0  0  0  0  0  0  0  0  0
   -6.2090   19.6320  -32.5640 C   0  0  0  0  0  0  0  0  0  0  0  0
   -5.5587   25.3550  -28.6857 H   0  0  0  0  0  0  0  0  0  0  0  0
   -6.3537   26.6653  -29.6226 H   0  0  0  0  0  0  0  0  0  0  0  0
   -7.0520   25.0103  -29.6226 H   0  0  0  0  0  0  0  0  0  0  0  0
   -5.5957   24.2590  -31.2131 H   0  0  0  0  0  0  0  0  0  0  0  0
   -5.4024   26.0126  -31.5861 H   0  0  0  0  0  0  0  0  0  0  0  0
   -2.7083   24.5675  -28.8968 H   0  0  0  0  0  0  0  0  0  0  0  0
   -4.4364   24.8418  -28.5001 H   0  0  0  0  0  0  0  0  0  0  0  0
   -3.9036   22.4130  -28.5659 H   0  0  0  0  0  0  0  0  0  0  0  0
   -5.0632   22.8530  -29.8602 H   0  0  0  0  0  0  0  0  0  0  0  0
   -1.5136   23.5303  -29.7375 H   0  0  0  0  0  0  0  0  0  0  0  0
   -1.7594   21.8723  -29.0700 H   0  0  0  0  0  0  0  0  0  0  0  0
   -0.4413   22.7499  -31.6326 H   0  0  0  0  0  0  0  0  0  0  0  0
   -0.0098   21.4187  -30.4910 H   0  0  0  0  0  0  0  0  0  0  0  0
   -1.4531   22.5935  -33.1414 H   0  0  0  0  0  0  0  0  0  0  0  0
   -1.3445   20.9558  -33.8985 H   0  0  0  0  0  0  0  0  0  0  0  0
   -3.6916   22.5875  -33.3945 H   0  0  0  0  0  0  0  0  0  0  0  0
   -3.5464   21.0028  -34.2591 H   0  0  0  0  0  0  0  0  0  0  0  0
   -3.3550   20.5730  -31.4900 H   0  0  0  0  0  0  0  0  0  0  0  0
   -4.6450   21.5250  -31.6910 H   0  0  0  0  0  0  0  0  0  0  0  0
   -2.0956   19.4995  -33.0795 H   0  0  0  0  0  0  0  0  0  0  0  0
   -0.8625   17.4720  -33.7979 H   0  0  0  0  0  0  0  0  0  0  0  0
   -2.0877   15.3588  -34.2507 H   0  0  0  0  0  0  0  0  0  0  0  0
   -4.5568   15.2845  -34.0555 H   0  0  0  0  0  0  0  0  0  0  0  0
   -7.3020   15.5757  -33.2063 H   0  0  0  0  0  0  0  0  0  0  0  0
   -7.7061   16.5968  -34.6278 H   0  0  0  0  0  0  0  0  0  0  0  0
   -6.2044   15.6112  -34.6278 H   0  0  0  0  0  0  0  0  0  0  0  0
   -8.6270   17.1775  -32.4645 H   0  0  0  0  0  0  0  0  0  0  0  0
   -9.9556   19.0440  -31.5254 H   0  0  0  0  0  0  0  0  0  0  0  0
   -9.0141   21.3333  -31.4762 H   0  0  0  0  0  0  0  0  0  0  0  0
  1  2  1  0
  2  3  1  0
  3  4  1  0
  4  5  1  0
  5  6  1  0
  6  7  1  0
  7  8  1  0
  8  9  1  0
  9 10  1  0
 10 11  1  0
 11 12  1  0
 12 13  1  0
 13 14  2  0
 14 15  1  0
 15 16  2  0
 16 17  1  0
 17 18  2  0
 18 19  1  0
 19 20  2  0
 20 21  1  0
 20 22  1  0
 22 23  2  0
 23 24  1  0
 24 25  2  0
 25 26  1  0
 26 27  1  0
 26 28  2  0
 28 13  1  0
 19 14  1  0
 28 22  1  0
  1 29  1  0
  1 30  1  0
  1 31  1  0
  2 32  1  0
  2 33  1  0
  4 34  1  0
  4 35  1  0
  5 36  1  0
  5 37  1  0
  7 38  1  0
  7 39  1  0
  8 40  1  0
  8 41  1  0
 10 42  1  0
 10 43  1  0
 11 44  1  0
 11 45  1  0
 12 46  1  0
 12 47  1  0
 15 48  1  0
 16 49  1  0
 17 50  1  0
 18 51  1  0
 21 52  1  0
 21 53  1  0
 21 54  1  0
 23 55  1  0
 24 56  1  0
 25 57  1  0
M  CHG  2  12   1  20   1
M  END
>  <UniqueID>  (4) 
4

>  <SMILES>  (4) 
CCOCCOCCOCC[NH2+]c1c2ccccc2[n+](C)c2cccc(Cl)c12

>  <Energy>  (4) 
98.14830744457738

>  <Genealogy>  (4) 
CCOCCOCCOCC[NH2+]c1c2ccccc2[n+](C)c2cccc(Cl)c12 (protonated)
CCOCCOCCOCC[NH2+]c1c2ccccc2[n+](C)c2cccc(Cl)c12 (3D coordinates assigned)
CCOCCOCCOCC[NH2+]c1c2ccccc2[n+](C)c2cccc(Cl)c12 (optimized conformer: 98.14830744457738 kcal/mol)

>  <smiles>  (4) 
CCOCCOCCOCCNc1c2ccccc2[n+](C)c2cccc(Cl)c12

>  <score_type>  (4) 
oracle

>  <origin>  (4) 
adg

>  <m_score__min__energy>  (4) 
-8.5800000000000001

>  <m_primary>  (4) 
energy

$$$$
4:0
     RDKit          3D

 77 80  0  0  0  0  0  0  0  0999 V2000
    0.3400   21.5250  -36.0900 C   0  0  0  0  0  0  0  0  0  0  0  0
   -0.4770   20.8620  -34.9910 C   0  0  0  0  0  0  0  0  0  0  0  0
   -0.2840   21.5790  -33.7790 O   0  0  0  0  0  0  0  0  0  0  0  0
   -0.3790   20.7790  -32.6550 N   0  0  1  0  0  0  0  0  0  0  0  0
    0.8500   19.9910  -32.4040 C   0  0  0  0  0  0  0  0  0  0  0  0
    0.7320   19.1100  -31.1600 C   0  0  0  0  0  0  0  0  0  0  0  0
   -0.8500   21.4830  -31.4350 C   0  0  0  0  0  0  0  0  0  0  0  0
   -2.3530   21.8090  -31.4810 C   0  0  0  0  0  0  0  0  0  0  0  0
   -2.9940   21.2920  -32.6920 N   0  0  0  0  0  0  0  0  0  0  0  0
   -4.3590   20.8370  -32.7090 C   0  0  0  0  0  0  0  0  0  0  0  0
   -5.3780   21.7220  -32.3010 C   0  0  0  0  0  0  0  0  0  0  0  0
   -5.0780   23.0530  -31.9330 C   0  0  0  0  0  0  0  0  0  0  0  0
   -6.0780   23.9120  -31.4850 C   0  0  0  0  0  0  0  0  0  0  0  0
   -7.3970   23.4780  -31.4290 C   0  0  0  0  0  0  0  0  0  0  0  0
   -7.7240   22.1830  -31.8280 C   0  0  0  0  0  0  0  0  0  0  0  0
   -6.7230   21.2760  -32.2670 C   0  0  0  0  0  0  0  0  0  0  0  0
   -7.0390   20.0050  -32.7040 N   0  0  0  0  0  0  0  0  0  0  0  0
   -8.3910   19.4540  -32.4590 C   0  0  0  0  0  0  0  0  0  0  0  0
   -6.0960   19.2530  -33.3770 C   0  0  0  0  0  0  0  0  0  0  0  0
   -6.4790   18.1610  -34.1890 C   0  0  0  0  0  0  0  0  0  0  0  0
   -5.5360   17.4120  -34.8800 C   0  0  0  0  0  0  0  0  0  0  0  0
   -4.1870   17.6860  -34.7360 C   0  0  0  0  0  0  0  0  0  0  0  0
   -3.7470   18.7240  -33.8980 C   0  0  0  0  0  0  0  0  0  0  0  0
   -2.3780   18.8860  -33.6220 O   0  0  0  0  0  0  0  0  0  0  0  0
   -1.3310   17.9650  -33.9410 C   0  0  0  0  0  0  0  0  0  0  0  0
   -1.1740   16.7780  -32.9480 C   0  0  0  0  0  0  0  0  0  0  0  0
   -1.8800   15.4860  -33.2660 N   0  0  0  0  0  0  0  0  0  0  0  0
   -1.0910   14.4140  -32.5900 C   0  0  0  0  0  0  0  0  0  0  0  0
   -3.2690   15.4870  -32.7170 C   0  0  0  0  0  0  0  0  0  0  0  0
   -4.0340   14.1680  -32.9700 C   0  0  0  0  0  0  0  0  0  0  0  0
   -3.7350   13.5450  -34.3450 C   0  0  0  0  0  0  0  0  0  0  0  0
   -3.1350   14.5580  -35.3180 C   0  0  0  0  0  0  0  0  0  0  0  0
   -1.8650   15.2380  -34.7530 C   0  0  0  0  0  0  0  0  0  0  0  0
   -4.7130   19.5960  -33.3050 C   0  0  0  0  0  0  0  0  0  0  0  0
    1.1186   22.1568  -35.6377 H   0  0  0  0  0  0  0  0  0  0  0  0
    0.8120   20.7514  -36.7135 H   0  0  0  0  0  0  0  0  0  0  0  0
   -0.3199   22.1462  -36.7135 H   0  0  0  0  0  0  0  0  0  0  0  0
   -1.5427   20.8764  -35.2631 H   0  0  0  0  0  0  0  0  0  0  0  0
   -0.1530   19.8186  -34.8630 H   0  0  0  0  0  0  0  0  0  0  0  0
   -1.1160   20.0790  -32.8960 H   0  0  0  0  0  0  0  0  0  0  0  0
    1.0418   19.3480  -33.2756 H   0  0  0  0  0  0  0  0  0  0  0  0
    1.6749   20.6992  -32.2371 H   0  0  0  0  0  0  0  0  0  0  0  0
    0.8157   19.7351  -30.2587 H   0  0  0  0  0  0  0  0  0  0  0  0
   -0.2425   18.5998  -31.1631 H   0  0  0  0  0  0  0  0  0  0  0  0
    1.5379   18.3613  -31.1631 H   0  0  0  0  0  0  0  0  0  0  0  0
   -0.6552   20.8429  -30.5619 H   0  0  0  0  0  0  0  0  0  0  0  0
   -0.3049   22.4362  -31.3699 H   0  0  0  0  0  0  0  0  0  0  0  0
   -2.8400   21.3598  -30.6029 H   0  0  0  0  0  0  0  0  0  0  0  0
   -2.4614   22.9036  -31.4824 H   0  0  0  0  0  0  0  0  0  0  0  0
   -2.3940   21.0880  -33.5230 H   0  0  0  0  0  0  0  0  0  0  0  0
   -4.0415   23.4149  -32.0013 H   0  0  0  0  0  0  0  0  0  0  0  0
   -5.8235   24.9362  -31.1748 H   0  0  0  0  0  0  0  0  0  0  0  0
   -8.1840   24.1572  -31.0694 H   0  0  0  0  0  0  0  0  0  0  0  0
   -8.7746   21.8582  -31.8024 H   0  0  0  0  0  0  0  0  0  0  0  0
   -8.5669   19.3823  -31.3755 H   0  0  0  0  0  0  0  0  0  0  0  0
   -9.1443   20.1169  -32.9097 H   0  0  0  0  0  0  0  0  0  0  0  0
   -8.4664   18.4534  -32.9097 H   0  0  0  0  0  0  0  0  0  0  0  0
   -7.5441   17.8998  -34.2750 H   0  0  0  0  0  0  0  0  0  0  0  0
   -5.8621   16.5981  -35.5442 H   0  0  0  0  0  0  0  0  0  0  0  0
   -3.4493   17.0827  -35.2853 H   0  0  0  0  0  0  0  0  0  0  0  0
   -1.5340   17.5501  -34.9393 H   0  0  0  0  0  0  0  0  0  0  0  0
   -0.3925   18.5363  -33.8879 H   0  0  0  0  0  0  0  0  0  0  0  0
   -0.0996   16.5533  -32.8755 H   0  0  0  0  0  0  0  0  0  0  0  0
   -1.6543   17.1307  -32.0234 H   0  0  0  0  0  0  0  0  0  0  0  0
   -1.1756   14.5289  -31.4993 H   0  0  0  0  0  0  0  0  0  0  0  0
   -1.4814   13.4292  -32.8863 H   0  0  0  0  0  0  0  0  0  0  0  0
   -0.0347   14.4940  -32.8863 H   0  0  0  0  0  0  0  0  0  0  0  0
   -3.2139   15.6546  -31.6312 H   0  0  0  0  0  0  0  0  0  0  0  0
   -3.8207   16.2850  -33.2354 H   0  0  0  0  0  0  0  0  0  0  0  0
   -3.7513   13.4454  -32.1904 H   0  0  0  0  0  0  0  0  0  0  0  0
   -5.1080   14.4046  -32.9461 H   0  0  0  0  0  0  0  0  0  0  0  0
   -3.0232   12.7170  -34.2117 H   0  0  0  0  0  0  0  0  0  0  0  0
   -4.6858   13.1905  -34.7696 H   0  0  0  0  0  0  0  0  0  0  0  0
   -2.8721   14.0385  -36.2512 H   0  0  0  0  0  0  0  0  0  0  0  0
   -3.8865   15.3424  -35.4913 H   0  0  0  0  0  0  0  0  0  0  0  0
   -1.0031   14.5942  -34.9824 H   0  0  0  0  0  0  0  0  0  0  0  0
   -1.8108   16.2286  -35.2282 H   0  0  0  0  0  0  0  0  0  0  0  0
  1  2  1  0
  2  3  1  0
  3  4  1  0
  4  5  1  0
  5  6  1  0
  4  7  1  0
  7  8  1  0
  8  9  1  0
  9 10  1  0
 10 11  2  0
 11 12  1  0
 12 13  2  0
 13 14  1  0
 14 15  2  0
 15 16  1  0
 16 17  2  0
 17 18  1  0
 17 19  1  0
 19 20  2  0
 20 21  1  0
 21 22  2  0
 22 23  1  0
 23 24  1  0
 24 25  1  0
 25 26  1  0
 26 27  1  0
 27 28  1  0
 27 29  1  0
 29 30  1  0
 30 31  1  0
 31 32  1  0
 32 33  1  0
 23 34  2  0
 34 10  1  0
 16 11  1  0
 34 19  1  0
 33 27  1  0
  1 35  1  0
  1 36  1  0
  1 37  1  0
  2 38  1  0
  2 39  1  0
  4 40  1  6
  5 41  1  0
  5 42  1  0
  6 43  1  0
  6 44  1  0
  6 45  1  0
  7 46  1  0
  7 47  1  0
  8 48  1  0
  8 49  1  0
  9 50  1  0
 12 51  1  0
 13 52  1  0
 14 53  1  0
 15 54  1  0
 18 55  1  0
 18 56  1  0
 18 57  1  0
 20 58  1  0
 21 59  1  0
 22 60  1  0
 25 61  1  0
 25 62  1  0
 26 63  1  0
 26 64  1  0
 28 65  1  0
 28 66  1  0
 28 67  1  0
 29 68  1  0
 29 69  1  0
 30 70  1  0
 30 71  1  0
 31 72  1  0
 31 73  1  0
 32 74  1  0
 32 75  1  0
 33 76  1  0
 33 77  1  0
M  CHG  3   4   1  17   1  27   1
M  END
>  <UniqueID>  (5) 
5

>  <SMILES>  (5) 
CCO[N@@H+](CC)CCNc1c2ccccc2[n+](C)c2cccc(OCC[N+]3(C)CCCCC3)c12

>  <Energy>  (5) 
137.91993326601335

>  <Genealogy>  (5) 
CCO[NH+](CC)CCNc1c2ccccc2[n+](C)c2cccc(OCC[N+]3(C)CCCCC3)c12 (protonated)
CCO[N@@H+](CC)CCNc1c2ccccc2[n+](C)c2cccc(OCC[N+]3(C)CCCCC3)c12 (chirality)
CCO[N@@H+](CC)CCNc1c2ccccc2[n+](C)c2cccc(OCC[N+]3(C)CCCCC3)c12 (3D coordinates assigned)
CCO[N@@H+](CC)CCNc1c2ccccc2[n+](C)c2cccc(OCC[N+]3(C)CCCCC3)c12 (nonaromatic ring conformer: 137.91993326601335 kcal/mol)

>  <smiles>  (5) 
CCON(CC)CCNc1c2ccccc2[n+](C)c2cccc(OCC[N+]3(C)CCCCC3)c12

>  <score_type>  (5) 
oracle

>  <origin>  (5) 
adg

>  <m_score__min__energy>  (5) 
-8.0199999999999996

>  <m_primary>  (5) 
energy

$$$$
5:0
     RDKit          3D

 57 60  0  0  0  0  0  0  0  0999 V2000
   -6.4640   25.1800  -29.6820 C   0  0  0  0  0  0  0  0  0  0  0  0
   -5.2530   25.6780  -30.4650 C   0  0  0  0  0  0  0  0  0  0  0  0
   -4.3600   24.5560  -30.7870 N   0  0  0  0  0  0  0  0  0  0  0  0
   -3.9610   23.7950  -29.5900 C   0  0  0  0  0  0  0  0  0  0  0  0
   -2.4870   23.3770  -29.6850 C   0  0  0  0  0  0  0  0  0  0  0  0
   -2.2080   21.9590  -29.1670 C   0  0  0  0  0  0  0  0  0  0  0  0
   -1.4170   21.1810  -30.1390 N   0  0  0  0  0  0  0  0  0  0  0  0
   -2.2100   20.6840  -31.2770 C   0  0  0  0  0  0  0  0  0  0  0  0
   -1.9260   21.4780  -32.5590 C   0  0  0  0  0  0  0  0  0  0  0  0
   -2.7610   21.0170  -33.6710 N   0  0  0  0  0  0  0  0  0  0  0  0
   -3.8670   20.1360  -33.4320 C   0  0  0  0  0  0  0  0  0  0  0  0
   -5.0640   20.6220  -32.9170 C   0  0  0  0  0  0  0  0  0  0  0  0
   -6.1400   19.7790  -32.6910 C   0  0  0  0  0  0  0  0  0  0  0  0
   -6.0750   18.4290  -32.9200 N   0  0  0  0  0  0  0  0  0  0  0  0
   -7.1990   17.5600  -32.5290 C   0  0  0  0  0  0  0  0  0  0  0  0
   -4.9350   17.9180  -33.5250 C   0  0  0  0  0  0  0  0  0  0  0  0
   -4.8570   16.5670  -33.9430 C   0  0  0  0  0  0  0  0  0  0  0  0
   -3.6930   16.0580  -34.5170 C   0  0  0  0  0  0  0  0  0  0  0  0
   -2.5810   16.8750  -34.6960 C   0  0  0  0  0  0  0  0  0  0  0  0
   -2.6310   18.2170  -34.3280 C   0  0  0  0  0  0  0  0  0  0  0  0
   -3.8010   18.7640  -33.7640 C   0  0  0  0  0  0  0  0  0  0  0  0
   -7.2730   20.6120  -32.2500 C   0  0  0  0  0  0  0  0  0  0  0  0
   -8.5630   20.2610  -32.0180 N   0  0  0  0  0  0  0  0  0  0  0  0
   -9.4770   21.2190  -31.6850 C   0  0  0  0  0  0  0  0  0  0  0  0
   -9.0960   22.5750  -31.6060 C   0  0  0  0  0  0  0  0  0  0  0  0
   -7.7690   22.9430  -31.8800 C   0  0  0  0  0  0  0  0  0  0  0  0
   -6.8700   21.9300  -32.2020 C   0  0  0  0  0  0  0  0  0  0  0  0
   -5.4770   21.9960  -32.6130 C   0  0  0  0  0  0  0  0  0  0  0  0
   -4.7890   23.0400  -32.7390 O   0  0  0  0  0  0  0  0  0  0  0  0
   -6.2628   25.2627  -28.6037 H   0  0  0  0  0  0  0  0  0  0  0  0
   -7.3428   25.7897  -29.9389 H   0  0  0  0  0  0  0  0  0  0  0  0
   -6.6596   24.1284  -29.9389 H   0  0  0  0  0  0  0  0  0  0  0  0
   -5.5931   26.1510  -31.3981 H   0  0  0  0  0  0  0  0  0  0  0  0
   -4.7048   26.4083  -29.8517 H   0  0  0  0  0  0  0  0  0  0  0  0
   -3.4920   24.9540  -31.2190 H   0  0  0  0  0  0  0  0  0  0  0  0
   -4.1024   24.4230  -28.6980 H   0  0  0  0  0  0  0  0  0  0  0  0
   -4.5833   22.8907  -29.5197 H   0  0  0  0  0  0  0  0  0  0  0  0
   -2.1801   23.4269  -30.7402 H   0  0  0  0  0  0  0  0  0  0  0  0
   -1.9173   24.0681  -29.0464 H   0  0  0  0  0  0  0  0  0  0  0  0
   -1.6494   22.0259  -28.2218 H   0  0  0  0  0  0  0  0  0  0  0  0
   -3.1705   21.4489  -29.0140 H   0  0  0  0  0  0  0  0  0  0  0  0
   -1.0280   20.3450  -29.6430 H   0  0  0  0  0  0  0  0  0  0  0  0
   -1.9605   19.6268  -31.4502 H   0  0  0  0  0  0  0  0  0  0  0  0
   -3.2752   20.8032  -31.0297 H   0  0  0  0  0  0  0  0  0  0  0  0
   -2.1330   22.5423  -32.3737 H   0  0  0  0  0  0  0  0  0  0  0  0
   -0.8714   21.3265  -32.8328 H   0  0  0  0  0  0  0  0  0  0  0  0
   -2.3980   21.0750  -34.6500 H   0  0  0  0  0  0  0  0  0  0  0  0
   -7.2610   17.5121  -31.4318 H   0  0  0  0  0  0  0  0  0  0  0  0
   -8.1369   17.9702  -32.9317 H   0  0  0  0  0  0  0  0  0  0  0  0
   -7.0382   16.5491  -32.9317 H   0  0  0  0  0  0  0  0  0  0  0  0
   -5.7287   15.9089  -33.8127 H   0  0  0  0  0  0  0  0  0  0  0  0
   -3.6534   15.0043  -34.8302 H   0  0  0  0  0  0  0  0  0  0  0  0
   -1.6595   16.4594  -35.1296 H   0  0  0  0  0  0  0  0  0  0  0  0
   -1.7487   18.8564  -34.4790 H   0  0  0  0  0  0  0  0  0  0  0  0
  -10.5181   20.9314  -31.4768 H   0  0  0  0  0  0  0  0  0  0  0  0
   -9.8358   23.3412  -31.3308 H   0  0  0  0  0  0  0  0  0  0  0  0
   -7.4508   23.9953  -31.8416 H   0  0  0  0  0  0  0  0  0  0  0  0
  1  2  1  0
  2  3  1  0
  3  4  1  0
  4  5  1  0
  5  6  1  0
  6  7  1  0
  7  8  1  0
  8  9  1  0
  9 10  1  0
 10 11  1  0
 11 12  2  0
 12 13  1  0
 13 14  2  0
 14 15  1  0
 14 16  1  0
 16 17  2  0
 17 18  1  0
 18 19  2  0
 19 20  1  0
 20 21  2  0
 13 22  1  0
 22 23  2  0
 23 24  1  0
 24 25  2  0
 25 26  1  0
 26 27  2  0
 27 28  1  0
 28 29  2  0
 21 11  1  0
 27 22  1  0
 28 12  1  0
 21 16  1  0
  1 30  1  0
  1 31  1  0
  1 32  1  0
  2 33  1  0
  2 34  1  0
  3 35  1  0
  4 36  1  0
  4 37  1  0
  5 38  1  0
  5 39  1  0
  6 40  1  0
  6 41  1  0
  7 42  1  0
  8 43  1  0
  8 44  1  0
  9 45  1  0
  9 46  1  0
 10 47  1  0
 15 48  1  0
 15 49  1  0
 15 50  1  0
 17 51  1  0
 18 52  1  0
 19 53  1  0
 20 54  1  0
 24 55  1  0
 25 56  1  0
 26 57  1  0
M  CHG  1  14   1
M  END
>  <UniqueID>  (6) 
6

>  <SMILES>  (6) 
CCNCCCNCCNc1c2c([n+](C)c3ccccc13)-c1ncccc1C2=O

>  <Energy>  (6) 
107.37642211281484

>  <Genealogy>  (6) 
CCNCCCNCCNc1c2c([n+](C)c3ccccc13)-c1ncccc1C2=O (3D coordinates assigned)
CCNCCCNCCNc1c2c([n+](C)c3ccccc13)-c1ncccc1C2=O (nonaromatic ring conformer: 107.37642211281484 kcal/mol)

>  <smiles>  (6) 
CCNCCCNCCNc1c2c([n+](C)c3ccccc13)-c1ncccc1C2=O

>  <score_type>  (6) 
oracle

>  <origin>  (6) 
adg

>  <m_score__min__energy>  (6) 
-8.8599999999999994

>  <m_primary>  (6) 
energy

$$$$
6:0
     RDKit          3D

 33 34  0  0  0  0  0  0  0  0999 V2000
   -0.3310   26.4250  -23.9290 C   0  0  0  0  0  0  0  0  0  0  0  0
   -0.7620   26.0660  -25.3200 C   0  0  0  0  0  0  0  0  0  0  0  0
   -1.5660   24.9390  -25.5430 C   0  0  0  0  0  0  0  0  0  0  0  0
   -1.9990   24.6270  -26.8350 C   0  0  0  0  0  0  0  0  0  0  0  0
   -1.6340   25.4330  -27.9230 C   0  0  0  0  0  0  0  0  0  0  0  0
   -2.1130   25.1000  -29.2360 N   0  0  0  0  0  0  0  0  0  0  0  0
   -3.4300   24.5910  -29.5090 C   0  0  0  0  0  0  0  0  0  0  0  0
   -4.2270   24.3350  -28.5660 O   0  0  0  0  0  0  0  0  0  0  0  0
   -3.8530   24.3320  -30.8530 N   0  0  0  0  0  0  0  0  0  0  0  0
   -5.0200   23.5950  -31.2390 C   0  0  0  0  0  0  0  0  0  0  0  0
   -4.9220   22.3820  -31.9440 C   0  0  0  0  0  0  0  0  0  0  0  0
   -6.0800   21.6960  -32.3450 C   0  0  0  0  0  0  0  0  0  0  0  0
   -5.9700   20.3780  -33.0500 C   0  0  0  0  0  0  0  0  0  0  0  0
   -7.3400   22.2260  -32.0280 C   0  0  0  0  0  0  0  0  0  0  0  0
   -7.4400   23.4460  -31.3540 C   0  0  0  0  0  0  0  0  0  0  0  0
   -6.2860   24.1340  -30.9700 C   0  0  0  0  0  0  0  0  0  0  0  0
   -6.3990   25.3190  -30.3200 F   0  0  0  0  0  0  0  0  0  0  0  0
   -0.8630   26.5860  -27.6920 C   0  0  0  0  0  0  0  0  0  0  0  0
   -0.4300   26.8990  -26.4000 C   0  0  0  0  0  0  0  0  0  0  0  0
   -0.9647   25.8972  -23.2011 H   0  0  0  0  0  0  0  0  0  0  0  0
    0.7187   26.1304  -23.7829 H   0  0  0  0  0  0  0  0  0  0  0  0
   -0.4309   27.5107  -23.7829 H   0  0  0  0  0  0  0  0  0  0  0  0
   -1.8571   24.2979  -24.6979 H   0  0  0  0  0  0  0  0  0  0  0  0
   -2.6312   23.7420  -26.9996 H   0  0  0  0  0  0  0  0  0  0  0  0
   -1.4860   25.3160  -30.0420 H   0  0  0  0  0  0  0  0  0  0  0  0
   -3.9314   21.9677  -32.1830 H   0  0  0  0  0  0  0  0  0  0  0  0
   -5.9025   19.5694  -32.3073 H   0  0  0  0  0  0  0  0  0  0  0  0
   -6.8584   20.2239  -33.6801 H   0  0  0  0  0  0  0  0  0  0  0  0
   -5.0683   20.3733  -33.6801 H   0  0  0  0  0  0  0  0  0  0  0  0
   -8.2517   21.6795  -32.3109 H   0  0  0  0  0  0  0  0  0  0  0  0
   -8.4305   23.8662  -31.1250 H   0  0  0  0  0  0  0  0  0  0  0  0
   -0.5992   27.2452  -28.5322 H   0  0  0  0  0  0  0  0  0  0  0  0
    0.1738   27.8024  -26.2290 H   0  0  0  0  0  0  0  0  0  0  0  0
  1  2  1  0
  2  3  2  0
  3  4  1  0
  4  5  2  0
  5  6  1  0
  6  7  1  0
  7  8  2  0
  7  9  1  0
  9 10  1  0
 10 11  2  0
 11 12  1  0
 12 13  1  0
 12 14  2  0
 14 15  1  0
 15 16  2  0
 16 17  1  0
  5 18  1  0
 18 19  2  0
 19  2  1  0
 16 10  1  0
  1 20  1  0
  1 21  1  0
  1 22  1  0
  3 23  1  0
  4 24  1  0
  6 25  1  0
 11 26  1  0
 13 27  1  0
 13 28  1  0
 13 29  1  0
 14 30  1  0
 15 31  1  0
 18 32  1  0
 19 33  1  0
M  CHG  1   9  -1
M  END
>  <UniqueID>  (7) 
7

>  <SMILES>  (7) 
Cc1ccc(NC(=O)[N-]c2cc(C)ccc2F)cc1

>  <Energy>  (7) 
40.16350591612033

>  <Genealogy>  (7) 
Cc1ccc(NC(=O)[N-]c2cc(C)ccc2F)cc1 (protonated)
Cc1ccc(NC(=O)[N-]c2cc(C)ccc2F)cc1 (3D coordinates assigned)
Cc1ccc(NC(=O)[N-]c2cc(C)ccc2F)cc1 (optimized conformer: 40.16350591612033 kcal/mol)

>  <smiles>  (7) 
Cc1ccc(NC(=O)Nc2cc(C)ccc2F)cc1

>  <score_type>  (7) 
oracle

>  <origin>  (7) 
adg

>  <m_score__min__energy>  (7) 
-8.5700000000000003

>  <m_primary>  (7) 
energy

$$$$
7:0
     RDKit          3D

 43 43  0  0  0  0  0  0  0  0999 V2000
   -1.4610   25.8890  -26.5360 C   0  0  0  0  0  0  0  0  0  0  0  0
   -0.8650   26.4350  -27.8290 C   0  0  0  0  0  0  0  0  0  0  0  0
   -1.2880   25.6570  -28.9340 O   0  0  0  0  0  0  0  0  0  0  0  0
   -0.7340   24.3540  -28.8910 C   0  0  0  0  0  0  0  0  0  0  0  0
   -1.8270   23.2960  -29.0680 C   0  0  0  0  0  0  0  0  0  0  0  0
   -2.7660   23.3720  -28.0100 O   0  0  0  0  0  0  0  0  0  0  0  0
   -3.8970   24.1230  -28.4020 C   0  0  0  0  0  0  0  0  0  0  0  0
   -4.0850   23.9990  -29.9080 C   0  0  0  0  0  0  0  0  0  0  0  0
   -4.0420   25.2840  -30.4940 O   0  0  0  0  0  0  0  0  0  0  0  0
   -5.3330   25.8640  -30.5060 C   0  0  0  0  0  0  0  0  0  0  0  0
   -6.4020   24.7720  -30.4300 C   0  0  0  0  0  0  0  0  0  0  0  0
   -6.4170   23.9950  -31.6280 O   0  0  0  0  0  0  0  0  0  0  0  0
   -7.1090   22.7860  -31.8090 C   0  0  0  0  0  0  0  0  0  0  0  0
   -8.4920   22.6630  -31.5740 C   0  0  0  0  0  0  0  0  0  0  0  0
   -9.1380   21.4390  -31.7690 C   0  0  0  0  0  0  0  0  0  0  0  0
   -8.4160   20.3210  -32.2110 C   0  0  0  0  0  0  0  0  0  0  0  0
   -9.1020   18.9970  -32.3810 C   0  0  0  0  0  0  0  0  0  0  0  0
   -7.0360   20.4330  -32.4260 C   0  0  0  0  0  0  0  0  0  0  0  0
   -6.3870   21.6580  -32.2330 C   0  0  0  0  0  0  0  0  0  0  0  0
   -4.5020   21.7720  -32.5490 Br  0  0  0  0  0  0  0  0  0  0  0  0
   -0.9559   26.3517  -25.6754 H   0  0  0  0  0  0  0  0  0  0  0  0
   -2.5352   26.1229  -26.5000 H   0  0  0  0  0  0  0  0  0  0  0  0
   -1.3218   24.7984  -26.5000 H   0  0  0  0  0  0  0  0  0  0  0  0
   -1.1955   27.4747  -27.9699 H   0  0  0  0  0  0  0  0  0  0  0  0
    0.2322   26.3932  -27.7620 H   0  0  0  0  0  0  0  0  0  0  0  0
    0.0049   24.2488  -29.6990 H   0  0  0  0  0  0  0  0  0  0  0  0
   -0.2530   24.2059  -27.9129 H   0  0  0  0  0  0  0  0  0  0  0  0
   -2.3440   23.4658  -30.0240 H   0  0  0  0  0  0  0  0  0  0  0  0
   -1.3621   22.2991  -29.0606 H   0  0  0  0  0  0  0  0  0  0  0  0
   -4.7899   23.7387  -27.8872 H   0  0  0  0  0  0  0  0  0  0  0  0
   -3.7489   25.1797  -28.1345 H   0  0  0  0  0  0  0  0  0  0  0  0
   -3.2809   23.3770  -30.3282 H   0  0  0  0  0  0  0  0  0  0  0  0
   -5.0579   23.5313  -30.1194 H   0  0  0  0  0  0  0  0  0  0  0  0
   -5.4377   26.5361  -29.6416 H   0  0  0  0  0  0  0  0  0  0  0  0
   -5.4638   26.4309  -31.4396 H   0  0  0  0  0  0  0  0  0  0  0  0
   -6.1855   24.1138  -29.5756 H   0  0  0  0  0  0  0  0  0  0  0  0
   -7.3856   25.2485  -30.3056 H   0  0  0  0  0  0  0  0  0  0  0  0
   -9.0680   23.5365  -31.2345 H   0  0  0  0  0  0  0  0  0  0  0  0
  -10.2173   21.3523  -31.5749 H   0  0  0  0  0  0  0  0  0  0  0  0
   -9.3236   18.5692  -31.3921 H   0  0  0  0  0  0  0  0  0  0  0  0
  -10.0400   19.1389  -32.9377 H   0  0  0  0  0  0  0  0  0  0  0  0
   -8.4451   18.3125  -32.9377 H   0  0  0  0  0  0  0  0  0  0  0  0
   -6.4595   19.5534  -32.7482 H   0  0  0  0  0  0  0  0  0  0  0  0
  1  2  1  0
  2  3  1  0
  3  4  1  0
  4  5  1  0
  5  6  1  0
  6  7  1  0
  7  8  1  0
  8  9  1  0
  9 10  1  0
 10 11  1  0
 11 12  1  0
 12 13  1  0
 13 14  2  0
 14 15  1  0
 15 16  2  0
 16 17  1  0
 16 18  1  0
 18 19  2  0
 19 20  1  0
 19 13  1  0
  1 21  1  0
  1 22  1  0
  1 23  1  0
  2 24  1  0
  2 25  1  0
  4 26  1  0
  4 27  1  0
  5 28  1  0
  5 29  1  0
  7 30  1  0
  7 31  1  0
  8 32  1  0
  8 33  1  0
 10 34  1  0
 10 35  1  0
 11 36  1  0
 11 37  1  0
 14 38  1  0
 15 39  1  0
 17 40  1  0
 17 41  1  0
 17 42  1  0
 18 43  1  0
M  END
>  <UniqueID>  (8) 
8

>  <SMILES>  (8) 
CCOCCOCCOCCOc1ccc(C)cc1Br

>  <Energy>  (8) 
38.94099480606695

>  <Genealogy>  (8) 
CCOCCOCCOCCOc1ccc(C)cc1Br (3D coordinates assigned)
CCOCCOCCOCCOc1ccc(C)cc1Br (optimized conformer: 38.94099480606695 kcal/mol)

>  <smiles>  (8) 
CCOCCOCCOCCOc1ccc(C)cc1Br

>  <score_type>  (8) 
oracle

>  <origin>  (8) 
adg

>  <m_score__min__energy>  (8) 
-7.5199999999999996

>  <m_primary>  (8) 
energy

$$$$
8:0
     RDKit          3D

 46 47  0  0  0  0  0  0  0  0999 V2000
   -0.1350   23.0160  -24.3250 C   0  0  0  0  0  0  0  0  0  0  0  0
    0.4390   23.2810  -25.7130 C   0  0  0  0  0  0  0  0  0  0  0  0
   -0.1550   22.4170  -26.6640 O   0  0  0  0  0  0  0  0  0  0  0  0
   -1.1680   21.6400  -26.0610 C   0  0  0  0  0  0  0  0  0  0  0  0
   -1.2260   20.2750  -26.7360 C   0  0  0  0  0  0  0  0  0  0  0  0
   -0.3600   20.2800  -27.8500 O   0  0  0  0  0  0  0  0  0  0  0  0
   -0.9820   19.6840  -28.9740 C   0  0  0  0  0  0  0  0  0  0  0  0
   -1.6720   20.7250  -29.8730 C   0  0  0  0  0  0  0  0  0  0  0  0
   -1.3920   22.0960  -29.4420 N   0  0  0  0  0  0  0  0  0  0  0  0
   -2.2770   23.2000  -29.6910 C   0  0  0  0  0  0  0  0  0  0  0  0
   -2.0570   24.5330  -29.3420 C   0  0  0  0  0  0  0  0  0  0  0  0
   -0.8800   25.0830  -28.6490 C   0  0  0  0  0  0  0  0  0  0  0  0
    0.1780   24.4050  -28.5450 O   0  0  0  0  0  0  0  0  0  0  0  0
   -0.9560   26.3660  -28.0920 O   0  0  0  0  0  0  0  0  0  0  0  0
   -1.0960   26.6070  -26.6940 C   0  0  0  0  0  0  0  0  0  0  0  0
   -2.1600   25.6950  -26.0930 C   0  0  0  0  0  0  0  0  0  0  0  0
   -3.1270   25.2990  -29.6640 N   0  0  0  0  0  0  0  0  0  0  0  0
   -4.0100   24.4470  -30.2190 C   0  0  0  0  0  0  0  0  0  0  0  0
   -5.2680   24.7740  -30.7220 C   0  0  0  0  0  0  0  0  0  0  0  0
   -6.0460   23.7450  -31.2820 C   0  0  0  0  0  0  0  0  0  0  0  0
   -5.5500   22.4250  -31.3360 C   0  0  0  0  0  0  0  0  0  0  0  0
   -4.2760   22.1200  -30.8220 C   0  0  0  0  0  0  0  0  0  0  0  0
   -3.5340   23.1590  -30.2550 C   0  0  0  0  0  0  0  0  0  0  0  0
    0.5839   23.3479  -23.5614 H   0  0  0  0  0  0  0  0  0  0  0  0
   -1.0779   23.5699  -24.2063 H   0  0  0  0  0  0  0  0  0  0  0  0
   -0.3250   21.9391  -24.2063 H   0  0  0  0  0  0  0  0  0  0  0  0
    0.2377   24.3248  -25.9956 H   0  0  0  0  0  0  0  0  0  0  0  0
    1.5235   23.0984  -25.6923 H   0  0  0  0  0  0  0  0  0  0  0  0
   -0.9449   21.5117  -24.9915 H   0  0  0  0  0  0  0  0  0  0  0  0
   -2.1373   22.1477  -26.1733 H   0  0  0  0  0  0  0  0  0  0  0  0
   -0.9091   19.4976  -26.0252 H   0  0  0  0  0  0  0  0  0  0  0  0
   -2.2546   20.0643  -27.0639 H   0  0  0  0  0  0  0  0  0  0  0  0
   -0.2181   19.1564  -29.5640 H   0  0  0  0  0  0  0  0  0  0  0  0
   -1.7522   18.9898  -28.6067 H   0  0  0  0  0  0  0  0  0  0  0  0
   -1.3124   20.5969  -30.9046 H   0  0  0  0  0  0  0  0  0  0  0  0
   -2.7581   20.5638  -29.8064 H   0  0  0  0  0  0  0  0  0  0  0  0
   -0.6020   22.2350  -28.7740 H   0  0  0  0  0  0  0  0  0  0  0  0
   -0.1337   26.4156  -26.1966 H   0  0  0  0  0  0  0  0  0  0  0  0
   -1.4019   27.6530  -26.5447 H   0  0  0  0  0  0  0  0  0  0  0  0
   -2.1055   25.7417  -24.9953 H   0  0  0  0  0  0  0  0  0  0  0  0
   -3.1555   26.0246  -26.4250 H   0  0  0  0  0  0  0  0  0  0  0  0
   -1.9865   24.6608  -26.4250 H   0  0  0  0  0  0  0  0  0  0  0  0
   -5.6418   25.8078  -30.6821 H   0  0  0  0  0  0  0  0  0  0  0  0
   -7.0464   23.9703  -31.6800 H   0  0  0  0  0  0  0  0  0  0  0  0
   -6.1635   21.6289  -31.7830 H   0  0  0  0  0  0  0  0  0  0  0  0
   -3.8770   21.0958  -30.8653 H   0  0  0  0  0  0  0  0  0  0  0  0
  1  2  1  0
  2  3  1  0
  3  4  1  0
  4  5  1  0
  5  6  1  0
  6  7  1  0
  7  8  1  0
  8  9  1  0
  9 10  1  0
 10 11  2  0
 11 12  1  0
 12 13  2  0
 12 14  1  0
 14 15  1  0
 15 16  1  0
 11 17  1  0
 17 18  1  0
 18 19  2  0
 19 20  1  0
 20 21  2  0
 21 22  1  0
 22 23  2  0
 23 10  1  0
 23 18  1  0
  1 24  1  0
  1 25  1  0
  1 26  1  0
  2 27  1  0
  2 28  1  0
  4 29  1  0
  4 30  1  0
  5 31  1  0
  5 32  1  0
  7 33  1  0
  7 34  1  0
  8 35  1  0
  8 36  1  0
  9 37  1  0
 15 38  1  0
 15 39  1  0
 16 40  1  0
 16 41  1  0
 16 42  1  0
 19 43  1  0
 20 44  1  0
 21 45  1  0
 22 46  1  0
M  CHG  1  17  -1
M  END
>  <UniqueID>  (9) 
9

>  <SMILES>  (9) 
CCOCCOCCNc1c(C(=O)OCC)[n-]c2ccccc12

>  <Energy>  (9) 
73.54901921829598

>  <Genealogy>  (9) 
CCOCCOCCNc1c(C(=O)OCC)[n-]c2ccccc12 (protonated)
CCOCCOCCNc1c(C(=O)OCC)[n-]c2ccccc12 (3D coordinates assigned)
CCOCCOCCNc1c(C(=O)OCC)[n-]c2ccccc12 (optimized conformer: 73.54901921829598 kcal/mol)

>  <smiles>  (9) 
CCOCCOCCNc1c(C(=O)OCC)[nH]c2ccccc12

>  <score_type>  (9) 
oracle

>  <origin>  (9) 
adg

>  <m_score__min__energy>  (9) 
-7.25

>  <m_primary>  (9) 
energy

$$$$
9:0
     RDKit          3D

 45 47  0  0  0  0  0  0  0  0999 V2000
   -6.2570   25.3130  -29.5750 C   0  0  0  0  0  0  0  0  0  0  0  0
   -5.4350   25.6450  -30.8110 C   0  0  0  0  0  0  0  0  0  0  0  0
   -4.2280   24.9140  -30.7820 O   0  0  0  0  0  0  0  0  0  0  0  0
   -4.2460   23.9690  -29.7260 C   0  0  0  0  0  0  0  0  0  0  0  0
   -4.4560   22.5440  -30.2720 C   0  0  0  0  0  0  0  0  0  0  0  0
   -4.3840   22.4830  -31.7460 N   0  0  0  0  0  0  0  0  0  0  0  0
   -5.3340   21.5370  -32.3280 C   0  0  0  0  0  0  0  0  0  0  0  0
   -6.7270   21.7580  -32.2000 C   0  0  0  0  0  0  0  0  0  0  0  0
   -7.2680   23.0600  -32.0930 C   0  0  0  0  0  0  0  0  0  0  0  0
   -8.6410   23.2570  -31.9620 C   0  0  0  0  0  0  0  0  0  0  0  0
   -9.5030   22.1690  -31.9630 C   0  0  0  0  0  0  0  0  0  0  0  0
   -9.0000   20.8760  -32.0980 C   0  0  0  0  0  0  0  0  0  0  0  0
   -7.6060   20.6430  -32.2080 C   0  0  0  0  0  0  0  0  0  0  0  0
   -7.0970   19.3670  -32.3250 N   0  0  0  0  0  0  0  0  0  0  0  0
   -7.9320   18.2020  -31.9600 C   0  0  0  0  0  0  0  0  0  0  0  0
   -5.8130   19.1870  -32.8010 C   0  0  0  0  0  0  0  0  0  0  0  0
   -5.3620   17.9130  -33.2270 C   0  0  0  0  0  0  0  0  0  0  0  0
   -4.0600   17.7220  -33.6700 C   0  0  0  0  0  0  0  0  0  0  0  0
   -3.2000   18.8020  -33.7890 C   0  0  0  0  0  0  0  0  0  0  0  0
   -3.6270   20.0920  -33.4600 C   0  0  0  0  0  0  0  0  0  0  0  0
   -2.8030   21.1840  -33.8810 N   0  0  0  0  0  0  0  0  0  0  0  0
   -4.9130   20.2920  -32.8760 C   0  0  0  0  0  0  0  0  0  0  0  0
   -5.6737   25.5486  -28.6726 H   0  0  0  0  0  0  0  0  0  0  0  0
   -7.1822   25.9079  -29.5793 H   0  0  0  0  0  0  0  0  0  0  0  0
   -6.5095   24.2424  -29.5793 H   0  0  0  0  0  0  0  0  0  0  0  0
   -6.0045   25.3773  -31.7132 H   0  0  0  0  0  0  0  0  0  0  0  0
   -5.2118   26.7220  -30.8252 H   0  0  0  0  0  0  0  0  0  0  0  0
   -3.2878   24.0115  -29.1874 H   0  0  0  0  0  0  0  0  0  0  0  0
   -5.0770   24.2132  -29.0479 H   0  0  0  0  0  0  0  0  0  0  0  0
   -3.6777   21.8886  -29.8540 H   0  0  0  0  0  0  0  0  0  0  0  0
   -5.4638   22.2189  -29.9744 H   0  0  0  0  0  0  0  0  0  0  0  0
   -4.5500   23.4580  -32.0740 H   0  0  0  0  0  0  0  0  0  0  0  0
   -3.4120   22.2740  -32.0470 H   0  0  0  0  0  0  0  0  0  0  0  0
   -6.5951   23.9299  -32.1135 H   0  0  0  0  0  0  0  0  0  0  0  0
   -9.0424   24.2758  -31.8577 H   0  0  0  0  0  0  0  0  0  0  0  0
  -10.5863   22.3276  -31.8569 H   0  0  0  0  0  0  0  0  0  0  0  0
   -9.6951   20.0237  -32.1195 H   0  0  0  0  0  0  0  0  0  0  0  0
   -7.9899   18.1212  -30.8645 H   0  0  0  0  0  0  0  0  0  0  0  0
   -8.9435   18.3324  -32.3720 H   0  0  0  0  0  0  0  0  0  0  0  0
   -7.4835   17.2860  -32.3720 H   0  0  0  0  0  0  0  0  0  0  0  0
   -6.0560   17.0598  -33.2064 H   0  0  0  0  0  0  0  0  0  0  0  0
   -3.7105   16.7112  -33.9270 H   0  0  0  0  0  0  0  0  0  0  0  0
   -2.1717   18.6429  -34.1457 H   0  0  0  0  0  0  0  0  0  0  0  0
   -1.8030   21.0220  -34.1350 H   0  0  0  0  0  0  0  0  0  0  0  0
   -3.2460   22.0610  -34.2320 H   0  0  0  0  0  0  0  0  0  0  0  0
  1  2  1  0
  2  3  1  0
  3  4  1  0
  4  5  1  0
  5  6  1  0
  6  7  1  0
  7  8  2  0
  8  9  1  0
  9 10  2  0
 10 11  1  0
 11 12  2  0
 12 13  1  0
 13 14  2  0
 14 15  1  0
 14 16  1  0
 16 17  2  0
 17 18  1  0
 18 19  2  0
 19 20  1  0
 20 21  1  0
 20 22  2  0
 22  7  1  0
 13  8  1  0
 22 16  1  0
  1 23  1  0
  1 24  1  0
  1 25  1  0
  2 26  1  0
  2 27  1  0
  4 28  1  0
  4 29  1  0
  5 30  1  0
  5 31  1  0
  6 32  1  0
  6 33  1  0
  9 34  1  0
 10 35  1  0
 11 36  1  0
 12 37  1  0
 15 38  1  0
 15 39  1  0
 15 40  1  0
 17 41  1  0
 18 42  1  0
 19 43  1  0
 21 44  1  0
 21 45  1  0
M  CHG  2   6   1  14   1
M  END
>  <UniqueID>  (10) 
10

>  <SMILES>  (10) 
CCOCC[NH2+]c1c2ccccc2[n+](C)c2cccc(N)c12

>  <Energy>  (10) 
86.44974577124576

>  <Genealogy>  (10) 
CCOCC[NH2+]c1c2ccccc2[n+](C)c2cccc(N)c12 (protonated)
CCOCC[NH2+]c1c2ccccc2[n+](C)c2cccc(N)c12 (3D coordinates assigned)
CCOCC[NH2+]c1c2ccccc2[n+](C)c2cccc(N)c12 (optimized conformer: 86.44974577124576 kcal/mol)

>  <smiles>  (10) 
CCOCCNc1c2ccccc2[n+](C)c2cccc(N)c12

>  <score_type>  (10) 
oracle

>  <origin>  (10) 
adg

>  <m_score__min__energy>  (10) 
-7

>  <m_primary>  (10) 
energy

$$$$
10:0
     RDKit          3D

 62 65  0  0  0  0  0  0  0  0999 V2000
   -1.9930   27.5380  -38.9460 C   0  0  0  0  0  0  0  0  0  0  0  0
   -1.7080   27.5420  -37.4530 C   0  0  0  0  0  0  0  0  0  0  0  0
   -1.2070   26.2760  -37.0740 O   0  0  0  0  0  0  0  0  0  0  0  0
    0.1130   26.1020  -37.5520 C   0  0  0  0  0  0  0  0  0  0  0  0
    0.9900   25.4280  -36.4940 C   0  0  0  0  0  0  0  0  0  0  0  0
    1.2690   24.0930  -36.8790 O   0  0  0  0  0  0  0  0  0  0  0  0
    1.4100   23.2660  -35.7430 C   0  0  0  0  0  0  0  0  0  0  0  0
    0.4210   22.1100  -35.8340 C   0  0  0  0  0  0  0  0  0  0  0  0
   -0.3480   22.0580  -34.6500 O   0  0  0  0  0  0  0  0  0  0  0  0
    0.0110   20.9300  -33.8730 C   0  0  0  0  0  0  0  0  0  0  0  0
   -0.3190   21.1800  -32.3970 C   0  0  0  0  0  0  0  0  0  0  0  0
   -1.8250   21.3470  -32.1660 C   0  0  0  0  0  0  0  0  0  0  0  0
   -2.5870   21.0670  -33.3820 N   0  0  0  0  0  0  0  0  0  0  0  0
   -3.7320   20.2080  -33.3340 C   0  0  0  0  0  0  0  0  0  0  0  0
   -4.9590   20.6970  -32.9060 C   0  0  0  0  0  0  0  0  0  0  0  0
   -6.0780   19.8840  -32.8650 C   0  0  0  0  0  0  0  0  0  0  0  0
   -6.0290   18.5520  -33.1900 N   0  0  0  0  0  0  0  0  0  0  0  0
   -7.2140   17.7000  -32.9900 C   0  0  0  0  0  0  0  0  0  0  0  0
   -4.8440   18.0440  -33.7040 C   0  0  0  0  0  0  0  0  0  0  0  0
   -4.7570   16.7250  -34.2130 C   0  0  0  0  0  0  0  0  0  0  0  0
   -3.5520   16.2190  -34.7010 C   0  0  0  0  0  0  0  0  0  0  0  0
   -2.4070   17.0110  -34.7080 C   0  0  0  0  0  0  0  0  0  0  0  0
   -2.4610   18.3240  -34.2460 C   0  0  0  0  0  0  0  0  0  0  0  0
   -3.6660   18.8620  -33.7530 C   0  0  0  0  0  0  0  0  0  0  0  0
   -7.2110   20.7160  -32.4180 C   0  0  0  0  0  0  0  0  0  0  0  0
   -8.5290   20.4030  -32.3300 N   0  0  0  0  0  0  0  0  0  0  0  0
   -9.4270   21.3570  -31.9430 C   0  0  0  0  0  0  0  0  0  0  0  0
   -8.9970   22.6690  -31.6560 C   0  0  0  0  0  0  0  0  0  0  0  0
   -7.6400   23.0000  -31.7770 C   0  0  0  0  0  0  0  0  0  0  0  0
   -6.7600   21.9950  -32.1670 C   0  0  0  0  0  0  0  0  0  0  0  0
   -5.3340   22.0370  -32.4460 C   0  0  0  0  0  0  0  0  0  0  0  0
   -4.5740   23.0310  -32.3060 O   0  0  0  0  0  0  0  0  0  0  0  0
   -3.0803   27.5227  -39.1117 H   0  0  0  0  0  0  0  0  0  0  0  0
   -1.5651   28.4422  -39.4034 H   0  0  0  0  0  0  0  0  0  0  0  0
   -1.5399   26.6461  -39.4034 H   0  0  0  0  0  0  0  0  0  0  0  0
   -0.9624   28.3172  -37.2225 H   0  0  0  0  0  0  0  0  0  0  0  0
   -2.6346   27.7545  -36.8996 H   0  0  0  0  0  0  0  0  0  0  0  0
    0.0898   25.4737  -38.4546 H   0  0  0  0  0  0  0  0  0  0  0  0
    0.5370   27.0901  -37.7839 H   0  0  0  0  0  0  0  0  0  0  0  0
    1.9340   25.9839  -36.3945 H   0  0  0  0  0  0  0  0  0  0  0  0
    0.4580   25.4239  -35.5312 H   0  0  0  0  0  0  0  0  0  0  0  0
    2.4353   22.8697  -35.7023 H   0  0  0  0  0  0  0  0  0  0  0  0
    1.2085   23.8519  -34.8341 H   0  0  0  0  0  0  0  0  0  0  0  0
   -0.2436   22.2623  -36.6972 H   0  0  0  0  0  0  0  0  0  0  0  0
    0.9699   21.1649  -35.9582 H   0  0  0  0  0  0  0  0  0  0  0  0
   -0.5483   20.0515  -34.2271 H   0  0  0  0  0  0  0  0  0  0  0  0
    1.0917   20.7519  -33.9750 H   0  0  0  0  0  0  0  0  0  0  0  0
    0.0388   20.3258  -31.8034 H   0  0  0  0  0  0  0  0  0  0  0  0
    0.1773   22.1128  -32.0910 H   0  0  0  0  0  0  0  0  0  0  0  0
   -2.1448   20.6520  -31.3756 H   0  0  0  0  0  0  0  0  0  0  0  0
   -2.0158   22.3894  -31.8710 H   0  0  0  0  0  0  0  0  0  0  0  0
   -2.4490   21.6530  -34.2370 H   0  0  0  0  0  0  0  0  0  0  0  0
   -7.3946   17.5701  -31.9127 H   0  0  0  0  0  0  0  0  0  0  0  0
   -8.0904   18.1761  -33.4540 H   0  0  0  0  0  0  0  0  0  0  0  0
   -7.0418   16.7176  -33.4540 H   0  0  0  0  0  0  0  0  0  0  0  0
   -5.6545   16.0891  -34.2237 H   0  0  0  0  0  0  0  0  0  0  0  0
   -3.5063   15.1883  -35.0825 H   0  0  0  0  0  0  0  0  0  0  0  0
   -1.4572   16.5988  -35.0794 H   0  0  0  0  0  0  0  0  0  0  0  0
   -1.5543   18.9465  -34.2663 H   0  0  0  0  0  0  0  0  0  0  0  0
  -10.4929   21.1000  -31.8546 H   0  0  0  0  0  0  0  0  0  0  0  0
   -9.7242   23.4306  -31.3381 H   0  0  0  0  0  0  0  0  0  0  0  0
   -7.2830   24.0198  -31.5706 H   0  0  0  0  0  0  0  0  0  0  0  0
  1  2  1  0
  2  3  1  0
  3  4  1  0
  4  5  1  0
  5  6  1  0
  6  7  1  0
  7  8  1  0
  8  9  1  0
  9 10  1  0
 10 11  1  0
 11 12  1  0
 12 13  1  0
 13 14  1  0
 14 15  2  0
 15 16  1  0
 16 17  2  0
 17 18  1  0
 17 19  1  0
 19 20  2  0
 20 21  1  0
 21 22  2  0
 22 23  1  0
 23 24  2  0
 16 25  1  0
 25 26  2  0
 26 27  1  0
 27 28  2  0
 28 29  1  0
 29 30  2  0
 30 31  1  0
 31 32  2  0
 24 14  1  0
 30 25  1  0
 31 15  1  0
 24 19  1  0
  1 33  1  0
  1 34  1  0
  1 35  1  0
  2 36  1  0
  2 37  1  0
  4 38  1  0
  4 39  1  0
  5 40  1  0
  5 41  1  0
  7 42  1  0
  7 43  1  0
  8 44  1  0
  8 45  1  0
 10 46  1  0
 10 47  1  0
 11 48  1  0
 11 49  1  0
 12 50  1  0
 12 51  1  0
 13 52  1  0
 18 53  1  0
 18 54  1  0
 18 55  1  0
 20 56  1  0
 21 57  1  0
 22 58  1  0
 23 59  1  0
 27 60  1  0
 28 61  1  0
 29 62  1  0
M  CHG  1  17   1
M  END
>  <UniqueID>  (11) 
11

>  <SMILES>  (11) 
CCOCCOCCOCCCNc1c2c([n+](C)c3ccccc13)-c1ncccc1C2=O

>  <Energy>  (11) 
114.31304283368245

>  <Genealogy>  (11) 
CCOCCOCCOCCCNc1c2c([n+](C)c3ccccc13)-c1ncccc1C2=O (3D coordinates assigned)
CCOCCOCCOCCCNc1c2c([n+](C)c3ccccc13)-c1ncccc1C2=O (nonaromatic ring conformer: 114.31304283368245 kcal/mol)

>  <smiles>  (11) 
CCOCCOCCOCCCNc1c2c([n+](C)c3ccccc13)-c1ncccc1C2=O

>  <score_type>  (11) 
oracle

>  <origin>  (11) 
adg

>  <m_score__min__energy>  (11) 
-10

>  <m_primary>  (11) 
energy

$$$$
11:0
     RDKit          3D

 60 63  0  0  0  0  0  0  0  0999 V2000
   -9.1760   21.1370  -31.1630 C   0  0  0  0  0  0  0  0  0  0  0  0
   -7.8940   21.2680  -31.8440 N   0  0  0  0  0  0  0  0  0  0  0  0
   -7.2440   22.4030  -32.0270 N   0  0  0  0  0  0  0  0  0  0  0  0
   -6.1590   22.1400  -32.7390 N   0  0  0  0  0  0  0  0  0  0  0  0
   -6.0860   20.8510  -33.0420 N   0  0  0  0  0  0  0  0  0  0  0  0
   -7.1860   20.3170  -32.4770 C   0  0  0  0  0  0  0  0  0  0  0  0
   -7.6360   18.5850  -32.5830 S   0  0  0  0  0  0  0  0  0  0  0  0
   -6.3120   18.0450  -31.4440 C   0  0  0  0  0  0  0  0  0  0  0  0
   -5.3250   17.1000  -32.1470 C   0  0  0  0  0  0  0  0  0  0  0  0
   -5.0360   17.4880  -33.6070 C   0  0  0  0  0  0  0  0  0  0  0  0
   -3.5560   17.2870  -33.9960 C   0  0  0  0  0  0  0  0  0  0  0  0
   -2.6540   18.3440  -33.4840 N   0  0  0  0  0  0  0  0  0  0  0  0
   -1.6160   17.8160  -32.5670 C   0  0  0  0  0  0  0  0  0  0  0  0
   -0.9400   18.9260  -31.7370 C   0  0  0  0  0  0  0  0  0  0  0  0
   -1.8380   20.1250  -31.5380 C   0  0  0  0  0  0  0  0  0  0  0  0
   -2.3580   20.4150  -30.2680 C   0  0  0  0  0  0  0  0  0  0  0  0
   -3.2330   21.4870  -30.0890 C   0  0  0  0  0  0  0  0  0  0  0  0
   -3.6140   22.2840  -31.1830 C   0  0  0  0  0  0  0  0  0  0  0  0
   -4.5060   23.3630  -31.0600 O   0  0  0  0  0  0  0  0  0  0  0  0
   -5.0700   23.8300  -29.8340 C   0  0  0  0  0  0  0  0  0  0  0  0
   -3.9900   24.2890  -28.8890 C   0  0  0  0  0  0  0  0  0  0  0  0
   -2.7080   24.6050  -29.3690 C   0  0  0  0  0  0  0  0  0  0  0  0
   -1.7120   25.0350  -28.4860 C   0  0  0  0  0  0  0  0  0  0  0  0
   -1.9900   25.1580  -27.1230 C   0  0  0  0  0  0  0  0  0  0  0  0
   -3.2660   24.8570  -26.6390 C   0  0  0  0  0  0  0  0  0  0  0  0
   -4.2650   24.4280  -27.5190 C   0  0  0  0  0  0  0  0  0  0  0  0
   -3.0950   21.9990  -32.4500 C   0  0  0  0  0  0  0  0  0  0  0  0
   -2.2130   20.9250  -32.6420 C   0  0  0  0  0  0  0  0  0  0  0  0
   -1.6880   20.6090  -34.0290 C   0  0  0  0  0  0  0  0  0  0  0  0
   -2.1120   19.2150  -34.5510 C   0  0  0  0  0  0  0  0  0  0  0  0
   -9.0165   21.1533  -30.0748 H   0  0  0  0  0  0  0  0  0  0  0  0
   -9.8308   21.9729  -31.4502 H   0  0  0  0  0  0  0  0  0  0  0  0
   -9.6482   20.1859  -31.4502 H   0  0  0  0  0  0  0  0  0  0  0  0
   -5.4570   22.8550  -33.0290 H   0  0  0  0  0  0  0  0  0  0  0  0
   -5.7666   18.9294  -31.0829 H   0  0  0  0  0  0  0  0  0  0  0  0
   -6.7738   17.5045  -30.6046 H   0  0  0  0  0  0  0  0  0  0  0  0
   -4.3765   17.1105  -31.5900 H   0  0  0  0  0  0  0  0  0  0  0  0
   -5.7889   16.1027  -32.1637 H   0  0  0  0  0  0  0  0  0  0  0  0
   -5.6604   16.8670  -34.2662 H   0  0  0  0  0  0  0  0  0  0  0  0
   -5.2658   18.5580  -33.7177 H   0  0  0  0  0  0  0  0  0  0  0  0
   -3.2201   16.3198  -33.5938 H   0  0  0  0  0  0  0  0  0  0  0  0
   -3.5053   17.3272  -35.0941 H   0  0  0  0  0  0  0  0  0  0  0  0
   -2.0857   17.0977  -31.8789 H   0  0  0  0  0  0  0  0  0  0  0  0
   -0.8388   17.3387  -33.1820 H   0  0  0  0  0  0  0  0  0  0  0  0
   -0.6732   18.5171  -30.7513 H   0  0  0  0  0  0  0  0  0  0  0  0
   -0.0496   19.2620  -32.2887 H   0  0  0  0  0  0  0  0  0  0  0  0
   -2.0738   19.7926  -29.4067 H   0  0  0  0  0  0  0  0  0  0  0  0
   -3.6270   21.7099  -29.0865 H   0  0  0  0  0  0  0  0  0  0  0  0
   -5.7459   24.6717  -30.0454 H   0  0  0  0  0  0  0  0  0  0  0  0
   -5.6230   23.0040  -29.3630 H   0  0  0  0  0  0  0  0  0  0  0  0
   -2.4868   24.5140  -30.4427 H   0  0  0  0  0  0  0  0  0  0  0  0
   -0.7083   25.2766  -28.8658 H   0  0  0  0  0  0  0  0  0  0  0  0
   -1.2040   25.4921  -26.4298 H   0  0  0  0  0  0  0  0  0  0  0  0
   -3.4848   24.9575  -25.5657 H   0  0  0  0  0  0  0  0  0  0  0  0
   -5.2704   24.1985  -27.1362 H   0  0  0  0  0  0  0  0  0  0  0  0
   -3.3822   22.6253  -33.3075 H   0  0  0  0  0  0  0  0  0  0  0  0
   -2.0670   21.3710  -34.7259 H   0  0  0  0  0  0  0  0  0  0  0  0
   -0.5899   20.6085  -33.9651 H   0  0  0  0  0  0  0  0  0  0  0  0
   -2.8849   19.3486  -35.3222 H   0  0  0  0  0  0  0  0  0  0  0  0
   -1.2137   18.7249  -34.9545 H   0  0  0  0  0  0  0  0  0  0  0  0
  1  2  1  0
  2  3  1  0
  3  4  2  0
  4  5  1  0
  5  6  2  0
  6  7  1  0
  7  8  1  0
  8  9  1  0
  9 10  1  0
 10 11  1  0
 11 12  1  0
 12 13  1  0
 13 14  1  0
 14 15  1  0
 15 16  2  0
 16 17  1  0
 17 18  2  0
 18 19  1  0
 19 20  1  0
 20 21  1  0
 21 22  2  0
 22 23  1  0
 23 24  2  0
 24 25  1  0
 25 26  2  0
 18 27  1  0
 27 28  2  0
 28 29  1  0
 29 30  1  0
  6  2  1  0
 30 12  1  0
 28 15  1  0
 26 21  1  0
  1 31  1  0
  1 32  1  0
  1 33  1  0
  4 34  1  0
  8 35  1  0
  8 36  1  0
  9 37  1  0
  9 38  1  0
 10 39  1  0
 10 40  1  0
 11 41  1  0
 11 42  1  0
 13 43  1  0
 13 44  1  0
 14 45  1  0
 14 46  1  0
 16 47  1  0
 17 48  1  0
 20 49  1  0
 20 50  1  0
 22 51  1  0
 23 52  1  0
 24 53  1  0
 25 54  1  0
 26 55  1  0
 27 56  1  0
 29 57  1  0
 29 58  1  0
 30 59  1  0
 30 60  1  0
M  CHG  1   4   1
M  END
>  <UniqueID>  (12) 
12

>  <SMILES>  (12) 
Cn1n[nH+]nc1SCCCCN1CCc2ccc(OCc3ccccc3)cc2CC1

>  <Energy>  (12) 
107.36689986216815

>  <Genealogy>  (12) 
Cn1n[nH+]nc1SCCCCN1CCc2ccc(OCc3ccccc3)cc2CC1 (protonated)
Cn1n[nH+]nc1SCCCCN1CCc2ccc(OCc3ccccc3)cc2CC1 (3D coordinates assigned)
Cn1n[nH+]nc1SCCCCN1CCc2ccc(OCc3ccccc3)cc2CC1 (nonaromatic ring conformer: 107.36689986216815 kcal/mol)

>  <smiles>  (12) 
Cn1nnnc1SCCCCN1CCc2ccc(OCc3ccccc3)cc2CC1

>  <score_type>  (12) 
oracle

>  <origin>  (12) 
adg

>  <m_score__min__energy>  (12) 
-7.8399999999999999

>  <m_primary>  (12) 
energy

$$$$
12:0
     RDKit          3D

 43 45  0  0  0  0  0  0  0  0999 V2000
   -1.5910   26.3650  -24.7190 C   0  0  0  0  0  0  0  0  0  0  0  0
   -2.3090   26.0930  -26.0310 C   0  0  0  0  0  0  0  0  0  0  0  0
   -3.4400   25.2830  -25.7840 O   0  0  0  0  0  0  0  0  0  0  0  0
   -3.9640   24.8810  -26.9830 N   0  0  0  0  0  0  0  0  0  0  0  0
   -3.3710   23.5840  -27.3320 C   0  0  0  0  0  0  0  0  0  0  0  0
   -1.9430   23.7230  -27.9000 C   0  0  0  0  0  0  0  0  0  0  0  0
   -1.8900   24.2430  -29.3440 C   0  0  0  0  0  0  0  0  0  0  0  0
   -3.1040   24.9030  -29.7110 O   0  0  0  0  0  0  0  0  0  0  0  0
   -4.2740   24.3030  -30.2090 C   0  0  0  0  0  0  0  0  0  0  0  0
   -5.3820   25.1310  -30.4330 C   0  0  0  0  0  0  0  0  0  0  0  0
   -6.5840   24.6060  -30.9110 C   0  0  0  0  0  0  0  0  0  0  0  0
   -6.6990   23.2320  -31.1790 C   0  0  0  0  0  0  0  0  0  0  0  0
   -7.8900   22.6600  -31.6570 C   0  0  0  0  0  0  0  0  0  0  0  0
   -8.9080   23.3790  -31.8610 O   0  0  0  0  0  0  0  0  0  0  0  0
   -7.9370   21.2770  -31.9050 C   0  0  0  0  0  0  0  0  0  0  0  0
   -9.0970   20.6400  -32.3840 C   0  0  0  0  0  0  0  0  0  0  0  0
   -9.0960   19.2620  -32.6170 C   0  0  0  0  0  0  0  0  0  0  0  0
   -7.9430   18.5080  -32.3760 C   0  0  0  0  0  0  0  0  0  0  0  0
   -6.7850   19.1300  -31.9010 C   0  0  0  0  0  0  0  0  0  0  0  0
   -6.7740   20.5090  -31.6640 C   0  0  0  0  0  0  0  0  0  0  0  0
   -5.6670   21.0870  -31.2110 O   0  0  0  0  0  0  0  0  0  0  0  0
   -5.5850   22.3910  -30.9640 C   0  0  0  0  0  0  0  0  0  0  0  0
   -4.3830   22.9260  -30.4860 C   0  0  0  0  0  0  0  0  0  0  0  0
   -2.2549   26.1135  -23.8787 H   0  0  0  0  0  0  0  0  0  0  0  0
   -0.6811   25.7493  -24.6644 H   0  0  0  0  0  0  0  0  0  0  0  0
   -1.3175   27.4291  -24.6644 H   0  0  0  0  0  0  0  0  0  0  0  0
   -2.6295   27.0452  -26.4790 H   0  0  0  0  0  0  0  0  0  0  0  0
   -1.6288   25.5756  -26.7235 H   0  0  0  0  0  0  0  0  0  0  0  0
   -5.0000   24.7450  -26.8920 H   0  0  0  0  0  0  0  0  0  0  0  0
   -3.7520   25.5790  -27.7330 H   0  0  0  0  0  0  0  0  0  0  0  0
   -3.3321   22.9588  -26.4278 H   0  0  0  0  0  0  0  0  0  0  0  0
   -3.9987   23.1275  -28.1115 H   0  0  0  0  0  0  0  0  0  0  0  0
   -1.3835   24.4216  -27.2606 H   0  0  0  0  0  0  0  0  0  0  0  0
   -1.5063   22.7135  -27.9104 H   0  0  0  0  0  0  0  0  0  0  0  0
   -1.0553   24.9534  -29.4371 H   0  0  0  0  0  0  0  0  0  0  0  0
   -1.7502   23.3823  -30.0145 H   0  0  0  0  0  0  0  0  0  0  0  0
   -5.3036   26.2092  -30.2295 H   0  0  0  0  0  0  0  0  0  0  0  0
   -7.4442   25.2708  -31.0784 H   0  0  0  0  0  0  0  0  0  0  0  0
  -10.0066   21.2282  -32.5754 H   0  0  0  0  0  0  0  0  0  0  0  0
  -10.0052   18.7687  -32.9912 H   0  0  0  0  0  0  0  0  0  0  0  0
   -7.9475   17.4236  -32.5606 H   0  0  0  0  0  0  0  0  0  0  0  0
   -5.8799   18.5339  -31.7130 H   0  0  0  0  0  0  0  0  0  0  0  0
   -3.5174   22.2665  -30.3255 H   0  0  0  0  0  0  0  0  0  0  0  0
  1  2  1  0
  2  3  1  0
  3  4  1  0
  4  5  1  0
  5  6  1  0
  6  7  1  0
  7  8  1  0
  8  9  1  0
  9 10  2  0
 10 11  1  0
 11 12  2  0
 12 13  1  0
 13 14  2  0
 13 15  1  0
 15 16  2  0
 16 17  1  0
 17 18  2  0
 18 19  1  0
 19 20  2  0
 20 21  1  0
 21 22  1  0
 22 23  2  0
 23  9  1  0
 22 12  1  0
 20 15  1  0
  1 24  1  0
  1 25  1  0
  1 26  1  0
  2 27  1  0
  2 28  1  0
  4 29  1  0
  4 30  1  0
  5 31  1  0
  5 32  1  0
  6 33  1  0
  6 34  1  0
  7 35  1  0
  7 36  1  0
 10 37  1  0
 11 38  1  0
 16 39  1  0
 17 40  1  0
 18 41  1  0
 19 42  1  0
 23 43  1  0
M  CHG  1   4   1
M  END
>  <UniqueID>  (13) 
13

>  <SMILES>  (13) 
CCO[NH2+]CCCOc1ccc2c(=O)c3ccccc3oc2c1

>  <Energy>  (13) 
53.6374798142342

>  <Genealogy>  (13) 
CCO[NH2+]CCCOc1ccc2c(=O)c3ccccc3oc2c1 (protonated)
CCO[NH2+]CCCOc1ccc2c(=O)c3ccccc3oc2c1 (3D coordinates assigned)
CCO[NH2+]CCCOc1ccc2c(=O)c3ccccc3oc2c1 (optimized conformer: 53.6374798142342 kcal/mol)

>  <smiles>  (13) 
CCONCCCOc1ccc2c(=O)c3ccccc3oc2c1

>  <score_type>  (13) 
oracle

>  <origin>  (13) 
adg

>  <m_score__min__energy>  (13) 
-7.7599999999999998

>  <m_primary>  (13) 
energy

$$$$
13:0
     RDKit          3D

 48 50  0  0  0  0  0  0  0  0999 V2000
    0.6250   20.8130  -33.1720 C   0  0  0  0  0  0  0  0  0  0  0  0
   -0.1830   20.7420  -34.4720 C   0  0  0  0  0  0  0  0  0  0  0  0
   -1.5940   21.1310  -34.2760 N   0  0  0  0  0  0  0  0  0  0  0  0
   -2.1910   20.5510  -33.0570 C   0  0  0  0  0  0  0  0  0  0  0  0
   -3.2590   21.4670  -32.4410 C   0  0  0  0  0  0  0  0  0  0  0  0
   -4.4300   21.5390  -33.3130 N   0  0  0  0  0  0  0  0  0  0  0  0
   -5.6060   20.7670  -33.0230 C   0  0  0  0  0  0  0  0  0  0  0  0
   -6.6740   21.3810  -32.3630 C   0  0  0  0  0  0  0  0  0  0  0  0
   -6.7510   22.7280  -31.9700 C   0  0  0  0  0  0  0  0  0  0  0  0
   -7.9400   23.0410  -31.3200 C   0  0  0  0  0  0  0  0  0  0  0  0
   -8.8870   21.6500  -31.2370 S   0  0  0  0  0  0  0  0  0  0  0  0
   -7.7900   20.6440  -32.0270 C   0  0  0  0  0  0  0  0  0  0  0  0
   -7.9010   19.2860  -32.3300 C   0  0  0  0  0  0  0  0  0  0  0  0
   -9.1500   18.5190  -31.9660 C   0  0  0  0  0  0  0  0  0  0  0  0
   -6.8030   18.6750  -33.0010 C   0  0  0  0  0  0  0  0  0  0  0  0
   -5.6970   19.4320  -33.3700 N   0  0  0  0  0  0  0  0  0  0  0  0
   -4.6370   18.8100  -34.2040 C   0  0  0  0  0  0  0  0  0  0  0  0
   -3.8100   17.7570  -33.4330 C   0  0  0  0  0  0  0  0  0  0  0  0
   -4.4320   16.3530  -33.3370 C   0  0  0  0  0  0  0  0  0  0  0  0
   -5.8430   16.3280  -32.7180 C   0  0  0  0  0  0  0  0  0  0  0  0
   -6.8850   17.2130  -33.4290 C   0  0  0  0  0  0  0  0  0  0  0  0
   -0.0581   20.7530  -32.3119 H   0  0  0  0  0  0  0  0  0  0  0  0
    1.3352   19.9738  -33.1354 H   0  0  0  0  0  0  0  0  0  0  0  0
    1.1780   21.7632  -33.1354 H   0  0  0  0  0  0  0  0  0  0  0  0
    0.2720   21.4202  -35.2089 H   0  0  0  0  0  0  0  0  0  0  0  0
   -0.1666   19.6994  -34.8223 H   0  0  0  0  0  0  0  0  0  0  0  0
   -1.6660   22.1750  -34.2260 H   0  0  0  0  0  0  0  0  0  0  0  0
   -2.1470   20.8330  -35.1140 H   0  0  0  0  0  0  0  0  0  0  0  0
   -2.6561   19.5879  -33.3142 H   0  0  0  0  0  0  0  0  0  0  0  0
   -1.3881   20.4230  -32.3161 H   0  0  0  0  0  0  0  0  0  0  0  0
   -3.5599   21.0661  -31.4618 H   0  0  0  0  0  0  0  0  0  0  0  0
   -2.8389   22.4766  -32.3220 H   0  0  0  0  0  0  0  0  0  0  0  0
   -4.5320   22.3860  -33.9160 H   0  0  0  0  0  0  0  0  0  0  0  0
   -5.9520   23.4604  -32.1574 H   0  0  0  0  0  0  0  0  0  0  0  0
   -8.2158   24.0304  -30.9263 H   0  0  0  0  0  0  0  0  0  0  0  0
   -9.2402   18.4636  -30.8711 H   0  0  0  0  0  0  0  0  0  0  0  0
  -10.0297   19.0327  -32.3809 H   0  0  0  0  0  0  0  0  0  0  0  0
   -9.0898   17.5020  -32.3809 H   0  0  0  0  0  0  0  0  0  0  0  0
   -5.1110   18.3210  -35.0678 H   0  0  0  0  0  0  0  0  0  0  0  0
   -3.9483   19.6094  -34.5150 H   0  0  0  0  0  0  0  0  0  0  0  0
   -2.8357   17.6605  -33.9344 H   0  0  0  0  0  0  0  0  0  0  0  0
   -3.7476   18.1264  -32.3987 H   0  0  0  0  0  0  0  0  0  0  0  0
   -4.4930   15.9326  -34.3517 H   0  0  0  0  0  0  0  0  0  0  0  0
   -3.7840   15.7652  -32.6703 H   0  0  0  0  0  0  0  0  0  0  0  0
   -6.2061   15.2899  -32.7396 H   0  0  0  0  0  0  0  0  0  0  0  0
   -5.7385   16.7348  -31.7013 H   0  0  0  0  0  0  0  0  0  0  0  0
   -6.7159   17.1536  -34.5143 H   0  0  0  0  0  0  0  0  0  0  0  0
   -7.8825   16.8405  -33.1528 H   0  0  0  0  0  0  0  0  0  0  0  0
  1  2  1  0
  2  3  1  0
  3  4  1  0
  4  5  1  0
  5  6  1  0
  6  7  1  0
  7  8  2  0
  8  9  1  0
  9 10  2  0
 10 11  1  0
 11 12  1  0
 12 13  2  0
 13 14  1  0
 13 15  1  0
 15 16  2  0
 16 17  1  0
 17 18  1  0
 18 19  1  0
 19 20  1  0
 20 21  1  0
 16  7  1  0
 12  8  1  0
 21 15  1  0
  1 22  1  0
  1 23  1  0
  1 24  1  0
  2 25  1  0
  2 26  1  0
  3 27  1  0
  3 28  1  0
  4 29  1  0
  4 30  1  0
  5 31  1  0
  5 32  1  0
  6 33  1  0
  9 34  1  0
 10 35  1  0
 14 36  1  0
 14 37  1  0
 14 38  1  0
 17 39  1  0
 17 40  1  0
 18 41  1  0
 18 42  1  0
 19 43  1  0
 19 44  1  0
 20 45  1  0
 20 46  1  0
 21 47  1  0
 21 48  1  0
M  CHG  2   3   1  16   1
M  END
>  <UniqueID>  (14) 
14

>  <SMILES>  (14) 
CC[NH2+]CCNc1c2ccsc2c(C)c2[n+]1CCCCC2

>  <Energy>  (14) 
94.7900403045506

>  <Genealogy>  (14) 
CC[NH2+]CCNc1c2ccsc2c(C)c2[n+]1CCCCC2 (protonated)
CC[NH2+]CCNc1c2ccsc2c(C)c2[n+]1CCCCC2 (3D coordinates assigned)
CC[NH2+]CCNc1c2ccsc2c(C)c2[n+]1CCCCC2 (nonaromatic ring conformer: 94.7900403045506 kcal/mol)

>  <smiles>  (14) 
CCNCCNc1c2ccsc2c(C)c2[n+]1CCCCC2

>  <score_type>  (14) 
oracle

>  <origin>  (14) 
adg

>  <m_score__min__energy>  (14) 
-5.75

>  <m_primary>  (14) 
energy

$$$$
14:0
     RDKit          3D

 51 55  0  0  0  0  0  0  0  0999 V2000
   -2.0120   22.6220  -30.2160 C   0  0  0  0  0  0  0  0  0  0  0  0
   -2.6860   22.2930  -31.4710 N   0  0  0  0  0  0  0  0  0  0  0  0
   -3.9350   22.6260  -31.8840 C   0  0  0  0  0  0  0  0  0  0  0  0
   -4.9050   23.4840  -31.1740 C   0  0  0  0  0  0  0  0  0  0  0  0
   -6.1660   23.1760  -30.7040 C   0  0  0  0  0  0  0  0  0  0  0  0
   -6.6870   24.2670  -30.1110 N   0  0  0  0  0  0  0  0  0  0  0  0
   -5.7210   25.1960  -30.2450 C   0  0  0  0  0  0  0  0  0  0  0  0
   -4.6660   24.7370  -30.8780 O   0  0  0  0  0  0  0  0  0  0  0  0
   -4.1940   22.1240  -33.1100 N   0  0  0  0  0  0  0  0  0  0  0  0
   -3.1140   21.4550  -33.4790 N   0  0  0  0  0  0  0  0  0  0  0  0
   -2.2030   21.5650  -32.5000 C   0  0  0  0  0  0  0  0  0  0  0  0
   -0.5510   20.8640  -32.5980 S   0  0  0  0  0  0  0  0  0  0  0  0
   -0.9850   19.2380  -31.8640 C   0  0  0  0  0  0  0  0  0  0  0  0
   -1.3100   18.1740  -32.9290 C   0  0  0  0  0  0  0  0  0  0  0  0
   -1.8370   18.7810  -34.2440 C   0  0  0  0  0  0  0  0  0  0  0  0
   -3.3110   18.7440  -34.2790 N   0  0  0  0  0  0  0  0  0  0  0  0
   -3.8420   17.6240  -35.0650 C   0  0  0  0  0  0  0  0  0  0  0  0
   -5.2130   17.2910  -34.4910 C   0  0  1  0  0  0  0  0  0  0  0  0
   -5.2580   16.4050  -33.2550 C   0  0  0  0  0  0  0  0  0  0  0  0
   -5.2270   17.9200  -33.1080 C   0  0  2  0  0  0  0  0  0  0  0  0
   -6.4950   18.6590  -32.7690 C   0  0  0  0  0  0  0  0  0  0  0  0
   -6.5340   20.0630  -32.8120 C   0  0  0  0  0  0  0  0  0  0  0  0
   -7.6950   20.7460  -32.4400 C   0  0  0  0  0  0  0  0  0  0  0  0
   -8.8190   20.0340  -32.0080 C   0  0  0  0  0  0  0  0  0  0  0  0
   -8.7790   18.6390  -31.9430 C   0  0  0  0  0  0  0  0  0  0  0  0
   -9.8610   17.9510  -31.5020 F   0  0  0  0  0  0  0  0  0  0  0  0
   -7.6190   17.9520  -32.3160 C   0  0  0  0  0  0  0  0  0  0  0  0
   -3.8840   18.6080  -32.9370 C   0  0  0  0  0  0  0  0  0  0  0  0
   -2.6430   22.3140  -29.3692 H   0  0  0  0  0  0  0  0  0  0  0  0
   -1.0490   22.0926  -30.1673 H   0  0  0  0  0  0  0  0  0  0  0  0
   -1.8369   23.7069  -30.1673 H   0  0  0  0  0  0  0  0  0  0  0  0
   -6.6636   22.1995  -30.7984 H   0  0  0  0  0  0  0  0  0  0  0  0
   -5.8064   26.2252  -29.8662 H   0  0  0  0  0  0  0  0  0  0  0  0
   -3.0010   20.9610  -34.3910 H   0  0  0  0  0  0  0  0  0  0  0  0
   -0.1347   18.8853  -31.2619 H   0  0  0  0  0  0  0  0  0  0  0  0
   -1.8864   19.3802  -31.2499 H   0  0  0  0  0  0  0  0  0  0  0  0
   -0.3941   17.6053  -33.1475 H   0  0  0  0  0  0  0  0  0  0  0  0
   -2.1042   17.5315  -32.5211 H   0  0  0  0  0  0  0  0  0  0  0  0
   -1.4997   19.8252  -34.3208 H   0  0  0  0  0  0  0  0  0  0  0  0
   -1.4474   18.1921  -35.0875 H   0  0  0  0  0  0  0  0  0  0  0  0
   -3.9348   17.9141  -36.1220 H   0  0  0  0  0  0  0  0  0  0  0  0
   -3.1714   16.7536  -35.0128 H   0  0  0  0  0  0  0  0  0  0  0  0
   -5.8057   17.2564  -35.4170 H   0  0  0  0  0  0  0  0  0  0  0  0
   -6.1740   15.8471  -33.0109 H   0  0  0  0  0  0  0  0  0  0  0  0
   -4.6494   15.5730  -32.8710 H   0  0  0  0  0  0  0  0  0  0  0  0
   -5.6477   20.6263  -33.1396 H   0  0  0  0  0  0  0  0  0  0  0  0
   -7.7251   21.8446  -32.4869 H   0  0  0  0  0  0  0  0  0  0  0  0
   -9.7339   20.5723  -31.7196 H   0  0  0  0  0  0  0  0  0  0  0  0
   -7.5880   16.8542  -32.2540 H   0  0  0  0  0  0  0  0  0  0  0  0
   -4.0205   19.5992  -32.4801 H   0  0  0  0  0  0  0  0  0  0  0  0
   -3.2210   18.0272  -32.2789 H   0  0  0  0  0  0  0  0  0  0  0  0
  1  2  1  0
  2  3  1  0
  3  4  1  0
  4  5  2  0
  5  6  1  0
  6  7  2  0
  7  8  1  0
  3  9  2  0
  9 10  1  0
 10 11  2  0
 11 12  1  0
 12 13  1  0
 13 14  1  0
 14 15  1  0
 15 16  1  0
 16 17  1  0
 17 18  1  0
 18 19  1  0
 19 20  1  0
 20 21  1  6
 21 22  2  0
 22 23  1  0
 23 24  2  0
 24 25  1  0
 25 26  1  0
 25 27  2  0
 20 28  1  0
 11  2  1  0
 28 16  1  0
  8  4  1  0
 20 18  1  0
 27 21  1  0
  1 29  1  0
  1 30  1  0
  1 31  1  0
  5 32  1  0
  7 33  1  0
 10 34  1  0
 13 35  1  0
 13 36  1  0
 14 37  1  0
 14 38  1  0
 15 39  1  0
 15 40  1  0
 17 41  1  0
 17 42  1  0
 18 43  1  6
 19 44  1  0
 19 45  1  0
 22 46  1  0
 23 47  1  0
 24 48  1  0
 27 49  1  0
 28 50  1  0
 28 51  1  0
M  CHG  1  10   1
M  END
>  <UniqueID>  (15) 
15

>  <SMILES>  (15) 
Cn1c(-c2cnco2)n[nH+]c1SCCCN1C[C@H]2C[C@@]2(c2cccc(F)c2)C1

>  <Energy>  (15) 
385.75083389578134

>  <Genealogy>  (15) 
Cn1c(-c2cnco2)n[nH+]c1SCCCN1CC2CC2(c2cccc(F)c2)C1 (protonated)
Cn1c(-c2cnco2)n[nH+]c1SCCCN1C[C@H]2C[C@@]2(c2cccc(F)c2)C1 (chirality)
Cn1c(-c2cnco2)n[nH+]c1SCCCN1C[C@H]2C[C@@]2(c2cccc(F)c2)C1 (3D coordinates assigned)
Cn1c(-c2cnco2)n[nH+]c1SCCCN1C[C@H]2C[C@@]2(c2cccc(F)c2)C1 (nonaromatic ring conformer: 385.75083389578134 kcal/mol)

>  <smiles>  (15) 
Cn1c(SCCCN2CC3CC3(c3cccc(F)c3)C2)nnc1-c1cnco1

>  <score_type>  (15) 
oracle

>  <origin>  (15) 
adg

>  <m_score__min__energy>  (15) 
-8.6899999999999995

>  <m_primary>  (15) 
energy

$$$$
15:0
     RDKit          3D

 49 51  0  0  0  0  0  0  0  0999 V2000
   -4.1080   23.0530  -28.4240 C   0  0  0  0  0  0  0  0  0  0  0  0
   -3.9180   24.0030  -29.5660 C   0  0  0  0  0  0  0  0  0  0  0  0
   -3.0090   24.8730  -29.4870 O   0  0  0  0  0  0  0  0  0  0  0  0
   -4.8190   23.9900  -30.6920 N   0  0  0  0  0  0  0  0  0  0  0  0
   -4.5580   23.0470  -31.7880 C   0  0  0  0  0  0  0  0  0  0  0  0
   -5.8250   22.8190  -32.6300 C   0  0  0  0  0  0  0  0  0  0  0  0
   -7.0480   22.7930  -31.7930 N   0  0  0  0  0  0  0  0  0  0  0  0
   -7.1080   21.6230  -30.8850 C   0  0  0  0  0  0  0  0  0  0  0  0
   -6.7670   20.3470  -31.6080 C   0  0  0  0  0  0  0  0  0  0  0  0
   -5.4730   19.8200  -31.5530 C   0  0  0  0  0  0  0  0  0  0  0  0
   -5.1870   18.6580  -32.1940 N   0  0  0  0  0  0  0  0  0  0  0  0
   -6.1380   17.9810  -32.8940 C   0  0  0  0  0  0  0  0  0  0  0  0
   -5.7940   16.7540  -33.5640 N   0  0  0  0  0  0  0  0  0  0  0  0
   -6.8610   15.9160  -34.1170 C   0  0  0  0  0  0  0  0  0  0  0  0
   -6.3740   14.4670  -34.2370 C   0  0  0  0  0  0  0  0  0  0  0  0
   -5.1520   14.4050  -34.9470 O   0  0  0  0  0  0  0  0  0  0  0  0
   -4.1390   15.0640  -34.2130 C   0  0  0  0  0  0  0  0  0  0  0  0
   -4.4400   16.5620  -34.0950 C   0  0  0  0  0  0  0  0  0  0  0  0
   -7.4030   18.4860  -32.9690 N   0  0  0  0  0  0  0  0  0  0  0  0
   -7.7310   19.6460  -32.3400 C   0  0  0  0  0  0  0  0  0  0  0  0
   -7.2690   24.0720  -31.0640 C   0  0  0  0  0  0  0  0  0  0  0  0
   -5.9760   24.8960  -30.8380 C   0  0  1  0  0  0  0  0  0  0  0  0
   -6.1510   25.9070  -29.6930 C   0  0  0  0  0  0  0  0  0  0  0  0
   -3.9994   23.5959  -27.4735 H   0  0  0  0  0  0  0  0  0  0  0  0
   -5.1128   22.6088  -28.4798 H   0  0  0  0  0  0  0  0  0  0  0  0
   -3.3514   22.2565  -28.4798 H   0  0  0  0  0  0  0  0  0  0  0  0
   -3.7657   23.4548  -32.4329 H   0  0  0  0  0  0  0  0  0  0  0  0
   -4.2452   22.0848  -31.3565 H   0  0  0  0  0  0  0  0  0  0  0  0
   -5.9145   23.6324  -33.3652 H   0  0  0  0  0  0  0  0  0  0  0  0
   -5.7321   21.8426  -33.1280 H   0  0  0  0  0  0  0  0  0  0  0  0
   -6.3918   21.7709  -30.0633 H   0  0  0  0  0  0  0  0  0  0  0  0
   -8.1343   21.5377  -30.4985 H   0  0  0  0  0  0  0  0  0  0  0  0
   -4.6876   20.3464  -30.9909 H   0  0  0  0  0  0  0  0  0  0  0  0
   -7.7363   15.9532  -33.4519 H   0  0  0  0  0  0  0  0  0  0  0  0
   -7.1369   16.2902  -35.1139 H   0  0  0  0  0  0  0  0  0  0  0  0
   -6.2271   14.0513  -33.2292 H   0  0  0  0  0  0  0  0  0  0  0  0
   -7.1300   13.8851  -34.7847 H   0  0  0  0  0  0  0  0  0  0  0  0
   -4.0816   14.6271  -33.2051 H   0  0  0  0  0  0  0  0  0  0  0  0
   -3.1820   14.9370  -34.7402 H   0  0  0  0  0  0  0  0  0  0  0  0
   -3.7114   17.0290  -33.4160 H   0  0  0  0  0  0  0  0  0  0  0  0
   -4.3693   17.0272  -35.0893 H   0  0  0  0  0  0  0  0  0  0  0  0
   -8.1340   18.0050  -33.5380 H   0  0  0  0  0  0  0  0  0  0  0  0
   -8.7579   20.0345  -32.4070 H   0  0  0  0  0  0  0  0  0  0  0  0
   -7.9735   24.6850  -31.6453 H   0  0  0  0  0  0  0  0  0  0  0  0
   -7.6593   23.8100  -30.0695 H   0  0  0  0  0  0  0  0  0  0  0  0
   -5.7671   25.5146  -31.7233 H   0  0  0  0  0  0  0  0  0  0  0  0
   -6.0610   25.3871  -28.7278 H   0  0  0  0  0  0  0  0  0  0  0  0
   -5.3736   26.6818  -29.7660 H   0  0  0  0  0  0  0  0  0  0  0  0
   -7.1436   26.3754  -29.7660 H   0  0  0  0  0  0  0  0  0  0  0  0
  1  2  1  0
  2  3  2  0
  2  4  1  0
  4  5  1  0
  5  6  1  0
  6  7  1  0
  7  8  1  0
  8  9  1  0
  9 10  2  0
 10 11  1  0
 11 12  2  0
 12 13  1  0
 13 14  1  0
 14 15  1  0
 15 16  1  0
 16 17  1  0
 17 18  1  0
 12 19  1  0
 19 20  2  0
  7 21  1  0
 21 22  1  0
 22 23  1  0
 22  4  1  0
 20  9  1  0
 18 13  1  0
  1 24  1  0
  1 25  1  0
  1 26  1  0
  5 27  1  0
  5 28  1  0
  6 29  1  0
  6 30  1  0
  8 31  1  0
  8 32  1  0
 10 33  1  0
 14 34  1  0
 14 35  1  0
 15 36  1  0
 15 37  1  0
 17 38  1  0
 17 39  1  0
 18 40  1  0
 18 41  1  0
 19 42  1  0
 20 43  1  0
 21 44  1  0
 21 45  1  0
 22 46  1  6
 23 47  1  0
 23 48  1  0
 23 49  1  0
M  CHG  1  19   1
M  END
>  <UniqueID>  (16) 
16

>  <SMILES>  (16) 
CC(=O)N1CCN(Cc2cnc(N3CCOCC3)[nH+]c2)C[C@H]1C

>  <Energy>  (16) 
66.15274738646832

>  <Genealogy>  (16) 
CC(=O)N1CCN(Cc2cnc(N3CCOCC3)[nH+]c2)CC1C (protonated)
CC(=O)N1CCN(Cc2cnc(N3CCOCC3)[nH+]c2)C[C@H]1C (chirality)
CC(=O)N1CCN(Cc2cnc(N3CCOCC3)[nH+]c2)C[C@H]1C (3D coordinates assigned)
CC(=O)N1CCN(Cc2cnc(N3CCOCC3)[nH+]c2)C[C@H]1C (nonaromatic ring conformer: 66.15274738646832 kcal/mol)

>  <smiles>  (16) 
CC(=O)N1CCN(Cc2cnc(N3CCOCC3)nc2)CC1C

>  <score_type>  (16) 
oracle

>  <origin>  (16) 
adg

>  <m_score__min__energy>  (16) 
-6.4000000000000004

>  <m_primary>  (16) 
energy

$$$$
16:0
     RDKit          3D

 53 56  0  0  0  0  0  0  0  0999 V2000
   -6.3890   23.2610  -32.3160 C   0  0  0  0  0  0  0  0  0  0  0  0
   -7.3220   23.4790  -31.1240 C   0  0  0  0  0  0  0  0  0  0  0  0
   -6.5660   23.7870  -29.8880 N   0  0  0  0  0  0  0  0  0  0  0  0
   -6.4230   25.2470  -29.7150 C   0  0  0  0  0  0  0  0  0  0  0  0
   -5.2320   23.1410  -29.9170 C   0  0  0  0  0  0  0  0  0  0  0  0
   -4.2830   23.8340  -28.9290 C   0  0  0  0  0  0  0  0  0  0  0  0
   -3.1360   24.5360  -29.6640 C   0  0  0  0  0  0  0  0  0  0  0  0
   -1.8680   23.8560  -29.4120 N   0  0  0  0  0  0  0  0  0  0  0  0
   -1.4700   23.5450  -28.0730 C   0  0  0  0  0  0  0  0  0  0  0  0
   -1.0240   24.5460  -27.2190 C   0  0  0  0  0  0  0  0  0  0  0  0
   -0.6380   24.2630  -25.9200 C   0  0  0  0  0  0  0  0  0  0  0  0
   -0.5690   22.9750  -25.4520 N   0  0  0  0  0  0  0  0  0  0  0  0
    0.1470   22.6840  -24.1990 C   0  0  0  0  0  0  0  0  0  0  0  0
   -1.1240   21.9630  -26.2220 C   0  0  0  0  0  0  0  0  0  0  0  0
   -1.2870   20.6500  -25.7200 C   0  0  0  0  0  0  0  0  0  0  0  0
   -1.8120   19.6350  -26.5200 C   0  0  0  0  0  0  0  0  0  0  0  0
   -2.1960   19.9000  -27.8320 C   0  0  0  0  0  0  0  0  0  0  0  0
   -2.0790   21.1870  -28.3500 C   0  0  0  0  0  0  0  0  0  0  0  0
   -1.5650   22.2330  -27.5600 C   0  0  0  0  0  0  0  0  0  0  0  0
   -0.3060   25.5500  -25.2640 C   0  0  0  0  0  0  0  0  0  0  0  0
   -0.1030   25.8350  -23.9450 N   0  0  0  0  0  0  0  0  0  0  0  0
    0.0790   27.1320  -23.5530 C   0  0  0  0  0  0  0  0  0  0  0  0
   -0.0000   28.1820  -24.4880 C   0  0  0  0  0  0  0  0  0  0  0  0
   -0.2930   27.8980  -25.8290 C   0  0  0  0  0  0  0  0  0  0  0  0
   -0.4480   26.5650  -26.1920 C   0  0  0  0  0  0  0  0  0  0  0  0
   -0.9050   25.9860  -27.4440 C   0  0  0  0  0  0  0  0  0  0  0  0
   -1.2010   26.6160  -28.4930 O   0  0  0  0  0  0  0  0  0  0  0  0
   -5.3782   23.0248  -31.9521 H   0  0  0  0  0  0  0  0  0  0  0  0
   -6.7632   22.4261  -32.9267 H   0  0  0  0  0  0  0  0  0  0  0  0
   -6.3545   24.1753  -32.9267 H   0  0  0  0  0  0  0  0  0  0  0  0
   -7.9969   24.3182  -31.3479 H   0  0  0  0  0  0  0  0  0  0  0  0
   -7.8896   22.5515  -30.9576 H   0  0  0  0  0  0  0  0  0  0  0  0
   -6.3993   25.4885  -28.6421 H   0  0  0  0  0  0  0  0  0  0  0  0
   -5.4877   25.5823  -30.1870 H   0  0  0  0  0  0  0  0  0  0  0  0
   -7.2755   25.7574  -30.1870 H   0  0  0  0  0  0  0  0  0  0  0  0
   -5.3355   22.0819  -29.6386 H   0  0  0  0  0  0  0  0  0  0  0  0
   -4.8157   23.2248  -30.9317 H   0  0  0  0  0  0  0  0  0  0  0  0
   -4.8485   24.5796  -28.3508 H   0  0  0  0  0  0  0  0  0  0  0  0
   -3.8549   23.0707  -28.2626 H   0  0  0  0  0  0  0  0  0  0  0  0
   -3.3413   24.5282  -30.7446 H   0  0  0  0  0  0  0  0  0  0  0  0
   -3.0615   25.5703  -29.2970 H   0  0  0  0  0  0  0  0  0  0  0  0
   -1.1700   23.7270  -30.1800 H   0  0  0  0  0  0  0  0  0  0  0  0
   -0.4924   22.9439  -23.3425 H   0  0  0  0  0  0  0  0  0  0  0  0
    0.3960   21.6133  -24.1592 H   0  0  0  0  0  0  0  0  0  0  0  0
    1.0724   23.2774  -24.1592 H   0  0  0  0  0  0  0  0  0  0  0  0
   -0.9953   20.4264  -24.6832 H   0  0  0  0  0  0  0  0  0  0  0  0
   -1.9233   18.6195  -26.1121 H   0  0  0  0  0  0  0  0  0  0  0  0
   -2.5931   19.0898  -28.4612 H   0  0  0  0  0  0  0  0  0  0  0  0
   -2.3908   21.3884  -29.3855 H   0  0  0  0  0  0  0  0  0  0  0  0
   -0.1290   25.0970  -23.2110 H   0  0  0  0  0  0  0  0  0  0  0  0
    0.2892   27.3575  -22.4971 H   0  0  0  0  0  0  0  0  0  0  0  0
    0.1675   29.2208  -24.1673 H   0  0  0  0  0  0  0  0  0  0  0  0
   -0.3970   28.7040  -26.5703 H   0  0  0  0  0  0  0  0  0  0  0  0
  1  2  1  0
  2  3  1  0
  3  4  1  0
  3  5  1  0
  5  6  1  0
  6  7  1  0
  7  8  1  0
  8  9  1  0
  9 10  2  0
 10 11  1  0
 11 12  2  0
 12 13  1  0
 12 14  1  0
 14 15  2  0
 15 16  1  0
 16 17  2  0
 17 18  1  0
 18 19  2  0
 11 20  1  0
 20 21  2  0
 21 22  1  0
 22 23  2  0
 23 24  1  0
 24 25  2  0
 25 26  1  0
 26 27  2  0
 19  9  1  0
 25 20  1  0
 26 10  1  0
 19 14  1  0
  1 28  1  0
  1 29  1  0
  1 30  1  0
  2 31  1  0
  2 32  1  0
  4 33  1  0
  4 34  1  0
  4 35  1  0
  5 36  1  0
  5 37  1  0
  6 38  1  0
  6 39  1  0
  7 40  1  0
  7 41  1  0
  8 42  1  0
 13 43  1  0
 13 44  1  0
 13 45  1  0
 15 46  1  0
 16 47  1  0
 17 48  1  0
 18 49  1  0
 21 50  1  0
 22 51  1  0
 23 52  1  0
 24 53  1  0
M  CHG  2  12   1  21   1
M  END
>  <UniqueID>  (17) 
17

>  <SMILES>  (17) 
CCN(C)CCCNc1c2c([n+](C)c3ccccc13)-c1[nH+]cccc1C2=O

>  <Energy>  (17) 
109.25297025683435

>  <Genealogy>  (17) 
CCN(C)CCCNc1c2c([n+](C)c3ccccc13)-c1[nH+]cccc1C2=O (protonated)
CCN(C)CCCNc1c2c([n+](C)c3ccccc13)-c1[nH+]cccc1C2=O (3D coordinates assigned)
CCN(C)CCCNc1c2c([n+](C)c3ccccc13)-c1[nH+]cccc1C2=O (nonaromatic ring conformer: 109.25297025683435 kcal/mol)

>  <smiles>  (17) 
CCN(C)CCCNc1c2c([n+](C)c3ccccc13)-c1ncccc1C2=O

>  <score_type>  (17) 
oracle

>  <origin>  (17) 
adg

>  <m_score__min__energy>  (17) 
-8.1099999999999994

>  <m_primary>  (17) 
energy

$$$$
17:0
     RDKit          3D

 38 40  0  0  0  0  0  0  0  0999 V2000
   -5.9130   15.4450  -33.8840 C   0  0  0  0  0  0  0  0  0  0  0  0
   -6.2680   16.8900  -33.7700 C   0  0  0  0  0  0  0  0  0  0  0  0
   -5.7430   17.8590  -34.5520 N   0  0  0  0  0  0  0  0  0  0  0  0
   -6.1640   19.1020  -34.1990 C   0  0  0  0  0  0  0  0  0  0  0  0
   -7.0360   19.1230  -33.1150 C   0  0  0  0  0  0  0  0  0  0  0  0
   -7.6030   20.3450  -32.4640 C   0  0  0  0  0  0  0  0  0  0  0  0
   -6.5740   20.9920  -31.6270 N   0  0  0  0  0  0  0  0  0  0  0  0
   -7.1170   22.1630  -30.9220 C   0  0  0  0  0  0  0  0  0  0  0  0
   -6.2440   23.1380  -31.6980 C   0  0  0  0  0  0  0  0  0  0  0  0
   -5.2230   23.8550  -30.8570 C   0  0  0  0  0  0  0  0  0  0  0  0
   -4.6120   25.0030  -31.2180 N   0  0  0  0  0  0  0  0  0  0  0  0
   -3.8210   25.2830  -30.2280 O   0  0  0  0  0  0  0  0  0  0  0  0
   -3.9320   24.3620  -29.3020 C   0  0  0  0  0  0  0  0  0  0  0  0
   -3.1640   24.3600  -28.0120 C   0  0  0  0  0  0  0  0  0  0  0  0
   -4.1150   24.5630  -26.8300 C   0  0  0  0  0  0  0  0  0  0  0  0
   -2.3790   23.0540  -27.8650 C   0  0  0  0  0  0  0  0  0  0  0  0
   -4.8230   23.4110  -29.6480 N   0  0  0  0  0  0  0  0  0  0  0  0
   -5.7120   21.9000  -32.4030 C   0  0  0  0  0  0  0  0  0  0  0  0
   -7.2600   17.5430  -32.5770 S   0  0  0  0  0  0  0  0  0  0  0  0
   -5.8069   15.0130  -32.8779 H   0  0  0  0  0  0  0  0  0  0  0  0
   -6.7074   14.9141  -34.4290 H   0  0  0  0  0  0  0  0  0  0  0  0
   -4.9630   15.3427  -34.4290 H   0  0  0  0  0  0  0  0  0  0  0  0
   -5.0750   17.6780  -35.3340 H   0  0  0  0  0  0  0  0  0  0  0  0
   -5.8430   20.0132  -34.7251 H   0  0  0  0  0  0  0  0  0  0  0  0
   -7.9379   21.0493  -33.2397 H   0  0  0  0  0  0  0  0  0  0  0  0
   -8.4550   20.0558  -31.8312 H   0  0  0  0  0  0  0  0  0  0  0  0
   -8.1939   22.3127  -31.0889 H   0  0  0  0  0  0  0  0  0  0  0  0
   -7.0823   22.1815  -29.8227 H   0  0  0  0  0  0  0  0  0  0  0  0
   -6.6483   24.0079  -32.2363 H   0  0  0  0  0  0  0  0  0  0  0  0
   -2.4457   25.1930  -28.0224 H   0  0  0  0  0  0  0  0  0  0  0  0
   -3.5596   24.4444  -25.8880 H   0  0  0  0  0  0  0  0  0  0  0  0
   -4.5469   25.5736  -26.8763 H   0  0  0  0  0  0  0  0  0  0  0  0
   -4.9219   23.8169  -26.8763 H   0  0  0  0  0  0  0  0  0  0  0  0
   -2.2423   22.8265  -26.7975 H   0  0  0  0  0  0  0  0  0  0  0  0
   -2.9351   22.2358  -28.3459 H   0  0  0  0  0  0  0  0  0  0  0  0
   -1.3955   23.1612  -28.3459 H   0  0  0  0  0  0  0  0  0  0  0  0
   -5.9233   21.8870  -33.4824 H   0  0  0  0  0  0  0  0  0  0  0  0
   -4.6267   21.7210  -32.4118 H   0  0  0  0  0  0  0  0  0  0  0  0
  1  2  1  0
  2  3  2  0
  3  4  1  0
  4  5  2  0
  5  6  1  0
  6  7  1  0
  7  8  1  0
  8  9  1  0
  9 10  1  0
 10 11  2  0
 11 12  1  0
 12 13  1  0
 13 14  1  0
 14 15  1  0
 14 16  1  0
 13 17  2  0
  9 18  1  0
  5 19  1  0
 19  2  1  0
 18  7  1  0
 17 10  1  0
  1 20  1  0
  1 21  1  0
  1 22  1  0
  3 23  1  0
  4 24  1  0
  6 25  1  0
  6 26  1  0
  8 27  1  0
  8 28  1  0
  9 29  1  0
 14 30  1  0
 15 31  1  0
 15 32  1  0
 15 33  1  0
 16 34  1  0
 16 35  1  0
 16 36  1  0
 18 37  1  0
 18 38  1  0
M  CHG  1   3   1
M  END
>  <UniqueID>  (18) 
18

>  <SMILES>  (18) 
Cc1[nH+]cc(CN2CC(c3noc(C(C)C)n3)C2)s1

>  <Energy>  (18) 
162.64618335871282

>  <Genealogy>  (18) 
Cc1[nH+]cc(CN2CC(c3noc(C(C)C)n3)C2)s1 (protonated)
Cc1[nH+]cc(CN2CC(c3noc(C(C)C)n3)C2)s1 (3D coordinates assigned)
Cc1[nH+]cc(CN2CC(c3noc(C(C)C)n3)C2)s1 (nonaromatic ring conformer: 162.64618335871282 kcal/mol)

>  <smiles>  (18) 
Cc1ncc(CN2CC(c3noc(C(C)C)n3)C2)s1

>  <score_type>  (18) 
oracle

>  <origin>  (18) 
adg

>  <m_score__min__energy>  (18) 
-7.9800000000000004

>  <m_primary>  (18) 
energy

$$$$
18:0
     RDKit          3D

 39 41  0  0  0  0  0  0  0  0999 V2000
   -5.9900   25.2070  -31.3400 O   0  0  0  0  0  0  0  0  0  0  0  0
   -4.9580   24.6320  -30.9040 C   0  0  0  0  0  0  0  0  0  0  0  0
   -3.9500   25.2980  -30.2960 N   0  0  0  0  0  0  0  0  0  0  0  0
   -2.9660   24.4370  -29.9260 C   0  0  0  0  0  0  0  0  0  0  0  0
   -1.7880   24.8220  -29.2840 C   0  0  0  0  0  0  0  0  0  0  0  0
   -1.5530   26.1550  -28.9670 O   0  0  0  0  0  0  0  0  0  0  0  0
   -0.8380   23.8380  -28.9650 C   0  0  0  0  0  0  0  0  0  0  0  0
   -1.0720   22.4880  -29.2850 C   0  0  0  0  0  0  0  0  0  0  0  0
   -2.2680   22.0970  -29.9210 C   0  0  0  0  0  0  0  0  0  0  0  0
   -2.4990   20.6570  -30.2990 C   0  0  0  0  0  0  0  0  0  0  0  0
   -1.9730   20.3760  -31.7070 C   0  0  0  0  0  0  0  0  0  0  0  0
   -3.0130   20.6890  -32.6950 N   0  0  0  0  0  0  0  0  0  0  0  0
   -3.7150   19.4840  -33.1650 C   0  0  0  0  0  0  0  0  0  0  0  0
   -5.0870   19.8040  -33.7800 C   0  0  0  0  0  0  0  0  0  0  0  0
   -5.6710   20.9380  -33.1370 O   0  0  0  0  0  0  0  0  0  0  0  0
   -6.9810   21.0030  -32.6350 C   0  0  0  0  0  0  0  0  0  0  0  0
   -7.8120   19.8690  -32.5170 C   0  0  0  0  0  0  0  0  0  0  0  0
   -9.1080   19.9970  -32.0080 C   0  0  0  0  0  0  0  0  0  0  0  0
   -9.5860   21.2490  -31.6100 C   0  0  0  0  0  0  0  0  0  0  0  0
   -8.7670   22.3750  -31.7200 C   0  0  0  0  0  0  0  0  0  0  0  0
   -7.4710   22.2510  -32.2280 C   0  0  0  0  0  0  0  0  0  0  0  0
   -3.1930   23.1020  -30.2380 C   0  0  0  0  0  0  0  0  0  0  0  0
   -4.6840   22.9700  -31.0130 S   0  0  0  0  0  0  0  0  0  0  0  0
    0.0966   24.1251  -28.4609 H   0  0  0  0  0  0  0  0  0  0  0  0
   -0.3144   21.7302  -29.0365 H   0  0  0  0  0  0  0  0  0  0  0  0
   -1.9760   20.0072  -29.5819 H   0  0  0  0  0  0  0  0  0  0  0  0
   -3.5802   20.4555  -30.2790 H   0  0  0  0  0  0  0  0  0  0  0  0
   -1.0875   21.0001  -31.8979 H   0  0  0  0  0  0  0  0  0  0  0  0
   -1.7005   19.3135  -31.7889 H   0  0  0  0  0  0  0  0  0  0  0  0
   -3.7040   21.3500  -32.2670 H   0  0  0  0  0  0  0  0  0  0  0  0
   -3.0943   18.9884  -33.9260 H   0  0  0  0  0  0  0  0  0  0  0  0
   -3.8828   18.8338  -32.2937 H   0  0  0  0  0  0  0  0  0  0  0  0
   -4.9621   20.0198  -34.8514 H   0  0  0  0  0  0  0  0  0  0  0  0
   -5.7495   18.9367  -33.6427 H   0  0  0  0  0  0  0  0  0  0  0  0
   -7.4393   18.8814  -32.8263 H   0  0  0  0  0  0  0  0  0  0  0  0
   -9.7531   19.1103  -31.9205 H   0  0  0  0  0  0  0  0  0  0  0  0
  -10.6062   21.3472  -31.2106 H   0  0  0  0  0  0  0  0  0  0  0  0
   -9.1424   23.3603  -31.4065 H   0  0  0  0  0  0  0  0  0  0  0  0
   -6.8298   23.1411  -32.3091 H   0  0  0  0  0  0  0  0  0  0  0  0
  1  2  2  0
  2  3  1  0
  3  4  1  0
  4  5  2  0
  5  6  1  0
  5  7  1  0
  7  8  2  0
  8  9  1  0
  9 10  1  0
 10 11  1  0
 11 12  1  0
 12 13  1  0
 13 14  1  0
 14 15  1  0
 15 16  1  0
 16 17  2  0
 17 18  1  0
 18 19  2  0
 19 20  1  0
 20 21  2  0
  9 22  2  0
 22 23  1  0
 23  2  1  0
 22  4  1  0
 21 16  1  0
  7 24  1  0
  8 25  1  0
 10 26  1  0
 10 27  1  0
 11 28  1  0
 11 29  1  0
 12 30  1  0
 13 31  1  0
 13 32  1  0
 14 33  1  0
 14 34  1  0
 17 35  1  0
 18 36  1  0
 19 37  1  0
 20 38  1  0
 21 39  1  0
M  CHG  2   3  -1   6  -1
M  END
>  <UniqueID>  (19) 
19

>  <SMILES>  (19) 
O=c1[n-]c2c([O-])ccc(CCNCCOc3ccccc3)c2s1

>  <Energy>  (19) 
72.93524351062612

>  <Genealogy>  (19) 
O=c1[n-]c2c([O-])ccc(CCNCCOc3ccccc3)c2s1 (protonated)
O=c1[n-]c2c([O-])ccc(CCNCCOc3ccccc3)c2s1 (3D coordinates assigned)
O=c1[n-]c2c([O-])ccc(CCNCCOc3ccccc3)c2s1 (optimized conformer: 72.93524351062612 kcal/mol)

>  <smiles>  (19) 
O=c1[nH]c2c(O)ccc(CCNCCOc3ccccc3)c2s1

>  <score_type>  (19) 
oracle

>  <origin>  (19) 
adg

>  <m_score__min__energy>  (19) 
-11.619999999999999

>  <m_primary>  (19) 
energy

$$$$
19:0
     RDKit          3D

 67 71  0  0  0  0  0  0  0  0999 V2000
  -10.9569   21.4797  -32.6184 H   0  0  0  0  0  0  0  0  0  0  0  0
   -9.9470   21.1500  -32.3330 C   0  0  0  0  0  0  0  0  0  0  0  0
   -8.9940   22.0920  -31.9430 C   0  0  0  0  0  0  0  0  0  0  0  0
   -9.2531   23.1610  -31.9292 H   0  0  0  0  0  0  0  0  0  0  0  0
   -7.7080   21.6800  -31.5690 C   0  0  0  0  0  0  0  0  0  0  0  0
   -6.7060   22.6800  -31.1460 C   0  0  0  0  0  0  0  0  0  0  0  0
   -5.3310   22.5200  -31.0490 C   0  0  0  0  0  0  0  0  0  0  0  0
   -4.4530   21.4610  -31.2290 C   0  0  0  0  0  0  0  0  0  0  0  0
   -4.8137   20.4669  -31.5317 H   0  0  0  0  0  0  0  0  0  0  0  0
   -3.1260   21.6970  -31.0170 N   0  0  0  0  0  0  0  0  0  0  0  0
   -2.6620   22.9330  -30.6320 C   0  0  0  0  0  0  0  0  0  0  0  0
   -1.3920   23.1380  -30.4400 N   0  0  0  0  0  0  0  0  0  0  0  0
   -0.6810   22.8620  -29.1920 C   0  0  0  0  0  0  0  0  0  0  0  0
   -1.3304   22.2712  -28.5292 H   0  0  0  0  0  0  0  0  0  0  0  0
    0.2371   22.3022  -29.4237 H   0  0  0  0  0  0  0  0  0  0  0  0
   -0.2970   24.1720  -28.4860 C   0  0  0  0  0  0  0  0  0  0  0  0
    0.7937   24.1960  -28.3450 H   0  0  0  0  0  0  0  0  0  0  0  0
   -0.6286   25.0128  -29.1129 H   0  0  0  0  0  0  0  0  0  0  0  0
   -0.9560   24.2880  -27.1650 N   0  0  0  0  0  0  0  0  0  0  0  0
   -1.4030   25.6790  -26.8990 C   0  0  0  0  0  0  0  0  0  0  0  0
   -0.5556   26.2550  -26.4987 H   0  0  0  0  0  0  0  0  0  0  0  0
   -1.7618   26.1099  -27.8454 H   0  0  0  0  0  0  0  0  0  0  0  0
   -2.5560   25.7230  -25.8870 C   0  0  0  0  0  0  0  0  0  0  0  0
   -2.2197   25.2649  -24.9452 H   0  0  0  0  0  0  0  0  0  0  0  0
   -2.8381   26.7758  -25.7386 H   0  0  0  0  0  0  0  0  0  0  0  0
   -3.7440   24.9970  -26.3720 N   0  0  0  0  0  0  0  0  0  0  0  0
   -4.3670   25.6730  -26.8750 H   0  0  0  0  0  0  0  0  0  0  0  0
   -3.4290   23.8910  -27.2960 C   0  0  0  0  0  0  0  0  0  0  0  0
   -4.1897   23.1046  -27.1824 H   0  0  0  0  0  0  0  0  0  0  0  0
   -3.4246   24.2922  -28.3202 H   0  0  0  0  0  0  0  0  0  0  0  0
   -2.0450   23.2880  -27.0140 C   0  0  0  0  0  0  0  0  0  0  0  0
   -2.0303   22.9008  -25.9845 H   0  0  0  0  0  0  0  0  0  0  0  0
   -1.8706   22.4855  -27.7458 H   0  0  0  0  0  0  0  0  0  0  0  0
   -3.5390   23.9630  -30.4350 N   0  0  0  0  0  0  0  0  0  0  0  0
   -4.8580   23.7310  -30.6440 C   0  0  0  0  0  0  0  0  0  0  0  0
   -5.8750   24.5920  -30.4780 N   0  0  0  0  0  0  0  0  0  0  0  0
   -5.7850   26.0040  -30.1280 C   0  0  0  0  0  0  0  0  0  0  0  0
   -5.7782   26.1107  -29.0332 H   0  0  0  0  0  0  0  0  0  0  0  0
   -4.8581   26.4264  -30.5433 H   0  0  0  0  0  0  0  0  0  0  0  0
   -6.6508   26.5406  -30.5433 H   0  0  0  0  0  0  0  0  0  0  0  0
   -7.0000   23.9570  -30.7880 N   0  0  0  0  0  0  0  0  0  0  0  0
   -7.9480   24.3950  -30.7820 H   0  0  0  0  0  0  0  0  0  0  0  0
   -7.3810   20.3160  -31.6210 C   0  0  0  0  0  0  0  0  0  0  0  0
   -6.3641   19.9926  -31.3538 H   0  0  0  0  0  0  0  0  0  0  0  0
   -8.3320   19.3570  -32.0090 C   0  0  0  0  0  0  0  0  0  0  0  0
   -7.9460   17.9670  -32.0190 N   0  0  0  0  0  0  0  0  0  0  0  0
   -8.6670   17.2590  -31.7550 H   0  0  0  0  0  0  0  0  0  0  0  0
   -6.6260   17.4400  -32.3720 C   0  0  0  0  0  0  0  0  0  0  0  0
   -5.8862   17.8499  -31.6687 H   0  0  0  0  0  0  0  0  0  0  0  0
   -6.6857   16.3431  -32.3154 H   0  0  0  0  0  0  0  0  0  0  0  0
   -6.1900   17.8040  -33.8130 C   0  0  0  0  0  0  0  0  0  0  0  0
   -7.1281   17.7908  -34.3873 H   0  0  0  0  0  0  0  0  0  0  0  0
   -5.2750   16.7530  -34.4800 C   0  0  0  0  0  0  0  0  0  0  0  0
   -5.5042   15.7659  -34.0522 H   0  0  0  0  0  0  0  0  0  0  0  0
   -5.4694   16.7850  -35.5622 H   0  0  0  0  0  0  0  0  0  0  0  0
   -3.7810   17.0430  -34.2710 C   0  0  0  0  0  0  0  0  0  0  0  0
   -3.5325   16.9007  -33.2089 H   0  0  0  0  0  0  0  0  0  0  0  0
   -3.1996   16.3526  -34.8998 H   0  0  0  0  0  0  0  0  0  0  0  0
   -3.4630   18.3680  -34.6460 O   0  0  0  0  0  0  0  0  0  0  0  0
   -4.0930   19.2720  -33.7610 C   0  0  0  0  0  0  0  0  0  0  0  0
   -3.8428   18.9970  -32.7257 H   0  0  0  0  0  0  0  0  0  0  0  0
   -3.7375   20.2891  -33.9828 H   0  0  0  0  0  0  0  0  0  0  0  0
   -5.6160   19.2330  -33.9380 C   0  0  0  0  0  0  0  0  0  0  0  0
   -6.0771   19.8671  -33.1664 H   0  0  0  0  0  0  0  0  0  0  0  0
   -5.8442   19.5973  -34.9505 H   0  0  0  0  0  0  0  0  0  0  0  0
   -9.6260   19.7910  -32.3630 C   0  0  0  0  0  0  0  0  0  0  0  0
  -10.3865   19.0556  -32.6643 H   0  0  0  0  0  0  0  0  0  0  0  0
  1  2  1  0
  2  3  2  0
  3  4  1  0
  3  5  1  0
  5  6  1  0
  6  7  1  0
  7  8  2  0
  8  9  1  0
  8 10  1  0
 10 11  1  0
 11 12  2  0
 12 13  1  0
 13 14  1  0
 13 15  1  0
 13 16  1  0
 16 17  1  0
 16 18  1  0
 16 19  1  0
 19 20  1  0
 20 21  1  0
 20 22  1  0
 20 23  1  0
 23 24  1  0
 23 25  1  0
 23 26  1  0
 26 27  1  0
 26 28  1  0
 28 29  1  0
 28 30  1  0
 28 31  1  0
 31 32  1  0
 31 33  1  0
 11 34  1  0
 34 35  2  0
 35 36  1  0
 36 37  1  0
 37 38  1  0
 37 39  1  0
 37 40  1  0
 36 41  1  0
 41 42  1  0
  5 43  2  0
 43 44  1  0
 43 45  1  0
 45 46  1  0
 46 47  1  0
 46 48  1  0
 48 49  1  0
 48 50  1  0
 48 51  1  0
 51 52  1  0
 51 53  1  0
 53 54  1  0
 53 55  1  0
 53 56  1  0
 56 57  1  0
 56 58  1  0
 56 59  1  0
 59 60  1  0
 60 61  1  0
 60 62  1  0
 60 63  1  0
 63 64  1  0
 63 65  1  0
 45 66  2  0
 66 67  1  0
 66  2  1  0
 41  6  2  0
 63 51  1  0
 35  7  1  0
 31 19  1  0
M  CHG  2  10  -1  41   1
M  END
>  <UniqueID>  (20) 
20

>  <SMILES>  (20) 
Cn1[nH+]c(-c2cccc(NCC3CCOCC3)c2)c2c[n-]/c(=N\CCN3CCNCC3)nc21

>  <Energy>  (20) 
128.65563770333688

>  <Genealogy>  (20) 
Cn1[nH+]c(-c2cccc(NCC3CCOCC3)c2)c2c[n-]c(=NCCN3CCNCC3)nc21 (protonated)
Cn1[nH+]c(-c2cccc(NCC3CCOCC3)c2)c2c[n-]/c(=N\CCN3CCNCC3)nc21 (cis-trans isomerization)
Cn1[nH+]c(-c2cccc(NCC3CCOCC3)c2)c2c[n-]/c(=N\CCN3CCNCC3)nc21 (3D coordinates assigned)
Cn1[nH+]c(-c2cccc(NCC3CCOCC3)c2)c2c[n-]/c(=N\CCN3CCNCC3)nc21 (nonaromatic ring conformer: 128.65563770333688 kcal/mol)

>  <smiles>  (20) 
Cn1nc(-c2cccc(NCC3CCOCC3)c2)c2c[nH]c(=NCCN3CCNCC3)nc21

>  <score_type>  (20) 
oracle

>  <origin>  (20) 
adg

>  <m_score__min__energy>  (20) 
-10.23

>  <m_primary>  (20) 
energy

$$$$
20:0
     RDKit          3D

 63 66  0  0  0  0  0  0  0  0999 V2000
   -3.0890   18.9380  -26.3840 C   0  0  0  0  0  0  0  0  0  0  0  0
   -2.1750   19.5760  -27.4230 C   0  0  0  0  0  0  0  0  0  0  0  0
   -2.4780   20.9620  -27.5750 O   0  0  0  0  0  0  0  0  0  0  0  0
   -1.7120   22.0310  -27.0800 C   0  0  0  0  0  0  0  0  0  0  0  0
   -0.8750   21.9000  -25.9520 C   0  0  0  0  0  0  0  0  0  0  0  0
   -0.1650   23.0030  -25.4690 C   0  0  0  0  0  0  0  0  0  0  0  0
   -0.2800   24.2430  -26.1010 C   0  0  0  0  0  0  0  0  0  0  0  0
   -1.0990   24.3830  -27.2210 C   0  0  0  0  0  0  0  0  0  0  0  0
   -1.8100   23.2840  -27.7190 C   0  0  0  0  0  0  0  0  0  0  0  0
   -2.6490   23.4510  -28.8700 N   0  0  0  0  0  0  0  0  0  0  0  0
   -2.5570   22.4580  -29.9480 C   0  0  0  0  0  0  0  0  0  0  0  0
   -3.1580   22.9730  -31.2640 C   0  0  0  0  0  0  0  0  0  0  0  0
   -4.4250   23.6980  -31.0750 N   0  0  0  0  0  0  0  0  0  0  0  0
   -5.6800   22.9150  -31.1480 C   0  0  0  0  0  0  0  0  0  0  0  0
   -6.7850   23.3880  -30.1810 C   0  0  0  0  0  0  0  0  0  0  0  0
   -7.8470   22.3060  -29.9330 C   0  0  0  0  0  0  0  0  0  0  0  0
   -8.4180   21.8400  -31.1590 O   0  0  0  0  0  0  0  0  0  0  0  0
   -8.1040   20.6220  -31.7840 C   0  0  0  0  0  0  0  0  0  0  0  0
   -8.6440   19.4480  -31.2500 C   0  0  0  0  0  0  0  0  0  0  0  0
   -8.2850   18.2020  -31.7690 C   0  0  0  0  0  0  0  0  0  0  0  0
   -7.3750   18.1150  -32.8310 C   0  0  0  0  0  0  0  0  0  0  0  0
   -6.8740   19.2920  -33.4180 C   0  0  0  0  0  0  0  0  0  0  0  0
   -7.2550   20.5430  -32.9030 C   0  0  0  0  0  0  0  0  0  0  0  0
   -5.9570   19.2000  -34.5250 N   0  0  0  0  0  0  0  0  0  0  0  0
   -4.9580   18.1630  -34.2450 C   0  0  0  0  0  0  0  0  0  0  0  0
   -5.6190   16.7760  -34.1500 C   0  0  0  0  0  0  0  0  0  0  0  0
   -6.9530   16.7660  -33.3600 C   0  0  0  0  0  0  0  0  0  0  0  0
   -4.3690   24.7730  -30.0670 C   0  0  0  0  0  0  0  0  0  0  0  0
   -3.8400   24.2910  -28.7170 C   0  0  0  0  0  0  0  0  0  0  0  0
   -2.7291   19.1892  -25.3754 H   0  0  0  0  0  0  0  0  0  0  0  0
   -4.1129   19.3186  -26.5133 H   0  0  0  0  0  0  0  0  0  0  0  0
   -3.0848   17.8456  -26.5133 H   0  0  0  0  0  0  0  0  0  0  0  0
   -1.1292   19.4679  -27.0996 H   0  0  0  0  0  0  0  0  0  0  0  0
   -2.3288   19.0714  -28.3883 H   0  0  0  0  0  0  0  0  0  0  0  0
   -0.7807   20.9256  -25.4503 H   0  0  0  0  0  0  0  0  0  0  0  0
    0.4859   22.8940  -24.5890 H   0  0  0  0  0  0  0  0  0  0  0  0
    0.2760   25.1101  -25.7150 H   0  0  0  0  0  0  0  0  0  0  0  0
   -1.1870   25.3615  -27.7158 H   0  0  0  0  0  0  0  0  0  0  0  0
   -1.4976   22.2129  -30.1144 H   0  0  0  0  0  0  0  0  0  0  0  0
   -3.1296   21.5708  -29.6397 H   0  0  0  0  0  0  0  0  0  0  0  0
   -2.4335   23.6517  -31.7379 H   0  0  0  0  0  0  0  0  0  0  0  0
   -3.3724   22.0959  -31.8923 H   0  0  0  0  0  0  0  0  0  0  0  0
   -6.0690   22.9839  -32.1746 H   0  0  0  0  0  0  0  0  0  0  0  0
   -5.4251   21.8863  -30.8534 H   0  0  0  0  0  0  0  0  0  0  0  0
   -6.3224   23.6562  -29.2197 H   0  0  0  0  0  0  0  0  0  0  0  0
   -7.2868   24.2520  -30.6411 H   0  0  0  0  0  0  0  0  0  0  0  0
   -7.3783   21.4581  -29.4121 H   0  0  0  0  0  0  0  0  0  0  0  0
   -8.6505   22.7449  -29.3233 H   0  0  0  0  0  0  0  0  0  0  0  0
   -9.3572   19.5062  -30.4146 H   0  0  0  0  0  0  0  0  0  0  0  0
   -8.7183   17.2854  -31.3424 H   0  0  0  0  0  0  0  0  0  0  0  0
   -6.8875   21.4650  -33.3773 H   0  0  0  0  0  0  0  0  0  0  0  0
   -6.4880   18.9630  -35.3950 H   0  0  0  0  0  0  0  0  0  0  0  0
   -5.4620   20.1080  -34.6720 H   0  0  0  0  0  0  0  0  0  0  0  0
   -4.2131   18.1524  -35.0543 H   0  0  0  0  0  0  0  0  0  0  0  0
   -4.4759   18.3896  -33.2826 H   0  0  0  0  0  0  0  0  0  0  0  0
   -5.8187   16.4174  -35.1705 H   0  0  0  0  0  0  0  0  0  0  0  0
   -4.9198   16.1271  -33.6022 H   0  0  0  0  0  0  0  0  0  0  0  0
   -7.7450   16.3951  -34.0271 H   0  0  0  0  0  0  0  0  0  0  0  0
   -6.7935   16.1211  -32.4832 H   0  0  0  0  0  0  0  0  0  0  0  0
   -3.7084   25.5699  -30.4392 H   0  0  0  0  0  0  0  0  0  0  0  0
   -5.3960   25.1346  -29.9106 H   0  0  0  0  0  0  0  0  0  0  0  0
   -3.5825   25.1660  -28.1021 H   0  0  0  0  0  0  0  0  0  0  0  0
   -4.6250   23.6886  -28.2364 H   0  0  0  0  0  0  0  0  0  0  0  0
  1  2  1  0
  2  3  1  0
  3  4  1  0
  4  5  2  0
  5  6  1  0
  6  7  2  0
  7  8  1  0
  8  9  2  0
  9 10  1  0
 10 11  1  0
 11 12  1  0
 12 13  1  0
 13 14  1  0
 14 15  1  0
 15 16  1  0
 16 17  1  0
 17 18  1  0
 18 19  2  0
 19 20  1  0
 20 21  2  0
 21 22  1  0
 22 23  2  0
 22 24  1  0
 24 25  1  0
 25 26  1  0
 26 27  1  0
 13 28  1  0
 28 29  1  0
  9  4  1  0
 29 10  1  0
 23 18  1  0
 27 21  1  0
  1 30  1  0
  1 31  1  0
  1 32  1  0
  2 33  1  0
  2 34  1  0
  5 35  1  0
  6 36  1  0
  7 37  1  0
  8 38  1  0
 11 39  1  0
 11 40  1  0
 12 41  1  0
 12 42  1  0
 14 43  1  0
 14 44  1  0
 15 45  1  0
 15 46  1  0
 16 47  1  0
 16 48  1  0
 19 49  1  0
 20 50  1  0
 23 51  1  0
 24 52  1  0
 24 53  1  0
 25 54  1  0
 25 55  1  0
 26 56  1  0
 26 57  1  0
 27 58  1  0
 27 59  1  0
 28 60  1  0
 28 61  1  0
 29 62  1  0
 29 63  1  0
M  CHG  1  24   1
M  END
>  <UniqueID>  (21) 
21

>  <SMILES>  (21) 
CCOc1ccccc1N1CCN(CCCOc2ccc3c(c2)[NH2+]CCC3)CC1

>  <Energy>  (21) 
77.49925522128284

>  <Genealogy>  (21) 
CCOc1ccccc1N1CCN(CCCOc2ccc3c(c2)[NH2+]CCC3)CC1 (protonated)
CCOc1ccccc1N1CCN(CCCOc2ccc3c(c2)[NH2+]CCC3)CC1 (3D coordinates assigned)
CCOc1ccccc1N1CCN(CCCOc2ccc3c(c2)[NH2+]CCC3)CC1 (nonaromatic ring conformer: 77.49925522128284 kcal/mol)

>  <smiles>  (21) 
CCOc1ccccc1N1CCN(CCCOc2ccc3c(c2)NCCC3)CC1

>  <score_type>  (21) 
oracle

>  <origin>  (21) 
adg

>  <m_score__min__energy>  (21) 
-9.2200000000000006

>  <m_primary>  (21) 
energy

$$$$
21:0
     RDKit          3D

 65 67  0  0  0  0  0  0  0  0999 V2000
   -6.0810   25.4820  -29.7650 C   0  0  0  0  0  0  0  0  0  0  0  0
   -4.7410   25.4400  -30.5040 C   0  0  0  0  0  0  0  0  0  0  0  0
   -4.1320   24.1010  -30.4940 N   0  0  0  0  0  0  0  0  0  0  0  0
   -4.2060   23.4640  -29.1720 C   0  0  0  0  0  0  0  0  0  0  0  0
   -3.5810   24.3710  -28.1040 C   0  0  0  0  0  0  0  0  0  0  0  0
   -2.1650   24.8380  -28.4640 C   0  0  0  0  0  0  0  0  0  0  0  0
   -1.5120   23.8550  -29.3450 N   0  0  0  0  0  0  0  0  0  0  0  0
   -1.1220   22.6420  -28.6130 C   0  0  0  0  0  0  0  0  0  0  0  0
   -0.6380   21.5610  -29.5840 C   0  0  0  0  0  0  0  0  0  0  0  0
   -0.9090   21.9400  -31.0450 C   0  0  0  0  0  0  0  0  0  0  0  0
   -2.3470   22.1460  -31.2680 N   0  0  0  0  0  0  0  0  0  0  0  0
   -3.0050   20.9130  -31.7230 C   0  0  0  0  0  0  0  0  0  0  0  0
   -3.0460   20.8530  -33.2560 C   0  0  0  0  0  0  0  0  0  0  0  0
   -4.3880   21.1240  -33.7850 N   0  0  0  0  0  0  0  0  0  0  0  0
   -5.5640   20.4320  -33.3260 C   0  0  0  0  0  0  0  0  0  0  0  0
   -6.5220   21.1150  -32.5570 C   0  0  0  0  0  0  0  0  0  0  0  0
   -6.3810   22.4950  -32.2910 C   0  0  0  0  0  0  0  0  0  0  0  0
   -7.2840   23.1560  -31.4630 C   0  0  0  0  0  0  0  0  0  0  0  0
   -8.3300   22.4570  -30.8760 C   0  0  0  0  0  0  0  0  0  0  0  0
   -8.5010   21.0980  -31.1380 C   0  0  0  0  0  0  0  0  0  0  0  0
   -7.6250   20.4040  -32.0140 C   0  0  0  0  0  0  0  0  0  0  0  0
   -7.8090   19.0670  -32.3180 N   0  0  0  0  0  0  0  0  0  0  0  0
   -9.0840   18.4000  -31.9710 C   0  0  0  0  0  0  0  0  0  0  0  0
   -6.8220   18.3650  -32.9860 C   0  0  0  0  0  0  0  0  0  0  0  0
   -6.8670   16.9530  -33.1160 C   0  0  0  0  0  0  0  0  0  0  0  0
   -5.9180   16.2690  -33.8770 C   0  0  0  0  0  0  0  0  0  0  0  0
   -4.9070   16.9680  -34.5250 C   0  0  0  0  0  0  0  0  0  0  0  0
   -4.8060   18.3480  -34.3730 C   0  0  0  0  0  0  0  0  0  0  0  0
   -5.7200   19.0540  -33.5610 C   0  0  0  0  0  0  0  0  0  0  0  0
   -5.9016   25.4764  -28.6797 H   0  0  0  0  0  0  0  0  0  0  0  0
   -6.6240   26.3976  -30.0421 H   0  0  0  0  0  0  0  0  0  0  0  0
   -6.6803   24.6022  -30.0421 H   0  0  0  0  0  0  0  0  0  0  0  0
   -4.9046   25.7450  -31.5481 H   0  0  0  0  0  0  0  0  0  0  0  0
   -4.0525   26.1234  -29.9853 H   0  0  0  0  0  0  0  0  0  0  0  0
   -3.1270   24.1730  -30.7840 H   0  0  0  0  0  0  0  0  0  0  0  0
   -5.2600   23.2784  -28.9179 H   0  0  0  0  0  0  0  0  0  0  0  0
   -3.6510   22.5148  -29.2024 H   0  0  0  0  0  0  0  0  0  0  0  0
   -4.2207   25.2572  -27.9795 H   0  0  0  0  0  0  0  0  0  0  0  0
   -3.5065   23.7829  -27.1774 H   0  0  0  0  0  0  0  0  0  0  0  0
   -2.2229   25.8070  -28.9813 H   0  0  0  0  0  0  0  0  0  0  0  0
   -1.5755   24.9387  -27.5408 H   0  0  0  0  0  0  0  0  0  0  0  0
   -2.1870   23.5770  -30.0970 H   0  0  0  0  0  0  0  0  0  0  0  0
   -0.3111   22.8877  -27.9115 H   0  0  0  0  0  0  0  0  0  0  0  0
   -1.9962   22.2614  -28.0644 H   0  0  0  0  0  0  0  0  0  0  0  0
    0.4445   21.4203  -29.4483 H   0  0  0  0  0  0  0  0  0  0  0  0
   -1.1896   20.6349  -29.3647 H   0  0  0  0  0  0  0  0  0  0  0  0
   -0.3696   22.8685  -31.2836 H   0  0  0  0  0  0  0  0  0  0  0  0
   -0.5633   21.1215  -31.6936 H   0  0  0  0  0  0  0  0  0  0  0  0
   -2.7730   22.4120  -30.3490 H   0  0  0  0  0  0  0  0  0  0  0  0
   -2.4471   20.0446  -31.3426 H   0  0  0  0  0  0  0  0  0  0  0  0
   -4.0366   20.9015  -31.3412 H   0  0  0  0  0  0  0  0  0  0  0  0
   -2.3484   21.6021  -33.6588 H   0  0  0  0  0  0  0  0  0  0  0  0
   -2.7610   19.8356  -33.5622 H   0  0  0  0  0  0  0  0  0  0  0  0
   -4.5120   21.9370  -34.4300 H   0  0  0  0  0  0  0  0  0  0  0  0
   -5.5483   23.0537  -32.7432 H   0  0  0  0  0  0  0  0  0  0  0  0
   -7.1686   24.2334  -31.2736 H   0  0  0  0  0  0  0  0  0  0  0  0
   -9.0264   22.9770  -30.2018 H   0  0  0  0  0  0  0  0  0  0  0  0
   -9.3283   20.5546  -30.6581 H   0  0  0  0  0  0  0  0  0  0  0  0
   -9.1844   18.3475  -30.8769 H   0  0  0  0  0  0  0  0  0  0  0  0
   -9.9239   18.9742  -32.3891 H   0  0  0  0  0  0  0  0  0  0  0  0
   -9.0912   17.3826  -32.3891 H   0  0  0  0  0  0  0  0  0  0  0  0
   -7.6629   16.3881  -32.6087 H   0  0  0  0  0  0  0  0  0  0  0  0
   -5.9705   15.1737  -33.9640 H   0  0  0  0  0  0  0  0  0  0  0  0
   -4.1860   16.4306  -35.1585 H   0  0  0  0  0  0  0  0  0  0  0  0
   -4.0047   18.8948  -34.8916 H   0  0  0  0  0  0  0  0  0  0  0  0
  1  2  1  0
  2  3  1  0
  3  4  1  0
  4  5  1  0
  5  6  1  0
  6  7  1  0
  7  8  1  0
  8  9  1  0
  9 10  1  0
 10 11  1  0
 11 12  1  0
 12 13  1  0
 13 14  1  0
 14 15  1  0
 15 16  2  0
 16 17  1  0
 17 18  2  0
 18 19  1  0
 19 20  2  0
 20 21  1  0
 21 22  2  0
 22 23  1  0
 22 24  1  0
 24 25  2  0
 25 26  1  0
 26 27  2  0
 27 28  1  0
 28 29  2  0
 29 15  1  0
 21 16  1  0
 29 24  1  0
  1 30  1  0
  1 31  1  0
  1 32  1  0
  2 33  1  0
  2 34  1  0
  3 35  1  0
  4 36  1  0
  4 37  1  0
  5 38  1  0
  5 39  1  0
  6 40  1  0
  6 41  1  0
  7 42  1  0
  8 43  1  0
  8 44  1  0
  9 45  1  0
  9 46  1  0
 10 47  1  0
 10 48  1  0
 11 49  1  0
 12 50  1  0
 12 51  1  0
 13 52  1  0
 13 53  1  0
 14 54  1  0
 17 55  1  0
 18 56  1  0
 19 57  1  0
 20 58  1  0
 23 59  1  0
 23 60  1  0
 23 61  1  0
 25 62  1  0
 26 63  1  0
 27 64  1  0
 28 65  1  0
M  CHG  1  22   1
M  END
>  <UniqueID>  (22) 
22

>  <SMILES>  (22) 
CCNCCCNCCCNCCNc1c2ccccc2[n+](C)c2ccccc12

>  <Energy>  (22) 
76.91706443454456

>  <Genealogy>  (22) 
CCNCCCNCCCNCCNc1c2ccccc2[n+](C)c2ccccc12 (3D coordinates assigned)
CCNCCCNCCCNCCNc1c2ccccc2[n+](C)c2ccccc12 (optimized conformer: 76.91706443454456 kcal/mol)

>  <smiles>  (22) 
CCNCCCNCCCNCCNc1c2ccccc2[n+](C)c2ccccc12

>  <score_type>  (22) 
oracle

>  <origin>  (22) 
adg

>  <m_score__min__energy>  (22) 
-9.2100000000000009

>  <m_primary>  (22) 
energy

$$$$
22:0
     RDKit          3D

 53 55  0  0  0  0  0  0  0  0999 V2000
   -2.3440   20.4930  -27.1730 C   0  0  0  0  0  0  0  0  0  0  0  0
   -2.7280   20.7970  -28.6350 C   0  0  0  0  0  0  0  0  0  0  0  0
   -2.9130   22.2560  -28.9660 N   0  0  0  0  0  0  0  0  0  0  0  0
   -2.0680   23.0710  -28.0250 C   0  0  0  0  0  0  0  0  0  0  0  0
   -1.1400   24.1140  -28.6640 C   0  0  0  0  0  0  0  0  0  0  0  0
   -4.3580   22.6930  -28.9220 C   0  0  0  0  0  0  0  0  0  0  0  0
   -4.6350   24.2110  -28.8630 C   0  0  0  0  0  0  0  0  0  0  0  0
   -2.3740   22.4780  -30.3580 C   0  0  0  0  0  0  0  0  0  0  0  0
   -2.6280   21.3330  -31.3860 C   0  0  0  0  0  0  0  0  0  0  0  0
   -3.0540   21.8780  -32.7710 C   0  0  0  0  0  0  0  0  0  0  0  0
   -4.4880   21.5980  -33.0830 N   0  0  0  0  0  0  0  0  0  0  0  0
   -5.3940   22.4640  -32.3360 C   0  0  0  0  0  0  0  0  0  0  0  0
   -4.9980   23.5630  -31.8590 O   0  0  0  0  0  0  0  0  0  0  0  0
   -6.8230   22.1000  -32.1920 C   0  0  0  0  0  0  0  0  0  0  0  0
   -7.7890   23.0620  -31.8500 C   0  0  0  0  0  0  0  0  0  0  0  0
   -9.1290   22.6950  -31.6970 C   0  0  0  0  0  0  0  0  0  0  0  0
   -9.5170   21.3650  -31.8700 C   0  0  0  0  0  0  0  0  0  0  0  0
   -8.5660   20.3890  -32.1990 C   0  0  0  0  0  0  0  0  0  0  0  0
   -8.9400   19.0470  -32.3440 C   0  0  0  0  0  0  0  0  0  0  0  0
   -7.9780   18.0810  -32.6480 C   0  0  0  0  0  0  0  0  0  0  0  0
   -6.6410   18.4450  -32.8160 C   0  0  0  0  0  0  0  0  0  0  0  0
   -6.2470   19.7880  -32.6840 C   0  0  0  0  0  0  0  0  0  0  0  0
   -7.2100   20.7630  -32.3720 C   0  0  0  0  0  0  0  0  0  0  0  0
   -4.8320   20.1970  -32.8650 C   0  0  0  0  0  0  0  0  0  0  0  0
   -3.9500   19.2950  -32.9480 O   0  0  0  0  0  0  0  0  0  0  0  0
   -3.0237   21.0311  -26.4959 H   0  0  0  0  0  0  0  0  0  0  0  0
   -2.4247   19.4113  -26.9900 H   0  0  0  0  0  0  0  0  0  0  0  0
   -1.3097   20.8197  -26.9900 H   0  0  0  0  0  0  0  0  0  0  0  0
   -1.9334   20.4001  -29.2839 H   0  0  0  0  0  0  0  0  0  0  0  0
   -3.7080   20.3237  -28.7952 H   0  0  0  0  0  0  0  0  0  0  0  0
   -2.7468   23.6021  -27.3416 H   0  0  0  0  0  0  0  0  0  0  0  0
   -1.3989   22.3481  -27.5353 H   0  0  0  0  0  0  0  0  0  0  0  0
   -0.6315   24.6855  -27.8736 H   0  0  0  0  0  0  0  0  0  0  0  0
   -0.3908   23.6048  -29.2881 H   0  0  0  0  0  0  0  0  0  0  0  0
   -1.7328   24.7989  -29.2881 H   0  0  0  0  0  0  0  0  0  0  0  0
   -4.8496   22.3018  -29.8249 H   0  0  0  0  0  0  0  0  0  0  0  0
   -4.7450   22.2971  -27.9715 H   0  0  0  0  0  0  0  0  0  0  0  0
   -4.6937   24.5325  -27.8127 H   0  0  0  0  0  0  0  0  0  0  0  0
   -3.8208   24.7522  -29.3672 H   0  0  0  0  0  0  0  0  0  0  0  0
   -5.5879   24.4297  -29.3672 H   0  0  0  0  0  0  0  0  0  0  0  0
   -2.8365   23.3938  -30.7548 H   0  0  0  0  0  0  0  0  0  0  0  0
   -1.2813   22.5346  -30.2448 H   0  0  0  0  0  0  0  0  0  0  0  0
   -1.7026   20.7501  -31.5035 H   0  0  0  0  0  0  0  0  0  0  0  0
   -3.4473   20.7078  -31.0013 H   0  0  0  0  0  0  0  0  0  0  0  0
   -2.8967   22.9666  -32.7847 H   0  0  0  0  0  0  0  0  0  0  0  0
   -2.4426   21.3698  -33.5312 H   0  0  0  0  0  0  0  0  0  0  0  0
   -4.6560   21.7810  -34.1000 H   0  0  0  0  0  0  0  0  0  0  0  0
   -7.4887   24.1098  -31.7019 H   0  0  0  0  0  0  0  0  0  0  0  0
   -9.8801   23.4563  -31.4395 H   0  0  0  0  0  0  0  0  0  0  0  0
  -10.5729   21.0819  -31.7477 H   0  0  0  0  0  0  0  0  0  0  0  0
   -9.9926   18.7535  -32.2183 H   0  0  0  0  0  0  0  0  0  0  0  0
   -8.2757   17.0275  -32.7556 H   0  0  0  0  0  0  0  0  0  0  0  0
   -5.8909   17.6762  -33.0532 H   0  0  0  0  0  0  0  0  0  0  0  0
  1  2  1  0
  2  3  1  0
  3  4  1  0
  4  5  1  0
  3  6  1  0
  6  7  1  0
  3  8  1  0
  8  9  1  0
  9 10  1  0
 10 11  1  0
 11 12  1  0
 12 13  2  0
 12 14  1  0
 14 15  1  0
 15 16  2  0
 16 17  1  0
 17 18  2  0
 18 19  1  0
 19 20  2  0
 20 21  1  0
 21 22  2  0
 22 23  1  0
 22 24  1  0
 24 25  2  0
 24 11  1  0
 23 14  2  0
 23 18  1  0
  1 26  1  0
  1 27  1  0
  1 28  1  0
  2 29  1  0
  2 30  1  0
  4 31  1  0
  4 32  1  0
  5 33  1  0
  5 34  1  0
  5 35  1  0
  6 36  1  0
  6 37  1  0
  7 38  1  0
  7 39  1  0
  7 40  1  0
  8 41  1  0
  8 42  1  0
  9 43  1  0
  9 44  1  0
 10 45  1  0
 10 46  1  0
 11 47  1  0
 15 48  1  0
 16 49  1  0
 17 50  1  0
 19 51  1  0
 20 52  1  0
 21 53  1  0
M  CHG  2   3   1  11   1
M  END
>  <UniqueID>  (23) 
23

>  <SMILES>  (23) 
CC[N+](CC)(CC)CCC[NH+]1C(=O)c2cccc3cccc(c23)C1=O

>  <Energy>  (23) 
95.97721952738081

>  <Genealogy>  (23) 
CC[N+](CC)(CC)CCC[NH+]1C(=O)c2cccc3cccc(c23)C1=O (protonated)
CC[N+](CC)(CC)CCC[NH+]1C(=O)c2cccc3cccc(c23)C1=O (3D coordinates assigned)
CC[N+](CC)(CC)CCC[NH+]1C(=O)c2cccc3cccc(c23)C1=O (nonaromatic ring conformer: 95.97721952738081 kcal/mol)

>  <smiles>  (23) 
CC[N+](CC)(CC)CCCN1C(=O)c2cccc3cccc(c23)C1=O

>  <score_type>  (23) 
oracle

>  <origin>  (23) 
adg

>  <m_score__min__energy>  (23) 
-7.29

>  <m_primary>  (23) 
energy

$$$$
23:0
     RDKit          3D

 52 54  0  0  0  0  0  0  0  0999 V2000
   -8.7650   18.2540  -31.5730 C   0  0  0  0  0  0  0  0  0  0  0  0
   -7.7300   19.0990  -32.2070 N   0  0  0  0  0  0  0  0  0  0  0  0
   -7.7220   20.4590  -31.9780 C   0  0  0  0  0  0  0  0  0  0  0  0
   -6.6050   21.2360  -32.3350 C   0  0  0  0  0  0  0  0  0  0  0  0
   -5.5540   20.6520  -33.0580 C   0  0  0  0  0  0  0  0  0  0  0  0
   -4.4170   21.4380  -33.4420 N   0  0  0  0  0  0  0  0  0  0  0  0
   -3.1520   21.2900  -32.7210 C   0  0  0  0  0  0  0  0  0  0  0  0
   -3.3450   20.5390  -31.3990 C   0  0  0  0  0  0  0  0  0  0  0  0
   -3.6260   21.4960  -30.2300 C   0  0  0  0  0  0  0  0  0  0  0  0
   -2.5570   22.5930  -30.0830 C   0  0  0  0  0  0  0  0  0  0  0  0
   -2.9660   23.7870  -29.2010 C   0  0  0  0  0  0  0  0  0  0  0  0
   -4.4720   24.0570  -29.2220 C   0  0  0  0  0  0  0  0  0  0  0  0
   -4.8650   25.2990  -30.4900 S   0  0  0  0  0  0  0  0  0  0  0  0
   -5.6440   19.3000  -33.4360 C   0  0  0  0  0  0  0  0  0  0  0  0
   -4.6440   18.7030  -34.2320 C   0  0  0  0  0  0  0  0  0  0  0  0
   -4.7540   17.3740  -34.6320 C   0  0  0  0  0  0  0  0  0  0  0  0
   -5.8630   16.6220  -34.2580 C   0  0  0  0  0  0  0  0  0  0  0  0
   -6.8600   17.1890  -33.4660 C   0  0  0  0  0  0  0  0  0  0  0  0
   -6.7640   18.5300  -33.0150 C   0  0  0  0  0  0  0  0  0  0  0  0
   -6.5300   22.6530  -31.8100 C   0  0  0  0  0  0  0  0  0  0  0  0
   -7.8390   23.4250  -32.0470 C   0  0  0  0  0  0  0  0  0  0  0  0
   -9.1110   22.5520  -31.9770 C   0  0  0  0  0  0  0  0  0  0  0  0
   -8.8830   21.1850  -31.3160 C   0  0  0  0  0  0  0  0  0  0  0  0
   -8.6772   18.3257  -30.4789 H   0  0  0  0  0  0  0  0  0  0  0  0
   -9.7618   18.5996  -31.8843 H   0  0  0  0  0  0  0  0  0  0  0  0
   -8.6258   17.2082  -31.8843 H   0  0  0  0  0  0  0  0  0  0  0  0
   -4.5950   22.3220  -33.9690 H   0  0  0  0  0  0  0  0  0  0  0  0
   -2.4449   20.7300  -33.3506 H   0  0  0  0  0  0  0  0  0  0  0  0
   -2.7636   22.2940  -32.4947 H   0  0  0  0  0  0  0  0  0  0  0  0
   -4.1939   19.8474  -31.5039 H   0  0  0  0  0  0  0  0  0  0  0  0
   -2.4146   19.9955  -31.1776 H   0  0  0  0  0  0  0  0  0  0  0  0
   -4.6013   21.9766  -30.3967 H   0  0  0  0  0  0  0  0  0  0  0  0
   -3.6157   20.8996  -29.3058 H   0  0  0  0  0  0  0  0  0  0  0  0
   -1.6579   22.1364  -29.6435 H   0  0  0  0  0  0  0  0  0  0  0  0
   -2.3925   22.9987  -31.0921 H   0  0  0  0  0  0  0  0  0  0  0  0
   -2.6617   23.5780  -28.1648 H   0  0  0  0  0  0  0  0  0  0  0  0
   -2.4657   24.6802  -29.6034 H   0  0  0  0  0  0  0  0  0  0  0  0
   -5.0062   23.1227  -29.4496 H   0  0  0  0  0  0  0  0  0  0  0  0
   -4.7841   24.4356  -28.2375 H   0  0  0  0  0  0  0  0  0  0  0  0
   -5.0990   26.3010  -29.5290 H   0  0  0  0  0  0  0  0  0  0  0  0
   -3.7684   19.2935  -34.5398 H   0  0  0  0  0  0  0  0  0  0  0  0
   -3.9626   16.9178  -35.2448 H   0  0  0  0  0  0  0  0  0  0  0  0
   -5.9534   15.5767  -34.5883 H   0  0  0  0  0  0  0  0  0  0  0  0
   -7.7363   16.5859  -33.1860 H   0  0  0  0  0  0  0  0  0  0  0  0
   -6.3271   22.6211  -30.7293 H   0  0  0  0  0  0  0  0  0  0  0  0
   -5.7257   23.1736  -32.3505 H   0  0  0  0  0  0  0  0  0  0  0  0
   -7.9184   24.2121  -31.2827 H   0  0  0  0  0  0  0  0  0  0  0  0
   -7.7878   23.8272  -33.0696 H   0  0  0  0  0  0  0  0  0  0  0  0
   -9.8738   23.0946  -31.3994 H   0  0  0  0  0  0  0  0  0  0  0  0
   -9.4281   22.3605  -33.0128 H   0  0  0  0  0  0  0  0  0  0  0  0
   -8.6570   21.3320  -30.2496 H   0  0  0  0  0  0  0  0  0  0  0  0
   -9.7934   20.5784  -31.4311 H   0  0  0  0  0  0  0  0  0  0  0  0
  1  2  1  0
  2  3  2  0
  3  4  1  0
  4  5  2  0
  5  6  1  0
  6  7  1  0
  7  8  1  0
  8  9  1  0
  9 10  1  0
 10 11  1  0
 11 12  1  0
 12 13  1  0
  5 14  1  0
 14 15  2  0
 15 16  1  0
 16 17  2  0
 17 18  1  0
 18 19  2  0
  4 20  1  0
 20 21  1  0
 21 22  1  0
 22 23  1  0
 19  2  1  0
 23  3  1  0
 19 14  1  0
  1 24  1  0
  1 25  1  0
  1 26  1  0
  6 27  1  0
  7 28  1  0
  7 29  1  0
  8 30  1  0
  8 31  1  0
  9 32  1  0
  9 33  1  0
 10 34  1  0
 10 35  1  0
 11 36  1  0
 11 37  1  0
 12 38  1  0
 12 39  1  0
 13 40  1  0
 15 41  1  0
 16 42  1  0
 17 43  1  0
 18 44  1  0
 20 45  1  0
 20 46  1  0
 21 47  1  0
 21 48  1  0
 22 49  1  0
 22 50  1  0
 23 51  1  0
 23 52  1  0
M  CHG  1   2   1
M  END
>  <UniqueID>  (24) 
24

>  <SMILES>  (24) 
C[n+]1c2c(c(NCCCCCCS)c3ccccc31)CCCC2

>  <Energy>  (24) 
67.76509044975501

>  <Genealogy>  (24) 
C[n+]1c2c(c(NCCCCCCS)c3ccccc31)CCCC2 (3D coordinates assigned)
C[n+]1c2c(c(NCCCCCCS)c3ccccc31)CCCC2 (nonaromatic ring conformer: 67.76509044975501 kcal/mol)

>  <smiles>  (24) 
C[n+]1c2c(c(NCCCCCCS)c3ccccc31)CCCC2

>  <score_type>  (24) 
oracle

>  <origin>  (24) 
adg

>  <m_score__min__energy>  (24) 
-8.5399999999999991

>  <m_primary>  (24) 
energy

$$$$
24:0
     RDKit          3D

 39 41  0  0  0  0  0  0  0  0999 V2000
   -9.1647   17.8693  -33.0458 H   0  0  0  0  0  0  0  0  0  0  0  0
   -8.5300   18.7010  -32.7060 C   0  0  0  0  0  0  0  0  0  0  0  0
   -7.1780   18.7300  -33.0480 C   0  0  0  0  0  0  0  0  0  0  0  0
   -6.7506   17.9245  -33.6632 H   0  0  0  0  0  0  0  0  0  0  0  0
   -6.3660   19.7780  -32.6120 C   0  0  0  0  0  0  0  0  0  0  0  0
   -5.0470   19.7700  -32.9390 F   0  0  0  0  0  0  0  0  0  0  0  0
   -6.9010   20.8150  -31.8250 C   0  0  0  0  0  0  0  0  0  0  0  0
   -6.0080   21.8980  -31.3570 C   0  0  0  0  0  0  0  0  0  0  0  0
   -6.3150   23.2390  -31.6480 C   0  0  0  0  0  0  0  0  0  0  0  0
   -7.2217   23.4799  -32.2223 H   0  0  0  0  0  0  0  0  0  0  0  0
   -5.4750   24.2680  -31.2120 C   0  0  0  0  0  0  0  0  0  0  0  0
   -5.7241   25.3147  -31.4408 H   0  0  0  0  0  0  0  0  0  0  0  0
   -4.3180   23.9680  -30.4850 C   0  0  0  0  0  0  0  0  0  0  0  0
   -3.4980   24.9630  -30.0590 N   0  0  0  0  0  0  0  0  0  0  0  0
   -2.3690   24.6900  -29.3530 C   0  0  0  0  0  0  0  0  0  0  0  0
   -1.6130   25.6720  -28.9610 N   0  0  0  0  0  0  0  0  0  0  0  0
   -1.0860   25.8400  -27.6030 C   0  0  0  0  0  0  0  0  0  0  0  0
   -0.8374   26.8979  -27.4323 H   0  0  0  0  0  0  0  0  0  0  0  0
    0.1750   24.9900  -27.4500 C   0  0  0  0  0  0  0  0  0  0  0  0
    0.3914   24.8441  -26.3814 H   0  0  0  0  0  0  0  0  0  0  0  0
    0.0185   24.0123  -27.9292 H   0  0  0  0  0  0  0  0  0  0  0  0
    1.0226   25.5018  -27.9292 H   0  0  0  0  0  0  0  0  0  0  0  0
   -2.1390   25.4240  -26.5700 C   0  0  0  0  0  0  0  0  0  0  0  0
   -1.7408   25.5813  -25.5567 H   0  0  0  0  0  0  0  0  0  0  0  0
   -3.0460   26.0314  -26.7059 H   0  0  0  0  0  0  0  0  0  0  0  0
   -2.3860   24.3607  -26.7059 H   0  0  0  0  0  0  0  0  0  0  0  0
   -2.0480   23.3970  -29.0650 N   0  0  0  0  0  0  0  0  0  0  0  0
   -2.8350   22.3670  -29.4690 C   0  0  0  0  0  0  0  0  0  0  0  0
   -2.5563   21.3313  -29.2247 H   0  0  0  0  0  0  0  0  0  0  0  0
   -4.0000   22.6260  -30.1960 C   0  0  0  0  0  0  0  0  0  0  0  0
   -4.8420   21.5950  -30.6340 C   0  0  0  0  0  0  0  0  0  0  0  0
   -4.5899   20.5476  -30.4116 H   0  0  0  0  0  0  0  0  0  0  0  0
   -8.2810   20.7990  -31.4990 C   0  0  0  0  0  0  0  0  0  0  0  0
   -8.9150   21.8930  -30.6780 C   0  0  0  0  0  0  0  0  0  0  0  0
   -8.7860   21.6704  -29.6085 H   0  0  0  0  0  0  0  0  0  0  0  0
   -8.4337   22.8537  -30.9132 H   0  0  0  0  0  0  0  0  0  0  0  0
   -9.9879   21.9531  -30.9132 H   0  0  0  0  0  0  0  0  0  0  0  0
   -9.0790   19.7260  -31.9330 C   0  0  0  0  0  0  0  0  0  0  0  0
  -10.1445   19.6937  -31.6614 H   0  0  0  0  0  0  0  0  0  0  0  0
  1  2  1  0
  2  3  2  0
  3  4  1  0
  3  5  1  0
  5  6  1  0
  5  7  2  0
  7  8  1  0
  8  9  1  0
  9 10  1  0
  9 11  2  0
 11 12  1  0
 11 13  1  0
 13 14  2  0
 14 15  1  0
 15 16  2  0
 16 17  1  0
 17 18  1  0
 17 19  1  0
 19 20  1  0
 19 21  1  0
 19 22  1  0
 17 23  1  0
 23 24  1  0
 23 25  1  0
 23 26  1  0
 15 27  1  0
 27 28  1  0
 28 29  1  0
 28 30  2  0
 30 31  1  0
 31 32  1  0
  7 33  1  0
 33 34  1  0
 34 35  1  0
 34 36  1  0
 34 37  1  0
 33 38  2  0
 38 39  1  0
 38  2  1  0
 31  8  2  0
 30 13  1  0
M  CHG  1  27  -1
M  END
>  <UniqueID>  (25) 
25

>  <SMILES>  (25) 
Cc1cccc(F)c1-c1ccc2n/c(=N/C(C)C)[n-]cc2c1

>  <Energy>  (25) 
47.78810044557536

>  <Genealogy>  (25) 
Cc1cccc(F)c1-c1ccc2nc(=NC(C)C)[n-]cc2c1 (protonated)
Cc1cccc(F)c1-c1ccc2n/c(=N/C(C)C)[n-]cc2c1 (cis-trans isomerization)
Cc1cccc(F)c1-c1ccc2n/c(=N/C(C)C)[n-]cc2c1 (3D coordinates assigned)
Cc1cccc(F)c1-c1ccc2n/c(=N/C(C)C)[n-]cc2c1 (optimized conformer: 47.78810044557536 kcal/mol)

>  <smiles>  (25) 
Cc1cccc(F)c1-c1ccc2nc(=NC(C)C)[nH]cc2c1

>  <score_type>  (25) 
oracle

>  <origin>  (25) 
adg

>  <m_score__min__energy>  (25) 
-9.8100000000000005

>  <m_primary>  (25) 
energy

$$$$
25:0
     RDKit          3D

 44 46  0  0  0  0  0  0  0  0999 V2000
   -4.7017   21.4061  -32.6353 H   0  0  0  0  0  0  0  0  0  0  0  0
   -5.7390   21.6210  -32.3390 C   0  0  0  0  0  0  0  0  0  0  0  0
   -6.7240   20.6420  -32.5030 C   0  0  0  0  0  0  0  0  0  0  0  0
   -6.4609   19.6681  -32.9416 H   0  0  0  0  0  0  0  0  0  0  0  0
   -8.0510   20.8980  -32.1090 C   0  0  0  0  0  0  0  0  0  0  0  0
   -9.0750   19.9510  -32.2540 O   0  0  0  0  0  0  0  0  0  0  0  0
   -8.9410   18.5680  -31.9440 C   0  0  0  0  0  0  0  0  0  0  0  0
   -8.9283   18.4366  -30.8520 H   0  0  0  0  0  0  0  0  0  0  0  0
   -9.7896   18.0128  -32.3703 H   0  0  0  0  0  0  0  0  0  0  0  0
   -8.0016   18.1860  -32.3703 H   0  0  0  0  0  0  0  0  0  0  0  0
   -8.3660   22.1380  -31.5440 C   0  0  0  0  0  0  0  0  0  0  0  0
   -9.3983   22.3448  -31.2254 H   0  0  0  0  0  0  0  0  0  0  0  0
   -7.3810   23.1180  -31.3800 C   0  0  0  0  0  0  0  0  0  0  0  0
   -7.6390   24.0835  -30.9205 H   0  0  0  0  0  0  0  0  0  0  0  0
   -6.0620   22.8720  -31.8010 C   0  0  0  0  0  0  0  0  0  0  0  0
   -5.0090   23.8370  -31.6240 N   0  0  0  0  0  0  0  0  0  0  0  0
   -4.0910   23.8220  -30.7030 C   0  0  0  0  0  0  0  0  0  0  0  0
   -3.6090   22.6650  -30.1830 N   0  0  0  0  0  0  0  0  0  0  0  0
   -2.6800   23.1320  -29.3270 C   0  0  0  0  0  0  0  0  0  0  0  0
   -1.8450   22.3750  -28.4940 C   0  0  0  0  0  0  0  0  0  0  0  0
   -1.8820   20.9340  -28.4910 N   0  0  0  0  0  0  0  0  0  0  0  0
   -2.1150   20.5880  -29.4500 H   0  0  0  0  0  0  0  0  0  0  0  0
   -0.9370   20.5690  -28.2330 H   0  0  0  0  0  0  0  0  0  0  0  0
   -2.8910   20.4600  -27.5280 C   0  0  0  0  0  0  0  0  0  0  0  0
   -3.2918   21.3251  -26.9793 H   0  0  0  0  0  0  0  0  0  0  0  0
   -3.6821   19.9442  -28.0921 H   0  0  0  0  0  0  0  0  0  0  0  0
   -2.2980   19.4560  -26.5120 C   0  0  0  0  0  0  0  0  0  0  0  0
   -1.8388   20.0383  -25.6996 H   0  0  0  0  0  0  0  0  0  0  0  0
   -3.3820   18.5610  -25.8910 C   0  0  0  0  0  0  0  0  0  0  0  0
   -3.3175   18.6143  -24.7942 H   0  0  0  0  0  0  0  0  0  0  0  0
   -4.3740   18.9066  -26.2172 H   0  0  0  0  0  0  0  0  0  0  0  0
   -3.2304   17.5215  -26.2172 H   0  0  0  0  0  0  0  0  0  0  0  0
   -1.2310   18.5880  -27.1920 C   0  0  0  0  0  0  0  0  0  0  0  0
   -0.6195   18.0905  -26.4248 H   0  0  0  0  0  0  0  0  0  0  0  0
   -1.7211   17.8289  -27.8193 H   0  0  0  0  0  0  0  0  0  0  0  0
   -0.5875   19.2223  -27.8193 H   0  0  0  0  0  0  0  0  0  0  0  0
   -0.9210   23.0870  -27.6980 C   0  0  0  0  0  0  0  0  0  0  0  0
   -0.2325   22.5384  -27.0384 H   0  0  0  0  0  0  0  0  0  0  0  0
   -0.8740   24.4940  -27.7420 C   0  0  0  0  0  0  0  0  0  0  0  0
   -0.1578   25.0437  -27.1136 H   0  0  0  0  0  0  0  0  0  0  0  0
   -1.7460   25.1900  -28.5920 C   0  0  0  0  0  0  0  0  0  0  0  0
   -1.7293   26.2886  -28.6444 H   0  0  0  0  0  0  0  0  0  0  0  0
   -2.6100   24.4680  -29.3470 N   0  0  0  0  0  0  0  0  0  0  0  0
   -3.4870   24.9330  -30.2140 N   0  0  0  0  0  0  0  0  0  0  0  0
  1  2  1  0
  2  3  2  0
  3  4  1  0
  3  5  1  0
  5  6  1  0
  6  7  1  0
  7  8  1  0
  7  9  1  0
  7 10  1  0
  5 11  2  0
 11 12  1  0
 11 13  1  0
 13 14  1  0
 13 15  2  0
 15 16  1  0
 16 17  2  0
 17 18  1  0
 18 19  2  0
 19 20  1  0
 20 21  1  0
 21 22  1  0
 21 23  1  0
 21 24  1  0
 24 25  1  0
 24 26  1  0
 24 27  1  0
 27 28  1  0
 27 29  1  0
 29 30  1  0
 29 31  1  0
 29 32  1  0
 27 33  1  0
 33 34  1  0
 33 35  1  0
 33 36  1  0
 20 37  2  0
 37 38  1  0
 37 39  1  0
 39 40  1  0
 39 41  2  0
 41 42  1  0
 41 43  1  0
 43 44  1  0
 15  2  1  0
 44 17  1  0
 43 19  1  0
M  CHG  2  21   1  44  -1
M  END
>  <UniqueID>  (26) 
26

>  <SMILES>  (26) 
COc1ccc(/N=c2/nc3c([NH2+]CC(C)C)cccn3[n-]2)cc1

>  <Energy>  (26) 
85.01154496105886

>  <Genealogy>  (26) 
COc1ccc(N=c2nc3c([NH2+]CC(C)C)cccn3[n-]2)cc1 (protonated)
COc1ccc(/N=c2/nc3c([NH2+]CC(C)C)cccn3[n-]2)cc1 (cis-trans isomerization)
COc1ccc(/N=c2/nc3c([NH2+]CC(C)C)cccn3[n-]2)cc1 (3D coordinates assigned)
COc1ccc(/N=c2/nc3c([NH2+]CC(C)C)cccn3[n-]2)cc1 (optimized conformer: 85.01154496105886 kcal/mol)

>  <smiles>  (26) 
COc1ccc(N=c2nc3c(NCC(C)C)cccn3[nH]2)cc1

>  <score_type>  (26) 
oracle

>  <origin>  (26) 
adg

>  <m_score__min__energy>  (26) 
-8.0299999999999994

>  <m_primary>  (26) 
energy

$$$$
