0:0
     RDKit          3D

 45 46  0  0  0  0  0  0  0  0999 V2000
   -0.5590   18.5660  -27.4550 C   0  0  0  0  0  0  0  0  0  0  0  0
    0.1410   18.8400  -28.7820 C   0  0  0  0  0  0  0  0  0  0  0  0
    0.8910   20.1040  -28.7170 N   0  0  0  0  0  0  0  0  0  0  0  0
    0.2980   21.0700  -27.7770 C   0  0  0  0  0  0  0  0  0  0  0  0
   -1.0070   21.6340  -28.2880 C   0  0  0  0  0  0  0  0  0  0  0  0
   -2.0710   21.8630  -27.4010 C   0  0  0  0  0  0  0  0  0  0  0  0
   -3.2860   22.3710  -27.8700 C   0  0  0  0  0  0  0  0  0  0  0  0
   -3.4630   22.6380  -29.2390 C   0  0  0  0  0  0  0  0  0  0  0  0
   -4.7010   23.1600  -29.7530 N   0  0  0  0  0  0  0  0  0  0  0  0
   -4.8580   24.4820  -30.2960 C   0  0  0  0  0  0  0  0  0  0  0  0
   -3.8590   25.2340  -30.4570 O   0  0  0  0  0  0  0  0  0  0  0  0
   -6.2280   24.9840  -30.6740 C   0  0  0  0  0  0  0  0  0  0  0  0
   -7.2500   23.9250  -30.6210 N   0  0  0  0  0  0  0  0  0  0  0  0
   -7.6860   23.4560  -31.9480 C   0  0  0  0  0  0  0  0  0  0  0  0
   -7.5460   21.9540  -32.1110 C   0  0  0  0  0  0  0  0  0  0  0  0
   -8.6810   21.1440  -31.9320 C   0  0  0  0  0  0  0  0  0  0  0  0
   -8.5870   19.7550  -32.0330 C   0  0  0  0  0  0  0  0  0  0  0  0
   -7.3610   19.1550  -32.3280 C   0  0  0  0  0  0  0  0  0  0  0  0
   -7.2430   17.4100  -32.4460 Cl  0  0  0  0  0  0  0  0  0  0  0  0
   -6.2290   19.9480  -32.5320 C   0  0  0  0  0  0  0  0  0  0  0  0
   -6.3090   21.3420  -32.4250 C   0  0  0  0  0  0  0  0  0  0  0  0
   -4.8350   22.2690  -32.6820 Cl  0  0  0  0  0  0  0  0  0  0  0  0
   -2.3880   22.4370  -30.1170 C   0  0  0  0  0  0  0  0  0  0  0  0
   -1.1740   21.9290  -29.6500 C   0  0  0  0  0  0  0  0  0  0  0  0
    0.1130   18.8290  -26.6248 H   0  0  0  0  0  0  0  0  0  0  0  0
   -1.4748   19.1720  -27.3915 H   0  0  0  0  0  0  0  0  0  0  0  0
   -0.8201   17.4993  -27.3915 H   0  0  0  0  0  0  0  0  0  0  0  0
    0.8370   18.0168  -29.0010 H   0  0  0  0  0  0  0  0  0  0  0  0
   -0.6172   18.9163  -29.5753 H   0  0  0  0  0  0  0  0  0  0  0  0
    1.8770   19.8990  -28.4300 H   0  0  0  0  0  0  0  0  0  0  0  0
    0.1141   20.5640  -26.8177 H   0  0  0  0  0  0  0  0  0  0  0  0
    1.0044   21.9049  -27.6595 H   0  0  0  0  0  0  0  0  0  0  0  0
   -1.9478   21.6414  -26.3306 H   0  0  0  0  0  0  0  0  0  0  0  0
   -4.1078   22.5628  -27.1644 H   0  0  0  0  0  0  0  0  0  0  0  0
   -5.5670   22.6040  -29.5710 H   0  0  0  0  0  0  0  0  0  0  0  0
   -6.5145   25.7861  -29.9779 H   0  0  0  0  0  0  0  0  0  0  0  0
   -6.1768   25.3481  -31.7107 H   0  0  0  0  0  0  0  0  0  0  0  0
   -6.9360   23.1230  -30.0250 H   0  0  0  0  0  0  0  0  0  0  0  0
   -8.7424   23.7287  -32.0885 H   0  0  0  0  0  0  0  0  0  0  0  0
   -7.0402   23.9343  -32.6991 H   0  0  0  0  0  0  0  0  0  0  0  0
   -9.6527   21.6094  -31.7102 H   0  0  0  0  0  0  0  0  0  0  0  0
   -9.4804   19.1318  -31.8799 H   0  0  0  0  0  0  0  0  0  0  0  0
   -5.2676   19.4738  -32.7785 H   0  0  0  0  0  0  0  0  0  0  0  0
   -2.5022   22.6818  -31.1833 H   0  0  0  0  0  0  0  0  0  0  0  0
   -0.3449   21.7593  -30.3527 H   0  0  0  0  0  0  0  0  0  0  0  0
  1  2  1  0
  2  3  1  0
  3  4  1  0
  4  5  1  0
  5  6  2  0
  6  7  1  0
  7  8  2  0
  8  9  1  0
  9 10  1  0
 10 11  2  0
 10 12  1  0
 12 13  1  0
 13 14  1  0
 14 15  1  0
 15 16  2  0
 16 17  1  0
 17 18  2  0
 18 19  1  0
 18 20  1  0
 20 21  2  0
 21 22  1  0
  8 23  1  0
 23 24  2  0
 24  5  1  0
 21 15  1  0
  1 25  1  0
  1 26  1  0
  1 27  1  0
  2 28  1  0
  2 29  1  0
  3 30  1  0
  4 31  1  0
  4 32  1  0
  6 33  1  0
  7 34  1  0
  9 35  1  0
 12 36  1  0
 12 37  1  0
 13 38  1  0
 14 39  1  0
 14 40  1  0
 16 41  1  0
 17 42  1  0
 20 43  1  0
 23 44  1  0
 24 45  1  0
M  END
>  <UniqueID>  (1) 
1

>  <SMILES>  (1) 
CCNCc1ccc(NC(=O)CNCc2ccc(Cl)cc2Cl)cc1

>  <Energy>  (1) 
45.15424352827101

>  <Genealogy>  (1) 
CCNCc1ccc(NC(=O)CNCc2ccc(Cl)cc2Cl)cc1 (3D coordinates assigned)
CCNCc1ccc(NC(=O)CNCc2ccc(Cl)cc2Cl)cc1 (optimized conformer: 45.15424352827101 kcal/mol)

>  <smiles>  (1) 
CCNCc1ccc(NC(=O)CNCc2ccc(Cl)cc2Cl)cc1

>  <score_type>  (1) 
oracle

>  <origin>  (1) 
adg

>  <m_score__min__energy>  (1) 
-9.6899999999999995

>  <m_primary>  (1) 
energy

$$$$
1:0
     RDKit          3D

 58 61  0  0  0  0  0  0  0  0999 V2000
   -0.5380   20.5790  -30.2910 C   0  0  0  0  0  0  0  0  0  0  0  0
   -1.9760   21.0440  -30.1140 C   0  0  0  0  0  0  0  0  0  0  0  0
   -2.1300   22.3970  -30.6570 N   0  0  0  0  0  0  0  0  0  0  0  0
   -2.0040   23.4210  -29.6110 C   0  0  0  0  0  0  0  0  0  0  0  0
   -3.2130   24.3650  -29.6100 C   0  0  0  0  0  0  0  0  0  0  0  0
   -3.8980   24.3200  -30.8500 O   0  0  0  0  0  0  0  0  0  0  0  0
   -5.2060   23.7950  -30.6990 C   0  0  0  0  0  0  0  0  0  0  0  0
   -5.2800   22.4120  -31.3590 C   0  0  0  0  0  0  0  0  0  0  0  0
   -4.5080   22.3280  -32.6160 N   0  0  0  0  0  0  0  0  0  0  0  0
   -4.1510   20.9630  -32.9590 C   0  0  0  0  0  0  0  0  0  0  0  0
   -2.8260   20.5900  -33.3590 C   0  0  0  0  0  0  0  0  0  0  0  0
   -1.7770   21.5380  -33.4610 C   0  0  0  0  0  0  0  0  0  0  0  0
   -0.5120   21.1750  -33.9160 C   0  0  0  0  0  0  0  0  0  0  0  0
   -0.2500   19.8650  -34.2840 C   0  0  0  0  0  0  0  0  0  0  0  0
   -1.2440   18.8970  -34.1740 C   0  0  0  0  0  0  0  0  0  0  0  0
   -2.5380   19.2200  -33.6880 C   0  0  0  0  0  0  0  0  0  0  0  0
   -3.5090   18.2430  -33.5470 N   0  0  0  0  0  0  0  0  0  0  0  0
   -3.1900   16.8120  -33.7180 C   0  0  0  0  0  0  0  0  0  0  0  0
   -4.7860   18.6270  -33.2380 C   0  0  0  0  0  0  0  0  0  0  0  0
   -5.8680   17.8130  -33.1980 N   0  0  0  0  0  0  0  0  0  0  0  0
   -6.8950   18.6040  -32.8470 C   0  0  0  0  0  0  0  0  0  0  0  0
   -8.2190   18.2040  -32.6960 C   0  0  0  0  0  0  0  0  0  0  0  0
   -9.1690   19.1740  -32.3440 C   0  0  0  0  0  0  0  0  0  0  0  0
   -8.7830   20.5180  -32.1420 C   0  0  0  0  0  0  0  0  0  0  0  0
   -9.8110   21.5580  -31.8060 C   0  0  0  0  0  0  0  0  0  0  0  0
   -7.4360   20.8970  -32.3110 C   0  0  0  0  0  0  0  0  0  0  0  0
   -6.4970   19.9140  -32.6660 C   0  0  0  0  0  0  0  0  0  0  0  0
   -5.1210   19.9370  -32.9350 C   0  0  0  0  0  0  0  0  0  0  0  0
   -0.0767   20.4298  -29.3036 H   0  0  0  0  0  0  0  0  0  0  0  0
   -0.5252   19.6309  -30.8487 H   0  0  0  0  0  0  0  0  0  0  0  0
    0.0275   21.3401  -30.8487 H   0  0  0  0  0  0  0  0  0  0  0  0
   -2.6502   20.3575  -30.6471 H   0  0  0  0  0  0  0  0  0  0  0  0
   -2.2264   21.0515  -29.0429 H   0  0  0  0  0  0  0  0  0  0  0  0
   -3.0900   22.4610  -31.0600 H   0  0  0  0  0  0  0  0  0  0  0  0
   -1.9344   22.9262  -28.6311 H   0  0  0  0  0  0  0  0  0  0  0  0
   -1.0994   24.0139  -29.8114 H   0  0  0  0  0  0  0  0  0  0  0  0
   -3.9028   24.0641  -28.8077 H   0  0  0  0  0  0  0  0  0  0  0  0
   -2.8537   25.3918  -29.4470 H   0  0  0  0  0  0  0  0  0  0  0  0
   -5.4435   23.7040  -29.6288 H   0  0  0  0  0  0  0  0  0  0  0  0
   -5.9302   24.4699  -31.1786 H   0  0  0  0  0  0  0  0  0  0  0  0
   -4.8839   21.6661  -30.6543 H   0  0  0  0  0  0  0  0  0  0  0  0
   -6.3346   22.2234  -31.6084 H   0  0  0  0  0  0  0  0  0  0  0  0
   -3.6290   22.8830  -32.5290 H   0  0  0  0  0  0  0  0  0  0  0  0
   -5.0090   22.8250  -33.3820 H   0  0  0  0  0  0  0  0  0  0  0  0
   -1.9664   22.5830  -33.1745 H   0  0  0  0  0  0  0  0  0  0  0  0
    0.2833   21.9319  -33.9836 H   0  0  0  0  0  0  0  0  0  0  0  0
    0.7450   19.5897  -34.6636 H   0  0  0  0  0  0  0  0  0  0  0  0
   -1.0224   17.8609  -34.4696 H   0  0  0  0  0  0  0  0  0  0  0  0
   -3.0846   16.3393  -32.7304 H   0  0  0  0  0  0  0  0  0  0  0  0
   -4.0005   16.3197  -34.2755 H   0  0  0  0  0  0  0  0  0  0  0  0
   -2.2472   16.7106  -34.2755 H   0  0  0  0  0  0  0  0  0  0  0  0
   -5.9390   16.7940  -33.4210 H   0  0  0  0  0  0  0  0  0  0  0  0
   -8.5129   17.1550  -32.8486 H   0  0  0  0  0  0  0  0  0  0  0  0
  -10.2238   18.8858  -32.2242 H   0  0  0  0  0  0  0  0  0  0  0  0
   -9.8990   21.6470  -30.7131 H   0  0  0  0  0  0  0  0  0  0  0  0
   -9.5051   22.5261  -32.2293 H   0  0  0  0  0  0  0  0  0  0  0  0
  -10.7826   21.2633  -32.2293 H   0  0  0  0  0  0  0  0  0  0  0  0
   -7.1258   21.9426  -32.1677 H   0  0  0  0  0  0  0  0  0  0  0  0
  1  2  1  0
  2  3  1  0
  3  4  1  0
  4  5  1  0
  5  6  1  0
  6  7  1  0
  7  8  1  0
  8  9  1  0
  9 10  1  0
 10 11  2  0
 11 12  1  0
 12 13  2  0
 13 14  1  0
 14 15  2  0
 15 16  1  0
 16 17  2  0
 17 18  1  0
 17 19  1  0
 19 20  1  0
 20 21  1  0
 21 22  2  0
 22 23  1  0
 23 24  2  0
 24 25  1  0
 24 26  1  0
 26 27  2  0
 27 28  1  0
 28 10  1  0
 16 11  1  0
 28 19  2  0
 27 21  1  0
  1 29  1  0
  1 30  1  0
  1 31  1  0
  2 32  1  0
  2 33  1  0
  3 34  1  0
  4 35  1  0
  4 36  1  0
  5 37  1  0
  5 38  1  0
  7 39  1  0
  7 40  1  0
  8 41  1  0
  8 42  1  0
  9 43  1  0
  9 44  1  0
 12 45  1  0
 13 46  1  0
 14 47  1  0
 15 48  1  0
 18 49  1  0
 18 50  1  0
 18 51  1  0
 20 52  1  0
 22 53  1  0
 23 54  1  0
 25 55  1  0
 25 56  1  0
 25 57  1  0
 26 58  1  0
M  CHG  2   9   1  17   1
M  END
>  <UniqueID>  (2) 
2

>  <SMILES>  (2) 
CCNCCOCC[NH2+]c1c2ccccc2[n+](C)c2[nH]c3ccc(C)cc3c12

>  <Energy>  (2) 
116.86916593991336

>  <Genealogy>  (2) 
CCNCCOCC[NH2+]c1c2ccccc2[n+](C)c2[nH]c3ccc(C)cc3c12 (protonated)
CCNCCOCC[NH2+]c1c2ccccc2[n+](C)c2[nH]c3ccc(C)cc3c12 (3D coordinates assigned)
CCNCCOCC[NH2+]c1c2ccccc2[n+](C)c2[nH]c3ccc(C)cc3c12 (optimized conformer: 116.86916593991336 kcal/mol)

>  <smiles>  (2) 
CCNCCOCCNc1c2ccccc2[n+](C)c2[nH]c3ccc(C)cc3c12

>  <score_type>  (2) 
oracle

>  <origin>  (2) 
adg

>  <m_score__min__energy>  (2) 
-8.8599999999999994

>  <m_primary>  (2) 
energy

$$$$
2:0
     RDKit          3D

 70 74  0  0  0  0  0  0  0  0999 V2000
   -5.3820   16.3450  -32.1200 C   0  0  0  0  0  0  0  0  0  0  0  0
   -5.9770   16.4320  -33.5240 C   0  0  0  0  0  0  0  0  0  0  0  0
   -6.4900   17.8490  -33.8250 C   0  0  0  0  0  0  0  0  0  0  0  0
   -7.0850   18.5430  -32.5730 C   0  0  0  0  0  0  0  0  0  0  0  0
   -7.5060   20.0370  -32.7970 C   0  0  1  0  0  0  0  0  0  0  0  0
   -7.2210   20.4220  -34.1210 O   0  0  0  0  0  0  0  0  0  0  0  0
   -9.0040   20.2180  -32.5580 C   0  0  0  0  0  0  0  0  0  0  0  0
   -9.8090   19.2550  -32.6580 O   0  0  0  0  0  0  0  0  0  0  0  0
   -9.5090   21.4920  -32.2870 O   0  0  0  0  0  0  0  0  0  0  0  0
   -8.6710   22.6430  -32.3150 C   0  0  0  0  0  0  0  0  0  0  0  0
   -7.3390   22.3250  -31.6820 C   0  0  0  0  0  0  0  0  0  0  0  0
   -6.7820   21.0260  -31.8630 C   0  0  0  0  0  0  0  0  0  0  0  0
   -5.5490   20.7290  -31.2320 C   0  0  0  0  0  0  0  0  0  0  0  0
   -4.9240   21.7250  -30.4900 C   0  0  0  0  0  0  0  0  0  0  0  0
   -5.4500   22.9600  -30.3690 N   0  0  0  0  0  0  0  0  0  0  0  0
   -6.6370   23.2960  -30.9370 C   0  0  0  0  0  0  0  0  0  0  0  0
   -7.0950   24.4630  -30.7970 O   0  0  0  0  0  0  0  0  0  0  0  0
   -4.5720   23.8200  -29.5680 C   0  0  0  0  0  0  0  0  0  0  0  0
   -3.4330   22.8970  -29.2260 C   0  0  0  0  0  0  0  0  0  0  0  0
   -3.6720   21.6660  -29.7800 C   0  0  0  0  0  0  0  0  0  0  0  0
   -2.8200   20.6240  -29.6450 N   0  0  0  0  0  0  0  0  0  0  0  0
   -1.6660   20.7870  -28.9380 C   0  0  0  0  0  0  0  0  0  0  0  0
   -0.7940   19.7030  -28.7970 C   0  0  0  0  0  0  0  0  0  0  0  0
    0.4050   19.8390  -28.0760 C   0  0  0  0  0  0  0  0  0  0  0  0
    1.3000   18.7750  -27.8770 O   0  0  0  0  0  0  0  0  0  0  0  0
    1.6140   17.7620  -28.8340 C   0  0  0  0  0  0  0  0  0  0  0  0
    1.0040   16.4030  -28.4460 C   0  0  0  0  0  0  0  0  0  0  0  0
    0.8860   16.2300  -26.9810 N   0  0  0  0  0  0  0  0  0  0  0  0
    1.8580   15.2650  -26.4300 C   0  0  0  0  0  0  0  0  0  0  0  0
    3.1610   15.9400  -25.9910 C   0  0  0  0  0  0  0  0  0  0  0  0
    0.7300   21.0800  -27.5210 C   0  0  0  0  0  0  0  0  0  0  0  0
   -0.1280   22.1740  -27.6510 C   0  0  0  0  0  0  0  0  0  0  0  0
   -1.3470   22.0510  -28.3480 C   0  0  0  0  0  0  0  0  0  0  0  0
   -2.2650   23.1360  -28.4860 C   0  0  0  0  0  0  0  0  0  0  0  0
   -2.0040   24.5190  -27.9270 C   0  0  0  0  0  0  0  0  0  0  0  0
   -1.2460   25.3780  -28.9360 C   0  0  0  0  0  0  0  0  0  0  0  0
   -6.1825   16.4620  -31.3746 H   0  0  0  0  0  0  0  0  0  0  0  0
   -4.8975   15.3665  -31.9871 H   0  0  0  0  0  0  0  0  0  0  0  0
   -4.6376   17.1438  -31.9871 H   0  0  0  0  0  0  0  0  0  0  0  0
   -5.2023   16.1676  -34.2587 H   0  0  0  0  0  0  0  0  0  0  0  0
   -6.8254   15.7346  -33.5859 H   0  0  0  0  0  0  0  0  0  0  0  0
   -5.6522   18.4553  -34.1998 H   0  0  0  0  0  0  0  0  0  0  0  0
   -7.2925   17.7624  -34.5724 H   0  0  0  0  0  0  0  0  0  0  0  0
   -7.9750   17.9787  -32.2576 H   0  0  0  0  0  0  0  0  0  0  0  0
   -6.2902   18.5522  -31.8126 H   0  0  0  0  0  0  0  0  0  0  0  0
   -7.9800   20.1350  -34.6930 H   0  0  0  0  0  0  0  0  0  0  0  0
   -8.5138   22.9542  -33.3583 H   0  0  0  0  0  0  0  0  0  0  0  0
   -9.1539   23.4558  -31.7527 H   0  0  0  0  0  0  0  0  0  0  0  0
   -5.0955   19.7313  -31.3270 H   0  0  0  0  0  0  0  0  0  0  0  0
   -4.2217   24.6839  -30.1519 H   0  0  0  0  0  0  0  0  0  0  0  0
   -5.0673   24.2502  -28.6850 H   0  0  0  0  0  0  0  0  0  0  0  0
   -1.0485   18.7355  -29.2543 H   0  0  0  0  0  0  0  0  0  0  0  0
    1.2180   18.0634  -29.8150 H   0  0  0  0  0  0  0  0  0  0  0  0
    2.7077   17.6496  -28.8678 H   0  0  0  0  0  0  0  0  0  0  0  0
    0.0012   16.3267  -28.8917 H   0  0  0  0  0  0  0  0  0  0  0  0
    1.6756   15.6168  -28.8214 H   0  0  0  0  0  0  0  0  0  0  0  0
   -0.0790   15.9110  -26.7280 H   0  0  0  0  0  0  0  0  0  0  0  0
    1.0210   17.1580  -26.5140 H   0  0  0  0  0  0  0  0  0  0  0  0
    1.4070   14.7664  -25.5594 H   0  0  0  0  0  0  0  0  0  0  0  0
    2.1031   14.5435  -27.2233 H   0  0  0  0  0  0  0  0  0  0  0  0
    3.2090   15.9649  -24.8923 H   0  0  0  0  0  0  0  0  0  0  0  0
    4.0180   15.3725  -26.3827 H   0  0  0  0  0  0  0  0  0  0  0  0
    3.1918   16.9674  -26.3827 H   0  0  0  0  0  0  0  0  0  0  0  0
    1.6767   21.1967  -26.9731 H   0  0  0  0  0  0  0  0  0  0  0  0
    0.1499   23.1406  -27.2054 H   0  0  0  0  0  0  0  0  0  0  0  0
   -2.9649   25.0007  -27.6933 H   0  0  0  0  0  0  0  0  0  0  0  0
   -1.3929   24.4219  -27.0175 H   0  0  0  0  0  0  0  0  0  0  0  0
   -0.6104   26.0983  -28.4001 H   0  0  0  0  0  0  0  0  0  0  0  0
   -0.6173   24.7331  -29.5675 H   0  0  0  0  0  0  0  0  0  0  0  0
   -1.9641   25.9216  -29.5675 H   0  0  0  0  0  0  0  0  0  0  0  0
  1  2  1  0
  2  3  1  0
  3  4  1  0
  4  5  1  0
  5  6  1  6
  5  7  1  0
  7  8  2  0
  7  9  1  0
  9 10  1  0
 10 11  1  0
 11 12  2  0
 12 13  1  0
 13 14  2  0
 14 15  1  0
 15 16  1  0
 16 17  2  0
 15 18  1  0
 18 19  1  0
 19 20  2  0
 20 21  1  0
 21 22  2  0
 22 23  1  0
 23 24  2  0
 24 25  1  0
 25 26  1  0
 26 27  1  0
 27 28  1  0
 28 29  1  0
 29 30  1  0
 24 31  1  0
 31 32  2  0
 32 33  1  0
 33 34  2  0
 34 35  1  0
 35 36  1  0
 12  5  1  0
 20 14  1  0
 33 22  1  0
 16 11  1  0
 34 19  1  0
  1 37  1  0
  1 38  1  0
  1 39  1  0
  2 40  1  0
  2 41  1  0
  3 42  1  0
  3 43  1  0
  4 44  1  0
  4 45  1  0
  6 46  1  0
 10 47  1  0
 10 48  1  0
 13 49  1  0
 18 50  1  0
 18 51  1  0
 23 52  1  0
 26 53  1  0
 26 54  1  0
 27 55  1  0
 27 56  1  0
 28 57  1  0
 28 58  1  0
 29 59  1  0
 29 60  1  0
 30 61  1  0
 30 62  1  0
 30 63  1  0
 31 64  1  0
 32 65  1  0
 35 66  1  0
 35 67  1  0
 36 68  1  0
 36 69  1  0
 36 70  1  0
M  CHG  1  28   1
M  END
>  <UniqueID>  (3) 
3

>  <SMILES>  (3) 
CCCC[C@@]1(O)C(=O)OCc2c1cc1n(c2=O)Cc2c-1nc1cc(OCC[NH2+]CC)ccc1c2CC

>  <Energy>  (3) 
110.42686494066983

>  <Genealogy>  (3) 
CCCCC1(O)C(=O)OCc2c1cc1n(c2=O)Cc2c-1nc1cc(OCC[NH2+]CC)ccc1c2CC (protonated)
CCCC[C@@]1(O)C(=O)OCc2c1cc1n(c2=O)Cc2c-1nc1cc(OCC[NH2+]CC)ccc1c2CC (chirality)
CCCC[C@@]1(O)C(=O)OCc2c1cc1n(c2=O)Cc2c-1nc1cc(OCC[NH2+]CC)ccc1c2CC (3D coordinates assigned)
CCCC[C@@]1(O)C(=O)OCc2c1cc1n(c2=O)Cc2c-1nc1cc(OCC[NH2+]CC)ccc1c2CC (nonaromatic ring conformer: 110.42686494066983 kcal/mol)

>  <smiles>  (3) 
CCCCC1(O)C(=O)OCc2c1cc1n(c2=O)Cc2c-1nc1cc(OCCNCC)ccc1c2CC

>  <score_type>  (3) 
oracle

>  <origin>  (3) 
adg

>  <m_score__min__energy>  (3) 
-8.5500000000000007

>  <m_primary>  (3) 
energy

$$$$
3:0
     RDKit          3D

 77 80  0  0  0  0  0  0  0  0999 V2000
   -5.8940   25.6650  -30.1240 C   0  0  0  0  0  0  0  0  0  0  0  0
   -4.6450   25.1120  -30.7980 C   0  0  0  0  0  0  0  0  0  0  0  0
   -4.7690   23.6400  -30.9520 N   0  0  0  0  0  0  0  0  0  0  0  0
   -5.4610   23.0220  -29.7970 C   0  0  0  0  0  0  0  0  0  0  0  0
   -4.5290   22.8980  -28.5910 C   0  0  0  0  0  0  0  0  0  0  0  0
   -3.4540   22.9980  -31.1840 C   0  0  0  0  0  0  0  0  0  0  0  0
   -3.6010   21.7750  -32.1040 C   0  0  0  0  0  0  0  0  0  0  0  0
   -4.6540   21.9960  -33.1150 N   0  0  0  0  0  0  0  0  0  0  0  0
   -5.7410   21.0410  -32.9620 C   0  0  0  0  0  0  0  0  0  0  0  0
   -7.0120   21.4720  -32.4960 C   0  0  0  0  0  0  0  0  0  0  0  0
   -7.3240   22.8470  -32.3510 C   0  0  0  0  0  0  0  0  0  0  0  0
   -8.5830   23.2570  -31.9250 C   0  0  0  0  0  0  0  0  0  0  0  0
   -9.5650   22.3170  -31.6460 C   0  0  0  0  0  0  0  0  0  0  0  0
   -9.2860   20.9590  -31.7730 C   0  0  0  0  0  0  0  0  0  0  0  0
   -8.0030   20.5060  -32.1710 C   0  0  0  0  0  0  0  0  0  0  0  0
   -7.7120   19.1610  -32.2550 N   0  0  0  0  0  0  0  0  0  0  0  0
   -8.5960   18.1730  -31.5950 C   0  0  0  0  0  0  0  0  0  0  0  0
   -6.5870   18.7390  -32.9340 C   0  0  0  0  0  0  0  0  0  0  0  0
   -6.4250   17.3830  -33.3070 C   0  0  0  0  0  0  0  0  0  0  0  0
   -5.2690   16.9400  -33.9380 C   0  0  0  0  0  0  0  0  0  0  0  0
   -4.2420   17.8300  -34.2520 C   0  0  0  0  0  0  0  0  0  0  0  0
   -3.0470   17.3160  -34.8800 N   0  0  0  0  0  0  0  0  0  0  0  0
   -1.8860   16.7880  -34.1630 C   0  0  0  0  0  0  0  0  0  0  0  0
   -0.5840   17.3350  -34.7980 C   0  0  0  0  0  0  0  0  0  0  0  0
    0.1480   18.3910  -34.0200 N   0  0  0  0  0  0  0  0  0  0  0  0
    1.3700   17.8070  -33.4030 C   0  0  0  0  0  0  0  0  0  0  0  0
    0.5520   19.5420  -34.9010 C   0  0  0  0  0  0  0  0  0  0  0  0
   -0.5150   20.6460  -34.9730 C   0  0  0  0  0  0  0  0  0  0  0  0
   -0.7430   21.2750  -33.5890 C   0  0  0  0  0  0  0  0  0  0  0  0
   -0.5040   20.2740  -32.4450 C   0  0  0  0  0  0  0  0  0  0  0  0
   -0.7710   18.8360  -32.9140 C   0  0  0  0  0  0  0  0  0  0  0  0
   -4.4080   19.1930  -33.9460 C   0  0  0  0  0  0  0  0  0  0  0  0
   -5.5680   19.6670  -33.2850 C   0  0  0  0  0  0  0  0  0  0  0  0
   -5.7750   25.6123  -29.0317 H   0  0  0  0  0  0  0  0  0  0  0  0
   -6.0409   26.7123  -30.4268 H   0  0  0  0  0  0  0  0  0  0  0  0
   -6.7681   25.0698  -30.4268 H   0  0  0  0  0  0  0  0  0  0  0  0
   -4.5291   25.5748  -31.7892 H   0  0  0  0  0  0  0  0  0  0  0  0
   -3.7653   25.3405  -30.1783 H   0  0  0  0  0  0  0  0  0  0  0  0
   -6.3235   23.6462  -29.5204 H   0  0  0  0  0  0  0  0  0  0  0  0
   -5.7877   22.0127  -30.0880 H   0  0  0  0  0  0  0  0  0  0  0  0
   -5.1163   22.9761  -27.6642 H   0  0  0  0  0  0  0  0  0  0  0  0
   -4.0186   21.9240  -28.6206 H   0  0  0  0  0  0  0  0  0  0  0  0
   -3.7817   23.7046  -28.6206 H   0  0  0  0  0  0  0  0  0  0  0  0
   -2.7755   23.7246  -31.6549 H   0  0  0  0  0  0  0  0  0  0  0  0
   -3.0469   22.6665  -30.2174 H   0  0  0  0  0  0  0  0  0  0  0  0
   -2.6443   21.5926  -32.6153 H   0  0  0  0  0  0  0  0  0  0  0  0
   -3.8819   20.9067  -31.4899 H   0  0  0  0  0  0  0  0  0  0  0  0
   -4.2680   21.9260  -34.0850 H   0  0  0  0  0  0  0  0  0  0  0  0
   -4.9960   22.9810  -33.0670 H   0  0  0  0  0  0  0  0  0  0  0  0
   -6.5577   23.6024  -32.5792 H   0  0  0  0  0  0  0  0  0  0  0  0
   -8.8008   24.3290  -31.8090 H   0  0  0  0  0  0  0  0  0  0  0  0
  -10.5644   22.6451  -31.3243 H   0  0  0  0  0  0  0  0  0  0  0  0
  -10.0760   20.2236  -31.5605 H   0  0  0  0  0  0  0  0  0  0  0  0
   -8.5067   18.2728  -30.5032 H   0  0  0  0  0  0  0  0  0  0  0  0
   -9.6383   18.3550  -31.8958 H   0  0  0  0  0  0  0  0  0  0  0  0
   -8.2996   17.1573  -31.8958 H   0  0  0  0  0  0  0  0  0  0  0  0
   -7.2307   16.6654  -33.0929 H   0  0  0  0  0  0  0  0  0  0  0  0
   -5.1626   15.8752  -34.1928 H   0  0  0  0  0  0  0  0  0  0  0  0
   -3.0290   17.2450  -35.9230 H   0  0  0  0  0  0  0  0  0  0  0  0
   -1.9361   17.0976  -33.1087 H   0  0  0  0  0  0  0  0  0  0  0  0
   -1.8880   15.6899  -34.2274 H   0  0  0  0  0  0  0  0  0  0  0  0
    0.1021   16.4866  -34.9374 H   0  0  0  0  0  0  0  0  0  0  0  0
   -0.8985   17.8258  -35.7309 H   0  0  0  0  0  0  0  0  0  0  0  0
    1.2831   17.8485  -32.3072 H   0  0  0  0  0  0  0  0  0  0  0  0
    1.4777   16.7601  -33.7229 H   0  0  0  0  0  0  0  0  0  0  0  0
    2.2523   18.3808  -33.7229 H   0  0  0  0  0  0  0  0  0  0  0  0
    1.4810   19.9776  -34.5047 H   0  0  0  0  0  0  0  0  0  0  0  0
    0.6857   19.1465  -35.9187 H   0  0  0  0  0  0  0  0  0  0  0  0
   -0.1806   21.4258  -35.6730 H   0  0  0  0  0  0  0  0  0  0  0  0
   -1.4600   20.2014  -35.3185 H   0  0  0  0  0  0  0  0  0  0  0  0
   -0.0521   22.1223  -33.4675 H   0  0  0  0  0  0  0  0  0  0  0  0
   -1.7923   21.6009  -33.5367 H   0  0  0  0  0  0  0  0  0  0  0  0
    0.5396   20.3552  -32.1069 H   0  0  0  0  0  0  0  0  0  0  0  0
   -1.1930   20.5097  -31.6205 H   0  0  0  0  0  0  0  0  0  0  0  0
   -0.6396   18.1590  -32.0570 H   0  0  0  0  0  0  0  0  0  0  0  0
   -1.7966   18.8074  -33.3108 H   0  0  0  0  0  0  0  0  0  0  0  0
   -3.6194   19.9068  -34.2263 H   0  0  0  0  0  0  0  0  0  0  0  0
  1  2  1  0
  2  3  1  0
  3  4  1  0
  4  5  1  0
  3  6  1  0
  6  7  1  0
  7  8  1  0
  8  9  1  0
  9 10  2  0
 10 11  1  0
 11 12  2  0
 12 13  1  0
 13 14  2  0
 14 15  1  0
 15 16  2  0
 16 17  1  0
 16 18  1  0
 18 19  2  0
 19 20  1  0
 20 21  2  0
 21 22  1  0
 22 23  1  0
 23 24  1  0
 24 25  1  0
 25 26  1  0
 25 27  1  0
 27 28  1  0
 28 29  1  0
 29 30  1  0
 30 31  1  0
 21 32  1  0
 32 33  2  0
 33  9  1  0
 15 10  1  0
 33 18  1  0
 31 25  1  0
  1 34  1  0
  1 35  1  0
  1 36  1  0
  2 37  1  0
  2 38  1  0
  4 39  1  0
  4 40  1  0
  5 41  1  0
  5 42  1  0
  5 43  1  0
  6 44  1  0
  6 45  1  0
  7 46  1  0
  7 47  1  0
  8 48  1  0
  8 49  1  0
 11 50  1  0
 12 51  1  0
 13 52  1  0
 14 53  1  0
 17 54  1  0
 17 55  1  0
 17 56  1  0
 19 57  1  0
 20 58  1  0
 22 59  1  0
 23 60  1  0
 23 61  1  0
 24 62  1  0
 24 63  1  0
 26 64  1  0
 26 65  1  0
 26 66  1  0
 27 67  1  0
 27 68  1  0
 28 69  1  0
 28 70  1  0
 29 71  1  0
 29 72  1  0
 30 73  1  0
 30 74  1  0
 31 75  1  0
 31 76  1  0
 32 77  1  0
M  CHG  3   8   1  16   1  25   1
M  END
>  <UniqueID>  (4) 
4

>  <SMILES>  (4) 
CCN(CC)CC[NH2+]c1c2ccccc2[n+](C)c2ccc(NCC[N+]3(C)CCCCC3)cc12

>  <Energy>  (4) 
118.63207057069026

>  <Genealogy>  (4) 
CCN(CC)CC[NH2+]c1c2ccccc2[n+](C)c2ccc(NCC[N+]3(C)CCCCC3)cc12 (protonated)
CCN(CC)CC[NH2+]c1c2ccccc2[n+](C)c2ccc(NCC[N+]3(C)CCCCC3)cc12 (3D coordinates assigned)
CCN(CC)CC[NH2+]c1c2ccccc2[n+](C)c2ccc(NCC[N+]3(C)CCCCC3)cc12 (nonaromatic ring conformer: 118.63207057069026 kcal/mol)

>  <smiles>  (4) 
CCN(CC)CCNc1c2ccccc2[n+](C)c2ccc(NCC[N+]3(C)CCCCC3)cc12

>  <score_type>  (4) 
oracle

>  <origin>  (4) 
adg

>  <m_score__min__energy>  (4) 
-8.3900000000000006

>  <m_primary>  (4) 
energy

$$$$
4:0
     RDKit          3D

 50 52  0  0  0  0  0  0  0  0999 V2000
   -2.6190   15.0300  -33.1180 C   0  0  0  0  0  0  0  0  0  0  0  0
   -3.8870   15.8920  -33.1100 C   0  0  0  0  0  0  0  0  0  0  0  0
   -3.6390   17.2660  -33.6000 N   0  0  0  0  0  0  0  0  0  0  0  0
   -2.3320   17.5800  -33.8590 C   0  0  0  0  0  0  0  0  0  0  0  0
   -1.9110   18.8980  -33.9320 C   0  0  0  0  0  0  0  0  0  0  0  0
   -2.8130   19.9170  -33.6740 C   0  0  0  0  0  0  0  0  0  0  0  0
   -4.1710   19.6270  -33.4370 C   0  0  0  0  0  0  0  0  0  0  0  0
   -5.1120   20.6380  -33.1010 C   0  0  0  0  0  0  0  0  0  0  0  0
   -4.7320   22.0410  -33.0900 N   0  0  0  0  0  0  0  0  0  0  0  0
   -3.8180   22.3270  -31.9720 C   0  0  0  0  0  0  0  0  0  0  0  0
   -4.5430   23.0860  -30.8520 C   0  0  0  0  0  0  0  0  0  0  0  0
   -5.3650   24.1820  -31.4110 N   0  0  0  0  0  0  0  0  0  0  0  0
   -6.7980   23.9550  -31.1500 C   0  0  0  0  0  0  0  0  0  0  0  0
   -4.9610   25.4710  -30.8250 C   0  0  0  0  0  0  0  0  0  0  0  0
   -6.4230   20.2380  -32.7320 C   0  0  0  0  0  0  0  0  0  0  0  0
   -7.3530   21.1380  -32.1580 C   0  0  0  0  0  0  0  0  0  0  0  0
   -8.6500   20.7310  -31.8530 C   0  0  0  0  0  0  0  0  0  0  0  0
   -9.0520   19.4260  -32.1110 C   0  0  0  0  0  0  0  0  0  0  0  0
   -8.1550   18.5170  -32.6670 C   0  0  0  0  0  0  0  0  0  0  0  0
   -6.8300   18.9010  -32.9800 C   0  0  0  0  0  0  0  0  0  0  0  0
   -5.9480   18.0020  -33.5320 N   0  0  0  0  0  0  0  0  0  0  0  0
   -6.4820   16.9060  -34.3630 C   0  0  0  0  0  0  0  0  0  0  0  0
   -4.5940   18.2710  -33.5220 C   0  0  0  0  0  0  0  0  0  0  0  0
   -2.3113   14.8208  -32.0828 H   0  0  0  0  0  0  0  0  0  0  0  0
   -2.8229   14.0826  -33.6385 H   0  0  0  0  0  0  0  0  0  0  0  0
   -1.8131   15.5681  -33.6385 H   0  0  0  0  0  0  0  0  0  0  0  0
   -4.6406   15.4175  -33.7557 H   0  0  0  0  0  0  0  0  0  0  0  0
   -4.2358   15.9652  -32.0693 H   0  0  0  0  0  0  0  0  0  0  0  0
   -1.6025   16.7710  -34.0120 H   0  0  0  0  0  0  0  0  0  0  0  0
   -0.8686   19.1333  -34.1928 H   0  0  0  0  0  0  0  0  0  0  0  0
   -2.4663   20.9607  -33.6540 H   0  0  0  0  0  0  0  0  0  0  0  0
   -4.2930   22.3100  -33.9990 H   0  0  0  0  0  0  0  0  0  0  0  0
   -5.5770   22.6520  -33.0340 H   0  0  0  0  0  0  0  0  0  0  0  0
   -3.4306   21.3784  -31.5719 H   0  0  0  0  0  0  0  0  0  0  0  0
   -2.9932   22.9527  -32.3437 H   0  0  0  0  0  0  0  0  0  0  0  0
   -5.1947   22.3881  -30.3059 H   0  0  0  0  0  0  0  0  0  0  0  0
   -3.7924   23.5172  -30.1733 H   0  0  0  0  0  0  0  0  0  0  0  0
   -6.9731   23.9273  -30.0644 H   0  0  0  0  0  0  0  0  0  0  0  0
   -7.3856   24.7713  -31.5954 H   0  0  0  0  0  0  0  0  0  0  0  0
   -7.1046   22.9971  -31.5954 H   0  0  0  0  0  0  0  0  0  0  0  0
   -4.9838   25.3981  -29.7277 H   0  0  0  0  0  0  0  0  0  0  0  0
   -3.9416   25.7203  -31.1548 H   0  0  0  0  0  0  0  0  0  0  0  0
   -5.6557   26.2575  -31.1548 H   0  0  0  0  0  0  0  0  0  0  0  0
   -7.0470   22.1739  -31.9498 H   0  0  0  0  0  0  0  0  0  0  0  0
   -9.3580   21.4448  -31.4066 H   0  0  0  0  0  0  0  0  0  0  0  0
  -10.0793   19.1107  -31.8760 H   0  0  0  0  0  0  0  0  0  0  0  0
   -8.4817   17.4856  -32.8656 H   0  0  0  0  0  0  0  0  0  0  0  0
   -6.8705   16.1085  -33.7126 H   0  0  0  0  0  0  0  0  0  0  0  0
   -7.2942   17.2896  -34.9980 H   0  0  0  0  0  0  0  0  0  0  0  0
   -5.6794   16.5028  -34.9980 H   0  0  0  0  0  0  0  0  0  0  0  0
  1  2  1  0
  2  3  1  0
  3  4  2  0
  4  5  1  0
  5  6  2  0
  6  7  1  0
  7  8  2  0
  8  9  1  0
  9 10  1  0
 10 11  1  0
 11 12  1  0
 12 13  1  0
 12 14  1  0
  8 15  1  0
 15 16  2  0
 16 17  1  0
 17 18  2  0
 18 19  1  0
 19 20  2  0
 20 21  1  0
 21 22  1  0
 21 23  2  0
 23  3  1  0
 23  7  1  0
 20 15  1  0
  1 24  1  0
  1 25  1  0
  1 26  1  0
  2 27  1  0
  2 28  1  0
  4 29  1  0
  5 30  1  0
  6 31  1  0
  9 32  1  0
  9 33  1  0
 10 34  1  0
 10 35  1  0
 11 36  1  0
 11 37  1  0
 13 38  1  0
 13 39  1  0
 13 40  1  0
 14 41  1  0
 14 42  1  0
 14 43  1  0
 16 44  1  0
 17 45  1  0
 18 46  1  0
 19 47  1  0
 22 48  1  0
 22 49  1  0
 22 50  1  0
M  CHG  3   3   1   9   1  21   1
M  END
>  <UniqueID>  (5) 
5

>  <SMILES>  (5) 
CC[n+]1cccc2c([NH2+]CCN(C)C)c3ccccc3[n+](C)c21

>  <Energy>  (5) 
90.51656478712674

>  <Genealogy>  (5) 
CC[n+]1cccc2c([NH2+]CCN(C)C)c3ccccc3[n+](C)c21 (protonated)
CC[n+]1cccc2c([NH2+]CCN(C)C)c3ccccc3[n+](C)c21 (3D coordinates assigned)
CC[n+]1cccc2c([NH2+]CCN(C)C)c3ccccc3[n+](C)c21 (optimized conformer: 90.51656478712674 kcal/mol)

>  <smiles>  (5) 
CC[n+]1cccc2c(NCCN(C)C)c3ccccc3[n+](C)c21

>  <score_type>  (5) 
oracle

>  <origin>  (5) 
adg

>  <m_score__min__energy>  (5) 
-6.4699999999999998

>  <m_primary>  (5) 
energy

$$$$
5:0
     RDKit          3D

 30 31  0  0  0  0  0  0  0  0999 V2000
   -9.2360   19.2920  -32.7010 C   0  0  0  0  0  0  0  0  0  0  0  0
   -7.9440   20.0460  -32.5820 C   0  0  0  0  0  0  0  0  0  0  0  0
   -6.7680   19.8000  -33.2820 C   0  0  0  0  0  0  0  0  0  0  0  0
   -6.4890   18.7610  -34.2290 N   0  0  0  0  0  0  0  0  0  0  0  0
   -5.8700   17.5220  -33.8690 C   0  0  0  0  0  0  0  0  0  0  0  0
   -5.4530   17.3200  -32.6980 O   0  0  0  0  0  0  0  0  0  0  0  0
   -5.9090   20.8050  -32.9040 C   0  0  0  0  0  0  0  0  0  0  0  0
   -4.7250   20.9530  -33.3080 O   0  0  0  0  0  0  0  0  0  0  0  0
   -6.5140   21.5960  -31.9950 N   0  0  0  0  0  0  0  0  0  0  0  0
   -5.9120   22.7210  -31.3290 C   0  0  0  0  0  0  0  0  0  0  0  0
   -4.7520   22.5520  -30.5560 C   0  0  0  0  0  0  0  0  0  0  0  0
   -4.1650   23.6500  -29.9200 C   0  0  0  0  0  0  0  0  0  0  0  0
   -4.7250   24.9220  -30.0590 C   0  0  0  0  0  0  0  0  0  0  0  0
   -5.8730   25.1000  -30.8360 C   0  0  0  0  0  0  0  0  0  0  0  0
   -6.4650   24.0050  -31.4720 C   0  0  0  0  0  0  0  0  0  0  0  0
   -7.7530   21.1450  -31.8070 N   0  0  0  0  0  0  0  0  0  0  0  0
   -8.7350   21.7340  -30.8910 C   0  0  0  0  0  0  0  0  0  0  0  0
   -9.6227   19.0663  -31.6963 H   0  0  0  0  0  0  0  0  0  0  0  0
   -9.9689   19.9042  -33.2470 H   0  0  0  0  0  0  0  0  0  0  0  0
   -9.0635   18.3528  -33.2470 H   0  0  0  0  0  0  0  0  0  0  0  0
   -6.5690   18.9840  -35.2460 H   0  0  0  0  0  0  0  0  0  0  0  0
   -5.7566   16.7333  -34.6274 H   0  0  0  0  0  0  0  0  0  0  0  0
   -4.3039   21.5530  -30.4506 H   0  0  0  0  0  0  0  0  0  0  0  0
   -3.2607   23.5119  -29.3092 H   0  0  0  0  0  0  0  0  0  0  0  0
   -4.2622   25.7842  -29.5566 H   0  0  0  0  0  0  0  0  0  0  0  0
   -6.3111   26.1028  -30.9472 H   0  0  0  0  0  0  0  0  0  0  0  0
   -7.3662   24.1488  -32.0861 H   0  0  0  0  0  0  0  0  0  0  0  0
   -8.4250   21.5481  -29.8521 H   0  0  0  0  0  0  0  0  0  0  0  0
   -8.7964   22.8181  -31.0669 H   0  0  0  0  0  0  0  0  0  0  0  0
   -9.7203   21.2777  -31.0669 H   0  0  0  0  0  0  0  0  0  0  0  0
  1  2  1  0
  2  3  2  0
  3  4  1  0
  4  5  1  0
  5  6  2  0
  3  7  1  0
  7  8  2  0
  7  9  1  0
  9 10  1  0
 10 11  2  0
 11 12  1  0
 12 13  2  0
 13 14  1  0
 14 15  2  0
  9 16  1  0
 16 17  1  0
 16  2  1  0
 15 10  1  0
  1 18  1  0
  1 19  1  0
  1 20  1  0
  4 21  1  0
  5 22  1  0
 11 23  1  0
 12 24  1  0
 13 25  1  0
 14 26  1  0
 15 27  1  0
 17 28  1  0
 17 29  1  0
 17 30  1  0
M  END
>  <UniqueID>  (6) 
6

>  <SMILES>  (6) 
Cc1c(NC=O)c(=O)n(-c2ccccc2)n1C

>  <Energy>  (6) 
75.52656288612845

>  <Genealogy>  (6) 
Cc1c(NC=O)c(=O)n(-c2ccccc2)n1C (3D coordinates assigned)
Cc1c(NC=O)c(=O)n(-c2ccccc2)n1C (optimized conformer: 75.52656288612845 kcal/mol)

>  <smiles>  (6) 
Cc1c(NC=O)c(=O)n(-c2ccccc2)n1C

>  <score_type>  (6) 
oracle

>  <origin>  (6) 
adg

>  <m_score__min__energy>  (6) 
-6.3899999999999997

>  <m_primary>  (6) 
energy

$$$$
6:0
     RDKit          3D

 64 67  0  0  0  0  0  0  0  0999 V2000
   -4.6070   14.7060  -32.0300 C   0  0  0  0  0  0  0  0  0  0  0  0
   -4.4390   14.8640  -33.5410 C   0  0  0  0  0  0  0  0  0  0  0  0
   -3.6500   16.1030  -33.9100 C   0  0  0  0  0  0  0  0  0  0  0  0
   -2.2870   15.9210  -34.2080 C   0  0  0  0  0  0  0  0  0  0  0  0
   -1.4160   17.0040  -34.2790 C   0  0  0  0  0  0  0  0  0  0  0  0
   -1.8760   18.2870  -34.0050 C   0  0  0  0  0  0  0  0  0  0  0  0
   -3.2300   18.5040  -33.7170 C   0  0  0  0  0  0  0  0  0  0  0  0
   -3.6770   19.7860  -33.4100 C   0  0  0  0  0  0  0  0  0  0  0  0
   -5.0140   20.0000  -33.0490 C   0  0  0  0  0  0  0  0  0  0  0  0
   -5.4770   21.2760  -32.6890 C   0  0  0  0  0  0  0  0  0  0  0  0
   -4.5920   22.4050  -32.7290 N   0  0  0  0  0  0  0  0  0  0  0  0
   -3.5540   22.5680  -31.7120 C   0  0  0  0  0  0  0  0  0  0  0  0
   -3.8410   23.7780  -30.8210 C   0  0  0  0  0  0  0  0  0  0  0  0
   -4.8340   23.4110  -29.7820 N   0  0  0  0  0  0  0  0  0  0  0  0
   -5.9300   24.4040  -29.6590 C   0  0  0  0  0  0  0  0  0  0  0  0
   -5.7150   25.6830  -30.4830 C   0  0  0  0  0  0  0  0  0  0  0  0
   -4.2000   23.0110  -28.5060 C   0  0  0  0  0  0  0  0  0  0  0  0
   -4.1480   24.1710  -27.5130 C   0  0  0  0  0  0  0  0  0  0  0  0
   -6.8240   21.4500  -32.3380 C   0  0  0  0  0  0  0  0  0  0  0  0
   -7.3340   22.7310  -32.0340 C   0  0  0  0  0  0  0  0  0  0  0  0
   -8.6760   22.8990  -31.7020 C   0  0  0  0  0  0  0  0  0  0  0  0
   -9.5300   21.8020  -31.6680 C   0  0  0  0  0  0  0  0  0  0  0  0
   -9.0440   20.5250  -31.9530 C   0  0  0  0  0  0  0  0  0  0  0  0
   -7.6790   20.3200  -32.2790 C   0  0  0  0  0  0  0  0  0  0  0  0
   -7.1790   19.0590  -32.5360 N   0  0  0  0  0  0  0  0  0  0  0  0
   -7.9430   17.8700  -32.1080 C   0  0  0  0  0  0  0  0  0  0  0  0
   -5.9100   18.9070  -33.0640 C   0  0  0  0  0  0  0  0  0  0  0  0
   -5.5020   17.7190  -33.6420 N   0  0  0  0  0  0  0  0  0  0  0  0
   -6.4480   17.0350  -34.5480 C   0  0  0  0  0  0  0  0  0  0  0  0
   -4.1560   17.4330  -33.7500 C   0  0  0  0  0  0  0  0  0  0  0  0
   -3.9005   15.3705  -31.5111 H   0  0  0  0  0  0  0  0  0  0  0  0
   -5.6360   14.9712  -31.7458 H   0  0  0  0  0  0  0  0  0  0  0  0
   -4.4054   13.6627  -31.7458 H   0  0  0  0  0  0  0  0  0  0  0  0
   -3.9122   13.9809  -33.9317 H   0  0  0  0  0  0  0  0  0  0  0  0
   -5.4425   14.9634  -33.9805 H   0  0  0  0  0  0  0  0  0  0  0  0
   -1.9035   14.9058  -34.3878 H   0  0  0  0  0  0  0  0  0  0  0  0
   -0.3624   16.8447  -34.5522 H   0  0  0  0  0  0  0  0  0  0  0  0
   -1.1748   19.1345  -34.0143 H   0  0  0  0  0  0  0  0  0  0  0  0
   -2.9780   20.6344  -33.4509 H   0  0  0  0  0  0  0  0  0  0  0  0
   -4.6160   23.0200  -33.5760 H   0  0  0  0  0  0  0  0  0  0  0  0
   -3.5173   21.6629  -31.0879 H   0  0  0  0  0  0  0  0  0  0  0  0
   -2.5907   22.7278  -32.2185 H   0  0  0  0  0  0  0  0  0  0  0  0
   -2.9089   24.1044  -30.3366 H   0  0  0  0  0  0  0  0  0  0  0  0
   -4.2440   24.5957  -31.4366 H   0  0  0  0  0  0  0  0  0  0  0  0
   -6.8643   23.9302  -29.9945 H   0  0  0  0  0  0  0  0  0  0  0  0
   -5.9632   24.7097  -28.6028 H   0  0  0  0  0  0  0  0  0  0  0  0
   -5.5715   26.5367  -29.8043 H   0  0  0  0  0  0  0  0  0  0  0  0
   -4.8241   25.5651  -31.1173 H   0  0  0  0  0  0  0  0  0  0  0  0
   -6.5955   25.8629  -31.1173 H   0  0  0  0  0  0  0  0  0  0  0  0
   -4.7795   22.1879  -28.0626 H   0  0  0  0  0  0  0  0  0  0  0  0
   -3.1680   22.6960  -28.7197 H   0  0  0  0  0  0  0  0  0  0  0  0
   -4.1657   23.7760  -26.4865 H   0  0  0  0  0  0  0  0  0  0  0  0
   -3.2232   24.7458  -27.6688 H   0  0  0  0  0  0  0  0  0  0  0  0
   -5.0177   24.8263  -27.6688 H   0  0  0  0  0  0  0  0  0  0  0  0
   -6.6654   23.6041  -32.0596 H   0  0  0  0  0  0  0  0  0  0  0  0
   -9.0614   23.9019  -31.4661 H   0  0  0  0  0  0  0  0  0  0  0  0
  -10.5916   21.9411  -31.4158 H   0  0  0  0  0  0  0  0  0  0  0  0
   -9.7295   19.6652  -31.9244 H   0  0  0  0  0  0  0  0  0  0  0  0
   -7.9702   17.8277  -31.0092 H   0  0  0  0  0  0  0  0  0  0  0  0
   -8.9696   17.9338  -32.4980 H   0  0  0  0  0  0  0  0  0  0  0  0
   -7.4583   16.9628  -32.4980 H   0  0  0  0  0  0  0  0  0  0  0  0
   -7.1980   16.4927  -33.9535 H   0  0  0  0  0  0  0  0  0  0  0  0
   -6.9513   17.7794  -35.1825 H   0  0  0  0  0  0  0  0  0  0  0  0
   -5.8988   16.3237  -35.1825 H   0  0  0  0  0  0  0  0  0  0  0  0
  1  2  1  0
  2  3  1  0
  3  4  2  0
  4  5  1  0
  5  6  2  0
  6  7  1  0
  7  8  2  0
  8  9  1  0
  9 10  2  0
 10 11  1  0
 11 12  1  0
 12 13  1  0
 13 14  1  0
 14 15  1  0
 15 16  1  0
 14 17  1  0
 17 18  1  0
 10 19  1  0
 19 20  2  0
 20 21  1  0
 21 22  2  0
 22 23  1  0
 23 24  2  0
 24 25  1  0
 25 26  1  0
 25 27  2  0
 27 28  1  0
 28 29  1  0
 28 30  2  0
 30  3  1  0
 30  7  1  0
 27  9  1  0
 24 19  1  0
  1 31  1  0
  1 32  1  0
  1 33  1  0
  2 34  1  0
  2 35  1  0
  4 36  1  0
  5 37  1  0
  6 38  1  0
  8 39  1  0
 11 40  1  0
 12 41  1  0
 12 42  1  0
 13 43  1  0
 13 44  1  0
 15 45  1  0
 15 46  1  0
 16 47  1  0
 16 48  1  0
 16 49  1  0
 17 50  1  0
 17 51  1  0
 18 52  1  0
 18 53  1  0
 18 54  1  0
 20 55  1  0
 21 56  1  0
 22 57  1  0
 23 58  1  0
 26 59  1  0
 26 60  1  0
 26 61  1  0
 29 62  1  0
 29 63  1  0
 29 64  1  0
M  CHG  2  25   1  28   1
M  END
>  <UniqueID>  (7) 
7

>  <SMILES>  (7) 
CCc1cccc2cc3c(NCCN(CC)CC)c4ccccc4[n+](C)c3[n+](C)c12

>  <Energy>  (7) 
120.83122342265264

>  <Genealogy>  (7) 
CCc1cccc2cc3c(NCCN(CC)CC)c4ccccc4[n+](C)c3[n+](C)c12 (3D coordinates assigned)
CCc1cccc2cc3c(NCCN(CC)CC)c4ccccc4[n+](C)c3[n+](C)c12 (optimized conformer: 120.83122342265264 kcal/mol)

>  <smiles>  (7) 
CCc1cccc2cc3c(NCCN(CC)CC)c4ccccc4[n+](C)c3[n+](C)c12

>  <score_type>  (7) 
oracle

>  <origin>  (7) 
adg

>  <m_score__min__energy>  (7) 
-9.25

>  <m_primary>  (7) 
energy

$$$$
7:0
     RDKit          3D

 49 49  0  0  0  0  0  0  0  0999 V2000
   -9.0970   18.6740  -31.6320 C   0  0  0  0  0  0  0  0  0  0  0  0
   -9.0220   20.1680  -31.9350 C   0  0  0  0  0  0  0  0  0  0  0  0
   -7.6760   20.5410  -32.4010 N   0  0  0  0  0  0  0  0  0  0  0  0
   -6.9600   19.6600  -33.3300 C   0  0  0  0  0  0  0  0  0  0  0  0
   -7.0360   21.7500  -31.9330 C   0  0  0  0  0  0  0  0  0  0  0  0
   -5.8230   22.1800  -32.5000 C   0  0  0  0  0  0  0  0  0  0  0  0
   -5.1900   23.3350  -32.0330 C   0  0  0  0  0  0  0  0  0  0  0  0
   -5.7590   24.0840  -30.9940 C   0  0  0  0  0  0  0  0  0  0  0  0
   -5.0420   25.2940  -30.4570 C   0  0  0  0  0  0  0  0  0  0  0  0
   -3.7310   24.9240  -29.9050 N   0  0  0  0  0  0  0  0  0  0  0  0
   -3.6580   23.5060  -29.5040 C   0  0  0  0  0  0  0  0  0  0  0  0
   -4.5130   23.2320  -28.2580 C   0  0  0  0  0  0  0  0  0  0  0  0
   -4.1710   24.1540  -27.0830 C   0  0  0  0  0  0  0  0  0  0  0  0
   -2.9650   24.8370  -27.3520 O   0  0  0  0  0  0  0  0  0  0  0  0
   -2.5520   25.5370  -26.1960 C   0  0  0  0  0  0  0  0  0  0  0  0
   -1.3650   26.4440  -26.5360 C   0  0  0  0  0  0  0  0  0  0  0  0
   -0.5860   25.9950  -27.7860 C   0  0  0  0  0  0  0  0  0  0  0  0
   -1.4470   25.8370  -28.9580 N   0  0  0  0  0  0  0  0  0  0  0  0
   -6.9740   23.6670  -30.4310 C   0  0  0  0  0  0  0  0  0  0  0  0
   -7.6080   22.5120  -30.8960 C   0  0  0  0  0  0  0  0  0  0  0  0
   -9.1047   18.5207  -30.5428 H   0  0  0  0  0  0  0  0  0  0  0  0
  -10.0172   18.2573  -32.0674 H   0  0  0  0  0  0  0  0  0  0  0  0
   -8.2232   18.1672  -32.0674 H   0  0  0  0  0  0  0  0  0  0  0  0
   -9.7553   20.4145  -32.7170 H   0  0  0  0  0  0  0  0  0  0  0  0
   -9.2426   20.7259  -31.0130 H   0  0  0  0  0  0  0  0  0  0  0  0
   -6.3668   18.9301  -32.7596 H   0  0  0  0  0  0  0  0  0  0  0  0
   -7.6851   19.1282  -33.9635 H   0  0  0  0  0  0  0  0  0  0  0  0
   -6.2912   20.2611  -33.9635 H   0  0  0  0  0  0  0  0  0  0  0  0
   -5.3685   21.6021  -33.3182 H   0  0  0  0  0  0  0  0  0  0  0  0
   -4.2399   23.6581  -32.4834 H   0  0  0  0  0  0  0  0  0  0  0  0
   -4.8982   26.0187  -31.2719 H   0  0  0  0  0  0  0  0  0  0  0  0
   -5.6500   25.7354  -29.6536 H   0  0  0  0  0  0  0  0  0  0  0  0
   -3.5830   25.5080  -29.0490 H   0  0  0  0  0  0  0  0  0  0  0  0
   -4.0218   22.8805  -30.3325 H   0  0  0  0  0  0  0  0  0  0  0  0
   -2.6112   23.2669  -29.2653 H   0  0  0  0  0  0  0  0  0  0  0  0
   -5.5714   23.3764  -28.5204 H   0  0  0  0  0  0  0  0  0  0  0  0
   -4.3066   22.2001  -27.9376 H   0  0  0  0  0  0  0  0  0  0  0  0
   -4.9817   24.8841  -26.9426 H   0  0  0  0  0  0  0  0  0  0  0  0
   -4.0543   23.5530  -26.1692 H   0  0  0  0  0  0  0  0  0  0  0  0
   -3.3855   26.1504  -25.8231 H   0  0  0  0  0  0  0  0  0  0  0  0
   -2.2486   24.8155  -25.4231 H   0  0  0  0  0  0  0  0  0  0  0  0
   -1.7434   27.4623  -26.7089 H   0  0  0  0  0  0  0  0  0  0  0  0
   -0.6680   26.3961  -25.6864 H   0  0  0  0  0  0  0  0  0  0  0  0
    0.1823   26.7490  -28.0122 H   0  0  0  0  0  0  0  0  0  0  0  0
   -0.1391   25.0143  -27.5659 H   0  0  0  0  0  0  0  0  0  0  0  0
   -1.6730   24.8250  -29.0860 H   0  0  0  0  0  0  0  0  0  0  0  0
   -2.3430   26.3560  -28.8050 H   0  0  0  0  0  0  0  0  0  0  0  0
   -7.4302   24.2524  -29.6191 H   0  0  0  0  0  0  0  0  0  0  0  0
   -8.5616   22.1953  -30.4485 H   0  0  0  0  0  0  0  0  0  0  0  0
  1  2  1  0
  2  3  1  0
  3  4  1  0
  3  5  1  0
  5  6  2  0
  6  7  1  0
  7  8  2  0
  8  9  1  0
  9 10  1  0
 10 11  1  0
 11 12  1  0
 12 13  1  0
 13 14  1  0
 14 15  1  0
 15 16  1  0
 16 17  1  0
 17 18  1  0
  8 19  1  0
 19 20  2  0
 20  5  1  0
  1 21  1  0
  1 22  1  0
  1 23  1  0
  2 24  1  0
  2 25  1  0
  4 26  1  0
  4 27  1  0
  4 28  1  0
  6 29  1  0
  7 30  1  0
  9 31  1  0
  9 32  1  0
 10 33  1  0
 11 34  1  0
 11 35  1  0
 12 36  1  0
 12 37  1  0
 13 38  1  0
 13 39  1  0
 15 40  1  0
 15 41  1  0
 16 42  1  0
 16 43  1  0
 17 44  1  0
 17 45  1  0
 18 46  1  0
 18 47  1  0
 19 48  1  0
 20 49  1  0
M  END
>  <UniqueID>  (8) 
8

>  <SMILES>  (8) 
CCN(C)c1ccc(CNCCCOCCCN)cc1

>  <Energy>  (8) 
38.3203365103737

>  <Genealogy>  (8) 
CCN(C)c1ccc(CNCCCOCCCN)cc1 (3D coordinates assigned)
CCN(C)c1ccc(CNCCCOCCCN)cc1 (optimized conformer: 38.3203365103737 kcal/mol)

>  <smiles>  (8) 
CCN(C)c1ccc(CNCCCOCCCN)cc1

>  <score_type>  (8) 
oracle

>  <origin>  (8) 
adg

>  <m_score__min__energy>  (8) 
-6.9800000000000004

>  <m_primary>  (8) 
energy

$$$$
8:0
     RDKit          3D

 50 52  0  0  0  0  0  0  0  0999 V2000
   -3.9390   24.2990  -27.1410 C   0  0  0  0  0  0  0  0  0  0  0  0
   -3.9230   23.7090  -28.4840 N   0  0  0  0  0  0  0  0  0  0  0  0
   -3.2430   22.4040  -28.4970 C   0  0  0  0  0  0  0  0  0  0  0  0
   -3.5330   21.6370  -29.8000 C   0  0  0  0  0  0  0  0  0  0  0  0
   -4.2280   22.4610  -30.8090 N   0  0  0  0  0  0  0  0  0  0  0  0
   -4.9030   21.6540  -31.8180 C   0  0  0  0  0  0  0  0  0  0  0  0
   -4.1750   20.7280  -32.5990 C   0  0  0  0  0  0  0  0  0  0  0  0
   -2.7910   20.8840  -32.8240 C   0  0  0  0  0  0  0  0  0  0  0  0
   -2.0860   19.9700  -33.6050 C   0  0  0  0  0  0  0  0  0  0  0  0
   -2.7490   18.8990  -34.1950 C   0  0  0  0  0  0  0  0  0  0  0  0
   -4.1170   18.7220  -33.9780 C   0  0  0  0  0  0  0  0  0  0  0  0
   -4.8500   19.6110  -33.1520 C   0  0  0  0  0  0  0  0  0  0  0  0
   -6.1840   19.4060  -32.8700 N   0  0  0  0  0  0  0  0  0  0  0  0
   -6.8040   18.0850  -33.1010 C   0  0  0  0  0  0  0  0  0  0  0  0
   -6.9460   20.4510  -32.3910 C   0  0  0  0  0  0  0  0  0  0  0  0
   -8.3580   20.3770  -32.3670 C   0  0  0  0  0  0  0  0  0  0  0  0
   -9.1290   21.4570  -31.9450 C   0  0  0  0  0  0  0  0  0  0  0  0
   -8.5200   22.6580  -31.6150 C   0  0  0  0  0  0  0  0  0  0  0  0
   -7.1280   22.7810  -31.6400 C   0  0  0  0  0  0  0  0  0  0  0  0
   -6.5820   24.1060  -31.5960 N   0  0  0  0  0  0  0  0  0  0  0  0
   -6.6650   24.9100  -30.3830 C   0  0  0  0  0  0  0  0  0  0  0  0
   -5.3670   25.6630  -30.1120 C   0  0  0  0  0  0  0  0  0  0  0  0
   -4.3170   25.1090  -30.8530 O   0  0  0  0  0  0  0  0  0  0  0  0
   -6.3190   21.6420  -31.9290 C   0  0  0  0  0  0  0  0  0  0  0  0
   -3.9173   23.4974  -26.3881 H   0  0  0  0  0  0  0  0  0  0  0  0
   -3.0581   24.9454  -27.0139 H   0  0  0  0  0  0  0  0  0  0  0  0
   -4.8537   24.8967  -27.0139 H   0  0  0  0  0  0  0  0  0  0  0  0
   -3.3980   24.3570  -29.1120 H   0  0  0  0  0  0  0  0  0  0  0  0
   -2.1583   22.5639  -28.4088 H   0  0  0  0  0  0  0  0  0  0  0  0
   -3.6176   21.8080  -27.6517 H   0  0  0  0  0  0  0  0  0  0  0  0
   -2.5784   21.2931  -30.2248 H   0  0  0  0  0  0  0  0  0  0  0  0
   -4.1953   20.7958  -29.5476 H   0  0  0  0  0  0  0  0  0  0  0  0
   -3.5470   23.1120  -31.2660 H   0  0  0  0  0  0  0  0  0  0  0  0
   -4.8850   23.0660  -30.2790 H   0  0  0  0  0  0  0  0  0  0  0  0
   -2.2614   21.7383  -32.3771 H   0  0  0  0  0  0  0  0  0  0  0  0
   -1.0036   20.0958  -33.7551 H   0  0  0  0  0  0  0  0  0  0  0  0
   -2.1964   18.1924  -34.8317 H   0  0  0  0  0  0  0  0  0  0  0  0
   -4.6351   17.8778  -34.4564 H   0  0  0  0  0  0  0  0  0  0  0  0
   -7.0268   17.6104  -32.1340 H   0  0  0  0  0  0  0  0  0  0  0  0
   -7.7365   18.2121  -33.6705 H   0  0  0  0  0  0  0  0  0  0  0  0
   -6.1104   17.4490  -33.6705 H   0  0  0  0  0  0  0  0  0  0  0  0
   -8.8560   19.4500  -32.6873 H   0  0  0  0  0  0  0  0  0  0  0  0
  -10.2221   21.3572  -31.8734 H   0  0  0  0  0  0  0  0  0  0  0  0
   -9.1382   23.5223  -31.3308 H   0  0  0  0  0  0  0  0  0  0  0  0
   -5.8280   24.3460  -32.2770 H   0  0  0  0  0  0  0  0  0  0  0  0
   -7.4823   25.6379  -30.4937 H   0  0  0  0  0  0  0  0  0  0  0  0
   -6.8502   24.2327  -29.5362 H   0  0  0  0  0  0  0  0  0  0  0  0
   -5.4940   26.7180  -30.3964 H   0  0  0  0  0  0  0  0  0  0  0  0
   -5.1271   25.5861  -29.0412 H   0  0  0  0  0  0  0  0  0  0  0  0
   -4.2040   25.6850  -31.6510 H   0  0  0  0  0  0  0  0  0  0  0  0
  1  2  1  0
  2  3  1  0
  3  4  1  0
  4  5  1  0
  5  6  1  0
  6  7  2  0
  7  8  1  0
  8  9  2  0
  9 10  1  0
 10 11  2  0
 11 12  1  0
 12 13  2  0
 13 14  1  0
 13 15  1  0
 15 16  2  0
 16 17  1  0
 17 18  2  0
 18 19  1  0
 19 20  1  0
 20 21  1  0
 21 22  1  0
 22 23  1  0
 19 24  2  0
 24  6  1  0
 12  7  1  0
 24 15  1  0
  1 25  1  0
  1 26  1  0
  1 27  1  0
  2 28  1  0
  3 29  1  0
  3 30  1  0
  4 31  1  0
  4 32  1  0
  5 33  1  0
  5 34  1  0
  8 35  1  0
  9 36  1  0
 10 37  1  0
 11 38  1  0
 14 39  1  0
 14 40  1  0
 14 41  1  0
 16 42  1  0
 17 43  1  0
 18 44  1  0
 20 45  1  0
 21 46  1  0
 21 47  1  0
 22 48  1  0
 22 49  1  0
 23 50  1  0
M  CHG  2   5   1  13   1
M  END
>  <UniqueID>  (9) 
9

>  <SMILES>  (9) 
CNCC[NH2+]c1c2ccccc2[n+](C)c2cccc(NCCO)c12

>  <Energy>  (9) 
90.22254207043642

>  <Genealogy>  (9) 
CNCC[NH2+]c1c2ccccc2[n+](C)c2cccc(NCCO)c12 (protonated)
CNCC[NH2+]c1c2ccccc2[n+](C)c2cccc(NCCO)c12 (3D coordinates assigned)
CNCC[NH2+]c1c2ccccc2[n+](C)c2cccc(NCCO)c12 (optimized conformer: 90.22254207043642 kcal/mol)

>  <smiles>  (9) 
CNCCNc1c2ccccc2[n+](C)c2cccc(NCCO)c12

>  <score_type>  (9) 
oracle

>  <origin>  (9) 
adg

>  <m_score__min__energy>  (9) 
-6.2699999999999996

>  <m_primary>  (9) 
energy

$$$$
9:0
     RDKit          3D

 76 79  0  0  0  0  0  0  0  0999 V2000
   -4.3171   22.6707  -32.5169 H   0  0  0  0  0  0  0  0  0  0  0  0
   -5.2090   23.0930  -32.0310 C   0  0  0  0  0  0  0  0  0  0  0  0
   -5.0900   24.2460  -31.4450 N   0  0  0  0  0  0  0  0  0  0  0  0
   -4.1550   24.5150  -30.4700 O   0  0  0  0  0  0  0  0  0  0  0  0
   -4.3100   23.9990  -29.1550 C   0  0  0  0  0  0  0  0  0  0  0  0
   -5.2801   24.3187  -28.7468 H   0  0  0  0  0  0  0  0  0  0  0  0
   -4.2707   22.9001  -29.1834 H   0  0  0  0  0  0  0  0  0  0  0  0
   -3.1830   24.5290  -28.2680 C   0  0  0  0  0  0  0  0  0  0  0  0
   -3.6113   25.1777  -27.4897 H   0  0  0  0  0  0  0  0  0  0  0  0
   -2.6628   23.6745  -27.8106 H   0  0  0  0  0  0  0  0  0  0  0  0
   -2.2500   25.2730  -29.0310 O   0  0  0  0  0  0  0  0  0  0  0  0
   -1.2480   25.8450  -28.2080 C   0  0  0  0  0  0  0  0  0  0  0  0
   -0.3007   25.3087  -28.3662 H   0  0  0  0  0  0  0  0  0  0  0  0
   -1.1338   26.9062  -28.4742 H   0  0  0  0  0  0  0  0  0  0  0  0
   -1.6430   25.7460  -26.7260 C   0  0  0  0  0  0  0  0  0  0  0  0
   -2.7221   25.5451  -26.6540 H   0  0  0  0  0  0  0  0  0  0  0  0
   -1.0676   24.9305  -26.2636 H   0  0  0  0  0  0  0  0  0  0  0  0
   -1.3360   27.0050  -26.0100 N   0  0  0  0  0  0  0  0  0  0  0  0
   -0.0810   27.6060  -26.5020 C   0  0  0  0  0  0  0  0  0  0  0  0
    0.5426   27.9046  -25.6465 H   0  0  0  0  0  0  0  0  0  0  0  0
    0.4628   26.8706  -27.1131 H   0  0  0  0  0  0  0  0  0  0  0  0
   -0.3130   28.4907  -27.1131 H   0  0  0  0  0  0  0  0  0  0  0  0
   -1.2210   26.7500  -24.5650 C   0  0  0  0  0  0  0  0  0  0  0  0
   -1.6109   27.6146  -24.0079 H   0  0  0  0  0  0  0  0  0  0  0  0
   -1.8018   25.8532  -24.3036 H   0  0  0  0  0  0  0  0  0  0  0  0
   -0.1643   26.5916  -24.3036 H   0  0  0  0  0  0  0  0  0  0  0  0
   -6.4700   22.3040  -32.0900 C   0  0  0  0  0  0  0  0  0  0  0  0
   -7.6940   22.8200  -31.6120 C   0  0  0  0  0  0  0  0  0  0  0  0
   -7.7299   23.8370  -31.1943 H   0  0  0  0  0  0  0  0  0  0  0  0
   -8.8610   22.0520  -31.6640 C   0  0  0  0  0  0  0  0  0  0  0  0
   -9.8143   22.4771  -31.3168 H   0  0  0  0  0  0  0  0  0  0  0  0
   -8.8180   20.7490  -32.1550 C   0  0  0  0  0  0  0  0  0  0  0  0
   -9.7388   20.1492  -32.2028 H   0  0  0  0  0  0  0  0  0  0  0  0
   -7.6060   20.2030  -32.5870 C   0  0  0  0  0  0  0  0  0  0  0  0
   -7.5747   19.1651  -32.9499 H   0  0  0  0  0  0  0  0  0  0  0  0
   -6.4230   20.9700  -32.5620 C   0  0  0  0  0  0  0  0  0  0  0  0
   -5.1900   20.4440  -32.9940 O   0  0  0  0  0  0  0  0  0  0  0  0
   -5.0260   19.3030  -33.8410 C   0  0  0  0  0  0  0  0  0  0  0  0
   -5.0682   19.6230  -34.8926 H   0  0  0  0  0  0  0  0  0  0  0  0
   -5.8323   18.5845  -33.6322 H   0  0  0  0  0  0  0  0  0  0  0  0
   -3.7060   18.6430  -33.5780 C   0  0  0  0  0  0  0  0  0  0  0  0
   -3.6370   17.3840  -33.5190 O   0  0  0  0  0  0  0  0  0  0  0  0
   -2.5400   19.4580  -33.4200 N   0  0  0  0  0  0  0  0  0  0  0  0
   -2.1400   20.1980  -32.2580 C   0  0  0  0  0  0  0  0  0  0  0  0
   -2.4030   21.5690  -32.2230 C   0  0  0  0  0  0  0  0  0  0  0  0
   -2.9197   22.0455  -33.0691 H   0  0  0  0  0  0  0  0  0  0  0  0
   -2.0180   22.3400  -31.1280 C   0  0  0  0  0  0  0  0  0  0  0  0
   -2.2525   23.4145  -31.1066 H   0  0  0  0  0  0  0  0  0  0  0  0
   -1.3340   21.7550  -30.0540 C   0  0  0  0  0  0  0  0  0  0  0  0
   -1.0310   20.3700  -30.0820 C   0  0  0  0  0  0  0  0  0  0  0  0
   -1.4400   19.6010  -31.1940 C   0  0  0  0  0  0  0  0  0  0  0  0
   -1.2091   18.5260  -31.2282 H   0  0  0  0  0  0  0  0  0  0  0  0
   -0.3060   19.8130  -28.9980 C   0  0  0  0  0  0  0  0  0  0  0  0
    0.0940   18.3580  -28.9610 C   0  0  0  0  0  0  0  0  0  0  0  0
    0.1844   18.0291  -27.9152 H   0  0  0  0  0  0  0  0  0  0  0  0
   -0.6715   17.7542  -29.4704 H   0  0  0  0  0  0  0  0  0  0  0  0
    1.0606   18.2304  -29.4704 H   0  0  0  0  0  0  0  0  0  0  0  0
    0.0900   20.6460  -27.9400 C   0  0  0  0  0  0  0  0  0  0  0  0
    0.6634   20.2275  -27.0997 H   0  0  0  0  0  0  0  0  0  0  0  0
   -0.2410   22.0080  -27.9480 C   0  0  0  0  0  0  0  0  0  0  0  0
    0.2020   22.8700  -26.8810 N   0  0  0  0  0  0  0  0  0  0  0  0
   -0.3900   22.7230  -25.5440 C   0  0  0  0  0  0  0  0  0  0  0  0
   -1.4720   22.9104  -25.6083 H   0  0  0  0  0  0  0  0  0  0  0  0
   -0.1933   21.7013  -25.1869 H   0  0  0  0  0  0  0  0  0  0  0  0
    0.2260   23.7050  -24.5570 C   0  0  0  0  0  0  0  0  0  0  0  0
   -0.1813   24.7111  -24.7356 H   0  0  0  0  0  0  0  0  0  0  0  0
   -0.0119   23.3953  -23.5287 H   0  0  0  0  0  0  0  0  0  0  0  0
    1.6230   23.7230  -24.7360 O   0  0  0  0  0  0  0  0  0  0  0  0
    1.9300   24.4390  -25.9130 C   0  0  0  0  0  0  0  0  0  0  0  0
    1.6170   25.4846  -25.7759 H   0  0  0  0  0  0  0  0  0  0  0  0
    3.0140   24.3451  -26.0748 H   0  0  0  0  0  0  0  0  0  0  0  0
    1.2310   23.8800  -27.1780 C   0  0  0  0  0  0  0  0  0  0  0  0
    0.7549   24.7161  -27.7112 H   0  0  0  0  0  0  0  0  0  0  0  0
    2.0046   23.3859  -27.7842 H   0  0  0  0  0  0  0  0  0  0  0  0
   -0.9380   22.5250  -29.0000 N   0  0  0  0  0  0  0  0  0  0  0  0
   -1.1830   23.5420  -28.9930 H   0  0  0  0  0  0  0  0  0  0  0  0
  1  2  1  0
  2  3  2  0
  3  4  1  0
  4  5  1  0
  5  6  1  0
  5  7  1  0
  5  8  1  0
  8  9  1  0
  8 10  1  0
  8 11  1  0
 11 12  1  0
 12 13  1  0
 12 14  1  0
 12 15  1  0
 15 16  1  0
 15 17  1  0
 15 18  1  0
 18 19  1  0
 19 20  1  0
 19 21  1  0
 19 22  1  0
 18 23  1  0
 23 24  1  0
 23 25  1  0
 23 26  1  0
  2 27  1  0
 27 28  2  0
 28 29  1  0
 28 30  1  0
 30 31  1  0
 30 32  2  0
 32 33  1  0
 32 34  1  0
 34 35  1  0
 34 36  2  0
 36 37  1  0
 37 38  1  0
 38 39  1  0
 38 40  1  0
 38 41  1  0
 41 42  2  0
 41 43  1  0
 43 44  1  0
 44 45  2  0
 45 46  1  0
 45 47  1  0
 47 48  1  0
 47 49  2  0
 49 50  1  0
 50 51  2  0
 51 52  1  0
 50 53  1  0
 53 54  1  0
 54 55  1  0
 54 56  1  0
 54 57  1  0
 53 58  2  0
 58 59  1  0
 58 60  1  0
 60 61  1  0
 61 62  1  0
 62 63  1  0
 62 64  1  0
 62 65  1  0
 65 66  1  0
 65 67  1  0
 65 68  1  0
 68 69  1  0
 69 70  1  0
 69 71  1  0
 69 72  1  0
 72 73  1  0
 72 74  1  0
 60 75  2  0
 75 76  1  0
 36 27  1  0
 51 44  1  0
 72 61  1  0
 75 49  1  0
M  CHG  2  43  -1  75   1
M  END
>  <UniqueID>  (10) 
10

>  <SMILES>  (10) 
Cc1cc(N2CCOCC2)[nH+]c2ccc([N-]C(=O)COc3ccccc3/C=N\OCCOCCN(C)C)cc12

>  <Energy>  (10) 
98.72312965149489

>  <Genealogy>  (10) 
Cc1cc(N2CCOCC2)[nH+]c2ccc([N-]C(=O)COc3ccccc3C=NOCCOCCN(C)C)cc12 (protonated)
Cc1cc(N2CCOCC2)[nH+]c2ccc([N-]C(=O)COc3ccccc3/C=N\OCCOCCN(C)C)cc12 (cis-trans isomerization)
Cc1cc(N2CCOCC2)[nH+]c2ccc([N-]C(=O)COc3ccccc3/C=N\OCCOCCN(C)C)cc12 (3D coordinates assigned)
Cc1cc(N2CCOCC2)[nH+]c2ccc([N-]C(=O)COc3ccccc3/C=N\OCCOCCN(C)C)cc12 (nonaromatic ring conformer: 98.72312965149489 kcal/mol)

>  <smiles>  (10) 
Cc1cc(N2CCOCC2)nc2ccc(NC(=O)COc3ccccc3C=NOCCOCCN(C)C)cc12

>  <score_type>  (10) 
oracle

>  <origin>  (10) 
adg

>  <m_score__min__energy>  (10) 
-9.2200000000000006

>  <m_primary>  (10) 
energy

$$$$
10:0
     RDKit          3D

 43 45  0  0  0  0  0  0  0  0999 V2000
   -3.3380   23.1010  -29.2710 C   0  0  0  0  0  0  0  0  0  0  0  0
   -3.4790   24.5000  -29.8600 C   0  0  0  0  0  0  0  0  0  0  0  0
   -4.7190   24.5970  -30.6660 N   0  0  0  0  0  0  0  0  0  0  0  0
   -5.3580   25.9110  -30.4730 C   0  0  0  0  0  0  0  0  0  0  0  0
   -5.6690   23.5150  -30.3270 C   0  0  0  0  0  0  0  0  0  0  0  0
   -6.7970   23.4550  -31.3630 C   0  0  0  0  0  0  0  0  0  0  0  0
   -6.3300   22.8380  -32.6040 N   0  0  0  0  0  0  0  0  0  0  0  0
   -6.0680   21.4280  -32.6970 C   0  0  0  0  0  0  0  0  0  0  0  0
   -7.1100   20.4930  -32.5300 C   0  0  0  0  0  0  0  0  0  0  0  0
   -8.4120   20.8890  -32.1610 C   0  0  0  0  0  0  0  0  0  0  0  0
   -9.4270   19.9390  -32.0160 C   0  0  0  0  0  0  0  0  0  0  0  0
   -9.1580   18.5860  -32.2240 C   0  0  0  0  0  0  0  0  0  0  0  0
   -7.8690   18.1740  -32.5640 C   0  0  0  0  0  0  0  0  0  0  0  0
   -6.8400   19.1180  -32.7100 C   0  0  0  0  0  0  0  0  0  0  0  0
   -5.5420   18.7070  -33.0200 C   0  0  0  0  0  0  0  0  0  0  0  0
   -4.5250   19.6120  -33.1360 N   0  0  0  0  0  0  0  0  0  0  0  0
   -3.2670   19.1520  -33.4210 C   0  0  0  0  0  0  0  0  0  0  0  0
   -2.1960   20.0350  -33.5490 C   0  0  0  0  0  0  0  0  0  0  0  0
   -2.4090   21.3980  -33.3830 C   0  0  0  0  0  0  0  0  0  0  0  0
   -3.6870   21.8690  -33.0950 C   0  0  0  0  0  0  0  0  0  0  0  0
   -4.7600   20.9630  -32.9720 C   0  0  0  0  0  0  0  0  0  0  0  0
   -3.3443   23.1632  -28.1728 H   0  0  0  0  0  0  0  0  0  0  0  0
   -4.1776   22.4751  -29.6076 H   0  0  0  0  0  0  0  0  0  0  0  0
   -2.3904   22.6552  -29.6076 H   0  0  0  0  0  0  0  0  0  0  0  0
   -3.5191   25.2353  -29.0428 H   0  0  0  0  0  0  0  0  0  0  0  0
   -2.6142   24.7037  -30.5086 H   0  0  0  0  0  0  0  0  0  0  0  0
   -5.4576   26.1158  -29.3968 H   0  0  0  0  0  0  0  0  0  0  0  0
   -4.7390   26.6918  -30.9391 H   0  0  0  0  0  0  0  0  0  0  0  0
   -6.3544   25.9062  -30.9391 H   0  0  0  0  0  0  0  0  0  0  0  0
   -5.1350   22.5534  -30.3156 H   0  0  0  0  0  0  0  0  0  0  0  0
   -6.1027   23.7164  -29.3364 H   0  0  0  0  0  0  0  0  0  0  0  0
   -7.6291   22.8617  -30.9562 H   0  0  0  0  0  0  0  0  0  0  0  0
   -7.1292   24.4804  -31.5823 H   0  0  0  0  0  0  0  0  0  0  0  0
   -6.2690   23.4200  -33.4700 H   0  0  0  0  0  0  0  0  0  0  0  0
   -8.6304   21.9528  -31.9861 H   0  0  0  0  0  0  0  0  0  0  0  0
  -10.4416   20.2594  -31.7369 H   0  0  0  0  0  0  0  0  0  0  0  0
   -9.9628   17.8434  -32.1199 H   0  0  0  0  0  0  0  0  0  0  0  0
   -7.6582   17.1055  -32.7183 H   0  0  0  0  0  0  0  0  0  0  0  0
   -5.3350   17.6376  -33.1733 H   0  0  0  0  0  0  0  0  0  0  0  0
   -3.0996   18.0725  -33.5505 H   0  0  0  0  0  0  0  0  0  0  0  0
   -1.1896   19.6556  -33.7797 H   0  0  0  0  0  0  0  0  0  0  0  0
   -1.5701   22.1030  -33.4789 H   0  0  0  0  0  0  0  0  0  0  0  0
   -3.8594   22.9474  -32.9635 H   0  0  0  0  0  0  0  0  0  0  0  0
  1  2  1  0
  2  3  1  0
  3  4  1  0
  3  5  1  0
  5  6  1  0
  6  7  1  0
  7  8  1  0
  8  9  2  0
  9 10  1  0
 10 11  2  0
 11 12  1  0
 12 13  2  0
 13 14  1  0
 14 15  2  0
 15 16  1  0
 16 17  2  0
 17 18  1  0
 18 19  2  0
 19 20  1  0
 20 21  2  0
 21  8  1  0
 14  9  1  0
 21 16  1  0
  1 22  1  0
  1 23  1  0
  1 24  1  0
  2 25  1  0
  2 26  1  0
  4 27  1  0
  4 28  1  0
  4 29  1  0
  5 30  1  0
  5 31  1  0
  6 32  1  0
  6 33  1  0
  7 34  1  0
 10 35  1  0
 11 36  1  0
 12 37  1  0
 13 38  1  0
 15 39  1  0
 17 40  1  0
 18 41  1  0
 19 42  1  0
 20 43  1  0
M  CHG  1  16   1
M  END
>  <UniqueID>  (11) 
11

>  <SMILES>  (11) 
CCN(C)CCNc1c2ccccc2c[n+]2ccccc12

>  <Energy>  (11) 
56.96199944270886

>  <Genealogy>  (11) 
CCN(C)CCNc1c2ccccc2c[n+]2ccccc12 (3D coordinates assigned)
CCN(C)CCNc1c2ccccc2c[n+]2ccccc12 (optimized conformer: 56.96199944270886 kcal/mol)

>  <smiles>  (11) 
CCN(C)CCNc1c2ccccc2c[n+]2ccccc12

>  <score_type>  (11) 
oracle

>  <origin>  (11) 
adg

>  <m_score__min__energy>  (11) 
-7.9900000000000002

>  <m_primary>  (11) 
energy

$$$$
11:0
     RDKit          3D

 52 54  0  0  1  0  0  0  0  0999 V2000
   -8.4670   18.3780  -31.2920 C   0  0  0  0  0  0  0  0  0  0  0  0
   -7.9580   18.1870  -32.7000 C   0  0  0  0  0  0  0  0  0  0  0  0
   -6.7200   17.4510  -32.6260 N   0  0  0  0  0  0  0  0  0  0  0  0
   -6.3840   16.9010  -33.9210 C   0  0  0  0  0  0  0  0  0  0  0  0
   -5.6060   18.2760  -32.1840 C   0  0  0  0  0  0  0  0  0  0  0  0
   -5.1060   19.2430  -33.1790 C   0  0  0  0  0  0  0  0  0  0  0  0
   -5.0820   20.6160  -32.7550 N   0  0  0  0  0  0  0  0  0  0  0  0
   -4.0480   21.4650  -32.6070 C   0  0  0  0  0  0  0  0  0  0  0  0
   -2.6470   21.1500  -32.8610 C   0  0  0  0  0  0  0  0  0  0  0  0
   -1.6220   21.4840  -32.0150 C   0  0  0  0  0  0  0  0  0  0  0  0
   -0.3150   21.1760  -32.2800 C   0  0  0  0  0  0  0  0  0  0  0  0
    0.0370   20.5100  -33.4230 C   0  0  0  0  0  0  0  0  0  0  0  0
    1.8270   20.0490  -33.8570 Br  0  0  0  0  0  0  0  0  0  0  0  0
   -0.9850   20.1640  -34.2930 C   0  0  0  0  0  0  0  0  0  0  0  0
   -2.3160   20.4730  -34.0280 C   0  0  0  0  0  0  0  0  0  0  0  0
   -4.4800   22.6620  -32.1890 N   0  0  0  0  0  0  0  0  0  0  0  0
   -5.8100   22.5980  -32.0620 C   0  0  0  0  0  0  0  0  0  0  0  0
   -6.7580   23.5210  -31.6700 C   0  0  0  0  0  0  0  0  0  0  0  0
   -6.4150   24.7170  -31.3440 N   0  0  0  0  0  0  0  0  0  0  0  0
   -6.0350   25.1250  -30.0120 C   0  0  0  0  0  0  0  0  0  0  0  0
   -4.5670   24.9150  -29.7110 C   0  0  0  0  0  0  0  0  0  0  0  0
   -3.7750   25.1230  -30.8230 O   0  0  0  0  0  0  0  0  0  0  0  0
   -8.0500   23.1780  -31.6320 N   0  0  0  0  0  0  0  0  0  0  0  0
   -8.4410   21.9350  -31.9720 C   0  0  0  0  0  0  0  0  0  0  0  0
   -9.8810   21.5480  -31.9310 C   0  0  0  0  0  0  0  0  0  0  0  0
   -7.5050   21.0430  -32.3520 N   0  0  0  0  0  0  0  0  0  0  0  0
   -6.1860   21.3100  -32.4170 C   0  0  0  0  0  0  0  0  0  0  0  0
   -7.6848   18.0845  -30.5764 H   0  0  0  0  0  0  0  0  0  0  0  0
   -8.7280   19.4352  -31.1367 H   0  0  0  0  0  0  0  0  0  0  0  0
   -9.3591   17.7535  -31.1367 H   0  0  0  0  0  0  0  0  0  0  0  0
   -8.6943   17.6221  -33.2905 H   0  0  0  0  0  0  0  0  0  0  0  0
   -7.7972   19.1609  -33.1855 H   0  0  0  0  0  0  0  0  0  0  0  0
   -5.8148   15.9693  -33.7872 H   0  0  0  0  0  0  0  0  0  0  0  0
   -7.3073   16.6895  -34.4803 H   0  0  0  0  0  0  0  0  0  0  0  0
   -5.7744   17.6260  -34.4803 H   0  0  0  0  0  0  0  0  0  0  0  0
   -5.9307   18.8386  -31.2963 H   0  0  0  0  0  0  0  0  0  0  0  0
   -4.7739   17.5842  -31.9864 H   0  0  0  0  0  0  0  0  0  0  0  0
   -4.0788   18.9534  -33.4455 H   0  0  0  0  0  0  0  0  0  0  0  0
   -5.8133   19.2009  -34.0204 H   0  0  0  0  0  0  0  0  0  0  0  0
   -1.8593   22.0215  -31.0851 H   0  0  0  0  0  0  0  0  0  0  0  0
    0.4657   21.4686  -31.5624 H   0  0  0  0  0  0  0  0  0  0  0  0
   -0.7366   19.6288  -35.2213 H   0  0  0  0  0  0  0  0  0  0  0  0
   -3.1027   20.1823  -34.7398 H   0  0  0  0  0  0  0  0  0  0  0  0
   -6.2642   26.1947  -29.8970 H   0  0  0  0  0  0  0  0  0  0  0  0
   -6.6020   24.4982  -29.3080 H   0  0  0  0  0  0  0  0  0  0  0  0
   -4.2624   25.6181  -28.9218 H   0  0  0  0  0  0  0  0  0  0  0  0
   -4.4325   23.8718  -29.3890 H   0  0  0  0  0  0  0  0  0  0  0  0
   -4.2640   24.7390  -31.5880 H   0  0  0  0  0  0  0  0  0  0  0  0
   -8.7940   23.8440  -31.3400 H   0  0  0  0  0  0  0  0  0  0  0  0
  -10.2074   21.4603  -30.8842 H   0  0  0  0  0  0  0  0  0  0  0  0
  -10.4818   22.3165  -32.4393 H   0  0  0  0  0  0  0  0  0  0  0  0
  -10.0156   20.5818  -32.4393 H   0  0  0  0  0  0  0  0  0  0  0  0
  1  2  1  0
  2  3  1  0
  3  4  1  0
  3  5  1  0
  5  6  1  0
  6  7  1  0
  7  8  1  0
  8  9  1  0
  9 10  2  0
 10 11  1  0
 11 12  2  0
 12 13  1  0
 12 14  1  0
 14 15  2  0
  8 16  2  0
 16 17  1  0
 17 18  1  0
 18 19  2  0
 19 20  1  0
 20 21  1  0
 21 22  1  0
 18 23  1  0
 23 24  1  0
 24 25  1  0
 24 26  2  0
 26 27  1  0
 27  7  1  0
 15  9  1  0
 27 17  2  0
  1 28  1  0
  1 29  1  0
  1 30  1  0
  2 31  1  0
  2 32  1  0
  4 33  1  0
  4 34  1  0
  4 35  1  0
  5 36  1  0
  5 37  1  0
  6 38  1  0
  6 39  1  0
 10 40  1  0
 11 41  1  0
 14 42  1  0
 15 43  1  0
 20 44  1  0
 20 45  1  0
 21 46  1  0
 21 47  1  0
 22 48  1  0
 23 49  1  0
 25 50  1  0
 25 51  1  0
 25 52  1  0
M  END
>  <smiles>  (12) 
CCN(C)CCn1c(-c2ccc(Br)cc2)nc2c(=NCCO)[nH]c(C)nc21

>  <score_type>  (12) 
oracle

>  <origin>  (12) 
adg

>  <m_score__min__energy>  (12) 
-8.7400000000000002

>  <m_primary>  (12) 
energy

$$$$
12:0
     RDKit          3D

 59 59  0  0  0  0  0  0  0  0999 V2000
   -3.8040   21.4930  -33.1030 C   0  0  0  0  0  0  0  0  0  0  0  0
   -4.0570   20.0300  -33.4460 C   0  0  0  0  0  0  0  0  0  0  0  0
   -5.4950   19.7200  -33.2810 N   0  0  0  0  0  0  0  0  0  0  0  0
   -6.0300   18.9220  -34.4070 C   0  0  0  0  0  0  0  0  0  0  0  0
   -5.1410   17.7200  -34.7300 C   0  0  0  0  0  0  0  0  0  0  0  0
   -5.8100   19.1860  -31.9310 C   0  0  0  0  0  0  0  0  0  0  0  0
   -7.2190   18.5780  -31.8030 C   0  0  0  0  0  0  0  0  0  0  0  0
   -8.4540   19.8610  -31.8920 S   0  0  0  0  0  0  0  0  0  0  0  0
   -9.6250   19.4530  -33.0280 O   0  0  0  0  0  0  0  0  0  0  0  0
   -7.7000   21.4250  -32.3070 C   0  0  0  0  0  0  0  0  0  0  0  0
   -6.8870   22.0010  -31.1390 C   0  0  0  0  0  0  0  0  0  0  0  0
   -6.8420   23.5410  -31.0810 C   0  0  0  0  0  0  0  0  0  0  0  0
   -5.7370   24.1710  -31.9430 C   0  0  0  0  0  0  0  0  0  0  0  0
   -4.6960   24.7870  -31.1050 N   0  0  0  0  0  0  0  0  0  0  0  0
   -5.1780   25.1520  -29.7610 C   0  0  0  0  0  0  0  0  0  0  0  0
   -4.6310   24.2350  -28.6500 C   0  0  0  0  0  0  0  0  0  0  0  0
   -3.2830   23.6560  -28.9980 C   0  0  0  0  0  0  0  0  0  0  0  0
   -3.1950   22.4500  -29.7100 C   0  0  0  0  0  0  0  0  0  0  0  0
   -1.9480   21.9210  -30.0470 C   0  0  0  0  0  0  0  0  0  0  0  0
   -0.7780   22.5910  -29.6820 C   0  0  0  0  0  0  0  0  0  0  0  0
   -0.8490   23.8030  -28.9700 C   0  0  0  0  0  0  0  0  0  0  0  0
    0.2960   24.5170  -28.5820 O   0  0  0  0  0  0  0  0  0  0  0  0
    0.8970   24.4300  -27.2940 C   0  0  0  0  0  0  0  0  0  0  0  0
   -2.1040   24.3270  -28.6330 C   0  0  0  0  0  0  0  0  0  0  0  0
   -3.7829   21.6150  -32.0100 H   0  0  0  0  0  0  0  0  0  0  0  0
   -2.8382   21.8070  -33.5257 H   0  0  0  0  0  0  0  0  0  0  0  0
   -4.6082   22.1131  -33.5257 H   0  0  0  0  0  0  0  0  0  0  0  0
   -3.7598   19.8422  -34.4883 H   0  0  0  0  0  0  0  0  0  0  0  0
   -3.4671   19.3908  -32.7726 H   0  0  0  0  0  0  0  0  0  0  0  0
   -7.0339   18.5599  -34.1404 H   0  0  0  0  0  0  0  0  0  0  0  0
   -6.0637   19.5687  -35.2962 H   0  0  0  0  0  0  0  0  0  0  0  0
   -4.7977   17.2558  -33.7937 H   0  0  0  0  0  0  0  0  0  0  0  0
   -5.7151   16.9858  -35.3143 H   0  0  0  0  0  0  0  0  0  0  0  0
   -4.2709   18.0540  -35.3143 H   0  0  0  0  0  0  0  0  0  0  0  0
   -5.0744   18.4047  -31.6893 H   0  0  0  0  0  0  0  0  0  0  0  0
   -5.7709   20.0391  -31.2377 H   0  0  0  0  0  0  0  0  0  0  0  0
   -7.3808   17.8606  -32.6210 H   0  0  0  0  0  0  0  0  0  0  0  0
   -7.3023   18.0665  -30.8327 H   0  0  0  0  0  0  0  0  0  0  0  0
   -9.2000   19.6290  -33.9060 H   0  0  0  0  0  0  0  0  0  0  0  0
   -7.0305   21.2790  -33.1675 H   0  0  0  0  0  0  0  0  0  0  0  0
   -8.5043   22.1370  -32.5441 H   0  0  0  0  0  0  0  0  0  0  0  0
   -7.3299   21.6359  -30.2006 H   0  0  0  0  0  0  0  0  0  0  0  0
   -5.8499   21.6660  -31.2882 H   0  0  0  0  0  0  0  0  0  0  0  0
   -7.8120   23.9279  -31.4266 H   0  0  0  0  0  0  0  0  0  0  0  0
   -6.6227   23.8121  -30.0377 H   0  0  0  0  0  0  0  0  0  0  0  0
   -5.2794   23.3896  -32.5675 H   0  0  0  0  0  0  0  0  0  0  0  0
   -6.1879   24.9537  -32.5707 H   0  0  0  0  0  0  0  0  0  0  0  0
   -4.3080   25.6250  -31.5940 H   0  0  0  0  0  0  0  0  0  0  0  0
   -4.8666   26.1850  -29.5465 H   0  0  0  0  0  0  0  0  0  0  0  0
   -6.2726   25.0428  -29.7655 H   0  0  0  0  0  0  0  0  0  0  0  0
   -4.5362   24.8199  -27.7232 H   0  0  0  0  0  0  0  0  0  0  0  0
   -5.3349   23.3987  -28.5269 H   0  0  0  0  0  0  0  0  0  0  0  0
   -4.1126   21.9193  -30.0038 H   0  0  0  0  0  0  0  0  0  0  0  0
   -1.8865   20.9732  -30.6019 H   0  0  0  0  0  0  0  0  0  0  0  0
    0.2018   22.1701  -29.9518 H   0  0  0  0  0  0  0  0  0  0  0  0
    0.1234   24.5420  -26.5201 H   0  0  0  0  0  0  0  0  0  0  0  0
    1.3873   23.4515  -27.1835 H   0  0  0  0  0  0  0  0  0  0  0  0
    1.6446   25.2293  -27.1835 H   0  0  0  0  0  0  0  0  0  0  0  0
   -2.1668   25.2739  -28.0767 H   0  0  0  0  0  0  0  0  0  0  0  0
  1  2  1  0
  2  3  1  0
  3  4  1  0
  4  5  1  0
  3  6  1  0
  6  7  1  0
  7  8  1  0
  8  9  1  6
  8 10  1  0
 10 11  1  0
 11 12  1  0
 12 13  1  0
 13 14  1  0
 14 15  1  0
 15 16  1  0
 16 17  1  0
 17 18  2  0
 18 19  1  0
 19 20  2  0
 20 21  1  0
 21 22  1  0
 22 23  1  0
 21 24  2  0
 24 17  1  0
  1 25  1  0
  1 26  1  0
  1 27  1  0
  2 28  1  0
  2 29  1  0
  4 30  1  0
  4 31  1  0
  5 32  1  0
  5 33  1  0
  5 34  1  0
  6 35  1  0
  6 36  1  0
  7 37  1  0
  7 38  1  0
  9 39  1  0
 10 40  1  0
 10 41  1  0
 11 42  1  0
 11 43  1  0
 12 44  1  0
 12 45  1  0
 13 46  1  0
 13 47  1  0
 14 48  1  0
 15 49  1  0
 15 50  1  0
 16 51  1  0
 16 52  1  0
 18 53  1  0
 19 54  1  0
 20 55  1  0
 23 56  1  0
 23 57  1  0
 23 58  1  0
 24 59  1  0
M  CHG  1   8   1
M  END
>  <UniqueID>  (13) 
12

>  <SMILES>  (13) 
CCN(CC)CC[S@+](O)CCCCNCCc1cccc(OC)c1

>  <Energy>  (13) 
45.558600318556586

>  <Genealogy>  (13) 
CCN(CC)CC[S+](O)CCCCNCCc1cccc(OC)c1 (protonated)
CCN(CC)CC[S@+](O)CCCCNCCc1cccc(OC)c1 (chirality)
CCN(CC)CC[S@+](O)CCCCNCCc1cccc(OC)c1 (3D coordinates assigned)
CCN(CC)CC[S@+](O)CCCCNCCc1cccc(OC)c1 (optimized conformer: 45.558600318556586 kcal/mol)

>  <smiles>  (13) 
CCN(CC)CC[S+]([O-])CCCCNCCc1cccc(OC)c1

>  <score_type>  (13) 
oracle

>  <origin>  (13) 
adg

>  <m_score__min__energy>  (13) 
-7.2300000000000004

>  <m_primary>  (13) 
energy

$$$$
13:0
     RDKit          3D

 82 86  0  0  0  0  0  0  0  0999 V2000
    0.6000   22.1960  -35.7290 C   0  0  0  0  0  0  0  0  0  0  0  0
    0.8360   21.5400  -34.3710 C   0  0  0  0  0  0  0  0  0  0  0  0
   -0.4130   20.9230  -33.8690 N   0  0  0  0  0  0  0  0  0  0  0  0
   -0.5950   19.5910  -34.4760 C   0  0  0  0  0  0  0  0  0  0  0  0
   -0.4070   20.8220  -32.3900 C   0  0  0  0  0  0  0  0  0  0  0  0
   -1.8250   20.9900  -31.8360 C   0  0  0  0  0  0  0  0  0  0  0  0
   -2.7850   21.2160  -32.9180 N   0  0  0  0  0  0  0  0  0  0  0  0
   -4.1530   20.8020  -32.8020 C   0  0  0  0  0  0  0  0  0  0  0  0
   -4.6330   19.6630  -33.4850 C   0  0  0  0  0  0  0  0  0  0  0  0
   -3.7490   18.8320  -34.2020 C   0  0  0  0  0  0  0  0  0  0  0  0
   -4.2260   17.7400  -34.9230 C   0  0  0  0  0  0  0  0  0  0  0  0
   -5.5870   17.4580  -34.9460 C   0  0  0  0  0  0  0  0  0  0  0  0
   -6.4860   18.2550  -34.2370 C   0  0  0  0  0  0  0  0  0  0  0  0
   -6.0370   19.3620  -33.4730 C   0  0  0  0  0  0  0  0  0  0  0  0
   -6.9190   20.1490  -32.7470 N   0  0  0  0  0  0  0  0  0  0  0  0
   -8.3520   19.8090  -32.6640 C   0  0  0  0  0  0  0  0  0  0  0  0
   -6.4250   21.2570  -32.1040 C   0  0  0  0  0  0  0  0  0  0  0  0
   -7.1360   22.1700  -31.3950 N   0  0  0  0  0  0  0  0  0  0  0  0
   -6.2200   23.0340  -30.9140 C   0  0  0  0  0  0  0  0  0  0  0  0
   -6.4610   24.1300  -30.0900 C   0  0  0  0  0  0  0  0  0  0  0  0
   -5.3610   24.8860  -29.6510 C   0  0  0  0  0  0  0  0  0  0  0  0
   -4.0380   24.5290  -30.0300 C   0  0  0  0  0  0  0  0  0  0  0  0
   -2.9000   25.2250  -29.5930 O   0  0  0  0  0  0  0  0  0  0  0  0
   -1.7810   24.6790  -28.8910 C   0  0  0  0  0  0  0  0  0  0  0  0
   -1.2100   25.7370  -27.9120 C   0  0  0  0  0  0  0  0  0  0  0  0
   -1.6120   25.5680  -26.4780 N   0  0  0  0  0  0  0  0  0  0  0  0
   -3.0170   25.0840  -26.4190 C   0  0  0  0  0  0  0  0  0  0  0  0
   -1.5640   26.9150  -25.8130 C   0  0  0  0  0  0  0  0  0  0  0  0
   -0.1910   27.2080  -25.1740 C   0  0  0  0  0  0  0  0  0  0  0  0
    0.1340   26.2440  -24.0760 N   0  0  0  0  0  0  0  0  0  0  0  0
   -0.3260   26.7970  -22.7780 C   0  0  0  0  0  0  0  0  0  0  0  0
    1.6070   26.0760  -24.0030 C   0  0  0  0  0  0  0  0  0  0  0  0
   -0.5140   24.9110  -24.2920 C   0  0  0  0  0  0  0  0  0  0  0  0
   -0.7060   24.5910  -25.7870 C   0  0  0  0  0  0  0  0  0  0  0  0
   -3.8330   23.4050  -30.8550 C   0  0  0  0  0  0  0  0  0  0  0  0
   -4.9460   22.6930  -31.3050 C   0  0  0  0  0  0  0  0  0  0  0  0
   -5.0780   21.5660  -32.0970 C   0  0  0  0  0  0  0  0  0  0  0  0
    0.2310   23.2217  -35.5815 H   0  0  0  0  0  0  0  0  0  0  0  0
    1.5446   22.2235  -36.2920 H   0  0  0  0  0  0  0  0  0  0  0  0
   -0.1456   21.6155  -36.2920 H   0  0  0  0  0  0  0  0  0  0  0  0
    1.6078   20.7629  -34.4736 H   0  0  0  0  0  0  0  0  0  0  0  0
    1.1649   22.3092  -33.6567 H   0  0  0  0  0  0  0  0  0  0  0  0
   -0.6980   18.8371  -33.6817 H   0  0  0  0  0  0  0  0  0  0  0  0
   -1.5012   19.5929  -35.0995 H   0  0  0  0  0  0  0  0  0  0  0  0
    0.2785   19.3497  -35.0995 H   0  0  0  0  0  0  0  0  0  0  0  0
   -0.0177   19.8361  -32.0959 H   0  0  0  0  0  0  0  0  0  0  0  0
    0.2318   21.6188  -31.9812 H   0  0  0  0  0  0  0  0  0  0  0  0
   -2.1078   20.0792  -31.2879 H   0  0  0  0  0  0  0  0  0  0  0  0
   -1.8394   21.8618  -31.1654 H   0  0  0  0  0  0  0  0  0  0  0  0
   -2.4940   21.7820  -33.7460 H   0  0  0  0  0  0  0  0  0  0  0  0
   -2.6705   19.0482  -34.1921 H   0  0  0  0  0  0  0  0  0  0  0  0
   -3.5237   17.0988  -35.4759 H   0  0  0  0  0  0  0  0  0  0  0  0
   -5.9576   16.6007  -35.5271 H   0  0  0  0  0  0  0  0  0  0  0  0
   -7.5603   18.0210  -34.2711 H   0  0  0  0  0  0  0  0  0  0  0  0
   -8.6514   19.7380  -31.6079 H   0  0  0  0  0  0  0  0  0  0  0  0
   -8.9439   20.5916  -33.1611 H   0  0  0  0  0  0  0  0  0  0  0  0
   -8.5292   18.8439  -33.1611 H   0  0  0  0  0  0  0  0  0  0  0  0
   -8.1650   22.2300  -31.2350 H   0  0  0  0  0  0  0  0  0  0  0  0
   -7.4853   24.3970  -29.7906 H   0  0  0  0  0  0  0  0  0  0  0  0
   -5.5251   25.7630  -29.0076 H   0  0  0  0  0  0  0  0  0  0  0  0
   -2.1022   23.7925  -28.3244 H   0  0  0  0  0  0  0  0  0  0  0  0
   -1.0021   24.3940  -29.6135 H   0  0  0  0  0  0  0  0  0  0  0  0
   -0.1122   25.6907  -27.9646 H   0  0  0  0  0  0  0  0  0  0  0  0
   -1.6272   26.7031  -28.2322 H   0  0  0  0  0  0  0  0  0  0  0  0
   -3.3245   24.9781  -25.3682 H   0  0  0  0  0  0  0  0  0  0  0  0
   -3.6754   25.8071  -26.9226 H   0  0  0  0  0  0  0  0  0  0  0  0
   -3.0903   24.1088  -26.9226 H   0  0  0  0  0  0  0  0  0  0  0  0
   -1.7751   27.6883  -26.5663 H   0  0  0  0  0  0  0  0  0  0  0  0
   -2.3151   26.9187  -25.0093 H   0  0  0  0  0  0  0  0  0  0  0  0
    0.5847   27.1363  -25.9506 H   0  0  0  0  0  0  0  0  0  0  0  0
   -0.2271   28.2179  -24.7396 H   0  0  0  0  0  0  0  0  0  0  0  0
    0.1404   26.2363  -21.9546 H   0  0  0  0  0  0  0  0  0  0  0  0
   -0.0392   27.8567  -22.7086 H   0  0  0  0  0  0  0  0  0  0  0  0
   -1.4202   26.7080  -22.7086 H   0  0  0  0  0  0  0  0  0  0  0  0
    1.9202   26.0403  -22.9491 H   0  0  0  0  0  0  0  0  0  0  0  0
    1.8944   25.1393  -24.5029 H   0  0  0  0  0  0  0  0  0  0  0  0
    2.0980   26.9240  -24.5029 H   0  0  0  0  0  0  0  0  0  0  0  0
    0.1194   24.1324  -23.8418 H   0  0  0  0  0  0  0  0  0  0  0  0
   -1.5086   24.9397  -23.8230 H   0  0  0  0  0  0  0  0  0  0  0  0
    0.2769   24.6132  -26.2804 H   0  0  0  0  0  0  0  0  0  0  0  0
   -1.1744   23.5981  -25.8562 H   0  0  0  0  0  0  0  0  0  0  0  0
   -2.8164   23.0950  -31.1386 H   0  0  0  0  0  0  0  0  0  0  0  0
  1  2  1  0
  2  3  1  0
  3  4  1  0
  3  5  1  0
  5  6  1  0
  6  7  1  0
  7  8  1  0
  8  9  2  0
  9 10  1  0
 10 11  2  0
 11 12  1  0
 12 13  2  0
 13 14  1  0
 14 15  2  0
 15 16  1  0
 15 17  1  0
 17 18  1  0
 18 19  1  0
 19 20  2  0
 20 21  1  0
 21 22  2  0
 22 23  1  0
 23 24  1  0
 24 25  1  0
 25 26  1  0
 26 27  1  0
 26 28  1  0
 28 29  1  0
 29 30  1  0
 30 31  1  0
 30 32  1  0
 30 33  1  0
 33 34  1  0
 22 35  1  0
 35 36  2  0
 36 37  1  0
 37  8  1  0
 14  9  1  0
 37 17  2  0
 36 19  1  0
 34 26  1  0
  1 38  1  0
  1 39  1  0
  1 40  1  0
  2 41  1  0
  2 42  1  0
  4 43  1  0
  4 44  1  0
  4 45  1  0
  5 46  1  0
  5 47  1  0
  6 48  1  0
  6 49  1  0
  7 50  1  0
 10 51  1  0
 11 52  1  0
 12 53  1  0
 13 54  1  0
 16 55  1  0
 16 56  1  0
 16 57  1  0
 18 58  1  0
 20 59  1  0
 21 60  1  0
 24 61  1  0
 24 62  1  0
 25 63  1  0
 25 64  1  0
 27 65  1  0
 27 66  1  0
 27 67  1  0
 28 68  1  0
 28 69  1  0
 29 70  1  0
 29 71  1  0
 31 72  1  0
 31 73  1  0
 31 74  1  0
 32 75  1  0
 32 76  1  0
 32 77  1  0
 33 78  1  0
 33 79  1  0
 34 80  1  0
 34 81  1  0
 35 82  1  0
M  CHG  3  15   1  26   1  30   1
M  END
>  <UniqueID>  (14) 
13

>  <SMILES>  (14) 
CCN(C)CCNc1c2ccccc2[n+](C)c2[nH]c3ccc(OCC[N+]4(C)CC[N+](C)(C)CC4)cc3c12

>  <Energy>  (14) 
172.2490337912686

>  <Genealogy>  (14) 
CCN(C)CCNc1c2ccccc2[n+](C)c2[nH]c3ccc(OCC[N+]4(C)CC[N+](C)(C)CC4)cc3c12 (3D coordinates assigned)
CCN(C)CCNc1c2ccccc2[n+](C)c2[nH]c3ccc(OCC[N+]4(C)CC[N+](C)(C)CC4)cc3c12 (nonaromatic ring conformer: 172.2490337912686 kcal/mol)

>  <smiles>  (14) 
CCN(C)CCNc1c2ccccc2[n+](C)c2[nH]c3ccc(OCC[N+]4(C)CC[N+](C)(C)CC4)cc3c12

>  <score_type>  (14) 
oracle

>  <origin>  (14) 
adg

>  <m_score__min__energy>  (14) 
-9.2300000000000004

>  <m_primary>  (14) 
energy

$$$$
14:0
     RDKit          3D

 39 42  0  0  0  0  0  0  0  0999 V2000
   -5.7390   17.1040  -34.5340 C   0  0  0  0  0  0  0  0  0  0  0  0
   -4.9160   18.2090  -34.1720 O   0  0  0  0  0  0  0  0  0  0  0  0
   -5.3850   19.3740  -33.5490 C   0  0  0  0  0  0  0  0  0  0  0  0
   -6.7710   19.6320  -33.3660 C   0  0  0  0  0  0  0  0  0  0  0  0
   -7.2040   20.8130  -32.7350 C   0  0  0  0  0  0  0  0  0  0  0  0
   -6.2350   21.7190  -32.3000 C   0  0  0  0  0  0  0  0  0  0  0  0
   -4.8990   21.4710  -32.4770 C   0  0  0  0  0  0  0  0  0  0  0  0
   -4.4370   20.3120  -33.0950 C   0  0  0  0  0  0  0  0  0  0  0  0
   -4.2010   22.5290  -31.9390 C   0  0  0  0  0  0  0  0  0  0  0  0
   -5.1720   23.3880  -31.4320 C   0  0  0  0  0  0  0  0  0  0  0  0
   -4.8590   24.6410  -30.7140 C   0  0  0  0  0  0  0  0  0  0  0  0
   -5.8050   25.3830  -30.3400 O   0  0  0  0  0  0  0  0  0  0  0  0
   -3.5130   25.0400  -30.4210 N   0  0  0  0  0  0  0  0  0  0  0  0
   -2.6930   24.5350  -29.3560 C   0  0  0  0  0  0  0  0  0  0  0  0
   -3.2770   23.6760  -28.3960 C   0  0  0  0  0  0  0  0  0  0  0  0
   -2.5100   23.1560  -27.3380 C   0  0  0  0  0  0  0  0  0  0  0  0
   -1.1710   23.5270  -27.2640 C   0  0  0  0  0  0  0  0  0  0  0  0
   -0.6090   24.3670  -28.1680 C   0  0  0  0  0  0  0  0  0  0  0  0
   -1.3320   24.9040  -29.2280 C   0  0  0  0  0  0  0  0  0  0  0  0
    0.7200   24.5670  -27.8450 O   0  0  0  0  0  0  0  0  0  0  0  0
    1.0090   23.8020  -26.6670 C   0  0  0  0  0  0  0  0  0  0  0  0
   -0.2260   23.1550  -26.3290 O   0  0  0  0  0  0  0  0  0  0  0  0
   -6.4200   22.9020  -31.6760 N   0  0  0  0  0  0  0  0  0  0  0  0
   -7.7090   23.5240  -31.3670 C   0  0  0  0  0  0  0  0  0  0  0  0
   -6.1082   16.6082  -33.6241 H   0  0  0  0  0  0  0  0  0  0  0  0
   -6.5924   17.4617  -35.1287 H   0  0  0  0  0  0  0  0  0  0  0  0
   -5.1518   16.3888  -35.1287 H   0  0  0  0  0  0  0  0  0  0  0  0
   -7.5124   18.9012  -33.7212 H   0  0  0  0  0  0  0  0  0  0  0  0
   -8.2751   21.0164  -32.5887 H   0  0  0  0  0  0  0  0  0  0  0  0
   -3.3595   20.1334  -33.2254 H   0  0  0  0  0  0  0  0  0  0  0  0
   -3.1098   22.6660  -31.9150 H   0  0  0  0  0  0  0  0  0  0  0  0
   -4.3417   23.4120  -28.4777 H   0  0  0  0  0  0  0  0  0  0  0  0
   -2.9539   22.4785  -26.5937 H   0  0  0  0  0  0  0  0  0  0  0  0
   -0.8613   25.5936  -29.9442 H   0  0  0  0  0  0  0  0  0  0  0  0
    1.7916   23.0569  -26.8728 H   0  0  0  0  0  0  0  0  0  0  0  0
    1.3814   24.4333  -25.8468 H   0  0  0  0  0  0  0  0  0  0  0  0
   -7.8347   23.5846  -30.2759 H   0  0  0  0  0  0  0  0  0  0  0  0
   -7.7400   24.5362  -31.7965 H   0  0  0  0  0  0  0  0  0  0  0  0
   -8.5207   22.9184  -31.7965 H   0  0  0  0  0  0  0  0  0  0  0  0
  1  2  1  0
  2  3  1  0
  3  4  2  0
  4  5  1  0
  5  6  2  0
  6  7  1  0
  7  8  2  0
  7  9  1  0
  9 10  2  0
 10 11  1  0
 11 12  2  0
 11 13  1  0
 13 14  1  0
 14 15  2  0
 15 16  1  0
 16 17  2  0
 17 18  1  0
 18 19  2  0
 18 20  1  0
 20 21  1  0
 21 22  1  0
 10 23  1  0
 23 24  1  0
  8  3  1  0
 19 14  1  0
 23  6  1  0
 22 17  1  0
  1 25  1  0
  1 26  1  0
  1 27  1  0
  4 28  1  0
  5 29  1  0
  8 30  1  0
  9 31  1  0
 15 32  1  0
 16 33  1  0
 19 34  1  0
 21 35  1  0
 21 36  1  0
 24 37  1  0
 24 38  1  0
 24 39  1  0
M  CHG  1  13  -1
M  END
>  <UniqueID>  (15) 
14

>  <SMILES>  (15) 
COc1ccc2c(c1)cc(C(=O)[N-]c1ccc3c(c1)OCO3)n2C

>  <Energy>  (15) 
110.3890057465569

>  <Genealogy>  (15) 
COc1ccc2c(c1)cc(C(=O)[N-]c1ccc3c(c1)OCO3)n2C (protonated)
COc1ccc2c(c1)cc(C(=O)[N-]c1ccc3c(c1)OCO3)n2C (3D coordinates assigned)
COc1ccc2c(c1)cc(C(=O)[N-]c1ccc3c(c1)OCO3)n2C (nonaromatic ring conformer: 110.3890057465569 kcal/mol)

>  <smiles>  (15) 
COc1ccc2c(c1)cc(C(=O)Nc1ccc3c(c1)OCO3)n2C

>  <score_type>  (15) 
oracle

>  <origin>  (15) 
adg

>  <m_score__min__energy>  (15) 
-9.0299999999999994

>  <m_primary>  (15) 
energy

$$$$
15:0
     RDKit          3D

 51 53  0  0  0  0  0  0  0  0999 V2000
   -3.5540   18.1720  -34.1470 C   0  0  0  0  0  0  0  0  0  0  0  0
   -4.4660   17.5930  -35.0630 O   0  0  0  0  0  0  0  0  0  0  0  0
   -5.8010   17.9280  -34.7190 C   0  0  0  0  0  0  0  0  0  0  0  0
   -5.9860   17.8150  -33.2050 C   0  0  0  0  0  0  0  0  0  0  0  0
   -7.5770   18.5590  -32.7080 S   0  0  0  0  0  0  0  0  0  0  0  0
   -6.8530   20.1200  -32.2020 C   0  0  0  0  0  0  0  0  0  0  0  0
   -5.4980   20.3970  -32.5020 C   0  0  0  0  0  0  0  0  0  0  0  0
   -4.8970   21.5900  -32.0580 C   0  0  0  0  0  0  0  0  0  0  0  0
   -5.6810   22.4870  -31.3260 C   0  0  0  0  0  0  0  0  0  0  0  0
   -5.3950   23.7110  -30.7420 C   0  0  0  0  0  0  0  0  0  0  0  0
   -4.1000   24.4260  -30.7210 C   0  0  0  0  0  0  0  0  0  0  0  0
   -4.0610   25.6760  -30.8770 O   0  0  0  0  0  0  0  0  0  0  0  0
   -2.8830   23.6990  -30.5150 N   0  0  0  0  0  0  0  0  0  0  0  0
   -2.7590   22.5730  -29.6350 C   0  0  0  0  0  0  0  0  0  0  0  0
   -2.1030   21.4120  -30.0950 C   0  0  0  0  0  0  0  0  0  0  0  0
   -1.5900   21.3390  -31.5080 C   0  0  0  0  0  0  0  0  0  0  0  0
   -1.9740   20.3000  -29.2480 C   0  0  0  0  0  0  0  0  0  0  0  0
   -2.4600   20.3440  -27.9340 C   0  0  0  0  0  0  0  0  0  0  0  0
   -2.3490   19.1410  -27.0370 C   0  0  0  0  0  0  0  0  0  0  0  0
   -3.1000   21.5030  -27.4740 C   0  0  0  0  0  0  0  0  0  0  0  0
   -3.2300   22.6310  -28.3010 C   0  0  0  0  0  0  0  0  0  0  0  0
   -3.8750   23.8720  -27.7390 C   0  0  0  0  0  0  0  0  0  0  0  0
   -6.6020   24.1000  -30.1400 C   0  0  0  0  0  0  0  0  0  0  0  0
   -6.8560   25.3520  -29.3630 C   0  0  0  0  0  0  0  0  0  0  0  0
   -7.5350   23.1880  -30.3430 O   0  0  0  0  0  0  0  0  0  0  0  0
   -7.0000   22.2190  -31.0450 C   0  0  0  0  0  0  0  0  0  0  0  0
   -7.6200   21.0440  -31.4640 C   0  0  0  0  0  0  0  0  0  0  0  0
   -3.8841   17.9624  -33.1189 H   0  0  0  0  0  0  0  0  0  0  0  0
   -2.5534   17.7434  -34.3054 H   0  0  0  0  0  0  0  0  0  0  0  0
   -3.5162   19.2599  -34.3054 H   0  0  0  0  0  0  0  0  0  0  0  0
   -6.0130   18.9593  -35.0375 H   0  0  0  0  0  0  0  0  0  0  0  0
   -6.4920   17.2366  -35.2235 H   0  0  0  0  0  0  0  0  0  0  0  0
   -5.9748   16.7538  -32.9156 H   0  0  0  0  0  0  0  0  0  0  0  0
   -5.1667   18.3496  -32.7021 H   0  0  0  0  0  0  0  0  0  0  0  0
   -4.9098   19.6744  -33.0867 H   0  0  0  0  0  0  0  0  0  0  0  0
   -3.8424   21.8099  -32.2802 H   0  0  0  0  0  0  0  0  0  0  0  0
   -0.5010   21.1840  -31.4952 H   0  0  0  0  0  0  0  0  0  0  0  0
   -2.0735   20.5006  -32.0308 H   0  0  0  0  0  0  0  0  0  0  0  0
   -1.8205   22.2790  -32.0308 H   0  0  0  0  0  0  0  0  0  0  0  0
   -1.4872   19.3859  -29.6188 H   0  0  0  0  0  0  0  0  0  0  0  0
   -2.3788   19.4635  -25.9858 H   0  0  0  0  0  0  0  0  0  0  0  0
   -3.1879   18.4575  -27.2348 H   0  0  0  0  0  0  0  0  0  0  0  0
   -1.3992   18.6226  -27.2348 H   0  0  0  0  0  0  0  0  0  0  0  0
   -3.5058   21.5296  -26.4519 H   0  0  0  0  0  0  0  0  0  0  0  0
   -3.8536   23.8308  -26.6400 H   0  0  0  0  0  0  0  0  0  0  0  0
   -3.3241   24.7596  -28.0834 H   0  0  0  0  0  0  0  0  0  0  0  0
   -4.9180   23.9312  -28.0834 H   0  0  0  0  0  0  0  0  0  0  0  0
   -6.8111   25.1309  -28.2864 H   0  0  0  0  0  0  0  0  0  0  0  0
   -6.0916   26.1017  -29.6155 H   0  0  0  0  0  0  0  0  0  0  0  0
   -7.8521   25.7445  -29.6155 H   0  0  0  0  0  0  0  0  0  0  0  0
   -8.6751   20.8436  -31.2263 H   0  0  0  0  0  0  0  0  0  0  0  0
  1  2  1  0
  2  3  1  0
  3  4  1  0
  4  5  1  0
  5  6  1  0
  6  7  2  0
  7  8  1  0
  8  9  2  0
  9 10  1  0
 10 11  1  0
 11 12  2  0
 11 13  1  0
 13 14  1  0
 14 15  2  0
 15 16  1  0
 15 17  1  0
 17 18  2  0
 18 19  1  0
 18 20  1  0
 20 21  2  0
 21 22  1  0
 10 23  2  0
 23 24  1  0
 23 25  1  0
 25 26  1  0
 26 27  2  0
 27  6  1  0
 26  9  1  0
 21 14  1  0
  1 28  1  0
  1 29  1  0
  1 30  1  0
  3 31  1  0
  3 32  1  0
  4 33  1  0
  4 34  1  0
  7 35  1  0
  8 36  1  0
 16 37  1  0
 16 38  1  0
 16 39  1  0
 17 40  1  0
 19 41  1  0
 19 42  1  0
 19 43  1  0
 20 44  1  0
 22 45  1  0
 22 46  1  0
 22 47  1  0
 24 48  1  0
 24 49  1  0
 24 50  1  0
 27 51  1  0
M  CHG  1  13  -1
M  END
>  <UniqueID>  (16) 
15

>  <SMILES>  (16) 
COCCSc1ccc2c(C(=O)[N-]c3c(C)cc(C)cc3C)c(C)oc2c1

>  <Energy>  (16) 
89.3676970710852

>  <Genealogy>  (16) 
COCCSc1ccc2c(C(=O)[N-]c3c(C)cc(C)cc3C)c(C)oc2c1 (protonated)
COCCSc1ccc2c(C(=O)[N-]c3c(C)cc(C)cc3C)c(C)oc2c1 (3D coordinates assigned)
COCCSc1ccc2c(C(=O)[N-]c3c(C)cc(C)cc3C)c(C)oc2c1 (optimized conformer: 89.3676970710852 kcal/mol)

>  <smiles>  (16) 
COCCSc1ccc2c(C(=O)Nc3c(C)cc(C)cc3C)c(C)oc2c1

>  <score_type>  (16) 
oracle

>  <origin>  (16) 
adg

>  <m_score__min__energy>  (16) 
-9.6600000000000001

>  <m_primary>  (16) 
energy

$$$$
16:0
     RDKit          3D

 78 81  0  0  0  0  0  0  0  0999 V2000
   -0.5180   18.4980  -32.2530 C   0  0  0  0  0  0  0  0  0  0  0  0
   -0.3350   18.8400  -33.7380 C   0  0  0  0  0  0  0  0  0  0  0  0
    0.0810   20.2420  -34.0040 N   0  0  0  0  0  0  0  0  0  0  0  0
   -0.0990   20.6680  -35.4120 C   0  0  0  0  0  0  0  0  0  0  0  0
    0.6230   21.9880  -35.6940 C   0  0  0  0  0  0  0  0  0  0  0  0
   -0.5170   21.1950  -33.0380 C   0  0  0  0  0  0  0  0  0  0  0  0
   -1.9650   21.5410  -33.4340 C   0  0  0  0  0  0  0  0  0  0  0  0
   -2.9050   21.6830  -32.3090 N   0  0  0  0  0  0  0  0  0  0  0  0
   -4.3070   21.3640  -32.3520 C   0  0  0  0  0  0  0  0  0  0  0  0
   -4.7170   20.1540  -32.9360 C   0  0  0  0  0  0  0  0  0  0  0  0
   -3.7600   19.1980  -33.3450 C   0  0  0  0  0  0  0  0  0  0  0  0
   -4.1480   18.0370  -34.0040 C   0  0  0  0  0  0  0  0  0  0  0  0
   -5.4900   17.8120  -34.2750 C   0  0  0  0  0  0  0  0  0  0  0  0
   -6.4560   18.7220  -33.8500 C   0  0  0  0  0  0  0  0  0  0  0  0
   -6.0990   19.8930  -33.1230 C   0  0  0  0  0  0  0  0  0  0  0  0
   -7.0480   20.7670  -32.6170 N   0  0  0  0  0  0  0  0  0  0  0  0
   -8.4880   20.3990  -32.6670 C   0  0  0  0  0  0  0  0  0  0  0  0
   -8.8040   19.3000  -31.6530 C   0  0  0  0  0  0  0  0  0  0  0  0
   -6.6540   21.9570  -32.0170 C   0  0  0  0  0  0  0  0  0  0  0  0
   -7.6060   22.9160  -31.5810 C   0  0  0  0  0  0  0  0  0  0  0  0
   -7.2230   24.0460  -30.8750 C   0  0  0  0  0  0  0  0  0  0  0  0
   -5.8880   24.2810  -30.6050 C   0  0  0  0  0  0  0  0  0  0  0  0
   -4.8950   23.4240  -31.0930 C   0  0  0  0  0  0  0  0  0  0  0  0
   -3.5400   23.7170  -30.8580 O   0  0  0  0  0  0  0  0  0  0  0  0
   -2.8930   23.7130  -29.5820 C   0  0  0  0  0  0  0  0  0  0  0  0
   -2.7250   22.3110  -28.9330 C   0  0  0  0  0  0  0  0  0  0  0  0
   -1.3600   21.6730  -28.9400 N   0  0  0  0  0  0  0  0  0  0  0  0
   -0.5350   22.3170  -29.9990 C   0  0  0  0  0  0  0  0  0  0  0  0
   -1.3850   20.1850  -29.1840 C   0  0  0  0  0  0  0  0  0  0  0  0
   -1.3060   19.3060  -27.9150 C   0  0  0  0  0  0  0  0  0  0  0  0
   -1.9820   19.9640  -26.7210 C   0  0  0  0  0  0  0  0  0  0  0  0
   -1.3460   21.3250  -26.4090 C   0  0  0  0  0  0  0  0  0  0  0  0
   -0.6820   21.9830  -27.6410 C   0  0  0  0  0  0  0  0  0  0  0  0
   -5.2690   22.2550  -31.8270 C   0  0  0  0  0  0  0  0  0  0  0  0
   -0.0883   19.3010  -31.6361 H   0  0  0  0  0  0  0  0  0  0  0  0
   -1.5903   18.3977  -32.0293 H   0  0  0  0  0  0  0  0  0  0  0  0
   -0.0065   17.5502  -32.0293 H   0  0  0  0  0  0  0  0  0  0  0  0
    0.4328   18.1700  -34.1522 H   0  0  0  0  0  0  0  0  0  0  0  0
   -1.3200   18.7124  -34.2107 H   0  0  0  0  0  0  0  0  0  0  0  0
    0.3060   19.8899  -36.0757 H   0  0  0  0  0  0  0  0  0  0  0  0
   -1.1737   20.8161  -35.5937 H   0  0  0  0  0  0  0  0  0  0  0  0
    0.8876   22.4718  -34.7422 H   0  0  0  0  0  0  0  0  0  0  0  0
    1.5381   21.7894  -36.2712 H   0  0  0  0  0  0  0  0  0  0  0  0
   -0.0379   22.6514  -36.2712 H   0  0  0  0  0  0  0  0  0  0  0  0
   -0.5161   20.7408  -32.0361 H   0  0  0  0  0  0  0  0  0  0  0  0
    0.0791   22.1195  -33.0406 H   0  0  0  0  0  0  0  0  0  0  0  0
   -1.9489   22.4921  -33.9864 H   0  0  0  0  0  0  0  0  0  0  0  0
   -2.3295   20.6925  -34.0316 H   0  0  0  0  0  0  0  0  0  0  0  0
   -2.5100   22.0030  -31.3950 H   0  0  0  0  0  0  0  0  0  0  0  0
   -2.6940   19.3748  -33.1392 H   0  0  0  0  0  0  0  0  0  0  0  0
   -3.3926   17.2983  -34.3099 H   0  0  0  0  0  0  0  0  0  0  0  0
   -5.7930   16.9107  -34.8281 H   0  0  0  0  0  0  0  0  0  0  0  0
   -7.5146   18.5320  -34.0806 H   0  0  0  0  0  0  0  0  0  0  0  0
   -9.0951   21.2870  -32.4370 H   0  0  0  0  0  0  0  0  0  0  0  0
   -8.7212   20.0256  -33.6751 H   0  0  0  0  0  0  0  0  0  0  0  0
   -8.6897   19.6976  -30.6338 H   0  0  0  0  0  0  0  0  0  0  0  0
   -9.8381   18.9539  -31.7977 H   0  0  0  0  0  0  0  0  0  0  0  0
   -8.1117   18.4575  -31.7977 H   0  0  0  0  0  0  0  0  0  0  0  0
   -8.6707   22.7589  -31.8084 H   0  0  0  0  0  0  0  0  0  0  0  0
   -7.9853   24.7591  -30.5280 H   0  0  0  0  0  0  0  0  0  0  0  0
   -5.6022   25.1531  -29.9986 H   0  0  0  0  0  0  0  0  0  0  0  0
   -1.8926   24.1534  -29.7057 H   0  0  0  0  0  0  0  0  0  0  0  0
   -3.5439   24.2875  -28.9065 H   0  0  0  0  0  0  0  0  0  0  0  0
   -3.0358   22.4008  -27.8816 H   0  0  0  0  0  0  0  0  0  0  0  0
   -3.3347   21.6479  -29.5643 H   0  0  0  0  0  0  0  0  0  0  0  0
    0.2496   22.9295  -29.5308 H   0  0  0  0  0  0  0  0  0  0  0  0
   -0.0699   21.5407  -30.6243 H   0  0  0  0  0  0  0  0  0  0  0  0
   -1.1752   22.9566  -30.6243 H   0  0  0  0  0  0  0  0  0  0  0  0
   -2.3213   19.9422  -29.7078 H   0  0  0  0  0  0  0  0  0  0  0  0
   -0.4813   19.9574  -29.7683 H   0  0  0  0  0  0  0  0  0  0  0  0
   -1.8009   18.3448  -28.1178 H   0  0  0  0  0  0  0  0  0  0  0  0
   -0.2439   19.1630  -27.6671 H   0  0  0  0  0  0  0  0  0  0  0  0
   -3.0488   20.1089  -26.9466 H   0  0  0  0  0  0  0  0  0  0  0  0
   -1.8582   19.3107  -25.8447 H   0  0  0  0  0  0  0  0  0  0  0  0
   -2.1294   21.9990  -26.0322 H   0  0  0  0  0  0  0  0  0  0  0  0
   -0.5554   21.1536  -25.6636 H   0  0  0  0  0  0  0  0  0  0  0  0
   -0.6923   23.0736  -27.4977 H   0  0  0  0  0  0  0  0  0  0  0  0
    0.3364   21.5729  -27.7091 H   0  0  0  0  0  0  0  0  0  0  0  0
  1  2  1  0
  2  3  1  0
  3  4  1  0
  4  5  1  0
  3  6  1  0
  6  7  1  0
  7  8  1  0
  8  9  1  0
  9 10  2  0
 10 11  1  0
 11 12  2  0
 12 13  1  0
 13 14  2  0
 14 15  1  0
 15 16  2  0
 16 17  1  0
 17 18  1  0
 16 19  1  0
 19 20  2  0
 20 21  1  0
 21 22  2  0
 22 23  1  0
 23 24  1  0
 24 25  1  0
 25 26  1  0
 26 27  1  0
 27 28  1  0
 27 29  1  0
 29 30  1  0
 30 31  1  0
 31 32  1  0
 32 33  1  0
 23 34  2  0
 34  9  1  0
 15 10  1  0
 34 19  1  0
 33 27  1  0
  1 35  1  0
  1 36  1  0
  1 37  1  0
  2 38  1  0
  2 39  1  0
  4 40  1  0
  4 41  1  0
  5 42  1  0
  5 43  1  0
  5 44  1  0
  6 45  1  0
  6 46  1  0
  7 47  1  0
  7 48  1  0
  8 49  1  0
 11 50  1  0
 12 51  1  0
 13 52  1  0
 14 53  1  0
 17 54  1  0
 17 55  1  0
 18 56  1  0
 18 57  1  0
 18 58  1  0
 20 59  1  0
 21 60  1  0
 22 61  1  0
 25 62  1  0
 25 63  1  0
 26 64  1  0
 26 65  1  0
 28 66  1  0
 28 67  1  0
 28 68  1  0
 29 69  1  0
 29 70  1  0
 30 71  1  0
 30 72  1  0
 31 73  1  0
 31 74  1  0
 32 75  1  0
 32 76  1  0
 33 77  1  0
 33 78  1  0
M  CHG  2  16   1  27   1
M  END
>  <UniqueID>  (17) 
16

>  <SMILES>  (17) 
CCN(CC)CCNc1c2ccccc2[n+](CC)c2cccc(OCC[N+]3(C)CCCCC3)c12

>  <Energy>  (17) 
131.87693781831794

>  <Genealogy>  (17) 
CCN(CC)CCNc1c2ccccc2[n+](CC)c2cccc(OCC[N+]3(C)CCCCC3)c12 (3D coordinates assigned)
CCN(CC)CCNc1c2ccccc2[n+](CC)c2cccc(OCC[N+]3(C)CCCCC3)c12 (nonaromatic ring conformer: 131.87693781831794 kcal/mol)

>  <smiles>  (17) 
CCN(CC)CCNc1c2ccccc2[n+](CC)c2cccc(OCC[N+]3(C)CCCCC3)c12

>  <score_type>  (17) 
oracle

>  <origin>  (17) 
adg

>  <m_score__min__energy>  (17) 
-8.2100000000000009

>  <m_primary>  (17) 
energy

$$$$
17:0
     RDKit          3D

 71 73  0  0  0  0  0  0  0  0999 V2000
   -4.0930   23.6850  -28.5990 C   0  0  0  0  0  0  0  0  0  0  0  0
   -3.5260   24.1870  -29.9340 C   0  0  0  0  0  0  0  0  0  0  0  0
   -4.5560   24.6880  -30.8820 N   0  0  0  0  0  0  0  0  0  0  0  0
   -5.5230   25.6340  -30.2760 C   0  0  0  0  0  0  0  0  0  0  0  0
   -6.8510   24.9590  -29.9390 C   0  0  0  0  0  0  0  0  0  0  0  0
   -5.2400   23.5830  -31.5910 C   0  0  0  0  0  0  0  0  0  0  0  0
   -4.2760   22.4280  -31.8990 C   0  0  0  0  0  0  0  0  0  0  0  0
   -4.6650   21.6960  -33.1090 N   0  0  0  0  0  0  0  0  0  0  0  0
   -5.1070   20.3280  -33.0550 C   0  0  0  0  0  0  0  0  0  0  0  0
   -6.4310   20.0480  -32.6850 C   0  0  0  0  0  0  0  0  0  0  0  0
   -7.2240   21.0230  -32.0440 C   0  0  0  0  0  0  0  0  0  0  0  0
   -8.5250   20.7280  -31.6400 C   0  0  0  0  0  0  0  0  0  0  0  0
   -9.0480   19.4570  -31.8550 C   0  0  0  0  0  0  0  0  0  0  0  0
   -8.2820   18.4810  -32.4910 C   0  0  0  0  0  0  0  0  0  0  0  0
   -6.9660   18.7620  -32.9400 C   0  0  0  0  0  0  0  0  0  0  0  0
   -6.2090   17.8250  -33.6140 N   0  0  0  0  0  0  0  0  0  0  0  0
   -6.8620   16.6270  -34.1910 C   0  0  0  0  0  0  0  0  0  0  0  0
   -4.8450   18.0100  -33.7530 C   0  0  0  0  0  0  0  0  0  0  0  0
   -4.0080   16.9610  -34.1950 C   0  0  0  0  0  0  0  0  0  0  0  0
   -2.6410   17.1390  -34.3430 C   0  0  0  0  0  0  0  0  0  0  0  0
   -2.0330   18.3500  -34.0060 C   0  0  0  0  0  0  0  0  0  0  0  0
   -0.5880   18.4480  -34.0490 N   0  0  0  0  0  0  0  0  0  0  0  0
   -0.0370   17.8440  -35.2790 C   0  0  0  0  0  0  0  0  0  0  0  0
    1.0150   18.7480  -35.9510 C   0  0  0  0  0  0  0  0  0  0  0  0
    0.4210   20.1050  -36.3660 C   0  0  0  0  0  0  0  0  0  0  0  0
    0.4120   21.0600  -35.2340 N   0  0  0  0  0  0  0  0  0  0  0  0
    0.3020   22.4490  -35.7160 C   0  0  0  0  0  0  0  0  0  0  0  0
    1.6350   20.9110  -34.4290 C   0  0  0  0  0  0  0  0  0  0  0  0
   -2.8340   19.4230  -33.5430 C   0  0  0  0  0  0  0  0  0  0  0  0
   -2.1880   20.6080  -33.0610 N   0  0  0  0  0  0  0  0  0  0  0  0
   -1.5040   20.5620  -32.0190 O   0  0  0  0  0  0  0  0  0  0  0  0
   -2.2180   21.7680  -33.8000 O   0  0  0  0  0  0  0  0  0  0  0  0
   -4.2520   19.2680  -33.4430 C   0  0  0  0  0  0  0  0  0  0  0  0
   -3.5531   24.1630  -27.7684 H   0  0  0  0  0  0  0  0  0  0  0  0
   -5.1615   23.9385  -28.5359 H   0  0  0  0  0  0  0  0  0  0  0  0
   -3.9708   22.5936  -28.5359 H   0  0  0  0  0  0  0  0  0  0  0  0
   -2.8224   25.0061  -29.7241 H   0  0  0  0  0  0  0  0  0  0  0  0
   -3.0432   23.3249  -30.4173 H   0  0  0  0  0  0  0  0  0  0  0  0
   -5.0881   26.0428  -29.3520 H   0  0  0  0  0  0  0  0  0  0  0  0
   -5.7232   26.4300  -31.0083 H   0  0  0  0  0  0  0  0  0  0  0  0
   -6.9658   24.9006  -28.8466 H   0  0  0  0  0  0  0  0  0  0  0  0
   -7.6788   25.5458  -30.3639 H   0  0  0  0  0  0  0  0  0  0  0  0
   -6.8648   23.9445  -30.3639 H   0  0  0  0  0  0  0  0  0  0  0  0
   -6.0586   23.2064  -30.9601 H   0  0  0  0  0  0  0  0  0  0  0  0
   -5.6267   23.9725  -32.5443 H   0  0  0  0  0  0  0  0  0  0  0  0
   -3.2650   22.8375  -32.0412 H   0  0  0  0  0  0  0  0  0  0  0  0
   -4.3053   21.7259  -31.0527 H   0  0  0  0  0  0  0  0  0  0  0  0
   -4.3610   22.0830  -34.0290 H   0  0  0  0  0  0  0  0  0  0  0  0
   -6.8114   22.0262  -31.8612 H   0  0  0  0  0  0  0  0  0  0  0  0
   -9.1378   21.4998  -31.1514 H   0  0  0  0  0  0  0  0  0  0  0  0
  -10.0695   19.2212  -31.5220 H   0  0  0  0  0  0  0  0  0  0  0  0
   -8.7046   17.4775  -32.6471 H   0  0  0  0  0  0  0  0  0  0  0  0
   -7.2170   15.9758  -33.3786 H   0  0  0  0  0  0  0  0  0  0  0  0
   -7.7156   16.9377  -34.8114 H   0  0  0  0  0  0  0  0  0  0  0  0
   -6.1384   16.0780  -34.8114 H   0  0  0  0  0  0  0  0  0  0  0  0
   -4.4508   15.9811  -34.4269 H   0  0  0  0  0  0  0  0  0  0  0  0
   -2.0262   16.3138  -34.7317 H   0  0  0  0  0  0  0  0  0  0  0  0
   -0.1750   17.9680  -33.2180 H   0  0  0  0  0  0  0  0  0  0  0  0
   -0.2870   19.4490  -33.9730 H   0  0  0  0  0  0  0  0  0  0  0  0
    0.4336   16.8836  -35.0219 H   0  0  0  0  0  0  0  0  0  0  0  0
   -0.8664   17.7063  -35.9883 H   0  0  0  0  0  0  0  0  0  0  0  0
    1.8393   18.9216  -35.2436 H   0  0  0  0  0  0  0  0  0  0  0  0
    1.3730   18.2397  -36.8584 H   0  0  0  0  0  0  0  0  0  0  0  0
    1.0250   20.5250  -37.1838 H   0  0  0  0  0  0  0  0  0  0  0  0
   -0.6174   19.9435  -36.6909 H   0  0  0  0  0  0  0  0  0  0  0  0
    0.2479   23.1324  -34.8558 H   0  0  0  0  0  0  0  0  0  0  0  0
    1.1834   22.6964  -36.3259 H   0  0  0  0  0  0  0  0  0  0  0  0
   -0.6073   22.5545  -36.3259 H   0  0  0  0  0  0  0  0  0  0  0  0
    1.3766   20.9425  -33.3602 H   0  0  0  0  0  0  0  0  0  0  0  0
    2.1126   19.9480  -34.6625 H   0  0  0  0  0  0  0  0  0  0  0  0
    2.3299   21.7311  -34.6625 H   0  0  0  0  0  0  0  0  0  0  0  0
  1  2  1  0
  2  3  1  0
  3  4  1  0
  4  5  1  0
  3  6  1  0
  6  7  1  0
  7  8  1  0
  8  9  1  0
  9 10  2  0
 10 11  1  0
 11 12  2  0
 12 13  1  0
 13 14  2  0
 14 15  1  0
 15 16  2  0
 16 17  1  0
 16 18  1  0
 18 19  2  0
 19 20  1  0
 20 21  2  0
 21 22  1  0
 22 23  1  0
 23 24  1  0
 24 25  1  0
 25 26  1  0
 26 27  1  0
 26 28  1  0
 21 29  1  0
 29 30  1  0
 30 31  2  0
 30 32  1  0
 29 33  2  0
 33  9  1  0
 15 10  1  0
 33 18  1  0
  1 34  1  0
  1 35  1  0
  1 36  1  0
  2 37  1  0
  2 38  1  0
  4 39  1  0
  4 40  1  0
  5 41  1  0
  5 42  1  0
  5 43  1  0
  6 44  1  0
  6 45  1  0
  7 46  1  0
  7 47  1  0
  8 48  1  0
 11 49  1  0
 12 50  1  0
 13 51  1  0
 14 52  1  0
 17 53  1  0
 17 54  1  0
 17 55  1  0
 19 56  1  0
 20 57  1  0
 22 58  1  0
 22 59  1  0
 23 60  1  0
 23 61  1  0
 24 62  1  0
 24 63  1  0
 25 64  1  0
 25 65  1  0
 27 66  1  0
 27 67  1  0
 27 68  1  0
 28 69  1  0
 28 70  1  0
 28 71  1  0
M  CHG  4  16   1  22   1  30   1  32  -1
M  END
>  <UniqueID>  (18) 
17

>  <SMILES>  (18) 
CCN(CC)CCNc1c2ccccc2[n+](C)c2ccc([NH2+]CCCN(C)C)c([N+](=O)[O-])c12

>  <Energy>  (18) 
107.83616049448311

>  <Genealogy>  (18) 
CCN(CC)CCNc1c2ccccc2[n+](C)c2ccc([NH2+]CCCN(C)C)c([N+](=O)[O-])c12 (protonated)
CCN(CC)CCNc1c2ccccc2[n+](C)c2ccc([NH2+]CCCN(C)C)c([N+](=O)[O-])c12 (3D coordinates assigned)
CCN(CC)CCNc1c2ccccc2[n+](C)c2ccc([NH2+]CCCN(C)C)c([N+](=O)[O-])c12 (optimized conformer: 107.83616049448311 kcal/mol)

>  <smiles>  (18) 
CCN(CC)CCNc1c2ccccc2[n+](C)c2ccc(NCCCN(C)C)c([N+](=O)[O-])c12

>  <score_type>  (18) 
oracle

>  <origin>  (18) 
adg

>  <m_score__min__energy>  (18) 
-8.7899999999999991

>  <m_primary>  (18) 
energy

$$$$
18:0
     RDKit          3D

 18 17  0  0  0  0  0  0  0  0999 V2000
   -3.6910   25.6710  -31.5970 H   0  0  0  0  0  0  0  0  0  0  0  0
   -3.8940   25.1970  -30.7030 N   0  0  0  0  0  0  0  0  0  0  0  0
   -4.7970   24.2870  -30.6150 C   0  0  0  0  0  0  0  0  0  0  0  0
   -6.5170   24.7780  -30.4350 S   0  0  0  0  0  0  0  0  0  0  0  0
   -7.1830   23.0730  -30.3920 C   0  0  0  0  0  0  0  0  0  0  0  0
   -6.3437   22.3650  -30.3259 H   0  0  0  0  0  0  0  0  0  0  0  0
   -7.8441   22.9875  -29.5170 H   0  0  0  0  0  0  0  0  0  0  0  0
   -8.0070   22.7490  -31.6430 C   0  0  0  0  0  0  0  0  0  0  0  0
   -8.6984   23.5823  -31.8370 H   0  0  0  0  0  0  0  0  0  0  0  0
   -7.3073   22.6052  -32.4795 H   0  0  0  0  0  0  0  0  0  0  0  0
   -8.8180   21.4640  -31.4850 C   0  0  0  0  0  0  0  0  0  0  0  0
   -8.9554   21.2463  -30.4155 H   0  0  0  0  0  0  0  0  0  0  0  0
   -9.8008   21.5896  -31.9628 H   0  0  0  0  0  0  0  0  0  0  0  0
   -8.2817   20.6309  -31.9628 H   0  0  0  0  0  0  0  0  0  0  0  0
   -4.4210   22.8320  -30.5860 C   0  0  0  0  0  0  0  0  0  0  0  0
   -3.4354   22.7212  -30.1102 H   0  0  0  0  0  0  0  0  0  0  0  0
   -5.1796   22.2774  -30.0142 H   0  0  0  0  0  0  0  0  0  0  0  0
   -4.3510   22.1790  -32.2430 Cl  0  0  0  0  0  0  0  0  0  0  0  0
  1  2  1  0
  2  3  2  0
  3  4  1  0
  4  5  1  0
  5  6  1  0
  5  7  1  0
  5  8  1  0
  8  9  1  0
  8 10  1  0
  8 11  1  0
 11 12  1  0
 11 13  1  0
 11 14  1  0
  3 15  1  0
 15 16  1  0
 15 17  1  0
 15 18  1  0
M  END
>  <UniqueID>  (19) 
18

>  <SMILES>  (19) 
[H]/N=C(\CCl)SCCC

>  <Energy>  (19) 
3.263784796748579

>  <Genealogy>  (19) 
[H]/N=C(\CCl)SCCC (cis-trans isomerization)
[H]/N=C(\CCl)SCCC (3D coordinates assigned)
[H]/N=C(\CCl)SCCC (optimized conformer: 3.263784796748579 kcal/mol)

>  <smiles>  (19) 
CCCSC(=N)CCl

>  <score_type>  (19) 
oracle

>  <origin>  (19) 
adg

>  <m_score__min__energy>  (19) 
-4.4900000000000002

>  <m_primary>  (19) 
energy

$$$$
19:0
     RDKit          3D

 36 37  0  0  0  0  0  0  0  0999 V2000
   -6.1410   25.3590  -29.7520 C   0  0  0  0  0  0  0  0  0  0  0  0
   -5.2500   24.3270  -30.3670 C   0  0  0  0  0  0  0  0  0  0  0  0
   -4.1890   23.7830  -29.6360 C   0  0  0  0  0  0  0  0  0  0  0  0
   -3.3410   22.8360  -30.2320 C   0  0  0  0  0  0  0  0  0  0  0  0
   -2.2270   22.2390  -29.4140 C   0  0  0  0  0  0  0  0  0  0  0  0
   -3.5720   22.4510  -31.5750 C   0  0  0  0  0  0  0  0  0  0  0  0
   -2.6700   21.4990  -32.3300 C   0  0  0  0  0  0  0  0  0  0  0  0
   -3.4660   20.4960  -33.0590 N   0  0  0  0  0  0  0  0  0  0  0  0
   -4.3600   19.7250  -32.1790 C   0  0  0  0  0  0  0  0  0  0  0  0
   -5.8090   20.0370  -32.4480 C   0  0  0  0  0  0  0  0  0  0  0  0
   -6.6600   20.7400  -31.6090 C   0  0  0  0  0  0  0  0  0  0  0  0
   -7.8830   20.7060  -32.2480 C   0  0  0  0  0  0  0  0  0  0  0  0
   -9.4930   21.5180  -31.6300 Br  0  0  0  0  0  0  0  0  0  0  0  0
   -7.7740   19.9900  -33.3810 N   0  0  0  0  0  0  0  0  0  0  0  0
   -6.5230   19.5760  -33.4990 N   0  0  0  0  0  0  0  0  0  0  0  0
   -6.0560   18.6800  -34.5540 C   0  0  0  0  0  0  0  0  0  0  0  0
   -4.6640   23.0140  -32.2560 C   0  0  0  0  0  0  0  0  0  0  0  0
   -5.4600   23.9300  -31.6490 N   0  0  0  0  0  0  0  0  0  0  0  0
   -6.0807   25.2892  -28.6559 H   0  0  0  0  0  0  0  0  0  0  0  0
   -5.8189   26.3603  -30.0739 H   0  0  0  0  0  0  0  0  0  0  0  0
   -7.1786   25.1864  -30.0739 H   0  0  0  0  0  0  0  0  0  0  0  0
   -4.0191   24.0967  -28.5955 H   0  0  0  0  0  0  0  0  0  0  0  0
   -2.4524   22.3598  -28.3441 H   0  0  0  0  0  0  0  0  0  0  0  0
   -2.1316   21.1689  -29.6501 H   0  0  0  0  0  0  0  0  0  0  0  0
   -1.2831   22.7521  -29.6501 H   0  0  0  0  0  0  0  0  0  0  0  0
   -2.0628   22.0697  -33.0481 H   0  0  0  0  0  0  0  0  0  0  0  0
   -2.0209   20.9800  -31.6094 H   0  0  0  0  0  0  0  0  0  0  0  0
   -4.0730   21.0150  -33.7360 H   0  0  0  0  0  0  0  0  0  0  0  0
   -4.1887   18.6517  -32.3484 H   0  0  0  0  0  0  0  0  0  0  0  0
   -4.1371   19.9993  -31.1373 H   0  0  0  0  0  0  0  0  0  0  0  0
   -6.4153   21.2179  -30.6489 H   0  0  0  0  0  0  0  0  0  0  0  0
   -8.5470   19.7720  -34.0490 H   0  0  0  0  0  0  0  0  0  0  0  0
   -5.5926   17.7909  -34.1015 H   0  0  0  0  0  0  0  0  0  0  0  0
   -6.9083   18.3721  -35.1775 H   0  0  0  0  0  0  0  0  0  0  0  0
   -5.3154   19.2023  -35.1775 H   0  0  0  0  0  0  0  0  0  0  0  0
   -4.8759   22.7093  -33.2915 H   0  0  0  0  0  0  0  0  0  0  0  0
  1  2  1  0
  2  3  2  0
  3  4  1  0
  4  5  1  0
  4  6  2  0
  6  7  1  0
  7  8  1  0
  8  9  1  0
  9 10  1  0
 10 11  2  0
 11 12  1  0
 12 13  1  0
 12 14  2  0
 14 15  1  0
 15 16  1  0
  6 17  1  0
 17 18  2  0
 18  2  1  0
 15 10  1  0
  1 19  1  0
  1 20  1  0
  1 21  1  0
  3 22  1  0
  5 23  1  0
  5 24  1  0
  5 25  1  0
  7 26  1  0
  7 27  1  0
  8 28  1  0
  9 29  1  0
  9 30  1  0
 11 31  1  0
 14 32  1  0
 16 33  1  0
 16 34  1  0
 16 35  1  0
 17 36  1  0
M  CHG  1  14   1
M  END
>  <UniqueID>  (20) 
19

>  <SMILES>  (20) 
Cc1cc(C)c(CNCc2cc(Br)[nH+]n2C)cn1

>  <Energy>  (20) 
63.397771150196384

>  <Genealogy>  (20) 
Cc1cc(C)c(CNCc2cc(Br)[nH+]n2C)cn1 (protonated)
Cc1cc(C)c(CNCc2cc(Br)[nH+]n2C)cn1 (3D coordinates assigned)
Cc1cc(C)c(CNCc2cc(Br)[nH+]n2C)cn1 (optimized conformer: 63.397771150196384 kcal/mol)

>  <smiles>  (20) 
Cc1cc(C)c(CNCc2cc(Br)nn2C)cn1

>  <score_type>  (20) 
oracle

>  <origin>  (20) 
adg

>  <m_score__min__energy>  (20) 
-6.8799999999999999

>  <m_primary>  (20) 
energy

$$$$
20:0
     RDKit          3D

 41 42  0  0  0  0  0  0  0  0999 V2000
   -5.7800   25.6630  -30.3230 C   0  0  0  0  0  0  0  0  0  0  0  0
   -4.8220   24.5380  -30.1230 C   0  0  0  0  0  0  0  0  0  0  0  0
   -4.2680   23.8430  -31.1390 N   0  0  0  0  0  0  0  0  0  0  0  0
   -3.4730   22.8310  -30.6950 C   0  0  0  0  0  0  0  0  0  0  0  0
   -2.7030   21.9710  -31.6580 C   0  0  0  0  0  0  0  0  0  0  0  0
   -3.6110   20.9930  -32.4290 C   0  0  0  0  0  0  0  0  0  0  0  0
   -4.8680   21.5880  -32.9240 N   0  0  0  0  0  0  0  0  0  0  0  0
   -6.1070   21.1000  -32.2770 C   0  0  0  0  0  0  0  0  0  0  0  0
   -6.5960   19.7330  -32.8250 C   0  0  0  0  0  0  0  0  0  0  0  0
   -7.6140   18.9270  -31.9750 C   0  0  0  0  0  0  0  0  0  0  0  0
   -9.0990   19.3140  -32.1060 C   0  0  0  0  0  0  0  0  0  0  0  0
   -9.3980   20.8040  -32.4050 C   0  0  0  0  0  0  0  0  0  0  0  0
   -8.5420   21.8290  -31.6430 C   0  0  0  0  0  0  0  0  0  0  0  0
   -7.2140   22.1820  -32.3330 C   0  0  0  0  0  0  0  0  0  0  0  0
   -3.4090   22.7130  -29.3020 C   0  0  0  0  0  0  0  0  0  0  0  0
   -2.5890   21.7420  -28.5150 C   0  0  0  0  0  0  0  0  0  0  0  0
   -4.3690   23.9190  -28.6270 S   0  0  0  0  0  0  0  0  0  0  0  0
   -6.1058   26.0455  -29.3445 H   0  0  0  0  0  0  0  0  0  0  0  0
   -5.2867   26.4690  -30.8860 H   0  0  0  0  0  0  0  0  0  0  0  0
   -6.6543   25.3044  -30.8860 H   0  0  0  0  0  0  0  0  0  0  0  0
   -2.1909   22.6224  -32.3815 H   0  0  0  0  0  0  0  0  0  0  0  0
   -1.9864   21.3740  -31.0749 H   0  0  0  0  0  0  0  0  0  0  0  0
   -3.0483   20.6098  -33.2930 H   0  0  0  0  0  0  0  0  0  0  0  0
   -3.8964   20.2035  -31.7182 H   0  0  0  0  0  0  0  0  0  0  0  0
   -4.8020   22.6290  -32.8210 H   0  0  0  0  0  0  0  0  0  0  0  0
   -5.8606   20.9119  -31.2216 H   0  0  0  0  0  0  0  0  0  0  0  0
   -7.0635   19.9213  -33.8028 H   0  0  0  0  0  0  0  0  0  0  0  0
   -5.6931   19.1049  -32.8391 H   0  0  0  0  0  0  0  0  0  0  0  0
   -7.5207   17.8690  -32.2614 H   0  0  0  0  0  0  0  0  0  0  0  0
   -7.3526   19.1506  -30.9302 H   0  0  0  0  0  0  0  0  0  0  0  0
   -9.5301   18.7157  -32.9222 H   0  0  0  0  0  0  0  0  0  0  0  0
   -9.5401   19.1199  -31.1172 H   0  0  0  0  0  0  0  0  0  0  0  0
   -9.2422   20.9692  -33.4813 H   0  0  0  0  0  0  0  0  0  0  0  0
  -10.4318   20.9724  -32.0689 H   0  0  0  0  0  0  0  0  0  0  0  0
   -9.1286   22.7529  -31.5316 H   0  0  0  0  0  0  0  0  0  0  0  0
   -8.2830   21.3681  -30.6784 H   0  0  0  0  0  0  0  0  0  0  0  0
   -7.4299   22.3872  -33.3919 H   0  0  0  0  0  0  0  0  0  0  0  0
   -6.8131   23.0431  -31.7782 H   0  0  0  0  0  0  0  0  0  0  0  0
   -2.7401   21.9210  -27.4402 H   0  0  0  0  0  0  0  0  0  0  0  0
   -2.8979   20.7158  -28.7628 H   0  0  0  0  0  0  0  0  0  0  0  0
   -1.5255   21.8747  -28.7628 H   0  0  0  0  0  0  0  0  0  0  0  0
  1  2  1  0
  2  3  2  0
  3  4  1  0
  4  5  1  0
  5  6  1  0
  6  7  1  0
  7  8  1  0
  8  9  1  0
  9 10  1  0
 10 11  1  0
 11 12  1  0
 12 13  1  0
 13 14  1  0
  4 15  2  0
 15 16  1  0
 15 17  1  0
 17  2  1  0
 14  8  1  0
  1 18  1  0
  1 19  1  0
  1 20  1  0
  5 21  1  0
  5 22  1  0
  6 23  1  0
  6 24  1  0
  7 25  1  0
  8 26  1  0
  9 27  1  0
  9 28  1  0
 10 29  1  0
 10 30  1  0
 11 31  1  0
 11 32  1  0
 12 33  1  0
 12 34  1  0
 13 35  1  0
 13 36  1  0
 14 37  1  0
 14 38  1  0
 16 39  1  0
 16 40  1  0
 16 41  1  0
M  END
>  <UniqueID>  (21) 
20

>  <SMILES>  (21) 
Cc1nc(CCNC2CCCCCC2)c(C)s1

>  <Energy>  (21) 
78.11992408563039

>  <Genealogy>  (21) 
Cc1nc(CCNC2CCCCCC2)c(C)s1 (3D coordinates assigned)
Cc1nc(CCNC2CCCCCC2)c(C)s1 (nonaromatic ring conformer: 78.11992408563039 kcal/mol)

>  <smiles>  (21) 
Cc1nc(CCNC2CCCCCC2)c(C)s1

>  <score_type>  (21) 
oracle

>  <origin>  (21) 
adg

>  <m_score__min__energy>  (21) 
-5.4400000000000004

>  <m_primary>  (21) 
energy

$$$$
21:0
     RDKit          3D

 46 45  0  0  0  0  0  0  0  0999 V2000
   -3.2580   23.8380  -29.0020 C   0  0  0  0  0  0  0  0  0  0  0  0
   -3.8630   24.0090  -30.3880 C   0  0  0  0  0  0  0  0  0  0  0  0
   -4.2180   25.4170  -30.6080 N   0  0  0  0  0  0  0  0  0  0  0  0
   -5.6570   25.6490  -30.4380 C   0  0  0  0  0  0  0  0  0  0  0  0
   -6.4290   24.3330  -30.2550 C   0  0  0  0  0  0  0  0  0  0  0  0
   -7.1710   23.7850  -31.5150 C   0  0  0  0  0  0  0  0  0  0  0  0
   -7.6710   22.3620  -31.4900 N   0  0  0  0  0  0  0  0  0  0  0  0
   -9.0760   22.2970  -31.9800 C   0  0  0  0  0  0  0  0  0  0  0  0
   -7.7370   21.9270  -30.0670 C   0  0  0  0  0  0  0  0  0  0  0  0
   -6.8540   21.3630  -32.2770 C   0  0  0  0  0  0  0  0  0  0  0  0
   -7.5220   20.0550  -32.8500 C   0  0  0  0  0  0  0  0  0  0  0  0
   -6.9080   18.7070  -32.5560 N   0  0  0  0  0  0  0  0  0  0  0  0
   -6.4510   18.0570  -33.8080 C   0  0  0  0  0  0  0  0  0  0  0  0
   -7.9600   17.8270  -31.9790 C   0  0  0  0  0  0  0  0  0  0  0  0
   -5.7940   18.7600  -31.5820 C   0  0  0  0  0  0  0  0  0  0  0  0
   -4.0211   24.0537  -28.2397 H   0  0  0  0  0  0  0  0  0  0  0  0
   -2.9021   22.8041  -28.8823 H   0  0  0  0  0  0  0  0  0  0  0  0
   -2.4135   24.5326  -28.8823 H   0  0  0  0  0  0  0  0  0  0  0  0
   -3.1313   23.6945  -31.1467 H   0  0  0  0  0  0  0  0  0  0  0  0
   -4.7692   23.3904  -30.4665 H   0  0  0  0  0  0  0  0  0  0  0  0
   -3.9730   25.6530  -31.5990 H   0  0  0  0  0  0  0  0  0  0  0  0
   -5.8136   26.2801  -29.5508 H   0  0  0  0  0  0  0  0  0  0  0  0
   -6.0335   26.1431  -31.3458 H   0  0  0  0  0  0  0  0  0  0  0  0
   -5.7112   23.5660  -29.9288 H   0  0  0  0  0  0  0  0  0  0  0  0
   -7.2194   24.5560  -29.5232 H   0  0  0  0  0  0  0  0  0  0  0  0
   -8.0430   24.4332  -31.6866 H   0  0  0  0  0  0  0  0  0  0  0  0
   -6.4042   23.7886  -32.3036 H   0  0  0  0  0  0  0  0  0  0  0  0
   -9.7627   22.2652  -31.1213 H   0  0  0  0  0  0  0  0  0  0  0  0
   -9.2930   23.1861  -32.5903 H   0  0  0  0  0  0  0  0  0  0  0  0
   -9.2100   21.3917  -32.5903 H   0  0  0  0  0  0  0  0  0  0  0  0
   -7.6046   22.7995  -29.4103 H   0  0  0  0  0  0  0  0  0  0  0  0
   -8.7155   21.4648  -29.8699 H   0  0  0  0  0  0  0  0  0  0  0  0
   -6.9396   21.1954  -29.8699 H   0  0  0  0  0  0  0  0  0  0  0  0
   -6.4364   21.9061  -33.1376 H   0  0  0  0  0  0  0  0  0  0  0  0
   -6.1516   20.9725  -31.5259 H   0  0  0  0  0  0  0  0  0  0  0  0
   -8.5512   20.0273  -32.4627 H   0  0  0  0  0  0  0  0  0  0  0  0
   -7.3961   20.1603  -33.9377 H   0  0  0  0  0  0  0  0  0  0  0  0
   -5.8344   17.1800  -33.5619 H   0  0  0  0  0  0  0  0  0  0  0  0
   -7.3245   17.7379  -34.3954 H   0  0  0  0  0  0  0  0  0  0  0  0
   -5.8551   18.7710  -34.3954 H   0  0  0  0  0  0  0  0  0  0  0  0
   -7.9108   17.8682  -30.8809 H   0  0  0  0  0  0  0  0  0  0  0  0
   -8.9497   18.1700  -32.3148 H   0  0  0  0  0  0  0  0  0  0  0  0
   -7.7972   16.7922  -32.3148 H   0  0  0  0  0  0  0  0  0  0  0  0
   -6.1996   18.7407  -30.5597 H   0  0  0  0  0  0  0  0  0  0  0  0
   -5.1347   17.8922  -31.7314 H   0  0  0  0  0  0  0  0  0  0  0  0
   -5.2201   19.6865  -31.7314 H   0  0  0  0  0  0  0  0  0  0  0  0
  1  2  1  0
  2  3  1  0
  3  4  1  0
  4  5  1  0
  5  6  1  0
  6  7  1  0
  7  8  1  0
  7  9  1  0
  7 10  1  0
 10 11  1  0
 11 12  1  0
 12 13  1  0
 12 14  1  0
 12 15  1  0
  1 16  1  0
  1 17  1  0
  1 18  1  0
  2 19  1  0
  2 20  1  0
  3 21  1  0
  4 22  1  0
  4 23  1  0
  5 24  1  0
  5 25  1  0
  6 26  1  0
  6 27  1  0
  8 28  1  0
  8 29  1  0
  8 30  1  0
  9 31  1  0
  9 32  1  0
  9 33  1  0
 10 34  1  0
 10 35  1  0
 11 36  1  0
 11 37  1  0
 13 38  1  0
 13 39  1  0
 13 40  1  0
 14 41  1  0
 14 42  1  0
 14 43  1  0
 15 44  1  0
 15 45  1  0
 15 46  1  0
M  CHG  2   7   1  12   1
M  END
>  <UniqueID>  (22) 
21

>  <SMILES>  (22) 
CCNCCC[N+](C)(C)CC[N+](C)(C)C

>  <Energy>  (22) 
77.80539541790627

>  <Genealogy>  (22) 
CCNCCC[N+](C)(C)CC[N+](C)(C)C (3D coordinates assigned)
CCNCCC[N+](C)(C)CC[N+](C)(C)C (optimized conformer: 77.80539541790627 kcal/mol)

>  <smiles>  (22) 
CCNCCC[N+](C)(C)CC[N+](C)(C)C

>  <score_type>  (22) 
oracle

>  <origin>  (22) 
adg

>  <m_score__min__energy>  (22) 
-4.2800000000000002

>  <m_primary>  (22) 
energy

$$$$
22:0
     RDKit          3D

 59 61  0  0  0  0  0  0  0  0999 V2000
    0.3040   20.5380  -33.1290 C   0  0  0  0  0  0  0  0  0  0  0  0
   -0.4180   20.8390  -34.4430 C   0  0  0  0  0  0  0  0  0  0  0  0
   -1.8340   21.1610  -34.2040 N   0  0  0  0  0  0  0  0  0  0  0  0
   -2.2760   20.6220  -32.9080 C   0  0  0  0  0  0  0  0  0  0  0  0
   -3.3930   21.4740  -32.2860 C   0  0  0  0  0  0  0  0  0  0  0  0
   -4.5680   21.5550  -33.1600 N   0  0  0  0  0  0  0  0  0  0  0  0
   -5.7350   20.7620  -32.9010 C   0  0  0  0  0  0  0  0  0  0  0  0
   -5.7400   19.4130  -33.3200 C   0  0  0  0  0  0  0  0  0  0  0  0
   -4.6650   18.8810  -34.0730 C   0  0  0  0  0  0  0  0  0  0  0  0
   -4.6730   17.5540  -34.4910 C   0  0  0  0  0  0  0  0  0  0  0  0
   -5.7580   16.7380  -34.1950 C   0  0  0  0  0  0  0  0  0  0  0  0
   -6.8400   17.2460  -33.4790 C   0  0  0  0  0  0  0  0  0  0  0  0
   -6.8490   18.5870  -33.0140 C   0  0  0  0  0  0  0  0  0  0  0  0
   -7.9190   19.1030  -32.3140 N   0  0  0  0  0  0  0  0  0  0  0  0
   -8.9410   18.1900  -31.7530 C   0  0  0  0  0  0  0  0  0  0  0  0
   -8.0400   20.4690  -32.1430 C   0  0  0  0  0  0  0  0  0  0  0  0
   -9.2840   21.0430  -31.7790 C   0  0  0  0  0  0  0  0  0  0  0  0
   -9.4220   22.4100  -31.6000 C   0  0  0  0  0  0  0  0  0  0  0  0
   -8.3270   23.2430  -31.7410 C   0  0  0  0  0  0  0  0  0  0  0  0
   -7.0680   22.7290  -32.0640 C   0  0  0  0  0  0  0  0  0  0  0  0
   -5.7350   23.9490  -32.0740 S   0  0  0  0  0  0  0  0  0  0  0  0
   -6.2970   24.8550  -30.5820 C   0  0  0  0  0  0  0  0  0  0  0  0
   -5.2190   24.9000  -29.4920 C   0  0  0  0  0  0  0  0  0  0  0  0
   -4.0940   23.9930  -29.8000 N   0  0  0  0  0  0  0  0  0  0  0  0
   -2.8190   24.5230  -29.2860 C   0  0  0  0  0  0  0  0  0  0  0  0
   -4.3370   22.6590  -29.2270 C   0  0  0  0  0  0  0  0  0  0  0  0
   -6.9210   21.3330  -32.3640 C   0  0  0  0  0  0  0  0  0  0  0  0
   -0.3454   20.8087  -32.2834 H   0  0  0  0  0  0  0  0  0  0  0  0
    0.5428   19.4654  -33.0792 H   0  0  0  0  0  0  0  0  0  0  0  0
    1.2340   21.1234  -33.0792 H   0  0  0  0  0  0  0  0  0  0  0  0
    0.0682   21.6956  -34.9327 H   0  0  0  0  0  0  0  0  0  0  0  0
   -0.3645   19.9473  -35.0849 H   0  0  0  0  0  0  0  0  0  0  0  0
   -1.9490   22.2010  -34.2030 H   0  0  0  0  0  0  0  0  0  0  0  0
   -2.4150   20.7510  -34.9710 H   0  0  0  0  0  0  0  0  0  0  0  0
   -2.6502   19.5984  -33.0572 H   0  0  0  0  0  0  0  0  0  0  0  0
   -1.4160   20.6329  -32.2223 H   0  0  0  0  0  0  0  0  0  0  0  0
   -3.6924   21.0239  -31.3280 H   0  0  0  0  0  0  0  0  0  0  0  0
   -3.0047   22.4928  -32.1404 H   0  0  0  0  0  0  0  0  0  0  0  0
   -4.5210   22.0570  -34.0750 H   0  0  0  0  0  0  0  0  0  0  0  0
   -3.8120   19.5258  -34.3309 H   0  0  0  0  0  0  0  0  0  0  0  0
   -3.8199   17.1506  -35.0562 H   0  0  0  0  0  0  0  0  0  0  0  0
   -5.7628   15.6892  -34.5265 H   0  0  0  0  0  0  0  0  0  0  0  0
   -7.7027   16.5961  -33.2704 H   0  0  0  0  0  0  0  0  0  0  0  0
   -8.9011   18.2257  -30.6543 H   0  0  0  0  0  0  0  0  0  0  0  0
   -9.9389   18.5028  -32.0940 H   0  0  0  0  0  0  0  0  0  0  0  0
   -8.7422   17.1633  -32.0940 H   0  0  0  0  0  0  0  0  0  0  0  0
  -10.1575   20.3899  -31.6357 H   0  0  0  0  0  0  0  0  0  0  0  0
  -10.4046   22.8337  -31.3452 H   0  0  0  0  0  0  0  0  0  0  0  0
   -8.4488   24.3267  -31.5967 H   0  0  0  0  0  0  0  0  0  0  0  0
   -6.5540   25.8853  -30.8689 H   0  0  0  0  0  0  0  0  0  0  0  0
   -7.1693   24.3242  -30.1729 H   0  0  0  0  0  0  0  0  0  0  0  0
   -4.8364   25.9281  -29.4109 H   0  0  0  0  0  0  0  0  0  0  0  0
   -5.6740   24.5736  -28.5452 H   0  0  0  0  0  0  0  0  0  0  0  0
   -2.8358   24.5160  -28.1861 H   0  0  0  0  0  0  0  0  0  0  0  0
   -1.9899   23.8950  -29.6440 H   0  0  0  0  0  0  0  0  0  0  0  0
   -2.6794   25.5537  -29.6440 H   0  0  0  0  0  0  0  0  0  0  0  0
   -4.3252   22.7239  -28.1290 H   0  0  0  0  0  0  0  0  0  0  0  0
   -5.3173   22.2891  -29.5619 H   0  0  0  0  0  0  0  0  0  0  0  0
   -3.5501   21.9672  -29.5619 H   0  0  0  0  0  0  0  0  0  0  0  0
  1  2  1  0
  2  3  1  0
  3  4  1  0
  4  5  1  0
  5  6  1  0
  6  7  1  0
  7  8  2  0
  8  9  1  0
  9 10  2  0
 10 11  1  0
 11 12  2  0
 12 13  1  0
 13 14  2  0
 14 15  1  0
 14 16  1  0
 16 17  2  0
 17 18  1  0
 18 19  2  0
 19 20  1  0
 20 21  1  0
 21 22  1  0
 22 23  1  0
 23 24  1  0
 24 25  1  0
 24 26  1  0
 20 27  2  0
 27  7  1  0
 13  8  1  0
 27 16  1  0
  1 28  1  0
  1 29  1  0
  1 30  1  0
  2 31  1  0
  2 32  1  0
  3 33  1  0
  3 34  1  0
  4 35  1  0
  4 36  1  0
  5 37  1  0
  5 38  1  0
  6 39  1  0
  9 40  1  0
 10 41  1  0
 11 42  1  0
 12 43  1  0
 15 44  1  0
 15 45  1  0
 15 46  1  0
 17 47  1  0
 18 48  1  0
 19 49  1  0
 22 50  1  0
 22 51  1  0
 23 52  1  0
 23 53  1  0
 25 54  1  0
 25 55  1  0
 25 56  1  0
 26 57  1  0
 26 58  1  0
 26 59  1  0
M  CHG  2   3   1  14   1
M  END
>  <UniqueID>  (23) 
22

>  <SMILES>  (23) 
CC[NH2+]CCNc1c2ccccc2[n+](C)c2cccc(SCCN(C)C)c12

>  <Energy>  (23) 
83.96334228920611

>  <Genealogy>  (23) 
CC[NH2+]CCNc1c2ccccc2[n+](C)c2cccc(SCCN(C)C)c12 (protonated)
CC[NH2+]CCNc1c2ccccc2[n+](C)c2cccc(SCCN(C)C)c12 (3D coordinates assigned)
CC[NH2+]CCNc1c2ccccc2[n+](C)c2cccc(SCCN(C)C)c12 (optimized conformer: 83.96334228920611 kcal/mol)

>  <smiles>  (23) 
CCNCCNc1c2ccccc2[n+](C)c2cccc(SCCN(C)C)c12

>  <score_type>  (23) 
oracle

>  <origin>  (23) 
adg

>  <m_score__min__energy>  (23) 
-8.6600000000000001

>  <m_primary>  (23) 
energy

$$$$
