0:0
     RDKit          3D

 54 56  0  0  0  0  0  0  0  0999 V2000
   -6.2680   25.4050  -29.5880 C   0  0  0  0  0  0  0  0  0  0  0  0
   -5.3670   25.4970  -30.8170 C   0  0  0  0  0  0  0  0  0  0  0  0
   -3.9570   25.3320  -30.4350 N   0  0  0  0  0  0  0  0  0  0  0  0
   -3.8240   24.4890  -29.2380 C   0  0  0  0  0  0  0  0  0  0  0  0
   -3.7650   23.0100  -29.6380 C   0  0  0  0  0  0  0  0  0  0  0  0
   -2.8770   22.8140  -30.7260 O   0  0  0  0  0  0  0  0  0  0  0  0
   -2.3200   21.5110  -30.7500 C   0  0  0  0  0  0  0  0  0  0  0  0
   -3.2680   20.4790  -31.3890 C   0  0  0  0  0  0  0  0  0  0  0  0
   -4.2070   21.1270  -32.3070 N   0  0  0  0  0  0  0  0  0  0  0  0
   -5.4860   20.5310  -32.5690 C   0  0  0  0  0  0  0  0  0  0  0  0
   -6.6550   21.2540  -32.2730 C   0  0  0  0  0  0  0  0  0  0  0  0
   -6.6260   22.6600  -32.1490 C   0  0  0  0  0  0  0  0  0  0  0  0
   -7.7980   23.3760  -31.9150 C   0  0  0  0  0  0  0  0  0  0  0  0
   -9.0110   22.7080  -31.7830 C   0  0  0  0  0  0  0  0  0  0  0  0
   -9.0570   21.3190  -31.8770 C   0  0  0  0  0  0  0  0  0  0  0  0
   -7.8810   20.5580  -32.1010 C   0  0  0  0  0  0  0  0  0  0  0  0
   -7.8980   19.1800  -32.1620 N   0  0  0  0  0  0  0  0  0  0  0  0
   -9.0530   18.4190  -31.6270 C   0  0  0  0  0  0  0  0  0  0  0  0
   -6.8260   18.4990  -32.7110 C   0  0  0  0  0  0  0  0  0  0  0  0
   -6.9260   17.1300  -33.0540 C   0  0  0  0  0  0  0  0  0  0  0  0
   -5.8590   16.4510  -33.6290 C   0  0  0  0  0  0  0  0  0  0  0  0
   -4.6820   17.1210  -33.9250 C   0  0  0  0  0  0  0  0  0  0  0  0
   -4.5250   18.4720  -33.6020 C   0  0  0  0  0  0  0  0  0  0  0  0
   -3.0320   19.2830  -34.2240 S   0  0  0  0  0  0  0  0  0  0  0  0
   -1.8650   18.0450  -33.5590 C   0  0  0  0  0  0  0  0  0  0  0  0
   -5.5920   19.1730  -32.9550 C   0  0  0  0  0  0  0  0  0  0  0  0
   -5.6538   25.4677  -28.6776 H   0  0  0  0  0  0  0  0  0  0  0  0
   -6.9909   26.2340  -29.6004 H   0  0  0  0  0  0  0  0  0  0  0  0
   -6.8084   24.4470  -29.6004 H   0  0  0  0  0  0  0  0  0  0  0  0
   -5.6441   24.7057  -31.5291 H   0  0  0  0  0  0  0  0  0  0  0  0
   -5.4968   26.4863  -31.2801 H   0  0  0  0  0  0  0  0  0  0  0  0
   -3.4790   24.8370  -31.2270 H   0  0  0  0  0  0  0  0  0  0  0  0
   -2.9007   24.7585  -28.7042 H   0  0  0  0  0  0  0  0  0  0  0  0
   -4.6948   24.6507  -28.5857 H   0  0  0  0  0  0  0  0  0  0  0  0
   -3.4172   22.4183  -28.7784 H   0  0  0  0  0  0  0  0  0  0  0  0
   -4.7715   22.6888  -29.9442 H   0  0  0  0  0  0  0  0  0  0  0  0
   -1.3847   21.5372  -31.3284 H   0  0  0  0  0  0  0  0  0  0  0  0
   -2.1417   21.2032  -29.7091 H   0  0  0  0  0  0  0  0  0  0  0  0
   -2.6729   19.7400  -31.9455 H   0  0  0  0  0  0  0  0  0  0  0  0
   -3.8420   19.9880  -30.5893 H   0  0  0  0  0  0  0  0  0  0  0  0
   -4.0280   22.1110  -32.6030 H   0  0  0  0  0  0  0  0  0  0  0  0
   -5.6691   23.1952  -32.2380 H   0  0  0  0  0  0  0  0  0  0  0  0
   -7.7641   24.4725  -31.8344 H   0  0  0  0  0  0  0  0  0  0  0  0
   -9.9350   23.2774  -31.6042 H   0  0  0  0  0  0  0  0  0  0  0  0
  -10.0230   20.8027  -31.7757 H   0  0  0  0  0  0  0  0  0  0  0  0
   -9.0261   18.4367  -30.5275 H   0  0  0  0  0  0  0  0  0  0  0  0
   -9.9889   18.8779  -31.9784 H   0  0  0  0  0  0  0  0  0  0  0  0
   -9.0006   17.3779  -31.9784 H   0  0  0  0  0  0  0  0  0  0  0  0
   -7.8666   16.5930  -32.8617 H   0  0  0  0  0  0  0  0  0  0  0  0
   -5.9485   15.3772  -33.8503 H   0  0  0  0  0  0  0  0  0  0  0  0
   -3.8608   16.5824  -34.4206 H   0  0  0  0  0  0  0  0  0  0  0  0
   -1.8897   18.0712  -32.4596 H   0  0  0  0  0  0  0  0  0  0  0  0
   -2.1548   17.0431  -33.9085 H   0  0  0  0  0  0  0  0  0  0  0  0
   -0.8477   18.2752  -33.9085 H   0  0  0  0  0  0  0  0  0  0  0  0
  1  2  1  0
  2  3  1  0
  3  4  1  0
  4  5  1  0
  5  6  1  0
  6  7  1  0
  7  8  1  0
  8  9  1  0
  9 10  1  0
 10 11  2  0
 11 12  1  0
 12 13  2  0
 13 14  1  0
 14 15  2  0
 15 16  1  0
 16 17  2  0
 17 18  1  0
 17 19  1  0
 19 20  2  0
 20 21  1  0
 21 22  2  0
 22 23  1  0
 23 24  1  0
 24 25  1  0
 23 26  2  0
 26 10  1  0
 16 11  1  0
 26 19  1  0
  1 27  1  0
  1 28  1  0
  1 29  1  0
  2 30  1  0
  2 31  1  0
  3 32  1  0
  4 33  1  0
  4 34  1  0
  5 35  1  0
  5 36  1  0
  7 37  1  0
  7 38  1  0
  8 39  1  0
  8 40  1  0
  9 41  1  0
 12 42  1  0
 13 43  1  0
 14 44  1  0
 15 45  1  0
 18 46  1  0
 18 47  1  0
 18 48  1  0
 20 49  1  0
 21 50  1  0
 22 51  1  0
 25 52  1  0
 25 53  1  0
 25 54  1  0
M  CHG  1  17   1
M  END
>  <UniqueID>  (1) 
1

>  <SMILES>  (1) 
CCNCCOCCNc1c2ccccc2[n+](C)c2cccc(SC)c12

>  <Energy>  (1) 
88.20631657778107

>  <Genealogy>  (1) 
CCNCCOCCNc1c2ccccc2[n+](C)c2cccc(SC)c12 (3D coordinates assigned)
CCNCCOCCNc1c2ccccc2[n+](C)c2cccc(SC)c12 (optimized conformer: 88.20631657778107 kcal/mol)

>  <smiles>  (1) 
CCNCCOCCNc1c2ccccc2[n+](C)c2cccc(SC)c12

>  <score_type>  (1) 
oracle

>  <origin>  (1) 
adg

>  <m_score__min__energy>  (1) 
-9.1099999999999994

>  <m_primary>  (1) 
energy

$$$$
1:0
     RDKit          3D

 64 69  0  0  0  0  0  0  0  0999 V2000
    0.3890   17.6800  -30.1090 C   0  0  0  0  0  0  0  0  0  0  0  0
    0.3080   18.9670  -30.7980 N   0  0  0  0  0  0  0  0  0  0  0  0
    0.6020   19.2410  -32.0860 C   0  0  0  0  0  0  0  0  0  0  0  0
    1.0320   18.0120  -33.3260 S   0  0  0  0  0  0  0  0  0  0  0  0
   -0.6930   17.6590  -33.8420 C   0  0  0  0  0  0  0  0  0  0  0  0
   -1.7310   17.8020  -32.7170 C   0  0  0  0  0  0  0  0  0  0  0  0
   -3.1670   17.5110  -33.1640 C   0  0  0  0  0  0  0  0  0  0  0  0
   -3.9020   18.7730  -33.4110 N   0  0  0  0  0  0  0  0  0  0  0  0
   -3.0740   19.8650  -33.9920 C   0  0  0  0  0  0  0  0  0  0  0  0
   -2.7700   20.9930  -32.9740 C   0  0  2  0  0  0  0  0  0  0  0  0
   -2.6990   20.3580  -31.5920 C   0  0  0  0  0  0  0  0  0  0  0  0
   -4.1860   20.2470  -31.2840 C   0  0  2  0  0  0  0  0  0  0  0  0
   -4.8020   19.1890  -32.3000 C   0  0  0  0  0  0  0  0  0  0  0  0
   -4.6880   21.7040  -31.5490 C   0  0  2  0  0  0  0  0  0  0  0  0
   -4.2110   22.7220  -30.4540 C   0  0  0  0  0  0  0  0  0  0  0  0
   -4.6250   24.1240  -30.8330 C   0  0  0  0  0  0  0  0  0  0  0  0
   -3.9280   25.1110  -30.4790 O   0  0  0  0  0  0  0  0  0  0  0  0
   -5.8210   24.3310  -31.5860 N   0  0  0  0  0  0  0  0  0  0  0  0
   -6.6930   23.2270  -31.8400 C   0  0  0  0  0  0  0  0  0  0  0  0
   -8.0580   23.4720  -32.0340 C   0  0  0  0  0  0  0  0  0  0  0  0
   -8.9780   22.4330  -31.8980 C   0  0  0  0  0  0  0  0  0  0  0  0
   -8.5440   21.1680  -31.5040 C   0  0  0  0  0  0  0  0  0  0  0  0
   -7.1780   20.9170  -31.3310 C   0  0  0  0  0  0  0  0  0  0  0  0
   -6.2200   21.9090  -31.6390 C   0  0  0  0  0  0  0  0  0  0  0  0
   -3.9490   22.0060  -32.8870 C   0  0  0  0  0  0  0  0  0  0  0  0
    0.4790   20.5530  -32.3540 N   0  0  0  0  0  0  0  0  0  0  0  0
    0.0960   21.1420  -31.2300 N   0  0  0  0  0  0  0  0  0  0  0  0
    0.0070   20.1830  -30.2880 C   0  0  0  0  0  0  0  0  0  0  0  0
   -0.4180   20.4550  -28.9000 C   0  0  0  0  0  0  0  0  0  0  0  0
   -0.0120   21.6210  -28.2310 C   0  0  0  0  0  0  0  0  0  0  0  0
   -0.4270   21.8600  -26.9180 C   0  0  0  0  0  0  0  0  0  0  0  0
   -1.2580   20.9460  -26.2670 C   0  0  0  0  0  0  0  0  0  0  0  0
   -1.6860   19.7950  -26.9330 C   0  0  0  0  0  0  0  0  0  0  0  0
   -1.2740   19.5530  -28.2470 C   0  0  0  0  0  0  0  0  0  0  0  0
    0.3786   17.8450  -29.0215 H   0  0  0  0  0  0  0  0  0  0  0  0
   -0.4717   17.0569  -30.3936 H   0  0  0  0  0  0  0  0  0  0  0  0
    1.3210   17.1698  -30.3936 H   0  0  0  0  0  0  0  0  0  0  0  0
   -0.9610   18.3569  -34.6489 H   0  0  0  0  0  0  0  0  0  0  0  0
   -0.7174   16.6068  -34.1616 H   0  0  0  0  0  0  0  0  0  0  0  0
   -1.4690   17.1003  -31.9114 H   0  0  0  0  0  0  0  0  0  0  0  0
   -1.7036   18.8505  -32.3854 H   0  0  0  0  0  0  0  0  0  0  0  0
   -3.1442   16.9187  -34.0906 H   0  0  0  0  0  0  0  0  0  0  0  0
   -3.6799   16.9519  -32.3675 H   0  0  0  0  0  0  0  0  0  0  0  0
   -2.1214   19.4378  -34.3384 H   0  0  0  0  0  0  0  0  0  0  0  0
   -3.6457   20.3103  -34.8196 H   0  0  0  0  0  0  0  0  0  0  0  0
   -1.8441   21.4977  -33.2870 H   0  0  0  0  0  0  0  0  0  0  0  0
   -2.2117   19.3722  -31.6188 H   0  0  0  0  0  0  0  0  0  0  0  0
   -2.1100   20.9184  -30.8511 H   0  0  0  0  0  0  0  0  0  0  0  0
   -4.4546   19.9071  -30.2729 H   0  0  0  0  0  0  0  0  0  0  0  0
   -5.0751   18.2892  -31.7292 H   0  0  0  0  0  0  0  0  0  0  0  0
   -5.6597   19.6879  -32.7748 H   0  0  0  0  0  0  0  0  0  0  0  0
   -4.6658   22.4570  -29.4881 H   0  0  0  0  0  0  0  0  0  0  0  0
   -3.1146   22.6792  -30.3759 H   0  0  0  0  0  0  0  0  0  0  0  0
   -8.4043   24.4833  -32.2935 H   0  0  0  0  0  0  0  0  0  0  0  0
  -10.0443   22.6111  -32.1012 H   0  0  0  0  0  0  0  0  0  0  0  0
   -9.2762   20.3660  -31.3289 H   0  0  0  0  0  0  0  0  0  0  0  0
   -6.8472   19.9388  -30.9519 H   0  0  0  0  0  0  0  0  0  0  0  0
   -4.6320   21.8694  -33.7384 H   0  0  0  0  0  0  0  0  0  0  0  0
   -3.5869   23.0442  -32.9179 H   0  0  0  0  0  0  0  0  0  0  0  0
    0.6351   22.3490  -28.7423 H   0  0  0  0  0  0  0  0  0  0  0  0
   -0.0981   22.7707  -26.3960 H   0  0  0  0  0  0  0  0  0  0  0  0
   -1.5754   21.1322  -25.2304 H   0  0  0  0  0  0  0  0  0  0  0  0
   -2.3474   19.0788  -26.4235 H   0  0  0  0  0  0  0  0  0  0  0  0
   -1.6221   18.6513  -28.7722 H   0  0  0  0  0  0  0  0  0  0  0  0
  1  2  1  0
  2  3  1  0
  3  4  1  0
  4  5  1  0
  5  6  1  0
  6  7  1  0
  7  8  1  0
  8  9  1  0
  9 10  1  0
 10 11  1  0
 11 12  1  0
 12 13  1  0
 12 14  1  0
 14 15  1  1
 15 16  1  0
 16 17  2  0
 16 18  1  0
 18 19  1  0
 19 20  2  0
 20 21  1  0
 21 22  2  0
 22 23  1  0
 23 24  2  0
 14 25  1  0
  3 26  2  0
 26 27  1  0
 27 28  2  0
 28 29  1  0
 29 30  2  0
 30 31  1  0
 31 32  2  0
 32 33  1  0
 33 34  2  0
 28  2  1  0
 34 29  1  0
 13  8  1  0
 24 14  1  0
 25 10  1  0
 24 19  1  0
  1 35  1  0
  1 36  1  0
  1 37  1  0
  5 38  1  0
  5 39  1  0
  6 40  1  0
  6 41  1  0
  7 42  1  0
  7 43  1  0
  9 44  1  0
  9 45  1  0
 10 46  1  6
 11 47  1  0
 11 48  1  0
 12 49  1  1
 13 50  1  0
 13 51  1  0
 15 52  1  0
 15 53  1  0
 20 54  1  0
 21 55  1  0
 22 56  1  0
 23 57  1  0
 25 58  1  0
 25 59  1  0
 30 60  1  0
 31 61  1  0
 32 62  1  0
 33 63  1  0
 34 64  1  0
M  CHG  1  18  -1
M  END
>  <UniqueID>  (2) 
2

>  <SMILES>  (2) 
Cn1c(SCCCN2C[C@@H]3C[C@H](C2)C2(CC(=O)[N-]c4ccccc42)C3)nnc1-c1ccccc1

>  <Energy>  (2) 
159.52671431919262

>  <Genealogy>  (2) 
Cn1c(SCCCN2CC3CC(C2)C2(CC(=O)[N-]c4ccccc42)C3)nnc1-c1ccccc1 (protonated)
Cn1c(SCCCN2C[C@@H]3C[C@H](C2)C2(CC(=O)[N-]c4ccccc42)C3)nnc1-c1ccccc1 (chirality)
Cn1c(SCCCN2C[C@@H]3C[C@H](C2)C2(CC(=O)[N-]c4ccccc42)C3)nnc1-c1ccccc1 (3D coordinates assigned)
Cn1c(SCCCN2C[C@@H]3C[C@H](C2)C2(CC(=O)[N-]c4ccccc42)C3)nnc1-c1ccccc1 (nonaromatic ring conformer: 159.52671431919262 kcal/mol)

>  <smiles>  (2) 
Cn1c(SCCCN2CC3CC(C2)C2(CC(=O)Nc4ccccc42)C3)nnc1-c1ccccc1

>  <score_type>  (2) 
oracle

>  <origin>  (2) 
adg

>  <m_score__min__energy>  (2) 
-12.32

>  <m_primary>  (2) 
energy

$$$$
2:0
     RDKit          3D

 89 92  0  0  0  0  0  0  0  0999 V2000
   -0.4570   16.3680  -32.0140 C   0  0  0  0  0  0  0  0  0  0  0  0
   -1.1680   15.2280  -32.7580 C   0  0  0  0  0  0  0  0  0  0  0  0
   -1.9550   15.7000  -33.9300 N   0  0  0  0  0  0  0  0  0  0  0  0
   -2.0680   14.6410  -34.9690 C   0  0  0  0  0  0  0  0  0  0  0  0
   -3.0840   14.9700  -36.0680 C   0  0  0  0  0  0  0  0  0  0  0  0
   -1.4360   17.0010  -34.4430 C   0  0  0  0  0  0  0  0  0  0  0  0
   -2.4570   18.1610  -34.5270 C   0  0  0  0  0  0  0  0  0  0  0  0
   -3.5930   17.9400  -33.7140 O   0  0  0  0  0  0  0  0  0  0  0  0
   -4.0570   19.1490  -33.1520 C   0  0  0  0  0  0  0  0  0  0  0  0
   -5.3890   19.5310  -33.7960 C   0  0  0  0  0  0  0  0  0  0  0  0
   -6.2860   20.1510  -32.8130 N   0  0  0  0  0  0  0  0  0  0  0  0
   -7.4950   19.7130  -32.3560 C   0  0  0  0  0  0  0  0  0  0  0  0
   -8.1290   18.3990  -32.7110 C   0  0  0  0  0  0  0  0  0  0  0  0
   -7.0920   17.3110  -32.7260 C   0  0  0  0  0  0  0  0  0  0  0  0
   -6.8680   16.5580  -33.8890 C   0  0  0  0  0  0  0  0  0  0  0  0
   -5.8840   15.5650  -33.9090 C   0  0  0  0  0  0  0  0  0  0  0  0
   -5.1030   15.3170  -32.7630 C   0  0  0  0  0  0  0  0  0  0  0  0
   -4.1030   14.3330  -32.7310 O   0  0  0  0  0  0  0  0  0  0  0  0
   -4.0180   13.3060  -31.7490 C   0  0  0  0  0  0  0  0  0  0  0  0
   -5.3240   16.0780  -31.6080 C   0  0  0  0  0  0  0  0  0  0  0  0
   -6.3070   17.0710  -31.5900 C   0  0  0  0  0  0  0  0  0  0  0  0
   -8.0940   20.5830  -31.5010 N   0  0  0  0  0  0  0  0  0  0  0  0
   -7.2230   21.6040  -31.4430 C   0  0  0  0  0  0  0  0  0  0  0  0
   -7.3670   22.7950  -30.7390 C   0  0  0  0  0  0  0  0  0  0  0  0
   -6.3480   23.7650  -30.8650 C   0  0  0  0  0  0  0  0  0  0  0  0
   -6.5070   25.1100  -30.2010 C   0  0  0  0  0  0  0  0  0  0  0  0
   -5.6930   25.2200  -28.9780 N   0  0  0  0  0  0  0  0  0  0  0  0
   -4.9610   23.9800  -28.6530 C   0  0  0  0  0  0  0  0  0  0  0  0
   -3.4380   24.1540  -28.7920 C   0  0  0  0  0  0  0  0  0  0  0  0
   -2.7860   22.8640  -29.2140 C   0  0  0  0  0  0  0  0  0  0  0  0
   -2.8380   21.7400  -28.3790 C   0  0  0  0  0  0  0  0  0  0  0  0
   -2.2050   20.5540  -28.7520 C   0  0  0  0  0  0  0  0  0  0  0  0
   -1.5030   20.4750  -29.9710 C   0  0  0  0  0  0  0  0  0  0  0  0
   -0.8580   19.2980  -30.3820 O   0  0  0  0  0  0  0  0  0  0  0  0
    0.2380   18.6990  -29.6970 C   0  0  0  0  0  0  0  0  0  0  0  0
   -1.4370   21.6010  -30.8080 C   0  0  0  0  0  0  0  0  0  0  0  0
   -0.7210   21.4960  -32.0120 O   0  0  0  0  0  0  0  0  0  0  0  0
   -1.3000   21.1640  -33.2700 C   0  0  0  0  0  0  0  0  0  0  0  0
   -2.0800   22.7930  -30.4230 C   0  0  0  0  0  0  0  0  0  0  0  0
   -5.2180   23.5000  -31.6840 C   0  0  0  0  0  0  0  0  0  0  0  0
   -5.1070   22.2840  -32.3800 C   0  0  0  0  0  0  0  0  0  0  0  0
   -6.1400   21.3550  -32.2330 C   0  0  0  0  0  0  0  0  0  0  0  0
   -0.5531   16.2139  -30.9291 H   0  0  0  0  0  0  0  0  0  0  0  0
    0.6078   16.3780  -32.2900 H   0  0  0  0  0  0  0  0  0  0  0  0
   -0.9164   17.3286  -32.2900 H   0  0  0  0  0  0  0  0  0  0  0  0
   -0.4100   14.5127  -33.1099 H   0  0  0  0  0  0  0  0  0  0  0  0
   -1.8738   14.7648  -32.0528 H   0  0  0  0  0  0  0  0  0  0  0  0
   -2.9270   15.8980  -33.5910 H   0  0  0  0  0  0  0  0  0  0  0  0
   -1.0815   14.5046  -35.4361 H   0  0  0  0  0  0  0  0  0  0  0  0
   -2.4201   13.7289  -34.4649 H   0  0  0  0  0  0  0  0  0  0  0  0
   -4.0347   15.2779  -35.6082 H   0  0  0  0  0  0  0  0  0  0  0  0
   -2.6966   15.7886  -36.6923 H   0  0  0  0  0  0  0  0  0  0  0  0
   -3.2500   14.0797  -36.6923 H   0  0  0  0  0  0  0  0  0  0  0  0
   -0.6190   17.3210  -33.7796 H   0  0  0  0  0  0  0  0  0  0  0  0
   -1.1281   16.8054  -35.4807 H   0  0  0  0  0  0  0  0  0  0  0  0
   -1.9646   19.0891  -34.2011 H   0  0  0  0  0  0  0  0  0  0  0  0
   -2.7997   18.2309  -35.5699 H   0  0  0  0  0  0  0  0  0  0  0  0
   -4.1970   19.0199  -32.0686 H   0  0  0  0  0  0  0  0  0  0  0  0
   -3.3198   19.9449  -33.3338 H   0  0  0  0  0  0  0  0  0  0  0  0
   -5.2029   20.2430  -34.6135 H   0  0  0  0  0  0  0  0  0  0  0  0
   -5.8672   18.6191  -34.1830 H   0  0  0  0  0  0  0  0  0  0  0  0
   -8.9012   18.1550  -31.9666 H   0  0  0  0  0  0  0  0  0  0  0  0
   -8.5827   18.4770  -33.7101 H   0  0  0  0  0  0  0  0  0  0  0  0
   -7.4698   16.7501  -34.7895 H   0  0  0  0  0  0  0  0  0  0  0  0
   -5.7190   14.9753  -34.8228 H   0  0  0  0  0  0  0  0  0  0  0  0
   -4.0551   13.7545  -30.7453 H   0  0  0  0  0  0  0  0  0  0  0  0
   -4.8617   12.6109  -31.8714 H   0  0  0  0  0  0  0  0  0  0  0  0
   -3.0715   12.7590  -31.8714 H   0  0  0  0  0  0  0  0  0  0  0  0
   -4.7191   15.8925  -30.7082 H   0  0  0  0  0  0  0  0  0  0  0  0
   -6.4655   17.6675  -30.6794 H   0  0  0  0  0  0  0  0  0  0  0  0
   -8.2469   22.9758  -30.1040 H   0  0  0  0  0  0  0  0  0  0  0  0
   -6.1954   25.8939  -30.9070 H   0  0  0  0  0  0  0  0  0  0  0  0
   -7.5636   25.2272  -29.9183 H   0  0  0  0  0  0  0  0  0  0  0  0
   -5.0480   26.0410  -29.0490 H   0  0  0  0  0  0  0  0  0  0  0  0
   -5.1922   23.6928  -27.6166 H   0  0  0  0  0  0  0  0  0  0  0  0
   -5.2795   23.2024  -29.3629 H   0  0  0  0  0  0  0  0  0  0  0  0
   -3.2312   24.9261  -29.5477 H   0  0  0  0  0  0  0  0  0  0  0  0
   -3.0278   24.4522  -27.8159 H   0  0  0  0  0  0  0  0  0  0  0  0
   -3.3811   21.7930  -27.4239 H   0  0  0  0  0  0  0  0  0  0  0  0
   -2.2542   19.6761  -28.0910 H   0  0  0  0  0  0  0  0  0  0  0  0
    0.0825   18.7840  -28.6114 H   0  0  0  0  0  0  0  0  0  0  0  0
    0.3082   17.6371  -29.9753 H   0  0  0  0  0  0  0  0  0  0  0  0
    1.1696   19.2134  -29.9753 H   0  0  0  0  0  0  0  0  0  0  0  0
   -2.2438   20.6228  -33.1078 H   0  0  0  0  0  0  0  0  0  0  0  0
   -1.4985   22.0855  -33.8369 H   0  0  0  0  0  0  0  0  0  0  0  0
   -0.6049   20.5272  -33.8369 H   0  0  0  0  0  0  0  0  0  0  0  0
   -2.0279   23.6762  -31.0766 H   0  0  0  0  0  0  0  0  0  0  0  0
   -4.4221   24.2539  -31.7744 H   0  0  0  0  0  0  0  0  0  0  0  0
   -4.2369   22.0711  -33.0184 H   0  0  0  0  0  0  0  0  0  0  0  0
  1  2  1  0
  2  3  1  0
  3  4  1  0
  4  5  1  0
  3  6  1  0
  6  7  1  0
  7  8  1  0
  8  9  1  0
  9 10  1  0
 10 11  1  0
 11 12  1  0
 12 13  1  0
 13 14  1  0
 14 15  2  0
 15 16  1  0
 16 17  2  0
 17 18  1  0
 18 19  1  0
 17 20  1  0
 20 21  2  0
 12 22  2  0
 22 23  1  0
 23 24  2  0
 24 25  1  0
 25 26  1  0
 26 27  1  0
 27 28  1  0
 28 29  1  0
 29 30  1  0
 30 31  2  0
 31 32  1  0
 32 33  2  0
 33 34  1  0
 34 35  1  0
 33 36  1  0
 36 37  1  0
 37 38  1  0
 36 39  2  0
 25 40  2  0
 40 41  1  0
 41 42  2  0
 42 11  1  0
 21 14  1  0
 42 23  1  0
 39 30  1  0
  1 43  1  0
  1 44  1  0
  1 45  1  0
  2 46  1  0
  2 47  1  0
  3 48  1  0
  4 49  1  0
  4 50  1  0
  5 51  1  0
  5 52  1  0
  5 53  1  0
  6 54  1  0
  6 55  1  0
  7 56  1  0
  7 57  1  0
  9 58  1  0
  9 59  1  0
 10 60  1  0
 10 61  1  0
 13 62  1  0
 13 63  1  0
 15 64  1  0
 16 65  1  0
 19 66  1  0
 19 67  1  0
 19 68  1  0
 20 69  1  0
 21 70  1  0
 24 71  1  0
 26 72  1  0
 26 73  1  0
 27 74  1  0
 28 75  1  0
 28 76  1  0
 29 77  1  0
 29 78  1  0
 31 79  1  0
 32 80  1  0
 35 81  1  0
 35 82  1  0
 35 83  1  0
 38 84  1  0
 38 85  1  0
 38 86  1  0
 39 87  1  0
 40 88  1  0
 41 89  1  0
M  CHG  1   3   1
M  END
>  <UniqueID>  (3) 
3

>  <SMILES>  (3) 
CC[NH+](CC)CCOCCn1c(Cc2ccc(OC)cc2)nc2cc(CNCCc3ccc(OC)c(OC)c3)ccc21

>  <Energy>  (3) 
125.27002254644907

>  <Genealogy>  (3) 
CC[NH+](CC)CCOCCn1c(Cc2ccc(OC)cc2)nc2cc(CNCCc3ccc(OC)c(OC)c3)ccc21 (protonated)
CC[NH+](CC)CCOCCn1c(Cc2ccc(OC)cc2)nc2cc(CNCCc3ccc(OC)c(OC)c3)ccc21 (3D coordinates assigned)
CC[NH+](CC)CCOCCn1c(Cc2ccc(OC)cc2)nc2cc(CNCCc3ccc(OC)c(OC)c3)ccc21 (optimized conformer: 125.27002254644907 kcal/mol)

>  <smiles>  (3) 
CCN(CC)CCOCCn1c(Cc2ccc(OC)cc2)nc2cc(CNCCc3ccc(OC)c(OC)c3)ccc21

>  <score_type>  (3) 
oracle

>  <origin>  (3) 
adg

>  <m_score__min__energy>  (3) 
-9.5199999999999996

>  <m_primary>  (3) 
energy

$$$$
3:0
     RDKit          3D

 30 31  0  0  0  0  0  0  0  0999 V2000
   -9.2520   22.5800  -31.9680 C   0  0  0  0  0  0  0  0  0  0  0  0
   -7.7570   22.6100  -31.8040 C   0  0  0  0  0  0  0  0  0  0  0  0
   -7.2110   23.5960  -31.0810 C   0  0  0  0  0  0  0  0  0  0  0  0
   -5.7530   23.7790  -30.9890 C   0  0  0  0  0  0  0  0  0  0  0  0
   -5.1980   24.8950  -30.1460 C   0  0  0  0  0  0  0  0  0  0  0  0
   -3.8820   25.2860  -30.6410 N   0  0  0  0  0  0  0  0  0  0  0  0
   -4.9330   22.9280  -31.6090 C   0  0  0  0  0  0  0  0  0  0  0  0
   -5.4450   21.8240  -32.3720 N   0  0  0  0  0  0  0  0  0  0  0  0
   -4.4730   20.8510  -32.8980 C   0  0  0  0  0  0  0  0  0  0  0  0
   -5.1580   19.6170  -33.5090 C   0  0  0  0  0  0  0  0  0  0  0  0
   -6.2510   19.0690  -32.5810 C   0  0  0  0  0  0  0  0  0  0  0  0
   -7.1850   20.1610  -32.1330 C   0  0  0  0  0  0  0  0  0  0  0  0
   -8.1550   19.8750  -31.4450 O   0  0  0  0  0  0  0  0  0  0  0  0
   -6.8960   21.5920  -32.5400 C   0  0  1  0  0  0  0  0  0  0  0  0
   -9.7294   22.5704  -30.9771 H   0  0  0  0  0  0  0  0  0  0  0  0
   -9.5779   23.4718  -32.5234 H   0  0  0  0  0  0  0  0  0  0  0  0
   -9.5419   21.6759  -32.5234 H   0  0  0  0  0  0  0  0  0  0  0  0
   -7.8712   24.2897  -30.5398 H   0  0  0  0  0  0  0  0  0  0  0  0
   -5.8767   25.7594  -30.1930 H   0  0  0  0  0  0  0  0  0  0  0  0
   -5.1052   24.5504  -29.1055 H   0  0  0  0  0  0  0  0  0  0  0  0
   -3.5150   26.0470  -30.0240 H   0  0  0  0  0  0  0  0  0  0  0  0
   -4.0120   25.7100  -31.5880 H   0  0  0  0  0  0  0  0  0  0  0  0
   -3.8454   23.0747  -31.5344 H   0  0  0  0  0  0  0  0  0  0  0  0
   -3.8668   21.3404  -33.6746 H   0  0  0  0  0  0  0  0  0  0  0  0
   -3.8492   20.5097  -32.0587 H   0  0  0  0  0  0  0  0  0  0  0  0
   -5.6123   19.8987  -34.4704 H   0  0  0  0  0  0  0  0  0  0  0  0
   -4.3990   18.8337  -33.6518 H   0  0  0  0  0  0  0  0  0  0  0  0
   -6.8277   18.3027  -33.1198 H   0  0  0  0  0  0  0  0  0  0  0  0
   -5.7679   18.6382  -31.6916 H   0  0  0  0  0  0  0  0  0  0  0  0
   -7.1704   21.7370  -33.5953 H   0  0  0  0  0  0  0  0  0  0  0  0
  1  2  1  0
  2  3  2  0
  3  4  1  0
  4  5  1  0
  5  6  1  0
  4  7  2  0
  7  8  1  0
  8  9  1  0
  9 10  1  0
 10 11  1  0
 11 12  1  0
 12 13  2  0
 12 14  1  0
 14  2  1  0
 14  8  1  0
  1 15  1  0
  1 16  1  0
  1 17  1  0
  3 18  1  0
  5 19  1  0
  5 20  1  0
  6 21  1  0
  6 22  1  0
  7 23  1  0
  9 24  1  0
  9 25  1  0
 10 26  1  0
 10 27  1  0
 11 28  1  0
 11 29  1  0
 14 30  1  6
M  END
>  <UniqueID>  (4) 
4

>  <SMILES>  (4) 
CC1=CC(CN)=CN2CCCC(=O)[C@@H]12

>  <Energy>  (4) 
26.19058219370991

>  <Genealogy>  (4) 
CC1=CC(CN)=CN2CCCC(=O)[C@@H]12 (chirality)
CC1=CC(CN)=CN2CCCC(=O)[C@@H]12 (3D coordinates assigned)
CC1=CC(CN)=CN2CCCC(=O)[C@@H]12 (nonaromatic ring conformer: 26.19058219370991 kcal/mol)

>  <smiles>  (4) 
CC1=CC(CN)=CN2CCCC(=O)C12

>  <score_type>  (4) 
oracle

>  <origin>  (4) 
adg

>  <m_score__min__energy>  (4) 
-7.5999999999999996

>  <m_primary>  (4) 
energy

$$$$
4:0
     RDKit          3D

 36 36  0  0  0  0  0  0  0  0999 V2000
   -1.1960   23.7910  -29.3310 C   0  0  0  0  0  0  0  0  0  0  0  0
   -2.0840   24.8090  -28.7420 N   0  0  0  0  0  0  0  0  0  0  0  0
   -1.3100   25.6600  -27.8250 C   0  0  0  0  0  0  0  0  0  0  0  0
   -3.2140   24.1810  -28.0200 C   0  0  0  0  0  0  0  0  0  0  0  0
   -4.5650   24.5430  -28.6600 C   0  0  0  0  0  0  0  0  0  0  0  0
   -4.5450   24.4500  -30.1680 C   0  0  0  0  0  0  0  0  0  0  0  0
   -3.9900   25.3660  -30.8350 O   0  0  0  0  0  0  0  0  0  0  0  0
   -5.2120   23.3340  -30.8870 C   0  0  0  0  0  0  0  0  0  0  0  0
   -4.4690   22.3300  -31.5320 C   0  0  0  0  0  0  0  0  0  0  0  0
   -5.1130   21.2860  -32.2000 C   0  0  0  0  0  0  0  0  0  0  0  0
   -6.5200   21.2110  -32.2420 C   0  0  0  0  0  0  0  0  0  0  0  0
   -7.1890   20.1270  -32.9390 N   0  0  0  0  0  0  0  0  0  0  0  0
   -6.4490   19.2740  -33.8780 C   0  0  0  0  0  0  0  0  0  0  0  0
   -8.6160   19.8660  -32.7180 C   0  0  0  0  0  0  0  0  0  0  0  0
   -7.2590   22.2150  -31.5850 C   0  0  0  0  0  0  0  0  0  0  0  0
   -6.6130   23.2580  -30.9160 C   0  0  0  0  0  0  0  0  0  0  0  0
   -0.7026   23.2254  -28.5269 H   0  0  0  0  0  0  0  0  0  0  0  0
   -1.7881   23.1035  -29.9529 H   0  0  0  0  0  0  0  0  0  0  0  0
   -0.4345   24.2843  -29.9529 H   0  0  0  0  0  0  0  0  0  0  0  0
   -1.5521   25.3939  -26.7855 H   0  0  0  0  0  0  0  0  0  0  0  0
   -0.2352   25.5069  -28.0019 H   0  0  0  0  0  0  0  0  0  0  0  0
   -1.5640   26.7155  -28.0019 H   0  0  0  0  0  0  0  0  0  0  0  0
   -3.0893   23.0883  -28.0429 H   0  0  0  0  0  0  0  0  0  0  0  0
   -3.2119   24.5546  -26.9854 H   0  0  0  0  0  0  0  0  0  0  0  0
   -5.3313   23.8535  -28.2760 H   0  0  0  0  0  0  0  0  0  0  0  0
   -4.7856   25.5880  -28.3966 H   0  0  0  0  0  0  0  0  0  0  0  0
   -3.3698   22.3669  -31.5104 H   0  0  0  0  0  0  0  0  0  0  0  0
   -4.5136   20.5112  -32.7005 H   0  0  0  0  0  0  0  0  0  0  0  0
   -5.8297   18.5602  -33.3150 H   0  0  0  0  0  0  0  0  0  0  0  0
   -7.1599   18.7229  -34.5111 H   0  0  0  0  0  0  0  0  0  0  0  0
   -5.8031   19.9000  -34.5111 H   0  0  0  0  0  0  0  0  0  0  0  0
   -8.8189   19.8289  -31.6375 H   0  0  0  0  0  0  0  0  0  0  0  0
   -9.2110   20.6702  -33.1754 H   0  0  0  0  0  0  0  0  0  0  0  0
   -8.8878   18.9032  -33.1754 H   0  0  0  0  0  0  0  0  0  0  0  0
   -8.3583   22.1772  -31.5989 H   0  0  0  0  0  0  0  0  0  0  0  0
   -7.2097   24.0286  -30.4060 H   0  0  0  0  0  0  0  0  0  0  0  0
  1  2  1  0
  2  3  1  0
  2  4  1  0
  4  5  1  0
  5  6  1  0
  6  7  2  0
  6  8  1  0
  8  9  2  0
  9 10  1  0
 10 11  2  0
 11 12  1  0
 12 13  1  0
 12 14  1  0
 11 15  1  0
 15 16  2  0
 16  8  1  0
  1 17  1  0
  1 18  1  0
  1 19  1  0
  3 20  1  0
  3 21  1  0
  3 22  1  0
  4 23  1  0
  4 24  1  0
  5 25  1  0
  5 26  1  0
  9 27  1  0
 10 28  1  0
 13 29  1  0
 13 30  1  0
 13 31  1  0
 14 32  1  0
 14 33  1  0
 14 34  1  0
 15 35  1  0
 16 36  1  0
M  END
>  <UniqueID>  (5) 
5

>  <SMILES>  (5) 
CN(C)CCC(=O)c1ccc(N(C)C)cc1

>  <Energy>  (5) 
36.33061136403248

>  <Genealogy>  (5) 
CN(C)CCC(=O)c1ccc(N(C)C)cc1 (3D coordinates assigned)
CN(C)CCC(=O)c1ccc(N(C)C)cc1 (optimized conformer: 36.33061136403248 kcal/mol)

>  <smiles>  (5) 
CN(C)CCC(=O)c1ccc(N(C)C)cc1

>  <score_type>  (5) 
oracle

>  <origin>  (5) 
adg

>  <m_score__min__energy>  (5) 
-6.3700000000000001

>  <m_primary>  (5) 
energy

$$$$
5:0
     RDKit          3D

 63 65  0  0  0  0  0  0  0  0999 V2000
   -2.3890   20.4740  -27.5040 C   0  0  0  0  0  0  0  0  0  0  0  0
   -2.4190   21.1420  -28.8900 C   0  0  0  0  0  0  0  0  0  0  0  0
   -1.1630   21.8480  -29.2840 N   0  0  0  0  0  0  0  0  0  0  0  0
   -0.6190   21.4090  -30.5990 C   0  0  0  0  0  0  0  0  0  0  0  0
   -0.0990   19.9630  -30.5770 C   0  0  0  0  0  0  0  0  0  0  0  0
   -0.1130   21.7560  -28.2280 C   0  0  0  0  0  0  0  0  0  0  0  0
    0.3430   23.1430  -27.7340 C   0  0  0  0  0  0  0  0  0  0  0  0
   -0.2060   24.1590  -28.5570 O   0  0  0  0  0  0  0  0  0  0  0  0
   -1.0310   25.0380  -27.8160 C   0  0  0  0  0  0  0  0  0  0  0  0
   -2.5030   24.8720  -28.2140 C   0  0  0  0  0  0  0  0  0  0  0  0
   -2.6260   24.6320  -29.6150 O   0  0  0  0  0  0  0  0  0  0  0  0
   -3.8540   24.5800  -30.2880 C   0  0  0  0  0  0  0  0  0  0  0  0
   -4.3240   25.6050  -30.8550 O   0  0  0  0  0  0  0  0  0  0  0  0
   -4.6190   23.2950  -30.3550 C   0  0  0  0  0  0  0  0  0  0  0  0
   -5.1850   23.0960  -31.6860 N   0  0  0  0  0  0  0  0  0  0  0  0
   -5.4000   21.7780  -32.2170 C   0  0  0  0  0  0  0  0  0  0  0  0
   -6.6570   21.1600  -32.0940 C   0  0  0  0  0  0  0  0  0  0  0  0
   -7.7280   21.8150  -31.4470 C   0  0  0  0  0  0  0  0  0  0  0  0
   -8.9520   21.1750  -31.2690 C   0  0  0  0  0  0  0  0  0  0  0  0
   -9.1280   19.8730  -31.7200 C   0  0  0  0  0  0  0  0  0  0  0  0
   -8.0960   19.2190  -32.3950 C   0  0  0  0  0  0  0  0  0  0  0  0
   -6.8550   19.8630  -32.6380 C   0  0  0  0  0  0  0  0  0  0  0  0
   -5.8510   19.2580  -33.3740 N   0  0  0  0  0  0  0  0  0  0  0  0
   -6.1490   18.0570  -34.1860 C   0  0  0  0  0  0  0  0  0  0  0  0
   -4.5750   19.7940  -33.3790 C   0  0  0  0  0  0  0  0  0  0  0  0
   -3.4660   19.0830  -33.9060 C   0  0  0  0  0  0  0  0  0  0  0  0
   -2.1930   19.6510  -33.9380 C   0  0  0  0  0  0  0  0  0  0  0  0
   -1.9860   20.9310  -33.4390 C   0  0  0  0  0  0  0  0  0  0  0  0
   -3.0460   21.6400  -32.8770 C   0  0  0  0  0  0  0  0  0  0  0  0
   -4.3430   21.0830  -32.8290 C   0  0  0  0  0  0  0  0  0  0  0  0
   -2.4238   21.2480  -26.7231 H   0  0  0  0  0  0  0  0  0  0  0  0
   -3.2581   19.8080  -27.3991 H   0  0  0  0  0  0  0  0  0  0  0  0
   -1.4637   19.8886  -27.3991 H   0  0  0  0  0  0  0  0  0  0  0  0
   -2.6201   20.3621  -29.6392 H   0  0  0  0  0  0  0  0  0  0  0  0
   -3.2000   21.9149  -28.8391 H   0  0  0  0  0  0  0  0  0  0  0  0
   -1.4080   22.8620  -29.3990 H   0  0  0  0  0  0  0  0  0  0  0  0
   -1.4174   21.4837  -31.3520 H   0  0  0  0  0  0  0  0  0  0  0  0
    0.2322   22.0629  -30.8396 H   0  0  0  0  0  0  0  0  0  0  0  0
    0.0200   19.6320  -29.5348 H   0  0  0  0  0  0  0  0  0  0  0  0
   -0.8176   19.3071  -31.0902 H   0  0  0  0  0  0  0  0  0  0  0  0
    0.8727   19.9149  -31.0902 H   0  0  0  0  0  0  0  0  0  0  0  0
   -0.5179   21.1921  -27.3747 H   0  0  0  0  0  0  0  0  0  0  0  0
    0.7607   21.2506  -28.6653 H   0  0  0  0  0  0  0  0  0  0  0  0
    0.0025   23.2903  -26.6984 H   0  0  0  0  0  0  0  0  0  0  0  0
    1.4407   23.1978  -27.7789 H   0  0  0  0  0  0  0  0  0  0  0  0
   -0.9206   24.8178  -26.7439 H   0  0  0  0  0  0  0  0  0  0  0  0
   -0.7235   26.0724  -28.0291 H   0  0  0  0  0  0  0  0  0  0  0  0
   -2.9315   24.0214  -27.6636 H   0  0  0  0  0  0  0  0  0  0  0  0
   -3.0413   25.7989  -27.9669 H   0  0  0  0  0  0  0  0  0  0  0  0
   -3.9418   22.4599  -30.1228 H   0  0  0  0  0  0  0  0  0  0  0  0
   -5.4412   23.3363  -29.6254 H   0  0  0  0  0  0  0  0  0  0  0  0
   -5.1580   23.8980  -32.3580 H   0  0  0  0  0  0  0  0  0  0  0  0
   -7.5938   22.8430  -31.0793 H   0  0  0  0  0  0  0  0  0  0  0  0
   -9.7799   21.7008  -30.7710 H   0  0  0  0  0  0  0  0  0  0  0  0
  -10.0830   19.3561  -31.5448 H   0  0  0  0  0  0  0  0  0  0  0  0
   -8.2472   18.1870  -32.7445 H   0  0  0  0  0  0  0  0  0  0  0  0
   -6.3598   17.2072  -33.5201 H   0  0  0  0  0  0  0  0  0  0  0  0
   -7.0260   18.2519  -34.8207 H   0  0  0  0  0  0  0  0  0  0  0  0
   -5.2826   17.8193  -34.8207 H   0  0  0  0  0  0  0  0  0  0  0  0
   -3.6132   18.0652  -34.2964 H   0  0  0  0  0  0  0  0  0  0  0  0
   -1.3500   19.0839  -34.3596 H   0  0  0  0  0  0  0  0  0  0  0  0
   -0.9852   21.3849  -33.4875 H   0  0  0  0  0  0  0  0  0  0  0  0
   -2.8705   22.6451  -32.4660 H   0  0  0  0  0  0  0  0  0  0  0  0
  1  2  1  0
  2  3  1  0
  3  4  1  0
  4  5  1  0
  3  6  1  0
  6  7  1  0
  7  8  1  0
  8  9  1  0
  9 10  1  0
 10 11  1  0
 11 12  1  0
 12 13  2  0
 12 14  1  0
 14 15  1  0
 15 16  1  0
 16 17  2  0
 17 18  1  0
 18 19  2  0
 19 20  1  0
 20 21  2  0
 21 22  1  0
 22 23  2  0
 23 24  1  0
 23 25  1  0
 25 26  2  0
 26 27  1  0
 27 28  2  0
 28 29  1  0
 29 30  2  0
 30 16  1  0
 22 17  1  0
 30 25  1  0
  1 31  1  0
  1 32  1  0
  1 33  1  0
  2 34  1  0
  2 35  1  0
  3 36  1  0
  4 37  1  0
  4 38  1  0
  5 39  1  0
  5 40  1  0
  5 41  1  0
  6 42  1  0
  6 43  1  0
  7 44  1  0
  7 45  1  0
  9 46  1  0
  9 47  1  0
 10 48  1  0
 10 49  1  0
 14 50  1  0
 14 51  1  0
 15 52  1  0
 18 53  1  0
 19 54  1  0
 20 55  1  0
 21 56  1  0
 24 57  1  0
 24 58  1  0
 24 59  1  0
 26 60  1  0
 27 61  1  0
 28 62  1  0
 29 63  1  0
M  CHG  2   3   1  23   1
M  END
>  <UniqueID>  (6) 
6

>  <SMILES>  (6) 
CC[NH+](CC)CCOCCOC(=O)CNc1c2ccccc2[n+](C)c2ccccc12

>  <Energy>  (6) 
93.88863823549822

>  <Genealogy>  (6) 
CC[NH+](CC)CCOCCOC(=O)CNc1c2ccccc2[n+](C)c2ccccc12 (protonated)
CC[NH+](CC)CCOCCOC(=O)CNc1c2ccccc2[n+](C)c2ccccc12 (3D coordinates assigned)
CC[NH+](CC)CCOCCOC(=O)CNc1c2ccccc2[n+](C)c2ccccc12 (optimized conformer: 93.88863823549822 kcal/mol)

>  <smiles>  (6) 
CCN(CC)CCOCCOC(=O)CNc1c2ccccc2[n+](C)c2ccccc12

>  <score_type>  (6) 
oracle

>  <origin>  (6) 
adg

>  <m_score__min__energy>  (6) 
-8.7200000000000006

>  <m_primary>  (6) 
energy

$$$$
6:0
     RDKit          3D

 57 60  0  0  0  0  0  0  0  0999 V2000
   -6.2570   25.5780  -29.5840 C   0  0  0  0  0  0  0  0  0  0  0  0
   -5.3750   25.6480  -30.8350 C   0  0  0  0  0  0  0  0  0  0  0  0
   -4.4220   24.5280  -30.9120 N   0  0  0  0  0  0  0  0  0  0  0  0
   -4.3090   23.8180  -29.6320 C   0  0  0  0  0  0  0  0  0  0  0  0
   -3.0070   23.0130  -29.5870 C   0  0  0  0  0  0  0  0  0  0  0  0
   -2.3750   23.0330  -30.8540 O   0  0  0  0  0  0  0  0  0  0  0  0
   -1.8580   21.7600  -31.1940 C   0  0  0  0  0  0  0  0  0  0  0  0
   -1.7480   21.6190  -32.7150 C   0  0  0  0  0  0  0  0  0  0  0  0
   -3.1290   21.5870  -33.3740 C   0  0  0  0  0  0  0  0  0  0  0  0
   -4.1690   21.7380  -32.3590 N   0  0  0  0  0  0  0  0  0  0  0  0
   -5.3660   20.9460  -32.3950 C   0  0  0  0  0  0  0  0  0  0  0  0
   -5.3120   19.6050  -32.7640 C   0  0  0  0  0  0  0  0  0  0  0  0
   -6.4560   18.8260  -32.7800 C   0  0  0  0  0  0  0  0  0  0  0  0
   -7.6670   19.3070  -32.3450 N   0  0  0  0  0  0  0  0  0  0  0  0
   -8.7790   18.3830  -32.0750 C   0  0  0  0  0  0  0  0  0  0  0  0
   -7.7860   20.6660  -32.1080 C   0  0  0  0  0  0  0  0  0  0  0  0
   -9.0340   21.2890  -31.8750 C   0  0  0  0  0  0  0  0  0  0  0  0
   -9.1080   22.6580  -31.6240 C   0  0  0  0  0  0  0  0  0  0  0  0
   -7.9430   23.4200  -31.6200 C   0  0  0  0  0  0  0  0  0  0  0  0
   -6.7450   22.8330  -31.8710 N   0  0  0  0  0  0  0  0  0  0  0  0
   -6.6270   21.4990  -32.1130 C   0  0  0  0  0  0  0  0  0  0  0  0
   -6.0730   17.4840  -33.2370 C   0  0  0  0  0  0  0  0  0  0  0  0
   -6.8430   16.3800  -33.6330 C   0  0  0  0  0  0  0  0  0  0  0  0
   -6.1880   15.2340  -34.1060 C   0  0  0  0  0  0  0  0  0  0  0  0
   -4.7880   15.2130  -34.2200 C   0  0  0  0  0  0  0  0  0  0  0  0
   -4.0340   16.3470  -33.8870 C   0  0  0  0  0  0  0  0  0  0  0  0
   -4.6980   17.4770  -33.4080 C   0  0  0  0  0  0  0  0  0  0  0  0
   -4.0900   18.8110  -33.1190 C   0  0  0  0  0  0  0  0  0  0  0  0
   -5.6240   25.6282  -28.6858 H   0  0  0  0  0  0  0  0  0  0  0  0
   -6.9612   26.4231  -29.5841 H   0  0  0  0  0  0  0  0  0  0  0  0
   -6.8190   24.6324  -29.5841 H   0  0  0  0  0  0  0  0  0  0  0  0
   -6.0212   25.6241  -31.7249 H   0  0  0  0  0  0  0  0  0  0  0  0
   -4.7939   26.5806  -30.7845 H   0  0  0  0  0  0  0  0  0  0  0  0
   -3.4790   24.8860  -31.1970 H   0  0  0  0  0  0  0  0  0  0  0  0
   -4.3131   24.5486  -28.8096 H   0  0  0  0  0  0  0  0  0  0  0  0
   -5.1605   23.1296  -29.5270 H   0  0  0  0  0  0  0  0  0  0  0  0
   -2.3330   23.4540  -28.8379 H   0  0  0  0  0  0  0  0  0  0  0  0
   -3.2382   21.9718  -29.3179 H   0  0  0  0  0  0  0  0  0  0  0  0
   -0.8604   21.6421  -30.7457 H   0  0  0  0  0  0  0  0  0  0  0  0
   -2.5376   20.9843  -30.8113 H   0  0  0  0  0  0  0  0  0  0  0  0
   -1.1809   22.4732  -33.1136 H   0  0  0  0  0  0  0  0  0  0  0  0
   -1.2355   20.6718  -32.9388 H   0  0  0  0  0  0  0  0  0  0  0  0
   -3.2057   22.4100  -34.0998 H   0  0  0  0  0  0  0  0  0  0  0  0
   -3.2623   20.6236  -33.8880 H   0  0  0  0  0  0  0  0  0  0  0  0
   -4.2050   22.6560  -31.8640 H   0  0  0  0  0  0  0  0  0  0  0  0
   -8.9098   18.2743  -30.9882 H   0  0  0  0  0  0  0  0  0  0  0  0
   -9.7034   18.7826  -32.5174 H   0  0  0  0  0  0  0  0  0  0  0  0
   -8.5554   17.4010  -32.5174 H   0  0  0  0  0  0  0  0  0  0  0  0
   -9.9549   20.6876  -31.8920 H   0  0  0  0  0  0  0  0  0  0  0  0
  -10.0809   23.1334  -31.4303 H   0  0  0  0  0  0  0  0  0  0  0  0
   -7.9933   24.4992  -31.4132 H   0  0  0  0  0  0  0  0  0  0  0  0
   -7.9409   16.4129  -33.5735 H   0  0  0  0  0  0  0  0  0  0  0  0
   -6.7734   14.3468  -34.3893 H   0  0  0  0  0  0  0  0  0  0  0  0
   -4.2810   14.3025  -34.5722 H   0  0  0  0  0  0  0  0  0  0  0  0
   -2.9399   16.3460  -34.0011 H   0  0  0  0  0  0  0  0  0  0  0  0
   -3.3821   18.7599  -32.2786 H   0  0  0  0  0  0  0  0  0  0  0  0
   -3.4981   19.2308  -33.9457 H   0  0  0  0  0  0  0  0  0  0  0  0
  1  2  1  0
  2  3  1  0
  3  4  1  0
  4  5  1  0
  5  6  1  0
  6  7  1  0
  7  8  1  0
  8  9  1  0
  9 10  1  0
 10 11  1  0
 11 12  2  0
 12 13  1  0
 13 14  2  0
 14 15  1  0
 14 16  1  0
 16 17  2  0
 17 18  1  0
 18 19  2  0
 19 20  1  0
 20 21  2  0
 13 22  1  0
 22 23  2  0
 23 24  1  0
 24 25  2  0
 25 26  1  0
 26 27  2  0
 27 28  1  0
 21 11  1  0
 27 22  1  0
 28 12  1  0
 21 16  1  0
  1 29  1  0
  1 30  1  0
  1 31  1  0
  2 32  1  0
  2 33  1  0
  3 34  1  0
  4 35  1  0
  4 36  1  0
  5 37  1  0
  5 38  1  0
  7 39  1  0
  7 40  1  0
  8 41  1  0
  8 42  1  0
  9 43  1  0
  9 44  1  0
 10 45  1  0
 15 46  1  0
 15 47  1  0
 15 48  1  0
 17 49  1  0
 18 50  1  0
 19 51  1  0
 23 52  1  0
 24 53  1  0
 25 54  1  0
 26 55  1  0
 28 56  1  0
 28 57  1  0
M  CHG  1  14   1
M  END
>  <UniqueID>  (7) 
7

>  <SMILES>  (7) 
CCNCCOCCCNc1c2c([n+](C)c3cccnc13)-c1ccccc1C2

>  <Energy>  (7) 
95.45878654124385

>  <Genealogy>  (7) 
CCNCCOCCCNc1c2c([n+](C)c3cccnc13)-c1ccccc1C2 (3D coordinates assigned)
CCNCCOCCCNc1c2c([n+](C)c3cccnc13)-c1ccccc1C2 (nonaromatic ring conformer: 95.45878654124385 kcal/mol)

>  <smiles>  (7) 
CCNCCOCCCNc1c2c([n+](C)c3cccnc13)-c1ccccc1C2

>  <score_type>  (7) 
oracle

>  <origin>  (7) 
adg

>  <m_score__min__energy>  (7) 
-9.6400000000000006

>  <m_primary>  (7) 
energy

$$$$
7:0
     RDKit          3D

 43 45  0  0  0  0  0  0  0  0999 V2000
   -5.0720   25.3310  -30.4510 C   0  0  0  0  0  0  0  0  0  0  0  0
   -3.9000   24.4600  -30.6350 N   0  0  0  0  0  0  0  0  0  0  0  0
   -3.1850   24.3240  -29.3540 C   0  0  0  0  0  0  0  0  0  0  0  0
   -4.3220   23.1400  -31.1550 C   0  0  0  0  0  0  0  0  0  0  0  0
   -3.1190   22.2150  -31.3900 C   0  0  0  0  0  0  0  0  0  0  0  0
   -3.3180   21.3160  -32.6160 C   0  0  0  0  0  0  0  0  0  0  0  0
   -4.6050   21.6050  -33.2460 N   0  0  0  0  0  0  0  0  0  0  0  0
   -5.7560   20.7940  -32.9680 C   0  0  0  0  0  0  0  0  0  0  0  0
   -6.9650   21.3410  -32.4880 C   0  0  0  0  0  0  0  0  0  0  0  0
   -7.1160   22.7350  -32.3450 C   0  0  0  0  0  0  0  0  0  0  0  0
   -8.3220   23.2760  -31.9050 C   0  0  0  0  0  0  0  0  0  0  0  0
   -9.4000   22.4450  -31.6220 C   0  0  0  0  0  0  0  0  0  0  0  0
   -9.2830   21.0620  -31.7680 C   0  0  0  0  0  0  0  0  0  0  0  0
   -8.0640   20.4720  -32.1880 C   0  0  0  0  0  0  0  0  0  0  0  0
   -7.9310   19.0970  -32.3340 N   0  0  0  0  0  0  0  0  0  0  0  0
   -9.0040   18.1810  -31.8970 C   0  0  0  0  0  0  0  0  0  0  0  0
   -6.7840   18.5970  -32.9070 C   0  0  0  0  0  0  0  0  0  0  0  0
   -6.5330   17.2530  -33.2570 C   0  0  0  0  0  0  0  0  0  0  0  0
   -5.2660   17.0530  -33.7970 C   0  0  0  0  0  0  0  0  0  0  0  0
   -4.4570   18.5280  -33.8590 S   0  0  0  0  0  0  0  0  0  0  0  0
   -5.7170   19.4280  -33.2060 C   0  0  0  0  0  0  0  0  0  0  0  0
   -5.2599   25.4707  -29.3762 H   0  0  0  0  0  0  0  0  0  0  0  0
   -4.8803   26.3075  -30.9196 H   0  0  0  0  0  0  0  0  0  0  0  0
   -5.9518   24.8658  -30.9196 H   0  0  0  0  0  0  0  0  0  0  0  0
   -3.8929   24.4586  -28.5229 H   0  0  0  0  0  0  0  0  0  0  0  0
   -2.7320   23.3236  -29.2914 H   0  0  0  0  0  0  0  0  0  0  0  0
   -2.3963   25.0882  -29.2914 H   0  0  0  0  0  0  0  0  0  0  0  0
   -4.9980   22.6686  -30.4264 H   0  0  0  0  0  0  0  0  0  0  0  0
   -4.8301   23.2957  -32.1181 H   0  0  0  0  0  0  0  0  0  0  0  0
   -2.2212   22.8317  -31.5436 H   0  0  0  0  0  0  0  0  0  0  0  0
   -3.0101   21.5676  -30.5074 H   0  0  0  0  0  0  0  0  0  0  0  0
   -2.5094   21.5013  -33.3383 H   0  0  0  0  0  0  0  0  0  0  0  0
   -3.3008   20.2632  -32.2976 H   0  0  0  0  0  0  0  0  0  0  0  0
   -4.5850   22.1320  -34.1480 H   0  0  0  0  0  0  0  0  0  0  0  0
   -6.2741   23.4017  -32.5829 H   0  0  0  0  0  0  0  0  0  0  0  0
   -8.4217   24.3644  -31.7811 H   0  0  0  0  0  0  0  0  0  0  0  0
  -10.3509   22.8802  -31.2809 H   0  0  0  0  0  0  0  0  0  0  0  0
  -10.1499   20.4197  -31.5539 H   0  0  0  0  0  0  0  0  0  0  0  0
   -9.0370   18.1528  -30.7979 H   0  0  0  0  0  0  0  0  0  0  0  0
   -9.9702   18.5371  -32.2838 H   0  0  0  0  0  0  0  0  0  0  0  0
   -8.8039   17.1709  -32.2838 H   0  0  0  0  0  0  0  0  0  0  0  0
   -7.2655   16.4444  -33.1170 H   0  0  0  0  0  0  0  0  0  0  0  0
   -4.8588   16.0868  -34.1297 H   0  0  0  0  0  0  0  0  0  0  0  0
  1  2  1  0
  2  3  1  0
  2  4  1  0
  4  5  1  0
  5  6  1  0
  6  7  1  0
  7  8  1  0
  8  9  2  0
  9 10  1  0
 10 11  2  0
 11 12  1  0
 12 13  2  0
 13 14  1  0
 14 15  2  0
 15 16  1  0
 15 17  1  0
 17 18  1  0
 18 19  2  0
 19 20  1  0
 20 21  1  0
 21  8  1  0
 14  9  1  0
 21 17  2  0
  1 22  1  0
  1 23  1  0
  1 24  1  0
  3 25  1  0
  3 26  1  0
  3 27  1  0
  4 28  1  0
  4 29  1  0
  5 30  1  0
  5 31  1  0
  6 32  1  0
  6 33  1  0
  7 34  1  0
 10 35  1  0
 11 36  1  0
 12 37  1  0
 13 38  1  0
 16 39  1  0
 16 40  1  0
 16 41  1  0
 18 42  1  0
 19 43  1  0
M  CHG  1  15   1
M  END
>  <UniqueID>  (8) 
8

>  <SMILES>  (8) 
CN(C)CCCNc1c2ccccc2[n+](C)c2ccsc12

>  <Energy>  (8) 
88.88991886416237

>  <Genealogy>  (8) 
CN(C)CCCNc1c2ccccc2[n+](C)c2ccsc12 (3D coordinates assigned)
CN(C)CCCNc1c2ccccc2[n+](C)c2ccsc12 (optimized conformer: 88.88991886416237 kcal/mol)

>  <smiles>  (8) 
CN(C)CCCNc1c2ccccc2[n+](C)c2ccsc12

>  <score_type>  (8) 
oracle

>  <origin>  (8) 
adg

>  <m_score__min__energy>  (8) 
-7.96

>  <m_primary>  (8) 
energy

$$$$
8:0
     RDKit          3D

 85 89  0  0  0  0  0  0  0  0999 V2000
   -5.0630   23.7070  -29.0190 C   0  0  0  0  0  0  0  0  0  0  0  0
   -4.3410   24.8470  -29.7290 C   0  0  0  0  0  0  0  0  0  0  0  0
   -4.5450   24.7560  -31.1810 N   0  0  0  0  0  0  0  0  0  0  0  0
   -5.9650   24.5970  -31.5210 C   0  0  0  0  0  0  0  0  0  0  0  0
   -6.2120   23.2500  -32.2120 C   0  0  0  0  0  0  0  0  0  0  0  0
   -5.2000   22.2420  -31.8730 N   0  0  0  0  0  0  0  0  0  0  0  0
   -5.3080   20.8660  -32.2820 C   0  0  0  0  0  0  0  0  0  0  0  0
   -6.5450   20.2060  -32.1780 C   0  0  0  0  0  0  0  0  0  0  0  0
   -7.5800   20.7280  -31.3750 C   0  0  0  0  0  0  0  0  0  0  0  0
   -8.7990   20.0640  -31.2620 C   0  0  0  0  0  0  0  0  0  0  0  0
   -8.9990   18.8610  -31.9250 C   0  0  0  0  0  0  0  0  0  0  0  0
   -7.9830   18.3150  -32.7100 C   0  0  0  0  0  0  0  0  0  0  0  0
   -6.7410   18.9820  -32.8660 C   0  0  0  0  0  0  0  0  0  0  0  0
   -5.7310   18.4680  -33.6520 N   0  0  0  0  0  0  0  0  0  0  0  0
   -6.0300   17.4000  -34.6310 C   0  0  0  0  0  0  0  0  0  0  0  0
   -4.4440   18.9560  -33.5290 C   0  0  0  0  0  0  0  0  0  0  0  0
   -3.3420   18.2570  -34.0760 C   0  0  0  0  0  0  0  0  0  0  0  0
   -2.0550   18.7700  -33.9980 C   0  0  0  0  0  0  0  0  0  0  0  0
   -1.8160   19.9670  -33.3440 C   0  0  0  0  0  0  0  0  0  0  0  0
   -2.8650   20.6760  -32.7340 C   0  0  0  0  0  0  0  0  0  0  0  0
   -2.6060   21.8450  -31.9950 O   0  0  0  0  0  0  0  0  0  0  0  0
   -1.5870   22.0260  -31.0100 C   0  0  0  0  0  0  0  0  0  0  0  0
   -1.5900   20.8350  -30.0220 C   0  0  0  0  0  0  0  0  0  0  0  0
   -1.5570   21.1750  -28.5600 N   0  0  2  0  0  0  0  0  0  0  0  0
   -2.3520   20.1190  -27.8730 C   0  0  0  0  0  0  0  0  0  0  0  0
   -2.2040   22.5020  -28.2840 C   0  0  0  0  0  0  0  0  0  0  0  0
   -1.1730   23.6220  -28.0430 C   0  0  0  0  0  0  0  0  0  0  0  0
   -0.3130   23.3620  -26.8440 N   0  0  1  0  0  0  0  0  0  0  0  0
    0.9560   24.1140  -27.0140 C   0  0  0  0  0  0  0  0  0  0  0  0
   -0.9890   23.7890  -25.5710 C   0  0  0  0  0  0  0  0  0  0  0  0
   -0.7680   25.2070  -25.2150 N   0  0  0  0  0  0  0  0  0  0  0  0
   -1.4020   26.1940  -25.9260 C   0  0  0  0  0  0  0  0  0  0  0  0
   -1.2380   27.5380  -25.5830 C   0  0  0  0  0  0  0  0  0  0  0  0
   -0.4450   27.8740  -24.4880 C   0  0  0  0  0  0  0  0  0  0  0  0
    0.1630   26.8650  -23.7430 C   0  0  0  0  0  0  0  0  0  0  0  0
   -0.0200   25.5310  -24.1150 C   0  0  0  0  0  0  0  0  0  0  0  0
    0.0190   21.8980  -26.7210 C   0  0  0  0  0  0  0  0  0  0  0  0
   -0.1520   21.1170  -28.0430 C   0  0  0  0  0  0  0  0  0  0  0  0
   -4.2000   20.1800  -32.8390 C   0  0  0  0  0  0  0  0  0  0  0  0
   -4.9782   23.8408  -27.9305 H   0  0  0  0  0  0  0  0  0  0  0  0
   -6.1246   23.7094  -29.3072 H   0  0  0  0  0  0  0  0  0  0  0  0
   -4.6070   22.7483  -29.3072 H   0  0  0  0  0  0  0  0  0  0  0  0
   -4.7360   25.8076  -29.3669 H   0  0  0  0  0  0  0  0  0  0  0  0
   -3.2644   24.7764  -29.5145 H   0  0  0  0  0  0  0  0  0  0  0  0
   -4.2320   25.6660  -31.5870 H   0  0  0  0  0  0  0  0  0  0  0  0
   -6.5640   24.6449  -30.5996 H   0  0  0  0  0  0  0  0  0  0  0  0
   -6.2555   25.4047  -32.2089 H   0  0  0  0  0  0  0  0  0  0  0  0
   -7.1991   22.8737  -31.9055 H   0  0  0  0  0  0  0  0  0  0  0  0
   -6.1588   23.4203  -33.2974 H   0  0  0  0  0  0  0  0  0  0  0  0
   -4.4370   22.5150  -31.2150 H   0  0  0  0  0  0  0  0  0  0  0  0
   -7.4226   21.6712  -30.8312 H   0  0  0  0  0  0  0  0  0  0  0  0
   -9.6038   20.4931  -30.6470 H   0  0  0  0  0  0  0  0  0  0  0  0
   -9.9614   18.3366  -31.8312 H   0  0  0  0  0  0  0  0  0  0  0  0
   -8.1478   17.3522  -33.2158 H   0  0  0  0  0  0  0  0  0  0  0  0
   -6.2891   16.4744  -34.0961 H   0  0  0  0  0  0  0  0  0  0  0  0
   -6.8765   17.7079  -35.2624 H   0  0  0  0  0  0  0  0  0  0  0  0
   -5.1467   17.2236  -35.2624 H   0  0  0  0  0  0  0  0  0  0  0  0
   -3.5085   17.2894  -34.5720 H   0  0  0  0  0  0  0  0  0  0  0  0
   -1.2195   18.2224  -34.4585 H   0  0  0  0  0  0  0  0  0  0  0  0
   -0.7925   20.3678  -33.3014 H   0  0  0  0  0  0  0  0  0  0  0  0
   -0.6070   22.0856  -31.5061 H   0  0  0  0  0  0  0  0  0  0  0  0
   -1.7811   22.9561  -30.4557 H   0  0  0  0  0  0  0  0  0  0  0  0
   -2.5023   20.2492  -30.2080 H   0  0  0  0  0  0  0  0  0  0  0  0
   -0.6515   20.2948  -30.2157 H   0  0  0  0  0  0  0  0  0  0  0  0
   -2.2600   20.2412  -26.7837 H   0  0  0  0  0  0  0  0  0  0  0  0
   -3.4090   20.2082  -28.1640 H   0  0  0  0  0  0  0  0  0  0  0  0
   -1.9740   19.1278  -28.1640 H   0  0  0  0  0  0  0  0  0  0  0  0
   -2.8280   22.7766  -29.1472 H   0  0  0  0  0  0  0  0  0  0  0  0
   -2.8043   22.3974  -27.3682 H   0  0  0  0  0  0  0  0  0  0  0  0
   -0.5269   23.7034  -28.9295 H   0  0  0  0  0  0  0  0  0  0  0  0
   -1.7283   24.5538  -27.8602 H   0  0  0  0  0  0  0  0  0  0  0  0
    1.3715   24.3602  -26.0257 H   0  0  0  0  0  0  0  0  0  0  0  0
    1.6762   23.4968  -27.5711 H   0  0  0  0  0  0  0  0  0  0  0  0
    0.7604   25.0421  -27.5711 H   0  0  0  0  0  0  0  0  0  0  0  0
   -2.0710   23.6258  -25.6832 H   0  0  0  0  0  0  0  0  0  0  0  0
   -0.5496   23.1872  -24.7618 H   0  0  0  0  0  0  0  0  0  0  0  0
   -2.0466   25.9241  -26.7755 H   0  0  0  0  0  0  0  0  0  0  0  0
   -1.7310   28.3248  -26.1727 H   0  0  0  0  0  0  0  0  0  0  0  0
   -0.2996   28.9291  -24.2130 H   0  0  0  0  0  0  0  0  0  0  0  0
    0.7819   27.1171  -22.8693 H   0  0  0  0  0  0  0  0  0  0  0  0
    0.4422   24.7316  -23.5172 H   0  0  0  0  0  0  0  0  0  0  0  0
    1.0648   21.8040  -26.3932 H   0  0  0  0  0  0  0  0  0  0  0  0
   -0.6848   21.4653  -25.9948 H   0  0  0  0  0  0  0  0  0  0  0  0
    0.5210   21.5486  -28.7985 H   0  0  0  0  0  0  0  0  0  0  0  0
    0.0903   20.0625  -27.8447 H   0  0  0  0  0  0  0  0  0  0  0  0
  1  2  1  0
  2  3  1  0
  3  4  1  0
  4  5  1  0
  5  6  1  0
  6  7  1  0
  7  8  2  0
  8  9  1  0
  9 10  2  0
 10 11  1  0
 11 12  2  0
 12 13  1  0
 13 14  2  0
 14 15  1  0
 14 16  1  0
 16 17  2  0
 17 18  1  0
 18 19  2  0
 19 20  1  0
 20 21  1  0
 21 22  1  0
 22 23  1  0
 24 23  1  6
 24 25  1  0
 24 26  1  0
 26 27  1  0
 27 28  1  0
 28 29  1  6
 28 30  1  0
 30 31  1  0
 31 32  2  0
 32 33  1  0
 33 34  2  0
 34 35  1  0
 35 36  2  0
 28 37  1  0
 37 38  1  0
 20 39  2  0
 39  7  1  0
 13  8  1  0
 39 16  1  0
 38 24  1  0
 36 31  1  0
  1 40  1  0
  1 41  1  0
  1 42  1  0
  2 43  1  0
  2 44  1  0
  3 45  1  0
  4 46  1  0
  4 47  1  0
  5 48  1  0
  5 49  1  0
  6 50  1  0
  9 51  1  0
 10 52  1  0
 11 53  1  0
 12 54  1  0
 15 55  1  0
 15 56  1  0
 15 57  1  0
 17 58  1  0
 18 59  1  0
 19 60  1  0
 22 61  1  0
 22 62  1  0
 23 63  1  0
 23 64  1  0
 25 65  1  0
 25 66  1  0
 25 67  1  0
 26 68  1  0
 26 69  1  0
 27 70  1  0
 27 71  1  0
 29 72  1  0
 29 73  1  0
 29 74  1  0
 30 75  1  0
 30 76  1  0
 32 77  1  0
 33 78  1  0
 34 79  1  0
 35 80  1  0
 36 81  1  0
 37 82  1  0
 37 83  1  0
 38 84  1  0
 38 85  1  0
M  CHG  4  14   1  24   1  28   1  31   1
M  END
>  <UniqueID>  (9) 
9

>  <SMILES>  (9) 
CCNCCNc1c2ccccc2[n+](C)c2cccc(OCC[N+]3(C)CC[N+](C)(C[n+]4ccccc4)CC3)c12

>  <Energy>  (9) 
148.33137315979957

>  <Genealogy>  (9) 
CCNCCNc1c2ccccc2[n+](C)c2cccc(OCC[N+]3(C)CC[N+](C)(C[n+]4ccccc4)CC3)c12 (3D coordinates assigned)
CCNCCNc1c2ccccc2[n+](C)c2cccc(OCC[N+]3(C)CC[N+](C)(C[n+]4ccccc4)CC3)c12 (nonaromatic ring conformer: 148.33137315979957 kcal/mol)

>  <smiles>  (9) 
CCNCCNc1c2ccccc2[n+](C)c2cccc(OCC[N+]3(C)CC[N+](C)(C[n+]4ccccc4)CC3)c12

>  <score_type>  (9) 
oracle

>  <origin>  (9) 
adg

>  <m_score__min__energy>  (9) 
-8.4399999999999995

>  <m_primary>  (9) 
energy

$$$$
9:0
     RDKit          3D

 63 65  0  0  0  0  0  0  0  0999 V2000
   -0.3547   17.6301  -32.9267 H   0  0  0  0  0  0  0  0  0  0  0  0
   -1.2240   18.2750  -33.1230 C   0  0  0  0  0  0  0  0  0  0  0  0
   -1.4760   19.2660  -32.3410 N   0  0  0  0  0  0  0  0  0  0  0  0
   -0.5200   20.3240  -32.1150 C   0  0  0  0  0  0  0  0  0  0  0  0
   -0.5502   20.6201  -31.0560 H   0  0  0  0  0  0  0  0  0  0  0  0
    0.4846   19.9600  -32.3763 H   0  0  0  0  0  0  0  0  0  0  0  0
   -0.8530   21.5380  -32.9890 C   0  0  0  0  0  0  0  0  0  0  0  0
   -0.9532   22.4235  -32.3441 H   0  0  0  0  0  0  0  0  0  0  0  0
   -0.0385   21.6671  -33.7170 H   0  0  0  0  0  0  0  0  0  0  0  0
   -2.0990   21.3510  -33.7320 N   0  0  0  0  0  0  0  0  0  0  0  0
   -2.1360   20.3710  -34.0990 H   0  0  0  0  0  0  0  0  0  0  0  0
   -2.1090   22.0010  -34.5520 H   0  0  0  0  0  0  0  0  0  0  0  0
   -2.1080   17.9960  -34.2980 C   0  0  0  0  0  0  0  0  0  0  0  0
   -2.3588   16.9252  -34.3199 H   0  0  0  0  0  0  0  0  0  0  0  0
   -1.5802   18.2728  -35.2226 H   0  0  0  0  0  0  0  0  0  0  0  0
   -3.3360   18.7790  -34.1920 N   0  0  0  0  0  0  0  0  0  0  0  0
   -3.3370   19.7560  -34.5660 H   0  0  0  0  0  0  0  0  0  0  0  0
   -4.5760   18.2260  -33.7250 C   0  0  0  0  0  0  0  0  0  0  0  0
   -4.8910   16.9110  -34.0910 C   0  0  0  0  0  0  0  0  0  0  0  0
   -4.1188   16.2736  -34.5464 H   0  0  0  0  0  0  0  0  0  0  0  0
   -6.1640   16.4040  -33.8860 C   0  0  0  0  0  0  0  0  0  0  0  0
   -6.3924   15.3653  -34.1670 H   0  0  0  0  0  0  0  0  0  0  0  0
   -7.1520   17.2030  -33.3270 C   0  0  0  0  0  0  0  0  0  0  0  0
   -8.1717   16.8046  -33.2200 H   0  0  0  0  0  0  0  0  0  0  0  0
   -6.8720   18.5210  -32.8920 C   0  0  0  0  0  0  0  0  0  0  0  0
   -5.5500   19.0320  -33.0630 C   0  0  0  0  0  0  0  0  0  0  0  0
   -5.2540   20.3160  -32.5260 C   0  0  0  0  0  0  0  0  0  0  0  0
   -3.9300   20.6360  -31.9980 N   0  0  0  0  0  0  0  0  0  0  0  0
   -3.6480   21.6150  -32.2080 H   0  0  0  0  0  0  0  0  0  0  0  0
   -3.1930   20.0570  -32.4460 H   0  0  0  0  0  0  0  0  0  0  0  0
   -3.8540   20.5030  -30.5270 C   0  0  0  0  0  0  0  0  0  0  0  0
   -2.9062   20.0077  -30.2696 H   0  0  0  0  0  0  0  0  0  0  0  0
   -4.7280   19.9167  -30.2070 H   0  0  0  0  0  0  0  0  0  0  0  0
   -3.9160   21.8590  -29.7870 C   0  0  0  0  0  0  0  0  0  0  0  0
   -3.4825   21.7345  -28.7837 H   0  0  0  0  0  0  0  0  0  0  0  0
   -4.9712   22.1651  -29.7339 H   0  0  0  0  0  0  0  0  0  0  0  0
   -3.1720   22.9220  -30.4980 N   0  0  0  0  0  0  0  0  0  0  0  0
   -3.8830   24.2080  -30.4270 C   0  0  0  0  0  0  0  0  0  0  0  0
   -4.0360   24.4847  -29.3734 H   0  0  0  0  0  0  0  0  0  0  0  0
   -3.2863   24.9850  -30.9272 H   0  0  0  0  0  0  0  0  0  0  0  0
   -4.8583   24.1158  -30.9272 H   0  0  0  0  0  0  0  0  0  0  0  0
   -1.7440   23.0400  -30.1120 C   0  0  0  0  0  0  0  0  0  0  0  0
   -1.1745   23.3560  -30.9985 H   0  0  0  0  0  0  0  0  0  0  0  0
   -1.4422   22.0525  -29.7329 H   0  0  0  0  0  0  0  0  0  0  0  0
   -1.4650   24.0420  -28.9820 C   0  0  0  0  0  0  0  0  0  0  0  0
   -1.6031   23.5461  -28.0099 H   0  0  0  0  0  0  0  0  0  0  0  0
   -0.4308   24.4078  -29.0634 H   0  0  0  0  0  0  0  0  0  0  0  0
   -2.1613   24.8897  -29.0634 H   0  0  0  0  0  0  0  0  0  0  0  0
   -6.3380   21.1960  -32.2940 C   0  0  0  0  0  0  0  0  0  0  0  0
   -6.1480   22.5920  -32.1690 C   0  0  0  0  0  0  0  0  0  0  0  0
   -5.1378   23.0142  -32.2753 H   0  0  0  0  0  0  0  0  0  0  0  0
   -7.2240   23.4390  -31.9130 C   0  0  0  0  0  0  0  0  0  0  0  0
   -7.0559   24.5197  -31.7954 H   0  0  0  0  0  0  0  0  0  0  0  0
   -8.5080   22.9220  -31.8060 C   0  0  0  0  0  0  0  0  0  0  0  0
   -9.3550   23.5939  -31.6032 H   0  0  0  0  0  0  0  0  0  0  0  0
   -8.7260   21.5540  -31.9550 C   0  0  0  0  0  0  0  0  0  0  0  0
   -9.7504   21.1589  -31.8884 H   0  0  0  0  0  0  0  0  0  0  0  0
   -7.6490   20.6630  -32.1910 C   0  0  0  0  0  0  0  0  0  0  0  0
   -7.8500   19.3050  -32.3150 N   0  0  0  0  0  0  0  0  0  0  0  0
   -9.1130   18.6980  -31.8420 C   0  0  0  0  0  0  0  0  0  0  0  0
   -9.1272   18.6912  -30.7421 H   0  0  0  0  0  0  0  0  0  0  0  0
   -9.9646   19.2852  -32.2160 H   0  0  0  0  0  0  0  0  0  0  0  0
   -9.1865   17.6662  -32.2160 H   0  0  0  0  0  0  0  0  0  0  0  0
  1  2  1  0
  2  3  2  0
  3  4  1  0
  4  5  1  0
  4  6  1  0
  4  7  1  0
  7  8  1  0
  7  9  1  0
  7 10  1  0
 10 11  1  0
 10 12  1  0
  2 13  1  0
 13 14  1  0
 13 15  1  0
 13 16  1  0
 16 17  1  0
 16 18  1  0
 18 19  2  0
 19 20  1  0
 19 21  1  0
 21 22  1  0
 21 23  2  0
 23 24  1  0
 23 25  1  0
 25 26  2  0
 26 27  1  0
 27 28  1  0
 28 29  1  0
 28 30  1  0
 28 31  1  0
 31 32  1  0
 31 33  1  0
 31 34  1  0
 34 35  1  0
 34 36  1  0
 34 37  1  0
 37 38  1  0
 38 39  1  0
 38 40  1  0
 38 41  1  0
 37 42  1  0
 42 43  1  0
 42 44  1  0
 42 45  1  0
 45 46  1  0
 45 47  1  0
 45 48  1  0
 27 49  2  0
 49 50  1  0
 50 51  1  0
 50 52  2  0
 52 53  1  0
 52 54  1  0
 54 55  1  0
 54 56  2  0
 56 57  1  0
 56 58  1  0
 58 59  2  0
 59 60  1  0
 60 61  1  0
 60 62  1  0
 60 63  1  0
 26 18  1  0
 58 49  1  0
 59 25  1  0
M  CHG  2  28   1  59   1
M  END
>  <UniqueID>  (10) 
10

>  <SMILES>  (10) 
CCN(C)CC[NH2+]c1c2ccccc2[n+](C)c2cccc(NC/C=N/CCN)c12

>  <Energy>  (10) 
100.5918477187299

>  <Genealogy>  (10) 
CCN(C)CC[NH2+]c1c2ccccc2[n+](C)c2cccc(NCC=NCCN)c12 (protonated)
CCN(C)CC[NH2+]c1c2ccccc2[n+](C)c2cccc(NC/C=N/CCN)c12 (cis-trans isomerization)
CCN(C)CC[NH2+]c1c2ccccc2[n+](C)c2cccc(NC/C=N/CCN)c12 (3D coordinates assigned)
CCN(C)CC[NH2+]c1c2ccccc2[n+](C)c2cccc(NC/C=N/CCN)c12 (optimized conformer: 100.5918477187299 kcal/mol)

>  <smiles>  (10) 
CCN(C)CCNc1c2ccccc2[n+](C)c2cccc(NCC=NCCN)c12

>  <score_type>  (10) 
oracle

>  <origin>  (10) 
adg

>  <m_score__min__energy>  (10) 
-5.21

>  <m_primary>  (10) 
energy

$$$$
10:0
     RDKit          3D

 27 28  0  0  0  0  0  0  0  0999 V2000
   -6.1600   25.6480  -29.5650 C   0  0  0  0  0  0  0  0  0  0  0  0
   -5.6500   24.8370  -30.6190 O   0  0  0  0  0  0  0  0  0  0  0  0
   -6.0960   23.5380  -30.9110 C   0  0  0  0  0  0  0  0  0  0  0  0
   -7.4410   23.1530  -30.7400 C   0  0  0  0  0  0  0  0  0  0  0  0
   -7.8440   21.8480  -31.0360 C   0  0  0  0  0  0  0  0  0  0  0  0
   -6.9150   20.9140  -31.5000 C   0  0  0  0  0  0  0  0  0  0  0  0
   -7.4690   19.1310  -31.9000 Br  0  0  0  0  0  0  0  0  0  0  0  0
   -5.5790   21.2860  -31.6720 C   0  0  0  0  0  0  0  0  0  0  0  0
   -5.1680   22.5940  -31.3860 C   0  0  0  0  0  0  0  0  0  0  0  0
   -3.4460   23.0490  -31.6340 S   0  0  0  0  0  0  0  0  0  0  0  0
   -3.0490   22.8930  -29.8880 C   0  0  0  0  0  0  0  0  0  0  0  0
   -3.0400   21.6260  -29.2930 C   0  0  0  0  0  0  0  0  0  0  0  0
   -2.7460   21.4880  -27.9330 C   0  0  0  0  0  0  0  0  0  0  0  0
   -2.7480   19.7570  -27.1260 Br  0  0  0  0  0  0  0  0  0  0  0  0
   -2.4530   22.6190  -27.1650 C   0  0  0  0  0  0  0  0  0  0  0  0
   -2.4480   23.8870  -27.7550 C   0  0  0  0  0  0  0  0  0  0  0  0
   -2.0370   25.4180  -26.6840 Br  0  0  0  0  0  0  0  0  0  0  0  0
   -2.7430   24.0270  -29.1190 C   0  0  0  0  0  0  0  0  0  0  0  0
   -2.7300   25.2880  -29.7070 O   0  0  0  0  0  0  0  0  0  0  0  0
   -5.8827   25.2071  -28.5961 H   0  0  0  0  0  0  0  0  0  0  0  0
   -5.7353   26.6597  -29.6424 H   0  0  0  0  0  0  0  0  0  0  0  0
   -7.2559   25.7035  -29.6424 H   0  0  0  0  0  0  0  0  0  0  0  0
   -8.1769   23.8830  -30.3719 H   0  0  0  0  0  0  0  0  0  0  0  0
   -8.8961   21.5555  -30.9031 H   0  0  0  0  0  0  0  0  0  0  0  0
   -4.8472   20.5485  -32.0335 H   0  0  0  0  0  0  0  0  0  0  0  0
   -3.2651   20.7352  -29.8978 H   0  0  0  0  0  0  0  0  0  0  0  0
   -2.2259   22.5112  -26.0941 H   0  0  0  0  0  0  0  0  0  0  0  0
  1  2  1  0
  2  3  1  0
  3  4  2  0
  4  5  1  0
  5  6  2  0
  6  7  1  0
  6  8  1  0
  8  9  2  0
  9 10  1  0
 10 11  1  0
 11 12  2  0
 12 13  1  0
 13 14  1  0
 13 15  2  0
 15 16  1  0
 16 17  1  0
 16 18  2  0
 18 19  1  0
  9  3  1  0
 18 11  1  0
  1 20  1  0
  1 21  1  0
  1 22  1  0
  4 23  1  0
  5 24  1  0
  8 25  1  0
 12 26  1  0
 15 27  1  0
M  CHG  1  19  -1
M  END
>  <UniqueID>  (11) 
11

>  <SMILES>  (11) 
COc1ccc(Br)cc1Sc1cc(Br)cc(Br)c1[O-]

>  <Energy>  (11) 
22.820983053087485

>  <Genealogy>  (11) 
COc1ccc(Br)cc1Sc1cc(Br)cc(Br)c1[O-] (protonated)
COc1ccc(Br)cc1Sc1cc(Br)cc(Br)c1[O-] (3D coordinates assigned)
COc1ccc(Br)cc1Sc1cc(Br)cc(Br)c1[O-] (optimized conformer: 22.820983053087485 kcal/mol)

>  <smiles>  (11) 
COc1ccc(Br)cc1Sc1cc(Br)cc(Br)c1O

>  <score_type>  (11) 
oracle

>  <origin>  (11) 
adg

>  <m_score__min__energy>  (11) 
-10.890000000000001

>  <m_primary>  (11) 
energy

$$$$
11:0
     RDKit          3D

 81 82  0  0  0  0  0  0  0  0999 V2000
   -4.0659   19.3459  -31.1054 H   0  0  0  0  0  0  0  0  0  0  0  0
   -4.2550   20.3980  -30.8460 C   0  0  0  0  0  0  0  0  0  0  0  0
   -3.3610   21.0740  -30.1870 N   0  0  0  0  0  0  0  0  0  0  0  0
   -1.9990   21.0080  -30.4000 O   0  0  0  0  0  0  0  0  0  0  0  0
   -1.3340   21.5650  -31.5410 C   0  0  0  0  0  0  0  0  0  0  0  0
   -0.3922   22.0315  -31.2163 H   0  0  0  0  0  0  0  0  0  0  0  0
   -1.9958   22.3132  -32.0017 H   0  0  0  0  0  0  0  0  0  0  0  0
   -1.0250   20.4830  -32.5780 C   0  0  0  0  0  0  0  0  0  0  0  0
   -1.3478   19.5063  -32.1884 H   0  0  0  0  0  0  0  0  0  0  0  0
    0.0578   20.4767  -32.7717 H   0  0  0  0  0  0  0  0  0  0  0  0
   -1.7040   20.7470  -33.7920 O   0  0  0  0  0  0  0  0  0  0  0  0
   -2.9450   20.0640  -33.8230 C   0  0  0  0  0  0  0  0  0  0  0  0
   -3.3199   20.0331  -34.8567 H   0  0  0  0  0  0  0  0  0  0  0  0
   -3.6681   20.5921  -33.1841 H   0  0  0  0  0  0  0  0  0  0  0  0
   -2.7590   18.6330  -33.3050 C   0  0  0  0  0  0  0  0  0  0  0  0
   -2.4384   18.6702  -32.2534 H   0  0  0  0  0  0  0  0  0  0  0  0
   -1.9986   18.1333  -33.9231 H   0  0  0  0  0  0  0  0  0  0  0  0
   -4.0210   17.8650  -33.3990 N   0  0  0  0  0  0  0  0  0  0  0  0
   -4.6520   18.0040  -34.7300 C   0  0  0  0  0  0  0  0  0  0  0  0
   -4.8017   17.0026  -35.1598 H   0  0  0  0  0  0  0  0  0  0  0  0
   -3.9868   18.6095  -35.3631 H   0  0  0  0  0  0  0  0  0  0  0  0
   -6.0050   18.7140  -34.6440 C   0  0  0  0  0  0  0  0  0  0  0  0
   -6.2776   18.8570  -33.5879 H   0  0  0  0  0  0  0  0  0  0  0  0
   -5.9376   19.6929  -35.1411 H   0  0  0  0  0  0  0  0  0  0  0  0
   -6.7723   18.1024  -35.1411 H   0  0  0  0  0  0  0  0  0  0  0  0
   -3.8420   16.4570  -32.9590 C   0  0  0  0  0  0  0  0  0  0  0  0
   -3.6164   15.8439  -33.8439 H   0  0  0  0  0  0  0  0  0  0  0  0
   -3.0244   16.4545  -32.2231 H   0  0  0  0  0  0  0  0  0  0  0  0
   -5.0730   15.8610  -32.2590 C   0  0  0  0  0  0  0  0  0  0  0  0
   -4.9415   15.9247  -31.1687 H   0  0  0  0  0  0  0  0  0  0  0  0
   -5.9708   16.4242  -32.5535 H   0  0  0  0  0  0  0  0  0  0  0  0
   -5.1880   14.8074  -32.5535 H   0  0  0  0  0  0  0  0  0  0  0  0
   -5.5260   21.0400  -31.2480 C   0  0  0  0  0  0  0  0  0  0  0  0
   -5.5660   22.4510  -31.3180 C   0  0  0  0  0  0  0  0  0  0  0  0
   -4.3970   23.1870  -31.0370 O   0  0  0  0  0  0  0  0  0  0  0  0
   -4.3050   24.2650  -30.1030 C   0  0  0  0  0  0  0  0  0  0  0  0
   -4.1063   25.2000  -30.6474 H   0  0  0  0  0  0  0  0  0  0  0  0
   -5.2544   24.3418  -29.5528 H   0  0  0  0  0  0  0  0  0  0  0  0
   -3.1930   24.0170  -29.1230 C   0  0  0  0  0  0  0  0  0  0  0  0
   -3.2900   23.0560  -28.3120 O   0  0  0  0  0  0  0  0  0  0  0  0
   -2.0370   24.8690  -29.1080 N   0  0  0  0  0  0  0  0  0  0  0  0
   -2.0200   25.6880  -29.7540 H   0  0  0  0  0  0  0  0  0  0  0  0
   -0.7720   24.4560  -28.4990 C   0  0  0  0  0  0  0  0  0  0  0  0
    0.0078   25.1868  -28.7592 H   0  0  0  0  0  0  0  0  0  0  0  0
   -0.9076   24.4083  -27.4084 H   0  0  0  0  0  0  0  0  0  0  0  0
   -0.3470   23.0700  -28.9990 C   0  0  0  0  0  0  0  0  0  0  0  0
   -0.7447   22.9169  -30.0131 H   0  0  0  0  0  0  0  0  0  0  0  0
    0.7520   23.0228  -29.0020 H   0  0  0  0  0  0  0  0  0  0  0  0
   -0.8560   22.0080  -28.1190 N   0  0  0  0  0  0  0  0  0  0  0  0
   -1.6000   21.4980  -28.6490 H   0  0  0  0  0  0  0  0  0  0  0  0
    0.1900   21.0520  -27.7080 C   0  0  0  0  0  0  0  0  0  0  0  0
    1.1749   21.4904  -27.9265 H   0  0  0  0  0  0  0  0  0  0  0  0
    0.0643   20.8593  -26.6323 H   0  0  0  0  0  0  0  0  0  0  0  0
    0.0750   19.7080  -28.4410 C   0  0  0  0  0  0  0  0  0  0  0  0
    0.4808   19.8103  -29.4583 H   0  0  0  0  0  0  0  0  0  0  0  0
    0.6440   18.9434  -27.8918 H   0  0  0  0  0  0  0  0  0  0  0  0
   -1.3350   19.3050  -28.5160 N   0  0  0  0  0  0  0  0  0  0  0  0
   -1.8890   20.1520  -28.7850 H   0  0  0  0  0  0  0  0  0  0  0  0
   -1.8390   18.8290  -27.2200 C   0  0  0  0  0  0  0  0  0  0  0  0
   -2.0060   17.7430  -27.2712 H   0  0  0  0  0  0  0  0  0  0  0  0
   -1.0981   19.0573  -26.4397 H   0  0  0  0  0  0  0  0  0  0  0  0
   -3.1620   19.5310  -26.8780 C   0  0  0  0  0  0  0  0  0  0  0  0
   -3.9947   18.9562  -27.3096 H   0  0  0  0  0  0  0  0  0  0  0  0
   -3.2531   19.5857  -25.7831 H   0  0  0  0  0  0  0  0  0  0  0  0
   -3.1950   20.8880  -27.4110 N   0  0  0  0  0  0  0  0  0  0  0  0
   -2.5530   21.4870  -26.8390 H   0  0  0  0  0  0  0  0  0  0  0  0
   -2.8320   20.8770  -28.3910 H   0  0  0  0  0  0  0  0  0  0  0  0
   -6.7710   23.0940  -31.6570 C   0  0  0  0  0  0  0  0  0  0  0  0
   -6.8141   24.1930  -31.6761 H   0  0  0  0  0  0  0  0  0  0  0  0
   -7.9110   22.3540  -31.9690 C   0  0  0  0  0  0  0  0  0  0  0  0
   -8.8463   22.8732  -32.2254 H   0  0  0  0  0  0  0  0  0  0  0  0
   -7.8730   20.9600  -31.9580 C   0  0  0  0  0  0  0  0  0  0  0  0
   -9.0190   20.2240  -32.3150 C   0  0  0  0  0  0  0  0  0  0  0  0
   -9.9425   20.7518  -32.5955 H   0  0  0  0  0  0  0  0  0  0  0  0
   -8.9900   18.8320  -32.3150 C   0  0  0  0  0  0  0  0  0  0  0  0
   -9.8888   18.2624  -32.5939 H   0  0  0  0  0  0  0  0  0  0  0  0
   -7.8200   18.1610  -31.9610 C   0  0  0  0  0  0  0  0  0  0  0  0
   -7.8030   17.0612  -31.9543 H   0  0  0  0  0  0  0  0  0  0  0  0
   -6.6700   18.8730  -31.6150 C   0  0  0  0  0  0  0  0  0  0  0  0
   -5.7484   18.3292  -31.3603 H   0  0  0  0  0  0  0  0  0  0  0  0
   -6.6790   20.2840  -31.5890 C   0  0  0  0  0  0  0  0  0  0  0  0
  1  2  1  0
  2  3  2  0
  3  4  1  0
  4  5  1  0
  5  6  1  0
  5  7  1  0
  5  8  1  0
  8  9  1  0
  8 10  1  0
  8 11  1  0
 11 12  1  0
 12 13  1  0
 12 14  1  0
 12 15  1  0
 15 16  1  0
 15 17  1  0
 15 18  1  0
 18 19  1  0
 19 20  1  0
 19 21  1  0
 19 22  1  0
 22 23  1  0
 22 24  1  0
 22 25  1  0
 18 26  1  0
 26 27  1  0
 26 28  1  0
 26 29  1  0
 29 30  1  0
 29 31  1  0
 29 32  1  0
  2 33  1  0
 33 34  2  0
 34 35  1  0
 35 36  1  0
 36 37  1  0
 36 38  1  0
 36 39  1  0
 39 40  2  0
 39 41  1  0
 41 42  1  0
 41 43  1  0
 43 44  1  0
 43 45  1  0
 43 46  1  0
 46 47  1  0
 46 48  1  0
 46 49  1  0
 49 50  1  0
 49 51  1  0
 51 52  1  0
 51 53  1  0
 51 54  1  0
 54 55  1  0
 54 56  1  0
 54 57  1  0
 57 58  1  0
 57 59  1  0
 59 60  1  0
 59 61  1  0
 59 62  1  0
 62 63  1  0
 62 64  1  0
 62 65  1  0
 65 66  1  0
 65 67  1  0
 34 68  1  0
 68 69  1  0
 68 70  2  0
 70 71  1  0
 70 72  1  0
 72 73  2  0
 73 74  1  0
 73 75  1  0
 75 76  1  0
 75 77  2  0
 77 78  1  0
 77 79  1  0
 79 80  1  0
 79 81  2  0
 81 33  1  0
 81 72  1  0
M  END
>  <UniqueID>  (12) 
12

>  <SMILES>  (12) 
CCN(CC)CCOCCO/N=C/c1c(OCC(=O)NCCNCCNCCN)ccc2ccccc12

>  <Energy>  (12) 
90.62223437738918

>  <Genealogy>  (12) 
CCN(CC)CCOCCO/N=C/c1c(OCC(=O)NCCNCCNCCN)ccc2ccccc12 (cis-trans isomerization)
CCN(CC)CCOCCO/N=C/c1c(OCC(=O)NCCNCCNCCN)ccc2ccccc12 (3D coordinates assigned)
CCN(CC)CCOCCO/N=C/c1c(OCC(=O)NCCNCCNCCN)ccc2ccccc12 (optimized conformer: 90.62223437738918 kcal/mol)

>  <smiles>  (12) 
CCN(CC)CCOCCON=Cc1c(OCC(=O)NCCNCCNCCN)ccc2ccccc12

>  <score_type>  (12) 
oracle

>  <origin>  (12) 
adg

>  <m_score__min__energy>  (12) 
-6.5700000000000003

>  <m_primary>  (12) 
energy

$$$$
12:0
     RDKit          3D

 72 76  0  0  0  0  0  0  0  0999 V2000
   -4.1680   13.2870  -31.2850 C   0  0  0  0  0  0  0  0  0  0  0  0
   -4.0830   14.5260  -32.1920 C   0  0  0  0  0  0  0  0  0  0  0  0
   -3.0600   14.4270  -33.2650 N   0  0  0  0  0  0  0  0  0  0  0  0
   -3.6920   14.4600  -34.6100 C   0  0  0  0  0  0  0  0  0  0  0  0
   -5.2200   14.5260  -34.5440 C   0  0  0  0  0  0  0  0  0  0  0  0
   -1.9920   15.4610  -33.1050 C   0  0  0  0  0  0  0  0  0  0  0  0
   -1.2900   15.8010  -34.4320 C   0  0  0  0  0  0  0  0  0  0  0  0
   -1.9530   16.9140  -35.1130 N   0  0  0  0  0  0  0  0  0  0  0  0
   -2.0050   18.2060  -34.4920 C   0  0  0  0  0  0  0  0  0  0  0  0
   -3.1480   18.5930  -33.8070 C   0  0  0  0  0  0  0  0  0  0  0  0
   -3.2500   19.8460  -33.2460 C   0  0  0  0  0  0  0  0  0  0  0  0
   -2.1960   20.7240  -33.2220 N   0  0  0  0  0  0  0  0  0  0  0  0
   -2.2390   21.9070  -32.3480 C   0  0  0  0  0  0  0  0  0  0  0  0
   -1.0720   20.4210  -33.9770 C   0  0  0  0  0  0  0  0  0  0  0  0
   -0.0310   21.3600  -34.1720 C   0  0  0  0  0  0  0  0  0  0  0  0
    1.1180   21.0190  -34.8880 C   0  0  0  0  0  0  0  0  0  0  0  0
    1.2610   19.7430  -35.4260 C   0  0  0  0  0  0  0  0  0  0  0  0
    2.8470   19.2820  -36.3840 Br  0  0  0  0  0  0  0  0  0  0  0  0
    0.2390   18.8060  -35.2820 C   0  0  0  0  0  0  0  0  0  0  0  0
   -0.9450   19.1350  -34.5960 C   0  0  0  0  0  0  0  0  0  0  0  0
   -4.6150   19.9510  -32.7170 C   0  0  0  0  0  0  0  0  0  0  0  0
   -5.3100   21.0750  -32.2280 C   0  0  0  0  0  0  0  0  0  0  0  0
   -6.6490   20.8960  -31.8510 C   0  0  0  0  0  0  0  0  0  0  0  0
   -7.2620   19.6610  -32.0110 C   0  0  0  0  0  0  0  0  0  0  0  0
   -6.5720   18.5810  -32.5640 C   0  0  0  0  0  0  0  0  0  0  0  0
   -7.1390   17.4720  -32.7560 O   0  0  0  0  0  0  0  0  0  0  0  0
   -5.2640   18.7700  -32.9080 N   0  0  0  0  0  0  0  0  0  0  0  0
   -4.4080   17.8100  -33.6010 C   0  0  0  0  0  0  0  0  0  0  0  0
   -8.6380   19.7590  -31.5920 C   0  0  0  0  0  0  0  0  0  0  0  0
   -9.4920   18.8340  -31.6010 O   0  0  0  0  0  0  0  0  0  0  0  0
   -8.8600   21.1240  -31.1530 C   0  0  0  0  0  0  0  0  0  0  0  0
   -9.9530   21.5370  -30.6800 O   0  0  0  0  0  0  0  0  0  0  0  0
   -7.5950   21.9560  -31.3010 C   0  0  0  0  0  0  0  0  0  0  0  0
   -7.0470   22.4220  -29.9210 C   0  0  0  0  0  0  0  0  0  0  0  0
   -6.2430   23.7230  -29.9380 C   0  0  0  0  0  0  0  0  0  0  0  0
   -7.7240   23.1070  -32.3510 C   0  0  0  0  0  0  0  0  0  0  0  0
   -9.1110   23.7490  -32.4710 C   0  0  0  0  0  0  0  0  0  0  0  0
   -4.1464   13.6018  -30.2312 H   0  0  0  0  0  0  0  0  0  0  0  0
   -5.1052   12.7479  -31.4875 H   0  0  0  0  0  0  0  0  0  0  0  0
   -3.3132   12.6250  -31.4875 H   0  0  0  0  0  0  0  0  0  0  0  0
   -5.0650   14.6755  -32.6645 H   0  0  0  0  0  0  0  0  0  0  0  0
   -3.7863   15.3680  -31.5494 H   0  0  0  0  0  0  0  0  0  0  0  0
   -2.6430   13.4730  -33.1470 H   0  0  0  0  0  0  0  0  0  0  0  0
   -3.3246   15.3453  -35.1497 H   0  0  0  0  0  0  0  0  0  0  0  0
   -3.4220   13.5272  -35.1266 H   0  0  0  0  0  0  0  0  0  0  0  0
   -5.5413   14.5399  -33.4921 H   0  0  0  0  0  0  0  0  0  0  0  0
   -5.5696   15.4401  -35.0463 H   0  0  0  0  0  0  0  0  0  0  0  0
   -5.6471   13.6455  -35.0463 H   0  0  0  0  0  0  0  0  0  0  0  0
   -2.4475   16.3780  -32.7029 H   0  0  0  0  0  0  0  0  0  0  0  0
   -1.2324   15.0510  -32.4231 H   0  0  0  0  0  0  0  0  0  0  0  0
   -0.2460   16.0784  -34.2245 H   0  0  0  0  0  0  0  0  0  0  0  0
   -1.3347   14.9173  -35.0855 H   0  0  0  0  0  0  0  0  0  0  0  0
   -2.0480   16.8790  -36.1530 H   0  0  0  0  0  0  0  0  0  0  0  0
   -2.2273   21.5862  -31.2959 H   0  0  0  0  0  0  0  0  0  0  0  0
   -1.3634   22.5422  -32.5474 H   0  0  0  0  0  0  0  0  0  0  0  0
   -3.1585   22.4770  -32.5474 H   0  0  0  0  0  0  0  0  0  0  0  0
   -0.1287   22.3726  -33.7535 H   0  0  0  0  0  0  0  0  0  0  0  0
    1.9156   21.7635  -35.0280 H   0  0  0  0  0  0  0  0  0  0  0  0
    0.3592   17.7993  -35.7088 H   0  0  0  0  0  0  0  0  0  0  0  0
   -4.8205   22.0566  -32.1450 H   0  0  0  0  0  0  0  0  0  0  0  0
   -4.2263   16.9193  -32.9817 H   0  0  0  0  0  0  0  0  0  0  0  0
   -4.8445   17.4259  -34.5348 H   0  0  0  0  0  0  0  0  0  0  0  0
   -7.9039   22.5618  -29.2456 H   0  0  0  0  0  0  0  0  0  0  0  0
   -6.3477   21.6387  -29.5932 H   0  0  0  0  0  0  0  0  0  0  0  0
   -6.0442   24.0447  -28.9050 H   0  0  0  0  0  0  0  0  0  0  0  0
   -5.2893   23.5578  -30.4606 H   0  0  0  0  0  0  0  0  0  0  0  0
   -6.8173   24.5021  -30.4606 H   0  0  0  0  0  0  0  0  0  0  0  0
   -7.0094   23.8966  -32.0756 H   0  0  0  0  0  0  0  0  0  0  0  0
   -7.5241   22.6433  -33.3283 H   0  0  0  0  0  0  0  0  0  0  0  0
   -9.5164   23.9366  -31.4658 H   0  0  0  0  0  0  0  0  0  0  0  0
   -9.0286   24.7006  -33.0167 H   0  0  0  0  0  0  0  0  0  0  0  0
   -9.7832   23.0704  -33.0167 H   0  0  0  0  0  0  0  0  0  0  0  0
  1  2  1  0
  2  3  1  0
  3  4  1  0
  4  5  1  0
  3  6  1  0
  6  7  1  0
  7  8  1  0
  8  9  1  0
  9 10  2  0
 10 11  1  0
 11 12  2  0
 12 13  1  0
 12 14  1  0
 14 15  2  0
 15 16  1  0
 16 17  2  0
 17 18  1  0
 17 19  1  0
 19 20  2  0
 11 21  1  0
 21 22  2  0
 22 23  1  0
 23 24  2  0
 24 25  1  0
 25 26  2  0
 25 27  1  0
 27 28  1  0
 24 29  1  0
 29 30  2  0
 29 31  1  0
 31 32  2  0
 31 33  1  0
 33 34  1  0
 34 35  1  0
 33 36  1  0
 36 37  1  0
 20  9  1  0
 27 21  1  0
 28 10  1  0
 20 14  1  0
 33 23  1  0
  1 38  1  0
  1 39  1  0
  1 40  1  0
  2 41  1  0
  2 42  1  0
  3 43  1  0
  4 44  1  0
  4 45  1  0
  5 46  1  0
  5 47  1  0
  5 48  1  0
  6 49  1  0
  6 50  1  0
  7 51  1  0
  7 52  1  0
  8 53  1  0
 13 54  1  0
 13 55  1  0
 13 56  1  0
 15 57  1  0
 16 58  1  0
 19 59  1  0
 22 60  1  0
 28 61  1  0
 28 62  1  0
 34 63  1  0
 34 64  1  0
 35 65  1  0
 35 66  1  0
 35 67  1  0
 36 68  1  0
 36 69  1  0
 37 70  1  0
 37 71  1  0
 37 72  1  0
M  CHG  2   3   1  12   1
M  END
>  <UniqueID>  (13) 
13

>  <SMILES>  (13) 
CC[NH+](CC)CCNc1c2c([n+](C)c3ccc(Br)cc13)-c1cc3c(c(=O)n1C2)C(=O)C(=O)C3(CC)CC

>  <Energy>  (13) 
144.3527549284822

>  <Genealogy>  (13) 
CC[NH+](CC)CCNc1c2c([n+](C)c3ccc(Br)cc13)-c1cc3c(c(=O)n1C2)C(=O)C(=O)C3(CC)CC (protonated)
CC[NH+](CC)CCNc1c2c([n+](C)c3ccc(Br)cc13)-c1cc3c(c(=O)n1C2)C(=O)C(=O)C3(CC)CC (3D coordinates assigned)
CC[NH+](CC)CCNc1c2c([n+](C)c3ccc(Br)cc13)-c1cc3c(c(=O)n1C2)C(=O)C(=O)C3(CC)CC (nonaromatic ring conformer: 144.3527549284822 kcal/mol)

>  <smiles>  (13) 
CCN(CC)CCNc1c2c([n+](C)c3ccc(Br)cc13)-c1cc3c(c(=O)n1C2)C(=O)C(=O)C3(CC)CC

>  <score_type>  (13) 
oracle

>  <origin>  (13) 
adg

>  <m_score__min__energy>  (13) 
-8.1500000000000004

>  <m_primary>  (13) 
energy

$$$$
13:0
     RDKit          3D

 91 96  0  0  0  0  0  0  0  0999 V2000
   -1.7210   21.2550  -29.5280 C   0  0  0  0  0  0  0  0  0  0  0  0
   -1.1370   21.9050  -30.7800 C   0  0  0  0  0  0  0  0  0  0  0  0
   -0.6920   20.8540  -31.8110 C   0  0  0  0  0  0  0  0  0  0  0  0
   -0.8300   21.3840  -33.1880 N   0  0  0  0  0  0  0  0  0  0  0  0
   -1.9750   20.7550  -33.8890 C   0  0  0  0  0  0  0  0  0  0  0  0
   -3.3260   20.9830  -33.1740 C   0  0  0  0  0  0  0  0  0  0  0  0
   -3.8610   19.7800  -32.3820 C   0  0  0  0  0  0  0  0  0  0  0  0
   -4.5890   20.1840  -31.1780 N   0  0  0  0  0  0  0  0  0  0  0  0
   -5.7840   20.9690  -31.2940 C   0  0  0  0  0  0  0  0  0  0  0  0
   -5.7490   22.3460  -31.0270 C   0  0  0  0  0  0  0  0  0  0  0  0
   -4.5710   22.9640  -30.5530 C   0  0  0  0  0  0  0  0  0  0  0  0
   -4.5530   24.3230  -30.2410 C   0  0  0  0  0  0  0  0  0  0  0  0
   -5.7060   25.0840  -30.3830 C   0  0  0  0  0  0  0  0  0  0  0  0
   -6.8750   24.5030  -30.8730 C   0  0  0  0  0  0  0  0  0  0  0  0
   -6.9110   23.1330  -31.2450 C   0  0  0  0  0  0  0  0  0  0  0  0
   -8.0360   22.5630  -31.8100 N   0  0  0  0  0  0  0  0  0  0  0  0
   -9.1180   23.4260  -32.3340 C   0  0  0  0  0  0  0  0  0  0  0  0
   -8.1360   21.1870  -31.9120 C   0  0  0  0  0  0  0  0  0  0  0  0
   -9.3620   20.5510  -32.2360 C   0  0  0  0  0  0  0  0  0  0  0  0
   -9.4390   19.1650  -32.3730 C   0  0  0  0  0  0  0  0  0  0  0  0
   -8.3140   18.3760  -32.1650 C   0  0  0  0  0  0  0  0  0  0  0  0
   -7.1060   18.9700  -31.8070 C   0  0  0  0  0  0  0  0  0  0  0  0
   -6.9980   20.3700  -31.6760 C   0  0  0  0  0  0  0  0  0  0  0  0
    0.4170   21.1540  -33.9610 C   0  0  0  0  0  0  0  0  0  0  0  0
    0.1280   20.4680  -35.3050 C   0  0  0  0  0  0  0  0  0  0  0  0
    0.4280   19.0300  -35.2470 N   0  0  0  0  0  0  0  0  0  0  0  0
    0.7600   18.6320  -33.8720 C   0  0  0  0  0  0  0  0  0  0  0  0
   -0.2970   17.6560  -33.3380 C   0  0  0  0  0  0  0  0  0  0  0  0
   -1.0730   17.0310  -34.4290 N   0  0  0  0  0  0  0  0  0  0  0  0
   -2.1630   16.2180  -33.8980 C   0  0  0  0  0  0  0  0  0  0  0  0
   -3.5170   16.5830  -34.1590 C   0  0  0  0  0  0  0  0  0  0  0  0
   -3.8480   17.7850  -34.8350 C   0  0  0  0  0  0  0  0  0  0  0  0
   -5.1740   18.1680  -35.0110 C   0  0  0  0  0  0  0  0  0  0  0  0
   -6.2020   17.3630  -34.5430 C   0  0  0  0  0  0  0  0  0  0  0  0
   -5.9120   16.1560  -33.9170 C   0  0  0  0  0  0  0  0  0  0  0  0
   -4.5720   15.7280  -33.7360 C   0  0  0  0  0  0  0  0  0  0  0  0
   -4.2920   14.5100  -33.1580 N   0  0  0  0  0  0  0  0  0  0  0  0
   -5.3520   13.4820  -33.0500 C   0  0  0  0  0  0  0  0  0  0  0  0
   -3.0160   14.2360  -32.7120 C   0  0  0  0  0  0  0  0  0  0  0  0
   -2.7700   13.1490  -31.8330 C   0  0  0  0  0  0  0  0  0  0  0  0
   -1.4780   12.8020  -31.4530 C   0  0  0  0  0  0  0  0  0  0  0  0
   -0.3980   13.5320  -31.9210 C   0  0  0  0  0  0  0  0  0  0  0  0
   -0.6050   14.6440  -32.7360 C   0  0  0  0  0  0  0  0  0  0  0  0
   -1.9150   15.0480  -33.1180 C   0  0  0  0  0  0  0  0  0  0  0  0
   -1.2929   21.7315  -28.6338 H   0  0  0  0  0  0  0  0  0  0  0  0
   -2.8135   21.3828  -29.5241 H   0  0  0  0  0  0  0  0  0  0  0  0
   -1.4773   20.1823  -29.5241 H   0  0  0  0  0  0  0  0  0  0  0  0
   -1.9017   22.5507  -31.2363 H   0  0  0  0  0  0  0  0  0  0  0  0
   -0.2539   22.4898  -30.4830 H   0  0  0  0  0  0  0  0  0  0  0  0
    0.3604   20.5913  -31.6284 H   0  0  0  0  0  0  0  0  0  0  0  0
   -1.3295   19.9635  -31.7079 H   0  0  0  0  0  0  0  0  0  0  0  0
   -2.0399   21.1782  -34.9023 H   0  0  0  0  0  0  0  0  0  0  0  0
   -1.7926   19.6703  -33.9052 H   0  0  0  0  0  0  0  0  0  0  0  0
   -3.2027   21.8228  -32.4743 H   0  0  0  0  0  0  0  0  0  0  0  0
   -4.0619   21.1757  -33.9685 H   0  0  0  0  0  0  0  0  0  0  0  0
   -4.5397   19.2047  -33.0289 H   0  0  0  0  0  0  0  0  0  0  0  0
   -2.9978   19.1761  -32.0653 H   0  0  0  0  0  0  0  0  0  0  0  0
   -4.1430   20.1090  -30.2370 H   0  0  0  0  0  0  0  0  0  0  0  0
   -3.6562   22.3659  -30.4284 H   0  0  0  0  0  0  0  0  0  0  0  0
   -3.6251   24.7925  -29.8823 H   0  0  0  0  0  0  0  0  0  0  0  0
   -5.6970   26.1490  -30.1079 H   0  0  0  0  0  0  0  0  0  0  0  0
   -7.7833   25.1153  -30.9729 H   0  0  0  0  0  0  0  0  0  0  0  0
   -9.6732   23.8688  -31.4939 H   0  0  0  0  0  0  0  0  0  0  0  0
   -8.6825   24.2275  -32.9488 H   0  0  0  0  0  0  0  0  0  0  0  0
   -9.8026   22.8232  -32.9488 H   0  0  0  0  0  0  0  0  0  0  0  0
  -10.2661   21.1604  -32.3815 H   0  0  0  0  0  0  0  0  0  0  0  0
  -10.3947   18.6943  -32.6470 H   0  0  0  0  0  0  0  0  0  0  0  0
   -8.3774   17.2842  -32.2829 H   0  0  0  0  0  0  0  0  0  0  0  0
   -6.2242   18.3384  -31.6240 H   0  0  0  0  0  0  0  0  0  0  0  0
    0.9033   22.1221  -34.1512 H   0  0  0  0  0  0  0  0  0  0  0  0
    1.0721   20.4958  -33.3714 H   0  0  0  0  0  0  0  0  0  0  0  0
   -0.9349   20.6024  -35.5545 H   0  0  0  0  0  0  0  0  0  0  0  0
    0.7692   20.9254  -36.0729 H   0  0  0  0  0  0  0  0  0  0  0  0
    1.2720   18.8380  -35.8390 H   0  0  0  0  0  0  0  0  0  0  0  0
    1.7453   18.1430  -33.8622 H   0  0  0  0  0  0  0  0  0  0  0  0
    0.7810   19.5267  -33.2324 H   0  0  0  0  0  0  0  0  0  0  0  0
    0.2075   16.8656  -32.7628 H   0  0  0  0  0  0  0  0  0  0  0  0
   -0.9955   18.2235  -32.7055 H   0  0  0  0  0  0  0  0  0  0  0  0
   -0.4410   16.4420  -35.0160 H   0  0  0  0  0  0  0  0  0  0  0  0
   -1.3740   17.7580  -35.1080 H   0  0  0  0  0  0  0  0  0  0  0  0
   -3.0434   18.4248  -35.2265 H   0  0  0  0  0  0  0  0  0  0  0  0
   -5.4080   19.1129  -35.5233 H   0  0  0  0  0  0  0  0  0  0  0  0
   -7.2480   17.6800  -34.6673 H   0  0  0  0  0  0  0  0  0  0  0  0
   -6.7356   15.5224  -33.5561 H   0  0  0  0  0  0  0  0  0  0  0  0
   -5.5602   13.2801  -31.9889 H   0  0  0  0  0  0  0  0  0  0  0  0
   -6.2669   13.8458  -33.5404 H   0  0  0  0  0  0  0  0  0  0  0  0
   -5.0164   12.5563  -33.5404 H   0  0  0  0  0  0  0  0  0  0  0  0
   -3.6196   12.5686  -31.4440 H   0  0  0  0  0  0  0  0  0  0  0  0
   -1.3137   11.9473  -30.7804 H   0  0  0  0  0  0  0  0  0  0  0  0
    0.6253   13.2337  -31.6491 H   0  0  0  0  0  0  0  0  0  0  0  0
    0.2618   15.2208  -33.0910 H   0  0  0  0  0  0  0  0  0  0  0  0
  1  2  1  0
  2  3  1  0
  3  4  1  0
  4  5  1  0
  5  6  1  0
  6  7  1  0
  7  8  1  0
  8  9  1  0
  9 10  1  0
 10 11  2  0
 11 12  1  0
 12 13  2  0
 13 14  1  0
 14 15  2  0
 15 16  1  0
 16 17  1  0
 16 18  2  0
 18 19  1  0
 19 20  2  0
 20 21  1  0
 21 22  2  0
 22 23  1  0
  4 24  1  0
 24 25  1  0
 25 26  1  0
 26 27  1  0
 27 28  1  0
 28 29  1  0
 29 30  1  0
 30 31  1  0
 31 32  2  0
 32 33  1  0
 33 34  2  0
 34 35  1  0
 35 36  2  0
 36 37  1  0
 37 38  1  0
 37 39  2  0
 39 40  1  0
 40 41  2  0
 41 42  1  0
 42 43  2  0
 43 44  1  0
 23  9  2  0
 44 30  2  0
 15 10  1  0
 23 18  1  0
 36 31  1  0
 44 39  1  0
  1 45  1  0
  1 46  1  0
  1 47  1  0
  2 48  1  0
  2 49  1  0
  3 50  1  0
  3 51  1  0
  5 52  1  0
  5 53  1  0
  6 54  1  0
  6 55  1  0
  7 56  1  0
  7 57  1  0
  8 58  1  0
 11 59  1  0
 12 60  1  0
 13 61  1  0
 14 62  1  0
 17 63  1  0
 17 64  1  0
 17 65  1  0
 19 66  1  0
 20 67  1  0
 21 68  1  0
 22 69  1  0
 24 70  1  0
 24 71  1  0
 25 72  1  0
 25 73  1  0
 26 74  1  0
 27 75  1  0
 27 76  1  0
 28 77  1  0
 28 78  1  0
 29 79  1  0
 29 80  1  0
 32 81  1  0
 33 82  1  0
 34 83  1  0
 35 84  1  0
 38 85  1  0
 38 86  1  0
 38 87  1  0
 40 88  1  0
 41 89  1  0
 42 90  1  0
 43 91  1  0
M  CHG  3  16   1  29   1  37   1
M  END
>  <UniqueID>  (14) 
14

>  <SMILES>  (14) 
CCCN(CCCNc1c2ccccc2[n+](C)c2ccccc12)CCNCC[NH2+]c1c2ccccc2[n+](C)c2ccccc12

>  <Energy>  (14) 
142.4030696151876

>  <Genealogy>  (14) 
CCCN(CCCNc1c2ccccc2[n+](C)c2ccccc12)CCNCC[NH2+]c1c2ccccc2[n+](C)c2ccccc12 (protonated)
CCCN(CCCNc1c2ccccc2[n+](C)c2ccccc12)CCNCC[NH2+]c1c2ccccc2[n+](C)c2ccccc12 (3D coordinates assigned)
CCCN(CCCNc1c2ccccc2[n+](C)c2ccccc12)CCNCC[NH2+]c1c2ccccc2[n+](C)c2ccccc12 (optimized conformer: 142.4030696151876 kcal/mol)

>  <smiles>  (14) 
CCCN(CCCNc1c2ccccc2[n+](C)c2ccccc12)CCNCCNc1c2ccccc2[n+](C)c2ccccc12

>  <score_type>  (14) 
oracle

>  <origin>  (14) 
adg

>  <m_score__min__energy>  (14) 
-9.5199999999999996

>  <m_primary>  (14) 
energy

$$$$
14:0
     RDKit          3D

 41 44  0  0  0  0  0  0  0  0999 V2000
   -0.5170   25.7980  -27.5590 C   0  0  0  0  0  0  0  0  0  0  0  0
   -1.1070   24.7930  -28.5430 C   0  0  0  0  0  0  0  0  0  0  0  0
   -2.3570   25.2970  -29.0990 N   0  0  0  0  0  0  0  0  0  0  0  0
   -3.3790   24.5120  -29.7300 C   0  0  0  0  0  0  0  0  0  0  0  0
   -3.1930   24.1430  -30.9210 O   0  0  0  0  0  0  0  0  0  0  0  0
   -4.6930   24.1930  -29.0390 C   0  0  1  0  0  0  0  0  0  0  0  0
   -5.7470   25.2780  -29.3240 C   0  0  0  0  0  0  0  0  0  0  0  0
   -6.2500   25.2240  -30.7700 C   0  0  0  0  0  0  0  0  0  0  0  0
   -6.7810   23.8310  -31.1150 C   0  0  0  0  0  0  0  0  0  0  0  0
   -5.7830   22.8010  -30.7890 N   0  0  0  0  0  0  0  0  0  0  0  0
   -5.6070   21.6660  -31.6650 C   0  0  0  0  0  0  0  0  0  0  0  0
   -4.3870   21.1670  -31.9930 N   0  0  0  0  0  0  0  0  0  0  0  0
   -4.4970   20.0950  -32.8170 C   0  0  0  0  0  0  0  0  0  0  0  0
   -3.4040   19.3710  -33.3230 C   0  0  0  0  0  0  0  0  0  0  0  0
   -3.7050   18.2910  -34.1620 C   0  0  0  0  0  0  0  0  0  0  0  0
   -4.9910   17.9460  -34.4800 C   0  0  0  0  0  0  0  0  0  0  0  0
   -6.0960   18.6490  -33.9900 C   0  0  0  0  0  0  0  0  0  0  0  0
   -5.8060   19.7330  -33.1500 C   0  0  0  0  0  0  0  0  0  0  0  0
   -6.8680   20.7840  -32.3900 S   0  0  0  0  0  0  0  0  0  0  0  0
   -4.9750   16.8480  -35.3180 O   0  0  0  0  0  0  0  0  0  0  0  0
   -3.6070   16.4780  -35.5420 C   0  0  0  0  0  0  0  0  0  0  0  0
   -2.8330   17.4220  -34.7870 O   0  0  0  0  0  0  0  0  0  0  0  0
   -5.2280   22.7990  -29.4250 C   0  0  0  0  0  0  0  0  0  0  0  0
   -0.7139   25.4626  -26.5300 H   0  0  0  0  0  0  0  0  0  0  0  0
    0.5687   25.8734  -27.7186 H   0  0  0  0  0  0  0  0  0  0  0  0
   -0.9803   26.7828  -27.7186 H   0  0  0  0  0  0  0  0  0  0  0  0
   -0.3902   24.6223  -29.3597 H   0  0  0  0  0  0  0  0  0  0  0  0
   -1.3079   23.8508  -28.0120 H   0  0  0  0  0  0  0  0  0  0  0  0
   -4.4911   24.1796  -27.9578 H   0  0  0  0  0  0  0  0  0  0  0  0
   -6.6003   25.1311  -28.6455 H   0  0  0  0  0  0  0  0  0  0  0  0
   -5.2761   26.2592  -29.1646 H   0  0  0  0  0  0  0  0  0  0  0  0
   -7.0587   25.9587  -30.8971 H   0  0  0  0  0  0  0  0  0  0  0  0
   -5.4101   25.4548  -31.4417 H   0  0  0  0  0  0  0  0  0  0  0  0
   -7.6983   23.6408  -30.5385 H   0  0  0  0  0  0  0  0  0  0  0  0
   -6.9938   23.7897  -32.1934 H   0  0  0  0  0  0  0  0  0  0  0  0
   -2.3667   19.6386  -33.0732 H   0  0  0  0  0  0  0  0  0  0  0  0
   -7.1281   18.3689  -34.2476 H   0  0  0  0  0  0  0  0  0  0  0  0
   -3.4211   15.4541  -35.1856 H   0  0  0  0  0  0  0  0  0  0  0  0
   -3.3466   16.4942  -36.6106 H   0  0  0  0  0  0  0  0  0  0  0  0
   -6.0179   22.5090  -28.7166 H   0  0  0  0  0  0  0  0  0  0  0  0
   -4.3934   22.0833  -29.3894 H   0  0  0  0  0  0  0  0  0  0  0  0
  1  2  1  0
  2  3  1  0
  3  4  1  0
  4  5  2  0
  4  6  1  0
  6  7  1  0
  7  8  1  0
  8  9  1  0
  9 10  1  0
 10 11  1  0
 11 12  2  0
 12 13  1  0
 13 14  2  0
 14 15  1  0
 15 16  2  0
 16 17  1  0
 17 18  2  0
 18 19  1  0
 16 20  1  0
 20 21  1  0
 21 22  1  0
 10 23  1  0
 23  6  1  0
 19 11  1  0
 18 13  1  0
 22 15  1  0
  1 24  1  0
  1 25  1  0
  1 26  1  0
  2 27  1  0
  2 28  1  0
  6 29  1  1
  7 30  1  0
  7 31  1  0
  8 32  1  0
  8 33  1  0
  9 34  1  0
  9 35  1  0
 14 36  1  0
 17 37  1  0
 21 38  1  0
 21 39  1  0
 23 40  1  0
 23 41  1  0
M  CHG  1   3  -1
M  END
>  <UniqueID>  (15) 
15

>  <SMILES>  (15) 
CC[N-]C(=O)[C@H]1CCCN(c2nc3cc4c(cc3s2)OCO4)C1

>  <Energy>  (15) 
100.62286024979227

>  <Genealogy>  (15) 
CC[N-]C(=O)C1CCCN(c2nc3cc4c(cc3s2)OCO4)C1 (protonated)
CC[N-]C(=O)[C@H]1CCCN(c2nc3cc4c(cc3s2)OCO4)C1 (chirality)
CC[N-]C(=O)[C@H]1CCCN(c2nc3cc4c(cc3s2)OCO4)C1 (3D coordinates assigned)
CC[N-]C(=O)[C@H]1CCCN(c2nc3cc4c(cc3s2)OCO4)C1 (nonaromatic ring conformer: 100.62286024979227 kcal/mol)

>  <smiles>  (15) 
CCNC(=O)C1CCCN(c2nc3cc4c(cc3s2)OCO4)C1

>  <score_type>  (15) 
oracle

>  <origin>  (15) 
adg

>  <m_score__min__energy>  (15) 
-9.2200000000000006

>  <m_primary>  (15) 
energy

$$$$
15:0
     RDKit          3D

 47 49  0  0  0  0  0  0  0  0999 V2000
    0.6820   23.0410  -36.0600 C   0  0  0  0  0  0  0  0  0  0  0  0
    1.1200   21.8550  -35.2060 C   0  0  0  0  0  0  0  0  0  0  0  0
    0.0690   20.7360  -35.2260 C   0  0  0  0  0  0  0  0  0  0  0  0
   -1.1700   21.1750  -34.5620 N   0  0  0  0  0  0  0  0  0  0  0  0
   -1.1950   20.8200  -33.1310 C   0  0  0  0  0  0  0  0  0  0  0  0
   -2.4020   21.4290  -32.3970 C   0  0  0  0  0  0  0  0  0  0  0  0
   -3.5750   21.4750  -33.2720 N   0  0  0  0  0  0  0  0  0  0  0  0
   -4.8340   20.8910  -32.8950 C   0  0  0  0  0  0  0  0  0  0  0  0
   -5.1940   19.6110  -33.3540 C   0  0  0  0  0  0  0  0  0  0  0  0
   -4.2930   18.8370  -34.1160 C   0  0  0  0  0  0  0  0  0  0  0  0
   -4.6790   17.6040  -34.6370 C   0  0  0  0  0  0  0  0  0  0  0  0
   -5.9620   17.1240  -34.4100 C   0  0  0  0  0  0  0  0  0  0  0  0
   -6.8540   17.8520  -33.6220 C   0  0  0  0  0  0  0  0  0  0  0  0
   -6.4740   19.0860  -33.0350 C   0  0  0  0  0  0  0  0  0  0  0  0
   -7.3160   19.7750  -32.1790 N   0  0  0  0  0  0  0  0  0  0  0  0
   -8.5170   19.1070  -31.6270 C   0  0  0  0  0  0  0  0  0  0  0  0
   -7.0140   21.0720  -31.8050 C   0  0  0  0  0  0  0  0  0  0  0  0
   -7.9530   21.8920  -31.1280 C   0  0  0  0  0  0  0  0  0  0  0  0
   -7.6150   23.1770  -30.7040 C   0  0  0  0  0  0  0  0  0  0  0  0
   -6.3440   23.6840  -30.9510 C   0  0  0  0  0  0  0  0  0  0  0  0
   -5.9220   25.2980  -30.4060 Cl  0  0  0  0  0  0  0  0  0  0  0  0
   -5.4140   22.9200  -31.6540 C   0  0  0  0  0  0  0  0  0  0  0  0
   -5.7430   21.6270  -32.1130 C   0  0  0  0  0  0  0  0  0  0  0  0
    0.3756   23.8706  -35.4058 H   0  0  0  0  0  0  0  0  0  0  0  0
    1.5198   23.3649  -36.6949 H   0  0  0  0  0  0  0  0  0  0  0  0
   -0.1652   22.7426  -36.6949 H   0  0  0  0  0  0  0  0  0  0  0  0
    2.0696   21.4620  -35.5983 H   0  0  0  0  0  0  0  0  0  0  0  0
    1.2410   22.1997  -34.1684 H   0  0  0  0  0  0  0  0  0  0  0  0
   -0.1552   20.4695  -36.2694 H   0  0  0  0  0  0  0  0  0  0  0  0
    0.4695   19.8644  -34.6877 H   0  0  0  0  0  0  0  0  0  0  0  0
   -1.2370   22.2180  -34.6330 H   0  0  0  0  0  0  0  0  0  0  0  0
   -2.0020   20.7620  -35.0480 H   0  0  0  0  0  0  0  0  0  0  0  0
   -1.2416   19.7248  -33.0394 H   0  0  0  0  0  0  0  0  0  0  0  0
   -0.2823   21.2245  -32.6690 H   0  0  0  0  0  0  0  0  0  0  0  0
   -2.6345   20.8149  -31.5145 H   0  0  0  0  0  0  0  0  0  0  0  0
   -2.1484   22.4555  -32.0939 H   0  0  0  0  0  0  0  0  0  0  0  0
   -3.4750   21.8730  -34.2330 H   0  0  0  0  0  0  0  0  0  0  0  0
   -3.2752   19.2112  -34.3005 H   0  0  0  0  0  0  0  0  0  0  0  0
   -3.9668   17.0102  -35.2287 H   0  0  0  0  0  0  0  0  0  0  0  0
   -6.2760   16.1672  -34.8526 H   0  0  0  0  0  0  0  0  0  0  0  0
   -7.8688   17.4625  -33.4532 H   0  0  0  0  0  0  0  0  0  0  0  0
   -8.4765   19.1295  -30.5280 H   0  0  0  0  0  0  0  0  0  0  0  0
   -9.4198   19.6326  -31.9715 H   0  0  0  0  0  0  0  0  0  0  0  0
   -8.5467   18.0628  -31.9715 H   0  0  0  0  0  0  0  0  0  0  0  0
   -8.9653   21.5077  -30.9341 H   0  0  0  0  0  0  0  0  0  0  0  0
   -8.3564   23.7915  -30.1724 H   0  0  0  0  0  0  0  0  0  0  0  0
   -4.4127   23.3296  -31.8531 H   0  0  0  0  0  0  0  0  0  0  0  0
  1  2  1  0
  2  3  1  0
  3  4  1  0
  4  5  1  0
  5  6  1  0
  6  7  1  0
  7  8  1  0
  8  9  2  0
  9 10  1  0
 10 11  2  0
 11 12  1  0
 12 13  2  0
 13 14  1  0
 14 15  2  0
 15 16  1  0
 15 17  1  0
 17 18  2  0
 18 19  1  0
 19 20  2  0
 20 21  1  0
 20 22  1  0
 22 23  2  0
 23  8  1  0
 14  9  1  0
 23 17  1  0
  1 24  1  0
  1 25  1  0
  1 26  1  0
  2 27  1  0
  2 28  1  0
  3 29  1  0
  3 30  1  0
  4 31  1  0
  4 32  1  0
  5 33  1  0
  5 34  1  0
  6 35  1  0
  6 36  1  0
  7 37  1  0
 10 38  1  0
 11 39  1  0
 12 40  1  0
 13 41  1  0
 16 42  1  0
 16 43  1  0
 16 44  1  0
 18 45  1  0
 19 46  1  0
 22 47  1  0
M  CHG  2   4   1  15   1
M  END
>  <UniqueID>  (16) 
16

>  <SMILES>  (16) 
CCC[NH2+]CCNc1c2ccccc2[n+](C)c2ccc(Cl)cc12

>  <Energy>  (16) 
68.74932537781658

>  <Genealogy>  (16) 
CCC[NH2+]CCNc1c2ccccc2[n+](C)c2ccc(Cl)cc12 (protonated)
CCC[NH2+]CCNc1c2ccccc2[n+](C)c2ccc(Cl)cc12 (3D coordinates assigned)
CCC[NH2+]CCNc1c2ccccc2[n+](C)c2ccc(Cl)cc12 (optimized conformer: 68.74932537781658 kcal/mol)

>  <smiles>  (16) 
CCCNCCNc1c2ccccc2[n+](C)c2ccc(Cl)cc12

>  <score_type>  (16) 
oracle

>  <origin>  (16) 
adg

>  <m_score__min__energy>  (16) 
-7.7199999999999998

>  <m_primary>  (16) 
energy

$$$$
16:0
     RDKit          3D

 53 55  0  0  0  0  0  0  0  0999 V2000
   -4.2140   24.1580  -28.4420 C   0  0  0  0  0  0  0  0  0  0  0  0
   -3.6850   23.8930  -29.8500 C   0  0  0  0  0  0  0  0  0  0  0  0
   -4.6020   24.4460  -30.8670 N   0  0  0  0  0  0  0  0  0  0  0  0
   -5.5630   25.4120  -30.3040 C   0  0  0  0  0  0  0  0  0  0  0  0
   -5.2380   23.4130  -31.7210 C   0  0  0  0  0  0  0  0  0  0  0  0
   -4.4240   22.1140  -31.9270 C   0  0  0  0  0  0  0  0  0  0  0  0
   -4.7300   21.4480  -33.1920 N   0  0  0  0  0  0  0  0  0  0  0  0
   -5.1740   20.0830  -33.1870 C   0  0  0  0  0  0  0  0  0  0  0  0
   -6.4880   19.7930  -32.7840 C   0  0  0  0  0  0  0  0  0  0  0  0
   -7.3050   20.7920  -32.2120 C   0  0  0  0  0  0  0  0  0  0  0  0
   -8.5870   20.4910  -31.7610 C   0  0  0  0  0  0  0  0  0  0  0  0
   -9.0730   19.1920  -31.8620 C   0  0  0  0  0  0  0  0  0  0  0  0
   -8.2920   18.1960  -32.4460 C   0  0  0  0  0  0  0  0  0  0  0  0
   -7.0000   18.4830  -32.9560 C   0  0  0  0  0  0  0  0  0  0  0  0
   -6.2480   17.5310  -33.6120 N   0  0  0  0  0  0  0  0  0  0  0  0
   -6.8950   16.2900  -34.0990 C   0  0  0  0  0  0  0  0  0  0  0  0
   -4.9000   17.7450  -33.8380 C   0  0  0  0  0  0  0  0  0  0  0  0
   -4.0550   16.6940  -34.2730 C   0  0  0  0  0  0  0  0  0  0  0  0
   -2.7120   16.9140  -34.5470 C   0  0  0  0  0  0  0  0  0  0  0  0
   -2.1560   18.1680  -34.3520 C   0  0  0  0  0  0  0  0  0  0  0  0
   -2.9330   19.2290  -33.8720 C   0  0  0  0  0  0  0  0  0  0  0  0
   -2.2530   20.4410  -33.5110 N   0  0  0  0  0  0  0  0  0  0  0  0
   -1.5150   20.5790  -32.2880 C   0  0  0  0  0  0  0  0  0  0  0  0
   -1.0380   21.9240  -31.8440 C   0  0  0  0  0  0  0  0  0  0  0  0
   -1.2860   19.5720  -31.5640 O   0  0  0  0  0  0  0  0  0  0  0  0
   -4.3260   19.0360  -33.6230 C   0  0  0  0  0  0  0  0  0  0  0  0
   -3.4862   23.7934  -27.7022 H   0  0  0  0  0  0  0  0  0  0  0  0
   -4.3662   25.2388  -28.3048 H   0  0  0  0  0  0  0  0  0  0  0  0
   -5.1707   23.6327  -28.3048 H   0  0  0  0  0  0  0  0  0  0  0  0
   -2.6978   24.3657  -29.9593 H   0  0  0  0  0  0  0  0  0  0  0  0
   -3.6074   22.8059  -29.9989 H   0  0  0  0  0  0  0  0  0  0  0  0
   -5.5227   25.3715  -29.2055 H   0  0  0  0  0  0  0  0  0  0  0  0
   -5.3049   26.4261  -30.6432 H   0  0  0  0  0  0  0  0  0  0  0  0
   -6.5784   25.1592  -30.6432 H   0  0  0  0  0  0  0  0  0  0  0  0
   -6.1988   23.1395  -31.2606 H   0  0  0  0  0  0  0  0  0  0  0  0
   -5.3324   23.8672  -32.7184 H   0  0  0  0  0  0  0  0  0  0  0  0
   -3.3530   22.3643  -31.9117 H   0  0  0  0  0  0  0  0  0  0  0  0
   -4.6932   21.4224  -31.1151 H   0  0  0  0  0  0  0  0  0  0  0  0
   -4.6050   21.9260  -34.1090 H   0  0  0  0  0  0  0  0  0  0  0  0
   -6.9242   21.8200  -32.1217 H   0  0  0  0  0  0  0  0  0  0  0  0
   -9.2159   21.2809  -31.3245 H   0  0  0  0  0  0  0  0  0  0  0  0
  -10.0758   18.9499  -31.4802 H   0  0  0  0  0  0  0  0  0  0  0  0
   -8.6842   17.1704  -32.5124 H   0  0  0  0  0  0  0  0  0  0  0  0
   -7.2127   15.6807  -33.2400 H   0  0  0  0  0  0  0  0  0  0  0  0
   -7.7727   16.5493  -34.7092 H   0  0  0  0  0  0  0  0  0  0  0  0
   -6.1799   15.7188  -34.7092 H   0  0  0  0  0  0  0  0  0  0  0  0
   -4.4716   15.6834  -34.3961 H   0  0  0  0  0  0  0  0  0  0  0  0
   -2.0868   16.0895  -34.9204 H   0  0  0  0  0  0  0  0  0  0  0  0
   -1.0918   18.3318  -34.5769 H   0  0  0  0  0  0  0  0  0  0  0  0
   -2.3770   21.2780  -34.1230 H   0  0  0  0  0  0  0  0  0  0  0  0
   -1.0240   21.9636  -30.7448 H   0  0  0  0  0  0  0  0  0  0  0  0
   -0.0230   22.0990  -32.2302 H   0  0  0  0  0  0  0  0  0  0  0  0
   -1.7160   22.6994  -32.2302 H   0  0  0  0  0  0  0  0  0  0  0  0
  1  2  1  0
  2  3  1  0
  3  4  1  0
  3  5  1  0
  5  6  1  0
  6  7  1  0
  7  8  1  0
  8  9  2  0
  9 10  1  0
 10 11  2  0
 11 12  1  0
 12 13  2  0
 13 14  1  0
 14 15  2  0
 15 16  1  0
 15 17  1  0
 17 18  2  0
 18 19  1  0
 19 20  2  0
 20 21  1  0
 21 22  1  0
 22 23  1  0
 23 24  1  0
 23 25  2  0
 21 26  2  0
 26  8  1  0
 14  9  1  0
 26 17  1  0
  1 27  1  0
  1 28  1  0
  1 29  1  0
  2 30  1  0
  2 31  1  0
  4 32  1  0
  4 33  1  0
  4 34  1  0
  5 35  1  0
  5 36  1  0
  6 37  1  0
  6 38  1  0
  7 39  1  0
 10 40  1  0
 11 41  1  0
 12 42  1  0
 13 43  1  0
 16 44  1  0
 16 45  1  0
 16 46  1  0
 18 47  1  0
 19 48  1  0
 20 49  1  0
 22 50  1  0
 24 51  1  0
 24 52  1  0
 24 53  1  0
M  CHG  1  15   1
M  END
>  <UniqueID>  (17) 
17

>  <SMILES>  (17) 
CCN(C)CCNc1c2ccccc2[n+](C)c2cccc(NC(C)=O)c12

>  <Energy>  (17) 
90.17682827381151

>  <Genealogy>  (17) 
CCN(C)CCNc1c2ccccc2[n+](C)c2cccc(NC(C)=O)c12 (3D coordinates assigned)
CCN(C)CCNc1c2ccccc2[n+](C)c2cccc(NC(C)=O)c12 (optimized conformer: 90.17682827381151 kcal/mol)

>  <smiles>  (17) 
CCN(C)CCNc1c2ccccc2[n+](C)c2cccc(NC(C)=O)c12

>  <score_type>  (17) 
oracle

>  <origin>  (17) 
adg

>  <m_score__min__energy>  (17) 
-8.7100000000000009

>  <m_primary>  (17) 
energy

$$$$
17:0
     RDKit          3D

 49 50  0  0  0  0  0  0  0  0999 V2000
   -5.4100   25.1820  -30.4600 C   0  0  0  0  0  0  0  0  0  0  0  0
   -6.8400   24.6810  -30.2520 C   0  0  0  0  0  0  0  0  0  0  0  0
   -6.9030   23.2160  -29.7850 C   0  0  0  0  0  0  0  0  0  0  0  0
   -7.3520   22.2260  -30.8750 C   0  0  0  0  0  0  0  0  0  0  0  0
   -6.1890   21.6620  -31.6610 C   0  0  0  0  0  0  0  0  0  0  0  0
   -4.9500   22.1250  -31.3230 N   0  0  0  0  0  0  0  0  0  0  0  0
   -3.8630   21.6690  -31.9730 C   0  0  0  0  0  0  0  0  0  0  0  0
   -2.2660   22.1020  -31.6990 S   0  0  0  0  0  0  0  0  0  0  0  0
   -1.6560   21.0760  -32.9030 C   0  0  0  0  0  0  0  0  0  0  0  0
   -0.2030   20.8800  -33.2010 C   0  0  0  0  0  0  0  0  0  0  0  0
    0.0920   21.1820  -34.6650 C   0  0  0  0  0  0  0  0  0  0  0  0
   -2.7050   20.3790  -33.5050 C   0  0  0  0  0  0  0  0  0  0  0  0
   -3.9480   20.7340  -32.9700 C   0  0  0  0  0  0  0  0  0  0  0  0
   -5.2040   20.2450  -33.3240 C   0  0  0  0  0  0  0  0  0  0  0  0
   -5.2950   19.3710  -34.2310 O   0  0  0  0  0  0  0  0  0  0  0  0
   -6.3290   20.7220  -32.6780 N   0  0  0  0  0  0  0  0  0  0  0  0
   -7.6500   20.1860  -33.0700 C   0  0  0  0  0  0  0  0  0  0  0  0
   -7.8500   18.7980  -32.5080 C   0  0  0  0  0  0  0  0  0  0  0  0
   -8.9400   18.5170  -32.0280 O   0  0  0  0  0  0  0  0  0  0  0  0
   -6.7640   17.8340  -32.4750 N   0  0  1  0  0  0  0  0  0  0  0  0
   -6.4700   17.4280  -31.0890 C   0  0  0  0  0  0  0  0  0  0  0  0
   -7.0060   16.6850  -33.3850 C   0  0  0  0  0  0  0  0  0  0  0  0
   -5.7720   16.1950  -34.1610 C   0  0  0  0  0  0  0  0  0  0  0  0
   -4.9341   25.3487  -29.4824 H   0  0  0  0  0  0  0  0  0  0  0  0
   -4.8368   24.4312  -31.0236 H   0  0  0  0  0  0  0  0  0  0  0  0
   -5.4307   26.1264  -31.0236 H   0  0  0  0  0  0  0  0  0  0  0  0
   -7.3253   25.3119  -29.4928 H   0  0  0  0  0  0  0  0  0  0  0  0
   -7.3529   24.7386  -31.2234 H   0  0  0  0  0  0  0  0  0  0  0  0
   -5.9009   22.9199  -29.4414 H   0  0  0  0  0  0  0  0  0  0  0  0
   -7.6576   23.1707  -28.9860 H   0  0  0  0  0  0  0  0  0  0  0  0
   -7.8903   21.3947  -30.3962 H   0  0  0  0  0  0  0  0  0  0  0  0
   -7.9963   22.7736  -31.5786 H   0  0  0  0  0  0  0  0  0  0  0  0
    0.3900   21.5550  -32.5664 H   0  0  0  0  0  0  0  0  0  0  0  0
    0.0620   19.8323  -32.9957 H   0  0  0  0  0  0  0  0  0  0  0  0
    0.8593   21.9675  -34.7300 H   0  0  0  0  0  0  0  0  0  0  0  0
    0.4573   20.2707  -35.1610 H   0  0  0  0  0  0  0  0  0  0  0  0
   -0.8277   21.5259  -35.1610 H   0  0  0  0  0  0  0  0  0  0  0  0
   -2.5701   19.6375  -34.3062 H   0  0  0  0  0  0  0  0  0  0  0  0
   -8.4381   20.8492  -32.6838 H   0  0  0  0  0  0  0  0  0  0  0  0
   -7.6996   20.1342  -34.1677 H   0  0  0  0  0  0  0  0  0  0  0  0
   -5.8970   18.3030  -32.8250 H   0  0  0  0  0  0  0  0  0  0  0  0
   -6.9689   18.1169  -30.3915 H   0  0  0  0  0  0  0  0  0  0  0  0
   -6.8383   16.4053  -30.9206 H   0  0  0  0  0  0  0  0  0  0  0  0
   -5.3834   17.4588  -30.9206 H   0  0  0  0  0  0  0  0  0  0  0  0
   -7.3840   15.8465  -32.7817 H   0  0  0  0  0  0  0  0  0  0  0  0
   -7.7221   17.0392  -34.1411 H   0  0  0  0  0  0  0  0  0  0  0  0
   -4.9914   15.8850  -33.4506 H   0  0  0  0  0  0  0  0  0  0  0  0
   -6.0524   15.3400  -34.7937 H   0  0  0  0  0  0  0  0  0  0  0  0
   -5.3895   17.0095  -34.7937 H   0  0  0  0  0  0  0  0  0  0  0  0
  1  2  1  0
  2  3  1  0
  3  4  1  0
  4  5  1  0
  5  6  2  0
  6  7  1  0
  7  8  1  0
  8  9  1  0
  9 10  1  0
 10 11  1  0
  9 12  2  0
 12 13  1  0
 13 14  1  0
 14 15  2  0
 14 16  1  0
 16 17  1  0
 17 18  1  0
 18 19  2  0
 18 20  1  0
 20 21  1  0
 20 22  1  0
 22 23  1  0
 16  5  1  0
 13  7  2  0
  1 24  1  0
  1 25  1  0
  1 26  1  0
  2 27  1  0
  2 28  1  0
  3 29  1  0
  3 30  1  0
  4 31  1  0
  4 32  1  0
 10 33  1  0
 10 34  1  0
 11 35  1  0
 11 36  1  0
 11 37  1  0
 12 38  1  0
 17 39  1  0
 17 40  1  0
 20 41  1  6
 21 42  1  0
 21 43  1  0
 21 44  1  0
 22 45  1  0
 22 46  1  0
 23 47  1  0
 23 48  1  0
 23 49  1  0
M  CHG  1  20   1
M  END
>  <UniqueID>  (18) 
18

>  <SMILES>  (18) 
CCCCc1nc2sc(CC)cc2c(=O)n1CC(=O)[N@@H+](C)CC

>  <Energy>  (18) 
78.91297442203727

>  <Genealogy>  (18) 
CCCCc1nc2sc(CC)cc2c(=O)n1CC(=O)[NH+](C)CC (protonated)
CCCCc1nc2sc(CC)cc2c(=O)n1CC(=O)[N@@H+](C)CC (chirality)
CCCCc1nc2sc(CC)cc2c(=O)n1CC(=O)[N@@H+](C)CC (3D coordinates assigned)
CCCCc1nc2sc(CC)cc2c(=O)n1CC(=O)[N@@H+](C)CC (optimized conformer: 78.91297442203727 kcal/mol)

>  <smiles>  (18) 
CCCCc1nc2sc(CC)cc2c(=O)n1CC(=O)N(C)CC

>  <score_type>  (18) 
oracle

>  <origin>  (18) 
adg

>  <m_score__min__energy>  (18) 
-6.5999999999999996

>  <m_primary>  (18) 
energy

$$$$
18:0
     RDKit          3D

 49 51  0  0  0  0  0  0  0  0999 V2000
   -2.2580   25.3080  -26.6310 C   0  0  0  0  0  0  0  0  0  0  0  0
   -1.2760   25.7950  -27.6850 C   0  0  0  0  0  0  0  0  0  0  0  0
   -1.8600   25.6510  -28.9630 O   0  0  0  0  0  0  0  0  0  0  0  0
   -1.9840   24.2820  -29.3010 C   0  0  0  0  0  0  0  0  0  0  0  0
   -3.3950   23.9730  -29.8000 C   0  0  0  0  0  0  0  0  0  0  0  0
   -3.9360   25.1050  -30.4580 O   0  0  0  0  0  0  0  0  0  0  0  0
   -5.2810   25.3380  -30.0830 C   0  0  0  0  0  0  0  0  0  0  0  0
   -6.2230   24.3160  -30.7260 C   0  0  0  0  0  0  0  0  0  0  0  0
   -5.6640   23.8070  -31.9770 N   0  0  0  0  0  0  0  0  0  0  0  0
   -5.7600   22.4120  -32.3210 C   0  0  0  0  0  0  0  0  0  0  0  0
   -7.0090   21.7640  -32.3270 C   0  0  0  0  0  0  0  0  0  0  0  0
   -8.1820   22.4390  -31.9230 C   0  0  0  0  0  0  0  0  0  0  0  0
   -9.4090   21.7820  -31.8970 C   0  0  0  0  0  0  0  0  0  0  0  0
   -9.4900   20.4430  -32.2580 C   0  0  0  0  0  0  0  0  0  0  0  0
   -8.3500   19.7590  -32.6780 C   0  0  0  0  0  0  0  0  0  0  0  0
   -7.0930   20.4120  -32.7580 C   0  0  0  0  0  0  0  0  0  0  0  0
   -5.9680   19.7640  -33.2320 N   0  0  0  0  0  0  0  0  0  0  0  0
   -6.1020   18.4820  -33.9590 C   0  0  0  0  0  0  0  0  0  0  0  0
   -4.7180   20.3250  -33.0440 C   0  0  0  0  0  0  0  0  0  0  0  0
   -3.5270   19.5800  -33.2520 C   0  0  0  0  0  0  0  0  0  0  0  0
   -2.2720   20.1660  -33.0850 C   0  0  0  0  0  0  0  0  0  0  0  0
   -0.8190   19.2200  -33.3510 Cl  0  0  0  0  0  0  0  0  0  0  0  0
   -2.1690   21.4940  -32.6850 C   0  0  0  0  0  0  0  0  0  0  0  0
   -3.3190   22.2390  -32.4370 C   0  0  0  0  0  0  0  0  0  0  0  0
   -4.5990   21.6710  -32.6090 C   0  0  0  0  0  0  0  0  0  0  0  0
   -1.8508   25.5099  -25.6293 H   0  0  0  0  0  0  0  0  0  0  0  0
   -3.2158   25.8355  -26.7506 H   0  0  0  0  0  0  0  0  0  0  0  0
   -2.4177   24.2263  -26.7506 H   0  0  0  0  0  0  0  0  0  0  0  0
   -1.0386   26.8540  -27.5058 H   0  0  0  0  0  0  0  0  0  0  0  0
   -0.3510   25.2021  -27.6315 H   0  0  0  0  0  0  0  0  0  0  0  0
   -1.2600   24.0388  -30.0926 H   0  0  0  0  0  0  0  0  0  0  0  0
   -1.7867   23.6775  -28.4034 H   0  0  0  0  0  0  0  0  0  0  0  0
   -3.3557   23.1276  -30.5027 H   0  0  0  0  0  0  0  0  0  0  0  0
   -4.0329   23.7158  -28.9415 H   0  0  0  0  0  0  0  0  0  0  0  0
   -5.3658   25.2646  -28.9887 H   0  0  0  0  0  0  0  0  0  0  0  0
   -5.5691   26.3416  -30.4292 H   0  0  0  0  0  0  0  0  0  0  0  0
   -6.3729   23.4769  -30.0307 H   0  0  0  0  0  0  0  0  0  0  0  0
   -7.1814   24.8097  -30.9443 H   0  0  0  0  0  0  0  0  0  0  0  0
   -4.9920   24.4130  -32.4980 H   0  0  0  0  0  0  0  0  0  0  0  0
   -8.1253   23.4964  -31.6254 H   0  0  0  0  0  0  0  0  0  0  0  0
  -10.3157   22.3239  -31.5902 H   0  0  0  0  0  0  0  0  0  0  0  0
  -10.4569   19.9206  -32.2123 H   0  0  0  0  0  0  0  0  0  0  0  0
   -8.4264   18.6963  -32.9517 H   0  0  0  0  0  0  0  0  0  0  0  0
   -6.1882   17.6576  -33.2358 H   0  0  0  0  0  0  0  0  0  0  0  0
   -7.0020   18.5111  -34.5908 H   0  0  0  0  0  0  0  0  0  0  0  0
   -5.2154   18.3243  -34.5908 H   0  0  0  0  0  0  0  0  0  0  0  0
   -3.5951   18.5233  -33.5498 H   0  0  0  0  0  0  0  0  0  0  0  0
   -1.1782   21.9563  -32.5644 H   0  0  0  0  0  0  0  0  0  0  0  0
   -3.2284   23.2831  -32.1029 H   0  0  0  0  0  0  0  0  0  0  0  0
  1  2  1  0
  2  3  1  0
  3  4  1  0
  4  5  1  0
  5  6  1  0
  6  7  1  0
  7  8  1  0
  8  9  1  0
  9 10  1  0
 10 11  2  0
 11 12  1  0
 12 13  2  0
 13 14  1  0
 14 15  2  0
 15 16  1  0
 16 17  2  0
 17 18  1  0
 17 19  1  0
 19 20  2  0
 20 21  1  0
 21 22  1  0
 21 23  2  0
 23 24  1  0
 24 25  2  0
 25 10  1  0
 16 11  1  0
 25 19  1  0
  1 26  1  0
  1 27  1  0
  1 28  1  0
  2 29  1  0
  2 30  1  0
  4 31  1  0
  4 32  1  0
  5 33  1  0
  5 34  1  0
  7 35  1  0
  7 36  1  0
  8 37  1  0
  8 38  1  0
  9 39  1  0
 12 40  1  0
 13 41  1  0
 14 42  1  0
 15 43  1  0
 18 44  1  0
 18 45  1  0
 18 46  1  0
 20 47  1  0
 23 48  1  0
 24 49  1  0
M  CHG  1  17   1
M  END
>  <UniqueID>  (19) 
19

>  <SMILES>  (19) 
CCOCCOCCNc1c2ccccc2[n+](C)c2cc(Cl)ccc12

>  <Energy>  (19) 
73.98825930469175

>  <Genealogy>  (19) 
CCOCCOCCNc1c2ccccc2[n+](C)c2cc(Cl)ccc12 (3D coordinates assigned)
CCOCCOCCNc1c2ccccc2[n+](C)c2cc(Cl)ccc12 (optimized conformer: 73.98825930469175 kcal/mol)

>  <smiles>  (19) 
CCOCCOCCNc1c2ccccc2[n+](C)c2cc(Cl)ccc12

>  <score_type>  (19) 
oracle

>  <origin>  (19) 
adg

>  <m_score__min__energy>  (19) 
-9.2899999999999991

>  <m_primary>  (19) 
energy

$$$$
19:0
     RDKit          3D

 55 57  0  0  0  0  0  0  0  0999 V2000
    0.2236   21.1425  -32.5136 H   0  0  0  0  0  0  0  0  0  0  0  0
   -0.8660   21.1840  -32.6590 C   0  0  0  0  0  0  0  0  0  0  0  0
   -1.5770   21.7770  -31.7570 N   0  0  0  0  0  0  0  0  0  0  0  0
   -1.1470   22.0410  -30.4030 C   0  0  0  0  0  0  0  0  0  0  0  0
   -1.8661   21.5995  -29.6973 H   0  0  0  0  0  0  0  0  0  0  0  0
   -0.1539   21.5968  -30.2405 H   0  0  0  0  0  0  0  0  0  0  0  0
   -1.0937   23.1276  -30.2405 H   0  0  0  0  0  0  0  0  0  0  0  0
   -1.4410   20.5450  -33.9000 C   0  0  0  0  0  0  0  0  0  0  0  0
   -1.1614   19.4813  -33.9180 H   0  0  0  0  0  0  0  0  0  0  0  0
   -1.0370   21.0679  -34.7794 H   0  0  0  0  0  0  0  0  0  0  0  0
   -2.8980   20.6550  -33.9260 N   0  0  0  0  0  0  0  0  0  0  0  0
   -3.3020   21.5700  -34.2280 H   0  0  0  0  0  0  0  0  0  0  0  0
   -3.7940   19.6150  -33.4780 C   0  0  0  0  0  0  0  0  0  0  0  0
   -3.5270   18.2820  -33.8250 C   0  0  0  0  0  0  0  0  0  0  0  0
   -2.5356   18.0099  -34.2163 H   0  0  0  0  0  0  0  0  0  0  0  0
   -4.5000   17.3030  -33.6800 C   0  0  0  0  0  0  0  0  0  0  0  0
   -4.2672   16.2580  -33.9327 H   0  0  0  0  0  0  0  0  0  0  0  0
   -5.7670   17.6370  -33.2170 C   0  0  0  0  0  0  0  0  0  0  0  0
   -6.5488   16.8644  -33.1741 H   0  0  0  0  0  0  0  0  0  0  0  0
   -6.0670   18.9550  -32.8000 C   0  0  0  0  0  0  0  0  0  0  0  0
   -5.0380   19.9370  -32.8600 C   0  0  0  0  0  0  0  0  0  0  0  0
   -5.2990   21.2080  -32.2860 C   0  0  0  0  0  0  0  0  0  0  0  0
   -4.2410   21.9680  -31.6280 N   0  0  0  0  0  0  0  0  0  0  0  0
   -4.1100   22.8860  -32.1090 H   0  0  0  0  0  0  0  0  0  0  0  0
   -3.3220   21.4770  -31.6540 H   0  0  0  0  0  0  0  0  0  0  0  0
   -4.5310   22.1890  -30.1960 C   0  0  0  0  0  0  0  0  0  0  0  0
   -3.9177   21.4978  -29.5992 H   0  0  0  0  0  0  0  0  0  0  0  0
   -5.6045   22.0098  -30.0363 H   0  0  0  0  0  0  0  0  0  0  0  0
   -4.2190   23.6420  -29.7550 C   0  0  0  0  0  0  0  0  0  0  0  0
   -3.1734   23.6925  -29.4170 H   0  0  0  0  0  0  0  0  0  0  0  0
   -4.9155   23.9054  -28.9453 H   0  0  0  0  0  0  0  0  0  0  0  0
   -4.4110   24.6100  -30.8480 N   0  0  0  0  0  0  0  0  0  0  0  0
   -4.7930   24.1110  -31.6870 H   0  0  0  0  0  0  0  0  0  0  0  0
   -5.3310   25.6990  -30.4770 C   0  0  0  0  0  0  0  0  0  0  0  0
   -5.7884   26.1110  -31.3886 H   0  0  0  0  0  0  0  0  0  0  0  0
   -4.7611   26.4778  -29.9492 H   0  0  0  0  0  0  0  0  0  0  0  0
   -6.4310   25.1870  -29.5530 C   0  0  0  0  0  0  0  0  0  0  0  0
   -6.1258   25.3291  -28.5058 H   0  0  0  0  0  0  0  0  0  0  0  0
   -7.3593   25.7456  -29.7434 H   0  0  0  0  0  0  0  0  0  0  0  0
   -6.6013   24.1171  -29.7434 H   0  0  0  0  0  0  0  0  0  0  0  0
   -6.6480   21.6140  -32.1780 C   0  0  0  0  0  0  0  0  0  0  0  0
   -6.9970   22.9690  -31.9900 C   0  0  0  0  0  0  0  0  0  0  0  0
   -6.2059   23.7305  -31.9242 H   0  0  0  0  0  0  0  0  0  0  0  0
   -8.3320   23.3520  -31.8870 C   0  0  0  0  0  0  0  0  0  0  0  0
   -8.5896   24.4100  -31.7312 H   0  0  0  0  0  0  0  0  0  0  0  0
   -9.3400   22.3980  -31.9810 C   0  0  0  0  0  0  0  0  0  0  0  0
  -10.3940   22.7051  -31.9123 H   0  0  0  0  0  0  0  0  0  0  0  0
   -9.0180   21.0540  -32.1620 C   0  0  0  0  0  0  0  0  0  0  0  0
   -9.8241   20.3100  -32.2431 H   0  0  0  0  0  0  0  0  0  0  0  0
   -7.6690   20.6320  -32.2430 C   0  0  0  0  0  0  0  0  0  0  0  0
   -7.3300   19.3000  -32.3570 N   0  0  0  0  0  0  0  0  0  0  0  0
   -8.3180   18.2520  -32.0220 C   0  0  0  0  0  0  0  0  0  0  0  0
   -8.4018   18.1631  -30.9288 H   0  0  0  0  0  0  0  0  0  0  0  0
   -9.2971   18.5228  -32.4440 H   0  0  0  0  0  0  0  0  0  0  0  0
   -7.9901   17.2906  -32.4440 H   0  0  0  0  0  0  0  0  0  0  0  0
  1  2  1  0
  2  3  2  0
  3  4  1  0
  4  5  1  0
  4  6  1  0
  4  7  1  0
  2  8  1  0
  8  9  1  0
  8 10  1  0
  8 11  1  0
 11 12  1  0
 11 13  1  0
 13 14  2  0
 14 15  1  0
 14 16  1  0
 16 17  1  0
 16 18  2  0
 18 19  1  0
 18 20  1  0
 20 21  2  0
 21 22  1  0
 22 23  1  0
 23 24  1  0
 23 25  1  0
 23 26  1  0
 26 27  1  0
 26 28  1  0
 26 29  1  0
 29 30  1  0
 29 31  1  0
 29 32  1  0
 32 33  1  0
 32 34  1  0
 34 35  1  0
 34 36  1  0
 34 37  1  0
 37 38  1  0
 37 39  1  0
 37 40  1  0
 22 41  2  0
 41 42  1  0
 42 43  1  0
 42 44  2  0
 44 45  1  0
 44 46  1  0
 46 47  1  0
 46 48  2  0
 48 49  1  0
 48 50  1  0
 50 51  2  0
 51 52  1  0
 52 53  1  0
 52 54  1  0
 52 55  1  0
 21 13  1  0
 50 41  1  0
 51 20  1  0
M  CHG  2  23   1  51   1
M  END
>  <UniqueID>  (20) 
20

>  <SMILES>  (20) 
CCNCC[NH2+]c1c2ccccc2[n+](C)c2cccc(NC/C=N\C)c12

>  <Energy>  (20) 
92.22485067213158

>  <Genealogy>  (20) 
CCNCC[NH2+]c1c2ccccc2[n+](C)c2cccc(NCC=NC)c12 (protonated)
CCNCC[NH2+]c1c2ccccc2[n+](C)c2cccc(NC/C=N\C)c12 (cis-trans isomerization)
CCNCC[NH2+]c1c2ccccc2[n+](C)c2cccc(NC/C=N\C)c12 (3D coordinates assigned)
CCNCC[NH2+]c1c2ccccc2[n+](C)c2cccc(NC/C=N\C)c12 (optimized conformer: 92.22485067213158 kcal/mol)

>  <smiles>  (20) 
CCNCCNc1c2ccccc2[n+](C)c2cccc(NCC=NC)c12

>  <score_type>  (20) 
oracle

>  <origin>  (20) 
adg

>  <m_score__min__energy>  (20) 
-7.0700000000000003

>  <m_primary>  (20) 
energy

$$$$
20:0
     RDKit          3D

 61 64  0  0  0  0  0  0  0  0999 V2000
    0.5620   26.3380  -35.7270 C   0  0  0  0  0  0  0  0  0  0  0  0
    0.2360   25.0290  -36.4620 C   0  0  0  0  0  0  0  0  0  0  0  0
    1.4050   24.1490  -36.6980 N   0  0  0  0  0  0  0  0  0  0  0  0
    2.7070   24.6610  -36.2390 C   0  0  0  0  0  0  0  0  0  0  0  0
    1.1900   22.7050  -36.4580 C   0  0  0  0  0  0  0  0  0  0  0  0
    1.2800   22.2780  -34.9780 C   0  0  0  0  0  0  0  0  0  0  0  0
    0.0190   21.8770  -34.4760 O   0  0  0  0  0  0  0  0  0  0  0  0
    0.1640   21.1450  -33.2760 C   0  0  0  0  0  0  0  0  0  0  0  0
   -1.2240   20.8960  -32.6800 C   0  0  0  0  0  0  0  0  0  0  0  0
   -2.3110   21.2050  -33.6270 N   0  0  0  0  0  0  0  0  0  0  0  0
   -3.5150   20.4310  -33.3550 C   0  0  0  0  0  0  0  0  0  0  0  0
   -4.6360   21.0060  -32.6890 C   0  0  0  0  0  0  0  0  0  0  0  0
   -5.8080   20.2350  -32.4950 C   0  0  0  0  0  0  0  0  0  0  0  0
   -5.7640   18.8710  -32.6910 N   0  0  0  0  0  0  0  0  0  0  0  0
   -6.7250   17.9880  -31.9950 C   0  0  0  0  0  0  0  0  0  0  0  0
   -4.7650   18.3160  -33.4580 C   0  0  0  0  0  0  0  0  0  0  0  0
   -4.8690   16.9880  -33.9440 C   0  0  0  0  0  0  0  0  0  0  0  0
   -3.8440   16.4100  -34.6860 C   0  0  0  0  0  0  0  0  0  0  0  0
   -2.6960   17.1350  -34.9680 C   0  0  0  0  0  0  0  0  0  0  0  0
   -2.5750   18.4520  -34.5320 C   0  0  0  0  0  0  0  0  0  0  0  0
   -3.6120   19.0780  -33.7920 C   0  0  0  0  0  0  0  0  0  0  0  0
   -7.0850   20.9610  -32.1450 C   0  0  0  0  0  0  0  0  0  0  0  0
   -8.2650   20.2920  -32.0100 N   0  0  0  0  0  0  0  0  0  0  0  0
   -9.4420   20.9160  -31.7470 C   0  0  0  0  0  0  0  0  0  0  0  0
   -9.4830   22.3040  -31.6300 C   0  0  0  0  0  0  0  0  0  0  0  0
   -8.3090   23.0340  -31.8020 C   0  0  0  0  0  0  0  0  0  0  0  0
   -7.1010   22.3720  -32.0610 C   0  0  0  0  0  0  0  0  0  0  0  0
   -5.8710   23.1700  -32.3810 C   0  0  0  0  0  0  0  0  0  0  0  0
   -4.6140   22.3820  -32.0330 C   0  0  0  0  0  0  0  0  0  0  0  0
    0.5199   26.1689  -34.6409 H   0  0  0  0  0  0  0  0  0  0  0  0
    1.5713   26.6741  -36.0069 H   0  0  0  0  0  0  0  0  0  0  0  0
   -0.1718   27.1082  -36.0069 H   0  0  0  0  0  0  0  0  0  0  0  0
   -0.4980   24.4715  -35.8617 H   0  0  0  0  0  0  0  0  0  0  0  0
   -0.1464   25.3137  -37.4533 H   0  0  0  0  0  0  0  0  0  0  0  0
    2.7304   24.6702  -35.1393 H   0  0  0  0  0  0  0  0  0  0  0  0
    3.5103   24.0118  -36.6174 H   0  0  0  0  0  0  0  0  0  0  0  0
    2.8530   25.6835  -36.6174 H   0  0  0  0  0  0  0  0  0  0  0  0
    0.1894   22.4408  -36.8308 H   0  0  0  0  0  0  0  0  0  0  0  0
    2.0001   22.1783  -36.9836 H   0  0  0  0  0  0  0  0  0  0  0  0
    1.9833   21.4367  -34.8909 H   0  0  0  0  0  0  0  0  0  0  0  0
    1.6267   23.1409  -34.3904 H   0  0  0  0  0  0  0  0  0  0  0  0
    0.6541   20.1830  -33.4866 H   0  0  0  0  0  0  0  0  0  0  0  0
    0.7805   21.7129  -32.5637 H   0  0  0  0  0  0  0  0  0  0  0  0
   -1.2987   19.8372  -32.3911 H   0  0  0  0  0  0  0  0  0  0  0  0
   -1.3385   21.5622  -31.8122 H   0  0  0  0  0  0  0  0  0  0  0  0
   -2.4780   22.2310  -33.6620 H   0  0  0  0  0  0  0  0  0  0  0  0
   -1.9850   21.0140  -34.6000 H   0  0  0  0  0  0  0  0  0  0  0  0
   -6.6039   18.0993  -30.9074 H   0  0  0  0  0  0  0  0  0  0  0  0
   -7.7506   18.2654  -32.2800 H   0  0  0  0  0  0  0  0  0  0  0  0
   -6.5352   16.9426  -32.2800 H   0  0  0  0  0  0  0  0  0  0  0  0
   -5.7766   16.4043  -33.7305 H   0  0  0  0  0  0  0  0  0  0  0  0
   -3.9443   15.3766  -35.0495 H   0  0  0  0  0  0  0  0  0  0  0  0
   -1.8787   16.6685  -35.5376 H   0  0  0  0  0  0  0  0  0  0  0  0
   -1.6603   19.0168  -34.7650 H   0  0  0  0  0  0  0  0  0  0  0  0
  -10.3626   20.3262  -31.6264 H   0  0  0  0  0  0  0  0  0  0  0  0
  -10.4299   22.8165  -31.4048 H   0  0  0  0  0  0  0  0  0  0  0  0
   -8.3301   24.1317  -31.7344 H   0  0  0  0  0  0  0  0  0  0  0  0
   -5.8632   23.4069  -33.4552 H   0  0  0  0  0  0  0  0  0  0  0  0
   -5.8847   24.0957  -31.7869 H   0  0  0  0  0  0  0  0  0  0  0  0
   -3.7321   22.9358  -32.3872 H   0  0  0  0  0  0  0  0  0  0  0  0
   -4.5722   22.2506  -30.9417 H   0  0  0  0  0  0  0  0  0  0  0  0
  1  2  1  0
  2  3  1  0
  3  4  1  0
  3  5  1  0
  5  6  1  0
  6  7  1  0
  7  8  1  0
  8  9  1  0
  9 10  1  0
 10 11  1  0
 11 12  2  0
 12 13  1  0
 13 14  2  0
 14 15  1  0
 14 16  1  0
 16 17  2  0
 17 18  1  0
 18 19  2  0
 19 20  1  0
 20 21  2  0
 13 22  1  0
 22 23  2  0
 23 24  1  0
 24 25  2  0
 25 26  1  0
 26 27  2  0
 27 28  1  0
 28 29  1  0
 21 11  1  0
 27 22  1  0
 29 12  1  0
 21 16  1  0
  1 30  1  0
  1 31  1  0
  1 32  1  0
  2 33  1  0
  2 34  1  0
  4 35  1  0
  4 36  1  0
  4 37  1  0
  5 38  1  0
  5 39  1  0
  6 40  1  0
  6 41  1  0
  8 42  1  0
  8 43  1  0
  9 44  1  0
  9 45  1  0
 10 46  1  0
 10 47  1  0
 15 48  1  0
 15 49  1  0
 15 50  1  0
 17 51  1  0
 18 52  1  0
 19 53  1  0
 20 54  1  0
 24 55  1  0
 25 56  1  0
 26 57  1  0
 28 58  1  0
 28 59  1  0
 29 60  1  0
 29 61  1  0
M  CHG  2  10   1  14   1
M  END
>  <UniqueID>  (21) 
21

>  <SMILES>  (21) 
CCN(C)CCOCC[NH2+]c1c2c([n+](C)c3ccccc13)-c1ncccc1CC2

>  <Energy>  (21) 
106.77597969795272

>  <Genealogy>  (21) 
CCN(C)CCOCC[NH2+]c1c2c([n+](C)c3ccccc13)-c1ncccc1CC2 (protonated)
CCN(C)CCOCC[NH2+]c1c2c([n+](C)c3ccccc13)-c1ncccc1CC2 (3D coordinates assigned)
CCN(C)CCOCC[NH2+]c1c2c([n+](C)c3ccccc13)-c1ncccc1CC2 (nonaromatic ring conformer: 106.77597969795272 kcal/mol)

>  <smiles>  (21) 
CCN(C)CCOCCNc1c2c([n+](C)c3ccccc13)-c1ncccc1CC2

>  <score_type>  (21) 
oracle

>  <origin>  (21) 
adg

>  <m_score__min__energy>  (21) 
-8.1899999999999995

>  <m_primary>  (21) 
energy

$$$$
21:0
     RDKit          3D

 58 61  0  0  0  0  0  0  0  0999 V2000
  -10.1760   21.5900  -31.0810 C   0  0  0  0  0  0  0  0  0  0  0  0
   -8.7270   21.6020  -31.2430 N   0  0  0  0  0  0  0  0  0  0  0  0
   -7.9360   22.4970  -30.6670 N   0  0  0  0  0  0  0  0  0  0  0  0
   -6.6650   22.2080  -31.0110 C   0  0  0  0  0  0  0  0  0  0  0  0
   -5.5020   23.0100  -30.5790 C   0  0  0  0  0  0  0  0  0  0  0  0
   -5.4250   24.3850  -30.8670 C   0  0  0  0  0  0  0  0  0  0  0  0
   -4.3240   25.1340  -30.4440 C   0  0  0  0  0  0  0  0  0  0  0  0
   -3.2910   24.5210  -29.7310 C   0  0  0  0  0  0  0  0  0  0  0  0
   -2.2200   25.2490  -29.3270 F   0  0  0  0  0  0  0  0  0  0  0  0
   -3.3660   23.1590  -29.4260 C   0  0  0  0  0  0  0  0  0  0  0  0
   -4.4700   22.4070  -29.8390 C   0  0  0  0  0  0  0  0  0  0  0  0
   -6.6630   21.0900  -31.8340 C   0  0  0  0  0  0  0  0  0  0  0  0
   -7.9910   20.7230  -31.9590 C   0  0  0  0  0  0  0  0  0  0  0  0
   -8.5700   19.5460  -32.7090 C   0  0  0  0  0  0  0  0  0  0  0  0
   -7.9130   18.1940  -32.3920 C   0  0  0  0  0  0  0  0  0  0  0  0
   -6.4740   18.0990  -32.9270 C   0  0  0  0  0  0  0  0  0  0  0  0
   -5.4740   18.8680  -32.0470 C   0  0  0  0  0  0  0  0  0  0  0  0
   -5.5180   20.3260  -32.2530 N   0  0  0  0  0  0  0  0  0  0  0  0
   -4.4550   20.9980  -32.9540 C   0  0  0  0  0  0  0  0  0  0  0  0
   -4.4720   22.2570  -33.0470 O   0  0  0  0  0  0  0  0  0  0  0  0
   -3.3030   20.2300  -33.5530 C   0  0  0  0  0  0  0  0  0  0  0  0
   -2.2180   21.1390  -33.9800 N   0  0  0  0  0  0  0  0  0  0  0  0
   -1.0510   21.1980  -33.0660 C   0  0  0  0  0  0  0  0  0  0  0  0
   -0.2480   19.8680  -33.0480 C   0  0  0  0  0  0  0  0  0  0  0  0
    0.6720   19.8000  -31.8250 C   0  0  0  0  0  0  0  0  0  0  0  0
   -0.1250   19.8320  -30.5050 C   0  0  0  0  0  0  0  0  0  0  0  0
   -1.4630   20.5940  -30.6050 C   0  0  0  0  0  0  0  0  0  0  0  0
   -1.4040   21.7220  -31.6440 C   0  0  0  0  0  0  0  0  0  0  0  0
  -10.4252   21.5879  -30.0096 H   0  0  0  0  0  0  0  0  0  0  0  0
  -10.6054   22.4846  -31.5556 H   0  0  0  0  0  0  0  0  0  0  0  0
  -10.5906   20.6884  -31.5556 H   0  0  0  0  0  0  0  0  0  0  0  0
   -6.2357   24.8728  -31.4280 H   0  0  0  0  0  0  0  0  0  0  0  0
   -4.2705   26.2086  -30.6729 H   0  0  0  0  0  0  0  0  0  0  0  0
   -2.5548   22.6778  -28.8599 H   0  0  0  0  0  0  0  0  0  0  0  0
   -4.5313   21.3388  -29.5838 H   0  0  0  0  0  0  0  0  0  0  0  0
   -9.6390   19.4738  -32.4599 H   0  0  0  0  0  0  0  0  0  0  0  0
   -8.3851   19.7375  -33.7763 H   0  0  0  0  0  0  0  0  0  0  0  0
   -7.8933   18.0586  -31.3005 H   0  0  0  0  0  0  0  0  0  0  0  0
   -8.5059   17.4101  -32.8860 H   0  0  0  0  0  0  0  0  0  0  0  0
   -6.1770   17.0403  -32.9582 H   0  0  0  0  0  0  0  0  0  0  0  0
   -6.4567   18.5499  -33.9302 H   0  0  0  0  0  0  0  0  0  0  0  0
   -5.7033   18.6573  -30.9920 H   0  0  0  0  0  0  0  0  0  0  0  0
   -4.4656   18.5295  -32.3275 H   0  0  0  0  0  0  0  0  0  0  0  0
   -2.9094   19.5298  -32.8015 H   0  0  0  0  0  0  0  0  0  0  0  0
   -3.6691   19.6861  -34.4362 H   0  0  0  0  0  0  0  0  0  0  0  0
   -2.6110   22.1060  -34.0650 H   0  0  0  0  0  0  0  0  0  0  0  0
   -1.8800   20.8550  -34.9290 H   0  0  0  0  0  0  0  0  0  0  0  0
   -0.3759   21.9579  -33.4865 H   0  0  0  0  0  0  0  0  0  0  0  0
   -0.9517   19.0231  -33.0165 H   0  0  0  0  0  0  0  0  0  0  0  0
    0.3711   19.8195  -33.9560 H   0  0  0  0  0  0  0  0  0  0  0  0
    1.2524   18.8666  -31.8677 H   0  0  0  0  0  0  0  0  0  0  0  0
    1.3334   20.6787  -31.8459 H   0  0  0  0  0  0  0  0  0  0  0  0
   -0.3375   18.7959  -30.2027 H   0  0  0  0  0  0  0  0  0  0  0  0
    0.4942   20.3661  -29.7692 H   0  0  0  0  0  0  0  0  0  0  0  0
   -2.2544   19.8864  -30.8931 H   0  0  0  0  0  0  0  0  0  0  0  0
   -1.6719   21.0454  -29.6239 H   0  0  0  0  0  0  0  0  0  0  0  0
   -2.3849   22.2182  -31.6834 H   0  0  0  0  0  0  0  0  0  0  0  0
   -0.6120   22.4209  -31.3370 H   0  0  0  0  0  0  0  0  0  0  0  0
  1  2  1  0
  2  3  1  0
  3  4  2  0
  4  5  1  0
  5  6  2  0
  6  7  1  0
  7  8  2  0
  8  9  1  0
  8 10  1  0
 10 11  2  0
  4 12  1  0
 12 13  2  0
 13 14  1  0
 14 15  1  0
 15 16  1  0
 16 17  1  0
 17 18  1  0
 18 19  1  0
 19 20  2  0
 19 21  1  0
 21 22  1  0
 22 23  1  0
 23 24  1  0
 24 25  1  0
 25 26  1  0
 26 27  1  0
 27 28  1  0
 13  2  1  0
 28 23  1  0
 11  5  1  0
 18 12  1  0
  1 29  1  0
  1 30  1  0
  1 31  1  0
  6 32  1  0
  7 33  1  0
 10 34  1  0
 11 35  1  0
 14 36  1  0
 14 37  1  0
 15 38  1  0
 15 39  1  0
 16 40  1  0
 16 41  1  0
 17 42  1  0
 17 43  1  0
 21 44  1  0
 21 45  1  0
 22 46  1  0
 22 47  1  0
 23 48  1  0
 24 49  1  0
 24 50  1  0
 25 51  1  0
 25 52  1  0
 26 53  1  0
 26 54  1  0
 27 55  1  0
 27 56  1  0
 28 57  1  0
 28 58  1  0
M  CHG  1  22   1
M  END
>  <UniqueID>  (22) 
22

>  <SMILES>  (22) 
Cn1nc(-c2ccc(F)cc2)c2c1CCCCN2C(=O)C[NH2+]C1CCCCC1

>  <Energy>  (22) 
107.25279778617973

>  <Genealogy>  (22) 
Cn1nc(-c2ccc(F)cc2)c2c1CCCCN2C(=O)C[NH2+]C1CCCCC1 (protonated)
Cn1nc(-c2ccc(F)cc2)c2c1CCCCN2C(=O)C[NH2+]C1CCCCC1 (3D coordinates assigned)
Cn1nc(-c2ccc(F)cc2)c2c1CCCCN2C(=O)C[NH2+]C1CCCCC1 (nonaromatic ring conformer: 107.25279778617973 kcal/mol)

>  <smiles>  (22) 
Cn1nc(-c2ccc(F)cc2)c2c1CCCCN2C(=O)CNC1CCCCC1

>  <score_type>  (22) 
oracle

>  <origin>  (22) 
adg

>  <m_score__min__energy>  (22) 
-7.0599999999999996

>  <m_primary>  (22) 
energy

$$$$
22:0
     RDKit          3D

 28 30  0  0  0  0  0  0  0  0999 V2000
   -4.5700   13.9260  -32.4090 C   0  0  0  0  0  0  0  0  0  0  0  0
   -5.1150   15.2440  -32.8550 C   0  0  0  0  0  0  0  0  0  0  0  0
   -5.5120   15.4290  -34.2000 C   0  0  0  0  0  0  0  0  0  0  0  0
   -6.0200   16.6740  -34.5920 C   0  0  0  0  0  0  0  0  0  0  0  0
   -6.1040   17.6460  -33.6520 N   0  0  0  0  0  0  0  0  0  0  0  0
   -6.5450   18.8810  -33.8010 N   0  0  0  0  0  0  0  0  0  0  0  0
   -6.4490   19.4950  -32.5970 C   0  0  0  0  0  0  0  0  0  0  0  0
   -6.8340   20.9000  -32.3480 C   0  0  0  0  0  0  0  0  0  0  0  0
   -8.1930   21.2480  -32.1840 C   0  0  0  0  0  0  0  0  0  0  0  0
   -9.4830   20.0570  -32.3270 Cl  0  0  0  0  0  0  0  0  0  0  0  0
   -8.5510   22.5800  -31.9470 C   0  0  0  0  0  0  0  0  0  0  0  0
   -7.5730   23.5710  -31.8700 C   0  0  0  0  0  0  0  0  0  0  0  0
   -6.2280   23.2380  -32.0300 C   0  0  0  0  0  0  0  0  0  0  0  0
   -5.8500   21.9120  -32.2670 C   0  0  0  0  0  0  0  0  0  0  0  0
   -4.1300   21.5530  -32.3980 Cl  0  0  0  0  0  0  0  0  0  0  0  0
   -5.9220   18.6090  -31.6530 C   0  0  0  0  0  0  0  0  0  0  0  0
   -5.7260   17.4580  -32.3830 C   0  0  0  0  0  0  0  0  0  0  0  0
   -5.2290   16.2710  -31.9590 N   0  0  0  0  0  0  0  0  0  0  0  0
   -4.5546   13.8886  -31.3097 H   0  0  0  0  0  0  0  0  0  0  0  0
   -5.2071   13.1164  -32.7945 H   0  0  0  0  0  0  0  0  0  0  0  0
   -3.5471   13.8028  -32.7945 H   0  0  0  0  0  0  0  0  0  0  0  0
   -5.4232   14.6080  -34.9267 H   0  0  0  0  0  0  0  0  0  0  0  0
   -6.3401   16.8565  -35.6285 H   0  0  0  0  0  0  0  0  0  0  0  0
   -6.9120   19.2870  -34.6910 H   0  0  0  0  0  0  0  0  0  0  0  0
   -9.6106   22.8469  -31.8207 H   0  0  0  0  0  0  0  0  0  0  0  0
   -7.8623   24.6157  -31.6830 H   0  0  0  0  0  0  0  0  0  0  0  0
   -5.4597   24.0229  -31.9695 H   0  0  0  0  0  0  0  0  0  0  0  0
   -5.7146   18.7876  -30.5876 H   0  0  0  0  0  0  0  0  0  0  0  0
  1  2  1  0
  2  3  1  0
  3  4  2  0
  4  5  1  0
  5  6  1  0
  6  7  2  0
  7  8  1  0
  8  9  2  0
  9 10  1  0
  9 11  1  0
 11 12  2  0
 12 13  1  0
 13 14  2  0
 14 15  1  0
  7 16  1  0
 16 17  2  0
 17 18  1  0
 18  2  2  0
 17  5  1  0
 14  8  1  0
  1 19  1  0
  1 20  1  0
  1 21  1  0
  3 22  1  0
  4 23  1  0
  6 24  1  0
 11 25  1  0
 12 26  1  0
 13 27  1  0
 16 28  1  0
M  CHG  1   6   1
M  END
>  <UniqueID>  (23) 
23

>  <SMILES>  (23) 
Cc1ccn2[nH+]c(-c3c(Cl)cccc3Cl)cc2n1

>  <Energy>  (23) 
75.05288178122366

>  <Genealogy>  (23) 
Cc1ccn2[nH+]c(-c3c(Cl)cccc3Cl)cc2n1 (protonated)
Cc1ccn2[nH+]c(-c3c(Cl)cccc3Cl)cc2n1 (3D coordinates assigned)
Cc1ccn2[nH+]c(-c3c(Cl)cccc3Cl)cc2n1 (optimized conformer: 75.05288178122366 kcal/mol)

>  <smiles>  (23) 
Cc1ccn2nc(-c3c(Cl)cccc3Cl)cc2n1

>  <score_type>  (23) 
oracle

>  <origin>  (23) 
adg

>  <m_score__min__energy>  (23) 
-7.0999999999999996

>  <m_primary>  (23) 
energy

$$$$
23:0
     RDKit          3D

 55 57  0  0  0  0  0  0  0  0999 V2000
   -9.2010   21.3970  -31.9360 C   0  0  0  0  0  0  0  0  0  0  0  0
   -8.2980   20.1730  -31.8090 C   0  0  0  0  0  0  0  0  0  0  0  0
   -8.2160   19.4460  -33.0840 N   0  0  0  0  0  0  0  0  0  0  0  0
   -6.8390   19.1630  -33.4010 C   0  0  0  0  0  0  0  0  0  0  0  0
   -6.4860   17.9540  -34.0090 C   0  0  0  0  0  0  0  0  0  0  0  0
   -5.1520   17.6660  -34.2940 C   0  0  0  0  0  0  0  0  0  0  0  0
   -4.1150   18.5680  -33.9470 C   0  0  0  0  0  0  0  0  0  0  0  0
   -4.4750   19.8020  -33.3460 C   0  0  0  0  0  0  0  0  0  0  0  0
   -5.8310   20.0800  -33.0760 C   0  0  0  0  0  0  0  0  0  0  0  0
   -3.4760   20.7480  -33.0510 C   0  0  0  0  0  0  0  0  0  0  0  0
   -3.8130   21.9670  -32.3680 N   0  0  0  0  0  0  0  0  0  0  0  0
   -3.4590   22.1650  -30.9640 C   0  0  0  0  0  0  0  0  0  0  0  0
   -4.3490   23.2580  -30.3450 C   0  0  0  0  0  0  0  0  0  0  0  0
   -5.0250   24.1210  -31.3410 N   0  0  0  0  0  0  0  0  0  0  0  0
   -6.2280   23.4820  -31.9050 C   0  0  0  0  0  0  0  0  0  0  0  0
   -5.3050   25.4780  -30.8230 C   0  0  0  0  0  0  0  0  0  0  0  0
   -6.3530   25.4260  -29.7150 C   0  0  0  0  0  0  0  0  0  0  0  0
   -2.1560   20.5130  -33.4780 C   0  0  0  0  0  0  0  0  0  0  0  0
   -1.1500   21.4870  -33.3000 C   0  0  0  0  0  0  0  0  0  0  0  0
    0.1440   21.2680  -33.7670 C   0  0  0  0  0  0  0  0  0  0  0  0
    0.4540   20.0860  -34.4280 C   0  0  0  0  0  0  0  0  0  0  0  0
   -0.5170   19.1000  -34.5970 C   0  0  0  0  0  0  0  0  0  0  0  0
   -1.8320   19.2740  -34.0940 C   0  0  0  0  0  0  0  0  0  0  0  0
   -2.7860   18.2790  -34.1960 N   0  0  0  0  0  0  0  0  0  0  0  0
   -2.3830   16.8990  -34.5490 C   0  0  0  0  0  0  0  0  0  0  0  0
   -9.4692   21.7605  -30.9330 H   0  0  0  0  0  0  0  0  0  0  0  0
   -8.6696   22.1895  -32.4833 H   0  0  0  0  0  0  0  0  0  0  0  0
  -10.1151   21.1231  -32.4833 H   0  0  0  0  0  0  0  0  0  0  0  0
   -7.2894   20.4987  -31.5148 H   0  0  0  0  0  0  0  0  0  0  0  0
   -8.7223   19.5011  -31.0484 H   0  0  0  0  0  0  0  0  0  0  0  0
   -8.6430   20.0230  -33.8480 H   0  0  0  0  0  0  0  0  0  0  0  0
   -8.7570   18.5520  -33.0160 H   0  0  0  0  0  0  0  0  0  0  0  0
   -7.2679   17.2238  -34.2646 H   0  0  0  0  0  0  0  0  0  0  0  0
   -4.8995   16.7212  -34.7975 H   0  0  0  0  0  0  0  0  0  0  0  0
   -6.1022   21.0346  -32.6014 H   0  0  0  0  0  0  0  0  0  0  0  0
   -4.0740   22.8070  -32.9320 H   0  0  0  0  0  0  0  0  0  0  0  0
   -3.6047   21.2228  -30.4154 H   0  0  0  0  0  0  0  0  0  0  0  0
   -2.4062   22.4767  -30.8979 H   0  0  0  0  0  0  0  0  0  0  0  0
   -5.1199   22.7695  -29.7309 H   0  0  0  0  0  0  0  0  0  0  0  0
   -3.6879   23.9104  -29.7556 H   0  0  0  0  0  0  0  0  0  0  0  0
   -6.8776   23.1370  -31.0871 H   0  0  0  0  0  0  0  0  0  0  0  0
   -6.7733   24.2093  -32.5244 H   0  0  0  0  0  0  0  0  0  0  0  0
   -5.9307   22.6229  -32.5244 H   0  0  0  0  0  0  0  0  0  0  0  0
   -4.3764   25.9103  -30.4219 H   0  0  0  0  0  0  0  0  0  0  0  0
   -5.6901   26.0984  -31.6457 H   0  0  0  0  0  0  0  0  0  0  0  0
   -5.8527   25.4508  -28.7357 H   0  0  0  0  0  0  0  0  0  0  0  0
   -7.0254   26.2919  -29.8053 H   0  0  0  0  0  0  0  0  0  0  0  0
   -6.9363   24.4978  -29.8053 H   0  0  0  0  0  0  0  0  0  0  0  0
   -1.3906   22.4297  -32.7867 H   0  0  0  0  0  0  0  0  0  0  0  0
    0.9208   22.0313  -33.6123 H   0  0  0  0  0  0  0  0  0  0  0  0
    1.4696   19.9275  -34.8196 H   0  0  0  0  0  0  0  0  0  0  0  0
   -0.2594   18.1722  -35.1289 H   0  0  0  0  0  0  0  0  0  0  0  0
   -2.2139   16.3198  -33.6293 H   0  0  0  0  0  0  0  0  0  0  0  0
   -3.1800   16.4241  -35.1400 H   0  0  0  0  0  0  0  0  0  0  0  0
   -1.4557   16.9276  -35.1400 H   0  0  0  0  0  0  0  0  0  0  0  0
  1  2  1  0
  2  3  1  0
  3  4  1  0
  4  5  2  0
  5  6  1  0
  6  7  2  0
  7  8  1  0
  8  9  2  0
  8 10  1  0
 10 11  1  0
 11 12  1  0
 12 13  1  0
 13 14  1  0
 14 15  1  0
 14 16  1  0
 16 17  1  0
 10 18  2  0
 18 19  1  0
 19 20  2  0
 20 21  1  0
 21 22  2  0
 22 23  1  0
 23 24  2  0
 24 25  1  0
  9  4  1  0
 23 18  1  0
 24  7  1  0
  1 26  1  0
  1 27  1  0
  1 28  1  0
  2 29  1  0
  2 30  1  0
  3 31  1  0
  3 32  1  0
  5 33  1  0
  6 34  1  0
  9 35  1  0
 11 36  1  0
 12 37  1  0
 12 38  1  0
 13 39  1  0
 13 40  1  0
 15 41  1  0
 15 42  1  0
 15 43  1  0
 16 44  1  0
 16 45  1  0
 17 46  1  0
 17 47  1  0
 17 48  1  0
 19 49  1  0
 20 50  1  0
 21 51  1  0
 22 52  1  0
 25 53  1  0
 25 54  1  0
 25 55  1  0
M  CHG  2   3   1  24   1
M  END
>  <UniqueID>  (24) 
24

>  <SMILES>  (24) 
CC[NH2+]c1ccc2c(c1)c(NCCN(C)CC)c1ccccc1[n+]2C

>  <Energy>  (24) 
79.21757818724159

>  <Genealogy>  (24) 
CC[NH2+]c1ccc2c(c1)c(NCCN(C)CC)c1ccccc1[n+]2C (protonated)
CC[NH2+]c1ccc2c(c1)c(NCCN(C)CC)c1ccccc1[n+]2C (3D coordinates assigned)
CC[NH2+]c1ccc2c(c1)c(NCCN(C)CC)c1ccccc1[n+]2C (optimized conformer: 79.21757818724159 kcal/mol)

>  <smiles>  (24) 
CCNc1ccc2c(c1)c(NCCN(C)CC)c1ccccc1[n+]2C

>  <score_type>  (24) 
oracle

>  <origin>  (24) 
adg

>  <m_score__min__energy>  (24) 
-7.9699999999999998

>  <m_primary>  (24) 
energy

$$$$
24:0
     RDKit          3D

 58 61  0  0  0  0  0  0  0  0999 V2000
   -5.4750   19.3480  -33.8420 C   0  0  0  0  0  0  0  0  0  0  0  0
   -5.8530   18.1850  -32.9290 C   0  0  0  0  0  0  0  0  0  0  0  0
   -7.2240   17.6020  -33.3140 C   0  0  0  0  0  0  0  0  0  0  0  0
   -8.3250   18.5450  -33.0350 N   0  0  0  0  0  0  0  0  0  0  0  0
   -8.6410   18.6590  -31.5900 C   0  0  0  0  0  0  0  0  0  0  0  0
   -8.6150   20.1150  -31.0790 C   0  0  0  0  0  0  0  0  0  0  0  0
   -7.6480   21.0390  -31.8380 C   0  0  0  0  0  0  0  0  0  0  0  0
   -7.9220   22.5290  -31.5840 C   0  0  0  0  0  0  0  0  0  0  0  0
   -6.7250   23.3270  -31.9400 N   0  0  0  0  0  0  0  0  0  0  0  0
   -5.5190   22.4990  -32.1450 C   0  0  0  0  0  0  0  0  0  0  0  0
   -4.9050   21.9990  -30.8250 C   0  0  0  0  0  0  0  0  0  0  0  0
   -5.3440   22.8630  -29.6270 C   0  0  1  0  0  0  0  0  0  0  0  0
   -4.4270   22.6660  -28.3950 C   0  0  0  0  0  0  0  0  0  0  0  0
   -3.2100   23.5200  -28.5100 C   0  0  0  0  0  0  0  0  0  0  0  0
   -3.1170   24.6100  -29.3460 C   0  0  0  0  0  0  0  0  0  0  0  0
   -1.9290   25.2390  -29.2020 N   0  0  0  0  0  0  0  0  0  0  0  0
   -1.2820   24.5550  -28.2380 C   0  0  0  0  0  0  0  0  0  0  0  0
   -0.0170   24.8190  -27.7160 C   0  0  0  0  0  0  0  0  0  0  0  0
    0.4660   23.9730  -26.6990 C   0  0  0  0  0  0  0  0  0  0  0  0
   -0.3170   22.8930  -26.2330 C   0  0  0  0  0  0  0  0  0  0  0  0
   -1.5910   22.6470  -26.7780 C   0  0  0  0  0  0  0  0  0  0  0  0
   -2.0400   23.5000  -27.7850 C   0  0  0  0  0  0  0  0  0  0  0  0
   -4.1720   24.9520  -30.3470 C   0  0  0  0  0  0  0  0  0  0  0  0
   -5.4610   24.2920  -30.0110 N   0  0  0  0  0  0  0  0  0  0  0  0
   -6.4840   24.5110  -31.0680 C   0  0  0  0  0  0  0  0  0  0  0  0
   -5.1924   20.2175  -33.2303 H   0  0  0  0  0  0  0  0  0  0  0  0
   -4.6259   19.0548  -34.4769 H   0  0  0  0  0  0  0  0  0  0  0  0
   -6.3342   19.6100  -34.4769 H   0  0  0  0  0  0  0  0  0  0  0  0
   -5.0902   17.3972  -33.0161 H   0  0  0  0  0  0  0  0  0  0  0  0
   -5.9089   18.5562  -31.8950 H   0  0  0  0  0  0  0  0  0  0  0  0
   -7.2210   17.3678  -34.3888 H   0  0  0  0  0  0  0  0  0  0  0  0
   -7.3901   16.6980  -32.7098 H   0  0  0  0  0  0  0  0  0  0  0  0
   -8.0700   19.4790  -33.4320 H   0  0  0  0  0  0  0  0  0  0  0  0
   -9.1820   18.2350  -33.5520 H   0  0  0  0  0  0  0  0  0  0  0  0
   -9.6454   18.2450  -31.4173 H   0  0  0  0  0  0  0  0  0  0  0  0
   -7.8672   18.1038  -31.0396 H   0  0  0  0  0  0  0  0  0  0  0  0
   -9.6297   20.5296  -31.1706 H   0  0  0  0  0  0  0  0  0  0  0  0
   -8.2592   20.0757  -30.0389 H   0  0  0  0  0  0  0  0  0  0  0  0
   -6.6207   20.8114  -31.5174 H   0  0  0  0  0  0  0  0  0  0  0  0
   -7.7914   20.8555  -32.9131 H   0  0  0  0  0  0  0  0  0  0  0  0
   -8.7738   22.8538  -32.1995 H   0  0  0  0  0  0  0  0  0  0  0  0
   -8.1554   22.6792  -30.5196 H   0  0  0  0  0  0  0  0  0  0  0  0
   -5.7917   21.6272  -32.7578 H   0  0  0  0  0  0  0  0  0  0  0  0
   -4.7663   23.1289  -32.6418 H   0  0  0  0  0  0  0  0  0  0  0  0
   -5.2271   20.9614  -30.6529 H   0  0  0  0  0  0  0  0  0  0  0  0
   -3.8103   22.0637  -30.9107 H   0  0  0  0  0  0  0  0  0  0  0  0
   -6.3443   22.5187  -29.3256 H   0  0  0  0  0  0  0  0  0  0  0  0
   -4.9790   22.9426  -27.4846 H   0  0  0  0  0  0  0  0  0  0  0  0
   -4.1189   21.6112  -28.3450 H   0  0  0  0  0  0  0  0  0  0  0  0
   -1.5860   26.0740  -29.7260 H   0  0  0  0  0  0  0  0  0  0  0  0
    0.5852   25.6616  -28.0867 H   0  0  0  0  0  0  0  0  0  0  0  0
    1.4600   24.1543  -26.2642 H   0  0  0  0  0  0  0  0  0  0  0  0
    0.0722   22.2396  -25.4383 H   0  0  0  0  0  0  0  0  0  0  0  0
   -2.2108   21.8109  -26.4218 H   0  0  0  0  0  0  0  0  0  0  0  0
   -4.3182   26.0422  -30.3569 H   0  0  0  0  0  0  0  0  0  0  0  0
   -3.8446   24.5974  -31.3355 H   0  0  0  0  0  0  0  0  0  0  0  0
   -7.4327   24.7785  -30.5797 H   0  0  0  0  0  0  0  0  0  0  0  0
   -6.0995   25.3099  -31.7191 H   0  0  0  0  0  0  0  0  0  0  0  0
  1  2  1  0
  2  3  1  0
  3  4  1  0
  4  5  1  0
  5  6  1  0
  6  7  1  0
  7  8  1  0
  8  9  1  0
  9 10  1  0
 10 11  1  0
 11 12  1  0
 12 13  1  0
 13 14  1  0
 14 15  2  0
 15 16  1  0
 16 17  1  0
 17 18  2  0
 18 19  1  0
 19 20  2  0
 20 21  1  0
 21 22  2  0
 15 23  1  0
 23 24  1  0
 24 25  1  0
 25  9  1  0
 24 12  1  0
 22 14  1  0
 22 17  1  0
  1 26  1  0
  1 27  1  0
  1 28  1  0
  2 29  1  0
  2 30  1  0
  3 31  1  0
  3 32  1  0
  4 33  1  0
  4 34  1  0
  5 35  1  0
  5 36  1  0
  6 37  1  0
  6 38  1  0
  7 39  1  0
  7 40  1  0
  8 41  1  0
  8 42  1  0
 10 43  1  0
 10 44  1  0
 11 45  1  0
 11 46  1  0
 12 47  1  1
 13 48  1  0
 13 49  1  0
 16 50  1  0
 18 51  1  0
 19 52  1  0
 20 53  1  0
 21 54  1  0
 23 55  1  0
 23 56  1  0
 25 57  1  0
 25 58  1  0
M  CHG  1   4   1
M  END
>  <UniqueID>  (25) 
25

>  <SMILES>  (25) 
CCC[NH2+]CCCCN1CC[C@H]2Cc3c([nH]c4ccccc34)CN2C1

>  <Energy>  (25) 
107.97728503307974

>  <Genealogy>  (25) 
CCC[NH2+]CCCCN1CCC2Cc3c([nH]c4ccccc34)CN2C1 (protonated)
CCC[NH2+]CCCCN1CC[C@H]2Cc3c([nH]c4ccccc34)CN2C1 (chirality)
CCC[NH2+]CCCCN1CC[C@H]2Cc3c([nH]c4ccccc34)CN2C1 (3D coordinates assigned)
CCC[NH2+]CCCCN1CC[C@H]2Cc3c([nH]c4ccccc34)CN2C1 (nonaromatic ring conformer: 107.97728503307974 kcal/mol)

>  <smiles>  (25) 
CCCNCCCCN1CCC2Cc3c([nH]c4ccccc34)CN2C1

>  <score_type>  (25) 
oracle

>  <origin>  (25) 
adg

>  <m_score__min__energy>  (25) 
-7.9299999999999997

>  <m_primary>  (25) 
energy

$$$$
25:0
     RDKit          3D

 76 79  0  0  0  0  0  0  0  0999 V2000
   -5.2160   18.1890  -34.8500 C   0  0  0  0  0  0  0  0  0  0  0  0
   -4.4010   18.3440  -33.6330 N   0  0  0  0  0  0  0  0  0  0  0  0
   -3.8170   17.0390  -33.2750 C   0  0  0  0  0  0  0  0  0  0  0  0
   -3.3490   19.3680  -33.8380 C   0  0  0  0  0  0  0  0  0  0  0  0
   -3.3780   20.4340  -32.7190 C   0  0  0  0  0  0  0  0  0  0  0  0
   -4.3050   20.1430  -31.6000 N   0  0  0  0  0  0  0  0  0  0  0  0
   -5.5270   20.9420  -31.6020 C   0  0  0  0  0  0  0  0  0  0  0  0
   -6.7910   20.3580  -31.9160 C   0  0  0  0  0  0  0  0  0  0  0  0
   -6.9420   18.9720  -32.1930 C   0  0  0  0  0  0  0  0  0  0  0  0
   -8.1930   18.4130  -32.4360 C   0  0  0  0  0  0  0  0  0  0  0  0
   -9.3280   19.2040  -32.4000 C   0  0  0  0  0  0  0  0  0  0  0  0
   -9.2180   20.5670  -32.1510 C   0  0  0  0  0  0  0  0  0  0  0  0
   -7.9560   21.1790  -31.9360 C   0  0  0  0  0  0  0  0  0  0  0  0
   -7.8550   22.5390  -31.7280 N   0  0  0  0  0  0  0  0  0  0  0  0
   -8.9950   23.4230  -32.0670 C   0  0  0  0  0  0  0  0  0  0  0  0
   -6.6890   23.0790  -31.2340 C   0  0  0  0  0  0  0  0  0  0  0  0
   -6.6580   24.3950  -30.7140 C   0  0  0  0  0  0  0  0  0  0  0  0
   -5.4720   24.9770  -30.2880 C   0  0  0  0  0  0  0  0  0  0  0  0
   -4.2770   24.2740  -30.3530 C   0  0  0  0  0  0  0  0  0  0  0  0
   -3.1150   24.9230  -29.9030 O   0  0  0  0  0  0  0  0  0  0  0  0
   -2.1330   24.3870  -29.0190 C   0  0  0  0  0  0  0  0  0  0  0  0
   -2.4020   24.7100  -27.5270 C   0  0  0  0  0  0  0  0  0  0  0  0
   -1.2450   25.1790  -26.6840 N   0  0  0  0  0  0  0  0  0  0  0  0
   -0.2070   24.1140  -26.7970 C   0  0  0  0  0  0  0  0  0  0  0  0
   -1.6250   25.2970  -25.2330 C   0  0  0  0  0  0  0  0  0  0  0  0
   -1.6160   26.7460  -24.7000 C   0  0  0  0  0  0  0  0  0  0  0  0
   -0.3030   27.4310  -24.9010 N   0  0  0  0  0  0  0  0  0  0  0  0
   -0.5320   28.8960  -24.8060 C   0  0  0  0  0  0  0  0  0  0  0  0
    0.6320   27.0480  -23.8120 C   0  0  0  0  0  0  0  0  0  0  0  0
    0.3190   27.1070  -26.2300 C   0  0  0  0  0  0  0  0  0  0  0  0
   -0.6700   26.4540  -27.2160 C   0  0  0  0  0  0  0  0  0  0  0  0
   -4.2830   22.9560  -30.8330 C   0  0  0  0  0  0  0  0  0  0  0  0
   -5.4890   22.3170  -31.2270 C   0  0  0  0  0  0  0  0  0  0  0  0
   -6.2607   17.9903  -34.5688 H   0  0  0  0  0  0  0  0  0  0  0  0
   -5.1658   19.1128  -35.4450 H   0  0  0  0  0  0  0  0  0  0  0  0
   -4.8302   17.3481  -35.4450 H   0  0  0  0  0  0  0  0  0  0  0  0
   -3.7746   16.9443  -32.1799 H   0  0  0  0  0  0  0  0  0  0  0  0
   -4.4401   16.2325  -33.6890 H   0  0  0  0  0  0  0  0  0  0  0  0
   -2.8005   16.9662  -33.6890 H   0  0  0  0  0  0  0  0  0  0  0  0
   -2.3652   18.8760  -33.8389 H   0  0  0  0  0  0  0  0  0  0  0  0
   -3.5343   19.8687  -34.7997 H   0  0  0  0  0  0  0  0  0  0  0  0
   -2.3623   20.5230  -32.3062 H   0  0  0  0  0  0  0  0  0  0  0  0
   -3.7424   21.3605  -33.1867 H   0  0  0  0  0  0  0  0  0  0  0  0
   -4.5590   19.1320  -31.6300 H   0  0  0  0  0  0  0  0  0  0  0  0
   -3.7870   20.1970  -30.7020 H   0  0  0  0  0  0  0  0  0  0  0  0
   -6.0509   18.3275  -32.2158 H   0  0  0  0  0  0  0  0  0  0  0  0
   -8.2800   17.3390  -32.6574 H   0  0  0  0  0  0  0  0  0  0  0  0
  -10.3175   18.7539  -32.5685 H   0  0  0  0  0  0  0  0  0  0  0  0
  -10.1281   21.1840  -32.1200 H   0  0  0  0  0  0  0  0  0  0  0  0
   -9.4646   23.7871  -31.1413 H   0  0  0  0  0  0  0  0  0  0  0  0
   -8.6330   24.2788  -32.6557 H   0  0  0  0  0  0  0  0  0  0  0  0
   -9.7337   22.8593  -32.6557 H   0  0  0  0  0  0  0  0  0  0  0  0
   -7.5939   24.9689  -30.6460 H   0  0  0  0  0  0  0  0  0  0  0  0
   -5.4793   26.0045  -29.8954 H   0  0  0  0  0  0  0  0  0  0  0  0
   -2.1145   23.2939  -29.1407 H   0  0  0  0  0  0  0  0  0  0  0  0
   -1.1718   24.8525  -29.2826 H   0  0  0  0  0  0  0  0  0  0  0  0
   -3.1692   25.4976  -27.4963 H   0  0  0  0  0  0  0  0  0  0  0  0
   -2.6897   23.7447  -27.0850 H   0  0  0  0  0  0  0  0  0  0  0  0
    0.1030   23.7959  -25.7907 H   0  0  0  0  0  0  0  0  0  0  0  0
   -0.6224   23.2534  -27.3418 H   0  0  0  0  0  0  0  0  0  0  0  0
    0.6640   24.5072  -27.3418 H   0  0  0  0  0  0  0  0  0  0  0  0
   -2.6380   24.8874  -25.1058 H   0  0  0  0  0  0  0  0  0  0  0  0
   -0.8695   24.7408  -24.6587 H   0  0  0  0  0  0  0  0  0  0  0  0
   -2.3946   27.3183  -25.2256 H   0  0  0  0  0  0  0  0  0  0  0  0
   -1.8025   26.7007  -23.6169 H   0  0  0  0  0  0  0  0  0  0  0  0
   -0.5783   29.1920  -23.7476 H   0  0  0  0  0  0  0  0  0  0  0  0
    0.2937   29.4290  -25.3000 H   0  0  0  0  0  0  0  0  0  0  0  0
   -1.4810   29.1516  -25.3000 H   0  0  0  0  0  0  0  0  0  0  0  0
    0.1593   27.2416  -22.8378 H   0  0  0  0  0  0  0  0  0  0  0  0
    0.8741   25.9783  -23.8959 H   0  0  0  0  0  0  0  0  0  0  0  0
    1.5550   27.6405  -23.8959 H   0  0  0  0  0  0  0  0  0  0  0  0
    0.6955   28.0389  -26.6771 H   0  0  0  0  0  0  0  0  0  0  0  0
    1.1267   26.3830  -26.0470 H   0  0  0  0  0  0  0  0  0  0  0  0
   -1.4921   27.1584  -27.4108 H   0  0  0  0  0  0  0  0  0  0  0  0
   -0.1181   26.2153  -28.1371 H   0  0  0  0  0  0  0  0  0  0  0  0
   -3.3335   22.4054  -30.9059 H   0  0  0  0  0  0  0  0  0  0  0  0
  1  2  1  0
  2  3  1  0
  2  4  1  0
  4  5  1  0
  5  6  1  0
  6  7  1  0
  7  8  2  0
  8  9  1  0
  9 10  2  0
 10 11  1  0
 11 12  2  0
 12 13  1  0
 13 14  2  0
 14 15  1  0
 14 16  1  0
 16 17  2  0
 17 18  1  0
 18 19  2  0
 19 20  1  0
 20 21  1  0
 21 22  1  0
 22 23  1  0
 23 24  1  0
 23 25  1  0
 25 26  1  0
 26 27  1  0
 27 28  1  0
 27 29  1  0
 27 30  1  0
 30 31  1  0
 19 32  1  0
 32 33  2  0
 33  7  1  0
 13  8  1  0
 33 16  1  0
 31 23  1  0
  1 34  1  0
  1 35  1  0
  1 36  1  0
  3 37  1  0
  3 38  1  0
  3 39  1  0
  4 40  1  0
  4 41  1  0
  5 42  1  0
  5 43  1  0
  6 44  1  0
  6 45  1  0
  9 46  1  0
 10 47  1  0
 11 48  1  0
 12 49  1  0
 15 50  1  0
 15 51  1  0
 15 52  1  0
 17 53  1  0
 18 54  1  0
 21 55  1  0
 21 56  1  0
 22 57  1  0
 22 58  1  0
 24 59  1  0
 24 60  1  0
 24 61  1  0
 25 62  1  0
 25 63  1  0
 26 64  1  0
 26 65  1  0
 28 66  1  0
 28 67  1  0
 28 68  1  0
 29 69  1  0
 29 70  1  0
 29 71  1  0
 30 72  1  0
 30 73  1  0
 31 74  1  0
 31 75  1  0
 32 76  1  0
M  CHG  4   6   1  14   1  23   1  27   1
M  END
>  <UniqueID>  (26) 
26

>  <SMILES>  (26) 
CN(C)CC[NH2+]c1c2ccccc2[n+](C)c2ccc(OCC[N+]3(C)CC[N+](C)(C)CC3)cc12

>  <Energy>  (26) 
137.06424773585854

>  <Genealogy>  (26) 
CN(C)CC[NH2+]c1c2ccccc2[n+](C)c2ccc(OCC[N+]3(C)CC[N+](C)(C)CC3)cc12 (protonated)
CN(C)CC[NH2+]c1c2ccccc2[n+](C)c2ccc(OCC[N+]3(C)CC[N+](C)(C)CC3)cc12 (3D coordinates assigned)
CN(C)CC[NH2+]c1c2ccccc2[n+](C)c2ccc(OCC[N+]3(C)CC[N+](C)(C)CC3)cc12 (nonaromatic ring conformer: 137.06424773585854 kcal/mol)

>  <smiles>  (26) 
CN(C)CCNc1c2ccccc2[n+](C)c2ccc(OCC[N+]3(C)CC[N+](C)(C)CC3)cc12

>  <score_type>  (26) 
oracle

>  <origin>  (26) 
adg

>  <m_score__min__energy>  (26) 
-8.0999999999999996

>  <m_primary>  (26) 
energy

$$$$
26:0
     RDKit          3D

 67 71  0  0  0  0  0  0  0  0999 V2000
   -6.3497   25.2262  -31.4404 H   0  0  0  0  0  0  0  0  0  0  0  0
   -5.8370   24.2530  -31.4280 C   0  0  0  0  0  0  0  0  0  0  0  0
   -5.0360   23.8450  -30.4500 C   0  0  0  0  0  0  0  0  0  0  0  0
   -4.8140   24.5460  -29.1690 C   0  0  0  0  0  0  0  0  0  0  0  0
   -5.4102   25.4486  -28.9695 H   0  0  0  0  0  0  0  0  0  0  0  0
   -3.9350   24.1580  -28.2310 C   0  0  0  0  0  0  0  0  0  0  0  0
   -3.1067   23.5060  -28.5452 H   0  0  0  0  0  0  0  0  0  0  0  0
   -4.0030   24.5520  -26.7810 C   0  0  0  0  0  0  0  0  0  0  0  0
   -3.8495   23.6628  -26.1518 H   0  0  0  0  0  0  0  0  0  0  0  0
   -3.2195   25.2934  -26.5654 H   0  0  0  0  0  0  0  0  0  0  0  0
   -4.9897   24.9879  -26.5654 H   0  0  0  0  0  0  0  0  0  0  0  0
   -4.3780   22.5580  -30.7980 C   0  0  0  0  0  0  0  0  0  0  0  0
   -4.8327   21.7173  -30.2534 H   0  0  0  0  0  0  0  0  0  0  0  0
   -3.3103   22.5224  -30.5358 H   0  0  0  0  0  0  0  0  0  0  0  0
   -4.6470   22.4550  -32.3080 C   0  0  1  0  0  0  0  0  0  0  0  0
   -3.8314   22.8919  -32.9028 H   0  0  0  0  0  0  0  0  0  0  0  0
   -4.6610   21.0200  -32.8380 C   0  0  0  0  0  0  0  0  0  0  0  0
   -3.5020   20.4570  -33.4640 C   0  0  0  0  0  0  0  0  0  0  0  0
   -2.3340   21.2830  -33.7800 N   0  0  0  0  0  0  0  0  0  0  0  0
   -2.0000   21.1210  -34.7510 H   0  0  0  0  0  0  0  0  0  0  0  0
   -2.6160   22.2920  -33.8680 H   0  0  0  0  0  0  0  0  0  0  0  0
   -1.1980   21.1760  -32.8270 C   0  0  0  0  0  0  0  0  0  0  0  0
   -1.2354   22.0431  -32.1511 H   0  0  0  0  0  0  0  0  0  0  0  0
   -1.3198   20.2146  -32.3065 H   0  0  0  0  0  0  0  0  0  0  0  0
    0.2050   21.1400  -33.4890 C   0  0  0  0  0  0  0  0  0  0  0  0
    0.8456   21.8902  -33.0023 H   0  0  0  0  0  0  0  0  0  0  0  0
    0.6109   20.1252  -33.3645 H   0  0  0  0  0  0  0  0  0  0  0  0
    0.1470   21.4330  -34.9480 N   0  0  0  0  0  0  0  0  0  0  0  0
    0.2260   20.1660  -35.7020 C   0  0  0  0  0  0  0  0  0  0  0  0
    0.2786   19.3228  -34.9976 H   0  0  0  0  0  0  0  0  0  0  0  0
   -0.6673   20.0598  -36.3351 H   0  0  0  0  0  0  0  0  0  0  0  0
    1.1255   20.1715  -36.3351 H   0  0  0  0  0  0  0  0  0  0  0  0
    1.2400   22.3430  -35.3620 C   0  0  0  0  0  0  0  0  0  0  0  0
    1.8099   22.6491  -34.4723 H   0  0  0  0  0  0  0  0  0  0  0  0
    1.8906   21.8102  -36.0712 H   0  0  0  0  0  0  0  0  0  0  0  0
    0.6820   23.5900  -36.0530 C   0  0  0  0  0  0  0  0  0  0  0  0
    0.3572   24.3159  -35.2930 H   0  0  0  0  0  0  0  0  0  0  0  0
    1.4638   24.0419  -36.6812 H   0  0  0  0  0  0  0  0  0  0  0  0
   -0.1759   23.3082  -36.6812 H   0  0  0  0  0  0  0  0  0  0  0  0
   -3.5100   19.0680  -33.7860 C   0  0  0  0  0  0  0  0  0  0  0  0
   -2.3630   18.4130  -34.3200 C   0  0  0  0  0  0  0  0  0  0  0  0
   -1.4503   18.9975  -34.5079 H   0  0  0  0  0  0  0  0  0  0  0  0
   -2.3690   17.0550  -34.6090 C   0  0  0  0  0  0  0  0  0  0  0  0
   -1.4781   16.5819  -35.0477 H   0  0  0  0  0  0  0  0  0  0  0  0
   -3.4960   16.2970  -34.3450 C   0  0  0  0  0  0  0  0  0  0  0  0
   -3.4931   15.2172  -34.5549 H   0  0  0  0  0  0  0  0  0  0  0  0
   -4.6340   16.8990  -33.8140 C   0  0  0  0  0  0  0  0  0  0  0  0
   -5.5104   16.2765  -33.5805 H   0  0  0  0  0  0  0  0  0  0  0  0
   -4.6920   18.3040  -33.5650 C   0  0  0  0  0  0  0  0  0  0  0  0
   -5.8610   18.9190  -33.1160 N   0  0  0  0  0  0  0  0  0  0  0  0
   -7.1330   18.1570  -33.1630 C   0  0  0  0  0  0  0  0  0  0  0  0
   -7.4756   17.9518  -32.1380 H   0  0  0  0  0  0  0  0  0  0  0  0
   -7.8949   18.7476  -33.6929 H   0  0  0  0  0  0  0  0  0  0  0  0
   -6.9717   17.2066  -33.6929 H   0  0  0  0  0  0  0  0  0  0  0  0
   -5.8390   20.2390  -32.6700 C   0  0  0  0  0  0  0  0  0  0  0  0
   -7.0740   20.9610  -32.1140 C   0  0  0  0  0  0  0  0  0  0  0  0
   -8.1220   20.3040  -31.4160 C   0  0  0  0  0  0  0  0  0  0  0  0
   -7.9814   19.2640  -31.0863 H   0  0  0  0  0  0  0  0  0  0  0  0
   -9.3280   20.9530  -31.1400 C   0  0  0  0  0  0  0  0  0  0  0  0
  -10.1565   20.4005  -30.6729 H   0  0  0  0  0  0  0  0  0  0  0  0
   -9.4800   22.3040  -31.4580 C   0  0  0  0  0  0  0  0  0  0  0  0
  -10.4434   22.8050  -31.2822 H   0  0  0  0  0  0  0  0  0  0  0  0
   -8.4140   23.0170  -31.9970 C   0  0  0  0  0  0  0  0  0  0  0  0
   -8.5299   24.0867  -32.2258 H   0  0  0  0  0  0  0  0  0  0  0  0
   -7.1810   22.3710  -32.2520 C   0  0  0  0  0  0  0  0  0  0  0  0
   -5.9570   23.2250  -32.5130 C   0  0  1  0  0  0  0  0  0  0  0  0
   -6.0830   23.6036  -33.5381 H   0  0  0  0  0  0  0  0  0  0  0  0
  1  2  1  0
  2  3  2  0
  3  4  1  0
  4  5  1  0
  4  6  2  0
  6  7  1  0
  6  8  1  0
  8  9  1  0
  8 10  1  0
  8 11  1  0
  3 12  1  0
 12 13  1  0
 12 14  1  0
 12 15  1  0
 15 16  1  6
 15 17  1  0
 17 18  2  0
 18 19  1  0
 19 20  1  0
 19 21  1  0
 19 22  1  0
 22 23  1  0
 22 24  1  0
 22 25  1  0
 25 26  1  0
 25 27  1  0
 25 28  1  0
 28 29  1  0
 29 30  1  0
 29 31  1  0
 29 32  1  0
 28 33  1  0
 33 34  1  0
 33 35  1  0
 33 36  1  0
 36 37  1  0
 36 38  1  0
 36 39  1  0
 18 40  1  0
 40 41  2  0
 41 42  1  0
 41 43  1  0
 43 44  1  0
 43 45  2  0
 45 46  1  0
 45 47  1  0
 47 48  1  0
 47 49  2  0
 49 50  1  0
 50 51  1  0
 51 52  1  0
 51 53  1  0
 51 54  1  0
 50 55  2  0
 55 56  1  0
 56 57  2  0
 57 58  1  0
 57 59  1  0
 59 60  1  0
 59 61  2  0
 61 62  1  0
 61 63  1  0
 63 64  1  0
 63 65  2  0
 65 66  1  0
 66 67  1  6
 66  2  1  0
 66 15  1  0
 55 17  1  0
 65 56  1  0
 49 40  1  0
M  CHG  2  19   1  50   1
M  END
>  <UniqueID>  (27) 
27

>  <SMILES>  (27) 
C/C=C\C1=C[C@@H]2c3ccccc3-c3c(c([NH2+]CCN(C)CC)c4ccccc4[n+]3C)[C@@H]2C1

>  <Energy>  (27) 
132.51020733860702

>  <Genealogy>  (27) 
CC=CC1=CC2c3ccccc3-c3c(c([NH2+]CCN(C)CC)c4ccccc4[n+]3C)C2C1 (protonated)
CC=CC1=C[C@@H]2c3ccccc3-c3c(c([NH2+]CCN(C)CC)c4ccccc4[n+]3C)[C@@H]2C1 (chirality)
C/C=C\C1=C[C@@H]2c3ccccc3-c3c(c([NH2+]CCN(C)CC)c4ccccc4[n+]3C)[C@@H]2C1 (cis-trans isomerization)
C/C=C\C1=C[C@@H]2c3ccccc3-c3c(c([NH2+]CCN(C)CC)c4ccccc4[n+]3C)[C@@H]2C1 (3D coordinates assigned)
C/C=C\C1=C[C@@H]2c3ccccc3-c3c(c([NH2+]CCN(C)CC)c4ccccc4[n+]3C)[C@@H]2C1 (nonaromatic ring conformer: 132.51020733860702 kcal/mol)

>  <smiles>  (27) 
CC=CC1=CC2c3ccccc3-c3c(c(NCCN(C)CC)c4ccccc4[n+]3C)C2C1

>  <score_type>  (27) 
oracle

>  <origin>  (27) 
adg

>  <m_score__min__energy>  (27) 
-10.02

>  <m_primary>  (27) 
energy

$$$$
27:0
     RDKit          3D

 69 72  0  0  0  0  0  0  0  0999 V2000
    3.2600   23.4930  -35.8170 C   0  0  0  0  0  0  0  0  0  0  0  0
    2.3750   22.3360  -35.3510 C   0  0  0  0  0  0  0  0  0  0  0  0
    0.9410   22.6980  -35.3490 N   0  0  0  0  0  0  0  0  0  0  0  0
    0.7140   23.9560  -36.0830 C   0  0  0  0  0  0  0  0  0  0  0  0
    0.0050   21.6150  -35.7470 C   0  0  0  0  0  0  0  0  0  0  0  0
    0.3930   20.1920  -35.2930 C   0  0  0  0  0  0  0  0  0  0  0  0
   -0.2040   19.8620  -33.9950 N   0  0  0  0  0  0  0  0  0  0  0  0
   -1.6080   19.8970  -33.6610 C   0  0  0  0  0  0  0  0  0  0  0  0
   -2.3310   21.1160  -33.5090 C   0  0  0  0  0  0  0  0  0  0  0  0
   -3.6910   21.1080  -33.1560 C   0  0  0  0  0  0  0  0  0  0  0  0
   -4.3080   19.8780  -32.9680 C   0  0  0  0  0  0  0  0  0  0  0  0
   -5.6130   19.5500  -32.6900 C   0  0  0  0  0  0  0  0  0  0  0  0
   -6.7460   20.3310  -32.5090 C   0  0  0  0  0  0  0  0  0  0  0  0
   -7.9610   19.7070  -32.3670 N   0  0  0  0  0  0  0  0  0  0  0  0
   -9.1860   20.5160  -32.3230 C   0  0  0  0  0  0  0  0  0  0  0  0
   -9.1810   21.4240  -31.0900 C   0  0  0  0  0  0  0  0  0  0  0  0
   -7.9310   22.2140  -31.0690 N   0  0  0  0  0  0  0  0  0  0  0  0
   -7.9330   23.3280  -32.0340 C   0  0  0  0  0  0  0  0  0  0  0  0
   -6.5000   23.8660  -32.2290 C   0  0  0  0  0  0  0  0  0  0  0  0
   -5.5590   23.4960  -31.0590 C   0  0  0  0  0  0  0  0  0  0  0  0
   -4.4550   24.3840  -31.0150 O   0  0  0  0  0  0  0  0  0  0  0  0
   -3.5020   23.9460  -30.0700 C   0  0  0  0  0  0  0  0  0  0  0  0
   -6.3190   23.5850  -29.7260 C   0  0  0  0  0  0  0  0  0  0  0  0
   -7.5720   22.6770  -29.7130 C   0  0  0  0  0  0  0  0  0  0  0  0
   -8.0540   18.3310  -32.3840 C   0  0  0  0  0  0  0  0  0  0  0  0
   -6.9100   17.5290  -32.5470 C   0  0  0  0  0  0  0  0  0  0  0  0
   -5.6860   18.1780  -32.7020 C   0  0  0  0  0  0  0  0  0  0  0  0
   -4.4690   17.6280  -32.9480 N   0  0  0  0  0  0  0  0  0  0  0  0
   -4.1670   16.2100  -33.1450 C   0  0  0  0  0  0  0  0  0  0  0  0
   -3.6360   18.6850  -33.1290 C   0  0  0  0  0  0  0  0  0  0  0  0
   -2.2840   18.6680  -33.4790 C   0  0  0  0  0  0  0  0  0  0  0  0
    3.6642   24.0214  -34.9409 H   0  0  0  0  0  0  0  0  0  0  0  0
    4.0896   23.0992  -36.4226 H   0  0  0  0  0  0  0  0  0  0  0  0
    2.6628   24.1906  -36.4226 H   0  0  0  0  0  0  0  0  0  0  0  0
    2.5240   21.4810  -36.0269 H   0  0  0  0  0  0  0  0  0  0  0  0
    2.6621   22.0842  -34.3194 H   0  0  0  0  0  0  0  0  0  0  0  0
    0.5658   24.7771  -35.3662 H   0  0  0  0  0  0  0  0  0  0  0  0
    1.5873   24.1743  -36.7153 H   0  0  0  0  0  0  0  0  0  0  0  0
   -0.1805   23.8553  -36.7153 H   0  0  0  0  0  0  0  0  0  0  0  0
   -0.9818   21.8481  -35.3206 H   0  0  0  0  0  0  0  0  0  0  0  0
    0.0232   21.5933  -36.8466 H   0  0  0  0  0  0  0  0  0  0  0  0
    0.0406   19.4687  -36.0431 H   0  0  0  0  0  0  0  0  0  0  0  0
    1.4874   20.1479  -35.1914 H   0  0  0  0  0  0  0  0  0  0  0  0
    0.4700   19.6040  -33.2340 H   0  0  0  0  0  0  0  0  0  0  0  0
   -1.8176   22.0754  -33.6701 H   0  0  0  0  0  0  0  0  0  0  0  0
   -4.2500   22.0473  -33.0323 H   0  0  0  0  0  0  0  0  0  0  0  0
   -6.6721   21.4281  -32.4799 H   0  0  0  0  0  0  0  0  0  0  0  0
   -9.2438   21.1361  -33.2297 H   0  0  0  0  0  0  0  0  0  0  0  0
  -10.0557   19.8446  -32.2687 H   0  0  0  0  0  0  0  0  0  0  0  0
  -10.0447   22.1040  -31.1311 H   0  0  0  0  0  0  0  0  0  0  0  0
   -9.2434   20.8094  -30.1799 H   0  0  0  0  0  0  0  0  0  0  0  0
   -8.3220   22.9719  -32.9993 H   0  0  0  0  0  0  0  0  0  0  0  0
   -8.5707   24.1367  -31.6476 H   0  0  0  0  0  0  0  0  0  0  0  0
   -6.0891   23.4440  -33.1580 H   0  0  0  0  0  0  0  0  0  0  0  0
   -6.5603   24.9635  -32.2724 H   0  0  0  0  0  0  0  0  0  0  0  0
   -5.1985   22.4688  -31.2166 H   0  0  0  0  0  0  0  0  0  0  0  0
   -3.8853   24.1221  -29.0541 H   0  0  0  0  0  0  0  0  0  0  0  0
   -3.3142   22.8712  -30.2098 H   0  0  0  0  0  0  0  0  0  0  0  0
   -2.5640   24.5034  -30.2098 H   0  0  0  0  0  0  0  0  0  0  0  0
   -5.6469   23.2749  -28.9123 H   0  0  0  0  0  0  0  0  0  0  0  0
   -6.6510   24.6251  -29.5923 H   0  0  0  0  0  0  0  0  0  0  0  0
   -7.3694   21.8005  -29.0800 H   0  0  0  0  0  0  0  0  0  0  0  0
   -8.4145   23.2644  -29.3192 H   0  0  0  0  0  0  0  0  0  0  0  0
   -9.0381   17.8534  -32.2683 H   0  0  0  0  0  0  0  0  0  0  0  0
   -6.9786   16.4312  -32.5520 H   0  0  0  0  0  0  0  0  0  0  0  0
   -4.0622   15.7181  -32.1667 H   0  0  0  0  0  0  0  0  0  0  0  0
   -4.9843   15.7358  -33.7082 H   0  0  0  0  0  0  0  0  0  0  0  0
   -3.2274   16.1100  -33.7082 H   0  0  0  0  0  0  0  0  0  0  0  0
   -1.7532   17.7136  -33.6111 H   0  0  0  0  0  0  0  0  0  0  0  0
  1  2  1  0
  2  3  1  0
  3  4  1  0
  3  5  1  0
  5  6  1  0
  6  7  1  0
  7  8  1  0
  8  9  2  0
  9 10  1  0
 10 11  2  0
 11 12  1  0
 12 13  2  0
 13 14  1  0
 14 15  1  0
 15 16  1  0
 16 17  1  0
 17 18  1  0
 18 19  1  0
 19 20  1  0
 20 21  1  0
 21 22  1  0
 20 23  1  0
 23 24  1  0
 14 25  2  0
 25 26  1  0
 26 27  2  0
 27 28  1  0
 28 29  1  0
 28 30  1  0
 30 31  2  0
 31  8  1  0
 30 11  1  0
 27 12  1  0
 24 17  1  0
  1 32  1  0
  1 33  1  0
  1 34  1  0
  2 35  1  0
  2 36  1  0
  4 37  1  0
  4 38  1  0
  4 39  1  0
  5 40  1  0
  5 41  1  0
  6 42  1  0
  6 43  1  0
  7 44  1  0
  9 45  1  0
 10 46  1  0
 13 47  1  0
 15 48  1  0
 15 49  1  0
 16 50  1  0
 16 51  1  0
 18 52  1  0
 18 53  1  0
 19 54  1  0
 19 55  1  0
 20 56  1  0
 22 57  1  0
 22 58  1  0
 22 59  1  0
 23 60  1  0
 23 61  1  0
 24 62  1  0
 24 63  1  0
 25 64  1  0
 26 65  1  0
 29 66  1  0
 29 67  1  0
 29 68  1  0
 31 69  1  0
M  CHG  1  14   1
M  END
>  <UniqueID>  (28) 
28

>  <SMILES>  (28) 
CCN(C)CCNc1ccc2c3c[n+](CCN4CCC(OC)CC4)ccc3n(C)c2c1

>  <Energy>  (28) 
122.422169507775

>  <Genealogy>  (28) 
CCN(C)CCNc1ccc2c3c[n+](CCN4CCC(OC)CC4)ccc3n(C)c2c1 (3D coordinates assigned)
CCN(C)CCNc1ccc2c3c[n+](CCN4CCC(OC)CC4)ccc3n(C)c2c1 (nonaromatic ring conformer: 122.422169507775 kcal/mol)

>  <smiles>  (28) 
CCN(C)CCNc1ccc2c3c[n+](CCN4CCC(OC)CC4)ccc3n(C)c2c1

>  <score_type>  (28) 
oracle

>  <origin>  (28) 
adg

>  <m_score__min__energy>  (28) 
-8.9800000000000004

>  <m_primary>  (28) 
energy

$$$$
28:0
     RDKit          3D

 44 45  0  0  0  0  0  0  0  0999 V2000
   -5.3670   17.9060  -35.1940 C   0  0  0  0  0  0  0  0  0  0  0  0
   -5.2860   16.9760  -33.9840 C   0  0  0  0  0  0  0  0  0  0  0  0
   -5.1460   17.7660  -32.6790 C   0  0  0  0  0  0  0  0  0  0  0  0
   -6.2520   18.7870  -32.5490 C   0  0  0  0  0  0  0  0  0  0  0  0
   -7.5820   18.3350  -32.5120 C   0  0  0  0  0  0  0  0  0  0  0  0
   -8.6170   19.2540  -32.3750 C   0  0  0  0  0  0  0  0  0  0  0  0
   -9.8120   18.8540  -32.3370 O   0  0  0  0  0  0  0  0  0  0  0  0
   -8.3540   20.5500  -32.2740 O   0  0  0  0  0  0  0  0  0  0  0  0
   -7.1170   21.0470  -32.2900 C   0  0  0  0  0  0  0  0  0  0  0  0
   -6.9210   22.4390  -32.1600 C   0  0  0  0  0  0  0  0  0  0  0  0
   -8.1160   23.3470  -31.9790 C   0  0  0  0  0  0  0  0  0  0  0  0
   -5.6160   22.9620  -32.1040 C   0  0  0  0  0  0  0  0  0  0  0  0
   -5.4320   24.3380  -31.9080 O   0  0  0  0  0  0  0  0  0  0  0  0
   -5.8500   25.0340  -30.7360 C   0  0  0  0  0  0  0  0  0  0  0  0
   -4.8230   24.8320  -29.6260 C   0  0  0  0  0  0  0  0  0  0  0  0
   -3.4630   24.9290  -30.1790 N   0  0  0  0  0  0  0  0  0  0  0  0
   -2.6400   23.7690  -29.8030 C   0  0  0  0  0  0  0  0  0  0  0  0
   -1.5080   24.1900  -28.8710 C   0  0  0  0  0  0  0  0  0  0  0  0
   -4.5200   22.1010  -32.2690 C   0  0  0  0  0  0  0  0  0  0  0  0
   -4.7100   20.7290  -32.4250 C   0  0  0  0  0  0  0  0  0  0  0  0
   -6.0060   20.1790  -32.4240 C   0  0  0  0  0  0  0  0  0  0  0  0
   -5.4577   18.9472  -34.8508 H   0  0  0  0  0  0  0  0  0  0  0  0
   -4.4561   17.7981  -35.8011 H   0  0  0  0  0  0  0  0  0  0  0  0
   -6.2456   17.6422  -35.8011 H   0  0  0  0  0  0  0  0  0  0  0  0
   -6.2018   16.3684  -33.9379 H   0  0  0  0  0  0  0  0  0  0  0  0
   -4.3982   16.3367  -34.0981 H   0  0  0  0  0  0  0  0  0  0  0  0
   -5.1960   17.0698  -31.8288 H   0  0  0  0  0  0  0  0  0  0  0  0
   -4.1798   18.2917  -32.6869 H   0  0  0  0  0  0  0  0  0  0  0  0
   -7.8033   17.2604  -32.5909 H   0  0  0  0  0  0  0  0  0  0  0  0
   -8.3070   23.4921  -30.9055 H   0  0  0  0  0  0  0  0  0  0  0  0
   -7.9119   24.3199  -32.4499 H   0  0  0  0  0  0  0  0  0  0  0  0
   -8.9987   22.8897  -32.4499 H   0  0  0  0  0  0  0  0  0  0  0  0
   -5.9401   26.1071  -30.9603 H   0  0  0  0  0  0  0  0  0  0  0  0
   -6.8242   24.6430  -30.4073 H   0  0  0  0  0  0  0  0  0  0  0  0
   -4.9601   25.6063  -28.8568 H   0  0  0  0  0  0  0  0  0  0  0  0
   -4.9626   23.8362  -29.1800 H   0  0  0  0  0  0  0  0  0  0  0  0
   -3.5440   24.9380  -31.2240 H   0  0  0  0  0  0  0  0  0  0  0  0
   -3.2723   23.0283  -29.2915 H   0  0  0  0  0  0  0  0  0  0  0  0
   -2.2042   23.3343  -30.7147 H   0  0  0  0  0  0  0  0  0  0  0  0
   -1.8298   24.0703  -27.8259 H   0  0  0  0  0  0  0  0  0  0  0  0
   -0.6259   23.5598  -29.0575 H   0  0  0  0  0  0  0  0  0  0  0  0
   -1.2521   25.2434  -29.0575 H   0  0  0  0  0  0  0  0  0  0  0  0
   -3.5002   22.5133  -32.2753 H   0  0  0  0  0  0  0  0  0  0  0  0
   -3.8387   20.0694  -32.5501 H   0  0  0  0  0  0  0  0  0  0  0  0
  1  2  1  0
  2  3  1  0
  3  4  1  0
  4  5  2  0
  5  6  1  0
  6  7  2  0
  6  8  1  0
  8  9  1  0
  9 10  2  0
 10 11  1  0
 10 12  1  0
 12 13  1  0
 13 14  1  0
 14 15  1  0
 15 16  1  0
 16 17  1  0
 17 18  1  0
 12 19  2  0
 19 20  1  0
 20 21  2  0
 21  4  1  0
 21  9  1  0
  1 22  1  0
  1 23  1  0
  1 24  1  0
  2 25  1  0
  2 26  1  0
  3 27  1  0
  3 28  1  0
  5 29  1  0
 11 30  1  0
 11 31  1  0
 11 32  1  0
 14 33  1  0
 14 34  1  0
 15 35  1  0
 15 36  1  0
 16 37  1  0
 17 38  1  0
 17 39  1  0
 18 40  1  0
 18 41  1  0
 18 42  1  0
 19 43  1  0
 20 44  1  0
M  END
>  <UniqueID>  (29) 
29

>  <SMILES>  (29) 
CCCc1cc(=O)oc2c(C)c(OCCNCC)ccc12

>  <Energy>  (29) 
43.46052263965044

>  <Genealogy>  (29) 
CCCc1cc(=O)oc2c(C)c(OCCNCC)ccc12 (3D coordinates assigned)
CCCc1cc(=O)oc2c(C)c(OCCNCC)ccc12 (optimized conformer: 43.46052263965044 kcal/mol)

>  <smiles>  (29) 
CCCc1cc(=O)oc2c(C)c(OCCNCC)ccc12

>  <score_type>  (29) 
oracle

>  <origin>  (29) 
adg

>  <m_score__min__energy>  (29) 
-7.8300000000000001

>  <m_primary>  (29) 
energy

$$$$
29:0
     RDKit          3D

 70 72  0  0  0  0  0  0  0  0999 V2000
   -8.8740   19.9110  -32.3510 C   0  0  0  0  0  0  0  0  0  0  0  0
   -8.3750   18.4720  -32.1170 C   0  0  0  0  0  0  0  0  0  0  0  0
   -6.9480   18.2000  -32.4910 N   0  0  0  0  0  0  0  0  0  0  0  0
   -6.1450   17.9270  -31.2720 C   0  0  0  0  0  0  0  0  0  0  0  0
   -6.8740   17.0350  -33.4120 C   0  0  0  0  0  0  0  0  0  0  0  0
   -6.4470   19.4300  -33.1890 C   0  0  0  0  0  0  0  0  0  0  0  0
   -4.9120   19.6390  -33.1820 C   0  0  0  0  0  0  0  0  0  0  0  0
   -4.5790   21.0360  -33.4650 N   0  0  0  0  0  0  0  0  0  0  0  0
   -4.1120   21.8730  -32.3990 C   0  0  0  0  0  0  0  0  0  0  0  0
   -5.0450   22.6640  -31.7080 C   0  0  0  0  0  0  0  0  0  0  0  0
   -6.3120   22.9410  -32.2640 C   0  0  0  0  0  0  0  0  0  0  0  0
   -7.2130   23.7700  -31.6000 C   0  0  0  0  0  0  0  0  0  0  0  0
   -6.8660   24.3390  -30.3800 C   0  0  0  0  0  0  0  0  0  0  0  0
   -5.6300   24.0530  -29.7990 C   0  0  0  0  0  0  0  0  0  0  0  0
   -4.7110   23.1780  -30.4330 C   0  0  0  0  0  0  0  0  0  0  0  0
   -3.5280   22.8040  -29.8330 N   0  0  0  0  0  0  0  0  0  0  0  0
   -3.3450   23.0080  -28.3780 C   0  0  0  0  0  0  0  0  0  0  0  0
   -2.5230   22.2270  -30.5870 C   0  0  0  0  0  0  0  0  0  0  0  0
   -1.2160   22.0730  -30.0630 C   0  0  0  0  0  0  0  0  0  0  0  0
   -0.2030   21.4880  -30.8080 C   0  0  0  0  0  0  0  0  0  0  0  0
   -0.4320   21.1130  -32.1200 C   0  0  0  0  0  0  0  0  0  0  0  0
   -1.6870   21.2990  -32.7220 C   0  0  0  0  0  0  0  0  0  0  0  0
   -1.7570   21.1480  -34.1620 N   0  0  0  0  0  0  0  0  0  0  0  0
   -1.1690   19.8680  -34.5900 C   0  0  0  0  0  0  0  0  0  0  0  0
    0.1750   20.0670  -35.3130 C   0  0  0  0  0  0  0  0  0  0  0  0
    0.2100   21.3560  -36.1480 C   0  0  0  0  0  0  0  0  0  0  0  0
    0.7500   22.4810  -35.3500 N   0  0  0  0  0  0  0  0  0  0  0  0
    2.1760   22.2750  -35.0400 C   0  0  0  0  0  0  0  0  0  0  0  0
    0.5890   23.7460  -36.0850 C   0  0  0  0  0  0  0  0  0  0  0  0
   -2.7790   21.7870  -31.9240 C   0  0  0  0  0  0  0  0  0  0  0  0
   -9.0443   20.4022  -31.3816 H   0  0  0  0  0  0  0  0  0  0  0  0
   -8.1184   20.4733  -32.9192 H   0  0  0  0  0  0  0  0  0  0  0  0
   -9.8155   19.8848  -32.9192 H   0  0  0  0  0  0  0  0  0  0  0  0
   -8.4910   18.2458  -31.0468 H   0  0  0  0  0  0  0  0  0  0  0  0
   -8.9808   17.8373  -32.7805 H   0  0  0  0  0  0  0  0  0  0  0  0
   -6.7527   18.1336  -30.3787 H   0  0  0  0  0  0  0  0  0  0  0  0
   -5.8328   16.8722  -31.2672 H   0  0  0  0  0  0  0  0  0  0  0  0
   -5.2546   18.5729  -31.2672 H   0  0  0  0  0  0  0  0  0  0  0  0
   -6.8150   16.1066  -32.8249 H   0  0  0  0  0  0  0  0  0  0  0  0
   -7.7725   17.0113  -34.0462 H   0  0  0  0  0  0  0  0  0  0  0  0
   -5.9798   17.1252  -34.0462 H   0  0  0  0  0  0  0  0  0  0  0  0
   -6.7745   19.3784  -34.2378 H   0  0  0  0  0  0  0  0  0  0  0  0
   -6.8638   20.2792  -32.6276 H   0  0  0  0  0  0  0  0  0  0  0  0
   -4.5149   19.3663  -32.1931 H   0  0  0  0  0  0  0  0  0  0  0  0
   -4.4650   19.0040  -33.9610 H   0  0  0  0  0  0  0  0  0  0  0  0
   -4.9770   21.4950  -34.3170 H   0  0  0  0  0  0  0  0  0  0  0  0
   -6.5909   22.4978  -33.2314 H   0  0  0  0  0  0  0  0  0  0  0  0
   -8.1997   23.9746  -32.0412 H   0  0  0  0  0  0  0  0  0  0  0  0
   -7.5676   25.0165  -29.8713 H   0  0  0  0  0  0  0  0  0  0  0  0
   -5.3645   24.5126  -28.8356 H   0  0  0  0  0  0  0  0  0  0  0  0
   -3.9802   22.2999  -27.8257 H   0  0  0  0  0  0  0  0  0  0  0  0
   -2.2908   22.8381  -28.1136 H   0  0  0  0  0  0  0  0  0  0  0  0
   -3.6280   24.0376  -28.1136 H   0  0  0  0  0  0  0  0  0  0  0  0
   -0.9999   22.4249  -29.0435 H   0  0  0  0  0  0  0  0  0  0  0  0
    0.7853   21.3217  -30.3546 H   0  0  0  0  0  0  0  0  0  0  0  0
    0.3843   20.6607  -32.7024 H   0  0  0  0  0  0  0  0  0  0  0  0
   -1.2050   21.9250  -34.5950 H   0  0  0  0  0  0  0  0  0  0  0  0
   -2.7250   21.2760  -34.5220 H   0  0  0  0  0  0  0  0  0  0  0  0
   -1.0060   19.2375  -33.7035 H   0  0  0  0  0  0  0  0  0  0  0  0
   -1.8670   19.3905  -35.2934 H   0  0  0  0  0  0  0  0  0  0  0  0
    0.9765   20.1122  -34.5610 H   0  0  0  0  0  0  0  0  0  0  0  0
    0.3124   19.2198  -36.0011 H   0  0  0  0  0  0  0  0  0  0  0  0
    0.8494   21.1984  -37.0291 H   0  0  0  0  0  0  0  0  0  0  0  0
   -0.8153   21.6035  -36.4604 H   0  0  0  0  0  0  0  0  0  0  0  0
    2.3149   22.2549  -33.9490 H   0  0  0  0  0  0  0  0  0  0  0  0
    2.5103   21.3192  -35.4698 H   0  0  0  0  0  0  0  0  0  0  0  0
    2.7671   23.0971  -35.4698 H   0  0  0  0  0  0  0  0  0  0  0  0
    0.4835   24.5749  -35.3696 H   0  0  0  0  0  0  0  0  0  0  0  0
    1.4725   23.9177  -36.7174 H   0  0  0  0  0  0  0  0  0  0  0  0
   -0.3094   23.6909  -36.7174 H   0  0  0  0  0  0  0  0  0  0  0  0
  1  2  1  0
  2  3  1  0
  3  4  1  0
  3  5  1  0
  3  6  1  0
  6  7  1  0
  7  8  1  0
  8  9  1  0
  9 10  2  0
 10 11  1  0
 11 12  2  0
 12 13  1  0
 13 14  2  0
 14 15  1  0
 15 16  2  0
 16 17  1  0
 16 18  1  0
 18 19  2  0
 19 20  1  0
 20 21  2  0
 21 22  1  0
 22 23  1  0
 23 24  1  0
 24 25  1  0
 25 26  1  0
 26 27  1  0
 27 28  1  0
 27 29  1  0
 22 30  2  0
 30  9  1  0
 15 10  1  0
 30 18  1  0
  1 31  1  0
  1 32  1  0
  1 33  1  0
  2 34  1  0
  2 35  1  0
  4 36  1  0
  4 37  1  0
  4 38  1  0
  5 39  1  0
  5 40  1  0
  5 41  1  0
  6 42  1  0
  6 43  1  0
  7 44  1  0
  7 45  1  0
  8 46  1  0
 11 47  1  0
 12 48  1  0
 13 49  1  0
 14 50  1  0
 17 51  1  0
 17 52  1  0
 17 53  1  0
 19 54  1  0
 20 55  1  0
 21 56  1  0
 23 57  1  0
 23 58  1  0
 24 59  1  0
 24 60  1  0
 25 61  1  0
 25 62  1  0
 26 63  1  0
 26 64  1  0
 28 65  1  0
 28 66  1  0
 28 67  1  0
 29 68  1  0
 29 69  1  0
 29 70  1  0
M  CHG  3   3   1  16   1  23   1
M  END
>  <UniqueID>  (30) 
30

>  <SMILES>  (30) 
CC[N+](C)(C)CCNc1c2ccccc2[n+](C)c2cccc([NH2+]CCCN(C)C)c12

>  <Energy>  (30) 
115.81037239026256

>  <Genealogy>  (30) 
CC[N+](C)(C)CCNc1c2ccccc2[n+](C)c2cccc([NH2+]CCCN(C)C)c12 (protonated)
CC[N+](C)(C)CCNc1c2ccccc2[n+](C)c2cccc([NH2+]CCCN(C)C)c12 (3D coordinates assigned)
CC[N+](C)(C)CCNc1c2ccccc2[n+](C)c2cccc([NH2+]CCCN(C)C)c12 (optimized conformer: 115.81037239026256 kcal/mol)

>  <smiles>  (30) 
CC[N+](C)(C)CCNc1c2ccccc2[n+](C)c2cccc(NCCCN(C)C)c12

>  <score_type>  (30) 
oracle

>  <origin>  (30) 
adg

>  <m_score__min__energy>  (30) 
-7.25

>  <m_primary>  (30) 
energy

$$$$
30:0
     RDKit          3D

 47 49  0  0  0  0  0  0  0  0999 V2000
   -6.5450   24.4920  -30.2380 C   0  0  0  0  0  0  0  0  0  0  0  0
   -6.4220   23.0980  -30.8790 C   0  0  0  0  0  0  0  0  0  0  0  0
   -5.3960   23.1600  -32.0230 C   0  0  0  0  0  0  0  0  0  0  0  0
   -7.8290   22.6290  -31.3440 C   0  0  0  0  0  0  0  0  0  0  0  0
   -8.1420   21.1200  -31.5670 C   0  0  1  0  0  0  0  0  0  0  0  0
   -9.4340   20.7710  -32.3370 C   0  0  0  0  0  0  0  0  0  0  0  0
   -9.5030   19.2660  -32.6780 C   0  0  0  0  0  0  0  0  0  0  0  0
   -8.6600   18.3980  -31.7270 C   0  0  0  0  0  0  0  0  0  0  0  0
   -7.1890   18.8780  -31.5930 C   0  0  0  0  0  0  0  0  0  0  0  0
   -6.9850   20.2930  -31.9980 N   0  0  0  0  0  0  0  0  0  0  0  0
   -6.6300   20.3960  -33.4360 C   0  0  0  0  0  0  0  0  0  0  0  0
   -5.3780   19.6170  -33.7090 C   0  0  0  0  0  0  0  0  0  0  0  0
   -5.3900   18.3410  -34.2650 C   0  0  0  0  0  0  0  0  0  0  0  0
   -3.7930   17.8650  -34.4860 S   0  0  0  0  0  0  0  0  0  0  0  0
   -3.1550   19.3000  -33.8790 C   0  0  0  0  0  0  0  0  0  0  0  0
   -1.7250   19.6380  -33.7740 C   0  0  0  0  0  0  0  0  0  0  0  0
   -0.8710   18.7360  -33.2180 N   0  0  0  0  0  0  0  0  0  0  0  0
    0.4550   19.0050  -33.0970 C   0  0  0  0  0  0  0  0  0  0  0  0
    0.9600   20.2220  -33.5480 C   0  0  0  0  0  0  0  0  0  0  0  0
    0.0770   21.1380  -34.1170 C   0  0  0  0  0  0  0  0  0  0  0  0
   -1.2450   20.8360  -34.2210 N   0  0  0  0  0  0  0  0  0  0  0  0
   -4.1390   20.1460  -33.5080 N   0  0  0  0  0  0  0  0  0  0  0  0
   -6.5363   24.3939  -29.1424 H   0  0  0  0  0  0  0  0  0  0  0  0
   -5.6986   25.1181  -30.5567 H   0  0  0  0  0  0  0  0  0  0  0  0
   -7.4879   24.9602  -30.5567 H   0  0  0  0  0  0  0  0  0  0  0  0
   -6.0550   22.3546  -30.1560 H   0  0  0  0  0  0  0  0  0  0  0  0
   -4.3814   23.2213  -31.6026 H   0  0  0  0  0  0  0  0  0  0  0  0
   -5.4822   22.2550  -32.6423 H   0  0  0  0  0  0  0  0  0  0  0  0
   -5.5906   24.0480  -32.6423 H   0  0  0  0  0  0  0  0  0  0  0  0
   -8.5430   22.9874  -30.5879 H   0  0  0  0  0  0  0  0  0  0  0  0
   -7.8955   23.0411  -32.3617 H   0  0  0  0  0  0  0  0  0  0  0  0
   -8.3707   20.8213  -30.5333 H   0  0  0  0  0  0  0  0  0  0  0  0
  -10.3024   21.0367  -31.7163 H   0  0  0  0  0  0  0  0  0  0  0  0
   -9.4369   21.3381  -33.2795 H   0  0  0  0  0  0  0  0  0  0  0  0
  -10.5515   18.9394  -32.6149 H   0  0  0  0  0  0  0  0  0  0  0  0
   -9.0950   19.1378  -33.6915 H   0  0  0  0  0  0  0  0  0  0  0  0
   -9.1257   18.4194  -30.7307 H   0  0  0  0  0  0  0  0  0  0  0  0
   -8.6327   17.3838  -32.1521 H   0  0  0  0  0  0  0  0  0  0  0  0
   -6.8823   18.7695  -30.5422 H   0  0  0  0  0  0  0  0  0  0  0  0
   -6.5847   18.2582  -32.2717 H   0  0  0  0  0  0  0  0  0  0  0  0
   -7.4518   19.9908  -34.0446 H   0  0  0  0  0  0  0  0  0  0  0  0
   -6.4630   21.4524  -33.6933 H   0  0  0  0  0  0  0  0  0  0  0  0
   -6.2837   17.7504  -34.5148 H   0  0  0  0  0  0  0  0  0  0  0  0
    1.1286   18.2629  -32.6436 H   0  0  0  0  0  0  0  0  0  0  0  0
    2.0312   20.4550  -33.4572 H   0  0  0  0  0  0  0  0  0  0  0  0
    0.4497   22.1063  -34.4824 H   0  0  0  0  0  0  0  0  0  0  0  0
   -1.8830   21.5410  -34.6520 H   0  0  0  0  0  0  0  0  0  0  0  0
  1  2  1  0
  2  3  1  0
  2  4  1  0
  4  5  1  0
  5  6  1  0
  6  7  1  0
  7  8  1  0
  8  9  1  0
  9 10  1  0
 10 11  1  0
 11 12  1  0
 12 13  2  0
 13 14  1  0
 14 15  1  0
 15 16  1  0
 16 17  2  0
 17 18  1  0
 18 19  2  0
 19 20  1  0
 20 21  2  0
 15 22  2  0
 10  5  1  0
 22 12  1  0
 21 16  1  0
  1 23  1  0
  1 24  1  0
  1 25  1  0
  2 26  1  0
  3 27  1  0
  3 28  1  0
  3 29  1  0
  4 30  1  0
  4 31  1  0
  5 32  1  1
  6 33  1  0
  6 34  1  0
  7 35  1  0
  7 36  1  0
  8 37  1  0
  8 38  1  0
  9 39  1  0
  9 40  1  0
 11 41  1  0
 11 42  1  0
 13 43  1  0
 18 44  1  0
 19 45  1  0
 20 46  1  0
 21 47  1  0
M  CHG  1  21   1
M  END
>  <UniqueID>  (31) 
31

>  <SMILES>  (31) 
CC(C)C[C@H]1CCCCN1Cc1csc(-c2nccc[nH+]2)n1

>  <Energy>  (31) 
94.16679340074893

>  <Genealogy>  (31) 
CC(C)CC1CCCCN1Cc1csc(-c2nccc[nH+]2)n1 (protonated)
CC(C)C[C@H]1CCCCN1Cc1csc(-c2nccc[nH+]2)n1 (chirality)
CC(C)C[C@H]1CCCCN1Cc1csc(-c2nccc[nH+]2)n1 (3D coordinates assigned)
CC(C)C[C@H]1CCCCN1Cc1csc(-c2nccc[nH+]2)n1 (nonaromatic ring conformer: 94.16679340074893 kcal/mol)

>  <smiles>  (31) 
CC(C)CC1CCCCN1Cc1csc(-c2ncccn2)n1

>  <score_type>  (31) 
oracle

>  <origin>  (31) 
adg

>  <m_score__min__energy>  (31) 
-7.5199999999999996

>  <m_primary>  (31) 
energy

$$$$
