0:0
     RDKit          3D

 59 61  0  0  0  0  0  0  0  0999 V2000
   -0.8890   22.2270  -29.9820 C   0  0  0  0  0  0  0  0  0  0  0  0
   -0.5090   21.0930  -30.9460 C   0  0  0  0  0  0  0  0  0  0  0  0
   -1.5860   20.6970  -31.8900 N   0  0  0  0  0  0  0  0  0  0  0  0
   -1.3450   21.1970  -33.2640 C   0  0  0  0  0  0  0  0  0  0  0  0
   -1.0980   20.0240  -34.2070 C   0  0  0  0  0  0  0  0  0  0  0  0
   -2.9560   20.9960  -31.4200 C   0  0  0  0  0  0  0  0  0  0  0  0
   -3.5290   22.2500  -32.0950 C   0  0  0  0  0  0  0  0  0  0  0  0
   -4.4720   21.8740  -33.1480 N   0  0  0  0  0  0  0  0  0  0  0  0
   -5.5920   21.0370  -32.8390 C   0  0  0  0  0  0  0  0  0  0  0  0
   -5.5160   19.6430  -33.0680 C   0  0  0  0  0  0  0  0  0  0  0  0
   -4.3030   19.0430  -33.4700 C   0  0  0  0  0  0  0  0  0  0  0  0
   -4.2210   17.6670  -33.6770 C   0  0  0  0  0  0  0  0  0  0  0  0
   -5.3400   16.8640  -33.4860 C   0  0  0  0  0  0  0  0  0  0  0  0
   -6.5500   17.4280  -33.0850 C   0  0  0  0  0  0  0  0  0  0  0  0
   -6.6710   18.8250  -32.8720 C   0  0  0  0  0  0  0  0  0  0  0  0
   -7.8640   19.3950  -32.4700 N   0  0  0  0  0  0  0  0  0  0  0  0
   -9.0840   18.5790  -32.3160 C   0  0  0  0  0  0  0  0  0  0  0  0
   -7.8850   20.7300  -32.1640 C   0  0  0  0  0  0  0  0  0  0  0  0
   -9.1760   21.6010  -31.5200 S   0  0  0  0  0  0  0  0  0  0  0  0
   -8.3640   23.0630  -31.4150 C   0  0  0  0  0  0  0  0  0  0  0  0
   -7.0560   22.9020  -31.8770 C   0  0  0  0  0  0  0  0  0  0  0  0
   -6.0980   24.0710  -31.8340 C   0  0  0  0  0  0  0  0  0  0  0  0
   -6.3440   24.9590  -30.6060 C   0  0  0  0  0  0  0  0  0  0  0  0
   -5.5500   24.5130  -29.4610 N   0  0  0  0  0  0  0  0  0  0  0  0
   -4.1150   24.5070  -29.4660 C   0  0  0  0  0  0  0  0  0  0  0  0
   -3.3680   24.0030  -28.2730 C   0  0  0  0  0  0  0  0  0  0  0  0
   -3.4750   24.9270  -30.4680 O   0  0  0  0  0  0  0  0  0  0  0  0
   -6.7860   21.5730  -32.3180 C   0  0  0  0  0  0  0  0  0  0  0  0
   -0.7729   21.8806  -28.9444 H   0  0  0  0  0  0  0  0  0  0  0  0
   -0.2315   23.0916  -30.1556 H   0  0  0  0  0  0  0  0  0  0  0  0
   -1.9347   22.5209  -30.1556 H   0  0  0  0  0  0  0  0  0  0  0  0
    0.3604   21.4203  -31.5351 H   0  0  0  0  0  0  0  0  0  0  0  0
   -0.3005   20.2108  -30.3229 H   0  0  0  0  0  0  0  0  0  0  0  0
   -2.2249   21.7613  -33.6064 H   0  0  0  0  0  0  0  0  0  0  0  0
   -0.4613   21.8521  -33.2614 H   0  0  0  0  0  0  0  0  0  0  0  0
   -0.9065   19.1145  -33.6186 H   0  0  0  0  0  0  0  0  0  0  0  0
   -1.9836   19.8707  -34.8413 H   0  0  0  0  0  0  0  0  0  0  0  0
   -0.2258   20.2408  -34.8413 H   0  0  0  0  0  0  0  0  0  0  0  0
   -3.6063   20.1391  -31.6500 H   0  0  0  0  0  0  0  0  0  0  0  0
   -2.9133   21.1801  -30.3364 H   0  0  0  0  0  0  0  0  0  0  0  0
   -4.0496   22.8611  -31.3430 H   0  0  0  0  0  0  0  0  0  0  0  0
   -2.7041   22.8243  -32.5419 H   0  0  0  0  0  0  0  0  0  0  0  0
   -4.5660   22.5070  -33.9740 H   0  0  0  0  0  0  0  0  0  0  0  0
   -3.4114   19.6692  -33.6218 H   0  0  0  0  0  0  0  0  0  0  0  0
   -3.2688   17.2153  -33.9922 H   0  0  0  0  0  0  0  0  0  0  0  0
   -5.2701   15.7789  -33.6521 H   0  0  0  0  0  0  0  0  0  0  0  0
   -7.4250   16.7793  -32.9313 H   0  0  0  0  0  0  0  0  0  0  0  0
   -9.2972   18.4364  -31.2463 H   0  0  0  0  0  0  0  0  0  0  0  0
   -9.9314   19.0927  -32.7935 H   0  0  0  0  0  0  0  0  0  0  0  0
   -8.9328   17.5996  -32.7935 H   0  0  0  0  0  0  0  0  0  0  0  0
   -8.7944   24.0034  -31.0404 H   0  0  0  0  0  0  0  0  0  0  0  0
   -5.0679   23.6870  -31.7962 H   0  0  0  0  0  0  0  0  0  0  0  0
   -6.2577   24.6798  -32.7361 H   0  0  0  0  0  0  0  0  0  0  0  0
   -6.0681   25.9951  -30.8518 H   0  0  0  0  0  0  0  0  0  0  0  0
   -7.4087   24.8935  -30.3374 H   0  0  0  0  0  0  0  0  0  0  0  0
   -6.0510   24.2340  -28.5880 H   0  0  0  0  0  0  0  0  0  0  0  0
   -3.8708   24.3422  -27.3553 H   0  0  0  0  0  0  0  0  0  0  0  0
   -3.3441   22.9034  -28.2930 H   0  0  0  0  0  0  0  0  0  0  0  0
   -2.3395   24.3925  -28.2930 H   0  0  0  0  0  0  0  0  0  0  0  0
  1  2  1  0
  2  3  1  0
  3  4  1  0
  4  5  1  0
  3  6  1  0
  6  7  1  0
  7  8  1  0
  8  9  1  0
  9 10  2  0
 10 11  1  0
 11 12  2  0
 12 13  1  0
 13 14  2  0
 14 15  1  0
 15 16  2  0
 16 17  1  0
 16 18  1  0
 18 19  1  0
 19 20  1  0
 20 21  2  0
 21 22  1  0
 22 23  1  0
 23 24  1  0
 24 25  1  0
 25 26  1  0
 25 27  2  0
 21 28  1  0
 28  9  1  0
 15 10  1  0
 28 18  2  0
  1 29  1  0
  1 30  1  0
  1 31  1  0
  2 32  1  0
  2 33  1  0
  4 34  1  0
  4 35  1  0
  5 36  1  0
  5 37  1  0
  5 38  1  0
  6 39  1  0
  6 40  1  0
  7 41  1  0
  7 42  1  0
  8 43  1  0
 11 44  1  0
 12 45  1  0
 13 46  1  0
 14 47  1  0
 17 48  1  0
 17 49  1  0
 17 50  1  0
 20 51  1  0
 22 52  1  0
 22 53  1  0
 23 54  1  0
 23 55  1  0
 24 56  1  0
 26 57  1  0
 26 58  1  0
 26 59  1  0
M  CHG  1  16   1
M  END
>  <UniqueID>  (1) 
1

>  <SMILES>  (1) 
CCN(CC)CCNc1c2ccccc2[n+](C)c2scc(CCNC(C)=O)c12

>  <Energy>  (1) 
104.9183752063214

>  <Genealogy>  (1) 
CCN(CC)CCNc1c2ccccc2[n+](C)c2scc(CCNC(C)=O)c12 (3D coordinates assigned)
CCN(CC)CCNc1c2ccccc2[n+](C)c2scc(CCNC(C)=O)c12 (optimized conformer: 104.9183752063214 kcal/mol)

>  <smiles>  (1) 
CCN(CC)CCNc1c2ccccc2[n+](C)c2scc(CCNC(C)=O)c12

>  <score_type>  (1) 
oracle

>  <origin>  (1) 
adg

>  <m_score__min__energy>  (1) 
-9.4499999999999993

>  <m_primary>  (1) 
energy

$$$$
1:0
     RDKit          3D

 54 56  0  0  0  0  0  0  0  0999 V2000
   -0.4270   20.5380  -34.8730 C   0  0  0  0  0  0  0  0  0  0  0  0
   -1.5330   20.4270  -33.8720 C   0  0  0  0  0  0  0  0  0  0  0  0
   -2.1120   21.5340  -33.3330 N   0  0  0  0  0  0  0  0  0  0  0  0
   -3.0960   21.2310  -32.4540 C   0  0  0  0  0  0  0  0  0  0  0  0
   -3.8910   22.2520  -31.7340 C   0  0  0  0  0  0  0  0  0  0  0  0
   -5.1200   22.6900  -32.2610 C   0  0  0  0  0  0  0  0  0  0  0  0
   -5.8780   23.6520  -31.5870 C   0  0  0  0  0  0  0  0  0  0  0  0
   -5.4190   24.1880  -30.3810 C   0  0  0  0  0  0  0  0  0  0  0  0
   -6.3740   25.3940  -29.5360 Cl  0  0  0  0  0  0  0  0  0  0  0  0
   -4.2000   23.7610  -29.8490 C   0  0  0  0  0  0  0  0  0  0  0  0
   -3.4390   22.7990  -30.5190 C   0  0  0  0  0  0  0  0  0  0  0  0
   -3.2810   19.5600  -32.3170 S   0  0  0  0  0  0  0  0  0  0  0  0
   -2.0560   19.2140  -33.4150 C   0  0  0  0  0  0  0  0  0  0  0  0
   -1.6720   17.8260  -33.8580 C   0  0  0  0  0  0  0  0  0  0  0  0
   -2.3170   16.7900  -33.0340 N   0  0  0  0  0  0  0  0  0  0  0  0
   -2.7610   15.6430  -33.8440 C   0  0  0  0  0  0  0  0  0  0  0  0
   -4.2490   15.7690  -34.2020 C   0  0  0  0  0  0  0  0  0  0  0  0
   -4.5870   17.1660  -34.7350 C   0  0  0  0  0  0  0  0  0  0  0  0
   -5.9060   17.6120  -34.2260 N   0  0  0  0  0  0  0  0  0  0  0  0
   -6.1750   19.0370  -34.5430 C   0  0  0  0  0  0  0  0  0  0  0  0
   -6.2230   19.9740  -33.3150 C   0  0  0  0  0  0  0  0  0  0  0  0
   -7.5640   20.0150  -32.5380 C   0  0  0  0  0  0  0  0  0  0  0  0
   -7.8500   18.7890  -31.6550 C   0  0  0  0  0  0  0  0  0  0  0  0
   -7.5320   17.4230  -32.3070 C   0  0  0  0  0  0  0  0  0  0  0  0
   -6.0880   17.2320  -32.8090 C   0  0  0  0  0  0  0  0  0  0  0  0
    0.5346   20.6345  -34.3477 H   0  0  0  0  0  0  0  0  0  0  0  0
   -0.4115   19.6369  -35.5037 H   0  0  0  0  0  0  0  0  0  0  0  0
   -0.5909   21.4242  -35.5037 H   0  0  0  0  0  0  0  0  0  0  0  0
   -5.4870   22.2724  -33.2102 H   0  0  0  0  0  0  0  0  0  0  0  0
   -6.8377   23.9877  -32.0069 H   0  0  0  0  0  0  0  0  0  0  0  0
   -3.8379   24.1831  -28.8999 H   0  0  0  0  0  0  0  0  0  0  0  0
   -2.4803   22.4673  -30.0936 H   0  0  0  0  0  0  0  0  0  0  0  0
   -1.9783   17.6893  -34.9056 H   0  0  0  0  0  0  0  0  0  0  0  0
   -0.5826   17.7213  -33.7472 H   0  0  0  0  0  0  0  0  0  0  0  0
   -3.1330   17.2020  -32.5210 H   0  0  0  0  0  0  0  0  0  0  0  0
   -1.6200   16.4560  -32.3290 H   0  0  0  0  0  0  0  0  0  0  0  0
   -2.1694   15.6058  -34.7706 H   0  0  0  0  0  0  0  0  0  0  0  0
   -2.6167   14.7226  -33.2592 H   0  0  0  0  0  0  0  0  0  0  0  0
   -4.4945   15.0241  -34.9732 H   0  0  0  0  0  0  0  0  0  0  0  0
   -4.8374   15.5987  -33.2883 H   0  0  0  0  0  0  0  0  0  0  0  0
   -3.8135   17.8756  -34.4061 H   0  0  0  0  0  0  0  0  0  0  0  0
   -4.6247   17.1276  -35.8337 H   0  0  0  0  0  0  0  0  0  0  0  0
   -5.3812   19.3941  -35.2156 H   0  0  0  0  0  0  0  0  0  0  0  0
   -7.1757   19.0703  -34.9984 H   0  0  0  0  0  0  0  0  0  0  0  0
   -5.4390   19.6501  -32.6147 H   0  0  0  0  0  0  0  0  0  0  0  0
   -6.0823   20.9895  -33.7136 H   0  0  0  0  0  0  0  0  0  0  0  0
   -7.5549   20.9048  -31.8913 H   0  0  0  0  0  0  0  0  0  0  0  0
   -8.3567   20.0321  -33.3004 H   0  0  0  0  0  0  0  0  0  0  0  0
   -7.2455   18.8791  -30.7404 H   0  0  0  0  0  0  0  0  0  0  0  0
   -8.9336   18.7935  -31.4658 H   0  0  0  0  0  0  0  0  0  0  0  0
   -7.7354   16.6395  -31.5622 H   0  0  0  0  0  0  0  0  0  0  0  0
   -8.1665   17.3685  -33.2039 H   0  0  0  0  0  0  0  0  0  0  0  0
   -5.4195   17.8513  -32.1929 H   0  0  0  0  0  0  0  0  0  0  0  0
   -5.8537   16.1604  -32.7266 H   0  0  0  0  0  0  0  0  0  0  0  0
  1  2  1  0
  2  3  1  0
  3  4  2  0
  4  5  1  0
  5  6  2  0
  6  7  1  0
  7  8  2  0
  8  9  1  0
  8 10  1  0
 10 11  2  0
  4 12  1  0
 12 13  1  0
 13 14  1  0
 14 15  1  0
 15 16  1  0
 16 17  1  0
 17 18  1  0
 18 19  1  0
 19 20  1  0
 20 21  1  0
 21 22  1  0
 22 23  1  0
 23 24  1  0
 24 25  1  0
 13  2  2  0
 25 19  1  0
 11  5  1  0
  1 26  1  0
  1 27  1  0
  1 28  1  0
  6 29  1  0
  7 30  1  0
 10 31  1  0
 11 32  1  0
 14 33  1  0
 14 34  1  0
 15 35  1  0
 15 36  1  0
 16 37  1  0
 16 38  1  0
 17 39  1  0
 17 40  1  0
 18 41  1  0
 18 42  1  0
 20 43  1  0
 20 44  1  0
 21 45  1  0
 21 46  1  0
 22 47  1  0
 22 48  1  0
 23 49  1  0
 23 50  1  0
 24 51  1  0
 24 52  1  0
 25 53  1  0
 25 54  1  0
M  CHG  1  15   1
M  END
>  <UniqueID>  (2) 
2

>  <SMILES>  (2) 
Cc1nc(-c2ccc(Cl)cc2)sc1C[NH2+]CCCN1CCCCCC1

>  <Energy>  (2) 
93.53902877545195

>  <Genealogy>  (2) 
Cc1nc(-c2ccc(Cl)cc2)sc1C[NH2+]CCCN1CCCCCC1 (protonated)
Cc1nc(-c2ccc(Cl)cc2)sc1C[NH2+]CCCN1CCCCCC1 (3D coordinates assigned)
Cc1nc(-c2ccc(Cl)cc2)sc1C[NH2+]CCCN1CCCCCC1 (nonaromatic ring conformer: 93.53902877545195 kcal/mol)

>  <smiles>  (2) 
Cc1nc(-c2ccc(Cl)cc2)sc1CNCCCN1CCCCCC1

>  <score_type>  (2) 
oracle

>  <origin>  (2) 
adg

>  <m_score__min__energy>  (2) 
-5.46

>  <m_primary>  (2) 
energy

$$$$
2:0
     RDKit          3D

 35 37  0  0  0  0  0  0  0  0999 V2000
   -6.6250   13.3230  -34.6330 C   0  0  0  0  0  0  0  0  0  0  0  0
   -5.4880   14.2520  -34.6240 N   0  0  0  0  0  0  0  0  0  0  0  0
   -4.1810   13.7770  -35.0970 C   0  0  0  0  0  0  0  0  0  0  0  0
   -5.6520   15.6160  -34.1540 C   0  0  0  0  0  0  0  0  0  0  0  0
   -6.8590   16.0380  -33.5630 C   0  0  0  0  0  0  0  0  0  0  0  0
   -7.0170   17.3510  -33.1110 C   0  0  0  0  0  0  0  0  0  0  0  0
   -5.9730   18.2830  -33.2340 C   0  0  0  0  0  0  0  0  0  0  0  0
   -6.1210   19.6820  -32.7610 C   0  0  0  0  0  0  0  0  0  0  0  0
   -5.0630   20.4300  -32.3410 N   0  0  0  0  0  0  0  0  0  0  0  0
   -5.6300   21.6010  -32.0050 C   0  0  0  0  0  0  0  0  0  0  0  0
   -5.0020   22.7390  -31.5040 C   0  0  0  0  0  0  0  0  0  0  0  0
   -5.8050   23.8700  -31.2130 C   0  0  0  0  0  0  0  0  0  0  0  0
   -5.2080   25.0720  -30.6950 N   0  0  0  0  0  0  0  0  0  0  0  0
   -5.9040   25.9280  -30.1090 O   0  0  0  0  0  0  0  0  0  0  0  0
   -3.8580   25.2990  -30.8370 O   0  0  0  0  0  0  0  0  0  0  0  0
   -7.2070   23.8050  -31.4370 C   0  0  0  0  0  0  0  0  0  0  0  0
   -7.8030   22.6350  -31.9440 C   0  0  0  0  0  0  0  0  0  0  0  0
   -6.9720   21.5540  -32.2150 C   0  0  0  0  0  0  0  0  0  0  0  0
   -7.3050   20.3490  -32.6920 N   0  0  0  0  0  0  0  0  0  0  0  0
   -4.7690   17.8680  -33.8270 C   0  0  0  0  0  0  0  0  0  0  0  0
   -4.6090   16.5560  -34.2790 C   0  0  0  0  0  0  0  0  0  0  0  0
   -6.9139   13.0870  -33.5982 H   0  0  0  0  0  0  0  0  0  0  0  0
   -7.4747   13.7885  -35.1538 H   0  0  0  0  0  0  0  0  0  0  0  0
   -6.3382   12.3975  -35.1538 H   0  0  0  0  0  0  0  0  0  0  0  0
   -3.5409   13.5444  -34.2332 H   0  0  0  0  0  0  0  0  0  0  0  0
   -4.3185   12.8713  -35.7060 H   0  0  0  0  0  0  0  0  0  0  0  0
   -3.7049   14.5596  -35.7060 H   0  0  0  0  0  0  0  0  0  0  0  0
   -7.6889   15.3240  -33.4557 H   0  0  0  0  0  0  0  0  0  0  0  0
   -7.9693   17.6581  -32.6539 H   0  0  0  0  0  0  0  0  0  0  0  0
   -3.9146   22.7592  -31.3391 H   0  0  0  0  0  0  0  0  0  0  0  0
   -7.8342   24.6800  -31.2113 H   0  0  0  0  0  0  0  0  0  0  0  0
   -8.8874   22.5780  -32.1195 H   0  0  0  0  0  0  0  0  0  0  0  0
   -8.2640   20.0180  -32.9370 H   0  0  0  0  0  0  0  0  0  0  0  0
   -3.9421   18.5850  -33.9367 H   0  0  0  0  0  0  0  0  0  0  0  0
   -3.6568   16.2524  -34.7384 H   0  0  0  0  0  0  0  0  0  0  0  0
  1  2  1  0
  2  3  1  0
  2  4  1  0
  4  5  2  0
  5  6  1  0
  6  7  2  0
  7  8  1  0
  8  9  2  0
  9 10  1  0
 10 11  2  0
 11 12  1  0
 12 13  1  0
 13 14  2  0
 13 15  1  0
 12 16  2  0
 16 17  1  0
 17 18  2  0
 18 19  1  0
  7 20  1  0
 20 21  2  0
 21  4  1  0
 19  8  1  0
 18 10  1  0
  1 22  1  0
  1 23  1  0
  1 24  1  0
  3 25  1  0
  3 26  1  0
  3 27  1  0
  5 28  1  0
  6 29  1  0
 11 30  1  0
 16 31  1  0
 17 32  1  0
 19 33  1  0
 20 34  1  0
 21 35  1  0
M  CHG  2  13   1  15  -1
M  END
>  <UniqueID>  (3) 
3

>  <SMILES>  (3) 
CN(C)c1ccc(-c2nc3cc([N+](=O)[O-])ccc3[nH]2)cc1

>  <Energy>  (3) 
77.94028879842335

>  <Genealogy>  (3) 
CN(C)c1ccc(-c2nc3cc([N+](=O)[O-])ccc3[nH]2)cc1 (3D coordinates assigned)
CN(C)c1ccc(-c2nc3cc([N+](=O)[O-])ccc3[nH]2)cc1 (optimized conformer: 77.94028879842335 kcal/mol)

>  <smiles>  (3) 
CN(C)c1ccc(-c2nc3cc([N+](=O)[O-])ccc3[nH]2)cc1

>  <score_type>  (3) 
oracle

>  <origin>  (3) 
adg

>  <m_score__min__energy>  (3) 
-7.6500000000000004

>  <m_primary>  (3) 
energy

$$$$
3:0
     RDKit          3D

 52 52  0  0  0  0  0  0  0  0999 V2000
   -5.6900   16.8320  -34.2500 C   0  0  0  0  0  0  0  0  0  0  0  0
   -5.5820   18.1910  -34.9480 C   0  0  0  0  0  0  0  0  0  0  0  0
   -6.3400   19.2400  -34.2400 N   0  0  0  0  0  0  0  0  0  0  0  0
   -6.9670   18.7550  -32.9890 C   0  0  0  0  0  0  0  0  0  0  0  0
   -6.1480   19.0950  -31.7260 C   0  0  0  0  0  0  0  0  0  0  0  0
   -4.6620   19.3820  -32.0140 C   0  0  0  0  0  0  0  0  0  0  0  0
   -4.4540   20.7780  -32.4660 N   0  0  0  0  0  0  0  0  0  0  0  0
   -3.2160   20.8770  -33.2740 C   0  0  0  0  0  0  0  0  0  0  0  0
   -2.4930   19.5330  -33.3570 C   0  0  0  0  0  0  0  0  0  0  0  0
   -4.4390   21.7260  -31.3180 C   0  0  0  0  0  0  0  0  0  0  0  0
   -3.1620   22.5730  -31.3560 C   0  0  0  0  0  0  0  0  0  0  0  0
   -3.1790   23.6530  -30.2700 C   0  0  0  0  0  0  0  0  0  0  0  0
   -3.7240   24.9020  -30.8190 N   0  0  0  0  0  0  0  0  0  0  0  0
   -5.0250   25.2240  -30.2170 C   0  0  0  0  0  0  0  0  0  0  0  0
   -6.0650   24.2200  -30.6400 C   0  0  0  0  0  0  0  0  0  0  0  0
   -6.6440   23.3650  -29.6890 C   0  0  0  0  0  0  0  0  0  0  0  0
   -7.6240   22.4460  -30.0720 C   0  0  0  0  0  0  0  0  0  0  0  0
   -8.0380   22.3760  -31.4060 C   0  0  0  0  0  0  0  0  0  0  0  0
   -9.3800   21.1220  -31.9270 Br  0  0  0  0  0  0  0  0  0  0  0  0
   -7.4690   23.2280  -32.3590 C   0  0  0  0  0  0  0  0  0  0  0  0
   -6.4860   24.1480  -31.9790 C   0  0  0  0  0  0  0  0  0  0  0  0
   -5.6784   16.9778  -33.1598 H   0  0  0  0  0  0  0  0  0  0  0  0
   -6.6299   16.3422  -34.5445 H   0  0  0  0  0  0  0  0  0  0  0  0
   -4.8393   16.1999  -34.5445 H   0  0  0  0  0  0  0  0  0  0  0  0
   -4.5229   18.4854  -34.9894 H   0  0  0  0  0  0  0  0  0  0  0  0
   -6.0073   18.0883  -35.9572 H   0  0  0  0  0  0  0  0  0  0  0  0
   -7.0830   19.6160  -34.8760 H   0  0  0  0  0  0  0  0  0  0  0  0
   -5.6970   20.0400  -34.0480 H   0  0  0  0  0  0  0  0  0  0  0  0
   -7.9615   19.2157  -32.8951 H   0  0  0  0  0  0  0  0  0  0  0  0
   -7.0237   17.6585  -33.0560 H   0  0  0  0  0  0  0  0  0  0  0  0
   -6.5893   19.9855  -31.2545 H   0  0  0  0  0  0  0  0  0  0  0  0
   -6.1852   18.2128  -31.0699 H   0  0  0  0  0  0  0  0  0  0  0  0
   -4.0813   19.2140  -31.0950 H   0  0  0  0  0  0  0  0  0  0  0  0
   -4.3304   18.7072  -32.8169 H   0  0  0  0  0  0  0  0  0  0  0  0
   -3.4779   21.2055  -34.2906 H   0  0  0  0  0  0  0  0  0  0  0  0
   -2.5444   21.6011  -32.7896 H   0  0  0  0  0  0  0  0  0  0  0  0
   -2.2929   19.1610  -32.3413 H   0  0  0  0  0  0  0  0  0  0  0  0
   -3.1238   18.8099  -33.8947 H   0  0  0  0  0  0  0  0  0  0  0  0
   -1.5419   19.6609  -33.8947 H   0  0  0  0  0  0  0  0  0  0  0  0
   -5.3165   22.3865  -31.3792 H   0  0  0  0  0  0  0  0  0  0  0  0
   -4.4670   21.1558  -30.3777 H   0  0  0  0  0  0  0  0  0  0  0  0
   -2.2926   21.9182  -31.1968 H   0  0  0  0  0  0  0  0  0  0  0  0
   -3.1019   23.0673  -32.3368 H   0  0  0  0  0  0  0  0  0  0  0  0
   -3.8072   23.3179  -29.4315 H   0  0  0  0  0  0  0  0  0  0  0  0
   -2.1523   23.8290  -29.9166 H   0  0  0  0  0  0  0  0  0  0  0  0
   -3.0630   25.6750  -30.5660 H   0  0  0  0  0  0  0  0  0  0  0  0
   -4.9308   25.2077  -29.1212 H   0  0  0  0  0  0  0  0  0  0  0  0
   -5.3364   26.2230  -30.5561 H   0  0  0  0  0  0  0  0  0  0  0  0
   -6.3247   23.4189  -28.6377 H   0  0  0  0  0  0  0  0  0  0  0  0
   -8.0710   21.7760  -29.3227 H   0  0  0  0  0  0  0  0  0  0  0  0
   -7.7950   23.1743  -33.4082 H   0  0  0  0  0  0  0  0  0  0  0  0
   -6.0413   24.8170  -32.7304 H   0  0  0  0  0  0  0  0  0  0  0  0
  1  2  1  0
  2  3  1  0
  3  4  1  0
  4  5  1  0
  5  6  1  0
  6  7  1  0
  7  8  1  0
  8  9  1  0
  7 10  1  0
 10 11  1  0
 11 12  1  0
 12 13  1  0
 13 14  1  0
 14 15  1  0
 15 16  2  0
 16 17  1  0
 17 18  2  0
 18 19  1  0
 18 20  1  0
 20 21  2  0
 21 15  1  0
  1 22  1  0
  1 23  1  0
  1 24  1  0
  2 25  1  0
  2 26  1  0
  3 27  1  0
  3 28  1  0
  4 29  1  0
  4 30  1  0
  5 31  1  0
  5 32  1  0
  6 33  1  0
  6 34  1  0
  8 35  1  0
  8 36  1  0
  9 37  1  0
  9 38  1  0
  9 39  1  0
 10 40  1  0
 10 41  1  0
 11 42  1  0
 11 43  1  0
 12 44  1  0
 12 45  1  0
 13 46  1  0
 14 47  1  0
 14 48  1  0
 16 49  1  0
 17 50  1  0
 20 51  1  0
 21 52  1  0
M  CHG  1   3   1
M  END
>  <UniqueID>  (4) 
4

>  <SMILES>  (4) 
CC[NH2+]CCCN(CC)CCCNCc1ccc(Br)cc1

>  <Energy>  (4) 
43.432289325760344

>  <Genealogy>  (4) 
CC[NH2+]CCCN(CC)CCCNCc1ccc(Br)cc1 (protonated)
CC[NH2+]CCCN(CC)CCCNCc1ccc(Br)cc1 (3D coordinates assigned)
CC[NH2+]CCCN(CC)CCCNCc1ccc(Br)cc1 (optimized conformer: 43.432289325760344 kcal/mol)

>  <smiles>  (4) 
CCNCCCN(CC)CCCNCc1ccc(Br)cc1

>  <score_type>  (4) 
oracle

>  <origin>  (4) 
adg

>  <m_score__min__energy>  (4) 
-8

>  <m_primary>  (4) 
energy

$$$$
4:0
     RDKit          3D

 40 42  0  0  0  0  0  0  0  0999 V2000
   -2.8730   19.5120  -33.9170 C   0  0  0  0  0  0  0  0  0  0  0  0
   -4.2830   19.2300  -33.4780 C   0  0  0  0  0  0  0  0  0  0  0  0
   -4.7240   17.8990  -33.4590 C   0  0  0  0  0  0  0  0  0  0  0  0
   -6.0250   17.5850  -33.0810 C   0  0  0  0  0  0  0  0  0  0  0  0
   -6.9180   18.5920  -32.7180 C   0  0  0  0  0  0  0  0  0  0  0  0
   -8.1930   18.2490  -32.3610 N   0  0  0  0  0  0  0  0  0  0  0  0
   -9.1190   19.1740  -31.9910 C   0  0  0  0  0  0  0  0  0  0  0  0
   -8.7460   20.5100  -31.9780 C   0  0  0  0  0  0  0  0  0  0  0  0
   -9.5160   21.5550  -31.6390 N   0  0  0  0  0  0  0  0  0  0  0  0
   -8.7350   22.6450  -31.7730 C   0  0  0  0  0  0  0  0  0  0  0  0
   -7.4650   22.2870  -32.2020 C   0  0  0  0  0  0  0  0  0  0  0  0
   -7.4770   20.9030  -32.3300 C   0  0  0  0  0  0  0  0  0  0  0  0
   -6.4980   19.9550  -32.7140 C   0  0  0  0  0  0  0  0  0  0  0  0
   -5.1570   20.2680  -33.0650 C   0  0  0  0  0  0  0  0  0  0  0  0
   -4.6820   21.6210  -33.0130 N   0  0  0  0  0  0  0  0  0  0  0  0
   -3.8660   22.1550  -31.9150 C   0  0  0  0  0  0  0  0  0  0  0  0
   -4.6940   22.9590  -30.8990 C   0  0  0  0  0  0  0  0  0  0  0  0
   -4.2170   24.3560  -30.8090 N   0  0  0  0  0  0  0  0  0  0  0  0
   -3.3540   24.5510  -29.6330 C   0  0  0  0  0  0  0  0  0  0  0  0
   -5.3550   25.2870  -30.7480 C   0  0  0  0  0  0  0  0  0  0  0  0
   -2.2322   19.6402  -33.0322 H   0  0  0  0  0  0  0  0  0  0  0  0
   -2.5015   18.6704  -34.5200 H   0  0  0  0  0  0  0  0  0  0  0  0
   -2.8537   20.4318  -34.5200 H   0  0  0  0  0  0  0  0  0  0  0  0
   -4.0324   17.0934  -33.7466 H   0  0  0  0  0  0  0  0  0  0  0  0
   -6.3517   16.5347  -33.0684 H   0  0  0  0  0  0  0  0  0  0  0  0
  -10.1380   18.8703  -31.7092 H   0  0  0  0  0  0  0  0  0  0  0  0
  -10.5140   21.5340  -31.3320 H   0  0  0  0  0  0  0  0  0  0  0  0
   -9.0596   23.6763  -31.5702 H   0  0  0  0  0  0  0  0  0  0  0  0
   -6.6195   22.9620  -32.4007 H   0  0  0  0  0  0  0  0  0  0  0  0
   -4.8520   22.2310  -33.8450 H   0  0  0  0  0  0  0  0  0  0  0  0
   -3.3861   21.3147  -31.3919 H   0  0  0  0  0  0  0  0  0  0  0  0
   -3.1233   22.8376  -32.3537 H   0  0  0  0  0  0  0  0  0  0  0  0
   -5.7478   22.9589  -31.2143 H   0  0  0  0  0  0  0  0  0  0  0  0
   -4.5858   22.4888  -29.9105 H   0  0  0  0  0  0  0  0  0  0  0  0
   -3.9473   24.4169  -28.7165 H   0  0  0  0  0  0  0  0  0  0  0  0
   -2.5368   23.8149  -29.6517 H   0  0  0  0  0  0  0  0  0  0  0  0
   -2.9328   25.5670  -29.6517 H   0  0  0  0  0  0  0  0  0  0  0  0
   -5.6053   25.4918  -29.6966 H   0  0  0  0  0  0  0  0  0  0  0  0
   -5.0865   26.2277  -31.2509 H   0  0  0  0  0  0  0  0  0  0  0  0
   -6.2239   24.8374  -31.2509 H   0  0  0  0  0  0  0  0  0  0  0  0
  1  2  1  0
  2  3  2  0
  3  4  1  0
  4  5  2  0
  5  6  1  0
  6  7  2  0
  7  8  1  0
  8  9  1  0
  9 10  1  0
 10 11  2  0
 11 12  1  0
 12 13  1  0
 13 14  2  0
 14 15  1  0
 15 16  1  0
 16 17  1  0
 17 18  1  0
 18 19  1  0
 18 20  1  0
 14  2  1  0
 13  5  1  0
 12  8  2  0
  1 21  1  0
  1 22  1  0
  1 23  1  0
  3 24  1  0
  4 25  1  0
  7 26  1  0
  9 27  1  0
 10 28  1  0
 11 29  1  0
 15 30  1  0
 16 31  1  0
 16 32  1  0
 17 33  1  0
 17 34  1  0
 19 35  1  0
 19 36  1  0
 19 37  1  0
 20 38  1  0
 20 39  1  0
 20 40  1  0
M  END
>  <UniqueID>  (5) 
5

>  <SMILES>  (5) 
Cc1ccc2ncc3[nH]ccc3c2c1NCCN(C)C

>  <Energy>  (5) 
84.52863635898373

>  <Genealogy>  (5) 
Cc1ccc2ncc3[nH]ccc3c2c1NCCN(C)C (3D coordinates assigned)
Cc1ccc2ncc3[nH]ccc3c2c1NCCN(C)C (optimized conformer: 84.52863635898373 kcal/mol)

>  <smiles>  (5) 
Cc1ccc2ncc3[nH]ccc3c2c1NCCN(C)C

>  <score_type>  (5) 
oracle

>  <origin>  (5) 
adg

>  <m_score__min__energy>  (5) 
-7.9900000000000002

>  <m_primary>  (5) 
energy

$$$$
5:0
     RDKit          3D

 67 69  0  0  0  0  0  0  0  0999 V2000
   -2.0550   18.2630  -33.2840 C   0  0  0  0  0  0  0  0  0  0  0  0
   -1.6740   19.3480  -34.2930 C   0  0  0  0  0  0  0  0  0  0  0  0
   -1.3910   20.6380  -33.6420 N   0  0  0  0  0  0  0  0  0  0  0  0
   -0.4350   21.5650  -34.2760 C   0  0  0  0  0  0  0  0  0  0  0  0
    0.1040   20.9990  -35.5830 C   0  0  0  0  0  0  0  0  0  0  0  0
   -1.4880   20.6970  -32.2050 C   0  0  0  0  0  0  0  0  0  0  0  0
   -0.3970   20.2250  -31.4650 C   0  0  0  0  0  0  0  0  0  0  0  0
   -0.2900   20.4960  -30.1110 C   0  0  0  0  0  0  0  0  0  0  0  0
   -1.2610   21.2540  -29.4680 C   0  0  0  0  0  0  0  0  0  0  0  0
   -2.4180   21.7000  -30.1540 C   0  0  0  0  0  0  0  0  0  0  0  0
   -2.5440   21.3860  -31.5390 C   0  0  0  0  0  0  0  0  0  0  0  0
   -3.7280   21.7640  -32.2040 C   0  0  0  0  0  0  0  0  0  0  0  0
   -4.1260   21.0980  -33.4140 N   0  0  0  0  0  0  0  0  0  0  0  0
   -4.8560   19.8290  -33.3690 C   0  0  0  0  0  0  0  0  0  0  0  0
   -6.3100   19.9880  -33.8380 C   0  0  0  0  0  0  0  0  0  0  0  0
   -7.2990   20.4600  -32.7410 C   0  0  0  0  0  0  0  0  0  0  0  0
   -8.6180   19.7610  -32.6590 N   0  0  0  0  0  0  0  0  0  0  0  0
   -9.7640   20.6580  -32.3440 C   0  0  0  0  0  0  0  0  0  0  0  0
   -9.3730   21.8720  -31.4860 C   0  0  0  0  0  0  0  0  0  0  0  0
   -8.5650   18.5860  -31.7510 C   0  0  0  0  0  0  0  0  0  0  0  0
   -7.2510   17.7980  -31.8540 C   0  0  0  0  0  0  0  0  0  0  0  0
   -4.5950   22.6890  -31.6030 C   0  0  0  0  0  0  0  0  0  0  0  0
   -5.6610   23.2600  -32.3300 C   0  0  0  0  0  0  0  0  0  0  0  0
   -6.4960   24.2040  -31.7390 C   0  0  0  0  0  0  0  0  0  0  0  0
   -6.2750   24.6070  -30.4260 C   0  0  0  0  0  0  0  0  0  0  0  0
   -5.2320   24.0480  -29.6880 C   0  0  0  0  0  0  0  0  0  0  0  0
   -4.3900   23.0530  -30.2490 C   0  0  0  0  0  0  0  0  0  0  0  0
   -3.4020   22.4310  -29.5110 N   0  0  0  0  0  0  0  0  0  0  0  0
   -3.4060   22.5440  -28.0350 C   0  0  0  0  0  0  0  0  0  0  0  0
   -1.9197   18.6483  -32.2626 H   0  0  0  0  0  0  0  0  0  0  0  0
   -3.1070   17.9778  -33.4319 H   0  0  0  0  0  0  0  0  0  0  0  0
   -1.4122   17.3827  -33.4319 H   0  0  0  0  0  0  0  0  0  0  0  0
   -0.7770   19.0232  -34.8407 H   0  0  0  0  0  0  0  0  0  0  0  0
   -2.5272   19.4924  -34.9721 H   0  0  0  0  0  0  0  0  0  0  0  0
   -0.9437   22.5184  -34.4816 H   0  0  0  0  0  0  0  0  0  0  0  0
    0.4106   21.7141  -33.5884 H   0  0  0  0  0  0  0  0  0  0  0  0
    0.8476   20.2182  -35.3654 H   0  0  0  0  0  0  0  0  0  0  0  0
   -0.7235   20.5656  -36.1638 H   0  0  0  0  0  0  0  0  0  0  0  0
    0.5773   21.8044  -36.1638 H   0  0  0  0  0  0  0  0  0  0  0  0
    0.3836   19.6325  -31.9645 H   0  0  0  0  0  0  0  0  0  0  0  0
    0.5681   20.1092  -29.5417 H   0  0  0  0  0  0  0  0  0  0  0  0
   -1.1291   21.5126  -28.4070 H   0  0  0  0  0  0  0  0  0  0  0  0
   -4.3100   21.7050  -34.2420 H   0  0  0  0  0  0  0  0  0  0  0  0
   -4.3489   19.1036  -34.0222 H   0  0  0  0  0  0  0  0  0  0  0  0
   -4.8704   19.4807  -32.3257 H   0  0  0  0  0  0  0  0  0  0  0  0
   -6.3276   20.7248  -34.6546 H   0  0  0  0  0  0  0  0  0  0  0  0
   -6.6464   18.9878  -34.1487 H   0  0  0  0  0  0  0  0  0  0  0  0
   -6.7984   20.3357  -31.7694 H   0  0  0  0  0  0  0  0  0  0  0  0
   -7.5459   21.4973  -33.0113 H   0  0  0  0  0  0  0  0  0  0  0  0
   -8.7940   19.3870  -33.6220 H   0  0  0  0  0  0  0  0  0  0  0  0
  -10.1911   21.0228  -33.2898 H   0  0  0  0  0  0  0  0  0  0  0  0
  -10.4865   20.0682  -31.7608 H   0  0  0  0  0  0  0  0  0  0  0  0
   -9.4572   21.6106  -30.4208 H   0  0  0  0  0  0  0  0  0  0  0  0
   -8.3361   22.1617  -31.7116 H   0  0  0  0  0  0  0  0  0  0  0  0
  -10.0459   22.7124  -31.7116 H   0  0  0  0  0  0  0  0  0  0  0  0
   -8.6801   18.9393  -30.7157 H   0  0  0  0  0  0  0  0  0  0  0  0
   -9.3769   17.9065  -32.0495 H   0  0  0  0  0  0  0  0  0  0  0  0
   -6.8776   17.5741  -30.8438 H   0  0  0  0  0  0  0  0  0  0  0  0
   -7.4290   16.8575  -32.3960 H   0  0  0  0  0  0  0  0  0  0  0  0
   -6.5052   18.3980  -32.3960 H   0  0  0  0  0  0  0  0  0  0  0  0
   -5.8337   22.9565  -33.3731 H   0  0  0  0  0  0  0  0  0  0  0  0
   -7.3322   24.6321  -32.3113 H   0  0  0  0  0  0  0  0  0  0  0  0
   -6.9243   25.3682  -29.9689 H   0  0  0  0  0  0  0  0  0  0  0  0
   -5.0593   24.3837  -28.6548 H   0  0  0  0  0  0  0  0  0  0  0  0
   -3.3704   21.5386  -27.5902 H   0  0  0  0  0  0  0  0  0  0  0  0
   -2.5277   23.1205  -27.7090 H   0  0  0  0  0  0  0  0  0  0  0  0
   -4.3229   23.0569  -27.7090 H   0  0  0  0  0  0  0  0  0  0  0  0
  1  2  1  0
  2  3  1  0
  3  4  1  0
  4  5  1  0
  3  6  1  0
  6  7  2  0
  7  8  1  0
  8  9  2  0
  9 10  1  0
 10 11  2  0
 11 12  1  0
 12 13  1  0
 13 14  1  0
 14 15  1  0
 15 16  1  0
 16 17  1  0
 17 18  1  0
 18 19  1  0
 17 20  1  0
 20 21  1  0
 12 22  2  0
 22 23  1  0
 23 24  2  0
 24 25  1  0
 25 26  2  0
 26 27  1  0
 27 28  2  0
 28 29  1  0
 11  6  1  0
 27 22  1  0
 28 10  1  0
  1 30  1  0
  1 31  1  0
  1 32  1  0
  2 33  1  0
  2 34  1  0
  4 35  1  0
  4 36  1  0
  5 37  1  0
  5 38  1  0
  5 39  1  0
  7 40  1  0
  8 41  1  0
  9 42  1  0
 13 43  1  0
 14 44  1  0
 14 45  1  0
 15 46  1  0
 15 47  1  0
 16 48  1  0
 16 49  1  0
 17 50  1  0
 18 51  1  0
 18 52  1  0
 19 53  1  0
 19 54  1  0
 19 55  1  0
 20 56  1  0
 20 57  1  0
 21 58  1  0
 21 59  1  0
 21 60  1  0
 23 61  1  0
 24 62  1  0
 25 63  1  0
 26 64  1  0
 29 65  1  0
 29 66  1  0
 29 67  1  0
M  CHG  2  17   1  28   1
M  END
>  <UniqueID>  (6) 
6

>  <SMILES>  (6) 
CCN(CC)c1cccc2c1c(NCCC[NH+](CC)CC)c1ccccc1[n+]2C

>  <Energy>  (6) 
106.71525192669864

>  <Genealogy>  (6) 
CCN(CC)c1cccc2c1c(NCCC[NH+](CC)CC)c1ccccc1[n+]2C (protonated)
CCN(CC)c1cccc2c1c(NCCC[NH+](CC)CC)c1ccccc1[n+]2C (3D coordinates assigned)
CCN(CC)c1cccc2c1c(NCCC[NH+](CC)CC)c1ccccc1[n+]2C (optimized conformer: 106.71525192669864 kcal/mol)

>  <smiles>  (6) 
CCN(CC)CCCNc1c2ccccc2[n+](C)c2cccc(N(CC)CC)c12

>  <score_type>  (6) 
oracle

>  <origin>  (6) 
adg

>  <m_score__min__energy>  (6) 
-6.9699999999999998

>  <m_primary>  (6) 
energy

$$$$
6:0
     RDKit          3D

 57 60  0  0  0  0  0  0  0  0999 V2000
   -2.6690   19.3450  -26.7100 C   0  0  0  0  0  0  0  0  0  0  0  0
   -1.7980   20.0690  -27.4190 C   0  0  0  0  0  0  0  0  0  0  0  0
   -1.9220   21.5650  -27.5080 C   0  0  0  0  0  0  0  0  0  0  0  0
   -3.2710   21.9440  -27.9770 N   0  0  0  0  0  0  0  0  0  0  0  0
   -3.4770   21.6180  -29.4130 C   0  0  0  0  0  0  0  0  0  0  0  0
   -3.2660   22.8280  -30.3450 C   0  0  0  0  0  0  0  0  0  0  0  0
   -4.0530   24.0210  -29.9390 N   0  0  0  0  0  0  0  0  0  0  0  0
   -5.0210   24.4800  -30.9570 C   0  0  0  0  0  0  0  0  0  0  0  0
   -6.0660   23.4040  -31.3450 C   0  0  0  0  0  0  0  0  0  0  0  0
   -5.8720   22.8970  -32.7170 N   0  0  0  0  0  0  0  0  0  0  0  0
   -5.7780   21.4380  -32.7400 C   0  0  0  0  0  0  0  0  0  0  0  0
   -6.9090   20.6060  -32.4780 C   0  0  0  0  0  0  0  0  0  0  0  0
   -8.1440   21.1190  -31.9940 C   0  0  0  0  0  0  0  0  0  0  0  0
   -9.2160   20.2770  -31.7080 C   0  0  0  0  0  0  0  0  0  0  0  0
   -9.0920   18.9070  -31.8780 C   0  0  0  0  0  0  0  0  0  0  0  0
   -7.9050   18.3710  -32.3600 C   0  0  0  0  0  0  0  0  0  0  0  0
   -6.8060   19.2010  -32.7030 C   0  0  0  0  0  0  0  0  0  0  0  0
   -5.6550   18.6620  -33.2380 N   0  0  0  0  0  0  0  0  0  0  0  0
   -5.6710   17.2900  -33.8000 C   0  0  0  0  0  0  0  0  0  0  0  0
   -4.4950   19.4050  -33.2720 C   0  0  0  0  0  0  0  0  0  0  0  0
   -3.2400   18.7910  -33.5160 C   0  0  0  0  0  0  0  0  0  0  0  0
   -2.0750   19.5460  -33.6170 C   0  0  0  0  0  0  0  0  0  0  0  0
   -2.1260   20.9230  -33.4650 C   0  0  0  0  0  0  0  0  0  0  0  0
   -3.3350   21.5520  -33.1850 C   0  0  0  0  0  0  0  0  0  0  0  0
   -4.5390   20.8110  -33.0600 C   0  0  0  0  0  0  0  0  0  0  0  0
   -4.6160   23.9560  -28.5780 C   0  0  0  0  0  0  0  0  0  0  0  0
   -3.5830   23.3500  -27.6260 C   0  0  0  0  0  0  0  0  0  0  0  0
   -2.5610   18.2516  -26.6574 H   0  0  0  0  0  0  0  0  0  0  0  0
   -3.4940   19.8424  -26.1790 H   0  0  0  0  0  0  0  0  0  0  0  0
   -0.9765   19.5622  -27.9464 H   0  0  0  0  0  0  0  0  0  0  0  0
   -1.7478   22.0027  -26.5140 H   0  0  0  0  0  0  0  0  0  0  0  0
   -1.1768   21.9425  -28.2236 H   0  0  0  0  0  0  0  0  0  0  0  0
   -2.7661   20.8285  -29.6981 H   0  0  0  0  0  0  0  0  0  0  0  0
   -4.5217   21.2935  -29.5287 H   0  0  0  0  0  0  0  0  0  0  0  0
   -2.1986   23.0937  -30.3375 H   0  0  0  0  0  0  0  0  0  0  0  0
   -3.6103   22.5337  -31.3474 H   0  0  0  0  0  0  0  0  0  0  0  0
   -5.5544   25.3564  -30.5602 H   0  0  0  0  0  0  0  0  0  0  0  0
   -4.4476   24.7169  -31.8654 H   0  0  0  0  0  0  0  0  0  0  0  0
   -5.9825   22.5617  -30.6425 H   0  0  0  0  0  0  0  0  0  0  0  0
   -7.0605   23.8719  -31.2990 H   0  0  0  0  0  0  0  0  0  0  0  0
   -6.6640   23.2080  -33.3210 H   0  0  0  0  0  0  0  0  0  0  0  0
   -5.0640   23.3910  -33.1410 H   0  0  0  0  0  0  0  0  0  0  0  0
   -8.2548   22.2029  -31.8424 H   0  0  0  0  0  0  0  0  0  0  0  0
  -10.1643   20.7007  -31.3460 H   0  0  0  0  0  0  0  0  0  0  0  0
   -9.9342   18.2440  -31.6310 H   0  0  0  0  0  0  0  0  0  0  0  0
   -7.8147   17.2811  -32.4783 H   0  0  0  0  0  0  0  0  0  0  0  0
   -5.6795   16.5577  -32.9793 H   0  0  0  0  0  0  0  0  0  0  0  0
   -6.5707   17.1577  -34.4188 H   0  0  0  0  0  0  0  0  0  0  0  0
   -4.7746   17.1368  -34.4188 H   0  0  0  0  0  0  0  0  0  0  0  0
   -3.1863   17.6980  -33.6275 H   0  0  0  0  0  0  0  0  0  0  0  0
   -1.1138   19.0500  -33.8174 H   0  0  0  0  0  0  0  0  0  0  0  0
   -1.2078   21.5202  -33.5661 H   0  0  0  0  0  0  0  0  0  0  0  0
   -3.3582   22.6444  -33.0581 H   0  0  0  0  0  0  0  0  0  0  0  0
   -4.8754   24.9701  -28.2399 H   0  0  0  0  0  0  0  0  0  0  0  0
   -5.5197   23.3289  -28.5851 H   0  0  0  0  0  0  0  0  0  0  0  0
   -2.6586   23.9439  -27.6784 H   0  0  0  0  0  0  0  0  0  0  0  0
   -4.0040   23.3640  -26.6098 H   0  0  0  0  0  0  0  0  0  0  0  0
  1  2  2  0
  2  3  1  0
  3  4  1  0
  4  5  1  0
  5  6  1  0
  6  7  1  0
  7  8  1  0
  8  9  1  0
  9 10  1  0
 10 11  1  0
 11 12  1  0
 12 13  2  0
 13 14  1  0
 14 15  2  0
 15 16  1  0
 16 17  2  0
 17 18  1  0
 18 19  1  0
 18 20  2  0
 20 21  1  0
 21 22  2  0
 22 23  1  0
 23 24  2  0
 24 25  1  0
  7 26  1  0
 26 27  1  0
 27  4  1  0
 25 11  2  0
 17 12  1  0
 25 20  1  0
  1 28  1  0
  1 29  1  0
  2 30  1  0
  3 31  1  0
  3 32  1  0
  5 33  1  0
  5 34  1  0
  6 35  1  0
  6 36  1  0
  8 37  1  0
  8 38  1  0
  9 39  1  0
  9 40  1  0
 10 41  1  0
 10 42  1  0
 13 43  1  0
 14 44  1  0
 15 45  1  0
 16 46  1  0
 19 47  1  0
 19 48  1  0
 19 49  1  0
 21 50  1  0
 22 51  1  0
 23 52  1  0
 24 53  1  0
 26 54  1  0
 26 55  1  0
 27 56  1  0
 27 57  1  0
M  CHG  2  10   1  18   1
M  END
>  <UniqueID>  (7) 
7

>  <SMILES>  (7) 
C=CCN1CCN(CC[NH2+]c2c3ccccc3[n+](C)c3ccccc23)CC1

>  <Energy>  (7) 
103.14549694742925

>  <Genealogy>  (7) 
C=CCN1CCN(CC[NH2+]c2c3ccccc3[n+](C)c3ccccc23)CC1 (protonated)
C=CCN1CCN(CC[NH2+]c2c3ccccc3[n+](C)c3ccccc23)CC1 (3D coordinates assigned)
C=CCN1CCN(CC[NH2+]c2c3ccccc3[n+](C)c3ccccc23)CC1 (nonaromatic ring conformer: 103.14549694742925 kcal/mol)

>  <smiles>  (7) 
C=CCN1CCN(CCNc2c3ccccc3[n+](C)c3ccccc23)CC1

>  <score_type>  (7) 
oracle

>  <origin>  (7) 
adg

>  <m_score__min__energy>  (7) 
-8.4100000000000001

>  <m_primary>  (7) 
energy

$$$$
7:0
     RDKit          3D

 44 45  0  0  0  0  0  0  0  0999 V2000
   -6.9805   25.2911  -30.9571 H   0  0  0  0  0  0  0  0  0  0  0  0
   -6.1530   24.5950  -31.1590 C   0  0  0  0  0  0  0  0  0  0  0  0
   -4.9630   24.6870  -30.2860 C   0  0  0  0  0  0  0  0  0  0  0  0
   -3.8850   25.1760  -30.7180 O   0  0  0  0  0  0  0  0  0  0  0  0
   -5.0290   24.1630  -28.9520 N   0  0  0  0  0  0  0  0  0  0  0  0
   -5.9440   23.8100  -28.5900 H   0  0  0  0  0  0  0  0  0  0  0  0
   -3.8870   24.1850  -28.0410 C   0  0  0  0  0  0  0  0  0  0  0  0
   -3.0922   24.8119  -28.4714 H   0  0  0  0  0  0  0  0  0  0  0  0
   -4.2107   24.5959  -27.0733 H   0  0  0  0  0  0  0  0  0  0  0  0
   -3.3480   22.7640  -27.8230 C   0  0  0  0  0  0  0  0  0  0  0  0
   -2.3651   22.8313  -27.3337 H   0  0  0  0  0  0  0  0  0  0  0  0
   -4.0757   22.2239  -27.1995 H   0  0  0  0  0  0  0  0  0  0  0  0
   -3.1910   21.9830  -29.1370 C   0  0  0  0  0  0  0  0  0  0  0  0
   -2.9198   20.9440  -28.8984 H   0  0  0  0  0  0  0  0  0  0  0  0
   -4.1494   22.0408  -29.6738 H   0  0  0  0  0  0  0  0  0  0  0  0
   -2.1110   22.5740  -30.0530 C   0  0  0  0  0  0  0  0  0  0  0  0
   -2.2999   23.6491  -30.1887 H   0  0  0  0  0  0  0  0  0  0  0  0
   -1.1260   22.4181  -29.5888 H   0  0  0  0  0  0  0  0  0  0  0  0
   -2.1300   21.8940  -31.3960 C   0  0  0  0  0  0  0  0  0  0  0  0
   -3.2920   21.9030  -32.1810 C   0  0  0  0  0  0  0  0  0  0  0  0
   -4.2080   22.3858  -31.8098 H   0  0  0  0  0  0  0  0  0  0  0  0
   -3.2770   21.2940  -33.4380 C   0  0  0  0  0  0  0  0  0  0  0  0
   -4.1868   21.2894  -34.0563 H   0  0  0  0  0  0  0  0  0  0  0  0
   -2.1410   20.7070  -33.8990 N   0  0  0  0  0  0  0  0  0  0  0  0
   -0.9970   20.6950  -33.1650 C   0  0  0  0  0  0  0  0  0  0  0  0
   -0.0927   20.2139  -33.5661 H   0  0  0  0  0  0  0  0  0  0  0  0
   -0.9670   21.2920  -31.9030 C   0  0  0  0  0  0  0  0  0  0  0  0
   -0.0400   21.2907  -31.3109 H   0  0  0  0  0  0  0  0  0  0  0  0
   -6.3090   23.7340  -32.1770 C   0  0  0  0  0  0  0  0  0  0  0  0
   -5.8452   24.0004  -33.1382 H   0  0  0  0  0  0  0  0  0  0  0  0
   -7.0520   22.4580  -32.1140 C   0  0  0  0  0  0  0  0  0  0  0  0
   -8.2470   22.3460  -31.3840 C   0  0  0  0  0  0  0  0  0  0  0  0
   -8.6628   23.2287  -30.8760 H   0  0  0  0  0  0  0  0  0  0  0  0
   -8.9100   21.1190  -31.3000 C   0  0  0  0  0  0  0  0  0  0  0  0
   -9.8594   21.0460  -30.7493 H   0  0  0  0  0  0  0  0  0  0  0  0
   -8.3700   19.9800  -31.9150 C   0  0  0  0  0  0  0  0  0  0  0  0
   -9.1010   18.6700  -31.8570 C   0  0  0  0  0  0  0  0  0  0  0  0
   -9.2600   18.3850  -30.8065 H   0  0  0  0  0  0  0  0  0  0  0  0
  -10.0736   18.7702  -32.3610 H   0  0  0  0  0  0  0  0  0  0  0  0
   -8.5050   17.8949  -32.3610 H   0  0  0  0  0  0  0  0  0  0  0  0
   -7.1700   20.0880  -32.6330 C   0  0  0  0  0  0  0  0  0  0  0  0
   -6.7490   19.2025  -33.1317 H   0  0  0  0  0  0  0  0  0  0  0  0
   -6.5060   21.3160  -32.7180 C   0  0  0  0  0  0  0  0  0  0  0  0
   -5.5518   21.3864  -33.2607 H   0  0  0  0  0  0  0  0  0  0  0  0
  1  2  1  0
  2  3  1  0
  3  4  2  0
  3  5  1  0
  5  6  1  0
  5  7  1  0
  7  8  1  0
  7  9  1  0
  7 10  1  0
 10 11  1  0
 10 12  1  0
 10 13  1  0
 13 14  1  0
 13 15  1  0
 13 16  1  0
 16 17  1  0
 16 18  1  0
 16 19  1  0
 19 20  2  0
 20 21  1  0
 20 22  1  0
 22 23  1  0
 22 24  2  0
 24 25  1  0
 25 26  1  0
 25 27  2  0
 27 28  1  0
  2 29  2  0
 29 30  1  0
 29 31  1  0
 31 32  2  0
 32 33  1  0
 32 34  1  0
 34 35  1  0
 34 36  2  0
 36 37  1  0
 37 38  1  0
 37 39  1  0
 37 40  1  0
 36 41  1  0
 41 42  1  0
 41 43  2  0
 43 44  1  0
 27 19  1  0
 43 31  1  0
M  END
>  <UniqueID>  (8) 
8

>  <SMILES>  (8) 
Cc1ccc(/C=C\C(=O)NCCCCc2ccncc2)cc1

>  <Energy>  (8) 
43.49832107396171

>  <Genealogy>  (8) 
Cc1ccc(/C=C\C(=O)NCCCCc2ccncc2)cc1 (cis-trans isomerization)
Cc1ccc(/C=C\C(=O)NCCCCc2ccncc2)cc1 (3D coordinates assigned)
Cc1ccc(/C=C\C(=O)NCCCCc2ccncc2)cc1 (optimized conformer: 43.49832107396171 kcal/mol)

>  <smiles>  (8) 
Cc1ccc(C=CC(=O)NCCCCc2ccncc2)cc1

>  <score_type>  (8) 
oracle

>  <origin>  (8) 
adg

>  <m_score__min__energy>  (8) 
-8.4600000000000009

>  <m_primary>  (8) 
energy

$$$$
8:0
     RDKit          3D

 46 49  0  0  0  0  0  0  0  0999 V2000
   -9.8570   20.9190  -32.3350 F   0  0  0  0  0  0  0  0  0  0  0  0
   -9.5290   21.9010  -31.4180 C   0  0  0  0  0  0  0  0  0  0  0  0
   -8.5730   22.9120  -32.0450 C   0  0  0  0  0  0  0  0  0  0  0  0
   -7.1790   22.5300  -31.7930 N   0  0  0  0  0  0  0  0  0  0  0  0
   -6.5140   21.4570  -32.2960 C   0  0  0  0  0  0  0  0  0  0  0  0
   -5.2490   21.3620  -31.7370 C   0  0  0  0  0  0  0  0  0  0  0  0
   -5.1230   22.4410  -30.8910 C   0  0  0  0  0  0  0  0  0  0  0  0
   -4.0630   22.8490  -30.0850 C   0  0  0  0  0  0  0  0  0  0  0  0
   -4.2350   24.0040  -29.2860 C   0  0  0  0  0  0  0  0  0  0  0  0
   -3.1350   24.4780  -28.4090 C   0  0  0  0  0  0  0  0  0  0  0  0
   -1.8990   24.8670  -28.9590 C   0  0  0  0  0  0  0  0  0  0  0  0
   -0.8650   25.3160  -28.1320 C   0  0  0  0  0  0  0  0  0  0  0  0
   -1.0530   25.3890  -26.7480 C   0  0  0  0  0  0  0  0  0  0  0  0
    0.2810   25.9540  -25.6870 S   0  0  0  0  0  0  0  0  0  0  0  0
   -0.7520   27.1250  -24.7430 C   0  0  0  0  0  0  0  0  0  0  0  0
   -1.4800   26.4490  -23.7810 F   0  0  0  0  0  0  0  0  0  0  0  0
    0.0680   28.0460  -24.1220 F   0  0  0  0  0  0  0  0  0  0  0  0
   -1.6150   27.7920  -25.5940 F   0  0  0  0  0  0  0  0  0  0  0  0
   -2.2750   24.9960  -26.1910 C   0  0  0  0  0  0  0  0  0  0  0  0
   -3.3110   24.5470  -27.0150 C   0  0  0  0  0  0  0  0  0  0  0  0
   -5.4720   24.7030  -29.3310 C   0  0  0  0  0  0  0  0  0  0  0  0
   -6.5210   24.2650  -30.1570 C   0  0  0  0  0  0  0  0  0  0  0  0
   -6.3140   23.1240  -30.9360 C   0  0  0  0  0  0  0  0  0  0  0  0
   -4.2380   20.3140  -32.0940 C   0  0  0  0  0  0  0  0  0  0  0  0
   -4.9300   19.1080  -32.7530 C   0  0  0  0  0  0  0  0  0  0  0  0
   -5.9430   19.5520  -33.8280 C   0  0  0  0  0  0  0  0  0  0  0  0
   -7.0710   20.4160  -33.2290 C   0  0  0  0  0  0  0  0  0  0  0  0
  -10.4451   22.4184  -31.0969 H   0  0  0  0  0  0  0  0  0  0  0  0
   -9.0379   21.4329  -30.5522 H   0  0  0  0  0  0  0  0  0  0  0  0
   -8.7471   22.9490  -33.1305 H   0  0  0  0  0  0  0  0  0  0  0  0
   -8.7567   23.8993  -31.5961 H   0  0  0  0  0  0  0  0  0  0  0  0
   -3.1169   22.2880  -30.0700 H   0  0  0  0  0  0  0  0  0  0  0  0
   -1.7456   24.8174  -30.0471 H   0  0  0  0  0  0  0  0  0  0  0  0
    0.0990   25.6126  -28.5710 H   0  0  0  0  0  0  0  0  0  0  0  0
   -2.4208   25.0405  -25.1016 H   0  0  0  0  0  0  0  0  0  0  0  0
   -4.2708   24.2454  -26.5702 H   0  0  0  0  0  0  0  0  0  0  0  0
   -5.6101   25.6003  -28.7099 H   0  0  0  0  0  0  0  0  0  0  0  0
   -7.4785   24.8055  -30.1893 H   0  0  0  0  0  0  0  0  0  0  0  0
   -3.5056   20.7402  -32.7954 H   0  0  0  0  0  0  0  0  0  0  0  0
   -3.7306   19.9789  -31.1774 H   0  0  0  0  0  0  0  0  0  0  0  0
   -4.1662   18.4714  -33.2235 H   0  0  0  0  0  0  0  0  0  0  0  0
   -5.4755   18.5561  -31.9733 H   0  0  0  0  0  0  0  0  0  0  0  0
   -5.4148   20.1376  -34.5949 H   0  0  0  0  0  0  0  0  0  0  0  0
   -6.3975   18.6498  -34.2633 H   0  0  0  0  0  0  0  0  0  0  0  0
   -7.6126   20.9169  -34.0449 H   0  0  0  0  0  0  0  0  0  0  0  0
   -7.7494   19.7626  -32.6609 H   0  0  0  0  0  0  0  0  0  0  0  0
  1  2  1  0
  2  3  1  0
  3  4  1  0
  4  5  1  0
  5  6  2  0
  6  7  1  0
  7  8  2  0
  8  9  1  0
  9 10  1  0
 10 11  2  0
 11 12  1  0
 12 13  2  0
 13 14  1  0
 14 15  1  0
 15 16  1  0
 15 17  1  0
 15 18  1  0
 13 19  1  0
 19 20  2  0
  9 21  2  0
 21 22  1  0
 22 23  2  0
  6 24  1  0
 24 25  1  0
 25 26  1  0
 26 27  1  0
 23  4  1  0
 27  5  1  0
 23  7  1  0
 20 10  1  0
  2 28  1  0
  2 29  1  0
  3 30  1  0
  3 31  1  0
  8 32  1  0
 11 33  1  0
 12 34  1  0
 19 35  1  0
 20 36  1  0
 21 37  1  0
 22 38  1  0
 24 39  1  0
 24 40  1  0
 25 41  1  0
 25 42  1  0
 26 43  1  0
 26 44  1  0
 27 45  1  0
 27 46  1  0
M  END
>  <UniqueID>  (9) 
9

>  <SMILES>  (9) 
FCCn1c2c(c3cc(-c4ccc(SC(F)(F)F)cc4)ccc31)CCCC2

>  <Energy>  (9) 
80.94476061112998

>  <Genealogy>  (9) 
FCCn1c2c(c3cc(-c4ccc(SC(F)(F)F)cc4)ccc31)CCCC2 (3D coordinates assigned)
FCCn1c2c(c3cc(-c4ccc(SC(F)(F)F)cc4)ccc31)CCCC2 (nonaromatic ring conformer: 80.94476061112998 kcal/mol)

>  <smiles>  (9) 
FCCn1c2c(c3cc(-c4ccc(SC(F)(F)F)cc4)ccc31)CCCC2

>  <score_type>  (9) 
oracle

>  <origin>  (9) 
adg

>  <m_score__min__energy>  (9) 
-7.8700000000000001

>  <m_primary>  (9) 
energy

$$$$
9:0
     RDKit          3D

 84 87  0  0  0  0  0  0  0  0999 V2000
   -4.1000   24.7150  -26.7580 C   0  0  0  0  0  0  0  0  0  0  0  0
   -2.6480   24.9940  -27.1310 C   0  0  0  0  0  0  0  0  0  0  0  0
   -2.3400   24.4470  -28.4700 N   0  0  0  0  0  0  0  0  0  0  0  0
   -0.9070   24.5440  -28.8000 C   0  0  0  0  0  0  0  0  0  0  0  0
   -2.8880   23.0850  -28.6800 C   0  0  0  0  0  0  0  0  0  0  0  0
   -3.4840   22.8350  -30.0820 C   0  0  0  0  0  0  0  0  0  0  0  0
   -3.5170   24.0750  -30.8680 N   0  0  0  0  0  0  0  0  0  0  0  0
   -4.7750   24.7950  -30.6420 C   0  0  0  0  0  0  0  0  0  0  0  0
   -5.9300   24.0510  -31.3200 C   0  0  0  0  0  0  0  0  0  0  0  0
   -5.4700   23.3740  -32.5420 N   0  0  0  0  0  0  0  0  0  0  0  0
   -5.8450   21.9670  -32.5210 C   0  0  0  0  0  0  0  0  0  0  0  0
   -7.1960   21.5820  -32.3140 C   0  0  0  0  0  0  0  0  0  0  0  0
   -8.1940   22.5290  -31.9720 C   0  0  0  0  0  0  0  0  0  0  0  0
   -9.5310   22.1570  -31.8560 C   0  0  0  0  0  0  0  0  0  0  0  0
   -9.9090   20.8420  -32.0840 C   0  0  0  0  0  0  0  0  0  0  0  0
   -8.9450   19.8810  -32.3790 C   0  0  0  0  0  0  0  0  0  0  0  0
   -7.5660   20.2150  -32.4490 C   0  0  0  0  0  0  0  0  0  0  0  0
   -6.6040   19.2470  -32.6540 N   0  0  0  0  0  0  0  0  0  0  0  0
   -6.9570   17.8150  -32.5070 C   0  0  0  0  0  0  0  0  0  0  0  0
   -5.3020   19.6080  -32.9360 C   0  0  0  0  0  0  0  0  0  0  0  0
   -4.3550   18.6580  -33.3920 C   0  0  0  0  0  0  0  0  0  0  0  0
   -3.0170   18.9950  -33.5610 C   0  0  0  0  0  0  0  0  0  0  0  0
   -2.5710   20.2820  -33.2880 C   0  0  0  0  0  0  0  0  0  0  0  0
   -1.1950   20.5390  -33.4170 O   0  0  0  0  0  0  0  0  0  0  0  0
   -0.1390   19.8080  -32.7930 C   0  0  0  0  0  0  0  0  0  0  0  0
   -0.5250   19.2980  -31.3790 C   0  0  0  0  0  0  0  0  0  0  0  0
   -0.3290   20.2510  -30.2310 N   0  0  0  0  0  0  0  0  0  0  0  0
   -0.2270   21.6040  -30.8490 C   0  0  0  0  0  0  0  0  0  0  0  0
    0.9690   19.9670  -29.5180 C   0  0  0  0  0  0  0  0  0  0  0  0
    1.1670   18.5110  -29.0340 C   0  0  0  0  0  0  0  0  0  0  0  0
    0.5580   18.1800  -27.6490 C   0  0  0  0  0  0  0  0  0  0  0  0
   -0.9310   18.5240  -27.4700 C   0  0  0  0  0  0  0  0  0  0  0  0
   -1.2910   19.9650  -27.8430 C   0  0  0  0  0  0  0  0  0  0  0  0
   -1.5440   20.2260  -29.3470 C   0  0  0  0  0  0  0  0  0  0  0  0
   -3.5010   21.2590  -32.9030 C   0  0  0  0  0  0  0  0  0  0  0  0
   -4.8800   20.9570  -32.7860 C   0  0  0  0  0  0  0  0  0  0  0  0
   -4.2000   24.6958  -25.6627 H   0  0  0  0  0  0  0  0  0  0  0  0
   -4.7432   25.5060  -27.1711 H   0  0  0  0  0  0  0  0  0  0  0  0
   -4.4042   23.7420  -27.1711 H   0  0  0  0  0  0  0  0  0  0  0  0
   -2.4787   26.0809  -27.1369 H   0  0  0  0  0  0  0  0  0  0  0  0
   -1.9928   24.5107  -26.3913 H   0  0  0  0  0  0  0  0  0  0  0  0
   -0.3188   24.5838  -27.8713 H   0  0  0  0  0  0  0  0  0  0  0  0
   -0.6057   23.6642  -29.3875 H   0  0  0  0  0  0  0  0  0  0  0  0
   -0.7270   25.4564  -29.3875 H   0  0  0  0  0  0  0  0  0  0  0  0
   -2.0755   22.3610  -28.5197 H   0  0  0  0  0  0  0  0  0  0  0  0
   -3.7177   22.9721  -27.9667 H   0  0  0  0  0  0  0  0  0  0  0  0
   -2.8668   22.0918  -30.6081 H   0  0  0  0  0  0  0  0  0  0  0  0
   -4.5138   22.4667  -29.9647 H   0  0  0  0  0  0  0  0  0  0  0  0
   -2.7320   24.6850  -30.5410 H   0  0  0  0  0  0  0  0  0  0  0  0
   -4.9683   24.8614  -29.5612 H   0  0  0  0  0  0  0  0  0  0  0  0
   -4.6955   25.8060  -31.0680 H   0  0  0  0  0  0  0  0  0  0  0  0
   -6.3347   23.3020  -30.6234 H   0  0  0  0  0  0  0  0  0  0  0  0
   -6.7072   24.7802  -31.5924 H   0  0  0  0  0  0  0  0  0  0  0  0
   -5.8540   23.8470  -33.3910 H   0  0  0  0  0  0  0  0  0  0  0  0
   -4.4400   23.4910  -32.6590 H   0  0  0  0  0  0  0  0  0  0  0  0
   -7.9072   23.5761  -31.7951 H   0  0  0  0  0  0  0  0  0  0  0  0
  -10.2882   22.9069  -31.5833 H   0  0  0  0  0  0  0  0  0  0  0  0
  -10.9704   20.5581  -32.0318 H   0  0  0  0  0  0  0  0  0  0  0  0
   -9.2578   18.8423  -32.5615 H   0  0  0  0  0  0  0  0  0  0  0  0
   -7.0197   17.5606  -31.4387 H   0  0  0  0  0  0  0  0  0  0  0  0
   -7.9287   17.6258  -32.9866 H   0  0  0  0  0  0  0  0  0  0  0  0
   -6.1846   17.1958  -32.9866 H   0  0  0  0  0  0  0  0  0  0  0  0
   -4.6852   17.6331  -33.6168 H   0  0  0  0  0  0  0  0  0  0  0  0
   -2.3044   18.2352  -33.9144 H   0  0  0  0  0  0  0  0  0  0  0  0
    0.1120   18.9426  -33.4239 H   0  0  0  0  0  0  0  0  0  0  0  0
    0.7181   20.4883  -32.6808 H   0  0  0  0  0  0  0  0  0  0  0  0
   -1.5900   19.0241  -31.4045 H   0  0  0  0  0  0  0  0  0  0  0  0
    0.1641   18.4643  -31.1785 H   0  0  0  0  0  0  0  0  0  0  0  0
   -0.1696   22.3654  -30.0572 H   0  0  0  0  0  0  0  0  0  0  0  0
    0.6775   21.6549  -31.4729 H   0  0  0  0  0  0  0  0  0  0  0  0
   -1.1137   21.7899  -31.4729 H   0  0  0  0  0  0  0  0  0  0  0  0
    1.7921   20.2086  -30.2066 H   0  0  0  0  0  0  0  0  0  0  0  0
    0.9511   20.5844  -28.6078 H   0  0  0  0  0  0  0  0  0  0  0  0
    0.7062   17.8418  -29.7755 H   0  0  0  0  0  0  0  0  0  0  0  0
    2.2531   18.3735  -28.9269 H   0  0  0  0  0  0  0  0  0  0  0  0
    0.6773   17.1000  -27.4778 H   0  0  0  0  0  0  0  0  0  0  0  0
    1.0981   18.8111  -26.9279 H   0  0  0  0  0  0  0  0  0  0  0  0
   -1.5205   17.8458  -28.1044 H   0  0  0  0  0  0  0  0  0  0  0  0
   -1.1558   18.4088  -26.3994 H   0  0  0  0  0  0  0  0  0  0  0  0
   -2.2045   20.2379  -27.2944 H   0  0  0  0  0  0  0  0  0  0  0  0
   -0.4128   20.5717  -27.5772 H   0  0  0  0  0  0  0  0  0  0  0  0
   -2.2117   19.4341  -29.7171 H   0  0  0  0  0  0  0  0  0  0  0  0
   -1.9682   21.2394  -29.4020 H   0  0  0  0  0  0  0  0  0  0  0  0
   -3.1525   22.2799  -32.6877 H   0  0  0  0  0  0  0  0  0  0  0  0
  1  2  1  0
  2  3  1  0
  3  4  1  0
  3  5  1  0
  5  6  1  0
  6  7  1  0
  7  8  1  0
  8  9  1  0
  9 10  1  0
 10 11  1  0
 11 12  2  0
 12 13  1  0
 13 14  2  0
 14 15  1  0
 15 16  2  0
 16 17  1  0
 17 18  2  0
 18 19  1  0
 18 20  1  0
 20 21  2  0
 21 22  1  0
 22 23  2  0
 23 24  1  0
 24 25  1  0
 25 26  1  0
 26 27  1  0
 27 28  1  0
 27 29  1  0
 29 30  1  0
 30 31  1  0
 31 32  1  0
 32 33  1  0
 33 34  1  0
 23 35  1  0
 35 36  2  0
 36 11  1  0
 17 12  1  0
 36 20  1  0
 34 27  1  0
  1 37  1  0
  1 38  1  0
  1 39  1  0
  2 40  1  0
  2 41  1  0
  4 42  1  0
  4 43  1  0
  4 44  1  0
  5 45  1  0
  5 46  1  0
  6 47  1  0
  6 48  1  0
  7 49  1  0
  8 50  1  0
  8 51  1  0
  9 52  1  0
  9 53  1  0
 10 54  1  0
 10 55  1  0
 13 56  1  0
 14 57  1  0
 15 58  1  0
 16 59  1  0
 19 60  1  0
 19 61  1  0
 19 62  1  0
 21 63  1  0
 22 64  1  0
 25 65  1  0
 25 66  1  0
 26 67  1  0
 26 68  1  0
 28 69  1  0
 28 70  1  0
 28 71  1  0
 29 72  1  0
 29 73  1  0
 30 74  1  0
 30 75  1  0
 31 76  1  0
 31 77  1  0
 32 78  1  0
 32 79  1  0
 33 80  1  0
 33 81  1  0
 34 82  1  0
 34 83  1  0
 35 84  1  0
M  CHG  3  10   1  18   1  27   1
M  END
>  <UniqueID>  (10) 
10

>  <SMILES>  (10) 
CCN(C)CCNCC[NH2+]c1c2ccccc2[n+](C)c2ccc(OCC[N+]3(C)CCCCCC3)cc12

>  <Energy>  (10) 
137.63729507240748

>  <Genealogy>  (10) 
CCN(C)CCNCC[NH2+]c1c2ccccc2[n+](C)c2ccc(OCC[N+]3(C)CCCCCC3)cc12 (protonated)
CCN(C)CCNCC[NH2+]c1c2ccccc2[n+](C)c2ccc(OCC[N+]3(C)CCCCCC3)cc12 (3D coordinates assigned)
CCN(C)CCNCC[NH2+]c1c2ccccc2[n+](C)c2ccc(OCC[N+]3(C)CCCCCC3)cc12 (nonaromatic ring conformer: 137.63729507240748 kcal/mol)

>  <smiles>  (10) 
CCN(C)CCNCCNc1c2ccccc2[n+](C)c2ccc(OCC[N+]3(C)CCCCCC3)cc12

>  <score_type>  (10) 
oracle

>  <origin>  (10) 
adg

>  <m_score__min__energy>  (10) 
-6.0499999999999998

>  <m_primary>  (10) 
energy

$$$$
10:0
     RDKit          3D

 51 53  0  0  0  0  0  0  0  0999 V2000
    2.5020   22.1790  -35.3470 C   0  0  0  0  0  0  0  0  0  0  0  0
    1.0700   22.4710  -35.1810 N   0  0  0  0  0  0  0  0  0  0  0  0
    0.6410   23.5390  -36.0980 C   0  0  0  0  0  0  0  0  0  0  0  0
    0.2250   21.2600  -35.2790 C   0  0  0  0  0  0  0  0  0  0  0  0
   -0.3990   20.8370  -33.9640 C   0  0  0  0  0  0  0  0  0  0  0  0
    0.1220   19.7490  -33.2460 C   0  0  0  0  0  0  0  0  0  0  0  0
   -0.4620   19.3570  -32.0390 C   0  0  0  0  0  0  0  0  0  0  0  0
   -1.5570   20.0590  -31.5290 C   0  0  0  0  0  0  0  0  0  0  0  0
   -2.0630   21.1700  -32.2120 C   0  0  0  0  0  0  0  0  0  0  0  0
   -3.2080   21.8490  -31.6830 N   0  0  0  0  0  0  0  0  0  0  0  0
   -4.5020   21.2790  -31.4390 C   0  0  0  0  0  0  0  0  0  0  0  0
   -4.6500   20.0380  -31.5990 O   0  0  0  0  0  0  0  0  0  0  0  0
   -5.6290   22.0930  -30.8450 C   0  0  2  0  0  0  0  0  0  0  0  0
   -6.8640   21.8870  -31.6550 C   0  0  0  0  0  0  0  0  0  0  0  0
   -7.2700   23.0210  -32.2110 C   0  0  0  0  0  0  0  0  0  0  0  0
   -6.3760   24.1500  -31.8380 C   0  0  0  0  0  0  0  0  0  0  0  0
   -5.3830   23.5310  -30.9680 N   0  0  0  0  0  0  0  0  0  0  0  0
   -4.4370   24.2970  -30.1970 C   0  0  0  0  0  0  0  0  0  0  0  0
   -3.8630   25.2860  -30.7330 O   0  0  0  0  0  0  0  0  0  0  0  0
   -4.1750   24.0010  -28.7430 C   0  0  0  0  0  0  0  0  0  0  0  0
   -3.0860   22.9750  -28.5790 C   0  0  0  0  0  0  0  0  0  0  0  0
   -1.8140   23.1900  -29.1360 C   0  0  0  0  0  0  0  0  0  0  0  0
   -0.8120   22.2270  -28.9910 C   0  0  0  0  0  0  0  0  0  0  0  0
   -1.0690   21.0370  -28.3010 C   0  0  0  0  0  0  0  0  0  0  0  0
    0.2180   19.8510  -28.1390 Cl  0  0  0  0  0  0  0  0  0  0  0  0
   -2.3430   20.8090  -27.7540 C   0  0  0  0  0  0  0  0  0  0  0  0
   -2.7110   19.3240  -26.8880 Cl  0  0  0  0  0  0  0  0  0  0  0  0
   -3.3450   21.7760  -27.8970 C   0  0  0  0  0  0  0  0  0  0  0  0
   -1.5010   21.5360  -33.4460 C   0  0  0  0  0  0  0  0  0  0  0  0
    2.9737   22.0828  -34.3579 H   0  0  0  0  0  0  0  0  0  0  0  0
    2.6222   21.2379  -35.9036 H   0  0  0  0  0  0  0  0  0  0  0  0
    2.9811   22.9979  -35.9036 H   0  0  0  0  0  0  0  0  0  0  0  0
    0.2932   24.4048  -35.5154 H   0  0  0  0  0  0  0  0  0  0  0  0
    1.4880   23.8400  -36.7320 H   0  0  0  0  0  0  0  0  0  0  0  0
   -0.1789   23.1705  -36.7320 H   0  0  0  0  0  0  0  0  0  0  0  0
   -0.5837   21.4594  -35.9975 H   0  0  0  0  0  0  0  0  0  0  0  0
    0.8820   20.4379  -35.5991 H   0  0  0  0  0  0  0  0  0  0  0  0
    0.9938   19.2028  -33.6354 H   0  0  0  0  0  0  0  0  0  0  0  0
   -0.0589   18.4939  -31.4890 H   0  0  0  0  0  0  0  0  0  0  0  0
   -2.0233   19.7367  -30.5863 H   0  0  0  0  0  0  0  0  0  0  0  0
   -5.7168   21.7783  -29.7946 H   0  0  0  0  0  0  0  0  0  0  0  0
   -7.3729   20.9193  -31.7759 H   0  0  0  0  0  0  0  0  0  0  0  0
   -8.1517   23.1142  -32.8621 H   0  0  0  0  0  0  0  0  0  0  0  0
   -5.9002   24.5847  -32.7294 H   0  0  0  0  0  0  0  0  0  0  0  0
   -6.9137   24.9768  -31.3509 H   0  0  0  0  0  0  0  0  0  0  0  0
   -3.8708   24.9296  -28.2379 H   0  0  0  0  0  0  0  0  0  0  0  0
   -5.0983   23.5998  -28.2995 H   0  0  0  0  0  0  0  0  0  0  0  0
   -1.6065   24.1188  -29.6876 H   0  0  0  0  0  0  0  0  0  0  0  0
    0.1844   22.4053  -29.4216 H   0  0  0  0  0  0  0  0  0  0  0  0
   -4.3431   21.5948  -27.4716 H   0  0  0  0  0  0  0  0  0  0  0  0
   -1.9278   22.3775  -34.0115 H   0  0  0  0  0  0  0  0  0  0  0  0
  1  2  1  0
  2  3  1  0
  2  4  1  0
  4  5  1  0
  5  6  2  0
  6  7  1  0
  7  8  2  0
  8  9  1  0
  9 10  1  0
 10 11  1  0
 11 12  2  0
 11 13  1  0
 13 14  1  0
 14 15  2  0
 15 16  1  0
 16 17  1  0
 17 18  1  0
 18 19  2  0
 18 20  1  0
 20 21  1  0
 21 22  2  0
 22 23  1  0
 23 24  2  0
 24 25  1  0
 24 26  1  0
 26 27  1  0
 26 28  2  0
  9 29  2  0
 29  5  1  0
 17 13  1  0
 28 21  1  0
  1 30  1  0
  1 31  1  0
  1 32  1  0
  3 33  1  0
  3 34  1  0
  3 35  1  0
  4 36  1  0
  4 37  1  0
  6 38  1  0
  7 39  1  0
  8 40  1  0
 13 41  1  1
 14 42  1  0
 15 43  1  0
 16 44  1  0
 16 45  1  0
 20 46  1  0
 20 47  1  0
 22 48  1  0
 23 49  1  0
 28 50  1  0
 29 51  1  0
M  CHG  1  10  -1
M  END
>  <UniqueID>  (11) 
11

>  <SMILES>  (11) 
CN(C)Cc1cccc([N-]C(=O)[C@@H]2C=CCN2C(=O)Cc2ccc(Cl)c(Cl)c2)c1

>  <Energy>  (11) 
65.06126639853787

>  <Genealogy>  (11) 
CN(C)Cc1cccc([N-]C(=O)C2C=CCN2C(=O)Cc2ccc(Cl)c(Cl)c2)c1 (protonated)
CN(C)Cc1cccc([N-]C(=O)[C@@H]2C=CCN2C(=O)Cc2ccc(Cl)c(Cl)c2)c1 (chirality)
CN(C)Cc1cccc([N-]C(=O)[C@@H]2C=CCN2C(=O)Cc2ccc(Cl)c(Cl)c2)c1 (3D coordinates assigned)
CN(C)Cc1cccc([N-]C(=O)[C@@H]2C=CCN2C(=O)Cc2ccc(Cl)c(Cl)c2)c1 (nonaromatic ring conformer: 65.06126639853787 kcal/mol)

>  <smiles>  (11) 
CN(C)Cc1cccc(NC(=O)C2C=CCN2C(=O)Cc2ccc(Cl)c(Cl)c2)c1

>  <score_type>  (11) 
oracle

>  <origin>  (11) 
adg

>  <m_score__min__energy>  (11) 
-11.289999999999999

>  <m_primary>  (11) 
energy

$$$$
11:0
     RDKit          3D

 57 59  0  0  0  0  0  0  0  0999 V2000
   -5.7320   17.8080  -34.9660 C   0  0  0  0  0  0  0  0  0  0  0  0
   -4.3460   17.3150  -34.5460 C   0  0  0  0  0  0  0  0  0  0  0  0
   -3.6440   18.2770  -33.6530 N   0  0  0  0  0  0  0  0  0  0  0  0
   -2.1800   18.2920  -33.9380 C   0  0  0  0  0  0  0  0  0  0  0  0
   -1.3700   17.6160  -32.8250 C   0  0  0  0  0  0  0  0  0  0  0  0
   -4.2120   19.6400  -33.8390 C   0  0  0  0  0  0  0  0  0  0  0  0
   -3.2540   20.7530  -33.3380 C   0  0  0  0  0  0  0  0  0  0  0  0
   -3.1870   20.8310  -31.8060 C   0  0  0  0  0  0  0  0  0  0  0  0
   -4.4090   20.3150  -31.1850 N   0  0  0  0  0  0  0  0  0  0  0  0
   -5.6380   21.0460  -31.3000 C   0  0  0  0  0  0  0  0  0  0  0  0
   -5.6580   22.4100  -30.9620 C   0  0  0  0  0  0  0  0  0  0  0  0
   -4.5190   23.0330  -30.4040 C   0  0  0  0  0  0  0  0  0  0  0  0
   -4.5510   24.3740  -30.0340 C   0  0  0  0  0  0  0  0  0  0  0  0
   -5.7180   25.1110  -30.1930 C   0  0  0  0  0  0  0  0  0  0  0  0
   -6.8530   24.5180  -30.7440 C   0  0  0  0  0  0  0  0  0  0  0  0
   -6.8380   23.1640  -31.1720 C   0  0  0  0  0  0  0  0  0  0  0  0
   -7.9380   22.5780  -31.7640 N   0  0  0  0  0  0  0  0  0  0  0  0
   -9.0460   23.4230  -32.2640 C   0  0  0  0  0  0  0  0  0  0  0  0
   -7.9950   21.2040  -31.9110 C   0  0  0  0  0  0  0  0  0  0  0  0
   -9.2070   20.5540  -32.2430 C   0  0  0  0  0  0  0  0  0  0  0  0
   -9.2540   19.1830  -32.4560 C   0  0  0  0  0  0  0  0  0  0  0  0
   -8.1090   18.4140  -32.3300 C   0  0  0  0  0  0  0  0  0  0  0  0
   -6.8910   19.0000  -31.9490 C   0  0  0  0  0  0  0  0  0  0  0  0
   -5.7440   18.2050  -31.7860 O   0  0  0  0  0  0  0  0  0  0  0  0
   -5.7430   16.8020  -31.5370 C   0  0  0  0  0  0  0  0  0  0  0  0
   -6.8280   20.4070  -31.7190 C   0  0  0  0  0  0  0  0  0  0  0  0
   -6.3324   18.0216  -34.0694 H   0  0  0  0  0  0  0  0  0  0  0  0
   -5.6291   18.7247  -35.5653 H   0  0  0  0  0  0  0  0  0  0  0  0
   -6.2311   17.0322  -35.5653 H   0  0  0  0  0  0  0  0  0  0  0  0
   -4.4581   16.3583  -34.0149 H   0  0  0  0  0  0  0  0  0  0  0  0
   -3.7410   17.2036  -35.4579 H   0  0  0  0  0  0  0  0  0  0  0  0
   -3.7940   17.9870  -32.6560 H   0  0  0  0  0  0  0  0  0  0  0  0
   -1.9970   17.7601  -34.8833 H   0  0  0  0  0  0  0  0  0  0  0  0
   -1.8576   19.3417  -34.0026 H   0  0  0  0  0  0  0  0  0  0  0  0
   -1.7542   17.9366  -31.8454 H   0  0  0  0  0  0  0  0  0  0  0  0
   -1.4629   16.5237  -32.9156 H   0  0  0  0  0  0  0  0  0  0  0  0
   -0.3119   17.9028  -32.9156 H   0  0  0  0  0  0  0  0  0  0  0  0
   -4.4079   19.7980  -34.9098 H   0  0  0  0  0  0  0  0  0  0  0  0
   -5.1369   19.7018  -33.2468 H   0  0  0  0  0  0  0  0  0  0  0  0
   -2.2446   20.5489  -33.7246 H   0  0  0  0  0  0  0  0  0  0  0  0
   -3.6423   21.7152  -33.7033 H   0  0  0  0  0  0  0  0  0  0  0  0
   -2.3303   20.2366  -31.4556 H   0  0  0  0  0  0  0  0  0  0  0  0
   -3.0760   21.8874  -31.5202 H   0  0  0  0  0  0  0  0  0  0  0  0
   -4.4170   19.3940  -30.6920 H   0  0  0  0  0  0  0  0  0  0  0  0
   -3.5965   22.4512  -30.2605 H   0  0  0  0  0  0  0  0  0  0  0  0
   -3.6523   24.8506  -29.6156 H   0  0  0  0  0  0  0  0  0  0  0  0
   -5.7465   26.1660  -29.8831 H   0  0  0  0  0  0  0  0  0  0  0  0
   -7.7751   25.1085  -30.8489 H   0  0  0  0  0  0  0  0  0  0  0  0
   -9.5989   23.8447  -31.4117 H   0  0  0  0  0  0  0  0  0  0  0  0
   -8.6365   24.2402  -32.8759 H   0  0  0  0  0  0  0  0  0  0  0  0
   -9.7258   22.8119  -32.8759 H   0  0  0  0  0  0  0  0  0  0  0  0
  -10.1295   21.1462  -32.3341 H   0  0  0  0  0  0  0  0  0  0  0  0
  -10.2067   18.7043  -32.7266 H   0  0  0  0  0  0  0  0  0  0  0  0
   -8.1541   17.3333  -32.5304 H   0  0  0  0  0  0  0  0  0  0  0  0
   -5.7429   16.6222  -30.4518 H   0  0  0  0  0  0  0  0  0  0  0  0
   -6.6408   16.3497  -31.9835 H   0  0  0  0  0  0  0  0  0  0  0  0
   -4.8445   16.3510  -31.9835 H   0  0  0  0  0  0  0  0  0  0  0  0
  1  2  1  0
  2  3  1  0
  3  4  1  0
  4  5  1  0
  3  6  1  0
  6  7  1  0
  7  8  1  0
  8  9  1  0
  9 10  1  0
 10 11  2  0
 11 12  1  0
 12 13  2  0
 13 14  1  0
 14 15  2  0
 15 16  1  0
 16 17  2  0
 17 18  1  0
 17 19  1  0
 19 20  2  0
 20 21  1  0
 21 22  2  0
 22 23  1  0
 23 24  1  0
 24 25  1  0
 23 26  2  0
 26 10  1  0
 16 11  1  0
 26 19  1  0
  1 27  1  0
  1 28  1  0
  1 29  1  0
  2 30  1  0
  2 31  1  0
  3 32  1  0
  4 33  1  0
  4 34  1  0
  5 35  1  0
  5 36  1  0
  5 37  1  0
  6 38  1  0
  6 39  1  0
  7 40  1  0
  7 41  1  0
  8 42  1  0
  8 43  1  0
  9 44  1  0
 12 45  1  0
 13 46  1  0
 14 47  1  0
 15 48  1  0
 18 49  1  0
 18 50  1  0
 18 51  1  0
 20 52  1  0
 21 53  1  0
 22 54  1  0
 25 55  1  0
 25 56  1  0
 25 57  1  0
M  CHG  2   3   1  17   1
M  END
>  <UniqueID>  (12) 
12

>  <SMILES>  (12) 
CC[NH+](CC)CCCNc1c2ccccc2[n+](C)c2cccc(OC)c12

>  <Energy>  (12) 
88.28333360422744

>  <Genealogy>  (12) 
CC[NH+](CC)CCCNc1c2ccccc2[n+](C)c2cccc(OC)c12 (protonated)
CC[NH+](CC)CCCNc1c2ccccc2[n+](C)c2cccc(OC)c12 (3D coordinates assigned)
CC[NH+](CC)CCCNc1c2ccccc2[n+](C)c2cccc(OC)c12 (optimized conformer: 88.28333360422744 kcal/mol)

>  <smiles>  (12) 
CCN(CC)CCCNc1c2ccccc2[n+](C)c2cccc(OC)c12

>  <score_type>  (12) 
oracle

>  <origin>  (12) 
adg

>  <m_score__min__energy>  (12) 
-6.71

>  <m_primary>  (12) 
energy

$$$$
12:0
     RDKit          3D

 52 54  0  0  0  0  0  0  0  0999 V2000
   -0.5760   22.6500  -25.4940 C   0  0  0  0  0  0  0  0  0  0  0  0
   -0.9440   23.6640  -26.5360 C   0  0  0  0  0  0  0  0  0  0  0  0
   -0.6240   25.0180  -26.3460 C   0  0  0  0  0  0  0  0  0  0  0  0
   -0.9330   25.9660  -27.3340 C   0  0  0  0  0  0  0  0  0  0  0  0
   -0.5510   27.4050  -27.1430 C   0  0  0  0  0  0  0  0  0  0  0  0
   -1.5300   25.5470  -28.5320 C   0  0  0  0  0  0  0  0  0  0  0  0
   -1.8530   24.1970  -28.7320 C   0  0  0  0  0  0  0  0  0  0  0  0
   -2.4570   23.7450  -30.0320 C   0  0  0  0  0  0  0  0  0  0  0  0
   -3.4850   24.7070  -30.4490 N   0  0  0  0  0  0  0  0  0  0  0  0
   -4.7850   24.5620  -29.7590 C   0  0  2  0  0  0  0  0  0  0  0  0
   -5.1530   23.0950  -29.4180 C   0  0  0  0  0  0  0  0  0  0  0  0
   -6.0040   22.3670  -30.4860 C   0  0  0  0  0  0  0  0  0  0  0  0
   -6.9700   23.2310  -31.2280 N   0  0  1  0  0  0  0  0  0  0  0  0
   -8.2430   22.5010  -31.4470 C   0  0  0  0  0  0  0  0  0  0  0  0
   -8.0190   21.0750  -31.8970 C   0  0  0  0  0  0  0  0  0  0  0  0
   -7.0720   20.7800  -32.8920 C   0  0  0  0  0  0  0  0  0  0  0  0
   -6.8600   19.4570  -33.2930 C   0  0  0  0  0  0  0  0  0  0  0  0
   -7.5890   18.4210  -32.7030 C   0  0  0  0  0  0  0  0  0  0  0  0
   -8.5310   18.7060  -31.7120 C   0  0  0  0  0  0  0  0  0  0  0  0
   -8.7480   20.0270  -31.3090 C   0  0  0  0  0  0  0  0  0  0  0  0
   -7.2080   24.5280  -30.5590 C   0  0  0  0  0  0  0  0  0  0  0  0
   -5.9090   25.3360  -30.4850 C   0  0  0  0  0  0  0  0  0  0  0  0
   -1.5420   23.2570  -27.7370 C   0  0  0  0  0  0  0  0  0  0  0  0
   -0.7318   23.0794  -24.4933 H   0  0  0  0  0  0  0  0  0  0  0  0
   -1.2074   21.7570  -25.6122 H   0  0  0  0  0  0  0  0  0  0  0  0
    0.4811   22.3698  -25.6122 H   0  0  0  0  0  0  0  0  0  0  0  0
   -0.1283   25.3376  -25.4175 H   0  0  0  0  0  0  0  0  0  0  0  0
   -0.4915   27.6290  -26.0677 H   0  0  0  0  0  0  0  0  0  0  0  0
    0.4273   27.5898  -27.6107 H   0  0  0  0  0  0  0  0  0  0  0  0
   -1.3088   28.0507  -27.6107 H   0  0  0  0  0  0  0  0  0  0  0  0
   -1.7465   26.2827  -29.3206 H   0  0  0  0  0  0  0  0  0  0  0  0
   -1.6730   23.6881  -30.8015 H   0  0  0  0  0  0  0  0  0  0  0  0
   -2.9122   22.7521  -29.9017 H   0  0  0  0  0  0  0  0  0  0  0  0
   -3.1200   25.6720  -30.2690 H   0  0  0  0  0  0  0  0  0  0  0  0
   -4.6676   25.0393  -28.7749 H   0  0  0  0  0  0  0  0  0  0  0  0
   -4.2179   22.5311  -29.2848 H   0  0  0  0  0  0  0  0  0  0  0  0
   -5.7718   23.1374  -28.5096 H   0  0  0  0  0  0  0  0  0  0  0  0
   -5.3180   21.9170  -31.2187 H   0  0  0  0  0  0  0  0  0  0  0  0
   -6.6113   21.6293  -29.9409 H   0  0  0  0  0  0  0  0  0  0  0  0
   -6.5540   23.4280  -32.1700 H   0  0  0  0  0  0  0  0  0  0  0  0
   -8.8102   22.4892  -30.5046 H   0  0  0  0  0  0  0  0  0  0  0  0
   -8.7956   23.0213  -32.2432 H   0  0  0  0  0  0  0  0  0  0  0  0
   -6.4951   21.5927  -33.3574 H   0  0  0  0  0  0  0  0  0  0  0  0
   -6.1186   19.2317  -34.0737 H   0  0  0  0  0  0  0  0  0  0  0  0
   -7.4209   17.3809  -33.0191 H   0  0  0  0  0  0  0  0  0  0  0  0
   -9.1033   17.8894  -31.2476 H   0  0  0  0  0  0  0  0  0  0  0  0
   -9.4918   20.2469  -30.5290 H   0  0  0  0  0  0  0  0  0  0  0  0
   -7.9573   25.0975  -31.1283 H   0  0  0  0  0  0  0  0  0  0  0  0
   -7.5714   24.3416  -29.5376 H   0  0  0  0  0  0  0  0  0  0  0  0
   -5.5767   25.5683  -31.5076 H   0  0  0  0  0  0  0  0  0  0  0  0
   -6.1124   26.2539  -29.9140 H   0  0  0  0  0  0  0  0  0  0  0  0
   -1.7691   22.1932  -27.9008 H   0  0  0  0  0  0  0  0  0  0  0  0
  1  2  1  0
  2  3  2  0
  3  4  1  0
  4  5  1  0
  4  6  2  0
  6  7  1  0
  7  8  1  0
  8  9  1  0
  9 10  1  0
 10 11  1  0
 11 12  1  0
 12 13  1  0
 13 14  1  0
 14 15  1  0
 15 16  2  0
 16 17  1  0
 17 18  2  0
 18 19  1  0
 19 20  2  0
 13 21  1  0
 21 22  1  0
  7 23  2  0
 23  2  1  0
 22 10  1  0
 20 15  1  0
  1 24  1  0
  1 25  1  0
  1 26  1  0
  3 27  1  0
  5 28  1  0
  5 29  1  0
  5 30  1  0
  6 31  1  0
  8 32  1  0
  8 33  1  0
  9 34  1  0
 10 35  1  1
 11 36  1  0
 11 37  1  0
 12 38  1  0
 12 39  1  0
 13 40  1  6
 14 41  1  0
 14 42  1  0
 16 43  1  0
 17 44  1  0
 18 45  1  0
 19 46  1  0
 20 47  1  0
 21 48  1  0
 21 49  1  0
 22 50  1  0
 22 51  1  0
 23 52  1  0
M  CHG  1  13   1
M  END
>  <UniqueID>  (13) 
13

>  <SMILES>  (13) 
Cc1cc(C)cc(CNC2CC[NH+](Cc3ccccc3)CC2)c1

>  <Energy>  (13) 
64.68743064895186

>  <Genealogy>  (13) 
Cc1cc(C)cc(CNC2CC[NH+](Cc3ccccc3)CC2)c1 (protonated)
Cc1cc(C)cc(CNC2CC[NH+](Cc3ccccc3)CC2)c1 (3D coordinates assigned)
Cc1cc(C)cc(CNC2CC[NH+](Cc3ccccc3)CC2)c1 (nonaromatic ring conformer: 64.68743064895186 kcal/mol)

>  <smiles>  (13) 
Cc1cc(C)cc(CNC2CCN(Cc3ccccc3)CC2)c1

>  <score_type>  (13) 
oracle

>  <origin>  (13) 
adg

>  <m_score__min__energy>  (13) 
-8.0999999999999996

>  <m_primary>  (13) 
energy

$$$$
13:0
     RDKit          3D

 59 60  0  0  0  0  0  0  0  0999 V2000
   -5.8030   16.3490  -33.4490 C   0  0  0  0  0  0  0  0  0  0  0  0
   -5.7680   17.0660  -32.0960 C   0  0  0  0  0  0  0  0  0  0  0  0
   -6.6490   18.2440  -32.0640 N   0  0  0  0  0  0  0  0  0  0  0  0
   -7.9820   17.9950  -32.6490 C   0  0  0  0  0  0  0  0  0  0  0  0
   -9.1050   18.6420  -31.8250 C   0  0  0  0  0  0  0  0  0  0  0  0
   -8.5810   19.7000  -31.0480 O   0  0  0  0  0  0  0  0  0  0  0  0
   -8.5880   20.9090  -31.7840 C   0  0  0  0  0  0  0  0  0  0  0  0
   -7.4030   21.7930  -31.3700 C   0  0  0  0  0  0  0  0  0  0  0  0
   -6.0720   21.3110  -32.0010 C   0  0  0  0  0  0  0  0  0  0  0  0
   -5.0230   22.4310  -32.1460 C   0  0  0  0  0  0  0  0  0  0  0  0
   -5.2530   23.5120  -31.1790 N   0  0  0  0  0  0  0  0  0  0  0  0
   -4.1480   24.0970  -30.4730 C   0  0  0  0  0  0  0  0  0  0  0  0
   -3.8790   25.3160  -30.6530 O   0  0  0  0  0  0  0  0  0  0  0  0
   -3.3410   23.2890  -29.5260 C   0  0  0  0  0  0  0  0  0  0  0  0
   -3.0750   22.0120  -29.7030 C   0  0  0  0  0  0  0  0  0  0  0  0
   -2.2830   21.4660  -28.5720 C   0  0  0  0  0  0  0  0  0  0  0  0
   -3.1060   20.3920  -27.8360 C   0  0  0  0  0  0  0  0  0  0  0  0
   -0.9710   20.8730  -29.0910 C   0  0  0  0  0  0  0  0  0  0  0  0
   -1.9880   22.6160  -27.7020 N   0  0  0  0  0  0  0  0  0  0  0  0
   -2.7530   23.7650  -28.2290 C   0  0  0  0  0  0  0  0  0  0  0  0
   -3.8660   24.1860  -27.2450 C   0  0  0  0  0  0  0  0  0  0  0  0
   -1.7830   24.9300  -28.4630 C   0  0  0  0  0  0  0  0  0  0  0  0
   -6.5720   24.1510  -31.0830 C   0  0  0  0  0  0  0  0  0  0  0  0
   -7.6690   23.2740  -31.6960 C   0  0  0  0  0  0  0  0  0  0  0  0
   -5.8560   15.2623  -33.2868 H   0  0  0  0  0  0  0  0  0  0  0  0
   -6.6861   16.6787  -34.0159 H   0  0  0  0  0  0  0  0  0  0  0  0
   -4.8920   16.5911  -34.0159 H   0  0  0  0  0  0  0  0  0  0  0  0
   -6.0903   16.3622  -31.3145 H   0  0  0  0  0  0  0  0  0  0  0  0
   -4.7379   17.4122  -31.9257 H   0  0  0  0  0  0  0  0  0  0  0  0
   -6.7140   18.6140  -31.0850 H   0  0  0  0  0  0  0  0  0  0  0  0
   -8.0054   18.4098  -33.6675 H   0  0  0  0  0  0  0  0  0  0  0  0
   -8.1508   16.9080  -32.6565 H   0  0  0  0  0  0  0  0  0  0  0  0
   -9.8761   19.0349  -32.5040 H   0  0  0  0  0  0  0  0  0  0  0  0
   -9.5474   17.8869  -31.1586 H   0  0  0  0  0  0  0  0  0  0  0  0
   -8.5125   20.6806  -32.8574 H   0  0  0  0  0  0  0  0  0  0  0  0
   -9.5247   21.4475  -31.5777 H   0  0  0  0  0  0  0  0  0  0  0  0
   -7.2976   21.7007  -30.2790 H   0  0  0  0  0  0  0  0  0  0  0  0
   -5.6509   20.5190  -31.3643 H   0  0  0  0  0  0  0  0  0  0  0  0
   -6.3044   20.9503  -33.0139 H   0  0  0  0  0  0  0  0  0  0  0  0
   -4.0220   22.0073  -31.9771 H   0  0  0  0  0  0  0  0  0  0  0  0
   -5.1044   22.8512  -33.1593 H   0  0  0  0  0  0  0  0  0  0  0  0
   -3.3977   21.4254  -30.5758 H   0  0  0  0  0  0  0  0  0  0  0  0
   -3.0005   20.5297  -26.7498 H   0  0  0  0  0  0  0  0  0  0  0  0
   -4.1655   20.4860  -28.1163 H   0  0  0  0  0  0  0  0  0  0  0  0
   -2.7397   19.3934  -28.1163 H   0  0  0  0  0  0  0  0  0  0  0  0
   -0.3362   20.5861  -28.2397 H   0  0  0  0  0  0  0  0  0  0  0  0
   -1.1868   19.9849  -29.7032 H   0  0  0  0  0  0  0  0  0  0  0  0
   -0.4470   21.6218  -29.7032 H   0  0  0  0  0  0  0  0  0  0  0  0
   -2.2200   22.4140  -26.6990 H   0  0  0  0  0  0  0  0  0  0  0  0
   -3.5121   24.0521  -26.2121 H   0  0  0  0  0  0  0  0  0  0  0  0
   -4.1216   25.2429  -27.4110 H   0  0  0  0  0  0  0  0  0  0  0  0
   -4.7571   23.5628  -27.4110 H   0  0  0  0  0  0  0  0  0  0  0  0
   -1.4499   25.3301  -27.4940 H   0  0  0  0  0  0  0  0  0  0  0  0
   -0.9115   24.5730  -29.0314 H   0  0  0  0  0  0  0  0  0  0  0  0
   -2.2920   25.7224  -29.0314 H   0  0  0  0  0  0  0  0  0  0  0  0
   -6.8068   24.3278  -30.0230 H   0  0  0  0  0  0  0  0  0  0  0  0
   -6.5369   25.0985  -31.6406 H   0  0  0  0  0  0  0  0  0  0  0  0
   -8.6446   23.5686  -31.2820 H   0  0  0  0  0  0  0  0  0  0  0  0
   -7.6709   23.4086  -32.7877 H   0  0  0  0  0  0  0  0  0  0  0  0
  1  2  1  0
  2  3  1  0
  3  4  1  0
  4  5  1  0
  5  6  1  0
  6  7  1  0
  7  8  1  0
  8  9  1  0
  9 10  1  0
 10 11  1  0
 11 12  1  0
 12 13  2  0
 12 14  1  0
 14 15  2  0
 15 16  1  0
 16 17  1  0
 16 18  1  0
 16 19  1  0
 19 20  1  0
 20 21  1  0
 20 22  1  0
 11 23  1  0
 23 24  1  0
 24  8  1  0
 20 14  1  0
  1 25  1  0
  1 26  1  0
  1 27  1  0
  2 28  1  0
  2 29  1  0
  3 30  1  0
  4 31  1  0
  4 32  1  0
  5 33  1  0
  5 34  1  0
  7 35  1  0
  7 36  1  0
  8 37  1  0
  9 38  1  0
  9 39  1  0
 10 40  1  0
 10 41  1  0
 15 42  1  0
 17 43  1  0
 17 44  1  0
 17 45  1  0
 18 46  1  0
 18 47  1  0
 18 48  1  0
 19 49  1  0
 21 50  1  0
 21 51  1  0
 21 52  1  0
 22 53  1  0
 22 54  1  0
 22 55  1  0
 23 56  1  0
 23 57  1  0
 24 58  1  0
 24 59  1  0
M  END
>  <UniqueID>  (14) 
14

>  <SMILES>  (14) 
CCNCCOCC1CCN(C(=O)C2=CC(C)(C)NC2(C)C)CC1

>  <Energy>  (14) 
60.53263176885798

>  <Genealogy>  (14) 
CCNCCOCC1CCN(C(=O)C2=CC(C)(C)NC2(C)C)CC1 (3D coordinates assigned)
CCNCCOCC1CCN(C(=O)C2=CC(C)(C)NC2(C)C)CC1 (nonaromatic ring conformer: 60.53263176885798 kcal/mol)

>  <smiles>  (14) 
CCNCCOCC1CCN(C(=O)C2=CC(C)(C)NC2(C)C)CC1

>  <score_type>  (14) 
oracle

>  <origin>  (14) 
adg

>  <m_score__min__energy>  (14) 
-8.7200000000000006

>  <m_primary>  (14) 
energy

$$$$
14:0
     RDKit          3D

 48 50  0  0  0  0  0  0  0  0999 V2000
   -6.5010   25.6290  -29.3210 C   0  0  0  0  0  0  0  0  0  0  0  0
   -5.3990   25.4850  -30.7620 S   0  0  0  0  0  0  0  0  0  0  0  0
   -6.0080   23.8590  -31.2130 C   0  0  0  0  0  0  0  0  0  0  0  0
   -7.2580   23.4350  -30.7700 C   0  0  0  0  0  0  0  0  0  0  0  0
   -7.7440   22.1810  -31.1370 C   0  0  0  0  0  0  0  0  0  0  0  0
   -6.9840   21.3130  -31.9640 C   0  0  0  0  0  0  0  0  0  0  0  0
   -5.6710   21.7160  -32.3270 C   0  0  0  0  0  0  0  0  0  0  0  0
   -5.2250   23.0120  -31.9940 C   0  0  0  0  0  0  0  0  0  0  0  0
   -4.8390   20.8220  -33.0220 C   0  0  0  0  0  0  0  0  0  0  0  0
   -3.4710   21.1690  -33.3070 N   0  0  0  0  0  0  0  0  0  0  0  0
   -2.3710   20.7930  -32.4140 C   0  0  0  0  0  0  0  0  0  0  0  0
   -1.0120   21.1990  -33.0240 C   0  0  0  0  0  0  0  0  0  0  0  0
   -0.8330   20.8060  -34.4430 N   0  0  0  0  0  0  0  0  0  0  0  0
    0.3660   21.4090  -35.0530 C   0  0  0  0  0  0  0  0  0  0  0  0
   -0.8380   19.3430  -34.6310 C   0  0  0  0  0  0  0  0  0  0  0  0
   -5.3250   19.5490  -33.3670 C   0  0  0  0  0  0  0  0  0  0  0  0
   -4.5040   18.6250  -34.0460 C   0  0  0  0  0  0  0  0  0  0  0  0
   -4.9550   17.3370  -34.3220 C   0  0  0  0  0  0  0  0  0  0  0  0
   -6.2250   16.9430  -33.9140 C   0  0  0  0  0  0  0  0  0  0  0  0
   -6.7700   15.3030  -34.2190 Cl  0  0  0  0  0  0  0  0  0  0  0  0
   -7.0630   17.8470  -33.2590 C   0  0  0  0  0  0  0  0  0  0  0  0
   -6.6490   19.1810  -33.0060 C   0  0  0  0  0  0  0  0  0  0  0  0
   -7.4870   20.1030  -32.4060 N   0  0  0  0  0  0  0  0  0  0  0  0
   -8.9340   19.8130  -32.2780 C   0  0  0  0  0  0  0  0  0  0  0  0
   -5.9087   25.5516  -28.3973 H   0  0  0  0  0  0  0  0  0  0  0  0
   -7.0138   26.6018  -29.3473 H   0  0  0  0  0  0  0  0  0  0  0  0
   -7.2466   24.8206  -29.3473 H   0  0  0  0  0  0  0  0  0  0  0  0
   -7.8640   24.0916  -30.1284 H   0  0  0  0  0  0  0  0  0  0  0  0
   -8.7332   21.8587  -30.7797 H   0  0  0  0  0  0  0  0  0  0  0  0
   -4.2457   23.3585  -32.3559 H   0  0  0  0  0  0  0  0  0  0  0  0
   -3.2500   21.6280  -34.2190 H   0  0  0  0  0  0  0  0  0  0  0  0
   -2.4999   21.3022  -31.4475 H   0  0  0  0  0  0  0  0  0  0  0  0
   -2.3850   19.7020  -32.2744 H   0  0  0  0  0  0  0  0  0  0  0  0
   -0.9178   22.2928  -32.9559 H   0  0  0  0  0  0  0  0  0  0  0  0
   -0.2397   20.6644  -32.4514 H   0  0  0  0  0  0  0  0  0  0  0  0
   -1.6620   21.1820  -34.9630 H   0  0  0  0  0  0  0  0  0  0  0  0
    1.0476   21.7518  -34.2606 H   0  0  0  0  0  0  0  0  0  0  0  0
    0.8761   20.6602  -35.6768 H   0  0  0  0  0  0  0  0  0  0  0  0
    0.0690   22.2650  -35.6768 H   0  0  0  0  0  0  0  0  0  0  0  0
   -0.8397   18.8471  -33.6491 H   0  0  0  0  0  0  0  0  0  0  0  0
   -1.7372   19.0485  -35.1921 H   0  0  0  0  0  0  0  0  0  0  0  0
    0.0591   19.0423  -35.1921 H   0  0  0  0  0  0  0  0  0  0  0  0
   -3.4941   18.9258  -34.3617 H   0  0  0  0  0  0  0  0  0  0  0  0
   -4.3071   16.6312  -34.8625 H   0  0  0  0  0  0  0  0  0  0  0  0
   -8.0615   17.5200  -32.9333 H   0  0  0  0  0  0  0  0  0  0  0  0
   -9.2043   19.7588  -31.2131 H   0  0  0  0  0  0  0  0  0  0  0  0
   -9.5126   20.6130  -32.7629 H   0  0  0  0  0  0  0  0  0  0  0  0
   -9.1596   18.8518  -32.7629 H   0  0  0  0  0  0  0  0  0  0  0  0
  1  2  1  0
  2  3  1  0
  3  4  2  0
  4  5  1  0
  5  6  2  0
  6  7  1  0
  7  8  2  0
  7  9  1  0
  9 10  1  0
 10 11  1  0
 11 12  1  0
 12 13  1  0
 13 14  1  0
 13 15  1  0
  9 16  2  0
 16 17  1  0
 17 18  2  0
 18 19  1  0
 19 20  1  0
 19 21  2  0
 21 22  1  0
 22 23  2  0
 23 24  1  0
  8  3  1  0
 22 16  1  0
 23  6  1  0
  1 25  1  0
  1 26  1  0
  1 27  1  0
  4 28  1  0
  5 29  1  0
  8 30  1  0
 10 31  1  0
 11 32  1  0
 11 33  1  0
 12 34  1  0
 12 35  1  0
 13 36  1  0
 14 37  1  0
 14 38  1  0
 14 39  1  0
 15 40  1  0
 15 41  1  0
 15 42  1  0
 17 43  1  0
 18 44  1  0
 21 45  1  0
 24 46  1  0
 24 47  1  0
 24 48  1  0
M  CHG  2  13   1  23   1
M  END
>  <UniqueID>  (15) 
15

>  <SMILES>  (15) 
CSc1ccc2c(c1)c(NCC[NH+](C)C)c1ccc(Cl)cc1[n+]2C

>  <Energy>  (15) 
72.23162473109193

>  <Genealogy>  (15) 
CSc1ccc2c(c1)c(NCC[NH+](C)C)c1ccc(Cl)cc1[n+]2C (protonated)
CSc1ccc2c(c1)c(NCC[NH+](C)C)c1ccc(Cl)cc1[n+]2C (3D coordinates assigned)
CSc1ccc2c(c1)c(NCC[NH+](C)C)c1ccc(Cl)cc1[n+]2C (optimized conformer: 72.23162473109193 kcal/mol)

>  <smiles>  (15) 
CSc1ccc2c(c1)c(NCCN(C)C)c1ccc(Cl)cc1[n+]2C

>  <score_type>  (15) 
oracle

>  <origin>  (15) 
adg

>  <m_score__min__energy>  (15) 
-8.2400000000000002

>  <m_primary>  (15) 
energy

$$$$
15:0
     RDKit          3D

 25 26  0  0  0  0  0  0  0  0999 V2000
   -2.6670   24.5320  -29.3930 C   0  0  0  0  0  0  0  0  0  0  0  0
   -3.5440   24.8990  -30.4530 O   0  0  0  0  0  0  0  0  0  0  0  0
   -4.7610   24.2600  -30.7370 C   0  0  0  0  0  0  0  0  0  0  0  0
   -5.9350   24.8350  -30.2590 C   0  0  0  0  0  0  0  0  0  0  0  0
   -7.1670   24.2380  -30.5140 C   0  0  0  0  0  0  0  0  0  0  0  0
   -7.2620   23.0530  -31.2530 C   0  0  0  0  0  0  0  0  0  0  0  0
   -6.0710   22.4410  -31.7450 C   0  0  0  0  0  0  0  0  0  0  0  0
   -4.8330   23.0680  -31.4780 C   0  0  0  0  0  0  0  0  0  0  0  0
   -6.0230   21.1880  -32.5540 C   0  0  0  0  0  0  0  0  0  0  0  0
   -5.1140   21.0610  -33.4180 O   0  0  0  0  0  0  0  0  0  0  0  0
   -6.9210   20.0890  -32.3570 N   0  0  0  0  0  0  0  0  0  0  0  0
   -8.1770   20.1940  -31.6350 C   0  0  0  0  0  0  0  0  0  0  0  0
   -8.9500   21.3960  -32.1510 C   0  0  0  0  0  0  0  0  0  0  0  0
   -8.5670   22.5670  -31.4470 O   0  0  0  0  0  0  0  0  0  0  0  0
   -3.1534   24.7355  -28.4276 H   0  0  0  0  0  0  0  0  0  0  0  0
   -2.4318   23.4599  -29.4663 H   0  0  0  0  0  0  0  0  0  0  0  0
   -1.7383   25.1170  -29.4663 H   0  0  0  0  0  0  0  0  0  0  0  0
   -5.8893   25.7668  -29.6762 H   0  0  0  0  0  0  0  0  0  0  0  0
   -8.0837   24.7070  -30.1270 H   0  0  0  0  0  0  0  0  0  0  0  0
   -3.9062   22.6135  -31.8581 H   0  0  0  0  0  0  0  0  0  0  0  0
   -6.7300   19.2000  -32.8730 H   0  0  0  0  0  0  0  0  0  0  0  0
   -8.7693   19.2805  -31.7920 H   0  0  0  0  0  0  0  0  0  0  0  0
   -7.9768   20.3165  -30.5603 H   0  0  0  0  0  0  0  0  0  0  0  0
   -8.7385   21.5310  -33.2220 H   0  0  0  0  0  0  0  0  0  0  0  0
  -10.0254   21.2223  -31.9983 H   0  0  0  0  0  0  0  0  0  0  0  0
  1  2  1  0
  2  3  1  0
  3  4  2  0
  4  5  1  0
  5  6  2  0
  6  7  1  0
  7  8  2  0
  7  9  1  0
  9 10  2  0
  9 11  1  0
 11 12  1  0
 12 13  1  0
 13 14  1  0
  8  3  1  0
 14  6  1  0
  1 15  1  0
  1 16  1  0
  1 17  1  0
  4 18  1  0
  5 19  1  0
  8 20  1  0
 11 21  1  0
 12 22  1  0
 12 23  1  0
 13 24  1  0
 13 25  1  0
M  END
>  <UniqueID>  (16) 
16

>  <SMILES>  (16) 
COc1ccc2c(c1)C(=O)NCCO2

>  <Energy>  (16) 
32.98818909983511

>  <Genealogy>  (16) 
COc1ccc2c(c1)C(=O)NCCO2 (3D coordinates assigned)
COc1ccc2c(c1)C(=O)NCCO2 (nonaromatic ring conformer: 32.98818909983511 kcal/mol)

>  <smiles>  (16) 
COc1ccc2c(c1)C(=O)NCCO2

>  <score_type>  (16) 
oracle

>  <origin>  (16) 
adg

>  <m_score__min__energy>  (16) 
-4.2300000000000004

>  <m_primary>  (16) 
energy

$$$$
16:0
     RDKit          3D

 49 50  0  0  0  0  0  0  0  0999 V2000
   -2.7630   20.0260  -27.4120 C   0  0  0  0  0  0  0  0  0  0  0  0
   -2.4860   21.4100  -27.9970 C   0  0  0  0  0  0  0  0  0  0  0  0
   -3.4880   21.7850  -29.0220 N   0  0  0  0  0  0  0  0  0  0  0  0
   -3.0330   21.5750  -30.4190 C   0  0  0  0  0  0  0  0  0  0  0  0
   -1.5280   21.3110  -30.5560 C   0  0  0  0  0  0  0  0  0  0  0  0
   -4.0100   23.1530  -28.8020 C   0  0  0  0  0  0  0  0  0  0  0  0
   -3.1770   24.1750  -29.5840 C   0  0  0  0  0  0  0  0  0  0  0  0
   -3.9950   24.9010  -30.4820 O   0  0  0  0  0  0  0  0  0  0  0  0
   -5.3610   24.6580  -30.2180 C   0  0  0  0  0  0  0  0  0  0  0  0
   -6.1140   24.5550  -31.5420 C   0  0  0  0  0  0  0  0  0  0  0  0
   -6.6790   23.2060  -31.7070 N   0  0  0  0  0  0  0  0  0  0  0  0
   -7.9570   22.9590  -31.2530 C   0  0  0  0  0  0  0  0  0  0  0  0
   -8.5120   21.7150  -31.3610 N   0  0  0  0  0  0  0  0  0  0  0  0
   -7.7770   20.7240  -31.9150 C   0  0  0  0  0  0  0  0  0  0  0  0
   -8.1160   19.4060  -32.1230 C   0  0  0  0  0  0  0  0  0  0  0  0
   -6.9850   18.8450  -32.7130 C   0  0  0  0  0  0  0  0  0  0  0  0
   -6.8760   17.4100  -33.1300 C   0  0  0  0  0  0  0  0  0  0  0  0
   -6.0000   19.7740  -32.8600 N   0  0  0  0  0  0  0  0  0  0  0  0
   -4.6700   19.5770  -33.4390 C   0  0  0  0  0  0  0  0  0  0  0  0
   -6.5080   20.9220  -32.3630 C   0  0  0  0  0  0  0  0  0  0  0  0
   -5.9310   22.1890  -32.2580 C   0  0  0  0  0  0  0  0  0  0  0  0
   -4.7500   22.3920  -32.6550 O   0  0  0  0  0  0  0  0  0  0  0  0
   -2.7515   20.0832  -26.3136 H   0  0  0  0  0  0  0  0  0  0  0  0
   -3.7491   19.6754  -27.7506 H   0  0  0  0  0  0  0  0  0  0  0  0
   -1.9878   19.3229  -27.7506 H   0  0  0  0  0  0  0  0  0  0  0  0
   -2.5127   22.1516  -27.1850 H   0  0  0  0  0  0  0  0  0  0  0  0
   -1.4972   21.3860  -28.4783 H   0  0  0  0  0  0  0  0  0  0  0  0
   -3.5740   20.7109  -30.8320 H   0  0  0  0  0  0  0  0  0  0  0  0
   -3.2417   22.5077  -30.9635 H   0  0  0  0  0  0  0  0  0  0  0  0
   -1.0771   21.2319  -29.5558 H   0  0  0  0  0  0  0  0  0  0  0  0
   -1.3691   20.3713  -31.1052 H   0  0  0  0  0  0  0  0  0  0  0  0
   -1.0587   22.1405  -31.1052 H   0  0  0  0  0  0  0  0  0  0  0  0
   -5.0551   23.2012  -29.1418 H   0  0  0  0  0  0  0  0  0  0  0  0
   -3.9500   23.3896  -27.7294 H   0  0  0  0  0  0  0  0  0  0  0  0
   -2.7064   24.8744  -28.8774 H   0  0  0  0  0  0  0  0  0  0  0  0
   -2.4070   23.6397  -30.1590 H   0  0  0  0  0  0  0  0  0  0  0  0
   -5.4666   23.7161  -29.6597 H   0  0  0  0  0  0  0  0  0  0  0  0
   -5.7754   25.4821  -29.6187 H   0  0  0  0  0  0  0  0  0  0  0  0
   -6.9293   25.2934  -31.5538 H   0  0  0  0  0  0  0  0  0  0  0  0
   -5.4138   24.7521  -32.3671 H   0  0  0  0  0  0  0  0  0  0  0  0
   -8.5380   23.7745  -30.7976 H   0  0  0  0  0  0  0  0  0  0  0  0
   -9.4810   21.5350  -31.0170 H   0  0  0  0  0  0  0  0  0  0  0  0
   -9.0658   18.9079  -31.8785 H   0  0  0  0  0  0  0  0  0  0  0  0
   -6.8275   16.7710  -32.2359 H   0  0  0  0  0  0  0  0  0  0  0  0
   -7.7558   17.1347  -33.7301 H   0  0  0  0  0  0  0  0  0  0  0  0
   -5.9647   17.2708  -33.7301 H   0  0  0  0  0  0  0  0  0  0  0  0
   -3.9311   19.4676  -32.6315 H   0  0  0  0  0  0  0  0  0  0  0  0
   -4.6713   18.6693  -34.0603 H   0  0  0  0  0  0  0  0  0  0  0  0
   -4.4082   20.4462  -34.0603 H   0  0  0  0  0  0  0  0  0  0  0  0
  1  2  1  0
  2  3  1  0
  3  4  1  0
  4  5  1  0
  3  6  1  0
  6  7  1  0
  7  8  1  0
  8  9  1  0
  9 10  1  0
 10 11  1  0
 11 12  1  0
 12 13  2  0
 13 14  1  0
 14 15  1  0
 15 16  2  0
 16 17  1  0
 16 18  1  0
 18 19  1  0
 18 20  1  0
 20 21  1  0
 21 22  2  0
 21 11  1  0
 20 14  2  0
  1 23  1  0
  1 24  1  0
  1 25  1  0
  2 26  1  0
  2 27  1  0
  4 28  1  0
  4 29  1  0
  5 30  1  0
  5 31  1  0
  5 32  1  0
  6 33  1  0
  6 34  1  0
  7 35  1  0
  7 36  1  0
  9 37  1  0
  9 38  1  0
 10 39  1  0
 10 40  1  0
 12 41  1  0
 13 42  1  0
 15 43  1  0
 17 44  1  0
 17 45  1  0
 17 46  1  0
 19 47  1  0
 19 48  1  0
 19 49  1  0
M  CHG  1  13   1
M  END
>  <UniqueID>  (17) 
17

>  <SMILES>  (17) 
CCN(CC)CCOCCn1c[nH+]c2cc(C)n(C)c2c1=O

>  <Energy>  (17) 
85.13076369954928

>  <Genealogy>  (17) 
CCN(CC)CCOCCn1c[nH+]c2cc(C)n(C)c2c1=O (protonated)
CCN(CC)CCOCCn1c[nH+]c2cc(C)n(C)c2c1=O (3D coordinates assigned)
CCN(CC)CCOCCn1c[nH+]c2cc(C)n(C)c2c1=O (optimized conformer: 85.13076369954928 kcal/mol)

>  <smiles>  (17) 
CCN(CC)CCOCCn1cnc2cc(C)n(C)c2c1=O

>  <score_type>  (17) 
oracle

>  <origin>  (17) 
adg

>  <m_score__min__energy>  (17) 
-6.2599999999999998

>  <m_primary>  (17) 
energy

$$$$
17:0
     RDKit          3D

 45 46  0  0  0  0  0  0  0  0999 V2000
   -6.1000   15.0660  -34.2160 C   0  0  0  0  0  0  0  0  0  0  0  0
   -5.3950   16.3600  -33.7970 C   0  0  0  0  0  0  0  0  0  0  0  0
   -6.2610   17.5580  -33.8750 N   0  0  0  0  0  0  0  0  0  0  0  0
   -7.1720   17.7260  -32.7090 C   0  0  0  0  0  0  0  0  0  0  0  0
   -6.4900   17.6780  -31.3360 C   0  0  0  0  0  0  0  0  0  0  0  0
   -5.5580   18.7690  -34.3610 C   0  0  0  0  0  0  0  0  0  0  0  0
   -6.2170   20.0570  -33.8380 C   0  0  0  0  0  0  0  0  0  0  0  0
   -5.5320   20.5430  -32.6820 O   0  0  0  0  0  0  0  0  0  0  0  0
   -5.9240   21.6370  -31.8930 C   0  0  0  0  0  0  0  0  0  0  0  0
   -7.2270   21.6010  -31.3340 C   0  0  0  0  0  0  0  0  0  0  0  0
   -8.0230   20.4720  -31.5830 O   0  0  0  0  0  0  0  0  0  0  0  0
   -9.2510   20.4920  -32.3030 C   0  0  0  0  0  0  0  0  0  0  0  0
   -7.6980   22.6870  -30.5570 C   0  0  0  0  0  0  0  0  0  0  0  0
   -6.8600   23.7800  -30.3780 C   0  0  0  0  0  0  0  0  0  0  0  0
   -7.1300   24.8830  -29.7180 O   0  0  0  0  0  0  0  0  0  0  0  0
   -6.0760   25.6720  -29.7990 C   0  0  0  0  0  0  0  0  0  0  0  0
   -5.0890   25.0510  -30.5460 C   0  0  0  0  0  0  0  0  0  0  0  0
   -3.8600   25.6130  -30.8830 O   0  0  0  0  0  0  0  0  0  0  0  0
   -5.5960   23.8180  -30.9070 C   0  0  0  0  0  0  0  0  0  0  0  0
   -5.0680   22.7410  -31.6280 C   0  0  0  0  0  0  0  0  0  0  0  0
   -3.7290   22.7300  -32.0170 O   0  0  0  0  0  0  0  0  0  0  0  0
   -2.9070   21.5920  -31.7810 C   0  0  0  0  0  0  0  0  0  0  0  0
   -6.4044   14.5072  -33.3187 H   0  0  0  0  0  0  0  0  0  0  0  0
   -6.9896   15.3105  -34.8151 H   0  0  0  0  0  0  0  0  0  0  0  0
   -5.4122   14.4511  -34.8151 H   0  0  0  0  0  0  0  0  0  0  0  0
   -5.0496   16.2475  -32.7587 H   0  0  0  0  0  0  0  0  0  0  0  0
   -4.5633   16.5166  -34.4996 H   0  0  0  0  0  0  0  0  0  0  0  0
   -7.6733   18.7003  -32.8062 H   0  0  0  0  0  0  0  0  0  0  0  0
   -7.8641   16.8715  -32.7364 H   0  0  0  0  0  0  0  0  0  0  0  0
   -7.2530   17.7317  -30.5455 H   0  0  0  0  0  0  0  0  0  0  0  0
   -5.9270   16.7380  -31.2389 H   0  0  0  0  0  0  0  0  0  0  0  0
   -5.8009   18.5299  -31.2389 H   0  0  0  0  0  0  0  0  0  0  0  0
   -4.5138   18.7375  -34.0166 H   0  0  0  0  0  0  0  0  0  0  0  0
   -5.6102   18.7785  -35.4597 H   0  0  0  0  0  0  0  0  0  0  0  0
   -6.1848   20.8242  -34.6256 H   0  0  0  0  0  0  0  0  0  0  0  0
   -7.2586   19.8342  -33.5635 H   0  0  0  0  0  0  0  0  0  0  0  0
  -10.0917   20.5057  -31.5938 H   0  0  0  0  0  0  0  0  0  0  0  0
   -9.2904   21.3909  -32.9358 H   0  0  0  0  0  0  0  0  0  0  0  0
   -9.3197   19.5949  -32.9358 H   0  0  0  0  0  0  0  0  0  0  0  0
   -8.7015   22.6655  -30.1069 H   0  0  0  0  0  0  0  0  0  0  0  0
   -5.9937   26.6698  -29.3433 H   0  0  0  0  0  0  0  0  0  0  0  0
   -3.2570   25.2030  -31.5830 H   0  0  0  0  0  0  0  0  0  0  0  0
   -2.7959   21.4383  -30.6975 H   0  0  0  0  0  0  0  0  0  0  0  0
   -3.3730   20.7033  -32.2316 H   0  0  0  0  0  0  0  0  0  0  0  0
   -1.9169   21.7551  -32.2316 H   0  0  0  0  0  0  0  0  0  0  0  0
  1  2  1  0
  2  3  1  0
  3  4  1  0
  4  5  1  0
  3  6  1  0
  6  7  1  0
  7  8  1  0
  8  9  1  0
  9 10  2  0
 10 11  1  0
 11 12  1  0
 10 13  1  0
 13 14  2  0
 14 15  1  0
 15 16  1  0
 16 17  2  0
 17 18  1  0
 17 19  1  0
 19 20  2  0
 20 21  1  0
 21 22  1  0
 20  9  1  0
 19 14  1  0
  1 23  1  0
  1 24  1  0
  1 25  1  0
  2 26  1  0
  2 27  1  0
  4 28  1  0
  4 29  1  0
  5 30  1  0
  5 31  1  0
  5 32  1  0
  6 33  1  0
  6 34  1  0
  7 35  1  0
  7 36  1  0
 12 37  1  0
 12 38  1  0
 12 39  1  0
 13 40  1  0
 16 41  1  0
 18 42  1  0
 22 43  1  0
 22 44  1  0
 22 45  1  0
M  END
>  <UniqueID>  (18) 
18

>  <SMILES>  (18) 
CCN(CC)CCOc1c(OC)cc2occ(O)c2c1OC

>  <Energy>  (18) 
98.40177101774532

>  <Genealogy>  (18) 
CCN(CC)CCOc1c(OC)cc2occ(O)c2c1OC (3D coordinates assigned)
CCN(CC)CCOc1c(OC)cc2occ(O)c2c1OC (optimized conformer: 98.40177101774532 kcal/mol)

>  <smiles>  (18) 
CCN(CC)CCOc1c(OC)cc2occ(O)c2c1OC

>  <score_type>  (18) 
oracle

>  <origin>  (18) 
adg

>  <m_score__min__energy>  (18) 
-6.9199999999999999

>  <m_primary>  (18) 
energy

$$$$
18:0
     RDKit          3D

 80 83  0  0  0  0  0  0  0  0999 V2000
   -2.8720   19.4140  -27.0660 C   0  0  0  0  0  0  0  0  0  0  0  0
   -2.9240   20.0630  -28.3160 O   0  0  0  0  0  0  0  0  0  0  0  0
   -2.3570   21.3520  -28.2070 C   0  0  0  0  0  0  0  0  0  0  0  0
   -1.1070   21.4130  -29.1030 C   0  0  0  0  0  0  0  0  0  0  0  0
   -1.0220   20.4310  -30.2270 N   0  0  1  0  0  0  0  0  0  0  0  0
   -1.3820   20.9640  -31.5740 C   0  0  0  0  0  0  0  0  0  0  0  0
   -2.7360   20.5010  -32.1410 C   0  0  0  0  0  0  0  0  0  0  0  0
   -3.7560   20.5140  -31.0930 N   0  0  0  0  0  0  0  0  0  0  0  0
   -5.0140   21.1870  -31.2860 C   0  0  0  0  0  0  0  0  0  0  0  0
   -6.1350   20.4730  -31.7500 C   0  0  0  0  0  0  0  0  0  0  0  0
   -6.0270   19.1130  -32.1160 C   0  0  0  0  0  0  0  0  0  0  0  0
   -7.1520   18.3890  -32.5010 C   0  0  0  0  0  0  0  0  0  0  0  0
   -8.3990   19.0010  -32.5260 C   0  0  0  0  0  0  0  0  0  0  0  0
   -8.5230   20.3540  -32.2100 C   0  0  0  0  0  0  0  0  0  0  0  0
   -7.3870   21.1330  -31.8640 C   0  0  0  0  0  0  0  0  0  0  0  0
   -7.4810   22.4920  -31.6330 N   0  0  0  0  0  0  0  0  0  0  0  0
   -8.7070   23.2250  -32.0240 C   0  0  0  0  0  0  0  0  0  0  0  0
   -6.4160   23.1760  -31.0750 C   0  0  0  0  0  0  0  0  0  0  0  0
   -6.5500   24.5040  -30.6000 C   0  0  0  0  0  0  0  0  0  0  0  0
   -5.4580   25.2060  -30.0920 C   0  0  0  0  0  0  0  0  0  0  0  0
   -4.1960   24.6040  -30.0300 C   0  0  0  0  0  0  0  0  0  0  0  0
   -3.0570   25.2710  -29.5470 O   0  0  0  0  0  0  0  0  0  0  0  0
   -2.0720   24.7160  -28.6740 C   0  0  0  0  0  0  0  0  0  0  0  0
   -2.4710   24.9430  -27.1950 C   0  0  0  0  0  0  0  0  0  0  0  0
   -1.4160   25.5260  -26.3070 N   0  0  0  0  0  0  0  0  0  0  0  0
   -0.4470   26.2530  -27.1710 C   0  0  0  0  0  0  0  0  0  0  0  0
   -1.9460   26.4640  -25.2870 C   0  0  0  0  0  0  0  0  0  0  0  0
   -0.9770   26.4390  -24.1170 C   0  0  0  0  0  0  0  0  0  0  0  0
   -0.3320   25.0660  -24.1700 C   0  0  0  0  0  0  0  0  0  0  0  0
   -0.6830   24.4850  -25.5400 C   0  0  0  0  0  0  0  0  0  0  0  0
   -4.0550   23.2790  -30.4410 C   0  0  0  0  0  0  0  0  0  0  0  0
   -5.1520   22.5440  -30.9420 C   0  0  0  0  0  0  0  0  0  0  0  0
    0.0960   19.4320  -30.2330 C   0  0  0  0  0  0  0  0  0  0  0  0
    0.2290   18.6900  -31.5770 C   0  0  0  0  0  0  0  0  0  0  0  0
    0.1150   18.4540  -29.0430 C   0  0  0  0  0  0  0  0  0  0  0  0
   -2.9319   20.1620  -26.2617 H   0  0  0  0  0  0  0  0  0  0  0  0
   -3.7170   18.7150  -26.9803 H   0  0  0  0  0  0  0  0  0  0  0  0
   -1.9265   18.8585  -26.9803 H   0  0  0  0  0  0  0  0  0  0  0  0
   -3.0863   22.1071  -28.5355 H   0  0  0  0  0  0  0  0  0  0  0  0
   -2.0817   21.5555  -27.1616 H   0  0  0  0  0  0  0  0  0  0  0  0
   -1.0628   22.4212  -29.5407 H   0  0  0  0  0  0  0  0  0  0  0  0
   -0.2694   21.1553  -28.4381 H   0  0  0  0  0  0  0  0  0  0  0  0
   -1.8490   19.8160  -30.0270 H   0  0  0  0  0  0  0  0  0  0  0  0
   -1.4022   22.0618  -31.5075 H   0  0  0  0  0  0  0  0  0  0  0  0
   -0.6206   20.5697  -32.2631 H   0  0  0  0  0  0  0  0  0  0  0  0
   -3.0405   21.1786  -32.9523 H   0  0  0  0  0  0  0  0  0  0  0  0
   -2.6312   19.4758  -32.5258 H   0  0  0  0  0  0  0  0  0  0  0  0
   -3.6780   19.8090  -30.3240 H   0  0  0  0  0  0  0  0  0  0  0  0
   -5.0435   18.6207  -32.0966 H   0  0  0  0  0  0  0  0  0  0  0  0
   -7.0535   17.3311  -32.7858 H   0  0  0  0  0  0  0  0  0  0  0  0
   -9.2912   18.4169  -32.7958 H   0  0  0  0  0  0  0  0  0  0  0  0
   -9.5168   20.8252  -32.2291 H   0  0  0  0  0  0  0  0  0  0  0  0
   -9.2455   23.5470  -31.1205 H   0  0  0  0  0  0  0  0  0  0  0  0
   -8.4321   24.1071  -32.6210 H   0  0  0  0  0  0  0  0  0  0  0  0
   -9.3539   22.5654  -32.6210 H   0  0  0  0  0  0  0  0  0  0  0  0
   -7.5357   24.9911  -30.6327 H   0  0  0  0  0  0  0  0  0  0  0  0
   -5.5890   26.2391  -29.7378 H   0  0  0  0  0  0  0  0  0  0  0  0
   -1.9863   23.6360  -28.8645 H   0  0  0  0  0  0  0  0  0  0  0  0
   -1.1082   25.2112  -28.8633 H   0  0  0  0  0  0  0  0  0  0  0  0
   -3.3348   25.6239  -27.1813 H   0  0  0  0  0  0  0  0  0  0  0  0
   -2.6767   23.9416  -26.7889 H   0  0  0  0  0  0  0  0  0  0  0  0
    0.2735   26.7936  -26.5396 H   0  0  0  0  0  0  0  0  0  0  0  0
    0.0899   25.5330  -27.8061 H   0  0  0  0  0  0  0  0  0  0  0  0
   -0.9881   26.9699  -27.8061 H   0  0  0  0  0  0  0  0  0  0  0  0
   -2.0090   27.4799  -25.7041 H   0  0  0  0  0  0  0  0  0  0  0  0
   -2.9561   26.1679  -24.9675 H   0  0  0  0  0  0  0  0  0  0  0  0
   -0.2177   27.2273  -24.2270 H   0  0  0  0  0  0  0  0  0  0  0  0
   -1.4832   26.6208  -23.1575 H   0  0  0  0  0  0  0  0  0  0  0  0
    0.7591   25.1523  -24.0601 H   0  0  0  0  0  0  0  0  0  0  0  0
   -0.6930   24.4208  -23.3555 H   0  0  0  0  0  0  0  0  0  0  0  0
    0.2374   24.2066  -26.0742 H   0  0  0  0  0  0  0  0  0  0  0  0
   -1.3060   23.5857  -25.4252 H   0  0  0  0  0  0  0  0  0  0  0  0
   -3.0689   22.7962  -30.3736 H   0  0  0  0  0  0  0  0  0  0  0  0
    0.9924   20.0556  -30.1005 H   0  0  0  0  0  0  0  0  0  0  0  0
    0.4202   17.6231  -31.3895 H   0  0  0  0  0  0  0  0  0  0  0  0
   -0.7032   18.8002  -32.1505 H   0  0  0  0  0  0  0  0  0  0  0  0
    1.0649   19.1171  -32.1505 H   0  0  0  0  0  0  0  0  0  0  0  0
    0.1040   19.0222  -28.1012 H   0  0  0  0  0  0  0  0  0  0  0  0
   -0.7707   17.8033  -29.0890 H   0  0  0  0  0  0  0  0  0  0  0  0
    1.0253   17.8381  -29.0890 H   0  0  0  0  0  0  0  0  0  0  0  0
  1  2  1  0
  2  3  1  0
  3  4  1  0
  4  5  1  0
  5  6  1  0
  6  7  1  0
  7  8  1  0
  8  9  1  0
  9 10  2  0
 10 11  1  0
 11 12  2  0
 12 13  1  0
 13 14  2  0
 14 15  1  0
 15 16  2  0
 16 17  1  0
 16 18  1  0
 18 19  2  0
 19 20  1  0
 20 21  2  0
 21 22  1  0
 22 23  1  0
 23 24  1  0
 24 25  1  0
 25 26  1  0
 25 27  1  0
 27 28  1  0
 28 29  1  0
 29 30  1  0
 21 31  1  0
 31 32  2  0
  5 33  1  0
 33 34  1  0
 33 35  1  0
 32  9  1  0
 15 10  1  0
 32 18  1  0
 30 25  1  0
  1 36  1  0
  1 37  1  0
  1 38  1  0
  3 39  1  0
  3 40  1  0
  4 41  1  0
  4 42  1  0
  5 43  1  1
  6 44  1  0
  6 45  1  0
  7 46  1  0
  7 47  1  0
  8 48  1  0
 11 49  1  0
 12 50  1  0
 13 51  1  0
 14 52  1  0
 17 53  1  0
 17 54  1  0
 17 55  1  0
 19 56  1  0
 20 57  1  0
 23 58  1  0
 23 59  1  0
 24 60  1  0
 24 61  1  0
 26 62  1  0
 26 63  1  0
 26 64  1  0
 27 65  1  0
 27 66  1  0
 28 67  1  0
 28 68  1  0
 29 69  1  0
 29 70  1  0
 30 71  1  0
 30 72  1  0
 31 73  1  0
 33 74  1  0
 34 75  1  0
 34 76  1  0
 34 77  1  0
 35 78  1  0
 35 79  1  0
 35 80  1  0
M  CHG  3   5   1  16   1  25   1
M  END
>  <UniqueID>  (19) 
19

>  <SMILES>  (19) 
COCC[N@@H+](CCNc1c2ccccc2[n+](C)c2ccc(OCC[N+]3(C)CCCC3)cc12)C(C)C

>  <Energy>  (19) 
138.55696118047956

>  <Genealogy>  (19) 
COCC[NH+](CCNc1c2ccccc2[n+](C)c2ccc(OCC[N+]3(C)CCCC3)cc12)C(C)C (protonated)
COCC[N@@H+](CCNc1c2ccccc2[n+](C)c2ccc(OCC[N+]3(C)CCCC3)cc12)C(C)C (chirality)
COCC[N@@H+](CCNc1c2ccccc2[n+](C)c2ccc(OCC[N+]3(C)CCCC3)cc12)C(C)C (3D coordinates assigned)
COCC[N@@H+](CCNc1c2ccccc2[n+](C)c2ccc(OCC[N+]3(C)CCCC3)cc12)C(C)C (nonaromatic ring conformer: 138.55696118047956 kcal/mol)

>  <smiles>  (19) 
COCCN(CCNc1c2ccccc2[n+](C)c2ccc(OCC[N+]3(C)CCCC3)cc12)C(C)C

>  <score_type>  (19) 
oracle

>  <origin>  (19) 
adg

>  <m_score__min__energy>  (19) 
-8.2400000000000002

>  <m_primary>  (19) 
energy

$$$$
19:0
     RDKit          3D

 32 34  0  0  0  0  0  0  0  0999 V2000
   -6.8620   15.8290  -34.1960 C   0  0  0  0  0  0  0  0  0  0  0  0
   -6.3670   17.1430  -33.7660 N   0  0  0  0  0  0  0  0  0  0  0  0
   -5.1680   17.6030  -34.2370 C   0  0  0  0  0  0  0  0  0  0  0  0
   -4.6930   18.8140  -33.8500 N   0  0  0  0  0  0  0  0  0  0  0  0
   -5.3870   19.5980  -32.9910 C   0  0  0  0  0  0  0  0  0  0  0  0
   -4.8880   20.8070  -32.6210 N   0  0  0  0  0  0  0  0  0  0  0  0
   -5.5450   21.6350  -31.7630 C   0  0  0  0  0  0  0  0  0  0  0  0
   -4.9540   22.9040  -31.4210 N   0  0  0  0  0  0  0  0  0  0  0  0
   -5.7240   24.1380  -31.5990 C   0  0  0  0  0  0  0  0  0  0  0  0
   -5.3410   25.1530  -30.5180 C   0  0  0  0  0  0  0  0  0  0  0  0
   -3.9370   25.3320  -30.4720 O   0  0  0  0  0  0  0  0  0  0  0  0
   -3.3160   24.1290  -30.0650 C   0  0  0  0  0  0  0  0  0  0  0  0
   -3.5260   23.0260  -31.1060 C   0  0  0  0  0  0  0  0  0  0  0  0
   -6.7820   21.2250  -31.2240 C   0  0  0  0  0  0  0  0  0  0  0  0
   -7.4480   21.9890  -30.3230 F   0  0  0  0  0  0  0  0  0  0  0  0
   -7.3160   19.9880  -31.5910 C   0  0  0  0  0  0  0  0  0  0  0  0
   -6.6200   19.1600  -32.4850 C   0  0  0  0  0  0  0  0  0  0  0  0
   -7.1010   17.9040  -32.8930 C   0  0  0  0  0  0  0  0  0  0  0  0
   -8.2060   17.4780  -32.4550 O   0  0  0  0  0  0  0  0  0  0  0  0
   -7.0926   15.2167  -33.3117 H   0  0  0  0  0  0  0  0  0  0  0  0
   -7.7726   15.9596  -34.7992 H   0  0  0  0  0  0  0  0  0  0  0  0
   -6.0916   15.3264  -34.7992 H   0  0  0  0  0  0  0  0  0  0  0  0
   -4.5837   16.9860  -34.9355 H   0  0  0  0  0  0  0  0  0  0  0  0
   -5.5082   24.5625  -32.5906 H   0  0  0  0  0  0  0  0  0  0  0  0
   -6.7970   23.9099  -31.5172 H   0  0  0  0  0  0  0  0  0  0  0  0
   -5.8205   26.1172  -30.7424 H   0  0  0  0  0  0  0  0  0  0  0  0
   -5.6807   24.7747  -29.5425 H   0  0  0  0  0  0  0  0  0  0  0  0
   -2.2375   24.3051  -29.9395 H   0  0  0  0  0  0  0  0  0  0  0  0
   -3.7658   23.8055  -29.1147 H   0  0  0  0  0  0  0  0  0  0  0  0
   -2.9705   23.2775  -32.0215 H   0  0  0  0  0  0  0  0  0  0  0  0
   -3.1609   22.0706  -30.7011 H   0  0  0  0  0  0  0  0  0  0  0  0
   -8.2826   19.6625  -31.1791 H   0  0  0  0  0  0  0  0  0  0  0  0
  1  2  1  0
  2  3  1  0
  3  4  2  0
  4  5  1  0
  5  6  2  0
  6  7  1  0
  7  8  1  0
  8  9  1  0
  9 10  1  0
 10 11  1  0
 11 12  1  0
 12 13  1  0
  7 14  2  0
 14 15  1  0
 14 16  1  0
 16 17  2  0
 17 18  1  0
 18 19  2  0
 18  2  1  0
 17  5  1  0
 13  8  1  0
  1 20  1  0
  1 21  1  0
  1 22  1  0
  3 23  1  0
  9 24  1  0
  9 25  1  0
 10 26  1  0
 10 27  1  0
 12 28  1  0
 12 29  1  0
 13 30  1  0
 13 31  1  0
 16 32  1  0
M  END
>  <UniqueID>  (20) 
20

>  <SMILES>  (20) 
Cn1cnc2nc(N3CCOCC3)c(F)cc2c1=O

>  <Energy>  (20) 
45.52425502130133

>  <Genealogy>  (20) 
Cn1cnc2nc(N3CCOCC3)c(F)cc2c1=O (3D coordinates assigned)
Cn1cnc2nc(N3CCOCC3)c(F)cc2c1=O (nonaromatic ring conformer: 45.52425502130133 kcal/mol)

>  <smiles>  (20) 
Cn1cnc2nc(N3CCOCC3)c(F)cc2c1=O

>  <score_type>  (20) 
oracle

>  <origin>  (20) 
adg

>  <m_score__min__energy>  (20) 
-6.79

>  <m_primary>  (20) 
energy

$$$$
20:0
     RDKit          3D

 65 68  0  0  0  0  0  0  0  0999 V2000
   -4.0650   14.0320  -31.9910 C   0  0  0  0  0  0  0  0  0  0  0  0
   -3.6450   15.3280  -32.4050 O   0  0  0  0  0  0  0  0  0  0  0  0
   -4.4020   16.1910  -33.2150 C   0  0  0  0  0  0  0  0  0  0  0  0
   -5.7590   15.9410  -33.4960 C   0  0  0  0  0  0  0  0  0  0  0  0
   -6.4860   16.8110  -34.3090 C   0  0  0  0  0  0  0  0  0  0  0  0
   -5.8710   17.9370  -34.8540 C   0  0  0  0  0  0  0  0  0  0  0  0
   -4.5250   18.1970  -34.5920 C   0  0  0  0  0  0  0  0  0  0  0  0
   -3.7810   17.3360  -33.7670 C   0  0  0  0  0  0  0  0  0  0  0  0
   -2.3170   17.6230  -33.5250 C   0  0  0  0  0  0  0  0  0  0  0  0
   -1.7200   18.5630  -34.5860 C   0  0  0  0  0  0  0  0  0  0  0  0
   -1.1990   19.8800  -33.9820 C   0  0  0  0  0  0  0  0  0  0  0  0
   -2.2220   20.5760  -33.0390 C   0  0  0  0  0  0  0  0  0  0  0  0
   -2.4940   19.9580  -31.7030 N   0  0  0  0  0  0  0  0  0  0  0  0
   -1.3260   19.6790  -30.8360 C   0  0  0  0  0  0  0  0  0  0  0  0
   -0.9590   20.8450  -29.8630 C   0  0  0  0  0  0  0  0  0  0  0  0
   -1.8810   22.0520  -29.9250 C   0  0  0  0  0  0  0  0  0  0  0  0
   -1.4520   23.2800  -29.4010 C   0  0  0  0  0  0  0  0  0  0  0  0
   -2.2600   24.4270  -29.5100 C   0  0  0  0  0  0  0  0  0  0  0  0
   -1.8800   25.6650  -28.9660 O   0  0  0  0  0  0  0  0  0  0  0  0
   -1.2760   25.8340  -27.6890 C   0  0  0  0  0  0  0  0  0  0  0  0
   -3.4850   24.3510  -30.1870 C   0  0  0  0  0  0  0  0  0  0  0  0
   -4.2390   25.5260  -30.3310 O   0  0  0  0  0  0  0  0  0  0  0  0
   -5.6600   25.5910  -30.2500 C   0  0  0  0  0  0  0  0  0  0  0  0
   -3.9270   23.1140  -30.6910 C   0  0  0  0  0  0  0  0  0  0  0  0
   -3.1610   21.9510  -30.4990 C   0  0  0  0  0  0  0  0  0  0  0  0
   -3.5930   20.5640  -30.9190 C   0  0  1  0  0  0  0  0  0  0  0  0
   -4.9880   20.3940  -31.5290 C   0  0  0  0  0  0  0  0  0  0  0  0
   -5.5050   21.2790  -32.5010 C   0  0  0  0  0  0  0  0  0  0  0  0
   -6.7490   21.0430  -33.0950 C   0  0  0  0  0  0  0  0  0  0  0  0
   -7.4760   19.8970  -32.7710 C   0  0  0  0  0  0  0  0  0  0  0  0
   -8.6780   19.6680  -33.3540 F   0  0  0  0  0  0  0  0  0  0  0  0
   -6.9450   18.9700  -31.8750 C   0  0  0  0  0  0  0  0  0  0  0  0
   -5.7020   19.2020  -31.2800 C   0  0  0  0  0  0  0  0  0  0  0  0
   -4.0802   13.9851  -30.8921 H   0  0  0  0  0  0  0  0  0  0  0  0
   -5.0740   13.8317  -32.3805 H   0  0  0  0  0  0  0  0  0  0  0  0
   -3.3652   13.2779  -32.3805 H   0  0  0  0  0  0  0  0  0  0  0  0
   -6.2496   15.0529  -33.0712 H   0  0  0  0  0  0  0  0  0  0  0  0
   -7.5463   16.6081  -34.5203 H   0  0  0  0  0  0  0  0  0  0  0  0
   -6.4480   18.6224  -35.4922 H   0  0  0  0  0  0  0  0  0  0  0  0
   -4.0433   19.0816  -35.0341 H   0  0  0  0  0  0  0  0  0  0  0  0
   -2.2079   18.0921  -32.5360 H   0  0  0  0  0  0  0  0  0  0  0  0
   -1.7746   16.6676  -33.5804 H   0  0  0  0  0  0  0  0  0  0  0  0
   -0.8846   18.0483  -35.0831 H   0  0  0  0  0  0  0  0  0  0  0  0
   -2.5206   18.8154  -35.2969 H   0  0  0  0  0  0  0  0  0  0  0  0
   -0.2868   19.6628  -33.4069 H   0  0  0  0  0  0  0  0  0  0  0  0
   -1.0096   20.5680  -34.8191 H   0  0  0  0  0  0  0  0  0  0  0  0
   -1.8539   21.5964  -32.8564 H   0  0  0  0  0  0  0  0  0  0  0  0
   -3.1800   20.4964  -33.5737 H   0  0  0  0  0  0  0  0  0  0  0  0
   -1.5480   18.7848  -30.2350 H   0  0  0  0  0  0  0  0  0  0  0  0
   -0.4626   19.5398  -31.5032 H   0  0  0  0  0  0  0  0  0  0  0  0
   -0.9816   20.4515  -28.8360 H   0  0  0  0  0  0  0  0  0  0  0  0
    0.0338   21.2021  -30.1741 H   0  0  0  0  0  0  0  0  0  0  0  0
   -0.4749   23.3473  -28.9002 H   0  0  0  0  0  0  0  0  0  0  0  0
   -2.0168   25.6267  -26.9027 H   0  0  0  0  0  0  0  0  0  0  0  0
   -0.4301   25.1380  -27.5885 H   0  0  0  0  0  0  0  0  0  0  0  0
   -0.9141   26.8679  -27.5885 H   0  0  0  0  0  0  0  0  0  0  0  0
   -5.9668   25.6050  -29.1937 H   0  0  0  0  0  0  0  0  0  0  0  0
   -6.0141   26.5063  -30.7469 H   0  0  0  0  0  0  0  0  0  0  0  0
   -6.0962   24.7119  -30.7469 H   0  0  0  0  0  0  0  0  0  0  0  0
   -4.8789   23.0565  -31.2393 H   0  0  0  0  0  0  0  0  0  0  0  0
   -3.7611   19.9978  -29.9910 H   0  0  0  0  0  0  0  0  0  0  0  0
   -4.9221   22.1646  -32.7943 H   0  0  0  0  0  0  0  0  0  0  0  0
   -7.1557   21.7633  -33.8201 H   0  0  0  0  0  0  0  0  0  0  0  0
   -7.5056   18.0542  -31.6360 H   0  0  0  0  0  0  0  0  0  0  0  0
   -5.2735   18.4443  -30.6075 H   0  0  0  0  0  0  0  0  0  0  0  0
  1  2  1  0
  2  3  1  0
  3  4  2  0
  4  5  1  0
  5  6  2  0
  6  7  1  0
  7  8  2  0
  8  9  1  0
  9 10  1  0
 10 11  1  0
 11 12  1  0
 12 13  1  0
 13 14  1  0
 14 15  1  0
 15 16  1  0
 16 17  2  0
 17 18  1  0
 18 19  1  0
 19 20  1  0
 18 21  2  0
 21 22  1  0
 22 23  1  0
 21 24  1  0
 24 25  2  0
 25 26  1  0
 26 27  1  0
 27 28  2  0
 28 29  1  0
 29 30  2  0
 30 31  1  0
 30 32  1  0
 32 33  2  0
  8  3  1  0
 26 13  1  0
 33 27  1  0
 25 16  1  0
  1 34  1  0
  1 35  1  0
  1 36  1  0
  4 37  1  0
  5 38  1  0
  6 39  1  0
  7 40  1  0
  9 41  1  0
  9 42  1  0
 10 43  1  0
 10 44  1  0
 11 45  1  0
 11 46  1  0
 12 47  1  0
 12 48  1  0
 14 49  1  0
 14 50  1  0
 15 51  1  0
 15 52  1  0
 17 53  1  0
 20 54  1  0
 20 55  1  0
 20 56  1  0
 23 57  1  0
 23 58  1  0
 23 59  1  0
 24 60  1  0
 26 61  1  1
 28 62  1  0
 29 63  1  0
 32 64  1  0
 33 65  1  0
M  END
>  <UniqueID>  (21) 
21

>  <SMILES>  (21) 
COc1ccccc1CCCCN1CCc2cc(OC)c(OC)cc2[C@H]1c1ccc(F)cc1

>  <Energy>  (21) 
94.00545132169626

>  <Genealogy>  (21) 
COc1ccccc1CCCCN1CCc2cc(OC)c(OC)cc2[C@H]1c1ccc(F)cc1 (chirality)
COc1ccccc1CCCCN1CCc2cc(OC)c(OC)cc2[C@H]1c1ccc(F)cc1 (3D coordinates assigned)
COc1ccccc1CCCCN1CCc2cc(OC)c(OC)cc2[C@H]1c1ccc(F)cc1 (nonaromatic ring conformer: 94.00545132169626 kcal/mol)

>  <smiles>  (21) 
COc1ccccc1CCCCN1CCc2cc(OC)c(OC)cc2C1c1ccc(F)cc1

>  <score_type>  (21) 
oracle

>  <origin>  (21) 
adg

>  <m_score__min__energy>  (21) 
-9.5099999999999998

>  <m_primary>  (21) 
energy

$$$$
21:0
     RDKit          3D

 53 54  0  0  0  0  0  0  0  0999 V2000
   -9.1280   18.2460  -31.5920 C   0  0  0  0  0  0  0  0  0  0  0  0
   -7.7920   18.5560  -32.2630 C   0  0  0  0  0  0  0  0  0  0  0  0
   -7.5210   20.0090  -32.2460 N   0  0  0  0  0  0  0  0  0  0  0  0
   -8.7320   20.8360  -32.0290 C   0  0  0  0  0  0  0  0  0  0  0  0
   -8.3180   22.2390  -31.6100 C   0  0  0  0  0  0  0  0  0  0  0  0
   -6.7110   20.4580  -33.4020 C   0  0  0  0  0  0  0  0  0  0  0  0
   -6.0770   19.3030  -34.2040 C   0  0  0  0  0  0  0  0  0  0  0  0
   -4.7290   19.1220  -33.8100 O   0  0  0  0  0  0  0  0  0  0  0  0
   -4.3770   19.9990  -32.7540 C   0  0  0  0  0  0  0  0  0  0  0  0
   -3.0870   20.7550  -33.0900 C   0  0  0  0  0  0  0  0  0  0  0  0
   -3.2510   22.1440  -32.8620 O   0  0  0  0  0  0  0  0  0  0  0  0
   -4.4210   22.4120  -32.1100 C   0  0  0  0  0  0  0  0  0  0  0  0
   -4.0610   22.9390  -30.7170 C   0  0  0  0  0  0  0  0  0  0  0  0
   -2.6490   22.7070  -30.4080 N   0  0  0  0  0  0  0  0  0  0  0  0
   -2.1190   22.9540  -29.0950 C   0  0  0  0  0  0  0  0  0  0  0  0
   -1.6930   21.9150  -28.3300 N   0  0  0  0  0  0  0  0  0  0  0  0
   -1.1980   22.0990  -27.1070 N   0  0  0  0  0  0  0  0  0  0  0  0
   -0.7890   20.9990  -26.3880 O   0  0  0  0  0  0  0  0  0  0  0  0
   -1.1010   23.3530  -26.5800 C   0  0  0  0  0  0  0  0  0  0  0  0
   -0.5790   23.5710  -25.2920 C   0  0  0  0  0  0  0  0  0  0  0  0
   -0.4890   24.8670  -24.7810 C   0  0  0  0  0  0  0  0  0  0  0  0
   -0.9180   25.9550  -25.5450 C   0  0  0  0  0  0  0  0  0  0  0  0
   -0.8010   27.5810  -24.8950 Cl  0  0  0  0  0  0  0  0  0  0  0  0
   -1.4400   25.7500  -26.8260 C   0  0  0  0  0  0  0  0  0  0  0  0
   -1.5360   24.4500  -27.3550 C   0  0  0  0  0  0  0  0  0  0  0  0
   -2.0400   24.2260  -28.6040 N   0  0  0  0  0  0  0  0  0  0  0  0
   -2.4660   25.2840  -29.3790 O   0  0  0  0  0  0  0  0  0  0  0  0
   -9.0049   18.2746  -30.4993 H   0  0  0  0  0  0  0  0  0  0  0  0
   -9.8738   18.9949  -31.8966 H   0  0  0  0  0  0  0  0  0  0  0  0
   -9.4678   17.2451  -31.8966 H   0  0  0  0  0  0  0  0  0  0  0  0
   -6.9880   18.0328  -31.7246 H   0  0  0  0  0  0  0  0  0  0  0  0
   -7.8356   18.2176  -33.3087 H   0  0  0  0  0  0  0  0  0  0  0  0
   -9.3128   20.8880  -32.9617 H   0  0  0  0  0  0  0  0  0  0  0  0
   -9.3488   20.3836  -31.2385 H   0  0  0  0  0  0  0  0  0  0  0  0
   -8.2991   22.3032  -30.5120 H   0  0  0  0  0  0  0  0  0  0  0  0
   -7.3164   22.4598  -32.0075 H   0  0  0  0  0  0  0  0  0  0  0  0
   -9.0393   22.9682  -32.0075 H   0  0  0  0  0  0  0  0  0  0  0  0
   -7.3604   21.0339  -34.0777 H   0  0  0  0  0  0  0  0  0  0  0  0
   -5.8834   21.0601  -32.9988 H   0  0  0  0  0  0  0  0  0  0  0  0
   -6.6392   18.3767  -34.0148 H   0  0  0  0  0  0  0  0  0  0  0  0
   -6.1099   19.5474  -35.2760 H   0  0  0  0  0  0  0  0  0  0  0  0
   -5.1905   20.7229  -32.5985 H   0  0  0  0  0  0  0  0  0  0  0  0
   -4.2148   19.4080  -31.8405 H   0  0  0  0  0  0  0  0  0  0  0  0
   -2.2711   20.3781  -32.4558 H   0  0  0  0  0  0  0  0  0  0  0  0
   -2.8476   20.5950  -34.1516 H   0  0  0  0  0  0  0  0  0  0  0  0
   -5.0238   23.1664  -32.6367 H   0  0  0  0  0  0  0  0  0  0  0  0
   -4.9910   21.4779  -31.9981 H   0  0  0  0  0  0  0  0  0  0  0  0
   -4.2629   24.0197  -30.6797 H   0  0  0  0  0  0  0  0  0  0  0  0
   -4.6710   22.4028  -29.9751 H   0  0  0  0  0  0  0  0  0  0  0  0
   -2.0130   22.3590  -31.1590 H   0  0  0  0  0  0  0  0  0  0  0  0
   -0.2407   22.7178  -24.6857 H   0  0  0  0  0  0  0  0  0  0  0  0
   -0.0790   25.0320  -23.7737 H   0  0  0  0  0  0  0  0  0  0  0  0
   -1.7774   26.6099  -27.4233 H   0  0  0  0  0  0  0  0  0  0  0  0
  1  2  1  0
  2  3  1  0
  3  4  1  0
  4  5  1  0
  3  6  1  0
  6  7  1  0
  7  8  1  0
  8  9  1  0
  9 10  1  0
 10 11  1  0
 11 12  1  0
 12 13  1  0
 13 14  1  0
 14 15  1  0
 15 16  2  0
 16 17  1  0
 17 18  1  0
 17 19  2  0
 19 20  1  0
 20 21  2  0
 21 22  1  0
 22 23  1  0
 22 24  2  0
 24 25  1  0
 25 26  2  0
 26 27  1  0
 26 15  1  0
 25 19  1  0
  1 28  1  0
  1 29  1  0
  1 30  1  0
  2 31  1  0
  2 32  1  0
  4 33  1  0
  4 34  1  0
  5 35  1  0
  5 36  1  0
  5 37  1  0
  6 38  1  0
  6 39  1  0
  7 40  1  0
  7 41  1  0
  9 42  1  0
  9 43  1  0
 10 44  1  0
 10 45  1  0
 12 46  1  0
 12 47  1  0
 13 48  1  0
 13 49  1  0
 14 50  1  0
 20 51  1  0
 21 52  1  0
 24 53  1  0
M  CHG  4  17   1  18  -1  26   1  27  -1
M  END
>  <UniqueID>  (22) 
22

>  <SMILES>  (22) 
CCN(CC)CCOCCOCCNc1n[n+]([O-])c2ccc(Cl)cc2[n+]1[O-]

>  <Energy>  (22) 
59.982715655983775

>  <Genealogy>  (22) 
CCN(CC)CCOCCOCCNc1n[n+]([O-])c2ccc(Cl)cc2[n+]1[O-] (3D coordinates assigned)
CCN(CC)CCOCCOCCNc1n[n+]([O-])c2ccc(Cl)cc2[n+]1[O-] (optimized conformer: 59.982715655983775 kcal/mol)

>  <smiles>  (22) 
CCN(CC)CCOCCOCCNc1n[n+]([O-])c2ccc(Cl)cc2[n+]1[O-]

>  <score_type>  (22) 
oracle

>  <origin>  (22) 
adg

>  <m_score__min__energy>  (22) 
-8.4900000000000002

>  <m_primary>  (22) 
energy

$$$$
22:0
     RDKit          3D

 39 39  0  0  0  0  0  0  0  0999 V2000
   -6.1100   19.2860  -34.2450 C   0  0  0  0  0  0  0  0  0  0  0  0
   -6.7660   20.0370  -33.0810 C   0  0  0  0  0  0  0  0  0  0  0  0
   -8.2250   19.7760  -32.9750 N   0  0  0  0  0  0  0  0  0  0  0  0
   -8.4870   18.4750  -32.3000 C   0  0  0  0  0  0  0  0  0  0  0  0
   -7.2380   17.9180  -31.6060 C   0  0  0  0  0  0  0  0  0  0  0  0
   -8.9740   20.8870  -32.3240 C   0  0  0  0  0  0  0  0  0  0  0  0
   -8.1210   21.8260  -31.4410 C   0  0  0  0  0  0  0  0  0  0  0  0
   -7.6400   23.3410  -32.3440 S   0  0  0  0  0  0  0  0  0  0  0  0
   -6.2180   23.6650  -31.2890 C   0  0  0  0  0  0  0  0  0  0  0  0
   -6.4010   24.4670  -30.1550 C   0  0  0  0  0  0  0  0  0  0  0  0
   -5.3320   24.7400  -29.3010 C   0  0  0  0  0  0  0  0  0  0  0  0
   -4.0630   24.2060  -29.5650 C   0  0  0  0  0  0  0  0  0  0  0  0
   -2.9050   24.5330  -28.6690 C   0  0  0  0  0  0  0  0  0  0  0  0
   -3.8700   23.4250  -30.7130 C   0  0  0  0  0  0  0  0  0  0  0  0
   -4.9380   23.1450  -31.5790 C   0  0  0  0  0  0  0  0  0  0  0  0
   -4.7040   22.3400  -32.7420 N   0  0  0  0  0  0  0  0  0  0  0  0
   -5.4349   18.5132  -33.8487 H   0  0  0  0  0  0  0  0  0  0  0  0
   -6.8886   18.8121  -34.8608 H   0  0  0  0  0  0  0  0  0  0  0  0
   -5.5357   19.9938  -34.8608 H   0  0  0  0  0  0  0  0  0  0  0  0
   -6.2839   19.7222  -32.1437 H   0  0  0  0  0  0  0  0  0  0  0  0
   -6.6353   21.1134  -33.2664 H   0  0  0  0  0  0  0  0  0  0  0  0
   -8.6070   19.7120  -33.9500 H   0  0  0  0  0  0  0  0  0  0  0  0
   -9.2755   18.6197  -31.5468 H   0  0  0  0  0  0  0  0  0  0  0  0
   -8.7950   17.7522  -33.0699 H   0  0  0  0  0  0  0  0  0  0  0  0
   -7.3680   17.9760  -30.5153 H   0  0  0  0  0  0  0  0  0  0  0  0
   -7.0909   16.8690  -31.9025 H   0  0  0  0  0  0  0  0  0  0  0  0
   -6.3593   18.5095  -31.9025 H   0  0  0  0  0  0  0  0  0  0  0  0
   -9.4394   21.4933  -33.1151 H   0  0  0  0  0  0  0  0  0  0  0  0
   -9.7017   20.4113  -31.6501 H   0  0  0  0  0  0  0  0  0  0  0  0
   -8.7048   22.1094  -30.5528 H   0  0  0  0  0  0  0  0  0  0  0  0
   -7.2045   21.2904  -31.1527 H   0  0  0  0  0  0  0  0  0  0  0  0
   -7.3949   24.8846  -29.9363 H   0  0  0  0  0  0  0  0  0  0  0  0
   -5.4855   25.3767  -28.4172 H   0  0  0  0  0  0  0  0  0  0  0  0
   -3.2181   24.4446  -27.6182 H   0  0  0  0  0  0  0  0  0  0  0  0
   -2.0799   23.8327  -28.8659 H   0  0  0  0  0  0  0  0  0  0  0  0
   -2.5680   25.5614  -28.8659 H   0  0  0  0  0  0  0  0  0  0  0  0
   -2.8695   23.0269  -30.9376 H   0  0  0  0  0  0  0  0  0  0  0  0
   -4.9770   22.6530  -33.6980 H   0  0  0  0  0  0  0  0  0  0  0  0
   -4.2330   21.4110  -32.6560 H   0  0  0  0  0  0  0  0  0  0  0  0
  1  2  1  0
  2  3  1  0
  3  4  1  0
  4  5  1  0
  3  6  1  0
  6  7  1  0
  7  8  1  0
  8  9  1  0
  9 10  2  0
 10 11  1  0
 11 12  2  0
 12 13  1  0
 12 14  1  0
 14 15  2  0
 15 16  1  0
 15  9  1  0
  1 17  1  0
  1 18  1  0
  1 19  1  0
  2 20  1  0
  2 21  1  0
  3 22  1  0
  4 23  1  0
  4 24  1  0
  5 25  1  0
  5 26  1  0
  5 27  1  0
  6 28  1  0
  6 29  1  0
  7 30  1  0
  7 31  1  0
 10 32  1  0
 11 33  1  0
 13 34  1  0
 13 35  1  0
 13 36  1  0
 14 37  1  0
 16 38  1  0
 16 39  1  0
M  CHG  1   3   1
M  END
>  <UniqueID>  (23) 
23

>  <SMILES>  (23) 
CC[NH+](CC)CCSc1ccc(C)cc1N

>  <Energy>  (23) 
35.502954630452535

>  <Genealogy>  (23) 
CC[NH+](CC)CCSc1ccc(C)cc1N (protonated)
CC[NH+](CC)CCSc1ccc(C)cc1N (3D coordinates assigned)
CC[NH+](CC)CCSc1ccc(C)cc1N (optimized conformer: 35.502954630452535 kcal/mol)

>  <smiles>  (23) 
CCN(CC)CCSc1ccc(C)cc1N

>  <score_type>  (23) 
oracle

>  <origin>  (23) 
adg

>  <m_score__min__energy>  (23) 
-5.6799999999999997

>  <m_primary>  (23) 
energy

$$$$
23:0
     RDKit          3D

 90 93  0  0  0  0  0  0  0  0999 V2000
   -0.6350   21.6970  -29.9510 C   0  0  0  0  0  0  0  0  0  0  0  0
   -0.6630   21.1650  -28.5120 C   0  0  0  0  0  0  0  0  0  0  0  0
   -1.7580   20.2050  -28.2920 N   0  0  0  0  0  0  0  0  0  0  0  0
   -1.5900   19.5820  -26.9530 C   0  0  0  0  0  0  0  0  0  0  0  0
   -2.9020   18.9280  -26.5130 C   0  0  0  0  0  0  0  0  0  0  0  0
   -3.0750   20.8830  -28.3950 C   0  0  0  0  0  0  0  0  0  0  0  0
   -3.0730   22.2680  -27.7380 C   0  0  0  0  0  0  0  0  0  0  0  0
   -4.3100   22.9340  -27.9050 O   0  0  0  0  0  0  0  0  0  0  0  0
   -4.1820   24.2660  -28.3670 C   0  0  0  0  0  0  0  0  0  0  0  0
   -3.2380   24.3030  -29.5790 C   0  0  0  0  0  0  0  0  0  0  0  0
   -3.7350   25.2530  -30.5000 O   0  0  0  0  0  0  0  0  0  0  0  0
   -5.1480   25.3040  -30.4370 C   0  0  0  0  0  0  0  0  0  0  0  0
   -5.7330   24.1750  -31.2870 C   0  0  0  0  0  0  0  0  0  0  0  0
   -5.8760   22.9260  -30.5260 N   0  0  0  0  0  0  0  0  0  0  0  0
   -6.0210   21.6730  -31.2000 C   0  0  0  0  0  0  0  0  0  0  0  0
   -4.8850   21.0190  -31.7010 C   0  0  0  0  0  0  0  0  0  0  0  0
   -5.0350   19.8350  -32.4900 C   0  0  0  0  0  0  0  0  0  0  0  0
   -6.3010   19.4390  -32.8920 N   0  0  0  0  0  0  0  0  0  0  0  0
   -6.4940   18.3090  -33.8250 C   0  0  0  0  0  0  0  0  0  0  0  0
   -7.4230   20.0960  -32.4110 C   0  0  0  0  0  0  0  0  0  0  0  0
   -8.7280   19.7770  -32.8460 C   0  0  0  0  0  0  0  0  0  0  0  0
   -9.8420   20.4370  -32.3420 C   0  0  0  0  0  0  0  0  0  0  0  0
   -9.6880   21.4320  -31.3830 C   0  0  0  0  0  0  0  0  0  0  0  0
   -8.4240   21.7800  -30.9420 C   0  0  0  0  0  0  0  0  0  0  0  0
   -7.2800   21.1800  -31.4980 C   0  0  0  0  0  0  0  0  0  0  0  0
   -3.7630   19.2790  -33.1020 C   0  0  0  0  0  0  0  0  0  0  0  0
   -3.4760   17.9090  -33.2130 C   0  0  0  0  0  0  0  0  0  0  0  0
   -2.2940   17.4650  -33.7860 C   0  0  0  0  0  0  0  0  0  0  0  0
   -1.3330   18.3990  -34.2100 C   0  0  0  0  0  0  0  0  0  0  0  0
   -0.1060   18.0430  -34.7930 O   0  0  0  0  0  0  0  0  0  0  0  0
    1.0780   17.5700  -34.1490 C   0  0  0  0  0  0  0  0  0  0  0  0
    0.8260   17.2210  -32.6610 C   0  0  0  0  0  0  0  0  0  0  0  0
    1.0340   18.3150  -31.6590 N   0  0  0  0  0  0  0  0  0  0  0  0
    2.2210   17.9610  -30.8460 C   0  0  0  0  0  0  0  0  0  0  0  0
   -0.1320   18.4390  -30.7420 C   0  0  0  0  0  0  0  0  0  0  0  0
    1.3230   19.6170  -32.3160 C   0  0  0  0  0  0  0  0  0  0  0  0
   -1.5400   19.7490  -33.9770 C   0  0  0  0  0  0  0  0  0  0  0  0
   -2.7420   20.1930  -33.4150 C   0  0  0  0  0  0  0  0  0  0  0  0
   -2.9030   21.6360  -33.0260 C   0  0  0  0  0  0  0  0  0  0  0  0
   -3.5040   21.6530  -31.6160 C   0  0  0  0  0  0  0  0  0  0  0  0
   -0.5772   22.7954  -29.9348 H   0  0  0  0  0  0  0  0  0  0  0  0
    0.2430   21.2913  -30.4749 H   0  0  0  0  0  0  0  0  0  0  0  0
   -1.5508   21.3857  -30.4749 H   0  0  0  0  0  0  0  0  0  0  0  0
    0.2937   20.6647  -28.3012 H   0  0  0  0  0  0  0  0  0  0  0  0
   -0.8257   22.0206  -27.8401 H   0  0  0  0  0  0  0  0  0  0  0  0
   -0.8005   18.8176  -27.0031 H   0  0  0  0  0  0  0  0  0  0  0  0
   -1.3111   20.3584  -26.2254 H   0  0  0  0  0  0  0  0  0  0  0  0
   -2.9495   18.9043  -25.4143 H   0  0  0  0  0  0  0  0  0  0  0  0
   -3.7504   19.5086  -26.9043 H   0  0  0  0  0  0  0  0  0  0  0  0
   -2.9490   17.9010  -26.9043 H   0  0  0  0  0  0  0  0  0  0  0  0
   -3.3312   20.9971  -29.4586 H   0  0  0  0  0  0  0  0  0  0  0  0
   -3.8136   20.2624  -27.8664 H   0  0  0  0  0  0  0  0  0  0  0  0
   -2.8748   22.1509  -26.6624 H   0  0  0  0  0  0  0  0  0  0  0  0
   -2.2924   22.8733  -28.2220 H   0  0  0  0  0  0  0  0  0  0  0  0
   -5.1707   24.6480  -28.6613 H   0  0  0  0  0  0  0  0  0  0  0  0
   -3.7691   24.8933  -27.5632 H   0  0  0  0  0  0  0  0  0  0  0  0
   -2.2276   24.5926  -29.2547 H   0  0  0  0  0  0  0  0  0  0  0  0
   -3.1864   23.3101  -30.0495 H   0  0  0  0  0  0  0  0  0  0  0  0
   -5.4738   25.1847  -29.3932 H   0  0  0  0  0  0  0  0  0  0  0  0
   -5.4992   26.2735  -30.8200 H   0  0  0  0  0  0  0  0  0  0  0  0
   -6.7238   24.4831  -31.6522 H   0  0  0  0  0  0  0  0  0  0  0  0
   -5.0409   23.9858  -32.1208 H   0  0  0  0  0  0  0  0  0  0  0  0
   -5.5670   22.9170  -29.5350 H   0  0  0  0  0  0  0  0  0  0  0  0
   -6.6521   17.3834  -33.2521 H   0  0  0  0  0  0  0  0  0  0  0  0
   -7.3721   18.5025  -34.4586 H   0  0  0  0  0  0  0  0  0  0  0  0
   -5.6014   18.2001  -34.4586 H   0  0  0  0  0  0  0  0  0  0  0  0
   -8.8657   18.9885  -33.6006 H   0  0  0  0  0  0  0  0  0  0  0  0
  -10.8470   20.1720  -32.7021 H   0  0  0  0  0  0  0  0  0  0  0  0
  -10.5724   21.9430  -30.9746 H   0  0  0  0  0  0  0  0  0  0  0  0
   -8.3125   22.5336  -30.1485 H   0  0  0  0  0  0  0  0  0  0  0  0
   -4.2031   17.1736  -32.8381 H   0  0  0  0  0  0  0  0  0  0  0  0
   -2.1093   16.3875  -33.9081 H   0  0  0  0  0  0  0  0  0  0  0  0
    1.4307   16.6683  -34.6710 H   0  0  0  0  0  0  0  0  0  0  0  0
    1.8308   18.3711  -34.1885 H   0  0  0  0  0  0  0  0  0  0  0  0
   -0.2172   16.8838  -32.5718 H   0  0  0  0  0  0  0  0  0  0  0  0
    1.5828   16.4617  -32.4146 H   0  0  0  0  0  0  0  0  0  0  0  0
    1.9694   18.0360  -29.7778 H   0  0  0  0  0  0  0  0  0  0  0  0
    2.5307   16.9314  -31.0783 H   0  0  0  0  0  0  0  0  0  0  0  0
    3.0441   18.6528  -31.0783 H   0  0  0  0  0  0  0  0  0  0  0  0
    0.2161   18.4020  -29.6992 H   0  0  0  0  0  0  0  0  0  0  0  0
   -0.6419   19.3964  -30.9246 H   0  0  0  0  0  0  0  0  0  0  0  0
   -0.8318   17.6102  -30.9246 H   0  0  0  0  0  0  0  0  0  0  0  0
    1.4936   20.3855  -31.5477 H   0  0  0  0  0  0  0  0  0  0  0  0
    2.2214   19.5198  -32.9432 H   0  0  0  0  0  0  0  0  0  0  0  0
    0.4678   19.9090  -32.9432 H   0  0  0  0  0  0  0  0  0  0  0  0
   -0.7554   20.4755  -34.2352 H   0  0  0  0  0  0  0  0  0  0  0  0
   -1.9248   22.1392  -33.0263 H   0  0  0  0  0  0  0  0  0  0  0  0
   -3.5537   22.1652  -33.7376 H   0  0  0  0  0  0  0  0  0  0  0  0
   -2.8673   21.0761  -30.9291 H   0  0  0  0  0  0  0  0  0  0  0  0
   -3.5727   22.6830  -31.2360 H   0  0  0  0  0  0  0  0  0  0  0  0
  1  2  1  0
  2  3  1  0
  3  4  1  0
  4  5  1  0
  3  6  1  0
  6  7  1  0
  7  8  1  0
  8  9  1  0
  9 10  1  0
 10 11  1  0
 11 12  1  0
 12 13  1  0
 13 14  1  0
 14 15  1  0
 15 16  2  0
 16 17  1  0
 17 18  2  0
 18 19  1  0
 18 20  1  0
 20 21  2  0
 21 22  1  0
 22 23  2  0
 23 24  1  0
 24 25  2  0
 17 26  1  0
 26 27  2  0
 27 28  1  0
 28 29  2  0
 29 30  1  0
 30 31  1  0
 31 32  1  0
 32 33  1  0
 33 34  1  0
 33 35  1  0
 33 36  1  0
 29 37  1  0
 37 38  2  0
 38 39  1  0
 39 40  1  0
 25 15  1  0
 38 26  1  0
 40 16  1  0
 25 20  1  0
  1 41  1  0
  1 42  1  0
  1 43  1  0
  2 44  1  0
  2 45  1  0
  4 46  1  0
  4 47  1  0
  5 48  1  0
  5 49  1  0
  5 50  1  0
  6 51  1  0
  6 52  1  0
  7 53  1  0
  7 54  1  0
  9 55  1  0
  9 56  1  0
 10 57  1  0
 10 58  1  0
 12 59  1  0
 12 60  1  0
 13 61  1  0
 13 62  1  0
 14 63  1  0
 19 64  1  0
 19 65  1  0
 19 66  1  0
 21 67  1  0
 22 68  1  0
 23 69  1  0
 24 70  1  0
 27 71  1  0
 28 72  1  0
 31 73  1  0
 31 74  1  0
 32 75  1  0
 32 76  1  0
 34 77  1  0
 34 78  1  0
 34 79  1  0
 35 80  1  0
 35 81  1  0
 35 82  1  0
 36 83  1  0
 36 84  1  0
 36 85  1  0
 37 86  1  0
 39 87  1  0
 39 88  1  0
 40 89  1  0
 40 90  1  0
M  CHG  2  18   1  33   1
M  END
>  <UniqueID>  (24) 
24

>  <SMILES>  (24) 
CCN(CC)CCOCCOCCNc1c2c([n+](C)c3ccccc13)-c1ccc(OCC[N+](C)(C)C)cc1CC2

>  <Energy>  (24) 
161.34170562407527

>  <Genealogy>  (24) 
CCN(CC)CCOCCOCCNc1c2c([n+](C)c3ccccc13)-c1ccc(OCC[N+](C)(C)C)cc1CC2 (3D coordinates assigned)
CCN(CC)CCOCCOCCNc1c2c([n+](C)c3ccccc13)-c1ccc(OCC[N+](C)(C)C)cc1CC2 (nonaromatic ring conformer: 161.34170562407527 kcal/mol)

>  <smiles>  (24) 
CCN(CC)CCOCCOCCNc1c2c([n+](C)c3ccccc13)-c1ccc(OCC[N+](C)(C)C)cc1CC2

>  <score_type>  (24) 
oracle

>  <origin>  (24) 
adg

>  <m_score__min__energy>  (24) 
-8.3100000000000005

>  <m_primary>  (24) 
energy

$$$$
24:0
     RDKit          3D

 38 39  0  0  0  0  0  0  0  0999 V2000
   -4.4680   24.1090  -28.7900 C   0  0  0  0  0  0  0  0  0  0  0  0
   -3.7060   24.3540  -30.0960 C   0  0  0  0  0  0  0  0  0  0  0  0
   -4.5940   24.7790  -31.1900 N   0  0  0  0  0  0  0  0  0  0  0  0
   -5.9880   24.9230  -30.7420 C   0  0  0  0  0  0  0  0  0  0  0  0
   -6.8810   23.8130  -31.3370 C   0  0  0  0  0  0  0  0  0  0  0  0
   -6.2600   23.1310  -32.4920 N   0  0  0  0  0  0  0  0  0  0  0  0
   -6.5320   21.7050  -32.5070 C   0  0  0  0  0  0  0  0  0  0  0  0
   -7.8060   21.2810  -32.0890 C   0  0  0  0  0  0  0  0  0  0  0  0
   -8.1580   19.9460  -32.1420 C   0  0  0  0  0  0  0  0  0  0  0  0
   -7.2500   19.0090  -32.6190 C   0  0  0  0  0  0  0  0  0  0  0  0
   -7.6190   17.6560  -32.6890 C   0  0  0  0  0  0  0  0  0  0  0  0
   -6.7200   16.7070  -33.1720 C   0  0  0  0  0  0  0  0  0  0  0  0
   -5.4500   17.0980  -33.5880 C   0  0  0  0  0  0  0  0  0  0  0  0
   -5.0680   18.4400  -33.5220 C   0  0  0  0  0  0  0  0  0  0  0  0
   -5.9580   19.4310  -33.0310 C   0  0  0  0  0  0  0  0  0  0  0  0
   -5.6060   20.7720  -32.9540 N   0  0  0  0  0  0  0  0  0  0  0  0
   -4.2390   21.1720  -33.3570 C   0  0  0  0  0  0  0  0  0  0  0  0
   -3.8086   24.3210  -27.9355 H   0  0  0  0  0  0  0  0  0  0  0  0
   -5.3462   24.7701  -28.7483 H   0  0  0  0  0  0  0  0  0  0  0  0
   -4.7964   23.0600  -28.7483 H   0  0  0  0  0  0  0  0  0  0  0  0
   -2.9546   25.1390  -29.9251 H   0  0  0  0  0  0  0  0  0  0  0  0
   -3.2356   23.4054  -30.3939 H   0  0  0  0  0  0  0  0  0  0  0  0
   -4.2430   25.6770  -31.5960 H   0  0  0  0  0  0  0  0  0  0  0  0
   -6.0208   24.8605  -29.6443 H   0  0  0  0  0  0  0  0  0  0  0  0
   -6.3663   25.8971  -31.0855 H   0  0  0  0  0  0  0  0  0  0  0  0
   -7.0806   23.0662  -30.5544 H   0  0  0  0  0  0  0  0  0  0  0  0
   -7.8058   24.2899  -31.6940 H   0  0  0  0  0  0  0  0  0  0  0  0
   -6.5630   23.5720  -33.3870 H   0  0  0  0  0  0  0  0  0  0  0  0
   -5.2290   23.3090  -32.4600 H   0  0  0  0  0  0  0  0  0  0  0  0
   -8.5301   22.0202  -31.7158 H   0  0  0  0  0  0  0  0  0  0  0  0
   -9.1556   19.6256  -31.8071 H   0  0  0  0  0  0  0  0  0  0  0  0
   -8.6216   17.3439  -32.3613 H   0  0  0  0  0  0  0  0  0  0  0  0
   -7.0139   15.6483  -33.2246 H   0  0  0  0  0  0  0  0  0  0  0  0
   -4.7439   16.3463  -33.9706 H   0  0  0  0  0  0  0  0  0  0  0  0
   -4.0618   18.7335  -33.8557 H   0  0  0  0  0  0  0  0  0  0  0  0
   -3.6294   21.3504  -32.4589 H   0  0  0  0  0  0  0  0  0  0  0  0
   -3.7836   20.3694  -33.9558 H   0  0  0  0  0  0  0  0  0  0  0  0
   -4.2881   22.0934  -33.9558 H   0  0  0  0  0  0  0  0  0  0  0  0
  1  2  1  0
  2  3  1  0
  3  4  1  0
  4  5  1  0
  5  6  1  0
  6  7  1  0
  7  8  2  0
  8  9  1  0
  9 10  2  0
 10 11  1  0
 11 12  2  0
 12 13  1  0
 13 14  2  0
 14 15  1  0
 15 16  2  0
 16 17  1  0
 16  7  1  0
 15 10  1  0
  1 18  1  0
  1 19  1  0
  1 20  1  0
  2 21  1  0
  2 22  1  0
  3 23  1  0
  4 24  1  0
  4 25  1  0
  5 26  1  0
  5 27  1  0
  6 28  1  0
  6 29  1  0
  8 30  1  0
  9 31  1  0
 11 32  1  0
 12 33  1  0
 13 34  1  0
 14 35  1  0
 17 36  1  0
 17 37  1  0
 17 38  1  0
M  CHG  2   6   1  16   1
M  END
>  <UniqueID>  (25) 
25

>  <SMILES>  (25) 
CCNCC[NH2+]c1ccc2ccccc2[n+]1C

>  <Energy>  (25) 
50.06353187321002

>  <Genealogy>  (25) 
CCNCC[NH2+]c1ccc2ccccc2[n+]1C (protonated)
CCNCC[NH2+]c1ccc2ccccc2[n+]1C (3D coordinates assigned)
CCNCC[NH2+]c1ccc2ccccc2[n+]1C (optimized conformer: 50.06353187321002 kcal/mol)

>  <smiles>  (25) 
CCNCCNc1ccc2ccccc2[n+]1C

>  <score_type>  (25) 
oracle

>  <origin>  (25) 
adg

>  <m_score__min__energy>  (25) 
-6.1900000000000004

>  <m_primary>  (25) 
energy

$$$$
25:0
     RDKit          3D

 65 67  0  0  0  0  0  0  0  0999 V2000
   -3.3780   24.1300  -27.7570 C   0  0  0  0  0  0  0  0  0  0  0  0
   -2.9840   24.2030  -29.2300 C   0  0  0  0  0  0  0  0  0  0  0  0
   -4.0890   23.7210  -30.0830 N   0  0  0  0  0  0  0  0  0  0  0  0
   -5.2750   24.5780  -29.9230 C   0  0  0  0  0  0  0  0  0  0  0  0
   -4.4180   22.3020  -29.8080 C   0  0  0  0  0  0  0  0  0  0  0  0
   -4.0550   21.4110  -31.0030 C   0  0  0  0  0  0  0  0  0  0  0  0
   -3.8650   22.2290  -32.2910 C   0  0  0  0  0  0  0  0  0  0  0  0
   -4.3830   21.5120  -33.4690 N   0  0  0  0  0  0  0  0  0  0  0  0
   -5.5390   20.7120  -33.0970 C   0  0  0  0  0  0  0  0  0  0  0  0
   -6.7060   21.3600  -32.5990 C   0  0  0  0  0  0  0  0  0  0  0  0
   -6.7470   22.7610  -32.3640 C   0  0  0  0  0  0  0  0  0  0  0  0
   -7.9270   23.3950  -31.9800 C   0  0  0  0  0  0  0  0  0  0  0  0
   -9.0890   22.6600  -31.8210 C   0  0  0  0  0  0  0  0  0  0  0  0
   -9.0660   21.2810  -31.9850 C   0  0  0  0  0  0  0  0  0  0  0  0
   -7.8670   20.5970  -32.3150 C   0  0  0  0  0  0  0  0  0  0  0  0
   -7.8250   19.2250  -32.3680 N   0  0  0  0  0  0  0  0  0  0  0  0
   -8.9150   18.4310  -31.7450 C   0  0  0  0  0  0  0  0  0  0  0  0
   -6.7530   18.5790  -32.9450 C   0  0  0  0  0  0  0  0  0  0  0  0
   -6.8420   17.2030  -33.2630 C   0  0  0  0  0  0  0  0  0  0  0  0
   -5.7530   16.5010  -33.7410 C   0  0  0  0  0  0  0  0  0  0  0  0
   -4.5400   17.1380  -33.9080 C   0  0  0  0  0  0  0  0  0  0  0  0
   -4.4010   18.5180  -33.6730 C   0  0  0  0  0  0  0  0  0  0  0  0
   -3.1310   19.1120  -33.8270 O   0  0  0  0  0  0  0  0  0  0  0  0
   -1.8630   18.4610  -33.6950 C   0  0  0  0  0  0  0  0  0  0  0  0
   -0.8140   19.3680  -32.9990 C   0  0  0  0  0  0  0  0  0  0  0  0
   -1.1360   20.8130  -32.9940 N   0  0  0  0  0  0  0  0  0  0  0  0
   -0.6390   21.5140  -34.1890 C   0  0  0  0  0  0  0  0  0  0  0  0
   -0.7230   21.4970  -31.7630 C   0  0  0  0  0  0  0  0  0  0  0  0
   -5.5430   19.2840  -33.2450 C   0  0  0  0  0  0  0  0  0  0  0  0
   -2.4887   24.2948  -27.1310 H   0  0  0  0  0  0  0  0  0  0  0  0
   -4.1282   24.9044  -27.5393 H   0  0  0  0  0  0  0  0  0  0  0  0
   -3.8010   23.1382  -27.5393 H   0  0  0  0  0  0  0  0  0  0  0  0
   -2.7523   25.2459  -29.4920 H   0  0  0  0  0  0  0  0  0  0  0  0
   -2.1020   23.5668  -29.3954 H   0  0  0  0  0  0  0  0  0  0  0  0
   -5.4791   24.7255  -28.8522 H   0  0  0  0  0  0  0  0  0  0  0  0
   -5.0901   25.5525  -30.3986 H   0  0  0  0  0  0  0  0  0  0  0  0
   -6.1422   24.0965  -30.3986 H   0  0  0  0  0  0  0  0  0  0  0  0
   -3.8540   21.9667  -28.9251 H   0  0  0  0  0  0  0  0  0  0  0  0
   -5.5002   22.2221  -29.6277 H   0  0  0  0  0  0  0  0  0  0  0  0
   -3.1189   20.8787  -30.7784 H   0  0  0  0  0  0  0  0  0  0  0  0
   -4.8830   20.7054  -31.1662 H   0  0  0  0  0  0  0  0  0  0  0  0
   -4.4012   23.1841  -32.1899 H   0  0  0  0  0  0  0  0  0  0  0  0
   -2.7877   22.3974  -32.4364 H   0  0  0  0  0  0  0  0  0  0  0  0
   -3.6600   20.9370  -33.9400 H   0  0  0  0  0  0  0  0  0  0  0  0
   -4.6110   22.1900  -34.2280 H   0  0  0  0  0  0  0  0  0  0  0  0
   -5.8301   23.3560  -32.4875 H   0  0  0  0  0  0  0  0  0  0  0  0
   -7.9350   24.4806  -31.8031 H   0  0  0  0  0  0  0  0  0  0  0  0
  -10.0305   23.1679  -31.5648 H   0  0  0  0  0  0  0  0  0  0  0  0
   -9.9958   20.7074  -31.8565 H   0  0  0  0  0  0  0  0  0  0  0  0
   -8.8325   18.4911  -30.6497 H   0  0  0  0  0  0  0  0  0  0  0  0
   -9.8886   18.8329  -32.0620 H   0  0  0  0  0  0  0  0  0  0  0  0
   -8.8310   17.3810  -32.0620 H   0  0  0  0  0  0  0  0  0  0  0  0
   -7.8004   16.6806  -33.1264 H   0  0  0  0  0  0  0  0  0  0  0  0
   -5.8523   15.4339  -33.9887 H   0  0  0  0  0  0  0  0  0  0  0  0
   -3.6648   16.5552  -34.2312 H   0  0  0  0  0  0  0  0  0  0  0  0
   -1.9937   17.5464  -33.0980 H   0  0  0  0  0  0  0  0  0  0  0  0
   -1.4940   18.2275  -34.7046 H   0  0  0  0  0  0  0  0  0  0  0  0
   -0.7173   19.0371  -31.9544 H   0  0  0  0  0  0  0  0  0  0  0  0
    0.1141   19.2636  -33.5801 H   0  0  0  0  0  0  0  0  0  0  0  0
   -0.0282   22.3755  -33.8812 H   0  0  0  0  0  0  0  0  0  0  0  0
   -0.0260   20.8257  -34.7894 H   0  0  0  0  0  0  0  0  0  0  0  0
   -1.4914   21.8647  -34.7894 H   0  0  0  0  0  0  0  0  0  0  0  0
   -1.0695   20.9232  -30.8908 H   0  0  0  0  0  0  0  0  0  0  0  0
    0.3739   21.5760  -31.7378 H   0  0  0  0  0  0  0  0  0  0  0  0
   -1.1639   22.5045  -31.7378 H   0  0  0  0  0  0  0  0  0  0  0  0
  1  2  1  0
  2  3  1  0
  3  4  1  0
  3  5  1  0
  5  6  1  0
  6  7  1  0
  7  8  1  0
  8  9  1  0
  9 10  2  0
 10 11  1  0
 11 12  2  0
 12 13  1  0
 13 14  2  0
 14 15  1  0
 15 16  2  0
 16 17  1  0
 16 18  1  0
 18 19  2  0
 19 20  1  0
 20 21  2  0
 21 22  1  0
 22 23  1  0
 23 24  1  0
 24 25  1  0
 25 26  1  0
 26 27  1  0
 26 28  1  0
 22 29  2  0
 29  9  1  0
 15 10  1  0
 29 18  1  0
  1 30  1  0
  1 31  1  0
  1 32  1  0
  2 33  1  0
  2 34  1  0
  4 35  1  0
  4 36  1  0
  4 37  1  0
  5 38  1  0
  5 39  1  0
  6 40  1  0
  6 41  1  0
  7 42  1  0
  7 43  1  0
  8 44  1  0
  8 45  1  0
 11 46  1  0
 12 47  1  0
 13 48  1  0
 14 49  1  0
 17 50  1  0
 17 51  1  0
 17 52  1  0
 19 53  1  0
 20 54  1  0
 21 55  1  0
 24 56  1  0
 24 57  1  0
 25 58  1  0
 25 59  1  0
 27 60  1  0
 27 61  1  0
 27 62  1  0
 28 63  1  0
 28 64  1  0
 28 65  1  0
M  CHG  2   8   1  16   1
M  END
>  <UniqueID>  (26) 
26

>  <SMILES>  (26) 
CCN(C)CCC[NH2+]c1c2ccccc2[n+](C)c2cccc(OCCN(C)C)c12

>  <Energy>  (26) 
100.88501821535677

>  <Genealogy>  (26) 
CCN(C)CCC[NH2+]c1c2ccccc2[n+](C)c2cccc(OCCN(C)C)c12 (protonated)
CCN(C)CCC[NH2+]c1c2ccccc2[n+](C)c2cccc(OCCN(C)C)c12 (3D coordinates assigned)
CCN(C)CCC[NH2+]c1c2ccccc2[n+](C)c2cccc(OCCN(C)C)c12 (optimized conformer: 100.88501821535677 kcal/mol)

>  <smiles>  (26) 
CCN(C)CCCNc1c2ccccc2[n+](C)c2cccc(OCCN(C)C)c12

>  <score_type>  (26) 
oracle

>  <origin>  (26) 
adg

>  <m_score__min__energy>  (26) 
-7.7199999999999998

>  <m_primary>  (26) 
energy

$$$$
26:0
     RDKit          3D

 35 37  0  0  0  0  0  0  0  0999 V2000
   -5.8860   25.2790  -29.9420 C   0  0  0  0  0  0  0  0  0  0  0  0
   -4.5520   24.5510  -29.8140 C   0  0  0  0  0  0  0  0  0  0  0  0
   -4.2220   23.8610  -31.0730 N   0  0  0  0  0  0  0  0  0  0  0  0
   -5.3830   23.7070  -31.9660 C   0  0  0  0  0  0  0  0  0  0  0  0
   -5.6120   22.2430  -32.3310 C   0  0  0  0  0  0  0  0  0  0  0  0
   -4.5500   21.4060  -32.8050 C   0  0  0  0  0  0  0  0  0  0  0  0
   -3.2280   21.8780  -33.0130 C   0  0  0  0  0  0  0  0  0  0  0  0
   -2.2210   21.0250  -33.4710 C   0  0  0  0  0  0  0  0  0  0  0  0
   -2.4970   19.6880  -33.7370 C   0  0  0  0  0  0  0  0  0  0  0  0
   -3.7860   19.1960  -33.5540 C   0  0  0  0  0  0  0  0  0  0  0  0
   -4.8130   20.0400  -33.0970 C   0  0  0  0  0  0  0  0  0  0  0  0
   -6.0970   19.5170  -32.9420 C   0  0  0  0  0  0  0  0  0  0  0  0
   -7.1490   20.3230  -32.5130 C   0  0  0  0  0  0  0  0  0  0  0  0
   -8.4340   19.7660  -32.3880 C   0  0  0  0  0  0  0  0  0  0  0  0
   -9.5050   20.5520  -31.9690 C   0  0  0  0  0  0  0  0  0  0  0  0
   -9.3070   21.8970  -31.6730 C   0  0  0  0  0  0  0  0  0  0  0  0
   -8.0370   22.4650  -31.7880 C   0  0  0  0  0  0  0  0  0  0  0  0
   -6.9260   21.6910  -32.2070 C   0  0  0  0  0  0  0  0  0  0  0  0
   -6.2831   25.4957  -28.9393 H   0  0  0  0  0  0  0  0  0  0  0  0
   -5.7383   26.2216  -30.4895 H   0  0  0  0  0  0  0  0  0  0  0  0
   -6.5988   24.6448  -30.4895 H   0  0  0  0  0  0  0  0  0  0  0  0
   -3.7617   25.2802  -29.5821 H   0  0  0  0  0  0  0  0  0  0  0  0
   -4.6271   23.8066  -29.0076 H   0  0  0  0  0  0  0  0  0  0  0  0
   -3.5180   24.4440  -31.5820 H   0  0  0  0  0  0  0  0  0  0  0  0
   -6.2790   24.0941  -31.4587 H   0  0  0  0  0  0  0  0  0  0  0  0
   -5.1861   24.2686  -32.8911 H   0  0  0  0  0  0  0  0  0  0  0  0
   -2.9923   22.9331  -32.8102 H   0  0  0  0  0  0  0  0  0  0  0  0
   -1.2030   21.4133  -33.6223 H   0  0  0  0  0  0  0  0  0  0  0  0
   -1.6978   19.0205  -34.0915 H   0  0  0  0  0  0  0  0  0  0  0  0
   -4.0026   18.1391  -33.7685 H   0  0  0  0  0  0  0  0  0  0  0  0
   -6.2810   18.4549  -33.1613 H   0  0  0  0  0  0  0  0  0  0  0  0
   -8.5945   18.7033  -32.6225 H   0  0  0  0  0  0  0  0  0  0  0  0
  -10.5073   20.1093  -31.8721 H   0  0  0  0  0  0  0  0  0  0  0  0
  -10.1557   22.5161  -31.3466 H   0  0  0  0  0  0  0  0  0  0  0  0
   -7.8963   23.5296  -31.5498 H   0  0  0  0  0  0  0  0  0  0  0  0
  1  2  1  0
  2  3  1  0
  3  4  1  0
  4  5  1  0
  5  6  2  0
  6  7  1  0
  7  8  2  0
  8  9  1  0
  9 10  2  0
 10 11  1  0
 11 12  2  0
 12 13  1  0
 13 14  2  0
 14 15  1  0
 15 16  2  0
 16 17  1  0
 17 18  2  0
 18  5  1  0
 11  6  1  0
 18 13  1  0
  1 19  1  0
  1 20  1  0
  1 21  1  0
  2 22  1  0
  2 23  1  0
  3 24  1  0
  4 25  1  0
  4 26  1  0
  7 27  1  0
  8 28  1  0
  9 29  1  0
 10 30  1  0
 12 31  1  0
 14 32  1  0
 15 33  1  0
 16 34  1  0
 17 35  1  0
M  END
>  <UniqueID>  (27) 
27

>  <SMILES>  (27) 
CCNCc1c2ccccc2cc2ccccc12

>  <Energy>  (27) 
49.90468651607188

>  <Genealogy>  (27) 
CCNCc1c2ccccc2cc2ccccc12 (3D coordinates assigned)
CCNCc1c2ccccc2cc2ccccc12 (optimized conformer: 49.90468651607188 kcal/mol)

>  <smiles>  (27) 
CCNCc1c2ccccc2cc2ccccc12

>  <score_type>  (27) 
oracle

>  <origin>  (27) 
adg

>  <m_score__min__energy>  (27) 
-7.9500000000000002

>  <m_primary>  (27) 
energy

$$$$
27:0
     RDKit          3D

 38 39  0  0  0  0  0  0  0  0999 V2000
   -6.2959   24.9827  -28.7235 H   0  0  0  0  0  0  0  0  0  0  0  0
   -5.8490   24.7140  -29.6920 C   0  0  0  0  0  0  0  0  0  0  0  0
   -4.3770   24.7850  -29.8100 C   0  0  0  0  0  0  0  0  0  0  0  0
   -3.8490   25.3160  -30.8260 O   0  0  0  0  0  0  0  0  0  0  0  0
   -3.5100   24.2280  -28.7030 C   0  0  0  0  0  0  0  0  0  0  0  0
   -3.7544   24.7375  -27.7592 H   0  0  0  0  0  0  0  0  0  0  0  0
   -3.8080   22.7590  -28.4930 C   0  0  0  0  0  0  0  0  0  0  0  0
   -4.9600   22.4080  -28.2770 O   0  0  0  0  0  0  0  0  0  0  0  0
   -2.7160   21.7260  -28.4310 C   0  0  0  0  0  0  0  0  0  0  0  0
   -3.1440   20.7424  -28.6744 H   0  0  0  0  0  0  0  0  0  0  0  0
   -2.2957   21.7380  -27.4145 H   0  0  0  0  0  0  0  0  0  0  0  0
   -1.5720   22.0300  -29.4220 C   0  0  0  0  0  0  0  0  0  0  0  0
   -0.4510   20.9890  -29.2180 C   0  0  0  0  0  0  0  0  0  0  0  0
   -0.2851   20.8350  -28.1415 H   0  0  0  0  0  0  0  0  0  0  0  0
   -0.7456   20.0369  -29.6835 H   0  0  0  0  0  0  0  0  0  0  0  0
    0.4767   21.3532  -29.6835 H   0  0  0  0  0  0  0  0  0  0  0  0
   -2.0710   21.9150  -30.8820 C   0  0  0  0  0  0  0  0  0  0  0  0
   -3.1429   21.6680  -30.8847 H   0  0  0  0  0  0  0  0  0  0  0  0
   -1.9141   22.8728  -31.3996 H   0  0  0  0  0  0  0  0  0  0  0  0
   -1.5107   21.1224  -31.3996 H   0  0  0  0  0  0  0  0  0  0  0  0
   -0.9980   23.4420  -29.1460 C   0  0  0  0  0  0  0  0  0  0  0  0
   -0.3618   23.7263  -29.9971 H   0  0  0  0  0  0  0  0  0  0  0  0
   -0.4445   23.3740  -28.1978 H   0  0  0  0  0  0  0  0  0  0  0  0
   -2.0420   24.5190  -28.9570 C   0  0  0  0  0  0  0  0  0  0  0  0
   -1.6750   25.6840  -28.9720 O   0  0  0  0  0  0  0  0  0  0  0  0
   -6.6800   24.3460  -30.6790 C   0  0  0  0  0  0  0  0  0  0  0  0
   -7.2289   25.1425  -31.2028 H   0  0  0  0  0  0  0  0  0  0  0  0
   -6.9160   22.9540  -31.1180 C   0  0  0  0  0  0  0  0  0  0  0  0
   -8.1360   22.3020  -30.8630 C   0  0  0  0  0  0  0  0  0  0  0  0
   -8.9270   22.8209  -30.3017 H   0  0  0  0  0  0  0  0  0  0  0  0
   -8.3480   20.9990  -31.3190 C   0  0  0  0  0  0  0  0  0  0  0  0
   -9.2978   20.4888  -31.1011 H   0  0  0  0  0  0  0  0  0  0  0  0
   -7.3550   20.3420  -32.0520 C   0  0  0  0  0  0  0  0  0  0  0  0
   -7.6470   18.5610  -32.6760 Br  0  0  0  0  0  0  0  0  0  0  0  0
   -6.1520   20.9950  -32.3370 C   0  0  0  0  0  0  0  0  0  0  0  0
   -5.3736   20.4814  -32.9204 H   0  0  0  0  0  0  0  0  0  0  0  0
   -5.9360   22.3000  -31.8820 C   0  0  0  0  0  0  0  0  0  0  0  0
   -4.9950   22.8158  -32.1236 H   0  0  0  0  0  0  0  0  0  0  0  0
  1  2  1  0
  2  3  1  0
  3  4  2  0
  3  5  1  0
  5  6  1  0
  5  7  1  0
  7  8  2  0
  7  9  1  0
  9 10  1  0
  9 11  1  0
  9 12  1  0
 12 13  1  0
 13 14  1  0
 13 15  1  0
 13 16  1  0
 12 17  1  0
 17 18  1  0
 17 19  1  0
 17 20  1  0
 12 21  1  0
 21 22  1  0
 21 23  1  0
 21 24  1  0
 24 25  2  0
  2 26  2  0
 26 27  1  0
 26 28  1  0
 28 29  2  0
 29 30  1  0
 29 31  1  0
 31 32  1  0
 31 33  2  0
 33 34  1  0
 33 35  1  0
 35 36  1  0
 35 37  2  0
 37 38  1  0
 24  5  1  0
 37 28  1  0
M  END
>  <UniqueID>  (28) 
28

>  <SMILES>  (28) 
CC1(C)CC(=O)C(C(=O)/C=C\c2ccc(Br)cc2)C(=O)C1

>  <Energy>  (28) 
43.13145605557429

>  <Genealogy>  (28) 
CC1(C)CC(=O)C(C(=O)/C=C\c2ccc(Br)cc2)C(=O)C1 (cis-trans isomerization)
CC1(C)CC(=O)C(C(=O)/C=C\c2ccc(Br)cc2)C(=O)C1 (3D coordinates assigned)
CC1(C)CC(=O)C(C(=O)/C=C\c2ccc(Br)cc2)C(=O)C1 (nonaromatic ring conformer: 43.13145605557429 kcal/mol)

>  <smiles>  (28) 
CC1(C)CC(=O)C(C(=O)C=Cc2ccc(Br)cc2)C(=O)C1

>  <score_type>  (28) 
oracle

>  <origin>  (28) 
adg

>  <m_score__min__energy>  (28) 
-9.3699999999999992

>  <m_primary>  (28) 
energy

$$$$
28:0
     RDKit          3D

 61 63  0  0  0  0  0  0  0  0999 V2000
   -6.4890   25.2080  -29.8630 C   0  0  0  0  0  0  0  0  0  0  0  0
   -5.3590   25.9950  -30.5180 C   0  0  0  0  0  0  0  0  0  0  0  0
   -4.1800   25.1500  -30.7320 N   0  0  0  0  0  0  0  0  0  0  0  0
   -3.8530   24.0380  -29.8710 C   0  0  0  0  0  0  0  0  0  0  0  0
   -3.8800   24.1960  -28.4700 C   0  0  0  0  0  0  0  0  0  0  0  0
   -3.5370   23.1390  -27.6250 C   0  0  0  0  0  0  0  0  0  0  0  0
   -3.1560   21.9110  -28.1610 C   0  0  0  0  0  0  0  0  0  0  0  0
   -3.1280   21.7300  -29.5430 C   0  0  0  0  0  0  0  0  0  0  0  0
   -3.4890   22.7770  -30.4120 C   0  0  0  0  0  0  0  0  0  0  0  0
   -3.4450   22.5240  -31.8980 C   0  0  0  0  0  0  0  0  0  0  0  0
   -4.7890   22.1570  -32.3670 N   0  0  0  0  0  0  0  0  0  0  0  0
   -4.9240   20.7170  -32.6500 C   0  0  0  0  0  0  0  0  0  0  0  0
   -6.1830   20.4820  -33.5070 C   0  0  0  0  0  0  0  0  0  0  0  0
   -6.1240   19.2160  -34.3900 C   0  0  0  0  0  0  0  0  0  0  0  0
   -5.1790   18.1880  -33.9070 N   0  0  0  0  0  0  0  0  0  0  0  0
   -5.7510   17.0440  -33.1640 C   0  0  0  0  0  0  0  0  0  0  0  0
   -7.2240   17.2290  -32.7650 C   0  0  0  0  0  0  0  0  0  0  0  0
   -7.3470   18.1440  -31.6250 N   0  0  0  0  0  0  0  0  0  0  0  0
   -8.7020   18.7030  -31.5570 C   0  0  0  0  0  0  0  0  0  0  0  0
   -8.6330   20.2060  -31.5460 C   0  0  0  0  0  0  0  0  0  0  0  0
   -9.5650   20.9610  -32.2780 C   0  0  0  0  0  0  0  0  0  0  0  0
   -9.4830   22.3570  -32.2950 C   0  0  0  0  0  0  0  0  0  0  0  0
   -8.4670   23.0070  -31.5900 C   0  0  0  0  0  0  0  0  0  0  0  0
   -7.5280   22.2630  -30.8700 C   0  0  0  0  0  0  0  0  0  0  0  0
   -7.6060   20.8680  -30.8520 C   0  0  0  0  0  0  0  0  0  0  0  0
   -3.8230   18.6230  -33.5020 C   0  0  0  0  0  0  0  0  0  0  0  0
   -3.6890   20.1450  -33.3650 C   0  0  0  0  0  0  0  0  0  0  0  0
   -6.3952   25.2734  -28.7690 H   0  0  0  0  0  0  0  0  0  0  0  0
   -7.4568   25.6285  -30.1738 H   0  0  0  0  0  0  0  0  0  0  0  0
   -6.4302   24.1545  -30.1738 H   0  0  0  0  0  0  0  0  0  0  0  0
   -5.7054   26.3803  -31.4883 H   0  0  0  0  0  0  0  0  0  0  0  0
   -5.0781   26.8228  -29.8504 H   0  0  0  0  0  0  0  0  0  0  0  0
   -3.5840   25.3400  -31.5690 H   0  0  0  0  0  0  0  0  0  0  0  0
   -4.1748   25.1636  -28.0378 H   0  0  0  0  0  0  0  0  0  0  0  0
   -3.5677   23.2761  -26.5340 H   0  0  0  0  0  0  0  0  0  0  0  0
   -2.8768   21.0830  -27.4929 H   0  0  0  0  0  0  0  0  0  0  0  0
   -2.8207   20.7591  -29.9587 H   0  0  0  0  0  0  0  0  0  0  0  0
   -3.1107   23.4348  -32.4163 H   0  0  0  0  0  0  0  0  0  0  0  0
   -2.7429   21.7048  -32.1123 H   0  0  0  0  0  0  0  0  0  0  0  0
   -5.0020   22.7070  -33.2330 H   0  0  0  0  0  0  0  0  0  0  0  0
   -5.0144   20.1918  -31.6877 H   0  0  0  0  0  0  0  0  0  0  0  0
   -7.0470   20.3914  -32.8322 H   0  0  0  0  0  0  0  0  0  0  0  0
   -6.2628   21.3396  -34.1912 H   0  0  0  0  0  0  0  0  0  0  0  0
   -7.1297   18.7718  -34.4249 H   0  0  0  0  0  0  0  0  0  0  0  0
   -5.7666   19.5357  -35.3800 H   0  0  0  0  0  0  0  0  0  0  0  0
   -5.6744   16.1477  -33.7971 H   0  0  0  0  0  0  0  0  0  0  0  0
   -5.1778   16.9538  -32.2295 H   0  0  0  0  0  0  0  0  0  0  0  0
   -7.7795   17.6421  -33.6199 H   0  0  0  0  0  0  0  0  0  0  0  0
   -7.6352   16.2505  -32.4760 H   0  0  0  0  0  0  0  0  0  0  0  0
   -6.6750   18.9330  -31.7750 H   0  0  0  0  0  0  0  0  0  0  0  0
   -9.2787   18.3703  -32.4326 H   0  0  0  0  0  0  0  0  0  0  0  0
   -9.1928   18.3551  -30.6361 H   0  0  0  0  0  0  0  0  0  0  0  0
  -10.3621   20.4521  -32.8398 H   0  0  0  0  0  0  0  0  0  0  0  0
  -10.2192   22.9438  -32.8640 H   0  0  0  0  0  0  0  0  0  0  0  0
   -8.4060   24.1052  -31.6015 H   0  0  0  0  0  0  0  0  0  0  0  0
   -6.7272   22.7760  -30.3172 H   0  0  0  0  0  0  0  0  0  0  0  0
   -6.8599   20.2852  -30.2919 H   0  0  0  0  0  0  0  0  0  0  0  0
   -3.5841   18.1629  -32.5319 H   0  0  0  0  0  0  0  0  0  0  0  0
   -3.1290   18.3051  -34.2940 H   0  0  0  0  0  0  0  0  0  0  0  0
   -2.7875   20.3806  -32.7804 H   0  0  0  0  0  0  0  0  0  0  0  0
   -3.6105   20.5932  -34.3665 H   0  0  0  0  0  0  0  0  0  0  0  0
  1  2  1  0
  2  3  1  0
  3  4  1  0
  4  5  2  0
  5  6  1  0
  6  7  2  0
  7  8  1  0
  8  9  2  0
  9 10  1  0
 10 11  1  0
 11 12  1  0
 12 13  1  0
 13 14  1  0
 14 15  1  0
 15 16  1  0
 16 17  1  0
 17 18  1  0
 18 19  1  0
 19 20  1  0
 20 21  2  0
 21 22  1  0
 22 23  2  0
 23 24  1  0
 24 25  2  0
 15 26  1  0
 26 27  1  0
  9  4  1  0
 27 12  1  0
 25 20  1  0
  1 28  1  0
  1 29  1  0
  1 30  1  0
  2 31  1  0
  2 32  1  0
  3 33  1  0
  5 34  1  0
  6 35  1  0
  7 36  1  0
  8 37  1  0
 10 38  1  0
 10 39  1  0
 11 40  1  0
 12 41  1  0
 13 42  1  0
 13 43  1  0
 14 44  1  0
 14 45  1  0
 16 46  1  0
 16 47  1  0
 17 48  1  0
 17 49  1  0
 18 50  1  0
 19 51  1  0
 19 52  1  0
 21 53  1  0
 22 54  1  0
 23 55  1  0
 24 56  1  0
 25 57  1  0
 26 58  1  0
 26 59  1  0
 27 60  1  0
 27 61  1  0
M  END
>  <UniqueID>  (29) 
29

>  <SMILES>  (29) 
CCNc1ccccc1CNC1CCN(CCNCc2ccccc2)CC1

>  <Energy>  (29) 
68.5859568920137

>  <Genealogy>  (29) 
CCNc1ccccc1CNC1CCN(CCNCc2ccccc2)CC1 (3D coordinates assigned)
CCNc1ccccc1CNC1CCN(CCNCc2ccccc2)CC1 (nonaromatic ring conformer: 68.5859568920137 kcal/mol)

>  <smiles>  (29) 
CCNc1ccccc1CNC1CCN(CCNCc2ccccc2)CC1

>  <score_type>  (29) 
oracle

>  <origin>  (29) 
adg

>  <m_score__min__energy>  (29) 
-9.3000000000000007

>  <m_primary>  (29) 
energy

$$$$
