0:0
     RDKit          3D

 42 44  0  0  0  0  0  0  0  0999 V2000
   -0.3423   23.4358  -28.3348 H   0  0  0  0  0  0  0  0  0  0  0  0
   -1.1950   23.2840  -29.0130 C   0  0  0  0  0  0  0  0  0  0  0  0
   -1.4470   22.0160  -29.5360 C   0  0  0  0  0  0  0  0  0  0  0  0
   -0.7807   21.1786  -29.2815 H   0  0  0  0  0  0  0  0  0  0  0  0
   -2.5420   21.8000  -30.3830 C   0  0  0  0  0  0  0  0  0  0  0  0
   -2.7710   20.4270  -30.9700 C   0  0  0  0  0  0  0  0  0  0  0  0
   -1.7978   19.9890  -31.2365 H   0  0  0  0  0  0  0  0  0  0  0  0
   -3.2904   19.8194  -30.2144 H   0  0  0  0  0  0  0  0  0  0  0  0
   -3.6120   20.4700  -32.1670 N   0  0  0  0  0  0  0  0  0  0  0  0
   -4.8970   20.3130  -32.3720 C   0  0  0  0  0  0  0  0  0  0  0  0
   -5.4880   19.2910  -33.1830 C   0  0  0  0  0  0  0  0  0  0  0  0
   -4.7360   18.2930  -34.0100 C   0  0  0  0  0  0  0  0  0  0  0  0
   -4.2076   17.5917  -33.3475 H   0  0  0  0  0  0  0  0  0  0  0  0
   -5.4415   17.7369  -34.6448 H   0  0  0  0  0  0  0  0  0  0  0  0
   -4.0069   18.8178  -34.6448 H   0  0  0  0  0  0  0  0  0  0  0  0
   -6.8460   19.2350  -33.2710 N   0  0  0  0  0  0  0  0  0  0  0  0
   -7.6560   20.1080  -32.6290 C   0  0  0  0  0  0  0  0  0  0  0  0
   -9.0460   20.0060  -32.7450 C   0  0  0  0  0  0  0  0  0  0  0  0
   -9.4907   19.2080  -33.3576 H   0  0  0  0  0  0  0  0  0  0  0  0
   -9.8690   20.9200  -32.0810 C   0  0  0  0  0  0  0  0  0  0  0  0
  -10.9624   20.8402  -32.1714 H   0  0  0  0  0  0  0  0  0  0  0  0
   -9.3050   21.9370  -31.3010 C   0  0  0  0  0  0  0  0  0  0  0  0
   -9.9556   22.6547  -30.7798 H   0  0  0  0  0  0  0  0  0  0  0  0
   -7.9150   22.0410  -31.1840 C   0  0  0  0  0  0  0  0  0  0  0  0
   -7.4730   22.8406  -30.5714 H   0  0  0  0  0  0  0  0  0  0  0  0
   -7.0830   21.1240  -31.8490 C   0  0  0  0  0  0  0  0  0  0  0  0
   -5.7290   21.2010  -31.7490 N   0  0  0  0  0  0  0  0  0  0  0  0
   -5.3080   21.9580  -31.1600 H   0  0  0  0  0  0  0  0  0  0  0  0
   -3.3520   22.8900  -30.7450 C   0  0  0  0  0  0  0  0  0  0  0  0
   -4.1867   22.7395  -31.4455 H   0  0  0  0  0  0  0  0  0  0  0  0
   -3.1050   24.1740  -30.2190 C   0  0  0  0  0  0  0  0  0  0  0  0
   -3.9100   25.2780  -30.5420 O   0  0  0  0  0  0  0  0  0  0  0  0
   -5.3280   25.3130  -30.4000 C   0  0  0  0  0  0  0  0  0  0  0  0
   -5.5895   25.3195  -29.3315 H   0  0  0  0  0  0  0  0  0  0  0  0
   -5.7222   26.2211  -30.8794 H   0  0  0  0  0  0  0  0  0  0  0  0
   -5.7665   24.4254  -30.8794 H   0  0  0  0  0  0  0  0  0  0  0  0
   -2.0240   24.3700  -29.3470 C   0  0  0  0  0  0  0  0  0  0  0  0
   -1.8050   25.6600  -28.8360 O   0  0  0  0  0  0  0  0  0  0  0  0
   -1.1530   25.9380  -27.6010 C   0  0  0  0  0  0  0  0  0  0  0  0
   -1.8125   25.6568  -26.7668 H   0  0  0  0  0  0  0  0  0  0  0  0
   -0.2191   25.3598  -27.5411 H   0  0  0  0  0  0  0  0  0  0  0  0
   -0.9237   27.0122  -27.5411 H   0  0  0  0  0  0  0  0  0  0  0  0
  1  2  1  0
  2  3  2  0
  3  4  1  0
  3  5  1  0
  5  6  1  0
  6  7  1  0
  6  8  1  0
  6  9  1  0
  9 10  2  0
 10 11  1  0
 11 12  1  0
 12 13  1  0
 12 14  1  0
 12 15  1  0
 11 16  2  0
 16 17  1  0
 17 18  2  0
 18 19  1  0
 18 20  1  0
 20 21  1  0
 20 22  2  0
 22 23  1  0
 22 24  1  0
 24 25  1  0
 24 26  2  0
 26 27  1  0
 27 28  1  0
  5 29  2  0
 29 30  1  0
 29 31  1  0
 31 32  1  0
 32 33  1  0
 33 34  1  0
 33 35  1  0
 33 36  1  0
 31 37  2  0
 37 38  1  0
 38 39  1  0
 39 40  1  0
 39 41  1  0
 39 42  1  0
 37  2  1  0
 27 10  1  0
 26 17  1  0
M  END
>  <UniqueID>  (1) 
1

>  <SMILES>  (1) 
COc1ccc(C/N=c2/[nH]c3ccccc3nc2C)cc1OC

>  <Energy>  (1) 
58.50800751594212

>  <Genealogy>  (1) 
COc1ccc(C/N=c2/[nH]c3ccccc3nc2C)cc1OC (cis-trans isomerization)
COc1ccc(C/N=c2/[nH]c3ccccc3nc2C)cc1OC (3D coordinates assigned)
COc1ccc(C/N=c2/[nH]c3ccccc3nc2C)cc1OC (optimized conformer: 58.50800751594212 kcal/mol)

>  <smiles>  (1) 
COc1ccc(CN=c2[nH]c3ccccc3nc2C)cc1OC

>  <score_type>  (1) 
oracle

>  <origin>  (1) 
adg

>  <m_score__min__energy>  (1) 
-8.4499999999999993

>  <m_primary>  (1) 
energy

$$$$
1:0
     RDKit          3D

 28 29  0  0  0  0  0  0  0  0999 V2000
   -2.1560   24.9300  -28.7280 C   0  0  0  0  0  0  0  0  0  0  0  0
   -3.1010   25.2980  -29.7270 O   0  0  0  0  0  0  0  0  0  0  0  0
   -4.2330   24.5410  -30.0650 C   0  0  0  0  0  0  0  0  0  0  0  0
   -5.5410   24.9670  -29.7700 C   0  0  0  0  0  0  0  0  0  0  0  0
   -6.6400   24.1800  -30.1250 C   0  0  0  0  0  0  0  0  0  0  0  0
   -6.4500   22.9550  -30.7810 C   0  0  0  0  0  0  0  0  0  0  0  0
   -7.5470   22.1590  -31.1400 C   0  0  0  0  0  0  0  0  0  0  0  0
   -7.3550   20.9350  -31.8080 C   0  0  0  0  0  0  0  0  0  0  0  0
   -8.5400   20.0570  -32.1590 C   0  0  0  0  0  0  0  0  0  0  0  0
   -8.9240   20.2800  -33.4710 F   0  0  0  0  0  0  0  0  0  0  0  0
   -9.6190   20.3720  -31.3470 F   0  0  0  0  0  0  0  0  0  0  0  0
   -8.1950   18.5740  -31.9820 C   0  0  0  0  0  0  0  0  0  0  0  0
   -7.5310   18.0990  -33.0990 F   0  0  0  0  0  0  0  0  0  0  0  0
   -7.3760   18.4180  -30.8780 F   0  0  0  0  0  0  0  0  0  0  0  0
   -9.3470   17.8330  -31.7900 F   0  0  0  0  0  0  0  0  0  0  0  0
   -6.0440   20.5040  -32.0820 C   0  0  0  0  0  0  0  0  0  0  0  0
   -4.9470   21.2920  -31.7280 C   0  0  0  0  0  0  0  0  0  0  0  0
   -5.1380   22.5200  -31.0790 C   0  0  0  0  0  0  0  0  0  0  0  0
   -4.0410   23.3170  -30.7190 C   0  0  0  0  0  0  0  0  0  0  0  0
   -2.5908   25.0993  -27.7319 H   0  0  0  0  0  0  0  0  0  0  0  0
   -1.8994   23.8662  -28.8401 H   0  0  0  0  0  0  0  0  0  0  0  0
   -1.2476   25.5401  -28.8401 H   0  0  0  0  0  0  0  0  0  0  0  0
   -5.6998   25.9266  -29.2562 H   0  0  0  0  0  0  0  0  0  0  0  0
   -7.6582   24.5228  -29.8889 H   0  0  0  0  0  0  0  0  0  0  0  0
   -8.5663   22.4939  -30.8976 H   0  0  0  0  0  0  0  0  0  0  0  0
   -5.8816   19.5367  -32.5800 H   0  0  0  0  0  0  0  0  0  0  0  0
   -3.9282   20.9477  -31.9594 H   0  0  0  0  0  0  0  0  0  0  0  0
   -3.0209   22.9778  -30.9523 H   0  0  0  0  0  0  0  0  0  0  0  0
  1  2  1  0
  2  3  1  0
  3  4  2  0
  4  5  1  0
  5  6  2  0
  6  7  1  0
  7  8  2  0
  8  9  1  0
  9 10  1  0
  9 11  1  0
  9 12  1  0
 12 13  1  0
 12 14  1  0
 12 15  1  0
  8 16  1  0
 16 17  2  0
 17 18  1  0
 18 19  2  0
 19  3  1  0
 18  6  1  0
  1 20  1  0
  1 21  1  0
  1 22  1  0
  4 23  1  0
  5 24  1  0
  7 25  1  0
 16 26  1  0
 17 27  1  0
 19 28  1  0
M  END
>  <UniqueID>  (2) 
2

>  <SMILES>  (2) 
COc1ccc2cc(C(F)(F)C(F)(F)F)ccc2c1

>  <Energy>  (2) 
29.85576468451564

>  <Genealogy>  (2) 
COc1ccc2cc(C(F)(F)C(F)(F)F)ccc2c1 (3D coordinates assigned)
COc1ccc2cc(C(F)(F)C(F)(F)F)ccc2c1 (optimized conformer: 29.85576468451564 kcal/mol)

>  <smiles>  (2) 
COc1ccc2cc(C(F)(F)C(F)(F)F)ccc2c1

>  <score_type>  (2) 
oracle

>  <origin>  (2) 
adg

>  <m_score__min__energy>  (2) 
-6.3099999999999996

>  <m_primary>  (2) 
energy

$$$$
2:0
     RDKit          3D

 33 32  0  0  0  0  0  0  0  0999 V2000
   -6.4780   25.6350  -29.5940 C   0  0  0  0  0  0  0  0  0  0  0  0
   -5.2230   24.8030  -29.8000 C   0  0  0  0  0  0  0  0  0  0  0  0
   -4.9780   24.6450  -31.1930 O   0  0  0  0  0  0  0  0  0  0  0  0
   -5.7300   23.7860  -31.9970 C   0  0  0  0  0  0  0  0  0  0  0  0
   -6.9780   23.9380  -32.1040 O   0  0  0  0  0  0  0  0  0  0  0  0
   -5.0760   22.7580  -32.6850 O   0  0  0  0  0  0  0  0  0  0  0  0
   -4.5570   21.5900  -32.0510 C   0  0  0  0  0  0  0  0  0  0  0  0
   -5.6820   20.6080  -31.6710 C   0  0  0  0  0  0  0  0  0  0  0  0
   -7.0150   21.0190  -32.1940 N   0  0  0  0  0  0  0  0  0  0  0  0
   -7.5690   19.9760  -33.0980 C   0  0  0  0  0  0  0  0  0  0  0  0
   -8.1710   18.7790  -32.3450 C   0  0  0  0  0  0  0  0  0  0  0  0
   -7.9720   21.2890  -31.0760 C   0  0  0  0  0  0  0  0  0  0  0  0
   -9.2700   21.9320  -31.5730 C   0  0  0  0  0  0  0  0  0  0  0  0
   -6.6636   25.7581  -28.5168 H   0  0  0  0  0  0  0  0  0  0  0  0
   -6.3431   26.6232  -30.0581 H   0  0  0  0  0  0  0  0  0  0  0  0
   -7.3356   25.1260  -30.0581 H   0  0  0  0  0  0  0  0  0  0  0  0
   -4.3663   25.3109  -29.3330 H   0  0  0  0  0  0  0  0  0  0  0  0
   -5.3608   23.8138  -29.3389 H   0  0  0  0  0  0  0  0  0  0  0  0
   -3.8617   21.0881  -32.7400 H   0  0  0  0  0  0  0  0  0  0  0  0
   -4.0407   21.8974  -31.1296 H   0  0  0  0  0  0  0  0  0  0  0  0
   -5.4353   19.6171  -32.0801 H   0  0  0  0  0  0  0  0  0  0  0  0
   -5.7495   20.5940  -30.5732 H   0  0  0  0  0  0  0  0  0  0  0  0
   -6.8900   21.8850  -32.7710 H   0  0  0  0  0  0  0  0  0  0  0  0
   -8.3564   20.4318  -33.7163 H   0  0  0  0  0  0  0  0  0  0  0  0
   -6.7354   19.5940  -33.7055 H   0  0  0  0  0  0  0  0  0  0  0  0
   -8.0863   18.9474  -31.2613 H   0  0  0  0  0  0  0  0  0  0  0  0
   -9.2311   18.6700  -32.6174 H   0  0  0  0  0  0  0  0  0  0  0  0
   -7.6264   17.8629  -32.6174 H   0  0  0  0  0  0  0  0  0  0  0  0
   -8.2146   20.3381  -30.5790 H   0  0  0  0  0  0  0  0  0  0  0  0
   -7.4906   21.9912  -30.3795 H   0  0  0  0  0  0  0  0  0  0  0  0
   -9.8824   22.2354  -30.7110 H   0  0  0  0  0  0  0  0  0  0  0  0
   -9.0313   22.8161  -32.1825 H   0  0  0  0  0  0  0  0  0  0  0  0
   -9.8287   21.2064  -32.1825 H   0  0  0  0  0  0  0  0  0  0  0  0
  1  2  1  0
  2  3  1  0
  3  4  1  0
  4  5  2  0
  4  6  1  0
  6  7  1  0
  7  8  1  0
  8  9  1  0
  9 10  1  0
 10 11  1  0
  9 12  1  0
 12 13  1  0
  1 14  1  0
  1 15  1  0
  1 16  1  0
  2 17  1  0
  2 18  1  0
  7 19  1  0
  7 20  1  0
  8 21  1  0
  8 22  1  0
  9 23  1  0
 10 24  1  0
 10 25  1  0
 11 26  1  0
 11 27  1  0
 11 28  1  0
 12 29  1  0
 12 30  1  0
 13 31  1  0
 13 32  1  0
 13 33  1  0
M  CHG  1   9   1
M  END
>  <UniqueID>  (3) 
3

>  <SMILES>  (3) 
CCOC(=O)OCC[NH+](CC)CC

>  <Energy>  (3) 
24.515150088415826

>  <Genealogy>  (3) 
CCOC(=O)OCC[NH+](CC)CC (protonated)
CCOC(=O)OCC[NH+](CC)CC (3D coordinates assigned)
CCOC(=O)OCC[NH+](CC)CC (optimized conformer: 24.515150088415826 kcal/mol)

>  <smiles>  (3) 
CCOC(=O)OCCN(CC)CC

>  <score_type>  (3) 
oracle

>  <origin>  (3) 
adg

>  <m_score__min__energy>  (3) 
-3.5099999999999998

>  <m_primary>  (3) 
energy

$$$$
3:0
     RDKit          3D

 29 30  0  0  0  0  0  0  0  0999 V2000
   -2.7340   18.9040  -26.3010 C   0  0  0  0  0  0  0  0  0  0  0  0
   -1.9070   19.4330  -27.3330 O   0  0  0  0  0  0  0  0  0  0  0  0
   -2.0210   20.7310  -27.8520 C   0  0  0  0  0  0  0  0  0  0  0  0
   -3.1370   21.4950  -27.4940 C   0  0  0  0  0  0  0  0  0  0  0  0
   -3.2980   22.7940  -27.9840 C   0  0  0  0  0  0  0  0  0  0  0  0
   -2.3390   23.3540  -28.8470 C   0  0  0  0  0  0  0  0  0  0  0  0
   -2.5050   24.7330  -29.3670 C   0  0  0  0  0  0  0  0  0  0  0  0
   -1.7440   25.6530  -28.9620 O   0  0  0  0  0  0  0  0  0  0  0  0
   -3.4950   25.0080  -30.3690 N   0  0  0  0  0  0  0  0  0  0  0  0
   -4.7660   24.3600  -30.5170 C   0  0  0  0  0  0  0  0  0  0  0  0
   -5.0560   23.5100  -31.5960 C   0  0  0  0  0  0  0  0  0  0  0  0
   -6.3200   22.9260  -31.7030 C   0  0  0  0  0  0  0  0  0  0  0  0
   -7.2890   23.2090  -30.7390 C   0  0  0  0  0  0  0  0  0  0  0  0
   -7.0030   24.0530  -29.7110 N   0  0  0  0  0  0  0  0  0  0  0  0
   -5.7770   24.6340  -29.5890 C   0  0  0  0  0  0  0  0  0  0  0  0
   -1.2170   22.5860  -29.2050 C   0  0  0  0  0  0  0  0  0  0  0  0
   -1.0590   21.2870  -28.7140 C   0  0  0  0  0  0  0  0  0  0  0  0
   -2.3139   19.1727  -25.3205 H   0  0  0  0  0  0  0  0  0  0  0  0
   -3.7474   19.3220  -26.3927 H   0  0  0  0  0  0  0  0  0  0  0  0
   -2.7794   17.8088  -26.3927 H   0  0  0  0  0  0  0  0  0  0  0  0
   -3.8952   21.0692  -26.8203 H   0  0  0  0  0  0  0  0  0  0  0  0
   -4.1807   23.3823  -27.6927 H   0  0  0  0  0  0  0  0  0  0  0  0
   -4.2883   23.3042  -32.3565 H   0  0  0  0  0  0  0  0  0  0  0  0
   -6.5499   22.2493  -32.5392 H   0  0  0  0  0  0  0  0  0  0  0  0
   -8.2856   22.7488  -30.8106 H   0  0  0  0  0  0  0  0  0  0  0  0
   -7.7410   24.2630  -29.0030 H   0  0  0  0  0  0  0  0  0  0  0  0
   -5.5802   25.3236  -28.7549 H   0  0  0  0  0  0  0  0  0  0  0  0
   -0.4571   23.0111  -29.8772 H   0  0  0  0  0  0  0  0  0  0  0  0
   -0.1773   20.6963  -29.0034 H   0  0  0  0  0  0  0  0  0  0  0  0
  1  2  1  0
  2  3  1  0
  3  4  2  0
  4  5  1  0
  5  6  2  0
  6  7  1  0
  7  8  2  0
  7  9  1  0
  9 10  1  0
 10 11  2  0
 11 12  1  0
 12 13  2  0
 13 14  1  0
 14 15  2  0
  6 16  1  0
 16 17  2  0
 17  3  1  0
 15 10  1  0
  1 18  1  0
  1 19  1  0
  1 20  1  0
  4 21  1  0
  5 22  1  0
 11 23  1  0
 12 24  1  0
 13 25  1  0
 14 26  1  0
 15 27  1  0
 16 28  1  0
 17 29  1  0
M  CHG  2   9  -1  14   1
M  END
>  <UniqueID>  (4) 
4

>  <SMILES>  (4) 
COc1ccc(C(=O)[N-]c2ccc[nH+]c2)cc1

>  <Energy>  (4) 
33.29206719352816

>  <Genealogy>  (4) 
COc1ccc(C(=O)[N-]c2ccc[nH+]c2)cc1 (protonated)
COc1ccc(C(=O)[N-]c2ccc[nH+]c2)cc1 (3D coordinates assigned)
COc1ccc(C(=O)[N-]c2ccc[nH+]c2)cc1 (optimized conformer: 33.29206719352816 kcal/mol)

>  <smiles>  (4) 
COc1ccc(C(=O)Nc2cccnc2)cc1

>  <score_type>  (4) 
oracle

>  <origin>  (4) 
adg

>  <m_score__min__energy>  (4) 
-6.8499999999999996

>  <m_primary>  (4) 
energy

$$$$
4:0
     RDKit          3D

 45 47  0  0  0  0  0  0  0  0999 V2000
   -9.1980   21.8440  -30.5610 C   0  0  0  0  0  0  0  0  0  0  0  0
   -9.1420   22.4730  -31.9500 C   0  0  0  0  0  0  0  0  0  0  0  0
   -7.9460   23.4240  -32.1210 C   0  0  0  0  0  0  0  0  0  0  0  0
   -6.7350   22.9850  -31.4000 N   0  0  0  0  0  0  0  0  0  0  0  0
   -6.2100   23.7590  -30.2610 C   0  0  0  0  0  0  0  0  0  0  0  0
   -5.6830   25.1260  -30.7050 C   0  0  0  0  0  0  0  0  0  0  0  0
   -4.2780   25.0610  -30.8160 O   0  0  0  0  0  0  0  0  0  0  0  0
   -3.7730   24.1630  -29.8520 C   0  0  0  0  0  0  0  0  0  0  0  0
   -5.8320   22.0870  -32.0710 C   0  0  0  0  0  0  0  0  0  0  0  0
   -4.5980   22.5170  -32.4760 N   0  0  0  0  0  0  0  0  0  0  0  0
   -3.7070   21.6780  -33.0940 C   0  0  0  0  0  0  0  0  0  0  0  0
   -4.0310   20.3710  -33.3240 N   0  0  0  0  0  0  0  0  0  0  0  0
   -5.2620   19.9380  -32.9460 C   0  0  0  0  0  0  0  0  0  0  0  0
   -6.1480   20.7500  -32.3100 C   0  0  0  0  0  0  0  0  0  0  0  0
   -7.2030   19.9340  -31.9560 C   0  0  0  0  0  0  0  0  0  0  0  0
   -6.9330   18.6760  -32.3850 N   0  0  0  0  0  0  0  0  0  0  0  0
   -5.7520   18.6820  -32.9970 N   0  0  0  0  0  0  0  0  0  0  0  0
   -5.1530   17.5150  -33.5780 C   0  0  0  0  0  0  0  0  0  0  0  0
   -4.4320   17.5990  -34.7820 C   0  0  0  0  0  0  0  0  0  0  0  0
   -3.8750   16.4490  -35.3520 C   0  0  0  0  0  0  0  0  0  0  0  0
   -4.0450   15.2080  -34.7340 C   0  0  0  0  0  0  0  0  0  0  0  0
   -4.7800   15.1120  -33.5490 C   0  0  0  0  0  0  0  0  0  0  0  0
   -5.3390   16.2600  -32.9760 C   0  0  0  0  0  0  0  0  0  0  0  0
   -9.1277   22.6332  -29.7980 H   0  0  0  0  0  0  0  0  0  0  0  0
  -10.1479   21.3023  -30.4418 H   0  0  0  0  0  0  0  0  0  0  0  0
   -8.3587   21.1430  -30.4418 H   0  0  0  0  0  0  0  0  0  0  0  0
   -9.0631   21.6698  -32.6975 H   0  0  0  0  0  0  0  0  0  0  0  0
  -10.0596   23.0644  -32.0850 H   0  0  0  0  0  0  0  0  0  0  0  0
   -7.7070   23.4933  -33.1925 H   0  0  0  0  0  0  0  0  0  0  0  0
   -8.2415   24.3942  -31.6951 H   0  0  0  0  0  0  0  0  0  0  0  0
   -7.0168   23.9080  -29.5283 H   0  0  0  0  0  0  0  0  0  0  0  0
   -5.3759   23.1958  -29.8170 H   0  0  0  0  0  0  0  0  0  0  0  0
   -6.1184   25.3905  -31.6799 H   0  0  0  0  0  0  0  0  0  0  0  0
   -5.9631   25.8910  -29.9659 H   0  0  0  0  0  0  0  0  0  0  0  0
   -3.9891   24.5473  -28.8442 H   0  0  0  0  0  0  0  0  0  0  0  0
   -4.2509   23.1806  -29.9801 H   0  0  0  0  0  0  0  0  0  0  0  0
   -2.6853   24.0611  -29.9801 H   0  0  0  0  0  0  0  0  0  0  0  0
   -2.7241   22.0601  -33.4069 H   0  0  0  0  0  0  0  0  0  0  0  0
   -3.3280   19.7290  -33.7500 H   0  0  0  0  0  0  0  0  0  0  0  0
   -8.1087   20.2500  -31.4176 H   0  0  0  0  0  0  0  0  0  0  0  0
   -4.3053   18.5727  -35.2779 H   0  0  0  0  0  0  0  0  0  0  0  0
   -3.3023   16.5223  -36.2883 H   0  0  0  0  0  0  0  0  0  0  0  0
   -3.6004   14.3061  -35.1799 H   0  0  0  0  0  0  0  0  0  0  0  0
   -4.9192   14.1334  -33.0664 H   0  0  0  0  0  0  0  0  0  0  0  0
   -5.9268   16.1789  -32.0498 H   0  0  0  0  0  0  0  0  0  0  0  0
  1  2  1  0
  2  3  1  0
  3  4  1  0
  4  5  1  0
  5  6  1  0
  6  7  1  0
  7  8  1  0
  4  9  1  0
  9 10  2  0
 10 11  1  0
 11 12  2  0
 12 13  1  0
 13 14  2  0
 14 15  1  0
 15 16  2  0
 16 17  1  0
 17 18  1  0
 18 19  2  0
 19 20  1  0
 20 21  2  0
 21 22  1  0
 22 23  2  0
 14  9  1  0
 23 18  1  0
 17 13  1  0
  1 24  1  0
  1 25  1  0
  1 26  1  0
  2 27  1  0
  2 28  1  0
  3 29  1  0
  3 30  1  0
  5 31  1  0
  5 32  1  0
  6 33  1  0
  6 34  1  0
  8 35  1  0
  8 36  1  0
  8 37  1  0
 11 38  1  0
 12 39  1  0
 15 40  1  0
 19 41  1  0
 20 42  1  0
 21 43  1  0
 22 44  1  0
 23 45  1  0
M  CHG  1  12   1
M  END
>  <UniqueID>  (5) 
5

>  <SMILES>  (5) 
CCCN(CCOC)c1nc[nH+]c2c1cnn2-c1ccccc1

>  <Energy>  (5) 
92.8710195623157

>  <Genealogy>  (5) 
CCCN(CCOC)c1nc[nH+]c2c1cnn2-c1ccccc1 (protonated)
CCCN(CCOC)c1nc[nH+]c2c1cnn2-c1ccccc1 (3D coordinates assigned)
CCCN(CCOC)c1nc[nH+]c2c1cnn2-c1ccccc1 (optimized conformer: 92.8710195623157 kcal/mol)

>  <smiles>  (5) 
CCCN(CCOC)c1ncnc2c1cnn2-c1ccccc1

>  <score_type>  (5) 
oracle

>  <origin>  (5) 
adg

>  <m_score__min__energy>  (5) 
-6.8399999999999999

>  <m_primary>  (5) 
energy

$$$$
5:0
     RDKit          3D

 28 30  0  0  0  0  0  0  0  0999 V2000
   -2.6600   18.5830  -34.2050 C   0  0  0  0  0  0  0  0  0  0  0  0
   -4.0630   18.9780  -33.8470 C   0  0  0  0  0  0  0  0  0  0  0  0
   -5.1390   18.1560  -34.2050 C   0  0  0  0  0  0  0  0  0  0  0  0
   -6.4420   18.5000  -33.8440 C   0  0  0  0  0  0  0  0  0  0  0  0
   -6.6880   19.6660  -33.1060 C   0  0  0  0  0  0  0  0  0  0  0  0
   -8.0000   20.0080  -32.7440 C   0  0  0  0  0  0  0  0  0  0  0  0
   -8.2520   21.1640  -32.0050 C   0  0  0  0  0  0  0  0  0  0  0  0
   -7.1950   21.9970  -31.6170 C   0  0  0  0  0  0  0  0  0  0  0  0
   -7.4330   23.1600  -30.8750 C   0  0  0  0  0  0  0  0  0  0  0  0
   -6.3680   23.9780  -30.4950 C   0  0  0  0  0  0  0  0  0  0  0  0
   -5.0610   23.6250  -30.8630 C   0  0  0  0  0  0  0  0  0  0  0  0
   -3.9130   24.4650  -30.4800 C   0  0  0  0  0  0  0  0  0  0  0  0
   -3.8740   25.6750  -30.8280 O   0  0  0  0  0  0  0  0  0  0  0  0
   -2.8650   23.9370  -29.7360 O   0  0  0  0  0  0  0  0  0  0  0  0
   -4.8510   22.4900  -31.5850 N   0  0  0  0  0  0  0  0  0  0  0  0
   -5.8660   21.6680  -31.9720 C   0  0  0  0  0  0  0  0  0  0  0  0
   -5.6080   20.4990  -32.7210 C   0  0  0  0  0  0  0  0  0  0  0  0
   -4.2970   20.1390  -33.0930 C   0  0  0  0  0  0  0  0  0  0  0  0
   -2.0791   18.4195  -33.2853 H   0  0  0  0  0  0  0  0  0  0  0  0
   -2.6797   17.6555  -34.7960 H   0  0  0  0  0  0  0  0  0  0  0  0
   -2.1929   19.3846  -34.7960 H   0  0  0  0  0  0  0  0  0  0  0  0
   -4.9555   17.2330  -34.7746 H   0  0  0  0  0  0  0  0  0  0  0  0
   -7.2807   17.8528  -34.1401 H   0  0  0  0  0  0  0  0  0  0  0  0
   -8.8360   19.3596  -33.0452 H   0  0  0  0  0  0  0  0  0  0  0  0
   -9.2843   21.4222  -31.7261 H   0  0  0  0  0  0  0  0  0  0  0  0
   -8.4610   23.4295  -30.5910 H   0  0  0  0  0  0  0  0  0  0  0  0
   -6.5519   24.8922  -29.9116 H   0  0  0  0  0  0  0  0  0  0  0  0
   -3.4504   20.7727  -32.7901 H   0  0  0  0  0  0  0  0  0  0  0  0
  1  2  1  0
  2  3  2  0
  3  4  1  0
  4  5  2  0
  5  6  1  0
  6  7  2  0
  7  8  1  0
  8  9  2  0
  9 10  1  0
 10 11  2  0
 11 12  1  0
 12 13  2  0
 12 14  1  0
 11 15  1  0
 15 16  2  0
 16 17  1  0
 17 18  2  0
 18  2  1  0
 17  5  1  0
 16  8  1  0
  1 19  1  0
  1 20  1  0
  1 21  1  0
  3 22  1  0
  4 23  1  0
  6 24  1  0
  7 25  1  0
  9 26  1  0
 10 27  1  0
 18 28  1  0
M  CHG  1  14  -1
M  END
>  <UniqueID>  (6) 
6

>  <SMILES>  (6) 
Cc1ccc2ccc3ccc(C(=O)[O-])nc3c2c1

>  <Energy>  (6) 
36.99253518264461

>  <Genealogy>  (6) 
Cc1ccc2ccc3ccc(C(=O)[O-])nc3c2c1 (protonated)
Cc1ccc2ccc3ccc(C(=O)[O-])nc3c2c1 (3D coordinates assigned)
Cc1ccc2ccc3ccc(C(=O)[O-])nc3c2c1 (optimized conformer: 36.99253518264461 kcal/mol)

>  <smiles>  (6) 
Cc1ccc2ccc3ccc(C(=O)O)nc3c2c1

>  <score_type>  (6) 
oracle

>  <origin>  (6) 
adg

>  <m_score__min__energy>  (6) 
-10.1

>  <m_primary>  (6) 
energy

$$$$
6:0
     RDKit          3D

 66 69  0  0  0  0  0  0  0  0999 V2000
   -3.3380   24.3450  -27.1680 C   0  0  0  0  0  0  0  0  0  0  0  0
   -2.3020   24.8720  -28.1470 C   0  0  0  0  0  0  0  0  0  0  0  0
   -2.9500   25.2920  -29.3450 O   0  0  0  0  0  0  0  0  0  0  0  0
   -3.8250   24.4930  -30.0960 C   0  0  0  0  0  0  0  0  0  0  0  0
   -5.2090   24.7370  -30.1520 C   0  0  0  0  0  0  0  0  0  0  0  0
   -6.0390   23.9140  -30.9180 C   0  0  0  0  0  0  0  0  0  0  0  0
   -5.5080   22.8250  -31.6230 C   0  0  0  0  0  0  0  0  0  0  0  0
   -6.3810   22.0140  -32.4290 N   0  0  0  0  0  0  0  0  0  0  0  0
   -7.3920   21.1450  -31.8960 C   0  0  0  0  0  0  0  0  0  0  0  0
   -7.7580   21.2420  -30.6940 O   0  0  0  0  0  0  0  0  0  0  0  0
   -8.0380   20.1240  -32.7850 C   0  0  0  0  0  0  0  0  0  0  0  0
   -7.7040   18.7570  -32.3270 N   0  0  0  0  0  0  0  0  0  0  0  0
   -7.4880   17.8160  -33.4470 C   0  0  0  0  0  0  0  0  0  0  0  0
   -6.1190   18.0210  -34.1280 C   0  0  0  0  0  0  0  0  0  0  0  0
   -4.9970   18.2380  -33.1770 N   0  0  0  0  0  0  0  0  0  0  0  0
   -4.3400   19.5590  -33.3520 C   0  0  0  0  0  0  0  0  0  0  0  0
   -2.9320   19.6280  -32.7200 C   0  0  1  0  0  0  0  0  0  0  0  0
   -2.2200   18.4480  -32.9930 O   0  0  0  0  0  0  0  0  0  0  0  0
   -2.1430   20.8570  -33.1960 C   0  0  0  0  0  0  0  0  0  0  0  0
   -1.3480   21.3580  -32.1250 O   0  0  0  0  0  0  0  0  0  0  0  0
   -0.5590   20.5630  -31.2770 C   0  0  0  0  0  0  0  0  0  0  0  0
    0.6640   20.0150  -31.6970 C   0  0  0  0  0  0  0  0  0  0  0  0
    1.4040   19.2300  -30.8070 C   0  0  0  0  0  0  0  0  0  0  0  0
    2.5020   18.7350  -31.1710 O   0  0  0  0  0  0  0  0  0  0  0  0
    0.9570   19.0010  -29.5770 O   0  0  0  0  0  0  0  0  0  0  0  0
   -0.1930   19.4950  -29.1300 C   0  0  0  0  0  0  0  0  0  0  0  0
   -0.6070   19.2140  -27.8230 C   0  0  0  0  0  0  0  0  0  0  0  0
   -1.8160   19.7270  -27.3440 C   0  0  0  0  0  0  0  0  0  0  0  0
   -2.6160   20.5240  -28.1670 C   0  0  0  0  0  0  0  0  0  0  0  0
   -2.2130   20.8120  -29.4760 C   0  0  0  0  0  0  0  0  0  0  0  0
   -1.0000   20.3010  -29.9680 C   0  0  0  0  0  0  0  0  0  0  0  0
   -5.3700   17.9410  -31.7780 C   0  0  0  0  0  0  0  0  0  0  0  0
   -6.6070   18.7390  -31.3270 C   0  0  0  0  0  0  0  0  0  0  0  0
   -4.1230   22.5920  -31.5800 C   0  0  0  0  0  0  0  0  0  0  0  0
   -3.2930   23.4180  -30.8160 C   0  0  0  0  0  0  0  0  0  0  0  0
   -2.9925   24.5208  -26.1386 H   0  0  0  0  0  0  0  0  0  0  0  0
   -4.2929   24.8669  -27.3284 H   0  0  0  0  0  0  0  0  0  0  0  0
   -3.4785   23.2659  -27.3284 H   0  0  0  0  0  0  0  0  0  0  0  0
   -1.7737   25.7256  -27.6974 H   0  0  0  0  0  0  0  0  0  0  0  0
   -1.5802   24.0755  -28.3807 H   0  0  0  0  0  0  0  0  0  0  0  0
   -5.6399   25.5791  -29.5906 H   0  0  0  0  0  0  0  0  0  0  0  0
   -7.1179   24.1225  -30.9681 H   0  0  0  0  0  0  0  0  0  0  0  0
   -6.3220   22.1110  -33.4680 H   0  0  0  0  0  0  0  0  0  0  0  0
   -9.1294   20.2587  -32.7585 H   0  0  0  0  0  0  0  0  0  0  0  0
   -7.6658   20.2576  -33.8115 H   0  0  0  0  0  0  0  0  0  0  0  0
   -7.5402   16.7876  -33.0601 H   0  0  0  0  0  0  0  0  0  0  0  0
   -8.2691   18.0025  -34.1987 H   0  0  0  0  0  0  0  0  0  0  0  0
   -5.8947   17.1278  -34.7296 H   0  0  0  0  0  0  0  0  0  0  0  0
   -6.2002   18.9329  -34.7378 H   0  0  0  0  0  0  0  0  0  0  0  0
   -4.2501   19.7646  -34.4289 H   0  0  0  0  0  0  0  0  0  0  0  0
   -4.9650   20.3049  -32.8392 H   0  0  0  0  0  0  0  0  0  0  0  0
   -3.0618   19.7286  -31.6323 H   0  0  0  0  0  0  0  0  0  0  0  0
   -2.8860   17.7570  -33.2420 H   0  0  0  0  0  0  0  0  0  0  0  0
   -1.4903   20.5711  -34.0340 H   0  0  0  0  0  0  0  0  0  0  0  0
   -2.8451   21.6369  -33.5260 H   0  0  0  0  0  0  0  0  0  0  0  0
    1.0360   20.2013  -32.7153 H   0  0  0  0  0  0  0  0  0  0  0  0
    0.0203   18.5881  -27.1712 H   0  0  0  0  0  0  0  0  0  0  0  0
   -2.1384   19.5027  -26.3165 H   0  0  0  0  0  0  0  0  0  0  0  0
   -3.5657   20.9264  -27.7848 H   0  0  0  0  0  0  0  0  0  0  0  0
   -2.8466   21.4391  -30.1204 H   0  0  0  0  0  0  0  0  0  0  0  0
   -5.5893   16.8667  -31.6897 H   0  0  0  0  0  0  0  0  0  0  0  0
   -4.5267   18.2302  -31.1337 H   0  0  0  0  0  0  0  0  0  0  0  0
   -6.9905   18.2897  -30.3991 H   0  0  0  0  0  0  0  0  0  0  0  0
   -6.2833   19.7809  -31.1869 H   0  0  0  0  0  0  0  0  0  0  0  0
   -3.6901   21.7565  -32.1496 H   0  0  0  0  0  0  0  0  0  0  0  0
   -2.2114   23.2207  -30.7807 H   0  0  0  0  0  0  0  0  0  0  0  0
  1  2  1  0
  2  3  1  0
  3  4  1  0
  4  5  2  0
  5  6  1  0
  6  7  2  0
  7  8  1  0
  8  9  1  0
  9 10  2  0
  9 11  1  0
 11 12  1  0
 12 13  1  0
 13 14  1  0
 14 15  1  0
 15 16  1  0
 16 17  1  0
 17 18  1  0
 17 19  1  0
 19 20  1  0
 20 21  1  0
 21 22  2  0
 22 23  1  0
 23 24  2  0
 23 25  1  0
 25 26  1  0
 26 27  2  0
 27 28  1  0
 28 29  2  0
 29 30  1  0
 30 31  2  0
 15 32  1  0
 32 33  1  0
  7 34  1  0
 34 35  2  0
 35  4  1  0
 33 12  1  0
 31 21  1  0
 31 26  1  0
  1 36  1  0
  1 37  1  0
  1 38  1  0
  2 39  1  0
  2 40  1  0
  5 41  1  0
  6 42  1  0
  8 43  1  0
 11 44  1  0
 11 45  1  0
 13 46  1  0
 13 47  1  0
 14 48  1  0
 14 49  1  0
 16 50  1  0
 16 51  1  0
 17 52  1  1
 18 53  1  0
 19 54  1  0
 19 55  1  0
 22 56  1  0
 27 57  1  0
 28 58  1  0
 29 59  1  0
 30 60  1  0
 32 61  1  0
 32 62  1  0
 33 63  1  0
 33 64  1  0
 34 65  1  0
 35 66  1  0
M  END
>  <UniqueID>  (7) 
7

>  <SMILES>  (7) 
CCOc1ccc(NC(=O)CN2CCN(C[C@@H](O)COc3cc(=O)oc4ccccc34)CC2)cc1

>  <Energy>  (7) 
88.39809557392681

>  <Genealogy>  (7) 
CCOc1ccc(NC(=O)CN2CCN(C[C@@H](O)COc3cc(=O)oc4ccccc34)CC2)cc1 (chirality)
CCOc1ccc(NC(=O)CN2CCN(C[C@@H](O)COc3cc(=O)oc4ccccc34)CC2)cc1 (3D coordinates assigned)
CCOc1ccc(NC(=O)CN2CCN(C[C@@H](O)COc3cc(=O)oc4ccccc34)CC2)cc1 (nonaromatic ring conformer: 88.39809557392681 kcal/mol)

>  <smiles>  (7) 
CCOc1ccc(NC(=O)CN2CCN(CC(O)COc3cc(=O)oc4ccccc34)CC2)cc1

>  <score_type>  (7) 
oracle

>  <origin>  (7) 
adg

>  <m_score__min__energy>  (7) 
-9.2200000000000006

>  <m_primary>  (7) 
energy

$$$$
7:0
     RDKit          3D

 38 39  0  0  0  0  0  0  0  0999 V2000
   -9.7590   21.2070  -31.9240 C   0  0  0  0  0  0  0  0  0  0  0  0
   -9.1120   19.8520  -32.2120 C   0  0  0  0  0  0  0  0  0  0  0  0
   -7.6960   20.0030  -32.5870 N   0  0  0  0  0  0  0  0  0  0  0  0
   -7.1100   21.3520  -32.6680 C   0  0  0  0  0  0  0  0  0  0  0  0
   -5.9430   21.5240  -31.6820 C   0  0  0  0  0  0  0  0  0  0  0  0
   -6.3560   22.2880  -30.4200 C   0  0  0  0  0  0  0  0  0  0  0  0
   -5.7330   23.6120  -30.4060 N   0  0  0  0  0  0  0  0  0  0  0  0
   -6.3750   24.7910  -30.4000 C   0  0  0  0  0  0  0  0  0  0  0  0
   -5.4310   25.7920  -30.4620 C   0  0  0  0  0  0  0  0  0  0  0  0
   -4.1970   25.2490  -30.5210 N   0  0  0  0  0  0  0  0  0  0  0  0
   -4.4200   23.9190  -30.4920 C   0  0  0  0  0  0  0  0  0  0  0  0
   -3.3160   22.9090  -30.5430 C   0  0  0  0  0  0  0  0  0  0  0  0
   -6.8850   18.8630  -32.9650 C   0  0  0  0  0  0  0  0  0  0  0  0
   -6.4940   17.9710  -32.0110 N   0  0  0  0  0  0  0  0  0  0  0  0
   -5.7320   16.8920  -32.3190 C   0  0  0  0  0  0  0  0  0  0  0  0
   -5.3280   16.6810  -33.6340 C   0  0  0  0  0  0  0  0  0  0  0  0
   -5.7200   17.6020  -34.6030 C   0  0  0  0  0  0  0  0  0  0  0  0
   -6.4830   18.6740  -34.2580 N   0  0  0  0  0  0  0  0  0  0  0  0
   -9.8300   21.3557  -30.8364 H   0  0  0  0  0  0  0  0  0  0  0  0
   -9.1458   22.0071  -32.3642 H   0  0  0  0  0  0  0  0  0  0  0  0
  -10.7667   21.2331  -32.3642 H   0  0  0  0  0  0  0  0  0  0  0  0
   -9.1789   19.2245  -31.3111 H   0  0  0  0  0  0  0  0  0  0  0  0
   -9.6455   19.3847  -33.0529 H   0  0  0  0  0  0  0  0  0  0  0  0
   -6.7407   21.5196  -33.6905 H   0  0  0  0  0  0  0  0  0  0  0  0
   -7.8906   22.0817  -32.4068 H   0  0  0  0  0  0  0  0  0  0  0  0
   -5.5776   20.5286  -31.3893 H   0  0  0  0  0  0  0  0  0  0  0  0
   -5.1589   22.1072  -32.1870 H   0  0  0  0  0  0  0  0  0  0  0  0
   -7.4501   22.4008  -30.4049 H   0  0  0  0  0  0  0  0  0  0  0  0
   -6.0249   21.7254  -29.5346 H   0  0  0  0  0  0  0  0  0  0  0  0
   -7.4648   24.9328  -30.3537 H   0  0  0  0  0  0  0  0  0  0  0  0
   -5.6497   26.8700  -30.4632 H   0  0  0  0  0  0  0  0  0  0  0  0
   -3.0196   22.6378  -29.5190 H   0  0  0  0  0  0  0  0  0  0  0  0
   -3.6649   22.0109  -31.0737 H   0  0  0  0  0  0  0  0  0  0  0  0
   -2.4524   23.3362  -31.0737 H   0  0  0  0  0  0  0  0  0  0  0  0
   -5.4339   16.1850  -31.5308 H   0  0  0  0  0  0  0  0  0  0  0  0
   -4.7142   15.8083  -33.9017 H   0  0  0  0  0  0  0  0  0  0  0  0
   -5.4118   17.4620  -35.6496 H   0  0  0  0  0  0  0  0  0  0  0  0
   -6.7320   19.3550  -35.0070 H   0  0  0  0  0  0  0  0  0  0  0  0
  1  2  1  0
  2  3  1  0
  3  4  1  0
  4  5  1  0
  5  6  1  0
  6  7  1  0
  7  8  1  0
  8  9  2  0
  9 10  1  0
 10 11  2  0
 11 12  1  0
  3 13  1  0
 13 14  2  0
 14 15  1  0
 15 16  2  0
 16 17  1  0
 17 18  2  0
 11  7  1  0
 18 13  1  0
  1 19  1  0
  1 20  1  0
  1 21  1  0
  2 22  1  0
  2 23  1  0
  4 24  1  0
  4 25  1  0
  5 26  1  0
  5 27  1  0
  6 28  1  0
  6 29  1  0
  8 30  1  0
  9 31  1  0
 12 32  1  0
 12 33  1  0
 12 34  1  0
 15 35  1  0
 16 36  1  0
 17 37  1  0
 18 38  1  0
M  CHG  1  18   1
M  END
>  <UniqueID>  (8) 
8

>  <SMILES>  (8) 
CCN(CCCn1ccnc1C)c1nccc[nH+]1

>  <Energy>  (8) 
59.85745802746308

>  <Genealogy>  (8) 
CCN(CCCn1ccnc1C)c1nccc[nH+]1 (protonated)
CCN(CCCn1ccnc1C)c1nccc[nH+]1 (3D coordinates assigned)
CCN(CCCn1ccnc1C)c1nccc[nH+]1 (optimized conformer: 59.85745802746308 kcal/mol)

>  <smiles>  (8) 
CCN(CCCn1ccnc1C)c1ncccn1

>  <score_type>  (8) 
oracle

>  <origin>  (8) 
adg

>  <m_score__min__energy>  (8) 
-6.3399999999999999

>  <m_primary>  (8) 
energy

$$$$
8:0
     RDKit          3D

 44 47  0  0  0  0  0  0  0  0999 V2000
   -8.0929   18.2218  -30.8927 H   0  0  0  0  0  0  0  0  0  0  0  0
   -7.7730   18.2390  -31.9450 C   0  0  0  0  0  0  0  0  0  0  0  0
   -8.2730   19.1910  -32.7430 C   0  0  0  0  0  0  0  0  0  0  0  0
   -8.7650   18.8950  -33.6812 H   0  0  0  0  0  0  0  0  0  0  0  0
   -8.1850   20.6240  -32.4040 C   0  0  0  0  0  0  0  0  0  0  0  0
   -9.3410   21.3430  -32.0230 C   0  0  0  0  0  0  0  0  0  0  0  0
  -10.3242   20.8514  -32.0638 H   0  0  0  0  0  0  0  0  0  0  0  0
   -9.2500   22.6800  -31.5920 C   0  0  0  0  0  0  0  0  0  0  0  0
  -10.1626   23.2252  -31.3094 H   0  0  0  0  0  0  0  0  0  0  0  0
   -8.0070   23.3220  -31.5200 C   0  0  0  0  0  0  0  0  0  0  0  0
   -7.9283   24.3621  -31.1708 H   0  0  0  0  0  0  0  0  0  0  0  0
   -6.8740   22.6090  -31.9020 C   0  0  0  0  0  0  0  0  0  0  0  0
   -6.9480   21.2970  -32.3530 C   0  0  0  0  0  0  0  0  0  0  0  0
   -5.5800   20.8770  -32.7280 C   0  0  0  0  0  0  0  0  0  0  0  0
   -5.1120   19.7120  -33.3430 C   0  0  0  0  0  0  0  0  0  0  0  0
   -5.8065   18.8990  -33.6012 H   0  0  0  0  0  0  0  0  0  0  0  0
   -3.7320   19.5950  -33.6280 C   0  0  0  0  0  0  0  0  0  0  0  0
   -3.1960   18.4420  -34.2240 O   0  0  0  0  0  0  0  0  0  0  0  0
   -2.3040   17.5390  -33.5770 C   0  0  0  0  0  0  0  0  0  0  0  0
   -2.4054   17.6417  -32.4865 H   0  0  0  0  0  0  0  0  0  0  0  0
   -2.5479   16.5079  -33.8725 H   0  0  0  0  0  0  0  0  0  0  0  0
   -1.2700   17.7702  -33.8725 H   0  0  0  0  0  0  0  0  0  0  0  0
   -2.8500   20.6570  -33.3170 C   0  0  0  0  0  0  0  0  0  0  0  0
   -1.4880   20.4990  -33.6140 O   0  0  0  0  0  0  0  0  0  0  0  0
   -0.4400   20.5720  -32.6530 C   0  0  0  0  0  0  0  0  0  0  0  0
   -0.8684   20.5422  -31.6403 H   0  0  0  0  0  0  0  0  0  0  0  0
    0.2415   19.7191  -32.7881 H   0  0  0  0  0  0  0  0  0  0  0  0
    0.1166   21.5111  -32.7881 H   0  0  0  0  0  0  0  0  0  0  0  0
   -3.3540   21.8420  -32.7340 C   0  0  0  0  0  0  0  0  0  0  0  0
   -2.6836   22.6832  -32.5041 H   0  0  0  0  0  0  0  0  0  0  0  0
   -4.7140   21.9230  -32.4570 C   0  0  0  0  0  0  0  0  0  0  0  0
   -5.4840   23.0410  -31.9340 C   0  0  0  0  0  0  0  0  0  0  0  0
   -5.0380   24.1680  -31.5920 O   0  0  0  0  0  0  0  0  0  0  0  0
   -6.8120   17.2070  -32.4020 C   0  0  0  0  0  0  0  0  0  0  0  0
   -5.8340   16.6520  -31.5480 C   0  0  0  0  0  0  0  0  0  0  0  0
   -5.7774   16.9747  -30.4979 H   0  0  0  0  0  0  0  0  0  0  0  0
   -4.9370   15.6940  -32.0310 C   0  0  0  0  0  0  0  0  0  0  0  0
   -4.1819   15.2613  -31.3582 H   0  0  0  0  0  0  0  0  0  0  0  0
   -4.9970   15.2850  -33.3650 C   0  0  0  0  0  0  0  0  0  0  0  0
   -4.2942   14.5265  -33.7401 H   0  0  0  0  0  0  0  0  0  0  0  0
   -5.9490   15.8390  -34.2220 C   0  0  0  0  0  0  0  0  0  0  0  0
   -5.9924   15.5201  -35.2739 H   0  0  0  0  0  0  0  0  0  0  0  0
   -6.8480   16.7990  -33.7460 C   0  0  0  0  0  0  0  0  0  0  0  0
   -7.5894   17.2383  -34.4296 H   0  0  0  0  0  0  0  0  0  0  0  0
  1  2  1  0
  2  3  2  0
  3  4  1  0
  3  5  1  0
  5  6  2  0
  6  7  1  0
  6  8  1  0
  8  9  1  0
  8 10  2  0
 10 11  1  0
 10 12  1  0
 12 13  2  0
 13 14  1  0
 14 15  2  0
 15 16  1  0
 15 17  1  0
 17 18  1  0
 18 19  1  0
 19 20  1  0
 19 21  1  0
 19 22  1  0
 17 23  2  0
 23 24  1  0
 24 25  1  0
 25 26  1  0
 25 27  1  0
 25 28  1  0
 23 29  1  0
 29 30  1  0
 29 31  2  0
 31 32  1  0
 32 33  2  0
  2 34  1  0
 34 35  2  0
 35 36  1  0
 35 37  1  0
 37 38  1  0
 37 39  2  0
 39 40  1  0
 39 41  1  0
 41 42  1  0
 41 43  2  0
 43 44  1  0
 13  5  1  0
 31 14  1  0
 43 34  1  0
 32 12  1  0
M  END
>  <UniqueID>  (9) 
9

>  <SMILES>  (9) 
COc1cc2c(cc1OC)-c1c(/C=C/c3ccccc3)cccc1C2=O

>  <Energy>  (9) 
88.18206675417056

>  <Genealogy>  (9) 
COc1cc2c(cc1OC)-c1c(/C=C/c3ccccc3)cccc1C2=O (cis-trans isomerization)
COc1cc2c(cc1OC)-c1c(/C=C/c3ccccc3)cccc1C2=O (3D coordinates assigned)
COc1cc2c(cc1OC)-c1c(/C=C/c3ccccc3)cccc1C2=O (nonaromatic ring conformer: 88.18206675417056 kcal/mol)

>  <smiles>  (9) 
COc1cc2c(cc1OC)-c1c(C=Cc3ccccc3)cccc1C2=O

>  <score_type>  (9) 
oracle

>  <origin>  (9) 
adg

>  <m_score__min__energy>  (9) 
-8.9900000000000002

>  <m_primary>  (9) 
energy

$$$$
9:0
     RDKit          3D

 38 40  0  0  0  0  0  0  0  0999 V2000
   -4.2160   24.1390  -28.3570 C   0  0  0  0  0  0  0  0  0  0  0  0
   -4.3760   24.2560  -29.8370 C   0  0  0  0  0  0  0  0  0  0  0  0
   -3.8600   25.2340  -30.4440 O   0  0  0  0  0  0  0  0  0  0  0  0
   -5.0770   23.2380  -30.5630 N   0  0  0  0  0  0  0  0  0  0  0  0
   -5.2930   23.3120  -32.0140 C   0  0  2  0  0  0  0  0  0  0  0  0
   -6.7830   23.4790  -32.3360 C   0  0  0  0  0  0  0  0  0  0  0  0
   -7.5670   22.2240  -32.0460 C   0  0  0  0  0  0  0  0  0  0  0  0
   -8.9500   22.3230  -31.8230 C   0  0  0  0  0  0  0  0  0  0  0  0
   -9.7150   21.1770  -31.6090 C   0  0  0  0  0  0  0  0  0  0  0  0
   -9.1110   19.9220  -31.6330 C   0  0  0  0  0  0  0  0  0  0  0  0
   -7.7400   19.8060  -31.8700 C   0  0  0  0  0  0  0  0  0  0  0  0
   -6.9440   20.9520  -32.0810 C   0  0  0  0  0  0  0  0  0  0  0  0
   -5.5110   20.8560  -32.3070 N   0  0  0  0  0  0  0  0  0  0  0  0
   -4.7810   19.5800  -32.2040 C   0  0  0  0  0  0  0  0  0  0  0  0
   -4.5870   18.9640  -33.5980 C   0  0  0  0  0  0  0  0  0  0  0  0
   -5.8540   18.9360  -34.4410 C   0  0  0  0  0  0  0  0  0  0  0  0
   -5.2990   17.6450  -33.8720 C   0  0  0  0  0  0  0  0  0  0  0  0
   -4.7580   22.0540  -32.7140 C   0  0  0  0  0  0  0  0  0  0  0  0
   -5.0064   24.7170  -27.8559 H   0  0  0  0  0  0  0  0  0  0  0  0
   -4.2920   23.0819  -28.0624 H   0  0  0  0  0  0  0  0  0  0  0  0
   -3.2317   24.5319  -28.0624 H   0  0  0  0  0  0  0  0  0  0  0  0
   -5.4010   22.3960  -30.0350 H   0  0  0  0  0  0  0  0  0  0  0  0
   -4.7436   24.1895  -32.3856 H   0  0  0  0  0  0  0  0  0  0  0  0
   -7.1884   24.3000  -31.7263 H   0  0  0  0  0  0  0  0  0  0  0  0
   -6.8764   23.6978  -33.4100 H   0  0  0  0  0  0  0  0  0  0  0  0
   -9.4330   23.3113  -31.8171 H   0  0  0  0  0  0  0  0  0  0  0  0
  -10.7954   21.2640  -31.4212 H   0  0  0  0  0  0  0  0  0  0  0  0
   -9.7164   19.0191  -31.4646 H   0  0  0  0  0  0  0  0  0  0  0  0
   -7.2748   18.8095  -31.8925 H   0  0  0  0  0  0  0  0  0  0  0  0
   -3.7970   19.7605  -31.7467 H   0  0  0  0  0  0  0  0  0  0  0  0
   -5.3628   18.8835  -31.5823 H   0  0  0  0  0  0  0  0  0  0  0  0
   -3.5520   19.3146  -33.7241 H   0  0  0  0  0  0  0  0  0  0  0  0
   -6.7892   19.3553  -34.0414 H   0  0  0  0  0  0  0  0  0  0  0  0
   -6.1252   19.2879  -35.4473 H   0  0  0  0  0  0  0  0  0  0  0  0
   -5.8314   17.1286  -33.0597 H   0  0  0  0  0  0  0  0  0  0  0  0
   -5.0011   16.6741  -34.2945 H   0  0  0  0  0  0  0  0  0  0  0  0
   -3.6990   21.9191  -32.4490 H   0  0  0  0  0  0  0  0  0  0  0  0
   -4.8730   22.1848  -33.8001 H   0  0  0  0  0  0  0  0  0  0  0  0
  1  2  1  0
  2  3  2  0
  2  4  1  0
  4  5  1  0
  5  6  1  0
  6  7  1  0
  7  8  2  0
  8  9  1  0
  9 10  2  0
 10 11  1  0
 11 12  2  0
 12 13  1  0
 13 14  1  0
 14 15  1  0
 15 16  1  0
 16 17  1  0
 13 18  1  0
 18  5  1  0
 12  7  1  0
 17 15  1  0
  1 19  1  0
  1 20  1  0
  1 21  1  0
  4 22  1  0
  5 23  1  6
  6 24  1  0
  6 25  1  0
  8 26  1  0
  9 27  1  0
 10 28  1  0
 11 29  1  0
 14 30  1  0
 14 31  1  0
 15 32  1  0
 16 33  1  0
 16 34  1  0
 17 35  1  0
 17 36  1  0
 18 37  1  0
 18 38  1  0
M  END
>  <UniqueID>  (10) 
10

>  <SMILES>  (10) 
CC(=O)N[C@@H]1Cc2ccccc2N(CC2CC2)C1

>  <Energy>  (10) 
299.3390863027832

>  <Genealogy>  (10) 
CC(=O)N[C@@H]1Cc2ccccc2N(CC2CC2)C1 (chirality)
CC(=O)N[C@@H]1Cc2ccccc2N(CC2CC2)C1 (3D coordinates assigned)
CC(=O)N[C@@H]1Cc2ccccc2N(CC2CC2)C1 (nonaromatic ring conformer: 299.3390863027832 kcal/mol)

>  <smiles>  (10) 
CC(=O)NC1Cc2ccccc2N(CC2CC2)C1

>  <score_type>  (10) 
oracle

>  <origin>  (10) 
adg

>  <m_score__min__energy>  (10) 
-7.8799999999999999

>  <m_primary>  (10) 
energy

$$$$
10:0
     RDKit          3D

 35 37  0  0  0  0  0  0  0  0999 V2000
   -4.9972   15.7229  -34.5483 H   0  0  0  0  0  0  0  0  0  0  0  0
   -5.4870   16.6250  -34.1530 C   0  0  0  0  0  0  0  0  0  0  0  0
   -5.4850   17.8040  -34.9000 C   0  0  0  0  0  0  0  0  0  0  0  0
   -4.9918   17.8304  -35.8829 H   0  0  0  0  0  0  0  0  0  0  0  0
   -6.1090   18.9520  -34.4010 C   0  0  0  0  0  0  0  0  0  0  0  0
   -6.0976   19.8816  -34.9890 H   0  0  0  0  0  0  0  0  0  0  0  0
   -6.7510   18.9220  -33.1500 C   0  0  0  0  0  0  0  0  0  0  0  0
   -7.4130   20.1360  -32.6160 C   0  0  0  0  0  0  0  0  0  0  0  0
   -8.8180   20.1590  -32.5490 C   0  0  0  0  0  0  0  0  0  0  0  0
   -9.3955   19.3153  -32.9549 H   0  0  0  0  0  0  0  0  0  0  0  0
   -9.4870   21.2390  -31.9740 C   0  0  0  0  0  0  0  0  0  0  0  0
  -10.5862   21.2453  -31.9322 H   0  0  0  0  0  0  0  0  0  0  0  0
   -8.7640   22.3110  -31.4520 C   0  0  0  0  0  0  0  0  0  0  0  0
   -9.2930   23.1554  -30.9860 H   0  0  0  0  0  0  0  0  0  0  0  0
   -7.3700   22.3140  -31.5200 C   0  0  0  0  0  0  0  0  0  0  0  0
   -6.8066   23.1631  -31.1058 H   0  0  0  0  0  0  0  0  0  0  0  0
   -6.6780   21.2420  -32.1130 C   0  0  0  0  0  0  0  0  0  0  0  0
   -5.2050   21.3300  -32.2250 C   0  0  0  0  0  0  0  0  0  0  0  0
   -4.1070   20.4820  -31.2610 S   0  0  0  0  0  0  0  0  0  0  0  0
   -2.8240   21.2120  -32.0700 C   0  0  0  0  0  0  0  0  0  0  0  0
   -1.5760   20.9830  -31.8090 N   0  0  0  0  0  0  0  0  0  0  0  0
   -0.6770   20.3270  -32.7540 C   0  0  0  0  0  0  0  0  0  0  0  0
   -0.0732   19.5761  -32.2233 H   0  0  0  0  0  0  0  0  0  0  0  0
   -0.0153   21.0787  -33.2090 H   0  0  0  0  0  0  0  0  0  0  0  0
   -1.4890   19.6440  -33.8450 C   0  0  0  0  0  0  0  0  0  0  0  0
   -2.2536   19.0009  -33.3848 H   0  0  0  0  0  0  0  0  0  0  0  0
   -1.9783   20.4061  -34.4694 H   0  0  0  0  0  0  0  0  0  0  0  0
   -0.8220   19.0314  -34.4694 H   0  0  0  0  0  0  0  0  0  0  0  0
   -3.2450   22.0490  -32.9960 O   0  0  0  0  0  0  0  0  0  0  0  0
   -4.5480   22.1320  -33.0970 N   0  0  0  0  0  0  0  0  0  0  0  0
   -5.0130   22.7780  -33.7720 H   0  0  0  0  0  0  0  0  0  0  0  0
   -6.7380   17.7340  -32.4000 C   0  0  0  0  0  0  0  0  0  0  0  0
   -7.2230   17.7038  -31.4132 H   0  0  0  0  0  0  0  0  0  0  0  0
   -6.1110   16.5900  -32.9030 C   0  0  0  0  0  0  0  0  0  0  0  0
   -6.1089   15.6610  -32.3140 H   0  0  0  0  0  0  0  0  0  0  0  0
  1  2  1  0
  2  3  2  0
  3  4  1  0
  3  5  1  0
  5  6  1  0
  5  7  2  0
  7  8  1  0
  8  9  2  0
  9 10  1  0
  9 11  1  0
 11 12  1  0
 11 13  2  0
 13 14  1  0
 13 15  1  0
 15 16  1  0
 15 17  2  0
 17 18  1  0
 18 19  1  0
 19 20  1  0
 20 21  2  0
 21 22  1  0
 22 23  1  0
 22 24  1  0
 22 25  1  0
 25 26  1  0
 25 27  1  0
 25 28  1  0
 20 29  1  0
 29 30  1  0
 30 31  1  0
  7 32  1  0
 32 33  1  0
 32 34  2  0
 34 35  1  0
 34  2  1  0
 17  8  1  0
 30 18  2  0
M  CHG  1  30   1
M  END
>  <UniqueID>  (11) 
11

>  <SMILES>  (11) 
CC/N=c1\o[nH+]c(-c2ccccc2-c2ccccc2)s1

>  <Energy>  (11) 
78.57010457667222

>  <Genealogy>  (11) 
CCN=c1o[nH+]c(-c2ccccc2-c2ccccc2)s1 (protonated)
CC/N=c1\o[nH+]c(-c2ccccc2-c2ccccc2)s1 (cis-trans isomerization)
CC/N=c1\o[nH+]c(-c2ccccc2-c2ccccc2)s1 (3D coordinates assigned)
CC/N=c1\o[nH+]c(-c2ccccc2-c2ccccc2)s1 (optimized conformer: 78.57010457667222 kcal/mol)

>  <smiles>  (11) 
CCN=c1onc(-c2ccccc2-c2ccccc2)s1

>  <score_type>  (11) 
oracle

>  <origin>  (11) 
adg

>  <m_score__min__energy>  (11) 
-7.4900000000000002

>  <m_primary>  (11) 
energy

$$$$
11:0
     RDKit          3D

 47 50  0  0  0  0  0  0  0  0999 V2000
   -5.6980   16.6630  -34.2300 C   0  0  0  0  0  0  0  0  0  0  0  0
   -6.8750   16.7220  -33.4330 O   0  0  0  0  0  0  0  0  0  0  0  0
   -7.3230   17.9010  -32.8320 C   0  0  0  0  0  0  0  0  0  0  0  0
   -6.3890   18.8080  -32.3200 C   0  0  0  0  0  0  0  0  0  0  0  0
   -6.8350   19.9930  -31.7170 C   0  0  0  0  0  0  0  0  0  0  0  0
   -5.9470   20.8960  -31.2080 N   0  0  0  0  0  0  0  0  0  0  0  0
   -6.3810   22.0550  -30.6210 C   0  0  0  0  0  0  0  0  0  0  0  0
   -5.4430   23.0150  -30.0700 N   0  0  0  0  0  0  0  0  0  0  0  0
   -4.9850   22.9060  -28.6740 C   0  0  0  0  0  0  0  0  0  0  0  0
   -3.4560   22.9680  -28.6250 C   0  0  0  0  0  0  0  0  0  0  0  0
   -2.9370   24.0770  -29.4400 N   0  0  0  0  0  0  0  0  0  0  0  0
   -1.5550   24.4570  -29.3190 C   0  0  0  0  0  0  0  0  0  0  0  0
   -1.2460   25.6750  -29.2340 O   0  0  0  0  0  0  0  0  0  0  0  0
   -0.5150   23.4730  -29.2540 N   0  0  0  0  0  0  0  0  0  0  0  0
   -0.5840   22.1500  -29.8030 C   0  0  0  0  0  0  0  0  0  0  0  0
   -1.1760   21.9660  -31.0580 C   0  0  0  0  0  0  0  0  0  0  0  0
   -1.2750   20.6860  -31.6130 C   0  0  0  0  0  0  0  0  0  0  0  0
   -0.7920   19.5780  -30.9100 C   0  0  0  0  0  0  0  0  0  0  0  0
   -0.8880   18.3370  -31.4490 F   0  0  0  0  0  0  0  0  0  0  0  0
   -0.2170   19.7500  -29.6470 C   0  0  0  0  0  0  0  0  0  0  0  0
   -0.1210   21.0280  -29.0890 C   0  0  0  0  0  0  0  0  0  0  0  0
   -3.8670   24.9530  -30.1630 C   0  0  0  0  0  0  0  0  0  0  0  0
   -4.9210   24.1150  -30.9010 C   0  0  0  0  0  0  0  0  0  0  0  0
   -7.7220   22.3000  -30.5460 N   0  0  0  0  0  0  0  0  0  0  0  0
   -8.6400   21.4300  -31.0380 C   0  0  0  0  0  0  0  0  0  0  0  0
   -8.2160   20.2470  -31.6390 C   0  0  0  0  0  0  0  0  0  0  0  0
   -9.1210   19.3140  -32.1630 C   0  0  0  0  0  0  0  0  0  0  0  0
   -8.6570   18.1740  -32.7410 N   0  0  0  0  0  0  0  0  0  0  0  0
   -4.8144   16.6187  -33.5763 H   0  0  0  0  0  0  0  0  0  0  0  0
   -5.7297   15.7653  -34.8649 H   0  0  0  0  0  0  0  0  0  0  0  0
   -5.6398   17.5594  -34.8649 H   0  0  0  0  0  0  0  0  0  0  0  0
   -5.3124   18.5932  -32.3899 H   0  0  0  0  0  0  0  0  0  0  0  0
   -4.9260   20.6870  -31.2830 H   0  0  0  0  0  0  0  0  0  0  0  0
   -5.4034   23.7363  -28.0862 H   0  0  0  0  0  0  0  0  0  0  0  0
   -5.3239   21.9476  -28.2537 H   0  0  0  0  0  0  0  0  0  0  0  0
   -3.1369   23.1106  -27.5820 H   0  0  0  0  0  0  0  0  0  0  0  0
   -3.0584   22.0256  -29.0297 H   0  0  0  0  0  0  0  0  0  0  0  0
   -1.5657   22.8333  -31.6111 H   0  0  0  0  0  0  0  0  0  0  0  0
   -1.7334   20.5508  -32.6038 H   0  0  0  0  0  0  0  0  0  0  0  0
    0.1602   18.8785  -29.0919 H   0  0  0  0  0  0  0  0  0  0  0  0
    0.3177   21.1577  -28.0887 H   0  0  0  0  0  0  0  0  0  0  0  0
   -4.3695   25.6195  -29.4466 H   0  0  0  0  0  0  0  0  0  0  0  0
   -3.3028   25.5469  -30.8971 H   0  0  0  0  0  0  0  0  0  0  0  0
   -5.7572   24.7701  -31.1867 H   0  0  0  0  0  0  0  0  0  0  0  0
   -4.4393   23.6702  -31.7843 H   0  0  0  0  0  0  0  0  0  0  0  0
   -9.7135   21.6578  -30.9626 H   0  0  0  0  0  0  0  0  0  0  0  0
  -10.2031   19.5033  -32.1069 H   0  0  0  0  0  0  0  0  0  0  0  0
  1  2  1  0
  2  3  1  0
  3  4  2  0
  4  5  1  0
  5  6  2  0
  6  7  1  0
  7  8  1  0
  8  9  1  0
  9 10  1  0
 10 11  1  0
 11 12  1  0
 12 13  2  0
 12 14  1  0
 14 15  1  0
 15 16  2  0
 16 17  1  0
 17 18  2  0
 18 19  1  0
 18 20  1  0
 20 21  2  0
 11 22  1  0
 22 23  1  0
  7 24  2  0
 24 25  1  0
 25 26  2  0
 26 27  1  0
 27 28  2  0
 28  3  1  0
 26  5  1  0
 23  8  1  0
 21 15  1  0
  1 29  1  0
  1 30  1  0
  1 31  1  0
  4 32  1  0
  6 33  1  0
  9 34  1  0
  9 35  1  0
 10 36  1  0
 10 37  1  0
 16 38  1  0
 17 39  1  0
 20 40  1  0
 21 41  1  0
 22 42  1  0
 22 43  1  0
 23 44  1  0
 23 45  1  0
 25 46  1  0
 27 47  1  0
M  CHG  2   6   1  14  -1
M  END
>  <UniqueID>  (12) 
12

>  <SMILES>  (12) 
COc1cc2[nH+]c(N3CCN(C(=O)[N-]c4ccc(F)cc4)CC3)ncc2cn1

>  <Energy>  (12) 
60.276496505959045

>  <Genealogy>  (12) 
COc1cc2[nH+]c(N3CCN(C(=O)[N-]c4ccc(F)cc4)CC3)ncc2cn1 (protonated)
COc1cc2[nH+]c(N3CCN(C(=O)[N-]c4ccc(F)cc4)CC3)ncc2cn1 (3D coordinates assigned)
COc1cc2[nH+]c(N3CCN(C(=O)[N-]c4ccc(F)cc4)CC3)ncc2cn1 (nonaromatic ring conformer: 60.276496505959045 kcal/mol)

>  <smiles>  (12) 
COc1cc2nc(N3CCN(C(=O)Nc4ccc(F)cc4)CC3)ncc2cn1

>  <score_type>  (12) 
oracle

>  <origin>  (12) 
adg

>  <m_score__min__energy>  (12) 
-8.0700000000000003

>  <m_primary>  (12) 
energy

$$$$
12:0
     RDKit          3D

 61 64  0  0  0  0  0  0  0  0999 V2000
   -6.4410   25.6700  -29.6080 C   0  0  0  0  0  0  0  0  0  0  0  0
   -5.3790   25.0630  -30.5170 C   0  0  0  0  0  0  0  0  0  0  0  0
   -5.2210   23.6260  -30.2440 N   0  0  0  0  0  0  0  0  0  0  0  0
   -4.7790   23.1790  -28.9170 C   0  0  0  0  0  0  0  0  0  0  0  0
   -3.8490   24.2170  -28.2760 C   0  0  0  0  0  0  0  0  0  0  0  0
   -2.4950   24.1250  -28.8620 N   0  0  0  0  0  0  0  0  0  0  0  0
   -1.5960   25.1410  -28.2850 C   0  0  0  0  0  0  0  0  0  0  0  0
   -1.9290   22.7840  -28.6380 C   0  0  0  0  0  0  0  0  0  0  0  0
   -5.7940   22.6610  -31.1500 C   0  0  0  0  0  0  0  0  0  0  0  0
   -7.1910   22.5590  -31.1730 C   0  0  0  0  0  0  0  0  0  0  0  0
   -7.8300   21.6010  -31.9420 C   0  0  0  0  0  0  0  0  0  0  0  0
   -7.0930   20.7030  -32.7190 C   0  0  0  0  0  0  0  0  0  0  0  0
   -7.7960   19.6720  -33.4530 N   0  0  0  0  0  0  0  0  0  0  0  0
   -8.0360   18.5100  -32.5850 C   0  0  0  0  0  0  0  0  0  0  0  0
   -6.9660   17.4690  -32.7900 C   0  0  0  0  0  0  0  0  0  0  0  0
   -6.1280   17.0940  -31.7230 C   0  0  0  0  0  0  0  0  0  0  0  0
   -5.1540   16.1100  -31.9100 C   0  0  0  0  0  0  0  0  0  0  0  0
   -5.0130   15.4880  -33.1540 C   0  0  0  0  0  0  0  0  0  0  0  0
   -5.8540   15.8450  -34.2100 C   0  0  0  0  0  0  0  0  0  0  0  0
   -6.8330   16.8260  -34.0290 C   0  0  0  0  0  0  0  0  0  0  0  0
   -5.6780   20.7880  -32.7110 C   0  0  0  0  0  0  0  0  0  0  0  0
   -4.7570   19.6970  -33.6150 S   0  0  0  0  0  0  0  0  0  0  0  0
   -3.1100   19.9630  -33.4920 C   0  0  0  0  0  0  0  0  0  0  0  0
   -2.2150   19.1390  -34.1850 C   0  0  0  0  0  0  0  0  0  0  0  0
   -0.8440   19.3700  -34.0910 C   0  0  0  0  0  0  0  0  0  0  0  0
   -0.3680   20.4240  -33.3100 C   0  0  0  0  0  0  0  0  0  0  0  0
   -1.2610   21.2460  -32.6180 C   0  0  0  0  0  0  0  0  0  0  0  0
   -2.6600   21.0330  -32.6910 C   0  0  0  0  0  0  0  0  0  0  0  0
   -3.5510   21.8940  -31.9730 C   0  0  0  0  0  0  0  0  0  0  0  0
   -3.0170   22.8340  -31.3240 O   0  0  0  0  0  0  0  0  0  0  0  0
   -4.9920   21.7770  -31.9460 C   0  0  0  0  0  0  0  0  0  0  0  0
   -6.1595   25.5091  -28.5569 H   0  0  0  0  0  0  0  0  0  0  0  0
   -6.5194   26.7493  -29.8055 H   0  0  0  0  0  0  0  0  0  0  0  0
   -7.4107   25.1898  -29.8055 H   0  0  0  0  0  0  0  0  0  0  0  0
   -5.6801   25.2004  -31.5660 H   0  0  0  0  0  0  0  0  0  0  0  0
   -4.4200   25.5669  -30.3263 H   0  0  0  0  0  0  0  0  0  0  0  0
   -5.6590   23.0362  -28.2726 H   0  0  0  0  0  0  0  0  0  0  0  0
   -4.2290   22.2328  -29.0280 H   0  0  0  0  0  0  0  0  0  0  0  0
   -4.2532   25.2246  -28.4531 H   0  0  0  0  0  0  0  0  0  0  0  0
   -3.7850   24.0208  -27.1955 H   0  0  0  0  0  0  0  0  0  0  0  0
   -1.6414   25.0897  -27.1871 H   0  0  0  0  0  0  0  0  0  0  0  0
   -0.5653   24.9505  -28.6187 H   0  0  0  0  0  0  0  0  0  0  0  0
   -1.9105   26.1409  -28.6187 H   0  0  0  0  0  0  0  0  0  0  0  0
   -1.8494   22.5955  -27.5572 H   0  0  0  0  0  0  0  0  0  0  0  0
   -2.5849   22.0282  -29.0947 H   0  0  0  0  0  0  0  0  0  0  0  0
   -0.9299   22.7267  -29.0947 H   0  0  0  0  0  0  0  0  0  0  0  0
   -7.7923   23.2537  -30.5682 H   0  0  0  0  0  0  0  0  0  0  0  0
   -8.9286   21.5462  -31.9413 H   0  0  0  0  0  0  0  0  0  0  0  0
   -8.7150   20.0460  -33.7900 H   0  0  0  0  0  0  0  0  0  0  0  0
   -7.2580   19.3860  -34.3020 H   0  0  0  0  0  0  0  0  0  0  0  0
   -8.0282   18.8352  -31.5342 H   0  0  0  0  0  0  0  0  0  0  0  0
   -9.0125   18.0717  -32.8388 H   0  0  0  0  0  0  0  0  0  0  0  0
   -6.2401   17.5763  -30.7407 H   0  0  0  0  0  0  0  0  0  0  0  0
   -4.4962   15.8239  -31.0760 H   0  0  0  0  0  0  0  0  0  0  0  0
   -4.2407   14.7185  -33.3008 H   0  0  0  0  0  0  0  0  0  0  0  0
   -5.7457   15.3525  -35.1876 H   0  0  0  0  0  0  0  0  0  0  0  0
   -7.5010   17.0944  -34.8608 H   0  0  0  0  0  0  0  0  0  0  0  0
   -2.5933   18.3109  -34.8024 H   0  0  0  0  0  0  0  0  0  0  0  0
   -0.1380   18.7225  -34.6316 H   0  0  0  0  0  0  0  0  0  0  0  0
    0.7141   20.6083  -33.2390 H   0  0  0  0  0  0  0  0  0  0  0  0
   -0.8713   22.0728  -32.0060 H   0  0  0  0  0  0  0  0  0  0  0  0
  1  2  1  0
  2  3  1  0
  3  4  1  0
  4  5  1  0
  5  6  1  0
  6  7  1  0
  6  8  1  0
  3  9  1  0
  9 10  2  0
 10 11  1  0
 11 12  2  0
 12 13  1  0
 13 14  1  0
 14 15  1  0
 15 16  2  0
 16 17  1  0
 17 18  2  0
 18 19  1  0
 19 20  2  0
 12 21  1  0
 21 22  1  0
 22 23  1  0
 23 24  2  0
 24 25  1  0
 25 26  2  0
 26 27  1  0
 27 28  2  0
 28 29  1  0
 29 30  2  0
 29 31  1  0
 31  9  1  0
 20 15  1  0
 31 21  2  0
 28 23  1  0
  1 32  1  0
  1 33  1  0
  1 34  1  0
  2 35  1  0
  2 36  1  0
  4 37  1  0
  4 38  1  0
  5 39  1  0
  5 40  1  0
  7 41  1  0
  7 42  1  0
  7 43  1  0
  8 44  1  0
  8 45  1  0
  8 46  1  0
 10 47  1  0
 11 48  1  0
 13 49  1  0
 13 50  1  0
 14 51  1  0
 14 52  1  0
 16 53  1  0
 17 54  1  0
 18 55  1  0
 19 56  1  0
 20 57  1  0
 24 58  1  0
 25 59  1  0
 26 60  1  0
 27 61  1  0
M  CHG  1  13   1
M  END
>  <UniqueID>  (13) 
13

>  <SMILES>  (13) 
CCN(CCN(C)C)c1ccc([NH2+]Cc2ccccc2)c2sc3ccccc3c(=O)c12

>  <Energy>  (13) 
82.78873760547896

>  <Genealogy>  (13) 
CCN(CCN(C)C)c1ccc([NH2+]Cc2ccccc2)c2sc3ccccc3c(=O)c12 (protonated)
CCN(CCN(C)C)c1ccc([NH2+]Cc2ccccc2)c2sc3ccccc3c(=O)c12 (3D coordinates assigned)
CCN(CCN(C)C)c1ccc([NH2+]Cc2ccccc2)c2sc3ccccc3c(=O)c12 (optimized conformer: 82.78873760547896 kcal/mol)

>  <smiles>  (13) 
CCN(CCN(C)C)c1ccc(NCc2ccccc2)c2sc3ccccc3c(=O)c12

>  <score_type>  (13) 
oracle

>  <origin>  (13) 
adg

>  <m_score__min__energy>  (13) 
-9.4000000000000004

>  <m_primary>  (13) 
energy

$$$$
13:0
     RDKit          3D

 47 50  0  0  0  0  0  0  0  0999 V2000
   -3.5210   18.2580  -34.2010 C   0  0  0  0  0  0  0  0  0  0  0  0
   -3.4730   16.9900  -35.0480 C   0  0  0  0  0  0  0  0  0  0  0  0
   -4.4410   16.0430  -34.5950 O   0  0  0  0  0  0  0  0  0  0  0  0
   -4.2180   15.0170  -33.6580 C   0  0  0  0  0  0  0  0  0  0  0  0
   -3.4540   13.8740  -33.9710 C   0  0  0  0  0  0  0  0  0  0  0  0
   -3.2960   12.8490  -33.0340 C   0  0  0  0  0  0  0  0  0  0  0  0
   -3.8940   12.9490  -31.7790 C   0  0  0  0  0  0  0  0  0  0  0  0
   -4.6430   14.0800  -31.4500 C   0  0  0  0  0  0  0  0  0  0  0  0
   -4.7930   15.1280  -32.3720 C   0  0  0  0  0  0  0  0  0  0  0  0
   -5.5820   16.3170  -31.9800 C   0  0  0  0  0  0  0  0  0  0  0  0
   -5.7470   16.5610  -30.7550 O   0  0  0  0  0  0  0  0  0  0  0  0
   -6.1460   17.1840  -32.9790 N   0  0  0  0  0  0  0  0  0  0  0  0
   -6.8940   18.3750  -32.6800 C   0  0  0  0  0  0  0  0  0  0  0  0
   -8.2790   18.2820  -32.4900 C   0  0  0  0  0  0  0  0  0  0  0  0
   -9.0400   19.4230  -32.2260 C   0  0  0  0  0  0  0  0  0  0  0  0
   -8.4250   20.6770  -32.1660 C   0  0  0  0  0  0  0  0  0  0  0  0
   -9.1700   21.7840  -31.9130 N   0  0  0  0  0  0  0  0  0  0  0  0
   -8.5990   23.0130  -31.8580 C   0  0  0  0  0  0  0  0  0  0  0  0
   -7.2650   23.1550  -32.0620 N   0  0  0  0  0  0  0  0  0  0  0  0
   -6.4680   22.0860  -32.3240 C   0  0  0  0  0  0  0  0  0  0  0  0
   -4.7140   22.3820  -32.5810 S   0  0  0  0  0  0  0  0  0  0  0  0
   -4.6080   23.5000  -31.1850 C   0  0  0  0  0  0  0  0  0  0  0  0
   -4.9750   24.7940  -31.2380 N   0  0  0  0  0  0  0  0  0  0  0  0
   -4.7920   25.2940  -30.0230 N   0  0  0  0  0  0  0  0  0  0  0  0
   -4.3160   24.2980  -29.2490 C   0  0  0  0  0  0  0  0  0  0  0  0
   -4.1760   23.1640  -29.9560 N   0  0  0  0  0  0  0  0  0  0  0  0
   -3.7840   21.8510  -29.4560 C   0  0  0  0  0  0  0  0  0  0  0  0
   -7.0330   20.7950  -32.3770 C   0  0  0  0  0  0  0  0  0  0  0  0
   -6.2760   19.6380  -32.6410 C   0  0  0  0  0  0  0  0  0  0  0  0
   -3.5108   17.9874  -33.1349 H   0  0  0  0  0  0  0  0  0  0  0  0
   -2.6459   18.8844  -34.4287 H   0  0  0  0  0  0  0  0  0  0  0  0
   -4.4409   18.8165  -34.4287 H   0  0  0  0  0  0  0  0  0  0  0  0
   -3.6835   17.2480  -36.0964 H   0  0  0  0  0  0  0  0  0  0  0  0
   -2.4720   16.5427  -34.9583 H   0  0  0  0  0  0  0  0  0  0  0  0
   -2.9790   13.7884  -34.9595 H   0  0  0  0  0  0  0  0  0  0  0  0
   -2.6982   11.9612  -33.2877 H   0  0  0  0  0  0  0  0  0  0  0  0
   -3.7756   12.1362  -31.0474 H   0  0  0  0  0  0  0  0  0  0  0  0
   -5.1193   14.1507  -30.4610 H   0  0  0  0  0  0  0  0  0  0  0  0
   -6.0570   16.9170  -33.9850 H   0  0  0  0  0  0  0  0  0  0  0  0
   -8.7720   17.3005  -32.5494 H   0  0  0  0  0  0  0  0  0  0  0  0
  -10.1246   19.3348  -32.0651 H   0  0  0  0  0  0  0  0  0  0  0  0
   -9.2189   23.8970  -31.6475 H   0  0  0  0  0  0  0  0  0  0  0  0
   -4.0744   24.4001  -28.1807 H   0  0  0  0  0  0  0  0  0  0  0  0
   -3.7872   21.8616  -28.3561 H   0  0  0  0  0  0  0  0  0  0  0  0
   -4.4952   21.0937  -29.8174 H   0  0  0  0  0  0  0  0  0  0  0  0
   -2.7740   21.6076  -29.8174 H   0  0  0  0  0  0  0  0  0  0  0  0
   -5.1936   19.7221  -32.8180 H   0  0  0  0  0  0  0  0  0  0  0  0
  1  2  1  0
  2  3  1  0
  3  4  1  0
  4  5  2  0
  5  6  1  0
  6  7  2  0
  7  8  1  0
  8  9  2  0
  9 10  1  0
 10 11  2  0
 10 12  1  0
 12 13  1  0
 13 14  2  0
 14 15  1  0
 15 16  2  0
 16 17  1  0
 17 18  2  0
 18 19  1  0
 19 20  2  0
 20 21  1  0
 21 22  1  0
 22 23  2  0
 23 24  1  0
 24 25  2  0
 25 26  1  0
 26 27  1  0
 20 28  1  0
 28 29  2  0
  9  4  1  0
 29 13  1  0
 28 16  1  0
 26 22  1  0
  1 30  1  0
  1 31  1  0
  1 32  1  0
  2 33  1  0
  2 34  1  0
  5 35  1  0
  6 36  1  0
  7 37  1  0
  8 38  1  0
 12 39  1  0
 14 40  1  0
 15 41  1  0
 18 42  1  0
 25 43  1  0
 27 44  1  0
 27 45  1  0
 27 46  1  0
 29 47  1  0
M  END
>  <UniqueID>  (14) 
14

>  <SMILES>  (14) 
CCOc1ccccc1C(=O)Nc1ccc2ncnc(Sc3nncn3C)c2c1

>  <Energy>  (14) 
92.62061845299144

>  <Genealogy>  (14) 
CCOc1ccccc1C(=O)Nc1ccc2ncnc(Sc3nncn3C)c2c1 (3D coordinates assigned)
CCOc1ccccc1C(=O)Nc1ccc2ncnc(Sc3nncn3C)c2c1 (optimized conformer: 92.62061845299144 kcal/mol)

>  <smiles>  (14) 
CCOc1ccccc1C(=O)Nc1ccc2ncnc(Sc3nncn3C)c2c1

>  <score_type>  (14) 
oracle

>  <origin>  (14) 
adg

>  <m_score__min__energy>  (14) 
-8.6699999999999999

>  <m_primary>  (14) 
energy

$$$$
14:0
     RDKit          3D

 31 33  0  0  0  0  0  0  0  0999 V2000
   -5.2230   14.5110  -33.8740 C   0  0  0  0  0  0  0  0  0  0  0  0
   -5.8410   15.5900  -34.5690 O   0  0  0  0  0  0  0  0  0  0  0  0
   -6.1480   16.8310  -33.9930 C   0  0  0  0  0  0  0  0  0  0  0  0
   -5.7130   17.9910  -34.6400 C   0  0  0  0  0  0  0  0  0  0  0  0
   -5.9960   19.2520  -34.1080 C   0  0  0  0  0  0  0  0  0  0  0  0
   -6.7280   19.3760  -32.9120 C   0  0  0  0  0  0  0  0  0  0  0  0
   -7.0330   20.7060  -32.3240 C   0  0  0  0  0  0  0  0  0  0  0  0
   -8.3670   21.1220  -32.0620 C   0  0  0  0  0  0  0  0  0  0  0  0
   -8.6180   22.3870  -31.5030 C   0  0  0  0  0  0  0  0  0  0  0  0
   -7.5170   23.1790  -31.2200 C   0  0  0  0  0  0  0  0  0  0  0  0
   -7.5060   24.4220  -30.6880 N   0  0  0  0  0  0  0  0  0  0  0  0
   -6.2180   24.7530  -30.6040 N   0  0  0  0  0  0  0  0  0  0  0  0
   -5.7280   26.0450  -30.1380 C   0  0  0  0  0  0  0  0  0  0  0  0
   -5.4810   23.7320  -31.0910 C   0  0  0  0  0  0  0  0  0  0  0  0
   -4.2240   23.7200  -31.1790 O   0  0  0  0  0  0  0  0  0  0  0  0
   -6.2830   22.7360  -31.4750 N   0  0  0  0  0  0  0  0  0  0  0  0
   -6.0040   21.5490  -32.0070 N   0  0  0  0  0  0  0  0  0  0  0  0
   -7.1550   18.2070  -32.2570 C   0  0  0  0  0  0  0  0  0  0  0  0
   -6.8720   16.9470  -32.7920 C   0  0  0  0  0  0  0  0  0  0  0  0
   -5.3154   14.6723  -32.7898 H   0  0  0  0  0  0  0  0  0  0  0  0
   -5.7175   13.5673  -34.1477 H   0  0  0  0  0  0  0  0  0  0  0  0
   -4.1588   14.4601  -34.1477 H   0  0  0  0  0  0  0  0  0  0  0  0
   -5.1424   17.9107  -35.5770 H   0  0  0  0  0  0  0  0  0  0  0  0
   -5.6439   20.1550  -34.6281 H   0  0  0  0  0  0  0  0  0  0  0  0
   -9.2062   20.4511  -32.2977 H   0  0  0  0  0  0  0  0  0  0  0  0
   -9.6423   22.7325  -31.2994 H   0  0  0  0  0  0  0  0  0  0  0  0
   -5.7223   26.0600  -29.0381 H   0  0  0  0  0  0  0  0  0  0  0  0
   -4.7063   26.2063  -30.5122 H   0  0  0  0  0  0  0  0  0  0  0  0
   -6.3858   26.8433  -30.5122 H   0  0  0  0  0  0  0  0  0  0  0  0
   -7.7171   18.2850  -31.3147 H   0  0  0  0  0  0  0  0  0  0  0  0
   -7.2170   16.0415  -32.2715 H   0  0  0  0  0  0  0  0  0  0  0  0
  1  2  1  0
  2  3  1  0
  3  4  2  0
  4  5  1  0
  5  6  2  0
  6  7  1  0
  7  8  1  0
  8  9  2  0
  9 10  1  0
 10 11  2  0
 11 12  1  0
 12 13  1  0
 12 14  1  0
 14 15  2  0
 14 16  1  0
 16 17  1  0
  6 18  1  0
 18 19  2  0
 19  3  1  0
 17  7  2  0
 16 10  1  0
  1 20  1  0
  1 21  1  0
  1 22  1  0
  4 23  1  0
  5 24  1  0
  8 25  1  0
  9 26  1  0
 13 27  1  0
 13 28  1  0
 13 29  1  0
 18 30  1  0
 19 31  1  0
M  END
>  <UniqueID>  (15) 
15

>  <SMILES>  (15) 
COc1ccc(-c2ccc3nn(C)c(=O)n3n2)cc1

>  <Energy>  (15) 
82.1857369211783

>  <Genealogy>  (15) 
COc1ccc(-c2ccc3nn(C)c(=O)n3n2)cc1 (3D coordinates assigned)
COc1ccc(-c2ccc3nn(C)c(=O)n3n2)cc1 (optimized conformer: 82.1857369211783 kcal/mol)

>  <smiles>  (15) 
COc1ccc(-c2ccc3nn(C)c(=O)n3n2)cc1

>  <score_type>  (15) 
oracle

>  <origin>  (15) 
adg

>  <m_score__min__energy>  (15) 
-6.9900000000000002

>  <m_primary>  (15) 
energy

$$$$
15:0
     RDKit          3D

 35 36  0  0  0  0  0  0  0  0999 V2000
   -2.3090   24.5740  -28.8210 C   0  0  0  0  0  0  0  0  0  0  0  0
   -3.2300   25.1960  -29.7120 O   0  0  0  0  0  0  0  0  0  0  0  0
   -4.4380   24.6210  -30.1350 C   0  0  0  0  0  0  0  0  0  0  0  0
   -5.6870   25.1590  -29.7790 C   0  0  0  0  0  0  0  0  0  0  0  0
   -6.8680   24.5640  -30.2240 C   0  0  0  0  0  0  0  0  0  0  0  0
   -6.8330   23.4160  -31.0330 C   0  0  0  0  0  0  0  0  0  0  0  0
   -8.1070   22.8070  -31.5090 C   0  0  0  0  0  0  0  0  0  0  0  0
   -8.8120   23.4290  -32.3510 O   0  0  0  0  0  0  0  0  0  0  0  0
   -8.5830   21.4510  -31.0550 C   0  0  0  0  0  0  0  0  0  0  0  0
   -7.9520   20.3490  -31.8690 C   0  0  0  0  0  0  0  0  0  0  0  0
   -7.0590   20.6530  -32.9130 C   0  0  0  0  0  0  0  0  0  0  0  0
   -6.4800   19.6260  -33.6660 C   0  0  0  0  0  0  0  0  0  0  0  0
   -6.7790   18.2920  -33.3780 C   0  0  0  0  0  0  0  0  0  0  0  0
   -7.6540   17.9800  -32.3350 C   0  0  0  0  0  0  0  0  0  0  0  0
   -8.2370   19.0030  -31.5800 C   0  0  0  0  0  0  0  0  0  0  0  0
   -5.5810   22.8720  -31.3770 C   0  0  0  0  0  0  0  0  0  0  0  0
   -4.3850   23.4730  -30.9390 C   0  0  0  0  0  0  0  0  0  0  0  0
   -3.1250   22.9600  -31.2830 O   0  0  0  0  0  0  0  0  0  0  0  0
   -2.9140   21.7620  -32.0230 C   0  0  0  0  0  0  0  0  0  0  0  0
   -2.6095   24.7770  -27.7825 H   0  0  0  0  0  0  0  0  0  0  0  0
   -2.3058   23.4880  -28.9962 H   0  0  0  0  0  0  0  0  0  0  0  0
   -1.3005   24.9767  -28.9962 H   0  0  0  0  0  0  0  0  0  0  0  0
   -5.7336   26.0563  -29.1445 H   0  0  0  0  0  0  0  0  0  0  0  0
   -7.8372   24.9986  -29.9382 H   0  0  0  0  0  0  0  0  0  0  0  0
   -8.3159   21.3130  -29.9969 H   0  0  0  0  0  0  0  0  0  0  0  0
   -9.6736   21.4022  -31.1901 H   0  0  0  0  0  0  0  0  0  0  0  0
   -6.8153   21.7018  -33.1378 H   0  0  0  0  0  0  0  0  0  0  0  0
   -5.7883   19.8691  -34.4860 H   0  0  0  0  0  0  0  0  0  0  0  0
   -6.3247   17.4864  -33.9734 H   0  0  0  0  0  0  0  0  0  0  0  0
   -7.8848   16.9289  -32.1071 H   0  0  0  0  0  0  0  0  0  0  0  0
   -8.9218   18.7532  -30.7562 H   0  0  0  0  0  0  0  0  0  0  0  0
   -5.5362   21.9644  -31.9969 H   0  0  0  0  0  0  0  0  0  0  0  0
   -2.7662   20.9227  -31.3275 H   0  0  0  0  0  0  0  0  0  0  0  0
   -3.7909   21.5631  -32.6566 H   0  0  0  0  0  0  0  0  0  0  0  0
   -2.0219   21.8747  -32.6566 H   0  0  0  0  0  0  0  0  0  0  0  0
  1  2  1  0
  2  3  1  0
  3  4  2  0
  4  5  1  0
  5  6  2  0
  6  7  1  0
  7  8  2  0
  7  9  1  0
  9 10  1  0
 10 11  2  0
 11 12  1  0
 12 13  2  0
 13 14  1  0
 14 15  2  0
  6 16  1  0
 16 17  2  0
 17 18  1  0
 18 19  1  0
 17  3  1  0
 15 10  1  0
  1 20  1  0
  1 21  1  0
  1 22  1  0
  4 23  1  0
  5 24  1  0
  9 25  1  0
  9 26  1  0
 11 27  1  0
 12 28  1  0
 13 29  1  0
 14 30  1  0
 15 31  1  0
 16 32  1  0
 19 33  1  0
 19 34  1  0
 19 35  1  0
M  END
>  <UniqueID>  (16) 
16

>  <SMILES>  (16) 
COc1ccc(C(=O)Cc2ccccc2)cc1OC

>  <Energy>  (16) 
34.813171970763065

>  <Genealogy>  (16) 
COc1ccc(C(=O)Cc2ccccc2)cc1OC (3D coordinates assigned)
COc1ccc(C(=O)Cc2ccccc2)cc1OC (optimized conformer: 34.813171970763065 kcal/mol)

>  <smiles>  (16) 
COc1ccc(C(=O)Cc2ccccc2)cc1OC

>  <score_type>  (16) 
oracle

>  <origin>  (16) 
adg

>  <m_score__min__energy>  (16) 
-7.96

>  <m_primary>  (16) 
energy

$$$$
16:0
     RDKit          3D

 61 61  0  0  0  0  0  0  0  0999 V2000
   -3.4730   21.9540  -31.7620 C   0  0  0  0  0  0  0  0  0  0  0  0
   -2.0800   21.5680  -32.2810 C   0  0  0  0  0  0  0  0  0  0  0  0
   -2.0770   20.9300  -33.6270 N   0  0  0  0  0  0  0  0  0  0  0  0
   -0.7430   20.3470  -33.9330 C   0  0  0  0  0  0  0  0  0  0  0  0
   -0.0470   21.0490  -35.1060 C   0  0  0  0  0  0  0  0  0  0  0  0
   -3.1510   19.9150  -33.8050 C   0  0  0  0  0  0  0  0  0  0  0  0
   -2.6080   18.5160  -34.1610 C   0  0  0  0  0  0  0  0  0  0  0  0
   -2.9870   17.4530  -33.1100 C   0  0  0  0  0  0  0  0  0  0  0  0
   -4.1030   16.6160  -33.5770 N   0  0  0  0  0  0  0  0  0  0  0  0
   -4.9630   17.3470  -34.5180 C   0  0  0  0  0  0  0  0  0  0  0  0
   -6.4450   17.0310  -34.2640 C   0  0  0  0  0  0  0  0  0  0  0  0
   -6.8740   17.2650  -32.8060 C   0  0  0  0  0  0  0  0  0  0  0  0
   -7.1740   18.7120  -32.5090 C   0  0  0  0  0  0  0  0  0  0  0  0
   -6.3110   19.7220  -32.9650 C   0  0  0  0  0  0  0  0  0  0  0  0
   -6.5990   21.0640  -32.7120 C   0  0  0  0  0  0  0  0  0  0  0  0
   -7.7550   21.4210  -32.0010 C   0  0  0  0  0  0  0  0  0  0  0  0
   -8.0840   22.8740  -31.7720 C   0  0  0  0  0  0  0  0  0  0  0  0
   -6.8480   23.7840  -31.8500 C   0  0  0  0  0  0  0  0  0  0  0  0
   -6.1420   23.9860  -30.4950 C   0  0  0  0  0  0  0  0  0  0  0  0
   -5.6750   25.4290  -30.2740 C   0  0  0  0  0  0  0  0  0  0  0  0
   -4.2530   25.5380  -30.5810 N   0  0  0  0  0  0  0  0  0  0  0  0
   -8.6140   20.4130  -31.5360 C   0  0  0  0  0  0  0  0  0  0  0  0
   -8.3260   19.0680  -31.7910 C   0  0  0  0  0  0  0  0  0  0  0  0
   -3.4678   21.9526  -30.6620 H   0  0  0  0  0  0  0  0  0  0  0  0
   -3.7346   22.9585  -32.1261 H   0  0  0  0  0  0  0  0  0  0  0  0
   -4.2143   21.2274  -32.1261 H   0  0  0  0  0  0  0  0  0  0  0  0
   -1.4674   22.4802  -32.3319 H   0  0  0  0  0  0  0  0  0  0  0  0
   -1.6810   20.8204  -31.5796 H   0  0  0  0  0  0  0  0  0  0  0  0
   -2.2560   21.7030  -34.3110 H   0  0  0  0  0  0  0  0  0  0  0  0
   -0.1062   20.4370  -33.0406 H   0  0  0  0  0  0  0  0  0  0  0  0
   -0.8965   19.2956  -34.2178 H   0  0  0  0  0  0  0  0  0  0  0  0
    0.6777   21.7800  -34.7180 H   0  0  0  0  0  0  0  0  0  0  0  0
    0.4780   20.3029  -35.7205 H   0  0  0  0  0  0  0  0  0  0  0  0
   -0.7976   21.5676  -35.7205 H   0  0  0  0  0  0  0  0  0  0  0  0
   -3.7216   19.8410  -32.8675 H   0  0  0  0  0  0  0  0  0  0  0  0
   -3.7797   20.2464  -34.6446 H   0  0  0  0  0  0  0  0  0  0  0  0
   -3.0219   18.2137  -35.1343 H   0  0  0  0  0  0  0  0  0  0  0  0
   -1.5103   18.5803  -34.1920 H   0  0  0  0  0  0  0  0  0  0  0  0
   -2.1141   16.8120  -32.9174 H   0  0  0  0  0  0  0  0  0  0  0  0
   -3.3003   17.9691  -32.1905 H   0  0  0  0  0  0  0  0  0  0  0  0
   -4.6840   16.3710  -32.7410 H   0  0  0  0  0  0  0  0  0  0  0  0
   -4.7982   18.4273  -34.3920 H   0  0  0  0  0  0  0  0  0  0  0  0
   -4.7076   17.0366  -35.5419 H   0  0  0  0  0  0  0  0  0  0  0  0
   -7.0559   17.6733  -34.9154 H   0  0  0  0  0  0  0  0  0  0  0  0
   -6.5927   15.9626  -34.4803 H   0  0  0  0  0  0  0  0  0  0  0  0
   -7.7779   16.6708  -32.6062 H   0  0  0  0  0  0  0  0  0  0  0  0
   -6.0352   16.9624  -32.1620 H   0  0  0  0  0  0  0  0  0  0  0  0
   -5.4029   19.4537  -33.5248 H   0  0  0  0  0  0  0  0  0  0  0  0
   -5.9154   21.8469  -33.0723 H   0  0  0  0  0  0  0  0  0  0  0  0
   -8.8061   23.1956  -32.5370 H   0  0  0  0  0  0  0  0  0  0  0  0
   -8.4978   22.9638  -30.7568 H   0  0  0  0  0  0  0  0  0  0  0  0
   -6.1301   23.3354  -32.5524 H   0  0  0  0  0  0  0  0  0  0  0  0
   -7.1969   24.7730  -32.1817 H   0  0  0  0  0  0  0  0  0  0  0  0
   -6.8426   23.7170  -29.6908 H   0  0  0  0  0  0  0  0  0  0  0  0
   -5.2476   23.3457  -30.4906 H   0  0  0  0  0  0  0  0  0  0  0  0
   -6.2438   26.1023  -30.9321 H   0  0  0  0  0  0  0  0  0  0  0  0
   -5.8435   25.7097  -29.2239 H   0  0  0  0  0  0  0  0  0  0  0  0
   -4.1510   25.6840  -31.6120 H   0  0  0  0  0  0  0  0  0  0  0  0
   -3.8880   26.4020  -30.1170 H   0  0  0  0  0  0  0  0  0  0  0  0
   -9.5173   20.6817  -30.9688 H   0  0  0  0  0  0  0  0  0  0  0  0
   -9.0067   18.2846  -31.4265 H   0  0  0  0  0  0  0  0  0  0  0  0
  1  2  1  0
  2  3  1  0
  3  4  1  0
  4  5  1  0
  3  6  1  0
  6  7  1  0
  7  8  1  0
  8  9  1  0
  9 10  1  0
 10 11  1  0
 11 12  1  0
 12 13  1  0
 13 14  2  0
 14 15  1  0
 15 16  2  0
 16 17  1  0
 17 18  1  0
 18 19  1  0
 19 20  1  0
 20 21  1  0
 16 22  1  0
 22 23  2  0
 23 13  1  0
  1 24  1  0
  1 25  1  0
  1 26  1  0
  2 27  1  0
  2 28  1  0
  3 29  1  0
  4 30  1  0
  4 31  1  0
  5 32  1  0
  5 33  1  0
  5 34  1  0
  6 35  1  0
  6 36  1  0
  7 37  1  0
  7 38  1  0
  8 39  1  0
  8 40  1  0
  9 41  1  0
 10 42  1  0
 10 43  1  0
 11 44  1  0
 11 45  1  0
 12 46  1  0
 12 47  1  0
 14 48  1  0
 15 49  1  0
 17 50  1  0
 17 51  1  0
 18 52  1  0
 18 53  1  0
 19 54  1  0
 19 55  1  0
 20 56  1  0
 20 57  1  0
 21 58  1  0
 21 59  1  0
 22 60  1  0
 23 61  1  0
M  CHG  1   3   1
M  END
>  <UniqueID>  (17) 
17

>  <SMILES>  (17) 
CC[NH+](CC)CCCNCCCc1ccc(CCCCN)cc1

>  <Energy>  (17) 
45.75202615512059

>  <Genealogy>  (17) 
CC[NH+](CC)CCCNCCCc1ccc(CCCCN)cc1 (protonated)
CC[NH+](CC)CCCNCCCc1ccc(CCCCN)cc1 (3D coordinates assigned)
CC[NH+](CC)CCCNCCCc1ccc(CCCCN)cc1 (optimized conformer: 45.75202615512059 kcal/mol)

>  <smiles>  (17) 
CCN(CC)CCCNCCCc1ccc(CCCCN)cc1

>  <score_type>  (17) 
oracle

>  <origin>  (17) 
adg

>  <m_score__min__energy>  (17) 
-7.3799999999999999

>  <m_primary>  (17) 
energy

$$$$
17:0
     RDKit          3D

 59 62  0  0  0  0  0  0  0  0999 V2000
   -0.8090   28.7730  -24.8380 C   0  0  0  0  0  0  0  0  0  0  0  0
   -0.3900   27.3430  -24.7060 N   0  0  0  0  0  0  0  0  0  0  0  0
    0.2530   27.1920  -23.3720 C   0  0  0  0  0  0  0  0  0  0  0  0
   -1.6140   26.4600  -24.7850 C   0  0  0  0  0  0  0  0  0  0  0  0
   -1.4460   25.2130  -25.6890 C   0  0  0  0  0  0  0  0  0  0  0  0
   -1.0040   25.6310  -27.0260 N   0  0  0  0  0  0  0  0  0  0  0  0
   -1.5070   24.9970  -28.2300 C   0  0  0  0  0  0  0  0  0  0  0  0
   -1.4820   25.6230  -29.3260 O   0  0  0  0  0  0  0  0  0  0  0  0
   -2.0830   23.5940  -28.2220 C   0  0  0  0  0  0  0  0  0  0  0  0
   -3.4470   23.5330  -27.5090 C   0  0  0  0  0  0  0  0  0  0  0  0
   -4.6010   23.0760  -28.4120 C   0  0  0  0  0  0  0  0  0  0  0  0
   -5.3220   24.2430  -29.1080 C   0  0  0  0  0  0  0  0  0  0  0  0
   -5.1110   24.1600  -30.5920 C   0  0  0  0  0  0  0  0  0  0  0  0
   -4.6000   25.1340  -31.2120 O   0  0  0  0  0  0  0  0  0  0  0  0
   -5.3710   22.9290  -31.2850 N   0  0  0  0  0  0  0  0  0  0  0  0
   -6.5790   22.3660  -31.5260 C   0  0  0  0  0  0  0  0  0  0  0  0
   -7.8390   22.8290  -31.1640 C   0  0  0  0  0  0  0  0  0  0  0  0
   -8.9610   22.0690  -31.5730 C   0  0  0  0  0  0  0  0  0  0  0  0
   -8.8080   20.8810  -32.3410 C   0  0  0  0  0  0  0  0  0  0  0  0
   -7.5330   20.4480  -32.7070 C   0  0  0  0  0  0  0  0  0  0  0  0
   -6.4350   21.1990  -32.2770 C   0  0  0  0  0  0  0  0  0  0  0  0
   -5.0860   21.0570  -32.5090 C   0  0  0  0  0  0  0  0  0  0  0  0
   -4.3690   20.0950  -33.2060 C   0  0  0  0  0  0  0  0  0  0  0  0
   -2.9710   20.2350  -33.2580 C   0  0  0  0  0  0  0  0  0  0  0  0
   -2.3280   21.3200  -32.6250 C   0  0  0  0  0  0  0  0  0  0  0  0
   -3.0760   22.2780  -31.9260 C   0  0  0  0  0  0  0  0  0  0  0  0
   -4.4670   22.1340  -31.8940 C   0  0  0  0  0  0  0  0  0  0  0  0
    0.0070   26.6950  -27.1320 C   0  0  0  0  0  0  0  0  0  0  0  0
    0.6410   27.0190  -25.7520 C   0  0  0  0  0  0  0  0  0  0  0  0
   -0.9374   29.2113  -23.8373 H   0  0  0  0  0  0  0  0  0  0  0  0
   -0.0369   29.3321  -25.3869 H   0  0  0  0  0  0  0  0  0  0  0  0
   -1.7607   28.8270  -25.3869 H   0  0  0  0  0  0  0  0  0  0  0  0
   -0.4934   27.3673  -22.5832 H   0  0  0  0  0  0  0  0  0  0  0  0
    0.6585   26.1742  -23.2735 H   0  0  0  0  0  0  0  0  0  0  0  0
    1.0691   27.9229  -23.2735 H   0  0  0  0  0  0  0  0  0  0  0  0
   -1.8575   26.1177  -23.7684 H   0  0  0  0  0  0  0  0  0  0  0  0
   -2.4120   27.0689  -25.2350 H   0  0  0  0  0  0  0  0  0  0  0  0
   -0.6955   24.5399  -25.2489 H   0  0  0  0  0  0  0  0  0  0  0  0
   -2.4089   24.6873  -25.7698 H   0  0  0  0  0  0  0  0  0  0  0  0
   -2.2104   23.2567  -29.2612 H   0  0  0  0  0  0  0  0  0  0  0  0
   -1.3847   22.9437  -27.6747 H   0  0  0  0  0  0  0  0  0  0  0  0
   -3.3666   22.8296  -26.6671 H   0  0  0  0  0  0  0  0  0  0  0  0
   -3.6829   24.5568  -27.1830 H   0  0  0  0  0  0  0  0  0  0  0  0
   -4.1967   22.4043  -29.1836 H   0  0  0  0  0  0  0  0  0  0  0  0
   -5.3384   22.5708  -27.7709 H   0  0  0  0  0  0  0  0  0  0  0  0
   -6.3986   24.1896  -28.8889 H   0  0  0  0  0  0  0  0  0  0  0  0
   -4.9143   25.1947  -28.7363 H   0  0  0  0  0  0  0  0  0  0  0  0
   -7.9598   23.7535  -30.5802 H   0  0  0  0  0  0  0  0  0  0  0  0
   -9.9705   22.4032  -31.2917 H   0  0  0  0  0  0  0  0  0  0  0  0
   -9.6939   20.3045  -32.6459 H   0  0  0  0  0  0  0  0  0  0  0  0
   -7.3958   19.5423  -33.3160 H   0  0  0  0  0  0  0  0  0  0  0  0
   -4.8761   19.2531  -33.7001 H   0  0  0  0  0  0  0  0  0  0  0  0
   -2.3706   19.4890  -33.7992 H   0  0  0  0  0  0  0  0  0  0  0  0
   -1.2335   21.4147  -32.6803 H   0  0  0  0  0  0  0  0  0  0  0  0
   -2.5828   23.1193  -31.4170 H   0  0  0  0  0  0  0  0  0  0  0  0
    0.7994   26.3674  -27.8211 H   0  0  0  0  0  0  0  0  0  0  0  0
   -0.4871   27.6038  -27.5061 H   0  0  0  0  0  0  0  0  0  0  0  0
    1.2213   26.1467  -25.4169 H   0  0  0  0  0  0  0  0  0  0  0  0
    1.2796   27.9058  -25.8776 H   0  0  0  0  0  0  0  0  0  0  0  0
  1  2  1  0
  2  3  1  0
  2  4  1  0
  4  5  1  0
  5  6  1  0
  6  7  1  0
  7  8  2  0
  7  9  1  0
  9 10  1  0
 10 11  1  0
 11 12  1  0
 12 13  1  0
 13 14  2  0
 13 15  1  0
 15 16  1  0
 16 17  2  0
 17 18  1  0
 18 19  2  0
 19 20  1  0
 20 21  2  0
 21 22  1  0
 22 23  2  0
 23 24  1  0
 24 25  2  0
 25 26  1  0
 26 27  2  0
  6 28  1  0
 28 29  1  0
 29  2  1  0
 27 15  1  0
 21 16  1  0
 27 22  1  0
  1 30  1  0
  1 31  1  0
  1 32  1  0
  3 33  1  0
  3 34  1  0
  3 35  1  0
  4 36  1  0
  4 37  1  0
  5 38  1  0
  5 39  1  0
  9 40  1  0
  9 41  1  0
 10 42  1  0
 10 43  1  0
 11 44  1  0
 11 45  1  0
 12 46  1  0
 12 47  1  0
 17 48  1  0
 18 49  1  0
 19 50  1  0
 20 51  1  0
 23 52  1  0
 24 53  1  0
 25 54  1  0
 26 55  1  0
 28 56  1  0
 28 57  1  0
 29 58  1  0
 29 59  1  0
M  CHG  1   2   1
M  END
>  <UniqueID>  (18) 
18

>  <SMILES>  (18) 
C[N+]1(C)CCN(C(=O)CCCCC(=O)n2c3ccccc3c3ccccc32)CC1

>  <Energy>  (18) 
113.68321919241856

>  <Genealogy>  (18) 
C[N+]1(C)CCN(C(=O)CCCCC(=O)n2c3ccccc3c3ccccc32)CC1 (3D coordinates assigned)
C[N+]1(C)CCN(C(=O)CCCCC(=O)n2c3ccccc3c3ccccc32)CC1 (nonaromatic ring conformer: 113.68321919241856 kcal/mol)

>  <smiles>  (18) 
C[N+]1(C)CCN(C(=O)CCCCC(=O)n2c3ccccc3c3ccccc32)CC1

>  <score_type>  (18) 
oracle

>  <origin>  (18) 
adg

>  <m_score__min__energy>  (18) 
-10.41

>  <m_primary>  (18) 
energy

$$$$
18:0
     RDKit          3D

 40 41  0  0  0  0  0  0  0  0999 V2000
   -5.2620   25.4250  -30.4940 C   0  0  0  0  0  0  0  0  0  0  0  0
   -3.8470   25.2830  -30.4700 O   0  0  0  0  0  0  0  0  0  0  0  0
   -3.1690   24.1090  -30.1020 C   0  0  0  0  0  0  0  0  0  0  0  0
   -3.3870   22.8880  -30.7700 C   0  0  0  0  0  0  0  0  0  0  0  0
   -2.7210   21.7190  -30.3650 C   0  0  0  0  0  0  0  0  0  0  0  0
   -2.9270   20.4270  -31.1120 C   0  0  0  0  0  0  0  0  0  0  0  0
   -2.4310   20.5820  -32.8700 S   0  0  0  0  0  0  0  0  0  0  0  0
   -3.9090   21.4880  -33.4630 C   0  0  0  0  0  0  0  0  0  0  0  0
   -5.1920   20.7900  -33.0940 C   0  0  0  0  0  0  0  0  0  0  0  0
   -5.4260   19.4630  -33.4950 C   0  0  0  0  0  0  0  0  0  0  0  0
   -6.6090   18.8140  -33.1310 C   0  0  0  0  0  0  0  0  0  0  0  0
   -7.5780   19.4890  -32.3840 C   0  0  0  0  0  0  0  0  0  0  0  0
   -9.0590   18.6720  -31.9210 Cl  0  0  0  0  0  0  0  0  0  0  0  0
   -7.3680   20.8200  -32.0080 C   0  0  0  0  0  0  0  0  0  0  0  0
   -6.1830   21.4700  -32.3660 C   0  0  0  0  0  0  0  0  0  0  0  0
   -1.8810   21.7640  -29.2450 C   0  0  0  0  0  0  0  0  0  0  0  0
   -1.6530   22.9690  -28.5810 C   0  0  0  0  0  0  0  0  0  0  0  0
   -2.2620   24.1510  -29.0220 C   0  0  0  0  0  0  0  0  0  0  0  0
   -1.9840   25.3760  -28.3260 N   0  0  0  0  0  0  0  0  0  0  0  0
   -0.6730   25.7500  -27.8770 C   0  0  0  0  0  0  0  0  0  0  0  0
   -0.4620   27.0680  -27.2080 C   0  0  0  0  0  0  0  0  0  0  0  0
    0.2930   24.9450  -27.9740 O   0  0  0  0  0  0  0  0  0  0  0  0
   -5.6442   25.4634  -29.4632 H   0  0  0  0  0  0  0  0  0  0  0  0
   -5.5284   26.3544  -31.0187 H   0  0  0  0  0  0  0  0  0  0  0  0
   -5.7078   24.5671  -31.0187 H   0  0  0  0  0  0  0  0  0  0  0  0
   -4.0864   22.8494  -31.6181 H   0  0  0  0  0  0  0  0  0  0  0  0
   -2.3225   19.6396  -30.6380 H   0  0  0  0  0  0  0  0  0  0  0  0
   -3.9969   20.1739  -31.0759 H   0  0  0  0  0  0  0  0  0  0  0  0
   -3.9114   22.4929  -33.0156 H   0  0  0  0  0  0  0  0  0  0  0  0
   -3.8560   21.5378  -34.5606 H   0  0  0  0  0  0  0  0  0  0  0  0
   -4.6743   18.9329  -34.0982 H   0  0  0  0  0  0  0  0  0  0  0  0
   -6.7776   17.7698  -33.4331 H   0  0  0  0  0  0  0  0  0  0  0  0
   -8.1357   21.3556  -31.4303 H   0  0  0  0  0  0  0  0  0  0  0  0
   -6.0256   22.5194  -32.0762 H   0  0  0  0  0  0  0  0  0  0  0  0
   -1.3980   20.8429  -28.8869 H   0  0  0  0  0  0  0  0  0  0  0  0
   -0.9896   22.9915  -27.7039 H   0  0  0  0  0  0  0  0  0  0  0  0
   -2.7950   25.9430  -27.9860 H   0  0  0  0  0  0  0  0  0  0  0  0
   -0.4836   26.9328  -26.1166 H   0  0  0  0  0  0  0  0  0  0  0  0
    0.5134   27.4791  -27.5073 H   0  0  0  0  0  0  0  0  0  0  0  0
   -1.2603   27.7631  -27.5073 H   0  0  0  0  0  0  0  0  0  0  0  0
  1  2  1  0
  2  3  1  0
  3  4  2  0
  4  5  1  0
  5  6  1  0
  6  7  1  0
  7  8  1  0
  8  9  1  0
  9 10  2  0
 10 11  1  0
 11 12  2  0
 12 13  1  0
 12 14  1  0
 14 15  2  0
  5 16  2  0
 16 17  1  0
 17 18  2  0
 18 19  1  0
 19 20  1  0
 20 21  1  0
 20 22  2  0
 18  3  1  0
 15  9  1  0
  1 23  1  0
  1 24  1  0
  1 25  1  0
  4 26  1  0
  6 27  1  0
  6 28  1  0
  8 29  1  0
  8 30  1  0
 10 31  1  0
 11 32  1  0
 14 33  1  0
 15 34  1  0
 16 35  1  0
 17 36  1  0
 19 37  1  0
 21 38  1  0
 21 39  1  0
 21 40  1  0
M  END
>  <UniqueID>  (19) 
19

>  <SMILES>  (19) 
COc1cc(CSCc2ccc(Cl)cc2)ccc1NC(C)=O

>  <Energy>  (19) 
34.79460307159602

>  <Genealogy>  (19) 
COc1cc(CSCc2ccc(Cl)cc2)ccc1NC(C)=O (3D coordinates assigned)
COc1cc(CSCc2ccc(Cl)cc2)ccc1NC(C)=O (optimized conformer: 34.79460307159602 kcal/mol)

>  <smiles>  (19) 
COc1cc(CSCc2ccc(Cl)cc2)ccc1NC(C)=O

>  <score_type>  (19) 
oracle

>  <origin>  (19) 
adg

>  <m_score__min__energy>  (19) 
-8.6999999999999993

>  <m_primary>  (19) 
energy

$$$$
19:0
     RDKit          3D

 34 36  0  0  0  0  0  0  0  0999 V2000
   -6.7680   23.8020  -32.3880 C   0  0  0  0  0  0  0  0  0  0  0  0
   -5.6850   23.0800  -31.6490 C   0  0  0  0  0  0  0  0  0  0  0  0
   -4.5760   23.7380  -31.2140 N   0  0  0  0  0  0  0  0  0  0  0  0
   -3.7100   22.9140  -30.5840 C   0  0  0  0  0  0  0  0  0  0  0  0
   -2.3750   23.3540  -30.0790 C   0  0  0  0  0  0  0  0  0  0  0  0
   -2.5290   24.0570  -28.7590 C   0  0  0  0  0  0  0  0  0  0  0  0
   -1.4630   24.8000  -28.2240 C   0  0  0  0  0  0  0  0  0  0  0  0
   -1.5940   25.4220  -26.9780 C   0  0  0  0  0  0  0  0  0  0  0  0
   -2.7840   25.2970  -26.2550 C   0  0  0  0  0  0  0  0  0  0  0  0
   -3.8430   24.5480  -26.7750 C   0  0  0  0  0  0  0  0  0  0  0  0
   -3.7160   23.9250  -28.0190 C   0  0  0  0  0  0  0  0  0  0  0  0
   -4.2690   21.3290  -30.5610 S   0  0  0  0  0  0  0  0  0  0  0  0
   -5.7040   21.7110  -31.3560 C   0  0  0  0  0  0  0  0  0  0  0  0
   -6.7570   20.7360  -31.6980 C   0  0  0  0  0  0  0  0  0  0  0  0
   -6.4590   19.6030  -32.4790 C   0  0  0  0  0  0  0  0  0  0  0  0
   -5.2060   19.4040  -32.9620 F   0  0  0  0  0  0  0  0  0  0  0  0
   -7.4650   18.6870  -32.8010 C   0  0  0  0  0  0  0  0  0  0  0  0
   -8.7730   18.8950  -32.3560 C   0  0  0  0  0  0  0  0  0  0  0  0
   -9.0800   20.0240  -31.5930 C   0  0  0  0  0  0  0  0  0  0  0  0
   -8.0800   20.9460  -31.2670 C   0  0  0  0  0  0  0  0  0  0  0  0
   -8.3970   22.0270  -30.5100 F   0  0  0  0  0  0  0  0  0  0  0  0
   -7.4594   24.2629  -31.6672 H   0  0  0  0  0  0  0  0  0  0  0  0
   -6.3221   24.5842  -33.0200 H   0  0  0  0  0  0  0  0  0  0  0  0
   -7.3185   23.0896  -33.0200 H   0  0  0  0  0  0  0  0  0  0  0  0
   -1.7269   22.4747  -29.9496 H   0  0  0  0  0  0  0  0  0  0  0  0
   -1.9251   24.0464  -30.8057 H   0  0  0  0  0  0  0  0  0  0  0  0
   -0.5225   24.8928  -28.7869 H   0  0  0  0  0  0  0  0  0  0  0  0
   -0.7602   26.0099  -26.5668 H   0  0  0  0  0  0  0  0  0  0  0  0
   -2.8868   25.7885  -25.2763 H   0  0  0  0  0  0  0  0  0  0  0  0
   -4.7779   24.4488  -26.2040 H   0  0  0  0  0  0  0  0  0  0  0  0
   -4.5486   23.3288  -28.4207 H   0  0  0  0  0  0  0  0  0  0  0  0
   -7.2261   17.8002  -33.4063 H   0  0  0  0  0  0  0  0  0  0  0  0
   -9.5611   18.1696  -32.6065 H   0  0  0  0  0  0  0  0  0  0  0  0
  -10.1113   20.1885  -31.2475 H   0  0  0  0  0  0  0  0  0  0  0  0
  1  2  1  0
  2  3  1  0
  3  4  2  0
  4  5  1  0
  5  6  1  0
  6  7  2  0
  7  8  1  0
  8  9  2  0
  9 10  1  0
 10 11  2  0
  4 12  1  0
 12 13  1  0
 13 14  1  0
 14 15  2  0
 15 16  1  0
 15 17  1  0
 17 18  2  0
 18 19  1  0
 19 20  2  0
 20 21  1  0
 13  2  2  0
 20 14  1  0
 11  6  1  0
  1 22  1  0
  1 23  1  0
  1 24  1  0
  5 25  1  0
  5 26  1  0
  7 27  1  0
  8 28  1  0
  9 29  1  0
 10 30  1  0
 11 31  1  0
 17 32  1  0
 18 33  1  0
 19 34  1  0
M  END
>  <UniqueID>  (20) 
20

>  <SMILES>  (20) 
Cc1nc(Cc2ccccc2)sc1-c1c(F)cccc1F

>  <Energy>  (20) 
69.64028390990856

>  <Genealogy>  (20) 
Cc1nc(Cc2ccccc2)sc1-c1c(F)cccc1F (3D coordinates assigned)
Cc1nc(Cc2ccccc2)sc1-c1c(F)cccc1F (optimized conformer: 69.64028390990856 kcal/mol)

>  <smiles>  (20) 
Cc1nc(Cc2ccccc2)sc1-c1c(F)cccc1F

>  <score_type>  (20) 
oracle

>  <origin>  (20) 
adg

>  <m_score__min__energy>  (20) 
-7.9400000000000004

>  <m_primary>  (20) 
energy

$$$$
20:0
     RDKit          3D

 40 42  0  0  0  0  0  0  0  0999 V2000
   -4.6070   25.7630  -29.3860 H   0  0  0  0  0  0  0  0  0  0  0  0
   -3.9300   25.4740  -30.0800 O   0  0  0  0  0  0  0  0  0  0  0  0
   -3.6360   24.1360  -30.3430 C   0  0  0  0  0  0  0  0  0  0  0  0
   -4.5690   23.3590  -31.0470 C   0  0  0  0  0  0  0  0  0  0  0  0
   -6.2180   24.1220  -31.6440 Br  0  0  0  0  0  0  0  0  0  0  0  0
   -4.2950   22.0200  -31.3360 C   0  0  0  0  0  0  0  0  0  0  0  0
   -5.0420   21.4108  -31.8659 H   0  0  0  0  0  0  0  0  0  0  0  0
   -3.0720   21.4480  -30.9540 C   0  0  0  0  0  0  0  0  0  0  0  0
   -2.7440   20.0500  -31.2980 C   0  0  0  0  0  0  0  0  0  0  0  0
   -2.6483   19.3339  -30.4685 H   0  0  0  0  0  0  0  0  0  0  0  0
   -2.5520   19.5800  -32.5500 C   0  0  0  0  0  0  0  0  0  0  0  0
   -3.5400   18.7200  -33.2820 C   0  0  0  0  0  0  0  0  0  0  0  0
   -5.0030   18.8420  -33.0860 C   0  0  0  0  0  0  0  0  0  0  0  0
   -5.7220   17.8000  -32.4780 C   0  0  0  0  0  0  0  0  0  0  0  0
   -5.2052   16.8714  -32.1940 H   0  0  0  0  0  0  0  0  0  0  0  0
   -7.0910   17.9370  -32.2320 C   0  0  0  0  0  0  0  0  0  0  0  0
   -7.6455   17.1172  -31.7519 H   0  0  0  0  0  0  0  0  0  0  0  0
   -7.7610   19.1140  -32.5940 C   0  0  0  0  0  0  0  0  0  0  0  0
   -9.2330   19.2530  -32.3460 C   0  0  0  0  0  0  0  0  0  0  0  0
   -9.4222   19.2709  -31.2625 H   0  0  0  0  0  0  0  0  0  0  0  0
   -9.5940   20.1892  -32.7967 H   0  0  0  0  0  0  0  0  0  0  0  0
   -9.7628   18.4009  -32.7967 H   0  0  0  0  0  0  0  0  0  0  0  0
   -7.0560   20.1340  -33.2500 C   0  0  0  0  0  0  0  0  0  0  0  0
   -7.5827   21.0444  -33.5720 H   0  0  0  0  0  0  0  0  0  0  0  0
   -5.6870   19.9980  -33.4960 C   0  0  0  0  0  0  0  0  0  0  0  0
   -5.1421   20.8011  -34.0138 H   0  0  0  0  0  0  0  0  0  0  0  0
   -3.1160   17.9260  -34.2240 N   0  0  0  0  0  0  0  0  0  0  0  0
   -1.7020   17.8110  -34.5740 C   0  0  0  0  0  0  0  0  0  0  0  0
   -1.1894   17.1824  -33.8310 H   0  0  0  0  0  0  0  0  0  0  0  0
   -1.6047   17.3521  -35.5690 H   0  0  0  0  0  0  0  0  0  0  0  0
   -1.0700   19.2040  -34.5880 C   0  0  0  0  0  0  0  0  0  0  0  0
   -0.0014   19.1150  -34.8334 H   0  0  0  0  0  0  0  0  0  0  0  0
   -1.5805   19.8204  -35.3426 H   0  0  0  0  0  0  0  0  0  0  0  0
   -1.2200   19.8730  -33.2120 C   0  0  0  0  0  0  0  0  0  0  0  0
   -0.4155   19.5088  -32.5561 H   0  0  0  0  0  0  0  0  0  0  0  0
   -1.1637   20.9604  -33.3682 H   0  0  0  0  0  0  0  0  0  0  0  0
   -2.1590   22.2080  -30.2130 C   0  0  0  0  0  0  0  0  0  0  0  0
   -1.2245   21.7470  -29.8606 H   0  0  0  0  0  0  0  0  0  0  0  0
   -2.4260   23.5500  -29.9170 C   0  0  0  0  0  0  0  0  0  0  0  0
   -1.1040   24.5430  -28.9500 Br  0  0  0  0  0  0  0  0  0  0  0  0
  1  2  1  0
  2  3  1  0
  3  4  2  0
  4  5  1  0
  4  6  1  0
  6  7  1  0
  6  8  2  0
  8  9  1  0
  9 10  1  0
  9 11  2  0
 11 12  1  0
 12 13  1  0
 13 14  2  0
 14 15  1  0
 14 16  1  0
 16 17  1  0
 16 18  2  0
 18 19  1  0
 19 20  1  0
 19 21  1  0
 19 22  1  0
 18 23  1  0
 23 24  1  0
 23 25  2  0
 25 26  1  0
 12 27  2  0
 27 28  1  0
 28 29  1  0
 28 30  1  0
 28 31  1  0
 31 32  1  0
 31 33  1  0
 31 34  1  0
 34 35  1  0
 34 36  1  0
  8 37  1  0
 37 38  1  0
 37 39  2  0
 39 40  1  0
 39  3  1  0
 34 11  1  0
 25 13  1  0
M  END
>  <UniqueID>  (21) 
21

>  <SMILES>  (21) 
Cc1ccc(C2=NCCC/C2=C/c2cc(Br)c(O)c(Br)c2)cc1

>  <Energy>  (21) 
53.101722878162015

>  <Genealogy>  (21) 
Cc1ccc(C2=NCCC/C2=C/c2cc(Br)c(O)c(Br)c2)cc1 (cis-trans isomerization)
Cc1ccc(C2=NCCC/C2=C/c2cc(Br)c(O)c(Br)c2)cc1 (3D coordinates assigned)
Cc1ccc(C2=NCCC/C2=C/c2cc(Br)c(O)c(Br)c2)cc1 (nonaromatic ring conformer: 53.101722878162015 kcal/mol)

>  <smiles>  (21) 
Cc1ccc(C2=NCCCC2=Cc2cc(Br)c(O)c(Br)c2)cc1

>  <score_type>  (21) 
oracle

>  <origin>  (21) 
adg

>  <m_score__min__energy>  (21) 
-9.9199999999999999

>  <m_primary>  (21) 
energy

$$$$
21:0
     RDKit          3D

 34 36  0  0  0  0  0  0  0  0999 V2000
   -0.8660   27.1610  -28.5910 O   0  0  0  0  0  0  0  0  0  0  0  0
   -1.2800   26.0520  -28.1570 C   0  0  0  0  0  0  0  0  0  0  0  0
   -2.0530   25.1990  -29.0090 N   0  0  0  0  0  0  0  0  0  0  0  0
   -3.1110   24.3170  -28.5280 C   0  0  0  0  0  0  0  0  0  0  0  0
   -4.1800   24.1480  -29.5850 C   0  0  0  0  0  0  0  0  0  0  0  0
   -5.3580   24.9060  -29.4740 C   0  0  0  0  0  0  0  0  0  0  0  0
   -6.3830   24.7780  -30.4100 C   0  0  0  0  0  0  0  0  0  0  0  0
   -6.2570   23.8870  -31.4740 C   0  0  0  0  0  0  0  0  0  0  0  0
   -5.0980   23.1120  -31.6120 C   0  0  0  0  0  0  0  0  0  0  0  0
   -4.9800   22.2140  -32.6850 C   0  0  0  0  0  0  0  0  0  0  0  0
   -3.8310   21.4360  -32.8290 C   0  0  0  0  0  0  0  0  0  0  0  0
   -2.7910   21.5460  -31.9070 C   0  0  0  0  0  0  0  0  0  0  0  0
   -2.8900   22.4350  -30.8340 C   0  0  0  0  0  0  0  0  0  0  0  0
   -4.0430   23.2340  -30.6660 C   0  0  0  0  0  0  0  0  0  0  0  0
   -0.9650   25.6330  -26.7720 C   0  0  0  0  0  0  0  0  0  0  0  0
   -1.1440   26.5180  -25.6960 C   0  0  0  0  0  0  0  0  0  0  0  0
   -0.8380   26.1020  -24.3980 C   0  0  0  0  0  0  0  0  0  0  0  0
   -0.3680   24.8450  -24.1730 N   0  0  0  0  0  0  0  0  0  0  0  0
   -0.1850   23.9660  -25.1950 C   0  0  0  0  0  0  0  0  0  0  0  0
   -0.4780   24.3410  -26.5080 C   0  0  0  0  0  0  0  0  0  0  0  0
   -2.6811   23.3335  -28.2872 H   0  0  0  0  0  0  0  0  0  0  0  0
   -3.5650   24.7620  -27.6303 H   0  0  0  0  0  0  0  0  0  0  0  0
   -5.4729   25.6102  -28.6368 H   0  0  0  0  0  0  0  0  0  0  0  0
   -7.2958   25.3833  -30.3082 H   0  0  0  0  0  0  0  0  0  0  0  0
   -7.0705   23.7918  -32.2083 H   0  0  0  0  0  0  0  0  0  0  0  0
   -5.7974   22.1235  -33.4155 H   0  0  0  0  0  0  0  0  0  0  0  0
   -3.7454   20.7343  -33.6718 H   0  0  0  0  0  0  0  0  0  0  0  0
   -1.8877   20.9295  -32.0251 H   0  0  0  0  0  0  0  0  0  0  0  0
   -2.0627   22.5137  -30.1133 H   0  0  0  0  0  0  0  0  0  0  0  0
   -1.5237   27.5348  -25.8748 H   0  0  0  0  0  0  0  0  0  0  0  0
   -0.9776   26.7936  -23.5541 H   0  0  0  0  0  0  0  0  0  0  0  0
   -0.1440   24.5500  -23.1980 H   0  0  0  0  0  0  0  0  0  0  0  0
    0.1955   22.9552  -24.9863 H   0  0  0  0  0  0  0  0  0  0  0  0
   -0.3283   23.6282  -27.3323 H   0  0  0  0  0  0  0  0  0  0  0  0
  1  2  2  0
  2  3  1  0
  3  4  1  0
  4  5  1  0
  5  6  2  0
  6  7  1  0
  7  8  2  0
  8  9  1  0
  9 10  2  0
 10 11  1  0
 11 12  2  0
 12 13  1  0
 13 14  2  0
  2 15  1  0
 15 16  2  0
 16 17  1  0
 17 18  2  0
 18 19  1  0
 19 20  2  0
 14  5  1  0
 20 15  1  0
 14  9  1  0
  4 21  1  0
  4 22  1  0
  6 23  1  0
  7 24  1  0
  8 25  1  0
 10 26  1  0
 11 27  1  0
 12 28  1  0
 13 29  1  0
 16 30  1  0
 17 31  1  0
 18 32  1  0
 19 33  1  0
 20 34  1  0
M  CHG  2   3  -1  18   1
M  END
>  <UniqueID>  (22) 
22

>  <SMILES>  (22) 
O=C([N-]Cc1cccc2ccccc12)c1cc[nH+]cc1

>  <Energy>  (22) 
40.5067503889618

>  <Genealogy>  (22) 
O=C([N-]Cc1cccc2ccccc12)c1cc[nH+]cc1 (protonated)
O=C([N-]Cc1cccc2ccccc12)c1cc[nH+]cc1 (3D coordinates assigned)
O=C([N-]Cc1cccc2ccccc12)c1cc[nH+]cc1 (optimized conformer: 40.5067503889618 kcal/mol)

>  <smiles>  (22) 
O=C(NCc1cccc2ccccc12)c1ccncc1

>  <score_type>  (22) 
oracle

>  <origin>  (22) 
adg

>  <m_score__min__energy>  (22) 
-8.9900000000000002

>  <m_primary>  (22) 
energy

$$$$
22:0
     RDKit          3D

 41 43  0  0  0  0  0  0  0  0999 V2000
   -3.6419   19.3056  -34.0504 H   0  0  0  0  0  0  0  0  0  0  0  0
   -4.1760   20.0870  -33.4900 C   0  0  0  0  0  0  0  0  0  0  0  0
   -5.5690   20.0780  -33.4380 C   0  0  0  0  0  0  0  0  0  0  0  0
   -6.1309   19.2841  -33.9518 H   0  0  0  0  0  0  0  0  0  0  0  0
   -6.2550   21.0730  -32.7360 C   0  0  0  0  0  0  0  0  0  0  0  0
   -7.3542   21.0536  -32.6983 H   0  0  0  0  0  0  0  0  0  0  0  0
   -5.5500   22.1040  -32.0740 C   0  0  0  0  0  0  0  0  0  0  0  0
   -6.1970   23.1490  -31.3560 C   0  0  0  0  0  0  0  0  0  0  0  0
   -7.7150   23.2410  -31.2850 C   0  0  0  0  0  0  0  0  0  0  0  0
   -8.1226   23.2632  -32.3065 H   0  0  0  0  0  0  0  0  0  0  0  0
   -7.9864   24.1588  -30.7429 H   0  0  0  0  0  0  0  0  0  0  0  0
   -8.2990   22.0440  -30.5400 C   0  0  0  0  0  0  0  0  0  0  0  0
   -8.2173   22.2114  -29.4559 H   0  0  0  0  0  0  0  0  0  0  0  0
   -9.3575   21.9227  -30.8136 H   0  0  0  0  0  0  0  0  0  0  0  0
   -7.7431   21.1351  -30.8136 H   0  0  0  0  0  0  0  0  0  0  0  0
   -5.3970   24.0980  -30.6650 C   0  0  0  0  0  0  0  0  0  0  0  0
   -6.0020   25.1470  -29.8660 C   0  0  0  0  0  0  0  0  0  0  0  0
   -6.4840   25.9840  -29.2300 N   0  0  0  0  0  0  0  0  0  0  0  0
   -3.9950   24.0250  -30.7500 C   0  0  0  0  0  0  0  0  0  0  0  0
   -3.2570   24.9030  -30.1320 N   0  0  0  0  0  0  0  0  0  0  0  0
   -2.8630   24.8430  -28.7200 C   0  0  0  0  0  0  0  0  0  0  0  0
   -3.5024   25.5208  -28.1353 H   0  0  0  0  0  0  0  0  0  0  0  0
   -3.0560   23.4170  -28.1680 C   0  0  0  0  0  0  0  0  0  0  0  0
   -2.7806   23.4090  -27.1031 H   0  0  0  0  0  0  0  0  0  0  0  0
   -4.1108   23.1394  -28.3107 H   0  0  0  0  0  0  0  0  0  0  0  0
   -2.1890   22.3820  -28.9130 C   0  0  0  0  0  0  0  0  0  0  0  0
   -1.9546   21.5606  -28.2199 H   0  0  0  0  0  0  0  0  0  0  0  0
   -2.7686   22.0405  -29.7833 H   0  0  0  0  0  0  0  0  0  0  0  0
   -0.8640   22.9620  -29.4490 C   0  0  0  0  0  0  0  0  0  0  0  0
   -0.0994   22.1713  -29.4396 H   0  0  0  0  0  0  0  0  0  0  0  0
   -1.0397   23.3293  -30.4709 H   0  0  0  0  0  0  0  0  0  0  0  0
   -0.3730   24.1370  -28.5980 C   0  0  0  0  0  0  0  0  0  0  0  0
   -0.2099   23.7862  -27.5683 H   0  0  0  0  0  0  0  0  0  0  0  0
    0.5605   24.5123  -29.0427 H   0  0  0  0  0  0  0  0  0  0  0  0
   -1.3900   25.2970  -28.5740 C   0  0  0  0  0  0  0  0  0  0  0  0
   -1.2850   25.8299  -27.6175 H   0  0  0  0  0  0  0  0  0  0  0  0
   -1.1656   25.9364  -29.4405 H   0  0  0  0  0  0  0  0  0  0  0  0
   -3.4150   23.0320  -31.4730 N   0  0  0  0  0  0  0  0  0  0  0  0
   -4.1340   22.0850  -32.1220 C   0  0  0  0  0  0  0  0  0  0  0  0
   -3.4590   21.0860  -32.8320 C   0  0  0  0  0  0  0  0  0  0  0  0
   -2.3597   21.0886  -32.8713 H   0  0  0  0  0  0  0  0  0  0  0  0
  1  2  1  0
  2  3  2  0
  3  4  1  0
  3  5  1  0
  5  6  1  0
  5  7  2  0
  7  8  1  0
  8  9  1  0
  9 10  1  0
  9 11  1  0
  9 12  1  0
 12 13  1  0
 12 14  1  0
 12 15  1  0
  8 16  2  0
 16 17  1  0
 17 18  3  0
 16 19  1  0
 19 20  2  0
 20 21  1  0
 21 22  1  0
 21 23  1  0
 23 24  1  0
 23 25  1  0
 23 26  1  0
 26 27  1  0
 26 28  1  0
 26 29  1  0
 29 30  1  0
 29 31  1  0
 29 32  1  0
 32 33  1  0
 32 34  1  0
 32 35  1  0
 35 36  1  0
 35 37  1  0
 19 38  1  0
 38 39  1  0
 39 40  2  0
 40 41  1  0
 40  2  1  0
 39  7  1  0
 35 21  1  0
M  CHG  1  38  -1
M  END
>  <UniqueID>  (23) 
23

>  <SMILES>  (23) 
CCc1c(C#N)/c(=N/C2CCCCC2)[n-]c2ccccc12

>  <Energy>  (23) 
49.35927965092213

>  <Genealogy>  (23) 
CCc1c(C#N)c(=NC2CCCCC2)[n-]c2ccccc12 (protonated)
CCc1c(C#N)/c(=N/C2CCCCC2)[n-]c2ccccc12 (cis-trans isomerization)
CCc1c(C#N)/c(=N/C2CCCCC2)[n-]c2ccccc12 (3D coordinates assigned)
CCc1c(C#N)/c(=N/C2CCCCC2)[n-]c2ccccc12 (nonaromatic ring conformer: 49.35927965092213 kcal/mol)

>  <smiles>  (23) 
CCc1c(C#N)c(=NC2CCCCC2)[nH]c2ccccc12

>  <score_type>  (23) 
oracle

>  <origin>  (23) 
adg

>  <m_score__min__energy>  (23) 
-9.1899999999999995

>  <m_primary>  (23) 
energy

$$$$
23:0
     RDKit          3D

 56 59  0  0  0  0  0  0  0  0999 V2000
   -6.1850   25.1800  -29.7220 C   0  0  0  0  0  0  0  0  0  0  0  0
   -5.1480   24.9390  -30.8310 C   0  0  0  0  0  0  0  0  0  0  0  0
   -3.9710   24.1330  -30.4170 N   0  0  0  0  0  0  0  0  0  0  0  0
   -3.4300   24.4960  -29.0840 C   0  0  0  0  0  0  0  0  0  0  0  0
   -3.7980   23.5220  -27.9620 C   0  0  0  0  0  0  0  0  0  0  0  0
   -4.0750   22.6840  -30.7190 C   0  0  0  0  0  0  0  0  0  0  0  0
   -3.5510   22.2990  -32.1200 C   0  0  0  0  0  0  0  0  0  0  0  0
   -4.6010   22.2330  -33.1580 N   0  0  0  0  0  0  0  0  0  0  0  0
   -5.5400   21.1380  -32.9450 C   0  0  0  0  0  0  0  0  0  0  0  0
   -6.8740   21.4090  -32.5260 C   0  0  0  0  0  0  0  0  0  0  0  0
   -7.3750   22.7310  -32.4130 C   0  0  0  0  0  0  0  0  0  0  0  0
   -8.6650   22.9750  -31.9500 C   0  0  0  0  0  0  0  0  0  0  0  0
   -9.4890   21.9190  -31.5870 C   0  0  0  0  0  0  0  0  0  0  0  0
   -9.0260   20.6100  -31.6860 C   0  0  0  0  0  0  0  0  0  0  0  0
   -7.7190   20.3290  -32.1560 C   0  0  0  0  0  0  0  0  0  0  0  0
   -7.2660   19.0340  -32.2450 N   0  0  0  0  0  0  0  0  0  0  0  0
   -7.8670   18.0100  -31.3610 C   0  0  0  0  0  0  0  0  0  0  0  0
   -6.1270   18.7500  -32.9690 C   0  0  0  0  0  0  0  0  0  0  0  0
   -5.1660   19.7790  -33.1720 C   0  0  0  0  0  0  0  0  0  0  0  0
   -3.8580   19.4070  -33.5690 C   0  0  0  0  0  0  0  0  0  0  0  0
   -3.5430   18.0870  -33.8710 C   0  0  0  0  0  0  0  0  0  0  0  0
   -4.5340   17.1120  -33.8850 C   0  0  0  0  0  0  0  0  0  0  0  0
   -4.2310   15.8160  -34.3310 C   0  0  0  0  0  0  0  0  0  0  0  0
   -5.2410   14.8630  -34.4650 C   0  0  0  0  0  0  0  0  0  0  0  0
   -6.5620   15.2080  -34.1860 C   0  0  0  0  0  0  0  0  0  0  0  0
   -6.8710   16.4890  -33.7240 C   0  0  0  0  0  0  0  0  0  0  0  0
   -5.8540   17.4430  -33.4880 C   0  0  0  0  0  0  0  0  0  0  0  0
   -5.7036   25.0681  -28.7393 H   0  0  0  0  0  0  0  0  0  0  0  0
   -6.5934   26.1970  -29.8166 H   0  0  0  0  0  0  0  0  0  0  0  0
   -7.0000   24.4473  -29.8166 H   0  0  0  0  0  0  0  0  0  0  0  0
   -5.6477   24.4150  -31.6591 H   0  0  0  0  0  0  0  0  0  0  0  0
   -4.7617   25.9290  -31.1149 H   0  0  0  0  0  0  0  0  0  0  0  0
   -2.3332   24.5362  -29.1578 H   0  0  0  0  0  0  0  0  0  0  0  0
   -3.8794   25.4640  -28.8174 H   0  0  0  0  0  0  0  0  0  0  0  0
   -3.6175   23.9998  -26.9878 H   0  0  0  0  0  0  0  0  0  0  0  0
   -4.8607   23.2506  -28.0460 H   0  0  0  0  0  0  0  0  0  0  0  0
   -3.1803   22.6157  -28.0460 H   0  0  0  0  0  0  0  0  0  0  0  0
   -3.4932   22.1306  -29.9672 H   0  0  0  0  0  0  0  0  0  0  0  0
   -5.1446   22.4284  -30.6961 H   0  0  0  0  0  0  0  0  0  0  0  0
   -2.8064   23.0477  -32.4284 H   0  0  0  0  0  0  0  0  0  0  0  0
   -3.1253   21.2884  -32.0336 H   0  0  0  0  0  0  0  0  0  0  0  0
   -4.1590   22.2330  -34.0980 H   0  0  0  0  0  0  0  0  0  0  0  0
   -5.1230   23.1370  -33.1710 H   0  0  0  0  0  0  0  0  0  0  0  0
   -6.7331   23.5783  -32.6961 H   0  0  0  0  0  0  0  0  0  0  0  0
   -9.0326   24.0088  -31.8716 H   0  0  0  0  0  0  0  0  0  0  0  0
  -10.5075   22.1163  -31.2212 H   0  0  0  0  0  0  0  0  0  0  0  0
   -9.6859   19.7796  -31.3944 H   0  0  0  0  0  0  0  0  0  0  0  0
   -7.7024   18.2905  -30.3102 H   0  0  0  0  0  0  0  0  0  0  0  0
   -8.9472   17.9439  -31.5580 H   0  0  0  0  0  0  0  0  0  0  0  0
   -7.3980   17.0347  -31.5580 H   0  0  0  0  0  0  0  0  0  0  0  0
   -3.0763   20.1777  -33.6397 H   0  0  0  0  0  0  0  0  0  0  0  0
   -2.5029   17.8122  -34.1004 H   0  0  0  0  0  0  0  0  0  0  0  0
   -3.1920   15.5505  -34.5761 H   0  0  0  0  0  0  0  0  0  0  0  0
   -4.9951   13.8413  -34.7902 H   0  0  0  0  0  0  0  0  0  0  0  0
   -7.3638   14.4689  -34.3302 H   0  0  0  0  0  0  0  0  0  0  0  0
   -7.9212   16.7602  -33.5409 H   0  0  0  0  0  0  0  0  0  0  0  0
  1  2  1  0
  2  3  1  0
  3  4  1  0
  4  5  1  0
  3  6  1  0
  6  7  1  0
  7  8  1  0
  8  9  1  0
  9 10  2  0
 10 11  1  0
 11 12  2  0
 12 13  1  0
 13 14  2  0
 14 15  1  0
 15 16  2  0
 16 17  1  0
 16 18  1  0
 18 19  2  0
 19 20  1  0
 20 21  2  0
 21 22  1  0
 22 23  2  0
 23 24  1  0
 24 25  2  0
 25 26  1  0
 26 27  2  0
 19  9  1  0
 27 22  1  0
 15 10  1  0
 27 18  1  0
  1 28  1  0
  1 29  1  0
  1 30  1  0
  2 31  1  0
  2 32  1  0
  4 33  1  0
  4 34  1  0
  5 35  1  0
  5 36  1  0
  5 37  1  0
  6 38  1  0
  6 39  1  0
  7 40  1  0
  7 41  1  0
  8 42  1  0
  8 43  1  0
 11 44  1  0
 12 45  1  0
 13 46  1  0
 14 47  1  0
 17 48  1  0
 17 49  1  0
 17 50  1  0
 20 51  1  0
 21 52  1  0
 23 53  1  0
 24 54  1  0
 25 55  1  0
 26 56  1  0
M  CHG  2   8   1  16   1
M  END
>  <UniqueID>  (24) 
24

>  <SMILES>  (24) 
CCN(CC)CC[NH2+]c1c2ccccc2[n+](C)c2c1ccc1ccccc12

>  <Energy>  (24) 
109.01226717790924

>  <Genealogy>  (24) 
CCN(CC)CC[NH2+]c1c2ccccc2[n+](C)c2c1ccc1ccccc12 (protonated)
CCN(CC)CC[NH2+]c1c2ccccc2[n+](C)c2c1ccc1ccccc12 (3D coordinates assigned)
CCN(CC)CC[NH2+]c1c2ccccc2[n+](C)c2c1ccc1ccccc12 (optimized conformer: 109.01226717790924 kcal/mol)

>  <smiles>  (24) 
CCN(CC)CCNc1c2ccccc2[n+](C)c2c1ccc1ccccc12

>  <score_type>  (24) 
oracle

>  <origin>  (24) 
adg

>  <m_score__min__energy>  (24) 
-8.8900000000000006

>  <m_primary>  (24) 
energy

$$$$
24:0
     RDKit          3D

 27 28  0  0  0  0  0  0  0  0999 V2000
   -6.0460   25.2280  -30.0840 C   0  0  0  0  0  0  0  0  0  0  0  0
   -5.0040   24.1910  -31.1570 S   0  0  0  0  0  0  0  0  0  0  0  0
   -6.3220   23.0190  -31.5060 C   0  0  0  0  0  0  0  0  0  0  0  0
   -7.6570   23.4110  -31.3600 C   0  0  0  0  0  0  0  0  0  0  0  0
   -8.6580   22.5300  -31.6100 N   0  0  0  0  0  0  0  0  0  0  0  0
   -8.3600   21.2730  -32.0170 C   0  0  0  0  0  0  0  0  0  0  0  0
   -9.4910   20.0820  -32.3270 S   0  0  0  0  0  0  0  0  0  0  0  0
   -8.3120   18.9460  -32.7160 C   0  0  0  0  0  0  0  0  0  0  0  0
   -7.0410   19.5370  -32.6140 C   0  0  0  0  0  0  0  0  0  0  0  0
   -5.7620   18.7480  -32.8700 C   0  0  0  0  0  0  0  0  0  0  0  0
   -5.4750   18.5370  -34.3650 C   0  0  0  0  0  0  0  0  0  0  0  0
   -5.8230   17.3970  -32.1470 C   0  0  0  0  0  0  0  0  0  0  0  0
   -7.0820   20.8490  -32.1910 N   0  0  0  0  0  0  0  0  0  0  0  0
   -6.0410   21.7080  -31.9280 C   0  0  0  0  0  0  0  0  0  0  0  0
   -4.8420   21.3450  -32.0450 O   0  0  0  0  0  0  0  0  0  0  0  0
   -5.8225   25.0056  -29.0301 H   0  0  0  0  0  0  0  0  0  0  0  0
   -5.8391   26.2892  -30.2867 H   0  0  0  0  0  0  0  0  0  0  0  0
   -7.1062   25.0160  -30.2867 H   0  0  0  0  0  0  0  0  0  0  0  0
   -7.8958   24.4365  -31.0416 H   0  0  0  0  0  0  0  0  0  0  0  0
   -8.5061   17.9026  -33.0053 H   0  0  0  0  0  0  0  0  0  0  0  0
   -4.9318   19.3487  -32.4701 H   0  0  0  0  0  0  0  0  0  0  0  0
   -4.5937   17.8891  -34.4813 H   0  0  0  0  0  0  0  0  0  0  0  0
   -6.3449   18.0618  -34.8419 H   0  0  0  0  0  0  0  0  0  0  0  0
   -5.2809   19.5091  -34.8419 H   0  0  0  0  0  0  0  0  0  0  0  0
   -5.8155   17.5624  -31.0595 H   0  0  0  0  0  0  0  0  0  0  0  0
   -6.7458   16.8703  -32.4314 H   0  0  0  0  0  0  0  0  0  0  0  0
   -4.9514   16.7892  -32.4314 H   0  0  0  0  0  0  0  0  0  0  0  0
  1  2  1  0
  2  3  1  0
  3  4  2  0
  4  5  1  0
  5  6  2  0
  6  7  1  0
  7  8  1  0
  8  9  2  0
  9 10  1  0
 10 11  1  0
 10 12  1  0
  9 13  1  0
 13 14  1  0
 14 15  2  0
 14  3  1  0
 13  6  1  0
  1 16  1  0
  1 17  1  0
  1 18  1  0
  4 19  1  0
  8 20  1  0
 10 21  1  0
 11 22  1  0
 11 23  1  0
 11 24  1  0
 12 25  1  0
 12 26  1  0
 12 27  1  0
M  END
>  <UniqueID>  (25) 
25

>  <SMILES>  (25) 
CSc1cnc2scc(C(C)C)n2c1=O

>  <Energy>  (25) 
59.55979085009593

>  <Genealogy>  (25) 
CSc1cnc2scc(C(C)C)n2c1=O (3D coordinates assigned)
CSc1cnc2scc(C(C)C)n2c1=O (optimized conformer: 59.55979085009593 kcal/mol)

>  <smiles>  (25) 
CSc1cnc2scc(C(C)C)n2c1=O

>  <score_type>  (25) 
oracle

>  <origin>  (25) 
adg

>  <m_score__min__energy>  (25) 
-6.2999999999999998

>  <m_primary>  (25) 
energy

$$$$
25:0
     RDKit          3D

 52 55  0  0  0  0  0  0  0  0999 V2000
   -4.5350   24.9360  -30.8270 O   0  0  0  0  0  0  0  0  0  0  0  0
   -5.0410   23.8820  -31.2860 C   0  0  0  0  0  0  0  0  0  0  0  0
   -6.5360   23.8170  -31.4820 C   0  0  0  0  0  0  0  0  0  0  0  0
   -7.2350   22.9730  -30.4030 C   0  0  0  0  0  0  0  0  0  0  0  0
   -8.5240   22.2780  -30.8790 C   0  0  0  0  0  0  0  0  0  0  0  0
   -8.2680   21.0620  -31.7120 C   0  0  0  0  0  0  0  0  0  0  0  0
   -7.0530   20.5200  -31.9210 N   0  0  0  0  0  0  0  0  0  0  0  0
   -7.3600   19.4790  -32.7280 C   0  0  0  0  0  0  0  0  0  0  0  0
   -6.3560   18.5640  -33.3160 C   0  0  0  0  0  0  0  0  0  0  0  0
   -6.0270   18.7000  -34.6830 C   0  0  0  0  0  0  0  0  0  0  0  0
   -5.0460   17.8940  -35.2650 C   0  0  0  0  0  0  0  0  0  0  0  0
   -4.3880   16.9340  -34.4960 C   0  0  0  0  0  0  0  0  0  0  0  0
   -4.7200   16.7710  -33.1480 C   0  0  0  0  0  0  0  0  0  0  0  0
   -5.6980   17.5770  -32.5480 C   0  0  0  0  0  0  0  0  0  0  0  0
   -6.1060   17.2650  -30.8660 Cl  0  0  0  0  0  0  0  0  0  0  0  0
   -8.6760   19.4320  -33.0240 N   0  0  0  0  0  0  0  0  0  0  0  0
   -9.2020   20.4240  -32.3720 O   0  0  0  0  0  0  0  0  0  0  0  0
   -4.1850   22.7670  -31.6040 N   0  0  0  0  0  0  0  0  0  0  0  0
   -4.5400   21.8160  -32.6690 C   0  0  0  0  0  0  0  0  0  0  0  0
   -3.2890   21.3710  -33.4400 C   0  0  0  0  0  0  0  0  0  0  0  0
   -2.1630   21.0700  -32.5390 N   0  0  0  0  0  0  0  0  0  0  0  0
   -0.8760   20.7350  -33.0900 C   0  0  0  0  0  0  0  0  0  0  0  0
   -0.5280   21.1460  -34.3850 C   0  0  0  0  0  0  0  0  0  0  0  0
    0.7220   20.8060  -34.9230 C   0  0  0  0  0  0  0  0  0  0  0  0
    1.6320   20.0600  -34.1670 C   0  0  0  0  0  0  0  0  0  0  0  0
    1.3000   19.6580  -32.8750 C   0  0  0  0  0  0  0  0  0  0  0  0
    0.0490   19.9880  -32.3350 C   0  0  0  0  0  0  0  0  0  0  0  0
   -2.3430   21.1930  -31.0890 C   0  0  0  0  0  0  0  0  0  0  0  0
   -2.9880   22.5410  -30.7760 C   0  0  0  0  0  0  0  0  0  0  0  0
   -6.9411   24.8391  -31.4478 H   0  0  0  0  0  0  0  0  0  0  0  0
   -6.7252   23.3395  -32.4547 H   0  0  0  0  0  0  0  0  0  0  0  0
   -6.5319   22.1988  -30.0620 H   0  0  0  0  0  0  0  0  0  0  0  0
   -7.5286   23.6667  -29.6014 H   0  0  0  0  0  0  0  0  0  0  0  0
   -9.1064   21.9793  -29.9949 H   0  0  0  0  0  0  0  0  0  0  0  0
   -9.0674   22.9966  -31.5101 H   0  0  0  0  0  0  0  0  0  0  0  0
   -6.5493   19.4492  -35.2961 H   0  0  0  0  0  0  0  0  0  0  0  0
   -4.7926   18.0161  -36.3284 H   0  0  0  0  0  0  0  0  0  0  0  0
   -3.6080   16.3054  -34.9503 H   0  0  0  0  0  0  0  0  0  0  0  0
   -4.2082   16.0017  -32.5511 H   0  0  0  0  0  0  0  0  0  0  0  0
   -5.0199   20.9339  -32.2199 H   0  0  0  0  0  0  0  0  0  0  0  0
   -5.2289   22.3110  -33.3692 H   0  0  0  0  0  0  0  0  0  0  0  0
   -3.5315   20.4679  -34.0192 H   0  0  0  0  0  0  0  0  0  0  0  0
   -2.9848   22.1971  -34.0995 H   0  0  0  0  0  0  0  0  0  0  0  0
   -1.2383   21.7375  -34.9813 H   0  0  0  0  0  0  0  0  0  0  0  0
    0.9870   21.1267  -35.9413 H   0  0  0  0  0  0  0  0  0  0  0  0
    2.6099   19.7906  -34.5925 H   0  0  0  0  0  0  0  0  0  0  0  0
    2.0208   19.0806  -32.2775 H   0  0  0  0  0  0  0  0  0  0  0  0
   -0.2113   19.6621  -31.3171 H   0  0  0  0  0  0  0  0  0  0  0  0
   -2.9927   20.3817  -30.7287 H   0  0  0  0  0  0  0  0  0  0  0  0
   -1.3660   21.1255  -30.5882 H   0  0  0  0  0  0  0  0  0  0  0  0
   -3.2772   22.5620  -29.7149 H   0  0  0  0  0  0  0  0  0  0  0  0
   -2.2586   23.3343  -30.9965 H   0  0  0  0  0  0  0  0  0  0  0  0
  1  2  2  0
  2  3  1  0
  3  4  1  0
  4  5  1  0
  5  6  1  0
  6  7  2  0
  7  8  1  0
  8  9  1  0
  9 10  2  0
 10 11  1  0
 11 12  2  0
 12 13  1  0
 13 14  2  0
 14 15  1  0
  8 16  2  0
 16 17  1  0
  2 18  1  0
 18 19  1  0
 19 20  1  0
 20 21  1  0
 21 22  1  0
 22 23  2  0
 23 24  1  0
 24 25  2  0
 25 26  1  0
 26 27  2  0
 21 28  1  0
 28 29  1  0
 17  6  1  0
 29 18  1  0
 14  9  1  0
 27 22  1  0
  3 30  1  0
  3 31  1  0
  4 32  1  0
  4 33  1  0
  5 34  1  0
  5 35  1  0
 10 36  1  0
 11 37  1  0
 12 38  1  0
 13 39  1  0
 19 40  1  0
 19 41  1  0
 20 42  1  0
 20 43  1  0
 23 44  1  0
 24 45  1  0
 25 46  1  0
 26 47  1  0
 27 48  1  0
 28 49  1  0
 28 50  1  0
 29 51  1  0
 29 52  1  0
M  END
>  <UniqueID>  (26) 
26

>  <SMILES>  (26) 
O=C(CCCc1nc(-c2ccccc2Cl)no1)N1CCN(c2ccccc2)CC1

>  <Energy>  (26) 
93.58931013459247

>  <Genealogy>  (26) 
O=C(CCCc1nc(-c2ccccc2Cl)no1)N1CCN(c2ccccc2)CC1 (3D coordinates assigned)
O=C(CCCc1nc(-c2ccccc2Cl)no1)N1CCN(c2ccccc2)CC1 (nonaromatic ring conformer: 93.58931013459247 kcal/mol)

>  <smiles>  (26) 
O=C(CCCc1nc(-c2ccccc2Cl)no1)N1CCN(c2ccccc2)CC1

>  <score_type>  (26) 
oracle

>  <origin>  (26) 
adg

>  <m_score__min__energy>  (26) 
-9.5999999999999996

>  <m_primary>  (26) 
energy

$$$$
26:0
     RDKit          3D

 68 73  0  0  1  0  0  0  0  0999 V2000
   -0.3220   21.3840  -31.2160 C   0  0  0  0  0  0  0  0  0  0  0  0
   -0.2430   20.2930  -32.0830 O   0  0  0  0  0  0  0  0  0  0  0  0
   -1.2810   19.6970  -32.7570 C   0  0  0  0  0  0  0  0  0  0  0  0
   -2.6080   19.9030  -32.3860 C   0  0  0  0  0  0  0  0  0  0  0  0
   -3.6280   19.2900  -33.0850 C   0  0  0  0  0  0  0  0  0  0  0  0
   -4.9580   19.4400  -32.7830 C   0  0  0  0  0  0  0  0  0  0  0  0
   -5.2920   20.1830  -31.8080 N   0  0  0  0  0  0  0  0  0  0  0  0
   -6.3880   21.0900  -31.8240 C   0  0  0  0  0  0  0  0  0  0  0  0
   -6.1150   22.4590  -31.7200 C   0  0  0  0  0  0  0  0  0  0  0  0
   -4.4560   22.9980  -31.5760 Cl  0  0  0  0  0  0  0  0  0  0  0  0
   -7.1720   23.3630  -31.7330 C   0  0  0  0  0  0  0  0  0  0  0  0
   -8.4930   22.9400  -31.8480 C   0  0  0  0  0  0  0  0  0  0  0  0
   -8.7370   21.5880  -31.9490 C   0  0  0  0  0  0  0  0  0  0  0  0
   -7.6990   20.6560  -31.9380 C   0  0  0  0  0  0  0  0  0  0  0  0
   -8.2580   19.3700  -32.0560 O   0  0  0  0  0  0  0  0  0  0  0  0
   -9.5040   19.6060  -32.7310 C   0  0  0  0  0  0  0  0  0  0  0  0
   -9.8880   20.8220  -32.0740 O   0  0  0  0  0  0  0  0  0  0  0  0
   -5.9150   18.8200  -33.4960 N   0  0  0  0  0  0  0  0  0  0  0  0
   -5.5980   18.0260  -34.5340 C   0  0  0  0  0  0  0  0  0  0  0  0
   -4.2930   17.8690  -34.8430 N   0  0  0  0  0  0  0  0  0  0  0  0
   -3.3080   18.4750  -34.1500 C   0  0  0  0  0  0  0  0  0  0  0  0
   -2.0080   18.2700  -34.5190 C   0  0  0  0  0  0  0  0  0  0  0  0
   -0.9560   18.8790  -33.8280 C   0  0  0  0  0  0  0  0  0  0  0  0
    0.4500   18.6440  -34.2430 C   0  0  0  0  0  0  0  0  0  0  0  0
    1.2250   19.8700  -34.2070 N   0  0  0  0  0  0  0  0  0  0  0  0
    0.9380   20.7270  -35.3310 C   0  0  0  0  0  0  0  0  0  0  0  0
    2.2490   21.1180  -35.9730 C   0  0  0  0  0  0  0  0  0  0  0  0
    2.5360   22.5610  -35.6260 C   0  0  0  0  0  0  0  0  0  0  0  0
    1.6020   23.4320  -36.2940 N   0  0  0  0  0  0  0  0  0  0  0  0
    1.6960   24.7900  -35.8110 C   0  0  0  0  0  0  0  0  0  0  0  0
    0.8820   25.6650  -36.6750 C   0  0  0  0  0  0  0  0  0  0  0  0
    1.0950   25.8440  -38.0210 C   0  0  0  0  0  0  0  0  0  0  0  0
    0.2690   26.6910  -38.7380 C   0  0  0  0  0  0  0  0  0  0  0  0
   -0.7800   27.3800  -38.1560 C   0  0  0  0  0  0  0  0  0  0  0  0
   -0.9790   27.1890  -36.8030 C   0  0  0  0  0  0  0  0  0  0  0  0
   -0.1670   26.3490  -36.0720 C   0  0  0  0  0  0  0  0  0  0  0  0
    0.2700   22.9190  -36.1270 C   0  0  0  0  0  0  0  0  0  0  0  0
    0.1900   21.9640  -34.9500 C   0  0  0  0  0  0  0  0  0  0  0  0
   -0.2962   21.0281  -30.1755 H   0  0  0  0  0  0  0  0  0  0  0  0
    0.5298   22.0567  -31.3946 H   0  0  0  0  0  0  0  0  0  0  0  0
   -1.2618   21.9270  -31.3946 H   0  0  0  0  0  0  0  0  0  0  0  0
   -2.8436   20.5564  -31.5331 H   0  0  0  0  0  0  0  0  0  0  0  0
   -6.9586   24.4389  -31.6503 H   0  0  0  0  0  0  0  0  0  0  0  0
   -9.3197   23.6656  -31.8580 H   0  0  0  0  0  0  0  0  0  0  0  0
   -9.3666   19.7475  -33.8132 H   0  0  0  0  0  0  0  0  0  0  0  0
  -10.2354   18.7863  -32.6745 H   0  0  0  0  0  0  0  0  0  0  0  0
   -6.9220   18.9430  -33.2560 H   0  0  0  0  0  0  0  0  0  0  0  0
   -6.3811   17.5179  -35.1159 H   0  0  0  0  0  0  0  0  0  0  0  0
   -1.7856   17.6148  -35.3741 H   0  0  0  0  0  0  0  0  0  0  0  0
    0.9068   17.9118  -33.5609 H   0  0  0  0  0  0  0  0  0  0  0  0
    0.4473   18.2666  -35.2762 H   0  0  0  0  0  0  0  0  0  0  0  0
    1.1800   20.3520  -33.3040 H   0  0  0  0  0  0  0  0  0  0  0  0
    0.2936   20.1670  -36.0246 H   0  0  0  0  0  0  0  0  0  0  0  0
    3.0563   20.4760  -35.5909 H   0  0  0  0  0  0  0  0  0  0  0  0
    2.1877   20.9958  -37.0645 H   0  0  0  0  0  0  0  0  0  0  0  0
    2.4452   22.6975  -34.5383 H   0  0  0  0  0  0  0  0  0  0  0  0
    3.5557   22.8115  -35.9537 H   0  0  0  0  0  0  0  0  0  0  0  0
    1.3217   24.8406  -34.7779 H   0  0  0  0  0  0  0  0  0  0  0  0
    2.7452   25.1197  -35.8317 H   0  0  0  0  0  0  0  0  0  0  0  0
    1.9180   25.3165  -38.5255 H   0  0  0  0  0  0  0  0  0  0  0  0
    0.4538   26.8219  -39.8144 H   0  0  0  0  0  0  0  0  0  0  0  0
   -1.4257   28.0490  -38.7438 H   0  0  0  0  0  0  0  0  0  0  0  0
   -1.8015   27.7175  -36.2989 H   0  0  0  0  0  0  0  0  0  0  0  0
   -0.3518   26.2180  -34.9956 H   0  0  0  0  0  0  0  0  0  0  0  0
   -0.4185   23.7593  -35.9540 H   0  0  0  0  0  0  0  0  0  0  0  0
   -0.0073   22.3699  -37.0389 H   0  0  0  0  0  0  0  0  0  0  0  0
    0.6481   22.4224  -34.0612 H   0  0  0  0  0  0  0  0  0  0  0  0
   -0.8572   21.7280  -34.7099 H   0  0  0  0  0  0  0  0  0  0  0  0
  1  2  1  0
  2  3  1  0
  3  4  2  0
  4  5  1  0
  5  6  1  0
  6  7  2  0
  7  8  1  0
  8  9  2  0
  9 10  1  0
  9 11  1  0
 11 12  2  0
 12 13  1  0
 13 14  2  0
 14 15  1  0
 15 16  1  0
 16 17  1  0
  6 18  1  0
 18 19  1  0
 19 20  2  0
 20 21  1  0
 21 22  1  0
 22 23  2  0
 23 24  1  0
 24 25  1  0
 25 26  1  0
 26 27  1  0
 27 28  1  0
 28 29  1  0
 29 30  1  0
 30 31  1  0
 31 32  2  0
 32 33  1  0
 33 34  2  0
 34 35  1  0
 35 36  2  0
 29 37  1  0
 37 38  1  0
 23  3  1  0
 38 26  1  0
 21  5  2  0
 36 31  1  0
 14  8  1  0
 17 13  1  0
  1 39  1  0
  1 40  1  0
  1 41  1  0
  4 42  1  0
 11 43  1  0
 12 44  1  0
 16 45  1  0
 16 46  1  0
 18 47  1  0
 19 48  1  0
 22 49  1  0
 24 50  1  0
 24 51  1  0
 25 52  1  0
 26 53  1  0
 27 54  1  0
 27 55  1  0
 28 56  1  0
 28 57  1  0
 30 58  1  0
 30 59  1  0
 32 60  1  0
 33 61  1  0
 34 62  1  0
 35 63  1  0
 36 64  1  0
 37 65  1  0
 37 66  1  0
 38 67  1  0
 38 68  1  0
M  END
>  <smiles>  (27) 
COc1cc2c(=Nc3c(Cl)ccc4c3OCO4)[nH]cnc2cc1CNC1CCN(Cc2ccccc2)CC1

>  <score_type>  (27) 
oracle

>  <origin>  (27) 
adg

>  <m_score__min__energy>  (27) 
-11.220000000000001

>  <m_primary>  (27) 
energy

$$$$
27:0
     RDKit          3D

 69 73  0  0  0  0  0  0  0  0999 V2000
   -5.9236   26.4747  -31.1882 H   0  0  0  0  0  0  0  0  0  0  0  0
   -5.3340   25.5750  -30.9580 C   0  0  0  0  0  0  0  0  0  0  0  0
   -4.2220   25.6750  -30.1850 N   0  0  0  0  0  0  0  0  0  0  0  0
   -3.4620   24.5840  -29.8740 C   0  0  0  0  0  0  0  0  0  0  0  0
   -2.3530   24.7510  -29.0340 C   0  0  0  0  0  0  0  0  0  0  0  0
   -2.1055   25.7450  -28.6330 H   0  0  0  0  0  0  0  0  0  0  0  0
   -1.5640   23.6440  -28.7100 C   0  0  0  0  0  0  0  0  0  0  0  0
   -0.1900   23.8380  -27.6460 Cl  0  0  0  0  0  0  0  0  0  0  0  0
   -1.8580   22.3860  -29.2400 C   0  0  0  0  0  0  0  0  0  0  0  0
   -1.2080   21.5296  -29.0074 H   0  0  0  0  0  0  0  0  0  0  0  0
   -2.9780   22.2070  -30.0680 C   0  0  0  0  0  0  0  0  0  0  0  0
   -3.2177   21.2097  -30.4653 H   0  0  0  0  0  0  0  0  0  0  0  0
   -3.7970   23.3160  -30.3890 C   0  0  0  0  0  0  0  0  0  0  0  0
   -4.9460   23.1770  -31.1930 C   0  0  0  0  0  0  0  0  0  0  0  0
   -5.2690   21.9870  -31.6060 N   0  0  0  0  0  0  0  0  0  0  0  0
   -4.6100   21.2010  -32.6380 C   0  0  0  0  0  0  0  0  0  0  0  0
   -3.5323   21.4208  -32.6208 H   0  0  0  0  0  0  0  0  0  0  0  0
   -5.0498   21.4702  -33.6097 H   0  0  0  0  0  0  0  0  0  0  0  0
   -4.8160   19.6910  -32.4170 C   0  0  0  0  0  0  0  0  0  0  0  0
   -4.8031   19.4710  -31.3393 H   0  0  0  0  0  0  0  0  0  0  0  0
   -4.0084   19.1300  -32.9100 H   0  0  0  0  0  0  0  0  0  0  0  0
   -6.1290   19.2910  -32.9920 N   0  0  0  0  0  0  0  0  0  0  0  0
   -6.9140   18.4860  -32.0420 C   0  0  0  0  0  0  0  0  0  0  0  0
   -7.9621   18.4571  -32.3745 H   0  0  0  0  0  0  0  0  0  0  0  0
   -6.8396   18.9464  -31.0458 H   0  0  0  0  0  0  0  0  0  0  0  0
   -6.3640   17.0290  -31.9600 C   0  0  0  0  0  0  0  0  0  0  0  0
   -7.1478   16.3718  -31.5552 H   0  0  0  0  0  0  0  0  0  0  0  0
   -5.4799   17.0267  -31.3056 H   0  0  0  0  0  0  0  0  0  0  0  0
   -5.9640   16.5380  -33.2830 N   0  0  0  0  0  0  0  0  0  0  0  0
   -4.8120   15.6710  -33.3900 C   0  0  0  0  0  0  0  0  0  0  0  0
   -4.4550   14.9730  -32.4030 O   0  0  0  0  0  0  0  0  0  0  0  0
   -4.0760   15.4950  -34.6900 C   0  0  0  0  0  0  0  0  0  0  0  0
   -4.8093   15.4953  -35.5099 H   0  0  0  0  0  0  0  0  0  0  0  0
   -3.5259   14.5444  -34.6286 H   0  0  0  0  0  0  0  0  0  0  0  0
   -3.0950   16.5500  -34.9430 N   0  0  0  0  0  0  0  0  0  0  0  0
   -2.6860   16.5570  -35.9190 H   0  0  0  0  0  0  0  0  0  0  0  0
   -2.2420   17.0960  -33.9010 C   0  0  0  0  0  0  0  0  0  0  0  0
   -1.4990   16.2540  -33.0760 C   0  0  0  0  0  0  0  0  0  0  0  0
   -1.7591   15.1867  -33.0186 H   0  0  0  0  0  0  0  0  0  0  0  0
   -0.4430   16.7350  -32.3300 C   0  0  0  0  0  0  0  0  0  0  0  0
    0.3078   16.0429  -31.9210 H   0  0  0  0  0  0  0  0  0  0  0  0
   -0.3350   18.1100  -32.0980 C   0  0  0  0  0  0  0  0  0  0  0  0
    0.3720   18.6040  -30.9700 C   0  0  0  0  0  0  0  0  0  0  0  0
    1.1490   17.7670  -30.1600 O   0  0  0  0  0  0  0  0  0  0  0  0
    0.6850   16.9540  -29.0880 C   0  0  0  0  0  0  0  0  0  0  0  0
    0.9527   17.4230  -28.1297 H   0  0  0  0  0  0  0  0  0  0  0  0
   -0.4082   16.8505  -29.1529 H   0  0  0  0  0  0  0  0  0  0  0  0
    1.1519   15.9601  -29.1529 H   0  0  0  0  0  0  0  0  0  0  0  0
    0.2600   19.9960  -30.6740 C   0  0  0  0  0  0  0  0  0  0  0  0
    0.6460   20.5780  -29.4600 O   0  0  0  0  0  0  0  0  0  0  0  0
    0.3470   20.1200  -28.1270 C   0  0  0  0  0  0  0  0  0  0  0  0
    0.7954   20.8069  -27.3941 H   0  0  0  0  0  0  0  0  0  0  0  0
   -0.7434   20.0927  -27.9846 H   0  0  0  0  0  0  0  0  0  0  0  0
    0.7607   19.1108  -27.9846 H   0  0  0  0  0  0  0  0  0  0  0  0
   -0.3900   20.8550  -31.5610 C   0  0  0  0  0  0  0  0  0  0  0  0
   -0.3827   21.9378  -31.3672 H   0  0  0  0  0  0  0  0  0  0  0  0
   -1.0460   20.3680  -32.6840 C   0  0  0  0  0  0  0  0  0  0  0  0
   -1.5054   21.0640  -33.4013 H   0  0  0  0  0  0  0  0  0  0  0  0
   -1.1190   18.9950  -32.8970 C   0  0  0  0  0  0  0  0  0  0  0  0
   -2.0130   18.4830  -33.8490 C   0  0  0  0  0  0  0  0  0  0  0  0
   -2.5292   19.1585  -34.5470 H   0  0  0  0  0  0  0  0  0  0  0  0
   -6.4900   17.2630  -34.4580 C   0  0  0  0  0  0  0  0  0  0  0  0
   -7.5895   17.2297  -34.4565 H   0  0  0  0  0  0  0  0  0  0  0  0
   -6.1294   16.7990  -35.3879 H   0  0  0  0  0  0  0  0  0  0  0  0
   -6.0120   18.7190  -34.3660 C   0  0  0  0  0  0  0  0  0  0  0  0
   -6.6177   19.3297  -35.0516 H   0  0  0  0  0  0  0  0  0  0  0  0
   -4.9454   18.7304  -34.6349 H   0  0  0  0  0  0  0  0  0  0  0  0
   -5.7340   24.3300  -31.4640 C   0  0  0  0  0  0  0  0  0  0  0  0
   -6.6506   24.2454  -32.0662 H   0  0  0  0  0  0  0  0  0  0  0  0
  1  2  1  0
  2  3  1  0
  3  4  1  0
  4  5  2  0
  5  6  1  0
  5  7  1  0
  7  8  1  0
  7  9  2  0
  9 10  1  0
  9 11  1  0
 11 12  1  0
 11 13  2  0
 13 14  1  0
 14 15  2  0
 15 16  1  0
 16 17  1  0
 16 18  1  0
 16 19  1  0
 19 20  1  0
 19 21  1  0
 19 22  1  0
 22 23  1  0
 23 24  1  0
 23 25  1  0
 23 26  1  0
 26 27  1  0
 26 28  1  0
 26 29  1  0
 29 30  1  0
 30 31  2  0
 30 32  1  0
 32 33  1  0
 32 34  1  0
 32 35  1  0
 35 36  1  0
 35 37  1  0
 37 38  2  0
 38 39  1  0
 38 40  1  0
 40 41  1  0
 40 42  2  0
 42 43  1  0
 43 44  1  0
 44 45  1  0
 45 46  1  0
 45 47  1  0
 45 48  1  0
 43 49  2  0
 49 50  1  0
 50 51  1  0
 51 52  1  0
 51 53  1  0
 51 54  1  0
 49 55  1  0
 55 56  1  0
 55 57  2  0
 57 58  1  0
 57 59  1  0
 59 60  2  0
 60 61  1  0
 29 62  1  0
 62 63  1  0
 62 64  1  0
 62 65  1  0
 65 66  1  0
 65 67  1  0
 14 68  1  0
 68 69  1  0
 68  2  2  0
 13  4  1  0
 65 22  1  0
 60 37  1  0
 59 42  1  0
M  CHG  1   3  -1
M  END
>  <UniqueID>  (28) 
27

>  <SMILES>  (28) 
COc1ccc2cc(NCC(=O)N3CCN(CC/N=c4/cc[n-]c5cc(Cl)ccc45)CC3)ccc2c1OC

>  <Energy>  (28) 
137.02444951790045

>  <Genealogy>  (28) 
COc1ccc2cc(NCC(=O)N3CCN(CCN=c4cc[n-]c5cc(Cl)ccc45)CC3)ccc2c1OC (protonated)
COc1ccc2cc(NCC(=O)N3CCN(CC/N=c4/cc[n-]c5cc(Cl)ccc45)CC3)ccc2c1OC (cis-trans isomerization)
COc1ccc2cc(NCC(=O)N3CCN(CC/N=c4/cc[n-]c5cc(Cl)ccc45)CC3)ccc2c1OC (3D coordinates assigned)
COc1ccc2cc(NCC(=O)N3CCN(CC/N=c4/cc[n-]c5cc(Cl)ccc45)CC3)ccc2c1OC (nonaromatic ring conformer: 137.02444951790045 kcal/mol)

>  <smiles>  (28) 
COc1ccc2cc(NCC(=O)N3CCN(CCN=c4cc[nH]c5cc(Cl)ccc45)CC3)ccc2c1OC

>  <score_type>  (28) 
oracle

>  <origin>  (28) 
adg

>  <m_score__min__energy>  (28) 
-10.58

>  <m_primary>  (28) 
energy

$$$$
28:0
     RDKit          3D

 34 34  0  0  0  0  0  0  0  0999 V2000
   -8.1040   18.2720  -32.0970 C   0  0  0  0  0  0  0  0  0  0  0  0
   -6.5810   18.1550  -31.9340 C   0  0  0  0  0  0  0  0  0  0  0  0
   -5.7900   19.2170  -32.6190 N   0  0  0  0  0  0  0  0  0  0  0  0
   -4.9240   18.7030  -33.7120 C   0  0  0  0  0  0  0  0  0  0  0  0
   -5.7190   18.1250  -34.8890 C   0  0  0  0  0  0  0  0  0  0  0  0
   -6.6330   20.3300  -33.1340 C   0  0  0  0  0  0  0  0  0  0  0  0
   -6.5230   21.5870  -32.2910 C   0  0  0  0  0  0  0  0  0  0  0  0
   -5.2560   22.1540  -32.0670 C   0  0  0  0  0  0  0  0  0  0  0  0
   -5.1140   23.3340  -31.3150 C   0  0  0  0  0  0  0  0  0  0  0  0
   -3.8630   23.9280  -31.0840 O   0  0  0  0  0  0  0  0  0  0  0  0
   -2.8850   23.4240  -30.1790 C   0  0  0  0  0  0  0  0  0  0  0  0
   -6.2570   23.9410  -30.7750 C   0  0  0  0  0  0  0  0  0  0  0  0
   -6.1130   25.5460  -29.7420 Br  0  0  0  0  0  0  0  0  0  0  0  0
   -7.5190   23.3800  -30.9850 C   0  0  0  0  0  0  0  0  0  0  0  0
   -7.6620   22.2090  -31.7380 C   0  0  0  0  0  0  0  0  0  0  0  0
   -9.4320   21.4980  -31.9570 Br  0  0  0  0  0  0  0  0  0  0  0  0
   -8.5772   18.3084  -31.1047 H   0  0  0  0  0  0  0  0  0  0  0  0
   -8.3439   19.1912  -32.6515 H   0  0  0  0  0  0  0  0  0  0  0  0
   -8.4815   17.4002  -32.6515 H   0  0  0  0  0  0  0  0  0  0  0  0
   -6.3488   18.1962  -30.8596 H   0  0  0  0  0  0  0  0  0  0  0  0
   -6.2936   17.2045  -32.4072 H   0  0  0  0  0  0  0  0  0  0  0  0
   -5.1500   19.6240  -31.8970 H   0  0  0  0  0  0  0  0  0  0  0  0
   -4.3009   19.5301  -34.0831 H   0  0  0  0  0  0  0  0  0  0  0  0
   -4.3180   17.8861  -33.2932 H   0  0  0  0  0  0  0  0  0  0  0  0
   -6.5529   17.5187  -34.5057 H   0  0  0  0  0  0  0  0  0  0  0  0
   -6.1153   18.9473  -35.5028 H   0  0  0  0  0  0  0  0  0  0  0  0
   -5.0590   17.4944  -35.5028 H   0  0  0  0  0  0  0  0  0  0  0  0
   -6.3156   20.5659  -34.1605 H   0  0  0  0  0  0  0  0  0  0  0  0
   -7.6807   19.9969  -33.0983 H   0  0  0  0  0  0  0  0  0  0  0  0
   -4.3628   21.6676  -32.4860 H   0  0  0  0  0  0  0  0  0  0  0  0
   -3.2189   23.5961  -29.1451 H   0  0  0  0  0  0  0  0  0  0  0  0
   -2.7519   22.3450  -30.3465 H   0  0  0  0  0  0  0  0  0  0  0  0
   -1.9290   23.9417  -30.3465 H   0  0  0  0  0  0  0  0  0  0  0  0
   -8.4086   23.8631  -30.5545 H   0  0  0  0  0  0  0  0  0  0  0  0
  1  2  1  0
  2  3  1  0
  3  4  1  0
  4  5  1  0
  3  6  1  0
  6  7  1  0
  7  8  2  0
  8  9  1  0
  9 10  1  0
 10 11  1  0
  9 12  2  0
 12 13  1  0
 12 14  1  0
 14 15  2  0
 15 16  1  0
 15  7  1  0
  1 17  1  0
  1 18  1  0
  1 19  1  0
  2 20  1  0
  2 21  1  0
  3 22  1  0
  4 23  1  0
  4 24  1  0
  5 25  1  0
  5 26  1  0
  5 27  1  0
  6 28  1  0
  6 29  1  0
  8 30  1  0
 11 31  1  0
 11 32  1  0
 11 33  1  0
 14 34  1  0
M  CHG  1   3   1
M  END
>  <UniqueID>  (29) 
28

>  <SMILES>  (29) 
CC[NH+](CC)Cc1cc(OC)c(Br)cc1Br

>  <Energy>  (29) 
35.3585769804066

>  <Genealogy>  (29) 
CC[NH+](CC)Cc1cc(OC)c(Br)cc1Br (protonated)
CC[NH+](CC)Cc1cc(OC)c(Br)cc1Br (3D coordinates assigned)
CC[NH+](CC)Cc1cc(OC)c(Br)cc1Br (optimized conformer: 35.3585769804066 kcal/mol)

>  <smiles>  (29) 
CCN(CC)Cc1cc(OC)c(Br)cc1Br

>  <score_type>  (29) 
oracle

>  <origin>  (29) 
adg

>  <m_score__min__energy>  (29) 
-6.4500000000000002

>  <m_primary>  (29) 
energy

$$$$
29:0
     RDKit          3D

 40 42  0  0  0  0  0  0  0  0999 V2000
  -10.0695   20.2687  -31.6997 H   0  0  0  0  0  0  0  0  0  0  0  0
   -9.1170   20.8000  -31.8430 C   0  0  0  0  0  0  0  0  0  0  0  0
   -8.9900   22.1260  -31.4280 C   0  0  0  0  0  0  0  0  0  0  0  0
   -9.8414   22.6375  -30.9553 H   0  0  0  0  0  0  0  0  0  0  0  0
   -7.7830   22.8050  -31.6120 C   0  0  0  0  0  0  0  0  0  0  0  0
   -7.6851   23.8476  -31.2754 H   0  0  0  0  0  0  0  0  0  0  0  0
   -6.6930   22.1630  -32.2250 C   0  0  0  0  0  0  0  0  0  0  0  0
   -5.3920   22.9000  -32.3890 C   0  0  0  0  0  0  0  0  0  0  0  0
   -4.5563   22.2302  -32.1380 H   0  0  0  0  0  0  0  0  0  0  0  0
   -5.2892   23.2376  -33.4308 H   0  0  0  0  0  0  0  0  0  0  0  0
   -5.3750   24.0560  -31.4970 N   0  0  0  0  0  0  0  0  0  0  0  0
   -4.6450   24.1380  -30.4250 C   0  0  0  0  0  0  0  0  0  0  0  0
   -3.4840   24.8500  -30.4180 N   0  0  0  0  0  0  0  0  0  0  0  0
   -2.7270   24.9400  -29.3240 N   0  0  0  0  0  0  0  0  0  0  0  0
   -3.0710   24.3290  -28.1570 C   0  0  0  0  0  0  0  0  0  0  0  0
   -2.1990   24.4540  -26.9610 C   0  0  0  0  0  0  0  0  0  0  0  0
   -2.2040   25.7660  -25.8950 S   0  0  0  0  0  0  0  0  0  0  0  0
   -1.0090   25.1270  -24.9080 C   0  0  0  0  0  0  0  0  0  0  0  0
   -0.4190   25.8210  -23.7280 C   0  0  0  0  0  0  0  0  0  0  0  0
   -0.8056   25.3662  -22.8040 H   0  0  0  0  0  0  0  0  0  0  0  0
    0.6763   25.7227  -23.7546 H   0  0  0  0  0  0  0  0  0  0  0  0
   -0.6923   26.8862  -23.7546 H   0  0  0  0  0  0  0  0  0  0  0  0
   -0.5710   23.9380  -25.3710 N   0  0  0  0  0  0  0  0  0  0  0  0
   -1.2260   23.5490  -26.5000 C   0  0  0  0  0  0  0  0  0  0  0  0
   -0.8870   22.2500  -27.1630 C   0  0  0  0  0  0  0  0  0  0  0  0
   -0.6880   21.4876  -26.3955 H   0  0  0  0  0  0  0  0  0  0  0  0
   -1.7310   21.9273  -27.7903 H   0  0  0  0  0  0  0  0  0  0  0  0
    0.0071   22.3809  -27.7903 H   0  0  0  0  0  0  0  0  0  0  0  0
   -4.2580   23.5840  -28.1160 C   0  0  0  0  0  0  0  0  0  0  0  0
   -4.5625   23.0779  -27.1880 H   0  0  0  0  0  0  0  0  0  0  0  0
   -5.0500   23.4890  -29.2600 C   0  0  0  0  0  0  0  0  0  0  0  0
   -5.9840   22.9082  -29.2430 H   0  0  0  0  0  0  0  0  0  0  0  0
   -6.8120   20.8170  -32.6310 C   0  0  0  0  0  0  0  0  0  0  0  0
   -5.7030   20.1820  -33.2130 O   0  0  0  0  0  0  0  0  0  0  0  0
   -5.7810   19.0660  -34.0940 C   0  0  0  0  0  0  0  0  0  0  0  0
   -5.8458   18.1386  -33.5061 H   0  0  0  0  0  0  0  0  0  0  0  0
   -6.6747   19.1613  -34.7282 H   0  0  0  0  0  0  0  0  0  0  0  0
   -4.8828   19.0361  -34.7282 H   0  0  0  0  0  0  0  0  0  0  0  0
   -8.0370   20.1460  -32.4400 C   0  0  0  0  0  0  0  0  0  0  0  0
   -8.1430   19.1000  -32.7634 H   0  0  0  0  0  0  0  0  0  0  0  0
  1  2  1  0
  2  3  2  0
  3  4  1  0
  3  5  1  0
  5  6  1  0
  5  7  2  0
  7  8  1  0
  8  9  1  0
  8 10  1  0
  8 11  1  0
 11 12  2  0
 12 13  1  0
 13 14  1  0
 14 15  2  0
 15 16  1  0
 16 17  1  0
 17 18  1  0
 18 19  1  0
 19 20  1  0
 19 21  1  0
 19 22  1  0
 18 23  2  0
 23 24  1  0
 24 25  1  0
 25 26  1  0
 25 27  1  0
 25 28  1  0
 15 29  1  0
 29 30  1  0
 29 31  2  0
 31 32  1  0
  7 33  1  0
 33 34  1  0
 34 35  1  0
 35 36  1  0
 35 37  1  0
 35 38  1  0
 33 39  2  0
 39 40  1  0
 39  2  1  0
 31 12  1  0
 24 16  2  0
M  CHG  1  13  -1
M  END
>  <UniqueID>  (30) 
29

>  <SMILES>  (30) 
COc1ccccc1C/N=c1/ccc(-c2sc(C)nc2C)n[n-]1

>  <Energy>  (30) 
71.24308282548137

>  <Genealogy>  (30) 
COc1ccccc1CN=c1ccc(-c2sc(C)nc2C)n[n-]1 (protonated)
COc1ccccc1C/N=c1/ccc(-c2sc(C)nc2C)n[n-]1 (cis-trans isomerization)
COc1ccccc1C/N=c1/ccc(-c2sc(C)nc2C)n[n-]1 (3D coordinates assigned)
COc1ccccc1C/N=c1/ccc(-c2sc(C)nc2C)n[n-]1 (optimized conformer: 71.24308282548137 kcal/mol)

>  <smiles>  (30) 
COc1ccccc1CN=c1ccc(-c2sc(C)nc2C)n[nH]1

>  <score_type>  (30) 
oracle

>  <origin>  (30) 
adg

>  <m_score__min__energy>  (30) 
-10.140000000000001

>  <m_primary>  (30) 
energy

$$$$
30:0
     RDKit          3D

 53 56  0  0  0  0  0  0  0  0999 V2000
   -6.3400   17.4670  -33.4400 C   0  0  0  0  0  0  0  0  0  0  0  0
   -7.5420   17.9130  -32.5980 C   0  0  0  0  0  0  0  0  0  0  0  0
   -7.9310   19.3250  -32.8620 N   0  0  0  0  0  0  0  0  0  0  0  0
   -8.4810   19.9640  -31.6350 C   0  0  0  0  0  0  0  0  0  0  0  0
   -9.3040   21.2230  -31.9320 C   0  0  0  0  0  0  0  0  0  0  0  0
   -6.8030   20.0830  -33.4690 C   0  0  0  0  0  0  0  0  0  0  0  0
   -5.9890   20.9290  -32.4670 C   0  0  0  0  0  0  0  0  0  0  0  0
   -4.9180   20.1280  -31.8690 N   0  0  0  0  0  0  0  0  0  0  0  0
   -3.5270   20.5140  -31.7880 C   0  0  0  0  0  0  0  0  0  0  0  0
   -2.5610   19.6510  -32.1360 C   0  0  0  0  0  0  0  0  0  0  0  0
   -1.1300   19.9570  -32.1520 C   0  0  0  0  0  0  0  0  0  0  0  0
   -0.4930   20.7480  -31.2880 C   0  0  0  0  0  0  0  0  0  0  0  0
   -1.1030   21.5200  -30.1700 C   0  0  0  0  0  0  0  0  0  0  0  0
   -0.3510   21.6000  -28.9770 C   0  0  0  0  0  0  0  0  0  0  0  0
    0.6090   20.7790  -28.8790 O   0  0  0  0  0  0  0  0  0  0  0  0
   -0.5700   22.4640  -27.8670 C   0  0  0  0  0  0  0  0  0  0  0  0
    0.0490   22.0760  -26.6450 C   0  0  0  0  0  0  0  0  0  0  0  0
    0.0930   22.9130  -25.5370 C   0  0  0  0  0  0  0  0  0  0  0  0
   -0.4600   24.1770  -25.6070 C   0  0  0  0  0  0  0  0  0  0  0  0
   -1.0970   24.5910  -26.7690 C   0  0  0  0  0  0  0  0  0  0  0  0
   -1.2090   23.7500  -27.9090 C   0  0  0  0  0  0  0  0  0  0  0  0
   -1.9810   24.2620  -28.9740 C   0  0  0  0  0  0  0  0  0  0  0  0
   -2.3020   25.6220  -28.9740 O   0  0  0  0  0  0  0  0  0  0  0  0
   -2.5730   23.4980  -29.9740 C   0  0  0  0  0  0  0  0  0  0  0  0
   -3.6550   23.9390  -30.7170 C   0  0  0  0  0  0  0  0  0  0  0  0
   -4.0370   22.8950  -31.5170 C   0  0  0  0  0  0  0  0  0  0  0  0
   -3.2170   21.8450  -31.3300 N   0  0  0  0  0  0  0  0  0  0  0  0
   -2.2920   22.2120  -30.4040 C   0  0  0  0  0  0  0  0  0  0  0  0
   -5.5189   17.1623  -32.7744 H   0  0  0  0  0  0  0  0  0  0  0  0
   -6.6320   16.6174  -34.0747 H   0  0  0  0  0  0  0  0  0  0  0  0
   -6.0071   18.3015  -34.0747 H   0  0  0  0  0  0  0  0  0  0  0  0
   -8.3973   17.2620  -32.8317 H   0  0  0  0  0  0  0  0  0  0  0  0
   -7.2540   17.8383  -31.5390 H   0  0  0  0  0  0  0  0  0  0  0  0
   -8.6930   19.3200  -33.5810 H   0  0  0  0  0  0  0  0  0  0  0  0
   -9.1263   19.2368  -31.1204 H   0  0  0  0  0  0  0  0  0  0  0  0
   -7.6271   20.2687  -31.0121 H   0  0  0  0  0  0  0  0  0  0  0  0
   -9.6107   21.6923  -30.9856 H   0  0  0  0  0  0  0  0  0  0  0  0
   -8.6941   21.9314  -32.5118 H   0  0  0  0  0  0  0  0  0  0  0  0
  -10.1976   20.9486  -32.5118 H   0  0  0  0  0  0  0  0  0  0  0  0
   -6.1210   19.3626  -33.9443 H   0  0  0  0  0  0  0  0  0  0  0  0
   -7.2492   20.7888  -34.1850 H   0  0  0  0  0  0  0  0  0  0  0  0
   -5.5475   21.7880  -32.9936 H   0  0  0  0  0  0  0  0  0  0  0  0
   -6.6604   21.2774  -31.6684 H   0  0  0  0  0  0  0  0  0  0  0  0
   -5.1950   19.2140  -31.4450 H   0  0  0  0  0  0  0  0  0  0  0  0
   -2.8675   18.6368  -32.4317 H   0  0  0  0  0  0  0  0  0  0  0  0
   -0.5268   19.4937  -32.9467 H   0  0  0  0  0  0  0  0  0  0  0  0
    0.5959   20.8399  -31.4141 H   0  0  0  0  0  0  0  0  0  0  0  0
    0.5084   21.0789  -26.5757 H   0  0  0  0  0  0  0  0  0  0  0  0
    0.5673   22.5699  -24.6057 H   0  0  0  0  0  0  0  0  0  0  0  0
   -0.3957   24.8547  -24.7430 H   0  0  0  0  0  0  0  0  0  0  0  0
   -1.5287   25.6020  -26.8085 H   0  0  0  0  0  0  0  0  0  0  0  0
   -4.1184   24.9357  -30.6732 H   0  0  0  0  0  0  0  0  0  0  0  0
   -4.8900   22.9125  -32.2113 H   0  0  0  0  0  0  0  0  0  0  0  0
  1  2  1  0
  2  3  1  0
  3  4  1  0
  4  5  1  0
  3  6  1  0
  6  7  1  0
  7  8  1  0
  8  9  1  0
  9 10  2  0
 10 11  1  0
 11 12  2  0
 12 13  1  0
 13 14  1  0
 14 15  2  0
 14 16  1  0
 16 17  2  0
 17 18  1  0
 18 19  2  0
 19 20  1  0
 20 21  2  0
 21 22  1  0
 22 23  1  0
 22 24  2  0
 24 25  1  0
 25 26  2  0
 26 27  1  0
 27 28  1  0
 27  9  1  0
 28 13  2  0
 21 16  1  0
 28 24  1  0
  1 29  1  0
  1 30  1  0
  1 31  1  0
  2 32  1  0
  2 33  1  0
  3 34  1  0
  4 35  1  0
  4 36  1  0
  5 37  1  0
  5 38  1  0
  5 39  1  0
  6 40  1  0
  6 41  1  0
  7 42  1  0
  7 43  1  0
  8 44  1  0
 10 45  1  0
 11 46  1  0
 12 47  1  0
 17 48  1  0
 18 49  1  0
 19 50  1  0
 20 51  1  0
 25 52  1  0
 26 53  1  0
M  CHG  2   3   1  23  -1
M  END
>  <UniqueID>  (31) 
30

>  <SMILES>  (31) 
CC[NH+](CC)CCNC1=CC=Cc2c(=O)c3ccccc3c([O-])c3ccn1c23

>  <Energy>  (31) 
146.85884754775242

>  <Genealogy>  (31) 
CC[NH+](CC)CCNC1=CC=Cc2c(=O)c3ccccc3c([O-])c3ccn1c23 (protonated)
CC[NH+](CC)CCNC1=CC=Cc2c(=O)c3ccccc3c([O-])c3ccn1c23 (3D coordinates assigned)
CC[NH+](CC)CCNC1=CC=Cc2c(=O)c3ccccc3c([O-])c3ccn1c23 (nonaromatic ring conformer: 146.85884754775242 kcal/mol)

>  <smiles>  (31) 
CCN(CC)CCNC1=CC=Cc2c(=O)c3ccccc3c(O)c3ccn1c23

>  <score_type>  (31) 
oracle

>  <origin>  (31) 
adg

>  <m_score__min__energy>  (31) 
-9.0800000000000001

>  <m_primary>  (31) 
energy

$$$$
31:0
     RDKit          3D

 49 52  0  0  0  0  0  0  0  0999 V2000
   -0.8820   21.8050  -30.5480 C   0  0  0  0  0  0  0  0  0  0  0  0
   -2.2120   21.6130  -29.8300 C   0  0  0  0  0  0  0  0  0  0  0  0
   -3.2210   22.5340  -30.3680 N   0  0  0  0  0  0  0  0  0  0  0  0
   -3.6680   23.6800  -29.8090 C   0  0  0  0  0  0  0  0  0  0  0  0
   -3.1290   24.3250  -28.5960 C   0  0  0  0  0  0  0  0  0  0  0  0
   -1.8560   24.9170  -28.6060 C   0  0  0  0  0  0  0  0  0  0  0  0
   -1.3610   25.5410  -27.4560 C   0  0  0  0  0  0  0  0  0  0  0  0
   -2.1380   25.5890  -26.2950 C   0  0  0  0  0  0  0  0  0  0  0  0
   -1.6570   26.1950  -25.1810 F   0  0  0  0  0  0  0  0  0  0  0  0
   -3.4140   25.0190  -26.2850 C   0  0  0  0  0  0  0  0  0  0  0  0
   -3.9120   24.3960  -27.4320 C   0  0  0  0  0  0  0  0  0  0  0  0
   -4.7540   24.1280  -30.5290 C   0  0  0  0  0  0  0  0  0  0  0  0
   -5.0010   23.2760  -31.5410 N   0  0  0  0  0  0  0  0  0  0  0  0
   -4.0660   22.3100  -31.4050 C   0  0  0  0  0  0  0  0  0  0  0  0
   -3.9760   21.1440  -32.3530 C   0  0  0  0  0  0  0  0  0  0  0  0
   -4.9820   21.2710  -33.4230 N   0  0  0  0  0  0  0  0  0  0  0  0
   -5.5830   19.9850  -33.8580 C   0  0  1  0  0  0  0  0  0  0  0  0
   -4.5410   18.8380  -33.9840 C   0  0  0  0  0  0  0  0  0  0  0  0
   -4.4300   17.9750  -32.7210 C   0  0  0  0  0  0  0  0  0  0  0  0
   -5.7160   17.5550  -32.2770 O   0  0  0  0  0  0  0  0  0  0  0  0
   -6.8210   18.4060  -32.2880 C   0  0  0  0  0  0  0  0  0  0  0  0
   -7.9660   18.0450  -31.5690 C   0  0  0  0  0  0  0  0  0  0  0  0
   -9.0920   18.8720  -31.5770 C   0  0  0  0  0  0  0  0  0  0  0  0
   -9.0820   20.0580  -32.3160 C   0  0  0  0  0  0  0  0  0  0  0  0
   -7.9470   20.4190  -33.0460 C   0  0  0  0  0  0  0  0  0  0  0  0
   -6.8020   19.6030  -33.0320 C   0  0  0  0  0  0  0  0  0  0  0  0
   -0.0782   21.9210  -29.8061 H   0  0  0  0  0  0  0  0  0  0  0  0
   -0.6755   20.9274  -31.1782 H   0  0  0  0  0  0  0  0  0  0  0  0
   -0.9321   22.7052  -31.1782 H   0  0  0  0  0  0  0  0  0  0  0  0
   -2.5543   20.5773  -29.9717 H   0  0  0  0  0  0  0  0  0  0  0  0
   -2.0730   21.8217  -28.7590 H   0  0  0  0  0  0  0  0  0  0  0  0
   -1.2460   24.8901  -29.5209 H   0  0  0  0  0  0  0  0  0  0  0  0
   -0.3589   25.9945  -27.4654 H   0  0  0  0  0  0  0  0  0  0  0  0
   -4.0271   25.0610  -25.3727 H   0  0  0  0  0  0  0  0  0  0  0  0
   -4.9215   23.9592  -27.4235 H   0  0  0  0  0  0  0  0  0  0  0  0
   -5.3293   25.0398  -30.3107 H   0  0  0  0  0  0  0  0  0  0  0  0
   -2.9718   21.1183  -32.8012 H   0  0  0  0  0  0  0  0  0  0  0  0
   -4.1653   20.2154  -31.7945 H   0  0  0  0  0  0  0  0  0  0  0  0
   -4.5390   21.7320  -34.2520 H   0  0  0  0  0  0  0  0  0  0  0  0
   -5.7500   21.9060  -33.1030 H   0  0  0  0  0  0  0  0  0  0  0  0
   -5.9536   20.1511  -34.8803 H   0  0  0  0  0  0  0  0  0  0  0  0
   -4.8344   18.1910  -34.8238 H   0  0  0  0  0  0  0  0  0  0  0  0
   -3.5591   19.3072  -34.1442 H   0  0  0  0  0  0  0  0  0  0  0  0
   -3.8186   17.0881  -32.9436 H   0  0  0  0  0  0  0  0  0  0  0  0
   -3.9627   18.5746  -31.9260 H   0  0  0  0  0  0  0  0  0  0  0  0
   -7.9795   17.1065  -30.9953 H   0  0  0  0  0  0  0  0  0  0  0  0
   -9.9861   18.5897  -31.0018 H   0  0  0  0  0  0  0  0  0  0  0  0
   -9.9692   20.7083  -32.3229 H   0  0  0  0  0  0  0  0  0  0  0  0
   -7.9490   21.3476  -33.6356 H   0  0  0  0  0  0  0  0  0  0  0  0
  1  2  1  0
  2  3  1  0
  3  4  1  0
  4  5  1  0
  5  6  2  0
  6  7  1  0
  7  8  2  0
  8  9  1  0
  8 10  1  0
 10 11  2  0
  4 12  2  0
 12 13  1  0
 13 14  2  0
 14 15  1  0
 15 16  1  0
 16 17  1  0
 17 18  1  0
 18 19  1  0
 19 20  1  0
 20 21  1  0
 21 22  2  0
 22 23  1  0
 23 24  2  0
 24 25  1  0
 25 26  2  0
 14  3  1  0
 26 17  1  0
 11  5  1  0
 26 21  1  0
  1 27  1  0
  1 28  1  0
  1 29  1  0
  2 30  1  0
  2 31  1  0
  6 32  1  0
  7 33  1  0
 10 34  1  0
 11 35  1  0
 12 36  1  0
 15 37  1  0
 15 38  1  0
 16 39  1  0
 16 40  1  0
 17 41  1  6
 18 42  1  0
 18 43  1  0
 19 44  1  0
 19 45  1  0
 22 46  1  0
 23 47  1  0
 24 48  1  0
 25 49  1  0
M  CHG  1  16   1
M  END
>  <UniqueID>  (32) 
31

>  <SMILES>  (32) 
CCn1c(-c2ccc(F)cc2)cnc1C[NH2+][C@H]1CCOc2ccccc21

>  <Energy>  (32) 
89.70909054093566

>  <Genealogy>  (32) 
CCn1c(-c2ccc(F)cc2)cnc1C[NH2+]C1CCOc2ccccc21 (protonated)
CCn1c(-c2ccc(F)cc2)cnc1C[NH2+][C@H]1CCOc2ccccc21 (chirality)
CCn1c(-c2ccc(F)cc2)cnc1C[NH2+][C@H]1CCOc2ccccc21 (3D coordinates assigned)
CCn1c(-c2ccc(F)cc2)cnc1C[NH2+][C@H]1CCOc2ccccc21 (nonaromatic ring conformer: 89.70909054093566 kcal/mol)

>  <smiles>  (32) 
CCn1c(-c2ccc(F)cc2)cnc1CNC1CCOc2ccccc21

>  <score_type>  (32) 
oracle

>  <origin>  (32) 
adg

>  <m_score__min__energy>  (32) 
-7.5300000000000002

>  <m_primary>  (32) 
energy

$$$$
32:0
     RDKit          3D

 43 44  0  0  0  0  0  0  0  0999 V2000
   -7.1600   19.2880  -32.6290 C   0  0  0  0  0  0  0  0  0  0  0  0
   -5.7420   19.7660  -32.6180 C   0  0  0  0  0  0  0  0  0  0  0  0
   -5.4770   20.8820  -32.0940 O   0  0  0  0  0  0  0  0  0  0  0  0
   -4.6460   18.9570  -33.1970 C   0  0  0  0  0  0  0  0  0  0  0  0
   -3.2940   19.2660  -33.0150 C   0  0  0  0  0  0  0  0  0  0  0  0
   -2.7580   20.3160  -32.1980 N   0  0  0  0  0  0  0  0  0  0  0  0
   -1.4930   20.9350  -32.4630 C   0  0  0  0  0  0  0  0  0  0  0  0
   -0.9260   20.7710  -33.5770 O   0  0  0  0  0  0  0  0  0  0  0  0
   -0.8750   21.8440  -31.4490 C   0  0  0  0  0  0  0  0  0  0  0  0
   -1.8370   22.1630  -30.4500 O   0  0  0  0  0  0  0  0  0  0  0  0
   -2.9250   23.0090  -30.6850 C   0  0  0  0  0  0  0  0  0  0  0  0
   -3.6850   22.8140  -31.6740 O   0  0  0  0  0  0  0  0  0  0  0  0
   -3.1770   24.1800  -29.7840 C   0  0  0  0  0  0  0  0  0  0  0  0
   -3.8430   25.2610  -30.5030 N   0  0  0  0  0  0  0  0  0  0  0  0
   -5.2600   25.4680  -30.4880 C   0  0  0  0  0  0  0  0  0  0  0  0
   -5.7340   26.5880  -30.1550 O   0  0  0  0  0  0  0  0  0  0  0  0
   -6.1620   24.3710  -30.8570 C   0  0  0  0  0  0  0  0  0  0  0  0
   -6.5690   24.0440  -32.1460 C   0  0  0  0  0  0  0  0  0  0  0  0
   -7.4510   22.9570  -32.1870 C   0  0  0  0  0  0  0  0  0  0  0  0
   -7.7450   22.4290  -30.9340 C   0  0  0  0  0  0  0  0  0  0  0  0
   -6.9020   23.3120  -29.7780 S   0  0  0  0  0  0  0  0  0  0  0  0
   -2.3470   18.2210  -33.9220 S   0  0  0  0  0  0  0  0  0  0  0  0
   -3.6270   17.3240  -34.5420 C   0  0  0  0  0  0  0  0  0  0  0  0
   -3.4650   16.1850  -35.4970 C   0  0  0  0  0  0  0  0  0  0  0  0
   -4.8330   17.8650  -34.0800 C   0  0  0  0  0  0  0  0  0  0  0  0
   -6.1820   17.3530  -34.5070 C   0  0  0  0  0  0  0  0  0  0  0  0
   -7.5147   19.1684  -31.5946 H   0  0  0  0  0  0  0  0  0  0  0  0
   -7.7907   20.0232  -33.1502 H   0  0  0  0  0  0  0  0  0  0  0  0
   -7.2169   18.3210  -33.1502 H   0  0  0  0  0  0  0  0  0  0  0  0
   -3.3750   20.7340  -31.4690 H   0  0  0  0  0  0  0  0  0  0  0  0
   -0.0145   21.3421  -30.9826 H   0  0  0  0  0  0  0  0  0  0  0  0
   -0.5374   22.7678  -31.9417 H   0  0  0  0  0  0  0  0  0  0  0  0
   -3.8144   23.8589  -28.9470 H   0  0  0  0  0  0  0  0  0  0  0  0
   -2.2100   24.5504  -29.4130 H   0  0  0  0  0  0  0  0  0  0  0  0
   -6.2321   24.5846  -33.0428 H   0  0  0  0  0  0  0  0  0  0  0  0
   -7.8717   22.5583  -33.1219 H   0  0  0  0  0  0  0  0  0  0  0  0
   -8.4143   21.5793  -30.7338 H   0  0  0  0  0  0  0  0  0  0  0  0
   -3.3320   15.2499  -34.9332 H   0  0  0  0  0  0  0  0  0  0  0  0
   -4.3611   16.1071  -36.1302 H   0  0  0  0  0  0  0  0  0  0  0  0
   -2.5827   16.3601  -36.1302 H   0  0  0  0  0  0  0  0  0  0  0  0
   -6.7859   17.1238  -33.6166 H   0  0  0  0  0  0  0  0  0  0  0  0
   -6.6918   18.1202  -35.1083 H   0  0  0  0  0  0  0  0  0  0  0  0
   -6.0544   16.4408  -35.1083 H   0  0  0  0  0  0  0  0  0  0  0  0
  1  2  1  0
  2  3  2  0
  2  4  1  0
  4  5  2  0
  5  6  1  0
  6  7  1  0
  7  8  2  0
  7  9  1  0
  9 10  1  0
 10 11  1  0
 11 12  2  0
 11 13  1  0
 13 14  1  0
 14 15  1  0
 15 16  2  0
 15 17  1  0
 17 18  2  0
 18 19  1  0
 19 20  2  0
 20 21  1  0
  5 22  1  0
 22 23  1  0
 23 24  1  0
 23 25  2  0
 25 26  1  0
 25  4  1  0
 21 17  1  0
  1 27  1  0
  1 28  1  0
  1 29  1  0
  6 30  1  0
  9 31  1  0
  9 32  1  0
 13 33  1  0
 13 34  1  0
 18 35  1  0
 19 36  1  0
 20 37  1  0
 24 38  1  0
 24 39  1  0
 24 40  1  0
 26 41  1  0
 26 42  1  0
 26 43  1  0
M  CHG  1  14  -1
M  END
>  <UniqueID>  (33) 
32

>  <SMILES>  (33) 
CC(=O)c1c(NC(=O)COC(=O)C[N-]C(=O)c2cccs2)sc(C)c1C

>  <Energy>  (33) 
92.74343377475387

>  <Genealogy>  (33) 
CC(=O)c1c(NC(=O)COC(=O)C[N-]C(=O)c2cccs2)sc(C)c1C (protonated)
CC(=O)c1c(NC(=O)COC(=O)C[N-]C(=O)c2cccs2)sc(C)c1C (3D coordinates assigned)
CC(=O)c1c(NC(=O)COC(=O)C[N-]C(=O)c2cccs2)sc(C)c1C (optimized conformer: 92.74343377475387 kcal/mol)

>  <smiles>  (33) 
CC(=O)c1c(NC(=O)COC(=O)CNC(=O)c2cccs2)sc(C)c1C

>  <score_type>  (33) 
oracle

>  <origin>  (33) 
adg

>  <m_score__min__energy>  (33) 
-10.789999999999999

>  <m_primary>  (33) 
energy

$$$$
33:0
     RDKit          3D

 55 57  0  0  0  0  0  0  0  0999 V2000
   -0.1830   22.6840  -25.6560 C   0  0  0  0  0  0  0  0  0  0  0  0
    0.4830   23.8610  -24.9370 C   0  0  0  0  0  0  0  0  0  0  0  0
   -0.4720   24.6450  -24.1330 N   0  0  0  0  0  0  0  0  0  0  0  0
   -0.4170   26.0830  -24.4480 C   0  0  0  0  0  0  0  0  0  0  0  0
   -1.5780   26.4990  -25.3680 C   0  0  0  0  0  0  0  0  0  0  0  0
   -2.0550   25.3550  -26.1760 N   0  0  0  0  0  0  0  0  0  0  0  0
   -1.5940   25.4490  -27.5750 C   0  0  0  0  0  0  0  0  0  0  0  0
   -1.9610   24.1640  -28.3440 C   0  0  0  0  0  0  0  0  0  0  0  0
   -2.9850   23.3690  -27.6310 N   0  0  0  0  0  0  0  0  0  0  0  0
   -3.5020   22.2900  -28.4990 C   0  0  0  0  0  0  0  0  0  0  0  0
   -3.1790   22.5840  -29.9710 C   0  0  0  0  0  0  0  0  0  0  0  0
   -4.3910   23.0080  -30.6990 N   0  0  0  0  0  0  0  0  0  0  0  0
   -4.7230   24.4150  -30.7620 C   0  0  0  0  0  0  0  0  0  0  0  0
   -3.8690   25.2960  -30.4700 O   0  0  0  0  0  0  0  0  0  0  0  0
   -6.0790   24.8490  -31.2340 C   0  0  0  0  0  0  0  0  0  0  0  0
   -7.1350   23.8210  -30.8280 C   0  0  0  0  0  0  0  0  0  0  0  0
   -6.7270   22.4410  -31.2720 C   0  0  0  0  0  0  0  0  0  0  0  0
   -7.7030   21.5290  -31.7010 C   0  0  0  0  0  0  0  0  0  0  0  0
   -7.3360   20.2430  -32.0960 C   0  0  0  0  0  0  0  0  0  0  0  0
   -5.9970   19.8590  -32.0640 C   0  0  0  0  0  0  0  0  0  0  0  0
   -5.0130   20.7490  -31.6220 C   0  0  0  0  0  0  0  0  0  0  0  0
   -3.7260   20.3310  -31.6520 F   0  0  0  0  0  0  0  0  0  0  0  0
   -5.3690   22.0510  -31.1920 C   0  0  0  0  0  0  0  0  0  0  0  0
   -4.0710   24.2530  -27.1640 C   0  0  0  0  0  0  0  0  0  0  0  0
   -3.5300   25.2660  -26.1340 C   0  0  0  0  0  0  0  0  0  0  0  0
   -0.5822   21.9785  -24.9124 H   0  0  0  0  0  0  0  0  0  0  0  0
   -1.0042   23.0564  -26.2860 H   0  0  0  0  0  0  0  0  0  0  0  0
    0.5591   22.1718  -26.2860 H   0  0  0  0  0  0  0  0  0  0  0  0
    1.2668   23.4700  -24.2715 H   0  0  0  0  0  0  0  0  0  0  0  0
    0.9005   24.5288  -25.7050 H   0  0  0  0  0  0  0  0  0  0  0  0
   -1.4320   24.2860  -24.3470 H   0  0  0  0  0  0  0  0  0  0  0  0
   -0.2880   24.4930  -23.1120 H   0  0  0  0  0  0  0  0  0  0  0  0
   -0.4782   26.6574  -23.5119 H   0  0  0  0  0  0  0  0  0  0  0  0
    0.5296   26.2881  -24.9695 H   0  0  0  0  0  0  0  0  0  0  0  0
   -2.4081   26.8740  -24.7513 H   0  0  0  0  0  0  0  0  0  0  0  0
   -1.2183   27.2827  -26.0510 H   0  0  0  0  0  0  0  0  0  0  0  0
   -2.0749   26.3119  -28.0589 H   0  0  0  0  0  0  0  0  0  0  0  0
   -0.5011   25.5737  -27.5852 H   0  0  0  0  0  0  0  0  0  0  0  0
   -2.3516   24.4412  -29.3342 H   0  0  0  0  0  0  0  0  0  0  0  0
   -1.0533   23.5492  -28.4342 H   0  0  0  0  0  0  0  0  0  0  0  0
   -3.0353   21.3370  -28.2091 H   0  0  0  0  0  0  0  0  0  0  0  0
   -4.5938   22.2289  -28.3793 H   0  0  0  0  0  0  0  0  0  0  0  0
   -2.4283   23.3864  -30.0222 H   0  0  0  0  0  0  0  0  0  0  0  0
   -2.7908   21.6663  -30.4369 H   0  0  0  0  0  0  0  0  0  0  0  0
   -6.3265   25.8212  -30.7829 H   0  0  0  0  0  0  0  0  0  0  0  0
   -6.0660   24.9353  -32.3305 H   0  0  0  0  0  0  0  0  0  0  0  0
   -7.2474   23.8306  -29.7338 H   0  0  0  0  0  0  0  0  0  0  0  0
   -8.0888   24.0819  -31.3099 H   0  0  0  0  0  0  0  0  0  0  0  0
   -8.7609   21.8293  -31.7258 H   0  0  0  0  0  0  0  0  0  0  0  0
   -8.1040   19.5313  -32.4331 H   0  0  0  0  0  0  0  0  0  0  0  0
   -5.7116   18.8476  -32.3890 H   0  0  0  0  0  0  0  0  0  0  0  0
   -4.4906   24.7974  -28.0228 H   0  0  0  0  0  0  0  0  0  0  0  0
   -4.8516   23.6410  -26.6885 H   0  0  0  0  0  0  0  0  0  0  0  0
   -3.9532   26.2574  -26.3532 H   0  0  0  0  0  0  0  0  0  0  0  0
   -3.8241   24.9244  -25.1306 H   0  0  0  0  0  0  0  0  0  0  0  0
  1  2  1  0
  2  3  1  0
  3  4  1  0
  4  5  1  0
  5  6  1  0
  6  7  1  0
  7  8  1  0
  8  9  1  0
  9 10  1  0
 10 11  1  0
 11 12  1  0
 12 13  1  0
 13 14  2  0
 13 15  1  0
 15 16  1  0
 16 17  1  0
 17 18  2  0
 18 19  1  0
 19 20  2  0
 20 21  1  0
 21 22  1  0
 21 23  2  0
  9 24  1  0
 24 25  1  0
 25  6  1  0
 23 12  1  0
 23 17  1  0
  1 26  1  0
  1 27  1  0
  1 28  1  0
  2 29  1  0
  2 30  1  0
  3 31  1  0
  3 32  1  0
  4 33  1  0
  4 34  1  0
  5 35  1  0
  5 36  1  0
  7 37  1  0
  7 38  1  0
  8 39  1  0
  8 40  1  0
 10 41  1  0
 10 42  1  0
 11 43  1  0
 11 44  1  0
 15 45  1  0
 15 46  1  0
 16 47  1  0
 16 48  1  0
 18 49  1  0
 19 50  1  0
 20 51  1  0
 24 52  1  0
 24 53  1  0
 25 54  1  0
 25 55  1  0
M  CHG  1   3   1
M  END
>  <UniqueID>  (34) 
33

>  <SMILES>  (34) 
CC[NH2+]CCN1CCN(CCN2C(=O)CCc3cccc(F)c32)CC1

>  <Energy>  (34) 
65.9511649551865

>  <Genealogy>  (34) 
CC[NH2+]CCN1CCN(CCN2C(=O)CCc3cccc(F)c32)CC1 (protonated)
CC[NH2+]CCN1CCN(CCN2C(=O)CCc3cccc(F)c32)CC1 (3D coordinates assigned)
CC[NH2+]CCN1CCN(CCN2C(=O)CCc3cccc(F)c32)CC1 (nonaromatic ring conformer: 65.9511649551865 kcal/mol)

>  <smiles>  (34) 
CCNCCN1CCN(CCN2C(=O)CCc3cccc(F)c32)CC1

>  <score_type>  (34) 
oracle

>  <origin>  (34) 
adg

>  <m_score__min__energy>  (34) 
-8.7899999999999991

>  <m_primary>  (34) 
energy

$$$$
34:0
     RDKit          3D

 54 57  0  0  0  0  0  0  0  0999 V2000
   -1.8540   21.9210  -30.8920 C   0  0  0  0  0  0  0  0  0  0  0  0
   -3.1710   22.0080  -30.6850 C   0  0  0  0  0  0  0  0  0  0  0  0
   -3.7140   22.6010  -29.4150 C   0  0  0  0  0  0  0  0  0  0  0  0
   -2.7280   23.5870  -28.8040 C   0  0  0  0  0  0  0  0  0  0  0  0
   -2.6570   24.8720  -29.3800 C   0  0  0  0  0  0  0  0  0  0  0  0
   -3.5010   25.2390  -30.4230 O   0  0  0  0  0  0  0  0  0  0  0  0
   -1.7630   25.7500  -28.9700 O   0  0  0  0  0  0  0  0  0  0  0  0
   -0.9050   25.5150  -27.9960 C   0  0  0  0  0  0  0  0  0  0  0  0
   -0.0540   26.4070  -27.7390 O   0  0  0  0  0  0  0  0  0  0  0  0
   -0.9260   24.2860  -27.2860 C   0  0  0  0  0  0  0  0  0  0  0  0
   -1.8120   23.2600  -27.7470 C   0  0  0  0  0  0  0  0  0  0  0  0
   -1.6080   21.7990  -27.2810 C   0  0  2  0  0  0  0  0  0  0  0  0
   -2.8490   21.1340  -27.1240 O   0  0  0  0  0  0  0  0  0  0  0  0
   -2.6220   19.4700  -26.7950 S   0  0  0  0  0  0  0  0  0  0  0  0
   -3.8540   18.6770  -27.1420 O   0  0  0  0  0  0  0  0  0  0  0  0
   -2.3630   19.3020  -25.3200 O   0  0  0  0  0  0  0  0  0  0  0  0
   -1.2360   18.8340  -27.6760 C   0  0  0  0  0  0  0  0  0  0  0  0
   -0.8400   19.4120  -28.8930 C   0  0  0  0  0  0  0  0  0  0  0  0
    0.3140   18.9660  -29.5430 C   0  0  0  0  0  0  0  0  0  0  0  0
    1.0960   17.9470  -28.9730 C   0  0  0  0  0  0  0  0  0  0  0  0
    2.2800   17.5210  -29.5960 C   0  0  0  0  0  0  0  0  0  0  0  0
    3.0600   16.5180  -29.0100 C   0  0  0  0  0  0  0  0  0  0  0  0
    2.6590   15.9280  -27.8090 C   0  0  0  0  0  0  0  0  0  0  0  0
    1.4800   16.3390  -27.1780 C   0  0  0  0  0  0  0  0  0  0  0  0
    0.6910   17.3490  -27.7520 C   0  0  0  0  0  0  0  0  0  0  0  0
   -0.4810   17.7890  -27.1200 C   0  0  0  0  0  0  0  0  0  0  0  0
   -0.8020   21.6290  -25.9670 C   0  0  0  0  0  0  0  0  0  0  0  0
   -0.5410   22.9260  -25.2180 C   0  0  0  0  0  0  0  0  0  0  0  0
    0.0540   24.0190  -26.1260 C   0  0  0  0  0  0  0  0  0  0  0  0
    1.4220   23.5810  -26.7020 C   0  0  0  0  0  0  0  0  0  0  0  0
    0.2660   25.2580  -25.2090 C   0  0  0  0  0  0  0  0  0  0  0  0
   -1.4718   21.4845  -31.8265 H   0  0  0  0  0  0  0  0  0  0  0  0
   -1.1519   22.2859  -30.1279 H   0  0  0  0  0  0  0  0  0  0  0  0
   -3.8669   21.6410  -31.4538 H   0  0  0  0  0  0  0  0  0  0  0  0
   -4.6551   23.1254  -29.6372 H   0  0  0  0  0  0  0  0  0  0  0  0
   -3.8850   21.7871  -28.6951 H   0  0  0  0  0  0  0  0  0  0  0  0
   -1.0089   21.3506  -28.0872 H   0  0  0  0  0  0  0  0  0  0  0  0
   -1.4409   20.2195  -29.3367 H   0  0  0  0  0  0  0  0  0  0  0  0
    0.6109   19.4136  -30.5030 H   0  0  0  0  0  0  0  0  0  0  0  0
    2.5949   17.9766  -30.5464 H   0  0  0  0  0  0  0  0  0  0  0  0
    3.9916   16.1932  -29.4964 H   0  0  0  0  0  0  0  0  0  0  0  0
    3.2737   15.1358  -27.3569 H   0  0  0  0  0  0  0  0  0  0  0  0
    1.1709   15.8708  -26.2318 H   0  0  0  0  0  0  0  0  0  0  0  0
   -0.8103   17.3133  -26.1844 H   0  0  0  0  0  0  0  0  0  0  0  0
   -1.3641   20.9556  -25.3033 H   0  0  0  0  0  0  0  0  0  0  0  0
    0.1817   21.2276  -26.2519 H   0  0  0  0  0  0  0  0  0  0  0  0
   -1.4916   23.2912  -24.8020 H   0  0  0  0  0  0  0  0  0  0  0  0
    0.1910   22.7138  -24.4248 H   0  0  0  0  0  0  0  0  0  0  0  0
    2.1137   23.3595  -25.8759 H   0  0  0  0  0  0  0  0  0  0  0  0
    1.2884   22.6807  -27.3198 H   0  0  0  0  0  0  0  0  0  0  0  0
    1.8362   24.3914  -27.3198 H   0  0  0  0  0  0  0  0  0  0  0  0
    0.2129   24.9475  -24.1551 H   0  0  0  0  0  0  0  0  0  0  0  0
    1.2528   25.6997  -25.4118 H   0  0  0  0  0  0  0  0  0  0  0  0
   -0.5178   26.0027  -25.4118 H   0  0  0  0  0  0  0  0  0  0  0  0
  1  2  2  0
  2  3  1  0
  3  4  1  0
  4  5  2  0
  5  6  1  0
  5  7  1  0
  7  8  1  0
  8  9  2  0
  8 10  1  0
 10 11  2  0
 11 12  1  0
 12 13  1  0
 13 14  1  0
 14 15  2  0
 14 16  2  0
 14 17  1  0
 17 18  2  0
 18 19  1  0
 19 20  2  0
 20 21  1  0
 21 22  2  0
 22 23  1  0
 23 24  2  0
 24 25  1  0
 25 26  2  0
 12 27  1  0
 27 28  1  0
 28 29  1  0
 29 30  1  0
 29 31  1  0
 11  4  1  0
 26 17  1  0
 29 10  1  0
 25 20  1  0
  1 32  1  0
  1 33  1  0
  2 34  1  0
  3 35  1  0
  3 36  1  0
 12 37  1  6
 18 38  1  0
 19 39  1  0
 21 40  1  0
 22 41  1  0
 23 42  1  0
 24 43  1  0
 26 44  1  0
 27 45  1  0
 27 46  1  0
 28 47  1  0
 28 48  1  0
 30 49  1  0
 30 50  1  0
 30 51  1  0
 31 52  1  0
 31 53  1  0
 31 54  1  0
M  CHG  1   6  -1
M  END
>  <UniqueID>  (35) 
34

>  <SMILES>  (35) 
C=CCc1c([O-])oc(=O)c2c1[C@H](OS(=O)(=O)c1ccc3ccccc3c1)CCC2(C)C

>  <Energy>  (35) 
82.07608433962743

>  <Genealogy>  (35) 
C=CCc1c([O-])oc(=O)c2c1C(OS(=O)(=O)c1ccc3ccccc3c1)CCC2(C)C (protonated)
C=CCc1c([O-])oc(=O)c2c1[C@H](OS(=O)(=O)c1ccc3ccccc3c1)CCC2(C)C (chirality)
C=CCc1c([O-])oc(=O)c2c1[C@H](OS(=O)(=O)c1ccc3ccccc3c1)CCC2(C)C (3D coordinates assigned)
C=CCc1c([O-])oc(=O)c2c1[C@H](OS(=O)(=O)c1ccc3ccccc3c1)CCC2(C)C (nonaromatic ring conformer: 82.07608433962743 kcal/mol)

>  <smiles>  (35) 
C=CCc1c(O)oc(=O)c2c1C(OS(=O)(=O)c1ccc3ccccc3c1)CCC2(C)C

>  <score_type>  (35) 
oracle

>  <origin>  (35) 
adg

>  <m_score__min__energy>  (35) 
-11.210000000000001

>  <m_primary>  (35) 
energy

$$$$
35:0
     RDKit          3D

 64 65  0  0  0  0  0  0  0  0999 V2000
   -0.5812   19.6307  -26.5285 H   0  0  0  0  0  0  0  0  0  0  0  0
   -0.7980   20.4640  -27.2130 C   0  0  0  0  0  0  0  0  0  0  0  0
    0.2380   20.8180  -28.2000 C   0  0  0  0  0  0  0  0  0  0  0  0
    1.1150   21.6660  -27.8840 O   0  0  0  0  0  0  0  0  0  0  0  0
    0.2180   20.2650  -29.4860 O   0  0  0  0  0  0  0  0  0  0  0  0
   -0.4230   20.8800  -30.6020 C   0  0  0  0  0  0  0  0  0  0  0  0
    0.2618   20.8657  -31.4628 H   0  0  0  0  0  0  0  0  0  0  0  0
   -0.6808   21.9145  -30.3313 H   0  0  0  0  0  0  0  0  0  0  0  0
   -1.7070   20.1400  -30.9730 C   0  0  0  0  0  0  0  0  0  0  0  0
   -2.5307   20.5045  -30.3416 H   0  0  0  0  0  0  0  0  0  0  0  0
   -1.5566   19.0621  -30.8131 H   0  0  0  0  0  0  0  0  0  0  0  0
   -2.0450   20.3730  -32.4020 N   0  0  0  0  0  0  0  0  0  0  0  0
   -1.3210   21.5470  -32.9400 C   0  0  0  0  0  0  0  0  0  0  0  0
   -0.6199   21.9165  -32.1772 H   0  0  0  0  0  0  0  0  0  0  0  0
   -2.0578   22.3219  -33.1981 H   0  0  0  0  0  0  0  0  0  0  0  0
   -0.5380   21.1840  -34.2030 C   0  0  0  0  0  0  0  0  0  0  0  0
    0.4265   20.7368  -33.9206 H   0  0  0  0  0  0  0  0  0  0  0  0
   -1.1165   20.4622  -34.7983 H   0  0  0  0  0  0  0  0  0  0  0  0
   -0.3610   22.0919  -34.7983 H   0  0  0  0  0  0  0  0  0  0  0  0
   -3.5070   20.4950  -32.6020 C   0  0  0  0  0  0  0  0  0  0  0  0
   -3.8313   19.7684  -33.3615 H   0  0  0  0  0  0  0  0  0  0  0  0
   -4.0167   20.2954  -31.6479 H   0  0  0  0  0  0  0  0  0  0  0  0
   -3.8620   21.9060  -33.0700 C   0  0  0  0  0  0  0  0  0  0  0  0
   -4.0246   22.5525  -32.1950 H   0  0  0  0  0  0  0  0  0  0  0  0
   -3.0374   22.3097  -33.6759 H   0  0  0  0  0  0  0  0  0  0  0  0
   -4.7794   21.8714  -33.6759 H   0  0  0  0  0  0  0  0  0  0  0  0
   -1.9840   21.0770  -27.0830 C   0  0  0  0  0  0  0  0  0  0  0  0
   -2.6166   20.7787  -26.2340 H   0  0  0  0  0  0  0  0  0  0  0  0
   -2.5100   22.1210  -27.9880 C   0  0  0  0  0  0  0  0  0  0  0  0
   -3.5450   21.8010  -28.8750 C   0  0  0  0  0  0  0  0  0  0  0  0
   -3.9749   20.7885  -28.8707 H   0  0  0  0  0  0  0  0  0  0  0  0
   -4.0350   22.7590  -29.7650 C   0  0  0  0  0  0  0  0  0  0  0  0
   -4.8622   22.5018  -30.4430 H   0  0  0  0  0  0  0  0  0  0  0  0
   -3.4780   24.0520  -29.8010 C   0  0  0  0  0  0  0  0  0  0  0  0
   -3.9360   25.0490  -30.6780 O   0  0  0  0  0  0  0  0  0  0  0  0
   -5.2180   25.6820  -30.6430 C   0  0  0  0  0  0  0  0  0  0  0  0
   -5.2471   26.3878  -29.7998 H   0  0  0  0  0  0  0  0  0  0  0  0
   -5.3725   26.2102  -31.5954 H   0  0  0  0  0  0  0  0  0  0  0  0
   -6.3410   24.6490  -30.4710 C   0  0  0  0  0  0  0  0  0  0  0  0
   -6.0974   24.0185  -29.6032 H   0  0  0  0  0  0  0  0  0  0  0  0
   -7.2726   25.2194  -30.3414 H   0  0  0  0  0  0  0  0  0  0  0  0
   -6.5570   23.7300  -31.6870 C   0  0  0  0  0  0  0  0  0  0  0  0
   -6.2742   24.2845  -32.5940 H   0  0  0  0  0  0  0  0  0  0  0  0
   -5.9355   22.8370  -31.5249 H   0  0  0  0  0  0  0  0  0  0  0  0
   -8.0040   23.2400  -31.8520 C   0  0  0  0  0  0  0  0  0  0  0  0
   -8.5760   23.5019  -30.9496 H   0  0  0  0  0  0  0  0  0  0  0  0
   -8.4352   23.7243  -32.7405 H   0  0  0  0  0  0  0  0  0  0  0  0
   -8.0560   21.7930  -32.0450 N   0  0  0  0  0  0  0  0  0  0  0  0
   -7.0290   21.0000  -32.4060 C   0  0  0  0  0  0  0  0  0  0  0  0
   -5.9991   21.3406  -32.5885 H   0  0  0  0  0  0  0  0  0  0  0  0
   -7.4650   19.6960  -32.5120 C   0  0  0  0  0  0  0  0  0  0  0  0
   -6.8583   18.8210  -32.7881 H   0  0  0  0  0  0  0  0  0  0  0  0
   -8.8120   19.7020  -32.2040 C   0  0  0  0  0  0  0  0  0  0  0  0
   -9.4864   18.8331  -32.1869 H   0  0  0  0  0  0  0  0  0  0  0  0
   -9.1460   21.0110  -31.9220 C   0  0  0  0  0  0  0  0  0  0  0  0
  -10.1495   21.3623  -31.6398 H   0  0  0  0  0  0  0  0  0  0  0  0
   -2.4310   24.3760  -28.9240 C   0  0  0  0  0  0  0  0  0  0  0  0
   -1.9060   25.6770  -28.9680 O   0  0  0  0  0  0  0  0  0  0  0  0
   -0.9710   26.2010  -28.0300 C   0  0  0  0  0  0  0  0  0  0  0  0
   -1.3261   26.0020  -27.0081 H   0  0  0  0  0  0  0  0  0  0  0  0
    0.0067   25.7194  -28.1787 H   0  0  0  0  0  0  0  0  0  0  0  0
   -0.8715   27.2863  -28.1787 H   0  0  0  0  0  0  0  0  0  0  0  0
   -1.9340   23.4010  -28.0390 C   0  0  0  0  0  0  0  0  0  0  0  0
   -1.0865   23.6437  -27.3811 H   0  0  0  0  0  0  0  0  0  0  0  0
  1  2  1  0
  2  3  1  0
  3  4  2  0
  3  5  1  0
  5  6  1  0
  6  7  1  0
  6  8  1  0
  6  9  1  0
  9 10  1  0
  9 11  1  0
  9 12  1  0
 12 13  1  0
 13 14  1  0
 13 15  1  0
 13 16  1  0
 16 17  1  0
 16 18  1  0
 16 19  1  0
 12 20  1  0
 20 21  1  0
 20 22  1  0
 20 23  1  0
 23 24  1  0
 23 25  1  0
 23 26  1  0
  2 27  2  0
 27 28  1  0
 27 29  1  0
 29 30  2  0
 30 31  1  0
 30 32  1  0
 32 33  1  0
 32 34  2  0
 34 35  1  0
 35 36  1  0
 36 37  1  0
 36 38  1  0
 36 39  1  0
 39 40  1  0
 39 41  1  0
 39 42  1  0
 42 43  1  0
 42 44  1  0
 42 45  1  0
 45 46  1  0
 45 47  1  0
 45 48  1  0
 48 49  1  0
 49 50  1  0
 49 51  2  0
 51 52  1  0
 51 53  1  0
 53 54  1  0
 53 55  2  0
 55 56  1  0
 34 57  1  0
 57 58  1  0
 58 59  1  0
 59 60  1  0
 59 61  1  0
 59 62  1  0
 57 63  2  0
 63 64  1  0
 63 29  1  0
 55 48  1  0
M  END
>  <UniqueID>  (36) 
35

>  <SMILES>  (36) 
CCN(CC)CCOC(=O)/C=C\c1ccc(OCCCCn2cccc2)c(OC)c1

>  <Energy>  (36) 
87.90925571485

>  <Genealogy>  (36) 
CCN(CC)CCOC(=O)/C=C\c1ccc(OCCCCn2cccc2)c(OC)c1 (cis-trans isomerization)
CCN(CC)CCOC(=O)/C=C\c1ccc(OCCCCn2cccc2)c(OC)c1 (3D coordinates assigned)
CCN(CC)CCOC(=O)/C=C\c1ccc(OCCCCn2cccc2)c(OC)c1 (optimized conformer: 87.90925571485 kcal/mol)

>  <smiles>  (36) 
CCN(CC)CCOC(=O)C=Cc1ccc(OCCCCn2cccc2)c(OC)c1

>  <score_type>  (36) 
oracle

>  <origin>  (36) 
adg

>  <m_score__min__energy>  (36) 
-8.0899999999999999

>  <m_primary>  (36) 
energy

$$$$
36:0
     RDKit          3D

 44 46  0  0  0  0  0  0  0  0999 V2000
   -1.8150   20.7910  -33.6810 C   0  0  0  0  0  0  0  0  0  0  0  0
   -2.1950   21.3380  -32.2980 C   0  0  0  0  0  0  0  0  0  0  0  0
   -3.5530   20.9460  -31.8540 N   0  0  0  0  0  0  0  0  0  0  0  0
   -3.8080   21.3000  -30.4370 C   0  0  0  0  0  0  0  0  0  0  0  0
   -4.3310   22.7100  -30.3170 C   0  0  0  0  0  0  0  0  0  0  0  0
   -5.6450   22.9570  -29.8920 C   0  0  0  0  0  0  0  0  0  0  0  0
   -6.1190   24.2670  -29.8110 C   0  0  0  0  0  0  0  0  0  0  0  0
   -5.2650   25.3240  -30.1300 C   0  0  0  0  0  0  0  0  0  0  0  0
   -3.9820   25.0730  -30.5040 N   0  0  0  0  0  0  0  0  0  0  0  0
   -3.4980   23.8050  -30.5930 C   0  0  0  0  0  0  0  0  0  0  0  0
   -4.6070   21.4300  -32.7770 C   0  0  0  0  0  0  0  0  0  0  0  0
   -5.7890   20.4790  -32.7790 C   0  0  0  0  0  0  0  0  0  0  0  0
   -5.5010   19.1210  -33.0070 C   0  0  0  0  0  0  0  0  0  0  0  0
   -6.5000   18.1450  -32.9500 C   0  0  0  0  0  0  0  0  0  0  0  0
   -6.1640   16.7070  -33.2150 C   0  0  0  0  0  0  0  0  0  0  0  0
   -7.8200   18.5240  -32.6970 C   0  0  0  0  0  0  0  0  0  0  0  0
   -8.1450   19.8660  -32.4660 C   0  0  0  0  0  0  0  0  0  0  0  0
   -9.4750   20.2160  -32.1860 C   0  0  0  0  0  0  0  0  0  0  0  0
   -9.8170   21.5430  -31.9340 C   0  0  0  0  0  0  0  0  0  0  0  0
   -8.8390   22.5320  -31.9590 C   0  0  0  0  0  0  0  0  0  0  0  0
   -7.5090   22.2050  -32.2390 C   0  0  0  0  0  0  0  0  0  0  0  0
   -7.1330   20.8660  -32.5020 C   0  0  0  0  0  0  0  0  0  0  0  0
   -1.1911   19.8930  -33.5614 H   0  0  0  0  0  0  0  0  0  0  0  0
   -2.7284   20.5316  -34.2363 H   0  0  0  0  0  0  0  0  0  0  0  0
   -1.2532   21.5565  -34.2363 H   0  0  0  0  0  0  0  0  0  0  0  0
   -1.4676   20.9613  -31.5639 H   0  0  0  0  0  0  0  0  0  0  0  0
   -2.1862   22.4354  -32.3733 H   0  0  0  0  0  0  0  0  0  0  0  0
   -4.5512   20.6041  -30.0206 H   0  0  0  0  0  0  0  0  0  0  0  0
   -2.8606   21.2296  -29.8825 H   0  0  0  0  0  0  0  0  0  0  0  0
   -6.3023   22.1172  -29.6224 H   0  0  0  0  0  0  0  0  0  0  0  0
   -7.1551   24.4646  -29.4989 H   0  0  0  0  0  0  0  0  0  0  0  0
   -5.6300   26.3604  -30.0788 H   0  0  0  0  0  0  0  0  0  0  0  0
   -2.4501   23.6373  -30.8823 H   0  0  0  0  0  0  0  0  0  0  0  0
   -4.9438   22.4254  -32.4518 H   0  0  0  0  0  0  0  0  0  0  0  0
   -4.1919   21.4838  -33.7942 H   0  0  0  0  0  0  0  0  0  0  0  0
   -4.4676   18.8208  -33.2350 H   0  0  0  0  0  0  0  0  0  0  0  0
   -6.0402   16.1772  -32.2590 H   0  0  0  0  0  0  0  0  0  0  0  0
   -6.9773   16.2404  -33.7902 H   0  0  0  0  0  0  0  0  0  0  0  0
   -5.2281   16.6491  -33.7902 H   0  0  0  0  0  0  0  0  0  0  0  0
   -8.6120   17.7608  -32.6790 H   0  0  0  0  0  0  0  0  0  0  0  0
  -10.2522   19.4379  -32.1654 H   0  0  0  0  0  0  0  0  0  0  0  0
  -10.8617   21.8089  -31.7150 H   0  0  0  0  0  0  0  0  0  0  0  0
   -9.1139   23.5778  -31.7572 H   0  0  0  0  0  0  0  0  0  0  0  0
   -6.7460   22.9972  -32.2551 H   0  0  0  0  0  0  0  0  0  0  0  0
  1  2  1  0
  2  3  1  0
  3  4  1  0
  4  5  1  0
  5  6  2  0
  6  7  1  0
  7  8  2  0
  8  9  1  0
  9 10  2  0
  3 11  1  0
 11 12  1  0
 12 13  2  0
 13 14  1  0
 14 15  1  0
 14 16  2  0
 16 17  1  0
 17 18  2  0
 18 19  1  0
 19 20  2  0
 20 21  1  0
 21 22  2  0
 10  5  1  0
 22 12  1  0
 22 17  1  0
  1 23  1  0
  1 24  1  0
  1 25  1  0
  2 26  1  0
  2 27  1  0
  4 28  1  0
  4 29  1  0
  6 30  1  0
  7 31  1  0
  8 32  1  0
 10 33  1  0
 11 34  1  0
 11 35  1  0
 13 36  1  0
 15 37  1  0
 15 38  1  0
 15 39  1  0
 16 40  1  0
 18 41  1  0
 19 42  1  0
 20 43  1  0
 21 44  1  0
M  END
>  <UniqueID>  (37) 
36

>  <SMILES>  (37) 
CCN(Cc1cccnc1)Cc1cc(C)cc2ccccc12

>  <Energy>  (37) 
52.17199522052404

>  <Genealogy>  (37) 
CCN(Cc1cccnc1)Cc1cc(C)cc2ccccc12 (3D coordinates assigned)
CCN(Cc1cccnc1)Cc1cc(C)cc2ccccc12 (optimized conformer: 52.17199522052404 kcal/mol)

>  <smiles>  (37) 
CCN(Cc1cccnc1)Cc1cc(C)cc2ccccc12

>  <score_type>  (37) 
oracle

>  <origin>  (37) 
adg

>  <m_score__min__energy>  (37) 
-8.9100000000000001

>  <m_primary>  (37) 
energy

$$$$
37:0
     RDKit          3D

 45 46  0  0  0  0  0  0  0  0999 V2000
   -6.8940   17.9050  -31.5910 C   0  0  0  0  0  0  0  0  0  0  0  0
   -7.2460   18.3220  -33.0270 C   0  0  0  0  0  0  0  0  0  0  0  0
   -7.7720   19.7130  -33.0910 N   0  0  0  0  0  0  0  0  0  0  0  0
   -9.0240   19.8410  -32.2830 C   0  0  0  0  0  0  0  0  0  0  0  0
   -9.1110   21.2050  -31.5900 C   0  0  0  0  0  0  0  0  0  0  0  0
   -6.7510   20.6840  -32.6120 C   0  0  0  0  0  0  0  0  0  0  0  0
   -5.3830   20.5130  -33.3050 C   0  0  0  0  0  0  0  0  0  0  0  0
   -4.3050   20.7170  -32.3360 N   0  0  0  0  0  0  0  0  0  0  0  0
   -3.3130   19.8370  -32.0500 C   0  0  0  0  0  0  0  0  0  0  0  0
   -2.4110   20.3980  -31.1530 C   0  0  0  0  0  0  0  0  0  0  0  0
   -2.8820   21.6710  -30.9080 C   0  0  0  0  0  0  0  0  0  0  0  0
   -2.3550   22.6860  -30.1180 C   0  0  0  0  0  0  0  0  0  0  0  0
   -3.0290   23.9320  -30.0930 C   0  0  0  0  0  0  0  0  0  0  0  0
   -2.5400   25.0260  -29.3560 O   0  0  0  0  0  0  0  0  0  0  0  0
   -1.9850   24.9300  -28.0480 C   0  0  0  0  0  0  0  0  0  0  0  0
   -4.2230   24.1080  -30.8390 C   0  0  0  0  0  0  0  0  0  0  0  0
   -4.8660   25.3560  -30.7780 O   0  0  0  0  0  0  0  0  0  0  0  0
   -6.0070   25.6390  -29.9760 C   0  0  0  0  0  0  0  0  0  0  0  0
   -4.7310   23.0440  -31.6260 C   0  0  0  0  0  0  0  0  0  0  0  0
   -4.0270   21.8390  -31.6380 C   0  0  0  0  0  0  0  0  0  0  0  0
   -7.4353   18.5463  -30.8798 H   0  0  0  0  0  0  0  0  0  0  0  0
   -7.1836   16.8557  -31.4324 H   0  0  0  0  0  0  0  0  0  0  0  0
   -5.8110   18.0144  -31.4324 H   0  0  0  0  0  0  0  0  0  0  0  0
   -6.3405   18.2559  -33.6480 H   0  0  0  0  0  0  0  0  0  0  0  0
   -8.0311   17.6448  -33.3945 H   0  0  0  0  0  0  0  0  0  0  0  0
   -7.9710   19.9350  -34.0990 H   0  0  0  0  0  0  0  0  0  0  0  0
   -9.8919   19.7226  -32.9483 H   0  0  0  0  0  0  0  0  0  0  0  0
   -9.0143   19.0610  -31.5074 H   0  0  0  0  0  0  0  0  0  0  0  0
   -9.1020   21.0633  -30.4992 H   0  0  0  0  0  0  0  0  0  0  0  0
   -8.2504   21.8226  -31.8867 H   0  0  0  0  0  0  0  0  0  0  0  0
  -10.0431   21.7082  -31.8867 H   0  0  0  0  0  0  0  0  0  0  0  0
   -7.1176   21.7026  -32.8070 H   0  0  0  0  0  0  0  0  0  0  0  0
   -6.6006   20.4997  -31.5380 H   0  0  0  0  0  0  0  0  0  0  0  0
   -5.3103   19.4982  -33.7233 H   0  0  0  0  0  0  0  0  0  0  0  0
   -5.2903   21.2551  -34.1117 H   0  0  0  0  0  0  0  0  0  0  0  0
   -3.2335   18.8229  -32.4686 H   0  0  0  0  0  0  0  0  0  0  0  0
   -1.5123   19.9266  -30.7287 H   0  0  0  0  0  0  0  0  0  0  0  0
   -1.4401   22.5263  -29.5286 H   0  0  0  0  0  0  0  0  0  0  0  0
   -2.7807   25.0676  -27.3011 H   0  0  0  0  0  0  0  0  0  0  0  0
   -1.5259   23.9391  -27.9163 H   0  0  0  0  0  0  0  0  0  0  0  0
   -1.2197   25.7091  -27.9163 H   0  0  0  0  0  0  0  0  0  0  0  0
   -5.7337   25.5712  -28.9126 H   0  0  0  0  0  0  0  0  0  0  0  0
   -6.3684   26.6540  -30.1977 H   0  0  0  0  0  0  0  0  0  0  0  0
   -6.8008   24.9105  -30.1977 H   0  0  0  0  0  0  0  0  0  0  0  0
   -5.6546   23.1648  -32.2111 H   0  0  0  0  0  0  0  0  0  0  0  0
  1  2  1  0
  2  3  1  0
  3  4  1  0
  4  5  1  0
  3  6  1  0
  6  7  1  0
  7  8  1  0
  8  9  1  0
  9 10  2  0
 10 11  1  0
 11 12  2  0
 12 13  1  0
 13 14  1  0
 14 15  1  0
 13 16  2  0
 16 17  1  0
 17 18  1  0
 16 19  1  0
 19 20  2  0
 20  8  1  0
 20 11  1  0
  1 21  1  0
  1 22  1  0
  1 23  1  0
  2 24  1  0
  2 25  1  0
  3 26  1  0
  4 27  1  0
  4 28  1  0
  5 29  1  0
  5 30  1  0
  5 31  1  0
  6 32  1  0
  6 33  1  0
  7 34  1  0
  7 35  1  0
  9 36  1  0
 10 37  1  0
 12 38  1  0
 15 39  1  0
 15 40  1  0
 15 41  1  0
 18 42  1  0
 18 43  1  0
 18 44  1  0
 19 45  1  0
M  CHG  1   3   1
M  END
>  <UniqueID>  (38) 
37

>  <SMILES>  (38) 
CC[NH+](CC)CCn1ccc2cc(OC)c(OC)cc21

>  <Energy>  (38) 
77.87795337314094

>  <Genealogy>  (38) 
CC[NH+](CC)CCn1ccc2cc(OC)c(OC)cc21 (protonated)
CC[NH+](CC)CCn1ccc2cc(OC)c(OC)cc21 (3D coordinates assigned)
CC[NH+](CC)CCn1ccc2cc(OC)c(OC)cc21 (optimized conformer: 77.87795337314094 kcal/mol)

>  <smiles>  (38) 
CCN(CC)CCn1ccc2cc(OC)c(OC)cc21

>  <score_type>  (38) 
oracle

>  <origin>  (38) 
adg

>  <m_score__min__energy>  (38) 
-6.3700000000000001

>  <m_primary>  (38) 
energy

$$$$
38:0
     RDKit          3D

 44 46  0  0  0  0  0  0  0  0999 V2000
   -8.3770   18.2140  -31.6920 C   0  0  0  0  0  0  0  0  0  0  0  0
   -9.0750   18.8970  -32.7080 O   0  0  0  0  0  0  0  0  0  0  0  0
   -8.6490   20.2430  -32.7450 C   0  0  0  0  0  0  0  0  0  0  0  0
   -7.8040   20.5440  -31.5090 C   0  0  0  0  0  0  0  0  0  0  0  0
   -6.5580   21.2180  -31.8850 N   0  0  0  0  0  0  0  0  0  0  0  0
   -6.2800   22.5490  -31.8350 C   0  0  0  0  0  0  0  0  0  0  0  0
   -7.4030   23.7990  -31.2050 S   0  0  0  0  0  0  0  0  0  0  0  0
   -6.2150   24.3940  -29.9590 C   0  0  0  0  0  0  0  0  0  0  0  0
   -5.3400   25.4920  -30.5590 C   0  0  0  0  0  0  0  0  0  0  0  0
   -3.9970   25.0350  -30.7140 O   0  0  0  0  0  0  0  0  0  0  0  0
   -3.3630   24.0720  -29.9110 C   0  0  0  0  0  0  0  0  0  0  0  0
   -2.6150   23.0030  -30.4450 C   0  0  0  0  0  0  0  0  0  0  0  0
   -2.0070   22.0750  -29.5930 C   0  0  0  0  0  0  0  0  0  0  0  0
   -2.1360   22.2040  -28.2080 C   0  0  0  0  0  0  0  0  0  0  0  0
   -2.8720   23.2630  -27.6720 C   0  0  0  0  0  0  0  0  0  0  0  0
   -3.4810   24.1930  -28.5190 C   0  0  0  0  0  0  0  0  0  0  0  0
   -5.0510   22.8470  -32.3230 N   0  0  0  0  0  0  0  0  0  0  0  0
   -4.5500   21.6580  -32.7000 C   0  0  0  0  0  0  0  0  0  0  0  0
   -3.3140   21.3920  -33.2850 C   0  0  0  0  0  0  0  0  0  0  0  0
   -3.0220   20.0540  -33.6100 C   0  0  0  0  0  0  0  0  0  0  0  0
   -3.9620   19.0320  -33.3490 C   0  0  0  0  0  0  0  0  0  0  0  0
   -5.2030   19.3360  -32.7570 C   0  0  0  0  0  0  0  0  0  0  0  0
   -5.4590   20.6710  -32.4420 C   0  0  0  0  0  0  0  0  0  0  0  0
   -8.7298   18.5592  -30.7090 H   0  0  0  0  0  0  0  0  0  0  0  0
   -8.5563   17.1329  -31.7870 H   0  0  0  0  0  0  0  0  0  0  0  0
   -7.3000   18.4168  -31.7870 H   0  0  0  0  0  0  0  0  0  0  0  0
   -8.0477   20.4125  -33.6504 H   0  0  0  0  0  0  0  0  0  0  0  0
   -9.5273   20.9052  -32.7587 H   0  0  0  0  0  0  0  0  0  0  0  0
   -8.3756   21.1941  -30.8303 H   0  0  0  0  0  0  0  0  0  0  0  0
   -7.5564   19.5954  -31.0102 H   0  0  0  0  0  0  0  0  0  0  0  0
   -6.7636   24.7962  -29.0946 H   0  0  0  0  0  0  0  0  0  0  0  0
   -5.5772   23.5573  -29.6377 H   0  0  0  0  0  0  0  0  0  0  0  0
   -5.7409   25.7766  -31.5430 H   0  0  0  0  0  0  0  0  0  0  0  0
   -5.3439   26.3587  -29.8816 H   0  0  0  0  0  0  0  0  0  0  0  0
   -2.5092   22.8983  -31.5349 H   0  0  0  0  0  0  0  0  0  0  0  0
   -1.4259   21.2416  -30.0146 H   0  0  0  0  0  0  0  0  0  0  0  0
   -1.6583   21.4721  -27.5401 H   0  0  0  0  0  0  0  0  0  0  0  0
   -2.9725   23.3653  -26.5814 H   0  0  0  0  0  0  0  0  0  0  0  0
   -4.0573   25.0262  -28.0904 H   0  0  0  0  0  0  0  0  0  0  0  0
   -4.6020   23.7860  -32.3980 H   0  0  0  0  0  0  0  0  0  0  0  0
   -2.5928   22.1980  -33.4856 H   0  0  0  0  0  0  0  0  0  0  0  0
   -2.0552   19.8023  -34.0704 H   0  0  0  0  0  0  0  0  0  0  0  0
   -3.7226   17.9907  -33.6103 H   0  0  0  0  0  0  0  0  0  0  0  0
   -5.9438   18.5495  -32.5504 H   0  0  0  0  0  0  0  0  0  0  0  0
  1  2  1  0
  2  3  1  0
  3  4  1  0
  4  5  1  0
  5  6  1  0
  6  7  1  0
  7  8  1  0
  8  9  1  0
  9 10  1  0
 10 11  1  0
 11 12  2  0
 12 13  1  0
 13 14  2  0
 14 15  1  0
 15 16  2  0
  6 17  2  0
 17 18  1  0
 18 19  2  0
 19 20  1  0
 20 21  2  0
 21 22  1  0
 22 23  2  0
 23  5  1  0
 16 11  1  0
 23 18  1  0
  1 24  1  0
  1 25  1  0
  1 26  1  0
  3 27  1  0
  3 28  1  0
  4 29  1  0
  4 30  1  0
  8 31  1  0
  8 32  1  0
  9 33  1  0
  9 34  1  0
 12 35  1  0
 13 36  1  0
 14 37  1  0
 15 38  1  0
 16 39  1  0
 17 40  1  0
 19 41  1  0
 20 42  1  0
 21 43  1  0
 22 44  1  0
M  CHG  1  17   1
M  END
>  <UniqueID>  (39) 
38

>  <SMILES>  (39) 
COCCn1c(SCCOc2ccccc2)[nH+]c2ccccc21

>  <Energy>  (39) 
76.47142262903827

>  <Genealogy>  (39) 
COCCn1c(SCCOc2ccccc2)[nH+]c2ccccc21 (protonated)
COCCn1c(SCCOc2ccccc2)[nH+]c2ccccc21 (3D coordinates assigned)
COCCn1c(SCCOc2ccccc2)[nH+]c2ccccc21 (optimized conformer: 76.47142262903827 kcal/mol)

>  <smiles>  (39) 
COCCn1c(SCCOc2ccccc2)nc2ccccc21

>  <score_type>  (39) 
oracle

>  <origin>  (39) 
adg

>  <m_score__min__energy>  (39) 
-7.1600000000000001

>  <m_primary>  (39) 
energy

$$$$
39:0
     RDKit          3D

 39 42  0  0  0  0  0  0  0  0999 V2000
   -3.5580   25.2950  -30.3700 O   0  0  0  0  0  0  0  0  0  0  0  0
   -4.2750   24.2930  -29.7040 C   0  0  0  0  0  0  0  0  0  0  0  0
   -5.2820   23.6740  -30.6330 C   0  0  0  0  0  0  0  0  0  0  0  0
   -6.4750   24.3450  -30.9360 C   0  0  0  0  0  0  0  0  0  0  0  0
   -7.4190   23.7550  -31.7810 C   0  0  0  0  0  0  0  0  0  0  0  0
   -7.1880   22.4820  -32.3100 C   0  0  0  0  0  0  0  0  0  0  0  0
   -6.0160   21.7810  -31.9870 C   0  0  0  0  0  0  0  0  0  0  0  0
   -5.7960   20.4270  -32.5400 C   0  0  0  0  0  0  0  0  0  0  0  0
   -6.8120   19.5680  -32.7980 N   0  0  0  0  0  0  0  0  0  0  0  0
   -6.1920   18.4810  -33.2990 C   0  0  0  0  0  0  0  0  0  0  0  0
   -6.8220   17.3030  -33.6990 C   0  0  0  0  0  0  0  0  0  0  0  0
   -6.0120   16.2520  -34.1570 C   0  0  0  0  0  0  0  0  0  0  0  0
   -4.6130   16.3990  -34.1940 C   0  0  0  0  0  0  0  0  0  0  0  0
   -4.0330   17.6050  -33.7780 C   0  0  0  0  0  0  0  0  0  0  0  0
   -4.8550   18.6070  -33.3630 N   0  0  0  0  0  0  0  0  0  0  0  0
   -4.5800   19.8360  -32.8880 C   0  0  0  0  0  0  0  0  0  0  0  0
   -3.2240   20.3860  -32.6720 C   0  0  0  0  0  0  0  0  0  0  0  0
   -2.5770   20.2060  -31.4410 C   0  0  0  0  0  0  0  0  0  0  0  0
   -1.2830   20.6990  -31.2660 C   0  0  0  0  0  0  0  0  0  0  0  0
   -0.6460   21.3610  -32.3150 C   0  0  0  0  0  0  0  0  0  0  0  0
   -1.3140   21.5200  -33.5290 C   0  0  0  0  0  0  0  0  0  0  0  0
   -2.5770   21.0370  -33.6850 N   0  0  0  0  0  0  0  0  0  0  0  0
   -5.0580   22.3930  -31.1590 C   0  0  0  0  0  0  0  0  0  0  0  0
   -3.4480   26.0430  -29.7250 H   0  0  0  0  0  0  0  0  0  0  0  0
   -3.5775   23.5175  -29.3546 H   0  0  0  0  0  0  0  0  0  0  0  0
   -4.8016   24.7367  -28.8462 H   0  0  0  0  0  0  0  0  0  0  0  0
   -6.6688   25.3393  -30.5072 H   0  0  0  0  0  0  0  0  0  0  0  0
   -8.3453   24.2933  -32.0302 H   0  0  0  0  0  0  0  0  0  0  0  0
   -7.9292   22.0270  -32.9835 H   0  0  0  0  0  0  0  0  0  0  0  0
   -7.9164   17.2008  -33.6571 H   0  0  0  0  0  0  0  0  0  0  0  0
   -6.4727   15.3097  -34.4883 H   0  0  0  0  0  0  0  0  0  0  0  0
   -3.9787   15.5726  -34.5472 H   0  0  0  0  0  0  0  0  0  0  0  0
   -2.9411   17.7383  -33.7867 H   0  0  0  0  0  0  0  0  0  0  0  0
   -3.0855   19.6802  -30.6194 H   0  0  0  0  0  0  0  0  0  0  0  0
   -0.7673   20.5657  -30.3036 H   0  0  0  0  0  0  0  0  0  0  0  0
    0.3733   21.7540  -32.1863 H   0  0  0  0  0  0  0  0  0  0  0  0
   -0.8183   22.0376  -34.3635 H   0  0  0  0  0  0  0  0  0  0  0  0
   -3.0550   21.1760  -34.6040 H   0  0  0  0  0  0  0  0  0  0  0  0
   -4.1243   21.8622  -30.9216 H   0  0  0  0  0  0  0  0  0  0  0  0
  1  2  1  0
  2  3  1  0
  3  4  2  0
  4  5  1  0
  5  6  2  0
  6  7  1  0
  7  8  1  0
  8  9  1  0
  9 10  2  0
 10 11  1  0
 11 12  2  0
 12 13  1  0
 13 14  2  0
 14 15  1  0
 15 16  1  0
 16 17  1  0
 17 18  2  0
 18 19  1  0
 19 20  2  0
 20 21  1  0
 21 22  2  0
  7 23  2  0
 23  3  1  0
 16  8  2  0
 22 17  1  0
 15 10  1  0
  1 24  1  0
  2 25  1  0
  2 26  1  0
  4 27  1  0
  5 28  1  0
  6 29  1  0
 11 30  1  0
 12 31  1  0
 13 32  1  0
 14 33  1  0
 18 34  1  0
 19 35  1  0
 20 36  1  0
 21 37  1  0
 22 38  1  0
 23 39  1  0
M  CHG  1  22   1
M  END
>  <UniqueID>  (40) 
39

>  <SMILES>  (40) 
OCc1cccc(-c2nc3ccccn3c2-c2cccc[nH+]2)c1

>  <Energy>  (40) 
86.43605550150667

>  <Genealogy>  (40) 
OCc1cccc(-c2nc3ccccn3c2-c2cccc[nH+]2)c1 (protonated)
OCc1cccc(-c2nc3ccccn3c2-c2cccc[nH+]2)c1 (3D coordinates assigned)
OCc1cccc(-c2nc3ccccn3c2-c2cccc[nH+]2)c1 (optimized conformer: 86.43605550150667 kcal/mol)

>  <smiles>  (40) 
OCc1cccc(-c2nc3ccccn3c2-c2ccccn2)c1

>  <score_type>  (40) 
oracle

>  <origin>  (40) 
adg

>  <m_score__min__energy>  (40) 
-8.3800000000000008

>  <m_primary>  (40) 
energy

$$$$
40:0
     RDKit          3D

 31 32  0  0  0  0  0  0  0  0999 V2000
   -8.0320   23.0490  -32.1750 O   0  0  0  0  0  0  0  0  0  0  0  0
   -6.9980   22.5820  -31.6260 C   0  0  0  0  0  0  0  0  0  0  0  0
   -6.9440   21.1050  -31.3480 C   0  0  0  0  0  0  0  0  0  0  0  0
   -8.1280   20.1850  -32.3950 S   0  0  0  0  0  0  0  0  0  0  0  0
   -6.9500   18.9290  -32.9030 C   0  0  0  0  0  0  0  0  0  0  0  0
   -6.4740   18.0020  -31.9690 C   0  0  0  0  0  0  0  0  0  0  0  0
   -5.5640   17.0260  -32.3760 C   0  0  0  0  0  0  0  0  0  0  0  0
   -5.1340   16.9900  -33.7030 C   0  0  0  0  0  0  0  0  0  0  0  0
   -5.6230   17.9370  -34.6060 C   0  0  0  0  0  0  0  0  0  0  0  0
   -6.5130   18.8820  -34.1930 N   0  0  0  0  0  0  0  0  0  0  0  0
   -5.9250   23.4690  -31.2440 N   0  0  0  0  0  0  0  0  0  0  0  0
   -6.1720   24.9150  -31.2060 C   0  0  0  0  0  0  0  0  0  0  0  0
   -5.2180   25.5840  -30.2120 C   0  0  0  0  0  0  0  0  0  0  0  0
   -3.8770   25.2260  -30.4850 O   0  0  0  0  0  0  0  0  0  0  0  0
   -3.7030   23.8400  -30.2620 C   0  0  0  0  0  0  0  0  0  0  0  0
   -4.5280   23.0190  -31.2590 C   0  0  0  0  0  0  0  0  0  0  0  0
   -5.9268   20.7394  -31.5520 H   0  0  0  0  0  0  0  0  0  0  0  0
   -7.2138   20.9411  -30.2943 H   0  0  0  0  0  0  0  0  0  0  0  0
   -6.8142   18.0425  -30.9237 H   0  0  0  0  0  0  0  0  0  0  0  0
   -5.1868   16.2874  -31.6534 H   0  0  0  0  0  0  0  0  0  0  0  0
   -4.4175   16.2240  -34.0345 H   0  0  0  0  0  0  0  0  0  0  0  0
   -5.2884   17.9196  -35.6537 H   0  0  0  0  0  0  0  0  0  0  0  0
   -6.8680   19.5790  -34.8840 H   0  0  0  0  0  0  0  0  0  0  0  0
   -6.0096   25.3386  -32.2081 H   0  0  0  0  0  0  0  0  0  0  0  0
   -7.2094   25.0956  -30.8879 H   0  0  0  0  0  0  0  0  0  0  0  0
   -5.3229   26.6762  -30.2905 H   0  0  0  0  0  0  0  0  0  0  0  0
   -5.4734   25.2471  -29.1965 H   0  0  0  0  0  0  0  0  0  0  0  0
   -2.6391   23.5868  -30.3800 H   0  0  0  0  0  0  0  0  0  0  0  0
   -4.0433   23.6020  -29.2434 H   0  0  0  0  0  0  0  0  0  0  0  0
   -4.1138   23.1498  -32.2696 H   0  0  0  0  0  0  0  0  0  0  0  0
   -4.4872   21.9573  -30.9741 H   0  0  0  0  0  0  0  0  0  0  0  0
  1  2  2  0
  2  3  1  0
  3  4  1  0
  4  5  1  0
  5  6  2  0
  6  7  1  0
  7  8  2  0
  8  9  1  0
  9 10  2  0
  2 11  1  0
 11 12  1  0
 12 13  1  0
 13 14  1  0
 14 15  1  0
 15 16  1  0
 10  5  1  0
 16 11  1  0
  3 17  1  0
  3 18  1  0
  6 19  1  0
  7 20  1  0
  8 21  1  0
  9 22  1  0
 10 23  1  0
 12 24  1  0
 12 25  1  0
 13 26  1  0
 13 27  1  0
 15 28  1  0
 15 29  1  0
 16 30  1  0
 16 31  1  0
M  CHG  1  10   1
M  END
>  <UniqueID>  (41) 
40

>  <SMILES>  (41) 
O=C(CSc1cccc[nH+]1)N1CCOCC1

>  <Energy>  (41) 
27.25154600777031

>  <Genealogy>  (41) 
O=C(CSc1cccc[nH+]1)N1CCOCC1 (protonated)
O=C(CSc1cccc[nH+]1)N1CCOCC1 (3D coordinates assigned)
O=C(CSc1cccc[nH+]1)N1CCOCC1 (nonaromatic ring conformer: 27.25154600777031 kcal/mol)

>  <smiles>  (41) 
O=C(CSc1ccccn1)N1CCOCC1

>  <score_type>  (41) 
oracle

>  <origin>  (41) 
adg

>  <m_score__min__energy>  (41) 
-6.6100000000000003

>  <m_primary>  (41) 
energy

$$$$
41:0
     RDKit          3D

 52 53  0  0  0  0  0  0  0  0999 V2000
   -0.9010   26.5910  -24.1650 C   0  0  0  0  0  0  0  0  0  0  0  0
   -0.7850   25.6020  -25.3240 C   0  0  0  0  0  0  0  0  0  0  0  0
   -1.6160   26.0090  -26.5530 C   0  0  0  0  0  0  0  0  0  0  0  0
   -0.7720   26.5720  -27.7030 C   0  0  0  0  0  0  0  0  0  0  0  0
   -1.2390   26.0480  -28.9810 N   0  0  0  0  0  0  0  0  0  0  0  0
   -1.3200   24.6570  -29.3150 C   0  0  0  0  0  0  0  0  0  0  0  0
   -0.2570   23.9820  -29.3500 O   0  0  0  0  0  0  0  0  0  0  0  0
   -2.6290   23.9980  -29.6860 C   0  0  1  0  0  0  0  0  0  0  0  0
   -3.3810   23.5840  -28.4140 C   0  0  0  0  0  0  0  0  0  0  0  0
   -2.7180   22.4030  -27.7520 C   0  0  0  0  0  0  0  0  0  0  0  0
   -1.6650   22.5960  -26.8420 C   0  0  0  0  0  0  0  0  0  0  0  0
   -1.0800   21.5000  -26.1990 C   0  0  0  0  0  0  0  0  0  0  0  0
   -1.5460   20.2080  -26.4550 C   0  0  0  0  0  0  0  0  0  0  0  0
   -2.6000   20.0090  -27.3500 C   0  0  0  0  0  0  0  0  0  0  0  0
   -3.1890   21.1020  -27.9940 C   0  0  0  0  0  0  0  0  0  0  0  0
   -3.4510   24.9220  -30.4650 N   0  0  0  0  0  0  0  0  0  0  0  0
   -4.8830   24.9230  -30.4460 C   0  0  0  0  0  0  0  0  0  0  0  0
   -5.4990   25.9910  -30.1770 O   0  0  0  0  0  0  0  0  0  0  0  0
   -5.6300   23.6750  -30.7510 C   0  0  0  0  0  0  0  0  0  0  0  0
   -6.9280   23.4940  -30.2400 C   0  0  0  0  0  0  0  0  0  0  0  0
   -7.6400   22.3270  -30.5120 C   0  0  0  0  0  0  0  0  0  0  0  0
   -7.0540   21.3360  -31.2960 C   0  0  0  0  0  0  0  0  0  0  0  0
   -5.8010   21.5150  -31.7880 N   0  0  0  0  0  0  0  0  0  0  0  0
   -5.0750   22.6420  -31.5440 C   0  0  0  0  0  0  0  0  0  0  0  0
   -3.7890   22.7760  -32.0850 O   0  0  0  0  0  0  0  0  0  0  0  0
   -3.0130   21.6820  -32.5670 C   0  0  0  0  0  0  0  0  0  0  0  0
   -1.7780   21.4750  -31.6980 C   0  0  0  0  0  0  0  0  0  0  0  0
   -0.8372   26.0470  -23.2110 H   0  0  0  0  0  0  0  0  0  0  0  0
   -0.0826   27.3236  -24.2248 H   0  0  0  0  0  0  0  0  0  0  0  0
   -1.8667   27.1143  -24.2248 H   0  0  0  0  0  0  0  0  0  0  0  0
    0.2716   25.5357  -25.6227 H   0  0  0  0  0  0  0  0  0  0  0  0
   -1.1756   24.6364  -24.9703 H   0  0  0  0  0  0  0  0  0  0  0  0
   -2.1547   25.1222  -26.9182 H   0  0  0  0  0  0  0  0  0  0  0  0
   -2.2990   26.8089  -26.2312 H   0  0  0  0  0  0  0  0  0  0  0  0
   -0.8541   27.6689  -27.7094 H   0  0  0  0  0  0  0  0  0  0  0  0
    0.2760   26.2719  -27.5562 H   0  0  0  0  0  0  0  0  0  0  0  0
   -2.4201   23.1041  -30.2921 H   0  0  0  0  0  0  0  0  0  0  0  0
   -3.3918   24.4304  -27.7115 H   0  0  0  0  0  0  0  0  0  0  0  0
   -4.4065   23.2989  -28.6915 H   0  0  0  0  0  0  0  0  0  0  0  0
   -1.2993   23.6125  -26.6345 H   0  0  0  0  0  0  0  0  0  0  0  0
   -0.2524   21.6555  -25.4912 H   0  0  0  0  0  0  0  0  0  0  0  0
   -1.0826   19.3468  -25.9514 H   0  0  0  0  0  0  0  0  0  0  0  0
   -2.9672   18.9913  -27.5485 H   0  0  0  0  0  0  0  0  0  0  0  0
   -4.0238   20.9422  -28.6923 H   0  0  0  0  0  0  0  0  0  0  0  0
   -7.3849   24.2799  -29.6206 H   0  0  0  0  0  0  0  0  0  0  0  0
   -8.6552   22.1899  -30.1113 H   0  0  0  0  0  0  0  0  0  0  0  0
   -7.6053   20.4099  -31.5162 H   0  0  0  0  0  0  0  0  0  0  0  0
   -3.6254   20.7685  -32.5480 H   0  0  0  0  0  0  0  0  0  0  0  0
   -2.6898   21.9027  -33.5950 H   0  0  0  0  0  0  0  0  0  0  0  0
   -2.0641   21.5229  -30.6369 H   0  0  0  0  0  0  0  0  0  0  0  0
   -1.3378   20.4905  -31.9150 H   0  0  0  0  0  0  0  0  0  0  0  0
   -1.0409   22.2621  -31.9150 H   0  0  0  0  0  0  0  0  0  0  0  0
  1  2  1  0
  2  3  1  0
  3  4  1  0
  4  5  1  0
  5  6  1  0
  6  7  2  0
  6  8  1  0
  8  9  1  0
  9 10  1  0
 10 11  2  0
 11 12  1  0
 12 13  2  0
 13 14  1  0
 14 15  2  0
  8 16  1  0
 16 17  1  0
 17 18  2  0
 17 19  1  0
 19 20  2  0
 20 21  1  0
 21 22  2  0
 22 23  1  0
 23 24  2  0
 24 25  1  0
 25 26  1  0
 26 27  1  0
 15 10  1  0
 24 19  1  0
  1 28  1  0
  1 29  1  0
  1 30  1  0
  2 31  1  0
  2 32  1  0
  3 33  1  0
  3 34  1  0
  4 35  1  0
  4 36  1  0
  8 37  1  6
  9 38  1  0
  9 39  1  0
 11 40  1  0
 12 41  1  0
 13 42  1  0
 14 43  1  0
 15 44  1  0
 20 45  1  0
 21 46  1  0
 22 47  1  0
 26 48  1  0
 26 49  1  0
 27 50  1  0
 27 51  1  0
 27 52  1  0
M  CHG  2   5  -1  16  -1
M  END
>  <UniqueID>  (42) 
41

>  <SMILES>  (42) 
CCCC[N-]C(=O)[C@@H](Cc1ccccc1)[N-]C(=O)c1cccnc1OCC

>  <Energy>  (42) 
38.35760390829427

>  <Genealogy>  (42) 
CCCC[N-]C(=O)C(Cc1ccccc1)[N-]C(=O)c1cccnc1OCC (protonated)
CCCC[N-]C(=O)[C@@H](Cc1ccccc1)[N-]C(=O)c1cccnc1OCC (chirality)
CCCC[N-]C(=O)[C@@H](Cc1ccccc1)[N-]C(=O)c1cccnc1OCC (3D coordinates assigned)
CCCC[N-]C(=O)[C@@H](Cc1ccccc1)[N-]C(=O)c1cccnc1OCC (optimized conformer: 38.35760390829427 kcal/mol)

>  <smiles>  (42) 
CCCCNC(=O)C(Cc1ccccc1)NC(=O)c1cccnc1OCC

>  <score_type>  (42) 
oracle

>  <origin>  (42) 
adg

>  <m_score__min__energy>  (42) 
-10.880000000000001

>  <m_primary>  (42) 
energy

$$$$
42:0
     RDKit          3D

 41 43  0  0  0  0  0  0  0  0999 V2000
   -0.0380   21.9960  -28.0260 C   0  0  0  0  0  0  0  0  0  0  0  0
   -0.9400   21.2110  -29.3430 S   0  0  0  0  0  0  0  0  0  0  0  0
   -1.9020   20.2060  -28.7750 O   0  0  0  0  0  0  0  0  0  0  0  0
    0.0250   20.4960  -30.2470 O   0  0  0  0  0  0  0  0  0  0  0  0
   -1.7980   22.4040  -30.2630 N   0  0  0  0  0  0  0  0  0  0  0  0
   -3.1610   22.2360  -30.6870 C   0  0  0  0  0  0  0  0  0  0  0  0
   -3.6210   20.9640  -31.0670 C   0  0  0  0  0  0  0  0  0  0  0  0
   -4.9590   20.7550  -31.3940 C   0  0  0  0  0  0  0  0  0  0  0  0
   -5.8800   21.8110  -31.3420 C   0  0  0  0  0  0  0  0  0  0  0  0
   -7.2660   21.5920  -31.6750 N   0  0  0  0  0  0  0  0  0  0  0  0
   -7.8090   20.4530  -32.1570 C   0  0  0  0  0  0  0  0  0  0  0  0
   -9.1640   20.6240  -32.3530 C   0  0  0  0  0  0  0  0  0  0  0  0
   -9.4570   21.9190  -31.9780 C   0  0  0  0  0  0  0  0  0  0  0  0
   -8.2710   22.4870  -31.5660 C   0  0  0  0  0  0  0  0  0  0  0  0
   -5.4280   23.0870  -30.9640 C   0  0  0  0  0  0  0  0  0  0  0  0
   -4.0770   23.3170  -30.6460 C   0  0  0  0  0  0  0  0  0  0  0  0
   -3.6470   24.6980  -30.3180 C   0  0  0  0  0  0  0  0  0  0  0  0
   -4.4360   25.6640  -30.4990 O   0  0  0  0  0  0  0  0  0  0  0  0
   -2.3660   24.9180  -29.7110 N   0  0  0  0  0  0  0  0  0  0  0  0
   -2.1200   25.2550  -28.3380 C   0  0  0  0  0  0  0  0  0  0  0  0
   -2.9880   24.8570  -27.3030 C   0  0  0  0  0  0  0  0  0  0  0  0
   -2.7210   25.2280  -25.9810 C   0  0  0  0  0  0  0  0  0  0  0  0
   -1.6000   26.0090  -25.6830 C   0  0  0  0  0  0  0  0  0  0  0  0
   -0.7490   26.4260  -26.7100 C   0  0  0  0  0  0  0  0  0  0  0  0
   -1.0130   26.0580  -28.0320 C   0  0  0  0  0  0  0  0  0  0  0  0
   -0.4313   21.6537  -27.0574 H   0  0  0  0  0  0  0  0  0  0  0  0
    1.0271   21.7323  -28.1031 H   0  0  0  0  0  0  0  0  0  0  0  0
   -0.1521   23.0873  -28.1031 H   0  0  0  0  0  0  0  0  0  0  0  0
   -1.2670   23.2550  -30.5530 H   0  0  0  0  0  0  0  0  0  0  0  0
   -2.9149   20.1215  -31.1069 H   0  0  0  0  0  0  0  0  0  0  0  0
   -5.2960   19.7523  -31.6958 H   0  0  0  0  0  0  0  0  0  0  0  0
   -7.2532   19.5263  -32.3628 H   0  0  0  0  0  0  0  0  0  0  0  0
   -9.8727   19.8739  -32.7340 H   0  0  0  0  0  0  0  0  0  0  0  0
  -10.4443   22.4034  -32.0030 H   0  0  0  0  0  0  0  0  0  0  0  0
   -8.1594   23.5189  -31.2016 H   0  0  0  0  0  0  0  0  0  0  0  0
   -6.1436   23.9210  -30.9159 H   0  0  0  0  0  0  0  0  0  0  0  0
   -3.8778   24.2531  -27.5346 H   0  0  0  0  0  0  0  0  0  0  0  0
   -3.3946   24.9046  -25.1737 H   0  0  0  0  0  0  0  0  0  0  0  0
   -1.3884   26.2946  -24.6420 H   0  0  0  0  0  0  0  0  0  0  0  0
    0.1301   27.0449  -26.4774 H   0  0  0  0  0  0  0  0  0  0  0  0
   -0.3474   26.4009  -28.8379 H   0  0  0  0  0  0  0  0  0  0  0  0
  1  2  1  0
  2  3  2  0
  2  4  2  0
  2  5  1  0
  5  6  1  0
  6  7  2  0
  7  8  1  0
  8  9  2  0
  9 10  1  0
 10 11  1  0
 11 12  2  0
 12 13  1  0
 13 14  2  0
  9 15  1  0
 15 16  2  0
 16 17  1  0
 17 18  2  0
 17 19  1  0
 19 20  1  0
 20 21  2  0
 21 22  1  0
 22 23  2  0
 23 24  1  0
 24 25  2  0
 16  6  1  0
 25 20  1  0
 14 10  1  0
  1 26  1  0
  1 27  1  0
  1 28  1  0
  5 29  1  0
  7 30  1  0
  8 31  1  0
 11 32  1  0
 12 33  1  0
 13 34  1  0
 14 35  1  0
 15 36  1  0
 21 37  1  0
 22 38  1  0
 23 39  1  0
 24 40  1  0
 25 41  1  0
M  CHG  1  19  -1
M  END
>  <UniqueID>  (43) 
42

>  <SMILES>  (43) 
CS(=O)(=O)Nc1ccc(-n2cccc2)cc1C(=O)[N-]c1ccccc1

>  <Energy>  (43) 
80.61793394359215

>  <Genealogy>  (43) 
CS(=O)(=O)Nc1ccc(-n2cccc2)cc1C(=O)[N-]c1ccccc1 (protonated)
CS(=O)(=O)Nc1ccc(-n2cccc2)cc1C(=O)[N-]c1ccccc1 (3D coordinates assigned)
CS(=O)(=O)Nc1ccc(-n2cccc2)cc1C(=O)[N-]c1ccccc1 (optimized conformer: 80.61793394359215 kcal/mol)

>  <smiles>  (43) 
CS(=O)(=O)Nc1ccc(-n2cccc2)cc1C(=O)Nc1ccccc1

>  <score_type>  (43) 
oracle

>  <origin>  (43) 
adg

>  <m_score__min__energy>  (43) 
-9.0899999999999999

>  <m_primary>  (43) 
energy

$$$$
43:0
     RDKit          3D

 38 41  0  0  0  0  0  0  0  0999 V2000
   -2.1550   24.5830  -28.9160 C   0  0  0  0  0  0  0  0  0  0  0  0
   -3.1060   25.2770  -29.7170 O   0  0  0  0  0  0  0  0  0  0  0  0
   -4.3460   24.7490  -30.1080 C   0  0  0  0  0  0  0  0  0  0  0  0
   -5.5390   25.4940  -30.0380 C   0  0  0  0  0  0  0  0  0  0  0  0
   -6.7480   24.9210  -30.4390 C   0  0  0  0  0  0  0  0  0  0  0  0
   -6.7810   23.6090  -30.9140 C   0  0  0  0  0  0  0  0  0  0  0  0
   -5.5990   22.8570  -30.9980 C   0  0  0  0  0  0  0  0  0  0  0  0
   -5.6270   21.5040  -31.4880 N   0  0  0  0  0  0  0  0  0  0  0  0
   -4.5890   20.6500  -31.7350 C   0  0  0  0  0  0  0  0  0  0  0  0
   -3.1790   20.9120  -31.3790 C   0  0  0  0  0  0  0  0  0  0  0  0
   -2.7740   20.8030  -30.0390 C   0  0  0  0  0  0  0  0  0  0  0  0
   -1.4440   21.0440  -29.6810 C   0  0  0  0  0  0  0  0  0  0  0  0
   -0.5120   21.4070  -30.6560 C   0  0  0  0  0  0  0  0  0  0  0  0
   -0.9110   21.5420  -31.9880 C   0  0  0  0  0  0  0  0  0  0  0  0
   -2.2400   21.3030  -32.3530 C   0  0  0  0  0  0  0  0  0  0  0  0
   -2.6130   21.4940  -33.6440 F   0  0  0  0  0  0  0  0  0  0  0  0
   -4.9750   19.4900  -32.3370 N   0  0  0  0  0  0  0  0  0  0  0  0
   -6.3060   19.6410  -32.4500 C   0  0  0  0  0  0  0  0  0  0  0  0
   -7.2410   18.7890  -33.0230 C   0  0  0  0  0  0  0  0  0  0  0  0
   -6.7720   17.2360  -33.6940 Cl  0  0  0  0  0  0  0  0  0  0  0  0
   -8.5440   19.2050  -33.0560 N   0  0  0  0  0  0  0  0  0  0  0  0
   -8.9120   20.4270  -32.5520 C   0  0  0  0  0  0  0  0  0  0  0  0
   -7.9810   21.2600  -31.9960 N   0  0  0  0  0  0  0  0  0  0  0  0
   -6.6950   20.8340  -31.9460 C   0  0  0  0  0  0  0  0  0  0  0  0
   -4.3870   23.4330  -30.5850 C   0  0  0  0  0  0  0  0  0  0  0  0
   -2.3814   24.7482  -27.8523 H   0  0  0  0  0  0  0  0  0  0  0  0
   -2.2039   23.5068  -29.1385 H   0  0  0  0  0  0  0  0  0  0  0  0
   -1.1451   24.9579  -29.1385 H   0  0  0  0  0  0  0  0  0  0  0  0
   -5.5187   26.5293  -29.6668 H   0  0  0  0  0  0  0  0  0  0  0  0
   -7.6777   25.5060  -30.3802 H   0  0  0  0  0  0  0  0  0  0  0  0
   -7.7374   23.1625  -31.2238 H   0  0  0  0  0  0  0  0  0  0  0  0
   -3.5069   20.5265  -29.2667 H   0  0  0  0  0  0  0  0  0  0  0  0
   -1.1314   20.9477  -28.6308 H   0  0  0  0  0  0  0  0  0  0  0  0
    0.5362   21.5866  -30.3750 H   0  0  0  0  0  0  0  0  0  0  0  0
   -0.1774   21.8373  -32.7526 H   0  0  0  0  0  0  0  0  0  0  0  0
   -9.2710   18.5890  -33.4810 H   0  0  0  0  0  0  0  0  0  0  0  0
   -9.9658   20.7395  -32.5956 H   0  0  0  0  0  0  0  0  0  0  0  0
   -3.4594   22.8440  -30.6367 H   0  0  0  0  0  0  0  0  0  0  0  0
  1  2  1  0
  2  3  1  0
  3  4  2  0
  4  5  1  0
  5  6  2  0
  6  7  1  0
  7  8  1  0
  8  9  1  0
  9 10  1  0
 10 11  2  0
 11 12  1  0
 12 13  2  0
 13 14  1  0
 14 15  2  0
 15 16  1  0
  9 17  2  0
 17 18  1  0
 18 19  2  0
 19 20  1  0
 19 21  1  0
 21 22  2  0
 22 23  1  0
 23 24  2  0
  7 25  2  0
 25  3  1  0
 24  8  1  0
 15 10  1  0
 24 18  1  0
  1 26  1  0
  1 27  1  0
  1 28  1  0
  4 29  1  0
  5 30  1  0
  6 31  1  0
 11 32  1  0
 12 33  1  0
 13 34  1  0
 14 35  1  0
 21 36  1  0
 22 37  1  0
 25 38  1  0
M  CHG  1  21   1
M  END
>  <UniqueID>  (44) 
43

>  <SMILES>  (44) 
COc1cccc(-n2c(-c3ccccc3F)nc3c(Cl)[nH+]cnc32)c1

>  <Energy>  (44) 
92.7177530297429

>  <Genealogy>  (44) 
COc1cccc(-n2c(-c3ccccc3F)nc3c(Cl)[nH+]cnc32)c1 (protonated)
COc1cccc(-n2c(-c3ccccc3F)nc3c(Cl)[nH+]cnc32)c1 (3D coordinates assigned)
COc1cccc(-n2c(-c3ccccc3F)nc3c(Cl)[nH+]cnc32)c1 (optimized conformer: 92.7177530297429 kcal/mol)

>  <smiles>  (44) 
COc1cccc(-n2c(-c3ccccc3F)nc3c(Cl)ncnc32)c1

>  <score_type>  (44) 
oracle

>  <origin>  (44) 
adg

>  <m_score__min__energy>  (44) 
-8.3000000000000007

>  <m_primary>  (44) 
energy

$$$$
44:0
     RDKit          3D

 47 48  0  0  0  0  0  0  0  0999 V2000
   -5.8190   18.9690  -34.1420 C   0  0  0  0  0  0  0  0  0  0  0  0
   -5.7720   20.2160  -33.4520 O   0  0  0  0  0  0  0  0  0  0  0  0
   -6.8430   20.7770  -32.7330 C   0  0  0  0  0  0  0  0  0  0  0  0
   -8.0240   20.0520  -32.4680 C   0  0  0  0  0  0  0  0  0  0  0  0
   -9.0650   20.6360  -31.7380 C   0  0  0  0  0  0  0  0  0  0  0  0
   -8.9410   21.9410  -31.2660 C   0  0  0  0  0  0  0  0  0  0  0  0
   -7.7820   22.6740  -31.5280 C   0  0  0  0  0  0  0  0  0  0  0  0
   -6.7310   22.1060  -32.2690 C   0  0  0  0  0  0  0  0  0  0  0  0
   -5.4640   22.8930  -32.4930 C   0  0  0  0  0  0  0  0  0  0  0  0
   -4.5720   22.7720  -31.3320 N   0  0  0  0  0  0  0  0  0  0  0  0
   -3.8190   21.5450  -31.0790 C   0  0  0  0  0  0  0  0  0  0  0  0
   -4.5050   23.8260  -30.3570 C   0  0  0  0  0  0  0  0  0  0  0  0
   -4.0790   24.9630  -30.7000 O   0  0  0  0  0  0  0  0  0  0  0  0
   -5.0190   23.6180  -28.9660 C   0  0  0  0  0  0  0  0  0  0  0  0
   -4.4070   24.5580  -28.0280 N   0  0  0  0  0  0  0  0  0  0  0  0
   -3.2100   24.2260  -27.3150 C   0  0  0  0  0  0  0  0  0  0  0  0
   -2.9280   23.0180  -27.0970 O   0  0  0  0  0  0  0  0  0  0  0  0
   -2.3080   25.2920  -26.8180 C   0  0  0  0  0  0  0  0  0  0  0  0
   -2.3780   25.6860  -25.4680 C   0  0  0  0  0  0  0  0  0  0  0  0
   -1.5260   26.6770  -24.9780 C   0  0  0  0  0  0  0  0  0  0  0  0
   -0.5800   27.2620  -25.8170 C   0  0  0  0  0  0  0  0  0  0  0  0
   -0.4840   26.8680  -27.1540 C   0  0  0  0  0  0  0  0  0  0  0  0
   -1.3430   25.8750  -27.6690 C   0  0  0  0  0  0  0  0  0  0  0  0
   -1.2420   25.4270  -29.0010 O   0  0  0  0  0  0  0  0  0  0  0  0
   -0.9060   24.1030  -29.3950 C   0  0  0  0  0  0  0  0  0  0  0  0
   -5.8500   18.1469  -33.4118 H   0  0  0  0  0  0  0  0  0  0  0  0
   -6.7191   18.9329  -34.7732 H   0  0  0  0  0  0  0  0  0  0  0  0
   -4.9241   18.8653  -34.7732 H   0  0  0  0  0  0  0  0  0  0  0  0
   -8.1270   19.0211  -32.8376 H   0  0  0  0  0  0  0  0  0  0  0  0
   -9.9827   20.0640  -31.5364 H   0  0  0  0  0  0  0  0  0  0  0  0
   -9.7579   22.3947  -30.6857 H   0  0  0  0  0  0  0  0  0  0  0  0
   -7.6905   23.7036  -31.1518 H   0  0  0  0  0  0  0  0  0  0  0  0
   -4.9507   22.5066  -33.3859 H   0  0  0  0  0  0  0  0  0  0  0  0
   -5.7232   23.9527  -32.6340 H   0  0  0  0  0  0  0  0  0  0  0  0
   -3.7240   21.3902  -29.9941 H   0  0  0  0  0  0  0  0  0  0  0  0
   -4.3487   20.6909  -31.5263 H   0  0  0  0  0  0  0  0  0  0  0  0
   -2.8177   21.6305  -31.5263 H   0  0  0  0  0  0  0  0  0  0  0  0
   -6.1091   23.7651  -28.9609 H   0  0  0  0  0  0  0  0  0  0  0  0
   -4.7631   22.5958  -28.6502 H   0  0  0  0  0  0  0  0  0  0  0  0
   -4.7940   25.5250  -27.9310 H   0  0  0  0  0  0  0  0  0  0  0  0
   -3.1078   25.2104  -24.7962 H   0  0  0  0  0  0  0  0  0  0  0  0
   -1.6015   26.9965  -23.9281 H   0  0  0  0  0  0  0  0  0  0  0  0
    0.0944   28.0376  -25.4250 H   0  0  0  0  0  0  0  0  0  0  0  0
    0.2662   27.3351  -27.8090 H   0  0  0  0  0  0  0  0  0  0  0  0
   -0.7486   23.4829  -28.5002 H   0  0  0  0  0  0  0  0  0  0  0  0
   -1.7252   23.6799  -29.9949 H   0  0  0  0  0  0  0  0  0  0  0  0
    0.0159   24.1217  -29.9949 H   0  0  0  0  0  0  0  0  0  0  0  0
  1  2  1  0
  2  3  1  0
  3  4  2  0
  4  5  1  0
  5  6  2  0
  6  7  1  0
  7  8  2  0
  8  9  1  0
  9 10  1  0
 10 11  1  0
 10 12  1  0
 12 13  2  0
 12 14  1  0
 14 15  1  0
 15 16  1  0
 16 17  2  0
 16 18  1  0
 18 19  2  0
 19 20  1  0
 20 21  2  0
 21 22  1  0
 22 23  2  0
 23 24  1  0
 24 25  1  0
  8  3  1  0
 23 18  1  0
  1 26  1  0
  1 27  1  0
  1 28  1  0
  4 29  1  0
  5 30  1  0
  6 31  1  0
  7 32  1  0
  9 33  1  0
  9 34  1  0
 11 35  1  0
 11 36  1  0
 11 37  1  0
 14 38  1  0
 14 39  1  0
 15 40  1  0
 19 41  1  0
 20 42  1  0
 21 43  1  0
 22 44  1  0
 25 45  1  0
 25 46  1  0
 25 47  1  0
M  END
>  <UniqueID>  (45) 
44

>  <SMILES>  (45) 
COc1ccccc1CN(C)C(=O)CNC(=O)c1ccccc1OC

>  <Energy>  (45) 
51.639258756334

>  <Genealogy>  (45) 
COc1ccccc1CN(C)C(=O)CNC(=O)c1ccccc1OC (3D coordinates assigned)
COc1ccccc1CN(C)C(=O)CNC(=O)c1ccccc1OC (optimized conformer: 51.639258756334 kcal/mol)

>  <smiles>  (45) 
COc1ccccc1CN(C)C(=O)CNC(=O)c1ccccc1OC

>  <score_type>  (45) 
oracle

>  <origin>  (45) 
adg

>  <m_score__min__energy>  (45) 
-8.5899999999999999

>  <m_primary>  (45) 
energy

$$$$
45:0
     RDKit          3D

 55 58  0  0  0  0  0  0  0  0999 V2000
   -1.1580   26.8010  -23.9350 C   0  0  0  0  0  0  0  0  0  0  0  0
   -0.6330   25.5090  -24.0220 C   0  0  0  0  0  0  0  0  0  0  0  0
   -0.1660   25.0240  -25.2480 C   0  0  0  0  0  0  0  0  0  0  0  0
   -0.2090   25.8360  -26.3930 C   0  0  0  0  0  0  0  0  0  0  0  0
    0.2440   25.2970  -27.7180 C   0  0  0  0  0  0  0  0  0  0  0  0
   -0.8690   25.2370  -28.5820 O   0  0  0  0  0  0  0  0  0  0  0  0
   -1.2370   23.8880  -28.8000 C   0  0  0  0  0  0  0  0  0  0  0  0
   -2.7480   23.7650  -29.1490 C   0  0  1  0  0  0  0  0  0  0  0  0
   -3.1110   25.0910  -29.7030 N   0  0  0  0  0  0  0  0  0  0  0  0
   -3.8670   24.9680  -30.8300 O   0  0  0  0  0  0  0  0  0  0  0  0
   -5.1790   25.3490  -30.4870 C   0  0  0  0  0  0  0  0  0  0  0  0
   -6.1490   24.2480  -30.8190 C   0  0  0  0  0  0  0  0  0  0  0  0
   -6.8590   23.5940  -29.7980 C   0  0  0  0  0  0  0  0  0  0  0  0
   -7.7050   22.5250  -30.1030 C   0  0  0  0  0  0  0  0  0  0  0  0
   -7.8450   22.0970  -31.4270 C   0  0  0  0  0  0  0  0  0  0  0  0
   -7.1350   22.7360  -32.4470 C   0  0  0  0  0  0  0  0  0  0  0  0
   -6.2860   23.8070  -32.1450 C   0  0  0  0  0  0  0  0  0  0  0  0
   -2.9970   22.6480  -30.2110 C   0  0  0  0  0  0  0  0  0  0  0  0
   -4.1950   21.8900  -30.2390 C   0  0  0  0  0  0  0  0  0  0  0  0
   -4.4040   20.9000  -31.2030 C   0  0  0  0  0  0  0  0  0  0  0  0
   -3.4330   20.6430  -32.1670 C   0  0  0  0  0  0  0  0  0  0  0  0
   -2.2500   21.3790  -32.1710 C   0  0  0  0  0  0  0  0  0  0  0  0
   -2.0330   22.3690  -31.2100 C   0  0  0  0  0  0  0  0  0  0  0  0
   -3.5060   23.5520  -27.7870 C   0  0  1  0  0  0  0  0  0  0  0  0
   -3.2990   24.4790  -26.6640 C   0  0  0  0  0  0  0  0  0  0  0  0
   -4.5420   24.5550  -27.4580 N   0  0  0  0  0  0  0  0  0  0  0  0
   -0.7560   27.1270  -26.3020 C   0  0  0  0  0  0  0  0  0  0  0  0
   -1.2210   27.6080  -25.0740 C   0  0  0  0  0  0  0  0  0  0  0  0
   -1.5218   27.1829  -22.9697 H   0  0  0  0  0  0  0  0  0  0  0  0
   -0.5869   24.8729  -23.1257 H   0  0  0  0  0  0  0  0  0  0  0  0
    0.2365   24.0025  -25.3156 H   0  0  0  0  0  0  0  0  0  0  0  0
    1.0102   25.9602  -28.1458 H   0  0  0  0  0  0  0  0  0  0  0  0
    0.6747   24.2931  -27.5887 H   0  0  0  0  0  0  0  0  0  0  0  0
   -0.6426   23.4843  -29.6329 H   0  0  0  0  0  0  0  0  0  0  0  0
   -1.0462   23.3219  -27.8763 H   0  0  0  0  0  0  0  0  0  0  0  0
   -2.2500   25.6380  -29.9430 H   0  0  0  0  0  0  0  0  0  0  0  0
   -5.2250   25.5594  -29.4083 H   0  0  0  0  0  0  0  0  0  0  0  0
   -5.4505   26.2482  -31.0596 H   0  0  0  0  0  0  0  0  0  0  0  0
   -6.7483   23.9249  -28.7548 H   0  0  0  0  0  0  0  0  0  0  0  0
   -8.2619   22.0191  -29.3005 H   0  0  0  0  0  0  0  0  0  0  0  0
   -8.5142   21.2572  -31.6656 H   0  0  0  0  0  0  0  0  0  0  0  0
   -7.2434   22.3971  -33.4879 H   0  0  0  0  0  0  0  0  0  0  0  0
   -5.7243   24.3049  -32.9491 H   0  0  0  0  0  0  0  0  0  0  0  0
   -4.9746   22.0849  -29.4878 H   0  0  0  0  0  0  0  0  0  0  0  0
   -5.3396   20.3214  -31.2001 H   0  0  0  0  0  0  0  0  0  0  0  0
   -3.5992   19.8615  -32.9230 H   0  0  0  0  0  0  0  0  0  0  0  0
   -1.4835   21.1795  -32.9344 H   0  0  0  0  0  0  0  0  0  0  0  0
   -1.0949   22.9432  -31.2296 H   0  0  0  0  0  0  0  0  0  0  0  0
   -3.4469   22.4574  -27.8781 H   0  0  0  0  0  0  0  0  0  0  0  0
   -3.3296   24.1049  -25.6300 H   0  0  0  0  0  0  0  0  0  0  0  0
   -2.5123   25.1946  -26.3828 H   0  0  0  0  0  0  0  0  0  0  0  0
   -4.5850   25.4340  -28.0170 H   0  0  0  0  0  0  0  0  0  0  0  0
   -5.3620   24.1800  -26.9270 H   0  0  0  0  0  0  0  0  0  0  0  0
   -0.8186   27.7609  -27.1988 H   0  0  0  0  0  0  0  0  0  0  0  0
   -1.6373   28.6238  -25.0045 H   0  0  0  0  0  0  0  0  0  0  0  0
  1  2  2  0
  2  3  1  0
  3  4  2  0
  4  5  1  0
  5  6  1  0
  6  7  1  0
  7  8  1  0
  8  9  1  6
  9 10  1  0
 10 11  1  0
 11 12  1  0
 12 13  2  0
 13 14  1  0
 14 15  2  0
 15 16  1  0
 16 17  2  0
  8 18  1  0
 18 19  2  0
 19 20  1  0
 20 21  2  0
 21 22  1  0
 22 23  2  0
  8 24  1  0
 24 25  1  0
 25 26  1  0
  4 27  1  0
 27 28  2  0
 28  1  1  0
 17 12  1  0
 23 18  1  0
 26 24  1  0
  1 29  1  0
  2 30  1  0
  3 31  1  0
  5 32  1  0
  5 33  1  0
  7 34  1  0
  7 35  1  0
  9 36  1  0
 11 37  1  0
 11 38  1  0
 13 39  1  0
 14 40  1  0
 15 41  1  0
 16 42  1  0
 17 43  1  0
 19 44  1  0
 20 45  1  0
 21 46  1  0
 22 47  1  0
 23 48  1  0
 24 49  1  1
 25 50  1  0
 25 51  1  0
 26 52  1  0
 26 53  1  0
 27 54  1  0
 28 55  1  0
M  CHG  1  26   1
M  END
>  <UniqueID>  (46) 
45

>  <SMILES>  (46) 
c1ccc(COC[C@@](NOCc2ccccc2)(c2ccccc2)[C@H]2C[NH2+]2)cc1

>  <Energy>  (46) 
413.0729928080066

>  <Genealogy>  (46) 
c1ccc(COCC(NOCc2ccccc2)(c2ccccc2)C2C[NH2+]2)cc1 (protonated)
c1ccc(COC[C@@](NOCc2ccccc2)(c2ccccc2)[C@H]2C[NH2+]2)cc1 (chirality)
c1ccc(COC[C@@](NOCc2ccccc2)(c2ccccc2)[C@H]2C[NH2+]2)cc1 (3D coordinates assigned)
c1ccc(COC[C@@](NOCc2ccccc2)(c2ccccc2)[C@H]2C[NH2+]2)cc1 (nonaromatic ring conformer: 413.0729928080066 kcal/mol)

>  <smiles>  (46) 
c1ccc(COCC(NOCc2ccccc2)(c2ccccc2)C2CN2)cc1

>  <score_type>  (46) 
oracle

>  <origin>  (46) 
adg

>  <m_score__min__energy>  (46) 
-8.8499999999999996

>  <m_primary>  (46) 
energy

$$$$
