0:0
     RDKit          3D

 51 54  0  0  0  0  0  0  0  0999 V2000
   -3.7510   20.8150  -32.6900 C   0  0  0  0  0  0  0  0  0  0  0  0
   -4.3490   22.2150  -32.8240 C   0  0  0  0  0  0  0  0  0  0  0  0
   -5.5320   22.3730  -31.9640 N   0  0  0  0  0  0  0  0  0  0  0  0
   -5.7760   23.2860  -30.9740 C   0  0  0  0  0  0  0  0  0  0  0  0
   -4.8580   24.4230  -30.5710 C   0  0  0  0  0  0  0  0  0  0  0  0
   -3.7770   24.0270  -29.6410 N   0  0  0  0  0  0  0  0  0  0  0  0
   -3.2110   22.7040  -29.9300 C   0  0  0  0  0  0  0  0  0  0  0  0
   -1.8790   22.5300  -29.1760 C   0  0  0  0  0  0  0  0  0  0  0  0
   -1.8280   23.2590  -27.8870 N   0  0  0  0  0  0  0  0  0  0  0  0
   -0.9440   24.7650  -28.0160 S   0  0  0  0  0  0  0  0  0  0  0  0
    0.4690   24.5150  -28.4690 O   0  0  0  0  0  0  0  0  0  0  0  0
   -1.6110   25.6800  -29.0050 O   0  0  0  0  0  0  0  0  0  0  0  0
   -0.9330   25.5570  -26.4430 C   0  0  0  0  0  0  0  0  0  0  0  0
   -0.6090   24.8190  -25.2970 C   0  0  0  0  0  0  0  0  0  0  0  0
   -0.5830   25.4400  -24.0440 C   0  0  0  0  0  0  0  0  0  0  0  0
   -0.8760   26.8010  -23.9320 C   0  0  0  0  0  0  0  0  0  0  0  0
   -1.1940   27.5450  -25.0730 C   0  0  0  0  0  0  0  0  0  0  0  0
   -1.2210   26.9260  -26.3270 C   0  0  0  0  0  0  0  0  0  0  0  0
   -3.1580   23.4490  -27.2810 C   0  0  0  0  0  0  0  0  0  0  0  0
   -4.1420   24.1820  -28.2180 C   0  0  0  0  0  0  0  0  0  0  0  0
   -7.0090   23.1490  -30.4180 N   0  0  0  0  0  0  0  0  0  0  0  0
   -7.5400   22.1130  -31.0860 C   0  0  0  0  0  0  0  0  0  0  0  0
   -8.8130   21.5680  -30.9260 C   0  0  0  0  0  0  0  0  0  0  0  0
   -9.1830   20.5100  -31.7760 C   0  0  0  0  0  0  0  0  0  0  0  0
   -8.2880   20.0380  -32.7620 C   0  0  0  0  0  0  0  0  0  0  0  0
   -7.0120   20.6160  -32.9000 C   0  0  0  0  0  0  0  0  0  0  0  0
   -6.6670   21.6510  -32.0240 C   0  0  0  0  0  0  0  0  0  0  0  0
   -3.6432   20.5627  -31.6248 H   0  0  0  0  0  0  0  0  0  0  0  0
   -4.4156   20.0845  -33.1744 H   0  0  0  0  0  0  0  0  0  0  0  0
   -2.7637   20.7901  -33.1744 H   0  0  0  0  0  0  0  0  0  0  0  0
   -3.5919   22.9579  -32.5327 H   0  0  0  0  0  0  0  0  0  0  0  0
   -4.6563   22.3637  -33.8697 H   0  0  0  0  0  0  0  0  0  0  0  0
   -4.3971   24.8339  -31.4813 H   0  0  0  0  0  0  0  0  0  0  0  0
   -5.4794   25.1589  -30.0397 H   0  0  0  0  0  0  0  0  0  0  0  0
   -3.9180   21.9258  -29.6066 H   0  0  0  0  0  0  0  0  0  0  0  0
   -3.0305   22.6147  -31.0114 H   0  0  0  0  0  0  0  0  0  0  0  0
   -1.7299   21.4587  -28.9759 H   0  0  0  0  0  0  0  0  0  0  0  0
   -1.0887   22.9497  -29.8157 H   0  0  0  0  0  0  0  0  0  0  0  0
   -0.3743   23.7478  -25.3829 H   0  0  0  0  0  0  0  0  0  0  0  0
   -0.3316   24.8561  -23.1463 H   0  0  0  0  0  0  0  0  0  0  0  0
   -0.8567   27.2881  -22.9459 H   0  0  0  0  0  0  0  0  0  0  0  0
   -1.4229   28.6172  -24.9841 H   0  0  0  0  0  0  0  0  0  0  0  0
   -1.4683   27.5130  -27.2238 H   0  0  0  0  0  0  0  0  0  0  0  0
   -3.5763   22.4620  -27.0344 H   0  0  0  0  0  0  0  0  0  0  0  0
   -3.0278   24.0721  -26.3839 H   0  0  0  0  0  0  0  0  0  0  0  0
   -5.1507   23.7710  -28.0641 H   0  0  0  0  0  0  0  0  0  0  0  0
   -4.1054   25.2541  -27.9746 H   0  0  0  0  0  0  0  0  0  0  0  0
   -9.5044   21.9520  -30.1614 H   0  0  0  0  0  0  0  0  0  0  0  0
  -10.1755   20.0472  -31.6723 H   0  0  0  0  0  0  0  0  0  0  0  0
   -8.5900   19.2143  -33.4255 H   0  0  0  0  0  0  0  0  0  0  0  0
   -6.3096   20.2657  -33.6707 H   0  0  0  0  0  0  0  0  0  0  0  0
  1  2  1  0
  2  3  1  0
  3  4  1  0
  4  5  1  0
  5  6  1  0
  6  7  1  0
  7  8  1  0
  8  9  1  0
  9 10  1  0
 10 11  2  0
 10 12  2  0
 10 13  1  0
 13 14  2  0
 14 15  1  0
 15 16  2  0
 16 17  1  0
 17 18  2  0
  9 19  1  0
 19 20  1  0
  4 21  2  0
 21 22  1  0
 22 23  2  0
 23 24  1  0
 24 25  2  0
 25 26  1  0
 26 27  2  0
 27  3  1  0
 20  6  1  0
 27 22  1  0
 18 13  1  0
  1 28  1  0
  1 29  1  0
  1 30  1  0
  2 31  1  0
  2 32  1  0
  5 33  1  0
  5 34  1  0
  7 35  1  0
  7 36  1  0
  8 37  1  0
  8 38  1  0
 14 39  1  0
 15 40  1  0
 16 41  1  0
 17 42  1  0
 18 43  1  0
 19 44  1  0
 19 45  1  0
 20 46  1  0
 20 47  1  0
 23 48  1  0
 24 49  1  0
 25 50  1  0
 26 51  1  0
M  END
>  <UniqueID>  (1) 
1

>  <SMILES>  (1) 
CCn1c(CN2CCN(S(=O)(=O)c3ccccc3)CC2)nc2ccccc21

>  <Energy>  (1) 
103.03393387742007

>  <Genealogy>  (1) 
CCn1c(CN2CCN(S(=O)(=O)c3ccccc3)CC2)nc2ccccc21 (3D coordinates assigned)
CCn1c(CN2CCN(S(=O)(=O)c3ccccc3)CC2)nc2ccccc21 (nonaromatic ring conformer: 103.03393387742007 kcal/mol)

>  <smiles>  (1) 
CCn1c(CN2CCN(S(=O)(=O)c3ccccc3)CC2)nc2ccccc21

>  <score_type>  (1) 
oracle

>  <origin>  (1) 
adg

>  <m_score__min__energy>  (1) 
-9.7899999999999991

>  <m_primary>  (1) 
energy

$$$$
1:0
     RDKit          3D

 56 59  0  0  0  0  0  0  0  0999 V2000
   -6.1210   17.0570  -31.6120 C   0  0  0  0  0  0  0  0  0  0  0  0
   -5.7010   16.0730  -32.7070 C   0  0  0  0  0  0  0  0  0  0  0  0
   -4.9640   16.7300  -33.7990 N   0  0  0  0  0  0  0  0  0  0  0  0
   -5.8630   17.4760  -34.6890 C   0  0  0  0  0  0  0  0  0  0  0  0
   -5.7170   18.9900  -34.4760 C   0  0  0  0  0  0  0  0  0  0  0  0
   -5.0820   19.3080  -33.1900 N   0  0  0  0  0  0  0  0  0  0  0  0
   -5.4570   20.4670  -32.4230 C   0  0  0  0  0  0  0  0  0  0  0  0
   -6.8030   20.7000  -32.0830 C   0  0  0  0  0  0  0  0  0  0  0  0
   -7.8420   19.9560  -32.6820 C   0  0  0  0  0  0  0  0  0  0  0  0
   -9.1720   20.1890  -32.3410 C   0  0  0  0  0  0  0  0  0  0  0  0
   -9.4910   21.1740  -31.4130 C   0  0  0  0  0  0  0  0  0  0  0  0
   -8.4850   21.9520  -30.8430 C   0  0  0  0  0  0  0  0  0  0  0  0
   -7.1240   21.7490  -31.1820 C   0  0  0  0  0  0  0  0  0  0  0  0
   -6.1260   22.5520  -30.6660 N   0  0  0  0  0  0  0  0  0  0  0  0
   -6.4910   23.8910  -30.1570 C   0  0  0  0  0  0  0  0  0  0  0  0
   -4.7980   22.2200  -30.8580 C   0  0  0  0  0  0  0  0  0  0  0  0
   -3.7350   22.7600  -30.0680 C   0  0  0  0  0  0  0  0  0  0  0  0
   -3.8900   23.0700  -28.5900 C   0  0  0  0  0  0  0  0  0  0  0  0
   -2.9820   22.2130  -27.8170 N   0  0  0  0  0  0  0  0  0  0  0  0
   -1.9320   22.7640  -27.1330 C   0  0  0  0  0  0  0  0  0  0  0  0
   -1.0300   21.9520  -26.4410 C   0  0  0  0  0  0  0  0  0  0  0  0
   -1.2010   20.5680  -26.4590 C   0  0  0  0  0  0  0  0  0  0  0  0
   -2.2670   20.0140  -27.1660 C   0  0  0  0  0  0  0  0  0  0  0  0
   -3.1530   20.8540  -27.8430 C   0  0  0  0  0  0  0  0  0  0  0  0
   -2.4130   22.6520  -30.5320 C   0  0  0  0  0  0  0  0  0  0  0  0
   -2.1190   21.9130  -31.6700 C   0  0  0  0  0  0  0  0  0  0  0  0
   -3.1210   21.1890  -32.3040 C   0  0  0  0  0  0  0  0  0  0  0  0
   -4.4590   21.2930  -31.8780 C   0  0  0  0  0  0  0  0  0  0  0  0
   -5.9304   16.6104  -30.6250 H   0  0  0  0  0  0  0  0  0  0  0  0
   -5.5411   17.9864  -31.7121 H   0  0  0  0  0  0  0  0  0  0  0  0
   -7.1932   17.2812  -31.7121 H   0  0  0  0  0  0  0  0  0  0  0  0
   -5.0569   15.3012  -32.2604 H   0  0  0  0  0  0  0  0  0  0  0  0
   -6.6157   15.6365  -33.1346 H   0  0  0  0  0  0  0  0  0  0  0  0
   -4.2390   17.3680  -33.4020 H   0  0  0  0  0  0  0  0  0  0  0  0
   -5.6170   17.2344  -35.7336 H   0  0  0  0  0  0  0  0  0  0  0  0
   -6.8999   17.1885  -34.4608 H   0  0  0  0  0  0  0  0  0  0  0  0
   -5.1014   19.4047  -35.2878 H   0  0  0  0  0  0  0  0  0  0  0  0
   -6.7248   19.4308  -34.4745 H   0  0  0  0  0  0  0  0  0  0  0  0
   -4.4040   18.6270  -32.7810 H   0  0  0  0  0  0  0  0  0  0  0  0
   -7.5986   19.1836  -33.4264 H   0  0  0  0  0  0  0  0  0  0  0  0
   -9.9710   19.5931  -32.8063 H   0  0  0  0  0  0  0  0  0  0  0  0
  -10.5404   21.3397  -31.1279 H   0  0  0  0  0  0  0  0  0  0  0  0
   -8.7515   22.7358  -30.1187 H   0  0  0  0  0  0  0  0  0  0  0  0
   -6.4876   23.8786  -29.0571 H   0  0  0  0  0  0  0  0  0  0  0  0
   -5.7620   24.6316  -30.5176 H   0  0  0  0  0  0  0  0  0  0  0  0
   -7.4950   24.1592  -30.5176 H   0  0  0  0  0  0  0  0  0  0  0  0
   -3.6424   24.1262  -28.4081 H   0  0  0  0  0  0  0  0  0  0  0  0
   -4.9284   22.8807  -28.2805 H   0  0  0  0  0  0  0  0  0  0  0  0
   -1.7973   23.8557  -27.1282 H   0  0  0  0  0  0  0  0  0  0  0  0
   -0.1922   22.4004  -25.8868 H   0  0  0  0  0  0  0  0  0  0  0  0
   -0.4984   19.9170  -25.9181 H   0  0  0  0  0  0  0  0  0  0  0  0
   -2.4090   18.9235  -27.1903 H   0  0  0  0  0  0  0  0  0  0  0  0
   -3.9956   20.4210  -28.4021 H   0  0  0  0  0  0  0  0  0  0  0  0
   -1.6023   23.1584  -29.9877 H   0  0  0  0  0  0  0  0  0  0  0  0
   -1.0940   21.9008  -32.0691 H   0  0  0  0  0  0  0  0  0  0  0  0
   -2.8668   20.5287  -33.1462 H   0  0  0  0  0  0  0  0  0  0  0  0
  1  2  1  0
  2  3  1  0
  3  4  1  0
  4  5  1  0
  5  6  1  0
  6  7  1  0
  7  8  2  0
  8  9  1  0
  9 10  2  0
 10 11  1  0
 11 12  2  0
 12 13  1  0
 13 14  2  0
 14 15  1  0
 14 16  1  0
 16 17  2  0
 17 18  1  0
 18 19  1  0
 19 20  2  0
 20 21  1  0
 21 22  2  0
 22 23  1  0
 23 24  2  0
 17 25  1  0
 25 26  2  0
 26 27  1  0
 27 28  2  0
 28  7  1  0
 13  8  1  0
 28 16  1  0
 24 19  1  0
  1 29  1  0
  1 30  1  0
  1 31  1  0
  2 32  1  0
  2 33  1  0
  3 34  1  0
  4 35  1  0
  4 36  1  0
  5 37  1  0
  5 38  1  0
  6 39  1  0
  9 40  1  0
 10 41  1  0
 11 42  1  0
 12 43  1  0
 15 44  1  0
 15 45  1  0
 15 46  1  0
 18 47  1  0
 18 48  1  0
 20 49  1  0
 21 50  1  0
 22 51  1  0
 23 52  1  0
 24 53  1  0
 25 54  1  0
 26 55  1  0
 27 56  1  0
M  CHG  2  14   1  19   1
M  END
>  <UniqueID>  (2) 
2

>  <SMILES>  (2) 
CCNCCNc1c2ccccc2[n+](C)c2c(C[n+]3ccccc3)cccc12

>  <Energy>  (2) 
93.4941883858936

>  <Genealogy>  (2) 
CCNCCNc1c2ccccc2[n+](C)c2c(C[n+]3ccccc3)cccc12 (3D coordinates assigned)
CCNCCNc1c2ccccc2[n+](C)c2c(C[n+]3ccccc3)cccc12 (optimized conformer: 93.4941883858936 kcal/mol)

>  <smiles>  (2) 
CCNCCNc1c2ccccc2[n+](C)c2c(C[n+]3ccccc3)cccc12

>  <score_type>  (2) 
oracle

>  <origin>  (2) 
adg

>  <m_score__min__energy>  (2) 
-8.8100000000000005

>  <m_primary>  (2) 
energy

$$$$
2:0
     RDKit          3D

 56 58  0  0  0  0  0  0  0  0999 V2000
   -6.4870   16.8960  -32.9220 C   0  0  0  0  0  0  0  0  0  0  0  0
   -6.4950   18.0650  -33.8990 C   0  0  0  0  0  0  0  0  0  0  0  0
   -6.5900   19.3470  -33.1820 N   0  0  0  0  0  0  0  0  0  0  0  0
   -7.9460   19.8550  -32.9040 C   0  0  0  0  0  0  0  0  0  0  0  0
   -8.5090   19.2250  -31.6330 C   0  0  0  0  0  0  0  0  0  0  0  0
   -5.3990   20.0710  -32.7550 C   0  0  0  0  0  0  0  0  0  0  0  0
   -4.2950   19.3950  -32.1890 C   0  0  0  0  0  0  0  0  0  0  0  0
   -3.1680   20.0950  -31.7520 C   0  0  0  0  0  0  0  0  0  0  0  0
   -3.1160   21.4920  -31.8430 C   0  0  0  0  0  0  0  0  0  0  0  0
   -1.9260   22.2660  -31.3260 C   0  0  0  0  0  0  0  0  0  0  0  0
   -2.1390   23.0220  -30.0510 N   0  0  2  0  0  0  0  0  0  0  0  0
   -0.9400   23.2020  -29.1730 C   0  0  0  0  0  0  0  0  0  0  0  0
   -0.7840   24.5400  -28.4930 C   0  0  0  0  0  0  0  0  0  0  0  0
   -0.0180   24.8050  -27.3690 C   0  0  0  0  0  0  0  0  0  0  0  0
   -0.0920   26.1680  -27.1770 C   0  0  0  0  0  0  0  0  0  0  0  0
   -0.8800   26.6550  -28.2010 C   0  0  0  0  0  0  0  0  0  0  0  0
   -1.2640   25.6640  -28.9710 O   0  0  0  0  0  0  0  0  0  0  0  0
   -3.4520   22.9020  -29.3420 C   0  0  0  0  0  0  0  0  0  0  0  0
   -4.4700   24.0660  -29.4870 C   0  0  2  0  0  0  0  0  0  0  0  0
   -5.8790   23.5780  -29.8040 C   0  0  0  0  0  0  0  0  0  0  0  0
   -6.4760   24.7380  -30.5620 C   0  0  0  0  0  0  0  0  0  0  0  0
   -5.2940   25.6540  -30.8310 C   0  0  0  0  0  0  0  0  0  0  0  0
   -4.1170   24.9650  -30.4980 O   0  0  0  0  0  0  0  0  0  0  0  0
   -4.1880   22.1730  -32.4370 C   0  0  0  0  0  0  0  0  0  0  0  0
   -5.3120   21.4770  -32.8840 C   0  0  0  0  0  0  0  0  0  0  0  0
   -6.4896   17.2797  -31.8911 H   0  0  0  0  0  0  0  0  0  0  0  0
   -7.3809   16.2760  -33.0848 H   0  0  0  0  0  0  0  0  0  0  0  0
   -5.5847   16.2883  -33.0848 H   0  0  0  0  0  0  0  0  0  0  0  0
   -5.5657   18.0492  -34.4874 H   0  0  0  0  0  0  0  0  0  0  0  0
   -7.3691   17.9656  -34.5594 H   0  0  0  0  0  0  0  0  0  0  0  0
   -7.9035   20.9469  -32.7773 H   0  0  0  0  0  0  0  0  0  0  0  0
   -8.6011   19.5935  -33.7480 H   0  0  0  0  0  0  0  0  0  0  0  0
   -8.0688   19.7176  -30.7535 H   0  0  0  0  0  0  0  0  0  0  0  0
   -9.6017   19.3501  -31.6147 H   0  0  0  0  0  0  0  0  0  0  0  0
   -8.2623   18.1532  -31.6147 H   0  0  0  0  0  0  0  0  0  0  0  0
   -4.3234   18.2998  -32.0909 H   0  0  0  0  0  0  0  0  0  0  0  0
   -2.3133   19.5442  -31.3325 H   0  0  0  0  0  0  0  0  0  0  0  0
   -1.1058   21.5519  -31.1609 H   0  0  0  0  0  0  0  0  0  0  0  0
   -1.7123   23.0275  -32.0905 H   0  0  0  0  0  0  0  0  0  0  0  0
   -2.2380   24.0020  -30.4160 H   0  0  0  0  0  0  0  0  0  0  0  0
   -0.9857   22.4336  -28.3872 H   0  0  0  0  0  0  0  0  0  0  0  0
   -0.0760   23.1226  -29.8492 H   0  0  0  0  0  0  0  0  0  0  0  0
    0.5350   24.0777  -26.7564 H   0  0  0  0  0  0  0  0  0  0  0  0
    0.3806   26.7495  -26.3717 H   0  0  0  0  0  0  0  0  0  0  0  0
   -1.1454   27.7122  -28.3488 H   0  0  0  0  0  0  0  0  0  0  0  0
   -3.9425   21.9906  -29.7146 H   0  0  0  0  0  0  0  0  0  0  0  0
   -3.1876   22.9007  -28.2742 H   0  0  0  0  0  0  0  0  0  0  0  0
   -4.4509   24.5651  -28.5069 H   0  0  0  0  0  0  0  0  0  0  0  0
   -5.8529   22.6708  -30.4255 H   0  0  0  0  0  0  0  0  0  0  0  0
   -6.4547   23.3026  -28.9081 H   0  0  0  0  0  0  0  0  0  0  0  0
   -6.9279   24.3968  -31.5051 H   0  0  0  0  0  0  0  0  0  0  0  0
   -7.2791   25.2393  -30.0019 H   0  0  0  0  0  0  0  0  0  0  0  0
   -5.2737   25.9321  -31.8951 H   0  0  0  0  0  0  0  0  0  0  0  0
   -5.3800   26.5702  -30.2283 H   0  0  0  0  0  0  0  0  0  0  0  0
   -4.1427   23.2661  -32.5518 H   0  0  0  0  0  0  0  0  0  0  0  0
   -6.1437   22.0307  -33.3441 H   0  0  0  0  0  0  0  0  0  0  0  0
  1  2  1  0
  2  3  1  0
  3  4  1  0
  4  5  1  0
  3  6  1  0
  6  7  2  0
  7  8  1  0
  8  9  2  0
  9 10  1  0
 10 11  1  0
 11 12  1  0
 12 13  1  0
 13 14  2  0
 14 15  1  0
 15 16  2  0
 16 17  1  0
 11 18  1  0
 18 19  1  0
 19 20  1  0
 20 21  1  0
 21 22  1  0
 22 23  1  0
  9 24  1  0
 24 25  2  0
 25  6  1  0
 17 13  1  0
 23 19  1  0
  1 26  1  0
  1 27  1  0
  1 28  1  0
  2 29  1  0
  2 30  1  0
  4 31  1  0
  4 32  1  0
  5 33  1  0
  5 34  1  0
  5 35  1  0
  7 36  1  0
  8 37  1  0
 10 38  1  0
 10 39  1  0
 11 40  1  6
 12 41  1  0
 12 42  1  0
 14 43  1  0
 15 44  1  0
 16 45  1  0
 18 46  1  0
 18 47  1  0
 19 48  1  1
 20 49  1  0
 20 50  1  0
 21 51  1  0
 21 52  1  0
 22 53  1  0
 22 54  1  0
 24 55  1  0
 25 56  1  0
M  CHG  1  11   1
M  END
>  <UniqueID>  (3) 
3

>  <SMILES>  (3) 
CCN(CC)c1ccc(C[N@H+](Cc2ccco2)C[C@@H]2CCCO2)cc1

>  <Energy>  (3) 
107.61915464710127

>  <Genealogy>  (3) 
CCN(CC)c1ccc(C[NH+](Cc2ccco2)CC2CCCO2)cc1 (protonated)
CCN(CC)c1ccc(C[N@H+](Cc2ccco2)C[C@@H]2CCCO2)cc1 (chirality)
CCN(CC)c1ccc(C[N@H+](Cc2ccco2)C[C@@H]2CCCO2)cc1 (3D coordinates assigned)
CCN(CC)c1ccc(C[N@H+](Cc2ccco2)C[C@@H]2CCCO2)cc1 (nonaromatic ring conformer: 107.61915464710127 kcal/mol)

>  <smiles>  (3) 
CCN(CC)c1ccc(CN(Cc2ccco2)CC2CCCO2)cc1

>  <score_type>  (3) 
oracle

>  <origin>  (3) 
adg

>  <m_score__min__energy>  (3) 
-7.0199999999999996

>  <m_primary>  (3) 
energy

$$$$
3:0
     RDKit          3D

 50 52  0  0  0  0  0  0  0  0999 V2000
   -6.0630   25.1330  -29.6760 C   0  0  0  0  0  0  0  0  0  0  0  0
   -5.2940   24.9780  -30.9820 C   0  0  0  0  0  0  0  0  0  0  0  0
   -4.0700   24.1800  -30.7490 N   0  0  0  0  0  0  0  0  0  0  0  0
   -3.3850   24.5520  -29.4920 C   0  0  0  0  0  0  0  0  0  0  0  0
   -2.0760   23.7840  -29.3120 C   0  0  0  0  0  0  0  0  0  0  0  0
   -4.2460   22.7220  -30.9790 C   0  0  0  0  0  0  0  0  0  0  0  0
   -3.6060   22.1520  -32.2690 C   0  0  0  0  0  0  0  0  0  0  0  0
   -4.5780   21.9730  -33.3600 N   0  0  0  0  0  0  0  0  0  0  0  0
   -5.6230   21.0480  -32.9590 C   0  0  0  0  0  0  0  0  0  0  0  0
   -6.8990   21.4920  -32.5010 C   0  0  0  0  0  0  0  0  0  0  0  0
   -7.1930   22.8660  -32.3400 C   0  0  0  0  0  0  0  0  0  0  0  0
   -8.4430   23.2870  -31.8940 C   0  0  0  0  0  0  0  0  0  0  0  0
   -9.4280   22.3560  -31.5900 C   0  0  0  0  0  0  0  0  0  0  0  0
   -9.1710   20.9940  -31.7220 C   0  0  0  0  0  0  0  0  0  0  0  0
   -7.9120   20.5260  -32.1750 C   0  0  0  0  0  0  0  0  0  0  0  0
   -7.6530   19.1710  -32.2880 N   0  0  0  0  0  0  0  0  0  0  0  0
   -8.6900   18.1680  -31.9860 C   0  0  0  0  0  0  0  0  0  0  0  0
   -6.3980   18.7730  -32.6570 C   0  0  0  0  0  0  0  0  0  0  0  0
   -5.8040   17.1940  -32.7560 S   0  0  0  0  0  0  0  0  0  0  0  0
   -4.2520   17.6350  -33.2300 C   0  0  0  0  0  0  0  0  0  0  0  0
   -3.1140   16.6900  -33.4180 C   0  0  0  0  0  0  0  0  0  0  0  0
   -4.1690   19.0230  -33.2920 C   0  0  0  0  0  0  0  0  0  0  0  0
   -5.3860   19.6630  -32.9820 C   0  0  0  0  0  0  0  0  0  0  0  0
   -5.3766   24.9946  -28.8277 H   0  0  0  0  0  0  0  0  0  0  0  0
   -6.5064   26.1386  -29.6287 H   0  0  0  0  0  0  0  0  0  0  0  0
   -6.8613   24.3777  -29.6287 H   0  0  0  0  0  0  0  0  0  0  0  0
   -5.9283   24.4670  -31.7213 H   0  0  0  0  0  0  0  0  0  0  0  0
   -5.0138   25.9724  -31.3597 H   0  0  0  0  0  0  0  0  0  0  0  0
   -3.1661   25.6298  -29.5110 H   0  0  0  0  0  0  0  0  0  0  0  0
   -4.0489   24.2989  -28.6522 H   0  0  0  0  0  0  0  0  0  0  0  0
   -1.8673   23.6616  -28.2389 H   0  0  0  0  0  0  0  0  0  0  0  0
   -2.1638   22.7942  -29.7838 H   0  0  0  0  0  0  0  0  0  0  0  0
   -1.2548   24.3435  -29.7838 H   0  0  0  0  0  0  0  0  0  0  0  0
   -3.8048   22.1913  -30.1225 H   0  0  0  0  0  0  0  0  0  0  0  0
   -5.3293   22.5706  -31.0957 H   0  0  0  0  0  0  0  0  0  0  0  0
   -2.8220   22.8452  -32.6077 H   0  0  0  0  0  0  0  0  0  0  0  0
   -3.1979   21.1602  -32.0245 H   0  0  0  0  0  0  0  0  0  0  0  0
   -4.0970   21.6140  -34.2140 H   0  0  0  0  0  0  0  0  0  0  0  0
   -4.9880   22.8880  -33.6440 H   0  0  0  0  0  0  0  0  0  0  0  0
   -6.4210   23.6148  -32.5711 H   0  0  0  0  0  0  0  0  0  0  0  0
   -8.6513   24.3613  -31.7819 H   0  0  0  0  0  0  0  0  0  0  0  0
  -10.4151   22.6961  -31.2436 H   0  0  0  0  0  0  0  0  0  0  0  0
   -9.9586   20.2685  -31.4704 H   0  0  0  0  0  0  0  0  0  0  0  0
   -8.7952   18.0662  -30.8958 H   0  0  0  0  0  0  0  0  0  0  0  0
   -9.6487   18.4902  -32.4184 H   0  0  0  0  0  0  0  0  0  0  0  0
   -8.3999   17.1990  -32.4184 H   0  0  0  0  0  0  0  0  0  0  0  0
   -2.7336   16.3741  -32.4354 H   0  0  0  0  0  0  0  0  0  0  0  0
   -3.4582   15.8084  -33.9786 H   0  0  0  0  0  0  0  0  0  0  0  0
   -2.3107   17.1904  -33.9786 H   0  0  0  0  0  0  0  0  0  0  0  0
   -3.2486   19.5646  -33.5557 H   0  0  0  0  0  0  0  0  0  0  0  0
  1  2  1  0
  2  3  1  0
  3  4  1  0
  4  5  1  0
  3  6  1  0
  6  7  1  0
  7  8  1  0
  8  9  1  0
  9 10  2  0
 10 11  1  0
 11 12  2  0
 12 13  1  0
 13 14  2  0
 14 15  1  0
 15 16  2  0
 16 17  1  0
 16 18  1  0
 18 19  1  0
 19 20  1  0
 20 21  1  0
 20 22  2  0
 22 23  1  0
 23  9  1  0
 15 10  1  0
 23 18  2  0
  1 24  1  0
  1 25  1  0
  1 26  1  0
  2 27  1  0
  2 28  1  0
  4 29  1  0
  4 30  1  0
  5 31  1  0
  5 32  1  0
  5 33  1  0
  6 34  1  0
  6 35  1  0
  7 36  1  0
  7 37  1  0
  8 38  1  0
  8 39  1  0
 11 40  1  0
 12 41  1  0
 13 42  1  0
 14 43  1  0
 17 44  1  0
 17 45  1  0
 17 46  1  0
 21 47  1  0
 21 48  1  0
 21 49  1  0
 22 50  1  0
M  CHG  2   8   1  16   1
M  END
>  <UniqueID>  (4) 
4

>  <SMILES>  (4) 
CCN(CC)CC[NH2+]c1c2ccccc2[n+](C)c2sc(C)cc12

>  <Energy>  (4) 
97.79293865898983

>  <Genealogy>  (4) 
CCN(CC)CC[NH2+]c1c2ccccc2[n+](C)c2sc(C)cc12 (protonated)
CCN(CC)CC[NH2+]c1c2ccccc2[n+](C)c2sc(C)cc12 (3D coordinates assigned)
CCN(CC)CC[NH2+]c1c2ccccc2[n+](C)c2sc(C)cc12 (optimized conformer: 97.79293865898983 kcal/mol)

>  <smiles>  (4) 
CCN(CC)CCNc1c2ccccc2[n+](C)c2sc(C)cc12

>  <score_type>  (4) 
oracle

>  <origin>  (4) 
adg

>  <m_score__min__energy>  (4) 
-7.8300000000000001

>  <m_primary>  (4) 
energy

$$$$
4:0
     RDKit          3D

 35 36  0  0  0  0  0  0  0  0999 V2000
   -2.0370   21.5220  -31.7990 C   0  0  0  0  0  0  0  0  0  0  0  0
   -2.2020   22.5210  -30.6620 C   0  0  0  0  0  0  0  0  0  0  0  0
   -3.4820   23.2170  -30.7800 N   0  0  0  0  0  0  0  0  0  0  0  0
   -4.6250   22.7020  -31.2730 C   0  0  0  0  0  0  0  0  0  0  0  0
   -5.6420   23.6360  -31.1620 C   0  0  0  0  0  0  0  0  0  0  0  0
   -7.0850   23.4190  -31.5340 C   0  0  1  0  0  0  0  0  0  0  0  0
   -7.2650   23.5590  -32.9200 O   0  0  0  0  0  0  0  0  0  0  0  0
   -7.5710   22.1080  -31.0620 N   0  0  0  0  0  0  0  0  0  0  0  0
   -8.2410   21.2890  -32.0910 C   0  0  0  0  0  0  0  0  0  0  0  0
   -7.3500   20.1910  -32.6370 C   0  0  0  0  0  0  0  0  0  0  0  0
   -6.1850   20.5510  -33.3370 C   0  0  0  0  0  0  0  0  0  0  0  0
   -5.3310   19.5720  -33.8500 C   0  0  0  0  0  0  0  0  0  0  0  0
   -5.6340   18.2200  -33.6760 C   0  0  0  0  0  0  0  0  0  0  0  0
   -4.8030   17.2710  -34.1740 F   0  0  0  0  0  0  0  0  0  0  0  0
   -6.7900   17.8460  -32.9900 C   0  0  0  0  0  0  0  0  0  0  0  0
   -7.6550   18.8190  -32.4710 C   0  0  0  0  0  0  0  0  0  0  0  0
   -9.0980   18.2680  -31.6250 Cl  0  0  0  0  0  0  0  0  0  0  0  0
   -5.1030   24.7530  -30.5430 C   0  0  0  0  0  0  0  0  0  0  0  0
   -3.7760   24.4520  -30.3280 C   0  0  0  0  0  0  0  0  0  0  0  0
   -2.8580   25.2950  -29.7130 O   0  0  0  0  0  0  0  0  0  0  0  0
   -1.8711   20.5173  -31.3831 H   0  0  0  0  0  0  0  0  0  0  0  0
   -2.9465   21.5171  -32.4177 H   0  0  0  0  0  0  0  0  0  0  0  0
   -1.1742   21.8098  -32.4177 H   0  0  0  0  0  0  0  0  0  0  0  0
   -2.1668   21.9864  -29.7013 H   0  0  0  0  0  0  0  0  0  0  0  0
   -1.3876   23.2587  -30.7128 H   0  0  0  0  0  0  0  0  0  0  0  0
   -4.7341   21.6936  -31.6988 H   0  0  0  0  0  0  0  0  0  0  0  0
   -7.6851   24.1915  -31.0309 H   0  0  0  0  0  0  0  0  0  0  0  0
   -6.3720   23.4420  -33.3360 H   0  0  0  0  0  0  0  0  0  0  0  0
   -8.2070   22.2520  -30.2440 H   0  0  0  0  0  0  0  0  0  0  0  0
   -9.1353   20.8279  -31.6464 H   0  0  0  0  0  0  0  0  0  0  0  0
   -8.4994   21.9540  -32.9283 H   0  0  0  0  0  0  0  0  0  0  0  0
   -5.9437   21.6143  -33.4821 H   0  0  0  0  0  0  0  0  0  0  0  0
   -4.4196   19.8661  -34.3912 H   0  0  0  0  0  0  0  0  0  0  0  0
   -7.0242   16.7797  -32.8555 H   0  0  0  0  0  0  0  0  0  0  0  0
   -5.6253   25.6844  -30.2789 H   0  0  0  0  0  0  0  0  0  0  0  0
  1  2  1  0
  2  3  1  0
  3  4  1  0
  4  5  2  0
  5  6  1  0
  6  7  1  0
  6  8  1  0
  8  9  1  0
  9 10  1  0
 10 11  2  0
 11 12  1  0
 12 13  2  0
 13 14  1  0
 13 15  1  0
 15 16  2  0
 16 17  1  0
  5 18  1  0
 18 19  2  0
 19 20  1  0
 19  3  1  0
 16 10  1  0
  1 21  1  0
  1 22  1  0
  1 23  1  0
  2 24  1  0
  2 25  1  0
  4 26  1  0
  6 27  1  1
  7 28  1  0
  8 29  1  0
  9 30  1  0
  9 31  1  0
 11 32  1  0
 12 33  1  0
 15 34  1  0
 18 35  1  0
M  CHG  1  20  -1
M  END
>  <UniqueID>  (5) 
5

>  <SMILES>  (5) 
CCn1cc([C@@H](O)NCc2ccc(F)cc2Cl)cc1[O-]

>  <Energy>  (5) 
62.20254785884093

>  <Genealogy>  (5) 
CCn1cc(C(O)NCc2ccc(F)cc2Cl)cc1[O-] (protonated)
CCn1cc([C@@H](O)NCc2ccc(F)cc2Cl)cc1[O-] (chirality)
CCn1cc([C@@H](O)NCc2ccc(F)cc2Cl)cc1[O-] (3D coordinates assigned)
CCn1cc([C@@H](O)NCc2ccc(F)cc2Cl)cc1[O-] (optimized conformer: 62.20254785884093 kcal/mol)

>  <smiles>  (5) 
CCn1cc(C(O)NCc2ccc(F)cc2Cl)cc1O

>  <score_type>  (5) 
oracle

>  <origin>  (5) 
adg

>  <m_score__min__energy>  (5) 
-9.9199999999999999

>  <m_primary>  (5) 
energy

$$$$
5:0
     RDKit          3D

 38 41  0  0  0  0  0  0  0  0999 V2000
   -4.5510   24.0300  -30.2020 C   0  0  0  0  0  0  0  0  0  0  0  0
   -4.1120   23.2530  -31.0110 C   0  0  0  0  0  0  0  0  0  0  0  0
   -3.5760   22.3070  -31.9960 C   0  0  0  0  0  0  0  0  0  0  0  0
   -4.5470   22.0700  -33.0620 N   0  0  0  0  0  0  0  0  0  0  0  0
   -5.6280   21.1530  -32.8620 C   0  0  0  0  0  0  0  0  0  0  0  0
   -5.4520   19.7950  -33.0920 C   0  0  0  0  0  0  0  0  0  0  0  0
   -6.4910   18.8940  -32.9270 C   0  0  0  0  0  0  0  0  0  0  0  0
   -7.7040   19.2830  -32.4130 N   0  0  0  0  0  0  0  0  0  0  0  0
   -8.6670   18.2690  -31.9540 C   0  0  0  0  0  0  0  0  0  0  0  0
   -7.9600   20.6400  -32.2760 C   0  0  0  0  0  0  0  0  0  0  0  0
   -9.2520   21.1260  -31.9630 C   0  0  0  0  0  0  0  0  0  0  0  0
   -9.4840   22.4920  -31.7950 C   0  0  0  0  0  0  0  0  0  0  0  0
   -8.4470   23.4070  -31.9470 C   0  0  0  0  0  0  0  0  0  0  0  0
   -7.1700   22.9670  -32.2900 C   0  0  0  0  0  0  0  0  0  0  0  0
   -6.9100   21.5960  -32.4720 C   0  0  0  0  0  0  0  0  0  0  0  0
   -5.9950   17.5490  -33.3080 C   0  0  0  0  0  0  0  0  0  0  0  0
   -6.6620   16.3350  -33.5280 C   0  0  0  0  0  0  0  0  0  0  0  0
   -5.9200   15.2270  -33.9700 C   0  0  0  0  0  0  0  0  0  0  0  0
   -4.5420   15.3460  -34.2300 C   0  0  0  0  0  0  0  0  0  0  0  0
   -3.8960   16.5810  -34.0720 C   0  0  0  0  0  0  0  0  0  0  0  0
   -4.6460   17.6650  -33.6200 C   0  0  0  0  0  0  0  0  0  0  0  0
   -4.2550   19.0580  -33.4900 C   0  0  0  0  0  0  0  0  0  0  0  0
   -3.1030   19.5290  -33.6740 O   0  0  0  0  0  0  0  0  0  0  0  0
   -4.9519   24.7396  -29.4632 H   0  0  0  0  0  0  0  0  0  0  0  0
   -2.6549   22.7216  -32.4315 H   0  0  0  0  0  0  0  0  0  0  0  0
   -3.3624   21.3529  -31.4920 H   0  0  0  0  0  0  0  0  0  0  0  0
   -4.3700   22.4200  -34.0320 H   0  0  0  0  0  0  0  0  0  0  0  0
   -8.6842   18.2509  -30.8543 H   0  0  0  0  0  0  0  0  0  0  0  0
   -9.6695   18.5176  -32.3323 H   0  0  0  0  0  0  0  0  0  0  0  0
   -8.3670   17.2806  -32.3323 H   0  0  0  0  0  0  0  0  0  0  0  0
  -10.0853   20.4168  -31.8505 H   0  0  0  0  0  0  0  0  0  0  0  0
  -10.4934   22.8475  -31.5407 H   0  0  0  0  0  0  0  0  0  0  0  0
   -8.6355   24.4802  -31.7961 H   0  0  0  0  0  0  0  0  0  0  0  0
   -6.3581   23.6978  -32.4196 H   0  0  0  0  0  0  0  0  0  0  0  0
   -7.7456   16.2520  -33.3577 H   0  0  0  0  0  0  0  0  0  0  0  0
   -6.4204   14.2581  -34.1141 H   0  0  0  0  0  0  0  0  0  0  0  0
   -3.9689   14.4665  -34.5586 H   0  0  0  0  0  0  0  0  0  0  0  0
   -2.8253   16.6910  -34.2990 H   0  0  0  0  0  0  0  0  0  0  0  0
  1  2  3  0
  2  3  1  0
  3  4  1  0
  4  5  1  0
  5  6  2  0
  6  7  1  0
  7  8  2  0
  8  9  1  0
  8 10  1  0
 10 11  2  0
 11 12  1  0
 12 13  2  0
 13 14  1  0
 14 15  2  0
  7 16  1  0
 16 17  2  0
 17 18  1  0
 18 19  2  0
 19 20  1  0
 20 21  2  0
 21 22  1  0
 22 23  2  0
 15  5  1  0
 21 16  1  0
 22  6  1  0
 15 10  1  0
  1 24  1  0
  3 25  1  0
  3 26  1  0
  4 27  1  0
  9 28  1  0
  9 29  1  0
  9 30  1  0
 11 31  1  0
 12 32  1  0
 13 33  1  0
 14 34  1  0
 17 35  1  0
 18 36  1  0
 19 37  1  0
 20 38  1  0
M  CHG  1   8   1
M  END
>  <UniqueID>  (6) 
6

>  <SMILES>  (6) 
C#CCNc1c2c([n+](C)c3ccccc13)-c1ccccc1C2=O

>  <Energy>  (6) 
94.51885803807339

>  <Genealogy>  (6) 
C#CCNc1c2c([n+](C)c3ccccc13)-c1ccccc1C2=O (3D coordinates assigned)
C#CCNc1c2c([n+](C)c3ccccc13)-c1ccccc1C2=O (nonaromatic ring conformer: 94.51885803807339 kcal/mol)

>  <smiles>  (6) 
C#CCNc1c2c([n+](C)c3ccccc13)-c1ccccc1C2=O

>  <score_type>  (6) 
oracle

>  <origin>  (6) 
adg

>  <m_score__min__energy>  (6) 
-8.0999999999999996

>  <m_primary>  (6) 
energy

$$$$
6:0
     RDKit          3D

 43 45  0  0  0  0  0  0  0  0999 V2000
   -4.5690   21.3700  -31.3200 C   0  0  0  0  0  0  0  0  0  0  0  0
   -4.1380   22.8170  -31.5300 C   0  0  0  0  0  0  0  0  0  0  0  0
   -5.0090   23.7260  -30.7760 N   0  0  0  0  0  0  0  0  0  0  0  0
   -6.2880   24.0540  -31.0500 C   0  0  0  0  0  0  0  0  0  0  0  0
   -7.2790   23.3320  -32.3630 S   0  0  0  0  0  0  0  0  0  0  0  0
   -8.4770   22.5000  -31.2540 C   0  0  0  0  0  0  0  0  0  0  0  0
   -9.2020   21.3450  -31.9430 C   0  0  0  0  0  0  0  0  0  0  0  0
   -8.5670   20.1120  -31.6160 O   0  0  0  0  0  0  0  0  0  0  0  0
   -7.7200   19.3950  -32.4750 C   0  0  0  0  0  0  0  0  0  0  0  0
   -6.9100   20.0230  -33.4380 C   0  0  0  0  0  0  0  0  0  0  0  0
   -6.0600   19.2630  -34.2470 C   0  0  0  0  0  0  0  0  0  0  0  0
   -6.0080   17.8630  -34.1060 C   0  0  0  0  0  0  0  0  0  0  0  0
   -5.1680   17.0570  -34.8890 O   0  0  0  0  0  0  0  0  0  0  0  0
   -3.7570   16.9640  -34.7180 C   0  0  0  0  0  0  0  0  0  0  0  0
   -6.8240   17.2430  -33.1530 C   0  0  0  0  0  0  0  0  0  0  0  0
   -7.6770   18.0020  -32.3480 C   0  0  0  0  0  0  0  0  0  0  0  0
   -6.7510   24.9950  -30.2080 N   0  0  0  0  0  0  0  0  0  0  0  0
   -5.7650   25.2820  -29.3730 N   0  0  0  0  0  0  0  0  0  0  0  0
   -4.7110   24.5160  -29.7210 C   0  0  0  0  0  0  0  0  0  0  0  0
   -3.4250   24.5480  -28.9990 C   0  0  0  0  0  0  0  0  0  0  0  0
   -3.1160   23.7970  -27.8830 C   0  0  0  0  0  0  0  0  0  0  0  0
   -1.8200   24.1300  -27.5550 C   0  0  0  0  0  0  0  0  0  0  0  0
   -1.4180   25.0630  -28.4880 C   0  0  0  0  0  0  0  0  0  0  0  0
   -2.3950   25.2910  -29.3330 O   0  0  0  0  0  0  0  0  0  0  0  0
   -4.6319   21.1589  -30.2423 H   0  0  0  0  0  0  0  0  0  0  0  0
   -5.5538   21.2099  -31.7831 H   0  0  0  0  0  0  0  0  0  0  0  0
   -3.8323   20.6971  -31.7831 H   0  0  0  0  0  0  0  0  0  0  0  0
   -3.1008   22.9397  -31.1848 H   0  0  0  0  0  0  0  0  0  0  0  0
   -4.2119   23.0590  -32.6005 H   0  0  0  0  0  0  0  0  0  0  0  0
   -7.9361   22.1069  -30.3806 H   0  0  0  0  0  0  0  0  0  0  0  0
   -9.2329   23.2425  -30.9587 H   0  0  0  0  0  0  0  0  0  0  0  0
  -10.2485   21.3175  -31.6052 H   0  0  0  0  0  0  0  0  0  0  0  0
   -9.1676   21.4932  -33.0324 H   0  0  0  0  0  0  0  0  0  0  0  0
   -6.9454   21.1162  -33.5551 H   0  0  0  0  0  0  0  0  0  0  0  0
   -5.4287   19.7612  -34.9974 H   0  0  0  0  0  0  0  0  0  0  0  0
   -3.5180   16.9482  -33.6444 H   0  0  0  0  0  0  0  0  0  0  0  0
   -3.3907   16.0398  -35.1888 H   0  0  0  0  0  0  0  0  0  0  0  0
   -3.2726   17.8322  -35.1888 H   0  0  0  0  0  0  0  0  0  0  0  0
   -6.7935   16.1496  -33.0369 H   0  0  0  0  0  0  0  0  0  0  0  0
   -8.3195   17.5010  -31.6089 H   0  0  0  0  0  0  0  0  0  0  0  0
   -3.7693   23.0808  -27.3631 H   0  0  0  0  0  0  0  0  0  0  0  0
   -1.2263   23.7325  -26.7187 H   0  0  0  0  0  0  0  0  0  0  0  0
   -0.4286   25.5428  -28.5187 H   0  0  0  0  0  0  0  0  0  0  0  0
  1  2  1  0
  2  3  1  0
  3  4  1  0
  4  5  1  0
  5  6  1  0
  6  7  1  0
  7  8  1  0
  8  9  1  0
  9 10  2  0
 10 11  1  0
 11 12  2  0
 12 13  1  0
 13 14  1  0
 12 15  1  0
 15 16  2  0
  4 17  2  0
 17 18  1  0
 18 19  2  0
 19 20  1  0
 20 21  2  0
 21 22  1  0
 22 23  2  0
 23 24  1  0
 19  3  1  0
 24 20  1  0
 16  9  1  0
  1 25  1  0
  1 26  1  0
  1 27  1  0
  2 28  1  0
  2 29  1  0
  6 30  1  0
  6 31  1  0
  7 32  1  0
  7 33  1  0
 10 34  1  0
 11 35  1  0
 14 36  1  0
 14 37  1  0
 14 38  1  0
 15 39  1  0
 16 40  1  0
 21 41  1  0
 22 42  1  0
 23 43  1  0
M  END
>  <UniqueID>  (7) 
7

>  <SMILES>  (7) 
CCn1c(SCCOc2ccc(OC)cc2)nnc1-c1ccco1

>  <Energy>  (7) 
93.31035119872884

>  <Genealogy>  (7) 
CCn1c(SCCOc2ccc(OC)cc2)nnc1-c1ccco1 (3D coordinates assigned)
CCn1c(SCCOc2ccc(OC)cc2)nnc1-c1ccco1 (optimized conformer: 93.31035119872884 kcal/mol)

>  <smiles>  (7) 
CCn1c(SCCOc2ccc(OC)cc2)nnc1-c1ccco1

>  <score_type>  (7) 
oracle

>  <origin>  (7) 
adg

>  <m_score__min__energy>  (7) 
-8.0099999999999998

>  <m_primary>  (7) 
energy

$$$$
7:0
     RDKit          3D

 45 47  0  0  0  0  0  0  0  0999 V2000
   -4.4470   18.4380  -32.9170 C   0  0  0  0  0  0  0  0  0  0  0  0
   -5.7900   18.3030  -33.5130 N   0  0  0  0  0  0  0  0  0  0  0  0
   -5.7220   17.3910  -34.6730 C   0  0  0  0  0  0  0  0  0  0  0  0
   -6.7640   17.7940  -32.5200 C   0  0  0  0  0  0  0  0  0  0  0  0
   -8.0500   18.6390  -32.5070 C   0  0  0  0  0  0  0  0  0  0  0  0
   -7.9470   19.7840  -33.4230 N   0  0  0  0  0  0  0  0  0  0  0  0
   -7.4740   20.9370  -32.7120 C   0  0  0  0  0  0  0  0  0  0  0  0
   -6.1370   21.3290  -32.6180 C   0  0  0  0  0  0  0  0  0  0  0  0
   -5.9970   22.5220  -31.8980 C   0  0  0  0  0  0  0  0  0  0  0  0
   -4.8190   23.2050  -31.5960 C   0  0  0  0  0  0  0  0  0  0  0  0
   -3.7140   22.7790  -32.0280 O   0  0  0  0  0  0  0  0  0  0  0  0
   -4.8900   24.3540  -30.8440 N   0  0  0  0  0  0  0  0  0  0  0  0
   -3.7340   25.0570  -30.4570 N   0  0  0  0  0  0  0  0  0  0  0  0
   -2.7380   24.5660  -29.1230 S   0  0  0  0  0  0  0  0  0  0  0  0
   -3.5470   24.6080  -27.8570 O   0  0  0  0  0  0  0  0  0  0  0  0
   -1.5770   25.5090  -28.9930 O   0  0  0  0  0  0  0  0  0  0  0  0
   -2.2010   22.9040  -29.3840 C   0  0  0  0  0  0  0  0  0  0  0  0
   -1.0280   22.6800  -30.1200 C   0  0  0  0  0  0  0  0  0  0  0  0
   -0.5540   21.3790  -30.3180 C   0  0  0  0  0  0  0  0  0  0  0  0
   -1.2450   20.2920  -29.7770 C   0  0  0  0  0  0  0  0  0  0  0  0
   -2.4150   20.5050  -29.0410 C   0  0  0  0  0  0  0  0  0  0  0  0
   -2.8990   21.8040  -28.8450 C   0  0  0  0  0  0  0  0  0  0  0  0
   -4.0380   21.9790  -28.1240 F   0  0  0  0  0  0  0  0  0  0  0  0
   -6.1080   24.8550  -30.4570 C   0  0  0  0  0  0  0  0  0  0  0  0
   -7.2630   24.1980  -30.7600 N   0  0  0  0  0  0  0  0  0  0  0  0
   -7.1950   23.0460  -31.4640 C   0  0  0  0  0  0  0  0  0  0  0  0
   -8.4770   22.0730  -31.9410 S   0  0  0  0  0  0  0  0  0  0  0  0
   -4.5301   18.4296  -31.8202 H   0  0  0  0  0  0  0  0  0  0  0  0
   -3.8150   17.5989  -33.2433 H   0  0  0  0  0  0  0  0  0  0  0  0
   -3.9947   19.3861  -33.2433 H   0  0  0  0  0  0  0  0  0  0  0  0
   -5.6446   16.3525  -34.3189 H   0  0  0  0  0  0  0  0  0  0  0  0
   -6.6311   17.5039  -35.2820 H   0  0  0  0  0  0  0  0  0  0  0  0
   -4.8397   17.6375  -35.2820 H   0  0  0  0  0  0  0  0  0  0  0  0
   -7.0217   16.7548  -32.7723 H   0  0  0  0  0  0  0  0  0  0  0  0
   -6.3028   17.8521  -31.5231 H   0  0  0  0  0  0  0  0  0  0  0  0
   -8.8963   18.0080  -32.8162 H   0  0  0  0  0  0  0  0  0  0  0  0
   -8.2024   19.0230  -31.4875 H   0  0  0  0  0  0  0  0  0  0  0  0
   -7.2730   19.5680  -34.1940 H   0  0  0  0  0  0  0  0  0  0  0  0
   -8.8830   19.9960  -33.8380 H   0  0  0  0  0  0  0  0  0  0  0  0
   -5.2971   20.7695  -33.0557 H   0  0  0  0  0  0  0  0  0  0  0  0
   -0.4775   23.5328  -30.5440 H   0  0  0  0  0  0  0  0  0  0  0  0
    0.3640   21.2115  -30.9004 H   0  0  0  0  0  0  0  0  0  0  0  0
   -0.8692   19.2695  -29.9298 H   0  0  0  0  0  0  0  0  0  0  0  0
   -2.9572   19.6483  -28.6143 H   0  0  0  0  0  0  0  0  0  0  0  0
   -6.1524   25.7994  -29.8948 H   0  0  0  0  0  0  0  0  0  0  0  0
  1  2  1  0
  2  3  1  0
  2  4  1  0
  4  5  1  0
  5  6  1  0
  6  7  1  0
  7  8  2  0
  8  9  1  0
  9 10  1  0
 10 11  2  0
 10 12  1  0
 12 13  1  0
 13 14  1  0
 14 15  2  0
 14 16  2  0
 14 17  1  0
 17 18  2  0
 18 19  1  0
 19 20  2  0
 20 21  1  0
 21 22  2  0
 22 23  1  0
 12 24  1  0
 24 25  2  0
 25 26  1  0
 26 27  1  0
 27  7  1  0
 26  9  2  0
 22 17  1  0
  1 28  1  0
  1 29  1  0
  1 30  1  0
  3 31  1  0
  3 32  1  0
  3 33  1  0
  4 34  1  0
  4 35  1  0
  5 36  1  0
  5 37  1  0
  6 38  1  0
  6 39  1  0
  8 40  1  0
 18 41  1  0
 19 42  1  0
 20 43  1  0
 21 44  1  0
 24 45  1  0
M  CHG  2   6   1  13  -1
M  END
>  <UniqueID>  (8) 
8

>  <SMILES>  (8) 
CN(C)CC[NH2+]c1cc2c(=O)n([N-]S(=O)(=O)c3ccccc3F)cnc2s1

>  <Energy>  (8) 
88.60197715049843

>  <Genealogy>  (8) 
CN(C)CC[NH2+]c1cc2c(=O)n([N-]S(=O)(=O)c3ccccc3F)cnc2s1 (protonated)
CN(C)CC[NH2+]c1cc2c(=O)n([N-]S(=O)(=O)c3ccccc3F)cnc2s1 (3D coordinates assigned)
CN(C)CC[NH2+]c1cc2c(=O)n([N-]S(=O)(=O)c3ccccc3F)cnc2s1 (optimized conformer: 88.60197715049843 kcal/mol)

>  <smiles>  (8) 
CN(C)CCNc1cc2c(=O)n(NS(=O)(=O)c3ccccc3F)cnc2s1

>  <score_type>  (8) 
oracle

>  <origin>  (8) 
adg

>  <m_score__min__energy>  (8) 
-9.7100000000000009

>  <m_primary>  (8) 
energy

$$$$
8:0
     RDKit          3D

 67 70  0  0  0  0  0  0  0  0999 V2000
   -6.8590   25.2780  -29.6680 Cl  0  0  0  0  0  0  0  0  0  0  0  0
   -5.2800   24.5180  -29.6560 C   0  0  0  0  0  0  0  0  0  0  0  0
   -4.6110   24.3080  -28.4460 C   0  0  0  0  0  0  0  0  0  0  0  0
   -3.3500   23.7080  -28.4360 C   0  0  0  0  0  0  0  0  0  0  0  0
   -2.7370   23.3250  -29.6410 C   0  0  0  0  0  0  0  0  0  0  0  0
   -1.3730   22.6750  -29.6310 C   0  0  0  0  0  0  0  0  0  0  0  0
   -1.3370   21.3580  -30.3070 N   0  0  0  0  0  0  0  0  0  0  0  0
   -2.4550   20.4400  -30.0180 C   0  0  0  0  0  0  0  0  0  0  0  0
   -3.5360   20.4480  -31.1130 C   0  0  0  0  0  0  0  0  0  0  0  0
   -2.9780   20.2830  -32.4740 N   0  0  0  0  0  0  0  0  0  0  0  0
   -2.4300   18.9270  -32.7480 C   0  0  0  0  0  0  0  0  0  0  0  0
   -2.7270   18.4450  -34.1810 C   0  0  0  0  0  0  0  0  0  0  0  0
   -4.2350   18.2740  -34.4890 C   0  0  0  0  0  0  0  0  0  0  0  0
   -5.1730   18.8740  -33.5060 N   0  0  0  0  0  0  0  0  0  0  0  0
   -5.5650   17.9820  -32.3960 C   0  0  0  0  0  0  0  0  0  0  0  0
   -5.7100   16.5650  -32.8870 C   0  0  0  0  0  0  0  0  0  0  0  0
   -4.7980   15.5720  -32.4910 C   0  0  0  0  0  0  0  0  0  0  0  0
   -4.9250   14.2670  -32.9790 C   0  0  0  0  0  0  0  0  0  0  0  0
   -5.9600   13.9470  -33.8610 C   0  0  0  0  0  0  0  0  0  0  0  0
   -6.8700   14.9290  -34.2590 C   0  0  0  0  0  0  0  0  0  0  0  0
   -6.7460   16.2350  -33.7760 C   0  0  0  0  0  0  0  0  0  0  0  0
   -6.2990   19.6150  -34.1180 C   0  0  0  0  0  0  0  0  0  0  0  0
   -7.0890   20.3000  -33.0370 C   0  0  0  0  0  0  0  0  0  0  0  0
   -6.5320   21.3670  -32.3120 C   0  0  0  0  0  0  0  0  0  0  0  0
   -7.2590   21.9740  -31.2830 C   0  0  0  0  0  0  0  0  0  0  0  0
   -8.5420   21.5160  -30.9670 C   0  0  0  0  0  0  0  0  0  0  0  0
   -9.1010   20.4520  -31.6800 C   0  0  0  0  0  0  0  0  0  0  0  0
   -8.3790   19.8440  -32.7110 C   0  0  0  0  0  0  0  0  0  0  0  0
   -1.9810   21.3400  -32.7370 C   0  0  0  0  0  0  0  0  0  0  0  0
   -0.8440   21.3500  -31.6990 C   0  0  0  0  0  0  0  0  0  0  0  0
   -3.4250   23.5150  -30.8500 C   0  0  0  0  0  0  0  0  0  0  0  0
   -4.6860   24.1170  -30.8580 C   0  0  0  0  0  0  0  0  0  0  0  0
   -5.0793   24.6163  -27.4996 H   0  0  0  0  0  0  0  0  0  0  0  0
   -2.8341   23.5344  -27.4801 H   0  0  0  0  0  0  0  0  0  0  0  0
   -0.6647   23.3459  -30.1392 H   0  0  0  0  0  0  0  0  0  0  0  0
   -1.1060   22.5035  -28.5778 H   0  0  0  0  0  0  0  0  0  0  0  0
   -2.0559   19.4190  -29.9265 H   0  0  0  0  0  0  0  0  0  0  0  0
   -2.9282   20.7802  -29.0851 H   0  0  0  0  0  0  0  0  0  0  0  0
   -4.2381   19.6237  -30.9192 H   0  0  0  0  0  0  0  0  0  0  0  0
   -4.0351   21.4276  -31.0772 H   0  0  0  0  0  0  0  0  0  0  0  0
   -3.7630   20.4470  -33.1500 H   0  0  0  0  0  0  0  0  0  0  0  0
   -1.3398   18.9521  -32.6039 H   0  0  0  0  0  0  0  0  0  0  0  0
   -2.9156   18.2255  -32.0537 H   0  0  0  0  0  0  0  0  0  0  0  0
   -2.3113   19.1798  -34.8861 H   0  0  0  0  0  0  0  0  0  0  0  0
   -2.2668   17.4512  -34.2839 H   0  0  0  0  0  0  0  0  0  0  0  0
   -4.4329   18.7353  -35.4678 H   0  0  0  0  0  0  0  0  0  0  0  0
   -4.4233   17.1908  -34.4552 H   0  0  0  0  0  0  0  0  0  0  0  0
   -4.7932   18.0171  -31.6130 H   0  0  0  0  0  0  0  0  0  0  0  0
   -6.5303   18.3197  -31.9907 H   0  0  0  0  0  0  0  0  0  0  0  0
   -3.9826   15.8212  -31.7960 H   0  0  0  0  0  0  0  0  0  0  0  0
   -4.2091   13.4920  -32.6678 H   0  0  0  0  0  0  0  0  0  0  0  0
   -6.0584   12.9200  -34.2426 H   0  0  0  0  0  0  0  0  0  0  0  0
   -7.6847   14.6746  -34.9529 H   0  0  0  0  0  0  0  0  0  0  0  0
   -7.4625   17.0070  -34.0934 H   0  0  0  0  0  0  0  0  0  0  0  0
   -5.9066   20.3666  -34.8188 H   0  0  0  0  0  0  0  0  0  0  0  0
   -6.9493   18.9140  -34.6618 H   0  0  0  0  0  0  0  0  0  0  0  0
   -5.5209   21.7260  -32.5546 H   0  0  0  0  0  0  0  0  0  0  0  0
   -6.8212   22.8126  -30.7216 H   0  0  0  0  0  0  0  0  0  0  0  0
   -9.1118   21.9938  -30.1564 H   0  0  0  0  0  0  0  0  0  0  0  0
  -10.1101   20.0926  -31.4297 H   0  0  0  0  0  0  0  0  0  0  0  0
   -8.8213   19.0058  -33.2694 H   0  0  0  0  0  0  0  0  0  0  0  0
   -1.5468   21.1751  -33.7341 H   0  0  0  0  0  0  0  0  0  0  0  0
   -2.4976   22.3092  -32.6759 H   0  0  0  0  0  0  0  0  0  0  0  0
   -0.2255   20.4525  -31.8472 H   0  0  0  0  0  0  0  0  0  0  0  0
   -0.2670   22.2742  -31.8502 H   0  0  0  0  0  0  0  0  0  0  0  0
   -2.9689   23.1882  -31.7961 H   0  0  0  0  0  0  0  0  0  0  0  0
   -5.2126   24.2760  -31.8106 H   0  0  0  0  0  0  0  0  0  0  0  0
  1  2  1  0
  2  3  2  0
  3  4  1  0
  4  5  2  0
  5  6  1  0
  6  7  1  0
  7  8  1  0
  8  9  1  0
  9 10  1  0
 10 11  1  0
 11 12  1  0
 12 13  1  0
 13 14  1  0
 14 15  1  0
 15 16  1  0
 16 17  2  0
 17 18  1  0
 18 19  2  0
 19 20  1  0
 20 21  2  0
 14 22  1  0
 22 23  1  0
 23 24  2  0
 24 25  1  0
 25 26  2  0
 26 27  1  0
 27 28  2  0
 10 29  1  0
 29 30  1  0
  5 31  1  0
 31 32  2  0
 32  2  1  0
 30  7  1  0
 21 16  1  0
 28 23  1  0
  3 33  1  0
  4 34  1  0
  6 35  1  0
  6 36  1  0
  8 37  1  0
  8 38  1  0
  9 39  1  0
  9 40  1  0
 10 41  1  0
 11 42  1  0
 11 43  1  0
 12 44  1  0
 12 45  1  0
 13 46  1  0
 13 47  1  0
 15 48  1  0
 15 49  1  0
 17 50  1  0
 18 51  1  0
 19 52  1  0
 20 53  1  0
 21 54  1  0
 22 55  1  0
 22 56  1  0
 24 57  1  0
 25 58  1  0
 26 59  1  0
 27 60  1  0
 28 61  1  0
 29 62  1  0
 29 63  1  0
 30 64  1  0
 30 65  1  0
 31 66  1  0
 32 67  1  0
M  CHG  1  10   1
M  END
>  <UniqueID>  (9) 
9

>  <SMILES>  (9) 
Clc1ccc(CN2CC[NH+](CCCN(Cc3ccccc3)Cc3ccccc3)CC2)cc1

>  <Energy>  (9) 
87.02438088866944

>  <Genealogy>  (9) 
Clc1ccc(CN2CC[NH+](CCCN(Cc3ccccc3)Cc3ccccc3)CC2)cc1 (protonated)
Clc1ccc(CN2CC[NH+](CCCN(Cc3ccccc3)Cc3ccccc3)CC2)cc1 (3D coordinates assigned)
Clc1ccc(CN2CC[NH+](CCCN(Cc3ccccc3)Cc3ccccc3)CC2)cc1 (nonaromatic ring conformer: 87.02438088866944 kcal/mol)

>  <smiles>  (9) 
Clc1ccc(CN2CCN(CCCN(Cc3ccccc3)Cc3ccccc3)CC2)cc1

>  <score_type>  (9) 
oracle

>  <origin>  (9) 
adg

>  <m_score__min__energy>  (9) 
-8.9700000000000006

>  <m_primary>  (9) 
energy

$$$$
9:0
     RDKit          3D

 79 83  0  0  0  0  0  0  0  0999 V2000
   -3.9670   24.1170  -27.8820 C   0  0  0  0  0  0  0  0  0  0  0  0
   -4.6240   22.9790  -28.6600 C   0  0  0  0  0  0  0  0  0  0  0  0
   -4.3190   23.0990  -30.1040 N   0  0  0  0  0  0  0  0  0  0  0  0
   -2.8580   23.1660  -30.3570 C   0  0  0  0  0  0  0  0  0  0  0  0
   -2.1440   21.8090  -30.2770 C   0  0  0  0  0  0  0  0  0  0  0  0
   -5.0910   24.2040  -30.7230 C   0  0  0  0  0  0  0  0  0  0  0  0
   -6.4010   23.7140  -31.3670 C   0  0  0  0  0  0  0  0  0  0  0  0
   -6.1920   23.1570  -32.7160 N   0  0  0  0  0  0  0  0  0  0  0  0
   -6.0300   21.7140  -32.6850 C   0  0  0  0  0  0  0  0  0  0  0  0
   -7.1050   20.7930  -32.4860 C   0  0  0  0  0  0  0  0  0  0  0  0
   -8.4360   21.2290  -32.2900 C   0  0  0  0  0  0  0  0  0  0  0  0
   -9.4800   20.3160  -32.1640 C   0  0  0  0  0  0  0  0  0  0  0  0
   -9.2310   18.9520  -32.2400 C   0  0  0  0  0  0  0  0  0  0  0  0
   -7.9320   18.4840  -32.4180 C   0  0  0  0  0  0  0  0  0  0  0  0
   -6.8360   19.3760  -32.5090 C   0  0  0  0  0  0  0  0  0  0  0  0
   -5.5370   18.9060  -32.6440 N   0  0  0  0  0  0  0  0  0  0  0  0
   -5.1920   17.4970  -32.3890 C   0  0  0  0  0  0  0  0  0  0  0  0
   -4.5590   19.8090  -32.9600 C   0  0  0  0  0  0  0  0  0  0  0  0
   -4.7780   21.1660  -32.9520 C   0  0  0  0  0  0  0  0  0  0  0  0
   -3.6770   21.8280  -33.2410 O   0  0  0  0  0  0  0  0  0  0  0  0
   -2.7420   20.9350  -33.4690 C   0  0  0  0  0  0  0  0  0  0  0  0
   -1.4270   21.1870  -33.8420 C   0  0  0  0  0  0  0  0  0  0  0  0
   -0.5890   20.0920  -34.0990 C   0  0  0  0  0  0  0  0  0  0  0  0
   -1.0800   18.7610  -33.9940 C   0  0  0  0  0  0  0  0  0  0  0  0
   -0.2770   17.6370  -34.2550 O   0  0  0  0  0  0  0  0  0  0  0  0
    1.1060   17.5140  -33.9250 C   0  0  0  0  0  0  0  0  0  0  0  0
    1.2980   16.3830  -32.8930 C   0  0  0  0  0  0  0  0  0  0  0  0
    1.2080   16.7700  -31.4440 N   0  0  0  0  0  0  0  0  0  0  0  0
    1.3010   15.4870  -30.6870 C   0  0  0  0  0  0  0  0  0  0  0  0
    2.3990   17.5890  -31.0180 C   0  0  0  0  0  0  0  0  0  0  0  0
    2.2960   19.1230  -31.2180 C   0  0  0  0  0  0  0  0  0  0  0  0
    0.8710   19.6730  -31.1870 C   0  0  0  0  0  0  0  0  0  0  0  0
   -0.0460   18.7450  -30.4090 C   0  0  0  0  0  0  0  0  0  0  0  0
   -0.1300   17.3880  -31.1130 C   0  0  0  0  0  0  0  0  0  0  0  0
   -2.4180   18.5420  -33.6140 C   0  0  0  0  0  0  0  0  0  0  0  0
   -3.2240   19.6500  -33.3210 C   0  0  0  0  0  0  0  0  0  0  0  0
   -4.0734   23.9327  -26.8028 H   0  0  0  0  0  0  0  0  0  0  0  0
   -2.8993   24.1700  -28.1414 H   0  0  0  0  0  0  0  0  0  0  0  0
   -4.4550   25.0681  -28.1414 H   0  0  0  0  0  0  0  0  0  0  0  0
   -4.2421   22.0171  -28.2874 H   0  0  0  0  0  0  0  0  0  0  0  0
   -5.7137   23.0324  -28.5193 H   0  0  0  0  0  0  0  0  0  0  0  0
   -2.7006   23.5801  -31.3638 H   0  0  0  0  0  0  0  0  0  0  0  0
   -2.4281   23.7973  -29.5654 H   0  0  0  0  0  0  0  0  0  0  0  0
   -1.9987   21.5328  -29.2222 H   0  0  0  0  0  0  0  0  0  0  0  0
   -2.7558   21.0428  -30.7757 H   0  0  0  0  0  0  0  0  0  0  0  0
   -1.1661   21.8793  -30.7757 H   0  0  0  0  0  0  0  0  0  0  0  0
   -5.3341   24.9439  -29.9462 H   0  0  0  0  0  0  0  0  0  0  0  0
   -4.4701   24.6439  -31.5173 H   0  0  0  0  0  0  0  0  0  0  0  0
   -6.8387   22.9338  -30.7269 H   0  0  0  0  0  0  0  0  0  0  0  0
   -7.0714   24.5808  -31.4630 H   0  0  0  0  0  0  0  0  0  0  0  0
   -7.0450   23.3750  -33.2830 H   0  0  0  0  0  0  0  0  0  0  0  0
   -5.4140   23.6470  -33.2080 H   0  0  0  0  0  0  0  0  0  0  0  0
   -8.6501   22.3066  -32.2362 H   0  0  0  0  0  0  0  0  0  0  0  0
  -10.5066   20.6770  -32.0035 H   0  0  0  0  0  0  0  0  0  0  0  0
  -10.0639   18.2381  -32.1592 H   0  0  0  0  0  0  0  0  0  0  0  0
   -7.7536   17.4009  -32.4893 H   0  0  0  0  0  0  0  0  0  0  0  0
   -5.1488   17.3206  -31.3041 H   0  0  0  0  0  0  0  0  0  0  0  0
   -5.9571   16.8454  -32.8362 H   0  0  0  0  0  0  0  0  0  0  0  0
   -4.2124   17.2726  -32.8362 H   0  0  0  0  0  0  0  0  0  0  0  0
   -1.0535   22.2176  -33.9332 H   0  0  0  0  0  0  0  0  0  0  0  0
    0.4592   20.2643  -34.3848 H   0  0  0  0  0  0  0  0  0  0  0  0
    1.6791   17.2800  -34.8343 H   0  0  0  0  0  0  0  0  0  0  0  0
    1.4629   18.4619  -33.4959 H   0  0  0  0  0  0  0  0  0  0  0  0
    0.5259   15.6230  -33.0837 H   0  0  0  0  0  0  0  0  0  0  0  0
    2.3313   16.0336  -33.0355 H   0  0  0  0  0  0  0  0  0  0  0  0
    1.2858   15.6964  -29.6072 H   0  0  0  0  0  0  0  0  0  0  0  0
    0.4471   14.8446  -30.9479 H   0  0  0  0  0  0  0  0  0  0  0  0
    2.2387   14.9744  -30.9479 H   0  0  0  0  0  0  0  0  0  0  0  0
    2.5657   17.4029  -29.9467 H   0  0  0  0  0  0  0  0  0  0  0  0
    3.2214   17.2664  -31.6735 H   0  0  0  0  0  0  0  0  0  0  0  0
    2.8706   19.6129  -30.4180 H   0  0  0  0  0  0  0  0  0  0  0  0
    2.6904   19.3341  -32.2229 H   0  0  0  0  0  0  0  0  0  0  0  0
    0.8762   20.6622  -30.7059 H   0  0  0  0  0  0  0  0  0  0  0  0
    0.5002   19.7526  -32.2195 H   0  0  0  0  0  0  0  0  0  0  0  0
    0.3524   18.6053  -29.3933 H   0  0  0  0  0  0  0  0  0  0  0  0
   -1.0510   19.1889  -30.3554 H   0  0  0  0  0  0  0  0  0  0  0  0
   -0.6762   16.6940  -30.4572 H   0  0  0  0  0  0  0  0  0  0  0  0
   -0.6390   17.5642  -32.0721 H   0  0  0  0  0  0  0  0  0  0  0  0
   -2.8225   17.5212  -33.5485 H   0  0  0  0  0  0  0  0  0  0  0  0
  1  2  1  0
  2  3  1  0
  3  4  1  0
  4  5  1  0
  3  6  1  0
  6  7  1  0
  7  8  1  0
  8  9  1  0
  9 10  2  0
 10 11  1  0
 11 12  2  0
 12 13  1  0
 13 14  2  0
 14 15  1  0
 15 16  2  0
 16 17  1  0
 16 18  1  0
 18 19  2  0
 19 20  1  0
 20 21  1  0
 21 22  2  0
 22 23  1  0
 23 24  2  0
 24 25  1  0
 25 26  1  0
 26 27  1  0
 27 28  1  0
 28 29  1  0
 28 30  1  0
 30 31  1  0
 31 32  1  0
 32 33  1  0
 33 34  1  0
 24 35  1  0
 35 36  2  0
 19  9  1  0
 36 21  1  0
 15 10  1  0
 36 18  1  0
 34 28  1  0
  1 37  1  0
  1 38  1  0
  1 39  1  0
  2 40  1  0
  2 41  1  0
  4 42  1  0
  4 43  1  0
  5 44  1  0
  5 45  1  0
  5 46  1  0
  6 47  1  0
  6 48  1  0
  7 49  1  0
  7 50  1  0
  8 51  1  0
  8 52  1  0
 11 53  1  0
 12 54  1  0
 13 55  1  0
 14 56  1  0
 17 57  1  0
 17 58  1  0
 17 59  1  0
 22 60  1  0
 23 61  1  0
 26 62  1  0
 26 63  1  0
 27 64  1  0
 27 65  1  0
 29 66  1  0
 29 67  1  0
 29 68  1  0
 30 69  1  0
 30 70  1  0
 31 71  1  0
 31 72  1  0
 32 73  1  0
 32 74  1  0
 33 75  1  0
 33 76  1  0
 34 77  1  0
 34 78  1  0
 35 79  1  0
M  CHG  3   8   1  16   1  28   1
M  END
>  <UniqueID>  (10) 
10

>  <SMILES>  (10) 
CCN(CC)CC[NH2+]c1c2ccccc2[n+](C)c2c1oc1ccc(OCC[N+]3(C)CCCCC3)cc12

>  <Energy>  (10) 
166.4425441163075

>  <Genealogy>  (10) 
CCN(CC)CC[NH2+]c1c2ccccc2[n+](C)c2c1oc1ccc(OCC[N+]3(C)CCCCC3)cc12 (protonated)
CCN(CC)CC[NH2+]c1c2ccccc2[n+](C)c2c1oc1ccc(OCC[N+]3(C)CCCCC3)cc12 (3D coordinates assigned)
CCN(CC)CC[NH2+]c1c2ccccc2[n+](C)c2c1oc1ccc(OCC[N+]3(C)CCCCC3)cc12 (nonaromatic ring conformer: 166.4425441163075 kcal/mol)

>  <smiles>  (10) 
CCN(CC)CCNc1c2ccccc2[n+](C)c2c1oc1ccc(OCC[N+]3(C)CCCCC3)cc12

>  <score_type>  (10) 
oracle

>  <origin>  (10) 
adg

>  <m_score__min__energy>  (10) 
-7.5800000000000001

>  <m_primary>  (10) 
energy

$$$$
10:0
     RDKit          3D

 55 57  0  0  0  0  0  0  0  0999 V2000
   -1.2630   20.8760  -25.8090 C   0  0  0  0  0  0  0  0  0  0  0  0
   -0.5230   21.1010  -27.1350 C   0  0  0  0  0  0  0  0  0  0  0  0
   -1.1070   20.3890  -28.2990 N   0  0  0  0  0  0  0  0  0  0  0  0
   -2.5520   20.1620  -28.1360 C   0  0  0  0  0  0  0  0  0  0  0  0
   -0.4180   19.1330  -28.6710 C   0  0  0  0  0  0  0  0  0  0  0  0
    1.0340   19.3720  -29.1030 C   0  0  0  0  0  0  0  0  0  0  0  0
    1.0660   19.9140  -30.4080 O   0  0  0  0  0  0  0  0  0  0  0  0
    0.0770   19.3140  -31.2230 C   0  0  0  0  0  0  0  0  0  0  0  0
   -0.8090   20.3940  -31.8530 C   0  0  0  0  0  0  0  0  0  0  0  0
   -0.8120   21.6140  -31.0340 N   0  0  0  0  0  0  0  0  0  0  0  0
   -2.1470   22.1660  -30.9680 C   0  0  0  0  0  0  0  0  0  0  0  0
   -3.1680   21.6040  -31.7500 C   0  0  0  0  0  0  0  0  0  0  0  0
   -4.4920   22.0760  -31.6970 C   0  0  0  0  0  0  0  0  0  0  0  0
   -4.7920   23.1800  -30.8450 C   0  0  0  0  0  0  0  0  0  0  0  0
   -3.7690   23.7090  -30.0360 C   0  0  0  0  0  0  0  0  0  0  0  0
   -2.4650   23.2170  -30.0900 C   0  0  0  0  0  0  0  0  0  0  0  0
   -1.1570   24.0150  -28.9320 Br  0  0  0  0  0  0  0  0  0  0  0  0
   -6.1600   23.8130  -30.6880 C   0  0  0  0  0  0  0  0  0  0  0  0
   -7.0180   23.7730  -31.9470 C   0  0  0  0  0  0  0  0  0  0  0  0
   -7.6590   22.4260  -32.0580 C   0  0  0  0  0  0  0  0  0  0  0  0
   -9.0460   22.2820  -31.8750 C   0  0  0  0  0  0  0  0  0  0  0  0
   -9.6400   21.0200  -31.9600 C   0  0  0  0  0  0  0  0  0  0  0  0
   -8.8560   19.8970  -32.2270 C   0  0  0  0  0  0  0  0  0  0  0  0
   -7.4780   20.0330  -32.4030 C   0  0  0  0  0  0  0  0  0  0  0  0
   -6.8660   21.2930  -32.2960 C   0  0  0  0  0  0  0  0  0  0  0  0
   -5.4560   21.4080  -32.5420 N   0  0  0  0  0  0  0  0  0  0  0  0
   -0.5827   21.0829  -24.9697 H   0  0  0  0  0  0  0  0  0  0  0  0
   -2.1296   21.5513  -25.7535 H   0  0  0  0  0  0  0  0  0  0  0  0
   -1.6070   19.8327  -25.7535 H   0  0  0  0  0  0  0  0  0  0  0  0
   -0.5310   22.1791  -27.3534 H   0  0  0  0  0  0  0  0  0  0  0  0
    0.4902   20.6950  -26.9985 H   0  0  0  0  0  0  0  0  0  0  0  0
   -2.7985   20.1233  -27.0647 H   0  0  0  0  0  0  0  0  0  0  0  0
   -3.1081   20.9838  -28.6107 H   0  0  0  0  0  0  0  0  0  0  0  0
   -2.8293   19.2093  -28.6107 H   0  0  0  0  0  0  0  0  0  0  0  0
   -0.4223   18.4568  -27.8034 H   0  0  0  0  0  0  0  0  0  0  0  0
   -0.9554   18.6943  -29.5247 H   0  0  0  0  0  0  0  0  0  0  0  0
    1.5111   20.0752  -28.4045 H   0  0  0  0  0  0  0  0  0  0  0  0
    1.5756   18.4146  -29.0957 H   0  0  0  0  0  0  0  0  0  0  0  0
    0.5647   18.7327  -32.0194 H   0  0  0  0  0  0  0  0  0  0  0  0
   -0.5463   18.6507  -30.6053 H   0  0  0  0  0  0  0  0  0  0  0  0
   -0.4258   20.6344  -32.8557 H   0  0  0  0  0  0  0  0  0  0  0  0
   -1.8382   20.0110  -31.9164 H   0  0  0  0  0  0  0  0  0  0  0  0
   -0.4580   21.4080  -30.0720 H   0  0  0  0  0  0  0  0  0  0  0  0
   -0.1610   22.3170  -31.4570 H   0  0  0  0  0  0  0  0  0  0  0  0
   -2.9256   20.7695  -32.4245 H   0  0  0  0  0  0  0  0  0  0  0  0
   -4.0037   24.5310  -29.3438 H   0  0  0  0  0  0  0  0  0  0  0  0
   -6.6962   23.2806  -29.8886 H   0  0  0  0  0  0  0  0  0  0  0  0
   -5.9909   24.8748  -30.4557 H   0  0  0  0  0  0  0  0  0  0  0  0
   -7.7964   24.5479  -31.8874 H   0  0  0  0  0  0  0  0  0  0  0  0
   -6.3897   23.9591  -32.8305 H   0  0  0  0  0  0  0  0  0  0  0  0
   -9.6656   23.1661  -31.6642 H   0  0  0  0  0  0  0  0  0  0  0  0
  -10.7252   20.9119  -31.8165 H   0  0  0  0  0  0  0  0  0  0  0  0
   -9.3241   18.9042  -32.2988 H   0  0  0  0  0  0  0  0  0  0  0  0
   -6.8664   19.1466  -32.6272 H   0  0  0  0  0  0  0  0  0  0  0  0
   -5.0770   20.7440  -33.2560 H   0  0  0  0  0  0  0  0  0  0  0  0
  1  2  1  0
  2  3  1  0
  3  4  1  0
  3  5  1  0
  5  6  1  0
  6  7  1  0
  7  8  1  0
  8  9  1  0
  9 10  1  0
 10 11  1  0
 11 12  2  0
 12 13  1  0
 13 14  2  0
 14 15  1  0
 15 16  2  0
 16 17  1  0
 14 18  1  0
 18 19  1  0
 19 20  1  0
 20 21  2  0
 21 22  1  0
 22 23  2  0
 23 24  1  0
 24 25  2  0
 25 26  1  0
 16 11  1  0
 25 20  1  0
 26 13  1  0
  1 27  1  0
  1 28  1  0
  1 29  1  0
  2 30  1  0
  2 31  1  0
  4 32  1  0
  4 33  1  0
  4 34  1  0
  5 35  1  0
  5 36  1  0
  6 37  1  0
  6 38  1  0
  8 39  1  0
  8 40  1  0
  9 41  1  0
  9 42  1  0
 10 43  1  0
 10 44  1  0
 12 45  1  0
 15 46  1  0
 18 47  1  0
 18 48  1  0
 19 49  1  0
 19 50  1  0
 21 51  1  0
 22 52  1  0
 23 53  1  0
 24 54  1  0
 26 55  1  0
M  CHG  1  10   1
M  END
>  <UniqueID>  (11) 
11

>  <SMILES>  (11) 
CCN(C)CCOCC[NH2+]c1cc2c(cc1Br)CCc1ccccc1N2

>  <Energy>  (11) 
73.73413025502084

>  <Genealogy>  (11) 
CCN(C)CCOCC[NH2+]c1cc2c(cc1Br)CCc1ccccc1N2 (protonated)
CCN(C)CCOCC[NH2+]c1cc2c(cc1Br)CCc1ccccc1N2 (3D coordinates assigned)
CCN(C)CCOCC[NH2+]c1cc2c(cc1Br)CCc1ccccc1N2 (nonaromatic ring conformer: 73.73413025502084 kcal/mol)

>  <smiles>  (11) 
CCN(C)CCOCCNc1cc2c(cc1Br)CCc1ccccc1N2

>  <score_type>  (11) 
oracle

>  <origin>  (11) 
adg

>  <m_score__min__energy>  (11) 
-6.7599999999999998

>  <m_primary>  (11) 
energy

$$$$
11:0
     RDKit          3D

 72 76  0  0  0  0  0  0  0  0999 V2000
   -9.0610   20.1420  -31.9740 C   0  0  0  0  0  0  0  0  0  0  0  0
   -7.7380   20.0510  -32.7260 C   0  0  0  0  0  0  0  0  0  0  0  0
   -6.7020   19.4590  -31.8400 N   0  0  0  0  0  0  0  0  0  0  0  0
   -6.8590   17.9940  -31.7010 C   0  0  0  0  0  0  0  0  0  0  0  0
   -6.8580   17.3090  -33.0670 C   0  0  0  0  0  0  0  0  0  0  0  0
   -5.3330   19.7990  -32.2910 C   0  0  0  0  0  0  0  0  0  0  0  0
   -5.2670   21.2440  -32.8110 C   0  0  0  0  0  0  0  0  0  0  0  0
   -5.3360   22.1890  -31.7560 O   0  0  0  0  0  0  0  0  0  0  0  0
   -6.3550   23.1430  -31.9900 C   0  0  0  0  0  0  0  0  0  0  0  0
   -5.8310   24.5350  -31.5920 C   0  0  0  0  0  0  0  0  0  0  0  0
   -4.6220   24.5340  -30.8400 O   0  0  0  0  0  0  0  0  0  0  0  0
   -4.8110   24.5880  -29.4330 C   0  0  0  0  0  0  0  0  0  0  0  0
   -4.5120   23.2520  -28.7110 C   0  0  0  0  0  0  0  0  0  0  0  0
   -4.1210   22.1730  -29.6400 N   0  0  0  0  0  0  0  0  0  0  0  0
   -2.9110   21.4870  -29.2220 C   0  0  0  0  0  0  0  0  0  0  0  0
   -2.7710   21.1380  -27.8640 C   0  0  0  0  0  0  0  0  0  0  0  0
   -1.6930   20.3730  -27.4260 C   0  0  0  0  0  0  0  0  0  0  0  0
   -0.7420   19.9200  -28.3330 C   0  0  0  0  0  0  0  0  0  0  0  0
   -0.8460   20.2510  -29.6900 C   0  0  0  0  0  0  0  0  0  0  0  0
    0.0930   19.7580  -30.5990 C   0  0  0  0  0  0  0  0  0  0  0  0
   -0.0200   20.0620  -31.9650 C   0  0  0  0  0  0  0  0  0  0  0  0
   -1.0050   20.9250  -32.3840 N   0  0  0  0  0  0  0  0  0  0  0  0
   -1.9300   21.4200  -31.5070 C   0  0  0  0  0  0  0  0  0  0  0  0
   -1.9080   21.0670  -30.1450 C   0  0  0  0  0  0  0  0  0  0  0  0
   -1.1540   21.2420  -33.8170 C   0  0  0  0  0  0  0  0  0  0  0  0
    0.2080   21.3660  -34.5060 C   0  0  0  0  0  0  0  0  0  0  0  0
    1.0440   20.1500  -34.2280 C   0  0  0  0  0  0  0  0  0  0  0  0
    1.9630   19.6870  -35.1930 C   0  0  0  0  0  0  0  0  0  0  0  0
    2.7290   18.5700  -34.8800 C   0  0  0  0  0  0  0  0  0  0  0  0
    2.6150   17.9310  -33.6910 C   0  0  0  0  0  0  0  0  0  0  0  0
    1.7320   18.3570  -32.7040 C   0  0  0  0  0  0  0  0  0  0  0  0
    0.9440   19.5090  -32.9610 C   0  0  0  0  0  0  0  0  0  0  0  0
    3.4880   16.8600  -33.6580 O   0  0  0  0  0  0  0  0  0  0  0  0
    4.1980   16.8290  -34.9040 C   0  0  0  0  0  0  0  0  0  0  0  0
    3.6810   17.9370  -35.6550 O   0  0  0  0  0  0  0  0  0  0  0  0
   -8.8688   20.1288  -30.8910 H   0  0  0  0  0  0  0  0  0  0  0  0
   -9.5728   21.0775  -32.2442 H   0  0  0  0  0  0  0  0  0  0  0  0
   -9.6960   19.2854  -32.2442 H   0  0  0  0  0  0  0  0  0  0  0  0
   -7.8652   19.4166  -33.6156 H   0  0  0  0  0  0  0  0  0  0  0  0
   -7.4228   21.0586  -33.0350 H   0  0  0  0  0  0  0  0  0  0  0  0
   -6.0266   17.5988  -31.1002 H   0  0  0  0  0  0  0  0  0  0  0  0
   -7.8215   17.7907  -31.2087 H   0  0  0  0  0  0  0  0  0  0  0  0
   -6.8564   16.2176  -32.9299 H   0  0  0  0  0  0  0  0  0  0  0  0
   -7.7566   17.6069  -33.6272 H   0  0  0  0  0  0  0  0  0  0  0  0
   -5.9603   17.6095  -33.6272 H   0  0  0  0  0  0  0  0  0  0  0  0
   -4.6380   19.6889  -31.4455 H   0  0  0  0  0  0  0  0  0  0  0  0
   -5.0548   19.1190  -33.1097 H   0  0  0  0  0  0  0  0  0  0  0  0
   -4.3199   21.3842  -33.3527 H   0  0  0  0  0  0  0  0  0  0  0  0
   -6.1302   21.4081  -33.4728 H   0  0  0  0  0  0  0  0  0  0  0  0
   -6.6261   23.1407  -33.0561 H   0  0  0  0  0  0  0  0  0  0  0  0
   -7.2450   22.8937  -31.3936 H   0  0  0  0  0  0  0  0  0  0  0  0
   -5.6584   25.1102  -32.5136 H   0  0  0  0  0  0  0  0  0  0  0  0
   -6.5979   24.9749  -30.9375 H   0  0  0  0  0  0  0  0  0  0  0  0
   -4.1441   25.3607  -29.0229 H   0  0  0  0  0  0  0  0  0  0  0  0
   -5.8736   24.8145  -29.2609 H   0  0  0  0  0  0  0  0  0  0  0  0
   -3.6915   23.4148  -27.9966 H   0  0  0  0  0  0  0  0  0  0  0  0
   -5.4365   22.9348  -28.2064 H   0  0  0  0  0  0  0  0  0  0  0  0
   -4.9030   21.4820  -29.7220 H   0  0  0  0  0  0  0  0  0  0  0  0
   -4.0010   22.5870  -30.5940 H   0  0  0  0  0  0  0  0  0  0  0  0
   -3.5255   21.4753  -27.1381 H   0  0  0  0  0  0  0  0  0  0  0  0
   -1.5937   20.1263  -26.3586 H   0  0  0  0  0  0  0  0  0  0  0  0
    0.0959   19.2989  -27.9835 H   0  0  0  0  0  0  0  0  0  0  0  0
    0.9232   19.1299  -30.2437 H   0  0  0  0  0  0  0  0  0  0  0  0
   -2.7065   22.1076  -31.8734 H   0  0  0  0  0  0  0  0  0  0  0  0
   -1.7294   20.4403  -34.3030 H   0  0  0  0  0  0  0  0  0  0  0  0
   -1.6762   22.2060  -33.9060 H   0  0  0  0  0  0  0  0  0  0  0  0
    0.0583   21.4633  -35.5914 H   0  0  0  0  0  0  0  0  0  0  0  0
    0.7270   22.2543  -34.1166 H   0  0  0  0  0  0  0  0  0  0  0  0
    2.0701   20.1942  -36.1632 H   0  0  0  0  0  0  0  0  0  0  0  0
    1.6469   17.8156  -31.7502 H   0  0  0  0  0  0  0  0  0  0  0  0
    5.2787   16.9467  -34.7360 H   0  0  0  0  0  0  0  0  0  0  0  0
    4.0631   15.8736  -35.4322 H   0  0  0  0  0  0  0  0  0  0  0  0
  1  2  1  0
  2  3  1  0
  3  4  1  0
  4  5  1  0
  3  6  1  0
  6  7  1  0
  7  8  1  0
  8  9  1  0
  9 10  1  0
 10 11  1  0
 11 12  1  0
 12 13  1  0
 13 14  1  0
 14 15  1  0
 15 16  2  0
 16 17  1  0
 17 18  2  0
 18 19  1  0
 19 20  2  0
 20 21  1  0
 21 22  2  0
 22 23  1  0
 23 24  2  0
 22 25  1  0
 25 26  1  0
 26 27  1  0
 27 28  2  0
 28 29  1  0
 29 30  2  0
 30 31  1  0
 31 32  2  0
 30 33  1  0
 33 34  1  0
 34 35  1  0
 24 15  1  0
 32 27  1  0
 24 19  1  0
 35 29  1  0
 32 21  1  0
  1 36  1  0
  1 37  1  0
  1 38  1  0
  2 39  1  0
  2 40  1  0
  4 41  1  0
  4 42  1  0
  5 43  1  0
  5 44  1  0
  5 45  1  0
  6 46  1  0
  6 47  1  0
  7 48  1  0
  7 49  1  0
  9 50  1  0
  9 51  1  0
 10 52  1  0
 10 53  1  0
 12 54  1  0
 12 55  1  0
 13 56  1  0
 13 57  1  0
 14 58  1  0
 14 59  1  0
 16 60  1  0
 17 61  1  0
 18 62  1  0
 20 63  1  0
 23 64  1  0
 25 65  1  0
 25 66  1  0
 26 67  1  0
 26 68  1  0
 28 69  1  0
 31 70  1  0
 34 71  1  0
 34 72  1  0
M  CHG  2  14   1  22   1
M  END
>  <UniqueID>  (12) 
12

>  <SMILES>  (12) 
CCN(CC)CCOCCOCC[NH2+]c1cccc2cc3[n+](cc12)CCc1cc2c(cc1-3)OCO2

>  <Energy>  (12) 
121.85842528426377

>  <Genealogy>  (12) 
CCN(CC)CCOCCOCC[NH2+]c1cccc2cc3[n+](cc12)CCc1cc2c(cc1-3)OCO2 (protonated)
CCN(CC)CCOCCOCC[NH2+]c1cccc2cc3[n+](cc12)CCc1cc2c(cc1-3)OCO2 (3D coordinates assigned)
CCN(CC)CCOCCOCC[NH2+]c1cccc2cc3[n+](cc12)CCc1cc2c(cc1-3)OCO2 (nonaromatic ring conformer: 121.85842528426377 kcal/mol)

>  <smiles>  (12) 
CCN(CC)CCOCCOCCNc1cccc2cc3[n+](cc12)CCc1cc2c(cc1-3)OCO2

>  <score_type>  (12) 
oracle

>  <origin>  (12) 
adg

>  <m_score__min__energy>  (12) 
-8.4199999999999999

>  <m_primary>  (12) 
energy

$$$$
12:0
     RDKit          3D

 54 56  0  0  0  0  0  0  0  0999 V2000
   -4.0330   20.5730  -32.8420 C   0  0  0  0  0  0  0  0  0  0  0  0
   -5.2650   21.2470  -33.0770 O   0  0  0  0  0  0  0  0  0  0  0  0
   -6.5290   20.7530  -32.7150 C   0  0  0  0  0  0  0  0  0  0  0  0
   -6.8130   19.3730  -32.7150 C   0  0  0  0  0  0  0  0  0  0  0  0
   -8.0820   18.9110  -32.3570 C   0  0  0  0  0  0  0  0  0  0  0  0
   -9.0780   19.8150  -31.9920 C   0  0  0  0  0  0  0  0  0  0  0  0
   -8.8110   21.1860  -31.9860 C   0  0  0  0  0  0  0  0  0  0  0  0
   -7.5400   21.6670  -32.3440 C   0  0  0  0  0  0  0  0  0  0  0  0
   -7.2590   23.1560  -32.3050 C   0  0  0  0  0  0  0  0  0  0  0  0
   -7.0730   23.6480  -30.9150 N   0  0  0  0  0  0  0  0  0  0  0  0
   -6.3220   24.9390  -30.8910 C   0  0  0  0  0  0  0  0  0  0  0  0
   -5.3400   25.0510  -29.7190 C   0  0  0  0  0  0  0  0  0  0  0  0
   -4.4040   23.9190  -29.7720 N   0  0  0  0  0  0  0  0  0  0  0  0
   -2.9910   24.1150  -29.5300 C   0  0  0  0  0  0  0  0  0  0  0  0
   -2.5380   25.2780  -29.3400 O   0  0  0  0  0  0  0  0  0  0  0  0
   -2.0280   22.9610  -29.5020 C   0  0  0  0  0  0  0  0  0  0  0  0
   -2.6520   21.7980  -28.9580 O   0  0  0  0  0  0  0  0  0  0  0  0
   -1.9840   20.6760  -28.4430 C   0  0  0  0  0  0  0  0  0  0  0  0
   -2.3950   20.0300  -27.2580 C   0  0  0  0  0  0  0  0  0  0  0  0
   -1.6950   18.9200  -26.7810 C   0  0  0  0  0  0  0  0  0  0  0  0
   -0.5830   18.4420  -27.4730 C   0  0  0  0  0  0  0  0  0  0  0  0
   -0.1660   19.0730  -28.6470 C   0  0  0  0  0  0  0  0  0  0  0  0
   -0.8610   20.1960  -29.1380 C   0  0  0  0  0  0  0  0  0  0  0  0
   -0.4700   20.8610  -30.3100 O   0  0  0  0  0  0  0  0  0  0  0  0
   -0.7080   20.3770  -31.6290 C   0  0  0  0  0  0  0  0  0  0  0  0
   -4.9410   22.5870  -30.0880 C   0  0  0  0  0  0  0  0  0  0  0  0
   -6.4770   22.5880  -30.0570 C   0  0  0  0  0  0  0  0  0  0  0  0
   -3.8659   20.4816  -31.7586 H   0  0  0  0  0  0  0  0  0  0  0  0
   -4.0717   19.5704  -33.2929 H   0  0  0  0  0  0  0  0  0  0  0  0
   -3.2096   21.1463  -33.2929 H   0  0  0  0  0  0  0  0  0  0  0  0
   -6.0301   18.6543  -32.9989 H   0  0  0  0  0  0  0  0  0  0  0  0
   -8.2954   17.8319  -32.3632 H   0  0  0  0  0  0  0  0  0  0  0  0
  -10.0755   19.4484  -31.7083 H   0  0  0  0  0  0  0  0  0  0  0  0
   -9.6017   21.8947  -31.6988 H   0  0  0  0  0  0  0  0  0  0  0  0
   -6.3440   23.3605  -32.8802 H   0  0  0  0  0  0  0  0  0  0  0  0
   -8.1246   23.6780  -32.7387 H   0  0  0  0  0  0  0  0  0  0  0  0
   -8.0260   23.8330  -30.5180 H   0  0  0  0  0  0  0  0  0  0  0  0
   -5.7562   25.0306  -31.8299 H   0  0  0  0  0  0  0  0  0  0  0  0
   -7.0629   25.7432  -30.7716 H   0  0  0  0  0  0  0  0  0  0  0  0
   -4.7815   25.9957  -29.7943 H   0  0  0  0  0  0  0  0  0  0  0  0
   -5.8918   25.0339  -28.7676 H   0  0  0  0  0  0  0  0  0  0  0  0
   -1.6928   22.7451  -30.5272 H   0  0  0  0  0  0  0  0  0  0  0  0
   -1.1696   23.2312  -28.8695 H   0  0  0  0  0  0  0  0  0  0  0  0
   -3.2712   20.4026  -26.7072 H   0  0  0  0  0  0  0  0  0  0  0  0
   -2.0218   18.4212  -25.8566 H   0  0  0  0  0  0  0  0  0  0  0  0
   -0.0339   17.5674  -27.0941 H   0  0  0  0  0  0  0  0  0  0  0  0
    0.7101   18.6911  -29.1915 H   0  0  0  0  0  0  0  0  0  0  0  0
   -1.1928   19.3910  -31.5759 H   0  0  0  0  0  0  0  0  0  0  0  0
   -1.3634   21.0795  -32.1647 H   0  0  0  0  0  0  0  0  0  0  0  0
    0.2485   20.2868  -32.1647 H   0  0  0  0  0  0  0  0  0  0  0  0
   -4.6022   22.2920  -31.0921 H   0  0  0  0  0  0  0  0  0  0  0  0
   -4.5769   21.8753  -29.3324 H   0  0  0  0  0  0  0  0  0  0  0  0
   -6.8358   21.6092  -30.4082 H   0  0  0  0  0  0  0  0  0  0  0  0
   -6.7861   22.7896  -29.0207 H   0  0  0  0  0  0  0  0  0  0  0  0
  1  2  1  0
  2  3  1  0
  3  4  2  0
  4  5  1  0
  5  6  2  0
  6  7  1  0
  7  8  2  0
  8  9  1  0
  9 10  1  0
 10 11  1  0
 11 12  1  0
 12 13  1  0
 13 14  1  0
 14 15  2  0
 14 16  1  0
 16 17  1  0
 17 18  1  0
 18 19  2  0
 19 20  1  0
 20 21  2  0
 21 22  1  0
 22 23  2  0
 23 24  1  0
 24 25  1  0
 13 26  1  0
 26 27  1  0
  8  3  1  0
 27 10  1  0
 23 18  1  0
  1 28  1  0
  1 29  1  0
  1 30  1  0
  4 31  1  0
  5 32  1  0
  6 33  1  0
  7 34  1  0
  9 35  1  0
  9 36  1  0
 10 37  1  0
 11 38  1  0
 11 39  1  0
 12 40  1  0
 12 41  1  0
 16 42  1  0
 16 43  1  0
 19 44  1  0
 20 45  1  0
 21 46  1  0
 22 47  1  0
 25 48  1  0
 25 49  1  0
 25 50  1  0
 26 51  1  0
 26 52  1  0
 27 53  1  0
 27 54  1  0
M  CHG  1  10   1
M  END
>  <UniqueID>  (13) 
13

>  <SMILES>  (13) 
COc1ccccc1C[NH+]1CCN(C(=O)COc2ccccc2OC)CC1

>  <Energy>  (13) 
63.265911639374536

>  <Genealogy>  (13) 
COc1ccccc1C[NH+]1CCN(C(=O)COc2ccccc2OC)CC1 (protonated)
COc1ccccc1C[NH+]1CCN(C(=O)COc2ccccc2OC)CC1 (3D coordinates assigned)
COc1ccccc1C[NH+]1CCN(C(=O)COc2ccccc2OC)CC1 (nonaromatic ring conformer: 63.265911639374536 kcal/mol)

>  <smiles>  (13) 
COc1ccccc1CN1CCN(C(=O)COc2ccccc2OC)CC1

>  <score_type>  (13) 
oracle

>  <origin>  (13) 
adg

>  <m_score__min__energy>  (13) 
-7.6299999999999999

>  <m_primary>  (13) 
energy

$$$$
13:0
     RDKit          3D

 70 69  0  0  0  0  0  0  0  0999 V2000
   -7.0220   24.4260  -30.3940 C   0  0  0  0  0  0  0  0  0  0  0  0
   -7.5060   23.3830  -31.4000 C   0  0  0  0  0  0  0  0  0  0  0  0
   -7.6260   21.9780  -30.7890 C   0  0  0  0  0  0  0  0  0  0  0  0
   -9.0460   21.3790  -30.8990 C   0  0  0  0  0  0  0  0  0  0  0  0
   -9.4540   21.0050  -32.3380 C   0  0  0  0  0  0  0  0  0  0  0  0
   -9.4000   19.4980  -32.6670 C   0  0  0  0  0  0  0  0  0  0  0  0
   -8.7900   18.6050  -31.5720 C   0  0  0  0  0  0  0  0  0  0  0  0
   -7.2740   18.4020  -31.7400 C   0  0  0  0  0  0  0  0  0  0  0  0
   -6.9110   17.7840  -33.0990 C   0  0  0  0  0  0  0  0  0  0  0  0
   -5.9970   18.6960  -33.9330 C   0  0  0  0  0  0  0  0  0  0  0  0
   -5.9950   20.1510  -33.4370 C   0  0  0  0  0  0  0  0  0  0  0  0
   -4.5960   20.6530  -33.0170 C   0  0  0  0  0  0  0  0  0  0  0  0
   -4.6490   22.0520  -32.3770 C   0  0  0  0  0  0  0  0  0  0  0  0
   -3.5350   22.2740  -31.3420 C   0  0  0  0  0  0  0  0  0  0  0  0
   -4.0150   23.0590  -30.1140 C   0  0  0  0  0  0  0  0  0  0  0  0
   -3.6050   24.4950  -30.2110 C   0  0  0  0  0  0  0  0  0  0  0  0
   -4.2660   25.2880  -30.9370 O   0  0  0  0  0  0  0  0  0  0  0  0
   -2.4880   24.9420  -29.4950 O   0  0  0  0  0  0  0  0  0  0  0  0
   -1.5150   24.0640  -28.9330 C   0  0  0  0  0  0  0  0  0  0  0  0
   -1.9150   23.6630  -27.5090 C   0  0  0  0  0  0  0  0  0  0  0  0
   -1.6610   24.7830  -26.5740 N   0  0  0  0  0  0  0  0  0  0  0  0
   -0.8510   25.8440  -27.2180 C   0  0  0  0  0  0  0  0  0  0  0  0
   -0.8710   27.1130  -26.3700 C   0  0  0  0  0  0  0  0  0  0  0  0
   -2.9280   25.3320  -26.0400 C   0  0  0  0  0  0  0  0  0  0  0  0
   -4.1240   24.6450  -26.6960 C   0  0  0  0  0  0  0  0  0  0  0  0
   -7.1933   24.0569  -29.3720 H   0  0  0  0  0  0  0  0  0  0  0  0
   -5.9474   24.6080  -30.5428 H   0  0  0  0  0  0  0  0  0  0  0  0
   -7.5768   25.3641  -30.5428 H   0  0  0  0  0  0  0  0  0  0  0  0
   -8.4937   23.6886  -31.7756 H   0  0  0  0  0  0  0  0  0  0  0  0
   -6.7610   23.3307  -32.2076 H   0  0  0  0  0  0  0  0  0  0  0  0
   -6.9247   21.3101  -31.3106 H   0  0  0  0  0  0  0  0  0  0  0  0
   -7.3949   22.0696  -29.7175 H   0  0  0  0  0  0  0  0  0  0  0  0
   -9.0883   20.4710  -30.2795 H   0  0  0  0  0  0  0  0  0  0  0  0
   -9.7480   22.1543  -30.5583 H   0  0  0  0  0  0  0  0  0  0  0  0
  -10.4853   21.3517  -32.5001 H   0  0  0  0  0  0  0  0  0  0  0  0
   -8.7186   21.4876  -32.9984 H   0  0  0  0  0  0  0  0  0  0  0  0
  -10.4283   19.1539  -32.8518 H   0  0  0  0  0  0  0  0  0  0  0  0
   -8.7381   19.4018  -33.5403 H   0  0  0  0  0  0  0  0  0  0  0  0
   -8.9751   19.0731  -30.5939 H   0  0  0  0  0  0  0  0  0  0  0  0
   -9.2659   17.6163  -31.6495 H   0  0  0  0  0  0  0  0  0  0  0  0
   -6.7753   19.3785  -31.6518 H   0  0  0  0  0  0  0  0  0  0  0  0
   -6.9407   17.7059  -30.9562 H   0  0  0  0  0  0  0  0  0  0  0  0
   -6.3936   16.8289  -32.9257 H   0  0  0  0  0  0  0  0  0  0  0  0
   -7.8450   17.6406  -33.6620 H   0  0  0  0  0  0  0  0  0  0  0  0
   -4.9698   18.3058  -33.8819 H   0  0  0  0  0  0  0  0  0  0  0  0
   -6.3818   18.6978  -34.9635 H   0  0  0  0  0  0  0  0  0  0  0  0
   -6.3687   20.7959  -34.2460 H   0  0  0  0  0  0  0  0  0  0  0  0
   -6.6363   20.1910  -32.5442 H   0  0  0  0  0  0  0  0  0  0  0  0
   -4.1696   19.9465  -32.2897 H   0  0  0  0  0  0  0  0  0  0  0  0
   -3.9746   20.7188  -33.9223 H   0  0  0  0  0  0  0  0  0  0  0  0
   -4.5468   22.8062  -33.1711 H   0  0  0  0  0  0  0  0  0  0  0  0
   -5.6119   22.1409  -31.8526 H   0  0  0  0  0  0  0  0  0  0  0  0
   -3.1631   21.2936  -31.0096 H   0  0  0  0  0  0  0  0  0  0  0  0
   -2.7447   22.8661  -31.8266 H   0  0  0  0  0  0  0  0  0  0  0  0
   -5.1117   22.9999  -30.0536 H   0  0  0  0  0  0  0  0  0  0  0  0
   -3.5592   22.6210  -29.2138 H   0  0  0  0  0  0  0  0  0  0  0  0
   -1.4394   23.1606  -29.5560 H   0  0  0  0  0  0  0  0  0  0  0  0
   -0.5452   24.5820  -28.8983 H   0  0  0  0  0  0  0  0  0  0  0  0
   -2.9850   23.4087  -27.4898 H   0  0  0  0  0  0  0  0  0  0  0  0
   -1.3176   22.7930  -27.1990 H   0  0  0  0  0  0  0  0  0  0  0  0
    0.1866   25.4946  -27.3240 H   0  0  0  0  0  0  0  0  0  0  0  0
   -1.2758   26.0679  -28.2076 H   0  0  0  0  0  0  0  0  0  0  0  0
   -0.8667   26.8417  -25.3040 H   0  0  0  0  0  0  0  0  0  0  0  0
    0.0177   27.7200  -26.5975 H   0  0  0  0  0  0  0  0  0  0  0  0
   -1.7784   27.6917  -26.5975 H   0  0  0  0  0  0  0  0  0  0  0  0
   -2.9656   25.1657  -24.9533 H   0  0  0  0  0  0  0  0  0  0  0  0
   -2.9707   26.4091  -26.2591 H   0  0  0  0  0  0  0  0  0  0  0  0
   -4.7974   24.2582  -25.9169 H   0  0  0  0  0  0  0  0  0  0  0  0
   -4.6654   25.3698  -27.3218 H   0  0  0  0  0  0  0  0  0  0  0  0
   -3.7706   23.8122  -27.3218 H   0  0  0  0  0  0  0  0  0  0  0  0
  1  2  1  0
  2  3  1  0
  3  4  1  0
  4  5  1  0
  5  6  1  0
  6  7  1  0
  7  8  1  0
  8  9  1  0
  9 10  1  0
 10 11  1  0
 11 12  1  0
 12 13  1  0
 13 14  1  0
 14 15  1  0
 15 16  1  0
 16 17  2  0
 16 18  1  0
 18 19  1  0
 19 20  1  0
 20 21  1  0
 21 22  1  0
 22 23  1  0
 21 24  1  0
 24 25  1  0
  1 26  1  0
  1 27  1  0
  1 28  1  0
  2 29  1  0
  2 30  1  0
  3 31  1  0
  3 32  1  0
  4 33  1  0
  4 34  1  0
  5 35  1  0
  5 36  1  0
  6 37  1  0
  6 38  1  0
  7 39  1  0
  7 40  1  0
  8 41  1  0
  8 42  1  0
  9 43  1  0
  9 44  1  0
 10 45  1  0
 10 46  1  0
 11 47  1  0
 11 48  1  0
 12 49  1  0
 12 50  1  0
 13 51  1  0
 13 52  1  0
 14 53  1  0
 14 54  1  0
 15 55  1  0
 15 56  1  0
 19 57  1  0
 19 58  1  0
 20 59  1  0
 20 60  1  0
 22 61  1  0
 22 62  1  0
 23 63  1  0
 23 64  1  0
 23 65  1  0
 24 66  1  0
 24 67  1  0
 25 68  1  0
 25 69  1  0
 25 70  1  0
M  END
>  <UniqueID>  (14) 
14

>  <SMILES>  (14) 
CCCCCCCCCCCCCCCC(=O)OCCN(CC)CC

>  <Energy>  (14) 
41.31803081044124

>  <Genealogy>  (14) 
CCCCCCCCCCCCCCCC(=O)OCCN(CC)CC (3D coordinates assigned)
CCCCCCCCCCCCCCCC(=O)OCCN(CC)CC (optimized conformer: 41.31803081044124 kcal/mol)

>  <smiles>  (14) 
CCCCCCCCCCCCCCCC(=O)OCCN(CC)CC

>  <score_type>  (14) 
oracle

>  <origin>  (14) 
adg

>  <m_score__min__energy>  (14) 
-7.3899999999999997

>  <m_primary>  (14) 
energy

$$$$
14:0
     RDKit          3D

 62 64  0  0  0  0  0  0  0  0999 V2000
   -6.5040   25.6140  -29.4570 C   0  0  0  0  0  0  0  0  0  0  0  0
   -5.2280   25.2340  -30.2060 C   0  0  0  0  0  0  0  0  0  0  0  0
   -4.6390   23.9950  -29.6490 N   0  0  0  0  0  0  0  0  0  0  0  0
   -5.6810   22.9720  -29.4370 C   0  0  0  0  0  0  0  0  0  0  0  0
   -3.9270   24.2600  -28.3780 C   0  0  0  0  0  0  0  0  0  0  0  0
   -2.5610   23.5530  -28.3380 C   0  0  0  0  0  0  0  0  0  0  0  0
   -1.8430   23.5400  -29.7020 C   0  0  0  0  0  0  0  0  0  0  0  0
   -1.5650   22.1160  -30.2050 C   0  0  0  0  0  0  0  0  0  0  0  0
   -2.7610   21.1900  -29.9420 C   0  0  0  0  0  0  0  0  0  0  0  0
   -3.4810   20.7670  -31.2330 C   0  0  0  0  0  0  0  0  0  0  0  0
   -3.6230   21.9200  -32.2450 C   0  0  0  0  0  0  0  0  0  0  0  0
   -4.3910   21.5290  -33.4420 N   0  0  0  0  0  0  0  0  0  0  0  0
   -5.5900   20.7660  -33.1070 C   0  0  0  0  0  0  0  0  0  0  0  0
   -6.7530   21.4050  -32.5820 C   0  0  0  0  0  0  0  0  0  0  0  0
   -6.8130   22.8040  -32.3420 C   0  0  0  0  0  0  0  0  0  0  0  0
   -7.9900   23.4160  -31.9190 C   0  0  0  0  0  0  0  0  0  0  0  0
   -9.1400   22.6670  -31.7330 C   0  0  0  0  0  0  0  0  0  0  0  0
   -9.1060   21.2900  -31.9150 C   0  0  0  0  0  0  0  0  0  0  0  0
   -7.9080   20.6220  -32.2880 C   0  0  0  0  0  0  0  0  0  0  0  0
   -7.8620   19.2470  -32.3740 N   0  0  0  0  0  0  0  0  0  0  0  0
   -8.9180   18.4280  -31.7370 C   0  0  0  0  0  0  0  0  0  0  0  0
   -6.8120   18.6290  -33.0180 C   0  0  0  0  0  0  0  0  0  0  0  0
   -6.8780   17.2560  -33.3720 C   0  0  0  0  0  0  0  0  0  0  0  0
   -5.7960   16.6090  -33.9620 C   0  0  0  0  0  0  0  0  0  0  0  0
   -4.6270   17.3090  -34.2240 C   0  0  0  0  0  0  0  0  0  0  0  0
   -4.5450   18.6680  -33.9340 C   0  0  0  0  0  0  0  0  0  0  0  0
   -5.6390   19.3640  -33.3540 C   0  0  0  0  0  0  0  0  0  0  0  0
   -6.3229   25.5601  -28.3733 H   0  0  0  0  0  0  0  0  0  0  0  0
   -6.7976   26.6386  -29.7292 H   0  0  0  0  0  0  0  0  0  0  0  0
   -7.3103   24.9170  -29.7292 H   0  0  0  0  0  0  0  0  0  0  0  0
   -5.4675   25.0736  -31.2676 H   0  0  0  0  0  0  0  0  0  0  0  0
   -4.4991   26.0505  -30.0963 H   0  0  0  0  0  0  0  0  0  0  0  0
   -5.8336   22.8222  -28.3580 H   0  0  0  0  0  0  0  0  0  0  0  0
   -6.6223   23.3065  -29.8975 H   0  0  0  0  0  0  0  0  0  0  0  0
   -5.3639   22.0247  -29.8975 H   0  0  0  0  0  0  0  0  0  0  0  0
   -3.7714   25.3441  -28.2749 H   0  0  0  0  0  0  0  0  0  0  0  0
   -4.5405   23.8718  -27.5517 H   0  0  0  0  0  0  0  0  0  0  0  0
   -1.9199   24.0723  -27.6105 H   0  0  0  0  0  0  0  0  0  0  0  0
   -2.7434   22.5058  -28.0550 H   0  0  0  0  0  0  0  0  0  0  0  0
   -2.4751   24.0575  -30.4386 H   0  0  0  0  0  0  0  0  0  0  0  0
   -0.8743   24.0455  -29.5753 H   0  0  0  0  0  0  0  0  0  0  0  0
   -1.3686   22.1497  -31.2868 H   0  0  0  0  0  0  0  0  0  0  0  0
   -0.6928   21.7200  -29.6642 H   0  0  0  0  0  0  0  0  0  0  0  0
   -2.4000   20.2866  -29.4285 H   0  0  0  0  0  0  0  0  0  0  0  0
   -3.4830   21.7473  -29.3271 H   0  0  0  0  0  0  0  0  0  0  0  0
   -2.9083   19.9547  -31.7044 H   0  0  0  0  0  0  0  0  0  0  0  0
   -4.4953   20.4446  -30.9551 H   0  0  0  0  0  0  0  0  0  0  0  0
   -4.1378   22.7590  -31.7540 H   0  0  0  0  0  0  0  0  0  0  0  0
   -2.6121   22.2027  -32.5739 H   0  0  0  0  0  0  0  0  0  0  0  0
   -4.5780   22.3650  -34.0310 H   0  0  0  0  0  0  0  0  0  0  0  0
   -3.7810   20.9640  -34.0710 H   0  0  0  0  0  0  0  0  0  0  0  0
   -5.9116   23.4160  -32.4934 H   0  0  0  0  0  0  0  0  0  0  0  0
   -8.0065   24.4998  -31.7316 H   0  0  0  0  0  0  0  0  0  0  0  0
  -10.0785   23.1613  -31.4417 H   0  0  0  0  0  0  0  0  0  0  0  0
  -10.0254   20.7045  -31.7674 H   0  0  0  0  0  0  0  0  0  0  0  0
   -8.8269   18.4986  -30.6431 H   0  0  0  0  0  0  0  0  0  0  0  0
   -9.9063   18.7981  -32.0473 H   0  0  0  0  0  0  0  0  0  0  0  0
   -8.8054   17.3787  -32.0473 H   0  0  0  0  0  0  0  0  0  0  0  0
   -7.8021   16.6924  -33.1763 H   0  0  0  0  0  0  0  0  0  0  0  0
   -5.8677   15.5423  -34.2207 H   0  0  0  0  0  0  0  0  0  0  0  0
   -3.7626   16.7886  -34.6621 H   0  0  0  0  0  0  0  0  0  0  0  0
   -3.6161   19.2129  -34.1581 H   0  0  0  0  0  0  0  0  0  0  0  0
  1  2  1  0
  2  3  1  0
  3  4  1  0
  3  5  1  0
  5  6  1  0
  6  7  1  0
  7  8  1  0
  8  9  1  0
  9 10  1  0
 10 11  1  0
 11 12  1  0
 12 13  1  0
 13 14  2  0
 14 15  1  0
 15 16  2  0
 16 17  1  0
 17 18  2  0
 18 19  1  0
 19 20  2  0
 20 21  1  0
 20 22  1  0
 22 23  2  0
 23 24  1  0
 24 25  2  0
 25 26  1  0
 26 27  2  0
 27 13  1  0
 19 14  1  0
 27 22  1  0
  1 28  1  0
  1 29  1  0
  1 30  1  0
  2 31  1  0
  2 32  1  0
  4 33  1  0
  4 34  1  0
  4 35  1  0
  5 36  1  0
  5 37  1  0
  6 38  1  0
  6 39  1  0
  7 40  1  0
  7 41  1  0
  8 42  1  0
  8 43  1  0
  9 44  1  0
  9 45  1  0
 10 46  1  0
 10 47  1  0
 11 48  1  0
 11 49  1  0
 12 50  1  0
 12 51  1  0
 15 52  1  0
 16 53  1  0
 17 54  1  0
 18 55  1  0
 21 56  1  0
 21 57  1  0
 21 58  1  0
 23 59  1  0
 24 60  1  0
 25 61  1  0
 26 62  1  0
M  CHG  2  12   1  20   1
M  END
>  <UniqueID>  (15) 
15

>  <SMILES>  (15) 
CCN(C)CCCCCCC[NH2+]c1c2ccccc2[n+](C)c2ccccc12

>  <Energy>  (15) 
83.09602588965866

>  <Genealogy>  (15) 
CCN(C)CCCCCCC[NH2+]c1c2ccccc2[n+](C)c2ccccc12 (protonated)
CCN(C)CCCCCCC[NH2+]c1c2ccccc2[n+](C)c2ccccc12 (3D coordinates assigned)
CCN(C)CCCCCCC[NH2+]c1c2ccccc2[n+](C)c2ccccc12 (optimized conformer: 83.09602588965866 kcal/mol)

>  <smiles>  (15) 
CCN(C)CCCCCCCNc1c2ccccc2[n+](C)c2ccccc12

>  <score_type>  (15) 
oracle

>  <origin>  (15) 
adg

>  <m_score__min__energy>  (15) 
-8.1999999999999993

>  <m_primary>  (15) 
energy

$$$$
15:0
     RDKit          3D

 55 58  0  0  0  0  0  0  0  0999 V2000
   -0.4710   18.2440  -34.7040 C   0  0  0  0  0  0  0  0  0  0  0  0
    0.2000   19.4820  -35.2960 C   0  0  0  0  0  0  0  0  0  0  0  0
   -0.4350   20.7280  -34.8010 N   0  0  0  0  0  0  0  0  0  0  0  0
    0.2640   21.9000  -35.3850 C   0  0  0  0  0  0  0  0  0  0  0  0
    1.7570   21.9070  -35.0590 C   0  0  0  0  0  0  0  0  0  0  0  0
   -0.4410   20.7750  -33.3130 C   0  0  0  0  0  0  0  0  0  0  0  0
   -1.8760   20.8630  -32.7700 C   0  0  0  0  0  0  0  0  0  0  0  0
   -2.8700   20.9230  -33.8570 N   0  0  0  0  0  0  0  0  0  0  0  0
   -4.1890   20.5500  -33.3700 C   0  0  0  0  0  0  0  0  0  0  0  0
   -4.7170   19.2550  -33.6200 C   0  0  0  0  0  0  0  0  0  0  0  0
   -3.9280   18.2250  -34.1890 C   0  0  0  0  0  0  0  0  0  0  0  0
   -4.4510   16.9530  -34.4010 C   0  0  0  0  0  0  0  0  0  0  0  0
   -5.7600   16.6690  -34.0390 C   0  0  0  0  0  0  0  0  0  0  0  0
   -6.5600   17.6600  -33.4770 C   0  0  0  0  0  0  0  0  0  0  0  0
   -6.0690   18.9760  -33.2790 C   0  0  0  0  0  0  0  0  0  0  0  0
   -6.8720   19.9670  -32.7530 N   0  0  0  0  0  0  0  0  0  0  0  0
   -8.3410   19.7860  -32.7140 C   0  0  0  0  0  0  0  0  0  0  0  0
   -6.3070   21.1300  -32.2720 C   0  0  0  0  0  0  0  0  0  0  0  0
   -7.0410   22.0120  -31.4370 C   0  0  0  0  0  0  0  0  0  0  0  0
   -6.4850   23.2100  -30.9820 C   0  0  0  0  0  0  0  0  0  0  0  0
   -7.2130   24.0870  -30.1630 C   0  0  0  0  0  0  0  0  0  0  0  0
   -6.6250   25.2740  -29.7230 C   0  0  0  0  0  0  0  0  0  0  0  0
   -5.3150   25.5730  -30.1010 C   0  0  0  0  0  0  0  0  0  0  0  0
   -4.6210   24.7100  -30.8890 N   0  0  0  0  0  0  0  0  0  0  0  0
   -5.1700   23.5470  -31.3360 C   0  0  0  0  0  0  0  0  0  0  0  0
   -4.4180   22.6810  -32.1280 C   0  0  0  0  0  0  0  0  0  0  0  0
   -4.9610   21.4590  -32.5980 C   0  0  0  0  0  0  0  0  0  0  0  0
   -0.4405   18.3002  -33.6059 H   0  0  0  0  0  0  0  0  0  0  0  0
   -1.5174   18.1981  -35.0399 H   0  0  0  0  0  0  0  0  0  0  0  0
    0.0618   17.3422  -35.0399 H   0  0  0  0  0  0  0  0  0  0  0  0
    1.2627   19.4840  -35.0118 H   0  0  0  0  0  0  0  0  0  0  0  0
    0.0897   19.4470  -36.3899 H   0  0  0  0  0  0  0  0  0  0  0  0
    0.1407   21.8769  -36.4778 H   0  0  0  0  0  0  0  0  0  0  0  0
   -0.1796   22.8075  -34.9496 H   0  0  0  0  0  0  0  0  0  0  0  0
    1.8940   21.9076  -33.9676 H   0  0  0  0  0  0  0  0  0  0  0  0
    2.2301   21.0111  -35.4874 H   0  0  0  0  0  0  0  0  0  0  0  0
    2.2216   22.8073  -35.4874 H   0  0  0  0  0  0  0  0  0  0  0  0
    0.0360   19.8640  -32.9225 H   0  0  0  0  0  0  0  0  0  0  0  0
    0.1116   21.6691  -32.9886 H   0  0  0  0  0  0  0  0  0  0  0  0
   -2.0777   19.9759  -32.1516 H   0  0  0  0  0  0  0  0  0  0  0  0
   -1.9613   21.7858  -32.1774 H   0  0  0  0  0  0  0  0  0  0  0  0
   -2.8970   21.8750  -34.2810 H   0  0  0  0  0  0  0  0  0  0  0  0
   -2.5800   20.3080  -34.6490 H   0  0  0  0  0  0  0  0  0  0  0  0
   -2.8847   18.4342  -34.4678 H   0  0  0  0  0  0  0  0  0  0  0  0
   -3.8255   16.1712  -34.8564 H   0  0  0  0  0  0  0  0  0  0  0  0
   -6.1663   15.6590  -34.1964 H   0  0  0  0  0  0  0  0  0  0  0  0
   -7.5915   17.4182  -33.1811 H   0  0  0  0  0  0  0  0  0  0  0  0
   -8.6777   19.7445  -31.6676 H   0  0  0  0  0  0  0  0  0  0  0  0
   -8.8282   20.6309  -33.2227 H   0  0  0  0  0  0  0  0  0  0  0  0
   -8.6085   18.8481  -33.2227 H   0  0  0  0  0  0  0  0  0  0  0  0
   -8.0672   21.7473  -31.1425 H   0  0  0  0  0  0  0  0  0  0  0  0
   -8.2437   23.8397  -29.8688 H   0  0  0  0  0  0  0  0  0  0  0  0
   -7.1895   25.9684  -29.0834 H   0  0  0  0  0  0  0  0  0  0  0  0
   -4.8442   26.5072  -29.7611 H   0  0  0  0  0  0  0  0  0  0  0  0
   -3.3850   22.9506  -32.3929 H   0  0  0  0  0  0  0  0  0  0  0  0
  1  2  1  0
  2  3  1  0
  3  4  1  0
  4  5  1  0
  3  6  1  0
  6  7  1  0
  7  8  1  0
  8  9  1  0
  9 10  2  0
 10 11  1  0
 11 12  2  0
 12 13  1  0
 13 14  2  0
 14 15  1  0
 15 16  2  0
 16 17  1  0
 16 18  1  0
 18 19  2  0
 19 20  1  0
 20 21  2  0
 21 22  1  0
 22 23  2  0
 23 24  1  0
 24 25  2  0
 25 26  1  0
 26 27  2  0
 27  9  1  0
 15 10  1  0
 27 18  1  0
 25 20  1  0
  1 28  1  0
  1 29  1  0
  1 30  1  0
  2 31  1  0
  2 32  1  0
  4 33  1  0
  4 34  1  0
  5 35  1  0
  5 36  1  0
  5 37  1  0
  6 38  1  0
  6 39  1  0
  7 40  1  0
  7 41  1  0
  8 42  1  0
  8 43  1  0
 11 44  1  0
 12 45  1  0
 13 46  1  0
 14 47  1  0
 17 48  1  0
 17 49  1  0
 17 50  1  0
 19 51  1  0
 21 52  1  0
 22 53  1  0
 23 54  1  0
 26 55  1  0
M  CHG  2   8   1  16   1
M  END
>  <UniqueID>  (16) 
16

>  <SMILES>  (16) 
CCN(CC)CC[NH2+]c1c2ccccc2[n+](C)c2cc3cccnc3cc12

>  <Energy>  (16) 
87.24122125874862

>  <Genealogy>  (16) 
CCN(CC)CC[NH2+]c1c2ccccc2[n+](C)c2cc3cccnc3cc12 (protonated)
CCN(CC)CC[NH2+]c1c2ccccc2[n+](C)c2cc3cccnc3cc12 (3D coordinates assigned)
CCN(CC)CC[NH2+]c1c2ccccc2[n+](C)c2cc3cccnc3cc12 (optimized conformer: 87.24122125874862 kcal/mol)

>  <smiles>  (16) 
CCN(CC)CCNc1c2ccccc2[n+](C)c2cc3cccnc3cc12

>  <score_type>  (16) 
oracle

>  <origin>  (16) 
adg

>  <m_score__min__energy>  (16) 
-8.7200000000000006

>  <m_primary>  (16) 
energy

$$$$
16:0
     RDKit          3D

 42 44  0  0  0  0  0  0  0  0999 V2000
   -3.0710   22.5230  -28.8310 C   0  0  0  0  0  0  0  0  0  0  0  0
   -2.3490   23.0200  -30.0780 C   0  0  0  0  0  0  0  0  0  0  0  0
   -3.2640   23.6490  -30.9770 O   0  0  0  0  0  0  0  0  0  0  0  0
   -4.5820   24.0420  -30.6780 C   0  0  0  0  0  0  0  0  0  0  0  0
   -4.8620   25.2940  -30.0920 C   0  0  0  0  0  0  0  0  0  0  0  0
   -6.1740   25.6670  -29.8000 C   0  0  0  0  0  0  0  0  0  0  0  0
   -7.2300   24.8040  -30.0810 C   0  0  0  0  0  0  0  0  0  0  0  0
   -6.9830   23.5550  -30.6570 C   0  0  0  0  0  0  0  0  0  0  0  0
   -8.0070   22.7500  -30.9110 O   0  0  0  0  0  0  0  0  0  0  0  0
   -7.8610   21.5510  -31.4590 C   0  0  0  0  0  0  0  0  0  0  0  0
   -6.5910   21.0670  -31.8030 C   0  0  0  0  0  0  0  0  0  0  0  0
   -6.4570   19.7240  -32.4230 C   0  0  0  0  0  0  0  0  0  0  0  0
   -6.0460   19.5990  -33.7580 C   0  0  0  0  0  0  0  0  0  0  0  0
   -5.9110   18.3370  -34.3440 C   0  0  0  0  0  0  0  0  0  0  0  0
   -6.1780   17.1650  -33.6060 C   0  0  0  0  0  0  0  0  0  0  0  0
   -6.0380   15.8540  -34.2140 N   0  0  0  0  0  0  0  0  0  0  0  0
   -4.7130   15.3340  -34.5740 C   0  0  0  0  0  0  0  0  0  0  0  0
   -7.2200   15.0240  -34.4800 C   0  0  0  0  0  0  0  0  0  0  0  0
   -6.5820   17.3010  -32.2620 C   0  0  0  0  0  0  0  0  0  0  0  0
   -6.7170   18.5640  -31.6790 C   0  0  0  0  0  0  0  0  0  0  0  0
   -5.4730   21.8810  -31.5400 C   0  0  0  0  0  0  0  0  0  0  0  0
   -4.3160   21.4540  -31.8060 O   0  0  0  0  0  0  0  0  0  0  0  0
   -5.6570   23.1580  -30.9620 C   0  0  0  0  0  0  0  0  0  0  0  0
   -2.5458   22.8845  -27.9346 H   0  0  0  0  0  0  0  0  0  0  0  0
   -4.1034   22.9027  -28.8292 H   0  0  0  0  0  0  0  0  0  0  0  0
   -3.0849   21.4231  -28.8292 H   0  0  0  0  0  0  0  0  0  0  0  0
   -1.5771   23.7459  -29.7826 H   0  0  0  0  0  0  0  0  0  0  0  0
   -1.8904   22.1592  -30.5866 H   0  0  0  0  0  0  0  0  0  0  0  0
   -4.0366   25.9840  -29.8627 H   0  0  0  0  0  0  0  0  0  0  0  0
   -6.3755   26.6482  -29.3453 H   0  0  0  0  0  0  0  0  0  0  0  0
   -8.2618   25.1063  -29.8489 H   0  0  0  0  0  0  0  0  0  0  0  0
   -8.7481   20.9281  -31.6461 H   0  0  0  0  0  0  0  0  0  0  0  0
   -5.8281   20.5010  -34.3486 H   0  0  0  0  0  0  0  0  0  0  0  0
   -5.5925   18.2570  -35.3938 H   0  0  0  0  0  0  0  0  0  0  0  0
   -4.1454   15.1112  -33.6585 H   0  0  0  0  0  0  0  0  0  0  0  0
   -4.8286   14.4145  -35.1666 H   0  0  0  0  0  0  0  0  0  0  0  0
   -4.1723   16.0866  -35.1666 H   0  0  0  0  0  0  0  0  0  0  0  0
   -7.6688   14.7088  -33.5265 H   0  0  0  0  0  0  0  0  0  0  0  0
   -7.9544   15.6058  -35.0564 H   0  0  0  0  0  0  0  0  0  0  0  0
   -6.9221   14.1357  -35.0564 H   0  0  0  0  0  0  0  0  0  0  0  0
   -6.7936   16.4018  -31.6648 H   0  0  0  0  0  0  0  0  0  0  0  0
   -7.0298   18.6489  -30.6278 H   0  0  0  0  0  0  0  0  0  0  0  0
  1  2  1  0
  2  3  1  0
  3  4  1  0
  4  5  2  0
  5  6  1  0
  6  7  2  0
  7  8  1  0
  8  9  1  0
  9 10  1  0
 10 11  2  0
 11 12  1  0
 12 13  2  0
 13 14  1  0
 14 15  2  0
 15 16  1  0
 16 17  1  0
 16 18  1  0
 15 19  1  0
 19 20  2  0
 11 21  1  0
 21 22  2  0
 21 23  1  0
 23  4  1  0
 23  8  2  0
 20 12  1  0
  1 24  1  0
  1 25  1  0
  1 26  1  0
  2 27  1  0
  2 28  1  0
  5 29  1  0
  6 30  1  0
  7 31  1  0
 10 32  1  0
 13 33  1  0
 14 34  1  0
 17 35  1  0
 17 36  1  0
 17 37  1  0
 18 38  1  0
 18 39  1  0
 18 40  1  0
 19 41  1  0
 20 42  1  0
M  END
>  <UniqueID>  (17) 
17

>  <SMILES>  (17) 
CCOc1cccc2occ(-c3ccc(N(C)C)cc3)c(=O)c12

>  <Energy>  (17) 
57.67732217702937

>  <Genealogy>  (17) 
CCOc1cccc2occ(-c3ccc(N(C)C)cc3)c(=O)c12 (3D coordinates assigned)
CCOc1cccc2occ(-c3ccc(N(C)C)cc3)c(=O)c12 (optimized conformer: 57.67732217702937 kcal/mol)

>  <smiles>  (17) 
CCOc1cccc2occ(-c3ccc(N(C)C)cc3)c(=O)c12

>  <score_type>  (17) 
oracle

>  <origin>  (17) 
adg

>  <m_score__min__energy>  (17) 
-7.0199999999999996

>  <m_primary>  (17) 
energy

$$$$
17:0
     RDKit          3D

 46 47  0  0  0  0  0  0  0  0999 V2000
   -2.7570   21.0490  -28.2220 C   0  0  0  0  0  0  0  0  0  0  0  0
   -3.3180   21.1880  -29.6380 C   0  0  0  0  0  0  0  0  0  0  0  0
   -2.4480   22.0240  -30.5000 N   0  0  0  0  0  0  0  0  0  0  0  0
   -2.8720   21.9840  -31.9250 C   0  0  0  0  0  0  0  0  0  0  0  0
   -1.9120   21.1230  -32.7390 C   0  0  0  0  0  0  0  0  0  0  0  0
   -2.4150   23.4150  -29.9890 C   0  0  0  0  0  0  0  0  0  0  0  0
   -3.8310   23.9820  -29.8550 C   0  0  0  0  0  0  0  0  0  0  0  0
   -3.9040   25.2460  -30.4870 O   0  0  0  0  0  0  0  0  0  0  0  0
   -5.2440   25.6140  -30.7300 C   0  0  0  0  0  0  0  0  0  0  0  0
   -6.1670   24.6710  -29.9610 C   0  0  0  0  0  0  0  0  0  0  0  0
   -7.1760   24.1410  -30.8220 O   0  0  0  0  0  0  0  0  0  0  0  0
   -7.2820   22.7990  -31.2240 C   0  0  0  0  0  0  0  0  0  0  0  0
   -8.3720   21.9800  -30.8670 C   0  0  0  0  0  0  0  0  0  0  0  0
   -8.4350   20.6550  -31.3060 C   0  0  0  0  0  0  0  0  0  0  0  0
   -7.4090   20.1220  -32.0970 C   0  0  0  0  0  0  0  0  0  0  0  0
   -7.4530   18.7860  -32.5230 C   0  0  0  0  0  0  0  0  0  0  0  0
   -6.4130   18.2610  -33.2990 C   0  0  0  0  0  0  0  0  0  0  0  0
   -6.4760   16.4420  -33.8730 Br  0  0  0  0  0  0  0  0  0  0  0  0
   -5.3260   19.0670  -33.6520 C   0  0  0  0  0  0  0  0  0  0  0  0
   -5.2720   20.4000  -33.2330 C   0  0  0  0  0  0  0  0  0  0  0  0
   -6.3080   20.9370  -32.4550 C   0  0  0  0  0  0  0  0  0  0  0  0
   -6.2600   22.2700  -32.0200 C   0  0  0  0  0  0  0  0  0  0  0  0
   -3.5545   21.2466  -27.4906 H   0  0  0  0  0  0  0  0  0  0  0  0
   -2.3725   20.0284  -28.0785 H   0  0  0  0  0  0  0  0  0  0  0  0
   -1.9405   21.7720  -28.0785 H   0  0  0  0  0  0  0  0  0  0  0  0
   -3.4049   20.1869  -30.0855 H   0  0  0  0  0  0  0  0  0  0  0  0
   -4.2999   21.6789  -29.5680 H   0  0  0  0  0  0  0  0  0  0  0  0
   -3.8847   21.5595  -31.9905 H   0  0  0  0  0  0  0  0  0  0  0  0
   -2.8654   23.0071  -32.3291 H   0  0  0  0  0  0  0  0  0  0  0  0
   -1.2691   20.5464  -32.0577 H   0  0  0  0  0  0  0  0  0  0  0  0
   -2.4869   20.4322  -33.3732 H   0  0  0  0  0  0  0  0  0  0  0  0
   -1.2876   21.7694  -33.3732 H   0  0  0  0  0  0  0  0  0  0  0  0
   -1.9284   23.4248  -29.0025 H   0  0  0  0  0  0  0  0  0  0  0  0
   -1.8532   24.0375  -30.7009 H   0  0  0  0  0  0  0  0  0  0  0  0
   -4.5460   23.2944  -30.3304 H   0  0  0  0  0  0  0  0  0  0  0  0
   -4.0773   24.0947  -28.7889 H   0  0  0  0  0  0  0  0  0  0  0  0
   -5.4093   26.6479  -30.3927 H   0  0  0  0  0  0  0  0  0  0  0  0
   -5.4580   25.5465  -31.8069 H   0  0  0  0  0  0  0  0  0  0  0  0
   -5.5735   23.8425  -29.5470 H   0  0  0  0  0  0  0  0  0  0  0  0
   -6.6529   25.2338  -29.1503 H   0  0  0  0  0  0  0  0  0  0  0  0
   -9.1783   22.3865  -30.2388 H   0  0  0  0  0  0  0  0  0  0  0  0
   -9.2947   20.0271  -31.0291 H   0  0  0  0  0  0  0  0  0  0  0  0
   -8.3066   18.1497  -32.2466 H   0  0  0  0  0  0  0  0  0  0  0  0
   -4.5104   18.6508  -34.2616 H   0  0  0  0  0  0  0  0  0  0  0  0
   -4.4146   21.0291  -33.5144 H   0  0  0  0  0  0  0  0  0  0  0  0
   -5.4099   22.9060  -32.3078 H   0  0  0  0  0  0  0  0  0  0  0  0
  1  2  1  0
  2  3  1  0
  3  4  1  0
  4  5  1  0
  3  6  1  0
  6  7  1  0
  7  8  1  0
  8  9  1  0
  9 10  1  0
 10 11  1  0
 11 12  1  0
 12 13  2  0
 13 14  1  0
 14 15  2  0
 15 16  1  0
 16 17  2  0
 17 18  1  0
 17 19  1  0
 19 20  2  0
 20 21  1  0
 21 22  2  0
 22 12  1  0
 21 15  1  0
  1 23  1  0
  1 24  1  0
  1 25  1  0
  2 26  1  0
  2 27  1  0
  4 28  1  0
  4 29  1  0
  5 30  1  0
  5 31  1  0
  5 32  1  0
  6 33  1  0
  6 34  1  0
  7 35  1  0
  7 36  1  0
  9 37  1  0
  9 38  1  0
 10 39  1  0
 10 40  1  0
 13 41  1  0
 14 42  1  0
 16 43  1  0
 19 44  1  0
 20 45  1  0
 22 46  1  0
M  END
>  <UniqueID>  (18) 
18

>  <SMILES>  (18) 
CCN(CC)CCOCCOc1ccc2cc(Br)ccc2c1

>  <Energy>  (18) 
44.055462428075764

>  <Genealogy>  (18) 
CCN(CC)CCOCCOc1ccc2cc(Br)ccc2c1 (3D coordinates assigned)
CCN(CC)CCOCCOc1ccc2cc(Br)ccc2c1 (optimized conformer: 44.055462428075764 kcal/mol)

>  <smiles>  (18) 
CCN(CC)CCOCCOc1ccc2cc(Br)ccc2c1

>  <score_type>  (18) 
oracle

>  <origin>  (18) 
adg

>  <m_score__min__energy>  (18) 
-8.1799999999999997

>  <m_primary>  (18) 
energy

$$$$
18:0
     RDKit          3D

 57 58  0  0  0  0  0  0  0  0999 V2000
   -6.2900   17.3810  -33.6180 C   0  0  0  0  0  0  0  0  0  0  0  0
   -4.9090   17.1660  -33.0070 C   0  0  0  0  0  0  0  0  0  0  0  0
   -3.8540   17.5280  -33.9770 N   0  0  0  0  0  0  0  0  0  0  0  0
   -3.9670   17.0100  -35.3620 C   0  0  0  0  0  0  0  0  0  0  0  0
   -3.1020   15.7780  -35.6510 C   0  0  0  0  0  0  0  0  0  0  0  0
   -2.4840   17.6770  -33.4390 C   0  0  0  0  0  0  0  0  0  0  0  0
   -1.8750   19.0870  -33.5950 C   0  0  0  0  0  0  0  0  0  0  0  0
   -2.7810   20.0150  -34.2880 N   0  0  0  0  0  0  0  0  0  0  0  0
   -3.5590   20.7530  -33.3230 C   0  0  0  0  0  0  0  0  0  0  0  0
   -2.9420   21.6980  -32.4880 C   0  0  0  0  0  0  0  0  0  0  0  0
   -3.6840   22.3920  -31.5310 C   0  0  0  0  0  0  0  0  0  0  0  0
   -5.0620   22.1510  -31.3790 C   0  0  0  0  0  0  0  0  0  0  0  0
   -5.8350   22.8420  -30.4160 C   0  0  0  0  0  0  0  0  0  0  0  0
   -5.2420   23.8070  -29.5280 N   0  0  0  0  0  0  0  0  0  0  0  0
   -5.8790   25.1240  -29.3990 C   0  0  0  0  0  0  0  0  0  0  0  0
   -5.3910   26.0670  -30.4980 C   0  0  0  0  0  0  0  0  0  0  0  0
   -4.2660   25.5280  -31.1360 O   0  0  0  0  0  0  0  0  0  0  0  0
   -4.3130   23.3280  -28.4940 C   0  0  0  0  0  0  0  0  0  0  0  0
   -2.8650   23.6820  -28.8320 C   0  0  0  0  0  0  0  0  0  0  0  0
   -2.7960   25.0210  -29.2350 O   0  0  0  0  0  0  0  0  0  0  0  0
   -7.2050   22.5670  -30.3000 C   0  0  0  0  0  0  0  0  0  0  0  0
   -7.8120   21.6230  -31.1290 C   0  0  0  0  0  0  0  0  0  0  0  0
   -7.0600   20.9370  -32.0810 C   0  0  0  0  0  0  0  0  0  0  0  0
   -5.6880   21.1910  -32.2150 C   0  0  0  0  0  0  0  0  0  0  0  0
   -4.9330   20.4980  -33.1740 C   0  0  0  0  0  0  0  0  0  0  0  0
   -7.0324   17.4966  -32.8146 H   0  0  0  0  0  0  0  0  0  0  0  0
   -6.2786   18.2882  -34.2400 H   0  0  0  0  0  0  0  0  0  0  0  0
   -6.5549   16.5133  -34.2400 H   0  0  0  0  0  0  0  0  0  0  0  0
   -4.8077   17.7946  -32.1100 H   0  0  0  0  0  0  0  0  0  0  0  0
   -4.7986   16.1048  -32.7395 H   0  0  0  0  0  0  0  0  0  0  0  0
   -5.0183   16.7424  -35.5443 H   0  0  0  0  0  0  0  0  0  0  0  0
   -3.6059   17.8092  -36.0260 H   0  0  0  0  0  0  0  0  0  0  0  0
   -2.7827   15.3233  -34.7016 H   0  0  0  0  0  0  0  0  0  0  0  0
   -3.6863   15.0472  -36.2294 H   0  0  0  0  0  0  0  0  0  0  0  0
   -2.2162   16.0794  -36.2294 H   0  0  0  0  0  0  0  0  0  0  0  0
   -2.5093   17.4323  -32.3669 H   0  0  0  0  0  0  0  0  0  0  0  0
   -1.8466   16.9987  -34.0251 H   0  0  0  0  0  0  0  0  0  0  0  0
   -1.6543   19.4892  -32.5952 H   0  0  0  0  0  0  0  0  0  0  0  0
   -0.9624   18.9931  -34.2019 H   0  0  0  0  0  0  0  0  0  0  0  0
   -2.2310   20.6800  -34.8810 H   0  0  0  0  0  0  0  0  0  0  0  0
   -3.4310   19.4870  -34.9110 H   0  0  0  0  0  0  0  0  0  0  0  0
   -1.8642   21.8932  -32.5889 H   0  0  0  0  0  0  0  0  0  0  0  0
   -3.1868   23.1345  -30.8895 H   0  0  0  0  0  0  0  0  0  0  0  0
   -6.9698   25.0076  -29.4805 H   0  0  0  0  0  0  0  0  0  0  0  0
   -5.6142   25.5519  -28.4209 H   0  0  0  0  0  0  0  0  0  0  0  0
   -6.1936   26.2098  -31.2366 H   0  0  0  0  0  0  0  0  0  0  0  0
   -5.1186   27.0324  -30.0467 H   0  0  0  0  0  0  0  0  0  0  0  0
   -3.4820   26.0480  -30.8170 H   0  0  0  0  0  0  0  0  0  0  0  0
   -4.5789   23.7916  -27.5326 H   0  0  0  0  0  0  0  0  0  0  0  0
   -4.3956   22.2326  -28.4376 H   0  0  0  0  0  0  0  0  0  0  0  0
   -2.2337   23.5331  -27.9436 H   0  0  0  0  0  0  0  0  0  0  0  0
   -2.5087   23.0341  -29.6464 H   0  0  0  0  0  0  0  0  0  0  0  0
   -3.6880   25.4130  -29.0400 H   0  0  0  0  0  0  0  0  0  0  0  0
   -7.8064   23.1001  -29.5489 H   0  0  0  0  0  0  0  0  0  0  0  0
   -8.8885   21.4194  -31.0308 H   0  0  0  0  0  0  0  0  0  0  0  0
   -7.5452   20.1931  -32.7300 H   0  0  0  0  0  0  0  0  0  0  0  0
   -5.4210   19.7487  -33.8146 H   0  0  0  0  0  0  0  0  0  0  0  0
  1  2  1  0
  2  3  1  0
  3  4  1  0
  4  5  1  0
  3  6  1  0
  6  7  1  0
  7  8  1  0
  8  9  1  0
  9 10  2  0
 10 11  1  0
 11 12  2  0
 12 13  1  0
 13 14  1  0
 14 15  1  0
 15 16  1  0
 16 17  1  0
 14 18  1  0
 18 19  1  0
 19 20  1  0
 13 21  2  0
 21 22  1  0
 22 23  2  0
 23 24  1  0
 24 25  2  0
 25  9  1  0
 24 12  1  0
  1 26  1  0
  1 27  1  0
  1 28  1  0
  2 29  1  0
  2 30  1  0
  4 31  1  0
  4 32  1  0
  5 33  1  0
  5 34  1  0
  5 35  1  0
  6 36  1  0
  6 37  1  0
  7 38  1  0
  7 39  1  0
  8 40  1  0
  8 41  1  0
 10 42  1  0
 11 43  1  0
 15 44  1  0
 15 45  1  0
 16 46  1  0
 16 47  1  0
 17 48  1  0
 18 49  1  0
 18 50  1  0
 19 51  1  0
 19 52  1  0
 20 53  1  0
 21 54  1  0
 22 55  1  0
 23 56  1  0
 25 57  1  0
M  CHG  1   8   1
M  END
>  <UniqueID>  (19) 
19

>  <SMILES>  (19) 
CCN(CC)CC[NH2+]c1ccc2c(N(CCO)CCO)cccc2c1

>  <Energy>  (19) 
66.86072143826661

>  <Genealogy>  (19) 
CCN(CC)CC[NH2+]c1ccc2c(N(CCO)CCO)cccc2c1 (protonated)
CCN(CC)CC[NH2+]c1ccc2c(N(CCO)CCO)cccc2c1 (3D coordinates assigned)
CCN(CC)CC[NH2+]c1ccc2c(N(CCO)CCO)cccc2c1 (optimized conformer: 66.86072143826661 kcal/mol)

>  <smiles>  (19) 
CCN(CC)CCNc1ccc2c(N(CCO)CCO)cccc2c1

>  <score_type>  (19) 
oracle

>  <origin>  (19) 
adg

>  <m_score__min__energy>  (19) 
-7.46

>  <m_primary>  (19) 
energy

$$$$
19:0
     RDKit          3D

 56 58  0  0  0  0  0  0  0  0999 V2000
    3.1710   19.5820  -28.1780 C   0  0  0  0  0  0  0  0  0  0  0  0
    2.6840   18.8380  -29.4210 C   0  0  0  0  0  0  0  0  0  0  0  0
    1.2090   18.8330  -29.5050 N   0  0  0  0  0  0  0  0  0  0  0  0
    0.7400   19.1550  -30.8630 C   0  0  0  0  0  0  0  0  0  0  0  0
    0.5210   17.6670  -28.8940 C   0  0  0  0  0  0  0  0  0  0  0  0
   -0.0880   17.8720  -27.4850 C   0  0  0  0  0  0  0  0  0  0  0  0
   -1.1620   18.9670  -27.3810 C   0  0  0  0  0  0  0  0  0  0  0  0
   -0.8920   20.0880  -28.2850 N   0  0  0  0  0  0  0  0  0  0  0  0
   -1.9050   20.8580  -28.9610 C   0  0  0  0  0  0  0  0  0  0  0  0
   -2.4070   22.0090  -28.3460 C   0  0  0  0  0  0  0  0  0  0  0  0
   -3.3960   22.7820  -28.9620 C   0  0  0  0  0  0  0  0  0  0  0  0
   -4.0120   24.1730  -28.0720 Cl  0  0  0  0  0  0  0  0  0  0  0  0
   -3.9020   22.4130  -30.2320 C   0  0  0  0  0  0  0  0  0  0  0  0
   -3.4000   21.2480  -30.8520 C   0  0  0  0  0  0  0  0  0  0  0  0
   -2.4050   20.4870  -30.2180 C   0  0  0  0  0  0  0  0  0  0  0  0
   -3.9640   20.7820  -32.0870 N   0  0  0  0  0  0  0  0  0  0  0  0
   -3.1030   20.2880  -33.1680 C   0  0  0  0  0  0  0  0  0  0  0  0
   -1.9220   21.2280  -33.3930 C   0  0  0  0  0  0  0  0  0  0  0  0
   -5.3490   20.4240  -32.0480 C   0  0  0  0  0  0  0  0  0  0  0  0
   -5.7140   19.1230  -32.2250 N   0  0  0  0  0  0  0  0  0  0  0  0
   -7.0080   18.7220  -32.1350 C   0  0  0  0  0  0  0  0  0  0  0  0
   -8.0070   19.6490  -31.8420 C   0  0  0  0  0  0  0  0  0  0  0  0
   -7.6630   20.9900  -31.6660 C   0  0  0  0  0  0  0  0  0  0  0  0
   -6.3230   21.3980  -31.7730 C   0  0  0  0  0  0  0  0  0  0  0  0
   -5.9730   22.7980  -31.7260 N   0  0  0  0  0  0  0  0  0  0  0  0
   -6.8400   23.7620  -32.4160 C   0  0  0  0  0  0  0  0  0  0  0  0
   -4.8570   23.3000  -30.9510 C   0  0  0  0  0  0  0  0  0  0  0  0
   -4.6700   24.5470  -30.8900 O   0  0  0  0  0  0  0  0  0  0  0  0
    2.8259   19.0548  -27.2764 H   0  0  0  0  0  0  0  0  0  0  0  0
    4.2703   19.6215  -28.1815 H   0  0  0  0  0  0  0  0  0  0  0  0
    2.7673   20.6053  -28.1815 H   0  0  0  0  0  0  0  0  0  0  0  0
    3.0914   19.3315  -30.3157 H   0  0  0  0  0  0  0  0  0  0  0  0
    3.0299   17.7957  -29.3574 H   0  0  0  0  0  0  0  0  0  0  0  0
   -0.1654   19.7766  -30.8005 H   0  0  0  0  0  0  0  0  0  0  0  0
    1.5258   19.7049  -31.4016 H   0  0  0  0  0  0  0  0  0  0  0  0
    0.5091   18.2241  -31.4016 H   0  0  0  0  0  0  0  0  0  0  0  0
   -0.2956   17.3718  -29.5692 H   0  0  0  0  0  0  0  0  0  0  0  0
    1.3066   16.9089  -28.7593 H   0  0  0  0  0  0  0  0  0  0  0  0
   -0.5423   16.9208  -27.1705 H   0  0  0  0  0  0  0  0  0  0  0  0
    0.7419   18.2010  -26.8423 H   0  0  0  0  0  0  0  0  0  0  0  0
   -2.1391   18.5316  -27.6371 H   0  0  0  0  0  0  0  0  0  0  0  0
   -1.1559   19.3522  -26.3507 H   0  0  0  0  0  0  0  0  0  0  0  0
    0.1080   20.3580  -28.4260 H   0  0  0  0  0  0  0  0  0  0  0  0
   -2.0179   22.3110  -27.3624 H   0  0  0  0  0  0  0  0  0  0  0  0
   -2.0120   19.5872  -30.7139 H   0  0  0  0  0  0  0  0  0  0  0  0
   -2.7241   19.2907  -32.9000 H   0  0  0  0  0  0  0  0  0  0  0  0
   -3.6943   20.2369  -34.0942 H   0  0  0  0  0  0  0  0  0  0  0  0
   -1.5186   21.5491  -32.4213 H   0  0  0  0  0  0  0  0  0  0  0  0
   -1.1387   20.7035  -33.9599 H   0  0  0  0  0  0  0  0  0  0  0  0
   -2.2574   22.1090  -33.9599 H   0  0  0  0  0  0  0  0  0  0  0  0
   -7.2682   17.6650  -32.2934 H   0  0  0  0  0  0  0  0  0  0  0  0
   -9.0549   19.3271  -31.7505 H   0  0  0  0  0  0  0  0  0  0  0  0
   -8.4447   21.7309  -31.4425 H   0  0  0  0  0  0  0  0  0  0  0  0
   -7.3823   24.3649  -31.6727 H   0  0  0  0  0  0  0  0  0  0  0  0
   -6.2258   24.4221  -33.0460 H   0  0  0  0  0  0  0  0  0  0  0  0
   -7.5613   23.2209  -33.0460 H   0  0  0  0  0  0  0  0  0  0  0  0
  1  2  1  0
  2  3  1  0
  3  4  1  0
  3  5  1  0
  5  6  1  0
  6  7  1  0
  7  8  1  0
  8  9  1  0
  9 10  2  0
 10 11  1  0
 11 12  1  0
 11 13  2  0
 13 14  1  0
 14 15  2  0
 14 16  1  0
 16 17  1  0
 17 18  1  0
 16 19  1  0
 19 20  2  0
 20 21  1  0
 21 22  2  0
 22 23  1  0
 23 24  2  0
 24 25  1  0
 25 26  1  0
 25 27  1  0
 27 28  2  0
 15  9  1  0
 24 19  1  0
 27 13  1  0
  1 29  1  0
  1 30  1  0
  1 31  1  0
  2 32  1  0
  2 33  1  0
  4 34  1  0
  4 35  1  0
  4 36  1  0
  5 37  1  0
  5 38  1  0
  6 39  1  0
  6 40  1  0
  7 41  1  0
  7 42  1  0
  8 43  1  0
 10 44  1  0
 15 45  1  0
 17 46  1  0
 17 47  1  0
 18 48  1  0
 18 49  1  0
 18 50  1  0
 21 51  1  0
 22 52  1  0
 23 53  1  0
 26 54  1  0
 26 55  1  0
 26 56  1  0
M  END
>  <UniqueID>  (20) 
20

>  <SMILES>  (20) 
CCN(C)CCCNc1cc(Cl)c2c(c1)N(CC)c1ncccc1N(C)C2=O

>  <Energy>  (20) 
83.99289765157368

>  <Genealogy>  (20) 
CCN(C)CCCNc1cc(Cl)c2c(c1)N(CC)c1ncccc1N(C)C2=O (3D coordinates assigned)
CCN(C)CCCNc1cc(Cl)c2c(c1)N(CC)c1ncccc1N(C)C2=O (nonaromatic ring conformer: 83.99289765157368 kcal/mol)

>  <smiles>  (20) 
CCN(C)CCCNc1cc(Cl)c2c(c1)N(CC)c1ncccc1N(C)C2=O

>  <score_type>  (20) 
oracle

>  <origin>  (20) 
adg

>  <m_score__min__energy>  (20) 
-7.6600000000000001

>  <m_primary>  (20) 
energy

$$$$
20:0
     RDKit          3D

 39 40  0  0  0  0  0  0  0  0999 V2000
   -6.4488   26.1791  -30.5698 H   0  0  0  0  0  0  0  0  0  0  0  0
   -6.1380   25.1300  -30.4570 C   0  0  0  0  0  0  0  0  0  0  0  0
   -4.6990   24.8270  -30.3270 C   0  0  0  0  0  0  0  0  0  0  0  0
   -3.8750   25.6140  -30.8630 O   0  0  0  0  0  0  0  0  0  0  0  0
   -4.1830   23.6640  -29.5770 C   0  0  0  0  0  0  0  0  0  0  0  0
   -3.3370   22.3810  -30.2610 S   0  0  0  0  0  0  0  0  0  0  0  0
   -3.0440   21.5580  -28.8250 C   0  0  0  0  0  0  0  0  0  0  0  0
   -2.5088   20.6020  -28.7272 H   0  0  0  0  0  0  0  0  0  0  0  0
   -3.5940   22.2930  -27.7840 C   0  0  0  0  0  0  0  0  0  0  0  0
   -3.5406   21.9776  -26.7315 H   0  0  0  0  0  0  0  0  0  0  0  0
   -4.2230   23.4730  -28.1980 C   0  0  0  0  0  0  0  0  0  0  0  0
   -4.7013   24.1792  -27.5033 H   0  0  0  0  0  0  0  0  0  0  0  0
   -7.0810   24.1770  -30.4430 C   0  0  0  0  0  0  0  0  0  0  0  0
   -7.9950   24.3634  -29.8600 H   0  0  0  0  0  0  0  0  0  0  0  0
   -6.9670   22.8860  -31.1660 C   0  0  0  0  0  0  0  0  0  0  0  0
   -7.8920   21.8720  -30.8740 C   0  0  0  0  0  0  0  0  0  0  0  0
   -8.6792   22.0530  -30.1273 H   0  0  0  0  0  0  0  0  0  0  0  0
   -7.8250   20.6360  -31.5200 C   0  0  0  0  0  0  0  0  0  0  0  0
   -8.5648   19.8569  -31.2840 H   0  0  0  0  0  0  0  0  0  0  0  0
   -6.8200   20.3780  -32.4700 C   0  0  0  0  0  0  0  0  0  0  0  0
   -6.7410   19.0960  -33.1350 N   0  0  0  0  0  0  0  0  0  0  0  0
   -7.3030   17.8950  -32.5000 C   0  0  0  0  0  0  0  0  0  0  0  0
   -7.3403   17.0812  -33.2392 H   0  0  0  0  0  0  0  0  0  0  0  0
   -8.3137   18.1314  -32.1359 H   0  0  0  0  0  0  0  0  0  0  0  0
   -6.4490   17.4530  -31.3130 C   0  0  0  0  0  0  0  0  0  0  0  0
   -6.9597   17.7173  -30.3753 H   0  0  0  0  0  0  0  0  0  0  0  0
   -6.2990   16.3641  -31.3545 H   0  0  0  0  0  0  0  0  0  0  0  0
   -5.4734   17.9593  -31.3545 H   0  0  0  0  0  0  0  0  0  0  0  0
   -6.0960   18.9690  -34.4540 C   0  0  0  0  0  0  0  0  0  0  0  0
   -6.7852   18.4614  -35.1448 H   0  0  0  0  0  0  0  0  0  0  0  0
   -5.8529   19.9755  -34.8254 H   0  0  0  0  0  0  0  0  0  0  0  0
   -4.8050   18.1610  -34.3520 C   0  0  0  0  0  0  0  0  0  0  0  0
   -4.5536   18.0037  -33.2927 H   0  0  0  0  0  0  0  0  0  0  0  0
   -4.9420   17.1872  -34.8449 H   0  0  0  0  0  0  0  0  0  0  0  0
   -3.9890   18.7098  -34.8449 H   0  0  0  0  0  0  0  0  0  0  0  0
   -5.8860   21.3890  -32.7530 C   0  0  0  0  0  0  0  0  0  0  0  0
   -5.0928   21.2046  -33.4925 H   0  0  0  0  0  0  0  0  0  0  0  0
   -5.9530   22.6260  -32.1060 C   0  0  0  0  0  0  0  0  0  0  0  0
   -5.2074   23.4021  -32.3334 H   0  0  0  0  0  0  0  0  0  0  0  0
  1  2  1  0
  2  3  1  0
  3  4  2  0
  3  5  1  0
  5  6  1  0
  6  7  1  0
  7  8  1  0
  7  9  2  0
  9 10  1  0
  9 11  1  0
 11 12  1  0
  2 13  2  0
 13 14  1  0
 13 15  1  0
 15 16  2  0
 16 17  1  0
 16 18  1  0
 18 19  1  0
 18 20  2  0
 20 21  1  0
 21 22  1  0
 22 23  1  0
 22 24  1  0
 22 25  1  0
 25 26  1  0
 25 27  1  0
 25 28  1  0
 21 29  1  0
 29 30  1  0
 29 31  1  0
 29 32  1  0
 32 33  1  0
 32 34  1  0
 32 35  1  0
 20 36  1  0
 36 37  1  0
 36 38  2  0
 38 39  1  0
 11  5  2  0
 38 15  1  0
M  END
>  <UniqueID>  (21) 
21

>  <SMILES>  (21) 
CCN(CC)c1ccc(/C=C/C(=O)c2cccs2)cc1

>  <Energy>  (21) 
67.67826841326132

>  <Genealogy>  (21) 
CCN(CC)c1ccc(/C=C/C(=O)c2cccs2)cc1 (cis-trans isomerization)
CCN(CC)c1ccc(/C=C/C(=O)c2cccs2)cc1 (3D coordinates assigned)
CCN(CC)c1ccc(/C=C/C(=O)c2cccs2)cc1 (optimized conformer: 67.67826841326132 kcal/mol)

>  <smiles>  (21) 
CCN(CC)c1ccc(C=CC(=O)c2cccs2)cc1

>  <score_type>  (21) 
oracle

>  <origin>  (21) 
adg

>  <m_score__min__energy>  (21) 
-7.96

>  <m_primary>  (21) 
energy

$$$$
21:0
     RDKit          3D

 67 70  0  0  0  0  0  0  0  0999 V2000
   -2.7780   23.2400  -30.0460 C   0  0  0  0  0  0  0  0  0  0  0  0
   -3.7050   24.3090  -29.4890 C   0  0  0  0  0  0  0  0  0  0  0  0
   -3.9280   25.2920  -30.4780 O   0  0  0  0  0  0  0  0  0  0  0  0
   -5.2890   25.6660  -30.4650 C   0  0  0  0  0  0  0  0  0  0  0  0
   -6.1620   24.4190  -30.4020 C   0  0  0  0  0  0  0  0  0  0  0  0
   -5.8980   23.6270  -31.5440 O   0  0  0  0  0  0  0  0  0  0  0  0
   -6.3850   22.3150  -31.3530 C   0  0  0  0  0  0  0  0  0  0  0  0
   -6.9250   21.7800  -32.6850 C   0  0  0  0  0  0  0  0  0  0  0  0
   -7.7720   20.5800  -32.4680 N   0  0  0  0  0  0  0  0  0  0  0  0
   -9.2000   20.9530  -32.3370 C   0  0  0  0  0  0  0  0  0  0  0  0
   -9.4820   21.5960  -30.9800 C   0  0  0  0  0  0  0  0  0  0  0  0
   -7.3240   19.8110  -31.2800 C   0  0  0  0  0  0  0  0  0  0  0  0
   -6.8370   18.4160  -31.6940 C   0  0  0  0  0  0  0  0  0  0  0  0
   -6.5190   18.3750  -33.1220 N   0  0  0  0  0  0  0  0  0  0  0  0
   -5.4630   17.5530  -33.6280 C   0  0  0  0  0  0  0  0  0  0  0  0
   -5.6810   16.2000  -33.9750 C   0  0  0  0  0  0  0  0  0  0  0  0
   -6.9680   15.6340  -33.8810 C   0  0  0  0  0  0  0  0  0  0  0  0
   -7.1920   14.3150  -34.2690 C   0  0  0  0  0  0  0  0  0  0  0  0
   -6.1450   13.5390  -34.7550 C   0  0  0  0  0  0  0  0  0  0  0  0
   -4.8560   14.0670  -34.8420 C   0  0  0  0  0  0  0  0  0  0  0  0
   -4.5820   15.3950  -34.4330 C   0  0  0  0  0  0  0  0  0  0  0  0
   -3.2970   15.9180  -34.4740 N   0  0  0  0  0  0  0  0  0  0  0  0
   -2.1380   15.0800  -34.8270 C   0  0  0  0  0  0  0  0  0  0  0  0
   -3.1270   17.2460  -34.1780 C   0  0  0  0  0  0  0  0  0  0  0  0
   -1.9670   17.9480  -34.2450 N   0  0  0  0  0  0  0  0  0  0  0  0
   -2.2880   19.1940  -33.8420 C   0  0  0  0  0  0  0  0  0  0  0  0
   -1.4260   20.2850  -33.7380 C   0  0  0  0  0  0  0  0  0  0  0  0
   -1.9600   21.5090  -33.2960 C   0  0  0  0  0  0  0  0  0  0  0  0
   -3.3280   21.6160  -32.9730 C   0  0  0  0  0  0  0  0  0  0  0  0
   -4.1800   20.5030  -33.0910 C   0  0  0  0  0  0  0  0  0  0  0  0
   -3.6250   19.2990  -33.5280 C   0  0  0  0  0  0  0  0  0  0  0  0
   -4.1690   18.0470  -33.7530 C   0  0  0  0  0  0  0  0  0  0  0  0
   -2.3056   22.6952  -29.2153 H   0  0  0  0  0  0  0  0  0  0  0  0
   -3.3575   22.5373  -30.6628 H   0  0  0  0  0  0  0  0  0  0  0  0
   -2.0004   23.7141  -30.6628 H   0  0  0  0  0  0  0  0  0  0  0  0
   -4.6634   23.8517  -29.2022 H   0  0  0  0  0  0  0  0  0  0  0  0
   -3.2444   24.7729  -28.6043 H   0  0  0  0  0  0  0  0  0  0  0  0
   -5.4870   26.2961  -29.5853 H   0  0  0  0  0  0  0  0  0  0  0  0
   -5.5217   26.2285  -31.3812 H   0  0  0  0  0  0  0  0  0  0  0  0
   -5.9272   23.8475  -29.4919 H   0  0  0  0  0  0  0  0  0  0  0  0
   -7.2242   24.7038  -30.3787 H   0  0  0  0  0  0  0  0  0  0  0  0
   -5.5691   21.6673  -30.9997 H   0  0  0  0  0  0  0  0  0  0  0  0
   -7.1907   22.3247  -30.6041 H   0  0  0  0  0  0  0  0  0  0  0  0
   -7.5264   22.5627  -33.1705 H   0  0  0  0  0  0  0  0  0  0  0  0
   -6.0738   21.4995  -33.3228 H   0  0  0  0  0  0  0  0  0  0  0  0
   -9.4586   21.6670  -33.1328 H   0  0  0  0  0  0  0  0  0  0  0  0
   -9.8073   20.0398  -32.4221 H   0  0  0  0  0  0  0  0  0  0  0  0
   -9.1797   20.9068  -30.1778 H   0  0  0  0  0  0  0  0  0  0  0  0
   -8.9121   22.5328  -30.8926 H   0  0  0  0  0  0  0  0  0  0  0  0
  -10.5572   21.8114  -30.8926 H   0  0  0  0  0  0  0  0  0  0  0  0
   -6.5008   20.3507  -30.7890 H   0  0  0  0  0  0  0  0  0  0  0  0
   -8.1717   19.7005  -30.5878 H   0  0  0  0  0  0  0  0  0  0  0  0
   -5.9351   18.1637  -31.1170 H   0  0  0  0  0  0  0  0  0  0  0  0
   -7.6386   17.6902  -31.4920 H   0  0  0  0  0  0  0  0  0  0  0  0
   -6.9710   19.0370  -33.7860 H   0  0  0  0  0  0  0  0  0  0  0  0
   -7.8030   16.2390  -33.4979 H   0  0  0  0  0  0  0  0  0  0  0  0
   -8.2015   13.8852  -34.1907 H   0  0  0  0  0  0  0  0  0  0  0  0
   -6.3340   12.5030  -35.0727 H   0  0  0  0  0  0  0  0  0  0  0  0
   -4.0402   13.4420  -35.2343 H   0  0  0  0  0  0  0  0  0  0  0  0
   -1.6481   14.7258  -33.9080 H   0  0  0  0  0  0  0  0  0  0  0  0
   -2.4765   14.2164  -35.4183 H   0  0  0  0  0  0  0  0  0  0  0  0
   -1.4240   15.6720  -35.4183 H   0  0  0  0  0  0  0  0  0  0  0  0
   -1.0230   17.6360  -34.5650 H   0  0  0  0  0  0  0  0  0  0  0  0
   -0.3603   20.1913  -33.9939 H   0  0  0  0  0  0  0  0  0  0  0  0
   -1.3059   22.3884  -33.2018 H   0  0  0  0  0  0  0  0  0  0  0  0
   -3.7327   22.5781  -32.6257 H   0  0  0  0  0  0  0  0  0  0  0  0
   -5.2498   20.5790  -32.8466 H   0  0  0  0  0  0  0  0  0  0  0  0
  1  2  1  0
  2  3  1  0
  3  4  1  0
  4  5  1  0
  5  6  1  0
  6  7  1  0
  7  8  1  0
  8  9  1  0
  9 10  1  0
 10 11  1  0
  9 12  1  0
 12 13  1  0
 13 14  1  0
 14 15  1  0
 15 16  2  0
 16 17  1  0
 17 18  2  0
 18 19  1  0
 19 20  2  0
 20 21  1  0
 21 22  2  0
 22 23  1  0
 22 24  1  0
 24 25  1  0
 25 26  1  0
 26 27  2  0
 27 28  1  0
 28 29  2  0
 29 30  1  0
 30 31  2  0
 31 32  1  0
 32 15  1  0
 21 16  1  0
 32 24  2  0
 31 26  1  0
  1 33  1  0
  1 34  1  0
  1 35  1  0
  2 36  1  0
  2 37  1  0
  4 38  1  0
  4 39  1  0
  5 40  1  0
  5 41  1  0
  7 42  1  0
  7 43  1  0
  8 44  1  0
  8 45  1  0
 10 46  1  0
 10 47  1  0
 11 48  1  0
 11 49  1  0
 11 50  1  0
 12 51  1  0
 12 52  1  0
 13 53  1  0
 13 54  1  0
 14 55  1  0
 17 56  1  0
 18 57  1  0
 19 58  1  0
 20 59  1  0
 23 60  1  0
 23 61  1  0
 23 62  1  0
 25 63  1  0
 27 64  1  0
 28 65  1  0
 29 66  1  0
 30 67  1  0
M  CHG  1  22   1
M  END
>  <UniqueID>  (22) 
22

>  <SMILES>  (22) 
CCOCCOCCN(CC)CCNc1c2ccccc2[n+](C)c2[nH]c3ccccc3c12

>  <Energy>  (22) 
117.43327318401853

>  <Genealogy>  (22) 
CCOCCOCCN(CC)CCNc1c2ccccc2[n+](C)c2[nH]c3ccccc3c12 (3D coordinates assigned)
CCOCCOCCN(CC)CCNc1c2ccccc2[n+](C)c2[nH]c3ccccc3c12 (optimized conformer: 117.43327318401853 kcal/mol)

>  <smiles>  (22) 
CCOCCOCCN(CC)CCNc1c2ccccc2[n+](C)c2[nH]c3ccccc3c12

>  <score_type>  (22) 
oracle

>  <origin>  (22) 
adg

>  <m_score__min__energy>  (22) 
-9.9900000000000002

>  <m_primary>  (22) 
energy

$$$$
22:0
     RDKit          3D

 56 59  0  0  0  0  0  0  0  0999 V2000
   -6.1260   16.7520  -32.0870 C   0  0  0  0  0  0  0  0  0  0  0  0
   -6.3370   16.7190  -33.5430 N   0  0  0  0  0  0  0  0  0  0  0  0
   -6.7070   15.3520  -33.9510 C   0  0  0  0  0  0  0  0  0  0  0  0
   -5.1120   17.1700  -34.2400 C   0  0  0  0  0  0  0  0  0  0  0  0
   -5.1580   18.6830  -34.5510 C   0  0  0  0  0  0  0  0  0  0  0  0
   -6.4590   19.2690  -34.1900 N   0  0  0  0  0  0  0  0  0  0  0  0
   -6.3050   20.2100  -33.0980 C   0  0  0  0  0  0  0  0  0  0  0  0
   -5.0210   20.6370  -32.7680 C   0  0  0  0  0  0  0  0  0  0  0  0
   -4.8090   21.5230  -31.7200 C   0  0  0  0  0  0  0  0  0  0  0  0
   -3.5260   21.8730  -31.4370 N   0  0  0  0  0  0  0  0  0  0  0  0
   -3.2220   22.7060  -30.4180 C   0  0  0  0  0  0  0  0  0  0  0  0
   -1.8930   23.0470  -30.1560 C   0  0  0  0  0  0  0  0  0  0  0  0
   -1.5840   23.8980  -29.0910 C   0  0  0  0  0  0  0  0  0  0  0  0
   -2.6070   24.4130  -28.2680 C   0  0  0  0  0  0  0  0  0  0  0  0
   -2.3290   25.2960  -27.1640 N   0  0  0  0  0  0  0  0  0  0  0  0
   -0.9950   25.5600  -26.6210 C   0  0  0  0  0  0  0  0  0  0  0  0
   -1.0690   25.9540  -25.1430 C   0  0  0  0  0  0  0  0  0  0  0  0
   -2.3530   26.5830  -24.8440 N   0  0  0  0  0  0  0  0  0  0  0  0
   -3.9410   24.0660  -28.5450 C   0  0  0  0  0  0  0  0  0  0  0  0
   -4.2480   23.2140  -29.6180 C   0  0  0  0  0  0  0  0  0  0  0  0
   -5.5670   22.8510  -29.9150 C   0  0  0  0  0  0  0  0  0  0  0  0
   -5.8630   22.0230  -30.9790 N   0  0  0  0  0  0  0  0  0  0  0  0
   -7.1670   21.6760  -31.3210 C   0  0  0  0  0  0  0  0  0  0  0  0
   -8.3020   22.2270  -30.6600 C   0  0  0  0  0  0  0  0  0  0  0  0
   -9.5980   21.8590  -31.0150 C   0  0  0  0  0  0  0  0  0  0  0  0
   -9.8130   20.9500  -32.0380 C   0  0  0  0  0  0  0  0  0  0  0  0
   -8.7340   20.4050  -32.7250 C   0  0  0  0  0  0  0  0  0  0  0  0
   -7.4050   20.7510  -32.3880 C   0  0  0  0  0  0  0  0  0  0  0  0
   -7.0872   16.6017  -31.5737 H   0  0  0  0  0  0  0  0  0  0  0  0
   -5.4277   15.9521  -31.7995 H   0  0  0  0  0  0  0  0  0  0  0  0
   -5.7053   17.7269  -31.7995 H   0  0  0  0  0  0  0  0  0  0  0  0
   -6.8741   14.7348  -33.0559 H   0  0  0  0  0  0  0  0  0  0  0  0
   -7.6285   15.3851  -34.5508 H   0  0  0  0  0  0  0  0  0  0  0  0
   -5.8946   14.9158  -34.5508 H   0  0  0  0  0  0  0  0  0  0  0  0
   -4.2411   16.9634  -33.6006 H   0  0  0  0  0  0  0  0  0  0  0  0
   -5.0383   16.6253  -35.1928 H   0  0  0  0  0  0  0  0  0  0  0  0
   -4.3668   19.1896  -33.9789 H   0  0  0  0  0  0  0  0  0  0  0  0
   -5.0071   18.8176  -35.6323 H   0  0  0  0  0  0  0  0  0  0  0  0
   -6.9060   19.7260  -35.0160 H   0  0  0  0  0  0  0  0  0  0  0  0
   -7.1150   18.5060  -33.9040 H   0  0  0  0  0  0  0  0  0  0  0  0
   -4.1617   20.2667  -33.3464 H   0  0  0  0  0  0  0  0  0  0  0  0
   -1.0881   22.6451  -30.7889 H   0  0  0  0  0  0  0  0  0  0  0  0
   -0.5360   24.1678  -28.8935 H   0  0  0  0  0  0  0  0  0  0  0  0
   -3.1300   25.7900  -26.7090 H   0  0  0  0  0  0  0  0  0  0  0  0
   -0.3807   24.6530  -26.7206 H   0  0  0  0  0  0  0  0  0  0  0  0
   -0.5480   26.3935  -27.1826 H   0  0  0  0  0  0  0  0  0  0  0  0
   -0.9541   25.0532  -24.5222 H   0  0  0  0  0  0  0  0  0  0  0  0
   -0.2631   26.6704  -24.9254 H   0  0  0  0  0  0  0  0  0  0  0  0
   -2.4140   26.7010  -23.8070 H   0  0  0  0  0  0  0  0  0  0  0  0
   -2.3490   27.5460  -25.2520 H   0  0  0  0  0  0  0  0  0  0  0  0
   -4.7505   24.4651  -27.9162 H   0  0  0  0  0  0  0  0  0  0  0  0
   -6.3850   23.2338  -29.2870 H   0  0  0  0  0  0  0  0  0  0  0  0
   -8.1522   22.9585  -29.8522 H   0  0  0  0  0  0  0  0  0  0  0  0
  -10.4556   22.2928  -30.4798 H   0  0  0  0  0  0  0  0  0  0  0  0
  -10.8390   20.6589  -32.3073 H   0  0  0  0  0  0  0  0  0  0  0  0
   -8.9171   19.6934  -33.5436 H   0  0  0  0  0  0  0  0  0  0  0  0
  1  2  1  0
  2  3  1  0
  2  4  1  0
  4  5  1  0
  5  6  1  0
  6  7  1  0
  7  8  2  0
  8  9  1  0
  9 10  2  0
 10 11  1  0
 11 12  2  0
 12 13  1  0
 13 14  2  0
 14 15  1  0
 15 16  1  0
 16 17  1  0
 17 18  1  0
 14 19  1  0
 19 20  2  0
 20 21  1  0
 21 22  2  0
 22 23  1  0
 23 24  2  0
 24 25  1  0
 25 26  2  0
 26 27  1  0
 27 28  2  0
 28  7  1  0
 22  9  1  0
 28 23  1  0
 20 11  1  0
  1 29  1  0
  1 30  1  0
  1 31  1  0
  3 32  1  0
  3 33  1  0
  3 34  1  0
  4 35  1  0
  4 36  1  0
  5 37  1  0
  5 38  1  0
  6 39  1  0
  6 40  1  0
  8 41  1  0
 12 42  1  0
 13 43  1  0
 15 44  1  0
 16 45  1  0
 16 46  1  0
 17 47  1  0
 17 48  1  0
 18 49  1  0
 18 50  1  0
 19 51  1  0
 21 52  1  0
 24 53  1  0
 25 54  1  0
 26 55  1  0
 27 56  1  0
M  CHG  2   6   1  22   1
M  END
>  <UniqueID>  (23) 
23

>  <SMILES>  (23) 
CN(C)CC[NH2+]c1cc2nc3ccc(NCCN)cc3c[n+]2c2ccccc12

>  <Energy>  (23) 
78.75055629287772

>  <Genealogy>  (23) 
CN(C)CC[NH2+]c1cc2nc3ccc(NCCN)cc3c[n+]2c2ccccc12 (protonated)
CN(C)CC[NH2+]c1cc2nc3ccc(NCCN)cc3c[n+]2c2ccccc12 (3D coordinates assigned)
CN(C)CC[NH2+]c1cc2nc3ccc(NCCN)cc3c[n+]2c2ccccc12 (optimized conformer: 78.75055629287772 kcal/mol)

>  <smiles>  (23) 
CN(C)CCNc1cc2nc3ccc(NCCN)cc3c[n+]2c2ccccc12

>  <score_type>  (23) 
oracle

>  <origin>  (23) 
adg

>  <m_score__min__energy>  (23) 
-7.4400000000000004

>  <m_primary>  (23) 
energy

$$$$
23:0
     RDKit          3D

 54 57  0  0  0  0  0  0  0  0999 V2000
   -3.5750   23.3980  -28.3480 C   0  0  0  0  0  0  0  0  0  0  0  0
   -3.2750   24.5530  -29.3010 C   0  0  0  0  0  0  0  0  0  0  0  0
   -3.9540   24.3430  -30.5950 N   0  0  0  0  0  0  0  0  0  0  0  0
   -5.0800   25.2780  -30.8330 C   0  0  0  0  0  0  0  0  0  0  0  0
   -6.1170   25.1130  -29.7280 C   0  0  0  0  0  0  0  0  0  0  0  0
   -4.3140   22.9280  -30.8450 C   0  0  0  0  0  0  0  0  0  0  0  0
   -3.5700   22.2950  -32.0400 C   0  0  0  0  0  0  0  0  0  0  0  0
   -4.5190   21.9750  -33.1070 N   0  0  0  0  0  0  0  0  0  0  0  0
   -5.6200   21.0810  -32.8720 C   0  0  0  0  0  0  0  0  0  0  0  0
   -6.8860   21.5630  -32.4910 C   0  0  0  0  0  0  0  0  0  0  0  0
   -7.0980   22.9380  -32.2640 C   0  0  0  0  0  0  0  0  0  0  0  0
   -8.3700   23.4190  -31.9600 C   0  0  0  0  0  0  0  0  0  0  0  0
   -9.4470   22.5420  -31.8840 C   0  0  0  0  0  0  0  0  0  0  0  0
   -9.2510   21.1720  -32.0600 C   0  0  0  0  0  0  0  0  0  0  0  0
   -7.9590   20.6450  -32.3180 C   0  0  0  0  0  0  0  0  0  0  0  0
   -7.7310   19.2840  -32.4150 N   0  0  0  0  0  0  0  0  0  0  0  0
   -8.7560   18.3200  -31.9570 C   0  0  0  0  0  0  0  0  0  0  0  0
   -6.5230   18.8170  -32.8950 C   0  0  0  0  0  0  0  0  0  0  0  0
   -6.3310   17.4950  -33.2150 N   0  0  0  0  0  0  0  0  0  0  0  0
   -5.1210   17.0310  -33.6390 C   0  0  0  0  0  0  0  0  0  0  0  0
   -4.9290   15.6730  -33.9440 C   0  0  0  0  0  0  0  0  0  0  0  0
   -3.6790   15.2230  -34.3820 C   0  0  0  0  0  0  0  0  0  0  0  0
   -2.6180   16.1230  -34.5250 C   0  0  0  0  0  0  0  0  0  0  0  0
   -2.8020   17.4780  -34.2290 C   0  0  0  0  0  0  0  0  0  0  0  0
   -4.0490   17.9310  -33.7850 C   0  0  0  0  0  0  0  0  0  0  0  0
   -4.2440   19.2430  -33.5140 N   0  0  0  0  0  0  0  0  0  0  0  0
   -5.4470   19.7130  -33.0870 C   0  0  0  0  0  0  0  0  0  0  0  0
   -3.4843   23.7471  -27.3088 H   0  0  0  0  0  0  0  0  0  0  0  0
   -4.5977   23.0333  -28.5244 H   0  0  0  0  0  0  0  0  0  0  0  0
   -2.8591   22.5817  -28.5244 H   0  0  0  0  0  0  0  0  0  0  0  0
   -3.6301   25.4932  -28.8539 H   0  0  0  0  0  0  0  0  0  0  0  0
   -2.1894   24.6016  -29.4717 H   0  0  0  0  0  0  0  0  0  0  0  0
   -4.7048   26.3120  -30.8328 H   0  0  0  0  0  0  0  0  0  0  0  0
   -5.5419   25.0568  -31.8065 H   0  0  0  0  0  0  0  0  0  0  0  0
   -5.6240   25.1914  -28.7478 H   0  0  0  0  0  0  0  0  0  0  0  0
   -6.8788   25.9012  -29.8194 H   0  0  0  0  0  0  0  0  0  0  0  0
   -6.5965   24.1273  -29.8194 H   0  0  0  0  0  0  0  0  0  0  0  0
   -4.0776   22.3458  -29.9421 H   0  0  0  0  0  0  0  0  0  0  0  0
   -5.3861   22.9099  -31.0906 H   0  0  0  0  0  0  0  0  0  0  0  0
   -2.8203   23.0047  -32.4199 H   0  0  0  0  0  0  0  0  0  0  0  0
   -3.0740   21.3709  -31.7084 H   0  0  0  0  0  0  0  0  0  0  0  0
   -4.6180   22.6720  -33.8790 H   0  0  0  0  0  0  0  0  0  0  0  0
   -6.2516   23.6377  -32.3274 H   0  0  0  0  0  0  0  0  0  0  0  0
   -8.5226   24.4934  -31.7799 H   0  0  0  0  0  0  0  0  0  0  0  0
  -10.4568   22.9300  -31.6844 H   0  0  0  0  0  0  0  0  0  0  0  0
  -10.1115   20.4896  -31.9978 H   0  0  0  0  0  0  0  0  0  0  0  0
   -8.7762   18.3010  -30.8573 H   0  0  0  0  0  0  0  0  0  0  0  0
   -9.7422   18.6254  -32.3366 H   0  0  0  0  0  0  0  0  0  0  0  0
   -8.5116   17.3169  -32.3366 H   0  0  0  0  0  0  0  0  0  0  0  0
   -7.1220   16.8140  -33.1880 H   0  0  0  0  0  0  0  0  0  0  0  0
   -5.7625   14.9629  -33.8383 H   0  0  0  0  0  0  0  0  0  0  0  0
   -3.5301   14.1582  -34.6146 H   0  0  0  0  0  0  0  0  0  0  0  0
   -1.6371   15.7649  -34.8708 H   0  0  0  0  0  0  0  0  0  0  0  0
   -1.9679   18.1857  -34.3451 H   0  0  0  0  0  0  0  0  0  0  0  0
  1  2  1  0
  2  3  1  0
  3  4  1  0
  4  5  1  0
  3  6  1  0
  6  7  1  0
  7  8  1  0
  8  9  1  0
  9 10  2  0
 10 11  1  0
 11 12  2  0
 12 13  1  0
 13 14  2  0
 14 15  1  0
 15 16  2  0
 16 17  1  0
 16 18  1  0
 18 19  2  0
 19 20  1  0
 20 21  2  0
 21 22  1  0
 22 23  2  0
 23 24  1  0
 24 25  2  0
 25 26  1  0
 26 27  2  0
 27  9  1  0
 15 10  1  0
 27 18  1  0
 25 20  1  0
  1 28  1  0
  1 29  1  0
  1 30  1  0
  2 31  1  0
  2 32  1  0
  4 33  1  0
  4 34  1  0
  5 35  1  0
  5 36  1  0
  5 37  1  0
  6 38  1  0
  6 39  1  0
  7 40  1  0
  7 41  1  0
  8 42  1  0
 11 43  1  0
 12 44  1  0
 13 45  1  0
 14 46  1  0
 17 47  1  0
 17 48  1  0
 17 49  1  0
 19 50  1  0
 21 51  1  0
 22 52  1  0
 23 53  1  0
 24 54  1  0
M  CHG  2  16   1  19   1
M  END
>  <UniqueID>  (24) 
24

>  <SMILES>  (24) 
CCN(CC)CCNc1c2ccccc2[n+](C)c2[nH+]c3ccccc3nc12

>  <Energy>  (24) 
83.83580724670138

>  <Genealogy>  (24) 
CCN(CC)CCNc1c2ccccc2[n+](C)c2[nH+]c3ccccc3nc12 (protonated)
CCN(CC)CCNc1c2ccccc2[n+](C)c2[nH+]c3ccccc3nc12 (3D coordinates assigned)
CCN(CC)CCNc1c2ccccc2[n+](C)c2[nH+]c3ccccc3nc12 (optimized conformer: 83.83580724670138 kcal/mol)

>  <smiles>  (24) 
CCN(CC)CCNc1c2ccccc2[n+](C)c2nc3ccccc3nc12

>  <score_type>  (24) 
oracle

>  <origin>  (24) 
adg

>  <m_score__min__energy>  (24) 
-8.4900000000000002

>  <m_primary>  (24) 
energy

$$$$
24:0
     RDKit          3D

 59 62  0  0  0  0  0  0  0  0999 V2000
   -1.9020   20.2090  -28.0530 C   0  0  0  0  0  0  0  0  0  0  0  0
   -2.6790   21.0930  -29.0250 C   0  0  0  0  0  0  0  0  0  0  0  0
   -1.7680   21.6760  -30.0350 N   0  0  0  0  0  0  0  0  0  0  0  0
   -1.3680   23.0530  -29.6610 C   0  0  0  0  0  0  0  0  0  0  0  0
   -2.4610   23.7120  -28.8240 C   0  0  0  0  0  0  0  0  0  0  0  0
   -0.5810   20.8140  -30.2430 C   0  0  0  0  0  0  0  0  0  0  0  0
   -0.1750   20.8260  -31.7220 C   0  0  0  0  0  0  0  0  0  0  0  0
   -1.0080   21.6920  -32.4710 O   0  0  0  0  0  0  0  0  0  0  0  0
   -1.1920   21.2000  -33.7840 C   0  0  0  0  0  0  0  0  0  0  0  0
   -2.4690   20.3640  -33.8330 C   0  0  0  0  0  0  0  0  0  0  0  0
   -3.0940   20.3030  -32.5120 N   0  0  0  0  0  0  0  0  0  0  0  0
   -4.5250   20.3300  -32.3680 C   0  0  0  0  0  0  0  0  0  0  0  0
   -5.3060   19.2350  -32.7810 C   0  0  0  0  0  0  0  0  0  0  0  0
   -4.7120   18.1180  -33.4090 C   0  0  0  0  0  0  0  0  0  0  0  0
   -5.4880   17.0520  -33.8500 C   0  0  0  0  0  0  0  0  0  0  0  0
   -6.8670   17.0830  -33.6900 C   0  0  0  0  0  0  0  0  0  0  0  0
   -7.4750   18.1690  -33.0610 C   0  0  0  0  0  0  0  0  0  0  0  0
   -6.7080   19.2500  -32.5580 C   0  0  0  0  0  0  0  0  0  0  0  0
   -7.2950   20.3010  -31.8770 N   0  0  0  0  0  0  0  0  0  0  0  0
   -8.6880   20.1840  -31.3900 C   0  0  0  0  0  0  0  0  0  0  0  0
   -6.5760   21.4550  -31.6370 C   0  0  0  0  0  0  0  0  0  0  0  0
   -7.2100   22.6520  -31.1880 C   0  0  0  0  0  0  0  0  0  0  0  0
   -6.4300   23.7740  -30.9460 C   0  0  0  0  0  0  0  0  0  0  0  0
   -5.0940   23.7740  -31.1400 C   0  0  0  0  0  0  0  0  0  0  0  0
   -4.4180   22.6560  -31.5980 C   0  0  0  0  0  0  0  0  0  0  0  0
   -5.1600   21.4750  -31.8580 C   0  0  0  0  0  0  0  0  0  0  0  0
   -4.5840   25.0220  -30.8360 O   0  0  0  0  0  0  0  0  0  0  0  0
   -5.6740   25.8580  -30.4250 C   0  0  0  0  0  0  0  0  0  0  0  0
   -6.8350   25.0210  -30.5130 O   0  0  0  0  0  0  0  0  0  0  0  0
   -2.1513   20.4927  -27.0199 H   0  0  0  0  0  0  0  0  0  0  0  0
   -2.1720   19.1557  -28.2193 H   0  0  0  0  0  0  0  0  0  0  0  0
   -0.8228   20.3416  -28.2193 H   0  0  0  0  0  0  0  0  0  0  0  0
   -3.4436   20.4873  -29.5335 H   0  0  0  0  0  0  0  0  0  0  0  0
   -3.1554   21.9089  -28.4617 H   0  0  0  0  0  0  0  0  0  0  0  0
   -0.4368   23.0145  -29.0768 H   0  0  0  0  0  0  0  0  0  0  0  0
   -1.2136   23.6425  -30.5768 H   0  0  0  0  0  0  0  0  0  0  0  0
   -2.2365   23.5767  -27.7557 H   0  0  0  0  0  0  0  0  0  0  0  0
   -2.5034   24.7863  -29.0565 H   0  0  0  0  0  0  0  0  0  0  0  0
   -3.4309   23.2480  -29.0565 H   0  0  0  0  0  0  0  0  0  0  0  0
    0.2536   21.1905  -29.6333 H   0  0  0  0  0  0  0  0  0  0  0  0
   -0.8267   19.7841  -29.9449 H   0  0  0  0  0  0  0  0  0  0  0  0
    0.8671   21.1680  -31.8060 H   0  0  0  0  0  0  0  0  0  0  0  0
   -0.2801   19.8067  -32.1220 H   0  0  0  0  0  0  0  0  0  0  0  0
   -1.2777   22.0439  -34.4844 H   0  0  0  0  0  0  0  0  0  0  0  0
   -0.3314   20.5770  -34.0690 H   0  0  0  0  0  0  0  0  0  0  0  0
   -3.1725   20.8196  -34.5453 H   0  0  0  0  0  0  0  0  0  0  0  0
   -2.2130   19.3430  -34.1523 H   0  0  0  0  0  0  0  0  0  0  0  0
   -2.4980   20.4830  -31.6720 H   0  0  0  0  0  0  0  0  0  0  0  0
   -3.6215   18.0911  -33.5510 H   0  0  0  0  0  0  0  0  0  0  0  0
   -5.0093   16.1835  -34.3259 H   0  0  0  0  0  0  0  0  0  0  0  0
   -7.4812   16.2490  -34.0603 H   0  0  0  0  0  0  0  0  0  0  0  0
   -8.5696   18.1872  -32.9532 H   0  0  0  0  0  0  0  0  0  0  0  0
   -8.6930   20.1836  -30.2900 H   0  0  0  0  0  0  0  0  0  0  0  0
   -9.2782   21.0357  -31.7591 H   0  0  0  0  0  0  0  0  0  0  0  0
   -9.1279   19.2457  -31.7591 H   0  0  0  0  0  0  0  0  0  0  0  0
   -8.2990   22.6848  -31.0362 H   0  0  0  0  0  0  0  0  0  0  0  0
   -3.3298   22.6827  -31.7568 H   0  0  0  0  0  0  0  0  0  0  0  0
   -5.5260   26.2070  -29.3924 H   0  0  0  0  0  0  0  0  0  0  0  0
   -5.7642   26.7581  -31.0509 H   0  0  0  0  0  0  0  0  0  0  0  0
  1  2  1  0
  2  3  1  0
  3  4  1  0
  4  5  1  0
  3  6  1  0
  6  7  1  0
  7  8  1  0
  8  9  1  0
  9 10  1  0
 10 11  1  0
 11 12  1  0
 12 13  2  0
 13 14  1  0
 14 15  2  0
 15 16  1  0
 16 17  2  0
 17 18  1  0
 18 19  2  0
 19 20  1  0
 19 21  1  0
 21 22  2  0
 22 23  1  0
 23 24  2  0
 24 25  1  0
 25 26  2  0
 24 27  1  0
 27 28  1  0
 28 29  1  0
 26 12  1  0
 18 13  1  0
 26 21  1  0
 29 23  1  0
  1 30  1  0
  1 31  1  0
  1 32  1  0
  2 33  1  0
  2 34  1  0
  4 35  1  0
  4 36  1  0
  5 37  1  0
  5 38  1  0
  5 39  1  0
  6 40  1  0
  6 41  1  0
  7 42  1  0
  7 43  1  0
  9 44  1  0
  9 45  1  0
 10 46  1  0
 10 47  1  0
 11 48  1  0
 14 49  1  0
 15 50  1  0
 16 51  1  0
 17 52  1  0
 20 53  1  0
 20 54  1  0
 20 55  1  0
 22 56  1  0
 25 57  1  0
 28 58  1  0
 28 59  1  0
M  CHG  1  19   1
M  END
>  <UniqueID>  (25) 
25

>  <SMILES>  (25) 
CCN(CC)CCOCCNc1c2ccccc2[n+](C)c2cc3c(cc12)OCO3

>  <Energy>  (25) 
111.9476214772731

>  <Genealogy>  (25) 
CCN(CC)CCOCCNc1c2ccccc2[n+](C)c2cc3c(cc12)OCO3 (3D coordinates assigned)
CCN(CC)CCOCCNc1c2ccccc2[n+](C)c2cc3c(cc12)OCO3 (nonaromatic ring conformer: 111.9476214772731 kcal/mol)

>  <smiles>  (25) 
CCN(CC)CCOCCNc1c2ccccc2[n+](C)c2cc3c(cc12)OCO3

>  <score_type>  (25) 
oracle

>  <origin>  (25) 
adg

>  <m_score__min__energy>  (25) 
-9.0399999999999991

>  <m_primary>  (25) 
energy

$$$$
25:0
     RDKit          3D

 55 57  0  0  0  0  0  0  0  0999 V2000
   -2.6750   24.9160  -26.9410 C   0  0  0  0  0  0  0  0  0  0  0  0
   -1.9680   24.7280  -28.2790 C   0  0  0  0  0  0  0  0  0  0  0  0
   -2.7360   25.2930  -29.3420 O   0  0  0  0  0  0  0  0  0  0  0  0
   -3.9500   24.7860  -29.8330 C   0  0  0  0  0  0  0  0  0  0  0  0
   -4.8930   25.5840  -30.5110 C   0  0  0  0  0  0  0  0  0  0  0  0
   -6.0870   25.0230  -30.9770 C   0  0  0  0  0  0  0  0  0  0  0  0
   -6.3640   23.6660  -30.7620 C   0  0  0  0  0  0  0  0  0  0  0  0
   -7.6280   23.0540  -31.3040 C   0  0  0  0  0  0  0  0  0  0  0  0
   -7.3310   22.1620  -32.4260 N   0  0  0  0  0  0  0  0  0  0  0  0
   -7.5740   20.7380  -32.3940 C   0  0  0  0  0  0  0  0  0  0  0  0
   -8.8610   20.2240  -32.1320 C   0  0  0  0  0  0  0  0  0  0  0  0
   -9.0880   18.8460  -32.1030 C   0  0  0  0  0  0  0  0  0  0  0  0
   -8.0410   17.9540  -32.3330 C   0  0  0  0  0  0  0  0  0  0  0  0
   -6.7530   18.4390  -32.5930 C   0  0  0  0  0  0  0  0  0  0  0  0
   -5.6890   17.5610  -32.8330 C   0  0  0  0  0  0  0  0  0  0  0  0
   -4.4150   18.0660  -33.0910 C   0  0  0  0  0  0  0  0  0  0  0  0
   -4.2050   19.4510  -33.0960 C   0  0  0  0  0  0  0  0  0  0  0  0
   -2.8750   20.0260  -33.3790 C   0  0  0  0  0  0  0  0  0  0  0  0
   -2.5210   20.1690  -34.5800 O   0  0  0  0  0  0  0  0  0  0  0  0
   -1.9860   20.4330  -32.3200 N   0  0  0  0  0  0  0  0  0  0  0  0
   -0.5400   20.2170  -32.4850 C   0  0  0  0  0  0  0  0  0  0  0  0
    0.0220   21.1840  -33.5200 C   0  0  0  0  0  0  0  0  0  0  0  0
   -2.4730   21.3470  -31.2720 C   0  0  0  0  0  0  0  0  0  0  0  0
   -1.3320   21.8740  -30.4020 C   0  0  0  0  0  0  0  0  0  0  0  0
   -5.2570   20.2880  -32.8770 N   0  0  0  0  0  0  0  0  0  0  0  0
   -6.5150   19.8320  -32.6240 C   0  0  0  0  0  0  0  0  0  0  0  0
   -5.4200   22.8690  -30.0980 C   0  0  0  0  0  0  0  0  0  0  0  0
   -4.2280   23.4290  -29.6320 C   0  0  0  0  0  0  0  0  0  0  0  0
   -1.9656   24.7274  -26.1218 H   0  0  0  0  0  0  0  0  0  0  0  0
   -3.0539   25.9461  -26.8680 H   0  0  0  0  0  0  0  0  0  0  0  0
   -3.5155   24.2101  -26.8680 H   0  0  0  0  0  0  0  0  0  0  0  0
   -0.9863   25.2228  -28.2408 H   0  0  0  0  0  0  0  0  0  0  0  0
   -1.8468   23.6507  -28.4655 H   0  0  0  0  0  0  0  0  0  0  0  0
   -4.6895   26.6526  -30.6746 H   0  0  0  0  0  0  0  0  0  0  0  0
   -6.8126   25.6506  -31.5152 H   0  0  0  0  0  0  0  0  0  0  0  0
   -8.1217   22.4792  -30.5066 H   0  0  0  0  0  0  0  0  0  0  0  0
   -8.2877   23.8599  -31.6579 H   0  0  0  0  0  0  0  0  0  0  0  0
   -6.9210   22.5820  -33.2920 H   0  0  0  0  0  0  0  0  0  0  0  0
   -9.6958   20.9164  -31.9483 H   0  0  0  0  0  0  0  0  0  0  0  0
  -10.0982   18.4623  -31.8976 H   0  0  0  0  0  0  0  0  0  0  0  0
   -8.2266   16.8700  -32.3102 H   0  0  0  0  0  0  0  0  0  0  0  0
   -5.8579   16.4741  -32.8181 H   0  0  0  0  0  0  0  0  0  0  0  0
   -3.5786   17.3798  -33.2897 H   0  0  0  0  0  0  0  0  0  0  0  0
   -0.0357   20.3825  -31.5216 H   0  0  0  0  0  0  0  0  0  0  0  0
   -0.3679   19.1857  -32.8268 H   0  0  0  0  0  0  0  0  0  0  0  0
    0.5112   22.0257  -33.0079 H   0  0  0  0  0  0  0  0  0  0  0  0
    0.7568   20.6609  -34.1496 H   0  0  0  0  0  0  0  0  0  0  0  0
   -0.7963   21.5635  -34.1496 H   0  0  0  0  0  0  0  0  0  0  0  0
   -2.9790   22.1989  -31.7498 H   0  0  0  0  0  0  0  0  0  0  0  0
   -3.1650   20.7875  -30.6255 H   0  0  0  0  0  0  0  0  0  0  0  0
   -1.5942   21.7529  -29.3406 H   0  0  0  0  0  0  0  0  0  0  0  0
   -0.4138   21.3088  -30.6197 H   0  0  0  0  0  0  0  0  0  0  0  0
   -1.1670   22.9395  -30.6197 H   0  0  0  0  0  0  0  0  0  0  0  0
   -5.6191   21.7983  -29.9435 H   0  0  0  0  0  0  0  0  0  0  0  0
   -3.5004   22.7970  -29.1017 H   0  0  0  0  0  0  0  0  0  0  0  0
  1  2  1  0
  2  3  1  0
  3  4  1  0
  4  5  2  0
  5  6  1  0
  6  7  2  0
  7  8  1  0
  8  9  1  0
  9 10  1  0
 10 11  2  0
 11 12  1  0
 12 13  2  0
 13 14  1  0
 14 15  2  0
 15 16  1  0
 16 17  2  0
 17 18  1  0
 18 19  2  0
 18 20  1  0
 20 21  1  0
 21 22  1  0
 20 23  1  0
 23 24  1  0
 17 25  1  0
 25 26  2  0
  7 27  1  0
 27 28  2  0
 28  4  1  0
 26 10  1  0
 26 14  1  0
  1 29  1  0
  1 30  1  0
  1 31  1  0
  2 32  1  0
  2 33  1  0
  5 34  1  0
  6 35  1  0
  8 36  1  0
  8 37  1  0
  9 38  1  0
 11 39  1  0
 12 40  1  0
 13 41  1  0
 15 42  1  0
 16 43  1  0
 21 44  1  0
 21 45  1  0
 22 46  1  0
 22 47  1  0
 22 48  1  0
 23 49  1  0
 23 50  1  0
 24 51  1  0
 24 52  1  0
 24 53  1  0
 27 54  1  0
 28 55  1  0
M  END
>  <UniqueID>  (26) 
26

>  <SMILES>  (26) 
CCOc1ccc(CNc2cccc3ccc(C(=O)N(CC)CC)nc23)cc1

>  <Energy>  (26) 
56.52549194417985

>  <Genealogy>  (26) 
CCOc1ccc(CNc2cccc3ccc(C(=O)N(CC)CC)nc23)cc1 (3D coordinates assigned)
CCOc1ccc(CNc2cccc3ccc(C(=O)N(CC)CC)nc23)cc1 (optimized conformer: 56.52549194417985 kcal/mol)

>  <smiles>  (26) 
CCOc1ccc(CNc2cccc3ccc(C(=O)N(CC)CC)nc23)cc1

>  <score_type>  (26) 
oracle

>  <origin>  (26) 
adg

>  <m_score__min__energy>  (26) 
-9.1300000000000008

>  <m_primary>  (26) 
energy

$$$$
26:0
     RDKit          3D

 47 50  0  0  0  0  0  0  0  0999 V2000
    0.3130   23.9700  -27.6870 C   0  0  0  0  0  0  0  0  0  0  0  0
   -0.2500   24.1060  -28.9870 O   0  0  0  0  0  0  0  0  0  0  0  0
   -1.5840   23.8100  -29.3070 C   0  0  0  0  0  0  0  0  0  0  0  0
   -2.6700   24.3620  -28.5990 C   0  0  0  0  0  0  0  0  0  0  0  0
   -3.9830   24.0390  -28.9540 C   0  0  0  0  0  0  0  0  0  0  0  0
   -4.2260   23.1640  -30.0160 C   0  0  0  0  0  0  0  0  0  0  0  0
   -5.4990   22.8490  -30.3660 N   0  0  0  0  0  0  0  0  0  0  0  0
   -5.7460   22.0010  -31.4010 C   0  0  0  0  0  0  0  0  0  0  0  0
   -7.1420   21.6620  -31.7660 C   0  0  0  0  0  0  0  0  0  0  0  0
   -8.1620   22.5990  -31.5350 C   0  0  0  0  0  0  0  0  0  0  0  0
   -9.4900   22.2800  -31.8170 C   0  0  0  0  0  0  0  0  0  0  0  0
   -9.7960   21.0220  -32.3320 C   0  0  0  0  0  0  0  0  0  0  0  0
   -8.8060   20.1220  -32.5690 N   0  0  0  0  0  0  0  0  0  0  0  0
   -7.4960   20.4040  -32.3120 C   0  0  0  0  0  0  0  0  0  0  0  0
   -6.4980   19.4330  -32.6600 N   0  0  0  0  0  0  0  0  0  0  0  0
   -5.8180   19.5140  -33.9590 C   0  0  0  0  0  0  0  0  0  0  0  0
   -5.6850   18.1240  -34.6210 C   0  0  0  0  0  0  0  0  0  0  0  0
   -5.8310   16.9970  -33.6700 N   0  0  0  0  0  0  0  0  0  0  0  0
   -5.2040   15.7810  -34.2100 C   0  0  0  0  0  0  0  0  0  0  0  0
   -5.2720   17.3230  -32.3470 C   0  0  0  0  0  0  0  0  0  0  0  0
   -6.1540   18.3850  -31.6950 C   0  0  0  0  0  0  0  0  0  0  0  0
   -4.7300   21.4670  -32.0730 O   0  0  0  0  0  0  0  0  0  0  0  0
   -3.4610   21.7340  -31.7840 C   0  0  0  0  0  0  0  0  0  0  0  0
   -2.5490   21.1950  -32.4670 O   0  0  0  0  0  0  0  0  0  0  0  0
   -3.1510   22.6060  -30.7300 C   0  0  0  0  0  0  0  0  0  0  0  0
   -1.8320   22.9330  -30.3710 C   0  0  0  0  0  0  0  0  0  0  0  0
   -0.4628   24.1574  -26.9300 H   0  0  0  0  0  0  0  0  0  0  0  0
    0.7076   22.9507  -27.5631 H   0  0  0  0  0  0  0  0  0  0  0  0
    1.1294   24.6968  -27.5631 H   0  0  0  0  0  0  0  0  0  0  0  0
   -2.4836   25.0511  -27.7621 H   0  0  0  0  0  0  0  0  0  0  0  0
   -4.8257   24.4741  -28.3967 H   0  0  0  0  0  0  0  0  0  0  0  0
   -7.9121   23.5904  -31.1292 H   0  0  0  0  0  0  0  0  0  0  0  0
  -10.2883   23.0145  -31.6346 H   0  0  0  0  0  0  0  0  0  0  0  0
  -10.8416   20.7568  -32.5472 H   0  0  0  0  0  0  0  0  0  0  0  0
   -9.0610   19.1950  -32.9780 H   0  0  0  0  0  0  0  0  0  0  0  0
   -6.3966   20.1719  -34.6241 H   0  0  0  0  0  0  0  0  0  0  0  0
   -4.8066   19.9133  -33.7928 H   0  0  0  0  0  0  0  0  0  0  0  0
   -6.4632   18.0306  -35.3928 H   0  0  0  0  0  0  0  0  0  0  0  0
   -4.6699   18.0625  -35.0403 H   0  0  0  0  0  0  0  0  0  0  0  0
   -4.8732   15.1395  -33.3799 H   0  0  0  0  0  0  0  0  0  0  0  0
   -5.9332   15.2355  -34.8270 H   0  0  0  0  0  0  0  0  0  0  0  0
   -4.3367   16.0587  -34.8270 H   0  0  0  0  0  0  0  0  0  0  0  0
   -5.2538   16.4198  -31.7194 H   0  0  0  0  0  0  0  0  0  0  0  0
   -4.2449   17.7017  -32.4554 H   0  0  0  0  0  0  0  0  0  0  0  0
   -7.0778   17.9130  -31.3292 H   0  0  0  0  0  0  0  0  0  0  0  0
   -5.6024   18.8398  -30.8590 H   0  0  0  0  0  0  0  0  0  0  0  0
   -0.9896   22.4978  -30.9287 H   0  0  0  0  0  0  0  0  0  0  0  0
  1  2  1  0
  2  3  1  0
  3  4  2  0
  4  5  1  0
  5  6  2  0
  6  7  1  0
  7  8  2  0
  8  9  1  0
  9 10  2  0
 10 11  1  0
 11 12  2  0
 12 13  1  0
 13 14  2  0
 14 15  1  0
 15 16  1  0
 16 17  1  0
 17 18  1  0
 18 19  1  0
 18 20  1  0
 20 21  1  0
  8 22  1  0
 22 23  1  0
 23 24  2  0
 23 25  1  0
 25 26  2  0
 26  3  1  0
 25  6  1  0
 14  9  1  0
 21 15  1  0
  1 27  1  0
  1 28  1  0
  1 29  1  0
  4 30  1  0
  5 31  1  0
 10 32  1  0
 11 33  1  0
 12 34  1  0
 13 35  1  0
 16 36  1  0
 16 37  1  0
 17 38  1  0
 17 39  1  0
 19 40  1  0
 19 41  1  0
 19 42  1  0
 20 43  1  0
 20 44  1  0
 21 45  1  0
 21 46  1  0
 26 47  1  0
M  CHG  1  13   1
M  END
>  <UniqueID>  (27) 
27

>  <SMILES>  (27) 
COc1ccc2nc(-c3ccc[nH+]c3N3CCN(C)CC3)oc(=O)c2c1

>  <Energy>  (27) 
67.52992045652424

>  <Genealogy>  (27) 
COc1ccc2nc(-c3ccc[nH+]c3N3CCN(C)CC3)oc(=O)c2c1 (protonated)
COc1ccc2nc(-c3ccc[nH+]c3N3CCN(C)CC3)oc(=O)c2c1 (3D coordinates assigned)
COc1ccc2nc(-c3ccc[nH+]c3N3CCN(C)CC3)oc(=O)c2c1 (nonaromatic ring conformer: 67.52992045652424 kcal/mol)

>  <smiles>  (27) 
COc1ccc2nc(-c3cccnc3N3CCN(C)CC3)oc(=O)c2c1

>  <score_type>  (27) 
oracle

>  <origin>  (27) 
adg

>  <m_score__min__energy>  (27) 
-7.3899999999999997

>  <m_primary>  (27) 
energy

$$$$
27:0
     RDKit          3D

 37 37  0  0  0  0  0  0  0  0999 V2000
   -3.4870   21.5490  -33.4140 C   0  0  0  0  0  0  0  0  0  0  0  0
   -3.7240   20.3500  -32.8780 C   0  0  0  0  0  0  0  0  0  0  0  0
   -4.7790   20.1550  -31.8250 C   0  0  0  0  0  0  0  0  0  0  0  0
   -6.0790   20.1010  -32.4150 O   0  0  0  0  0  0  0  0  0  0  0  0
   -7.0780   21.0810  -32.2830 C   0  0  0  0  0  0  0  0  0  0  0  0
   -6.7780   22.4590  -32.3290 C   0  0  0  0  0  0  0  0  0  0  0  0
   -7.7880   23.4090  -32.1730 C   0  0  0  0  0  0  0  0  0  0  0  0
   -9.1070   23.0040  -31.9720 C   0  0  0  0  0  0  0  0  0  0  0  0
   -9.4210   21.6450  -31.9310 C   0  0  0  0  0  0  0  0  0  0  0  0
   -8.4180   20.6750  -32.0920 C   0  0  0  0  0  0  0  0  0  0  0  0
   -8.7940   19.2160  -31.9880 C   0  0  0  0  0  0  0  0  0  0  0  0
   -8.1300   18.4500  -33.0510 N   0  0  0  0  0  0  0  0  0  0  0  0
   -7.1460   17.5080  -32.5010 C   0  0  0  0  0  0  0  0  0  0  0  0
   -6.6320   16.5820  -33.6010 C   0  0  0  0  0  0  0  0  0  0  0  0
   -5.6690   17.4860  -34.8040 S   0  0  0  0  0  0  0  0  0  0  0  0
   -3.9220   17.3370  -34.4950 C   0  0  0  0  0  0  0  0  0  0  0  0
   -6.1100   19.1060  -34.7780 O   0  0  0  0  0  0  0  0  0  0  0  0
   -2.7089   21.6636  -34.1830 H   0  0  0  0  0  0  0  0  0  0  0  0
   -4.0698   22.4227  -33.0868 H   0  0  0  0  0  0  0  0  0  0  0  0
   -3.1339   19.4847  -33.2144 H   0  0  0  0  0  0  0  0  0  0  0  0
   -4.5858   19.2131  -31.2907 H   0  0  0  0  0  0  0  0  0  0  0  0
   -4.7429   21.0046  -31.1273 H   0  0  0  0  0  0  0  0  0  0  0  0
   -5.7402   22.7867  -32.4890 H   0  0  0  0  0  0  0  0  0  0  0  0
   -7.5429   24.4808  -32.2087 H   0  0  0  0  0  0  0  0  0  0  0  0
   -9.9000   23.7558  -31.8458 H   0  0  0  0  0  0  0  0  0  0  0  0
  -10.4630   21.3307  -31.7712 H   0  0  0  0  0  0  0  0  0  0  0  0
   -8.4795   18.8276  -31.0081 H   0  0  0  0  0  0  0  0  0  0  0  0
   -9.8840   19.1150  -32.0966 H   0  0  0  0  0  0  0  0  0  0  0  0
   -7.6160   19.1260  -33.6660 H   0  0  0  0  0  0  0  0  0  0  0  0
   -6.3020   18.0709  -32.0758 H   0  0  0  0  0  0  0  0  0  0  0  0
   -7.6262   16.9034  -31.7175 H   0  0  0  0  0  0  0  0  0  0  0  0
   -6.0017   15.8021  -33.1488 H   0  0  0  0  0  0  0  0  0  0  0  0
   -7.4963   16.1323  -34.1116 H   0  0  0  0  0  0  0  0  0  0  0  0
   -3.7416   17.3216  -33.4100 H   0  0  0  0  0  0  0  0  0  0  0  0
   -3.5489   16.4038  -34.9420 H   0  0  0  0  0  0  0  0  0  0  0  0
   -3.3962   18.1936  -34.9420 H   0  0  0  0  0  0  0  0  0  0  0  0
   -6.2800   19.3010  -33.8230 H   0  0  0  0  0  0  0  0  0  0  0  0
  1  2  2  0
  2  3  1  0
  3  4  1  0
  4  5  1  0
  5  6  2  0
  6  7  1  0
  7  8  2  0
  8  9  1  0
  9 10  2  0
 10 11  1  0
 11 12  1  0
 12 13  1  0
 13 14  1  0
 14 15  1  0
 15 16  1  0
 15 17  1  1
 10  5  1  0
  1 18  1  0
  1 19  1  0
  2 20  1  0
  3 21  1  0
  3 22  1  0
  6 23  1  0
  7 24  1  0
  8 25  1  0
  9 26  1  0
 11 27  1  0
 11 28  1  0
 12 29  1  0
 13 30  1  0
 13 31  1  0
 14 32  1  0
 14 33  1  0
 16 34  1  0
 16 35  1  0
 16 36  1  0
 17 37  1  0
M  CHG  1  15   1
M  END
>  <UniqueID>  (28) 
28

>  <SMILES>  (28) 
C=CCOc1ccccc1CNCC[S@+](C)O

>  <Energy>  (28) 
19.906861704455007

>  <Genealogy>  (28) 
C=CCOc1ccccc1CNCC[S+](C)O (protonated)
C=CCOc1ccccc1CNCC[S@+](C)O (chirality)
C=CCOc1ccccc1CNCC[S@+](C)O (3D coordinates assigned)
C=CCOc1ccccc1CNCC[S@+](C)O (optimized conformer: 19.906861704455007 kcal/mol)

>  <smiles>  (28) 
C=CCOc1ccccc1CNCC[S+](C)[O-]

>  <score_type>  (28) 
oracle

>  <origin>  (28) 
adg

>  <m_score__min__energy>  (28) 
-4.7300000000000004

>  <m_primary>  (28) 
energy

$$$$
28:0
     RDKit          3D

 54 55  0  0  0  0  0  0  0  0999 V2000
   -6.5370   17.5870  -33.3890 C   0  0  0  0  0  0  0  0  0  0  0  0
   -7.2370   17.8810  -32.0620 C   0  0  0  0  0  0  0  0  0  0  0  0
   -8.5280   18.6940  -32.2400 C   0  0  0  0  0  0  0  0  0  0  0  0
   -8.3630   20.1600  -31.8070 C   0  0  0  0  0  0  0  0  0  0  0  0
   -7.2140   20.8540  -32.5530 C   0  0  0  0  0  0  0  0  0  0  0  0
   -6.7940   22.0860  -31.8680 N   0  0  0  0  0  0  0  0  0  0  0  0
   -7.5330   23.2110  -31.7110 C   0  0  0  0  0  0  0  0  0  0  0  0
   -8.9170   23.4190  -32.2510 C   0  0  0  0  0  0  0  0  0  0  0  0
   -6.8250   24.1580  -30.9990 C   0  0  0  0  0  0  0  0  0  0  0  0
   -5.6070   23.5870  -30.6910 C   0  0  0  0  0  0  0  0  0  0  0  0
   -4.5400   24.2620  -29.9230 C   0  0  0  0  0  0  0  0  0  0  0  0
   -3.9150   25.2110  -30.4690 O   0  0  0  0  0  0  0  0  0  0  0  0
   -4.2030   23.8490  -28.5040 C   0  0  0  0  0  0  0  0  0  0  0  0
   -3.0280   24.5480  -27.9190 N   0  0  0  0  0  0  0  0  0  0  0  0
   -3.2410   24.9330  -26.4990 C   0  0  0  0  0  0  0  0  0  0  0  0
   -1.9330   24.9820  -25.6800 C   0  0  0  0  0  0  0  0  0  0  0  0
   -0.7840   25.4570  -26.4770 N   0  0  0  0  0  0  0  0  0  0  0  0
   -0.8620   26.9040  -26.7420 C   0  0  0  0  0  0  0  0  0  0  0  0
   -0.5560   24.6660  -27.7130 C   0  0  0  0  0  0  0  0  0  0  0  0
   -1.7670   23.8050  -28.1260 C   0  0  0  0  0  0  0  0  0  0  0  0
   -5.6010   22.3180  -31.2630 C   0  0  0  0  0  0  0  0  0  0  0  0
   -4.4480   21.3530  -31.2490 C   0  0  0  0  0  0  0  0  0  0  0  0
   -5.5392   17.1679  -33.1922 H   0  0  0  0  0  0  0  0  0  0  0  0
   -7.1319   16.8627  -33.9648 H   0  0  0  0  0  0  0  0  0  0  0  0
   -6.4363   18.5188  -33.9648 H   0  0  0  0  0  0  0  0  0  0  0  0
   -7.4867   16.9259  -31.5767 H   0  0  0  0  0  0  0  0  0  0  0  0
   -6.5484   18.4811  -31.4490 H   0  0  0  0  0  0  0  0  0  0  0  0
   -8.8171   18.6696  -33.3010 H   0  0  0  0  0  0  0  0  0  0  0  0
   -9.3001   18.2408  -31.6008 H   0  0  0  0  0  0  0  0  0  0  0  0
   -9.2988   20.6994  -32.0153 H   0  0  0  0  0  0  0  0  0  0  0  0
   -8.1274   20.1726  -30.7326 H   0  0  0  0  0  0  0  0  0  0  0  0
   -6.3573   20.1663  -32.6093 H   0  0  0  0  0  0  0  0  0  0  0  0
   -7.5675   21.1217  -33.5596 H   0  0  0  0  0  0  0  0  0  0  0  0
   -9.6245   23.5253  -31.4154 H   0  0  0  0  0  0  0  0  0  0  0  0
   -8.9372   24.3303  -32.8668 H   0  0  0  0  0  0  0  0  0  0  0  0
   -9.2042   22.5539  -32.8668 H   0  0  0  0  0  0  0  0  0  0  0  0
   -7.1648   25.1690  -30.7300 H   0  0  0  0  0  0  0  0  0  0  0  0
   -5.0770   24.0568  -27.8693 H   0  0  0  0  0  0  0  0  0  0  0  0
   -3.9430   22.7809  -28.5433 H   0  0  0  0  0  0  0  0  0  0  0  0
   -2.9380   25.4380  -28.4640 H   0  0  0  0  0  0  0  0  0  0  0  0
   -3.7075   25.9288  -26.4728 H   0  0  0  0  0  0  0  0  0  0  0  0
   -3.8831   24.1642  -26.0444 H   0  0  0  0  0  0  0  0  0  0  0  0
   -2.0760   25.6620  -24.8273 H   0  0  0  0  0  0  0  0  0  0  0  0
   -1.7084   23.9578  -25.3474 H   0  0  0  0  0  0  0  0  0  0  0  0
   -0.8915   27.4504  -25.7878 H   0  0  0  0  0  0  0  0  0  0  0  0
    0.0204   27.2194  -27.3180 H   0  0  0  0  0  0  0  0  0  0  0  0
   -1.7732   27.1227  -27.3180 H   0  0  0  0  0  0  0  0  0  0  0  0
   -0.3274   25.3615  -28.5340 H   0  0  0  0  0  0  0  0  0  0  0  0
    0.2754   23.9760  -27.5062 H   0  0  0  0  0  0  0  0  0  0  0  0
   -1.6750   23.5380  -29.1891 H   0  0  0  0  0  0  0  0  0  0  0  0
   -1.7845   22.8967  -27.5058 H   0  0  0  0  0  0  0  0  0  0  0  0
   -4.1742   21.1239  -30.2085 H   0  0  0  0  0  0  0  0  0  0  0  0
   -4.7396   20.4258  -31.7641 H   0  0  0  0  0  0  0  0  0  0  0  0
   -3.5867   21.8033  -31.7641 H   0  0  0  0  0  0  0  0  0  0  0  0
  1  2  1  0
  2  3  1  0
  3  4  1  0
  4  5  1  0
  5  6  1  0
  6  7  1  0
  7  8  1  0
  7  9  2  0
  9 10  1  0
 10 11  1  0
 11 12  2  0
 11 13  1  0
 13 14  1  0
 14 15  1  0
 15 16  1  0
 16 17  1  0
 17 18  1  0
 17 19  1  0
 19 20  1  0
 10 21  2  0
 21 22  1  0
 21  6  1  0
 20 14  1  0
  1 23  1  0
  1 24  1  0
  1 25  1  0
  2 26  1  0
  2 27  1  0
  3 28  1  0
  3 29  1  0
  4 30  1  0
  4 31  1  0
  5 32  1  0
  5 33  1  0
  8 34  1  0
  8 35  1  0
  8 36  1  0
  9 37  1  0
 13 38  1  0
 13 39  1  0
 14 40  1  0
 15 41  1  0
 15 42  1  0
 16 43  1  0
 16 44  1  0
 18 45  1  0
 18 46  1  0
 18 47  1  0
 19 48  1  0
 19 49  1  0
 20 50  1  0
 20 51  1  0
 22 52  1  0
 22 53  1  0
 22 54  1  0
M  CHG  1  14   1
M  END
>  <UniqueID>  (29) 
29

>  <SMILES>  (29) 
CCCCCn1c(C)cc(C(=O)C[NH+]2CCN(C)CC2)c1C

>  <Energy>  (29) 
87.97902667151641

>  <Genealogy>  (29) 
CCCCCn1c(C)cc(C(=O)C[NH+]2CCN(C)CC2)c1C (protonated)
CCCCCn1c(C)cc(C(=O)C[NH+]2CCN(C)CC2)c1C (3D coordinates assigned)
CCCCCn1c(C)cc(C(=O)C[NH+]2CCN(C)CC2)c1C (nonaromatic ring conformer: 87.97902667151641 kcal/mol)

>  <smiles>  (29) 
CCCCCn1c(C)cc(C(=O)CN2CCN(C)CC2)c1C

>  <score_type>  (29) 
oracle

>  <origin>  (29) 
adg

>  <m_score__min__energy>  (29) 
-7

>  <m_primary>  (29) 
energy

$$$$
29:0
     RDKit          3D

 53 56  0  0  0  0  0  0  0  0999 V2000
   -0.6680   19.3420  -28.4260 C   0  0  0  0  0  0  0  0  0  0  0  0
   -0.1540   19.5880  -29.8500 C   0  0  0  0  0  0  0  0  0  0  0  0
   -1.1960   20.1550  -30.7470 N   0  0  0  0  0  0  0  0  0  0  0  0
   -0.8710   21.5590  -31.1230 C   0  0  0  0  0  0  0  0  0  0  0  0
   -1.4390   22.5760  -30.1250 C   0  0  0  0  0  0  0  0  0  0  0  0
   -1.4560   19.3150  -31.9490 C   0  0  0  0  0  0  0  0  0  0  0  0
   -1.1160   19.9770  -33.3090 C   0  0  0  0  0  0  0  0  0  0  0  0
   -2.3100   20.4560  -34.0130 N   0  0  0  0  0  0  0  0  0  0  0  0
   -3.6220   20.5810  -33.4170 C   0  0  0  0  0  0  0  0  0  0  0  0
   -3.9420   21.7110  -32.6670 C   0  0  0  0  0  0  0  0  0  0  0  0
   -5.2310   21.9010  -32.1340 C   0  0  0  0  0  0  0  0  0  0  0  0
   -5.5330   23.0560  -31.3440 C   0  0  0  0  0  0  0  0  0  0  0  0
   -4.5460   23.9500  -30.8490 C   0  0  0  0  0  0  0  0  0  0  0  0
   -4.9060   25.0740  -30.1020 C   0  0  0  0  0  0  0  0  0  0  0  0
   -6.2440   25.3300  -29.8170 C   0  0  0  0  0  0  0  0  0  0  0  0
   -7.2300   24.4550  -30.2640 C   0  0  0  0  0  0  0  0  0  0  0  0
   -6.8820   23.3170  -31.0110 C   0  0  0  0  0  0  0  0  0  0  0  0
   -7.8730   22.4440  -31.4330 C   0  0  0  0  0  0  0  0  0  0  0  0
   -7.5340   21.2920  -32.1290 C   0  0  0  0  0  0  0  0  0  0  0  0
   -6.2270   20.9810  -32.4310 N   0  0  0  0  0  0  0  0  0  0  0  0
   -5.9070   19.7830  -33.0580 C   0  0  0  0  0  0  0  0  0  0  0  0
   -6.8320   18.7050  -33.1560 C   0  0  0  0  0  0  0  0  0  0  0  0
   -6.4960   17.5180  -33.8050 C   0  0  0  0  0  0  0  0  0  0  0  0
   -5.2320   17.3500  -34.3470 C   0  0  0  0  0  0  0  0  0  0  0  0
   -4.2850   18.3610  -34.2300 C   0  0  0  0  0  0  0  0  0  0  0  0
   -4.5970   19.5800  -33.5860 C   0  0  0  0  0  0  0  0  0  0  0  0
    0.0776   19.6989  -27.7003 H   0  0  0  0  0  0  0  0  0  0  0  0
   -1.6129   19.8855  -28.2782 H   0  0  0  0  0  0  0  0  0  0  0  0
   -0.8374   18.2652  -28.2782 H   0  0  0  0  0  0  0  0  0  0  0  0
    0.6902   20.2916  -29.8026 H   0  0  0  0  0  0  0  0  0  0  0  0
    0.1491   18.6159  -30.2661 H   0  0  0  0  0  0  0  0  0  0  0  0
   -2.0980   20.1700  -30.2140 H   0  0  0  0  0  0  0  0  0  0  0  0
    0.2227   21.6714  -31.1586 H   0  0  0  0  0  0  0  0  0  0  0  0
   -1.3279   21.7589  -32.1035 H   0  0  0  0  0  0  0  0  0  0  0  0
   -1.2458   22.2300  -29.0989 H   0  0  0  0  0  0  0  0  0  0  0  0
   -0.9551   23.5516  -30.2802 H   0  0  0  0  0  0  0  0  0  0  0  0
   -2.5234   22.6757  -30.2802 H   0  0  0  0  0  0  0  0  0  0  0  0
   -0.8555   18.3978  -31.8584 H   0  0  0  0  0  0  0  0  0  0  0  0
   -2.5408   19.1335  -31.9630 H   0  0  0  0  0  0  0  0  0  0  0  0
   -0.4464   20.8308  -33.1284 H   0  0  0  0  0  0  0  0  0  0  0  0
   -0.6372   19.2152  -33.9418 H   0  0  0  0  0  0  0  0  0  0  0  0
   -2.1620   20.8020  -34.9870 H   0  0  0  0  0  0  0  0  0  0  0  0
   -3.1690   22.4727  -32.4872 H   0  0  0  0  0  0  0  0  0  0  0  0
   -3.4837   23.7543  -31.0569 H   0  0  0  0  0  0  0  0  0  0  0  0
   -4.1279   25.7605  -29.7370 H   0  0  0  0  0  0  0  0  0  0  0  0
   -6.5222   26.2234  -29.2387 H   0  0  0  0  0  0  0  0  0  0  0  0
   -8.2863   24.6554  -30.0314 H   0  0  0  0  0  0  0  0  0  0  0  0
   -8.9286   22.6645  -31.2161 H   0  0  0  0  0  0  0  0  0  0  0  0
   -8.3331   20.6071  -32.4489 H   0  0  0  0  0  0  0  0  0  0  0  0
   -7.8321   18.8110  -32.7105 H   0  0  0  0  0  0  0  0  0  0  0  0
   -7.2383   16.7104  -33.8873 H   0  0  0  0  0  0  0  0  0  0  0  0
   -4.9777   16.4163  -34.8701 H   0  0  0  0  0  0  0  0  0  0  0  0
   -3.2775   18.2100  -34.6449 H   0  0  0  0  0  0  0  0  0  0  0  0
  1  2  1  0
  2  3  1  0
  3  4  1  0
  4  5  1  0
  3  6  1  0
  6  7  1  0
  7  8  1  0
  8  9  1  0
  9 10  2  0
 10 11  1  0
 11 12  2  0
 12 13  1  0
 13 14  2  0
 14 15  1  0
 15 16  2  0
 16 17  1  0
 17 18  2  0
 18 19  1  0
 19 20  2  0
 20 21  1  0
 21 22  2  0
 22 23  1  0
 23 24  2  0
 24 25  1  0
 25 26  2  0
 26  9  1  0
 20 11  1  0
 26 21  1  0
 17 12  1  0
  1 27  1  0
  1 28  1  0
  1 29  1  0
  2 30  1  0
  2 31  1  0
  3 32  1  0
  4 33  1  0
  4 34  1  0
  5 35  1  0
  5 36  1  0
  5 37  1  0
  6 38  1  0
  6 39  1  0
  7 40  1  0
  7 41  1  0
  8 42  1  0
 10 43  1  0
 13 44  1  0
 14 45  1  0
 15 46  1  0
 16 47  1  0
 18 48  1  0
 19 49  1  0
 22 50  1  0
 23 51  1  0
 24 52  1  0
 25 53  1  0
M  CHG  2   3   1  20   1
M  END
>  <UniqueID>  (30) 
30

>  <SMILES>  (30) 
CC[NH+](CC)CCNc1cc2c3ccccc3cc[n+]2c2ccccc12

>  <Energy>  (30) 
88.18801201293397

>  <Genealogy>  (30) 
CC[NH+](CC)CCNc1cc2c3ccccc3cc[n+]2c2ccccc12 (protonated)
CC[NH+](CC)CCNc1cc2c3ccccc3cc[n+]2c2ccccc12 (3D coordinates assigned)
CC[NH+](CC)CCNc1cc2c3ccccc3cc[n+]2c2ccccc12 (optimized conformer: 88.18801201293397 kcal/mol)

>  <smiles>  (30) 
CCN(CC)CCNc1cc2c3ccccc3cc[n+]2c2ccccc12

>  <score_type>  (30) 
oracle

>  <origin>  (30) 
adg

>  <m_score__min__energy>  (30) 
-7.8499999999999996

>  <m_primary>  (30) 
energy

$$$$
30:0
     RDKit          3D

 65 68  0  0  0  0  0  0  0  0999 V2000
   -1.2570   27.1930  -37.7280 C   0  0  0  0  0  0  0  0  0  0  0  0
   -0.1230   26.1750  -37.5850 C   0  0  0  0  0  0  0  0  0  0  0  0
    0.1620   25.8400  -36.1630 N   0  0  2  0  0  0  0  0  0  0  0  0
   -0.0770   27.0330  -35.3220 C   0  0  0  0  0  0  0  0  0  0  0  0
    1.5610   25.3580  -36.0130 C   0  0  0  0  0  0  0  0  0  0  0  0
    1.6600   23.8420  -35.7350 C   0  0  0  0  0  0  0  0  0  0  0  0
    0.3870   23.2230  -35.7180 O   0  0  0  0  0  0  0  0  0  0  0  0
    0.4870   21.8240  -35.4930 C   0  0  0  0  0  0  0  0  0  0  0  0
    0.4440   21.5200  -33.9950 C   0  0  0  0  0  0  0  0  0  0  0  0
   -0.9050   21.4560  -33.5700 O   0  0  0  0  0  0  0  0  0  0  0  0
   -1.0190   20.8440  -32.2990 C   0  0  0  0  0  0  0  0  0  0  0  0
   -2.3700   21.1540  -31.6450 C   0  0  0  0  0  0  0  0  0  0  0  0
   -3.2770   21.7630  -32.6170 N   0  0  0  0  0  0  0  0  0  0  0  0
   -4.6950   21.6580  -32.4530 C   0  0  0  0  0  0  0  0  0  0  0  0
   -5.4300   22.6420  -31.7560 C   0  0  0  0  0  0  0  0  0  0  0  0
   -4.7800   23.7580  -31.1960 C   0  0  0  0  0  0  0  0  0  0  0  0
   -5.4990   24.7070  -30.4740 C   0  0  0  0  0  0  0  0  0  0  0  0
   -6.8710   24.5640  -30.2990 C   0  0  0  0  0  0  0  0  0  0  0  0
   -7.5450   23.4760  -30.8540 C   0  0  0  0  0  0  0  0  0  0  0  0
   -6.8530   22.4980  -31.6100 C   0  0  0  0  0  0  0  0  0  0  0  0
   -7.5140   21.4240  -32.1900 N   0  0  0  0  0  0  0  0  0  0  0  0
   -8.9840   21.3100  -32.1190 C   0  0  0  0  0  0  0  0  0  0  0  0
   -6.7650   20.4650  -32.8250 C   0  0  0  0  0  0  0  0  0  0  0  0
   -7.2240   19.3140  -33.3800 N   0  0  0  0  0  0  0  0  0  0  0  0
   -6.1310   18.7120  -33.8950 C   0  0  0  0  0  0  0  0  0  0  0  0
   -6.0880   17.4870  -34.5610 C   0  0  0  0  0  0  0  0  0  0  0  0
   -4.8390   17.0230  -35.0110 C   0  0  0  0  0  0  0  0  0  0  0  0
   -3.6690   17.7840  -34.7860 C   0  0  0  0  0  0  0  0  0  0  0  0
   -3.7360   19.0180  -34.1130 C   0  0  0  0  0  0  0  0  0  0  0  0
   -4.9900   19.4550  -33.6730 C   0  0  0  0  0  0  0  0  0  0  0  0
   -5.3970   20.5770  -32.9750 C   0  0  0  0  0  0  0  0  0  0  0  0
   -1.6008   27.5016  -36.7297 H   0  0  0  0  0  0  0  0  0  0  0  0
   -0.8926   28.0729  -38.2785 H   0  0  0  0  0  0  0  0  0  0  0  0
   -2.0926   26.7362  -38.2785 H   0  0  0  0  0  0  0  0  0  0  0  0
   -0.4062   25.2537  -38.1152 H   0  0  0  0  0  0  0  0  0  0  0  0
    0.7860   26.6228  -38.0130 H   0  0  0  0  0  0  0  0  0  0  0  0
   -0.5040   25.0920  -35.8490 H   0  0  0  0  0  0  0  0  0  0  0  0
   -0.0204   26.7505  -34.2604 H   0  0  0  0  0  0  0  0  0  0  0  0
    0.6865   27.7943  -35.5401 H   0  0  0  0  0  0  0  0  0  0  0  0
   -1.0748   27.4414  -35.5401 H   0  0  0  0  0  0  0  0  0  0  0  0
    2.1075   25.5788  -36.9418 H   0  0  0  0  0  0  0  0  0  0  0  0
    1.9922   25.8767  -35.1441 H   0  0  0  0  0  0  0  0  0  0  0  0
    2.2715   23.3756  -36.5215 H   0  0  0  0  0  0  0  0  0  0  0  0
    2.1174   23.7069  -34.7438 H   0  0  0  0  0  0  0  0  0  0  0  0
   -0.3527   21.3161  -35.9900 H   0  0  0  0  0  0  0  0  0  0  0  0
    1.4425   21.4644  -35.9025 H   0  0  0  0  0  0  0  0  0  0  0  0
    0.9366   20.5557  -33.8013 H   0  0  0  0  0  0  0  0  0  0  0  0
    0.9676   22.3139  -33.4423 H   0  0  0  0  0  0  0  0  0  0  0  0
   -0.9205   19.7548  -32.4167 H   0  0  0  0  0  0  0  0  0  0  0  0
   -0.2232   21.2417  -31.6520 H   0  0  0  0  0  0  0  0  0  0  0  0
   -2.8142   20.2202  -31.2698 H   0  0  0  0  0  0  0  0  0  0  0  0
   -2.2121   21.8570  -30.8139 H   0  0  0  0  0  0  0  0  0  0  0  0
   -2.9170   22.3800  -33.3780 H   0  0  0  0  0  0  0  0  0  0  0  0
   -3.6952   23.8814  -31.3299 H   0  0  0  0  0  0  0  0  0  0  0  0
   -4.9792   25.5739  -30.0400 H   0  0  0  0  0  0  0  0  0  0  0  0
   -7.4287   25.3140  -29.7189 H   0  0  0  0  0  0  0  0  0  0  0  0
   -8.6299   23.3760  -30.7024 H   0  0  0  0  0  0  0  0  0  0  0  0
   -9.2994   21.2855  -31.0655 H   0  0  0  0  0  0  0  0  0  0  0  0
   -9.4435   22.1752  -32.6193 H   0  0  0  0  0  0  0  0  0  0  0  0
   -9.3046   20.3843  -32.6193 H   0  0  0  0  0  0  0  0  0  0  0  0
   -8.1920   18.9280  -33.4030 H   0  0  0  0  0  0  0  0  0  0  0  0
   -7.0038   16.9014  -34.7292 H   0  0  0  0  0  0  0  0  0  0  0  0
   -4.7720   16.0617  -35.5415 H   0  0  0  0  0  0  0  0  0  0  0  0
   -2.6977   17.4082  -35.1401 H   0  0  0  0  0  0  0  0  0  0  0  0
   -2.8317   19.6195  -33.9385 H   0  0  0  0  0  0  0  0  0  0  0  0
  1  2  1  0
  2  3  1  0
  3  4  1  0
  3  5  1  0
  5  6  1  0
  6  7  1  0
  7  8  1  0
  8  9  1  0
  9 10  1  0
 10 11  1  0
 11 12  1  0
 12 13  1  0
 13 14  1  0
 14 15  2  0
 15 16  1  0
 16 17  2  0
 17 18  1  0
 18 19  2  0
 19 20  1  0
 20 21  2  0
 21 22  1  0
 21 23  1  0
 23 24  1  0
 24 25  1  0
 25 26  2  0
 26 27  1  0
 27 28  2  0
 28 29  1  0
 29 30  2  0
 30 31  1  0
 31 14  1  0
 20 15  1  0
 31 23  2  0
 30 25  1  0
  1 32  1  0
  1 33  1  0
  1 34  1  0
  2 35  1  0
  2 36  1  0
  3 37  1  1
  4 38  1  0
  4 39  1  0
  4 40  1  0
  5 41  1  0
  5 42  1  0
  6 43  1  0
  6 44  1  0
  8 45  1  0
  8 46  1  0
  9 47  1  0
  9 48  1  0
 11 49  1  0
 11 50  1  0
 12 51  1  0
 12 52  1  0
 13 53  1  0
 16 54  1  0
 17 55  1  0
 18 56  1  0
 19 57  1  0
 22 58  1  0
 22 59  1  0
 22 60  1  0
 24 61  1  0
 26 62  1  0
 27 63  1  0
 28 64  1  0
 29 65  1  0
M  CHG  2   3   1  21   1
M  END
>  <UniqueID>  (31) 
31

>  <SMILES>  (31) 
CC[N@H+](C)CCOCCOCCNc1c2ccccc2[n+](C)c2[nH]c3ccccc3c12

>  <Energy>  (31) 
130.22885621424982

>  <Genealogy>  (31) 
CC[NH+](C)CCOCCOCCNc1c2ccccc2[n+](C)c2[nH]c3ccccc3c12 (protonated)
CC[N@H+](C)CCOCCOCCNc1c2ccccc2[n+](C)c2[nH]c3ccccc3c12 (chirality)
CC[N@H+](C)CCOCCOCCNc1c2ccccc2[n+](C)c2[nH]c3ccccc3c12 (3D coordinates assigned)
CC[N@H+](C)CCOCCOCCNc1c2ccccc2[n+](C)c2[nH]c3ccccc3c12 (optimized conformer: 130.22885621424982 kcal/mol)

>  <smiles>  (31) 
CCN(C)CCOCCOCCNc1c2ccccc2[n+](C)c2[nH]c3ccccc3c12

>  <score_type>  (31) 
oracle

>  <origin>  (31) 
adg

>  <m_score__min__energy>  (31) 
-8.7200000000000006

>  <m_primary>  (31) 
energy

$$$$
31:0
     RDKit          3D

 43 45  0  0  0  0  0  0  0  0999 V2000
   -2.4010   19.3050  -26.6530 C   0  0  0  0  0  0  0  0  0  0  0  0
   -2.1670   20.7800  -26.9920 C   0  0  0  0  0  0  0  0  0  0  0  0
   -1.4530   20.9460  -28.2780 N   0  0  0  0  0  0  0  0  0  0  0  0
   -2.0770   21.9430  -29.1670 C   0  0  0  0  0  0  0  0  0  0  0  0
   -2.7050   23.1110  -28.3840 C   0  0  0  0  0  0  0  0  0  0  0  0
   -2.3430   24.4710  -28.9980 C   0  0  0  0  0  0  0  0  0  0  0  0
   -3.2520   24.8230  -30.0900 N   0  0  0  0  0  0  0  0  0  0  0  0
   -4.4460   24.0920  -30.4340 C   0  0  0  0  0  0  0  0  0  0  0  0
   -5.7390   24.5510  -30.0660 C   0  0  0  0  0  0  0  0  0  0  0  0
   -6.8840   23.8180  -30.4120 C   0  0  0  0  0  0  0  0  0  0  0  0
   -6.7200   22.6290  -31.1190 C   0  0  0  0  0  0  0  0  0  0  0  0
   -5.4720   22.1650  -31.4770 C   0  0  0  0  0  0  0  0  0  0  0  0
   -4.3200   22.8780  -31.1430 C   0  0  0  0  0  0  0  0  0  0  0  0
   -5.5590   20.8670  -32.2280 C   0  0  0  0  0  0  0  0  0  0  0  0
   -7.0450   20.6590  -32.2430 C   0  0  0  0  0  0  0  0  0  0  0  0
   -7.7540   19.5990  -32.8110 C   0  0  0  0  0  0  0  0  0  0  0  0
   -9.1560   19.5980  -32.7120 C   0  0  0  0  0  0  0  0  0  0  0  0
   -9.8260   20.6490  -32.0530 C   0  0  0  0  0  0  0  0  0  0  0  0
   -9.0980   21.7090  -31.4870 C   0  0  0  0  0  0  0  0  0  0  0  0
   -7.7080   21.6870  -31.5980 C   0  0  0  0  0  0  0  0  0  0  0  0
   -2.4211   19.1786  -25.5605 H   0  0  0  0  0  0  0  0  0  0  0  0
   -3.3621   18.9792  -27.0775 H   0  0  0  0  0  0  0  0  0  0  0  0
   -1.5880   18.6978  -27.0775 H   0  0  0  0  0  0  0  0  0  0  0  0
   -3.1404   21.2882  -27.0578 H   0  0  0  0  0  0  0  0  0  0  0  0
   -1.5435   21.2168  -26.1979 H   0  0  0  0  0  0  0  0  0  0  0  0
   -1.4730   20.0280  -28.7830 H   0  0  0  0  0  0  0  0  0  0  0  0
   -0.4440   21.1860  -28.1360 H   0  0  0  0  0  0  0  0  0  0  0  0
   -1.3083   22.3436  -29.8442 H   0  0  0  0  0  0  0  0  0  0  0  0
   -2.8809   21.4406  -29.7250 H   0  0  0  0  0  0  0  0  0  0  0  0
   -3.7991   22.9970  -28.3917 H   0  0  0  0  0  0  0  0  0  0  0  0
   -2.3112   23.0844  -27.3572 H   0  0  0  0  0  0  0  0  0  0  0  0
   -2.4049   25.2438  -28.2177 H   0  0  0  0  0  0  0  0  0  0  0  0
   -1.3227   24.4070  -29.4040 H   0  0  0  0  0  0  0  0  0  0  0  0
   -3.0150   25.6740  -30.6490 H   0  0  0  0  0  0  0  0  0  0  0  0
   -5.8435   25.4908  -29.5040 H   0  0  0  0  0  0  0  0  0  0  0  0
   -7.8866   24.1734  -30.1319 H   0  0  0  0  0  0  0  0  0  0  0  0
   -3.3274   22.4993  -31.4283 H   0  0  0  0  0  0  0  0  0  0  0  0
   -5.1514   20.9585  -33.2456 H   0  0  0  0  0  0  0  0  0  0  0  0
   -4.9849   20.0407  -31.7834 H   0  0  0  0  0  0  0  0  0  0  0  0
   -7.2266   18.7820  -33.3251 H   0  0  0  0  0  0  0  0  0  0  0  0
   -9.7343   18.7719  -33.1515 H   0  0  0  0  0  0  0  0  0  0  0  0
  -10.9236   20.6390  -31.9817 H   0  0  0  0  0  0  0  0  0  0  0  0
   -9.6105   22.5339  -30.9703 H   0  0  0  0  0  0  0  0  0  0  0  0
  1  2  1  0
  2  3  1  0
  3  4  1  0
  4  5  1  0
  5  6  1  0
  6  7  1  0
  7  8  1  0
  8  9  2  0
  9 10  1  0
 10 11  2  0
 11 12  1  0
 12 13  2  0
 12 14  1  0
 14 15  1  0
 15 16  2  0
 16 17  1  0
 17 18  2  0
 18 19  1  0
 19 20  2  0
 13  8  1  0
 20 15  1  0
 20 11  1  0
  1 21  1  0
  1 22  1  0
  1 23  1  0
  2 24  1  0
  2 25  1  0
  3 26  1  0
  3 27  1  0
  4 28  1  0
  4 29  1  0
  5 30  1  0
  5 31  1  0
  6 32  1  0
  6 33  1  0
  7 34  1  0
  9 35  1  0
 10 36  1  0
 13 37  1  0
 14 38  1  0
 14 39  1  0
 16 40  1  0
 17 41  1  0
 18 42  1  0
 19 43  1  0
M  CHG  1   3   1
M  END
>  <UniqueID>  (32) 
32

>  <SMILES>  (32) 
CC[NH2+]CCCNc1ccc2c(c1)Cc1ccccc1-2

>  <Energy>  (32) 
63.37635115380754

>  <Genealogy>  (32) 
CC[NH2+]CCCNc1ccc2c(c1)Cc1ccccc1-2 (protonated)
CC[NH2+]CCCNc1ccc2c(c1)Cc1ccccc1-2 (3D coordinates assigned)
CC[NH2+]CCCNc1ccc2c(c1)Cc1ccccc1-2 (nonaromatic ring conformer: 63.37635115380754 kcal/mol)

>  <smiles>  (32) 
CCNCCCNc1ccc2c(c1)Cc1ccccc1-2

>  <score_type>  (32) 
oracle

>  <origin>  (32) 
adg

>  <m_score__min__energy>  (32) 
-7.79

>  <m_primary>  (32) 
energy

$$$$
32:0
     RDKit          3D

 44 46  0  0  0  0  0  0  0  0999 V2000
   -3.4940   18.9510  -26.6050 C   0  0  0  0  0  0  0  0  0  0  0  0
   -2.0520   18.5070  -26.3820 C   0  0  0  0  0  0  0  0  0  0  0  0
   -1.1790   19.2410  -27.2200 O   0  0  0  0  0  0  0  0  0  0  0  0
   -1.9120   20.0890  -28.0790 C   0  0  0  0  0  0  0  0  0  0  0  0
   -1.2730   20.0640  -29.4640 C   0  0  0  0  0  0  0  0  0  0  0  0
   -0.9140   21.7500  -30.0820 S   0  0  0  0  0  0  0  0  0  0  0  0
   -2.2210   21.7560  -31.3110 C   0  0  0  0  0  0  0  0  0  0  0  0
   -2.2610   20.7970  -32.2810 N   0  0  0  0  0  0  0  0  0  0  0  0
   -3.2950   20.7310  -33.1800 C   0  0  0  0  0  0  0  0  0  0  0  0
   -4.3300   21.6230  -33.1130 N   0  0  0  0  0  0  0  0  0  0  0  0
   -4.2810   22.5890  -32.1600 C   0  0  0  0  0  0  0  0  0  0  0  0
   -3.2540   22.6830  -31.2790 C   0  0  0  0  0  0  0  0  0  0  0  0
   -3.5970   23.7030  -30.4170 C   0  0  0  0  0  0  0  0  0  0  0  0
   -4.8170   24.1710  -30.7810 N   0  0  0  0  0  0  0  0  0  0  0  0
   -5.2280   23.4910  -31.8480 N   0  0  0  0  0  0  0  0  0  0  0  0
   -6.5850   23.5780  -32.3860 C   0  0  0  0  0  0  0  0  0  0  0  0
   -7.6120   23.0040  -31.3960 C   0  0  0  0  0  0  0  0  0  0  0  0
   -7.9070   21.5510  -31.6700 C   0  0  0  0  0  0  0  0  0  0  0  0
   -6.8700   20.6050  -31.6680 C   0  0  0  0  0  0  0  0  0  0  0  0
   -7.1350   19.2690  -31.9870 C   0  0  0  0  0  0  0  0  0  0  0  0
   -8.4330   18.8720  -32.3230 C   0  0  0  0  0  0  0  0  0  0  0  0
   -9.4680   19.8100  -32.3380 C   0  0  0  0  0  0  0  0  0  0  0  0
   -9.2100   21.1440  -32.0110 C   0  0  0  0  0  0  0  0  0  0  0  0
   -3.9856   19.1024  -25.6327 H   0  0  0  0  0  0  0  0  0  0  0  0
   -3.5039   19.8938  -27.1716 H   0  0  0  0  0  0  0  0  0  0  0  0
   -4.0325   18.1771  -27.1716 H   0  0  0  0  0  0  0  0  0  0  0  0
   -1.7772   18.6796  -25.3310 H   0  0  0  0  0  0  0  0  0  0  0  0
   -1.9648   17.4371  -26.6224 H   0  0  0  0  0  0  0  0  0  0  0  0
   -2.9519   19.7367  -28.1460 H   0  0  0  0  0  0  0  0  0  0  0  0
   -1.9039   21.1156  -27.6840 H   0  0  0  0  0  0  0  0  0  0  0  0
   -0.3319   19.4969  -29.4111 H   0  0  0  0  0  0  0  0  0  0  0  0
   -1.9831   19.5909  -30.1582 H   0  0  0  0  0  0  0  0  0  0  0  0
   -3.2919   19.9555  -33.9601 H   0  0  0  0  0  0  0  0  0  0  0  0
   -5.1300   21.5540  -33.7810 H   0  0  0  0  0  0  0  0  0  0  0  0
   -2.9872   24.0730  -29.5796 H   0  0  0  0  0  0  0  0  0  0  0  0
   -6.8264   24.6331  -32.5824 H   0  0  0  0  0  0  0  0  0  0  0  0
   -6.6302   22.9910  -33.3152 H   0  0  0  0  0  0  0  0  0  0  0  0
   -7.2135   23.0995  -30.3752 H   0  0  0  0  0  0  0  0  0  0  0  0
   -8.5486   23.5692  -31.5110 H   0  0  0  0  0  0  0  0  0  0  0  0
   -5.8455   20.9153  -31.4147 H   0  0  0  0  0  0  0  0  0  0  0  0
   -6.3208   18.5294  -31.9735 H   0  0  0  0  0  0  0  0  0  0  0  0
   -8.6390   17.8214  -32.5754 H   0  0  0  0  0  0  0  0  0  0  0  0
  -10.4878   19.4981  -32.6077 H   0  0  0  0  0  0  0  0  0  0  0  0
  -10.0287   21.8786  -32.0202 H   0  0  0  0  0  0  0  0  0  0  0  0
  1  2  1  0
  2  3  1  0
  3  4  1  0
  4  5  1  0
  5  6  1  0
  6  7  1  0
  7  8  2  0
  8  9  1  0
  9 10  2  0
 10 11  1  0
 11 12  2  0
 12 13  1  0
 13 14  2  0
 14 15  1  0
 15 16  1  0
 16 17  1  0
 17 18  1  0
 18 19  2  0
 19 20  1  0
 20 21  2  0
 21 22  1  0
 22 23  2  0
 12  7  1  0
 23 18  1  0
 15 11  1  0
  1 24  1  0
  1 25  1  0
  1 26  1  0
  2 27  1  0
  2 28  1  0
  4 29  1  0
  4 30  1  0
  5 31  1  0
  5 32  1  0
  9 33  1  0
 10 34  1  0
 13 35  1  0
 16 36  1  0
 16 37  1  0
 17 38  1  0
 17 39  1  0
 19 40  1  0
 20 41  1  0
 21 42  1  0
 22 43  1  0
 23 44  1  0
M  CHG  1  10   1
M  END
>  <UniqueID>  (33) 
33

>  <SMILES>  (33) 
CCOCCSc1nc[nH+]c2c1cnn2CCc1ccccc1

>  <Energy>  (33) 
75.67857403820679

>  <Genealogy>  (33) 
CCOCCSc1nc[nH+]c2c1cnn2CCc1ccccc1 (protonated)
CCOCCSc1nc[nH+]c2c1cnn2CCc1ccccc1 (3D coordinates assigned)
CCOCCSc1nc[nH+]c2c1cnn2CCc1ccccc1 (optimized conformer: 75.67857403820679 kcal/mol)

>  <smiles>  (33) 
CCOCCSc1ncnc2c1cnn2CCc1ccccc1

>  <score_type>  (33) 
oracle

>  <origin>  (33) 
adg

>  <m_score__min__energy>  (33) 
-7.8099999999999996

>  <m_primary>  (33) 
energy

$$$$
