0:0
     RDKit          3D

 47 50  0  0  0  0  0  0  0  0999 V2000
   -1.9730   24.9700  -27.3830 C   0  0  0  0  0  0  0  0  0  0  0  0
   -2.3780   23.5040  -27.1630 C   0  0  0  0  0  0  0  0  0  0  0  0
   -1.1300   22.6040  -27.0020 C   0  0  0  0  0  0  0  0  0  0  0  0
   -0.4990   22.2320  -28.3530 C   0  0  0  0  0  0  0  0  0  0  0  0
   -1.5100   21.7780  -29.3170 N   0  0  0  0  0  0  0  0  0  0  0  0
   -1.0810   21.3640  -30.6240 C   0  0  0  0  0  0  0  0  0  0  0  0
   -0.0840   20.6020  -30.7400 O   0  0  0  0  0  0  0  0  0  0  0  0
   -1.7190   21.9200  -31.8660 C   0  0  0  0  0  0  0  0  0  0  0  0
   -3.1380   21.5550  -31.8970 N   0  0  0  0  0  0  0  0  0  0  0  0
   -3.4650   20.3150  -32.2980 N   0  0  0  0  0  0  0  0  0  0  0  0
   -4.7590   19.8980  -32.4000 C   0  0  0  0  0  0  0  0  0  0  0  0
   -5.7540   20.8070  -32.0830 C   0  0  0  0  0  0  0  0  0  0  0  0
   -7.1260   20.7160  -32.1030 C   0  0  0  0  0  0  0  0  0  0  0  0
   -7.9750   19.6660  -32.4480 C   0  0  0  0  0  0  0  0  0  0  0  0
   -9.3590   19.8950  -32.3800 C   0  0  0  0  0  0  0  0  0  0  0  0
   -9.8570   21.1530  -31.9780 C   0  0  0  0  0  0  0  0  0  0  0  0
   -8.9790   22.1980  -31.6390 C   0  0  0  0  0  0  0  0  0  0  0  0
   -7.6030   21.9520  -31.7080 C   0  0  0  0  0  0  0  0  0  0  0  0
   -6.5760   22.8020  -31.4350 N   0  0  0  0  0  0  0  0  0  0  0  0
   -6.6520   24.2050  -31.0200 C   0  0  0  0  0  0  0  0  0  0  0  0
   -5.4500   22.0810  -31.6770 C   0  0  0  0  0  0  0  0  0  0  0  0
   -4.1120   22.4770  -31.5810 C   0  0  0  0  0  0  0  0  0  0  0  0
   -3.8070   23.6450  -31.2200 O   0  0  0  0  0  0  0  0  0  0  0  0
   -2.9180   21.6930  -28.9150 C   0  0  0  0  0  0  0  0  0  0  0  0
   -3.3490   23.0170  -28.2800 C   0  0  0  0  0  0  0  0  0  0  0  0
   -1.8368   25.4629  -26.4091 H   0  0  0  0  0  0  0  0  0  0  0  0
   -1.0304   25.0091  -27.9487 H   0  0  0  0  0  0  0  0  0  0  0  0
   -2.7619   25.4874  -27.9487 H   0  0  0  0  0  0  0  0  0  0  0  0
   -2.9366   23.4294  -26.2183 H   0  0  0  0  0  0  0  0  0  0  0  0
   -0.3828   23.1404  -26.3987 H   0  0  0  0  0  0  0  0  0  0  0  0
   -1.4489   21.6721  -26.5123 H   0  0  0  0  0  0  0  0  0  0  0  0
    0.0133   23.1151  -28.7626 H   0  0  0  0  0  0  0  0  0  0  0  0
    0.2102   21.4080  -28.1855 H   0  0  0  0  0  0  0  0  0  0  0  0
   -1.6230   23.0158  -31.8674 H   0  0  0  0  0  0  0  0  0  0  0  0
   -1.2161   21.5045  -32.7517 H   0  0  0  0  0  0  0  0  0  0  0  0
   -5.0039   18.8753  -32.7228 H   0  0  0  0  0  0  0  0  0  0  0  0
   -7.5747   18.6910  -32.7629 H   0  0  0  0  0  0  0  0  0  0  0  0
  -10.0596   19.0884  -32.6418 H   0  0  0  0  0  0  0  0  0  0  0  0
  -10.9435   21.3178  -31.9293 H   0  0  0  0  0  0  0  0  0  0  0  0
   -9.3629   23.1809  -31.3284 H   0  0  0  0  0  0  0  0  0  0  0  0
   -6.6551   24.2628  -29.9215 H   0  0  0  0  0  0  0  0  0  0  0  0
   -5.7821   24.7514  -31.4134 H   0  0  0  0  0  0  0  0  0  0  0  0
   -7.5758   24.6542  -31.4134 H   0  0  0  0  0  0  0  0  0  0  0  0
   -3.5401   21.4910  -29.7994 H   0  0  0  0  0  0  0  0  0  0  0  0
   -3.0421   20.8793  -28.1853 H   0  0  0  0  0  0  0  0  0  0  0  0
   -3.3913   23.7850  -29.0664 H   0  0  0  0  0  0  0  0  0  0  0  0
   -4.3308   22.8520  -27.8121 H   0  0  0  0  0  0  0  0  0  0  0  0
  1  2  1  0
  2  3  1  0
  3  4  1  0
  4  5  1  0
  5  6  1  0
  6  7  2  0
  6  8  1  0
  8  9  1  0
  9 10  1  0
 10 11  2  0
 11 12  1  0
 12 13  1  0
 13 14  2  0
 14 15  1  0
 15 16  2  0
 16 17  1  0
 17 18  2  0
 18 19  1  0
 19 20  1  0
 19 21  1  0
 21 22  1  0
 22 23  2  0
  5 24  1  0
 24 25  1  0
 25  2  1  0
 22  9  1  0
 21 12  2  0
 18 13  1  0
  1 26  1  0
  1 27  1  0
  1 28  1  0
  2 29  1  0
  3 30  1  0
  3 31  1  0
  4 32  1  0
  4 33  1  0
  8 34  1  0
  8 35  1  0
 11 36  1  0
 14 37  1  0
 15 38  1  0
 16 39  1  0
 17 40  1  0
 20 41  1  0
 20 42  1  0
 20 43  1  0
 24 44  1  0
 24 45  1  0
 25 46  1  0
 25 47  1  0
M  END
>  <UniqueID>  (1) 
1

>  <SMILES>  (1) 
CC1CCN(C(=O)Cn2ncc3c4ccccc4n(C)c3c2=O)CC1

>  <Energy>  (1) 
97.72669345142252

>  <Genealogy>  (1) 
CC1CCN(C(=O)Cn2ncc3c4ccccc4n(C)c3c2=O)CC1 (3D coordinates assigned)
CC1CCN(C(=O)Cn2ncc3c4ccccc4n(C)c3c2=O)CC1 (nonaromatic ring conformer: 97.72669345142252 kcal/mol)

>  <smiles>  (1) 
CC1CCN(C(=O)Cn2ncc3c4ccccc4n(C)c3c2=O)CC1

>  <score_type>  (1) 
oracle

>  <origin>  (1) 
adg

>  <m_score__min__energy>  (1) 
-8.8100000000000005

>  <m_primary>  (1) 
energy

$$$$
1:0
     RDKit          3D

 61 64  0  0  0  0  0  0  0  0999 V2000
   -6.3650   18.2120  -33.6910 C   0  0  0  0  0  0  0  0  0  0  0  0
   -6.1570   19.5550  -33.2670 O   0  0  0  0  0  0  0  0  0  0  0  0
   -7.1120   20.3360  -32.5940 C   0  0  0  0  0  0  0  0  0  0  0  0
   -8.4860   20.0270  -32.6390 C   0  0  0  0  0  0  0  0  0  0  0  0
   -9.4150   20.8340  -31.9780 C   0  0  0  0  0  0  0  0  0  0  0  0
   -8.9880   21.9520  -31.2640 C   0  0  0  0  0  0  0  0  0  0  0  0
   -7.6300   22.2690  -31.2060 C   0  0  0  0  0  0  0  0  0  0  0  0
   -6.6830   21.4700  -31.8710 C   0  0  0  0  0  0  0  0  0  0  0  0
   -5.2460   21.8100  -31.7890 C   0  0  0  0  0  0  0  0  0  0  0  0
   -4.2600   21.0490  -32.3020 N   0  0  0  0  0  0  0  0  0  0  0  0
   -3.0950   21.6300  -32.0540 N   0  0  0  0  0  0  0  0  0  0  0  0
   -1.8130   21.0990  -32.4410 C   0  0  0  0  0  0  0  0  0  0  0  0
   -0.9560   20.5260  -31.4830 C   0  0  0  0  0  0  0  0  0  0  0  0
    0.2830   20.0050  -31.8630 C   0  0  0  0  0  0  0  0  0  0  0  0
    0.6840   20.0490  -33.1990 C   0  0  0  0  0  0  0  0  0  0  0  0
   -0.1480   20.6310  -34.1660 C   0  0  0  0  0  0  0  0  0  0  0  0
    0.2620   20.6380  -35.6090 C   0  0  0  0  0  0  0  0  0  0  0  0
   -1.4000   21.1390  -33.7860 C   0  0  0  0  0  0  0  0  0  0  0  0
   -3.3130   22.7800  -31.3810 C   0  0  0  0  0  0  0  0  0  0  0  0
   -4.6740   22.9320  -31.2000 C   0  0  0  0  0  0  0  0  0  0  0  0
   -5.3540   24.0660  -30.4940 C   0  0  0  0  0  0  0  0  0  0  0  0
   -4.3890   24.7610  -29.6360 N   0  0  0  0  0  0  0  0  0  0  0  0
   -4.3670   24.1590  -28.2990 C   0  0  0  0  0  0  0  0  0  0  0  0
   -2.9420   24.1870  -27.7390 C   0  0  0  0  0  0  0  0  0  0  0  0
   -2.0140   24.7660  -28.7380 N   0  0  0  0  0  0  0  0  0  0  0  0
   -1.2280   25.8950  -28.2000 C   0  0  0  0  0  0  0  0  0  0  0  0
   -0.0850   25.4020  -27.3040 C   0  0  0  0  0  0  0  0  0  0  0  0
    0.7710   24.5430  -28.0280 O   0  0  0  0  0  0  0  0  0  0  0  0
    0.0580   23.3900  -28.4260 C   0  0  0  0  0  0  0  0  0  0  0  0
   -1.1220   23.7530  -29.3480 C   0  0  0  0  0  0  0  0  0  0  0  0
   -6.4658   17.5609  -32.8102 H   0  0  0  0  0  0  0  0  0  0  0  0
   -7.2825   18.1562  -34.2952 H   0  0  0  0  0  0  0  0  0  0  0  0
   -5.5074   17.8813  -34.2952 H   0  0  0  0  0  0  0  0  0  0  0  0
   -8.8294   19.1443  -33.1984 H   0  0  0  0  0  0  0  0  0  0  0  0
  -10.4859   20.5865  -32.0212 H   0  0  0  0  0  0  0  0  0  0  0  0
   -9.7224   22.5857  -30.7453 H   0  0  0  0  0  0  0  0  0  0  0  0
   -7.2983   23.1496  -30.6364 H   0  0  0  0  0  0  0  0  0  0  0  0
   -4.3870   20.1470  -32.8150 H   0  0  0  0  0  0  0  0  0  0  0  0
   -1.2640   20.4882  -30.4277 H   0  0  0  0  0  0  0  0  0  0  0  0
    0.9450   19.5584  -31.1065 H   0  0  0  0  0  0  0  0  0  0  0  0
    1.6555   19.6259  -33.4943 H   0  0  0  0  0  0  0  0  0  0  0  0
    1.3597   20.6567  -35.6782 H   0  0  0  0  0  0  0  0  0  0  0  0
   -0.1212   19.7332  -36.1034 H   0  0  0  0  0  0  0  0  0  0  0  0
   -0.1518   21.5292  -36.1034 H   0  0  0  0  0  0  0  0  0  0  0  0
   -2.0653   21.5728  -34.5471 H   0  0  0  0  0  0  0  0  0  0  0  0
   -2.5370   23.4786  -31.0349 H   0  0  0  0  0  0  0  0  0  0  0  0
   -5.7573   24.7703  -31.2365 H   0  0  0  0  0  0  0  0  0  0  0  0
   -6.1745   23.6721  -29.8763 H   0  0  0  0  0  0  0  0  0  0  0  0
   -4.7060   25.7550  -29.5380 H   0  0  0  0  0  0  0  0  0  0  0  0
   -5.0323   24.7270  -27.6321 H   0  0  0  0  0  0  0  0  0  0  0  0
   -4.7099   23.1159  -28.3655 H   0  0  0  0  0  0  0  0  0  0  0  0
   -2.9219   24.7997  -26.8257 H   0  0  0  0  0  0  0  0  0  0  0  0
   -2.6259   23.1592  -27.5071 H   0  0  0  0  0  0  0  0  0  0  0  0
   -0.8046   26.4682  -29.0379 H   0  0  0  0  0  0  0  0  0  0  0  0
   -1.8959   26.5256  -27.5949 H   0  0  0  0  0  0  0  0  0  0  0  0
    0.4906   26.2666  -26.9417 H   0  0  0  0  0  0  0  0  0  0  0  0
   -0.5105   24.8489  -26.4537 H   0  0  0  0  0  0  0  0  0  0  0  0
    0.7395   22.7153  -28.9648 H   0  0  0  0  0  0  0  0  0  0  0  0
   -0.3421   22.9007  -27.5257 H   0  0  0  0  0  0  0  0  0  0  0  0
   -0.7243   24.1531  -30.2923 H   0  0  0  0  0  0  0  0  0  0  0  0
   -1.7121   22.8405  -29.5185 H   0  0  0  0  0  0  0  0  0  0  0  0
  1  2  1  0
  2  3  1  0
  3  4  2  0
  4  5  1  0
  5  6  2  0
  6  7  1  0
  7  8  2  0
  8  9  1  0
  9 10  2  0
 10 11  1  0
 11 12  1  0
 12 13  2  0
 13 14  1  0
 14 15  2  0
 15 16  1  0
 16 17  1  0
 16 18  2  0
 11 19  1  0
 19 20  2  0
 20 21  1  0
 21 22  1  0
 22 23  1  0
 23 24  1  0
 24 25  1  0
 25 26  1  0
 26 27  1  0
 27 28  1  0
 28 29  1  0
 29 30  1  0
  8  3  1  0
 20  9  1  0
 30 25  1  0
 18 12  1  0
  1 31  1  0
  1 32  1  0
  1 33  1  0
  4 34  1  0
  5 35  1  0
  6 36  1  0
  7 37  1  0
 10 38  1  0
 13 39  1  0
 14 40  1  0
 15 41  1  0
 17 42  1  0
 17 43  1  0
 17 44  1  0
 18 45  1  0
 19 46  1  0
 21 47  1  0
 21 48  1  0
 22 49  1  0
 23 50  1  0
 23 51  1  0
 24 52  1  0
 24 53  1  0
 26 54  1  0
 26 55  1  0
 27 56  1  0
 27 57  1  0
 29 58  1  0
 29 59  1  0
 30 60  1  0
 30 61  1  0
M  CHG  1  10   1
M  END
>  <UniqueID>  (2) 
2

>  <SMILES>  (2) 
COc1ccccc1-c1[nH+]n(-c2cccc(C)c2)cc1CNCCN1CCOCC1

>  <Energy>  (2) 
103.21555234633375

>  <Genealogy>  (2) 
COc1ccccc1-c1[nH+]n(-c2cccc(C)c2)cc1CNCCN1CCOCC1 (protonated)
COc1ccccc1-c1[nH+]n(-c2cccc(C)c2)cc1CNCCN1CCOCC1 (3D coordinates assigned)
COc1ccccc1-c1[nH+]n(-c2cccc(C)c2)cc1CNCCN1CCOCC1 (nonaromatic ring conformer: 103.21555234633375 kcal/mol)

>  <smiles>  (2) 
COc1ccccc1-c1nn(-c2cccc(C)c2)cc1CNCCN1CCOCC1

>  <score_type>  (2) 
oracle

>  <origin>  (2) 
adg

>  <m_score__min__energy>  (2) 
-8.6699999999999999

>  <m_primary>  (2) 
energy

$$$$
2:0
     RDKit          3D

 42 44  0  0  0  0  0  0  0  0999 V2000
   -6.4500   16.5900  -33.8670 C   0  0  0  0  0  0  0  0  0  0  0  0
   -5.7420   17.6090  -34.7580 C   0  0  0  0  0  0  0  0  0  0  0  0
   -5.7780   18.9520  -34.1420 N   0  0  0  0  0  0  0  0  0  0  0  0
   -6.8580   19.0300  -33.1300 C   0  0  0  0  0  0  0  0  0  0  0  0
   -6.7370   20.2930  -32.2540 C   0  0  0  0  0  0  0  0  0  0  0  0
   -5.8650   21.2800  -32.9120 N   0  0  0  0  0  0  0  0  0  0  0  0
   -5.9250   22.6320  -32.3170 C   0  0  0  0  0  0  0  0  0  0  0  0
   -5.9340   22.6550  -30.7730 C   0  0  0  0  0  0  0  0  0  0  0  0
   -4.6360   23.1490  -30.2640 N   0  0  0  0  0  0  0  0  0  0  0  0
   -4.3720   24.5030  -30.1430 C   0  0  0  0  0  0  0  0  0  0  0  0
   -5.4730   25.6550  -30.5460 S   0  0  0  0  0  0  0  0  0  0  0  0
   -3.1610   24.9250  -29.6880 N   0  0  0  0  0  0  0  0  0  0  0  0
   -2.1950   24.0380  -29.3570 C   0  0  0  0  0  0  0  0  0  0  0  0
   -2.4110   22.6920  -29.4850 C   0  0  0  0  0  0  0  0  0  0  0  0
   -3.6470   22.2420  -29.9540 C   0  0  0  0  0  0  0  0  0  0  0  0
   -3.8410   21.0010  -30.0910 O   0  0  0  0  0  0  0  0  0  0  0  0
   -1.2680   21.8210  -29.1100 C   0  0  0  0  0  0  0  0  0  0  0  0
    0.0910   22.9140  -28.5600 S   0  0  0  0  0  0  0  0  0  0  0  0
   -0.8600   24.4450  -28.8630 C   0  0  0  0  0  0  0  0  0  0  0  0
   -4.4850   20.7720  -33.0720 C   0  0  0  0  0  0  0  0  0  0  0  0
   -4.4790   19.3000  -33.5290 C   0  0  0  0  0  0  0  0  0  0  0  0
   -6.2748   16.8422  -32.8107 H   0  0  0  0  0  0  0  0  0  0  0  0
   -7.5301   16.6095  -34.0743 H   0  0  0  0  0  0  0  0  0  0  0  0
   -6.0549   15.5845  -34.0743 H   0  0  0  0  0  0  0  0  0  0  0  0
   -4.6946   17.3025  -34.8961 H   0  0  0  0  0  0  0  0  0  0  0  0
   -6.2575   17.6501  -35.7289 H   0  0  0  0  0  0  0  0  0  0  0  0
   -7.8288   19.0478  -33.6470 H   0  0  0  0  0  0  0  0  0  0  0  0
   -6.7734   18.1513  -32.4737 H   0  0  0  0  0  0  0  0  0  0  0  0
   -7.7353   20.7305  -32.1055 H   0  0  0  0  0  0  0  0  0  0  0  0
   -6.3021   20.0180  -31.2818 H   0  0  0  0  0  0  0  0  0  0  0  0
   -5.0481   23.1986  -32.6635 H   0  0  0  0  0  0  0  0  0  0  0  0
   -6.8792   23.0731  -32.6409 H   0  0  0  0  0  0  0  0  0  0  0  0
   -6.7383   23.3193  -30.4238 H   0  0  0  0  0  0  0  0  0  0  0  0
   -6.1023   21.6344  -30.3989 H   0  0  0  0  0  0  0  0  0  0  0  0
   -1.5617   21.1454  -28.2931 H   0  0  0  0  0  0  0  0  0  0  0  0
   -0.9509   21.2052  -29.9645 H   0  0  0  0  0  0  0  0  0  0  0  0
   -0.9616   25.0171  -27.9290 H   0  0  0  0  0  0  0  0  0  0  0  0
   -0.3489   25.0842  -29.5979 H   0  0  0  0  0  0  0  0  0  0  0  0
   -3.9634   21.3826  -33.8237 H   0  0  0  0  0  0  0  0  0  0  0  0
   -3.9770   20.8351  -32.0984 H   0  0  0  0  0  0  0  0  0  0  0  0
   -3.6772   19.1518  -34.2673 H   0  0  0  0  0  0  0  0  0  0  0  0
   -4.3088   18.6531  -32.6557 H   0  0  0  0  0  0  0  0  0  0  0  0
  1  2  1  0
  2  3  1  0
  3  4  1  0
  4  5  1  0
  5  6  1  0
  6  7  1  0
  7  8  1  0
  8  9  1  0
  9 10  1  0
 10 11  2  0
 10 12  1  0
 12 13  1  0
 13 14  2  0
 14 15  1  0
 15 16  2  0
 14 17  1  0
 17 18  1  0
 18 19  1  0
  6 20  1  0
 20 21  1  0
 21  3  1  0
 15  9  1  0
 19 13  1  0
  1 22  1  0
  1 23  1  0
  1 24  1  0
  2 25  1  0
  2 26  1  0
  4 27  1  0
  4 28  1  0
  5 29  1  0
  5 30  1  0
  7 31  1  0
  7 32  1  0
  8 33  1  0
  8 34  1  0
 17 35  1  0
 17 36  1  0
 19 37  1  0
 19 38  1  0
 20 39  1  0
 20 40  1  0
 21 41  1  0
 21 42  1  0
M  CHG  1  12  -1
M  END
>  <UniqueID>  (3) 
3

>  <SMILES>  (3) 
CCN1CCN(CCn2c(=S)[n-]c3c(c2=O)CSC3)CC1

>  <Energy>  (3) 
56.973717546078696

>  <Genealogy>  (3) 
CCN1CCN(CCn2c(=S)[n-]c3c(c2=O)CSC3)CC1 (protonated)
CCN1CCN(CCn2c(=S)[n-]c3c(c2=O)CSC3)CC1 (3D coordinates assigned)
CCN1CCN(CCn2c(=S)[n-]c3c(c2=O)CSC3)CC1 (nonaromatic ring conformer: 56.973717546078696 kcal/mol)

>  <smiles>  (3) 
CCN1CCN(CCn2c(=S)[nH]c3c(c2=O)CSC3)CC1

>  <score_type>  (3) 
oracle

>  <origin>  (3) 
adg

>  <m_score__min__energy>  (3) 
-8.2899999999999991

>  <m_primary>  (3) 
energy

$$$$
3:0
     RDKit          3D

 58 61  0  0  0  0  0  0  0  0999 V2000
   -0.8120   19.7490  -29.5000 C   0  0  0  0  0  0  0  0  0  0  0  0
   -0.9170   21.2210  -29.0780 C   0  0  0  0  0  0  0  0  0  0  0  0
   -2.0350   21.9630  -29.7130 N   0  0  0  0  0  0  0  0  0  0  0  0
   -2.7370   21.2010  -30.7730 C   0  0  0  0  0  0  0  0  0  0  0  0
   -2.2920   21.6040  -32.1900 C   0  0  0  0  0  0  0  0  0  0  0  0
   -3.0100   20.8270  -33.3110 C   0  0  0  0  0  0  0  0  0  0  0  0
   -4.4440   20.6220  -33.0360 N   0  0  0  0  0  0  0  0  0  0  0  0
   -4.9760   19.4220  -33.2810 N   0  0  0  0  0  0  0  0  0  0  0  0
   -6.2890   19.1360  -33.0860 C   0  0  0  0  0  0  0  0  0  0  0  0
   -6.7510   17.7340  -33.3980 C   0  0  0  0  0  0  0  0  0  0  0  0
   -5.5890   16.7730  -33.4320 C   0  0  0  0  0  0  0  0  0  0  0  0
   -5.2910   15.9820  -32.3100 C   0  0  0  0  0  0  0  0  0  0  0  0
   -4.2160   15.0940  -32.3600 C   0  0  0  0  0  0  0  0  0  0  0  0
   -3.4670   14.9900  -33.4890 N   0  0  0  0  0  0  0  0  0  0  0  0
   -3.7380   15.7350  -34.5930 C   0  0  0  0  0  0  0  0  0  0  0  0
   -4.8060   16.6360  -34.5870 C   0  0  0  0  0  0  0  0  0  0  0  0
   -7.1550   20.1610  -32.6490 C   0  0  0  0  0  0  0  0  0  0  0  0
   -8.5320   19.9490  -32.4280 C   0  0  0  0  0  0  0  0  0  0  0  0
   -9.3520   20.9970  -32.0070 C   0  0  0  0  0  0  0  0  0  0  0  0
   -8.8190   22.2680  -31.8030 C   0  0  0  0  0  0  0  0  0  0  0  0
   -7.4600   22.4990  -32.0160 C   0  0  0  0  0  0  0  0  0  0  0  0
   -6.6140   21.4500  -32.4320 C   0  0  0  0  0  0  0  0  0  0  0  0
   -5.2390   21.6610  -32.6340 C   0  0  0  0  0  0  0  0  0  0  0  0
   -4.7440   22.8080  -32.4480 O   0  0  0  0  0  0  0  0  0  0  0  0
   -2.9850   22.5020  -28.7160 C   0  0  0  0  0  0  0  0  0  0  0  0
   -3.9200   23.4880  -29.3680 C   0  0  0  0  0  0  0  0  0  0  0  0
   -5.3010   23.4020  -29.1490 C   0  0  0  0  0  0  0  0  0  0  0  0
   -6.1630   24.3100  -29.7660 C   0  0  0  0  0  0  0  0  0  0  0  0
   -5.6320   25.3080  -30.5860 C   0  0  0  0  0  0  0  0  0  0  0  0
   -4.2880   25.3910  -30.7760 N   0  0  0  0  0  0  0  0  0  0  0  0
   -3.4290   24.5130  -30.1920 C   0  0  0  0  0  0  0  0  0  0  0  0
   -0.7666   19.1129  -28.6037 H   0  0  0  0  0  0  0  0  0  0  0  0
   -1.6929   19.4757  -30.0994 H   0  0  0  0  0  0  0  0  0  0  0  0
    0.0988   19.6035  -30.0994 H   0  0  0  0  0  0  0  0  0  0  0  0
   -1.0557   21.2571  -27.9874 H   0  0  0  0  0  0  0  0  0  0  0  0
    0.0116   21.7093  -29.4087 H   0  0  0  0  0  0  0  0  0  0  0  0
   -2.5310   20.1298  -30.6311 H   0  0  0  0  0  0  0  0  0  0  0  0
   -3.8106   21.4246  -30.6864 H   0  0  0  0  0  0  0  0  0  0  0  0
   -2.4956   22.6764  -32.3258 H   0  0  0  0  0  0  0  0  0  0  0  0
   -1.2210   21.3659  -32.2698 H   0  0  0  0  0  0  0  0  0  0  0  0
   -2.9093   21.3913  -34.2499 H   0  0  0  0  0  0  0  0  0  0  0  0
   -2.5406   19.8345  -33.3791 H   0  0  0  0  0  0  0  0  0  0  0  0
   -7.4624   17.4099  -32.6242 H   0  0  0  0  0  0  0  0  0  0  0  0
   -7.2304   17.7369  -34.3880 H   0  0  0  0  0  0  0  0  0  0  0  0
   -5.9010   16.0622  -31.3982 H   0  0  0  0  0  0  0  0  0  0  0  0
   -3.9740   14.4761  -31.4827 H   0  0  0  0  0  0  0  0  0  0  0  0
   -3.1151   15.6284  -35.4933 H   0  0  0  0  0  0  0  0  0  0  0  0
   -5.0310   17.2339  -35.4825 H   0  0  0  0  0  0  0  0  0  0  0  0
   -8.9629   18.9498  -32.5888 H   0  0  0  0  0  0  0  0  0  0  0  0
  -10.4238   20.8187  -31.8355 H   0  0  0  0  0  0  0  0  0  0  0  0
   -9.4709   23.0905  -31.4735 H   0  0  0  0  0  0  0  0  0  0  0  0
   -7.0455   23.5057  -31.8585 H   0  0  0  0  0  0  0  0  0  0  0  0
   -3.5702   21.6750  -28.2875 H   0  0  0  0  0  0  0  0  0  0  0  0
   -2.4206   23.0134  -27.9223 H   0  0  0  0  0  0  0  0  0  0  0  0
   -5.7059   22.6191  -28.4909 H   0  0  0  0  0  0  0  0  0  0  0  0
   -7.2494   24.2402  -29.6080 H   0  0  0  0  0  0  0  0  0  0  0  0
   -6.3019   26.0280  -31.0789 H   0  0  0  0  0  0  0  0  0  0  0  0
   -2.3468   24.6063  -30.3658 H   0  0  0  0  0  0  0  0  0  0  0  0
  1  2  1  0
  2  3  1  0
  3  4  1  0
  4  5  1  0
  5  6  1  0
  6  7  1  0
  7  8  1  0
  8  9  2  0
  9 10  1  0
 10 11  1  0
 11 12  2  0
 12 13  1  0
 13 14  2  0
 14 15  1  0
 15 16  2  0
  9 17  1  0
 17 18  2  0
 18 19  1  0
 19 20  2  0
 20 21  1  0
 21 22  2  0
 22 23  1  0
 23 24  2  0
  3 25  1  0
 25 26  1  0
 26 27  2  0
 27 28  1  0
 28 29  2  0
 29 30  1  0
 30 31  2  0
 23  7  1  0
 31 26  1  0
 16 11  1  0
 22 17  1  0
  1 32  1  0
  1 33  1  0
  1 34  1  0
  2 35  1  0
  2 36  1  0
  4 37  1  0
  4 38  1  0
  5 39  1  0
  5 40  1  0
  6 41  1  0
  6 42  1  0
 10 43  1  0
 10 44  1  0
 12 45  1  0
 13 46  1  0
 15 47  1  0
 16 48  1  0
 18 49  1  0
 19 50  1  0
 20 51  1  0
 21 52  1  0
 25 53  1  0
 25 54  1  0
 27 55  1  0
 28 56  1  0
 29 57  1  0
 31 58  1  0
M  END
>  <UniqueID>  (4) 
4

>  <SMILES>  (4) 
CCN(CCCn1nc(Cc2ccncc2)c2ccccc2c1=O)Cc1cccnc1

>  <Energy>  (4) 
66.35244074368475

>  <Genealogy>  (4) 
CCN(CCCn1nc(Cc2ccncc2)c2ccccc2c1=O)Cc1cccnc1 (3D coordinates assigned)
CCN(CCCn1nc(Cc2ccncc2)c2ccccc2c1=O)Cc1cccnc1 (optimized conformer: 66.35244074368475 kcal/mol)

>  <smiles>  (4) 
CCN(CCCn1nc(Cc2ccncc2)c2ccccc2c1=O)Cc1cccnc1

>  <score_type>  (4) 
oracle

>  <origin>  (4) 
adg

>  <m_score__min__energy>  (4) 
-9.8000000000000007

>  <m_primary>  (4) 
energy

$$$$
4:0
     RDKit          3D

 44 45  0  0  0  0  0  0  0  0999 V2000
   -4.2755   20.9989  -30.8962 H   0  0  0  0  0  0  0  0  0  0  0  0
   -4.3250   21.9660  -31.4180 C   0  0  0  0  0  0  0  0  0  0  0  0
   -3.4230   23.0330  -30.9360 C   0  0  0  0  0  0  0  0  0  0  0  0
   -2.2340   22.7300  -30.6560 O   0  0  0  0  0  0  0  0  0  0  0  0
   -3.8540   24.3970  -30.8390 N   0  0  0  0  0  0  0  0  0  0  0  0
   -5.0550   24.8340  -30.1300 C   0  0  0  0  0  0  0  0  0  0  0  0
   -5.9297   24.3308  -30.5678 H   0  0  0  0  0  0  0  0  0  0  0  0
   -5.1343   25.9263  -30.2331 H   0  0  0  0  0  0  0  0  0  0  0  0
   -4.9870   24.4990  -28.6290 C   0  0  0  0  0  0  0  0  0  0  0  0
   -5.8104   23.8096  -28.3908 H   0  0  0  0  0  0  0  0  0  0  0  0
   -5.0627   25.4528  -28.0863 H   0  0  0  0  0  0  0  0  0  0  0  0
   -3.7120   23.8660  -28.2090 N   0  0  0  0  0  0  0  0  0  0  0  0
   -3.0370   23.8660  -29.0090 H   0  0  0  0  0  0  0  0  0  0  0  0
   -3.9560   22.4600  -27.8330 C   0  0  0  0  0  0  0  0  0  0  0  0
   -3.9714   22.3710  -26.7367 H   0  0  0  0  0  0  0  0  0  0  0  0
   -4.9241   22.1340  -28.2410 H   0  0  0  0  0  0  0  0  0  0  0  0
   -3.1543   21.8269  -28.2410 H   0  0  0  0  0  0  0  0  0  0  0  0
   -3.1020   24.5690  -27.0640 C   0  0  0  0  0  0  0  0  0  0  0  0
   -3.4778   24.1359  -26.1253 H   0  0  0  0  0  0  0  0  0  0  0  0
   -2.0083   24.4590  -27.1066 H   0  0  0  0  0  0  0  0  0  0  0  0
   -3.3651   25.6362  -27.1066 H   0  0  0  0  0  0  0  0  0  0  0  0
   -5.1980   22.0650  -32.4310 C   0  0  0  0  0  0  0  0  0  0  0  0
   -4.7915   22.2201  -33.4413 H   0  0  0  0  0  0  0  0  0  0  0  0
   -6.6640   21.9810  -32.2890 C   0  0  0  0  0  0  0  0  0  0  0  0
   -7.3700   23.1520  -31.9760 C   0  0  0  0  0  0  0  0  0  0  0  0
   -6.8300   24.1050  -31.8748 H   0  0  0  0  0  0  0  0  0  0  0  0
   -8.7540   23.1160  -31.7920 C   0  0  0  0  0  0  0  0  0  0  0  0
   -9.2990   24.0376  -31.5397 H   0  0  0  0  0  0  0  0  0  0  0  0
   -9.4460   21.9120  -31.9280 C   0  0  0  0  0  0  0  0  0  0  0  0
  -10.5346   21.8843  -31.7725 H   0  0  0  0  0  0  0  0  0  0  0  0
   -8.7600   20.7420  -32.2610 C   0  0  0  0  0  0  0  0  0  0  0  0
   -9.3137   19.7977  -32.3695 H   0  0  0  0  0  0  0  0  0  0  0  0
   -7.3670   20.7600  -32.4590 C   0  0  0  0  0  0  0  0  0  0  0  0
   -6.6760   19.5010  -32.8340 C   0  0  0  0  0  0  0  0  0  0  0  0
   -6.1180   19.3380  -34.1160 C   0  0  0  0  0  0  0  0  0  0  0  0
   -6.1986   20.1486  -34.8552 H   0  0  0  0  0  0  0  0  0  0  0  0
   -5.4620   18.1510  -34.4540 C   0  0  0  0  0  0  0  0  0  0  0  0
   -5.0195   18.0343  -35.4543 H   0  0  0  0  0  0  0  0  0  0  0  0
   -5.3670   17.1130  -33.5250 C   0  0  0  0  0  0  0  0  0  0  0  0
   -4.8441   16.1826  -33.7914 H   0  0  0  0  0  0  0  0  0  0  0  0
   -5.9360   17.2560  -32.2570 C   0  0  0  0  0  0  0  0  0  0  0  0
   -5.8659   16.4359  -31.5273 H   0  0  0  0  0  0  0  0  0  0  0  0
   -6.5950   18.4420  -31.9150 C   0  0  0  0  0  0  0  0  0  0  0  0
   -7.0525   18.5456  -30.9201 H   0  0  0  0  0  0  0  0  0  0  0  0
  1  2  1  0
  2  3  1  0
  3  4  2  0
  3  5  1  0
  5  6  1  0
  6  7  1  0
  6  8  1  0
  6  9  1  0
  9 10  1  0
  9 11  1  0
  9 12  1  0
 12 13  1  0
 12 14  1  0
 14 15  1  0
 14 16  1  0
 14 17  1  0
 12 18  1  0
 18 19  1  0
 18 20  1  0
 18 21  1  0
  2 22  2  0
 22 23  1  0
 22 24  1  0
 24 25  2  0
 25 26  1  0
 25 27  1  0
 27 28  1  0
 27 29  2  0
 29 30  1  0
 29 31  1  0
 31 32  1  0
 31 33  2  0
 33 34  1  0
 34 35  2  0
 35 36  1  0
 35 37  1  0
 37 38  1  0
 37 39  2  0
 39 40  1  0
 39 41  1  0
 41 42  1  0
 41 43  2  0
 43 44  1  0
 33 24  1  0
 43 34  1  0
M  CHG  2   5  -1  12   1
M  END
>  <UniqueID>  (5) 
5

>  <SMILES>  (5) 
C[NH+](C)CC[N-]C(=O)/C=C\c1ccccc1-c1ccccc1

>  <Energy>  (5) 
55.89719681310907

>  <Genealogy>  (5) 
C[NH+](C)CC[N-]C(=O)C=Cc1ccccc1-c1ccccc1 (protonated)
C[NH+](C)CC[N-]C(=O)/C=C\c1ccccc1-c1ccccc1 (cis-trans isomerization)
C[NH+](C)CC[N-]C(=O)/C=C\c1ccccc1-c1ccccc1 (3D coordinates assigned)
C[NH+](C)CC[N-]C(=O)/C=C\c1ccccc1-c1ccccc1 (optimized conformer: 55.89719681310907 kcal/mol)

>  <smiles>  (5) 
CN(C)CCNC(=O)C=Cc1ccccc1-c1ccccc1

>  <score_type>  (5) 
oracle

>  <origin>  (5) 
adg

>  <m_score__min__energy>  (5) 
-9.2400000000000002

>  <m_primary>  (5) 
energy

$$$$
5:0
     RDKit          3D

 34 36  0  0  0  0  0  0  0  0999 V2000
   -1.2970   23.8240  -26.4070 C   0  0  0  0  0  0  0  0  0  0  0  0
   -2.5670   23.5690  -26.9970 O   0  0  0  0  0  0  0  0  0  0  0  0
   -2.7800   22.6850  -28.0660 C   0  0  0  0  0  0  0  0  0  0  0  0
   -2.8550   21.2790  -27.8810 C   0  0  0  0  0  0  0  0  0  0  0  0
   -3.1040   20.4280  -28.9690 C   0  0  0  0  0  0  0  0  0  0  0  0
   -3.2660   21.0130  -30.2180 C   0  0  0  0  0  0  0  0  0  0  0  0
   -3.5040   20.3930  -31.3830 N   0  0  0  0  0  0  0  0  0  0  0  0
   -3.5630   21.4200  -32.2640 C   0  0  0  0  0  0  0  0  0  0  0  0
   -3.3700   22.6190  -31.6630 N   0  0  0  0  0  0  0  0  0  0  0  0
   -3.1900   22.3380  -30.3830 N   0  0  0  0  0  0  0  0  0  0  0  0
   -2.9530   23.2090  -29.3660 C   0  0  0  0  0  0  0  0  0  0  0  0
   -2.9310   24.6630  -29.6040 C   0  0  0  0  0  0  0  0  0  0  0  0
   -2.0960   25.3740  -28.9860 O   0  0  0  0  0  0  0  0  0  0  0  0
   -3.8630   25.2920  -30.4920 N   0  0  0  0  0  0  0  0  0  0  0  0
   -5.2910   25.4520  -30.2310 C   0  0  0  0  0  0  0  0  0  0  0  0
   -6.0510   24.2160  -30.6340 C   0  0  0  0  0  0  0  0  0  0  0  0
   -6.2100   23.8790  -31.9880 C   0  0  0  0  0  0  0  0  0  0  0  0
   -6.8750   22.7040  -32.3410 C   0  0  0  0  0  0  0  0  0  0  0  0
   -7.3860   21.8800  -31.3370 C   0  0  0  0  0  0  0  0  0  0  0  0
   -7.2360   22.2240  -30.0300 N   0  0  0  0  0  0  0  0  0  0  0  0
   -6.5890   23.3610  -29.6600 C   0  0  0  0  0  0  0  0  0  0  0  0
   -1.3913   23.8051  -25.3112 H   0  0  0  0  0  0  0  0  0  0  0  0
   -0.5823   23.0514  -26.7269 H   0  0  0  0  0  0  0  0  0  0  0  0
   -0.9359   24.8126  -26.7269 H   0  0  0  0  0  0  0  0  0  0  0  0
   -2.7167   20.8532  -26.8762 H   0  0  0  0  0  0  0  0  0  0  0  0
   -3.1685   19.3378  -28.8372 H   0  0  0  0  0  0  0  0  0  0  0  0
   -3.6130   19.3710  -31.5690 H   0  0  0  0  0  0  0  0  0  0  0  0
   -3.7462   21.2953  -33.3415 H   0  0  0  0  0  0  0  0  0  0  0  0
   -5.4429   25.6344  -29.1569 H   0  0  0  0  0  0  0  0  0  0  0  0
   -5.6637   26.3025  -30.8207 H   0  0  0  0  0  0  0  0  0  0  0  0
   -5.8104   24.5411  -32.7702 H   0  0  0  0  0  0  0  0  0  0  0  0
   -6.9952   22.4301  -33.3995 H   0  0  0  0  0  0  0  0  0  0  0  0
   -7.9109   20.9508  -31.6035 H   0  0  0  0  0  0  0  0  0  0  0  0
   -6.4869   23.6115  -28.5938 H   0  0  0  0  0  0  0  0  0  0  0  0
  1  2  1  0
  2  3  1  0
  3  4  1  0
  4  5  2  0
  5  6  1  0
  6  7  2  0
  7  8  1  0
  8  9  2  0
  9 10  1  0
 10 11  1  0
 11 12  1  0
 12 13  2  0
 12 14  1  0
 14 15  1  0
 15 16  1  0
 16 17  2  0
 17 18  1  0
 18 19  2  0
 19 20  1  0
 20 21  2  0
 11  3  2  0
 21 16  1  0
 10  6  1  0
  1 22  1  0
  1 23  1  0
  1 24  1  0
  4 25  1  0
  5 26  1  0
  7 27  1  0
  8 28  1  0
 15 29  1  0
 15 30  1  0
 17 31  1  0
 18 32  1  0
 19 33  1  0
 21 34  1  0
M  CHG  2   7   1  14  -1
M  END
>  <UniqueID>  (6) 
6

>  <SMILES>  (6) 
COc1ccc2[nH+]cnn2c1C(=O)[N-]Cc1cccnc1

>  <Energy>  (6) 
78.6107089806036

>  <Genealogy>  (6) 
COc1ccc2[nH+]cnn2c1C(=O)[N-]Cc1cccnc1 (protonated)
COc1ccc2[nH+]cnn2c1C(=O)[N-]Cc1cccnc1 (3D coordinates assigned)
COc1ccc2[nH+]cnn2c1C(=O)[N-]Cc1cccnc1 (optimized conformer: 78.6107089806036 kcal/mol)

>  <smiles>  (6) 
COc1ccc2ncnn2c1C(=O)NCc1cccnc1

>  <score_type>  (6) 
oracle

>  <origin>  (6) 
adg

>  <m_score__min__energy>  (6) 
-8.1699999999999999

>  <m_primary>  (6) 
energy

$$$$
6:0
     RDKit          3D

 78 81  0  0  0  0  0  0  0  0999 V2000
   -2.5490   18.1590  -33.1130 C   0  0  0  0  0  0  0  0  0  0  0  0
   -3.0010   19.2330  -34.1080 C   0  0  0  0  0  0  0  0  0  0  0  0
   -2.5530   20.5810  -33.7290 N   0  0  0  0  0  0  0  0  0  0  0  0
   -3.5300   21.2770  -32.9240 C   0  0  0  0  0  0  0  0  0  0  0  0
   -3.1370   22.3310  -32.0800 C   0  0  0  0  0  0  0  0  0  0  0  0
   -4.0810   23.0150  -31.3050 C   0  0  0  0  0  0  0  0  0  0  0  0
   -3.6830   24.1700  -30.4850 C   0  0  0  0  0  0  0  0  0  0  0  0
   -4.3460   25.2350  -30.5490 O   0  0  0  0  0  0  0  0  0  0  0  0
   -2.4790   24.1440  -29.7170 N   0  0  0  0  0  0  0  0  0  0  0  0
   -2.4190   24.5140  -28.3030 C   0  0  2  0  0  0  0  0  0  0  0  0
   -0.9710   24.9240  -27.9570 C   0  0  0  0  0  0  0  0  0  0  0  0
   -0.9270   25.9310  -26.8370 C   0  0  0  0  0  0  0  0  0  0  0  0
   -0.4960   27.2450  -27.0890 C   0  0  0  0  0  0  0  0  0  0  0  0
   -0.4440   28.1810  -26.0500 C   0  0  0  0  0  0  0  0  0  0  0  0
   -0.8130   27.8090  -24.7540 C   0  0  0  0  0  0  0  0  0  0  0  0
   -1.2270   26.5010  -24.4920 C   0  0  0  0  0  0  0  0  0  0  0  0
   -1.2840   25.5590  -25.5270 C   0  0  0  0  0  0  0  0  0  0  0  0
   -2.9380   23.3220  -27.4420 C   0  0  1  0  0  0  0  0  0  0  0  0
   -3.7420   22.4430  -28.1860 O   0  0  0  0  0  0  0  0  0  0  0  0
   -1.8080   22.5450  -26.7270 C   0  0  0  0  0  0  0  0  0  0  0  0
   -1.9190   21.0820  -26.8850 N   0  0  0  0  0  0  0  0  0  0  0  0
   -0.6700   20.4220  -27.3020 C   0  0  0  0  0  0  0  0  0  0  0  0
   -0.4790   20.4280  -28.8010 C   0  0  0  0  0  0  0  0  0  0  0  0
   -0.2480   19.2300  -29.4920 C   0  0  0  0  0  0  0  0  0  0  0  0
   -0.0870   19.2320  -30.8810 C   0  0  0  0  0  0  0  0  0  0  0  0
   -0.1620   20.4370  -31.6020 C   0  0  0  0  0  0  0  0  0  0  0  0
   -0.0180   20.4910  -32.9970 O   0  0  0  0  0  0  0  0  0  0  0  0
    1.2080   20.2740  -33.6900 C   0  0  0  0  0  0  0  0  0  0  0  0
   -0.3880   21.6320  -30.9110 C   0  0  0  0  0  0  0  0  0  0  0  0
   -0.5520   21.6310  -29.5220 C   0  0  0  0  0  0  0  0  0  0  0  0
   -5.4200   22.6060  -31.3280 C   0  0  0  0  0  0  0  0  0  0  0  0
   -5.8350   21.5590  -32.1650 C   0  0  0  0  0  0  0  0  0  0  0  0
   -7.2140   21.1610  -32.2010 N   0  0  0  0  0  0  0  0  0  0  0  0
   -7.6950   19.9010  -32.7580 C   0  0  0  0  0  0  0  0  0  0  0  0
   -9.1450   19.6760  -32.2790 C   0  0  0  0  0  0  0  0  0  0  0  0
   -9.8160   21.0200  -31.9610 C   0  0  0  0  0  0  0  0  0  0  0  0
   -8.4920   22.1100  -31.5610 S   0  0  0  0  0  0  0  0  0  0  0  0
   -8.3490   22.2880  -30.0750 O   0  0  0  0  0  0  0  0  0  0  0  0
   -8.6340   23.4310  -32.2650 O   0  0  0  0  0  0  0  0  0  0  0  0
   -4.8870   20.9100  -32.9730 C   0  0  0  0  0  0  0  0  0  0  0  0
   -2.7021   18.5227  -32.0862 H   0  0  0  0  0  0  0  0  0  0  0  0
   -3.1380   17.2432  -33.2692 H   0  0  0  0  0  0  0  0  0  0  0  0
   -1.4824   17.9400  -33.2692 H   0  0  0  0  0  0  0  0  0  0  0  0
   -2.5891   18.9907  -35.0988 H   0  0  0  0  0  0  0  0  0  0  0  0
   -4.1010   19.2379  -34.1153 H   0  0  0  0  0  0  0  0  0  0  0  0
   -2.3830   21.1330  -34.5990 H   0  0  0  0  0  0  0  0  0  0  0  0
   -1.6390   20.5100  -33.2200 H   0  0  0  0  0  0  0  0  0  0  0  0
   -2.0771   22.6209  -32.0283 H   0  0  0  0  0  0  0  0  0  0  0  0
   -3.0658   25.3765  -28.0846 H   0  0  0  0  0  0  0  0  0  0  0  0
   -0.4104   24.0280  -27.6524 H   0  0  0  0  0  0  0  0  0  0  0  0
   -0.5238   25.3857  -28.8497 H   0  0  0  0  0  0  0  0  0  0  0  0
   -0.1985   27.5386  -28.1065 H   0  0  0  0  0  0  0  0  0  0  0  0
   -0.1126   29.2100  -26.2532 H   0  0  0  0  0  0  0  0  0  0  0  0
   -0.7773   28.5474  -23.9394 H   0  0  0  0  0  0  0  0  0  0  0  0
   -1.5092   26.2097  -23.4695 H   0  0  0  0  0  0  0  0  0  0  0  0
   -1.6076   24.5290  -25.3164 H   0  0  0  0  0  0  0  0  0  0  0  0
   -3.5587   23.7819  -26.6589 H   0  0  0  0  0  0  0  0  0  0  0  0
   -3.2380   22.2330  -29.0200 H   0  0  0  0  0  0  0  0  0  0  0  0
   -0.8429   22.8695  -27.1433 H   0  0  0  0  0  0  0  0  0  0  0  0
   -1.8891   22.7650  -25.6523 H   0  0  0  0  0  0  0  0  0  0  0  0
   -2.6560   20.8780  -27.5990 H   0  0  0  0  0  0  0  0  0  0  0  0
    0.1775   20.9471  -26.8372 H   0  0  0  0  0  0  0  0  0  0  0  0
   -0.7252   19.3721  -26.9785 H   0  0  0  0  0  0  0  0  0  0  0  0
   -0.1930   18.2817  -28.9374 H   0  0  0  0  0  0  0  0  0  0  0  0
    0.0991   18.2868  -31.4120 H   0  0  0  0  0  0  0  0  0  0  0  0
    2.0201   20.1303  -32.9621 H   0  0  0  0  0  0  0  0  0  0  0  0
    1.1186   19.3777  -34.3214 H   0  0  0  0  0  0  0  0  0  0  0  0
    1.4317   21.1465  -34.3214 H   0  0  0  0  0  0  0  0  0  0  0  0
   -0.4372   22.5810  -31.4650 H   0  0  0  0  0  0  0  0  0  0  0  0
   -0.7390   22.5766  -28.9920 H   0  0  0  0  0  0  0  0  0  0  0  0
   -6.1543   23.1108  -30.6831 H   0  0  0  0  0  0  0  0  0  0  0  0
   -7.6701   19.9474  -33.8567 H   0  0  0  0  0  0  0  0  0  0  0  0
   -7.0544   19.0718  -32.4232 H   0  0  0  0  0  0  0  0  0  0  0  0
   -9.7133   19.1649  -33.0701 H   0  0  0  0  0  0  0  0  0  0  0  0
   -9.1292   19.0596  -31.3680 H   0  0  0  0  0  0  0  0  0  0  0  0
  -10.3710   21.3910  -32.8352 H   0  0  0  0  0  0  0  0  0  0  0  0
  -10.5420   20.9341  -31.1391 H   0  0  0  0  0  0  0  0  0  0  0  0
   -5.2092   20.1062  -33.6513 H   0  0  0  0  0  0  0  0  0  0  0  0
  1  2  1  0
  2  3  1  0
  3  4  1  0
  4  5  2  0
  5  6  1  0
  6  7  1  0
  7  8  2  0
  7  9  1  0
  9 10  1  0
 10 11  1  0
 11 12  1  0
 12 13  2  0
 13 14  1  0
 14 15  2  0
 15 16  1  0
 16 17  2  0
 10 18  1  0
 18 19  1  0
 18 20  1  0
 20 21  1  0
 21 22  1  0
 22 23  1  0
 23 24  2  0
 24 25  1  0
 25 26  2  0
 26 27  1  0
 27 28  1  0
 26 29  1  0
 29 30  2  0
  6 31  2  0
 31 32  1  0
 32 33  1  0
 33 34  1  0
 34 35  1  0
 35 36  1  0
 36 37  1  0
 37 38  2  0
 37 39  2  0
 32 40  2  0
 40  4  1  0
 17 12  1  0
 30 23  1  0
 37 33  1  0
  1 41  1  0
  1 42  1  0
  1 43  1  0
  2 44  1  0
  2 45  1  0
  3 46  1  0
  3 47  1  0
  5 48  1  0
 10 49  1  6
 11 50  1  0
 11 51  1  0
 13 52  1  0
 14 53  1  0
 15 54  1  0
 16 55  1  0
 17 56  1  0
 18 57  1  1
 19 58  1  0
 20 59  1  0
 20 60  1  0
 21 61  1  0
 22 62  1  0
 22 63  1  0
 24 64  1  0
 25 65  1  0
 28 66  1  0
 28 67  1  0
 28 68  1  0
 29 69  1  0
 30 70  1  0
 31 71  1  0
 34 72  1  0
 34 73  1  0
 35 74  1  0
 35 75  1  0
 36 76  1  0
 36 77  1  0
 40 78  1  0
M  CHG  2   3   1   9  -1
M  END
>  <UniqueID>  (7) 
7

>  <SMILES>  (7) 
CC[NH2+]c1cc(C(=O)[N-][C@H](Cc2ccccc2)[C@@H](O)CNCc2ccc(OC)cc2)cc(N2CCCS2(=O)=O)c1

>  <Energy>  (7) 
101.84422645669258

>  <Genealogy>  (7) 
CC[NH2+]c1cc(C(=O)[N-]C(Cc2ccccc2)C(O)CNCc2ccc(OC)cc2)cc(N2CCCS2(=O)=O)c1 (protonated)
CC[NH2+]c1cc(C(=O)[N-][C@H](Cc2ccccc2)[C@@H](O)CNCc2ccc(OC)cc2)cc(N2CCCS2(=O)=O)c1 (chirality)
CC[NH2+]c1cc(C(=O)[N-][C@H](Cc2ccccc2)[C@@H](O)CNCc2ccc(OC)cc2)cc(N2CCCS2(=O)=O)c1 (3D coordinates assigned)
CC[NH2+]c1cc(C(=O)[N-][C@H](Cc2ccccc2)[C@@H](O)CNCc2ccc(OC)cc2)cc(N2CCCS2(=O)=O)c1 (nonaromatic ring conformer: 101.84422645669258 kcal/mol)

>  <smiles>  (7) 
CCNc1cc(C(=O)NC(Cc2ccccc2)C(O)CNCc2ccc(OC)cc2)cc(N2CCCS2(=O)=O)c1

>  <score_type>  (7) 
oracle

>  <origin>  (7) 
adg

>  <m_score__min__energy>  (7) 
-11.300000000000001

>  <m_primary>  (7) 
energy

$$$$
7:0
     RDKit          3D

 39 41  0  0  0  0  0  0  0  0999 V2000
   -4.0450   16.5090  -33.3290 C   0  0  0  0  0  0  0  0  0  0  0  0
   -5.4880   16.2770  -33.1330 N   0  0  2  0  0  0  0  0  0  0  0  0
   -6.2740   16.7570  -34.2980 C   0  0  0  0  0  0  0  0  0  0  0  0
   -5.7140   18.0240  -34.9790 C   0  0  0  0  0  0  0  0  0  0  0  0
   -5.6380   19.2940  -34.0990 C   0  0  0  0  0  0  0  0  0  0  0  0
   -6.2610   19.1490  -32.7700 N   0  0  0  0  0  0  0  0  0  0  0  0
   -7.1870   20.1720  -32.3530 C   0  0  0  0  0  0  0  0  0  0  0  0
   -8.5580   19.8700  -32.3230 C   0  0  0  0  0  0  0  0  0  0  0  0
   -9.4930   20.8350  -31.9520 C   0  0  0  0  0  0  0  0  0  0  0  0
   -9.0790   22.1190  -31.6040 C   0  0  0  0  0  0  0  0  0  0  0  0
   -7.7160   22.4490  -31.6210 C   0  0  0  0  0  0  0  0  0  0  0  0
   -7.3000   23.7430  -31.2650 C   0  0  0  0  0  0  0  0  0  0  0  0
   -5.9450   24.0730  -31.2710 C   0  0  0  0  0  0  0  0  0  0  0  0
   -5.5510   25.3230  -30.9250 F   0  0  0  0  0  0  0  0  0  0  0  0
   -4.9930   23.1170  -31.6300 C   0  0  0  0  0  0  0  0  0  0  0  0
   -5.3910   21.8260  -31.9880 C   0  0  0  0  0  0  0  0  0  0  0  0
   -6.7540   21.4730  -31.9960 C   0  0  0  0  0  0  0  0  0  0  0  0
   -5.6480   18.3420  -31.6980 C   0  0  0  0  0  0  0  0  0  0  0  0
   -5.9180   16.8310  -31.8280 C   0  0  0  0  0  0  0  0  0  0  0  0
   -3.5501   16.5886  -32.3498 H   0  0  0  0  0  0  0  0  0  0  0  0
   -3.6117   15.6690  -33.8917 H   0  0  0  0  0  0  0  0  0  0  0  0
   -3.8968   17.4425  -33.8917 H   0  0  0  0  0  0  0  0  0  0  0  0
   -5.6180   15.2370  -33.0870 H   0  0  0  0  0  0  0  0  0  0  0  0
   -6.3038   15.9511  -35.0461 H   0  0  0  0  0  0  0  0  0  0  0  0
   -7.2677   17.0269  -33.9111 H   0  0  0  0  0  0  0  0  0  0  0  0
   -4.6961   17.7957  -35.3279 H   0  0  0  0  0  0  0  0  0  0  0  0
   -6.4244   18.2648  -35.7836 H   0  0  0  0  0  0  0  0  0  0  0  0
   -4.5781   19.5516  -33.9565 H   0  0  0  0  0  0  0  0  0  0  0  0
   -6.2008   20.0777  -34.6272 H   0  0  0  0  0  0  0  0  0  0  0  0
   -8.8982   18.8600  -32.5955 H   0  0  0  0  0  0  0  0  0  0  0  0
  -10.5632   20.5815  -31.9339 H   0  0  0  0  0  0  0  0  0  0  0  0
   -9.8231   22.8759  -31.3152 H   0  0  0  0  0  0  0  0  0  0  0  0
   -8.0464   24.4992  -30.9803 H   0  0  0  0  0  0  0  0  0  0  0  0
   -3.9251   23.3810  -31.6311 H   0  0  0  0  0  0  0  0  0  0  0  0
   -4.6328   21.0791  -32.2660 H   0  0  0  0  0  0  0  0  0  0  0  0
   -4.5602   18.5035  -31.7208 H   0  0  0  0  0  0  0  0  0  0  0  0
   -6.1015   18.6689  -30.7506 H   0  0  0  0  0  0  0  0  0  0  0  0
   -5.3736   16.3074  -31.0283 H   0  0  0  0  0  0  0  0  0  0  0  0
   -7.0051   16.6827  -31.7494 H   0  0  0  0  0  0  0  0  0  0  0  0
  1  2  1  0
  2  3  1  0
  3  4  1  0
  4  5  1  0
  5  6  1  0
  6  7  1  0
  7  8  2  0
  8  9  1  0
  9 10  2  0
 10 11  1  0
 11 12  2  0
 12 13  1  0
 13 14  1  0
 13 15  2  0
 15 16  1  0
 16 17  2  0
  6 18  1  0
 18 19  1  0
 19  2  1  0
 17  7  1  0
 17 11  1  0
  1 20  1  0
  1 21  1  0
  1 22  1  0
  2 23  1  1
  3 24  1  0
  3 25  1  0
  4 26  1  0
  4 27  1  0
  5 28  1  0
  5 29  1  0
  8 30  1  0
  9 31  1  0
 10 32  1  0
 12 33  1  0
 15 34  1  0
 16 35  1  0
 18 36  1  0
 18 37  1  0
 19 38  1  0
 19 39  1  0
M  CHG  1   2   1
M  END
>  <UniqueID>  (8) 
8

>  <SMILES>  (8) 
C[N@@H+]1CCCN(c2cccc3cc(F)ccc23)CC1

>  <Energy>  (8) 
62.38729673051218

>  <Genealogy>  (8) 
C[NH+]1CCCN(c2cccc3cc(F)ccc23)CC1 (protonated)
C[N@@H+]1CCCN(c2cccc3cc(F)ccc23)CC1 (chirality)
C[N@@H+]1CCCN(c2cccc3cc(F)ccc23)CC1 (3D coordinates assigned)
C[N@@H+]1CCCN(c2cccc3cc(F)ccc23)CC1 (nonaromatic ring conformer: 62.38729673051218 kcal/mol)

>  <smiles>  (8) 
CN1CCCN(c2cccc3cc(F)ccc23)CC1

>  <score_type>  (8) 
oracle

>  <origin>  (8) 
adg

>  <m_score__min__energy>  (8) 
-5.1200000000000001

>  <m_primary>  (8) 
energy

$$$$
8:0
     RDKit          3D

 37 37  0  0  0  0  0  0  0  0999 V2000
   -3.0300   24.9110  -26.5540 C   0  0  0  0  0  0  0  0  0  0  0  0
   -4.2410   24.4790  -27.3880 C   0  0  0  0  0  0  0  0  0  0  0  0
   -3.8930   23.8970  -28.7010 N   0  0  0  0  0  0  0  0  0  0  0  0
   -3.6560   22.4410  -28.6520 C   0  0  0  0  0  0  0  0  0  0  0  0
   -2.3410   22.0850  -29.3380 C   0  0  0  0  0  0  0  0  0  0  0  0
   -4.9790   24.3930  -29.9910 S   0  0  0  0  0  0  0  0  0  0  0  0
   -4.2350   25.3040  -30.9260 O   0  0  0  0  0  0  0  0  0  0  0  0
   -6.1220   25.1820  -29.4120 O   0  0  0  0  0  0  0  0  0  0  0  0
   -5.6370   23.0490  -30.9370 C   0  0  0  0  0  0  0  0  0  0  0  0
   -4.8000   22.3050  -31.7800 C   0  0  0  0  0  0  0  0  0  0  0  0
   -5.3150   21.2540  -32.5450 C   0  0  0  0  0  0  0  0  0  0  0  0
   -6.6840   20.9390  -32.4910 C   0  0  0  0  0  0  0  0  0  0  0  0
   -7.2540   19.8650  -33.2640 N   0  0  0  0  0  0  0  0  0  0  0  0
   -7.4840   18.2480  -32.6750 S   0  0  0  0  0  0  0  0  0  0  0  0
   -6.3930   17.9310  -31.3040 C   0  0  0  0  0  0  0  0  0  0  0  0
   -8.9020   18.1030  -32.1980 O   0  0  0  0  0  0  0  0  0  0  0  0
   -7.2420   17.2580  -33.7780 O   0  0  0  0  0  0  0  0  0  0  0  0
   -7.5250   21.7120  -31.6760 C   0  0  0  0  0  0  0  0  0  0  0  0
   -7.0080   22.7620  -30.9120 C   0  0  0  0  0  0  0  0  0  0  0  0
   -3.2718   24.8247  -25.4844 H   0  0  0  0  0  0  0  0  0  0  0  0
   -2.1727   24.2632  -26.7895 H   0  0  0  0  0  0  0  0  0  0  0  0
   -2.7762   25.9551  -26.7895 H   0  0  0  0  0  0  0  0  0  0  0  0
   -4.8043   23.7274  -26.8154 H   0  0  0  0  0  0  0  0  0  0  0  0
   -4.8277   25.3874  -27.5893 H   0  0  0  0  0  0  0  0  0  0  0  0
   -3.6144   22.1171  -27.6016 H   0  0  0  0  0  0  0  0  0  0  0  0
   -4.4776   21.9313  -29.1765 H   0  0  0  0  0  0  0  0  0  0  0  0
   -1.5747   21.8775  -28.5766 H   0  0  0  0  0  0  0  0  0  0  0  0
   -2.4847   21.1934  -29.9660 H   0  0  0  0  0  0  0  0  0  0  0  0
   -2.0153   22.9273  -29.9660 H   0  0  0  0  0  0  0  0  0  0  0  0
   -3.7293   22.5500  -31.8402 H   0  0  0  0  0  0  0  0  0  0  0  0
   -4.6449   20.6701  -33.1930 H   0  0  0  0  0  0  0  0  0  0  0  0
   -7.6320   20.0740  -34.2140 H   0  0  0  0  0  0  0  0  0  0  0  0
   -6.9352   18.0885  -30.3599 H   0  0  0  0  0  0  0  0  0  0  0  0
   -6.0355   16.8918  -31.3525 H   0  0  0  0  0  0  0  0  0  0  0  0
   -5.5343   18.6168  -31.3525 H   0  0  0  0  0  0  0  0  0  0  0  0
   -8.6016   21.4894  -31.6380 H   0  0  0  0  0  0  0  0  0  0  0  0
   -7.6818   23.3668  -30.2872 H   0  0  0  0  0  0  0  0  0  0  0  0
  1  2  1  0
  2  3  1  0
  3  4  1  0
  4  5  1  0
  3  6  1  0
  6  7  2  0
  6  8  2  0
  6  9  1  0
  9 10  2  0
 10 11  1  0
 11 12  2  0
 12 13  1  0
 13 14  1  0
 14 15  1  0
 14 16  2  0
 14 17  2  0
 12 18  1  0
 18 19  2  0
 19  9  1  0
  1 20  1  0
  1 21  1  0
  1 22  1  0
  2 23  1  0
  2 24  1  0
  4 25  1  0
  4 26  1  0
  5 27  1  0
  5 28  1  0
  5 29  1  0
 10 30  1  0
 11 31  1  0
 13 32  1  0
 15 33  1  0
 15 34  1  0
 15 35  1  0
 18 36  1  0
 19 37  1  0
M  END
>  <UniqueID>  (9) 
9

>  <SMILES>  (9) 
CCN(CC)S(=O)(=O)c1ccc(NS(C)(=O)=O)cc1

>  <Energy>  (9) 
34.29988537705184

>  <Genealogy>  (9) 
CCN(CC)S(=O)(=O)c1ccc(NS(C)(=O)=O)cc1 (3D coordinates assigned)
CCN(CC)S(=O)(=O)c1ccc(NS(C)(=O)=O)cc1 (optimized conformer: 34.29988537705184 kcal/mol)

>  <smiles>  (9) 
CCN(CC)S(=O)(=O)c1ccc(NS(C)(=O)=O)cc1

>  <score_type>  (9) 
oracle

>  <origin>  (9) 
adg

>  <m_score__min__energy>  (9) 
-7.6299999999999999

>  <m_primary>  (9) 
energy

$$$$
9:0
     RDKit          3D

 42 44  0  0  0  0  0  0  0  0999 V2000
   -2.4124   22.1193  -34.3609 H   0  0  0  0  0  0  0  0  0  0  0  0
   -2.7790   21.8440  -33.3610 C   0  0  0  0  0  0  0  0  0  0  0  0
   -4.1480   21.8870  -33.0860 C   0  0  0  0  0  0  0  0  0  0  0  0
   -4.8556   22.1969  -33.8691 H   0  0  0  0  0  0  0  0  0  0  0  0
   -4.6220   21.5360  -31.8140 C   0  0  0  0  0  0  0  0  0  0  0  0
   -6.0720   21.5720  -31.5300 C   0  0  0  0  0  0  0  0  0  0  0  0
   -6.8410   20.4410  -31.8510 C   0  0  0  0  0  0  0  0  0  0  0  0
   -6.3502   19.5584  -32.2869 H   0  0  0  0  0  0  0  0  0  0  0  0
   -8.2200   20.4200  -31.6250 C   0  0  0  0  0  0  0  0  0  0  0  0
   -8.9340   19.2630  -31.9730 O   0  0  0  0  0  0  0  0  0  0  0  0
   -8.3370   17.9970  -32.2300 C   0  0  0  0  0  0  0  0  0  0  0  0
   -8.1033   17.5014  -31.2762 H   0  0  0  0  0  0  0  0  0  0  0  0
   -9.0355   17.3724  -32.8062 H   0  0  0  0  0  0  0  0  0  0  0  0
   -7.4108   18.1386  -32.8062 H   0  0  0  0  0  0  0  0  0  0  0  0
   -8.8400   21.5490  -31.0660 C   0  0  0  0  0  0  0  0  0  0  0  0
   -9.9261   21.5463  -30.8918 H   0  0  0  0  0  0  0  0  0  0  0  0
   -8.0860   22.6750  -30.7300 C   0  0  0  0  0  0  0  0  0  0  0  0
   -8.5840   23.5526  -30.2921 H   0  0  0  0  0  0  0  0  0  0  0  0
   -6.7000   22.6990  -30.9450 C   0  0  0  0  0  0  0  0  0  0  0  0
   -5.7900   24.1360  -30.4470 S   0  0  0  0  0  0  0  0  0  0  0  0
   -4.9990   24.6390  -31.6220 O   0  0  0  0  0  0  0  0  0  0  0  0
   -6.7310   25.2180  -29.9980 O   0  0  0  0  0  0  0  0  0  0  0  0
   -4.7470   23.7370  -29.1170 N   0  0  0  0  0  0  0  0  0  0  0  0
   -3.5150   24.1280  -29.0180 C   0  0  0  0  0  0  0  0  0  0  0  0
   -3.0120   25.1960  -29.5910 O   0  0  0  0  0  0  0  0  0  0  0  0
   -1.7390   25.2980  -29.3360 N   0  0  0  0  0  0  0  0  0  0  0  0
   -1.4090   24.2500  -28.5510 C   0  0  0  0  0  0  0  0  0  0  0  0
   -0.0180   23.9450  -28.1070 C   0  0  0  0  0  0  0  0  0  0  0  0
    0.0224   23.9361  -27.0078 H   0  0  0  0  0  0  0  0  0  0  0  0
    0.2823   22.9597  -28.4929 H   0  0  0  0  0  0  0  0  0  0  0  0
    0.6671   24.7143  -28.4929 H   0  0  0  0  0  0  0  0  0  0  0  0
   -2.5270   23.4730  -28.3270 C   0  0  0  0  0  0  0  0  0  0  0  0
   -2.6440   21.9580  -27.4470 Cl  0  0  0  0  0  0  0  0  0  0  0  0
   -3.7110   21.1680  -30.8120 C   0  0  0  0  0  0  0  0  0  0  0  0
   -4.0756   20.9299  -29.8018 H   0  0  0  0  0  0  0  0  0  0  0  0
   -2.3360   21.1020  -31.0920 C   0  0  0  0  0  0  0  0  0  0  0  0
   -1.3630   20.6990  -30.0210 C   0  0  0  0  0  0  0  0  0  0  0  0
   -1.8087   20.8836  -29.0324 H   0  0  0  0  0  0  0  0  0  0  0  0
   -1.1276   19.6294  -30.1231 H   0  0  0  0  0  0  0  0  0  0  0  0
   -0.4402   21.2889  -30.1231 H   0  0  0  0  0  0  0  0  0  0  0  0
   -1.8740   21.4530  -32.3720 C   0  0  0  0  0  0  0  0  0  0  0  0
   -0.5480   21.4130  -32.6610 F   0  0  0  0  0  0  0  0  0  0  0  0
  1  2  1  0
  2  3  2  0
  3  4  1  0
  3  5  1  0
  5  6  1  0
  6  7  2  0
  7  8  1  0
  7  9  1  0
  9 10  1  0
 10 11  1  0
 11 12  1  0
 11 13  1  0
 11 14  1  0
  9 15  2  0
 15 16  1  0
 15 17  1  0
 17 18  1  0
 17 19  2  0
 19 20  1  0
 20 21  2  0
 20 22  2  0
 20 23  1  0
 23 24  2  0
 24 25  1  0
 25 26  1  0
 26 27  1  0
 27 28  1  0
 28 29  1  0
 28 30  1  0
 28 31  1  0
 27 32  2  0
 32 33  1  0
  5 34  2  0
 34 35  1  0
 34 36  1  0
 36 37  1  0
 37 38  1  0
 37 39  1  0
 37 40  1  0
 36 41  2  0
 41 42  1  0
 41  2  1  0
 19  6  1  0
 32 24  1  0
M  CHG  1  26  -1
M  END
>  <UniqueID>  (10) 
10

>  <SMILES>  (10) 
COc1ccc(S(=O)(=O)/N=c2\o[n-]c(C)c2Cl)c(-c2ccc(F)c(C)c2)c1

>  <Energy>  (10) 
82.45238700425317

>  <Genealogy>  (10) 
COc1ccc(S(=O)(=O)N=c2o[n-]c(C)c2Cl)c(-c2ccc(F)c(C)c2)c1 (protonated)
COc1ccc(S(=O)(=O)/N=c2\o[n-]c(C)c2Cl)c(-c2ccc(F)c(C)c2)c1 (cis-trans isomerization)
COc1ccc(S(=O)(=O)/N=c2\o[n-]c(C)c2Cl)c(-c2ccc(F)c(C)c2)c1 (3D coordinates assigned)
COc1ccc(S(=O)(=O)/N=c2\o[n-]c(C)c2Cl)c(-c2ccc(F)c(C)c2)c1 (optimized conformer: 82.45238700425317 kcal/mol)

>  <smiles>  (10) 
COc1ccc(S(=O)(=O)N=c2o[nH]c(C)c2Cl)c(-c2ccc(F)c(C)c2)c1

>  <score_type>  (10) 
oracle

>  <origin>  (10) 
adg

>  <m_score__min__energy>  (10) 
-11.74

>  <m_primary>  (10) 
energy

$$$$
10:0
     RDKit          3D

 72 76  0  0  0  0  0  0  0  0999 V2000
    0.7140   17.4110  -29.5900 C   0  0  0  0  0  0  0  0  0  0  0  0
    1.2570   18.3090  -30.6990 C   0  0  0  0  0  0  0  0  0  0  0  0
    1.5440   17.5090  -31.9110 N   0  0  0  0  0  0  0  0  0  0  0  0
    0.9930   18.1270  -33.1390 C   0  0  0  0  0  0  0  0  0  0  0  0
   -0.5460   18.0490  -33.2020 C   0  0  0  0  0  0  0  0  0  0  0  0
   -1.0970   16.7290  -32.6030 C   0  0  0  0  0  0  0  0  0  0  0  0
   -2.3620   16.2610  -33.2360 N   0  0  0  0  0  0  0  0  0  0  0  0
   -2.9260   14.9790  -32.7360 C   0  0  0  0  0  0  0  0  0  0  0  0
   -4.4600   14.9590  -32.6260 C   0  0  0  0  0  0  0  0  0  0  0  0
   -5.1030   16.2790  -33.0040 C   0  0  0  0  0  0  0  0  0  0  0  0
   -6.0650   16.8100  -32.1230 C   0  0  0  0  0  0  0  0  0  0  0  0
   -6.7320   18.0150  -32.4100 C   0  0  0  0  0  0  0  0  0  0  0  0
   -7.6860   18.5690  -31.5390 O   0  0  0  0  0  0  0  0  0  0  0  0
   -9.0620   18.1960  -31.4970 C   0  0  0  0  0  0  0  0  0  0  0  0
   -6.4500   18.6980  -33.5960 C   0  0  0  0  0  0  0  0  0  0  0  0
   -7.1300   19.9020  -33.8470 O   0  0  0  0  0  0  0  0  0  0  0  0
   -7.5650   20.8330  -32.8900 C   0  0  0  0  0  0  0  0  0  0  0  0
   -8.8820   20.9330  -32.5560 N   0  0  0  0  0  0  0  0  0  0  0  0
   -9.3140   21.8220  -31.6250 C   0  0  0  0  0  0  0  0  0  0  0  0
   -8.4310   22.6450  -31.0080 N   0  0  0  0  0  0  0  0  0  0  0  0
   -7.1080   22.6110  -31.3190 C   0  0  0  0  0  0  0  0  0  0  0  0
   -6.2190   23.4830  -30.6840 C   0  0  0  0  0  0  0  0  0  0  0  0
   -4.8510   23.4790  -31.0280 C   0  0  0  0  0  0  0  0  0  0  0  0
   -3.9300   24.3550  -30.4300 O   0  0  0  0  0  0  0  0  0  0  0  0
   -2.8700   23.9550  -29.5670 C   0  0  0  0  0  0  0  0  0  0  0  0
   -4.3800   22.5860  -32.0060 C   0  0  0  0  0  0  0  0  0  0  0  0
   -3.0160   22.6230  -32.3400 O   0  0  0  0  0  0  0  0  0  0  0  0
   -2.2220   21.4800  -32.6390 C   0  0  0  0  0  0  0  0  0  0  0  0
   -5.2750   21.6910  -32.6260 C   0  0  0  0  0  0  0  0  0  0  0  0
   -6.6380   21.7030  -32.2880 C   0  0  0  0  0  0  0  0  0  0  0  0
   -5.5430   18.1420  -34.5120 C   0  0  0  0  0  0  0  0  0  0  0  0
   -4.8580   16.9430  -34.2370 C   0  0  0  0  0  0  0  0  0  0  0  0
   -3.8000   16.5220  -35.2420 C   0  0  0  0  0  0  0  0  0  0  0  0
   -2.3700   16.4320  -34.7040 C   0  0  0  0  0  0  0  0  0  0  0  0
   -0.0250   15.6240  -32.5920 C   0  0  0  0  0  0  0  0  0  0  0  0
    1.1990   16.0690  -31.7610 C   0  0  0  0  0  0  0  0  0  0  0  0
    0.9734   17.8400  -28.6109 H   0  0  0  0  0  0  0  0  0  0  0  0
   -0.3799   17.3378  -29.6801 H   0  0  0  0  0  0  0  0  0  0  0  0
    1.1573   16.4083  -29.6801 H   0  0  0  0  0  0  0  0  0  0  0  0
    0.5101   19.0795  -30.9408 H   0  0  0  0  0  0  0  0  0  0  0  0
    2.1876   18.7829  -30.3534 H   0  0  0  0  0  0  0  0  0  0  0  0
    1.2937   19.1847  -33.1667 H   0  0  0  0  0  0  0  0  0  0  0  0
    1.3907   17.5699  -34.0001 H   0  0  0  0  0  0  0  0  0  0  0  0
   -0.9658   18.8950  -32.6380 H   0  0  0  0  0  0  0  0  0  0  0  0
   -0.8401   18.0846  -34.2614 H   0  0  0  0  0  0  0  0  0  0  0  0
   -1.3596   16.9632  -31.5608 H   0  0  0  0  0  0  0  0  0  0  0  0
   -2.6201   14.1771  -33.4240 H   0  0  0  0  0  0  0  0  0  0  0  0
   -2.5366   14.8415  -31.7165 H   0  0  0  0  0  0  0  0  0  0  0  0
   -4.8483   14.1767  -33.2948 H   0  0  0  0  0  0  0  0  0  0  0  0
   -4.7097   14.7634  -31.5727 H   0  0  0  0  0  0  0  0  0  0  0  0
   -6.2994   16.2722  -31.1925 H   0  0  0  0  0  0  0  0  0  0  0  0
   -9.3863   18.1081  -30.4496 H   0  0  0  0  0  0  0  0  0  0  0  0
   -9.6655   18.9630  -32.0045 H   0  0  0  0  0  0  0  0  0  0  0  0
   -9.1955   17.2293  -32.0045 H   0  0  0  0  0  0  0  0  0  0  0  0
  -10.3829   21.8745  -31.3708 H   0  0  0  0  0  0  0  0  0  0  0  0
   -6.5878   24.1753  -29.9128 H   0  0  0  0  0  0  0  0  0  0  0  0
   -3.1851   24.0739  -28.5198 H   0  0  0  0  0  0  0  0  0  0  0  0
   -2.6202   22.9008  -29.7573 H   0  0  0  0  0  0  0  0  0  0  0  0
   -1.9860   24.5814  -29.7573 H   0  0  0  0  0  0  0  0  0  0  0  0
   -1.8932   21.0067  -31.7021 H   0  0  0  0  0  0  0  0  0  0  0  0
   -2.8173   20.7626  -33.2230 H   0  0  0  0  0  0  0  0  0  0  0  0
   -1.3420   21.7874  -33.2230 H   0  0  0  0  0  0  0  0  0  0  0  0
   -4.9040   20.9795  -33.3784 H   0  0  0  0  0  0  0  0  0  0  0  0
   -5.3631   18.6556  -35.4679 H   0  0  0  0  0  0  0  0  0  0  0  0
   -4.0779   15.5308  -35.6297 H   0  0  0  0  0  0  0  0  0  0  0  0
   -3.7827   17.3123  -36.0070 H   0  0  0  0  0  0  0  0  0  0  0  0
   -1.8652   15.5720  -35.1683 H   0  0  0  0  0  0  0  0  0  0  0  0
   -1.8457   17.3675  -34.9490 H   0  0  0  0  0  0  0  0  0  0  0  0
   -0.4504   14.7108  -32.1502 H   0  0  0  0  0  0  0  0  0  0  0  0
    0.2973   15.4293  -33.6256 H   0  0  0  0  0  0  0  0  0  0  0  0
    0.9856   15.8736  -30.6997 H   0  0  0  0  0  0  0  0  0  0  0  0
    2.0608   15.4958  -32.1335 H   0  0  0  0  0  0  0  0  0  0  0  0
  1  2  1  0
  2  3  1  0
  3  4  1  0
  4  5  1  0
  5  6  1  0
  6  7  1  0
  7  8  1  0
  8  9  1  0
  9 10  1  0
 10 11  2  0
 11 12  1  0
 12 13  1  0
 13 14  1  0
 12 15  2  0
 15 16  1  0
 16 17  1  0
 17 18  2  0
 18 19  1  0
 19 20  2  0
 20 21  1  0
 21 22  2  0
 22 23  1  0
 23 24  1  0
 24 25  1  0
 23 26  2  0
 26 27  1  0
 27 28  1  0
 26 29  1  0
 29 30  2  0
 15 31  1  0
 31 32  2  0
 32 33  1  0
 33 34  1  0
  6 35  1  0
 35 36  1  0
 36  3  1  0
 34  7  1  0
 32 10  1  0
 30 17  1  0
 30 21  1  0
  1 37  1  0
  1 38  1  0
  1 39  1  0
  2 40  1  0
  2 41  1  0
  4 42  1  0
  4 43  1  0
  5 44  1  0
  5 45  1  0
  6 46  1  0
  8 47  1  0
  8 48  1  0
  9 49  1  0
  9 50  1  0
 11 51  1  0
 14 52  1  0
 14 53  1  0
 14 54  1  0
 19 55  1  0
 22 56  1  0
 25 57  1  0
 25 58  1  0
 25 59  1  0
 28 60  1  0
 28 61  1  0
 28 62  1  0
 29 63  1  0
 31 64  1  0
 33 65  1  0
 33 66  1  0
 34 67  1  0
 34 68  1  0
 35 69  1  0
 35 70  1  0
 36 71  1  0
 36 72  1  0
M  END
>  <UniqueID>  (11) 
11

>  <SMILES>  (11) 
CCN1CCC(N2CCc3cc(OC)c(Oc4ncnc5cc(OC)c(OC)cc45)cc3CC2)CC1

>  <Energy>  (11) 
112.03485752728231

>  <Genealogy>  (11) 
CCN1CCC(N2CCc3cc(OC)c(Oc4ncnc5cc(OC)c(OC)cc45)cc3CC2)CC1 (3D coordinates assigned)
CCN1CCC(N2CCc3cc(OC)c(Oc4ncnc5cc(OC)c(OC)cc45)cc3CC2)CC1 (nonaromatic ring conformer: 112.03485752728231 kcal/mol)

>  <smiles>  (11) 
CCN1CCC(N2CCc3cc(OC)c(Oc4ncnc5cc(OC)c(OC)cc45)cc3CC2)CC1

>  <score_type>  (11) 
oracle

>  <origin>  (11) 
adg

>  <m_score__min__energy>  (11) 
-5.3499999999999996

>  <m_primary>  (11) 
energy

$$$$
11:0
     RDKit          3D

 35 36  0  0  0  0  0  0  0  0999 V2000
   -7.6040   18.2320  -31.9540 C   0  0  0  0  0  0  0  0  0  0  0  0
   -8.6580   19.2910  -31.6310 C   0  0  0  0  0  0  0  0  0  0  0  0
   -8.6260   20.4890  -32.6000 C   0  0  0  0  0  0  0  0  0  0  0  0
   -8.8310   21.8480  -31.9120 C   0  0  0  0  0  0  0  0  0  0  0  0
   -7.5380   22.4750  -31.4890 C   0  0  0  0  0  0  0  0  0  0  0  0
   -7.5440   23.6020  -30.7340 N   0  0  0  0  0  0  0  0  0  0  0  0
   -6.3880   24.1840  -30.3240 C   0  0  0  0  0  0  0  0  0  0  0  0
   -6.4990   25.6490  -29.3560 Cl  0  0  0  0  0  0  0  0  0  0  0  0
   -5.1470   23.6170  -30.6790 C   0  0  0  0  0  0  0  0  0  0  0  0
   -3.8570   24.2960  -30.2670 C   0  0  0  0  0  0  0  0  0  0  0  0
   -3.8690   25.6430  -30.6530 O   0  0  0  0  0  0  0  0  0  0  0  0
   -5.1670   22.4290  -31.4490 C   0  0  0  0  0  0  0  0  0  0  0  0
   -3.9400   21.7250  -31.8620 C   0  0  0  0  0  0  0  0  0  0  0  0
   -3.0230   21.2900  -30.8950 C   0  0  0  0  0  0  0  0  0  0  0  0
   -1.8520   20.6460  -31.3000 C   0  0  0  0  0  0  0  0  0  0  0  0
   -1.5980   20.4570  -32.6220 N   0  0  0  0  0  0  0  0  0  0  0  0
   -2.4620   20.8850  -33.5810 C   0  0  0  0  0  0  0  0  0  0  0  0
   -3.6450   21.5340  -33.2190 C   0  0  0  0  0  0  0  0  0  0  0  0
   -6.3580   21.9050  -31.8400 N   0  0  0  0  0  0  0  0  0  0  0  0
   -7.1966   17.8227  -31.0178 H   0  0  0  0  0  0  0  0  0  0  0  0
   -8.0651   17.4221  -32.5383 H   0  0  0  0  0  0  0  0  0  0  0  0
   -6.7919   18.6892  -32.5383 H   0  0  0  0  0  0  0  0  0  0  0  0
   -9.6523   18.8235  -31.6846 H   0  0  0  0  0  0  0  0  0  0  0  0
   -8.4387   19.6766  -30.6244 H   0  0  0  0  0  0  0  0  0  0  0  0
   -7.6493   20.5001  -33.1059 H   0  0  0  0  0  0  0  0  0  0  0  0
   -9.4620   20.3558  -33.3024 H   0  0  0  0  0  0  0  0  0  0  0  0
   -9.3394   22.5259  -32.6134 H   0  0  0  0  0  0  0  0  0  0  0  0
   -9.4331   21.6783  -31.0072 H   0  0  0  0  0  0  0  0  0  0  0  0
   -3.7473   24.2331  -29.1743 H   0  0  0  0  0  0  0  0  0  0  0  0
   -3.0142   23.7907  -30.7613 H   0  0  0  0  0  0  0  0  0  0  0  0
   -4.1810   25.6680  -31.5940 H   0  0  0  0  0  0  0  0  0  0  0  0
   -3.2242   21.4546  -29.8262 H   0  0  0  0  0  0  0  0  0  0  0  0
   -1.1331   20.2906  -30.5471 H   0  0  0  0  0  0  0  0  0  0  0  0
   -2.2291   20.7199  -34.6433 H   0  0  0  0  0  0  0  0  0  0  0  0
   -4.3397   21.8924  -33.9929 H   0  0  0  0  0  0  0  0  0  0  0  0
  1  2  1  0
  2  3  1  0
  3  4  1  0
  4  5  1  0
  5  6  2  0
  6  7  1  0
  7  8  1  0
  7  9  2  0
  9 10  1  0
 10 11  1  0
  9 12  1  0
 12 13  1  0
 13 14  2  0
 14 15  1  0
 15 16  2  0
 16 17  1  0
 17 18  2  0
 12 19  2  0
 19  5  1  0
 18 13  1  0
  1 20  1  0
  1 21  1  0
  1 22  1  0
  2 23  1  0
  2 24  1  0
  3 25  1  0
  3 26  1  0
  4 27  1  0
  4 28  1  0
 10 29  1  0
 10 30  1  0
 11 31  1  0
 14 32  1  0
 15 33  1  0
 17 34  1  0
 18 35  1  0
M  END
>  <UniqueID>  (12) 
12

>  <SMILES>  (12) 
CCCCc1nc(Cl)c(CO)c(-c2ccncc2)n1

>  <Energy>  (12) 
39.91064210478537

>  <Genealogy>  (12) 
CCCCc1nc(Cl)c(CO)c(-c2ccncc2)n1 (3D coordinates assigned)
CCCCc1nc(Cl)c(CO)c(-c2ccncc2)n1 (optimized conformer: 39.91064210478537 kcal/mol)

>  <smiles>  (12) 
CCCCc1nc(Cl)c(CO)c(-c2ccncc2)n1

>  <score_type>  (12) 
oracle

>  <origin>  (12) 
adg

>  <m_score__min__energy>  (12) 
-7.8700000000000001

>  <m_primary>  (12) 
energy

$$$$
12:0
     RDKit          3D

 49 52  0  0  0  0  0  0  0  0999 V2000
   -9.8630   21.7790  -31.1420 C   0  0  0  0  0  0  0  0  0  0  0  0
   -8.5290   21.2960  -31.6240 C   0  0  0  0  0  0  0  0  0  0  0  0
   -7.3530   21.6960  -30.9700 C   0  0  0  0  0  0  0  0  0  0  0  0
   -6.1110   21.2180  -31.4000 C   0  0  0  0  0  0  0  0  0  0  0  0
   -6.0310   20.3360  -32.4860 C   0  0  0  0  0  0  0  0  0  0  0  0
   -4.7520   19.8380  -32.9240 N   0  0  0  0  0  0  0  0  0  0  0  0
   -4.5340   18.4880  -33.0800 C   0  0  0  0  0  0  0  0  0  0  0  0
   -5.5860   17.4490  -32.7460 C   0  0  0  0  0  0  0  0  0  0  0  0
   -5.1820   16.0910  -33.1800 N   0  0  0  0  0  0  0  0  0  0  0  0
   -6.2710   15.4100  -33.9140 C   0  0  0  0  0  0  0  0  0  0  0  0
   -5.8680   13.9670  -34.2950 C   0  0  0  0  0  0  0  0  0  0  0  0
   -4.6010   13.6090  -33.7760 O   0  0  0  0  0  0  0  0  0  0  0  0
   -4.5940   13.7970  -32.3760 C   0  0  0  0  0  0  0  0  0  0  0  0
   -4.7780   15.2840  -32.0070 C   0  0  0  0  0  0  0  0  0  0  0  0
   -3.3200   18.0430  -33.5010 N   0  0  0  0  0  0  0  0  0  0  0  0
   -2.3050   18.8940  -33.7800 C   0  0  0  0  0  0  0  0  0  0  0  0
   -1.0740   18.3930  -34.2100 C   0  0  0  0  0  0  0  0  0  0  0  0
   -0.0220   19.2660  -34.4960 C   0  0  0  0  0  0  0  0  0  0  0  0
   -0.1860   20.6550  -34.3540 C   0  0  0  0  0  0  0  0  0  0  0  0
    0.9030   21.5490  -34.6500 N   0  0  0  0  0  0  0  0  0  0  0  0
    2.0670   21.2770  -34.2870 O   0  0  0  0  0  0  0  0  0  0  0  0
    0.6800   22.7180  -35.3390 O   0  0  0  0  0  0  0  0  0  0  0  0
   -1.4290   21.1550  -33.9180 C   0  0  0  0  0  0  0  0  0  0  0  0
   -2.4910   20.2780  -33.6300 C   0  0  0  0  0  0  0  0  0  0  0  0
   -3.7480   20.7330  -33.1930 C   0  0  0  0  0  0  0  0  0  0  0  0
   -3.9500   21.9730  -33.0540 O   0  0  0  0  0  0  0  0  0  0  0  0
   -7.2080   19.9060  -33.1160 C   0  0  0  0  0  0  0  0  0  0  0  0
   -8.4500   20.3830  -32.6880 C   0  0  0  0  0  0  0  0  0  0  0  0
   -9.8758   21.7836  -30.0421 H   0  0  0  0  0  0  0  0  0  0  0  0
  -10.0405   22.7985  -31.5150 H   0  0  0  0  0  0  0  0  0  0  0  0
  -10.6520   21.1095  -31.5150 H   0  0  0  0  0  0  0  0  0  0  0  0
   -7.4086   22.3877  -30.1165 H   0  0  0  0  0  0  0  0  0  0  0  0
   -5.1932   21.5357  -30.8836 H   0  0  0  0  0  0  0  0  0  0  0  0
   -5.7448   17.4415  -31.6575 H   0  0  0  0  0  0  0  0  0  0  0  0
   -6.5094   17.7161  -33.2808 H   0  0  0  0  0  0  0  0  0  0  0  0
   -4.3540   16.1710  -33.8170 H   0  0  0  0  0  0  0  0  0  0  0  0
   -7.1672   15.3764  -33.2771 H   0  0  0  0  0  0  0  0  0  0  0  0
   -6.4740   15.9715  -34.8379 H   0  0  0  0  0  0  0  0  0  0  0  0
   -6.6224   13.2722  -33.8974 H   0  0  0  0  0  0  0  0  0  0  0  0
   -5.8103   13.9120  -35.3921 H   0  0  0  0  0  0  0  0  0  0  0  0
   -5.4145   13.2139  -31.9324 H   0  0  0  0  0  0  0  0  0  0  0  0
   -3.6217   13.4612  -31.9863 H   0  0  0  0  0  0  0  0  0  0  0  0
   -5.5550   15.3660  -31.2327 H   0  0  0  0  0  0  0  0  0  0  0  0
   -3.8151   15.6689  -31.6400 H   0  0  0  0  0  0  0  0  0  0  0  0
   -0.9328   17.3080  -34.3237 H   0  0  0  0  0  0  0  0  0  0  0  0
    0.9436   18.8631  -34.8354 H   0  0  0  0  0  0  0  0  0  0  0  0
   -1.5704   22.2397  -33.8018 H   0  0  0  0  0  0  0  0  0  0  0  0
   -7.1534   19.1908  -33.9499 H   0  0  0  0  0  0  0  0  0  0  0  0
   -9.3693   20.0419  -33.1866 H   0  0  0  0  0  0  0  0  0  0  0  0
  1  2  1  0
  2  3  2  0
  3  4  1  0
  4  5  2  0
  5  6  1  0
  6  7  1  0
  7  8  1  0
  8  9  1  0
  9 10  1  0
 10 11  1  0
 11 12  1  0
 12 13  1  0
 13 14  1  0
  7 15  2  0
 15 16  1  0
 16 17  2  0
 17 18  1  0
 18 19  2  0
 19 20  1  0
 20 21  2  0
 20 22  1  0
 19 23  1  0
 23 24  2  0
 24 25  1  0
 25 26  2  0
  5 27  1  0
 27 28  2  0
 28  2  1  0
 25  6  1  0
 14  9  1  0
 24 16  1  0
  1 29  1  0
  1 30  1  0
  1 31  1  0
  3 32  1  0
  4 33  1  0
  8 34  1  0
  8 35  1  0
  9 36  1  0
 10 37  1  0
 10 38  1  0
 11 39  1  0
 11 40  1  0
 13 41  1  0
 13 42  1  0
 14 43  1  0
 14 44  1  0
 17 45  1  0
 18 46  1  0
 23 47  1  0
 27 48  1  0
 28 49  1  0
M  CHG  3   9   1  20   1  22  -1
M  END
>  <UniqueID>  (13) 
13

>  <SMILES>  (13) 
Cc1ccc(-n2c(C[NH+]3CCOCC3)nc3ccc([N+](=O)[O-])cc3c2=O)cc1

>  <Energy>  (13) 
77.00899851379944

>  <Genealogy>  (13) 
Cc1ccc(-n2c(C[NH+]3CCOCC3)nc3ccc([N+](=O)[O-])cc3c2=O)cc1 (protonated)
Cc1ccc(-n2c(C[NH+]3CCOCC3)nc3ccc([N+](=O)[O-])cc3c2=O)cc1 (3D coordinates assigned)
Cc1ccc(-n2c(C[NH+]3CCOCC3)nc3ccc([N+](=O)[O-])cc3c2=O)cc1 (nonaromatic ring conformer: 77.00899851379944 kcal/mol)

>  <smiles>  (13) 
Cc1ccc(-n2c(CN3CCOCC3)nc3ccc([N+](=O)[O-])cc3c2=O)cc1

>  <score_type>  (13) 
oracle

>  <origin>  (13) 
adg

>  <m_score__min__energy>  (13) 
-7.2800000000000002

>  <m_primary>  (13) 
energy

$$$$
13:0
     RDKit          3D

 56 59  0  0  0  0  0  0  0  0999 V2000
   -5.7280   25.2630  -30.1130 C   0  0  0  0  0  0  0  0  0  0  0  0
   -4.5440   25.0250  -30.8640 O   0  0  0  0  0  0  0  0  0  0  0  0
   -3.7240   23.8890  -30.7330 C   0  0  0  0  0  0  0  0  0  0  0  0
   -3.9990   22.6930  -31.4170 C   0  0  0  0  0  0  0  0  0  0  0  0
   -3.1590   21.5620  -31.2990 C   0  0  0  0  0  0  0  0  0  0  0  0
   -3.3960   20.3510  -32.0940 N   0  0  0  0  0  0  0  0  0  0  0  0
   -2.7810   20.2290  -33.4370 C   0  0  0  0  0  0  0  0  0  0  0  0
   -3.2140   18.9960  -34.2550 C   0  0  0  0  0  0  0  0  0  0  0  0
   -4.5620   18.5180  -33.9070 N   0  0  0  0  0  0  0  0  0  0  0  0
   -5.6100   19.4980  -34.3000 C   0  0  0  0  0  0  0  0  0  0  0  0
   -6.7510   19.4950  -33.3690 N   0  0  0  0  0  0  0  0  0  0  0  0
   -7.5820   18.3800  -33.0130 C   0  0  0  0  0  0  0  0  0  0  0  0
   -7.3980   17.1960  -33.4050 O   0  0  0  0  0  0  0  0  0  0  0  0
   -8.6510   18.8190  -32.1210 C   0  0  0  0  0  0  0  0  0  0  0  0
   -9.5220   18.1010  -31.5560 O   0  0  0  0  0  0  0  0  0  0  0  0
   -8.4610   20.2550  -31.9590 C   0  0  0  0  0  0  0  0  0  0  0  0
   -9.1750   21.1760  -31.1920 C   0  0  0  0  0  0  0  0  0  0  0  0
   -8.7320   22.5150  -31.1830 C   0  0  0  0  0  0  0  0  0  0  0  0
   -7.6110   22.9010  -31.9410 C   0  0  0  0  0  0  0  0  0  0  0  0
   -6.9030   21.9580  -32.7090 C   0  0  0  0  0  0  0  0  0  0  0  0
   -7.3510   20.6250  -32.7060 C   0  0  0  0  0  0  0  0  0  0  0  0
   -4.5600   18.1340  -32.4860 C   0  0  0  0  0  0  0  0  0  0  0  0
   -4.3000   19.3180  -31.5530 C   0  0  0  0  0  0  0  0  0  0  0  0
   -2.0690   21.6520  -30.4060 C   0  0  0  0  0  0  0  0  0  0  0  0
   -1.7800   22.8420  -29.7090 C   0  0  0  0  0  0  0  0  0  0  0  0
   -0.7000   22.9130  -28.8150 O   0  0  0  0  0  0  0  0  0  0  0  0
   -0.3220   21.8880  -27.9000 C   0  0  0  0  0  0  0  0  0  0  0  0
   -2.5970   23.9790  -29.9060 C   0  0  0  0  0  0  0  0  0  0  0  0
   -2.3430   25.2280  -29.3050 O   0  0  0  0  0  0  0  0  0  0  0  0
   -1.7000   25.4380  -28.0510 C   0  0  0  0  0  0  0  0  0  0  0  0
   -5.4963   25.2164  -29.0387 H   0  0  0  0  0  0  0  0  0  0  0  0
   -6.1247   26.2589  -30.3597 H   0  0  0  0  0  0  0  0  0  0  0  0
   -6.4787   24.4978  -30.3597 H   0  0  0  0  0  0  0  0  0  0  0  0
   -4.8896   22.6352  -32.0600 H   0  0  0  0  0  0  0  0  0  0  0  0
   -3.0446   21.1280  -34.0135 H   0  0  0  0  0  0  0  0  0  0  0  0
   -1.7006   20.1137  -33.2654 H   0  0  0  0  0  0  0  0  0  0  0  0
   -3.2012   19.2616  -35.3224 H   0  0  0  0  0  0  0  0  0  0  0  0
   -2.5080   18.1845  -34.0247 H   0  0  0  0  0  0  0  0  0  0  0  0
   -4.7320   17.6460  -34.4610 H   0  0  0  0  0  0  0  0  0  0  0  0
   -5.1666   20.5046  -34.3138 H   0  0  0  0  0  0  0  0  0  0  0  0
   -5.9843   19.2120  -35.2941 H   0  0  0  0  0  0  0  0  0  0  0  0
  -10.0570   20.8672  -30.6117 H   0  0  0  0  0  0  0  0  0  0  0  0
   -9.2666   23.2630  -30.5791 H   0  0  0  0  0  0  0  0  0  0  0  0
   -7.2845   23.9514  -31.9331 H   0  0  0  0  0  0  0  0  0  0  0  0
   -6.0220   22.2559  -33.2964 H   0  0  0  0  0  0  0  0  0  0  0  0
   -5.5396   17.6994  -32.2379 H   0  0  0  0  0  0  0  0  0  0  0  0
   -3.7441   17.4109  -32.3392 H   0  0  0  0  0  0  0  0  0  0  0  0
   -5.2659   19.7937  -31.3279 H   0  0  0  0  0  0  0  0  0  0  0  0
   -3.7991   18.9055  -30.6648 H   0  0  0  0  0  0  0  0  0  0  0  0
   -1.4292   20.7708  -30.2505 H   0  0  0  0  0  0  0  0  0  0  0  0
   -0.4551   22.2490  -26.8695 H   0  0  0  0  0  0  0  0  0  0  0  0
   -0.9522   21.0011  -28.0621 H   0  0  0  0  0  0  0  0  0  0  0  0
    0.7331   21.6226  -28.0621 H   0  0  0  0  0  0  0  0  0  0  0  0
   -2.4022   25.2087  -27.2359 H   0  0  0  0  0  0  0  0  0  0  0  0
   -0.8219   24.7800  -27.9745 H   0  0  0  0  0  0  0  0  0  0  0  0
   -1.3795   26.4875  -27.9745 H   0  0  0  0  0  0  0  0  0  0  0  0
  1  2  1  0
  2  3  1  0
  3  4  2  0
  4  5  1  0
  5  6  1  0
  6  7  1  0
  7  8  1  0
  8  9  1  0
  9 10  1  0
 10 11  1  0
 11 12  1  0
 12 13  2  0
 12 14  1  0
 14 15  2  0
 14 16  1  0
 16 17  2  0
 17 18  1  0
 18 19  2  0
 19 20  1  0
 20 21  2  0
  9 22  1  0
 22 23  1  0
  5 24  2  0
 24 25  1  0
 25 26  1  0
 26 27  1  0
 25 28  2  0
 28 29  1  0
 29 30  1  0
 28  3  1  0
 23  6  1  0
 21 11  1  0
 21 16  1  0
  1 31  1  0
  1 32  1  0
  1 33  1  0
  4 34  1  0
  7 35  1  0
  7 36  1  0
  8 37  1  0
  8 38  1  0
  9 39  1  0
 10 40  1  0
 10 41  1  0
 17 42  1  0
 18 43  1  0
 19 44  1  0
 20 45  1  0
 22 46  1  0
 22 47  1  0
 23 48  1  0
 23 49  1  0
 24 50  1  0
 27 51  1  0
 27 52  1  0
 27 53  1  0
 30 54  1  0
 30 55  1  0
 30 56  1  0
M  CHG  1   9   1
M  END
>  <UniqueID>  (14) 
14

>  <SMILES>  (14) 
COc1cc(N2CC[NH+](CN3C(=O)C(=O)c4ccccc43)CC2)cc(OC)c1OC

>  <Energy>  (14) 
107.1069962179526

>  <Genealogy>  (14) 
COc1cc(N2CC[NH+](CN3C(=O)C(=O)c4ccccc43)CC2)cc(OC)c1OC (protonated)
COc1cc(N2CC[NH+](CN3C(=O)C(=O)c4ccccc43)CC2)cc(OC)c1OC (3D coordinates assigned)
COc1cc(N2CC[NH+](CN3C(=O)C(=O)c4ccccc43)CC2)cc(OC)c1OC (nonaromatic ring conformer: 107.1069962179526 kcal/mol)

>  <smiles>  (14) 
COc1cc(N2CCN(CN3C(=O)C(=O)c4ccccc43)CC2)cc(OC)c1OC

>  <score_type>  (14) 
oracle

>  <origin>  (14) 
adg

>  <m_score__min__energy>  (14) 
-8.0700000000000003

>  <m_primary>  (14) 
energy

$$$$
14:0
     RDKit          3D

 36 39  0  0  0  0  0  0  0  0999 V2000
   -4.0400   20.1370  -33.4460 C   0  0  0  0  0  0  0  0  0  0  0  0
   -5.3320   20.7340  -33.4190 O   0  0  0  0  0  0  0  0  0  0  0  0
   -6.4670   20.1400  -32.8510 C   0  0  0  0  0  0  0  0  0  0  0  0
   -6.7030   18.7450  -32.9040 C   0  0  0  0  0  0  0  0  0  0  0  0
   -7.8530   18.1860  -32.3080 C   0  0  0  0  0  0  0  0  0  0  0  0
   -8.7850   19.0060  -31.6520 C   0  0  0  0  0  0  0  0  0  0  0  0
   -8.5360   20.3750  -31.6120 C   0  0  0  0  0  0  0  0  0  0  0  0
   -9.3100   21.3160  -31.0460 N   0  0  0  0  0  0  0  0  0  0  0  0
   -8.6890   22.4940  -31.2660 C   0  0  0  0  0  0  0  0  0  0  0  0
   -7.5040   22.2990  -31.9690 C   0  0  0  0  0  0  0  0  0  0  0  0
   -6.5970   23.3860  -32.4660 C   0  0  0  0  0  0  0  0  0  0  0  0
   -5.8410   23.9980  -31.3240 C   0  0  0  0  0  0  0  0  0  0  0  0
   -6.2900   25.0020  -30.4660 C   0  0  0  0  0  0  0  0  0  0  0  0
   -5.3700   25.2510  -29.5060 N   0  0  0  0  0  0  0  0  0  0  0  0
   -4.3550   24.4070  -29.7500 C   0  0  0  0  0  0  0  0  0  0  0  0
   -3.2140   24.2990  -29.0240 N   0  0  0  0  0  0  0  0  0  0  0  0
   -2.2750   23.3790  -29.3980 C   0  0  0  0  0  0  0  0  0  0  0  0
   -2.4890   22.5510  -30.5230 C   0  0  0  0  0  0  0  0  0  0  0  0
   -3.6770   22.6730  -31.2650 C   0  0  0  0  0  0  0  0  0  0  0  0
   -4.6010   23.6250  -30.8420 C   0  0  0  0  0  0  0  0  0  0  0  0
   -7.4200   20.9300  -32.1920 C   0  0  0  0  0  0  0  0  0  0  0  0
   -3.6894   19.9750  -32.4160 H   0  0  0  0  0  0  0  0  0  0  0  0
   -4.0929   19.1720  -33.9714 H   0  0  0  0  0  0  0  0  0  0  0  0
   -3.3394   20.8027  -33.9714 H   0  0  0  0  0  0  0  0  0  0  0  0
   -5.9821   18.0901  -33.4153 H   0  0  0  0  0  0  0  0  0  0  0  0
   -8.0207   17.1000  -32.3576 H   0  0  0  0  0  0  0  0  0  0  0  0
   -9.6845   18.5796  -31.1839 H   0  0  0  0  0  0  0  0  0  0  0  0
  -10.2170   21.1730  -30.5480 H   0  0  0  0  0  0  0  0  0  0  0  0
   -9.0672   23.4726  -30.9354 H   0  0  0  0  0  0  0  0  0  0  0  0
   -5.8832   22.9612  -33.1872 H   0  0  0  0  0  0  0  0  0  0  0  0
   -7.2047   24.1647  -32.9502 H   0  0  0  0  0  0  0  0  0  0  0  0
   -7.2567   25.5188  -30.5572 H   0  0  0  0  0  0  0  0  0  0  0  0
   -5.4400   25.9500  -28.7330 H   0  0  0  0  0  0  0  0  0  0  0  0
   -1.3450   23.2823  -28.8185 H   0  0  0  0  0  0  0  0  0  0  0  0
   -1.7282   21.8131  -30.8174 H   0  0  0  0  0  0  0  0  0  0  0  0
   -3.8689   22.0414  -32.1449 H   0  0  0  0  0  0  0  0  0  0  0  0
  1  2  1  0
  2  3  1  0
  3  4  2  0
  4  5  1  0
  5  6  2  0
  6  7  1  0
  7  8  1  0
  8  9  1  0
  9 10  2  0
 10 11  1  0
 11 12  1  0
 12 13  2  0
 13 14  1  0
 14 15  1  0
 15 16  2  0
 16 17  1  0
 17 18  2  0
 18 19  1  0
 19 20  2  0
 10 21  1  0
 21  3  1  0
 21  7  2  0
 20 12  1  0
 20 15  1  0
  1 22  1  0
  1 23  1  0
  1 24  1  0
  4 25  1  0
  5 26  1  0
  6 27  1  0
  8 28  1  0
  9 29  1  0
 11 30  1  0
 11 31  1  0
 13 32  1  0
 14 33  1  0
 17 34  1  0
 18 35  1  0
 19 36  1  0
M  END
>  <UniqueID>  (15) 
15

>  <SMILES>  (15) 
COc1cccc2[nH]cc(Cc3c[nH]c4ncccc34)c12

>  <Energy>  (15) 
105.22679735924551

>  <Genealogy>  (15) 
COc1cccc2[nH]cc(Cc3c[nH]c4ncccc34)c12 (3D coordinates assigned)
COc1cccc2[nH]cc(Cc3c[nH]c4ncccc34)c12 (optimized conformer: 105.22679735924551 kcal/mol)

>  <smiles>  (15) 
COc1cccc2[nH]cc(Cc3c[nH]c4ncccc34)c12

>  <score_type>  (15) 
oracle

>  <origin>  (15) 
adg

>  <m_score__min__energy>  (15) 
-7.96

>  <m_primary>  (15) 
energy

$$$$
15:0
     RDKit          3D

 44 46  0  0  0  0  0  0  0  0999 V2000
   -8.8043   22.0334  -29.5589 H   0  0  0  0  0  0  0  0  0  0  0  0
   -8.1240   21.9860  -30.4220 C   0  0  0  0  0  0  0  0  0  0  0  0
   -8.4100   21.1200  -31.4080 C   0  0  0  0  0  0  0  0  0  0  0  0
   -9.4531   21.0495  -31.7501 H   0  0  0  0  0  0  0  0  0  0  0  0
   -7.3990   20.2530  -32.0620 C   0  0  0  0  0  0  0  0  0  0  0  0
   -7.2140   18.9020  -31.7090 C   0  0  0  0  0  0  0  0  0  0  0  0
   -7.8290   18.4561  -30.9134 H   0  0  0  0  0  0  0  0  0  0  0  0
   -6.2540   18.1240  -32.3630 C   0  0  0  0  0  0  0  0  0  0  0  0
   -6.1086   17.0754  -32.0641 H   0  0  0  0  0  0  0  0  0  0  0  0
   -5.4740   18.6650  -33.3960 C   0  0  0  0  0  0  0  0  0  0  0  0
   -4.4620   17.7980  -34.0500 C   0  0  0  0  0  0  0  0  0  0  0  0
   -4.8118   17.0461  -34.7726 H   0  0  0  0  0  0  0  0  0  0  0  0
   -3.1430   17.8800  -33.8090 C   0  0  0  0  0  0  0  0  0  0  0  0
   -2.5300   16.9790  -33.9585 H   0  0  0  0  0  0  0  0  0  0  0  0
   -2.4680   19.1200  -33.3520 C   0  0  0  0  0  0  0  0  0  0  0  0
   -2.7310   19.5860  -32.0540 C   0  0  0  0  0  0  0  0  0  0  0  0
   -3.4188   19.0268  -31.4027 H   0  0  0  0  0  0  0  0  0  0  0  0
   -2.1270   20.7530  -31.5830 C   0  0  0  0  0  0  0  0  0  0  0  0
   -2.3342   21.1043  -30.5614 H   0  0  0  0  0  0  0  0  0  0  0  0
   -1.2610   21.4750  -32.4050 C   0  0  0  0  0  0  0  0  0  0  0  0
   -0.7832   22.3899  -32.0247 H   0  0  0  0  0  0  0  0  0  0  0  0
   -0.9960   21.0440  -33.7090 C   0  0  0  0  0  0  0  0  0  0  0  0
   -0.1290   21.8140  -34.4990 O   0  0  0  0  0  0  0  0  0  0  0  0
    0.9220   21.2800  -35.2970 C   0  0  0  0  0  0  0  0  0  0  0  0
    1.7110   20.8791  -34.6437 H   0  0  0  0  0  0  0  0  0  0  0  0
    0.5267   20.4734  -35.9320 H   0  0  0  0  0  0  0  0  0  0  0  0
    1.3404   22.0748  -35.9320 H   0  0  0  0  0  0  0  0  0  0  0  0
   -1.6070   19.8660  -34.1840 C   0  0  0  0  0  0  0  0  0  0  0  0
   -1.4109   19.5257  -35.2115 H   0  0  0  0  0  0  0  0  0  0  0  0
   -5.6590   20.0160  -33.7490 C   0  0  0  0  0  0  0  0  0  0  0  0
   -5.0448   20.4617  -34.5453 H   0  0  0  0  0  0  0  0  0  0  0  0
   -6.6180   20.7940  -33.0940 C   0  0  0  0  0  0  0  0  0  0  0  0
   -6.7620   21.8432  -33.3915 H   0  0  0  0  0  0  0  0  0  0  0  0
   -6.9420   22.8820  -30.4320 C   0  0  0  0  0  0  0  0  0  0  0  0
   -5.6610   22.3030  -30.4410 C   0  0  0  0  0  0  0  0  0  0  0  0
   -5.5579   21.2079  -30.4322 H   0  0  0  0  0  0  0  0  0  0  0  0
   -4.5160   23.1070  -30.4610 C   0  0  0  0  0  0  0  0  0  0  0  0
   -3.5187   22.6429  -30.4586 H   0  0  0  0  0  0  0  0  0  0  0  0
   -4.6380   24.4980  -30.4840 C   0  0  0  0  0  0  0  0  0  0  0  0
   -3.5000   25.2950  -30.5030 O   0  0  0  0  0  0  0  0  0  0  0  0
   -5.9040   25.0870  -30.4920 C   0  0  0  0  0  0  0  0  0  0  0  0
   -5.9989   26.1827  -30.5149 H   0  0  0  0  0  0  0  0  0  0  0  0
   -7.0520   24.2880  -30.4710 C   0  0  0  0  0  0  0  0  0  0  0  0
   -8.0462   24.7586  -30.4850 H   0  0  0  0  0  0  0  0  0  0  0  0
  1  2  1  0
  2  3  2  0
  3  4  1  0
  3  5  1  0
  5  6  2  0
  6  7  1  0
  6  8  1  0
  8  9  1  0
  8 10  2  0
 10 11  1  0
 11 12  1  0
 11 13  2  0
 13 14  1  0
 13 15  1  0
 15 16  2  0
 16 17  1  0
 16 18  1  0
 18 19  1  0
 18 20  2  0
 20 21  1  0
 20 22  1  0
 22 23  1  0
 23 24  1  0
 24 25  1  0
 24 26  1  0
 24 27  1  0
 22 28  2  0
 28 29  1  0
 10 30  1  0
 30 31  1  0
 30 32  2  0
 32 33  1  0
  2 34  1  0
 34 35  2  0
 35 36  1  0
 35 37  1  0
 37 38  1  0
 37 39  2  0
 39 40  1  0
 39 41  1  0
 41 42  1  0
 41 43  2  0
 43 44  1  0
 32  5  1  0
 43 34  1  0
 28 15  1  0
M  CHG  1  40  -1
M  END
>  <UniqueID>  (16) 
16

>  <SMILES>  (16) 
COc1cccc(/C=C/c2ccc(/C=C/c3ccc([O-])cc3)cc2)c1

>  <Energy>  (16) 
56.46060105244881

>  <Genealogy>  (16) 
COc1cccc(C=Cc2ccc(C=Cc3ccc([O-])cc3)cc2)c1 (protonated)
COc1cccc(/C=C/c2ccc(/C=C/c3ccc([O-])cc3)cc2)c1 (cis-trans isomerization)
COc1cccc(/C=C/c2ccc(/C=C/c3ccc([O-])cc3)cc2)c1 (3D coordinates assigned)
COc1cccc(/C=C/c2ccc(/C=C/c3ccc([O-])cc3)cc2)c1 (optimized conformer: 56.46060105244881 kcal/mol)

>  <smiles>  (16) 
COc1cccc(C=Cc2ccc(C=Cc3ccc(O)cc3)cc2)c1

>  <score_type>  (16) 
oracle

>  <origin>  (16) 
adg

>  <m_score__min__energy>  (16) 
-12.06

>  <m_primary>  (16) 
energy

$$$$
16:0
     RDKit          3D

 59 63  0  0  0  0  0  0  0  0999 V2000
   -6.6260   17.7280  -31.5480 C   0  0  0  0  0  0  0  0  0  0  0  0
   -6.1250   19.0520  -31.4950 O   0  0  0  0  0  0  0  0  0  0  0  0
   -7.0430   20.0880  -31.6440 C   0  0  0  0  0  0  0  0  0  0  0  0
   -8.3020   19.8930  -32.1710 C   0  0  0  0  0  0  0  0  0  0  0  0
   -9.2160   20.9140  -32.3210 C   0  0  0  0  0  0  0  0  0  0  0  0
   -8.8700   22.1920  -31.9320 C   0  0  0  0  0  0  0  0  0  0  0  0
   -7.6100   22.3860  -31.4060 C   0  0  0  0  0  0  0  0  0  0  0  0
   -7.2830   23.6770  -31.0220 C   0  0  0  0  0  0  0  0  0  0  0  0
   -6.0140   23.8970  -30.4860 C   0  0  0  0  0  0  0  0  0  0  0  0
   -5.1000   22.8670  -30.3370 C   0  0  0  0  0  0  0  0  0  0  0  0
   -3.4960   23.2640  -29.6370 S   0  0  0  0  0  0  0  0  0  0  0  0
   -2.7630   21.7860  -28.9190 C   0  0  0  0  0  0  0  0  0  0  0  0
   -3.2820   21.0590  -27.8930 N   0  0  0  0  0  0  0  0  0  0  0  0
   -2.4450   20.0530  -27.6620 C   0  0  0  0  0  0  0  0  0  0  0  0
   -2.5300   19.0370  -26.7180 C   0  0  0  0  0  0  0  0  0  0  0  0
   -3.5090   18.9580  -25.9040 N   0  0  0  0  0  0  0  0  0  0  0  0
   -1.5200   18.1440  -26.7190 N   0  0  0  0  0  0  0  0  0  0  0  0
   -0.4810   18.2250  -27.5830 C   0  0  0  0  0  0  0  0  0  0  0  0
   -0.4320   19.2370  -28.4960 N   0  0  0  0  0  0  0  0  0  0  0  0
   -1.4200   20.1660  -28.5440 C   0  0  0  0  0  0  0  0  0  0  0  0
   -1.6130   21.2460  -29.3290 N   0  0  0  0  0  0  0  0  0  0  0  0
   -0.7500   21.7340  -30.4120 C   0  0  0  0  0  0  0  0  0  0  0  0
   -0.3320   20.6160  -31.3070 C   0  0  0  0  0  0  0  0  0  0  0  0
   -1.2450   20.4370  -32.4950 C   0  0  0  0  0  0  0  0  0  0  0  0
   -2.5460   21.1530  -32.1860 C   0  0  0  0  0  0  0  0  0  0  0  0
   -3.4080   21.1360  -33.4240 C   0  0  0  0  0  0  0  0  0  0  0  0
   -3.5980   19.7400  -33.7920 N   0  0  0  0  0  0  0  0  0  0  0  0
   -4.9370   19.2850  -34.0640 C   0  0  0  0  0  0  0  0  0  0  0  0
   -5.1740   18.0850  -34.3890 O   0  0  0  0  0  0  0  0  0  0  0  0
   -2.5080   18.8250  -33.8910 C   0  0  0  0  0  0  0  0  0  0  0  0
   -1.4690   18.9960  -32.8130 C   0  0  0  0  0  0  0  0  0  0  0  0
   -5.4320   21.5820  -30.7230 C   0  0  0  0  0  0  0  0  0  0  0  0
   -6.6910   21.3640  -31.2530 C   0  0  0  0  0  0  0  0  0  0  0  0
   -6.7694   17.3490  -30.5254 H   0  0  0  0  0  0  0  0  0  0  0  0
   -7.5888   17.7213  -32.0799 H   0  0  0  0  0  0  0  0  0  0  0  0
   -5.9088   17.0856  -32.0799 H   0  0  0  0  0  0  0  0  0  0  0  0
   -8.5896   18.8789  -32.4854 H   0  0  0  0  0  0  0  0  0  0  0  0
  -10.2103   20.7122  -32.7461 H   0  0  0  0  0  0  0  0  0  0  0  0
   -9.5762   23.0287  -32.0380 H   0  0  0  0  0  0  0  0  0  0  0  0
   -8.0015   24.5021  -31.1363 H   0  0  0  0  0  0  0  0  0  0  0  0
   -5.7323   24.9135  -30.1740 H   0  0  0  0  0  0  0  0  0  0  0  0
   -4.2590   19.6820  -25.9590 H   0  0  0  0  0  0  0  0  0  0  0  0
   -1.5700   17.3730  -26.0130 H   0  0  0  0  0  0  0  0  0  0  0  0
    0.3231   17.4752  -27.5487 H   0  0  0  0  0  0  0  0  0  0  0  0
   -1.3011   22.4807  -31.0025 H   0  0  0  0  0  0  0  0  0  0  0  0
    0.1506   22.1827  -29.9675 H   0  0  0  0  0  0  0  0  0  0  0  0
    0.6842   20.8225  -31.6742 H   0  0  0  0  0  0  0  0  0  0  0  0
   -0.3757   19.6889  -30.7166 H   0  0  0  0  0  0  0  0  0  0  0  0
   -0.7801   20.8697  -33.3931 H   0  0  0  0  0  0  0  0  0  0  0  0
   -3.0664   20.6388  -31.3645 H   0  0  0  0  0  0  0  0  0  0  0  0
   -2.3422   22.1906  -31.8831 H   0  0  0  0  0  0  0  0  0  0  0  0
   -4.3797   21.6069  -33.2141 H   0  0  0  0  0  0  0  0  0  0  0  0
   -2.9310   21.6959  -34.2419 H   0  0  0  0  0  0  0  0  0  0  0  0
   -5.7725   19.9964  -33.9876 H   0  0  0  0  0  0  0  0  0  0  0  0
   -2.9074   17.8020  -33.8282 H   0  0  0  0  0  0  0  0  0  0  0  0
   -2.0090   19.0246  -34.8507 H   0  0  0  0  0  0  0  0  0  0  0  0
   -1.8080   18.4776  -31.9040 H   0  0  0  0  0  0  0  0  0  0  0  0
   -0.5215   18.5705  -33.1753 H   0  0  0  0  0  0  0  0  0  0  0  0
   -4.7148   20.7554  -30.6118 H   0  0  0  0  0  0  0  0  0  0  0  0
  1  2  1  0
  2  3  1  0
  3  4  2  0
  4  5  1  0
  5  6  2  0
  6  7  1  0
  7  8  2  0
  8  9  1  0
  9 10  2  0
 10 11  1  0
 11 12  1  0
 12 13  2  0
 13 14  1  0
 14 15  1  0
 15 16  2  3
 15 17  1  0
 17 18  1  0
 18 19  2  0
 19 20  1  0
 20 21  1  0
 21 22  1  0
 22 23  1  0
 23 24  1  0
 24 25  1  0
 25 26  1  0
 26 27  1  0
 27 28  1  0
 28 29  2  0
 27 30  1  0
 30 31  1  0
 10 32  1  0
 32 33  2  0
 33  3  1  0
 33  7  1  0
 21 12  1  0
 31 24  1  0
 20 14  2  0
  1 34  1  0
  1 35  1  0
  1 36  1  0
  4 37  1  0
  5 38  1  0
  6 39  1  0
  8 40  1  0
  9 41  1  0
 16 42  1  0
 17 43  1  0
 18 44  1  0
 22 45  1  0
 22 46  1  0
 23 47  1  0
 23 48  1  0
 24 49  1  0
 25 50  1  0
 25 51  1  0
 26 52  1  0
 26 53  1  0
 28 54  1  0
 30 55  1  0
 30 56  1  0
 31 57  1  0
 31 58  1  0
 32 59  1  0
M  END
>  <smiles>  (17) 
COc1cccc2ccc(Sc3nc4c(=N)[nH]cnc4n3CCC3CCN(C=O)CC3)cc12

>  <score_type>  (17) 
oracle

>  <origin>  (17) 
adg

>  <m_score__min__energy>  (17) 
-9.4199999999999999

>  <m_primary>  (17) 
energy

$$$$
17:0
     RDKit          3D

 50 52  0  0  0  0  0  0  0  0999 V2000
   -4.0310   23.7420  -29.5160 C   0  0  0  0  0  0  0  0  0  0  0  0
   -4.4980   24.1740  -30.8430 N   0  0  0  0  0  0  0  0  0  0  0  0
   -4.4940   23.0440  -31.8060 C   0  0  0  0  0  0  0  0  0  0  0  0
   -4.1960   21.7420  -31.0530 C   0  0  0  0  0  0  0  0  0  0  0  0
   -3.0130   20.9560  -31.6440 C   0  0  0  0  0  0  0  0  0  0  0  0
   -3.1420   20.6480  -33.1460 C   0  0  0  0  0  0  0  0  0  0  0  0
   -4.5260   20.7650  -33.6110 N   0  0  0  0  0  0  0  0  0  0  0  0
   -5.5440   19.7840  -33.3360 C   0  0  0  0  0  0  0  0  0  0  0  0
   -6.7490   20.1780  -32.7270 C   0  0  0  0  0  0  0  0  0  0  0  0
   -7.7320   19.2400  -32.4130 C   0  0  0  0  0  0  0  0  0  0  0  0
   -7.5320   17.8900  -32.6980 C   0  0  0  0  0  0  0  0  0  0  0  0
   -6.3460   17.4700  -33.3140 C   0  0  0  0  0  0  0  0  0  0  0  0
   -6.1450   16.1190  -33.6190 C   0  0  0  0  0  0  0  0  0  0  0  0
   -4.9730   15.7170  -34.2540 C   0  0  0  0  0  0  0  0  0  0  0  0
   -4.0120   16.6700  -34.5870 C   0  0  0  0  0  0  0  0  0  0  0  0
   -4.2090   17.9820  -34.2870 N   0  0  0  0  0  0  0  0  0  0  0  0
   -5.3410   18.4140  -33.6450 C   0  0  0  0  0  0  0  0  0  0  0  0
   -5.8290   24.8100  -30.7340 C   0  0  0  0  0  0  0  0  0  0  0  0
   -6.9190   23.7930  -30.9480 C   0  0  0  0  0  0  0  0  0  0  0  0
   -7.2290   22.8720  -29.9340 C   0  0  0  0  0  0  0  0  0  0  0  0
   -8.2660   21.9510  -30.1110 C   0  0  0  0  0  0  0  0  0  0  0  0
   -9.0010   21.9450  -31.2990 C   0  0  0  0  0  0  0  0  0  0  0  0
   -8.7020   22.8590  -32.3120 C   0  0  0  0  0  0  0  0  0  0  0  0
   -7.6660   23.7820  -32.1390 C   0  0  0  0  0  0  0  0  0  0  0  0
   -4.6011   24.2694  -28.7370 H   0  0  0  0  0  0  0  0  0  0  0  0
   -4.1813   22.6575  -29.4095 H   0  0  0  0  0  0  0  0  0  0  0  0
   -2.9615   23.9762  -29.4095 H   0  0  0  0  0  0  0  0  0  0  0  0
   -5.4781   22.9711  -32.2920 H   0  0  0  0  0  0  0  0  0  0  0  0
   -3.7227   23.2133  -32.5717 H   0  0  0  0  0  0  0  0  0  0  0  0
   -3.9635   21.9889  -30.0066 H   0  0  0  0  0  0  0  0  0  0  0  0
   -5.0877   21.1036  -31.1392 H   0  0  0  0  0  0  0  0  0  0  0  0
   -2.0972   21.5459  -31.4911 H   0  0  0  0  0  0  0  0  0  0  0  0
   -2.9898   19.9862  -31.1254 H   0  0  0  0  0  0  0  0  0  0  0  0
   -2.5166   21.3563  -33.7092 H   0  0  0  0  0  0  0  0  0  0  0  0
   -2.8137   19.6111  -33.3106 H   0  0  0  0  0  0  0  0  0  0  0  0
   -4.7760   21.6190  -34.1570 H   0  0  0  0  0  0  0  0  0  0  0  0
   -6.9183   21.2399  -32.4954 H   0  0  0  0  0  0  0  0  0  0  0  0
   -8.6691   19.5666  -31.9385 H   0  0  0  0  0  0  0  0  0  0  0  0
   -8.3068   17.1534  -32.4387 H   0  0  0  0  0  0  0  0  0  0  0  0
   -6.9122   15.3755  -33.3573 H   0  0  0  0  0  0  0  0  0  0  0  0
   -4.8068   14.6558  -34.4910 H   0  0  0  0  0  0  0  0  0  0  0  0
   -3.0878   16.3589  -35.0960 H   0  0  0  0  0  0  0  0  0  0  0  0
   -3.4650   18.6500  -34.5870 H   0  0  0  0  0  0  0  0  0  0  0  0
   -5.9380   25.2521  -29.7327 H   0  0  0  0  0  0  0  0  0  0  0  0
   -5.9144   25.5904  -31.5046 H   0  0  0  0  0  0  0  0  0  0  0  0
   -6.6535   22.8753  -28.9966 H   0  0  0  0  0  0  0  0  0  0  0  0
   -8.5033   21.2306  -29.3143 H   0  0  0  0  0  0  0  0  0  0  0  0
   -9.8163   21.2195  -31.4368 H   0  0  0  0  0  0  0  0  0  0  0  0
   -9.2820   22.8527  -33.2466 H   0  0  0  0  0  0  0  0  0  0  0  0
   -7.4346   24.5021  -32.9377 H   0  0  0  0  0  0  0  0  0  0  0  0
  1  2  1  0
  2  3  1  0
  3  4  1  0
  4  5  1  0
  5  6  1  0
  6  7  1  0
  7  8  1  0
  8  9  2  0
  9 10  1  0
 10 11  2  0
 11 12  1  0
 12 13  2  0
 13 14  1  0
 14 15  2  0
 15 16  1  0
 16 17  2  0
  2 18  1  0
 18 19  1  0
 19 20  2  0
 20 21  1  0
 21 22  2  0
 22 23  1  0
 23 24  2  0
 17  8  1  0
 24 19  1  0
 17 12  1  0
  1 25  1  0
  1 26  1  0
  1 27  1  0
  3 28  1  0
  3 29  1  0
  4 30  1  0
  4 31  1  0
  5 32  1  0
  5 33  1  0
  6 34  1  0
  6 35  1  0
  7 36  1  0
  9 37  1  0
 10 38  1  0
 11 39  1  0
 13 40  1  0
 14 41  1  0
 15 42  1  0
 16 43  1  0
 18 44  1  0
 18 45  1  0
 20 46  1  0
 21 47  1  0
 22 48  1  0
 23 49  1  0
 24 50  1  0
M  CHG  1  16   1
M  END
>  <UniqueID>  (18) 
17

>  <SMILES>  (18) 
CN(CCCCNc1cccc2ccc[nH+]c12)Cc1ccccc1

>  <Energy>  (18) 
54.587913011322094

>  <Genealogy>  (18) 
CN(CCCCNc1cccc2ccc[nH+]c12)Cc1ccccc1 (protonated)
CN(CCCCNc1cccc2ccc[nH+]c12)Cc1ccccc1 (3D coordinates assigned)
CN(CCCCNc1cccc2ccc[nH+]c12)Cc1ccccc1 (optimized conformer: 54.587913011322094 kcal/mol)

>  <smiles>  (18) 
CN(CCCCNc1cccc2cccnc12)Cc1ccccc1

>  <score_type>  (18) 
oracle

>  <origin>  (18) 
adg

>  <m_score__min__energy>  (18) 
-7.79

>  <m_primary>  (18) 
energy

$$$$
18:0
     RDKit          3D

 36 38  0  0  0  0  0  0  0  0999 V2000
   -3.9310   23.4430  -27.8490 C   0  0  0  0  0  0  0  0  0  0  0  0
   -4.7220   23.6920  -29.1000 C   0  0  0  0  0  0  0  0  0  0  0  0
   -5.3810   24.9170  -29.2840 C   0  0  0  0  0  0  0  0  0  0  0  0
   -6.0950   25.1580  -30.4600 C   0  0  0  0  0  0  0  0  0  0  0  0
   -6.1420   24.1900  -31.4660 C   0  0  0  0  0  0  0  0  0  0  0  0
   -5.4600   22.9700  -31.3100 C   0  0  0  0  0  0  0  0  0  0  0  0
   -5.5080   21.9470  -32.3810 C   0  0  0  0  0  0  0  0  0  0  0  0
   -4.5480   21.8520  -33.1950 O   0  0  0  0  0  0  0  0  0  0  0  0
   -6.6230   21.0430  -32.5020 N   0  0  0  0  0  0  0  0  0  0  0  0
   -7.9570   21.5010  -32.0950 C   0  0  0  0  0  0  0  0  0  0  0  0
   -8.6260   20.4420  -31.2200 C   0  0  0  0  0  0  0  0  0  0  0  0
   -8.7460   19.1200  -31.9830 C   0  0  0  0  0  0  0  0  0  0  0  0
   -7.4410   18.7080  -32.6200 C   0  0  0  0  0  0  0  0  0  0  0  0
   -7.2630   17.3730  -33.0150 C   0  0  0  0  0  0  0  0  0  0  0  0
   -6.0950   16.9790  -33.6680 C   0  0  0  0  0  0  0  0  0  0  0  0
   -5.1020   17.9170  -33.9510 C   0  0  0  0  0  0  0  0  0  0  0  0
   -5.2700   19.2520  -33.5770 C   0  0  0  0  0  0  0  0  0  0  0  0
   -6.4360   19.6640  -32.9000 C   0  0  0  0  0  0  0  0  0  0  0  0
   -4.7550   22.7280  -30.1180 C   0  0  0  0  0  0  0  0  0  0  0  0
   -4.5623   23.6417  -26.9704 H   0  0  0  0  0  0  0  0  0  0  0  0
   -3.5952   22.3957  -27.8299 H   0  0  0  0  0  0  0  0  0  0  0  0
   -3.0558   24.1091  -27.8299 H   0  0  0  0  0  0  0  0  0  0  0  0
   -5.3353   25.6884  -28.5012 H   0  0  0  0  0  0  0  0  0  0  0  0
   -6.6224   26.1139  -30.5945 H   0  0  0  0  0  0  0  0  0  0  0  0
   -6.7153   24.3829  -32.3848 H   0  0  0  0  0  0  0  0  0  0  0  0
   -7.8632   22.4379  -31.5263 H   0  0  0  0  0  0  0  0  0  0  0  0
   -8.5710   21.6703  -32.9919 H   0  0  0  0  0  0  0  0  0  0  0  0
   -8.0214   20.2847  -30.3146 H   0  0  0  0  0  0  0  0  0  0  0  0
   -9.6330   20.7891  -30.9454 H   0  0  0  0  0  0  0  0  0  0  0  0
   -9.0614   18.3336  -31.2815 H   0  0  0  0  0  0  0  0  0  0  0  0
   -9.4842   19.2600  -32.7864 H   0  0  0  0  0  0  0  0  0  0  0  0
   -8.0497   16.6325  -32.8083 H   0  0  0  0  0  0  0  0  0  0  0  0
   -5.9568   15.9275  -33.9601 H   0  0  0  0  0  0  0  0  0  0  0  0
   -4.1841   17.6042  -34.4702 H   0  0  0  0  0  0  0  0  0  0  0  0
   -4.4867   19.9876  -33.8124 H   0  0  0  0  0  0  0  0  0  0  0  0
   -4.2245   21.7739  -29.9826 H   0  0  0  0  0  0  0  0  0  0  0  0
  1  2  1  0
  2  3  2  0
  3  4  1  0
  4  5  2  0
  5  6  1  0
  6  7  1  0
  7  8  2  0
  7  9  1  0
  9 10  1  0
 10 11  1  0
 11 12  1  0
 12 13  1  0
 13 14  2  0
 14 15  1  0
 15 16  2  0
 16 17  1  0
 17 18  2  0
  6 19  2  0
 19  2  1  0
 18  9  1  0
 18 13  1  0
  1 20  1  0
  1 21  1  0
  1 22  1  0
  3 23  1  0
  4 24  1  0
  5 25  1  0
 10 26  1  0
 10 27  1  0
 11 28  1  0
 11 29  1  0
 12 30  1  0
 12 31  1  0
 14 32  1  0
 15 33  1  0
 16 34  1  0
 17 35  1  0
 19 36  1  0
M  END
>  <UniqueID>  (19) 
18

>  <SMILES>  (19) 
Cc1cccc(C(=O)N2CCCc3ccccc32)c1

>  <Energy>  (19) 
44.85349032936783

>  <Genealogy>  (19) 
Cc1cccc(C(=O)N2CCCc3ccccc32)c1 (3D coordinates assigned)
Cc1cccc(C(=O)N2CCCc3ccccc32)c1 (nonaromatic ring conformer: 44.85349032936783 kcal/mol)

>  <smiles>  (19) 
Cc1cccc(C(=O)N2CCCc3ccccc32)c1

>  <score_type>  (19) 
oracle

>  <origin>  (19) 
adg

>  <m_score__min__energy>  (19) 
-8.0099999999999998

>  <m_primary>  (19) 
energy

$$$$
19:0
     RDKit          3D

 51 52  0  0  0  0  0  0  0  0999 V2000
   -2.1830   21.4090  -29.4490 C   0  0  0  0  0  0  0  0  0  0  0  0
   -1.3230   22.5320  -30.0190 C   0  0  0  0  0  0  0  0  0  0  0  0
   -2.0570   23.7540  -30.0650 O   0  0  0  0  0  0  0  0  0  0  0  0
   -2.2870   24.5570  -28.9410 C   0  0  0  0  0  0  0  0  0  0  0  0
   -1.5490   25.5510  -28.6970 O   0  0  0  0  0  0  0  0  0  0  0  0
   -3.4470   24.2610  -28.0450 C   0  0  0  0  0  0  0  0  0  0  0  0
   -4.5670   23.7130  -28.8290 N   0  0  0  0  0  0  0  0  0  0  0  0
   -5.5570   24.7320  -29.2190 C   0  0  0  0  0  0  0  0  0  0  0  0
   -5.3420   25.2080  -30.6710 C   0  0  1  0  0  0  0  0  0  0  0  0
   -4.0320   25.6780  -30.8640 O   0  0  0  0  0  0  0  0  0  0  0  0
   -5.6540   24.0860  -31.6730 C   0  0  0  0  0  0  0  0  0  0  0  0
   -4.4820   23.3050  -31.8950 O   0  0  0  0  0  0  0  0  0  0  0  0
   -4.4870   21.9270  -32.1580 C   0  0  0  0  0  0  0  0  0  0  0  0
   -3.8290   21.3650  -33.2670 C   0  0  0  0  0  0  0  0  0  0  0  0
   -3.8610   19.9850  -33.4850 C   0  0  0  0  0  0  0  0  0  0  0  0
   -4.5430   19.1390  -32.5870 C   0  0  0  0  0  0  0  0  0  0  0  0
   -4.5940   17.7430  -32.7390 O   0  0  0  0  0  0  0  0  0  0  0  0
   -5.7470   16.9160  -32.5680 C   0  0  0  0  0  0  0  0  0  0  0  0
   -6.9180   17.4150  -33.4210 C   0  0  0  0  0  0  0  0  0  0  0  0
   -7.7050   18.4230  -32.7130 N   0  0  0  0  0  0  0  0  0  0  0  0
   -7.8850   19.7060  -33.0650 C   0  0  0  0  0  0  0  0  0  0  0  0
   -8.6690   20.3010  -32.1020 C   0  0  0  0  0  0  0  0  0  0  0  0
   -8.9810   19.3960  -31.1510 N   0  0  0  0  0  0  0  0  0  0  0  0
   -8.3780   18.2610  -31.5570 C   0  0  0  0  0  0  0  0  0  0  0  0
   -5.2090   19.7060  -31.4950 C   0  0  0  0  0  0  0  0  0  0  0  0
   -5.1790   21.0850  -31.2800 C   0  0  0  0  0  0  0  0  0  0  0  0
   -2.1541   21.4467  -28.3500 H   0  0  0  0  0  0  0  0  0  0  0  0
   -3.2207   21.5312  -29.7929 H   0  0  0  0  0  0  0  0  0  0  0  0
   -1.7945   20.4390  -29.7929 H   0  0  0  0  0  0  0  0  0  0  0  0
   -0.4363   22.6669  -29.3821 H   0  0  0  0  0  0  0  0  0  0  0  0
   -1.0203   22.2621  -31.0415 H   0  0  0  0  0  0  0  0  0  0  0  0
   -3.1414   23.5266  -27.2852 H   0  0  0  0  0  0  0  0  0  0  0  0
   -3.7713   25.1922  -27.5574 H   0  0  0  0  0  0  0  0  0  0  0  0
   -4.1700   23.3150  -29.7140 H   0  0  0  0  0  0  0  0  0  0  0  0
   -6.5656   24.3020  -29.1302 H   0  0  0  0  0  0  0  0  0  0  0  0
   -5.4388   25.5988  -28.5522 H   0  0  0  0  0  0  0  0  0  0  0  0
   -6.0389   26.0401  -30.8499 H   0  0  0  0  0  0  0  0  0  0  0  0
   -3.4870   24.9210  -31.2050 H   0  0  0  0  0  0  0  0  0  0  0  0
   -6.4505   23.4444  -31.2681 H   0  0  0  0  0  0  0  0  0  0  0  0
   -5.9853   24.5271  -32.6247 H   0  0  0  0  0  0  0  0  0  0  0  0
   -3.2855   22.0162  -33.9674 H   0  0  0  0  0  0  0  0  0  0  0  0
   -3.3518   19.5570  -34.3611 H   0  0  0  0  0  0  0  0  0  0  0  0
   -5.4981   15.8871  -32.8670 H   0  0  0  0  0  0  0  0  0  0  0  0
   -6.0469   16.9507  -31.5102 H   0  0  0  0  0  0  0  0  0  0  0  0
   -6.5226   17.8563  -34.3478 H   0  0  0  0  0  0  0  0  0  0  0  0
   -7.5726   16.5593  -33.6430 H   0  0  0  0  0  0  0  0  0  0  0  0
   -7.4786   20.1948  -33.9627 H   0  0  0  0  0  0  0  0  0  0  0  0
   -8.9915   21.3527  -32.1072 H   0  0  0  0  0  0  0  0  0  0  0  0
   -8.4295   17.3099  -31.0068 H   0  0  0  0  0  0  0  0  0  0  0  0
   -5.7620   19.0585  -30.7987 H   0  0  0  0  0  0  0  0  0  0  0  0
   -5.7036   21.5134  -30.4133 H   0  0  0  0  0  0  0  0  0  0  0  0
  1  2  1  0
  2  3  1  0
  3  4  1  0
  4  5  2  0
  4  6  1  0
  6  7  1  0
  7  8  1  0
  8  9  1  0
  9 10  1  0
  9 11  1  0
 11 12  1  0
 12 13  1  0
 13 14  2  0
 14 15  1  0
 15 16  2  0
 16 17  1  0
 17 18  1  0
 18 19  1  0
 19 20  1  0
 20 21  1  0
 21 22  2  0
 22 23  1  0
 23 24  2  0
 16 25  1  0
 25 26  2  0
 26 13  1  0
 24 20  1  0
  1 27  1  0
  1 28  1  0
  1 29  1  0
  2 30  1  0
  2 31  1  0
  6 32  1  0
  6 33  1  0
  7 34  1  0
  8 35  1  0
  8 36  1  0
  9 37  1  6
 10 38  1  0
 11 39  1  0
 11 40  1  0
 14 41  1  0
 15 42  1  0
 18 43  1  0
 18 44  1  0
 19 45  1  0
 19 46  1  0
 21 47  1  0
 22 48  1  0
 24 49  1  0
 25 50  1  0
 26 51  1  0
M  END
>  <UniqueID>  (20) 
19

>  <SMILES>  (20) 
CCOC(=O)CNC[C@@H](O)COc1ccc(OCCn2ccnc2)cc1

>  <Energy>  (20) 
70.90894805719398

>  <Genealogy>  (20) 
CCOC(=O)CNC[C@@H](O)COc1ccc(OCCn2ccnc2)cc1 (chirality)
CCOC(=O)CNC[C@@H](O)COc1ccc(OCCn2ccnc2)cc1 (3D coordinates assigned)
CCOC(=O)CNC[C@@H](O)COc1ccc(OCCn2ccnc2)cc1 (optimized conformer: 70.90894805719398 kcal/mol)

>  <smiles>  (20) 
CCOC(=O)CNCC(O)COc1ccc(OCCn2ccnc2)cc1

>  <score_type>  (20) 
oracle

>  <origin>  (20) 
adg

>  <m_score__min__energy>  (20) 
-7.3700000000000001

>  <m_primary>  (20) 
energy

$$$$
20:0
     RDKit          3D

 41 43  0  0  0  0  0  0  0  0999 V2000
   -9.5570   22.2124  -32.0663 H   0  0  0  0  0  0  0  0  0  0  0  0
   -8.5110   21.8870  -31.9660 C   0  0  0  0  0  0  0  0  0  0  0  0
   -8.1610   20.5750  -32.2810 C   0  0  0  0  0  0  0  0  0  0  0  0
   -8.9329   19.8712  -32.6257 H   0  0  0  0  0  0  0  0  0  0  0  0
   -6.8290   20.1460  -32.1610 C   0  0  0  0  0  0  0  0  0  0  0  0
   -6.4550   18.7490  -32.4990 C   0  0  0  0  0  0  0  0  0  0  0  0
   -6.1000   17.8400  -31.4880 C   0  0  0  0  0  0  0  0  0  0  0  0
   -6.1007   18.1651  -30.4371 H   0  0  0  0  0  0  0  0  0  0  0  0
   -5.7460   16.5260  -31.8070 C   0  0  0  0  0  0  0  0  0  0  0  0
   -5.4623   15.8283  -31.0052 H   0  0  0  0  0  0  0  0  0  0  0  0
   -5.7490   16.0880  -33.1410 C   0  0  0  0  0  0  0  0  0  0  0  0
   -5.3680   14.6900  -33.4620 C   0  0  0  0  0  0  0  0  0  0  0  0
   -5.6010   14.2380  -34.6160 O   0  0  0  0  0  0  0  0  0  0  0  0
   -4.7240   13.8510  -32.4890 N   0  0  0  0  0  0  0  0  0  0  0  0
   -4.4360   14.2470  -31.5660 H   0  0  0  0  0  0  0  0  0  0  0  0
   -4.4280   12.4420  -32.7410 C   0  0  0  0  0  0  0  0  0  0  0  0
   -3.3774   12.2417  -32.4839 H   0  0  0  0  0  0  0  0  0  0  0  0
   -4.6071   12.2267  -33.8048 H   0  0  0  0  0  0  0  0  0  0  0  0
   -5.3290   11.5460  -31.9000 C   0  0  0  0  0  0  0  0  0  0  0  0
   -5.1399   11.7340  -30.8328 H   0  0  0  0  0  0  0  0  0  0  0  0
   -6.3821   11.7654  -32.1300 H   0  0  0  0  0  0  0  0  0  0  0  0
   -5.1154   10.4917  -32.1300 H   0  0  0  0  0  0  0  0  0  0  0  0
   -6.0940   17.0000  -34.1550 C   0  0  0  0  0  0  0  0  0  0  0  0
   -6.0875   16.6761  -35.2062 H   0  0  0  0  0  0  0  0  0  0  0  0
   -6.4450   18.3150  -33.8360 C   0  0  0  0  0  0  0  0  0  0  0  0
   -6.7159   19.0167  -34.6387 H   0  0  0  0  0  0  0  0  0  0  0  0
   -5.8570   21.0590  -31.7150 C   0  0  0  0  0  0  0  0  0  0  0  0
   -4.8117   20.7307  -31.6166 H   0  0  0  0  0  0  0  0  0  0  0  0
   -6.1990   22.3870  -31.3920 C   0  0  0  0  0  0  0  0  0  0  0  0
   -5.1570   23.3360  -30.9220 C   0  0  0  0  0  0  0  0  0  0  0  0
   -5.0450   24.6130  -31.3630 N   0  0  0  0  0  0  0  0  0  0  0  0
   -4.0400   25.2880  -30.8090 N   0  0  0  0  0  0  0  0  0  0  0  0
   -3.3410   24.5500  -29.9190 C   0  0  0  0  0  0  0  0  0  0  0  0
   -2.3180   24.9900  -29.2530 N   0  0  0  0  0  0  0  0  0  0  0  0
   -2.0240   24.5960  -27.8800 C   0  0  0  0  0  0  0  0  0  0  0  0
   -2.5340   25.2795  -27.1852 H   0  0  0  0  0  0  0  0  0  0  0  0
   -2.3779   23.5685  -27.7096 H   0  0  0  0  0  0  0  0  0  0  0  0
   -0.9383   24.6428  -27.7096 H   0  0  0  0  0  0  0  0  0  0  0  0
   -3.9550   22.9950  -29.7800 S   0  0  0  0  0  0  0  0  0  0  0  0
   -7.5430   22.7910  -31.5240 C   0  0  0  0  0  0  0  0  0  0  0  0
   -7.9290   24.0590  -31.2310 F   0  0  0  0  0  0  0  0  0  0  0  0
  1  2  1  0
  2  3  2  0
  3  4  1  0
  3  5  1  0
  5  6  1  0
  6  7  2  0
  7  8  1  0
  7  9  1  0
  9 10  1  0
  9 11  2  0
 11 12  1  0
 12 13  2  0
 12 14  1  0
 14 15  1  0
 14 16  1  0
 16 17  1  0
 16 18  1  0
 16 19  1  0
 19 20  1  0
 19 21  1  0
 19 22  1  0
 11 23  1  0
 23 24  1  0
 23 25  2  0
 25 26  1  0
  5 27  2  0
 27 28  1  0
 27 29  1  0
 29 30  1  0
 30 31  2  0
 31 32  1  0
 32 33  1  0
 33 34  2  0
 34 35  1  0
 35 36  1  0
 35 37  1  0
 35 38  1  0
 33 39  1  0
 29 40  2  0
 40 41  1  0
 40  2  1  0
 25  6  1  0
 39 30  1  0
M  CHG  1  32  -1
M  END
>  <UniqueID>  (21) 
20

>  <SMILES>  (21) 
CCNC(=O)c1ccc(-c2ccc(F)c(-c3n[n-]/c(=N\C)s3)c2)cc1

>  <Energy>  (21) 
81.67579991207423

>  <Genealogy>  (21) 
CCNC(=O)c1ccc(-c2ccc(F)c(-c3n[n-]c(=NC)s3)c2)cc1 (protonated)
CCNC(=O)c1ccc(-c2ccc(F)c(-c3n[n-]/c(=N\C)s3)c2)cc1 (cis-trans isomerization)
CCNC(=O)c1ccc(-c2ccc(F)c(-c3n[n-]/c(=N\C)s3)c2)cc1 (3D coordinates assigned)
CCNC(=O)c1ccc(-c2ccc(F)c(-c3n[n-]/c(=N\C)s3)c2)cc1 (optimized conformer: 81.67579991207423 kcal/mol)

>  <smiles>  (21) 
CCNC(=O)c1ccc(-c2ccc(F)c(-c3n[nH]c(=NC)s3)c2)cc1

>  <score_type>  (21) 
oracle

>  <origin>  (21) 
adg

>  <m_score__min__energy>  (21) 
-10.41

>  <m_primary>  (21) 
energy

$$$$
21:0
     RDKit          3D

 36 36  0  0  0  0  0  0  0  0999 V2000
   -5.7610   18.6280  -33.8910 C   0  0  0  0  0  0  0  0  0  0  0  0
   -6.1030   20.0090  -33.9010 O   0  0  0  0  0  0  0  0  0  0  0  0
   -5.6990   20.8950  -32.8990 C   0  0  0  0  0  0  0  0  0  0  0  0
   -4.4710   21.1070  -32.7070 O   0  0  0  0  0  0  0  0  0  0  0  0
   -6.7140   21.5840  -32.0710 C   0  0  0  0  0  0  0  0  0  0  0  0
   -7.8760   21.0340  -31.5510 C   0  0  0  0  0  0  0  0  0  0  0  0
   -8.3740   19.6300  -31.6980 C   0  0  0  0  0  0  0  0  0  0  0  0
   -8.5160   22.0450  -30.8630 C   0  0  0  0  0  0  0  0  0  0  0  0
   -7.8080   23.1460  -30.9430 O   0  0  0  0  0  0  0  0  0  0  0  0
   -6.7250   22.9120  -31.6500 C   0  0  0  0  0  0  0  0  0  0  0  0
   -5.7120   23.9790  -31.9480 C   0  0  0  0  0  0  0  0  0  0  0  0
   -5.4650   24.8480  -30.7180 C   0  0  0  0  0  0  0  0  0  0  0  0
   -4.0530   25.1980  -30.6420 N   0  0  0  0  0  0  0  0  0  0  0  0
   -3.1430   24.5570  -29.7430 C   0  0  0  0  0  0  0  0  0  0  0  0
   -2.1210   25.1710  -29.3310 O   0  0  0  0  0  0  0  0  0  0  0  0
   -3.3990   23.1460  -29.2900 C   0  0  0  0  0  0  0  0  0  0  0  0
   -3.8890   23.1300  -27.8390 C   0  0  0  0  0  0  0  0  0  0  0  0
   -2.1370   22.2930  -29.4510 C   0  0  0  0  0  0  0  0  0  0  0  0
   -5.6746   18.2792  -32.8514 H   0  0  0  0  0  0  0  0  0  0  0  0
   -6.5438   18.0527  -34.4070 H   0  0  0  0  0  0  0  0  0  0  0  0
   -4.8002   18.4845  -34.4070 H   0  0  0  0  0  0  0  0  0  0  0  0
   -8.5300   19.1901  -30.7019 H   0  0  0  0  0  0  0  0  0  0  0  0
   -9.3254   19.6343  -32.2500 H   0  0  0  0  0  0  0  0  0  0  0  0
   -7.6325   19.0338  -32.2500 H   0  0  0  0  0  0  0  0  0  0  0  0
   -9.4726   21.9429  -30.3297 H   0  0  0  0  0  0  0  0  0  0  0  0
   -4.7667   23.5048  -32.2507 H   0  0  0  0  0  0  0  0  0  0  0  0
   -6.0970   24.6152  -32.7586 H   0  0  0  0  0  0  0  0  0  0  0  0
   -6.0662   25.7662  -30.7919 H   0  0  0  0  0  0  0  0  0  0  0  0
   -5.7523   24.2912  -29.8139 H   0  0  0  0  0  0  0  0  0  0  0  0
   -4.1874   22.7123  -29.9227 H   0  0  0  0  0  0  0  0  0  0  0  0
   -3.0243   23.1582  -27.1597 H   0  0  0  0  0  0  0  0  0  0  0  0
   -4.5266   24.0078  -27.6576 H   0  0  0  0  0  0  0  0  0  0  0  0
   -4.4680   22.2125  -27.6576 H   0  0  0  0  0  0  0  0  0  0  0  0
   -1.7446   22.0278  -28.4582 H   0  0  0  0  0  0  0  0  0  0  0  0
   -2.3830   21.3752  -30.0052 H   0  0  0  0  0  0  0  0  0  0  0  0
   -1.3771   22.8634  -30.0052 H   0  0  0  0  0  0  0  0  0  0  0  0
  1  2  1  0
  2  3  1  0
  3  4  2  0
  3  5  1  0
  5  6  1  0
  6  7  1  0
  6  8  2  0
  8  9  1  0
  9 10  1  0
 10 11  1  0
 11 12  1  0
 12 13  1  0
 13 14  1  0
 14 15  2  0
 14 16  1  0
 16 17  1  0
 16 18  1  0
 10  5  2  0
  1 19  1  0
  1 20  1  0
  1 21  1  0
  7 22  1  0
  7 23  1  0
  7 24  1  0
  8 25  1  0
 11 26  1  0
 11 27  1  0
 12 28  1  0
 12 29  1  0
 16 30  1  0
 17 31  1  0
 17 32  1  0
 17 33  1  0
 18 34  1  0
 18 35  1  0
 18 36  1  0
M  CHG  1  13  -1
M  END
>  <UniqueID>  (22) 
21

>  <SMILES>  (22) 
COC(=O)c1c(C)coc1CC[N-]C(=O)C(C)C

>  <Energy>  (22) 
46.99672333511757

>  <Genealogy>  (22) 
COC(=O)c1c(C)coc1CC[N-]C(=O)C(C)C (protonated)
COC(=O)c1c(C)coc1CC[N-]C(=O)C(C)C (3D coordinates assigned)
COC(=O)c1c(C)coc1CC[N-]C(=O)C(C)C (optimized conformer: 46.99672333511757 kcal/mol)

>  <smiles>  (22) 
COC(=O)c1c(C)coc1CCNC(=O)C(C)C

>  <score_type>  (22) 
oracle

>  <origin>  (22) 
adg

>  <m_score__min__energy>  (22) 
-8.4199999999999999

>  <m_primary>  (22) 
energy

$$$$
22:0
     RDKit          3D

 50 53  0  0  0  0  0  0  0  0999 V2000
   -2.1350   19.4580  -33.9620 C   0  0  0  0  0  0  0  0  0  0  0  0
   -2.4450   18.0260  -33.8300 N   0  0  0  0  0  0  0  0  0  0  0  0
   -2.9040   17.4500  -35.1200 C   0  0  0  0  0  0  0  0  0  0  0  0
   -4.4320   17.3080  -35.1830 C   0  0  0  0  0  0  0  0  0  0  0  0
   -4.9300   16.4250  -34.1040 N   0  0  0  0  0  0  0  0  0  0  0  0
   -6.3910   16.5370  -33.8950 C   0  0  0  0  0  0  0  0  0  0  0  0
   -6.8100   17.8550  -33.3000 C   0  0  0  0  0  0  0  0  0  0  0  0
   -5.9950   18.9220  -33.1840 N   0  0  0  0  0  0  0  0  0  0  0  0
   -6.7730   19.8280  -32.5490 C   0  0  0  0  0  0  0  0  0  0  0  0
   -8.0090   19.3300  -32.3020 N   0  0  0  0  0  0  0  0  0  0  0  0
   -8.0200   18.0940  -32.7670 N   0  0  0  0  0  0  0  0  0  0  0  0
   -9.0670   19.8560  -31.4400 C   0  0  0  0  0  0  0  0  0  0  0  0
   -8.6720   21.1660  -30.7630 C   0  0  0  0  0  0  0  0  0  0  0  0
   -8.4970   22.2890  -31.7800 C   0  0  0  0  0  0  0  0  0  0  0  0
   -7.1160   22.3450  -32.2610 N   0  0  0  0  0  0  0  0  0  0  0  0
   -6.5180   23.6490  -32.5680 C   0  0  0  0  0  0  0  0  0  0  0  0
   -5.9610   24.2720  -31.3260 C   0  0  0  0  0  0  0  0  0  0  0  0
   -6.6980   24.7860  -30.2780 C   0  0  0  0  0  0  0  0  0  0  0  0
   -5.7720   25.2740  -29.3810 C   0  0  0  0  0  0  0  0  0  0  0  0
   -4.5330   25.0320  -29.9370 C   0  0  0  0  0  0  0  0  0  0  0  0
   -4.6790   24.4350  -31.0980 O   0  0  0  0  0  0  0  0  0  0  0  0
   -6.2730   21.1790  -32.2230 C   0  0  0  0  0  0  0  0  0  0  0  0
   -5.0370   21.3210  -32.0170 O   0  0  0  0  0  0  0  0  0  0  0  0
   -4.1340   16.4740  -32.8540 C   0  0  0  0  0  0  0  0  0  0  0  0
   -3.3830   17.8040  -32.7050 C   0  0  0  0  0  0  0  0  0  0  0  0
   -2.0380   19.9059  -32.9620 H   0  0  0  0  0  0  0  0  0  0  0  0
   -1.1898   19.5794  -34.5114 H   0  0  0  0  0  0  0  0  0  0  0  0
   -2.9454   19.9595  -34.5114 H   0  0  0  0  0  0  0  0  0  0  0  0
   -2.5757   18.1079  -35.9381 H   0  0  0  0  0  0  0  0  0  0  0  0
   -2.4680   16.4445  -35.2141 H   0  0  0  0  0  0  0  0  0  0  0  0
   -4.8900   18.3021  -35.0738 H   0  0  0  0  0  0  0  0  0  0  0  0
   -4.7019   16.8623  -36.1518 H   0  0  0  0  0  0  0  0  0  0  0  0
   -6.8925   16.4178  -34.8667 H   0  0  0  0  0  0  0  0  0  0  0  0
   -6.6782   15.7518  -33.1802 H   0  0  0  0  0  0  0  0  0  0  0  0
   -8.8180   17.4240  -32.6860 H   0  0  0  0  0  0  0  0  0  0  0  0
   -9.9651   20.0312  -32.0506 H   0  0  0  0  0  0  0  0  0  0  0  0
   -9.2539   19.1142  -30.6495 H   0  0  0  0  0  0  0  0  0  0  0  0
   -9.4581   21.4503  -30.0480 H   0  0  0  0  0  0  0  0  0  0  0  0
   -7.7119   21.0132  -30.2483 H   0  0  0  0  0  0  0  0  0  0  0  0
   -9.1688   22.1111  -32.6327 H   0  0  0  0  0  0  0  0  0  0  0  0
   -8.7397   23.2454  -31.2939 H   0  0  0  0  0  0  0  0  0  0  0  0
   -5.7083   23.5133  -33.3001 H   0  0  0  0  0  0  0  0  0  0  0  0
   -7.2943   24.3095  -32.9817 H   0  0  0  0  0  0  0  0  0  0  0  0
   -7.7935   24.8027  -30.1795 H   0  0  0  0  0  0  0  0  0  0  0  0
   -5.9794   25.7590  -28.4157 H   0  0  0  0  0  0  0  0  0  0  0  0
   -3.5694   25.2984  -29.4781 H   0  0  0  0  0  0  0  0  0  0  0  0
   -4.8113   16.3501  -31.9961 H   0  0  0  0  0  0  0  0  0  0  0  0
   -3.3897   15.6649  -32.8921 H   0  0  0  0  0  0  0  0  0  0  0  0
   -4.1133   18.6262  -32.6808 H   0  0  0  0  0  0  0  0  0  0  0  0
   -2.8014   17.7697  -31.7719 H   0  0  0  0  0  0  0  0  0  0  0  0
  1  2  1  0
  2  3  1  0
  3  4  1  0
  4  5  1  0
  5  6  1  0
  6  7  1  0
  7  8  1  0
  8  9  2  0
  9 10  1  0
 10 11  1  0
 10 12  1  0
 12 13  1  0
 13 14  1  0
 14 15  1  0
 15 16  1  0
 16 17  1  0
 17 18  2  0
 18 19  1  0
 19 20  2  0
 20 21  1  0
 15 22  1  0
 22 23  2  0
  5 24  1  0
 24 25  1  0
 25  2  1  0
 11  7  2  0
 21 17  1  0
 22  9  1  0
  1 26  1  0
  1 27  1  0
  1 28  1  0
  3 29  1  0
  3 30  1  0
  4 31  1  0
  4 32  1  0
  6 33  1  0
  6 34  1  0
 11 35  1  0
 12 36  1  0
 12 37  1  0
 13 38  1  0
 13 39  1  0
 14 40  1  0
 14 41  1  0
 16 42  1  0
 16 43  1  0
 18 44  1  0
 19 45  1  0
 20 46  1  0
 24 47  1  0
 24 48  1  0
 25 49  1  0
 25 50  1  0
M  CHG  1  11   1
M  END
>  <UniqueID>  (23) 
22

>  <SMILES>  (23) 
CN1CCN(Cc2nc3n([nH+]2)CCCN(Cc2ccco2)C3=O)CC1

>  <Energy>  (23) 
127.53648182330781

>  <Genealogy>  (23) 
CN1CCN(Cc2nc3n([nH+]2)CCCN(Cc2ccco2)C3=O)CC1 (protonated)
CN1CCN(Cc2nc3n([nH+]2)CCCN(Cc2ccco2)C3=O)CC1 (3D coordinates assigned)
CN1CCN(Cc2nc3n([nH+]2)CCCN(Cc2ccco2)C3=O)CC1 (nonaromatic ring conformer: 127.53648182330781 kcal/mol)

>  <smiles>  (23) 
CN1CCN(Cc2nc3n(n2)CCCN(Cc2ccco2)C3=O)CC1

>  <score_type>  (23) 
oracle

>  <origin>  (23) 
adg

>  <m_score__min__energy>  (23) 
-6.1299999999999999

>  <m_primary>  (23) 
energy

$$$$
23:0
     RDKit          3D

 63 65  0  0  0  0  0  0  0  0999 V2000
    1.4320   21.9140  -34.9700 C   0  0  0  0  0  0  0  0  0  0  0  0
    0.1710   21.1410  -34.5750 C   0  0  0  0  0  0  0  0  0  0  0  0
    0.2860   20.5400  -33.1660 C   0  0  0  0  0  0  0  0  0  0  0  0
   -0.8860   20.8750  -32.3460 N   0  0  0  0  0  0  0  0  0  0  0  0
   -0.7030   21.2820  -30.9490 C   0  0  0  0  0  0  0  0  0  0  0  0
   -1.1970   20.1830  -30.0110 C   0  0  0  0  0  0  0  0  0  0  0  0
   -1.9740   20.7670  -28.8370 C   0  0  0  0  0  0  0  0  0  0  0  0
   -2.2140   20.7130  -32.8960 C   0  0  0  0  0  0  0  0  0  0  0  0
   -2.4140   19.9130  -33.8470 O   0  0  0  0  0  0  0  0  0  0  0  0
   -3.3460   21.4920  -32.3760 C   0  0  0  0  0  0  0  0  0  0  0  0
   -3.1090   22.6720  -31.6710 C   0  0  0  0  0  0  0  0  0  0  0  0
   -4.1710   23.3850  -31.1050 C   0  0  0  0  0  0  0  0  0  0  0  0
   -3.9170   24.6880  -30.4700 C   0  0  0  0  0  0  0  0  0  0  0  0
   -4.6910   25.6460  -30.7400 O   0  0  0  0  0  0  0  0  0  0  0  0
   -2.8010   24.9230  -29.5990 N   0  0  0  0  0  0  0  0  0  0  0  0
   -2.5230   24.3090  -28.2970 C   0  0  2  0  0  0  0  0  0  0  0  0
   -3.7390   23.5100  -27.8090 C   0  0  0  0  0  0  0  0  0  0  0  0
   -1.9710   25.3300  -27.3100 C   0  0  0  0  0  0  0  0  0  0  0  0
   -2.3990   25.4030  -25.9660 C   0  0  0  0  0  0  0  0  0  0  0  0
   -1.7870   26.2850  -25.0700 C   0  0  0  0  0  0  0  0  0  0  0  0
   -0.7420   27.1060  -25.4960 C   0  0  0  0  0  0  0  0  0  0  0  0
   -0.1430   27.9530  -24.6240 F   0  0  0  0  0  0  0  0  0  0  0  0
   -0.3060   27.0450  -26.8220 C   0  0  0  0  0  0  0  0  0  0  0  0
   -0.9100   26.1590  -27.7190 C   0  0  0  0  0  0  0  0  0  0  0  0
   -5.4810   22.9190  -31.2630 C   0  0  0  0  0  0  0  0  0  0  0  0
   -5.7380   21.7390  -31.9870 C   0  0  0  0  0  0  0  0  0  0  0  0
   -7.1270   21.2300  -32.1370 C   0  0  0  0  0  0  0  0  0  0  0  0
   -7.3680   19.9160  -32.5880 C   0  0  0  0  0  0  0  0  0  0  0  0
   -8.6750   19.4290  -32.6820 C   0  0  0  0  0  0  0  0  0  0  0  0
   -9.7560   20.2490  -32.3470 C   0  0  0  0  0  0  0  0  0  0  0  0
   -9.5320   21.5600  -31.9130 C   0  0  0  0  0  0  0  0  0  0  0  0
   -8.2250   22.0470  -31.8030 C   0  0  0  0  0  0  0  0  0  0  0  0
   -4.6560   21.0360  -32.5500 C   0  0  0  0  0  0  0  0  0  0  0  0
    1.9622   22.2390  -34.0626 H   0  0  0  0  0  0  0  0  0  0  0  0
    2.0893   21.2635  -35.5656 H   0  0  0  0  0  0  0  0  0  0  0  0
    1.1506   22.7949  -35.5656 H   0  0  0  0  0  0  0  0  0  0  0  0
   -0.6890   21.8265  -34.6003 H   0  0  0  0  0  0  0  0  0  0  0  0
    0.0400   20.3144  -35.2888 H   0  0  0  0  0  0  0  0  0  0  0  0
    0.3649   19.4459  -33.2484 H   0  0  0  0  0  0  0  0  0  0  0  0
    1.1802   20.9591  -32.6815 H   0  0  0  0  0  0  0  0  0  0  0  0
    0.3649   21.4671  -30.7613 H   0  0  0  0  0  0  0  0  0  0  0  0
   -1.2812   22.1992  -30.7635 H   0  0  0  0  0  0  0  0  0  0  0  0
   -1.8533   19.5011  -30.5717 H   0  0  0  0  0  0  0  0  0  0  0  0
   -0.3232   19.6439  -29.6162 H   0  0  0  0  0  0  0  0  0  0  0  0
   -1.5223   20.4275  -27.8932 H   0  0  0  0  0  0  0  0  0  0  0  0
   -1.9406   21.8654  -28.8853 H   0  0  0  0  0  0  0  0  0  0  0  0
   -3.0198   20.4295  -28.8853 H   0  0  0  0  0  0  0  0  0  0  0  0
   -2.0800   23.0444  -31.5594 H   0  0  0  0  0  0  0  0  0  0  0  0
   -1.7157   23.5687  -28.3983 H   0  0  0  0  0  0  0  0  0  0  0  0
   -3.7539   23.5002  -26.7091 H   0  0  0  0  0  0  0  0  0  0  0  0
   -4.6605   23.9792  -28.1840 H   0  0  0  0  0  0  0  0  0  0  0  0
   -3.6741   22.4779  -28.1840 H   0  0  0  0  0  0  0  0  0  0  0  0
   -3.2218   24.7597  -25.6207 H   0  0  0  0  0  0  0  0  0  0  0  0
   -2.1304   26.3319  -24.0260 H   0  0  0  0  0  0  0  0  0  0  0  0
    0.5140   27.6953  -27.1608 H   0  0  0  0  0  0  0  0  0  0  0  0
   -0.5513   26.1093  -28.7577 H   0  0  0  0  0  0  0  0  0  0  0  0
   -6.3167   23.4790  -30.8180 H   0  0  0  0  0  0  0  0  0  0  0  0
   -6.5225   19.2702  -32.8676 H   0  0  0  0  0  0  0  0  0  0  0  0
   -8.8531   18.3977  -33.0205 H   0  0  0  0  0  0  0  0  0  0  0  0
  -10.7833   19.8635  -32.4246 H   0  0  0  0  0  0  0  0  0  0  0  0
  -10.3836   22.2080  -31.6582 H   0  0  0  0  0  0  0  0  0  0  0  0
   -8.0535   23.0756  -31.4531 H   0  0  0  0  0  0  0  0  0  0  0  0
   -4.8428   20.1210  -33.1312 H   0  0  0  0  0  0  0  0  0  0  0  0
  1  2  1  0
  2  3  1  0
  3  4  1  0
  4  5  1  0
  5  6  1  0
  6  7  1  0
  4  8  1  0
  8  9  2  0
  8 10  1  0
 10 11  2  0
 11 12  1  0
 12 13  1  0
 13 14  2  0
 13 15  1  0
 15 16  1  0
 16 17  1  0
 16 18  1  0
 18 19  2  0
 19 20  1  0
 20 21  2  0
 21 22  1  0
 21 23  1  0
 23 24  2  0
 12 25  2  0
 25 26  1  0
 26 27  1  0
 27 28  2  0
 28 29  1  0
 29 30  2  0
 30 31  1  0
 31 32  2  0
 26 33  2  0
 33 10  1  0
 24 18  1  0
 32 27  1  0
  1 34  1  0
  1 35  1  0
  1 36  1  0
  2 37  1  0
  2 38  1  0
  3 39  1  0
  3 40  1  0
  5 41  1  0
  5 42  1  0
  6 43  1  0
  6 44  1  0
  7 45  1  0
  7 46  1  0
  7 47  1  0
 11 48  1  0
 16 49  1  6
 17 50  1  0
 17 51  1  0
 17 52  1  0
 19 53  1  0
 20 54  1  0
 23 55  1  0
 24 56  1  0
 25 57  1  0
 28 58  1  0
 29 59  1  0
 30 60  1  0
 31 61  1  0
 32 62  1  0
 33 63  1  0
M  CHG  1  15  -1
M  END
>  <UniqueID>  (24) 
23

>  <SMILES>  (24) 
CCCN(CCC)C(=O)c1cc(C(=O)[N-][C@H](C)c2ccc(F)cc2)cc(-c2ccccc2)c1

>  <Energy>  (24) 
70.27028850526203

>  <Genealogy>  (24) 
CCCN(CCC)C(=O)c1cc(C(=O)[N-]C(C)c2ccc(F)cc2)cc(-c2ccccc2)c1 (protonated)
CCCN(CCC)C(=O)c1cc(C(=O)[N-][C@H](C)c2ccc(F)cc2)cc(-c2ccccc2)c1 (chirality)
CCCN(CCC)C(=O)c1cc(C(=O)[N-][C@H](C)c2ccc(F)cc2)cc(-c2ccccc2)c1 (3D coordinates assigned)
CCCN(CCC)C(=O)c1cc(C(=O)[N-][C@H](C)c2ccc(F)cc2)cc(-c2ccccc2)c1 (optimized conformer: 70.27028850526203 kcal/mol)

>  <smiles>  (24) 
CCCN(CCC)C(=O)c1cc(C(=O)NC(C)c2ccc(F)cc2)cc(-c2ccccc2)c1

>  <score_type>  (24) 
oracle

>  <origin>  (24) 
adg

>  <m_score__min__energy>  (24) 
-11.41

>  <m_primary>  (24) 
energy

$$$$
24:0
     RDKit          3D

 43 44  0  0  0  0  0  0  0  0999 V2000
   -3.8120   19.0400  -33.5670 C   0  0  0  0  0  0  0  0  0  0  0  0
   -5.0540   19.7040  -33.7710 O   0  0  0  0  0  0  0  0  0  0  0  0
   -5.5510   20.7380  -32.9610 C   0  0  0  0  0  0  0  0  0  0  0  0
   -4.6930   21.6350  -32.2960 C   0  0  0  0  0  0  0  0  0  0  0  0
   -5.2060   22.6550  -31.4840 C   0  0  0  0  0  0  0  0  0  0  0  0
   -6.6050   22.8120  -31.3620 C   0  0  0  0  0  0  0  0  0  0  0  0
   -7.4580   21.9120  -32.0140 C   0  0  0  0  0  0  0  0  0  0  0  0
   -6.9470   20.8770  -32.8140 C   0  0  0  0  0  0  0  0  0  0  0  0
   -7.8520   19.9520  -33.4600 N   0  0  0  0  0  0  0  0  0  0  0  0
   -8.7920   19.3450  -32.5000 C   0  0  0  0  0  0  0  0  0  0  0  0
   -8.2810   17.9810  -31.9740 C   0  0  0  0  0  0  0  0  0  0  0  0
   -6.8970   17.6490  -32.3840 N   0  0  0  0  0  0  0  0  0  0  0  0
   -6.8430   16.7520  -33.5490 C   0  0  0  0  0  0  0  0  0  0  0  0
   -6.0740   17.1390  -31.2780 C   0  0  0  0  0  0  0  0  0  0  0  0
   -7.2070   23.8590  -30.4540 C   0  0  0  0  0  0  0  0  0  0  0  0
   -6.2300   24.9920  -30.1290 C   0  0  0  0  0  0  0  0  0  0  0  0
   -4.8800   24.4220  -29.6980 C   0  0  0  0  0  0  0  0  0  0  0  0
   -4.2440   23.6320  -30.8460 C   0  0  0  0  0  0  0  0  0  0  0  0
   -3.6231   18.9390  -32.4881 H   0  0  0  0  0  0  0  0  0  0  0  0
   -3.8499   18.0418  -34.0276 H   0  0  0  0  0  0  0  0  0  0  0  0
   -3.0030   19.6259  -34.0276 H   0  0  0  0  0  0  0  0  0  0  0  0
   -3.6043   21.5334  -32.4158 H   0  0  0  0  0  0  0  0  0  0  0  0
   -8.5467   22.0178  -31.8973 H   0  0  0  0  0  0  0  0  0  0  0  0
   -7.2970   19.1910  -33.9150 H   0  0  0  0  0  0  0  0  0  0  0  0
   -8.3850   20.4280  -34.2250 H   0  0  0  0  0  0  0  0  0  0  0  0
   -8.9210   20.0288  -31.6481 H   0  0  0  0  0  0  0  0  0  0  0  0
   -9.7463   19.1738  -33.0196 H   0  0  0  0  0  0  0  0  0  0  0  0
   -8.3196   17.9994  -30.8748 H   0  0  0  0  0  0  0  0  0  0  0  0
   -8.9325   17.2105  -32.4120 H   0  0  0  0  0  0  0  0  0  0  0  0
   -6.7802   15.7088  -33.2059 H   0  0  0  0  0  0  0  0  0  0  0  0
   -7.7507   16.8843  -34.1560 H   0  0  0  0  0  0  0  0  0  0  0  0
   -5.9577   16.9923  -34.1560 H   0  0  0  0  0  0  0  0  0  0  0  0
   -6.5320   17.4228  -30.3190 H   0  0  0  0  0  0  0  0  0  0  0  0
   -6.0101   16.0428  -31.3437 H   0  0  0  0  0  0  0  0  0  0  0  0
   -5.0640   17.5697  -31.3437 H   0  0  0  0  0  0  0  0  0  0  0  0
   -8.0909   24.2877  -30.9489 H   0  0  0  0  0  0  0  0  0  0  0  0
   -7.4702   23.3655  -29.5068 H   0  0  0  0  0  0  0  0  0  0  0  0
   -6.0907   25.6182  -31.0225 H   0  0  0  0  0  0  0  0  0  0  0  0
   -6.6425   25.5946  -29.3064 H   0  0  0  0  0  0  0  0  0  0  0  0
   -4.2121   25.2481  -29.4125 H   0  0  0  0  0  0  0  0  0  0  0  0
   -5.0336   23.7478  -28.8425 H   0  0  0  0  0  0  0  0  0  0  0  0
   -3.9013   24.3411  -31.6140 H   0  0  0  0  0  0  0  0  0  0  0  0
   -3.4087   23.0513  -30.4276 H   0  0  0  0  0  0  0  0  0  0  0  0
  1  2  1  0
  2  3  1  0
  3  4  2  0
  4  5  1  0
  5  6  2  0
  6  7  1  0
  7  8  2  0
  8  9  1  0
  9 10  1  0
 10 11  1  0
 11 12  1  0
 12 13  1  0
 12 14  1  0
  6 15  1  0
 15 16  1  0
 16 17  1  0
 17 18  1  0
  8  3  1  0
 18  5  1  0
  1 19  1  0
  1 20  1  0
  1 21  1  0
  4 22  1  0
  7 23  1  0
  9 24  1  0
  9 25  1  0
 10 26  1  0
 10 27  1  0
 11 28  1  0
 11 29  1  0
 13 30  1  0
 13 31  1  0
 13 32  1  0
 14 33  1  0
 14 34  1  0
 14 35  1  0
 15 36  1  0
 15 37  1  0
 16 38  1  0
 16 39  1  0
 17 40  1  0
 17 41  1  0
 18 42  1  0
 18 43  1  0
M  CHG  1   9   1
M  END
>  <UniqueID>  (25) 
24

>  <SMILES>  (25) 
COc1cc2c(cc1[NH2+]CCN(C)C)CCCC2

>  <Energy>  (25) 
43.38085378839444

>  <Genealogy>  (25) 
COc1cc2c(cc1[NH2+]CCN(C)C)CCCC2 (protonated)
COc1cc2c(cc1[NH2+]CCN(C)C)CCCC2 (3D coordinates assigned)
COc1cc2c(cc1[NH2+]CCN(C)C)CCCC2 (nonaromatic ring conformer: 43.38085378839444 kcal/mol)

>  <smiles>  (25) 
COc1cc2c(cc1NCCN(C)C)CCCC2

>  <score_type>  (25) 
oracle

>  <origin>  (25) 
adg

>  <m_score__min__energy>  (25) 
-5.9299999999999997

>  <m_primary>  (25) 
energy

$$$$
25:0
     RDKit          3D

 41 43  0  0  0  0  0  0  0  0999 V2000
   -4.0710   24.9230  -26.4530 C   0  0  0  0  0  0  0  0  0  0  0  0
   -3.9430   23.8070  -27.4840 C   0  0  0  0  0  0  0  0  0  0  0  0
   -2.5600   23.7100  -27.9750 N   0  0  0  0  0  0  0  0  0  0  0  0
   -1.5500   22.9880  -27.1840 C   0  0  0  0  0  0  0  0  0  0  0  0
   -1.8610   21.4950  -27.1460 C   0  0  0  0  0  0  0  0  0  0  0  0
   -2.2050   24.2670  -29.2590 C   0  0  0  0  0  0  0  0  0  0  0  0
   -1.0310   24.1380  -29.7010 O   0  0  0  0  0  0  0  0  0  0  0  0
   -3.2040   24.9130  -30.0620 N   0  0  0  0  0  0  0  0  0  0  0  0
   -4.4950   24.3860  -30.4010 C   0  0  0  0  0  0  0  0  0  0  0  0
   -5.6260   25.1660  -30.1380 C   0  0  0  0  0  0  0  0  0  0  0  0
   -6.8980   24.6990  -30.4710 C   0  0  0  0  0  0  0  0  0  0  0  0
   -7.0520   23.4540  -31.0840 C   0  0  0  0  0  0  0  0  0  0  0  0
   -5.9270   22.6650  -31.3830 C   0  0  0  0  0  0  0  0  0  0  0  0
   -6.0580   21.3480  -32.0530 C   0  0  0  0  0  0  0  0  0  0  0  0
   -5.5380   21.0420  -33.2750 N   0  0  0  0  0  0  0  0  0  0  0  0
   -5.9100   19.7690  -33.4490 C   0  0  0  0  0  0  0  0  0  0  0  0
   -5.6470   18.9740  -34.5150 N   0  0  0  0  0  0  0  0  0  0  0  0
   -6.1180   17.6890  -34.5040 C   0  0  0  0  0  0  0  0  0  0  0  0
   -6.8630   17.2040  -33.4010 C   0  0  0  0  0  0  0  0  0  0  0  0
   -7.1230   18.0500  -32.3050 C   0  0  0  0  0  0  0  0  0  0  0  0
   -6.6190   19.3430  -32.3750 C   0  0  0  0  0  0  0  0  0  0  0  0
   -6.7080   20.3250  -31.5130 O   0  0  0  0  0  0  0  0  0  0  0  0
   -4.6490   23.1450  -31.0430 C   0  0  0  0  0  0  0  0  0  0  0  0
   -4.0219   24.4947  -25.4410 H   0  0  0  0  0  0  0  0  0  0  0  0
   -3.2494   25.6421  -26.5871 H   0  0  0  0  0  0  0  0  0  0  0  0
   -5.0340   25.4374  -26.5871 H   0  0  0  0  0  0  0  0  0  0  0  0
   -4.2293   22.8518  -27.0198 H   0  0  0  0  0  0  0  0  0  0  0  0
   -4.6051   24.0319  -28.3331 H   0  0  0  0  0  0  0  0  0  0  0  0
   -0.5598   23.1391  -27.6385 H   0  0  0  0  0  0  0  0  0  0  0  0
   -1.5614   23.3779  -26.1555 H   0  0  0  0  0  0  0  0  0  0  0  0
   -1.9305   21.1614  -26.1001 H   0  0  0  0  0  0  0  0  0  0  0  0
   -2.8177   21.3067  -27.6553 H   0  0  0  0  0  0  0  0  0  0  0  0
   -1.0591   20.9403  -27.6553 H   0  0  0  0  0  0  0  0  0  0  0  0
   -5.5120   26.1530  -29.6660 H   0  0  0  0  0  0  0  0  0  0  0  0
   -7.7828   25.3140  -30.2497 H   0  0  0  0  0  0  0  0  0  0  0  0
   -8.0588   23.0883  -31.3344 H   0  0  0  0  0  0  0  0  0  0  0  0
   -4.9830   21.6330  -33.9320 H   0  0  0  0  0  0  0  0  0  0  0  0
   -5.9163   17.0271  -35.3591 H   0  0  0  0  0  0  0  0  0  0  0  0
   -7.2374   16.1697  -33.4003 H   0  0  0  0  0  0  0  0  0  0  0  0
   -7.6984   17.7030  -31.4341 H   0  0  0  0  0  0  0  0  0  0  0  0
   -3.7603   22.5424  -31.2822 H   0  0  0  0  0  0  0  0  0  0  0  0
  1  2  1  0
  2  3  1  0
  3  4  1  0
  4  5  1  0
  3  6  1  0
  6  7  2  0
  6  8  1  0
  8  9  1  0
  9 10  2  0
 10 11  1  0
 11 12  2  0
 12 13  1  0
 13 14  1  0
 14 15  2  0
 15 16  1  0
 16 17  2  0
 17 18  1  0
 18 19  2  0
 19 20  1  0
 20 21  2  0
 21 22  1  0
 13 23  2  0
 23  9  1  0
 22 14  1  0
 21 16  1  0
  1 24  1  0
  1 25  1  0
  1 26  1  0
  2 27  1  0
  2 28  1  0
  4 29  1  0
  4 30  1  0
  5 31  1  0
  5 32  1  0
  5 33  1  0
 10 34  1  0
 11 35  1  0
 12 36  1  0
 15 37  1  0
 18 38  1  0
 19 39  1  0
 20 40  1  0
 23 41  1  0
M  CHG  2   8  -1  15   1
M  END
>  <UniqueID>  (26) 
25

>  <SMILES>  (26) 
CCN(CC)C(=O)[N-]c1cccc(-c2[nH+]c3ncccc3o2)c1

>  <Energy>  (26) 
81.93426284502233

>  <Genealogy>  (26) 
CCN(CC)C(=O)[N-]c1cccc(-c2[nH+]c3ncccc3o2)c1 (protonated)
CCN(CC)C(=O)[N-]c1cccc(-c2[nH+]c3ncccc3o2)c1 (3D coordinates assigned)
CCN(CC)C(=O)[N-]c1cccc(-c2[nH+]c3ncccc3o2)c1 (optimized conformer: 81.93426284502233 kcal/mol)

>  <smiles>  (26) 
CCN(CC)C(=O)Nc1cccc(-c2nc3ncccc3o2)c1

>  <score_type>  (26) 
oracle

>  <origin>  (26) 
adg

>  <m_score__min__energy>  (26) 
-8.6999999999999993

>  <m_primary>  (26) 
energy

$$$$
26:0
     RDKit          3D

 29 32  0  0  0  0  0  0  0  0999 V2000
   -6.3930   15.7940  -34.0220 C   0  0  0  0  0  0  0  0  0  0  0  0
   -5.0510   16.1350  -34.2050 C   0  0  0  0  0  0  0  0  0  0  0  0
   -4.6020   17.3510  -33.7880 N   0  0  0  0  0  0  0  0  0  0  0  0
   -5.4450   18.2420  -33.1910 C   0  0  0  0  0  0  0  0  0  0  0  0
   -4.9850   19.4940  -32.7590 C   0  0  0  0  0  0  0  0  0  0  0  0
   -5.8660   20.4030  -32.1420 C   0  0  0  0  0  0  0  0  0  0  0  0
   -5.3810   21.7300  -31.6830 C   0  0  0  0  0  0  0  0  0  0  0  0
   -6.1200   22.9090  -31.9830 C   0  0  0  0  0  0  0  0  0  0  0  0
   -5.6700   24.1730  -31.5530 C   0  0  0  0  0  0  0  0  0  0  0  0
   -4.4840   24.2250  -30.8310 C   0  0  0  0  0  0  0  0  0  0  0  0
   -3.8700   25.3080  -30.3270 N   0  0  0  0  0  0  0  0  0  0  0  0
   -2.7670   24.8850  -29.7150 N   0  0  0  0  0  0  0  0  0  0  0  0
   -2.6800   23.5380  -29.8290 C   0  0  0  0  0  0  0  0  0  0  0  0
   -3.7720   23.1010  -30.5380 C   0  0  0  0  0  0  0  0  0  0  0  0
   -4.1790   21.8340  -30.9430 C   0  0  0  0  0  0  0  0  0  0  0  0
   -7.2140   20.0370  -31.9640 C   0  0  0  0  0  0  0  0  0  0  0  0
   -7.6750   18.7900  -32.3950 C   0  0  0  0  0  0  0  0  0  0  0  0
   -6.7970   17.8910  -33.0060 C   0  0  0  0  0  0  0  0  0  0  0  0
   -7.2360   16.6770  -33.4270 N   0  0  0  0  0  0  0  0  0  0  0  0
   -6.7653   14.8150  -34.3582 H   0  0  0  0  0  0  0  0  0  0  0  0
   -4.3604   15.4250  -34.6835 H   0  0  0  0  0  0  0  0  0  0  0  0
   -3.5950   17.5900  -33.9340 H   0  0  0  0  0  0  0  0  0  0  0  0
   -3.9294   19.7679  -32.9029 H   0  0  0  0  0  0  0  0  0  0  0  0
   -7.0546   22.8323  -32.5580 H   0  0  0  0  0  0  0  0  0  0  0  0
   -6.2379   25.0870  -31.7810 H   0  0  0  0  0  0  0  0  0  0  0  0
   -1.8760   22.9054  -29.4247 H   0  0  0  0  0  0  0  0  0  0  0  0
   -3.5856   20.9413  -30.6960 H   0  0  0  0  0  0  0  0  0  0  0  0
   -7.9103   20.7387  -31.4815 H   0  0  0  0  0  0  0  0  0  0  0  0
   -8.7308   18.5158  -32.2530 H   0  0  0  0  0  0  0  0  0  0  0  0
  1  2  2  0
  2  3  1  0
  3  4  2  0
  4  5  1  0
  5  6  2  0
  6  7  1  0
  7  8  2  0
  8  9  1  0
  9 10  2  0
 10 11  1  0
 11 12  1  0
 12 13  2  0
 13 14  1  0
 14 15  2  0
  6 16  1  0
 16 17  2  0
 17 18  1  0
 18 19  2  0
 19  1  1  0
 18  4  1  0
 15  7  1  0
 14 10  1  0
  1 20  1  0
  2 21  1  0
  3 22  1  0
  5 23  1  0
  8 24  1  0
  9 25  1  0
 13 26  1  0
 15 27  1  0
 16 28  1  0
 17 29  1  0
M  CHG  2   3   1  11  -1
M  END
>  <UniqueID>  (27) 
26

>  <SMILES>  (27) 
c1c[nH+]c2cc(-c3ccc4[n-]ncc4c3)ccc2n1

>  <Energy>  (27) 
80.68562750364181

>  <Genealogy>  (27) 
c1c[nH+]c2cc(-c3ccc4[n-]ncc4c3)ccc2n1 (protonated)
c1c[nH+]c2cc(-c3ccc4[n-]ncc4c3)ccc2n1 (3D coordinates assigned)
c1c[nH+]c2cc(-c3ccc4[n-]ncc4c3)ccc2n1 (optimized conformer: 80.68562750364181 kcal/mol)

>  <smiles>  (27) 
c1cnc2cc(-c3ccc4[nH]ncc4c3)ccc2n1

>  <score_type>  (27) 
oracle

>  <origin>  (27) 
adg

>  <m_score__min__energy>  (27) 
-9.0199999999999996

>  <m_primary>  (27) 
energy

$$$$
27:0
     RDKit          3D

 54 55  0  0  0  0  0  0  0  0999 V2000
   -9.1680   19.8050  -31.9530 C   0  0  0  0  0  0  0  0  0  0  0  0
   -8.7380   18.5530  -31.5040 C   0  0  0  0  0  0  0  0  0  0  0  0
   -7.4640   18.0860  -31.8450 C   0  0  0  0  0  0  0  0  0  0  0  0
   -6.6160   18.8660  -32.6500 C   0  0  0  0  0  0  0  0  0  0  0  0
   -5.2300   18.3830  -32.9830 C   0  0  0  0  0  0  0  0  0  0  0  0
   -4.4650   19.4500  -33.7740 C   0  0  0  0  0  0  0  0  0  0  0  0
   -3.6280   20.3350  -32.8380 C   0  0  0  0  0  0  0  0  0  0  0  0
   -3.9750   21.8290  -32.9690 C   0  0  0  0  0  0  0  0  0  0  0  0
   -4.7660   22.3120  -31.8250 N   0  0  0  0  0  0  0  0  0  0  0  0
   -5.9340   23.0780  -32.2890 C   0  0  0  0  0  0  0  0  0  0  0  0
   -6.8350   23.5100  -31.1110 C   0  0  0  0  0  0  0  0  0  0  0  0
   -6.1390   24.4530  -30.1160 C   0  0  0  0  0  0  0  0  0  0  0  0
   -5.1240   25.3900  -30.7870 C   0  0  0  0  0  0  0  0  0  0  0  0
   -3.7560   24.8860  -30.5930 N   0  0  0  0  0  0  0  0  0  0  0  0
   -3.5260   24.4760  -29.2020 C   0  0  0  0  0  0  0  0  0  0  0  0
   -2.8920   23.1130  -29.1760 C   0  0  0  0  0  0  0  0  0  0  0  0
   -3.3450   22.1410  -28.2670 C   0  0  0  0  0  0  0  0  0  0  0  0
   -2.7780   20.8610  -28.2650 C   0  0  0  0  0  0  0  0  0  0  0  0
   -1.7680   20.5410  -29.1750 C   0  0  0  0  0  0  0  0  0  0  0  0
   -1.3240   21.4980  -30.0920 C   0  0  0  0  0  0  0  0  0  0  0  0
   -1.8870   22.7780  -30.0980 C   0  0  0  0  0  0  0  0  0  0  0  0
   -7.0520   20.1280  -33.0870 C   0  0  0  0  0  0  0  0  0  0  0  0
   -8.3250   20.5920  -32.7430 C   0  0  0  0  0  0  0  0  0  0  0  0
  -10.1700   20.1710  -31.6846 H   0  0  0  0  0  0  0  0  0  0  0  0
   -9.4018   17.9345  -30.8821 H   0  0  0  0  0  0  0  0  0  0  0  0
   -7.1247   17.1047  -31.4817 H   0  0  0  0  0  0  0  0  0  0  0  0
   -4.6885   18.1662  -32.0504 H   0  0  0  0  0  0  0  0  0  0  0  0
   -5.3082   17.4734  -33.5965 H   0  0  0  0  0  0  0  0  0  0  0  0
   -3.7965   18.9542  -34.4933 H   0  0  0  0  0  0  0  0  0  0  0  0
   -5.1929   20.0858  -34.2992 H   0  0  0  0  0  0  0  0  0  0  0  0
   -3.8101   20.0207  -31.7997 H   0  0  0  0  0  0  0  0  0  0  0  0
   -2.5718   20.2123  -33.1196 H   0  0  0  0  0  0  0  0  0  0  0  0
   -3.0410   22.4073  -33.0249 H   0  0  0  0  0  0  0  0  0  0  0  0
   -4.5780   21.9600  -33.8796 H   0  0  0  0  0  0  0  0  0  0  0  0
   -5.0980   21.4920  -31.2640 H   0  0  0  0  0  0  0  0  0  0  0  0
   -4.1710   22.9200  -31.2210 H   0  0  0  0  0  0  0  0  0  0  0  0
   -5.5843   23.9762  -32.8190 H   0  0  0  0  0  0  0  0  0  0  0  0
   -6.5253   22.4335  -32.9561 H   0  0  0  0  0  0  0  0  0  0  0  0
   -7.7173   24.0250  -31.5189 H   0  0  0  0  0  0  0  0  0  0  0  0
   -7.1012   22.5974  -30.5576 H   0  0  0  0  0  0  0  0  0  0  0  0
   -6.9055   25.0652  -29.6183 H   0  0  0  0  0  0  0  0  0  0  0  0
   -5.5858   23.8266  -29.4008 H   0  0  0  0  0  0  0  0  0  0  0  0
   -5.3401   25.4471  -31.8641 H   0  0  0  0  0  0  0  0  0  0  0  0
   -5.2047   26.3884  -30.3323 H   0  0  0  0  0  0  0  0  0  0  0  0
   -3.0960   25.6730  -30.8010 H   0  0  0  0  0  0  0  0  0  0  0  0
   -2.8578   25.1999  -28.7127 H   0  0  0  0  0  0  0  0  0  0  0  0
   -4.4869   24.4421  -28.6676 H   0  0  0  0  0  0  0  0  0  0  0  0
   -4.1471   22.3868  -27.5555 H   0  0  0  0  0  0  0  0  0  0  0  0
   -3.1285   20.1062  -27.5457 H   0  0  0  0  0  0  0  0  0  0  0  0
   -1.3218   19.5356  -29.1701 H   0  0  0  0  0  0  0  0  0  0  0  0
   -0.5304   21.2438  -30.8101 H   0  0  0  0  0  0  0  0  0  0  0  0
   -1.5414   23.5252  -30.8275 H   0  0  0  0  0  0  0  0  0  0  0  0
   -6.3889   20.7537  -33.7025 H   0  0  0  0  0  0  0  0  0  0  0  0
   -8.6638   21.5777  -33.0944 H   0  0  0  0  0  0  0  0  0  0  0  0
  1  2  2  0
  2  3  1  0
  3  4  2  0
  4  5  1  0
  5  6  1  0
  6  7  1  0
  7  8  1  0
  8  9  1  0
  9 10  1  0
 10 11  1  0
 11 12  1  0
 12 13  1  0
 13 14  1  0
 14 15  1  0
 15 16  1  0
 16 17  2  0
 17 18  1  0
 18 19  2  0
 19 20  1  0
 20 21  2  0
  4 22  1  0
 22 23  2  0
 23  1  1  0
 21 16  1  0
  1 24  1  0
  2 25  1  0
  3 26  1  0
  5 27  1  0
  5 28  1  0
  6 29  1  0
  6 30  1  0
  7 31  1  0
  7 32  1  0
  8 33  1  0
  8 34  1  0
  9 35  1  0
  9 36  1  0
 10 37  1  0
 10 38  1  0
 11 39  1  0
 11 40  1  0
 12 41  1  0
 12 42  1  0
 13 43  1  0
 13 44  1  0
 14 45  1  0
 15 46  1  0
 15 47  1  0
 17 48  1  0
 18 49  1  0
 19 50  1  0
 20 51  1  0
 21 52  1  0
 22 53  1  0
 23 54  1  0
M  CHG  1   9   1
M  END
>  <UniqueID>  (28) 
27

>  <SMILES>  (28) 
c1ccc(CCCC[NH2+]CCCCNCc2ccccc2)cc1

>  <Energy>  (28) 
42.741348280911275

>  <Genealogy>  (28) 
c1ccc(CCCC[NH2+]CCCCNCc2ccccc2)cc1 (protonated)
c1ccc(CCCC[NH2+]CCCCNCc2ccccc2)cc1 (3D coordinates assigned)
c1ccc(CCCC[NH2+]CCCCNCc2ccccc2)cc1 (optimized conformer: 42.741348280911275 kcal/mol)

>  <smiles>  (28) 
c1ccc(CCCCNCCCCNCc2ccccc2)cc1

>  <score_type>  (28) 
oracle

>  <origin>  (28) 
adg

>  <m_score__min__energy>  (28) 
-7.4299999999999997

>  <m_primary>  (28) 
energy

$$$$
28:0
     RDKit          3D

 30 32  0  0  0  0  0  0  0  0999 V2000
   -9.1220   21.0040  -31.7850 C   0  0  0  0  0  0  0  0  0  0  0  0
   -7.8310   20.8340  -31.2190 O   0  0  0  0  0  0  0  0  0  0  0  0
   -6.6630   20.6610  -31.9460 N   0  0  0  0  0  0  0  0  0  0  0  0
   -5.6380   21.5550  -31.9640 C   0  0  0  0  0  0  0  0  0  0  0  0
   -5.6600   22.8720  -31.2850 C   0  0  0  0  0  0  0  0  0  0  0  0
   -6.8680   23.5660  -31.0950 C   0  0  0  0  0  0  0  0  0  0  0  0
   -6.8740   24.8130  -30.4610 C   0  0  0  0  0  0  0  0  0  0  0  0
   -5.6770   25.3790  -30.0170 C   0  0  0  0  0  0  0  0  0  0  0  0
   -4.4710   24.7020  -30.2110 C   0  0  0  0  0  0  0  0  0  0  0  0
   -4.4600   23.4560  -30.8460 C   0  0  0  0  0  0  0  0  0  0  0  0
   -4.5700   21.1040  -32.6660 N   0  0  0  0  0  0  0  0  0  0  0  0
   -4.9440   19.8930  -33.1050 C   0  0  0  0  0  0  0  0  0  0  0  0
   -4.2010   19.0090  -33.8820 C   0  0  0  0  0  0  0  0  0  0  0  0
   -4.7890   17.7810  -34.2290 C   0  0  0  0  0  0  0  0  0  0  0  0
   -3.8670   16.6490  -35.2090 Cl  0  0  0  0  0  0  0  0  0  0  0  0
   -6.1020   17.4720  -33.7910 C   0  0  0  0  0  0  0  0  0  0  0  0
   -6.8590   15.9430  -34.2180 Cl  0  0  0  0  0  0  0  0  0  0  0  0
   -6.8270   18.3910  -33.0070 C   0  0  0  0  0  0  0  0  0  0  0  0
   -6.2140   19.6070  -32.6750 C   0  0  0  0  0  0  0  0  0  0  0  0
   -9.8653   21.1019  -30.9800 H   0  0  0  0  0  0  0  0  0  0  0  0
   -9.1332   21.9114  -32.4067 H   0  0  0  0  0  0  0  0  0  0  0  0
   -9.3677   20.1305  -32.4067 H   0  0  0  0  0  0  0  0  0  0  0  0
   -7.8130   23.1262  -31.4466 H   0  0  0  0  0  0  0  0  0  0  0  0
   -7.8232   25.3486  -30.3119 H   0  0  0  0  0  0  0  0  0  0  0  0
   -5.6841   26.3576  -29.5147 H   0  0  0  0  0  0  0  0  0  0  0  0
   -3.5281   25.1496  -29.8637 H   0  0  0  0  0  0  0  0  0  0  0  0
   -3.5065   22.9303  -31.0026 H   0  0  0  0  0  0  0  0  0  0  0  0
   -3.6620   21.5900  -32.8420 H   0  0  0  0  0  0  0  0  0  0  0  0
   -3.1839   19.2641  -34.2144 H   0  0  0  0  0  0  0  0  0  0  0  0
   -7.8466   18.1605  -32.6647 H   0  0  0  0  0  0  0  0  0  0  0  0
  1  2  1  0
  2  3  1  0
  3  4  1  0
  4  5  1  0
  5  6  2  0
  6  7  1  0
  7  8  2  0
  8  9  1  0
  9 10  2  0
  4 11  2  0
 11 12  1  0
 12 13  2  0
 13 14  1  0
 14 15  1  0
 14 16  2  0
 16 17  1  0
 16 18  1  0
 18 19  2  0
 19  3  1  0
 10  5  1  0
 19 12  1  0
  1 20  1  0
  1 21  1  0
  1 22  1  0
  6 23  1  0
  7 24  1  0
  8 25  1  0
  9 26  1  0
 10 27  1  0
 11 28  1  0
 13 29  1  0
 18 30  1  0
M  CHG  1  11   1
M  END
>  <UniqueID>  (29) 
28

>  <SMILES>  (29) 
COn1c(-c2ccccc2)[nH+]c2cc(Cl)c(Cl)cc21

>  <Energy>  (29) 
79.59461511155737

>  <Genealogy>  (29) 
COn1c(-c2ccccc2)[nH+]c2cc(Cl)c(Cl)cc21 (protonated)
COn1c(-c2ccccc2)[nH+]c2cc(Cl)c(Cl)cc21 (3D coordinates assigned)
COn1c(-c2ccccc2)[nH+]c2cc(Cl)c(Cl)cc21 (optimized conformer: 79.59461511155737 kcal/mol)

>  <smiles>  (29) 
COn1c(-c2ccccc2)nc2cc(Cl)c(Cl)cc21

>  <score_type>  (29) 
oracle

>  <origin>  (29) 
adg

>  <m_score__min__energy>  (29) 
-6.5700000000000003

>  <m_primary>  (29) 
energy

$$$$
29:0
     RDKit          3D

 40 43  0  0  0  0  0  0  0  0999 V2000
   -2.1240   15.1960  -36.1900 C   0  0  0  0  0  0  0  0  0  0  0  0
   -2.3170   15.4310  -34.7740 N   0  0  0  0  0  0  0  0  0  0  0  0
   -1.4220   14.7950  -33.8120 C   0  0  0  0  0  0  0  0  0  0  0  0
   -3.3680   16.2730  -34.3210 C   0  0  0  0  0  0  0  0  0  0  0  0
   -4.5840   15.7300  -34.0090 C   0  0  0  0  0  0  0  0  0  0  0  0
   -5.5780   16.5800  -33.5730 C   0  0  0  0  0  0  0  0  0  0  0  0
   -5.3910   17.9410  -33.4410 C   0  0  0  0  0  0  0  0  0  0  0  0
   -4.1560   18.4600  -33.7610 C   0  0  0  0  0  0  0  0  0  0  0  0
   -3.1500   17.6280  -34.1990 C   0  0  0  0  0  0  0  0  0  0  0  0
   -3.9100   19.8050  -33.6510 C   0  0  0  0  0  0  0  0  0  0  0  0
   -2.8160   20.3960  -33.9170 N   0  0  0  0  0  0  0  0  0  0  0  0
   -4.9370   20.5740  -33.2150 N   0  0  0  0  0  0  0  0  0  0  0  0
   -6.1380   20.0350  -32.9090 C   0  0  0  0  0  0  0  0  0  0  0  0
   -6.4190   18.7350  -33.0010 N   0  0  0  0  0  0  0  0  0  0  0  0
   -7.6420   18.0780  -32.6980 C   0  0  0  0  0  0  0  0  0  0  0  0
   -8.7370   18.9960  -32.2510 C   0  0  0  0  0  0  0  0  0  0  0  0
   -8.3940   20.4120  -32.1500 C   0  0  0  0  0  0  0  0  0  0  0  0
   -9.3720   21.2890  -31.7140 C   0  0  0  0  0  0  0  0  0  0  0  0
   -9.1050   22.6390  -31.6040 C   0  0  0  0  0  0  0  0  0  0  0  0
   -7.8840   23.1580  -31.9140 C   0  0  0  0  0  0  0  0  0  0  0  0
   -6.9000   22.3110  -32.3470 C   0  0  0  0  0  0  0  0  0  0  0  0
   -7.1680   20.9610  -32.4560 C   0  0  0  0  0  0  0  0  0  0  0  0
   -1.4316   14.3529  -36.3307 H   0  0  0  0  0  0  0  0  0  0  0  0
   -3.0910   14.9583  -36.6574 H   0  0  0  0  0  0  0  0  0  0  0  0
   -1.7028   16.0983  -36.6574 H   0  0  0  0  0  0  0  0  0  0  0  0
   -1.7543   15.0311  -32.7903 H   0  0  0  0  0  0  0  0  0  0  0  0
   -1.4389   13.7052  -33.9604 H   0  0  0  0  0  0  0  0  0  0  0  0
   -0.3984   15.1694  -33.9604 H   0  0  0  0  0  0  0  0  0  0  0  0
   -4.7632   14.6488  -34.1030 H   0  0  0  0  0  0  0  0  0  0  0  0
   -6.5609   16.1559  -33.3198 H   0  0  0  0  0  0  0  0  0  0  0  0
   -2.1656   18.0480  -34.4532 H   0  0  0  0  0  0  0  0  0  0  0  0
   -2.7270   21.1710  -34.5850 H   0  0  0  0  0  0  0  0  0  0  0  0
   -7.9822   17.5489  -33.6004 H   0  0  0  0  0  0  0  0  0  0  0  0
   -7.4363   17.3985  -31.8578 H   0  0  0  0  0  0  0  0  0  0  0  0
   -9.5662   18.9024  -32.9678 H   0  0  0  0  0  0  0  0  0  0  0  0
   -8.9840   18.6805  -31.2266 H   0  0  0  0  0  0  0  0  0  0  0  0
  -10.3701   20.9072  -31.4530 H   0  0  0  0  0  0  0  0  0  0  0  0
   -9.9004   23.3146  -31.2563 H   0  0  0  0  0  0  0  0  0  0  0  0
   -7.6928   24.2370  -31.8181 H   0  0  0  0  0  0  0  0  0  0  0  0
   -5.9050   22.7021  -32.6057 H   0  0  0  0  0  0  0  0  0  0  0  0
  1  2  1  0
  2  3  1  0
  2  4  1  0
  4  5  2  0
  5  6  1  0
  6  7  2  0
  7  8  1  0
  8  9  2  0
  8 10  1  0
 10 11  2  3
 10 12  1  0
 12 13  2  0
 13 14  1  0
 14 15  1  0
 15 16  1  0
 16 17  1  0
 17 18  2  0
 18 19  1  0
 19 20  2  0
 20 21  1  0
 21 22  2  0
  9  4  1  0
 22 13  1  0
 14  7  1  0
 22 17  1  0
  1 23  1  0
  1 24  1  0
  1 25  1  0
  3 26  1  0
  3 27  1  0
  3 28  1  0
  5 29  1  0
  6 30  1  0
  9 31  1  0
 11 32  1  0
 15 33  1  0
 15 34  1  0
 16 35  1  0
 16 36  1  0
 18 37  1  0
 19 38  1  0
 20 39  1  0
 21 40  1  0
M  END
>  <smiles>  (30) 
CN(C)c1ccc2c(c1)c(=N)nc1n2CCc2ccccc2-1

>  <score_type>  (30) 
oracle

>  <origin>  (30) 
adg

>  <m_score__min__energy>  (30) 
-7.7300000000000004

>  <m_primary>  (30) 
energy

$$$$
30:0
     RDKit          3D

 26 28  0  0  0  0  0  0  0  0999 V2000
   -4.9590   25.3050  -31.2160 O   0  0  0  0  0  0  0  0  0  0  0  0
   -4.3490   24.6310  -30.3430 C   0  0  0  0  0  0  0  0  0  0  0  0
   -3.3060   25.1760  -29.7240 O   0  0  0  0  0  0  0  0  0  0  0  0
   -2.6210   24.5470  -28.7750 C   0  0  0  0  0  0  0  0  0  0  0  0
   -1.5300   25.1770  -28.1650 C   0  0  0  0  0  0  0  0  0  0  0  0
   -0.8110   24.5170  -27.1630 C   0  0  0  0  0  0  0  0  0  0  0  0
   -1.1780   23.2270  -26.7670 C   0  0  0  0  0  0  0  0  0  0  0  0
   -2.2670   22.5880  -27.3710 C   0  0  0  0  0  0  0  0  0  0  0  0
   -2.9920   23.2460  -28.3760 C   0  0  0  0  0  0  0  0  0  0  0  0
   -4.0830   22.6410  -29.0040 C   0  0  0  0  0  0  0  0  0  0  0  0
   -4.7780   23.3280  -30.0100 C   0  0  0  0  0  0  0  0  0  0  0  0
   -5.9320   22.6830  -30.6870 C   0  0  0  0  0  0  0  0  0  0  0  0
   -7.2310   22.8020  -30.1640 C   0  0  0  0  0  0  0  0  0  0  0  0
   -8.3010   22.1940  -30.8250 C   0  0  0  0  0  0  0  0  0  0  0  0
   -8.0860   21.4950  -31.9700 N   0  0  0  0  0  0  0  0  0  0  0  0
   -6.8420   21.3670  -32.5030 C   0  0  0  0  0  0  0  0  0  0  0  0
   -5.7450   21.9600  -31.8760 C   0  0  0  0  0  0  0  0  0  0  0  0
   -1.2379   26.1916  -28.4737 H   0  0  0  0  0  0  0  0  0  0  0  0
    0.0459   25.0143  -26.6850 H   0  0  0  0  0  0  0  0  0  0  0  0
   -0.6090   22.7129  -25.9784 H   0  0  0  0  0  0  0  0  0  0  0  0
   -2.5536   21.5729  -27.0587 H   0  0  0  0  0  0  0  0  0  0  0  0
   -4.3964   21.6283  -28.7103 H   0  0  0  0  0  0  0  0  0  0  0  0
   -7.4043   23.3711  -29.2387 H   0  0  0  0  0  0  0  0  0  0  0  0
   -9.3191   22.2813  -30.4178 H   0  0  0  0  0  0  0  0  0  0  0  0
   -6.6995   20.7943  -33.4313 H   0  0  0  0  0  0  0  0  0  0  0  0
   -4.7395   21.8615  -32.3110 H   0  0  0  0  0  0  0  0  0  0  0  0
  1  2  2  0
  2  3  1  0
  3  4  1  0
  4  5  2  0
  5  6  1  0
  6  7  2  0
  7  8  1  0
  8  9  2  0
  9 10  1  0
 10 11  2  0
 11 12  1  0
 12 13  2  0
 13 14  1  0
 14 15  2  0
 15 16  1  0
 16 17  2  0
 11  2  1  0
 17 12  1  0
  9  4  1  0
  5 18  1  0
  6 19  1  0
  7 20  1  0
  8 21  1  0
 10 22  1  0
 13 23  1  0
 14 24  1  0
 16 25  1  0
 17 26  1  0
M  END
>  <UniqueID>  (31) 
29

>  <SMILES>  (31) 
O=c1oc2ccccc2cc1-c1ccncc1

>  <Energy>  (31) 
40.64058066924926

>  <Genealogy>  (31) 
O=c1oc2ccccc2cc1-c1ccncc1 (3D coordinates assigned)
O=c1oc2ccccc2cc1-c1ccncc1 (optimized conformer: 40.64058066924926 kcal/mol)

>  <smiles>  (31) 
O=c1oc2ccccc2cc1-c1ccncc1

>  <score_type>  (31) 
oracle

>  <origin>  (31) 
adg

>  <m_score__min__energy>  (31) 
-6.8499999999999996

>  <m_primary>  (31) 
energy

$$$$
31:0
     RDKit          3D

 32 34  0  0  0  0  0  0  0  0999 V2000
   -6.4180   17.3960  -31.9760 C   0  0  0  0  0  0  0  0  0  0  0  0
   -6.2240   16.9880  -33.2900 C   0  0  0  0  0  0  0  0  0  0  0  0
   -6.0680   18.3650  -34.2420 S   0  0  0  0  0  0  0  0  0  0  0  0
   -6.2520   19.4160  -32.9410 C   0  0  0  0  0  0  0  0  0  0  0  0
   -6.2380   20.9140  -33.0360 C   0  0  0  0  0  0  0  0  0  0  0  0
   -6.1090   21.5520  -31.7050 N   0  0  2  0  0  0  0  0  0  0  0  0
   -7.3360   22.3030  -31.3490 C   0  0  0  0  0  0  0  0  0  0  0  0
   -7.3020   22.7770  -29.8800 C   0  0  0  0  0  0  0  0  0  0  0  0
   -5.8770   23.0450  -29.3670 C   0  0  0  0  0  0  0  0  0  0  0  0
   -4.9540   23.4730  -30.5210 C   0  0  0  0  0  0  0  0  0  0  0  0
   -3.5910   23.9770  -30.0800 C   0  0  0  0  0  0  0  0  0  0  0  0
   -3.8610   25.2930  -30.5040 O   0  0  0  0  0  0  0  0  0  0  0  0
   -5.1440   24.9220  -30.9480 C   0  0  0  0  0  0  0  0  0  0  0  0
   -4.9150   22.4400  -31.6860 C   0  0  0  0  0  0  0  0  0  0  0  0
   -6.4340   18.7420  -31.7850 N   0  0  0  0  0  0  0  0  0  0  0  0
   -6.5492   16.6816  -31.1499 H   0  0  0  0  0  0  0  0  0  0  0  0
   -6.1802   15.9477  -33.6448 H   0  0  0  0  0  0  0  0  0  0  0  0
   -5.3877   21.2225  -33.6619 H   0  0  0  0  0  0  0  0  0  0  0  0
   -7.1930   21.2361  -33.4767 H   0  0  0  0  0  0  0  0  0  0  0  0
   -5.9610   20.7950  -30.9940 H   0  0  0  0  0  0  0  0  0  0  0  0
   -7.4212   23.1810  -32.0062 H   0  0  0  0  0  0  0  0  0  0  0  0
   -8.1998   21.6339  -31.4762 H   0  0  0  0  0  0  0  0  0  0  0  0
   -7.8844   23.7065  -29.7982 H   0  0  0  0  0  0  0  0  0  0  0  0
   -7.7267   21.9703  -29.2644 H   0  0  0  0  0  0  0  0  0  0  0  0
   -5.9092   23.8465  -28.6143 H   0  0  0  0  0  0  0  0  0  0  0  0
   -5.4815   22.1195  -28.9231 H   0  0  0  0  0  0  0  0  0  0  0  0
   -3.4228   23.8923  -28.9962 H   0  0  0  0  0  0  0  0  0  0  0  0
   -2.6904   23.4717  -30.4589 H   0  0  0  0  0  0  0  0  0  0  0  0
   -5.9576   25.4333  -30.4127 H   0  0  0  0  0  0  0  0  0  0  0  0
   -5.4292   25.1366  -31.9885 H   0  0  0  0  0  0  0  0  0  0  0  0
   -4.8673   22.9863  -32.6396 H   0  0  0  0  0  0  0  0  0  0  0  0
   -4.0298   21.8041  -31.5374 H   0  0  0  0  0  0  0  0  0  0  0  0
  1  2  2  0
  2  3  1  0
  3  4  1  0
  4  5  1  0
  5  6  1  0
  6  7  1  0
  7  8  1  0
  8  9  1  0
  9 10  1  0
 10 11  1  0
 11 12  1  0
 12 13  1  0
 10 14  1  0
  4 15  2  0
 15  1  1  0
 14  6  1  0
 13 10  1  0
  1 16  1  0
  2 17  1  0
  5 18  1  0
  5 19  1  0
  6 20  1  1
  7 21  1  0
  7 22  1  0
  8 23  1  0
  8 24  1  0
  9 25  1  0
  9 26  1  0
 11 27  1  0
 11 28  1  0
 13 29  1  0
 13 30  1  0
 14 31  1  0
 14 32  1  0
M  CHG  1   6   1
M  END
>  <UniqueID>  (32) 
30

>  <SMILES>  (32) 
c1csc(C[N@@H+]2CCCC3(COC3)C2)n1

>  <Energy>  (32) 
133.8243859334889

>  <Genealogy>  (32) 
c1csc(C[NH+]2CCCC3(COC3)C2)n1 (protonated)
c1csc(C[N@@H+]2CCCC3(COC3)C2)n1 (chirality)
c1csc(C[N@@H+]2CCCC3(COC3)C2)n1 (3D coordinates assigned)
c1csc(C[N@@H+]2CCCC3(COC3)C2)n1 (nonaromatic ring conformer: 133.8243859334889 kcal/mol)

>  <smiles>  (32) 
c1csc(CN2CCCC3(COC3)C2)n1

>  <score_type>  (32) 
oracle

>  <origin>  (32) 
adg

>  <m_score__min__energy>  (32) 
-5.8799999999999999

>  <m_primary>  (32) 
energy

$$$$
32:0
     RDKit          3D

 49 52  0  0  1  0  0  0  0  0999 V2000
   -4.9370   25.2640  -30.0890 C   0  0  0  0  0  0  0  0  0  0  0  0
   -3.5020   25.2870  -30.1770 O   0  0  0  0  0  0  0  0  0  0  0  0
   -2.8530   24.1520  -29.7240 C   0  0  0  0  0  0  0  0  0  0  0  0
   -2.1320   24.1000  -28.5440 C   0  0  0  0  0  0  0  0  0  0  0  0
   -2.0200   25.2150  -27.6750 N   0  0  0  0  0  0  0  0  0  0  0  0
   -1.1480   26.3560  -27.9350 C   0  0  0  0  0  0  0  0  0  0  0  0
   -0.0650   26.4470  -26.8710 C   0  0  0  0  0  0  0  0  0  0  0  0
   -0.6060   26.1150  -25.6250 O   0  0  0  0  0  0  0  0  0  0  0  0
   -1.9710   26.3460  -25.5730 C   0  0  0  0  0  0  0  0  0  0  0  0
   -2.7650   25.3190  -26.4170 C   0  0  0  0  0  0  0  0  0  0  0  0
   -1.5580   22.9030  -28.2610 N   0  0  0  0  0  0  0  0  0  0  0  0
   -1.6690   21.8260  -29.0600 C   0  0  0  0  0  0  0  0  0  0  0  0
   -1.0570   20.5410  -28.7450 C   0  0  0  0  0  0  0  0  0  0  0  0
   -1.4450   19.7540  -27.6800 C   0  0  0  0  0  0  0  0  0  0  0  0
   -0.8240   18.5360  -27.4350 C   0  0  0  0  0  0  0  0  0  0  0  0
    0.1850   18.0540  -28.2140 C   0  0  0  0  0  0  0  0  0  0  0  0
    1.0280   16.3940  -27.8760 Br  0  0  0  0  0  0  0  0  0  0  0  0
    0.5870   18.8350  -29.2890 C   0  0  0  0  0  0  0  0  0  0  0  0
   -0.0300   20.0410  -29.5290 C   0  0  0  0  0  0  0  0  0  0  0  0
   -2.3770   21.8900  -30.2110 N   0  0  0  0  0  0  0  0  0  0  0  0
   -2.9740   23.0360  -30.5610 C   0  0  0  0  0  0  0  0  0  0  0  0
   -3.6530   23.0730  -31.6430 N   0  0  0  0  0  0  0  0  0  0  0  0
   -4.7170   22.1730  -31.9260 C   0  0  0  0  0  0  0  0  0  0  0  0
   -4.5220   20.9000  -32.4230 C   0  0  0  0  0  0  0  0  0  0  0  0
   -5.5870   20.0640  -32.6820 C   0  0  0  0  0  0  0  0  0  0  0  0
   -6.8780   20.4850  -32.4480 C   0  0  0  0  0  0  0  0  0  0  0  0
   -7.1050   21.7680  -31.9440 C   0  0  0  0  0  0  0  0  0  0  0  0
   -6.0340   22.6030  -31.6870 C   0  0  0  0  0  0  0  0  0  0  0  0
   -5.2395   25.2592  -29.0314 H   0  0  0  0  0  0  0  0  0  0  0  0
   -5.3491   26.1557  -30.5841 H   0  0  0  0  0  0  0  0  0  0  0  0
   -5.3203   24.3596  -30.5841 H   0  0  0  0  0  0  0  0  0  0  0  0
   -0.6776   26.2355  -28.9220 H   0  0  0  0  0  0  0  0  0  0  0  0
   -1.7487   27.2772  -27.9133 H   0  0  0  0  0  0  0  0  0  0  0  0
    0.7486   25.7482  -27.1154 H   0  0  0  0  0  0  0  0  0  0  0  0
    0.3303   27.4730  -26.8373 H   0  0  0  0  0  0  0  0  0  0  0  0
   -2.3031   26.2784  -24.5265 H   0  0  0  0  0  0  0  0  0  0  0  0
   -2.1625   27.3470  -25.9870 H   0  0  0  0  0  0  0  0  0  0  0  0
   -2.8032   24.3450  -25.9073 H   0  0  0  0  0  0  0  0  0  0  0  0
   -3.8084   25.6291  -26.5759 H   0  0  0  0  0  0  0  0  0  0  0  0
   -1.0060   22.7730  -27.4020 H   0  0  0  0  0  0  0  0  0  0  0  0
   -2.2547   20.0949  -27.0180 H   0  0  0  0  0  0  0  0  0  0  0  0
   -1.1605   17.9357  -26.5768 H   0  0  0  0  0  0  0  0  0  0  0  0
    1.3976   18.4901  -29.9478 H   0  0  0  0  0  0  0  0  0  0  0  0
    0.3096   20.6390  -30.3875 H   0  0  0  0  0  0  0  0  0  0  0  0
   -3.4984   20.5464  -32.6158 H   0  0  0  0  0  0  0  0  0  0  0  0
   -5.4050   19.0541  -33.0781 H   0  0  0  0  0  0  0  0  0  0  0  0
   -7.7249   19.8148  -32.6568 H   0  0  0  0  0  0  0  0  0  0  0  0
   -8.1320   22.1123  -31.7525 H   0  0  0  0  0  0  0  0  0  0  0  0
   -6.2138   23.6136  -31.2917 H   0  0  0  0  0  0  0  0  0  0  0  0
  1  2  1  0
  2  3  1  0
  3  4  2  0
  4  5  1  0
  5  6  1  0
  6  7  1  0
  7  8  1  0
  8  9  1  0
  9 10  1  0
  4 11  1  0
 11 12  1  0
 12 13  1  0
 13 14  2  0
 14 15  1  0
 15 16  2  0
 16 17  1  0
 16 18  1  0
 18 19  2  0
 12 20  2  0
 20 21  1  0
 21 22  2  0
 22 23  1  0
 23 24  2  0
 24 25  1  0
 25 26  2  0
 26 27  1  0
 27 28  2  0
 21  3  1  0
 28 23  1  0
 10  5  1  0
 19 13  1  0
  1 29  1  0
  1 30  1  0
  1 31  1  0
  6 32  1  0
  6 33  1  0
  7 34  1  0
  7 35  1  0
  9 36  1  0
  9 37  1  0
 10 38  1  0
 10 39  1  0
 11 40  1  0
 14 41  1  0
 15 42  1  0
 18 43  1  0
 19 44  1  0
 24 45  1  0
 25 46  1  0
 26 47  1  0
 27 48  1  0
 28 49  1  0
M  END
>  <smiles>  (33) 
COc1c(N2CCOCC2)[nH]c(-c2ccc(Br)cc2)nc1=Nc1ccccc1

>  <score_type>  (33) 
oracle

>  <origin>  (33) 
adg

>  <m_score__min__energy>  (33) 
-8.3300000000000001

>  <m_primary>  (33) 
energy

$$$$
33:0
     RDKit          3D

 51 53  0  0  0  0  0  0  0  0999 V2000
   -3.2710   21.7620  -33.0050 C   0  0  0  0  0  0  0  0  0  0  0  0
   -3.7670   22.7320  -32.0880 O   0  0  0  0  0  0  0  0  0  0  0  0
   -5.0480   22.7110  -31.5110 C   0  0  0  0  0  0  0  0  0  0  0  0
   -5.9230   21.6260  -31.7180 C   0  0  0  0  0  0  0  0  0  0  0  0
   -7.1840   21.6040  -31.1230 C   0  0  0  0  0  0  0  0  0  0  0  0
   -7.5920   22.6620  -30.3160 C   0  0  0  0  0  0  0  0  0  0  0  0
   -6.7430   23.7470  -30.1010 C   0  0  0  0  0  0  0  0  0  0  0  0
   -5.4670   23.7950  -30.6960 C   0  0  0  0  0  0  0  0  0  0  0  0
   -4.5970   24.9730  -30.4430 C   0  0  0  0  0  0  0  0  0  0  0  0
   -5.0750   26.1370  -30.5420 O   0  0  0  0  0  0  0  0  0  0  0  0
   -3.2150   24.8050  -30.0990 N   0  0  0  0  0  0  0  0  0  0  0  0
   -2.6750   24.9250  -28.7460 C   0  0  0  0  0  0  0  0  0  0  0  0
   -2.0420   23.5920  -28.2430 C   0  0  1  0  0  0  0  0  0  0  0  0
   -1.3570   23.8560  -26.8740 C   0  0  0  0  0  0  0  0  0  0  0  0
   -1.8910   25.0240  -26.2520 O   0  0  0  0  0  0  0  0  0  0  0  0
   -1.1970   25.8220  -25.3330 C   0  0  0  0  0  0  0  0  0  0  0  0
   -1.2280   27.2100  -25.4940 C   0  0  0  0  0  0  0  0  0  0  0  0
   -0.5510   28.0360  -24.5950 C   0  0  0  0  0  0  0  0  0  0  0  0
    0.1550   27.4620  -23.5380 C   0  0  0  0  0  0  0  0  0  0  0  0
    0.1820   26.1090  -23.3890 N   0  0  0  0  0  0  0  0  0  0  0  0
   -0.4710   25.2850  -24.2530 C   0  0  0  0  0  0  0  0  0  0  0  0
   -3.1930   22.5450  -28.0700 C   0  0  0  0  0  0  0  0  0  0  0  0
   -2.7420   21.1180  -28.3990 C   0  0  0  0  0  0  0  0  0  0  0  0
   -2.1910   21.0190  -29.8360 C   0  0  0  0  0  0  0  0  0  0  0  0
   -1.6060   22.2780  -30.3370 N   0  0  0  0  0  0  0  0  0  0  0  0
   -0.9820   23.0620  -29.2630 C   0  0  0  0  0  0  0  0  0  0  0  0
   -2.8392   20.9176  -32.4477 H   0  0  0  0  0  0  0  0  0  0  0  0
   -4.0950   21.4006  -33.6378 H   0  0  0  0  0  0  0  0  0  0  0  0
   -2.4956   22.2184  -33.6378 H   0  0  0  0  0  0  0  0  0  0  0  0
   -5.6079   20.7871  -32.3560 H   0  0  0  0  0  0  0  0  0  0  0  0
   -7.8566   20.7500  -31.2915 H   0  0  0  0  0  0  0  0  0  0  0  0
   -8.5866   22.6422  -29.8467 H   0  0  0  0  0  0  0  0  0  0  0  0
   -7.0739   24.5762  -29.4584 H   0  0  0  0  0  0  0  0  0  0  0  0
   -1.9022   25.7078  -28.7414 H   0  0  0  0  0  0  0  0  0  0  0  0
   -3.5067   25.1787  -28.0722 H   0  0  0  0  0  0  0  0  0  0  0  0
   -1.5227   22.9903  -26.2159 H   0  0  0  0  0  0  0  0  0  0  0  0
   -0.2813   24.0102  -27.0442 H   0  0  0  0  0  0  0  0  0  0  0  0
   -1.7873   27.6527  -26.3313 H   0  0  0  0  0  0  0  0  0  0  0  0
   -0.5741   29.1287  -24.7190 H   0  0  0  0  0  0  0  0  0  0  0  0
    0.6911   28.1037  -22.8233 H   0  0  0  0  0  0  0  0  0  0  0  0
    0.7160   25.6940  -22.5930 H   0  0  0  0  0  0  0  0  0  0  0  0
   -0.4314   24.1955  -24.1070 H   0  0  0  0  0  0  0  0  0  0  0  0
   -3.5418   22.5732  -27.0272 H   0  0  0  0  0  0  0  0  0  0  0  0
   -3.9964   22.8121  -28.7723 H   0  0  0  0  0  0  0  0  0  0  0  0
   -1.9537   20.8199  -27.6921 H   0  0  0  0  0  0  0  0  0  0  0  0
   -3.6133   20.4518  -28.3158 H   0  0  0  0  0  0  0  0  0  0  0  0
   -1.4122   20.2424  -29.8562 H   0  0  0  0  0  0  0  0  0  0  0  0
   -3.0422   20.7783  -30.4899 H   0  0  0  0  0  0  0  0  0  0  0  0
   -2.3540   22.8500  -30.7920 H   0  0  0  0  0  0  0  0  0  0  0  0
   -0.2611   22.4251  -28.7294 H   0  0  0  0  0  0  0  0  0  0  0  0
   -0.4807   23.9289  -29.7182 H   0  0  0  0  0  0  0  0  0  0  0  0
  1  2  1  0
  2  3  1  0
  3  4  2  0
  4  5  1  0
  5  6  2  0
  6  7  1  0
  7  8  2  0
  8  9  1  0
  9 10  2  0
  9 11  1  0
 11 12  1  0
 13 12  1  6
 13 14  1  0
 14 15  1  0
 15 16  1  0
 16 17  2  0
 17 18  1  0
 18 19  2  0
 19 20  1  0
 20 21  2  0
 13 22  1  0
 22 23  1  0
 23 24  1  0
 24 25  1  0
 25 26  1  0
  8  3  1  0
 26 13  1  0
 21 16  1  0
  1 27  1  0
  1 28  1  0
  1 29  1  0
  4 30  1  0
  5 31  1  0
  6 32  1  0
  7 33  1  0
 12 34  1  0
 12 35  1  0
 14 36  1  0
 14 37  1  0
 17 38  1  0
 18 39  1  0
 19 40  1  0
 20 41  1  0
 21 42  1  0
 22 43  1  0
 22 44  1  0
 23 45  1  0
 23 46  1  0
 24 47  1  0
 24 48  1  0
 25 49  1  0
 26 50  1  0
 26 51  1  0
M  CHG  2  11  -1  20   1
M  END
>  <UniqueID>  (34) 
31

>  <SMILES>  (34) 
COc1ccccc1C(=O)[N-]C[C@@]1(COc2ccc[nH+]c2)CCCNC1

>  <Energy>  (34) 
59.34255949291759

>  <Genealogy>  (34) 
COc1ccccc1C(=O)[N-]CC1(COc2ccc[nH+]c2)CCCNC1 (protonated)
COc1ccccc1C(=O)[N-]C[C@@]1(COc2ccc[nH+]c2)CCCNC1 (chirality)
COc1ccccc1C(=O)[N-]C[C@@]1(COc2ccc[nH+]c2)CCCNC1 (3D coordinates assigned)
COc1ccccc1C(=O)[N-]C[C@@]1(COc2ccc[nH+]c2)CCCNC1 (nonaromatic ring conformer: 59.34255949291759 kcal/mol)

>  <smiles>  (34) 
COc1ccccc1C(=O)NCC1(COc2cccnc2)CCCNC1

>  <score_type>  (34) 
oracle

>  <origin>  (34) 
adg

>  <m_score__min__energy>  (34) 
-9.7599999999999998

>  <m_primary>  (34) 
energy

$$$$
34:0
     RDKit          3D

 42 42  0  0  0  0  0  0  0  0999 V2000
   -7.3303   24.8173  -31.2198 H   0  0  0  0  0  0  0  0  0  0  0  0
   -6.3680   24.2930  -31.1250 C   0  0  0  0  0  0  0  0  0  0  0  0
   -5.3590   24.8300  -30.1860 C   0  0  0  0  0  0  0  0  0  0  0  0
   -4.1040   24.8890  -30.5370 N   0  0  0  0  0  0  0  0  0  0  0  0
   -3.1610   23.7760  -30.4770 C   0  0  0  0  0  0  0  0  0  0  0  0
   -2.5434   23.7802  -31.3872 H   0  0  0  0  0  0  0  0  0  0  0  0
   -3.7334   22.8399  -30.3993 H   0  0  0  0  0  0  0  0  0  0  0  0
   -2.2420   23.8870  -29.2470 C   0  0  0  0  0  0  0  0  0  0  0  0
   -1.3494   24.4649  -29.5286 H   0  0  0  0  0  0  0  0  0  0  0  0
   -1.9898   22.8630  -28.9341 H   0  0  0  0  0  0  0  0  0  0  0  0
   -2.8940   24.5580  -28.0840 N   0  0  0  0  0  0  0  0  0  0  0  0
   -3.5220   25.2950  -28.4860 H   0  0  0  0  0  0  0  0  0  0  0  0
   -3.7910   23.6990  -27.2550 C   0  0  0  0  0  0  0  0  0  0  0  0
   -4.7391   24.2393  -27.1163 H   0  0  0  0  0  0  0  0  0  0  0  0
   -3.2382   23.5087  -26.3232 H   0  0  0  0  0  0  0  0  0  0  0  0
   -4.1220   22.3080  -27.8300 C   0  0  0  0  0  0  0  0  0  0  0  0
   -4.2903   21.6006  -27.0046 H   0  0  0  0  0  0  0  0  0  0  0  0
   -5.0297   22.3732  -28.4479 H   0  0  0  0  0  0  0  0  0  0  0  0
   -3.2822   21.9574  -28.4479 H   0  0  0  0  0  0  0  0  0  0  0  0
   -1.9280   25.3430  -27.2710 C   0  0  0  0  0  0  0  0  0  0  0  0
   -0.9860   24.7774  -27.2176 H   0  0  0  0  0  0  0  0  0  0  0  0
   -1.8205   26.3168  -27.7711 H   0  0  0  0  0  0  0  0  0  0  0  0
   -2.3880   25.6400  -25.8400 C   0  0  0  0  0  0  0  0  0  0  0  0
   -1.6843   25.1857  -25.1269 H   0  0  0  0  0  0  0  0  0  0  0  0
   -2.4178   26.7283  -25.6829 H   0  0  0  0  0  0  0  0  0  0  0  0
   -3.3921   25.2192  -25.6829 H   0  0  0  0  0  0  0  0  0  0  0  0
   -5.7960   25.2840  -28.8960 N   0  0  0  0  0  0  0  0  0  0  0  0
   -5.1380   25.6740  -28.1880 H   0  0  0  0  0  0  0  0  0  0  0  0
   -6.8050   25.2300  -28.6340 H   0  0  0  0  0  0  0  0  0  0  0  0
   -6.1600   23.1940  -31.8660 C   0  0  0  0  0  0  0  0  0  0  0  0
   -5.1924   23.0910  -32.3790 H   0  0  0  0  0  0  0  0  0  0  0  0
   -7.1580   22.1100  -32.0340 C   0  0  0  0  0  0  0  0  0  0  0  0
   -6.8300   20.8510  -32.5780 C   0  0  0  0  0  0  0  0  0  0  0  0
   -5.7997   20.6487  -32.9060 H   0  0  0  0  0  0  0  0  0  0  0  0
   -7.8070   19.8580  -32.7030 C   0  0  0  0  0  0  0  0  0  0  0  0
   -7.5443   18.8814  -33.1357 H   0  0  0  0  0  0  0  0  0  0  0  0
   -9.1150   20.1030  -32.2800 C   0  0  0  0  0  0  0  0  0  0  0  0
   -9.8826   19.3221  -32.3850 H   0  0  0  0  0  0  0  0  0  0  0  0
   -9.4480   21.3390  -31.7240 C   0  0  0  0  0  0  0  0  0  0  0  0
  -10.4773   21.5293  -31.3858 H   0  0  0  0  0  0  0  0  0  0  0  0
   -8.4760   22.3360  -31.5960 C   0  0  0  0  0  0  0  0  0  0  0  0
   -8.7438   23.3049  -31.1493 H   0  0  0  0  0  0  0  0  0  0  0  0
  1  2  1  0
  2  3  1  0
  3  4  2  0
  4  5  1  0
  5  6  1  0
  5  7  1  0
  5  8  1  0
  8  9  1  0
  8 10  1  0
  8 11  1  0
 11 12  1  0
 11 13  1  0
 13 14  1  0
 13 15  1  0
 13 16  1  0
 16 17  1  0
 16 18  1  0
 16 19  1  0
 11 20  1  0
 20 21  1  0
 20 22  1  0
 20 23  1  0
 23 24  1  0
 23 25  1  0
 23 26  1  0
  3 27  1  0
 27 28  1  0
 27 29  1  0
  2 30  2  0
 30 31  1  0
 30 32  1  0
 32 33  2  0
 33 34  1  0
 33 35  1  0
 35 36  1  0
 35 37  2  0
 37 38  1  0
 37 39  1  0
 39 40  1  0
 39 41  2  0
 41 42  1  0
 41 32  1  0
M  CHG  1  11   1
M  END
>  <UniqueID>  (35) 
32

>  <SMILES>  (35) 
CC[NH+](CC)CC/N=C(N)/C=C/c1ccccc1

>  <Energy>  (35) 
47.07326251943903

>  <Genealogy>  (35) 
CC[NH+](CC)CCN=C(N)C=Cc1ccccc1 (protonated)
CC[NH+](CC)CC/N=C(N)/C=C/c1ccccc1 (cis-trans isomerization)
CC[NH+](CC)CC/N=C(N)/C=C/c1ccccc1 (3D coordinates assigned)
CC[NH+](CC)CC/N=C(N)/C=C/c1ccccc1 (optimized conformer: 47.07326251943903 kcal/mol)

>  <smiles>  (35) 
CCN(CC)CCN=C(N)C=Cc1ccccc1

>  <score_type>  (35) 
oracle

>  <origin>  (35) 
adg

>  <m_score__min__energy>  (35) 
-6.2300000000000004

>  <m_primary>  (35) 
energy

$$$$
35:0
     RDKit          3D

 36 37  0  0  0  0  0  0  0  0999 V2000
   -6.4330   17.4450  -31.4360 C   0  0  0  0  0  0  0  0  0  0  0  0
   -7.6290   17.5270  -32.3850 C   0  0  0  0  0  0  0  0  0  0  0  0
   -8.5420   18.7350  -32.0900 C   0  0  0  0  0  0  0  0  0  0  0  0
   -7.7610   19.9770  -31.8960 N   0  0  0  0  0  0  0  0  0  0  0  0
   -8.6400   21.1390  -31.6020 C   0  0  0  0  0  0  0  0  0  0  0  0
   -7.9850   22.4990  -31.9170 C   0  0  0  0  0  0  0  0  0  0  0  0
   -6.5210   22.3910  -31.9080 N   0  0  0  0  0  0  0  0  0  0  0  0
   -5.6930   23.4100  -31.3160 C   0  0  0  0  0  0  0  0  0  0  0  0
   -6.1410   24.7330  -31.2000 C   0  0  0  0  0  0  0  0  0  0  0  0
   -5.3000   25.6750  -30.6080 C   0  0  0  0  0  0  0  0  0  0  0  0
   -4.0820   25.2990  -30.1410 N   0  0  0  0  0  0  0  0  0  0  0  0
   -3.6690   24.0070  -30.2300 C   0  0  0  0  0  0  0  0  0  0  0  0
   -2.3140   23.6200  -29.7400 C   0  0  0  0  0  0  0  0  0  0  0  0
   -4.4690   23.0800  -30.8200 N   0  0  0  0  0  0  0  0  0  0  0  0
   -5.8900   21.3350  -32.7110 C   0  0  0  0  0  0  0  0  0  0  0  0
   -6.9000   20.2390  -33.0660 C   0  0  0  0  0  0  0  0  0  0  0  0
   -6.7884   17.4694  -30.3953 H   0  0  0  0  0  0  0  0  0  0  0  0
   -5.8865   16.5073  -31.6150 H   0  0  0  0  0  0  0  0  0  0  0  0
   -5.7636   18.2994  -31.6150 H   0  0  0  0  0  0  0  0  0  0  0  0
   -7.2549   17.6122  -33.4159 H   0  0  0  0  0  0  0  0  0  0  0  0
   -8.2283   16.6155  -32.2435 H   0  0  0  0  0  0  0  0  0  0  0  0
   -9.2313   18.8758  -32.9356 H   0  0  0  0  0  0  0  0  0  0  0  0
   -9.0943   18.5287  -31.1613 H   0  0  0  0  0  0  0  0  0  0  0  0
   -9.5552   21.0450  -32.2050 H   0  0  0  0  0  0  0  0  0  0  0  0
   -8.8492   21.1223  -30.5222 H   0  0  0  0  0  0  0  0  0  0  0  0
   -8.3150   22.8359  -32.9108 H   0  0  0  0  0  0  0  0  0  0  0  0
   -8.2884   23.2219  -31.1454 H   0  0  0  0  0  0  0  0  0  0  0  0
   -7.1361   25.0226  -31.5686 H   0  0  0  0  0  0  0  0  0  0  0  0
   -5.6236   26.7226  -30.5195 H   0  0  0  0  0  0  0  0  0  0  0  0
   -2.3085   23.6184  -28.6400 H   0  0  0  0  0  0  0  0  0  0  0  0
   -2.0639   22.6145  -30.1094 H   0  0  0  0  0  0  0  0  0  0  0  0
   -1.5706   24.3417  -30.1094 H   0  0  0  0  0  0  0  0  0  0  0  0
   -5.4958   21.7753  -33.6387 H   0  0  0  0  0  0  0  0  0  0  0  0
   -5.0767   20.8854  -32.1225 H   0  0  0  0  0  0  0  0  0  0  0  0
   -7.5197   20.5696  -33.9125 H   0  0  0  0  0  0  0  0  0  0  0  0
   -6.3653   19.3193  -33.3455 H   0  0  0  0  0  0  0  0  0  0  0  0
  1  2  1  0
  2  3  1  0
  3  4  1  0
  4  5  1  0
  5  6  1  0
  6  7  1  0
  7  8  1  0
  8  9  2  0
  9 10  1  0
 10 11  2  0
 11 12  1  0
 12 13  1  0
 12 14  2  0
  7 15  1  0
 15 16  1  0
 16  4  1  0
 14  8  1  0
  1 17  1  0
  1 18  1  0
  1 19  1  0
  2 20  1  0
  2 21  1  0
  3 22  1  0
  3 23  1  0
  5 24  1  0
  5 25  1  0
  6 26  1  0
  6 27  1  0
  9 28  1  0
 10 29  1  0
 13 30  1  0
 13 31  1  0
 13 32  1  0
 15 33  1  0
 15 34  1  0
 16 35  1  0
 16 36  1  0
M  END
>  <UniqueID>  (36) 
33

>  <SMILES>  (36) 
CCCN1CCN(c2ccnc(C)n2)CC1

>  <Energy>  (36) 
42.04137196814884

>  <Genealogy>  (36) 
CCCN1CCN(c2ccnc(C)n2)CC1 (3D coordinates assigned)
CCCN1CCN(c2ccnc(C)n2)CC1 (nonaromatic ring conformer: 42.04137196814884 kcal/mol)

>  <smiles>  (36) 
CCCN1CCN(c2ccnc(C)n2)CC1

>  <score_type>  (36) 
oracle

>  <origin>  (36) 
adg

>  <m_score__min__energy>  (36) 
-6.2199999999999998

>  <m_primary>  (36) 
energy

$$$$
36:0
     RDKit          3D

 44 46  0  0  0  0  0  0  0  0999 V2000
   -6.0990   17.7210  -33.9900 C   0  0  0  0  0  0  0  0  0  0  0  0
   -6.5500   17.5330  -32.5400 C   0  0  0  0  0  0  0  0  0  0  0  0
   -6.7650   18.8700  -31.8120 C   0  0  0  0  0  0  0  0  0  0  0  0
   -6.8940   20.0900  -32.7620 C   0  0  1  0  0  0  0  0  0  0  0  0
   -8.2850   20.2500  -33.2390 N   0  0  0  0  0  0  0  0  0  0  0  0
   -9.2780   20.5280  -32.1640 C   0  0  0  0  0  0  0  0  0  0  0  0
   -8.8260   21.5430  -31.0790 C   0  0  0  0  0  0  0  0  0  0  0  0
   -7.4270   22.0380  -31.3080 C   0  0  0  0  0  0  0  0  0  0  0  0
   -6.5030   21.3630  -32.0710 C   0  0  0  0  0  0  0  0  0  0  0  0
   -5.3250   22.0450  -32.1340 N   0  0  0  0  0  0  0  0  0  0  0  0
   -4.1550   21.7500  -32.9710 C   0  0  0  0  0  0  0  0  0  0  0  0
   -2.9590   21.3400  -32.1090 C   0  0  0  0  0  0  0  0  0  0  0  0
   -2.5590   22.4310  -31.3010 O   0  0  0  0  0  0  0  0  0  0  0  0
   -2.4220   22.0030  -29.9610 C   0  0  0  0  0  0  0  0  0  0  0  0
   -5.5310   23.1580  -31.3840 C   0  0  0  0  0  0  0  0  0  0  0  0
   -4.6550   24.1750  -31.1640 N   0  0  0  0  0  0  0  0  0  0  0  0
   -5.0410   25.2290  -30.3780 C   0  0  0  0  0  0  0  0  0  0  0  0
   -6.3340   25.2710  -29.8110 C   0  0  0  0  0  0  0  0  0  0  0  0
   -7.2380   24.2240  -30.0570 C   0  0  0  0  0  0  0  0  0  0  0  0
   -6.7980   23.1730  -30.8550 C   0  0  0  0  0  0  0  0  0  0  0  0
   -5.0838   18.1442  -34.0063 H   0  0  0  0  0  0  0  0  0  0  0  0
   -6.0989   16.7480  -34.5031 H   0  0  0  0  0  0  0  0  0  0  0  0
   -6.7901   18.4060  -34.5031 H   0  0  0  0  0  0  0  0  0  0  0  0
   -7.4964   16.9724  -32.5348 H   0  0  0  0  0  0  0  0  0  0  0  0
   -5.7543   16.9884  -32.0105 H   0  0  0  0  0  0  0  0  0  0  0  0
   -7.6870   18.7957  -31.2166 H   0  0  0  0  0  0  0  0  0  0  0  0
   -5.8736   19.0421  -31.1909 H   0  0  0  0  0  0  0  0  0  0  0  0
   -6.2200   19.8975  -33.6097 H   0  0  0  0  0  0  0  0  0  0  0  0
   -8.5700   19.3570  -33.7100 H   0  0  0  0  0  0  0  0  0  0  0  0
  -10.1886   20.9228  -32.6383 H   0  0  0  0  0  0  0  0  0  0  0  0
   -9.4281   19.5732  -31.6389 H   0  0  0  0  0  0  0  0  0  0  0  0
   -9.5118   22.4029  -31.0917 H   0  0  0  0  0  0  0  0  0  0  0  0
   -8.8453   21.0274  -30.1075 H   0  0  0  0  0  0  0  0  0  0  0  0
   -4.4020   20.9282  -33.6592 H   0  0  0  0  0  0  0  0  0  0  0  0
   -3.8884   22.6556  -33.5357 H   0  0  0  0  0  0  0  0  0  0  0  0
   -3.2440   20.4939  -31.4665 H   0  0  0  0  0  0  0  0  0  0  0  0
   -2.1241   21.0431  -32.7607 H   0  0  0  0  0  0  0  0  0  0  0  0
   -2.6862   22.8284  -29.2836 H   0  0  0  0  0  0  0  0  0  0  0  0
   -3.0920   21.1499  -29.7782 H   0  0  0  0  0  0  0  0  0  0  0  0
   -1.3812   21.6975  -29.7782 H   0  0  0  0  0  0  0  0  0  0  0  0
   -3.7000   24.1720  -31.5920 H   0  0  0  0  0  0  0  0  0  0  0  0
   -4.3361   26.0515  -30.1865 H   0  0  0  0  0  0  0  0  0  0  0  0
   -6.6322   26.1205  -29.1790 H   0  0  0  0  0  0  0  0  0  0  0  0
   -8.2538   24.2349  -29.6351 H   0  0  0  0  0  0  0  0  0  0  0  0
  1  2  1  0
  2  3  1  0
  3  4  1  0
  4  5  1  0
  5  6  1  0
  6  7  1  0
  7  8  1  0
  8  9  2  0
  9 10  1  0
 10 11  1  0
 11 12  1  0
 12 13  1  0
 13 14  1  0
 10 15  1  0
 15 16  2  0
 16 17  1  0
 17 18  2  0
 18 19  1  0
 19 20  2  0
  9  4  1  0
 20 15  1  0
 20  8  1  0
  1 21  1  0
  1 22  1  0
  1 23  1  0
  2 24  1  0
  2 25  1  0
  3 26  1  0
  3 27  1  0
  4 28  1  6
  5 29  1  0
  6 30  1  0
  6 31  1  0
  7 32  1  0
  7 33  1  0
 11 34  1  0
 11 35  1  0
 12 36  1  0
 12 37  1  0
 14 38  1  0
 14 39  1  0
 14 40  1  0
 16 41  1  0
 17 42  1  0
 18 43  1  0
 19 44  1  0
M  CHG  1  16   1
M  END
>  <UniqueID>  (37) 
34

>  <SMILES>  (37) 
CCC[C@H]1NCCc2c1n(CCOC)c1[nH+]cccc21

>  <Energy>  (37) 
83.95624601730333

>  <Genealogy>  (37) 
CCCC1NCCc2c1n(CCOC)c1[nH+]cccc21 (protonated)
CCC[C@H]1NCCc2c1n(CCOC)c1[nH+]cccc21 (chirality)
CCC[C@H]1NCCc2c1n(CCOC)c1[nH+]cccc21 (3D coordinates assigned)
CCC[C@H]1NCCc2c1n(CCOC)c1[nH+]cccc21 (nonaromatic ring conformer: 83.95624601730333 kcal/mol)

>  <smiles>  (37) 
CCCC1NCCc2c1n(CCOC)c1ncccc21

>  <score_type>  (37) 
oracle

>  <origin>  (37) 
adg

>  <m_score__min__energy>  (37) 
-6.6100000000000003

>  <m_primary>  (37) 
energy

$$$$
37:0
     RDKit          3D

 34 35  0  0  0  0  0  0  0  0999 V2000
   -6.1910   19.5640  -33.8250 C   0  0  0  0  0  0  0  0  0  0  0  0
   -6.7890   19.7090  -32.4220 C   0  0  0  0  0  0  0  0  0  0  0  0
   -8.1620   19.0330  -32.3310 C   0  0  0  0  0  0  0  0  0  0  0  0
   -6.8660   21.1610  -32.0070 C   0  0  0  0  0  0  0  0  0  0  0  0
   -5.8010   21.7960  -31.3450 C   0  0  0  0  0  0  0  0  0  0  0  0
   -5.9130   23.1450  -30.9690 C   0  0  0  0  0  0  0  0  0  0  0  0
   -4.7920   23.8240  -30.2750 C   0  0  0  0  0  0  0  0  0  0  0  0
   -4.2460   24.8270  -30.8130 O   0  0  0  0  0  0  0  0  0  0  0  0
   -4.2910   23.3310  -29.0220 N   0  0  0  0  0  0  0  0  0  0  0  0
   -3.4650   24.1110  -28.1430 C   0  0  0  0  0  0  0  0  0  0  0  0
   -3.9850   24.5400  -26.9110 C   0  0  0  0  0  0  0  0  0  0  0  0
   -3.2070   25.3120  -26.0430 C   0  0  0  0  0  0  0  0  0  0  0  0
   -1.9080   25.6740  -26.4040 C   0  0  0  0  0  0  0  0  0  0  0  0
   -1.3880   25.2750  -27.6370 C   0  0  0  0  0  0  0  0  0  0  0  0
   -2.1610   24.5030  -28.5110 C   0  0  0  0  0  0  0  0  0  0  0  0
   -1.6550   24.1790  -29.7280 F   0  0  0  0  0  0  0  0  0  0  0  0
   -7.0950   23.8370  -31.2820 C   0  0  0  0  0  0  0  0  0  0  0  0
   -8.1300   23.1740  -31.9420 C   0  0  0  0  0  0  0  0  0  0  0  0
   -7.9960   21.8670  -32.2850 N   0  0  0  0  0  0  0  0  0  0  0  0
   -5.1249   19.3055  -33.7442 H   0  0  0  0  0  0  0  0  0  0  0  0
   -6.7210   18.7683  -34.3691 H   0  0  0  0  0  0  0  0  0  0  0  0
   -6.2977   20.5141  -34.3691 H   0  0  0  0  0  0  0  0  0  0  0  0
   -6.1168   19.1957  -31.7186 H   0  0  0  0  0  0  0  0  0  0  0  0
   -8.4351   18.8985  -31.2740 H   0  0  0  0  0  0  0  0  0  0  0  0
   -8.9147   19.6635  -32.8269 H   0  0  0  0  0  0  0  0  0  0  0  0
   -8.1213   18.0520  -32.8269 H   0  0  0  0  0  0  0  0  0  0  0  0
   -4.8804   21.2370  -31.1215 H   0  0  0  0  0  0  0  0  0  0  0  0
   -4.3910   22.3110  -28.8190 H   0  0  0  0  0  0  0  0  0  0  0  0
   -5.0119   24.2666  -26.6269 H   0  0  0  0  0  0  0  0  0  0  0  0
   -3.6186   25.6343  -25.0752 H   0  0  0  0  0  0  0  0  0  0  0  0
   -1.2936   26.2740  -25.7166 H   0  0  0  0  0  0  0  0  0  0  0  0
   -0.3670   25.5687  -27.9221 H   0  0  0  0  0  0  0  0  0  0  0  0
   -7.2039   24.8967  -31.0079 H   0  0  0  0  0  0  0  0  0  0  0  0
   -9.0580   23.7120  -32.1854 H   0  0  0  0  0  0  0  0  0  0  0  0
  1  2  1  0
  2  3  1  0
  2  4  1  0
  4  5  2  0
  5  6  1  0
  6  7  1  0
  7  8  2  0
  7  9  1  0
  9 10  1  0
 10 11  2  0
 11 12  1  0
 12 13  2  0
 13 14  1  0
 14 15  2  0
 15 16  1  0
  6 17  2  0
 17 18  1  0
 18 19  2  0
 19  4  1  0
 15 10  1  0
  1 20  1  0
  1 21  1  0
  1 22  1  0
  2 23  1  0
  3 24  1  0
  3 25  1  0
  3 26  1  0
  5 27  1  0
  9 28  1  0
 11 29  1  0
 12 30  1  0
 13 31  1  0
 14 32  1  0
 17 33  1  0
 18 34  1  0
M  END
>  <UniqueID>  (38) 
35

>  <SMILES>  (38) 
CC(C)c1cc(C(=O)Nc2ccccc2F)ccn1

>  <Energy>  (38) 
37.59821434813068

>  <Genealogy>  (38) 
CC(C)c1cc(C(=O)Nc2ccccc2F)ccn1 (3D coordinates assigned)
CC(C)c1cc(C(=O)Nc2ccccc2F)ccn1 (optimized conformer: 37.59821434813068 kcal/mol)

>  <smiles>  (38) 
CC(C)c1cc(C(=O)Nc2ccccc2F)ccn1

>  <score_type>  (38) 
oracle

>  <origin>  (38) 
adg

>  <m_score__min__energy>  (38) 
-7.4699999999999998

>  <m_primary>  (38) 
energy

$$$$
38:0
     RDKit          3D

 59 63  0  0  0  0  0  0  0  0999 V2000
   -2.0010   25.0110  -28.0210 C   0  0  0  0  0  0  0  0  0  0  0  0
   -2.5300   25.1350  -29.3370 O   0  0  0  0  0  0  0  0  0  0  0  0
   -3.1290   24.0890  -30.0570 C   0  0  0  0  0  0  0  0  0  0  0  0
   -2.3730   23.0510  -30.6330 C   0  0  0  0  0  0  0  0  0  0  0  0
   -3.0010   22.0220  -31.3370 C   0  0  0  0  0  0  0  0  0  0  0  0
   -2.2530   21.0320  -31.8920 N   0  0  0  0  0  0  0  0  0  0  0  0
   -2.8020   20.0010  -32.5870 C   0  0  0  0  0  0  0  0  0  0  0  0
   -1.9330   19.0200  -33.1710 N   0  0  0  0  0  0  0  0  0  0  0  0
   -2.0070   17.6180  -32.7360 C   0  0  0  0  0  0  0  0  0  0  0  0
   -2.2250   16.6790  -33.9360 C   0  0  0  0  0  0  0  0  0  0  0  0
   -1.5070   17.1330  -35.2270 C   0  0  0  0  0  0  0  0  0  0  0  0
   -0.4110   18.1950  -34.9540 C   0  0  1  0  0  0  0  0  0  0  0  0
    0.3650   18.6060  -36.1560 N   0  0  0  0  0  0  0  0  0  0  0  0
    0.6160   20.0580  -36.1710 C   0  0  0  0  0  0  0  0  0  0  0  0
    1.6290   17.8720  -36.3600 C   0  0  0  0  0  0  0  0  0  0  0  0
   -1.0440   19.4220  -34.2700 C   0  0  0  0  0  0  0  0  0  0  0  0
   -4.2030   19.9250  -32.7250 C   0  0  0  0  0  0  0  0  0  0  0  0
   -4.8480   18.8560  -33.3670 C   0  0  0  0  0  0  0  0  0  0  0  0
   -6.2020   18.8370  -33.4650 N   0  0  0  0  0  0  0  0  0  0  0  0
   -6.9600   19.8410  -32.9530 C   0  0  0  0  0  0  0  0  0  0  0  0
   -8.4570   19.7650  -33.0840 C   0  0  0  0  0  0  0  0  0  0  0  0
   -9.1180   18.9410  -31.9850 C   0  0  0  0  0  0  0  0  0  0  0  0
   -9.3020   20.4520  -32.0150 C   0  0  0  0  0  0  0  0  0  0  0  0
   -6.3590   20.8780  -32.3110 N   0  0  0  0  0  0  0  0  0  0  0  0
   -5.0070   20.9450  -32.1750 C   0  0  0  0  0  0  0  0  0  0  0  0
   -4.4050   22.0100  -31.4750 C   0  0  0  0  0  0  0  0  0  0  0  0
   -5.1590   23.0500  -30.9030 C   0  0  0  0  0  0  0  0  0  0  0  0
   -4.5250   24.0920  -30.1970 C   0  0  0  0  0  0  0  0  0  0  0  0
   -5.2490   25.1470  -29.6180 O   0  0  0  0  0  0  0  0  0  0  0  0
   -6.6630   25.2980  -29.6980 C   0  0  0  0  0  0  0  0  0  0  0  0
   -2.7981   25.1978  -27.2863 H   0  0  0  0  0  0  0  0  0  0  0  0
   -1.6031   23.9952  -27.8800 H   0  0  0  0  0  0  0  0  0  0  0  0
   -1.1931   25.7441  -27.8800 H   0  0  0  0  0  0  0  0  0  0  0  0
   -1.2781   23.0505  -30.5276 H   0  0  0  0  0  0  0  0  0  0  0  0
   -1.0667   17.3472  -32.2335 H   0  0  0  0  0  0  0  0  0  0  0  0
   -2.8574   17.5093  -32.0468 H   0  0  0  0  0  0  0  0  0  0  0  0
   -1.8523   15.6800  -33.6658 H   0  0  0  0  0  0  0  0  0  0  0  0
   -3.3034   16.6840  -34.1527 H   0  0  0  0  0  0  0  0  0  0  0  0
   -1.0389   16.2558  -35.6976 H   0  0  0  0  0  0  0  0  0  0  0  0
   -2.2600   17.5910  -35.8851 H   0  0  0  0  0  0  0  0  0  0  0  0
    0.3239   17.7176  -34.2891 H   0  0  0  0  0  0  0  0  0  0  0  0
    0.6803   20.4297  -35.1377 H   0  0  0  0  0  0  0  0  0  0  0  0
    1.5626   20.2611  -36.6933 H   0  0  0  0  0  0  0  0  0  0  0  0
   -0.2075   20.5671  -36.6933 H   0  0  0  0  0  0  0  0  0  0  0  0
    2.0670   17.6177  -35.3835 H   0  0  0  0  0  0  0  0  0  0  0  0
    1.4300   16.9489  -36.9243 H   0  0  0  0  0  0  0  0  0  0  0  0
    2.3321   18.5023  -36.9243 H   0  0  0  0  0  0  0  0  0  0  0  0
   -0.2438   20.0611  -33.8684 H   0  0  0  0  0  0  0  0  0  0  0  0
   -1.6393   19.9677  -35.0168 H   0  0  0  0  0  0  0  0  0  0  0  0
   -4.2553   18.0323  -33.7914 H   0  0  0  0  0  0  0  0  0  0  0  0
   -8.4625   19.7940  -34.1836 H   0  0  0  0  0  0  0  0  0  0  0  0
   -9.9629   18.2795  -32.2268 H   0  0  0  0  0  0  0  0  0  0  0  0
   -8.7636   18.2160  -31.2375 H   0  0  0  0  0  0  0  0  0  0  0  0
  -10.2795   20.8819  -32.2788 H   0  0  0  0  0  0  0  0  0  0  0  0
   -9.1355   21.2702  -31.2989 H   0  0  0  0  0  0  0  0  0  0  0  0
   -6.2540   23.0503  -31.0076 H   0  0  0  0  0  0  0  0  0  0  0  0
   -7.0849   25.3431  -28.6831 H   0  0  0  0  0  0  0  0  0  0  0  0
   -6.9027   26.2268  -30.2363 H   0  0  0  0  0  0  0  0  0  0  0  0
   -7.0934   24.4407  -30.2363 H   0  0  0  0  0  0  0  0  0  0  0  0
  1  2  1  0
  2  3  1  0
  3  4  2  0
  4  5  1  0
  5  6  2  0
  6  7  1  0
  7  8  1  0
  8  9  1  0
  9 10  1  0
 10 11  1  0
 11 12  1  0
 12 13  1  0
 13 14  1  0
 13 15  1  0
 12 16  1  0
  7 17  2  0
 17 18  1  0
 18 19  2  0
 19 20  1  0
 20 21  1  0
 21 22  1  0
 22 23  1  0
 20 24  2  0
 24 25  1  0
 25 26  2  0
 26 27  1  0
 27 28  2  0
 28 29  1  0
 29 30  1  0
 28  3  1  0
 26  5  1  0
 16  8  1  0
 25 17  1  0
 23 21  1  0
  1 31  1  0
  1 32  1  0
  1 33  1  0
  4 34  1  0
  9 35  1  0
  9 36  1  0
 10 37  1  0
 10 38  1  0
 11 39  1  0
 11 40  1  0
 12 41  1  1
 14 42  1  0
 14 43  1  0
 14 44  1  0
 15 45  1  0
 15 46  1  0
 15 47  1  0
 16 48  1  0
 16 49  1  0
 18 50  1  0
 21 51  1  0
 22 52  1  0
 22 53  1  0
 23 54  1  0
 23 55  1  0
 27 56  1  0
 30 57  1  0
 30 58  1  0
 30 59  1  0
M  END
>  <UniqueID>  (39) 
36

>  <SMILES>  (39) 
COc1cc2nc(N3CCC[C@@H](N(C)C)C3)c3cnc(C4CC4)nc3c2cc1OC

>  <Energy>  (39) 
347.48379944289144

>  <Genealogy>  (39) 
COc1cc2nc(N3CCC[C@@H](N(C)C)C3)c3cnc(C4CC4)nc3c2cc1OC (chirality)
COc1cc2nc(N3CCC[C@@H](N(C)C)C3)c3cnc(C4CC4)nc3c2cc1OC (3D coordinates assigned)
COc1cc2nc(N3CCC[C@@H](N(C)C)C3)c3cnc(C4CC4)nc3c2cc1OC (nonaromatic ring conformer: 347.48379944289144 kcal/mol)

>  <smiles>  (39) 
COc1cc2nc(N3CCCC(N(C)C)C3)c3cnc(C4CC4)nc3c2cc1OC

>  <score_type>  (39) 
oracle

>  <origin>  (39) 
adg

>  <m_score__min__energy>  (39) 
-8.0299999999999994

>  <m_primary>  (39) 
energy

$$$$
39:0
     RDKit          3D

 31 30  0  0  0  0  0  0  0  0999 V2000
   -4.2000   24.5640  -26.7080 C   0  0  0  0  0  0  0  0  0  0  0  0
   -4.0820   24.1360  -28.1700 C   0  0  0  0  0  0  0  0  0  0  0  0
   -5.2970   24.5640  -29.0030 C   0  0  0  0  0  0  0  0  0  0  0  0
   -4.9820   24.6410  -30.4760 C   0  0  0  0  0  0  0  0  0  0  0  0
   -4.0380   25.3220  -30.8420 O   0  0  0  0  0  0  0  0  0  0  0  0
   -5.8410   23.9100  -31.4920 C   0  0  1  0  0  0  0  0  0  0  0  0
   -5.0420   22.7760  -32.1740 C   0  0  0  0  0  0  0  0  0  0  0  0
   -5.3710   21.3970  -31.6010 C   0  0  0  0  0  0  0  0  0  0  0  0
   -7.2200   23.4860  -30.9060 C   0  0  0  0  0  0  0  0  0  0  0  0
   -8.3400   23.0910  -31.8920 C   0  0  0  0  0  0  0  0  0  0  0  0
   -9.1030   21.8290  -31.4990 C   0  0  0  0  0  0  0  0  0  0  0  0
   -3.9646   23.7101  -26.0558 H   0  0  0  0  0  0  0  0  0  0  0  0
   -3.4944   25.3837  -26.5078 H   0  0  0  0  0  0  0  0  0  0  0  0
   -5.2260   24.9063  -26.5078 H   0  0  0  0  0  0  0  0  0  0  0  0
   -3.1792   24.5937  -28.6006 H   0  0  0  0  0  0  0  0  0  0  0  0
   -4.0274   23.0376  -28.1952 H   0  0  0  0  0  0  0  0  0  0  0  0
   -6.1050   23.8331  -28.8517 H   0  0  0  0  0  0  0  0  0  0  0  0
   -5.5968   25.5685  -28.6698 H   0  0  0  0  0  0  0  0  0  0  0  0
   -6.1042   24.6099  -32.2988 H   0  0  0  0  0  0  0  0  0  0  0  0
   -5.2775   22.7762  -33.2485 H   0  0  0  0  0  0  0  0  0  0  0  0
   -3.9738   22.9657  -31.9924 H   0  0  0  0  0  0  0  0  0  0  0  0
   -5.3597   21.4443  -30.5021 H   0  0  0  0  0  0  0  0  0  0  0  0
   -6.3686   21.0857  -31.9444 H   0  0  0  0  0  0  0  0  0  0  0  0
   -4.6214   20.6689  -31.9444 H   0  0  0  0  0  0  0  0  0  0  0  0
   -7.0436   22.6215  -30.2491 H   0  0  0  0  0  0  0  0  0  0  0  0
   -7.5979   24.3938  -30.4130 H   0  0  0  0  0  0  0  0  0  0  0  0
   -9.0569   23.9232  -31.9511 H   0  0  0  0  0  0  0  0  0  0  0  0
   -7.8529   22.8789  -32.8552 H   0  0  0  0  0  0  0  0  0  0  0  0
   -9.1481   21.7543  -30.4025 H   0  0  0  0  0  0  0  0  0  0  0  0
  -10.1240   21.8762  -31.9056 H   0  0  0  0  0  0  0  0  0  0  0  0
   -8.5868   20.9469  -31.9056 H   0  0  0  0  0  0  0  0  0  0  0  0
  1  2  1  0
  2  3  1  0
  3  4  1  0
  4  5  2  0
  4  6  1  0
  6  7  1  0
  7  8  1  0
  6  9  1  0
  9 10  1  0
 10 11  1  0
  1 12  1  0
  1 13  1  0
  1 14  1  0
  2 15  1  0
  2 16  1  0
  3 17  1  0
  3 18  1  0
  6 19  1  6
  7 20  1  0
  7 21  1  0
  8 22  1  0
  8 23  1  0
  8 24  1  0
  9 25  1  0
  9 26  1  0
 10 27  1  0
 10 28  1  0
 11 29  1  0
 11 30  1  0
 11 31  1  0
M  END
>  <UniqueID>  (40) 
37

>  <SMILES>  (40) 
CCCC(=O)[C@@H](CC)CCC

>  <Energy>  (40) 
16.435596015738906

>  <Genealogy>  (40) 
CCCC(=O)[C@@H](CC)CCC (chirality)
CCCC(=O)[C@@H](CC)CCC (3D coordinates assigned)
CCCC(=O)[C@@H](CC)CCC (optimized conformer: 16.435596015738906 kcal/mol)

>  <smiles>  (40) 
CCCC(=O)C(CC)CCC

>  <score_type>  (40) 
oracle

>  <origin>  (40) 
adg

>  <m_score__min__energy>  (40) 
-5.1699999999999999

>  <m_primary>  (40) 
energy

$$$$
40:0
     RDKit          3D

 59 62  0  0  0  0  0  0  0  0999 V2000
   -1.2010   17.0340  -34.7780 C   0  0  0  0  0  0  0  0  0  0  0  0
   -2.4960   17.1920  -35.3470 O   0  0  0  0  0  0  0  0  0  0  0  0
   -3.5750   17.8140  -34.6990 C   0  0  0  0  0  0  0  0  0  0  0  0
   -4.9100   17.4140  -34.8990 C   0  0  0  0  0  0  0  0  0  0  0  0
   -5.9510   18.0700  -34.2330 C   0  0  0  0  0  0  0  0  0  0  0  0
   -5.6780   19.1360  -33.3570 C   0  0  0  0  0  0  0  0  0  0  0  0
   -6.7790   19.8400  -32.6510 C   0  0  0  0  0  0  0  0  0  0  0  0
   -7.7510   19.1210  -31.9490 C   0  0  0  0  0  0  0  0  0  0  0  0
   -8.7450   19.8070  -31.2630 C   0  0  0  0  0  0  0  0  0  0  0  0
   -8.7560   21.2000  -31.2860 C   0  0  0  0  0  0  0  0  0  0  0  0
   -9.6420   21.8200  -30.6370 O   0  0  0  0  0  0  0  0  0  0  0  0
   -7.8040   21.8760  -32.0030 N   0  0  0  0  0  0  0  0  0  0  0  0
   -7.7590   23.3470  -32.0030 C   0  0  0  0  0  0  0  0  0  0  0  0
   -6.3050   23.8170  -32.0850 C   0  0  0  0  0  0  0  0  0  0  0  0
   -5.4710   23.2820  -30.9020 C   0  0  0  0  0  0  0  0  0  0  0  0
   -4.0440   23.6950  -30.8980 N   0  0  0  0  0  0  0  0  0  0  0  0
   -3.4900   24.2080  -29.6400 C   0  0  0  0  0  0  0  0  0  0  0  0
   -2.9320   23.1130  -28.6990 C   0  0  0  0  0  0  0  0  0  0  0  0
   -2.6800   21.7870  -29.3140 N   0  0  0  0  0  0  0  0  0  0  0  0
   -2.3190   20.6730  -28.4440 C   0  0  0  0  0  0  0  0  0  0  0  0
   -3.1270   20.3140  -27.3380 C   0  0  0  0  0  0  0  0  0  0  0  0
   -2.7690   19.2540  -26.5000 C   0  0  0  0  0  0  0  0  0  0  0  0
   -1.6020   18.5320  -26.7400 C   0  0  0  0  0  0  0  0  0  0  0  0
   -0.7900   18.8600  -27.8250 C   0  0  0  0  0  0  0  0  0  0  0  0
    0.6710   17.9410  -28.1330 Cl  0  0  0  0  0  0  0  0  0  0  0  0
   -1.1430   19.9190  -28.6700 C   0  0  0  0  0  0  0  0  0  0  0  0
   -2.8620   21.5300  -30.7570 C   0  0  0  0  0  0  0  0  0  0  0  0
   -3.1080   22.7920  -31.5720 C   0  0  0  0  0  0  0  0  0  0  0  0
   -6.8430   21.2050  -32.6560 N   0  0  0  0  0  0  0  0  0  0  0  0
   -4.3430   19.5290  -33.1590 C   0  0  0  0  0  0  0  0  0  0  0  0
   -3.3040   18.8750  -33.8290 C   0  0  0  0  0  0  0  0  0  0  0  0
   -1.2789   17.0435  -33.6808 H   0  0  0  0  0  0  0  0  0  0  0  0
   -0.7704   16.0767  -35.1067 H   0  0  0  0  0  0  0  0  0  0  0  0
   -0.5528   17.8597  -35.1067 H   0  0  0  0  0  0  0  0  0  0  0  0
   -5.1357   16.5818  -35.5821 H   0  0  0  0  0  0  0  0  0  0  0  0
   -6.9907   17.7497  -34.3957 H   0  0  0  0  0  0  0  0  0  0  0  0
   -7.7288   18.0213  -31.9400 H   0  0  0  0  0  0  0  0  0  0  0  0
   -9.5168   19.2552  -30.7064 H   0  0  0  0  0  0  0  0  0  0  0  0
   -8.3169   23.7302  -32.8702 H   0  0  0  0  0  0  0  0  0  0  0  0
   -8.2133   23.7260  -31.0756 H   0  0  0  0  0  0  0  0  0  0  0  0
   -5.8646   23.4548  -33.0257 H   0  0  0  0  0  0  0  0  0  0  0  0
   -6.2945   24.9163  -32.0459 H   0  0  0  0  0  0  0  0  0  0  0  0
   -5.9321   23.6412  -29.9702 H   0  0  0  0  0  0  0  0  0  0  0  0
   -5.4720   22.1862  -30.9978 H   0  0  0  0  0  0  0  0  0  0  0  0
   -2.6734   24.9044  -29.8813 H   0  0  0  0  0  0  0  0  0  0  0  0
   -4.3192   24.6928  -29.1040 H   0  0  0  0  0  0  0  0  0  0  0  0
   -1.9798   23.4781  -28.2868 H   0  0  0  0  0  0  0  0  0  0  0  0
   -3.7163   22.9441  -27.9464 H   0  0  0  0  0  0  0  0  0  0  0  0
   -4.0498   20.8774  -27.1353 H   0  0  0  0  0  0  0  0  0  0  0  0
   -3.4115   18.9888  -25.6474 H   0  0  0  0  0  0  0  0  0  0  0  0
   -1.3211   17.7032  -26.0736 H   0  0  0  0  0  0  0  0  0  0  0  0
   -0.4957   20.1690  -29.5235 H   0  0  0  0  0  0  0  0  0  0  0  0
   -1.9553   21.0391  -31.1403 H   0  0  0  0  0  0  0  0  0  0  0  0
   -3.7554   20.8971  -30.8629 H   0  0  0  0  0  0  0  0  0  0  0  0
   -2.1511   23.3143  -31.7189 H   0  0  0  0  0  0  0  0  0  0  0  0
   -3.5473   22.4984  -32.5368 H   0  0  0  0  0  0  0  0  0  0  0  0
   -6.1240   21.7400  -33.1930 H   0  0  0  0  0  0  0  0  0  0  0  0
   -4.1138   20.3570  -32.4721 H   0  0  0  0  0  0  0  0  0  0  0  0
   -2.2645   19.1980  -33.6703 H   0  0  0  0  0  0  0  0  0  0  0  0
  1  2  1  0
  2  3  1  0
  3  4  2  0
  4  5  1  0
  5  6  2  0
  6  7  1  0
  7  8  1  0
  8  9  2  0
  9 10  1  0
 10 11  2  0
 10 12  1  0
 12 13  1  0
 13 14  1  0
 14 15  1  0
 15 16  1  0
 16 17  1  0
 17 18  1  0
 18 19  1  0
 19 20  1  0
 20 21  2  0
 21 22  1  0
 22 23  2  0
 23 24  1  0
 24 25  1  0
 24 26  2  0
 19 27  1  0
 27 28  1  0
 12 29  1  0
  6 30  1  0
 30 31  2  0
 31  3  1  0
 29  7  2  0
 28 16  1  0
 26 20  1  0
  1 32  1  0
  1 33  1  0
  1 34  1  0
  4 35  1  0
  5 36  1  0
  8 37  1  0
  9 38  1  0
 13 39  1  0
 13 40  1  0
 14 41  1  0
 14 42  1  0
 15 43  1  0
 15 44  1  0
 17 45  1  0
 17 46  1  0
 18 47  1  0
 18 48  1  0
 21 49  1  0
 22 50  1  0
 23 51  1  0
 26 52  1  0
 27 53  1  0
 27 54  1  0
 28 55  1  0
 28 56  1  0
 29 57  1  0
 30 58  1  0
 31 59  1  0
M  CHG  1  29   1
M  END
>  <UniqueID>  (41) 
38

>  <SMILES>  (41) 
COc1ccc(-c2ccc(=O)n(CCCN3CCN(c4cccc(Cl)c4)CC3)[nH+]2)cc1

>  <Energy>  (41) 
80.36918806491626

>  <Genealogy>  (41) 
COc1ccc(-c2ccc(=O)n(CCCN3CCN(c4cccc(Cl)c4)CC3)[nH+]2)cc1 (protonated)
COc1ccc(-c2ccc(=O)n(CCCN3CCN(c4cccc(Cl)c4)CC3)[nH+]2)cc1 (3D coordinates assigned)
COc1ccc(-c2ccc(=O)n(CCCN3CCN(c4cccc(Cl)c4)CC3)[nH+]2)cc1 (nonaromatic ring conformer: 80.36918806491626 kcal/mol)

>  <smiles>  (41) 
COc1ccc(-c2ccc(=O)n(CCCN3CCN(c4cccc(Cl)c4)CC3)n2)cc1

>  <score_type>  (41) 
oracle

>  <origin>  (41) 
adg

>  <m_score__min__energy>  (41) 
-9.4199999999999999

>  <m_primary>  (41) 
energy

$$$$
41:0
     RDKit          3D

 40 43  0  0  0  0  0  0  0  0999 V2000
   -8.9740   19.3990  -31.6240 C   0  0  0  0  0  0  0  0  0  0  0  0
   -8.3080   18.4250  -32.3350 C   0  0  0  0  0  0  0  0  0  0  0  0
   -7.3070   19.0830  -33.0380 C   0  0  0  0  0  0  0  0  0  0  0  0
   -6.2810   18.4870  -33.9670 C   0  0  0  0  0  0  0  0  0  0  0  0
   -4.8620   19.0140  -33.8210 C   0  0  0  0  0  0  0  0  0  0  0  0
   -5.2110   17.6180  -33.3220 C   0  0  0  0  0  0  0  0  0  0  0  0
   -7.3560   20.3680  -32.7740 O   0  0  0  0  0  0  0  0  0  0  0  0
   -8.3440   20.5860  -31.9360 C   0  0  0  0  0  0  0  0  0  0  0  0
   -8.6830   21.9290  -31.3770 C   0  0  0  0  0  0  0  0  0  0  0  0
   -7.5060   22.8370  -31.5140 C   0  0  0  0  0  0  0  0  0  0  0  0
   -6.7120   22.9030  -32.5960 N   0  0  0  0  0  0  0  0  0  0  0  0
   -5.8150   23.8480  -32.3750 N   0  0  0  0  0  0  0  0  0  0  0  0
   -6.0990   24.3280  -31.1470 C   0  0  0  0  0  0  0  0  0  0  0  0
   -5.3500   25.4400  -30.4850 C   0  0  0  0  0  0  0  0  0  0  0  0
   -4.1870   24.9060  -29.7520 N   0  0  0  0  0  0  0  0  0  0  0  0
   -4.5810   24.3370  -28.4610 C   0  0  0  0  0  0  0  0  0  0  0  0
   -3.5300   23.3010  -28.1020 C   0  0  0  0  0  0  0  0  0  0  0  0
   -2.8530   22.9400  -29.4150 C   0  0  0  0  0  0  0  0  0  0  0  0
   -3.5240   23.8100  -30.4680 C   0  0  0  0  0  0  0  0  0  0  0  0
   -7.1360   23.7170  -30.6160 O   0  0  0  0  0  0  0  0  0  0  0  0
   -9.8303   19.2593  -30.9479 H   0  0  0  0  0  0  0  0  0  0  0  0
   -8.5247   17.3466  -32.3441 H   0  0  0  0  0  0  0  0  0  0  0  0
   -6.9842   18.3611  -34.8034 H   0  0  0  0  0  0  0  0  0  0  0  0
   -4.2268   19.1373  -34.7106 H   0  0  0  0  0  0  0  0  0  0  0  0
   -4.4071   19.9093  -33.3721 H   0  0  0  0  0  0  0  0  0  0  0  0
   -4.8283   16.7329  -33.8512 H   0  0  0  0  0  0  0  0  0  0  0  0
   -5.1130   17.0870  -32.3636 H   0  0  0  0  0  0  0  0  0  0  0  0
   -9.5371   22.3503  -31.9275 H   0  0  0  0  0  0  0  0  0  0  0  0
   -8.9459   21.8277  -30.3137 H   0  0  0  0  0  0  0  0  0  0  0  0
   -6.7800   22.3340  -33.4690 H   0  0  0  0  0  0  0  0  0  0  0  0
   -5.0025   26.1498  -31.2501 H   0  0  0  0  0  0  0  0  0  0  0  0
   -6.0181   25.9497  -29.7752 H   0  0  0  0  0  0  0  0  0  0  0  0
   -4.6145   25.1247  -27.6939 H   0  0  0  0  0  0  0  0  0  0  0  0
   -5.5813   23.8829  -28.5173 H   0  0  0  0  0  0  0  0  0  0  0  0
   -2.7997   23.7226  -27.3957 H   0  0  0  0  0  0  0  0  0  0  0  0
   -3.9738   22.4201  -27.6151 H   0  0  0  0  0  0  0  0  0  0  0  0
   -1.7759   23.1577  -29.3653 H   0  0  0  0  0  0  0  0  0  0  0  0
   -2.9520   21.8690  -29.6455 H   0  0  0  0  0  0  0  0  0  0  0  0
   -2.7718   24.2118  -31.1628 H   0  0  0  0  0  0  0  0  0  0  0  0
   -4.2480   23.2286  -31.0578 H   0  0  0  0  0  0  0  0  0  0  0  0
  1  2  1  0
  2  3  2  0
  3  4  1  0
  4  5  1  0
  5  6  1  0
  3  7  1  0
  7  8  1  0
  8  9  1  0
  9 10  1  0
 10 11  2  0
 11 12  1  0
 12 13  2  0
 13 14  1  0
 14 15  1  0
 15 16  1  0
 16 17  1  0
 17 18  1  0
 18 19  1  0
 13 20  1  0
  8  1  2  0
 20 10  1  0
  6  4  1  0
 19 15  1  0
  1 21  1  0
  2 22  1  0
  4 23  1  0
  5 24  1  0
  5 25  1  0
  6 26  1  0
  6 27  1  0
  9 28  1  0
  9 29  1  0
 11 30  1  0
 14 31  1  0
 14 32  1  0
 16 33  1  0
 16 34  1  0
 17 35  1  0
 17 36  1  0
 18 37  1  0
 18 38  1  0
 19 39  1  0
 19 40  1  0
M  CHG  1  11   1
M  END
>  <UniqueID>  (42) 
39

>  <SMILES>  (42) 
c1cc(C2CC2)oc1Cc1[nH+]nc(CN2CCCC2)o1

>  <Energy>  (42) 
366.1036966813918

>  <Genealogy>  (42) 
c1cc(C2CC2)oc1Cc1[nH+]nc(CN2CCCC2)o1 (protonated)
c1cc(C2CC2)oc1Cc1[nH+]nc(CN2CCCC2)o1 (3D coordinates assigned)
c1cc(C2CC2)oc1Cc1[nH+]nc(CN2CCCC2)o1 (nonaromatic ring conformer: 366.1036966813918 kcal/mol)

>  <smiles>  (42) 
c1cc(C2CC2)oc1Cc1nnc(CN2CCCC2)o1

>  <score_type>  (42) 
oracle

>  <origin>  (42) 
adg

>  <m_score__min__energy>  (42) 
-7.6299999999999999

>  <m_primary>  (42) 
energy

$$$$
42:0
     RDKit          3D

 31 31  0  0  0  0  0  0  0  0999 V2000
   -0.5690   26.0010  -25.7780 C   0  0  0  0  0  0  0  0  0  0  0  0
   -1.7030   25.3940  -26.5480 C   0  0  0  0  0  0  0  0  0  0  0  0
   -2.9810   25.3090  -25.9750 C   0  0  0  0  0  0  0  0  0  0  0  0
   -4.0480   24.7780  -26.7060 C   0  0  0  0  0  0  0  0  0  0  0  0
   -3.8520   24.3250  -28.0220 C   0  0  0  0  0  0  0  0  0  0  0  0
   -4.9390   23.7980  -28.8030 N   0  0  0  0  0  0  0  0  0  0  0  0
   -5.0190   23.9030  -30.2360 C   0  0  0  0  0  0  0  0  0  0  0  0
   -4.3270   24.7750  -30.8350 O   0  0  0  0  0  0  0  0  0  0  0  0
   -5.9980   23.0400  -31.0220 C   0  0  0  0  0  0  0  0  0  0  0  0
   -7.2240   22.6820  -30.1500 C   0  0  0  0  0  0  0  0  0  0  0  0
   -6.4920   23.8120  -32.2630 C   0  0  0  0  0  0  0  0  0  0  0  0
   -5.2850   21.7420  -31.4560 C   0  0  0  0  0  0  0  0  0  0  0  0
   -4.1170   22.0220  -32.1440 F   0  0  0  0  0  0  0  0  0  0  0  0
   -2.5830   24.4500  -28.6050 C   0  0  0  0  0  0  0  0  0  0  0  0
   -1.5150   24.9790  -27.8740 C   0  0  0  0  0  0  0  0  0  0  0  0
   -0.7613   25.8981  -24.6998 H   0  0  0  0  0  0  0  0  0  0  0  0
    0.3670   25.4833  -26.0346 H   0  0  0  0  0  0  0  0  0  0  0  0
   -0.4807   27.0670  -26.0346 H   0  0  0  0  0  0  0  0  0  0  0  0
   -3.1442   25.6618  -24.9460 H   0  0  0  0  0  0  0  0  0  0  0  0
   -5.0464   24.7144  -26.2486 H   0  0  0  0  0  0  0  0  0  0  0  0
   -5.7520   23.3920  -28.2900 H   0  0  0  0  0  0  0  0  0  0  0  0
   -6.9533   22.7610  -29.0867 H   0  0  0  0  0  0  0  0  0  0  0  0
   -8.0471   23.3773  -30.3715 H   0  0  0  0  0  0  0  0  0  0  0  0
   -7.5436   21.6530  -30.3715 H   0  0  0  0  0  0  0  0  0  0  0  0
   -7.0591   24.6982  -31.9418 H   0  0  0  0  0  0  0  0  0  0  0  0
   -5.6281   24.1282  -32.8660 H   0  0  0  0  0  0  0  0  0  0  0  0
   -7.1411   23.1600  -32.8660 H   0  0  0  0  0  0  0  0  0  0  0  0
   -5.0421   21.1492  -30.5618 H   0  0  0  0  0  0  0  0  0  0  0  0
   -5.9566   21.1798  -32.1214 H   0  0  0  0  0  0  0  0  0  0  0  0
   -2.4265   24.1294  -29.6455 H   0  0  0  0  0  0  0  0  0  0  0  0
   -0.5233   25.0700  -28.3411 H   0  0  0  0  0  0  0  0  0  0  0  0
  1  2  1  0
  2  3  2  0
  3  4  1  0
  4  5  2  0
  5  6  1  0
  6  7  1  0
  7  8  2  0
  7  9  1  0
  9 10  1  0
  9 11  1  0
  9 12  1  0
 12 13  1  0
  5 14  1  0
 14 15  2  0
 15  2  1  0
  1 16  1  0
  1 17  1  0
  1 18  1  0
  3 19  1  0
  4 20  1  0
  6 21  1  0
 10 22  1  0
 10 23  1  0
 10 24  1  0
 11 25  1  0
 11 26  1  0
 11 27  1  0
 12 28  1  0
 12 29  1  0
 14 30  1  0
 15 31  1  0
M  END
>  <UniqueID>  (43) 
40

>  <SMILES>  (43) 
Cc1ccc(NC(=O)C(C)(C)CF)cc1

>  <Energy>  (43) 
28.46527446529826

>  <Genealogy>  (43) 
Cc1ccc(NC(=O)C(C)(C)CF)cc1 (3D coordinates assigned)
Cc1ccc(NC(=O)C(C)(C)CF)cc1 (optimized conformer: 28.46527446529826 kcal/mol)

>  <smiles>  (43) 
Cc1ccc(NC(=O)C(C)(C)CF)cc1

>  <score_type>  (43) 
oracle

>  <origin>  (43) 
adg

>  <m_score__min__energy>  (43) 
-6.0300000000000002

>  <m_primary>  (43) 
energy

$$$$
43:0
     RDKit          3D

 37 37  0  0  0  0  0  0  0  0999 V2000
   -9.1000   20.0280  -31.9240 C   0  0  0  0  0  0  0  0  0  0  0  0
   -9.3490   21.5310  -31.8590 C   0  0  0  0  0  0  0  0  0  0  0  0
   -8.1950   22.2570  -31.1550 C   0  0  0  0  0  0  0  0  0  0  0  0
   -7.5200   23.2960  -32.0610 C   0  0  0  0  0  0  0  0  0  0  0  0
   -6.2940   23.7580  -31.4920 O   0  0  0  0  0  0  0  0  0  0  0  0
   -6.2190   24.6810  -30.4410 C   0  0  0  0  0  0  0  0  0  0  0  0
   -7.0550   24.6560  -29.4990 O   0  0  0  0  0  0  0  0  0  0  0  0
   -5.1720   25.7510  -30.4670 C   0  0  0  0  0  0  0  0  0  0  0  0
   -3.8620   25.1760  -30.7460 N   0  0  0  0  0  0  0  0  0  0  0  0
   -3.0430   24.5590  -29.7480 C   0  0  0  0  0  0  0  0  0  0  0  0
   -2.3300   25.2610  -28.9820 O   0  0  0  0  0  0  0  0  0  0  0  0
   -3.0880   23.0740  -29.5730 C   0  0  0  0  0  0  0  0  0  0  0  0
   -3.9100   22.4670  -30.6180 N   0  0  0  0  0  0  0  0  0  0  0  0
   -3.7840   21.0830  -30.9620 C   0  0  0  0  0  0  0  0  0  0  0  0
   -2.9330   20.3600  -30.3760 O   0  0  0  0  0  0  0  0  0  0  0  0
   -4.6490   20.4980  -31.9980 C   0  0  0  0  0  0  0  0  0  0  0  0
   -4.5720   19.2080  -32.4850 C   0  0  0  0  0  0  0  0  0  0  0  0
   -5.5690   19.1090  -33.4300 C   0  0  0  0  0  0  0  0  0  0  0  0
   -6.1900   20.3400  -33.4620 C   0  0  0  0  0  0  0  0  0  0  0  0
   -5.6210   21.1450  -32.5970 O   0  0  0  0  0  0  0  0  0  0  0  0
   -9.0329   19.6230  -30.9035 H   0  0  0  0  0  0  0  0  0  0  0  0
   -9.9298   19.5416  -32.4577 H   0  0  0  0  0  0  0  0  0  0  0  0
   -8.1577   19.8352  -32.4577 H   0  0  0  0  0  0  0  0  0  0  0  0
   -9.4476   21.9225  -32.8822 H   0  0  0  0  0  0  0  0  0  0  0  0
  -10.2710   21.7058  -31.2851 H   0  0  0  0  0  0  0  0  0  0  0  0
   -8.5896   22.7678  -30.2643 H   0  0  0  0  0  0  0  0  0  0  0  0
   -7.4392   21.5046  -30.8855 H   0  0  0  0  0  0  0  0  0  0  0  0
   -7.3116   22.8379  -33.0391 H   0  0  0  0  0  0  0  0  0  0  0  0
   -8.1983   24.1549  -32.1719 H   0  0  0  0  0  0  0  0  0  0  0  0
   -5.4208   26.4821  -31.2503 H   0  0  0  0  0  0  0  0  0  0  0  0
   -5.1424   26.2440  -29.4841 H   0  0  0  0  0  0  0  0  0  0  0  0
   -2.0667   22.6699  -29.6336 H   0  0  0  0  0  0  0  0  0  0  0  0
   -3.5264   22.8415  -28.5913 H   0  0  0  0  0  0  0  0  0  0  0  0
   -4.6120   23.0500  -31.1280 H   0  0  0  0  0  0  0  0  0  0  0  0
   -3.8628   18.4237  -32.1816 H   0  0  0  0  0  0  0  0  0  0  0  0
   -5.8194   18.2263  -34.0367 H   0  0  0  0  0  0  0  0  0  0  0  0
   -7.0347   20.6064  -34.1143 H   0  0  0  0  0  0  0  0  0  0  0  0
  1  2  1  0
  2  3  1  0
  3  4  1  0
  4  5  1  0
  5  6  1  0
  6  7  2  0
  6  8  1  0
  8  9  1  0
  9 10  1  0
 10 11  2  0
 10 12  1  0
 12 13  1  0
 13 14  1  0
 14 15  2  0
 14 16  1  0
 16 17  2  0
 17 18  1  0
 18 19  2  0
 19 20  1  0
 20 16  1  0
  1 21  1  0
  1 22  1  0
  1 23  1  0
  2 24  1  0
  2 25  1  0
  3 26  1  0
  3 27  1  0
  4 28  1  0
  4 29  1  0
  8 30  1  0
  8 31  1  0
 12 32  1  0
 12 33  1  0
 13 34  1  0
 17 35  1  0
 18 36  1  0
 19 37  1  0
M  CHG  1   9  -1
M  END
>  <UniqueID>  (44) 
41

>  <SMILES>  (44) 
CCCCOC(=O)C[N-]C(=O)CNC(=O)c1ccco1

>  <Energy>  (44) 
44.89024268203087

>  <Genealogy>  (44) 
CCCCOC(=O)C[N-]C(=O)CNC(=O)c1ccco1 (protonated)
CCCCOC(=O)C[N-]C(=O)CNC(=O)c1ccco1 (3D coordinates assigned)
CCCCOC(=O)C[N-]C(=O)CNC(=O)c1ccco1 (optimized conformer: 44.89024268203087 kcal/mol)

>  <smiles>  (44) 
CCCCOC(=O)CNC(=O)CNC(=O)c1ccco1

>  <score_type>  (44) 
oracle

>  <origin>  (44) 
adg

>  <m_score__min__energy>  (44) 
-6.8700000000000001

>  <m_primary>  (44) 
energy

$$$$
44:0
     RDKit          3D

 50 51  0  0  0  0  0  0  0  0999 V2000
   -4.2250   24.9170  -26.3970 C   0  0  0  0  0  0  0  0  0  0  0  0
   -3.4140   24.5260  -27.6350 C   0  0  0  0  0  0  0  0  0  0  0  0
   -4.0200   23.4440  -28.4360 N   0  0  0  0  0  0  0  0  0  0  0  0
   -3.8640   22.0580  -27.9500 C   0  0  0  0  0  0  0  0  0  0  0  0
   -2.4420   21.7010  -27.5010 C   0  0  0  0  0  0  0  0  0  0  0  0
   -4.0290   23.6950  -30.1680 S   0  0  0  0  0  0  0  0  0  0  0  0
   -5.4300   23.5720  -30.6970 O   0  0  0  0  0  0  0  0  0  0  0  0
   -3.5540   25.0930  -30.4520 O   0  0  0  0  0  0  0  0  0  0  0  0
   -2.9730   22.5660  -31.0220 C   0  0  0  0  0  0  0  0  0  0  0  0
   -1.6330   22.4310  -30.6320 C   0  0  0  0  0  0  0  0  0  0  0  0
   -0.7980   21.5270  -31.2900 C   0  0  0  0  0  0  0  0  0  0  0  0
   -1.2870   20.7640  -32.3520 C   0  0  0  0  0  0  0  0  0  0  0  0
   -2.6170   20.9160  -32.7800 C   0  0  0  0  0  0  0  0  0  0  0  0
   -3.1520   20.1300  -33.8600 N   0  0  0  0  0  0  0  0  0  0  0  0
   -3.6170   18.7790  -33.7180 C   0  0  0  0  0  0  0  0  0  0  0  0
   -3.3280   18.1070  -32.6900 O   0  0  0  0  0  0  0  0  0  0  0  0
   -4.3680   18.1210  -34.8320 C   0  0  0  0  0  0  0  0  0  0  0  0
   -5.6400   17.6860  -34.3590 O   0  0  0  0  0  0  0  0  0  0  0  0
   -6.4840   18.4510  -33.5410 C   0  0  0  0  0  0  0  0  0  0  0  0
   -7.4790   17.8770  -32.7340 C   0  0  0  0  0  0  0  0  0  0  0  0
   -8.2860   18.6960  -31.9430 C   0  0  0  0  0  0  0  0  0  0  0  0
   -8.1220   20.0540  -31.9490 N   0  0  0  0  0  0  0  0  0  0  0  0
   -8.9780   20.8940  -31.1020 C   0  0  0  0  0  0  0  0  0  0  0  0
   -7.1510   20.6310  -32.7280 C   0  0  0  0  0  0  0  0  0  0  0  0
   -6.9890   21.8830  -32.7300 O   0  0  0  0  0  0  0  0  0  0  0  0
   -6.3270   19.8370  -33.5320 C   0  0  0  0  0  0  0  0  0  0  0  0
   -3.4560   21.8110  -32.1000 C   0  0  0  0  0  0  0  0  0  0  0  0
   -3.6637   24.6464  -25.4905 H   0  0  0  0  0  0  0  0  0  0  0  0
   -4.4070   26.0018  -26.4054 H   0  0  0  0  0  0  0  0  0  0  0  0
   -5.1871   24.3838  -26.4054 H   0  0  0  0  0  0  0  0  0  0  0  0
   -3.3118   25.4143  -28.2757 H   0  0  0  0  0  0  0  0  0  0  0  0
   -2.4459   24.1489  -27.2737 H   0  0  0  0  0  0  0  0  0  0  0  0
   -4.5410   21.9149  -27.0949 H   0  0  0  0  0  0  0  0  0  0  0  0
   -4.1002   21.3991  -28.7986 H   0  0  0  0  0  0  0  0  0  0  0  0
   -2.3965   21.6896  -26.4020 H   0  0  0  0  0  0  0  0  0  0  0  0
   -2.1734   20.7075  -27.8894 H   0  0  0  0  0  0  0  0  0  0  0  0
   -1.7360   22.4498  -27.8894 H   0  0  0  0  0  0  0  0  0  0  0  0
   -1.2387   23.0395  -29.8048 H   0  0  0  0  0  0  0  0  0  0  0  0
    0.2488   21.4152  -30.9709 H   0  0  0  0  0  0  0  0  0  0  0  0
   -0.6287   20.0410  -32.8558 H   0  0  0  0  0  0  0  0  0  0  0  0
   -3.1280   20.5390  -34.8220 H   0  0  0  0  0  0  0  0  0  0  0  0
   -4.5087   18.8393  -35.6531 H   0  0  0  0  0  0  0  0  0  0  0  0
   -3.7971   17.2538  -35.1955 H   0  0  0  0  0  0  0  0  0  0  0  0
   -7.6220   16.7864  -32.7252 H   0  0  0  0  0  0  0  0  0  0  0  0
   -9.0624   18.2446  -31.3078 H   0  0  0  0  0  0  0  0  0  0  0  0
   -8.7647   20.6847  -30.0434 H   0  0  0  0  0  0  0  0  0  0  0  0
   -8.7762   21.9543  -31.3140 H   0  0  0  0  0  0  0  0  0  0  0  0
  -10.0343   20.6722  -31.3140 H   0  0  0  0  0  0  0  0  0  0  0  0
   -5.5539   20.3062  -34.1582 H   0  0  0  0  0  0  0  0  0  0  0  0
   -4.5039   21.9217  -32.4158 H   0  0  0  0  0  0  0  0  0  0  0  0
  1  2  1  0
  2  3  1  0
  3  4  1  0
  4  5  1  0
  3  6  1  0
  6  7  2  0
  6  8  2  0
  6  9  1  0
  9 10  2  0
 10 11  1  0
 11 12  2  0
 12 13  1  0
 13 14  1  0
 14 15  1  0
 15 16  2  0
 15 17  1  0
 17 18  1  0
 18 19  1  0
 19 20  1  0
 20 21  2  0
 21 22  1  0
 22 23  1  0
 22 24  1  0
 24 25  2  0
 24 26  1  0
 13 27  2  0
 27  9  1  0
 26 19  2  0
  1 28  1  0
  1 29  1  0
  1 30  1  0
  2 31  1  0
  2 32  1  0
  4 33  1  0
  4 34  1  0
  5 35  1  0
  5 36  1  0
  5 37  1  0
 10 38  1  0
 11 39  1  0
 12 40  1  0
 14 41  1  0
 17 42  1  0
 17 43  1  0
 20 44  1  0
 21 45  1  0
 23 46  1  0
 23 47  1  0
 23 48  1  0
 26 49  1  0
 27 50  1  0
M  END
>  <UniqueID>  (45) 
42

>  <SMILES>  (45) 
CCN(CC)S(=O)(=O)c1cccc(NC(=O)COc2ccn(C)c(=O)c2)c1

>  <Energy>  (45) 
60.17049510376444

>  <Genealogy>  (45) 
CCN(CC)S(=O)(=O)c1cccc(NC(=O)COc2ccn(C)c(=O)c2)c1 (3D coordinates assigned)
CCN(CC)S(=O)(=O)c1cccc(NC(=O)COc2ccn(C)c(=O)c2)c1 (optimized conformer: 60.17049510376444 kcal/mol)

>  <smiles>  (45) 
CCN(CC)S(=O)(=O)c1cccc(NC(=O)COc2ccn(C)c(=O)c2)c1

>  <score_type>  (45) 
oracle

>  <origin>  (45) 
adg

>  <m_score__min__energy>  (45) 
-9.1899999999999995

>  <m_primary>  (45) 
energy

$$$$
45:0
     RDKit          3D

 53 56  0  0  0  0  0  0  0  0999 V2000
   -6.5070   16.8440  -33.2600 C   0  0  0  0  0  0  0  0  0  0  0  0
   -6.1730   17.6330  -31.9960 C   0  0  0  0  0  0  0  0  0  0  0  0
   -6.1060   19.0950  -32.2510 N   0  0  0  0  0  0  0  0  0  0  0  0
   -7.2010   19.5410  -33.1570 C   0  0  0  0  0  0  0  0  0  0  0  0
   -8.4380   20.0040  -32.3610 C   0  0  0  0  0  0  0  0  0  0  0  0
   -8.5200   21.4800  -32.2700 N   0  0  0  0  0  0  0  0  0  0  0  0
   -7.2360   22.1220  -32.6410 C   0  0  0  0  0  0  0  0  0  0  0  0
   -7.0520   23.4740  -31.9320 C   0  0  0  0  0  0  0  0  0  0  0  0
   -7.0300   23.3680  -30.5150 O   0  0  0  0  0  0  0  0  0  0  0  0
   -7.8330   22.3080  -30.0100 C   0  0  0  0  0  0  0  0  0  0  0  0
   -9.0000   21.9140  -30.9350 C   0  0  0  0  0  0  0  0  0  0  0  0
   -4.7850   19.4460  -32.8290 C   0  0  0  0  0  0  0  0  0  0  0  0
   -4.1030   20.5320  -32.0330 C   0  0  0  0  0  0  0  0  0  0  0  0
   -4.7410   21.1100  -30.9250 C   0  0  0  0  0  0  0  0  0  0  0  0
   -4.1130   22.1240  -30.1960 C   0  0  0  0  0  0  0  0  0  0  0  0
   -2.8300   22.5670  -30.5550 C   0  0  0  0  0  0  0  0  0  0  0  0
   -2.1860   23.6490  -29.7800 C   0  0  0  0  0  0  0  0  0  0  0  0
   -2.6600   24.9190  -29.7300 N   0  0  0  0  0  0  0  0  0  0  0  0
   -1.8690   25.6560  -28.9550 N   0  0  0  0  0  0  0  0  0  0  0  0
   -0.8960   24.8450  -28.5120 C   0  0  0  0  0  0  0  0  0  0  0  0
    0.1050   25.1810  -27.6610 N   0  0  0  0  0  0  0  0  0  0  0  0
    0.9900   24.2160  -27.2670 C   0  0  0  0  0  0  0  0  0  0  0  0
    0.8510   22.8850  -27.7250 C   0  0  0  0  0  0  0  0  0  0  0  0
   -0.1970   22.5510  -28.6010 C   0  0  0  0  0  0  0  0  0  0  0  0
   -1.0520   23.5790  -28.9930 C   0  0  0  0  0  0  0  0  0  0  0  0
   -2.2000   22.0010  -31.6750 C   0  0  0  0  0  0  0  0  0  0  0  0
   -2.8290   20.9890  -32.4040 C   0  0  0  0  0  0  0  0  0  0  0  0
   -6.9219   15.8640  -32.9816 H   0  0  0  0  0  0  0  0  0  0  0  0
   -7.2470   17.3999  -33.8545 H   0  0  0  0  0  0  0  0  0  0  0  0
   -5.5928   16.6997  -33.8545 H   0  0  0  0  0  0  0  0  0  0  0  0
   -6.9499   17.4398  -31.2416 H   0  0  0  0  0  0  0  0  0  0  0  0
   -5.1840   17.3050  -31.6435 H   0  0  0  0  0  0  0  0  0  0  0  0
   -6.8379   20.3775  -33.7722 H   0  0  0  0  0  0  0  0  0  0  0  0
   -7.4951   18.6900  -33.7888 H   0  0  0  0  0  0  0  0  0  0  0  0
   -9.3429   19.6284  -32.8611 H   0  0  0  0  0  0  0  0  0  0  0  0
   -8.3528   19.6053  -31.3393 H   0  0  0  0  0  0  0  0  0  0  0  0
   -6.4086   21.4549  -32.3574 H   0  0  0  0  0  0  0  0  0  0  0  0
   -7.2426   22.3013  -33.7263 H   0  0  0  0  0  0  0  0  0  0  0  0
   -6.1007   23.9154  -32.2638 H   0  0  0  0  0  0  0  0  0  0  0  0
   -7.9156   24.1013  -32.1981 H   0  0  0  0  0  0  0  0  0  0  0  0
   -7.1918   21.4258  -29.8664 H   0  0  0  0  0  0  0  0  0  0  0  0
   -8.2776   22.6645  -29.0691 H   0  0  0  0  0  0  0  0  0  0  0  0
   -9.5590   21.0879  -30.4713 H   0  0  0  0  0  0  0  0  0  0  0  0
   -9.6420   22.7967  -31.0719 H   0  0  0  0  0  0  0  0  0  0  0  0
   -4.1466   18.5502  -32.8313 H   0  0  0  0  0  0  0  0  0  0  0  0
   -4.9439   19.8167  -33.8524 H   0  0  0  0  0  0  0  0  0  0  0  0
   -5.7417   20.7630  -30.6281 H   0  0  0  0  0  0  0  0  0  0  0  0
   -4.6271   22.5776  -29.3358 H   0  0  0  0  0  0  0  0  0  0  0  0
    1.8160   24.4767  -26.5890 H   0  0  0  0  0  0  0  0  0  0  0  0
    1.5617   22.1123  -27.3964 H   0  0  0  0  0  0  0  0  0  0  0  0
   -0.3360   21.5212  -28.9617 H   0  0  0  0  0  0  0  0  0  0  0  0
   -1.2049   22.3568  -31.9802 H   0  0  0  0  0  0  0  0  0  0  0  0
   -2.3223   20.5473  -33.2747 H   0  0  0  0  0  0  0  0  0  0  0  0
  1  2  1  0
  2  3  1  0
  3  4  1  0
  4  5  1  0
  5  6  1  0
  6  7  1  0
  7  8  1  0
  8  9  1  0
  9 10  1  0
 10 11  1  0
  3 12  1  0
 12 13  1  0
 13 14  2  0
 14 15  1  0
 15 16  2  0
 16 17  1  0
 17 18  1  0
 18 19  1  0
 19 20  2  0
 20 21  1  0
 21 22  2  0
 22 23  1  0
 23 24  2  0
 24 25  1  0
 16 26  1  0
 26 27  2  0
 11  6  1  0
 27 13  1  0
 25 17  2  0
 25 20  1  0
  1 28  1  0
  1 29  1  0
  1 30  1  0
  2 31  1  0
  2 32  1  0
  4 33  1  0
  4 34  1  0
  5 35  1  0
  5 36  1  0
  7 37  1  0
  7 38  1  0
  8 39  1  0
  8 40  1  0
 10 41  1  0
 10 42  1  0
 11 43  1  0
 11 44  1  0
 12 45  1  0
 12 46  1  0
 14 47  1  0
 15 48  1  0
 22 49  1  0
 23 50  1  0
 24 51  1  0
 26 52  1  0
 27 53  1  0
M  CHG  1  18  -1
M  END
>  <UniqueID>  (46) 
43

>  <SMILES>  (46) 
CCN(CCN1CCOCC1)Cc1ccc(-c2[n-]nc3ncccc23)cc1

>  <Energy>  (46) 
116.90584583076738

>  <Genealogy>  (46) 
CCN(CCN1CCOCC1)Cc1ccc(-c2[n-]nc3ncccc23)cc1 (protonated)
CCN(CCN1CCOCC1)Cc1ccc(-c2[n-]nc3ncccc23)cc1 (3D coordinates assigned)
CCN(CCN1CCOCC1)Cc1ccc(-c2[n-]nc3ncccc23)cc1 (nonaromatic ring conformer: 116.90584583076738 kcal/mol)

>  <smiles>  (46) 
CCN(CCN1CCOCC1)Cc1ccc(-c2[nH]nc3ncccc23)cc1

>  <score_type>  (46) 
oracle

>  <origin>  (46) 
adg

>  <m_score__min__energy>  (46) 
-10.039999999999999

>  <m_primary>  (46) 
energy

$$$$
