0:0
     RDKit          3D

 41 43  0  0  0  0  0  0  0  0999 V2000
   -4.9830   18.9510  -33.9820 C   0  0  0  0  0  0  0  0  0  0  0  0
   -4.3930   19.9180  -32.9980 C   0  0  0  0  0  0  0  0  0  0  0  0
   -3.4640   20.8800  -33.4230 C   0  0  0  0  0  0  0  0  0  0  0  0
   -2.8860   21.7560  -32.5010 C   0  0  0  0  0  0  0  0  0  0  0  0
   -3.2200   21.6780  -31.1390 C   0  0  0  0  0  0  0  0  0  0  0  0
   -2.6160   22.6440  -30.1510 C   0  0  0  0  0  0  0  0  0  0  0  0
   -3.6470   23.5000  -29.5420 N   0  0  0  0  0  0  0  0  0  0  0  0
   -3.5190   23.9270  -28.1380 C   0  0  0  0  0  0  0  0  0  0  0  0
   -2.3470   24.8430  -27.9450 C   0  0  0  0  0  0  0  0  0  0  0  0
   -1.5660   24.9210  -26.8100 C   0  0  0  0  0  0  0  0  0  0  0  0
   -0.6070   25.8720  -27.0840 C   0  0  0  0  0  0  0  0  0  0  0  0
   -0.8570   26.3070  -28.3700 C   0  0  0  0  0  0  0  0  0  0  0  0
   -1.8990   25.6740  -28.8570 O   0  0  0  0  0  0  0  0  0  0  0  0
   -4.5800   24.1880  -30.3990 C   0  0  0  0  0  0  0  0  0  0  0  0
   -4.2900   25.3330  -30.8410 O   0  0  0  0  0  0  0  0  0  0  0  0
   -5.8780   23.5910  -30.7760 C   0  0  0  0  0  0  0  0  0  0  0  0
   -6.4450   23.8090  -32.0430 C   0  0  0  0  0  0  0  0  0  0  0  0
   -7.6800   23.2360  -32.3500 C   0  0  0  0  0  0  0  0  0  0  0  0
   -8.3440   22.4630  -31.3970 C   0  0  0  0  0  0  0  0  0  0  0  0
   -7.7620   22.2790  -30.1420 C   0  0  0  0  0  0  0  0  0  0  0  0
   -6.5570   22.8440  -29.8610 N   0  0  0  0  0  0  0  0  0  0  0  0
   -4.1340   20.7000  -30.7130 C   0  0  0  0  0  0  0  0  0  0  0  0
   -4.7110   19.8220  -31.6360 C   0  0  0  0  0  0  0  0  0  0  0  0
   -5.4814   18.1341  -33.4395 H   0  0  0  0  0  0  0  0  0  0  0  0
   -5.7168   19.4728  -34.6139 H   0  0  0  0  0  0  0  0  0  0  0  0
   -4.1834   18.5372  -34.6139 H   0  0  0  0  0  0  0  0  0  0  0  0
   -3.1898   20.9446  -34.4863 H   0  0  0  0  0  0  0  0  0  0  0  0
   -2.1644   22.5120  -32.8440 H   0  0  0  0  0  0  0  0  0  0  0  0
   -2.1083   22.0751  -29.3581 H   0  0  0  0  0  0  0  0  0  0  0  0
   -1.9021   23.2873  -30.6862 H   0  0  0  0  0  0  0  0  0  0  0  0
   -4.4372   24.4543  -27.8399 H   0  0  0  0  0  0  0  0  0  0  0  0
   -3.3620   23.0316  -27.5186 H   0  0  0  0  0  0  0  0  0  0  0  0
   -1.6842   24.3445  -25.8807 H   0  0  0  0  0  0  0  0  0  0  0  0
    0.1951   26.2149  -26.4138 H   0  0  0  0  0  0  0  0  0  0  0  0
   -0.2717   27.0688  -28.9057 H   0  0  0  0  0  0  0  0  0  0  0  0
   -5.9198   24.4262  -32.7868 H   0  0  0  0  0  0  0  0  0  0  0  0
   -8.1291   23.3936  -33.3417 H   0  0  0  0  0  0  0  0  0  0  0  0
   -9.3154   22.0037  -31.6322 H   0  0  0  0  0  0  0  0  0  0  0  0
   -8.2780   21.6768  -29.3797 H   0  0  0  0  0  0  0  0  0  0  0  0
   -4.3973   20.6244  -29.6477 H   0  0  0  0  0  0  0  0  0  0  0  0
   -5.4176   19.0525  -31.2917 H   0  0  0  0  0  0  0  0  0  0  0  0
  1  2  1  0
  2  3  2  0
  3  4  1  0
  4  5  2  0
  5  6  1  0
  6  7  1  0
  7  8  1  0
  8  9  1  0
  9 10  2  0
 10 11  1  0
 11 12  2  0
 12 13  1  0
  7 14  1  0
 14 15  2  0
 14 16  1  0
 16 17  2  0
 17 18  1  0
 18 19  2  0
 19 20  1  0
 20 21  2  0
  5 22  1  0
 22 23  2  0
 23  2  1  0
 13  9  1  0
 21 16  1  0
  1 24  1  0
  1 25  1  0
  1 26  1  0
  3 27  1  0
  4 28  1  0
  6 29  1  0
  6 30  1  0
  8 31  1  0
  8 32  1  0
 10 33  1  0
 11 34  1  0
 12 35  1  0
 17 36  1  0
 18 37  1  0
 19 38  1  0
 20 39  1  0
 22 40  1  0
 23 41  1  0
M  END
>  <UniqueID>  (1) 
1

>  <SMILES>  (1) 
Cc1ccc(CN(Cc2ccco2)C(=O)c2ccccn2)cc1

>  <Energy>  (1) 
71.45648986789512

>  <Genealogy>  (1) 
Cc1ccc(CN(Cc2ccco2)C(=O)c2ccccn2)cc1 (3D coordinates assigned)
Cc1ccc(CN(Cc2ccco2)C(=O)c2ccccn2)cc1 (optimized conformer: 71.45648986789512 kcal/mol)

>  <smiles>  (1) 
Cc1ccc(CN(Cc2ccco2)C(=O)c2ccccn2)cc1

>  <score_type>  (1) 
oracle

>  <origin>  (1) 
adg

>  <m_score__min__energy>  (1) 
-7.9800000000000004

>  <m_primary>  (1) 
energy

$$$$
1:0
     RDKit          3D

 32 34  0  0  0  0  0  0  0  0999 V2000
   -5.8050   26.0550  -30.0950 C   0  0  0  0  0  0  0  0  0  0  0  0
   -4.6680   25.5930  -30.8190 O   0  0  0  0  0  0  0  0  0  0  0  0
   -4.1040   24.3150  -30.6810 C   0  0  0  0  0  0  0  0  0  0  0  0
   -4.6790   23.1710  -31.2680 C   0  0  0  0  0  0  0  0  0  0  0  0
   -4.0930   21.9070  -31.0950 C   0  0  0  0  0  0  0  0  0  0  0  0
   -4.7010   20.7240  -31.7410 C   0  0  0  0  0  0  0  0  0  0  0  0
   -5.8880   20.2090  -31.3220 N   0  0  0  0  0  0  0  0  0  0  0  0
   -6.0910   19.1790  -32.1630 C   0  0  0  0  0  0  0  0  0  0  0  0
   -7.1750   18.3050  -32.1860 C   0  0  0  0  0  0  0  0  0  0  0  0
   -7.1820   17.2960  -33.1670 C   0  0  0  0  0  0  0  0  0  0  0  0
   -6.1160   17.1880  -34.0890 C   0  0  0  0  0  0  0  0  0  0  0  0
   -5.0350   18.0880  -34.0380 C   0  0  0  0  0  0  0  0  0  0  0  0
   -5.0610   19.0760  -33.0510 C   0  0  0  0  0  0  0  0  0  0  0  0
   -4.1590   20.0380  -32.7880 N   0  0  0  0  0  0  0  0  0  0  0  0
   -2.8840   20.2610  -33.4690 C   0  0  0  0  0  0  0  0  0  0  0  0
   -2.9020   21.7980  -30.3610 C   0  0  0  0  0  0  0  0  0  0  0  0
   -2.3280   22.9280  -29.7770 C   0  0  0  0  0  0  0  0  0  0  0  0
   -2.9260   24.1820  -29.9330 C   0  0  0  0  0  0  0  0  0  0  0  0
   -2.3440   25.2980  -29.3450 O   0  0  0  0  0  0  0  0  0  0  0  0
   -5.6094   25.9755  -29.0155 H   0  0  0  0  0  0  0  0  0  0  0  0
   -6.0036   27.1051  -30.3553 H   0  0  0  0  0  0  0  0  0  0  0  0
   -6.6798   25.4410  -30.3553 H   0  0  0  0  0  0  0  0  0  0  0  0
   -5.5959   23.2689  -31.8677 H   0  0  0  0  0  0  0  0  0  0  0  0
   -7.9977   18.4001  -31.4620 H   0  0  0  0  0  0  0  0  0  0  0  0
   -8.0218   16.5873  -33.2166 H   0  0  0  0  0  0  0  0  0  0  0  0
   -6.1314   16.3953  -34.8515 H   0  0  0  0  0  0  0  0  0  0  0  0
   -4.1996   18.0159  -34.7500 H   0  0  0  0  0  0  0  0  0  0  0  0
   -2.0887   20.4001  -32.7219 H   0  0  0  0  0  0  0  0  0  0  0  0
   -2.6475   19.3906  -34.0986 H   0  0  0  0  0  0  0  0  0  0  0  0
   -2.9569   21.1600  -34.0986 H   0  0  0  0  0  0  0  0  0  0  0  0
   -2.4184   20.8168  -30.2454 H   0  0  0  0  0  0  0  0  0  0  0  0
   -1.4016   22.8317  -29.1918 H   0  0  0  0  0  0  0  0  0  0  0  0
  1  2  1  0
  2  3  1  0
  3  4  2  0
  4  5  1  0
  5  6  1  0
  6  7  1  0
  7  8  1  0
  8  9  2  0
  9 10  1  0
 10 11  2  0
 11 12  1  0
 12 13  2  0
 13 14  1  0
 14 15  1  0
  5 16  2  0
 16 17  1  0
 17 18  2  0
 18 19  1  0
 18  3  1  0
 14  6  2  0
 13  8  1  0
  1 20  1  0
  1 21  1  0
  1 22  1  0
  4 23  1  0
  9 24  1  0
 10 25  1  0
 11 26  1  0
 12 27  1  0
 15 28  1  0
 15 29  1  0
 15 30  1  0
 16 31  1  0
 17 32  1  0
M  CHG  3   7  -1  14   1  19  -1
M  END
>  <UniqueID>  (2) 
2

>  <SMILES>  (2) 
COc1cc(-c2[n-]c3ccccc3[n+]2C)ccc1[O-]

>  <Energy>  (2) 
76.39520165432755

>  <Genealogy>  (2) 
COc1cc(-c2[n-]c3ccccc3[n+]2C)ccc1[O-] (protonated)
COc1cc(-c2[n-]c3ccccc3[n+]2C)ccc1[O-] (3D coordinates assigned)
COc1cc(-c2[n-]c3ccccc3[n+]2C)ccc1[O-] (optimized conformer: 76.39520165432755 kcal/mol)

>  <smiles>  (2) 
COc1cc(-c2[nH]c3ccccc3[n+]2C)ccc1O

>  <score_type>  (2) 
oracle

>  <origin>  (2) 
adg

>  <m_score__min__energy>  (2) 
-9.8699999999999992

>  <m_primary>  (2) 
energy

$$$$
2:0
     RDKit          3D

 39 42  0  0  0  0  0  0  0  0999 V2000
   -8.5780   22.2280  -30.9320 C   0  0  0  0  0  0  0  0  0  0  0  0
   -7.2720   22.8210  -31.1450 N   0  0  0  0  0  0  0  0  0  0  0  0
   -6.6430   22.3200  -32.3460 C   0  0  0  0  0  0  0  0  0  0  0  0
   -6.6160   20.8270  -32.2880 C   0  0  0  0  0  0  0  0  0  0  0  0
   -5.5970   20.0300  -31.9110 C   0  0  0  0  0  0  0  0  0  0  0  0
   -5.7490   18.6990  -31.9200 C   0  0  0  0  0  0  0  0  0  0  0  0
   -7.0010   18.2300  -32.3350 C   0  0  0  0  0  0  0  0  0  0  0  0
   -7.9670   19.7630  -32.7180 S   0  0  0  0  0  0  0  0  0  0  0  0
   -6.4530   22.6910  -29.9600 C   0  0  0  0  0  0  0  0  0  0  0  0
   -5.3400   23.6630  -30.0810 C   0  0  0  0  0  0  0  0  0  0  0  0
   -5.4050   24.9550  -30.6170 C   0  0  0  0  0  0  0  0  0  0  0  0
   -4.1640   25.4760  -30.5280 N   0  0  0  0  0  0  0  0  0  0  0  0
   -3.3580   24.5880  -29.9790 N   0  0  0  0  0  0  0  0  0  0  0  0
   -4.0490   23.4960  -29.7050 C   0  0  0  0  0  0  0  0  0  0  0  0
   -3.4030   22.3090  -29.0720 C   0  0  0  0  0  0  0  0  0  0  0  0
   -3.5210   21.5170  -28.2410 N   0  0  0  0  0  0  0  0  0  0  0  0
   -2.7330   20.5230  -27.8910 C   0  0  0  0  0  0  0  0  0  0  0  0
   -2.9030   19.5780  -26.8730 C   0  0  0  0  0  0  0  0  0  0  0  0
   -1.9420   18.6280  -26.6920 C   0  0  0  0  0  0  0  0  0  0  0  0
   -0.7920   18.5030  -27.4260 C   0  0  0  0  0  0  0  0  0  0  0  0
   -0.6160   19.4470  -28.4460 C   0  0  0  0  0  0  0  0  0  0  0  0
   -1.5970   20.4160  -28.6320 C   0  0  0  0  0  0  0  0  0  0  0  0
   -1.7290   21.7620  -29.8000 S   0  0  0  0  0  0  0  0  0  0  0  0
   -8.7695   22.1410  -29.8523 H   0  0  0  0  0  0  0  0  0  0  0  0
   -9.3489   22.8644  -31.3911 H   0  0  0  0  0  0  0  0  0  0  0  0
   -8.6063   21.2288  -31.3911 H   0  0  0  0  0  0  0  0  0  0  0  0
   -7.2158   22.6456  -33.2268 H   0  0  0  0  0  0  0  0  0  0  0  0
   -5.6172   22.7099  -32.4215 H   0  0  0  0  0  0  0  0  0  0  0  0
   -4.6404   20.4722  -31.5959 H   0  0  0  0  0  0  0  0  0  0  0  0
   -4.9400   18.0168  -31.6198 H   0  0  0  0  0  0  0  0  0  0  0  0
   -7.3359   17.1853  -32.4155 H   0  0  0  0  0  0  0  0  0  0  0  0
   -7.0506   22.9135  -29.0637 H   0  0  0  0  0  0  0  0  0  0  0  0
   -6.0649   21.6660  -29.8669 H   0  0  0  0  0  0  0  0  0  0  0  0
   -6.2961   25.4496  -31.0308 H   0  0  0  0  0  0  0  0  0  0  0  0
   -3.8760   26.4250  -30.8420 H   0  0  0  0  0  0  0  0  0  0  0  0
   -3.7956   19.6012  -26.2306 H   0  0  0  0  0  0  0  0  0  0  0  0
   -2.1043   17.8976  -25.8857 H   0  0  0  0  0  0  0  0  0  0  0  0
   -0.0540   17.7119  -27.2271 H   0  0  0  0  0  0  0  0  0  0  0  0
    0.2783   19.4227  -29.0860 H   0  0  0  0  0  0  0  0  0  0  0  0
  1  2  1  0
  2  3  1  0
  3  4  1  0
  4  5  2  0
  5  6  1  0
  6  7  2  0
  7  8  1  0
  2  9  1  0
  9 10  1  0
 10 11  2  0
 11 12  1  0
 12 13  1  0
 13 14  2  0
 14 15  1  0
 15 16  2  0
 16 17  1  0
 17 18  2  0
 18 19  1  0
 19 20  2  0
 20 21  1  0
 21 22  2  0
 22 23  1  0
  8  4  1  0
 14 10  1  0
 23 15  1  0
 22 17  1  0
  1 24  1  0
  1 25  1  0
  1 26  1  0
  3 27  1  0
  3 28  1  0
  5 29  1  0
  6 30  1  0
  7 31  1  0
  9 32  1  0
  9 33  1  0
 11 34  1  0
 12 35  1  0
 18 36  1  0
 19 37  1  0
 20 38  1  0
 21 39  1  0
M  END
>  <smiles>  (3) 
CN(Cc1cccs1)Cc1c[nH]nc1-c1nc2ccccc2s1

>  <score_type>  (3) 
oracle

>  <origin>  (3) 
adg

>  <m_score__min__energy>  (3) 
-8.8300000000000001

>  <m_primary>  (3) 
energy

$$$$
3:0
     RDKit          3D

 40 42  0  0  0  0  0  0  0  0999 V2000
   -1.2240   21.0730  -33.3190 C   0  0  0  0  0  0  0  0  0  0  0  0
   -2.3570   20.3740  -32.5780 C   0  0  0  0  0  0  0  0  0  0  0  0
   -3.4060   21.3320  -32.2460 N   0  0  0  0  0  0  0  0  0  0  0  0
   -3.2290   22.5000  -31.6000 C   0  0  0  0  0  0  0  0  0  0  0  0
   -4.4690   23.0460  -31.3550 C   0  0  0  0  0  0  0  0  0  0  0  0
   -4.7850   24.4030  -30.2780 S   0  0  0  0  0  0  0  0  0  0  0  0
   -6.2690   24.5590  -30.1090 O   0  0  0  0  0  0  0  0  0  0  0  0
   -4.2180   25.6660  -30.8600 O   0  0  0  0  0  0  0  0  0  0  0  0
   -4.0530   24.1100  -28.7330 N   0  0  0  0  0  0  0  0  0  0  0  0
   -2.8320   23.3810  -28.5470 C   0  0  0  0  0  0  0  0  0  0  0  0
   -2.8390   22.0110  -28.2370 C   0  0  0  0  0  0  0  0  0  0  0  0
   -1.6400   21.3350  -27.9980 C   0  0  0  0  0  0  0  0  0  0  0  0
   -1.6620   19.6310  -27.5840 Cl  0  0  0  0  0  0  0  0  0  0  0  0
   -0.4250   22.0190  -28.0850 C   0  0  0  0  0  0  0  0  0  0  0  0
   -0.4070   23.3770  -28.4090 C   0  0  0  0  0  0  0  0  0  0  0  0
   -1.6110   24.0700  -28.6400 C   0  0  0  0  0  0  0  0  0  0  0  0
   -1.6360   25.4420  -28.9400 O   0  0  0  0  0  0  0  0  0  0  0  0
   -0.9430   26.4400  -28.2010 C   0  0  0  0  0  0  0  0  0  0  0  0
   -5.3750   22.1310  -31.8790 C   0  0  0  0  0  0  0  0  0  0  0  0
   -6.8470   22.1740  -31.8170 C   0  0  0  0  0  0  0  0  0  0  0  0
   -7.6300   23.2600  -32.1880 C   0  0  0  0  0  0  0  0  0  0  0  0
   -9.0020   23.0370  -32.0210 C   0  0  0  0  0  0  0  0  0  0  0  0
   -9.3060   21.7860  -31.5020 C   0  0  0  0  0  0  0  0  0  0  0  0
   -7.8640   20.9570  -31.2530 S   0  0  0  0  0  0  0  0  0  0  0  0
   -4.6980   21.0890  -32.4020 N   0  0  0  0  0  0  0  0  0  0  0  0
   -0.5221   21.5061  -32.5912 H   0  0  0  0  0  0  0  0  0  0  0  0
   -0.6944   20.3444  -33.9504 H   0  0  0  0  0  0  0  0  0  0  0  0
   -1.6375   21.8732  -33.9504 H   0  0  0  0  0  0  0  0  0  0  0  0
   -2.7760   19.5829  -33.2172 H   0  0  0  0  0  0  0  0  0  0  0  0
   -1.9629   19.9358  -31.6492 H   0  0  0  0  0  0  0  0  0  0  0  0
   -2.2619   22.9413  -31.3172 H   0  0  0  0  0  0  0  0  0  0  0  0
   -3.7937   21.4675  -28.1821 H   0  0  0  0  0  0  0  0  0  0  0  0
    0.5193   21.4867  -27.8979 H   0  0  0  0  0  0  0  0  0  0  0  0
    0.5531   23.9086  -28.4843 H   0  0  0  0  0  0  0  0  0  0  0  0
   -1.0717   26.2546  -27.1244 H   0  0  0  0  0  0  0  0  0  0  0  0
    0.1271   26.4064  -28.4535 H   0  0  0  0  0  0  0  0  0  0  0  0
   -1.3484   27.4309  -28.4535 H   0  0  0  0  0  0  0  0  0  0  0  0
   -7.2133   24.2017  -32.5746 H   0  0  0  0  0  0  0  0  0  0  0  0
   -9.7679   23.7838  -32.2773 H   0  0  0  0  0  0  0  0  0  0  0  0
  -10.3152   21.4031  -31.2902 H   0  0  0  0  0  0  0  0  0  0  0  0
  1  2  1  0
  2  3  1  0
  3  4  1  0
  4  5  2  0
  5  6  1  0
  6  7  2  0
  6  8  2  0
  6  9  1  0
  9 10  1  0
 10 11  2  0
 11 12  1  0
 12 13  1  0
 12 14  2  0
 14 15  1  0
 15 16  2  0
 16 17  1  0
 17 18  1  0
  5 19  1  0
 19 20  1  0
 20 21  2  0
 21 22  1  0
 22 23  2  0
 23 24  1  0
 19 25  2  0
 25  3  1  0
 16 10  1  0
 24 20  1  0
  1 26  1  0
  1 27  1  0
  1 28  1  0
  2 29  1  0
  2 30  1  0
  4 31  1  0
 11 32  1  0
 14 33  1  0
 15 34  1  0
 18 35  1  0
 18 36  1  0
 18 37  1  0
 21 38  1  0
 22 39  1  0
 23 40  1  0
M  CHG  1   9  -1
M  END
>  <UniqueID>  (4) 
3

>  <SMILES>  (4) 
CCn1cc(S(=O)(=O)[N-]c2cc(Cl)ccc2OC)c(-c2cccs2)n1

>  <Energy>  (4) 
96.52756922434688

>  <Genealogy>  (4) 
CCn1cc(S(=O)(=O)[N-]c2cc(Cl)ccc2OC)c(-c2cccs2)n1 (protonated)
CCn1cc(S(=O)(=O)[N-]c2cc(Cl)ccc2OC)c(-c2cccs2)n1 (3D coordinates assigned)
CCn1cc(S(=O)(=O)[N-]c2cc(Cl)ccc2OC)c(-c2cccs2)n1 (optimized conformer: 96.52756922434688 kcal/mol)

>  <smiles>  (4) 
CCn1cc(S(=O)(=O)Nc2cc(Cl)ccc2OC)c(-c2cccs2)n1

>  <score_type>  (4) 
oracle

>  <origin>  (4) 
adg

>  <m_score__min__energy>  (4) 
-10.09

>  <m_primary>  (4) 
energy

$$$$
4:0
     RDKit          3D

 47 49  0  0  0  0  0  0  0  0999 V2000
    0.6620   16.6210  -28.8620 C   0  0  0  0  0  0  0  0  0  0  0  0
    0.4430   17.1840  -27.4600 C   0  0  0  0  0  0  0  0  0  0  0  0
    0.0190   18.5910  -27.5280 N   0  0  0  0  0  0  0  0  0  0  0  0
    0.7480   19.5170  -28.4110 C   0  0  0  0  0  0  0  0  0  0  0  0
    2.2490   19.4760  -28.1370 C   0  0  0  0  0  0  0  0  0  0  0  0
   -1.1720   19.0020  -26.8210 C   0  0  0  0  0  0  0  0  0  0  0  0
   -2.0720   18.1550  -26.5700 O   0  0  0  0  0  0  0  0  0  0  0  0
   -1.3770   20.4190  -26.3560 C   0  0  0  0  0  0  0  0  0  0  0  0
   -0.9540   21.3540  -27.3490 O   0  0  0  0  0  0  0  0  0  0  0  0
   -1.8070   22.1010  -28.1770 C   0  0  0  0  0  0  0  0  0  0  0  0
   -1.5190   23.4560  -28.3710 C   0  0  0  0  0  0  0  0  0  0  0  0
   -2.3450   24.2620  -29.1600 C   0  0  0  0  0  0  0  0  0  0  0  0
   -2.0170   25.6050  -29.3120 O   0  0  0  0  0  0  0  0  0  0  0  0
   -3.4890   23.7090  -29.7780 C   0  0  0  0  0  0  0  0  0  0  0  0
   -4.3760   24.4600  -30.5740 C   0  0  0  0  0  0  0  0  0  0  0  0
   -4.1940   25.6910  -30.7780 O   0  0  0  0  0  0  0  0  0  0  0  0
   -5.4830   23.8340  -31.1480 C   0  0  0  0  0  0  0  0  0  0  0  0
   -5.6950   22.4630  -30.9250 C   0  0  0  0  0  0  0  0  0  0  0  0
   -6.8570   21.7450  -31.5050 C   0  0  0  0  0  0  0  0  0  0  0  0
   -6.7030   20.5460  -32.2330 C   0  0  0  0  0  0  0  0  0  0  0  0
   -7.8190   19.8880  -32.7590 C   0  0  0  0  0  0  0  0  0  0  0  0
   -9.0990   20.4090  -32.5600 C   0  0  0  0  0  0  0  0  0  0  0  0
   -9.2670   21.5870  -31.8300 C   0  0  0  0  0  0  0  0  0  0  0  0
   -8.1560   22.2500  -31.3020 C   0  0  0  0  0  0  0  0  0  0  0  0
   -4.8410   21.7850  -30.1620 O   0  0  0  0  0  0  0  0  0  0  0  0
   -3.7730   22.3360  -29.5930 C   0  0  0  0  0  0  0  0  0  0  0  0
   -2.9340   21.5410  -28.8060 C   0  0  0  0  0  0  0  0  0  0  0  0
    1.0599   15.5981  -28.7883 H   0  0  0  0  0  0  0  0  0  0  0  0
   -0.2951   16.6040  -29.4039 H   0  0  0  0  0  0  0  0  0  0  0  0
    1.3790   17.2552  -29.4039 H   0  0  0  0  0  0  0  0  0  0  0  0
   -0.3353   16.5959  -26.9517 H   0  0  0  0  0  0  0  0  0  0  0  0
    1.3892   17.1251  -26.9022 H   0  0  0  0  0  0  0  0  0  0  0  0
    0.5666   19.2319  -29.4578 H   0  0  0  0  0  0  0  0  0  0  0  0
    0.3870   20.5381  -28.2184 H   0  0  0  0  0  0  0  0  0  0  0  0
    2.4235   19.4712  -27.0509 H   0  0  0  0  0  0  0  0  0  0  0  0
    2.6781   18.5658  -28.5813 H   0  0  0  0  0  0  0  0  0  0  0  0
    2.7272   20.3614  -28.5813 H   0  0  0  0  0  0  0  0  0  0  0  0
   -2.4452   20.5769  -26.1462 H   0  0  0  0  0  0  0  0  0  0  0  0
   -0.7761   20.5785  -25.4485 H   0  0  0  0  0  0  0  0  0  0  0  0
   -0.6290   23.8940  -27.8955 H   0  0  0  0  0  0  0  0  0  0  0  0
   -6.1843   24.4093  -31.7703 H   0  0  0  0  0  0  0  0  0  0  0  0
   -5.6981   20.1261  -32.3877 H   0  0  0  0  0  0  0  0  0  0  0  0
   -7.6882   18.9576  -33.3310 H   0  0  0  0  0  0  0  0  0  0  0  0
   -9.9748   19.8914  -32.9783 H   0  0  0  0  0  0  0  0  0  0  0  0
  -10.2762   21.9942  -31.6701 H   0  0  0  0  0  0  0  0  0  0  0  0
   -8.2972   23.1744  -30.7228 H   0  0  0  0  0  0  0  0  0  0  0  0
   -3.1565   20.4714  -28.6779 H   0  0  0  0  0  0  0  0  0  0  0  0
  1  2  1  0
  2  3  1  0
  3  4  1  0
  4  5  1  0
  3  6  1  0
  6  7  2  0
  6  8  1  0
  8  9  1  0
  9 10  1  0
 10 11  2  0
 11 12  1  0
 12 13  1  0
 12 14  2  0
 14 15  1  0
 15 16  2  0
 15 17  1  0
 17 18  2  0
 18 19  1  0
 19 20  2  0
 20 21  1  0
 21 22  2  0
 22 23  1  0
 23 24  2  0
 18 25  1  0
 25 26  1  0
 26 27  2  0
 27 10  1  0
 26 14  1  0
 24 19  1  0
  1 28  1  0
  1 29  1  0
  1 30  1  0
  2 31  1  0
  2 32  1  0
  4 33  1  0
  4 34  1  0
  5 35  1  0
  5 36  1  0
  5 37  1  0
  8 38  1  0
  8 39  1  0
 11 40  1  0
 17 41  1  0
 20 42  1  0
 21 43  1  0
 22 44  1  0
 23 45  1  0
 24 46  1  0
 27 47  1  0
M  CHG  1  13  -1
M  END
>  <UniqueID>  (5) 
4

>  <SMILES>  (5) 
CCN(CC)C(=O)COc1cc([O-])c2c(=O)cc(-c3ccccc3)oc2c1

>  <Energy>  (5) 
52.02669364994607

>  <Genealogy>  (5) 
CCN(CC)C(=O)COc1cc([O-])c2c(=O)cc(-c3ccccc3)oc2c1 (protonated)
CCN(CC)C(=O)COc1cc([O-])c2c(=O)cc(-c3ccccc3)oc2c1 (3D coordinates assigned)
CCN(CC)C(=O)COc1cc([O-])c2c(=O)cc(-c3ccccc3)oc2c1 (optimized conformer: 52.02669364994607 kcal/mol)

>  <smiles>  (5) 
CCN(CC)C(=O)COc1cc(O)c2c(=O)cc(-c3ccccc3)oc2c1

>  <score_type>  (5) 
oracle

>  <origin>  (5) 
adg

>  <m_score__min__energy>  (5) 
-11.27

>  <m_primary>  (5) 
energy

$$$$
5:0
     RDKit          3D

 22 22  0  0  0  0  0  0  0  0999 V2000
   -6.3140   24.8810  -29.9060 O   0  0  0  0  0  0  0  0  0  0  0  0
   -4.9630   24.4450  -30.4000 S   0  0  0  0  0  0  0  0  0  0  0  0
   -4.2150   25.6690  -30.8440 O   0  0  0  0  0  0  0  0  0  0  0  0
   -4.1110   23.6410  -29.0460 C   0  0  0  0  0  0  0  0  0  0  0  0
   -2.6100   23.9070  -29.0630 C   0  0  0  0  0  0  0  0  0  0  0  0
   -2.0280   23.1830  -30.0870 F   0  0  0  0  0  0  0  0  0  0  0  0
   -2.3640   25.2510  -29.2760 F   0  0  0  0  0  0  0  0  0  0  0  0
   -5.2060   23.3510  -31.7280 N   0  0  0  0  0  0  0  0  0  0  0  0
   -6.2760   22.4090  -31.9030 C   0  0  0  0  0  0  0  0  0  0  0  0
   -5.9880   21.1900  -32.5330 C   0  0  0  0  0  0  0  0  0  0  0  0
   -6.9930   20.2390  -32.7320 C   0  0  0  0  0  0  0  0  0  0  0  0
   -8.2970   20.5000  -32.3080 C   0  0  0  0  0  0  0  0  0  0  0  0
   -9.2700   19.5760  -32.5050 F   0  0  0  0  0  0  0  0  0  0  0  0
   -8.5990   21.7150  -31.6870 C   0  0  0  0  0  0  0  0  0  0  0  0
   -9.8680   21.9740  -31.2820 F   0  0  0  0  0  0  0  0  0  0  0  0
   -7.5950   22.6690  -31.4840 C   0  0  0  0  0  0  0  0  0  0  0  0
   -4.5249   24.0136  -28.0974 H   0  0  0  0  0  0  0  0  0  0  0  0
   -4.2603   22.5564  -29.1530 H   0  0  0  0  0  0  0  0  0  0  0  0
   -2.1866   23.6065  -28.0932 H   0  0  0  0  0  0  0  0  0  0  0  0
   -4.9632   20.9803  -32.8733 H   0  0  0  0  0  0  0  0  0  0  0  0
   -6.7559   19.2838  -33.2233 H   0  0  0  0  0  0  0  0  0  0  0  0
   -7.8371   23.6245  -30.9958 H   0  0  0  0  0  0  0  0  0  0  0  0
  1  2  2  0
  2  3  2  0
  2  4  1  0
  4  5  1  0
  5  6  1  0
  5  7  1  0
  2  8  1  0
  8  9  1  0
  9 10  2  0
 10 11  1  0
 11 12  2  0
 12 13  1  0
 12 14  1  0
 14 15  1  0
 14 16  2  0
 16  9  1  0
  4 17  1  0
  4 18  1  0
  5 19  1  0
 10 20  1  0
 11 21  1  0
 16 22  1  0
M  CHG  1   8  -1
M  END
>  <UniqueID>  (6) 
5

>  <SMILES>  (6) 
O=S(=O)(CC(F)F)[N-]c1ccc(F)c(F)c1

>  <Energy>  (6) 
18.86195019017917

>  <Genealogy>  (6) 
O=S(=O)(CC(F)F)[N-]c1ccc(F)c(F)c1 (protonated)
O=S(=O)(CC(F)F)[N-]c1ccc(F)c(F)c1 (3D coordinates assigned)
O=S(=O)(CC(F)F)[N-]c1ccc(F)c(F)c1 (optimized conformer: 18.86195019017917 kcal/mol)

>  <smiles>  (6) 
O=S(=O)(CC(F)F)Nc1ccc(F)c(F)c1

>  <score_type>  (6) 
oracle

>  <origin>  (6) 
adg

>  <m_score__min__energy>  (6) 
-6.4500000000000002

>  <m_primary>  (6) 
energy

$$$$
6:0
     RDKit          3D

 45 48  0  0  0  0  0  0  0  0999 V2000
   -8.4620   18.4370  -31.2140 O   0  0  0  0  0  0  0  0  0  0  0  0
   -7.7850   19.0910  -32.0530 C   0  0  0  0  0  0  0  0  0  0  0  0
   -7.9180   20.5200  -32.1200 N   0  0  0  0  0  0  0  0  0  0  0  0
   -8.7240   21.2790  -31.1650 C   0  0  0  0  0  0  0  0  0  0  0  0
   -8.3680   22.7730  -31.2200 C   0  0  1  0  0  0  0  0  0  0  0  0
   -7.0950   23.0750  -30.4260 C   0  0  0  0  0  0  0  0  0  0  0  0
   -6.0680   23.3090  -31.5040 C   0  0  2  0  0  0  0  0  0  0  0  0
   -6.9250   23.7840  -32.6660 C   0  0  0  0  0  0  0  0  0  0  0  0
   -8.1830   23.1610  -32.5690 O   0  0  0  0  0  0  0  0  0  0  0  0
   -5.2000   22.0680  -31.8320 C   0  0  0  0  0  0  0  0  0  0  0  0
   -3.8200   22.5950  -31.5880 C   0  0  0  0  0  0  0  0  0  0  0  0
   -2.5690   21.8190  -31.7610 C   0  0  0  0  0  0  0  0  0  0  0  0
   -1.6070   21.7680  -30.7330 C   0  0  0  0  0  0  0  0  0  0  0  0
   -0.4290   21.0350  -30.9000 C   0  0  0  0  0  0  0  0  0  0  0  0
   -0.1950   20.3450  -32.0920 C   0  0  0  0  0  0  0  0  0  0  0  0
   -1.1400   20.3860  -33.1180 C   0  0  0  0  0  0  0  0  0  0  0  0
   -2.3210   21.1180  -32.9570 C   0  0  0  0  0  0  0  0  0  0  0  0
   -3.8280   23.8240  -31.1960 N   0  0  0  0  0  0  0  0  0  0  0  0
   -5.1150   24.2880  -31.1230 O   0  0  0  0  0  0  0  0  0  0  0  0
   -6.8830   18.3660  -32.9760 C   0  0  0  0  0  0  0  0  0  0  0  0
   -6.8670   16.9590  -32.9650 C   0  0  0  0  0  0  0  0  0  0  0  0
   -6.0270   16.2530  -33.8310 C   0  0  0  0  0  0  0  0  0  0  0  0
   -5.1870   16.9420  -34.7080 C   0  0  0  0  0  0  0  0  0  0  0  0
   -5.1800   18.3380  -34.7160 C   0  0  0  0  0  0  0  0  0  0  0  0
   -6.0190   19.0530  -33.8530 C   0  0  0  0  0  0  0  0  0  0  0  0
   -5.9420   20.4080  -33.8440 F   0  0  0  0  0  0  0  0  0  0  0  0
   -7.4500   21.0470  -32.8910 H   0  0  0  0  0  0  0  0  0  0  0  0
   -9.7888   21.1523  -31.4102 H   0  0  0  0  0  0  0  0  0  0  0  0
   -8.5183   20.9036  -30.1517 H   0  0  0  0  0  0  0  0  0  0  0  0
   -9.1957   23.3401  -30.7690 H   0  0  0  0  0  0  0  0  0  0  0  0
   -7.2226   23.9710  -29.8008 H   0  0  0  0  0  0  0  0  0  0  0  0
   -6.8170   22.2688  -29.7312 H   0  0  0  0  0  0  0  0  0  0  0  0
   -7.0458   24.8763  -32.6173 H   0  0  0  0  0  0  0  0  0  0  0  0
   -6.4459   23.5251  -33.6217 H   0  0  0  0  0  0  0  0  0  0  0  0
   -5.4329   21.2267  -31.1627 H   0  0  0  0  0  0  0  0  0  0  0  0
   -5.3544   21.6681  -32.8451 H   0  0  0  0  0  0  0  0  0  0  0  0
   -1.7845   22.3092  -29.7919 H   0  0  0  0  0  0  0  0  0  0  0  0
    0.3157   21.0012  -30.0911 H   0  0  0  0  0  0  0  0  0  0  0  0
    0.7336   19.7697  -32.2217 H   0  0  0  0  0  0  0  0  0  0  0  0
   -0.9557   19.8413  -34.0557 H   0  0  0  0  0  0  0  0  0  0  0  0
   -3.0612   21.1463  -33.7702 H   0  0  0  0  0  0  0  0  0  0  0  0
   -7.5201   16.4108  -32.2700 H   0  0  0  0  0  0  0  0  0  0  0  0
   -6.0278   15.1530  -33.8215 H   0  0  0  0  0  0  0  0  0  0  0  0
   -4.5307   16.3848  -35.3927 H   0  0  0  0  0  0  0  0  0  0  0  0
   -4.5125   18.8784  -35.4033 H   0  0  0  0  0  0  0  0  0  0  0  0
  1  2  2  0
  2  3  1  0
  3  4  1  0
  4  5  1  0
  5  6  1  0
  6  7  1  0
  7  8  1  0
  8  9  1  0
  7 10  1  0
 10 11  1  0
 11 12  1  0
 12 13  2  0
 13 14  1  0
 14 15  2  0
 15 16  1  0
 16 17  2  0
 11 18  2  0
 18 19  1  0
  2 20  1  0
 20 21  2  0
 21 22  1  0
 22 23  2  0
 23 24  1  0
 24 25  2  0
 25 26  1  0
  9  5  1  0
 17 12  1  0
 25 20  1  0
  7 19  1  1
  3 27  1  0
  4 28  1  0
  4 29  1  0
  5 30  1  1
  6 31  1  0
  6 32  1  0
  8 33  1  0
  8 34  1  0
 10 35  1  0
 10 36  1  0
 13 37  1  0
 14 38  1  0
 15 39  1  0
 16 40  1  0
 17 41  1  0
 21 42  1  0
 22 43  1  0
 23 44  1  0
 24 45  1  0
M  END
>  <UniqueID>  (7) 
6

>  <SMILES>  (7) 
O=C(NC[C@H]1C[C@]2(CO1)CC(c1ccccc1)=NO2)c1ccccc1F

>  <Energy>  (7) 
66.28663996270303

>  <Genealogy>  (7) 
O=C(NC[C@H]1C[C@]2(CO1)CC(c1ccccc1)=NO2)c1ccccc1F (chirality)
O=C(NC[C@H]1C[C@]2(CO1)CC(c1ccccc1)=NO2)c1ccccc1F (3D coordinates assigned)
O=C(NC[C@H]1C[C@]2(CO1)CC(c1ccccc1)=NO2)c1ccccc1F (nonaromatic ring conformer: 66.28663996270303 kcal/mol)

>  <smiles>  (7) 
O=C(NCC1CC2(CO1)CC(c1ccccc1)=NO2)c1ccccc1F

>  <score_type>  (7) 
oracle

>  <origin>  (7) 
adg

>  <m_score__min__energy>  (7) 
-9.5099999999999998

>  <m_primary>  (7) 
energy

$$$$
7:0
     RDKit          3D

 48 51  0  0  0  0  0  0  0  0999 V2000
   -3.8620   25.2770  -30.4650 O   0  0  0  0  0  0  0  0  0  0  0  0
   -4.3450   24.2520  -29.9100 C   0  0  0  0  0  0  0  0  0  0  0  0
   -3.7150   23.7070  -28.7350 N   0  0  0  0  0  0  0  0  0  0  0  0
   -2.5970   24.3190  -28.0710 C   0  0  0  0  0  0  0  0  0  0  0  0
   -1.3160   24.3260  -28.6500 C   0  0  0  0  0  0  0  0  0  0  0  0
   -0.2470   24.9500  -28.0020 C   0  0  0  0  0  0  0  0  0  0  0  0
   -0.4450   25.5910  -26.7710 C   0  0  0  0  0  0  0  0  0  0  0  0
    0.6240   26.2200  -26.1110 C   0  0  0  0  0  0  0  0  0  0  0  0
    0.4110   26.8620  -24.8880 C   0  0  0  0  0  0  0  0  0  0  0  0
   -0.8650   26.8810  -24.3150 C   0  0  0  0  0  0  0  0  0  0  0  0
   -1.9350   26.2590  -24.9630 C   0  0  0  0  0  0  0  0  0  0  0  0
   -1.7360   25.6100  -26.1920 C   0  0  0  0  0  0  0  0  0  0  0  0
   -2.8020   24.9820  -26.8520 C   0  0  0  0  0  0  0  0  0  0  0  0
   -5.5570   23.6260  -30.4930 C   0  0  0  0  0  0  0  0  0  0  0  0
   -5.8410   23.7150  -31.8670 C   0  0  0  0  0  0  0  0  0  0  0  0
   -6.9930   23.1220  -32.3930 C   0  0  0  0  0  0  0  0  0  0  0  0
   -7.8820   22.4320  -31.5570 C   0  0  0  0  0  0  0  0  0  0  0  0
   -9.1360   21.8210  -32.1280 C   0  0  0  0  0  0  0  0  0  0  0  0
   -8.9090   20.4130  -32.5170 N   0  0  0  0  0  0  0  0  0  0  0  0
   -9.0540   19.5010  -31.3590 C   0  0  0  0  0  0  0  0  0  0  0  0
   -8.2980   18.1840  -31.5960 C   0  0  0  0  0  0  0  0  0  0  0  0
   -6.8980   18.3520  -31.7820 O   0  0  0  0  0  0  0  0  0  0  0  0
   -6.5390   19.6270  -32.2930 C   0  0  0  0  0  0  0  0  0  0  0  0
   -7.6100   20.2430  -33.2130 C   0  0  0  0  0  0  0  0  0  0  0  0
   -7.6140   22.3580  -30.1820 C   0  0  0  0  0  0  0  0  0  0  0  0
   -6.4640   22.9520  -29.6550 C   0  0  0  0  0  0  0  0  0  0  0  0
   -4.0410   22.7900  -28.3590 H   0  0  0  0  0  0  0  0  0  0  0  0
   -1.1539   23.8361  -29.6214 H   0  0  0  0  0  0  0  0  0  0  0  0
    0.7534   24.9383  -28.4592 H   0  0  0  0  0  0  0  0  0  0  0  0
    1.6294   26.2071  -26.5572 H   0  0  0  0  0  0  0  0  0  0  0  0
    1.2498   27.3542  -24.3741 H   0  0  0  0  0  0  0  0  0  0  0  0
   -1.0263   27.3870  -23.3517 H   0  0  0  0  0  0  0  0  0  0  0  0
   -2.9367   26.2778  -24.5089 H   0  0  0  0  0  0  0  0  0  0  0  0
   -3.8087   25.0096  -26.4095 H   0  0  0  0  0  0  0  0  0  0  0  0
   -5.1520   24.2550  -32.5331 H   0  0  0  0  0  0  0  0  0  0  0  0
   -7.2031   23.1975  -33.4701 H   0  0  0  0  0  0  0  0  0  0  0  0
   -9.9328   21.8611  -31.3707 H   0  0  0  0  0  0  0  0  0  0  0  0
   -9.4268   22.3897  -33.0235 H   0  0  0  0  0  0  0  0  0  0  0  0
   -8.6488   19.9918  -30.4618 H   0  0  0  0  0  0  0  0  0  0  0  0
  -10.1216   19.2726  -31.2248 H   0  0  0  0  0  0  0  0  0  0  0  0
   -8.4564   17.5314  -30.7248 H   0  0  0  0  0  0  0  0  0  0  0  0
   -8.6950   17.7491  -32.5251 H   0  0  0  0  0  0  0  0  0  0  0  0
   -6.3744   20.3083  -31.4452 H   0  0  0  0  0  0  0  0  0  0  0  0
   -5.6315   19.4893  -32.8992 H   0  0  0  0  0  0  0  0  0  0  0  0
   -7.2596   21.2275  -33.5565 H   0  0  0  0  0  0  0  0  0  0  0  0
   -7.7652   19.5584  -34.0599 H   0  0  0  0  0  0  0  0  0  0  0  0
   -8.3121   21.8301  -29.5157 H   0  0  0  0  0  0  0  0  0  0  0  0
   -6.2661   22.8920  -28.5746 H   0  0  0  0  0  0  0  0  0  0  0  0
  1  2  2  0
  2  3  1  0
  3  4  1  0
  4  5  2  0
  5  6  1  0
  6  7  2  0
  7  8  1  0
  8  9  2  0
  9 10  1  0
 10 11  2  0
 11 12  1  0
 12 13  2  0
  2 14  1  0
 14 15  2  0
 15 16  1  0
 16 17  2  0
 17 18  1  0
 18 19  1  0
 19 20  1  0
 20 21  1  0
 21 22  1  0
 22 23  1  0
 23 24  1  0
 17 25  1  0
 25 26  2  0
 13  4  1  0
 26 14  1  0
 12  7  1  0
 24 19  1  0
  3 27  1  0
  5 28  1  0
  6 29  1  0
  8 30  1  0
  9 31  1  0
 10 32  1  0
 11 33  1  0
 13 34  1  0
 15 35  1  0
 16 36  1  0
 18 37  1  0
 18 38  1  0
 20 39  1  0
 20 40  1  0
 21 41  1  0
 21 42  1  0
 23 43  1  0
 23 44  1  0
 24 45  1  0
 24 46  1  0
 25 47  1  0
 26 48  1  0
M  END
>  <UniqueID>  (8) 
7

>  <SMILES>  (8) 
O=C(Nc1ccc2ccccc2c1)c1ccc(CN2CCOCC2)cc1

>  <Energy>  (8) 
75.60015423835083

>  <Genealogy>  (8) 
O=C(Nc1ccc2ccccc2c1)c1ccc(CN2CCOCC2)cc1 (3D coordinates assigned)
O=C(Nc1ccc2ccccc2c1)c1ccc(CN2CCOCC2)cc1 (nonaromatic ring conformer: 75.60015423835083 kcal/mol)

>  <smiles>  (8) 
O=C(Nc1ccc2ccccc2c1)c1ccc(CN2CCOCC2)cc1

>  <score_type>  (8) 
oracle

>  <origin>  (8) 
adg

>  <m_score__min__energy>  (8) 
-9.7200000000000006

>  <m_primary>  (8) 
energy

$$$$
8:0
     RDKit          3D

 44 44  0  0  0  0  0  0  0  0999 V2000
   -8.6180   21.6470  -31.8530 C   0  0  0  0  0  0  0  0  0  0  0  0
   -7.2770   21.7530  -31.1320 C   0  0  0  0  0  0  0  0  0  0  0  0
   -6.1710   21.1540  -31.9660 C   0  0  0  0  0  0  0  0  0  0  0  0
   -6.3190   19.8570  -32.4890 C   0  0  0  0  0  0  0  0  0  0  0  0
   -5.2990   19.2770  -33.2460 C   0  0  0  0  0  0  0  0  0  0  0  0
   -4.1160   19.9830  -33.4820 C   0  0  0  0  0  0  0  0  0  0  0  0
   -3.9410   21.2620  -32.9480 C   0  0  0  0  0  0  0  0  0  0  0  0
   -4.9610   21.8540  -32.1740 C   0  0  0  0  0  0  0  0  0  0  0  0
   -4.8150   23.1430  -31.6410 O   0  0  0  0  0  0  0  0  0  0  0  0
   -5.7410   24.2120  -31.8490 C   0  0  0  0  0  0  0  0  0  0  0  0
   -5.4750   25.3590  -30.8530 C   0  0  2  0  0  0  0  0  0  0  0  0
   -4.1080   25.6750  -30.7980 O   0  0  0  0  0  0  0  0  0  0  0  0
   -6.0010   25.0460  -29.4360 C   0  0  0  0  0  0  0  0  0  0  0  0
   -4.9200   24.8990  -28.4400 N   0  0  0  0  0  0  0  0  0  0  0  0
   -4.5820   23.4840  -28.1850 C   0  0  0  0  0  0  0  0  0  0  0  0
   -3.0700   23.2110  -28.2630 C   0  0  0  0  0  0  0  0  0  0  0  0
   -2.4710   23.9330  -29.4280 C   0  0  0  0  0  0  0  0  0  0  0  0
   -2.3090   23.3330  -30.5260 O   0  0  0  0  0  0  0  0  0  0  0  0
   -2.0720   25.2670  -29.2770 O   0  0  0  0  0  0  0  0  0  0  0  0
   -1.2500   25.7020  -28.2050 C   0  0  0  0  0  0  0  0  0  0  0  0
   -9.4286   21.5829  -31.1121 H   0  0  0  0  0  0  0  0  0  0  0  0
   -8.7667   22.5362  -32.4833 H   0  0  0  0  0  0  0  0  0  0  0  0
   -8.6252   20.7455  -32.4833 H   0  0  0  0  0  0  0  0  0  0  0  0
   -7.0522   22.8130  -30.9427 H   0  0  0  0  0  0  0  0  0  0  0  0
   -7.3422   21.1999  -30.1834 H   0  0  0  0  0  0  0  0  0  0  0  0
   -7.2456   19.2950  -32.3003 H   0  0  0  0  0  0  0  0  0  0  0  0
   -5.4265   18.2645  -33.6566 H   0  0  0  0  0  0  0  0  0  0  0  0
   -3.3196   19.5298  -34.0906 H   0  0  0  0  0  0  0  0  0  0  0  0
   -3.0047   21.8093  -33.1317 H   0  0  0  0  0  0  0  0  0  0  0  0
   -5.6311   24.5914  -32.8756 H   0  0  0  0  0  0  0  0  0  0  0  0
   -6.7619   23.8339  -31.6915 H   0  0  0  0  0  0  0  0  0  0  0  0
   -6.0310   26.2305  -31.2291 H   0  0  0  0  0  0  0  0  0  0  0  0
   -3.6190   24.9160  -31.2140 H   0  0  0  0  0  0  0  0  0  0  0  0
   -6.6618   25.8659  -29.1181 H   0  0  0  0  0  0  0  0  0  0  0  0
   -6.5349   24.0856  -29.4872 H   0  0  0  0  0  0  0  0  0  0  0  0
   -4.0520   25.3550  -28.7980 H   0  0  0  0  0  0  0  0  0  0  0  0
   -5.1930   25.3700  -27.5430 H   0  0  0  0  0  0  0  0  0  0  0  0
   -4.9370   23.2131  -27.1797 H   0  0  0  0  0  0  0  0  0  0  0  0
   -5.0691   22.8804  -28.9650 H   0  0  0  0  0  0  0  0  0  0  0  0
   -2.5904   23.5578  -27.3358 H   0  0  0  0  0  0  0  0  0  0  0  0
   -2.9078   22.1305  -28.3902 H   0  0  0  0  0  0  0  0  0  0  0  0
   -1.7300   25.4480  -27.2484 H   0  0  0  0  0  0  0  0  0  0  0  0
   -0.2713   25.2038  -28.2678 H   0  0  0  0  0  0  0  0  0  0  0  0
   -1.1115   26.7914  -28.2678 H   0  0  0  0  0  0  0  0  0  0  0  0
  1  2  1  0
  2  3  1  0
  3  4  2  0
  4  5  1  0
  5  6  2  0
  6  7  1  0
  7  8  2  0
  8  9  1  0
  9 10  1  0
 10 11  1  0
 11 12  1  0
 11 13  1  0
 13 14  1  0
 14 15  1  0
 15 16  1  0
 16 17  1  0
 17 18  2  0
 17 19  1  0
 19 20  1  0
  8  3  1  0
  1 21  1  0
  1 22  1  0
  1 23  1  0
  2 24  1  0
  2 25  1  0
  4 26  1  0
  5 27  1  0
  6 28  1  0
  7 29  1  0
 10 30  1  0
 10 31  1  0
 11 32  1  6
 12 33  1  0
 13 34  1  0
 13 35  1  0
 14 36  1  0
 14 37  1  0
 15 38  1  0
 15 39  1  0
 16 40  1  0
 16 41  1  0
 20 42  1  0
 20 43  1  0
 20 44  1  0
M  CHG  1  14   1
M  END
>  <UniqueID>  (9) 
8

>  <SMILES>  (9) 
CCc1ccccc1OC[C@H](O)C[NH2+]CCC(=O)OC

>  <Energy>  (9) 
36.43875796808035

>  <Genealogy>  (9) 
CCc1ccccc1OCC(O)C[NH2+]CCC(=O)OC (protonated)
CCc1ccccc1OC[C@H](O)C[NH2+]CCC(=O)OC (chirality)
CCc1ccccc1OC[C@H](O)C[NH2+]CCC(=O)OC (3D coordinates assigned)
CCc1ccccc1OC[C@H](O)C[NH2+]CCC(=O)OC (optimized conformer: 36.43875796808035 kcal/mol)

>  <smiles>  (9) 
CCc1ccccc1OCC(O)CNCCC(=O)OC

>  <score_type>  (9) 
oracle

>  <origin>  (9) 
adg

>  <m_score__min__energy>  (9) 
-6.5300000000000002

>  <m_primary>  (9) 
energy

$$$$
9:0
     RDKit          3D

 55 57  0  0  0  0  0  0  0  0999 V2000
   -6.4203   24.9148  -30.3760 H   0  0  0  0  0  0  0  0  0  0  0  0
   -5.8430   24.0760  -30.7920 C   0  0  0  0  0  0  0  0  0  0  0  0
   -4.5440   24.1390  -30.8160 N   0  0  0  0  0  0  0  0  0  0  0  0
   -3.6580   24.0080  -29.6900 C   0  0  0  0  0  0  0  0  0  0  0  0
   -4.0590   24.2780  -28.3670 C   0  0  0  0  0  0  0  0  0  0  0  0
   -5.0919   24.5955  -28.1615 H   0  0  0  0  0  0  0  0  0  0  0  0
   -3.1490   24.1440  -27.3140 C   0  0  0  0  0  0  0  0  0  0  0  0
   -3.4719   24.3515  -26.2832 H   0  0  0  0  0  0  0  0  0  0  0  0
   -1.8280   23.7470  -27.5630 C   0  0  0  0  0  0  0  0  0  0  0  0
   -0.8860   23.6270  -26.4810 N   0  0  0  0  0  0  0  0  0  0  0  0
   -0.8900   22.4160  -25.6500 C   0  0  0  0  0  0  0  0  0  0  0  0
    0.0048   22.4096  -25.0102 H   0  0  0  0  0  0  0  0  0  0  0  0
   -1.7944   22.4091  -25.0239 H   0  0  0  0  0  0  0  0  0  0  0  0
   -0.8850   21.1940  -26.5270 C   0  0  0  0  0  0  0  0  0  0  0  0
    0.1310   21.0080  -27.4780 C   0  0  0  0  0  0  0  0  0  0  0  0
    0.9048   21.7783  -27.6116 H   0  0  0  0  0  0  0  0  0  0  0  0
    0.1620   19.8460  -28.2560 C   0  0  0  0  0  0  0  0  0  0  0  0
    0.9552   19.7074  -29.0054 H   0  0  0  0  0  0  0  0  0  0  0  0
   -0.8140   18.8610  -28.0820 C   0  0  0  0  0  0  0  0  0  0  0  0
   -0.7902   17.9490  -28.6965 H   0  0  0  0  0  0  0  0  0  0  0  0
   -1.8200   19.0340  -27.1280 C   0  0  0  0  0  0  0  0  0  0  0  0
   -2.5865   18.2570  -26.9912 H   0  0  0  0  0  0  0  0  0  0  0  0
   -1.8540   20.1930  -26.3470 C   0  0  0  0  0  0  0  0  0  0  0  0
   -2.6414   20.3214  -25.5897 H   0  0  0  0  0  0  0  0  0  0  0  0
    0.1150   24.6800  -26.2560 C   0  0  0  0  0  0  0  0  0  0  0  0
   -0.3772   25.6631  -26.2924 H   0  0  0  0  0  0  0  0  0  0  0  0
    0.8851   24.6167  -27.0389 H   0  0  0  0  0  0  0  0  0  0  0  0
    0.7800   24.4950  -24.8810 C   0  0  0  0  0  0  0  0  0  0  0  0
    1.8673   24.4093  -25.0239 H   0  0  0  0  0  0  0  0  0  0  0  0
    0.3586   23.5866  -24.4258 H   0  0  0  0  0  0  0  0  0  0  0  0
    0.5090   25.6270  -23.9610 N   0  0  0  0  0  0  0  0  0  0  0  0
    0.6650   25.3180  -22.9730 H   0  0  0  0  0  0  0  0  0  0  0  0
    1.4460   26.7310  -24.2380 C   0  0  0  0  0  0  0  0  0  0  0  0
    1.8051   27.1541  -23.2883 H   0  0  0  0  0  0  0  0  0  0  0  0
    2.3008   26.3501  -24.8162 H   0  0  0  0  0  0  0  0  0  0  0  0
    0.9312   27.5125  -24.8162 H   0  0  0  0  0  0  0  0  0  0  0  0
   -0.8780   26.1140  -24.0900 C   0  0  0  0  0  0  0  0  0  0  0  0
   -1.3082   26.2650  -23.0889 H   0  0  0  0  0  0  0  0  0  0  0  0
   -0.8823   27.0674  -24.6386 H   0  0  0  0  0  0  0  0  0  0  0  0
   -1.4774   25.3726  -24.6386 H   0  0  0  0  0  0  0  0  0  0  0  0
   -1.4240   23.4940  -28.8820 C   0  0  0  0  0  0  0  0  0  0  0  0
   -0.3875   23.1889  -29.0885 H   0  0  0  0  0  0  0  0  0  0  0  0
   -2.3330   23.6280  -29.9350 C   0  0  0  0  0  0  0  0  0  0  0  0
   -2.0042   23.4330  -30.9664 H   0  0  0  0  0  0  0  0  0  0  0  0
   -6.5520   22.8910  -31.3170 C   0  0  0  0  0  0  0  0  0  0  0  0
   -5.8500   21.9560  -32.0960 C   0  0  0  0  0  0  0  0  0  0  0  0
   -4.7823   22.1131  -32.3089 H   0  0  0  0  0  0  0  0  0  0  0  0
   -6.5010   20.8270  -32.6020 C   0  0  0  0  0  0  0  0  0  0  0  0
   -5.9449   20.0992  -33.2111 H   0  0  0  0  0  0  0  0  0  0  0  0
   -7.8570   20.6220  -32.3350 C   0  0  0  0  0  0  0  0  0  0  0  0
   -8.3678   19.7336  -32.7349 H   0  0  0  0  0  0  0  0  0  0  0  0
   -8.5640   21.5440  -31.5610 C   0  0  0  0  0  0  0  0  0  0  0  0
   -9.6312   21.3802  -31.3508 H   0  0  0  0  0  0  0  0  0  0  0  0
   -7.9180   22.6760  -31.0520 C   0  0  0  0  0  0  0  0  0  0  0  0
   -8.4790   23.4001  -30.4430 H   0  0  0  0  0  0  0  0  0  0  0  0
  1  2  1  0
  2  3  2  0
  3  4  1  0
  4  5  2  0
  5  6  1  0
  5  7  1  0
  7  8  1  0
  7  9  2  0
  9 10  1  0
 10 11  1  0
 11 12  1  0
 11 13  1  0
 11 14  1  0
 14 15  2  0
 15 16  1  0
 15 17  1  0
 17 18  1  0
 17 19  2  0
 19 20  1  0
 19 21  1  0
 21 22  1  0
 21 23  2  0
 23 24  1  0
 10 25  1  0
 25 26  1  0
 25 27  1  0
 25 28  1  0
 28 29  1  0
 28 30  1  0
 28 31  1  0
 31 32  1  0
 31 33  1  0
 33 34  1  0
 33 35  1  0
 33 36  1  0
 31 37  1  0
 37 38  1  0
 37 39  1  0
 37 40  1  0
  9 41  1  0
 41 42  1  0
 41 43  2  0
 43 44  1  0
  2 45  1  0
 45 46  2  0
 46 47  1  0
 46 48  1  0
 48 49  1  0
 48 50  2  0
 50 51  1  0
 50 52  1  0
 52 53  1  0
 52 54  2  0
 54 55  1  0
 43  4  1  0
 54 45  1  0
 23 14  1  0
M  CHG  1  31   1
M  END
>  <UniqueID>  (10) 
9

>  <SMILES>  (10) 
C[NH+](C)CCN(Cc1ccccc1)c1ccc(/N=C/c2ccccc2)cc1

>  <Energy>  (10) 
60.61871816441874

>  <Genealogy>  (10) 
C[NH+](C)CCN(Cc1ccccc1)c1ccc(N=Cc2ccccc2)cc1 (protonated)
C[NH+](C)CCN(Cc1ccccc1)c1ccc(/N=C/c2ccccc2)cc1 (cis-trans isomerization)
C[NH+](C)CCN(Cc1ccccc1)c1ccc(/N=C/c2ccccc2)cc1 (3D coordinates assigned)
C[NH+](C)CCN(Cc1ccccc1)c1ccc(/N=C/c2ccccc2)cc1 (optimized conformer: 60.61871816441874 kcal/mol)

>  <smiles>  (10) 
CN(C)CCN(Cc1ccccc1)c1ccc(N=Cc2ccccc2)cc1

>  <score_type>  (10) 
oracle

>  <origin>  (10) 
adg

>  <m_score__min__energy>  (10) 
-8.5800000000000001

>  <m_primary>  (10) 
energy

$$$$
10:0
     RDKit          3D

 41 44  0  0  0  0  0  0  0  0999 V2000
   -2.7950   24.2530  -27.7420 C   0  0  0  0  0  0  0  0  0  0  0  0
   -4.1910   23.6860  -27.9670 C   0  0  0  0  0  0  0  0  0  0  0  0
   -4.7440   24.1770  -29.2280 N   0  0  0  0  0  0  0  0  0  0  0  0
   -5.4260   25.2990  -29.3680 N   0  0  0  0  0  0  0  0  0  0  0  0
   -5.7060   25.4970  -30.6450 N   0  0  0  0  0  0  0  0  0  0  0  0
   -5.1990   24.5050  -31.3660 N   0  0  0  0  0  0  0  0  0  0  0  0
   -4.6020   23.6840  -30.4760 C   0  0  0  0  0  0  0  0  0  0  0  0
   -3.8340   22.4530  -30.8620 C   0  0  0  0  0  0  0  0  0  0  0  0
   -4.6730   21.5700  -31.6710 N   0  0  0  0  0  0  0  0  0  0  0  0
   -6.0460   21.2700  -31.4320 C   0  0  0  0  0  0  0  0  0  0  0  0
   -6.7530   21.9210  -30.6170 O   0  0  0  0  0  0  0  0  0  0  0  0
   -6.5310   20.0600  -32.1940 C   0  0  0  0  0  0  0  0  0  0  0  0
   -7.5110   20.4240  -33.1640 O   0  0  0  0  0  0  0  0  0  0  0  0
   -8.8050   20.4280  -32.5970 C   0  0  0  0  0  0  0  0  0  0  0  0
   -9.1980   19.0290  -32.1250 C   0  0  0  0  0  0  0  0  0  0  0  0
   -7.9420   18.2200  -31.8100 C   0  0  0  0  0  0  0  0  0  0  0  0
   -6.9320   19.0490  -31.2710 O   0  0  0  0  0  0  0  0  0  0  0  0
   -5.2460   19.6760  -32.8830 C   0  0  0  0  0  0  0  0  0  0  0  0
   -5.0180   18.6270  -33.7800 C   0  0  0  0  0  0  0  0  0  0  0  0
   -3.7260   18.4520  -34.3030 C   0  0  0  0  0  0  0  0  0  0  0  0
   -3.4800   17.4390  -35.1700 F   0  0  0  0  0  0  0  0  0  0  0  0
   -2.6860   19.3270  -33.9370 C   0  0  0  0  0  0  0  0  0  0  0  0
   -2.9330   20.3880  -33.0540 C   0  0  0  0  0  0  0  0  0  0  0  0
   -4.2260   20.5460  -32.5460 C   0  0  0  0  0  0  0  0  0  0  0  0
   -2.6009   24.3318  -26.6621 H   0  0  0  0  0  0  0  0  0  0  0  0
   -2.0501   23.5862  -28.2007 H   0  0  0  0  0  0  0  0  0  0  0  0
   -2.7260   25.2504  -28.2007 H   0  0  0  0  0  0  0  0  0  0  0  0
   -4.1352   22.5879  -27.9990 H   0  0  0  0  0  0  0  0  0  0  0  0
   -4.8437   24.0078  -27.1421 H   0  0  0  0  0  0  0  0  0  0  0  0
   -5.6930   25.9460  -28.5930 H   0  0  0  0  0  0  0  0  0  0  0  0
   -2.9469   22.7450  -31.4432 H   0  0  0  0  0  0  0  0  0  0  0  0
   -3.5256   21.9205  -29.9502 H   0  0  0  0  0  0  0  0  0  0  0  0
   -8.8197   21.1152  -31.7382 H   0  0  0  0  0  0  0  0  0  0  0  0
   -9.5233   20.7550  -33.3632 H   0  0  0  0  0  0  0  0  0  0  0  0
   -9.8177   19.1093  -31.2198 H   0  0  0  0  0  0  0  0  0  0  0  0
   -9.7672   18.5234  -32.9189 H   0  0  0  0  0  0  0  0  0  0  0  0
   -8.1920   17.4356  -31.0804 H   0  0  0  0  0  0  0  0  0  0  0  0
   -7.5690   17.7714  -32.7425 H   0  0  0  0  0  0  0  0  0  0  0  0
   -5.8358   17.9512  -34.0706 H   0  0  0  0  0  0  0  0  0  0  0  0
   -1.6755   19.1779  -34.3452 H   0  0  0  0  0  0  0  0  0  0  0  0
   -2.1277   21.0804  -32.7675 H   0  0  0  0  0  0  0  0  0  0  0  0
  1  2  1  0
  2  3  1  0
  3  4  1  0
  4  5  2  0
  5  6  1  0
  6  7  2  0
  7  8  1  0
  8  9  1  0
  9 10  1  0
 10 11  2  0
 10 12  1  0
 12 13  1  0
 13 14  1  0
 14 15  1  0
 15 16  1  0
 16 17  1  0
 12 18  1  0
 18 19  2  0
 19 20  1  0
 20 21  1  0
 20 22  2  0
 22 23  1  0
 23 24  2  0
  7  3  1  0
 24  9  1  0
 17 12  1  0
 24 18  1  0
  1 25  1  0
  1 26  1  0
  1 27  1  0
  2 28  1  0
  2 29  1  0
  4 30  1  0
  8 31  1  0
  8 32  1  0
 14 33  1  0
 14 34  1  0
 15 35  1  0
 15 36  1  0
 16 37  1  0
 16 38  1  0
 19 39  1  0
 22 40  1  0
 23 41  1  0
M  CHG  1   4   1
M  END
>  <UniqueID>  (11) 
10

>  <SMILES>  (11) 
CCn1[nH+]nnc1CN1C(=O)C2(OCCCO2)c2cc(F)ccc21

>  <Energy>  (11) 
109.92474238172979

>  <Genealogy>  (11) 
CCn1[nH+]nnc1CN1C(=O)C2(OCCCO2)c2cc(F)ccc21 (protonated)
CCn1[nH+]nnc1CN1C(=O)C2(OCCCO2)c2cc(F)ccc21 (3D coordinates assigned)
CCn1[nH+]nnc1CN1C(=O)C2(OCCCO2)c2cc(F)ccc21 (nonaromatic ring conformer: 109.92474238172979 kcal/mol)

>  <smiles>  (11) 
CCn1nnnc1CN1C(=O)C2(OCCCO2)c2cc(F)ccc21

>  <score_type>  (11) 
oracle

>  <origin>  (11) 
adg

>  <m_score__min__energy>  (11) 
-7.75

>  <m_primary>  (11) 
energy

$$$$
11:0
     RDKit          3D

 54 58  0  0  0  0  0  0  0  0999 V2000
   -4.1080   17.9360  -33.3640 O   0  0  0  0  0  0  0  0  0  0  0  0
   -4.6450   19.0540  -33.1220 C   0  0  0  0  0  0  0  0  0  0  0  0
   -3.9200   20.2350  -33.3260 C   0  0  0  0  0  0  0  0  0  0  0  0
   -2.4860   20.2180  -33.8190 C   0  0  0  0  0  0  0  0  0  0  0  0
   -1.6320   19.3270  -33.0100 N   0  0  0  0  0  0  0  0  0  0  0  0
   -0.7900   20.0570  -32.0370 C   0  0  0  0  0  0  0  0  0  0  0  0
   -1.1940   21.5480  -31.8950 C   0  0  0  0  0  0  0  0  0  0  0  0
   -1.1900   21.7770  -30.4320 C   0  0  0  0  0  0  0  0  0  0  0  0
   -1.3570   22.9980  -29.7750 C   0  0  0  0  0  0  0  0  0  0  0  0
   -1.3510   23.0170  -28.3720 C   0  0  0  0  0  0  0  0  0  0  0  0
   -1.1880   21.8200  -27.6510 C   0  0  0  0  0  0  0  0  0  0  0  0
   -1.0290   20.6030  -28.3300 C   0  0  0  0  0  0  0  0  0  0  0  0
   -1.0300   20.6090  -29.7290 C   0  0  0  0  0  0  0  0  0  0  0  0
   -0.9030   19.4350  -30.6210 C   0  0  0  0  0  0  0  0  0  0  0  0
   -4.5330   21.4620  -33.0490 C   0  0  0  0  0  0  0  0  0  0  0  0
   -5.8180   21.5370  -32.5850 N   0  0  0  0  0  0  0  0  0  0  0  0
   -6.3760   22.8850  -32.3430 C   0  0  0  0  0  0  0  0  0  0  0  0
   -5.8660   23.4610  -31.0430 C   0  0  0  0  0  0  0  0  0  0  0  0
   -6.2090   24.7700  -30.6630 C   0  0  0  0  0  0  0  0  0  0  0  0
   -5.7510   25.2950  -29.4500 C   0  0  0  0  0  0  0  0  0  0  0  0
   -4.9600   24.5150  -28.6020 C   0  0  0  0  0  0  0  0  0  0  0  0
   -4.6300   23.2060  -28.9630 C   0  0  0  0  0  0  0  0  0  0  0  0
   -5.0850   22.6770  -30.1760 C   0  0  0  0  0  0  0  0  0  0  0  0
   -6.5520   20.3840  -32.3780 C   0  0  0  0  0  0  0  0  0  0  0  0
   -7.8850   20.4170  -31.9030 C   0  0  0  0  0  0  0  0  0  0  0  0
   -8.6060   19.2390  -31.7050 C   0  0  0  0  0  0  0  0  0  0  0  0
   -8.0210   18.0040  -31.9710 C   0  0  0  0  0  0  0  0  0  0  0  0
   -6.7110   17.9380  -32.4380 C   0  0  0  0  0  0  0  0  0  0  0  0
   -5.9650   19.1160  -32.6480 C   0  0  0  0  0  0  0  0  0  0  0  0
   -2.4736   19.8701  -34.8624 H   0  0  0  0  0  0  0  0  0  0  0  0
   -2.0863   21.2393  -33.7344 H   0  0  0  0  0  0  0  0  0  0  0  0
   -1.0170   18.7710  -33.6490 H   0  0  0  0  0  0  0  0  0  0  0  0
   -2.2460   18.6490  -32.5010 H   0  0  0  0  0  0  0  0  0  0  0  0
    0.2343   19.9814  -32.4308 H   0  0  0  0  0  0  0  0  0  0  0  0
   -0.4643   22.2012  -32.3959 H   0  0  0  0  0  0  0  0  0  0  0  0
   -2.1665   21.7713  -32.3580 H   0  0  0  0  0  0  0  0  0  0  0  0
   -1.4908   23.9280  -30.3470 H   0  0  0  0  0  0  0  0  0  0  0  0
   -1.4739   23.9692  -27.8351 H   0  0  0  0  0  0  0  0  0  0  0  0
   -1.1852   21.8385  -26.5512 H   0  0  0  0  0  0  0  0  0  0  0  0
   -0.9059   19.6622  -27.7734 H   0  0  0  0  0  0  0  0  0  0  0  0
   -0.0028   18.8522  -30.3760 H   0  0  0  0  0  0  0  0  0  0  0  0
   -1.7485   18.7373  -30.5290 H   0  0  0  0  0  0  0  0  0  0  0  0
   -3.9665   22.3913  -33.2086 H   0  0  0  0  0  0  0  0  0  0  0  0
   -6.0822   23.5488  -33.1695 H   0  0  0  0  0  0  0  0  0  0  0  0
   -7.4713   22.8033  -32.2823 H   0  0  0  0  0  0  0  0  0  0  0  0
   -6.8402   25.3841  -31.3222 H   0  0  0  0  0  0  0  0  0  0  0  0
   -6.0140   26.3238  -29.1630 H   0  0  0  0  0  0  0  0  0  0  0  0
   -4.5973   24.9314  -27.6506 H   0  0  0  0  0  0  0  0  0  0  0  0
   -4.0118   22.5906  -28.2928 H   0  0  0  0  0  0  0  0  0  0  0  0
   -4.8304   21.6432  -30.4523 H   0  0  0  0  0  0  0  0  0  0  0  0
   -8.3594   21.3856  -31.6868 H   0  0  0  0  0  0  0  0  0  0  0  0
   -9.6415   19.2863  -31.3370 H   0  0  0  0  0  0  0  0  0  0  0  0
   -8.5946   17.0790  -31.8120 H   0  0  0  0  0  0  0  0  0  0  0  0
   -6.2543   16.9589  -32.6448 H   0  0  0  0  0  0  0  0  0  0  0  0
  1  2  2  0
  2  3  1  0
  3  4  1  0
  4  5  1  0
  5  6  1  0
  6  7  1  0
  7  8  1  0
  8  9  2  0
  9 10  1  0
 10 11  2  0
 11 12  1  0
 12 13  2  0
 13 14  1  0
  3 15  2  0
 15 16  1  0
 16 17  1  0
 17 18  1  0
 18 19  2  0
 19 20  1  0
 20 21  2  0
 21 22  1  0
 22 23  2  0
 16 24  1  0
 24 25  2  0
 25 26  1  0
 26 27  2  0
 27 28  1  0
 28 29  2  0
 29  2  1  0
 14  6  1  0
 23 18  1  0
 29 24  1  0
 13  8  1  0
  4 30  1  0
  4 31  1  0
  5 32  1  0
  5 33  1  0
  6 34  1  0
  7 35  1  0
  7 36  1  0
  9 37  1  0
 10 38  1  0
 11 39  1  0
 12 40  1  0
 14 41  1  0
 14 42  1  0
 15 43  1  0
 17 44  1  0
 17 45  1  0
 19 46  1  0
 20 47  1  0
 21 48  1  0
 22 49  1  0
 23 50  1  0
 25 51  1  0
 26 52  1  0
 27 53  1  0
 28 54  1  0
M  CHG  1   5   1
M  END
>  <UniqueID>  (12) 
11

>  <SMILES>  (12) 
O=c1c(C[NH2+]C2Cc3ccccc3C2)cn(Cc2ccccc2)c2ccccc12

>  <Energy>  (12) 
79.17729775980183

>  <Genealogy>  (12) 
O=c1c(C[NH2+]C2Cc3ccccc3C2)cn(Cc2ccccc2)c2ccccc12 (protonated)
O=c1c(C[NH2+]C2Cc3ccccc3C2)cn(Cc2ccccc2)c2ccccc12 (3D coordinates assigned)
O=c1c(C[NH2+]C2Cc3ccccc3C2)cn(Cc2ccccc2)c2ccccc12 (nonaromatic ring conformer: 79.17729775980183 kcal/mol)

>  <smiles>  (12) 
O=c1c(CNC2Cc3ccccc3C2)cn(Cc2ccccc2)c2ccccc12

>  <score_type>  (12) 
oracle

>  <origin>  (12) 
adg

>  <m_score__min__energy>  (12) 
-9.0299999999999994

>  <m_primary>  (12) 
energy

$$$$
12:0
     RDKit          3D

 45 48  0  0  0  0  0  0  0  0999 V2000
   -3.5470   25.2950  -29.7640 F   0  0  0  0  0  0  0  0  0  0  0  0
   -4.5140   24.4640  -30.2260 C   0  0  0  0  0  0  0  0  0  0  0  0
   -5.4020   24.9060  -31.2120 C   0  0  0  0  0  0  0  0  0  0  0  0
   -6.3980   24.0490  -31.6920 C   0  0  0  0  0  0  0  0  0  0  0  0
   -6.5160   22.7490  -31.1770 C   0  0  0  0  0  0  0  0  0  0  0  0
   -7.5570   21.8370  -31.6840 C   0  0  0  0  0  0  0  0  0  0  0  0
   -8.8260   21.9950  -31.2200 N   0  0  0  0  0  0  0  0  0  0  0  0
   -9.8380   21.1900  -31.6250 C   0  0  0  0  0  0  0  0  0  0  0  0
   -9.5800   20.1720  -32.5380 C   0  0  0  0  0  0  0  0  0  0  0  0
   -8.3210   20.0070  -33.0210 N   0  0  0  0  0  0  0  0  0  0  0  0
   -7.2920   20.8170  -32.6330 C   0  0  0  0  0  0  0  0  0  0  0  0
   -5.9210   20.6140  -33.2530 C   0  0  1  0  0  0  0  0  0  0  0  0
   -4.8790   20.2750  -32.1580 C   0  0  0  0  0  0  0  0  0  0  0  0
   -3.6440   19.7980  -32.7890 N   0  0  0  0  0  0  0  0  0  0  0  0
   -2.3480   20.1240  -32.2510 C   0  0  0  0  0  0  0  0  0  0  0  0
   -1.2170   19.6080  -32.8080 N   0  0  0  0  0  0  0  0  0  0  0  0
    0.0110   19.9100  -32.3160 C   0  0  0  0  0  0  0  0  0  0  0  0
    0.1310   20.7620  -31.2200 C   0  0  0  0  0  0  0  0  0  0  0  0
   -1.0340   21.2850  -30.6480 C   0  0  0  0  0  0  0  0  0  0  0  0
   -0.9540   22.2210  -29.4780 C   0  0  0  0  0  0  0  0  0  0  0  0
    0.2060   21.9980  -28.7570 F   0  0  0  0  0  0  0  0  0  0  0  0
   -2.0420   22.0180  -28.6500 F   0  0  0  0  0  0  0  0  0  0  0  0
   -0.9590   23.5290  -29.9240 F   0  0  0  0  0  0  0  0  0  0  0  0
   -2.2430   20.9590  -31.1800 N   0  0  0  0  0  0  0  0  0  0  0  0
   -3.7560   18.8840  -33.9290 C   0  0  0  0  0  0  0  0  0  0  0  0
   -5.2240   18.5240  -34.1780 C   0  0  0  0  0  0  0  0  0  0  0  0
   -6.0260   19.6800  -34.3300 O   0  0  0  0  0  0  0  0  0  0  0  0
   -5.6130   22.3060  -30.1990 C   0  0  0  0  0  0  0  0  0  0  0  0
   -4.6180   23.1650  -29.7220 C   0  0  0  0  0  0  0  0  0  0  0  0
   -5.3172   25.9279  -31.6102 H   0  0  0  0  0  0  0  0  0  0  0  0
   -7.0897   24.3947  -32.4743 H   0  0  0  0  0  0  0  0  0  0  0  0
  -10.8556   21.3401  -31.2351 H   0  0  0  0  0  0  0  0  0  0  0  0
  -10.3906   19.5049  -32.8666 H   0  0  0  0  0  0  0  0  0  0  0  0
   -8.1550   19.2420  -33.7130 H   0  0  0  0  0  0  0  0  0  0  0  0
   -5.5398   21.5406  -33.7069 H   0  0  0  0  0  0  0  0  0  0  0  0
   -4.6635   21.1763  -31.5654 H   0  0  0  0  0  0  0  0  0  0  0  0
   -5.2809   19.4907  -31.4998 H   0  0  0  0  0  0  0  0  0  0  0  0
    0.9111   19.4825  -32.7820 H   0  0  0  0  0  0  0  0  0  0  0  0
    1.1204   21.0180  -30.8131 H   0  0  0  0  0  0  0  0  0  0  0  0
   -3.3442   19.3699  -34.8258 H   0  0  0  0  0  0  0  0  0  0  0  0
   -3.1941   17.9646  -33.7077 H   0  0  0  0  0  0  0  0  0  0  0  0
   -5.2926   17.9191  -35.0942 H   0  0  0  0  0  0  0  0  0  0  0  0
   -5.5926   17.9620  -33.3072 H   0  0  0  0  0  0  0  0  0  0  0  0
   -5.6878   21.2811  -29.8067 H   0  0  0  0  0  0  0  0  0  0  0  0
   -3.9165   22.8177  -28.9492 H   0  0  0  0  0  0  0  0  0  0  0  0
  1  2  1  0
  2  3  2  0
  3  4  1  0
  4  5  2  0
  5  6  1  0
  6  7  2  0
  7  8  1  0
  8  9  2  0
  9 10  1  0
 10 11  2  0
 11 12  1  0
 12 13  1  0
 13 14  1  0
 14 15  1  0
 15 16  2  0
 16 17  1  0
 17 18  2  0
 18 19  1  0
 19 20  1  0
 20 21  1  0
 20 22  1  0
 20 23  1  0
 19 24  2  0
 14 25  1  0
 25 26  1  0
 26 27  1  0
  5 28  1  0
 28 29  2  0
 29  2  1  0
 11  6  1  0
 27 12  1  0
 24 15  1  0
  3 30  1  0
  4 31  1  0
  8 32  1  0
  9 33  1  0
 10 34  1  0
 12 35  1  6
 13 36  1  0
 13 37  1  0
 17 38  1  0
 18 39  1  0
 25 40  1  0
 25 41  1  0
 26 42  1  0
 26 43  1  0
 28 44  1  0
 29 45  1  0
M  CHG  1  10   1
M  END
>  <UniqueID>  (13) 
12

>  <SMILES>  (13) 
Fc1ccc(-c2ncc[nH+]c2[C@H]2CN(c3nccc(C(F)(F)F)n3)CCO2)cc1

>  <Energy>  (13) 
67.12614747136553

>  <Genealogy>  (13) 
Fc1ccc(-c2ncc[nH+]c2C2CN(c3nccc(C(F)(F)F)n3)CCO2)cc1 (protonated)
Fc1ccc(-c2ncc[nH+]c2[C@H]2CN(c3nccc(C(F)(F)F)n3)CCO2)cc1 (chirality)
Fc1ccc(-c2ncc[nH+]c2[C@H]2CN(c3nccc(C(F)(F)F)n3)CCO2)cc1 (3D coordinates assigned)
Fc1ccc(-c2ncc[nH+]c2[C@H]2CN(c3nccc(C(F)(F)F)n3)CCO2)cc1 (nonaromatic ring conformer: 67.12614747136553 kcal/mol)

>  <smiles>  (13) 
Fc1ccc(-c2nccnc2C2CN(c3nccc(C(F)(F)F)n3)CCO2)cc1

>  <score_type>  (13) 
oracle

>  <origin>  (13) 
adg

>  <m_score__min__energy>  (13) 
-7.3700000000000001

>  <m_primary>  (13) 
energy

$$$$
13:0
     RDKit          3D

 55 57  0  0  0  0  0  0  0  0999 V2000
   -5.2760   19.3730  -33.6140 C   0  0  0  0  0  0  0  0  0  0  0  0
   -5.5110   20.5950  -32.9210 O   0  0  0  0  0  0  0  0  0  0  0  0
   -6.7820   21.0760  -32.5570 C   0  0  0  0  0  0  0  0  0  0  0  0
   -7.9020   20.2210  -32.4680 C   0  0  0  0  0  0  0  0  0  0  0  0
   -9.1480   20.7260  -32.0840 C   0  0  0  0  0  0  0  0  0  0  0  0
   -9.2920   22.0830  -31.7830 C   0  0  0  0  0  0  0  0  0  0  0  0
   -8.1930   22.9410  -31.8690 C   0  0  0  0  0  0  0  0  0  0  0  0
   -6.9370   22.4510  -32.2720 C   0  0  0  0  0  0  0  0  0  0  0  0
   -5.7580   23.3890  -32.3460 C   0  0  0  0  0  0  0  0  0  0  0  0
   -4.6430   22.8800  -31.5500 N   0  0  0  0  0  0  0  0  0  0  0  0
   -3.8260   23.7570  -30.7640 C   0  0  0  0  0  0  0  0  0  0  0  0
   -4.1010   24.9880  -30.7070 O   0  0  0  0  0  0  0  0  0  0  0  0
   -2.6970   23.2290  -30.0500 N   0  0  0  0  0  0  0  0  0  0  0  0
   -1.7260   24.0410  -29.3680 C   0  0  0  0  0  0  0  0  0  0  0  0
   -1.8460   25.2960  -29.3340 O   0  0  0  0  0  0  0  0  0  0  0  0
   -0.5410   23.3960  -28.7000 C   0  0  0  0  0  0  0  0  0  0  0  0
   -0.9530   22.5050  -27.5830 N   0  0  0  0  0  0  0  0  0  0  0  0
    0.0320   22.5110  -26.4590 C   0  0  0  0  0  0  0  0  0  0  0  0
   -0.3780   23.3980  -25.2640 C   0  0  0  0  0  0  0  0  0  0  0  0
   -1.2090   24.5180  -25.7180 N   0  0  0  0  0  0  0  0  0  0  0  0
   -0.8630   25.8820  -25.4010 C   0  0  0  0  0  0  0  0  0  0  0  0
   -0.8450   26.8610  -26.4090 C   0  0  0  0  0  0  0  0  0  0  0  0
   -0.4820   28.1780  -26.1060 C   0  0  0  0  0  0  0  0  0  0  0  0
   -0.1310   28.5270  -24.7990 C   0  0  0  0  0  0  0  0  0  0  0  0
   -0.1400   27.5590  -23.7930 C   0  0  0  0  0  0  0  0  0  0  0  0
   -0.5020   26.2420  -24.0890 C   0  0  0  0  0  0  0  0  0  0  0  0
   -2.4150   24.2240  -26.4970 C   0  0  0  0  0  0  0  0  0  0  0  0
   -2.3280   22.8210  -27.1280 C   0  0  0  0  0  0  0  0  0  0  0  0
   -5.1202   18.5629  -32.8863 H   0  0  0  0  0  0  0  0  0  0  0  0
   -6.1451   19.1366  -34.2454 H   0  0  0  0  0  0  0  0  0  0  0  0
   -4.3812   19.4758  -34.2454 H   0  0  0  0  0  0  0  0  0  0  0  0
   -7.7938   19.1517  -32.7021 H   0  0  0  0  0  0  0  0  0  0  0  0
  -10.0164   20.0540  -32.0187 H   0  0  0  0  0  0  0  0  0  0  0  0
  -10.2728   22.4764  -31.4777 H   0  0  0  0  0  0  0  0  0  0  0  0
   -8.3101   24.0061  -31.6202 H   0  0  0  0  0  0  0  0  0  0  0  0
   -5.4388   23.4860  -33.3942 H   0  0  0  0  0  0  0  0  0  0  0  0
   -6.0596   24.3687  -31.9470 H   0  0  0  0  0  0  0  0  0  0  0  0
   -4.4080   21.8610  -31.5700 H   0  0  0  0  0  0  0  0  0  0  0  0
   -2.5510   22.1940  -30.0620 H   0  0  0  0  0  0  0  0  0  0  0  0
    0.0079   22.8017  -29.4454 H   0  0  0  0  0  0  0  0  0  0  0  0
    0.0929   24.1934  -28.2848 H   0  0  0  0  0  0  0  0  0  0  0  0
   -0.9950   21.5260  -27.9590 H   0  0  0  0  0  0  0  0  0  0  0  0
    0.1500   21.4786  -26.0980 H   0  0  0  0  0  0  0  0  0  0  0  0
    0.9663   22.9315  -26.8593 H   0  0  0  0  0  0  0  0  0  0  0  0
   -0.9476   22.7934  -24.5429 H   0  0  0  0  0  0  0  0  0  0  0  0
    0.5301   23.7979  -24.7892 H   0  0  0  0  0  0  0  0  0  0  0  0
   -1.1173   26.5910  -27.4400 H   0  0  0  0  0  0  0  0  0  0  0  0
   -0.4729   28.9407  -26.8986 H   0  0  0  0  0  0  0  0  0  0  0  0
    0.1521   29.5634  -24.5631 H   0  0  0  0  0  0  0  0  0  0  0  0
    0.1385   27.8336  -22.7649 H   0  0  0  0  0  0  0  0  0  0  0  0
   -0.5048   25.4830  -23.2928 H   0  0  0  0  0  0  0  0  0  0  0  0
   -3.2922   24.2682  -25.8347 H   0  0  0  0  0  0  0  0  0  0  0  0
   -2.5061   24.9684  -27.3017 H   0  0  0  0  0  0  0  0  0  0  0  0
   -2.6357   22.0750  -26.3805 H   0  0  0  0  0  0  0  0  0  0  0  0
   -2.9913   22.7995  -28.0053 H   0  0  0  0  0  0  0  0  0  0  0  0
  1  2  1  0
  2  3  1  0
  3  4  2  0
  4  5  1  0
  5  6  2  0
  6  7  1  0
  7  8  2  0
  8  9  1  0
  9 10  1  0
 10 11  1  0
 11 12  2  0
 11 13  1  0
 13 14  1  0
 14 15  2  0
 14 16  1  0
 16 17  1  0
 17 18  1  0
 18 19  1  0
 19 20  1  0
 20 21  1  0
 21 22  2  0
 22 23  1  0
 23 24  2  0
 24 25  1  0
 25 26  2  0
 20 27  1  0
 27 28  1  0
  8  3  1  0
 28 17  1  0
 26 21  1  0
  1 29  1  0
  1 30  1  0
  1 31  1  0
  4 32  1  0
  5 33  1  0
  6 34  1  0
  7 35  1  0
  9 36  1  0
  9 37  1  0
 10 38  1  0
 13 39  1  0
 16 40  1  0
 16 41  1  0
 17 42  1  0
 18 43  1  0
 18 44  1  0
 19 45  1  0
 19 46  1  0
 22 47  1  0
 23 48  1  0
 24 49  1  0
 25 50  1  0
 26 51  1  0
 27 52  1  0
 27 53  1  0
 28 54  1  0
 28 55  1  0
M  CHG  1  17   1
M  END
>  <UniqueID>  (14) 
13

>  <SMILES>  (14) 
COc1ccccc1CNC(=O)NC(=O)C[NH+]1CCN(c2ccccc2)CC1

>  <Energy>  (14) 
65.61613704121112

>  <Genealogy>  (14) 
COc1ccccc1CNC(=O)NC(=O)C[NH+]1CCN(c2ccccc2)CC1 (protonated)
COc1ccccc1CNC(=O)NC(=O)C[NH+]1CCN(c2ccccc2)CC1 (3D coordinates assigned)
COc1ccccc1CNC(=O)NC(=O)C[NH+]1CCN(c2ccccc2)CC1 (nonaromatic ring conformer: 65.61613704121112 kcal/mol)

>  <smiles>  (14) 
COc1ccccc1CNC(=O)NC(=O)CN1CCN(c2ccccc2)CC1

>  <score_type>  (14) 
oracle

>  <origin>  (14) 
adg

>  <m_score__min__energy>  (14) 
-8.4299999999999997

>  <m_primary>  (14) 
energy

$$$$
14:0
     RDKit          3D

 38 41  0  0  0  0  0  0  0  0999 V2000
   -9.0830   22.3310  -31.5250 C   0  0  0  0  0  0  0  0  0  0  0  0
   -7.6840   22.7390  -31.4650 N   0  0  0  0  0  0  0  0  0  0  0  0
   -7.3010   23.9310  -31.0250 N   0  0  0  0  0  0  0  0  0  0  0  0
   -5.9610   24.0410  -31.1450 C   0  0  0  0  0  0  0  0  0  0  0  0
   -5.1710   25.2200  -30.7390 C   0  0  0  0  0  0  0  0  0  0  0  0
   -5.7350   26.3430  -30.6520 O   0  0  0  0  0  0  0  0  0  0  0  0
   -3.7600   25.1370  -30.5020 N   0  0  0  0  0  0  0  0  0  0  0  0
   -3.1290   24.5480  -29.3560 C   0  0  0  0  0  0  0  0  0  0  0  0
   -3.8070   23.5490  -28.6470 C   0  0  0  0  0  0  0  0  0  0  0  0
   -3.2120   22.9440  -27.5350 C   0  0  0  0  0  0  0  0  0  0  0  0
   -1.9300   23.3260  -27.1330 C   0  0  0  0  0  0  0  0  0  0  0  0
   -1.2360   24.3050  -27.8480 C   0  0  0  0  0  0  0  0  0  0  0  0
   -1.8270   24.9110  -28.9620 C   0  0  0  0  0  0  0  0  0  0  0  0
   -5.4820   22.8590  -31.6800 C   0  0  0  0  0  0  0  0  0  0  0  0
   -6.5790   22.0500  -31.8500 C   0  0  0  0  0  0  0  0  0  0  0  0
   -6.4340   20.6960  -32.4380 C   0  0  0  0  0  0  0  0  0  0  0  0
   -7.4550   19.7290  -32.4840 C   0  0  0  0  0  0  0  0  0  0  0  0
   -7.2250   18.4910  -33.0920 C   0  0  0  0  0  0  0  0  0  0  0  0
   -5.9770   18.2010  -33.6480 C   0  0  0  0  0  0  0  0  0  0  0  0
   -4.9460   19.1400  -33.5800 C   0  0  0  0  0  0  0  0  0  0  0  0
   -5.1590   20.3750  -32.9610 C   0  0  0  0  0  0  0  0  0  0  0  0
   -4.0930   21.2930  -32.8790 O   0  0  0  0  0  0  0  0  0  0  0  0
   -4.0850   22.4350  -32.0100 C   0  0  0  0  0  0  0  0  0  0  0  0
   -9.4757   22.2165  -30.5039 H   0  0  0  0  0  0  0  0  0  0  0  0
   -9.6657   23.0966  -32.0582 H   0  0  0  0  0  0  0  0  0  0  0  0
   -9.1628   21.3722  -32.0582 H   0  0  0  0  0  0  0  0  0  0  0  0
   -7.9490   24.6560  -30.6400 H   0  0  0  0  0  0  0  0  0  0  0  0
   -4.8128   23.2383  -28.9661 H   0  0  0  0  0  0  0  0  0  0  0  0
   -3.7542   22.1667  -26.9766 H   0  0  0  0  0  0  0  0  0  0  0  0
   -1.4667   22.8557  -26.2531 H   0  0  0  0  0  0  0  0  0  0  0  0
   -0.2236   24.5998  -27.5348 H   0  0  0  0  0  0  0  0  0  0  0  0
   -1.2734   25.6724  -29.5310 H   0  0  0  0  0  0  0  0  0  0  0  0
   -8.4375   19.9476  -32.0402 H   0  0  0  0  0  0  0  0  0  0  0  0
   -8.0301   17.7426  -33.1326 H   0  0  0  0  0  0  0  0  0  0  0  0
   -5.8063   17.2320  -34.1399 H   0  0  0  0  0  0  0  0  0  0  0  0
   -3.9629   18.9071  -34.0150 H   0  0  0  0  0  0  0  0  0  0  0  0
   -3.5567   22.1774  -31.0802 H   0  0  0  0  0  0  0  0  0  0  0  0
   -3.5752   23.2648  -32.5215 H   0  0  0  0  0  0  0  0  0  0  0  0
  1  2  1  0
  2  3  1  0
  3  4  2  0
  4  5  1  0
  5  6  2  0
  5  7  1  0
  7  8  1  0
  8  9  2  0
  9 10  1  0
 10 11  2  0
 11 12  1  0
 12 13  2  0
  4 14  1  0
 14 15  2  0
 15 16  1  0
 16 17  2  0
 17 18  1  0
 18 19  2  0
 19 20  1  0
 20 21  2  0
 21 22  1  0
 22 23  1  0
 15  2  1  0
 21 16  1  0
 13  8  1  0
 23 14  1  0
  1 24  1  0
  1 25  1  0
  1 26  1  0
  3 27  1  0
  9 28  1  0
 10 29  1  0
 11 30  1  0
 12 31  1  0
 13 32  1  0
 17 33  1  0
 18 34  1  0
 19 35  1  0
 20 36  1  0
 23 37  1  0
 23 38  1  0
M  CHG  2   3   1   7  -1
M  END
>  <UniqueID>  (15) 
14

>  <SMILES>  (15) 
Cn1[nH+]c(C(=O)[N-]c2ccccc2)c2c1-c1ccccc1OC2

>  <Energy>  (15) 
89.88620793034133

>  <Genealogy>  (15) 
Cn1[nH+]c(C(=O)[N-]c2ccccc2)c2c1-c1ccccc1OC2 (protonated)
Cn1[nH+]c(C(=O)[N-]c2ccccc2)c2c1-c1ccccc1OC2 (3D coordinates assigned)
Cn1[nH+]c(C(=O)[N-]c2ccccc2)c2c1-c1ccccc1OC2 (nonaromatic ring conformer: 89.88620793034133 kcal/mol)

>  <smiles>  (15) 
Cn1nc(C(=O)Nc2ccccc2)c2c1-c1ccccc1OC2

>  <score_type>  (15) 
oracle

>  <origin>  (15) 
adg

>  <m_score__min__energy>  (15) 
-9.4600000000000009

>  <m_primary>  (15) 
energy

$$$$
15:0
     RDKit          3D

 42 45  0  0  0  0  0  0  0  0999 V2000
   -3.1950   15.9790  -35.1880 C   0  0  0  0  0  0  0  0  0  0  0  0
   -3.1190   17.3390  -34.6290 N   0  0  0  0  0  0  0  0  0  0  0  0
   -4.2310   17.8980  -34.0400 C   0  0  0  0  0  0  0  0  0  0  0  0
   -5.3180   17.2610  -33.9680 O   0  0  0  0  0  0  0  0  0  0  0  0
   -4.1270   19.1770  -33.5030 C   0  0  0  0  0  0  0  0  0  0  0  0
   -5.0200   19.9960  -32.8260 C   0  0  0  0  0  0  0  0  0  0  0  0
   -6.4250   19.6760  -32.4980 C   0  0  0  0  0  0  0  0  0  0  0  0
   -7.4690   20.4260  -33.0620 C   0  0  0  0  0  0  0  0  0  0  0  0
   -8.8000   20.1070  -32.7730 C   0  0  0  0  0  0  0  0  0  0  0  0
   -9.0940   19.0370  -31.9230 C   0  0  0  0  0  0  0  0  0  0  0  0
   -8.0600   18.2830  -31.3630 C   0  0  0  0  0  0  0  0  0  0  0  0
   -6.7280   18.5990  -31.6510 C   0  0  0  0  0  0  0  0  0  0  0  0
   -4.3660   21.1230  -32.4300 N   0  0  0  0  0  0  0  0  0  0  0  0
   -4.9110   22.2510  -31.7200 C   0  0  0  0  0  0  0  0  0  0  0  0
   -5.9620   23.0040  -32.2720 C   0  0  0  0  0  0  0  0  0  0  0  0
   -6.4860   24.0980  -31.5770 C   0  0  0  0  0  0  0  0  0  0  0  0
   -5.9590   24.4560  -30.3340 C   0  0  0  0  0  0  0  0  0  0  0  0
   -4.9030   23.7220  -29.7830 C   0  0  0  0  0  0  0  0  0  0  0  0
   -4.2400   24.1740  -28.2230 Cl  0  0  0  0  0  0  0  0  0  0  0  0
   -4.3780   22.6260  -30.4760 C   0  0  0  0  0  0  0  0  0  0  0  0
   -3.0830   21.0210  -32.8500 C   0  0  0  0  0  0  0  0  0  0  0  0
   -2.9290   19.8230  -33.5220 C   0  0  0  0  0  0  0  0  0  0  0  0
   -1.8140   19.2800  -34.0840 N   0  0  0  0  0  0  0  0  0  0  0  0
   -0.5360   20.0080  -34.0450 C   0  0  0  0  0  0  0  0  0  0  0  0
   -1.9120   18.0150  -34.6240 C   0  0  0  0  0  0  0  0  0  0  0  0
   -0.8850   17.4620  -35.1090 O   0  0  0  0  0  0  0  0  0  0  0  0
   -3.2359   15.2472  -34.3678 H   0  0  0  0  0  0  0  0  0  0  0  0
   -4.0997   15.8870  -35.8069 H   0  0  0  0  0  0  0  0  0  0  0  0
   -2.3062   15.7868  -35.8069 H   0  0  0  0  0  0  0  0  0  0  0  0
   -7.2398   21.2669  -33.7331 H   0  0  0  0  0  0  0  0  0  0  0  0
   -9.6155   20.6984  -33.2148 H   0  0  0  0  0  0  0  0  0  0  0  0
  -10.1410   18.7884  -31.6948 H   0  0  0  0  0  0  0  0  0  0  0  0
   -8.2932   17.4405  -30.6953 H   0  0  0  0  0  0  0  0  0  0  0  0
   -5.9155   18.0013  -31.2121 H   0  0  0  0  0  0  0  0  0  0  0  0
   -6.3738   22.7313  -33.2549 H   0  0  0  0  0  0  0  0  0  0  0  0
   -7.3146   24.6778  -32.0097 H   0  0  0  0  0  0  0  0  0  0  0  0
   -6.3745   25.3157  -29.7879 H   0  0  0  0  0  0  0  0  0  0  0  0
   -3.5430   22.0548  -30.0441 H   0  0  0  0  0  0  0  0  0  0  0  0
   -2.2932   21.7684  -32.6838 H   0  0  0  0  0  0  0  0  0  0  0  0
   -0.2414   20.1758  -32.9986 H   0  0  0  0  0  0  0  0  0  0  0  0
    0.2390   19.4158  -34.5536 H   0  0  0  0  0  0  0  0  0  0  0  0
   -0.6501   20.9766  -34.5536 H   0  0  0  0  0  0  0  0  0  0  0  0
  1  2  1  0
  2  3  1  0
  3  4  2  0
  3  5  1  0
  5  6  2  0
  6  7  1  0
  7  8  2  0
  8  9  1  0
  9 10  2  0
 10 11  1  0
 11 12  2  0
  6 13  1  0
 13 14  1  0
 14 15  2  0
 15 16  1  0
 16 17  2  0
 17 18  1  0
 18 19  1  0
 18 20  2  0
 13 21  1  0
 21 22  2  0
 22 23  1  0
 23 24  1  0
 23 25  1  0
 25 26  2  0
 25  2  1  0
 22  5  1  0
 12  7  1  0
 20 14  1  0
  1 27  1  0
  1 28  1  0
  1 29  1  0
  8 30  1  0
  9 31  1  0
 10 32  1  0
 11 33  1  0
 12 34  1  0
 15 35  1  0
 16 36  1  0
 17 37  1  0
 20 38  1  0
 21 39  1  0
 24 40  1  0
 24 41  1  0
 24 42  1  0
M  END
>  <UniqueID>  (16) 
15

>  <SMILES>  (16) 
Cn1c(=O)c2c(-c3ccccc3)n(-c3cccc(Cl)c3)cc2n(C)c1=O

>  <Energy>  (16) 
99.88605377746134

>  <Genealogy>  (16) 
Cn1c(=O)c2c(-c3ccccc3)n(-c3cccc(Cl)c3)cc2n(C)c1=O (3D coordinates assigned)
Cn1c(=O)c2c(-c3ccccc3)n(-c3cccc(Cl)c3)cc2n(C)c1=O (optimized conformer: 99.88605377746134 kcal/mol)

>  <smiles>  (16) 
Cn1c(=O)c2c(-c3ccccc3)n(-c3cccc(Cl)c3)cc2n(C)c1=O

>  <score_type>  (16) 
oracle

>  <origin>  (16) 
adg

>  <m_score__min__energy>  (16) 
-8.5500000000000007

>  <m_primary>  (16) 
energy

$$$$
16:0
     RDKit          3D

 52 53  0  0  0  0  0  0  0  0999 V2000
   -5.7130   17.8310  -34.9940 C   0  0  0  0  0  0  0  0  0  0  0  0
   -5.4150   18.4550  -34.0060 C   0  0  0  0  0  0  0  0  0  0  0  0
   -5.0460   19.2100  -32.8010 C   0  0  0  0  0  0  0  0  0  0  0  0
   -6.1300   19.1140  -31.7190 C   0  0  0  0  0  0  0  0  0  0  0  0
   -7.1590   20.2230  -31.8270 C   0  0  0  0  0  0  0  0  0  0  0  0
   -8.4710   19.8660  -32.1910 C   0  0  0  0  0  0  0  0  0  0  0  0
   -9.4810   20.8240  -32.2570 C   0  0  0  0  0  0  0  0  0  0  0  0
   -9.2040   22.1500  -31.9440 C   0  0  0  0  0  0  0  0  0  0  0  0
   -7.9100   22.5300  -31.5850 C   0  0  0  0  0  0  0  0  0  0  0  0
   -6.8560   21.5920  -31.5670 C   0  0  0  0  0  0  0  0  0  0  0  0
   -5.4550   22.0380  -31.1610 C   0  0  0  0  0  0  0  0  0  0  0  0
   -5.0350   23.4220  -31.6950 C   0  0  0  0  0  0  0  0  0  0  0  0
   -4.3230   24.2110  -30.6630 N   0  0  0  0  0  0  0  0  0  0  0  0
   -5.0080   25.5010  -30.4550 C   0  0  0  0  0  0  0  0  0  0  0  0
   -4.2160   23.4660  -29.3870 C   0  0  0  0  0  0  0  0  0  0  0  0
   -3.5130   24.3030  -28.3120 C   0  0  0  0  0  0  0  0  0  0  0  0
   -2.2980   24.9270  -28.8580 N   0  0  0  0  0  0  0  0  0  0  0  0
   -1.0700   24.5180  -28.1550 C   0  0  0  0  0  0  0  0  0  0  0  0
   -1.0070   25.0750  -26.7540 C   0  0  0  0  0  0  0  0  0  0  0  0
   -1.6100   26.3030  -26.4510 C   0  0  0  0  0  0  0  0  0  0  0  0
   -1.5370   26.8150  -25.1550 C   0  0  0  0  0  0  0  0  0  0  0  0
   -0.8610   26.0930  -24.1700 C   0  0  0  0  0  0  0  0  0  0  0  0
   -0.2800   24.9000  -24.4760 N   0  0  0  0  0  0  0  0  0  0  0  0
   -0.3380   24.3820  -25.7330 C   0  0  0  0  0  0  0  0  0  0  0  0
   -5.9848   17.2618  -35.8952 H   0  0  0  0  0  0  0  0  0  0  0  0
   -4.1051   18.8049  -32.4003 H   0  0  0  0  0  0  0  0  0  0  0  0
   -4.9316   20.2679  -33.0799 H   0  0  0  0  0  0  0  0  0  0  0  0
   -6.6430   18.1460  -31.8186 H   0  0  0  0  0  0  0  0  0  0  0  0
   -5.6355   19.2113  -30.7412 H   0  0  0  0  0  0  0  0  0  0  0  0
   -8.7022   18.8167  -32.4266 H   0  0  0  0  0  0  0  0  0  0  0  0
  -10.4979   20.5309  -32.5569 H   0  0  0  0  0  0  0  0  0  0  0  0
  -10.0066   22.9014  -31.9794 H   0  0  0  0  0  0  0  0  0  0  0  0
   -7.7087   23.5764  -31.3120 H   0  0  0  0  0  0  0  0  0  0  0  0
   -5.4106   22.0676  -30.0623 H   0  0  0  0  0  0  0  0  0  0  0  0
   -4.7587   21.3113  -31.6050 H   0  0  0  0  0  0  0  0  0  0  0  0
   -4.3704   23.2841  -32.5606 H   0  0  0  0  0  0  0  0  0  0  0  0
   -5.9442   23.9709  -31.9816 H   0  0  0  0  0  0  0  0  0  0  0  0
   -5.1097   25.6925  -29.3766 H   0  0  0  0  0  0  0  0  0  0  0  0
   -4.4193   26.3074  -30.9167 H   0  0  0  0  0  0  0  0  0  0  0  0
   -6.0058   25.4650  -30.9167 H   0  0  0  0  0  0  0  0  0  0  0  0
   -5.2263   23.2079  -29.0367 H   0  0  0  0  0  0  0  0  0  0  0  0
   -3.6220   22.5572  -29.5637 H   0  0  0  0  0  0  0  0  0  0  0  0
   -4.1972   25.0893  -27.9605 H   0  0  0  0  0  0  0  0  0  0  0  0
   -3.2306   23.6451  -27.4769 H   0  0  0  0  0  0  0  0  0  0  0  0
   -2.2120   24.6900  -29.8740 H   0  0  0  0  0  0  0  0  0  0  0  0
   -1.0405   23.4197  -28.1019 H   0  0  0  0  0  0  0  0  0  0  0  0
   -0.2103   24.9131  -28.7161 H   0  0  0  0  0  0  0  0  0  0  0  0
   -2.1409   26.8633  -27.2347 H   0  0  0  0  0  0  0  0  0  0  0  0
   -2.0079   27.7789  -24.9118 H   0  0  0  0  0  0  0  0  0  0  0  0
   -0.7975   26.4882  -23.1454 H   0  0  0  0  0  0  0  0  0  0  0  0
    0.2230   24.3710  -23.7280 H   0  0  0  0  0  0  0  0  0  0  0  0
    0.1414   23.4160  -25.9499 H   0  0  0  0  0  0  0  0  0  0  0  0
  1  2  3  0
  2  3  1  0
  3  4  1  0
  4  5  1  0
  5  6  2  0
  6  7  1  0
  7  8  2  0
  8  9  1  0
  9 10  2  0
 10 11  1  0
 11 12  1  0
 12 13  1  0
 13 14  1  0
 13 15  1  0
 15 16  1  0
 16 17  1  0
 17 18  1  0
 18 19  1  0
 19 20  2  0
 20 21  1  0
 21 22  2  0
 22 23  1  0
 23 24  2  0
 10  5  1  0
 24 19  1  0
  1 25  1  0
  3 26  1  0
  3 27  1  0
  4 28  1  0
  4 29  1  0
  6 30  1  0
  7 31  1  0
  8 32  1  0
  9 33  1  0
 11 34  1  0
 11 35  1  0
 12 36  1  0
 12 37  1  0
 14 38  1  0
 14 39  1  0
 14 40  1  0
 15 41  1  0
 15 42  1  0
 16 43  1  0
 16 44  1  0
 17 45  1  0
 18 46  1  0
 18 47  1  0
 20 48  1  0
 21 49  1  0
 22 50  1  0
 23 51  1  0
 24 52  1  0
M  CHG  1  23   1
M  END
>  <UniqueID>  (17) 
16

>  <SMILES>  (17) 
C#CCCc1ccccc1CCN(C)CCNCc1ccc[nH+]c1

>  <Energy>  (17) 
46.43780523143148

>  <Genealogy>  (17) 
C#CCCc1ccccc1CCN(C)CCNCc1ccc[nH+]c1 (protonated)
C#CCCc1ccccc1CCN(C)CCNCc1ccc[nH+]c1 (3D coordinates assigned)
C#CCCc1ccccc1CCN(C)CCNCc1ccc[nH+]c1 (optimized conformer: 46.43780523143148 kcal/mol)

>  <smiles>  (17) 
C#CCCc1ccccc1CCN(C)CCNCc1cccnc1

>  <score_type>  (17) 
oracle

>  <origin>  (17) 
adg

>  <m_score__min__energy>  (17) 
-8.8300000000000001

>  <m_primary>  (17) 
energy

$$$$
17:0
     RDKit          3D

 35 37  0  0  0  0  0  0  0  0999 V2000
   -2.5450   24.5940  -28.8350 C   0  0  0  0  0  0  0  0  0  0  0  0
   -3.8430   24.3870  -29.5410 C   0  0  0  0  0  0  0  0  0  0  0  0
   -5.1000   24.5670  -28.9910 C   0  0  0  0  0  0  0  0  0  0  0  0
   -5.9680   24.1860  -29.9920 C   0  0  0  0  0  0  0  0  0  0  0  0
   -5.2430   23.7990  -31.0600 N   0  0  0  0  0  0  0  0  0  0  0  0
   -5.7740   23.3070  -32.3280 C   0  0  0  0  0  0  0  0  0  0  0  0
   -5.6310   21.8170  -32.4020 C   0  0  0  0  0  0  0  0  0  0  0  0
   -4.5580   21.2080  -32.9480 N   0  0  0  0  0  0  0  0  0  0  0  0
   -4.7960   19.9090  -32.8780 N   0  0  0  0  0  0  0  0  0  0  0  0
   -5.9980   19.7340  -32.3040 C   0  0  0  0  0  0  0  0  0  0  0  0
   -6.5690   20.9230  -32.0070 N   0  0  0  0  0  0  0  0  0  0  0  0
   -7.8430   21.2170  -31.3280 C   0  0  0  0  0  0  0  0  0  0  0  0
   -9.0810   20.5580  -31.9730 C   0  0  0  0  0  0  0  0  0  0  0  0
   -9.1200   19.0310  -31.8020 C   0  0  0  0  0  0  0  0  0  0  0  0
   -8.0390   18.3000  -32.6270 C   0  0  0  0  0  0  0  0  0  0  0  0
   -6.6160   18.3930  -32.0520 C   0  0  0  0  0  0  0  0  0  0  0  0
   -3.9510   23.9040  -30.7930 N   0  0  0  0  0  0  0  0  0  0  0  0
   -2.7106   24.5676  -27.7479 H   0  0  0  0  0  0  0  0  0  0  0  0
   -1.8423   23.7966  -29.1183 H   0  0  0  0  0  0  0  0  0  0  0  0
   -2.1251   25.5705  -29.1183 H   0  0  0  0  0  0  0  0  0  0  0  0
   -5.3499   24.9314  -27.9837 H   0  0  0  0  0  0  0  0  0  0  0  0
   -7.0662   24.1962  -29.9295 H   0  0  0  0  0  0  0  0  0  0  0  0
   -6.8381   23.5748  -32.4054 H   0  0  0  0  0  0  0  0  0  0  0  0
   -5.2121   23.7644  -33.1557 H   0  0  0  0  0  0  0  0  0  0  0  0
   -4.1440   19.1680  -33.2180 H   0  0  0  0  0  0  0  0  0  0  0  0
   -7.7679   20.8632  -30.2891 H   0  0  0  0  0  0  0  0  0  0  0  0
   -7.9932   22.3041  -31.4033 H   0  0  0  0  0  0  0  0  0  0  0  0
   -9.9834   20.9836  -31.5098 H   0  0  0  0  0  0  0  0  0  0  0  0
   -9.0313   20.7621  -33.0528 H   0  0  0  0  0  0  0  0  0  0  0  0
   -8.9682   18.7941  -30.7386 H   0  0  0  0  0  0  0  0  0  0  0  0
  -10.0989   18.6857  -32.1660 H   0  0  0  0  0  0  0  0  0  0  0  0
   -8.3150   17.2369  -32.6869 H   0  0  0  0  0  0  0  0  0  0  0  0
   -8.0096   18.7969  -33.6079 H   0  0  0  0  0  0  0  0  0  0  0  0
   -6.6590   18.2196  -30.9666 H   0  0  0  0  0  0  0  0  0  0  0  0
   -5.9965   17.6331  -32.5508 H   0  0  0  0  0  0  0  0  0  0  0  0
  1  2  1  0
  2  3  1  0
  3  4  2  0
  4  5  1  0
  5  6  1  0
  6  7  1  0
  7  8  2  0
  8  9  1  0
  9 10  2  0
 10 11  1  0
 11 12  1  0
 12 13  1  0
 13 14  1  0
 14 15  1  0
 15 16  1  0
  5 17  1  0
 17  2  2  0
 11  7  1  0
 16 10  1  0
  1 18  1  0
  1 19  1  0
  1 20  1  0
  3 21  1  0
  4 22  1  0
  6 23  1  0
  6 24  1  0
  9 25  1  0
 12 26  1  0
 12 27  1  0
 13 28  1  0
 13 29  1  0
 14 30  1  0
 14 31  1  0
 15 32  1  0
 15 33  1  0
 16 34  1  0
 16 35  1  0
M  CHG  1   9   1
M  END
>  <UniqueID>  (18) 
17

>  <SMILES>  (18) 
Cc1ccn(Cc2n[nH+]c3n2CCCCC3)n1

>  <Energy>  (18) 
100.93561383464638

>  <Genealogy>  (18) 
Cc1ccn(Cc2n[nH+]c3n2CCCCC3)n1 (protonated)
Cc1ccn(Cc2n[nH+]c3n2CCCCC3)n1 (3D coordinates assigned)
Cc1ccn(Cc2n[nH+]c3n2CCCCC3)n1 (nonaromatic ring conformer: 100.93561383464638 kcal/mol)

>  <smiles>  (18) 
Cc1ccn(Cc2nnc3n2CCCCC3)n1

>  <score_type>  (18) 
oracle

>  <origin>  (18) 
adg

>  <m_score__min__energy>  (18) 
-5.1799999999999997

>  <m_primary>  (18) 
energy

$$$$
18:0
     RDKit          3D

 54 56  0  0  0  0  0  0  0  0999 V2000
   -4.6090   24.1580  -28.6230 C   0  0  0  0  0  0  0  0  0  0  0  0
   -4.9070   24.0960  -30.0920 C   0  0  0  0  0  0  0  0  0  0  0  0
   -4.0110   24.4690  -30.8960 O   0  0  0  0  0  0  0  0  0  0  0  0
   -6.1740   23.6160  -30.6000 N   0  0  0  0  0  0  0  0  0  0  0  0
   -7.2410   23.1380  -29.7020 C   0  0  0  0  0  0  0  0  0  0  0  0
   -7.9450   21.8820  -30.2530 C   0  0  0  0  0  0  0  0  0  0  0  0
   -7.8910   21.7530  -31.7950 C   0  0  0  0  0  0  0  0  0  0  0  0
   -9.1130   20.9580  -32.3290 C   0  0  0  0  0  0  0  0  0  0  0  0
   -8.7190   19.7670  -33.1170 N   0  0  0  0  0  0  0  0  0  0  0  0
   -7.8950   18.8100  -32.3530 C   0  0  0  0  0  0  0  0  0  0  0  0
   -6.4580   18.8070  -32.8130 C   0  0  0  0  0  0  0  0  0  0  0  0
   -6.1100   18.1660  -34.0080 C   0  0  0  0  0  0  0  0  0  0  0  0
   -4.8040   18.2400  -34.4860 C   0  0  0  0  0  0  0  0  0  0  0  0
   -3.8360   18.9610  -33.7870 C   0  0  0  0  0  0  0  0  0  0  0  0
   -4.1500   19.6220  -32.5750 C   0  0  0  0  0  0  0  0  0  0  0  0
   -3.1460   20.4010  -31.8540 N   0  0  0  0  0  0  0  0  0  0  0  0
   -1.8670   20.7290  -32.5210 C   0  0  0  0  0  0  0  0  0  0  0  0
   -0.8870   21.5040  -31.6320 C   0  0  0  0  0  0  0  0  0  0  0  0
   -1.5610   22.4150  -30.7990 O   0  0  0  0  0  0  0  0  0  0  0  0
   -2.3110   21.6840  -29.8590 C   0  0  0  0  0  0  0  0  0  0  0  0
   -3.4880   20.9800  -30.5370 C   0  0  0  0  0  0  0  0  0  0  0  0
   -5.4810   19.5230  -32.1010 C   0  0  0  0  0  0  0  0  0  0  0  0
   -7.7850   23.1410  -32.4450 C   0  0  0  0  0  0  0  0  0  0  0  0
   -6.4590   23.7930  -32.0350 C   0  0  0  0  0  0  0  0  0  0  0  0
   -5.5304   23.9663  -28.0535 H   0  0  0  0  0  0  0  0  0  0  0  0
   -3.8561   23.3973  -28.3692 H   0  0  0  0  0  0  0  0  0  0  0  0
   -4.2220   25.1559  -28.3692 H   0  0  0  0  0  0  0  0  0  0  0  0
   -6.7994   22.8965  -28.7239 H   0  0  0  0  0  0  0  0  0  0  0  0
   -7.9927   23.9363  -29.6150 H   0  0  0  0  0  0  0  0  0  0  0  0
   -7.4630   20.9955  -29.8150 H   0  0  0  0  0  0  0  0  0  0  0  0
   -9.0068   21.9671  -29.9785 H   0  0  0  0  0  0  0  0  0  0  0  0
   -6.9898   21.1848  -32.0689 H   0  0  0  0  0  0  0  0  0  0  0  0
   -9.7202   20.6287  -31.4729 H   0  0  0  0  0  0  0  0  0  0  0  0
   -9.6787   21.6256  -32.9955 H   0  0  0  0  0  0  0  0  0  0  0  0
   -8.2220   20.0330  -33.9990 H   0  0  0  0  0  0  0  0  0  0  0  0
   -9.5910   19.2640  -33.4030 H   0  0  0  0  0  0  0  0  0  0  0  0
   -7.9264   19.0853  -31.2885 H   0  0  0  0  0  0  0  0  0  0  0  0
   -8.3057   17.8027  -32.5162 H   0  0  0  0  0  0  0  0  0  0  0  0
   -6.8694   17.6029  -34.5704 H   0  0  0  0  0  0  0  0  0  0  0  0
   -4.5342   17.7266  -35.4207 H   0  0  0  0  0  0  0  0  0  0  0  0
   -2.8117   19.0170  -34.1840 H   0  0  0  0  0  0  0  0  0  0  0  0
   -1.3861   19.7893  -32.8303 H   0  0  0  0  0  0  0  0  0  0  0  0
   -2.1082   21.3791  -33.3749 H   0  0  0  0  0  0  0  0  0  0  0  0
   -0.3305   20.7908  -31.0062 H   0  0  0  0  0  0  0  0  0  0  0  0
   -0.2027   22.0694  -32.2817 H   0  0  0  0  0  0  0  0  0  0  0  0
   -1.6630   20.9309  -29.3869 H   0  0  0  0  0  0  0  0  0  0  0  0
   -2.7028   22.3787  -29.1015 H   0  0  0  0  0  0  0  0  0  0  0  0
   -3.8354   20.1696  -29.8793 H   0  0  0  0  0  0  0  0  0  0  0  0
   -4.2658   21.7389  -30.7078 H   0  0  0  0  0  0  0  0  0  0  0  0
   -5.7552   20.0164  -31.1569 H   0  0  0  0  0  0  0  0  0  0  0  0
   -7.8207   23.0378  -33.5396 H   0  0  0  0  0  0  0  0  0  0  0  0
   -8.6235   23.7695  -32.1104 H   0  0  0  0  0  0  0  0  0  0  0  0
   -5.6447   23.3369  -32.6171 H   0  0  0  0  0  0  0  0  0  0  0  0
   -6.5365   24.8720  -32.2341 H   0  0  0  0  0  0  0  0  0  0  0  0
  1  2  1  0
  2  3  2  0
  2  4  1  0
  4  5  1  0
  5  6  1  0
  6  7  1  0
  7  8  1  0
  8  9  1  0
  9 10  1  0
 10 11  1  0
 11 12  2  0
 12 13  1  0
 13 14  2  0
 14 15  1  0
 15 16  1  0
 16 17  1  0
 17 18  1  0
 18 19  1  0
 19 20  1  0
 20 21  1  0
 15 22  2  0
  7 23  1  0
 23 24  1  0
 24  4  1  0
 22 11  1  0
 21 16  1  0
  1 25  1  0
  1 26  1  0
  1 27  1  0
  5 28  1  0
  5 29  1  0
  6 30  1  0
  6 31  1  0
  7 32  1  0
  8 33  1  0
  8 34  1  0
  9 35  1  0
  9 36  1  0
 10 37  1  0
 10 38  1  0
 12 39  1  0
 13 40  1  0
 14 41  1  0
 17 42  1  0
 17 43  1  0
 18 44  1  0
 18 45  1  0
 20 46  1  0
 20 47  1  0
 21 48  1  0
 21 49  1  0
 22 50  1  0
 23 51  1  0
 23 52  1  0
 24 53  1  0
 24 54  1  0
M  CHG  1   9   1
M  END
>  <UniqueID>  (19) 
18

>  <SMILES>  (19) 
CC(=O)N1CCC(C[NH2+]Cc2cccc(N3CCOCC3)c2)CC1

>  <Energy>  (19) 
62.82076776492298

>  <Genealogy>  (19) 
CC(=O)N1CCC(C[NH2+]Cc2cccc(N3CCOCC3)c2)CC1 (protonated)
CC(=O)N1CCC(C[NH2+]Cc2cccc(N3CCOCC3)c2)CC1 (3D coordinates assigned)
CC(=O)N1CCC(C[NH2+]Cc2cccc(N3CCOCC3)c2)CC1 (nonaromatic ring conformer: 62.82076776492298 kcal/mol)

>  <smiles>  (19) 
CC(=O)N1CCC(CNCc2cccc(N3CCOCC3)c2)CC1

>  <score_type>  (19) 
oracle

>  <origin>  (19) 
adg

>  <m_score__min__energy>  (19) 
-8.7799999999999994

>  <m_primary>  (19) 
energy

$$$$
19:0
     RDKit          3D

 34 35  0  0  0  0  0  0  0  0999 V2000
   -2.2750   20.9950  -32.6510 C   0  0  0  0  0  0  0  0  0  0  0  0
   -3.4460   21.5440  -33.4630 C   0  0  0  0  0  0  0  0  0  0  0  0
   -4.7290   21.1580  -32.8340 N   0  0  0  0  0  0  0  0  0  0  0  0
   -4.6850   21.3560  -31.3690 C   0  0  0  0  0  0  0  0  0  0  0  0
   -4.9340   22.8030  -31.0380 C   0  0  0  0  0  0  0  0  0  0  0  0
   -6.2460   23.2860  -30.9290 C   0  0  0  0  0  0  0  0  0  0  0  0
   -6.4700   24.6320  -30.6330 C   0  0  0  0  0  0  0  0  0  0  0  0
   -5.3800   25.4830  -30.4490 C   0  0  0  0  0  0  0  0  0  0  0  0
   -4.1130   25.0010  -30.5590 N   0  0  0  0  0  0  0  0  0  0  0  0
   -3.8680   23.6950  -30.8460 C   0  0  0  0  0  0  0  0  0  0  0  0
   -5.0900   19.7630  -33.1670 C   0  0  0  0  0  0  0  0  0  0  0  0
   -6.5040   19.4790  -32.7370 C   0  0  0  0  0  0  0  0  0  0  0  0
   -7.4770   20.4890  -32.7400 C   0  0  0  0  0  0  0  0  0  0  0  0
   -8.7870   20.1950  -32.3550 C   0  0  0  0  0  0  0  0  0  0  0  0
   -9.1120   18.8930  -31.9710 C   0  0  0  0  0  0  0  0  0  0  0  0
   -8.1590   17.9240  -31.9750 N   0  0  0  0  0  0  0  0  0  0  0  0
   -6.8770   18.1840  -32.3460 C   0  0  0  0  0  0  0  0  0  0  0  0
   -2.4931   21.0973  -31.5777 H   0  0  0  0  0  0  0  0  0  0  0  0
   -2.1254   19.9329  -32.8952 H   0  0  0  0  0  0  0  0  0  0  0  0
   -1.3629   21.5593  -32.8952 H   0  0  0  0  0  0  0  0  0  0  0  0
   -3.3770   22.6411  -33.5043 H   0  0  0  0  0  0  0  0  0  0  0  0
   -3.4047   21.1268  -34.4800 H   0  0  0  0  0  0  0  0  0  0  0  0
   -5.4589   20.7352  -30.8940 H   0  0  0  0  0  0  0  0  0  0  0  0
   -3.6923   21.0654  -30.9948 H   0  0  0  0  0  0  0  0  0  0  0  0
   -7.0975   22.6054  -31.0765 H   0  0  0  0  0  0  0  0  0  0  0  0
   -7.4964   25.0178  -30.5457 H   0  0  0  0  0  0  0  0  0  0  0  0
   -5.5454   26.5449  -30.2147 H   0  0  0  0  0  0  0  0  0  0  0  0
   -2.8313   23.3365  -30.9279 H   0  0  0  0  0  0  0  0  0  0  0  0
   -5.0030   19.6139  -34.2534 H   0  0  0  0  0  0  0  0  0  0  0  0
   -4.4087   19.0788  -32.6401 H   0  0  0  0  0  0  0  0  0  0  0  0
   -7.2088   21.5112  -33.0451 H   0  0  0  0  0  0  0  0  0  0  0  0
   -9.5554   20.9821  -32.3544 H   0  0  0  0  0  0  0  0  0  0  0  0
  -10.1404   18.6510  -31.6648 H   0  0  0  0  0  0  0  0  0  0  0  0
   -6.1299   17.3766  -32.3396 H   0  0  0  0  0  0  0  0  0  0  0  0
  1  2  1  0
  2  3  1  0
  3  4  1  0
  4  5  1  0
  5  6  2  0
  6  7  1  0
  7  8  2  0
  8  9  1  0
  9 10  2  0
  3 11  1  0
 11 12  1  0
 12 13  2  0
 13 14  1  0
 14 15  2  0
 15 16  1  0
 16 17  2  0
 10  5  1  0
 17 12  1  0
  1 18  1  0
  1 19  1  0
  1 20  1  0
  2 21  1  0
  2 22  1  0
  4 23  1  0
  4 24  1  0
  6 25  1  0
  7 26  1  0
  8 27  1  0
 10 28  1  0
 11 29  1  0
 11 30  1  0
 13 31  1  0
 14 32  1  0
 15 33  1  0
 17 34  1  0
M  END
>  <UniqueID>  (20) 
19

>  <SMILES>  (20) 
CCN(Cc1cccnc1)Cc1cccnc1

>  <Energy>  (20) 
34.92557320268066

>  <Genealogy>  (20) 
CCN(Cc1cccnc1)Cc1cccnc1 (3D coordinates assigned)
CCN(Cc1cccnc1)Cc1cccnc1 (optimized conformer: 34.92557320268066 kcal/mol)

>  <smiles>  (20) 
CCN(Cc1cccnc1)Cc1cccnc1

>  <score_type>  (20) 
oracle

>  <origin>  (20) 
adg

>  <m_score__min__energy>  (20) 
-6.5800000000000001

>  <m_primary>  (20) 
energy

$$$$
20:0
     RDKit          3D

 45 47  0  0  0  0  0  0  0  0999 V2000
   -4.8660   17.4490  -35.3280 C   0  0  0  0  0  0  0  0  0  0  0  0
   -5.7730   17.9020  -34.2230 C   0  0  0  0  0  0  0  0  0  0  0  0
   -6.7370   17.0300  -33.6960 C   0  0  0  0  0  0  0  0  0  0  0  0
   -7.6090   17.4660  -32.6970 C   0  0  0  0  0  0  0  0  0  0  0  0
   -7.5340   18.7780  -32.2230 C   0  0  0  0  0  0  0  0  0  0  0  0
   -6.5860   19.6700  -32.7520 C   0  0  0  0  0  0  0  0  0  0  0  0
   -6.5100   21.0280  -32.2780 N   0  0  0  0  0  0  0  0  0  0  0  0
   -5.2350   21.5670  -31.8030 C   0  0  0  0  0  0  0  0  0  0  0  0
   -5.1000   23.0370  -32.2130 C   0  0  0  0  0  0  0  0  0  0  0  0
   -6.3070   23.8310  -31.9070 N   0  0  0  0  0  0  0  0  0  0  0  0
   -6.3030   24.5800  -30.6330 C   0  0  0  0  0  0  0  0  0  0  0  0
   -5.1430   25.5360  -30.4990 C   0  0  0  0  0  0  0  0  0  0  0  0
   -5.3760   26.7700  -30.4160 O   0  0  0  0  0  0  0  0  0  0  0  0
   -3.7790   25.0940  -30.5290 N   0  0  0  0  0  0  0  0  0  0  0  0
   -3.0690   24.4690  -29.4530 C   0  0  0  0  0  0  0  0  0  0  0  0
   -1.8110   24.9400  -29.0410 C   0  0  0  0  0  0  0  0  0  0  0  0
   -1.1210   24.2960  -28.0100 C   0  0  0  0  0  0  0  0  0  0  0  0
   -1.6720   23.1670  -27.3970 C   0  0  0  0  0  0  0  0  0  0  0  0
   -0.8060   22.3580  -26.1040 Cl  0  0  0  0  0  0  0  0  0  0  0  0
   -2.9090   22.6740  -27.8250 C   0  0  0  0  0  0  0  0  0  0  0  0
   -3.6010   23.3160  -28.8580 C   0  0  0  0  0  0  0  0  0  0  0  0
   -4.7950   22.8220  -29.2720 F   0  0  0  0  0  0  0  0  0  0  0  0
   -7.5940   23.2310  -32.3140 C   0  0  0  0  0  0  0  0  0  0  0  0
   -7.7220   21.7580  -31.9120 C   0  0  0  0  0  0  0  0  0  0  0  0
   -5.7130   19.2250  -33.7580 C   0  0  0  0  0  0  0  0  0  0  0  0
   -3.9606   16.9968  -34.8970 H   0  0  0  0  0  0  0  0  0  0  0  0
   -5.3874   16.7055  -35.9487 H   0  0  0  0  0  0  0  0  0  0  0  0
   -4.5848   18.3125  -35.9487 H   0  0  0  0  0  0  0  0  0  0  0  0
   -6.8061   15.9984  -34.0715 H   0  0  0  0  0  0  0  0  0  0  0  0
   -8.3572   16.7747  -32.2819 H   0  0  0  0  0  0  0  0  0  0  0  0
   -8.2203   19.1143  -31.4319 H   0  0  0  0  0  0  0  0  0  0  0  0
   -5.1931   21.4897  -30.7065 H   0  0  0  0  0  0  0  0  0  0  0  0
   -4.4114   20.9911  -32.2503 H   0  0  0  0  0  0  0  0  0  0  0  0
   -4.2461   23.4746  -31.6751 H   0  0  0  0  0  0  0  0  0  0  0  0
   -4.9540   23.0641  -33.3029 H   0  0  0  0  0  0  0  0  0  0  0  0
   -7.2379   25.1556  -30.5648 H   0  0  0  0  0  0  0  0  0  0  0  0
   -6.2075   23.8408  -29.8240 H   0  0  0  0  0  0  0  0  0  0  0  0
   -1.3674   25.8189  -29.5317 H   0  0  0  0  0  0  0  0  0  0  0  0
   -0.1434   24.6780  -27.6807 H   0  0  0  0  0  0  0  0  0  0  0  0
   -3.3385   21.7802  -27.3488 H   0  0  0  0  0  0  0  0  0  0  0  0
   -8.4098   23.7960  -31.8393 H   0  0  0  0  0  0  0  0  0  0  0  0
   -7.6462   23.2780  -33.4118 H   0  0  0  0  0  0  0  0  0  0  0  0
   -7.8728   21.6899  -30.8245 H   0  0  0  0  0  0  0  0  0  0  0  0
   -8.5804   21.3155  -32.4385 H   0  0  0  0  0  0  0  0  0  0  0  0
   -4.9752   19.9198  -34.1856 H   0  0  0  0  0  0  0  0  0  0  0  0
  1  2  1  0
  2  3  2  0
  3  4  1  0
  4  5  2  0
  5  6  1  0
  6  7  1  0
  7  8  1  0
  8  9  1  0
  9 10  1  0
 10 11  1  0
 11 12  1  0
 12 13  2  0
 12 14  1  0
 14 15  1  0
 15 16  2  0
 16 17  1  0
 17 18  2  0
 18 19  1  0
 18 20  1  0
 20 21  2  0
 21 22  1  0
 10 23  1  0
 23 24  1  0
  6 25  2  0
 25  2  1  0
 24  7  1  0
 21 15  1  0
  1 26  1  0
  1 27  1  0
  1 28  1  0
  3 29  1  0
  4 30  1  0
  5 31  1  0
  8 32  1  0
  8 33  1  0
  9 34  1  0
  9 35  1  0
 11 36  1  0
 11 37  1  0
 16 38  1  0
 17 39  1  0
 20 40  1  0
 23 41  1  0
 23 42  1  0
 24 43  1  0
 24 44  1  0
 25 45  1  0
M  CHG  1  14  -1
M  END
>  <UniqueID>  (21) 
20

>  <SMILES>  (21) 
Cc1cccc(N2CCN(CC(=O)[N-]c3ccc(Cl)cc3F)CC2)c1

>  <Energy>  (21) 
62.93684214462494

>  <Genealogy>  (21) 
Cc1cccc(N2CCN(CC(=O)[N-]c3ccc(Cl)cc3F)CC2)c1 (protonated)
Cc1cccc(N2CCN(CC(=O)[N-]c3ccc(Cl)cc3F)CC2)c1 (3D coordinates assigned)
Cc1cccc(N2CCN(CC(=O)[N-]c3ccc(Cl)cc3F)CC2)c1 (nonaromatic ring conformer: 62.93684214462494 kcal/mol)

>  <smiles>  (21) 
Cc1cccc(N2CCN(CC(=O)Nc3ccc(Cl)cc3F)CC2)c1

>  <score_type>  (21) 
oracle

>  <origin>  (21) 
adg

>  <m_score__min__energy>  (21) 
-11.1

>  <m_primary>  (21) 
energy

$$$$
21:0
     RDKit          3D

 58 61  0  0  0  0  0  0  0  0999 V2000
   -7.1690   22.8650  -30.2120 C   0  0  0  0  0  0  0  0  0  0  0  0
   -5.8410   22.3670  -30.6830 C   0  0  0  0  0  0  0  0  0  0  0  0
   -5.6520   21.1540  -31.2550 N   0  0  0  0  0  0  0  0  0  0  0  0
   -4.3220   21.1200  -31.4960 C   0  0  0  0  0  0  0  0  0  0  0  0
   -3.6280   20.0540  -32.0710 C   0  0  0  0  0  0  0  0  0  0  0  0
   -4.3360   18.9120  -32.4750 O   0  0  0  0  0  0  0  0  0  0  0  0
   -5.1420   18.8140  -33.6500 C   0  0  0  0  0  0  0  0  0  0  0  0
   -6.6430   18.8280  -33.2990 C   0  0  0  0  0  0  0  0  0  0  0  0
   -7.2270   20.2540  -33.4600 C   0  0  0  0  0  0  0  0  0  0  0  0
   -8.4920   20.5030  -32.6130 C   0  0  0  0  0  0  0  0  0  0  0  0
   -9.2580   19.2060  -32.3330 C   0  0  0  0  0  0  0  0  0  0  0  0
   -8.3950   18.1990  -31.5470 C   0  0  0  0  0  0  0  0  0  0  0  0
   -6.8890   18.2910  -31.8750 C   0  0  0  0  0  0  0  0  0  0  0  0
   -2.2280   20.1990  -32.2170 C   0  0  0  0  0  0  0  0  0  0  0  0
   -1.5830   21.3720  -31.7820 C   0  0  0  0  0  0  0  0  0  0  0  0
   -2.3360   22.4040  -31.2060 C   0  0  0  0  0  0  0  0  0  0  0  0
   -3.6780   22.2330  -31.0990 N   0  0  0  0  0  0  0  0  0  0  0  0
   -4.6270   23.0270  -30.5780 C   0  0  0  0  0  0  0  0  0  0  0  0
   -4.4020   24.3330  -30.0230 N   0  0  0  0  0  0  0  0  0  0  0  0
   -5.2450   25.4490  -30.4600 C   0  0  0  0  0  0  0  0  0  0  0  0
   -3.3480   24.5290  -29.0580 C   0  0  0  0  0  0  0  0  0  0  0  0
   -2.3860   25.2980  -29.3390 O   0  0  0  0  0  0  0  0  0  0  0  0
   -3.3940   23.8470  -27.7110 C   0  0  0  0  0  0  0  0  0  0  0  0
   -2.6340   22.5450  -27.6960 C   0  0  0  0  0  0  0  0  0  0  0  0
   -3.3180   21.3220  -27.8060 C   0  0  0  0  0  0  0  0  0  0  0  0
   -2.6140   20.1140  -27.7600 C   0  0  0  0  0  0  0  0  0  0  0  0
   -1.2270   20.1180  -27.5930 C   0  0  0  0  0  0  0  0  0  0  0  0
   -0.5400   21.3290  -27.4680 C   0  0  0  0  0  0  0  0  0  0  0  0
   -1.2400   22.5390  -27.5150 C   0  0  0  0  0  0  0  0  0  0  0  0
   -7.1888   22.8724  -29.1122 H   0  0  0  0  0  0  0  0  0  0  0  0
   -7.3325   23.8855  -30.5886 H   0  0  0  0  0  0  0  0  0  0  0  0
   -7.9632   22.2036  -30.5886 H   0  0  0  0  0  0  0  0  0  0  0  0
   -4.9198   19.6658  -34.3096 H   0  0  0  0  0  0  0  0  0  0  0  0
   -4.9107   17.8634  -34.1529 H   0  0  0  0  0  0  0  0  0  0  0  0
   -7.1620   18.1597  -34.0019 H   0  0  0  0  0  0  0  0  0  0  0  0
   -6.4582   20.9806  -33.1586 H   0  0  0  0  0  0  0  0  0  0  0  0
   -7.5181   20.3660  -34.5149 H   0  0  0  0  0  0  0  0  0  0  0  0
   -8.1950   20.9543  -31.6548 H   0  0  0  0  0  0  0  0  0  0  0  0
   -9.1544   21.1740  -33.1796 H   0  0  0  0  0  0  0  0  0  0  0  0
  -10.1572   19.4417  -31.7449 H   0  0  0  0  0  0  0  0  0  0  0  0
   -9.5290   18.7501  -33.2967 H   0  0  0  0  0  0  0  0  0  0  0  0
   -8.5295   18.3897  -30.4720 H   0  0  0  0  0  0  0  0  0  0  0  0
   -8.7284   17.1916  -31.8368 H   0  0  0  0  0  0  0  0  0  0  0  0
   -6.4081   18.9664  -31.1521 H   0  0  0  0  0  0  0  0  0  0  0  0
   -6.4642   17.2782  -31.8143 H   0  0  0  0  0  0  0  0  0  0  0  0
   -1.6397   19.3894  -32.6736 H   0  0  0  0  0  0  0  0  0  0  0  0
   -0.4938   21.4781  -31.8936 H   0  0  0  0  0  0  0  0  0  0  0  0
   -1.8531   23.3263  -30.8508 H   0  0  0  0  0  0  0  0  0  0  0  0
   -5.6424   25.9751  -29.5795 H   0  0  0  0  0  0  0  0  0  0  0  0
   -4.6461   26.1462  -31.0643 H   0  0  0  0  0  0  0  0  0  0  0  0
   -6.0794   25.0635  -31.0643 H   0  0  0  0  0  0  0  0  0  0  0  0
   -2.9552   24.5201  -26.9598 H   0  0  0  0  0  0  0  0  0  0  0  0
   -4.4470   23.6216  -27.4867 H   0  0  0  0  0  0  0  0  0  0  0  0
   -4.4111   21.3147  -27.9287 H   0  0  0  0  0  0  0  0  0  0  0  0
   -3.1531   19.1599  -27.8554 H   0  0  0  0  0  0  0  0  0  0  0  0
   -0.6749   19.1672  -27.5598 H   0  0  0  0  0  0  0  0  0  0  0  0
    0.5516   21.3303  -27.3326 H   0  0  0  0  0  0  0  0  0  0  0  0
   -0.6973   23.4900  -27.4099 H   0  0  0  0  0  0  0  0  0  0  0  0
  1  2  1  0
  2  3  1  0
  3  4  2  0
  4  5  1  0
  5  6  1  0
  6  7  1  0
  7  8  1  0
  8  9  1  0
  9 10  1  0
 10 11  1  0
 11 12  1  0
 12 13  1  0
  5 14  2  0
 14 15  1  0
 15 16  2  0
 16 17  1  0
 17 18  1  0
 18 19  1  0
 19 20  1  0
 19 21  1  0
 21 22  2  0
 21 23  1  0
 23 24  1  0
 24 25  2  0
 25 26  1  0
 26 27  2  0
 27 28  1  0
 28 29  2  0
 18  2  2  0
 29 24  1  0
 17  4  1  0
 13  8  1  0
  1 30  1  0
  1 31  1  0
  1 32  1  0
  7 33  1  0
  7 34  1  0
  8 35  1  0
  9 36  1  0
  9 37  1  0
 10 38  1  0
 10 39  1  0
 11 40  1  0
 11 41  1  0
 12 42  1  0
 12 43  1  0
 13 44  1  0
 13 45  1  0
 14 46  1  0
 15 47  1  0
 16 48  1  0
 20 49  1  0
 20 50  1  0
 20 51  1  0
 23 52  1  0
 23 53  1  0
 25 54  1  0
 26 55  1  0
 27 56  1  0
 28 57  1  0
 29 58  1  0
M  END
>  <UniqueID>  (22) 
21

>  <SMILES>  (22) 
Cc1nc2c(OCC3CCCCC3)cccn2c1N(C)C(=O)Cc1ccccc1

>  <Energy>  (22) 
100.84026923367159

>  <Genealogy>  (22) 
Cc1nc2c(OCC3CCCCC3)cccn2c1N(C)C(=O)Cc1ccccc1 (3D coordinates assigned)
Cc1nc2c(OCC3CCCCC3)cccn2c1N(C)C(=O)Cc1ccccc1 (nonaromatic ring conformer: 100.84026923367159 kcal/mol)

>  <smiles>  (22) 
Cc1nc2c(OCC3CCCCC3)cccn2c1N(C)C(=O)Cc1ccccc1

>  <score_type>  (22) 
oracle

>  <origin>  (22) 
adg

>  <m_score__min__energy>  (22) 
-9.8900000000000006

>  <m_primary>  (22) 
energy

$$$$
22:0
     RDKit          3D

 57 58  0  0  0  0  0  0  0  0999 V2000
   -1.0880   24.8960  -29.6620 H   0  0  0  0  0  0  0  0  0  0  0  0
   -1.2360   25.8080  -29.2980 O   0  0  0  0  0  0  0  0  0  0  0  0
   -1.9190   25.6490  -28.0830 C   0  0  0  0  0  0  0  0  0  0  0  0
   -2.4947   26.5622  -27.8716 H   0  0  0  0  0  0  0  0  0  0  0  0
   -1.1816   25.4659  -27.2875 H   0  0  0  0  0  0  0  0  0  0  0  0
   -2.8810   24.4510  -28.1450 C   0  0  1  0  0  0  0  0  0  0  0  0
   -3.7823   24.8072  -27.6247 H   0  0  0  0  0  0  0  0  0  0  0  0
   -3.1320   24.1020  -29.4850 O   0  0  0  0  0  0  0  0  0  0  0  0
   -3.5760   22.7650  -29.4550 C   0  0  1  0  0  0  0  0  0  0  0  0
   -4.6628   22.7396  -29.2870 H   0  0  0  0  0  0  0  0  0  0  0  0
   -3.3320   22.0890  -30.7490 N   0  0  0  0  0  0  0  0  0  0  0  0
   -4.3680   21.4120  -31.3320 C   0  0  0  0  0  0  0  0  0  0  0  0
   -5.3539   21.4063  -30.8442 H   0  0  0  0  0  0  0  0  0  0  0  0
   -4.1920   20.7240  -32.5440 C   0  0  0  0  0  0  0  0  0  0  0  0
   -5.3070   20.0020  -33.2100 C   0  0  0  0  0  0  0  0  0  0  0  0
   -5.2159   19.7801  -34.2835 H   0  0  0  0  0  0  0  0  0  0  0  0
   -6.4170   19.6070  -32.5730 C   0  0  0  0  0  0  0  0  0  0  0  0
   -6.3298   18.9495  -31.6955 H   0  0  0  0  0  0  0  0  0  0  0  0
   -7.7790   20.0440  -33.0330 C   0  0  0  0  0  0  0  0  0  0  0  0
   -8.0956   19.4095  -33.8739 H   0  0  0  0  0  0  0  0  0  0  0  0
   -7.7226   21.0972  -33.3455 H   0  0  0  0  0  0  0  0  0  0  0  0
   -8.8070   19.9240  -31.8980 C   0  0  0  0  0  0  0  0  0  0  0  0
   -8.4151   19.2295  -31.1403 H   0  0  0  0  0  0  0  0  0  0  0  0
   -9.7465   19.5584  -32.3381 H   0  0  0  0  0  0  0  0  0  0  0  0
   -9.1050   21.2720  -31.2220 C   0  0  0  0  0  0  0  0  0  0  0  0
   -8.7670   21.2248  -30.1763 H   0  0  0  0  0  0  0  0  0  0  0  0
  -10.1889   21.4474  -31.2887 H   0  0  0  0  0  0  0  0  0  0  0  0
   -8.3970   22.4480  -31.9170 C   0  0  0  0  0  0  0  0  0  0  0  0
   -9.1506   23.2014  -32.1898 H   0  0  0  0  0  0  0  0  0  0  0  0
   -7.8820   22.0497  -32.8036 H   0  0  0  0  0  0  0  0  0  0  0  0
   -7.3370   23.1130  -31.0220 C   0  0  0  0  0  0  0  0  0  0  0  0
   -6.7856   22.3263  -30.4861 H   0  0  0  0  0  0  0  0  0  0  0  0
   -7.8631   23.7862  -30.3292 H   0  0  0  0  0  0  0  0  0  0  0  0
   -6.3340   23.9600  -31.8180 C   0  0  0  0  0  0  0  0  0  0  0  0
   -6.8739   24.5227  -32.5938 H   0  0  0  0  0  0  0  0  0  0  0  0
   -5.5927   23.2884  -32.2755 H   0  0  0  0  0  0  0  0  0  0  0  0
   -5.6010   24.9460  -30.9020 C   0  0  0  0  0  0  0  0  0  0  0  0
   -5.3795   25.8636  -31.4667 H   0  0  0  0  0  0  0  0  0  0  0  0
   -4.6719   24.4720  -30.5524 H   0  0  0  0  0  0  0  0  0  0  0  0
   -6.4490   25.3030  -29.6850 C   0  0  0  0  0  0  0  0  0  0  0  0
   -5.8903   25.0678  -28.7671 H   0  0  0  0  0  0  0  0  0  0  0  0
   -6.6855   26.3771  -29.7052 H   0  0  0  0  0  0  0  0  0  0  0  0
   -7.3825   24.7215  -29.7052 H   0  0  0  0  0  0  0  0  0  0  0  0
   -2.9220   20.7670  -33.1370 C   0  0  0  0  0  0  0  0  0  0  0  0
   -2.7070   20.1800  -34.2330 O   0  0  0  0  0  0  0  0  0  0  0  0
   -1.9090   21.4310  -32.5250 N   0  0  0  0  0  0  0  0  0  0  0  0
   -0.9620   21.4420  -32.9700 H   0  0  0  0  0  0  0  0  0  0  0  0
   -2.0950   22.0760  -31.3420 C   0  0  0  0  0  0  0  0  0  0  0  0
   -1.1150   22.6610  -30.8040 O   0  0  0  0  0  0  0  0  0  0  0  0
   -2.8640   22.0480  -28.3120 C   0  0  0  0  0  0  0  0  0  0  0  0
   -3.5492   21.3641  -27.7897 H   0  0  0  0  0  0  0  0  0  0  0  0
   -2.0239   21.4259  -28.6545 H   0  0  0  0  0  0  0  0  0  0  0  0
   -2.4270   23.1800  -27.3990 C   0  0  1  0  0  0  0  0  0  0  0  0
   -2.8768   23.1332  -26.3963 H   0  0  0  0  0  0  0  0  0  0  0  0
   -0.9900   23.1250  -27.1050 N   0  0  0  0  0  0  0  0  0  0  0  0
   -0.1350   23.6000  -27.8560 N   0  0  0  0  0  0  0  0  0  0  0  0
    0.7120   24.0780  -28.6080 N   0  0  0  0  0  0  0  0  0  0  0  0
  1  2  1  0
  2  3  1  0
  3  4  1  0
  3  5  1  0
  3  6  1  0
  6  7  1  1
  6  8  1  0
  8  9  1  0
  9 10  1  1
  9 11  1  0
 11 12  1  0
 12 13  1  0
 12 14  2  0
 14 15  1  0
 15 16  1  0
 15 17  2  0
 17 18  1  0
 17 19  1  0
 19 20  1  0
 19 21  1  0
 19 22  1  0
 22 23  1  0
 22 24  1  0
 22 25  1  0
 25 26  1  0
 25 27  1  0
 25 28  1  0
 28 29  1  0
 28 30  1  0
 28 31  1  0
 31 32  1  0
 31 33  1  0
 31 34  1  0
 34 35  1  0
 34 36  1  0
 34 37  1  0
 37 38  1  0
 37 39  1  0
 37 40  1  0
 40 41  1  0
 40 42  1  0
 40 43  1  0
 14 44  1  0
 44 45  2  0
 44 46  1  0
 46 47  1  0
 46 48  1  0
 48 49  2  0
  9 50  1  0
 50 51  1  0
 50 52  1  0
 50 53  1  0
 53 54  1  1
 53 55  1  0
 55 56  2  0
 56 57  2  0
 53  6  1  0
 48 11  1  0
M  CHG  2  56   1  57  -1
M  END
>  <UniqueID>  (23) 
22

>  <SMILES>  (23) 
CCCCCCCC/C=C/c1cn([C@H]2C[C@@H](N=[N+]=[N-])C(CO)O2)c(=O)[nH]c1=O

>  <Energy>  (23) 
50.09450037425926

>  <Genealogy>  (23) 
CCCCCCCCC=Cc1cn([C@H]2C[C@@H](N=[N+]=[N-])C(CO)O2)c(=O)[nH]c1=O (chirality)
CCCCCCCC/C=C/c1cn([C@H]2C[C@@H](N=[N+]=[N-])C(CO)O2)c(=O)[nH]c1=O (cis-trans isomerization)
CCCCCCCC/C=C/c1cn([C@H]2C[C@@H](N=[N+]=[N-])C(CO)O2)c(=O)[nH]c1=O (3D coordinates assigned)
CCCCCCCC/C=C/c1cn([C@H]2C[C@@H](N=[N+]=[N-])C(CO)O2)c(=O)[nH]c1=O (nonaromatic ring conformer: 50.09450037425926 kcal/mol)

>  <smiles>  (23) 
CCCCCCCCC=Cc1cn(C2CC(N=[N+]=[N-])C(CO)O2)c(=O)[nH]c1=O

>  <score_type>  (23) 
oracle

>  <origin>  (23) 
adg

>  <m_score__min__energy>  (23) 
-8.9299999999999997

>  <m_primary>  (23) 
energy

$$$$
23:0
     RDKit          3D

 50 53  0  0  0  0  0  0  0  0999 V2000
   -5.4640   25.3480  -30.0930 C   0  0  0  0  0  0  0  0  0  0  0  0
   -4.8410   23.9810  -30.1420 C   0  0  0  0  0  0  0  0  0  0  0  0
   -5.2130   22.9520  -30.9950 C   0  0  0  0  0  0  0  0  0  0  0  0
   -6.3100   22.9540  -32.0300 C   0  0  0  0  0  0  0  0  0  0  0  0
   -7.2960   21.8750  -31.7900 N   0  0  0  0  0  0  0  0  0  0  0  0
   -8.6830   22.3610  -31.9460 C   0  0  0  0  0  0  0  0  0  0  0  0
   -9.6990   21.2150  -31.7320 C   0  0  0  0  0  0  0  0  0  0  0  0
   -9.0700   19.9520  -31.6110 O   0  0  0  0  0  0  0  0  0  0  0  0
   -8.2150   19.7390  -32.7150 C   0  0  0  0  0  0  0  0  0  0  0  0
   -7.0480   20.7470  -32.7180 C   0  0  0  0  0  0  0  0  0  0  0  0
   -4.4030   21.8730  -30.6980 C   0  0  0  0  0  0  0  0  0  0  0  0
   -3.5470   22.2880  -29.6950 C   0  0  0  0  0  0  0  0  0  0  0  0
   -2.4800   21.4450  -29.1080 C   0  0  0  0  0  0  0  0  0  0  0  0
   -2.7120   20.7010  -27.9380 C   0  0  0  0  0  0  0  0  0  0  0  0
   -1.6960   19.9110  -27.3910 C   0  0  0  0  0  0  0  0  0  0  0  0
   -0.4390   19.8660  -27.9990 C   0  0  0  0  0  0  0  0  0  0  0  0
    0.5450   19.1000  -27.4670 F   0  0  0  0  0  0  0  0  0  0  0  0
   -0.1940   20.6160  -29.1530 C   0  0  0  0  0  0  0  0  0  0  0  0
   -1.2070   21.4070  -29.7030 C   0  0  0  0  0  0  0  0  0  0  0  0
   -3.8100   23.5760  -29.3620 N   0  0  0  0  0  0  0  0  0  0  0  0
   -3.1860   24.3380  -28.3130 C   0  0  0  0  0  0  0  0  0  0  0  0
   -1.9000   24.8710  -28.4920 C   0  0  0  0  0  0  0  0  0  0  0  0
   -1.2890   25.5970  -27.4660 C   0  0  0  0  0  0  0  0  0  0  0  0
   -1.9570   25.7950  -26.2530 C   0  0  0  0  0  0  0  0  0  0  0  0
   -1.1210   26.7840  -24.8510 Br  0  0  0  0  0  0  0  0  0  0  0  0
   -3.2400   25.2660  -26.0690 C   0  0  0  0  0  0  0  0  0  0  0  0
   -3.8530   24.5410  -27.0940 C   0  0  0  0  0  0  0  0  0  0  0  0
   -5.6020   25.6507  -29.0445 H   0  0  0  0  0  0  0  0  0  0  0  0
   -4.8057   26.0693  -30.5993 H   0  0  0  0  0  0  0  0  0  0  0  0
   -6.4403   25.3244  -30.5993 H   0  0  0  0  0  0  0  0  0  0  0  0
   -6.8285   23.9236  -31.9972 H   0  0  0  0  0  0  0  0  0  0  0  0
   -5.8506   22.7839  -33.0149 H   0  0  0  0  0  0  0  0  0  0  0  0
   -7.1710   21.5210  -30.8100 H   0  0  0  0  0  0  0  0  0  0  0  0
   -8.8723   23.1524  -31.2059 H   0  0  0  0  0  0  0  0  0  0  0  0
   -8.8049   22.7513  -32.9672 H   0  0  0  0  0  0  0  0  0  0  0  0
  -10.2691   21.4153  -30.8128 H   0  0  0  0  0  0  0  0  0  0  0  0
  -10.3557   21.1797  -32.6138 H   0  0  0  0  0  0  0  0  0  0  0  0
   -7.8078   18.7185  -32.6620 H   0  0  0  0  0  0  0  0  0  0  0  0
   -8.7969   19.8765  -33.6383 H   0  0  0  0  0  0  0  0  0  0  0  0
   -6.1280   20.2282  -32.4107 H   0  0  0  0  0  0  0  0  0  0  0  0
   -6.9496   21.1548  -33.7349 H   0  0  0  0  0  0  0  0  0  0  0  0
   -4.4333   20.8787  -31.1675 H   0  0  0  0  0  0  0  0  0  0  0  0
   -3.6973   20.7404  -27.4505 H   0  0  0  0  0  0  0  0  0  0  0  0
   -1.8869   19.3240  -26.4805 H   0  0  0  0  0  0  0  0  0  0  0  0
    0.7972   20.5837  -29.6289 H   0  0  0  0  0  0  0  0  0  0  0  0
   -1.0069   22.0026  -30.6059 H   0  0  0  0  0  0  0  0  0  0  0  0
   -1.3708   24.7166  -29.4439 H   0  0  0  0  0  0  0  0  0  0  0  0
   -0.2814   26.0133  -27.6125 H   0  0  0  0  0  0  0  0  0  0  0  0
   -3.7664   25.4214  -25.1157 H   0  0  0  0  0  0  0  0  0  0  0  0
   -4.8616   24.1278  -26.9456 H   0  0  0  0  0  0  0  0  0  0  0  0
  1  2  1  0
  2  3  2  0
  3  4  1  0
  4  5  1  0
  5  6  1  0
  6  7  1  0
  7  8  1  0
  8  9  1  0
  9 10  1  0
  3 11  1  0
 11 12  2  0
 12 13  1  0
 13 14  2  0
 14 15  1  0
 15 16  2  0
 16 17  1  0
 16 18  1  0
 18 19  2  0
 12 20  1  0
 20 21  1  0
 21 22  2  0
 22 23  1  0
 23 24  2  0
 24 25  1  0
 24 26  1  0
 26 27  2  0
 20  2  1  0
 27 21  1  0
 10  5  1  0
 19 13  1  0
  1 28  1  0
  1 29  1  0
  1 30  1  0
  4 31  1  0
  4 32  1  0
  5 33  1  0
  6 34  1  0
  6 35  1  0
  7 36  1  0
  7 37  1  0
  9 38  1  0
  9 39  1  0
 10 40  1  0
 10 41  1  0
 11 42  1  0
 14 43  1  0
 15 44  1  0
 18 45  1  0
 19 46  1  0
 22 47  1  0
 23 48  1  0
 26 49  1  0
 27 50  1  0
M  CHG  1   5   1
M  END
>  <UniqueID>  (24) 
23

>  <SMILES>  (24) 
Cc1c(C[NH+]2CCOCC2)cc(-c2ccc(F)cc2)n1-c1ccc(Br)cc1

>  <Energy>  (24) 
98.30356321296136

>  <Genealogy>  (24) 
Cc1c(C[NH+]2CCOCC2)cc(-c2ccc(F)cc2)n1-c1ccc(Br)cc1 (protonated)
Cc1c(C[NH+]2CCOCC2)cc(-c2ccc(F)cc2)n1-c1ccc(Br)cc1 (3D coordinates assigned)
Cc1c(C[NH+]2CCOCC2)cc(-c2ccc(F)cc2)n1-c1ccc(Br)cc1 (nonaromatic ring conformer: 98.30356321296136 kcal/mol)

>  <smiles>  (24) 
Cc1c(CN2CCOCC2)cc(-c2ccc(F)cc2)n1-c1ccc(Br)cc1

>  <score_type>  (24) 
oracle

>  <origin>  (24) 
adg

>  <m_score__min__energy>  (24) 
-8.0199999999999996

>  <m_primary>  (24) 
energy

$$$$
24:0
     RDKit          3D

 41 42  0  0  0  0  0  0  0  0999 V2000
   -1.6840   21.5800  -31.1730 C   0  0  0  0  0  0  0  0  0  0  0  0
   -1.8720   20.5680  -32.3000 C   0  0  0  0  0  0  0  0  0  0  0  0
   -2.6680   21.1740  -33.4640 C   0  0  0  0  0  0  0  0  0  0  0  0
   -4.1130   20.9860  -33.2610 N   0  0  0  0  0  0  0  0  0  0  0  0
   -4.5360   19.5890  -33.4760 C   0  0  0  0  0  0  0  0  0  0  0  0
   -5.9480   19.4520  -34.0810 C   0  0  0  0  0  0  0  0  0  0  0  0
   -7.0380   19.5780  -33.0430 C   0  0  0  0  0  0  0  0  0  0  0  0
   -7.8890   18.4880  -32.7900 C   0  0  0  0  0  0  0  0  0  0  0  0
   -8.9210   18.5980  -31.8560 C   0  0  0  0  0  0  0  0  0  0  0  0
   -9.1120   19.7930  -31.1620 C   0  0  0  0  0  0  0  0  0  0  0  0
   -8.2760   20.8850  -31.4050 C   0  0  0  0  0  0  0  0  0  0  0  0
   -7.2430   20.7920  -32.3560 C   0  0  0  0  0  0  0  0  0  0  0  0
   -6.3850   21.8760  -32.5980 O   0  0  0  0  0  0  0  0  0  0  0  0
   -6.1270   22.9220  -31.6990 C   0  0  0  0  0  0  0  0  0  0  0  0
   -7.1500   23.7690  -31.2300 C   0  0  0  0  0  0  0  0  0  0  0  0
   -6.8480   24.8110  -30.3480 C   0  0  0  0  0  0  0  0  0  0  0  0
   -5.5290   25.0250  -29.9390 C   0  0  0  0  0  0  0  0  0  0  0  0
   -4.5080   24.1980  -30.4160 C   0  0  0  0  0  0  0  0  0  0  0  0
   -4.8060   23.1540  -31.2990 C   0  0  0  0  0  0  0  0  0  0  0  0
   -1.7787   21.0702  -30.2029 H   0  0  0  0  0  0  0  0  0  0  0  0
   -0.6859   22.0355  -31.2520 H   0  0  0  0  0  0  0  0  0  0  0  0
   -2.4519   22.3636  -31.2520 H   0  0  0  0  0  0  0  0  0  0  0  0
   -0.8843   20.2522  -32.6669 H   0  0  0  0  0  0  0  0  0  0  0  0
   -2.4328   19.7079  -31.9054 H   0  0  0  0  0  0  0  0  0  0  0  0
   -2.4497   22.2502  -33.5288 H   0  0  0  0  0  0  0  0  0  0  0  0
   -2.3733   20.6674  -34.3949 H   0  0  0  0  0  0  0  0  0  0  0  0
   -4.3450   21.2350  -32.2710 H   0  0  0  0  0  0  0  0  0  0  0  0
   -4.6520   21.6310  -33.8840 H   0  0  0  0  0  0  0  0  0  0  0  0
   -3.8183   19.1105  -34.1587 H   0  0  0  0  0  0  0  0  0  0  0  0
   -4.5629   19.1068  -32.4877 H   0  0  0  0  0  0  0  0  0  0  0  0
   -6.0865   20.2407  -34.8351 H   0  0  0  0  0  0  0  0  0  0  0  0
   -6.0247   18.4487  -34.5254 H   0  0  0  0  0  0  0  0  0  0  0  0
   -7.7408   17.5421  -33.3315 H   0  0  0  0  0  0  0  0  0  0  0  0
   -9.5844   17.7411  -31.6671 H   0  0  0  0  0  0  0  0  0  0  0  0
   -9.9221   19.8753  -30.4224 H   0  0  0  0  0  0  0  0  0  0  0  0
   -8.4258   21.8228  -30.8500 H   0  0  0  0  0  0  0  0  0  0  0  0
   -8.1879   23.6105  -31.5581 H   0  0  0  0  0  0  0  0  0  0  0  0
   -7.6508   25.4641  -29.9751 H   0  0  0  0  0  0  0  0  0  0  0  0
   -5.2945   25.8434  -29.2424 H   0  0  0  0  0  0  0  0  0  0  0  0
   -3.4691   24.3680  -30.0969 H   0  0  0  0  0  0  0  0  0  0  0  0
   -3.9980   22.5125  -31.6806 H   0  0  0  0  0  0  0  0  0  0  0  0
  1  2  1  0
  2  3  1  0
  3  4  1  0
  4  5  1  0
  5  6  1  0
  6  7  1  0
  7  8  2  0
  8  9  1  0
  9 10  2  0
 10 11  1  0
 11 12  2  0
 12 13  1  0
 13 14  1  0
 14 15  2  0
 15 16  1  0
 16 17  2  0
 17 18  1  0
 18 19  2  0
 12  7  1  0
 19 14  1  0
  1 20  1  0
  1 21  1  0
  1 22  1  0
  2 23  1  0
  2 24  1  0
  3 25  1  0
  3 26  1  0
  4 27  1  0
  4 28  1  0
  5 29  1  0
  5 30  1  0
  6 31  1  0
  6 32  1  0
  8 33  1  0
  9 34  1  0
 10 35  1  0
 11 36  1  0
 15 37  1  0
 16 38  1  0
 17 39  1  0
 18 40  1  0
 19 41  1  0
M  CHG  1   4   1
M  END
>  <UniqueID>  (25) 
24

>  <SMILES>  (25) 
CCC[NH2+]CCc1ccccc1Oc1ccccc1

>  <Energy>  (25) 
40.84455409956864

>  <Genealogy>  (25) 
CCC[NH2+]CCc1ccccc1Oc1ccccc1 (protonated)
CCC[NH2+]CCc1ccccc1Oc1ccccc1 (3D coordinates assigned)
CCC[NH2+]CCc1ccccc1Oc1ccccc1 (optimized conformer: 40.84455409956864 kcal/mol)

>  <smiles>  (25) 
CCCNCCc1ccccc1Oc1ccccc1

>  <score_type>  (25) 
oracle

>  <origin>  (25) 
adg

>  <m_score__min__energy>  (25) 
-5.8799999999999999

>  <m_primary>  (25) 
energy

$$$$
25:0
     RDKit          3D

 49 52  0  0  1  0  0  0  0  0999 V2000
   -6.5030   16.7940  -33.8380 C   0  0  0  0  0  0  0  0  0  0  0  0
   -6.3110   17.3440  -32.4200 C   0  0  0  0  0  0  0  0  0  0  0  0
   -7.1360   18.5270  -32.2530 N   0  0  0  0  0  0  0  0  0  0  0  0
   -8.3820   18.6100  -31.7100 C   0  0  0  0  0  0  0  0  0  0  0  0
   -8.7800   19.9420  -31.7590 C   0  0  0  0  0  0  0  0  0  0  0  0
   -7.7370   20.6410  -32.3450 C   0  0  0  0  0  0  0  0  0  0  0  0
   -2.2140   24.5130  -29.2920 N   0  0  0  0  0  0  0  0  0  0  0  0
   -3.2920   24.1750  -29.8390 C   0  0  0  0  0  0  0  0  0  0  0  0
   -5.6130   22.4770  -31.7690 N   0  0  0  0  0  0  0  0  0  0  0  0
   -4.8170   23.2230  -30.9770 C   0  0  0  0  0  0  0  0  0  0  0  0
   -5.4120   24.2550  -30.3060 C   0  0  0  0  0  0  0  0  0  0  0  0
   -6.7500   24.5310  -30.4190 C   0  0  0  0  0  0  0  0  0  0  0  0
   -7.5110   23.7790  -31.2060 N   0  0  0  0  0  0  0  0  0  0  0  0
   -4.4500   24.8420  -29.5980 N   0  0  0  0  0  0  0  0  0  0  0  0
   -6.9220   22.7650  -31.8660 C   0  0  0  0  0  0  0  0  0  0  0  0
   -7.6360   22.0320  -32.6270 N   0  0  0  0  0  0  0  0  0  0  0  0
   -1.9660   25.0500  -28.0510 C   0  0  0  0  0  0  0  0  0  0  0  0
   -2.6880   24.8990  -26.8900 C   0  0  0  0  0  0  0  0  0  0  0  0
   -2.4120   25.5400  -25.7100 C   0  0  0  0  0  0  0  0  0  0  0  0
   -1.3480   26.4050  -25.6420 C   0  0  0  0  0  0  0  0  0  0  0  0
   -0.5970   26.5930  -26.7630 C   0  0  0  0  0  0  0  0  0  0  0  0
   -0.8740   25.9500  -27.9470 C   0  0  0  0  0  0  0  0  0  0  0  0
   -3.4680   23.1620  -30.6900 N   0  0  0  0  0  0  0  0  0  0  0  0
   -2.5560   22.1870  -31.2320 C   0  0  0  0  0  0  0  0  0  0  0  0
   -1.7140   21.3820  -30.3140 C   0  0  0  0  0  0  0  0  0  0  0  0
   -2.9430   21.5600  -32.5400 C   0  0  0  0  0  0  0  0  0  0  0  0
   -6.7580   19.7540  -32.6320 N   0  0  0  0  0  0  0  0  0  0  0  0
   -6.8651   15.7568  -33.7831 H   0  0  0  0  0  0  0  0  0  0  0  0
   -7.2388   17.4113  -34.3742 H   0  0  0  0  0  0  0  0  0  0  0  0
   -5.5429   16.8193  -34.3742 H   0  0  0  0  0  0  0  0  0  0  0  0
   -6.6084   16.5809  -31.6856 H   0  0  0  0  0  0  0  0  0  0  0  0
   -5.2538   17.6047  -32.2638 H   0  0  0  0  0  0  0  0  0  0  0  0
   -8.9693   17.7728  -31.3048 H   0  0  0  0  0  0  0  0  0  0  0  0
   -9.7340   20.3581  -31.4030 H   0  0  0  0  0  0  0  0  0  0  0  0
   -7.1908   25.3704  -29.8612 H   0  0  0  0  0  0  0  0  0  0  0  0
   -8.5490   23.9820  -31.3040 H   0  0  0  0  0  0  0  0  0  0  0  0
   -4.6060   25.6720  -28.9750 H   0  0  0  0  0  0  0  0  0  0  0  0
   -3.5489   24.2146  -26.9098 H   0  0  0  0  0  0  0  0  0  0  0  0
   -3.0388   25.3625  -24.8237 H   0  0  0  0  0  0  0  0  0  0  0  0
   -1.1082   26.9324  -24.7069 H   0  0  0  0  0  0  0  0  0  0  0  0
    0.2594   27.2820  -26.7198 H   0  0  0  0  0  0  0  0  0  0  0  0
   -0.2396   26.1363  -28.8261 H   0  0  0  0  0  0  0  0  0  0  0  0
   -1.7619   22.8846  -31.5365 H   0  0  0  0  0  0  0  0  0  0  0  0
   -1.9698   21.6266  -29.2725 H   0  0  0  0  0  0  0  0  0  0  0  0
   -1.8945   20.3120  -30.4943 H   0  0  0  0  0  0  0  0  0  0  0  0
   -0.6532   21.6104  -30.4943 H   0  0  0  0  0  0  0  0  0  0  0  0
   -3.5121   20.6379  -32.3505 H   0  0  0  0  0  0  0  0  0  0  0  0
   -3.5645   22.2631  -33.1140 H   0  0  0  0  0  0  0  0  0  0  0  0
   -2.0359   21.3196  -33.1140 H   0  0  0  0  0  0  0  0  0  0  0  0
  1  2  1  0
  2  3  1  0
  3  4  1  0
  4  5  2  0
  5  6  1  0
  6  7  1  0
  7  8  2  0
  8  9  1  0
  9 10  2  0
 10 11  1  0
 11 12  2  0
 12 13  1  0
 11 14  1  0
 14 15  1  0
 15 16  2  0
 16 17  1  0
 17 18  2  0
 18 19  1  0
 19 20  2  0
 20 21  1  0
 21 22  2  0
 15 23  1  0
 23 24  1  0
 24 25  1  0
 24 26  1  0
  6 27  2  0
 27  3  1  0
 13  8  1  0
 22 17  1  0
 23 10  1  0
  1 28  1  0
  1 29  1  0
  1 30  1  0
  2 31  1  0
  2 32  1  0
  4 33  1  0
  5 34  1  0
 12 35  1  0
 13 36  1  0
 14 37  1  0
 18 38  1  0
 19 39  1  0
 20 40  1  0
 21 41  1  0
 22 42  1  0
 24 43  1  0
 25 44  1  0
 25 45  1  0
 25 46  1  0
 26 47  1  0
 26 48  1  0
 26 49  1  0
M  END
>  <smiles>  (26) 
CCn1ccc(N=c2nc3c(c[nH]2)[nH]c(=Nc2ccccc2)n3C(C)C)n1

>  <score_type>  (26) 
oracle

>  <origin>  (26) 
adg

>  <m_score__min__energy>  (26) 
-8.3699999999999992

>  <m_primary>  (26) 
energy

$$$$
26:0
     RDKit          3D

 58 60  0  0  0  0  0  0  0  0999 V2000
   -3.5200   24.9240  -31.2400 H   0  0  0  0  0  0  0  0  0  0  0  0
   -3.5970   25.2540  -30.2860 O   0  0  0  0  0  0  0  0  0  0  0  0
   -2.6370   24.9150  -29.3390 C   0  0  0  0  0  0  0  0  0  0  0  0
   -1.4970   25.6210  -29.1660 N   0  0  0  0  0  0  0  0  0  0  0  0
   -0.8570   24.9740  -28.1750 C   0  0  0  0  0  0  0  0  0  0  0  0
    0.3810   25.3160  -27.6330 C   0  0  0  0  0  0  0  0  0  0  0  0
    0.9423   26.1841  -28.0090 H   0  0  0  0  0  0  0  0  0  0  0  0
    0.8920   24.5210  -26.5930 C   0  0  0  0  0  0  0  0  0  0  0  0
    1.8691   24.7627  -26.1493 H   0  0  0  0  0  0  0  0  0  0  0  0
    0.1590   23.4150  -26.1150 C   0  0  0  0  0  0  0  0  0  0  0  0
    0.5660   22.8032  -25.2965 H   0  0  0  0  0  0  0  0  0  0  0  0
   -1.0890   23.0880  -26.6770 C   0  0  0  0  0  0  0  0  0  0  0  0
   -1.8050   22.0520  -26.1820 F   0  0  0  0  0  0  0  0  0  0  0  0
   -1.5680   23.8870  -27.7210 C   0  0  0  0  0  0  0  0  0  0  0  0
   -2.7290   23.8330  -28.4710 C   0  0  0  0  0  0  0  0  0  0  0  0
   -3.7970   22.7730  -28.4620 C   0  0  0  0  0  0  0  0  0  0  0  0
   -4.6281   23.1007  -27.8201 H   0  0  0  0  0  0  0  0  0  0  0  0
   -3.3685   21.8367  -28.0751 H   0  0  0  0  0  0  0  0  0  0  0  0
   -4.3100   22.5370  -29.8560 C   0  0  0  0  0  0  0  0  0  0  0  0
   -3.8960   21.5540  -30.7520 C   0  0  0  0  0  0  0  0  0  0  0  0
   -2.7640   20.5830  -30.5920 C   0  0  0  0  0  0  0  0  0  0  0  0
   -2.5713   20.4177  -29.5217 H   0  0  0  0  0  0  0  0  0  0  0  0
   -3.0300   19.6279  -31.0685 H   0  0  0  0  0  0  0  0  0  0  0  0
   -1.8605   20.9913  -31.0685 H   0  0  0  0  0  0  0  0  0  0  0  0
   -4.7530   21.6330  -31.8440 C   0  0  0  0  0  0  0  0  0  0  0  0
   -4.7540   20.7330  -33.0210 C   0  0  0  0  0  0  0  0  0  0  0  0
   -3.6580   20.4340  -33.5630 O   0  0  0  0  0  0  0  0  0  0  0  0
   -5.9630   20.2420  -33.6160 N   0  0  0  0  0  0  0  0  0  0  0  0
   -6.1380   19.1600  -34.3230 C   0  0  0  0  0  0  0  0  0  0  0  0
   -5.7839   19.1726  -35.3644 H   0  0  0  0  0  0  0  0  0  0  0  0
   -6.7910   17.8860  -33.8230 C   0  0  0  0  0  0  0  0  0  0  0  0
   -6.0009   17.1813  -33.5244 H   0  0  0  0  0  0  0  0  0  0  0  0
   -7.4076   17.4894  -34.6430 H   0  0  0  0  0  0  0  0  0  0  0  0
   -7.6860   18.1090  -32.6650 N   0  0  0  0  0  0  0  0  0  0  0  0
   -6.9760   18.0380  -31.3690 C   0  0  0  0  0  0  0  0  0  0  0  0
   -6.5827   19.0344  -31.1190 H   0  0  0  0  0  0  0  0  0  0  0  0
   -7.6846   17.6997  -30.5986 H   0  0  0  0  0  0  0  0  0  0  0  0
   -5.8180   17.0460  -31.4350 C   0  0  0  0  0  0  0  0  0  0  0  0
   -5.5057   16.7785  -30.4147 H   0  0  0  0  0  0  0  0  0  0  0  0
   -6.1411   16.1402  -31.9689 H   0  0  0  0  0  0  0  0  0  0  0  0
   -4.9725   17.5044  -31.9689 H   0  0  0  0  0  0  0  0  0  0  0  0
   -8.5260   19.3210  -32.8160 C   0  0  0  0  0  0  0  0  0  0  0  0
   -9.5611   19.0205  -33.0358 H   0  0  0  0  0  0  0  0  0  0  0  0
   -8.1290   19.9321  -33.6400 H   0  0  0  0  0  0  0  0  0  0  0  0
   -8.5020   20.1460  -31.5260 C   0  0  0  0  0  0  0  0  0  0  0  0
   -7.4647   20.4474  -31.3181 H   0  0  0  0  0  0  0  0  0  0  0  0
   -8.9079   19.5193  -30.7182 H   0  0  0  0  0  0  0  0  0  0  0  0
   -9.3680   21.4010  -31.6240 C   0  0  0  0  0  0  0  0  0  0  0  0
   -9.6136   21.7569  -30.6126 H   0  0  0  0  0  0  0  0  0  0  0  0
   -8.8177   22.1849  -32.1650 H   0  0  0  0  0  0  0  0  0  0  0  0
  -10.2962   21.1647  -32.1650 H   0  0  0  0  0  0  0  0  0  0  0  0
   -5.6160   22.6900  -31.5840 C   0  0  0  0  0  0  0  0  0  0  0  0
   -6.7120   23.1980  -32.4710 C   0  0  0  0  0  0  0  0  0  0  0  0
   -7.5370   23.5804  -31.8521 H   0  0  0  0  0  0  0  0  0  0  0  0
   -6.3240   24.0081  -33.1060 H   0  0  0  0  0  0  0  0  0  0  0  0
   -7.0794   22.3784  -33.1060 H   0  0  0  0  0  0  0  0  0  0  0  0
   -5.3530   23.2150  -30.3750 N   0  0  0  0  0  0  0  0  0  0  0  0
   -5.8690   24.0030  -29.9250 H   0  0  0  0  0  0  0  0  0  0  0  0
  1  2  1  0
  2  3  1  0
  3  4  1  0
  4  5  1  0
  5  6  2  0
  6  7  1  0
  6  8  1  0
  8  9  1  0
  8 10  2  0
 10 11  1  0
 10 12  1  0
 12 13  1  0
 12 14  2  0
 14 15  1  0
 15 16  1  0
 16 17  1  0
 16 18  1  0
 16 19  1  0
 19 20  2  0
 20 21  1  0
 21 22  1  0
 21 23  1  0
 21 24  1  0
 20 25  1  0
 25 26  1  0
 26 27  2  0
 26 28  1  0
 28 29  2  0
 29 30  1  0
 29 31  1  0
 31 32  1  0
 31 33  1  0
 31 34  1  0
 34 35  1  0
 35 36  1  0
 35 37  1  0
 35 38  1  0
 38 39  1  0
 38 40  1  0
 38 41  1  0
 34 42  1  0
 42 43  1  0
 42 44  1  0
 42 45  1  0
 45 46  1  0
 45 47  1  0
 45 48  1  0
 48 49  1  0
 48 50  1  0
 48 51  1  0
 25 52  2  0
 52 53  1  0
 53 54  1  0
 53 55  1  0
 53 56  1  0
 52 57  1  0
 57 58  1  0
 15  3  2  0
 57 19  1  0
 14  5  1  0
M  CHG  1   4  -1
M  END
>  <UniqueID>  (27) 
25

>  <SMILES>  (27) 
CCCN(CC)C/C=N\C(=O)c1c(C)[nH]c(Cc2c(O)[n-]c3cccc(F)c23)c1C

>  <Energy>  (27) 
120.27908198625421

>  <Genealogy>  (27) 
CCCN(CC)CC=NC(=O)c1c(C)[nH]c(Cc2c(O)[n-]c3cccc(F)c23)c1C (protonated)
CCCN(CC)C/C=N\C(=O)c1c(C)[nH]c(Cc2c(O)[n-]c3cccc(F)c23)c1C (cis-trans isomerization)
CCCN(CC)C/C=N\C(=O)c1c(C)[nH]c(Cc2c(O)[n-]c3cccc(F)c23)c1C (3D coordinates assigned)
CCCN(CC)C/C=N\C(=O)c1c(C)[nH]c(Cc2c(O)[n-]c3cccc(F)c23)c1C (optimized conformer: 120.27908198625421 kcal/mol)

>  <smiles>  (27) 
CCCN(CC)CC=NC(=O)c1c(C)[nH]c(Cc2c(O)[nH]c3cccc(F)c23)c1C

>  <score_type>  (27) 
oracle

>  <origin>  (27) 
adg

>  <m_score__min__energy>  (27) 
-10.56

>  <m_primary>  (27) 
energy

$$$$
27:0
     RDKit          3D

 78 80  0  0  0  0  0  0  0  0999 V2000
    0.4921   22.7893  -25.5492 H   0  0  0  0  0  0  0  0  0  0  0  0
   -0.0920   23.2860  -26.3380 C   0  0  0  0  0  0  0  0  0  0  0  0
    0.3430   24.5080  -26.8650 C   0  0  0  0  0  0  0  0  0  0  0  0
    1.2669   24.9699  -26.4868 H   0  0  0  0  0  0  0  0  0  0  0  0
   -0.3930   25.1440  -27.8710 C   0  0  0  0  0  0  0  0  0  0  0  0
   -0.0486   26.1038  -28.2834 H   0  0  0  0  0  0  0  0  0  0  0  0
   -1.5690   24.5550  -28.3510 C   0  0  0  0  0  0  0  0  0  0  0  0
   -2.2960   25.1550  -29.3290 N   0  0  0  0  0  0  0  0  0  0  0  0
   -3.4450   24.6040  -29.8090 C   0  0  0  0  0  0  0  0  0  0  0  0
   -4.0910   25.2360  -30.7490 N   0  0  0  0  0  0  0  0  0  0  0  0
   -5.5020   25.6300  -30.7520 C   0  0  0  0  0  0  0  0  0  0  0  0
   -5.7252   26.1657  -31.6864 H   0  0  0  0  0  0  0  0  0  0  0  0
   -5.6891   26.2803  -29.8847 H   0  0  0  0  0  0  0  0  0  0  0  0
   -6.4100   24.3980  -30.6490 C   0  0  0  0  0  0  0  0  0  0  0  0
   -7.3280   24.6732  -30.1090 H   0  0  0  0  0  0  0  0  0  0  0  0
   -5.8651   23.6082  -30.1112 H   0  0  0  0  0  0  0  0  0  0  0  0
   -6.7860   23.8690  -32.0350 C   0  0  0  0  0  0  0  0  0  0  0  0
   -6.4892   24.6025  -32.7991 H   0  0  0  0  0  0  0  0  0  0  0  0
   -7.8731   23.7073  -32.0804 H   0  0  0  0  0  0  0  0  0  0  0  0
   -6.0900   22.5890  -32.2860 N   0  0  0  0  0  0  0  0  0  0  0  0
   -6.6350   21.4280  -31.5540 C   0  0  0  0  0  0  0  0  0  0  0  0
   -6.0692   21.3109  -30.6180 H   0  0  0  0  0  0  0  0  0  0  0  0
   -7.7015   21.6314  -31.3774 H   0  0  0  0  0  0  0  0  0  0  0  0
   -6.5530   20.0990  -32.3440 C   0  0  0  0  0  0  0  0  0  0  0  0
   -7.3290   19.4219  -31.9575 H   0  0  0  0  0  0  0  0  0  0  0  0
   -6.6940   20.3577  -33.4038 H   0  0  0  0  0  0  0  0  0  0  0  0
   -5.2470   19.4050  -32.2520 N   0  0  0  0  0  0  0  0  0  0  0  0
   -4.9950   18.4220  -33.3290 C   0  0  0  0  0  0  0  0  0  0  0  0
   -5.0056   18.9521  -34.2928 H   0  0  0  0  0  0  0  0  0  0  0  0
   -5.7855   17.6601  -33.2611 H   0  0  0  0  0  0  0  0  0  0  0  0
   -3.6450   17.6860  -33.1920 C   0  0  0  0  0  0  0  0  0  0  0  0
   -3.8002   16.6258  -33.4410 H   0  0  0  0  0  0  0  0  0  0  0  0
   -3.3047   17.8273  -32.1556 H   0  0  0  0  0  0  0  0  0  0  0  0
   -2.5370   18.2470  -34.1130 C   0  0  0  0  0  0  0  0  0  0  0  0
   -2.9955   18.9929  -34.7789 H   0  0  0  0  0  0  0  0  0  0  0  0
   -2.1161   17.3791  -34.6418 H   0  0  0  0  0  0  0  0  0  0  0  0
   -1.3900   18.8970  -33.4160 N   0  0  2  0  0  0  0  0  0  0  0  0
   -1.7550   19.5280  -32.6650 H   0  0  0  0  0  0  0  0  0  0  0  0
   -0.5850   19.7080  -34.3710 C   0  0  0  0  0  0  0  0  0  0  0  0
   -0.8306   19.3895  -35.3948 H   0  0  0  0  0  0  0  0  0  0  0  0
    0.4755   19.5407  -34.1317 H   0  0  0  0  0  0  0  0  0  0  0  0
   -0.8500   21.2150  -34.2510 C   0  0  0  0  0  0  0  0  0  0  0  0
   -0.8993   21.4952  -33.1884 H   0  0  0  0  0  0  0  0  0  0  0  0
   -0.0358   21.7705  -34.7393 H   0  0  0  0  0  0  0  0  0  0  0  0
   -1.8049   21.4594  -34.7393 H   0  0  0  0  0  0  0  0  0  0  0  0
   -0.5360   17.8570  -32.7780 C   0  0  0  0  0  0  0  0  0  0  0  0
   -1.1225   16.9313  -32.6827 H   0  0  0  0  0  0  0  0  0  0  0  0
    0.3479   17.7176  -33.4178 H   0  0  0  0  0  0  0  0  0  0  0  0
   -0.0330   18.2690  -31.3750 C   0  0  0  0  0  0  0  0  0  0  0  0
   -0.7519   17.9008  -30.6283 H   0  0  0  0  0  0  0  0  0  0  0  0
    0.9676   17.8282  -31.2543 H   0  0  0  0  0  0  0  0  0  0  0  0
    0.1260   19.7970  -31.1850 C   0  0  0  0  0  0  0  0  0  0  0  0
    0.8605   19.9609  -30.3827 H   0  0  0  0  0  0  0  0  0  0  0  0
    0.4341   20.1854  -32.1670 H   0  0  0  0  0  0  0  0  0  0  0  0
   -1.1050   20.5440  -30.8310 N   0  0  0  0  0  0  0  0  0  0  0  0
   -1.0400   21.9900  -31.0960 C   0  0  0  0  0  0  0  0  0  0  0  0
   -1.0154   22.5369  -30.1419 H   0  0  0  0  0  0  0  0  0  0  0  0
   -0.1308   22.2167  -31.6721 H   0  0  0  0  0  0  0  0  0  0  0  0
   -1.9252   22.2974  -31.6721 H   0  0  0  0  0  0  0  0  0  0  0  0
   -1.6180   20.2560  -29.4820 C   0  0  0  0  0  0  0  0  0  0  0  0
   -0.9169   20.6496  -28.7313 H   0  0  0  0  0  0  0  0  0  0  0  0
   -2.5999   20.7347  -29.3532 H   0  0  0  0  0  0  0  0  0  0  0  0
   -1.7206   19.1684  -29.3532 H   0  0  0  0  0  0  0  0  0  0  0  0
   -4.0630   20.2230  -31.9160 C   0  0  0  0  0  0  0  0  0  0  0  0
   -4.1629   20.5801  -30.8804 H   0  0  0  0  0  0  0  0  0  0  0  0
   -3.1721   19.5899  -32.0402 H   0  0  0  0  0  0  0  0  0  0  0  0
   -3.9070   21.4380  -32.8440 C   0  0  0  0  0  0  0  0  0  0  0  0
   -2.8359   21.6614  -32.9576 H   0  0  0  0  0  0  0  0  0  0  0  0
   -4.3689   21.1858  -33.8099 H   0  0  0  0  0  0  0  0  0  0  0  0
   -4.6170   22.6860  -32.2940 C   0  0  0  0  0  0  0  0  0  0  0  0
   -4.2763   22.8498  -31.2610 H   0  0  0  0  0  0  0  0  0  0  0  0
   -4.3583   23.5186  -32.9647 H   0  0  0  0  0  0  0  0  0  0  0  0
   -3.8880   23.3790  -29.2620 C   0  0  0  0  0  0  0  0  0  0  0  0
   -4.8182   22.9166  -29.6238 H   0  0  0  0  0  0  0  0  0  0  0  0
   -3.1590   22.7740  -28.2860 N   0  0  0  0  0  0  0  0  0  0  0  0
   -2.0100   23.3270  -27.8180 C   0  0  0  0  0  0  0  0  0  0  0  0
   -1.2690   22.6950  -26.8130 C   0  0  0  0  0  0  0  0  0  0  0  0
   -1.6107   21.7357  -26.3970 H   0  0  0  0  0  0  0  0  0  0  0  0
  1  2  1  0
  2  3  2  0
  3  4  1  0
  3  5  1  0
  5  6  1  0
  5  7  2  0
  7  8  1  0
  8  9  1  0
  9 10  2  0
 10 11  1  0
 11 12  1  0
 11 13  1  0
 11 14  1  0
 14 15  1  0
 14 16  1  0
 14 17  1  0
 17 18  1  0
 17 19  1  0
 17 20  1  0
 20 21  1  0
 21 22  1  0
 21 23  1  0
 21 24  1  0
 24 25  1  0
 24 26  1  0
 24 27  1  0
 27 28  1  0
 28 29  1  0
 28 30  1  0
 28 31  1  0
 31 32  1  0
 31 33  1  0
 31 34  1  0
 34 35  1  0
 34 36  1  0
 34 37  1  0
 37 38  1  1
 37 39  1  0
 39 40  1  0
 39 41  1  0
 39 42  1  0
 42 43  1  0
 42 44  1  0
 42 45  1  0
 37 46  1  0
 46 47  1  0
 46 48  1  0
 46 49  1  0
 49 50  1  0
 49 51  1  0
 49 52  1  0
 52 53  1  0
 52 54  1  0
 52 55  1  0
 55 56  1  0
 56 57  1  0
 56 58  1  0
 56 59  1  0
 55 60  1  0
 60 61  1  0
 60 62  1  0
 60 63  1  0
 27 64  1  0
 64 65  1  0
 64 66  1  0
 64 67  1  0
 67 68  1  0
 67 69  1  0
 67 70  1  0
 70 71  1  0
 70 72  1  0
  9 73  1  0
 73 74  1  0
 73 75  2  0
 75 76  1  0
 76 77  2  0
 77 78  1  0
 77  2  1  0
 76  7  1  0
 70 20  1  0
M  CHG  2   8  -1  37   1
M  END
>  <UniqueID>  (28) 
26

>  <SMILES>  (28) 
CC[N@H+](CCCN(C)C)CCCN1CCCN(CCC/N=c2\cnc3ccccc3[n-]2)CC1

>  <Energy>  (28) 
108.45559988321635

>  <Genealogy>  (28) 
CC[NH+](CCCN(C)C)CCCN1CCCN(CCCN=c2cnc3ccccc3[n-]2)CC1 (protonated)
CC[N@H+](CCCN(C)C)CCCN1CCCN(CCCN=c2cnc3ccccc3[n-]2)CC1 (chirality)
CC[N@H+](CCCN(C)C)CCCN1CCCN(CCC/N=c2\cnc3ccccc3[n-]2)CC1 (cis-trans isomerization)
CC[N@H+](CCCN(C)C)CCCN1CCCN(CCC/N=c2\cnc3ccccc3[n-]2)CC1 (3D coordinates assigned)
CC[N@H+](CCCN(C)C)CCCN1CCCN(CCC/N=c2\cnc3ccccc3[n-]2)CC1 (nonaromatic ring conformer: 108.45559988321635 kcal/mol)

>  <smiles>  (28) 
CCN(CCCN(C)C)CCCN1CCCN(CCCN=c2cnc3ccccc3[nH]2)CC1

>  <score_type>  (28) 
oracle

>  <origin>  (28) 
adg

>  <m_score__min__energy>  (28) 
-7.6600000000000001

>  <m_primary>  (28) 
energy

$$$$
28:0
     RDKit          3D

 31 33  0  0  0  0  0  0  0  0999 V2000
   -2.3080   24.9380  -28.5770 C   0  0  0  0  0  0  0  0  0  0  0  0
   -3.1150   25.1950  -29.7220 O   0  0  0  0  0  0  0  0  0  0  0  0
   -4.1660   24.3730  -30.1580 C   0  0  0  0  0  0  0  0  0  0  0  0
   -5.4460   24.8850  -30.4300 C   0  0  0  0  0  0  0  0  0  0  0  0
   -6.4380   24.0610  -30.8500 N   0  0  0  0  0  0  0  0  0  0  0  0
   -6.2250   22.7300  -31.0180 C   0  0  0  0  0  0  0  0  0  0  0  0
   -7.3220   21.8440  -31.4790 C   0  0  0  0  0  0  0  0  0  0  0  0
   -8.6490   22.3120  -31.5200 C   0  0  0  0  0  0  0  0  0  0  0  0
   -9.6670   21.4650  -31.9550 C   0  0  0  0  0  0  0  0  0  0  0  0
   -9.3660   20.1610  -32.3480 C   0  0  0  0  0  0  0  0  0  0  0  0
   -8.0420   19.7230  -32.2970 C   0  0  0  0  0  0  0  0  0  0  0  0
   -7.0570   20.5590  -31.8700 N   0  0  0  0  0  0  0  0  0  0  0  0
   -4.9940   22.2150  -30.7620 N   0  0  0  0  0  0  0  0  0  0  0  0
   -3.9580   22.9890  -30.3380 C   0  0  0  0  0  0  0  0  0  0  0  0
   -2.6810   22.3710  -30.0850 N   0  0  0  0  0  0  0  0  0  0  0  0
   -2.3960   21.5560  -29.0510 C   0  0  0  0  0  0  0  0  0  0  0  0
   -1.0780   21.1670  -29.1490 C   0  0  0  0  0  0  0  0  0  0  0  0
   -0.6110   21.7930  -30.2870 C   0  0  0  0  0  0  0  0  0  0  0  0
   -1.6010   22.5200  -30.8390 N   0  0  0  0  0  0  0  0  0  0  0  0
   -2.8947   25.1248  -27.6655 H   0  0  0  0  0  0  0  0  0  0  0  0
   -1.9755   23.8895  -28.5906 H   0  0  0  0  0  0  0  0  0  0  0  0
   -1.4305   25.6011  -28.5906 H   0  0  0  0  0  0  0  0  0  0  0  0
   -5.6444   25.9593  -30.3017 H   0  0  0  0  0  0  0  0  0  0  0  0
   -8.8815   23.3415  -31.2101 H   0  0  0  0  0  0  0  0  0  0  0  0
  -10.7061   21.8244  -31.9883 H   0  0  0  0  0  0  0  0  0  0  0  0
  -10.1627   19.4860  -32.6940 H   0  0  0  0  0  0  0  0  0  0  0  0
   -7.7933   18.6963  -32.6037 H   0  0  0  0  0  0  0  0  0  0  0  0
   -6.0810   20.1900  -31.8490 H   0  0  0  0  0  0  0  0  0  0  0  0
   -3.0981   21.2520  -28.2607 H   0  0  0  0  0  0  0  0  0  0  0  0
   -0.5211   20.5042  -28.4704 H   0  0  0  0  0  0  0  0  0  0  0  0
    0.4123   21.7107  -30.6822 H   0  0  0  0  0  0  0  0  0  0  0  0
  1  2  1  0
  2  3  1  0
  3  4  2  0
  4  5  1  0
  5  6  2  0
  6  7  1  0
  7  8  2  0
  8  9  1  0
  9 10  2  0
 10 11  1  0
 11 12  2  0
  6 13  1  0
 13 14  2  0
 14 15  1  0
 15 16  1  0
 16 17  2  0
 17 18  1  0
 18 19  2  0
 14  3  1  0
 19 15  1  0
 12  7  1  0
  1 20  1  0
  1 21  1  0
  1 22  1  0
  4 23  1  0
  8 24  1  0
  9 25  1  0
 10 26  1  0
 11 27  1  0
 12 28  1  0
 16 29  1  0
 17 30  1  0
 18 31  1  0
M  CHG  1  12   1
M  END
>  <UniqueID>  (29) 
27

>  <SMILES>  (29) 
COc1cnc(-c2cccc[nH+]2)nc1-n1cccn1

>  <Energy>  (29) 
66.5435838982979

>  <Genealogy>  (29) 
COc1cnc(-c2cccc[nH+]2)nc1-n1cccn1 (protonated)
COc1cnc(-c2cccc[nH+]2)nc1-n1cccn1 (3D coordinates assigned)
COc1cnc(-c2cccc[nH+]2)nc1-n1cccn1 (optimized conformer: 66.5435838982979 kcal/mol)

>  <smiles>  (29) 
COc1cnc(-c2ccccn2)nc1-n1cccn1

>  <score_type>  (29) 
oracle

>  <origin>  (29) 
adg

>  <m_score__min__energy>  (29) 
-5.5700000000000003

>  <m_primary>  (29) 
energy

$$$$
29:0
     RDKit          3D

 37 40  0  0  1  0  0  0  0  0999 V2000
   -0.8660   20.1920  -33.8160 C   0  0  0  0  0  0  0  0  0  0  0  0
   -1.6930   19.1340  -34.1330 C   0  0  0  0  0  0  0  0  0  0  0  0
   -3.0380   19.1160  -33.8510 C   0  0  0  0  0  0  0  0  0  0  0  0
   -3.6350   20.1900  -33.2220 C   0  0  0  0  0  0  0  0  0  0  0  0
   -5.0410   20.2580  -32.8880 C   0  0  0  0  0  0  0  0  0  0  0  0
   -5.7340   21.4320  -32.6930 C   0  0  0  0  0  0  0  0  0  0  0  0
   -7.0960   21.4470  -32.3710 C   0  0  0  0  0  0  0  0  0  0  0  0
   -7.6560   22.5360  -32.2190 N   0  0  0  0  0  0  0  0  0  0  0  0
   -7.6150   23.4450  -31.1500 C   0  0  0  0  0  0  0  0  0  0  0  0
   -6.2340   23.8010  -30.7050 C   0  0  0  0  0  0  0  0  0  0  0  0
   -5.5680   23.0690  -29.7120 C   0  0  0  0  0  0  0  0  0  0  0  0
   -4.2960   23.3920  -29.2890 C   0  0  0  0  0  0  0  0  0  0  0  0
   -3.6340   24.4650  -29.8440 C   0  0  0  0  0  0  0  0  0  0  0  0
   -4.2610   25.1690  -30.7930 N   0  0  0  0  0  0  0  0  0  0  0  0
   -5.5160   24.8600  -31.2180 C   0  0  0  0  0  0  0  0  0  0  0  0
   -7.7700   20.2990  -32.2420 N   0  0  0  0  0  0  0  0  0  0  0  0
   -9.0060   20.0650  -31.9510 N   0  0  0  0  0  0  0  0  0  0  0  0
   -9.1180   18.6960  -31.9590 C   0  0  0  0  0  0  0  0  0  0  0  0
   -7.9290   18.1500  -32.2590 N   0  0  0  0  0  0  0  0  0  0  0  0
   -7.0730   19.1670  -32.4390 C   0  0  0  0  0  0  0  0  0  0  0  0
   -5.7690   19.1180  -32.7480 N   0  0  0  0  0  0  0  0  0  0  0  0
   -2.8140   21.2530  -32.9040 C   0  0  0  0  0  0  0  0  0  0  0  0
   -1.4630   21.2770  -33.1830 C   0  0  0  0  0  0  0  0  0  0  0  0
    0.2084   20.1781  -34.0514 H   0  0  0  0  0  0  0  0  0  0  0  0
   -1.2535   18.2606  -34.6370 H   0  0  0  0  0  0  0  0  0  0  0  0
   -3.6427   18.2400  -34.1283 H   0  0  0  0  0  0  0  0  0  0  0  0
   -5.2001   22.3885  -32.7935 H   0  0  0  0  0  0  0  0  0  0  0  0
   -8.1263   24.3678  -31.4614 H   0  0  0  0  0  0  0  0  0  0  0  0
   -8.1066   22.9542  -30.2971 H   0  0  0  0  0  0  0  0  0  0  0  0
   -6.0774   22.2079  -29.2549 H   0  0  0  0  0  0  0  0  0  0  0  0
   -3.8088   22.7915  -28.5066 H   0  0  0  0  0  0  0  0  0  0  0  0
   -2.6193   24.7351  -29.5163 H   0  0  0  0  0  0  0  0  0  0  0  0
   -5.9758   25.4797  -32.0019 H   0  0  0  0  0  0  0  0  0  0  0  0
   -9.8510   20.6030  -31.7230 H   0  0  0  0  0  0  0  0  0  0  0  0
  -10.0403   18.1336  -31.7515 H   0  0  0  0  0  0  0  0  0  0  0  0
   -3.2593   22.1251  -32.4028 H   0  0  0  0  0  0  0  0  0  0  0  0
   -0.8588   22.1532  -32.9051 H   0  0  0  0  0  0  0  0  0  0  0  0
  1  2  2  0
  2  3  1  0
  3  4  2  0
  4  5  1  0
  5  6  2  0
  6  7  1  0
  7  8  2  0
  8  9  1  0
  9 10  1  0
 10 11  2  0
 11 12  1  0
 12 13  2  0
 13 14  1  0
 14 15  2  0
  7 16  1  0
 16 17  1  0
 17 18  1  0
 18 19  2  0
 19 20  1  0
 20 21  2  0
  4 22  1  0
 22 23  2  0
 23  1  1  0
 21  5  1  0
 15 10  1  0
 20 16  1  0
  1 24  1  0
  2 25  1  0
  3 26  1  0
  6 27  1  0
  9 28  1  0
  9 29  1  0
 11 30  1  0
 12 31  1  0
 13 32  1  0
 15 33  1  0
 17 34  1  0
 18 35  1  0
 22 36  1  0
 23 37  1  0
M  END
>  <smiles>  (30) 
c1ccc(-c2cc(=NCc3cccnc3)n3[nH]cnc3n2)cc1

>  <score_type>  (30) 
oracle

>  <origin>  (30) 
adg

>  <m_score__min__energy>  (30) 
-7.9699999999999998

>  <m_primary>  (30) 
energy

$$$$
30:0
     RDKit          3D

 40 43  0  0  0  0  0  0  0  0999 V2000
   -4.0150   24.8400  -30.4640 O   0  0  0  0  0  0  0  0  0  0  0  0
   -3.8080   23.6160  -30.2360 C   0  0  0  0  0  0  0  0  0  0  0  0
   -3.0460   23.2320  -29.1170 C   0  0  0  0  0  0  0  0  0  0  0  0
   -2.4970   24.1690  -28.2220 C   0  0  0  0  0  0  0  0  0  0  0  0
   -1.7430   23.7420  -27.1140 C   0  0  0  0  0  0  0  0  0  0  0  0
   -1.1620   24.7320  -26.1700 C   0  0  0  0  0  0  0  0  0  0  0  0
   -1.3180   26.1100  -26.3870 C   0  0  0  0  0  0  0  0  0  0  0  0
   -0.7670   27.0290  -25.4930 C   0  0  0  0  0  0  0  0  0  0  0  0
   -0.0610   26.5640  -24.3820 C   0  0  0  0  0  0  0  0  0  0  0  0
    0.6380   27.7090  -23.2500 Cl  0  0  0  0  0  0  0  0  0  0  0  0
    0.0860   25.2270  -24.1780 N   0  0  0  0  0  0  0  0  0  0  0  0
   -0.4430   24.3120  -25.0380 C   0  0  0  0  0  0  0  0  0  0  0  0
   -1.5450   22.3640  -26.9110 C   0  0  0  0  0  0  0  0  0  0  0  0
   -2.0880   21.4300  -27.7970 C   0  0  0  0  0  0  0  0  0  0  0  0
   -2.8360   21.8590  -28.8970 C   0  0  0  0  0  0  0  0  0  0  0  0
   -3.3600   20.9500  -29.7550 N   0  0  0  0  0  0  0  0  0  0  0  0
   -4.0900   21.3360  -30.8310 C   0  0  0  0  0  0  0  0  0  0  0  0
   -4.3240   22.6620  -31.0770 N   0  0  0  0  0  0  0  0  0  0  0  0
   -5.0970   23.0420  -32.2710 C   0  0  0  0  0  0  0  0  0  0  0  0
   -6.4400   22.3550  -32.2700 C   0  0  0  0  0  0  0  0  0  0  0  0
   -7.5620   23.0230  -31.7510 C   0  0  0  0  0  0  0  0  0  0  0  0
   -8.8090   22.3910  -31.7180 C   0  0  0  0  0  0  0  0  0  0  0  0
   -8.9460   21.0870  -32.2010 C   0  0  0  0  0  0  0  0  0  0  0  0
  -10.1570   20.4780  -32.1680 F   0  0  0  0  0  0  0  0  0  0  0  0
   -7.8380   20.4140  -32.7190 C   0  0  0  0  0  0  0  0  0  0  0  0
   -6.5860   21.0400  -32.7540 C   0  0  0  0  0  0  0  0  0  0  0  0
   -5.5270   20.3630  -33.2650 F   0  0  0  0  0  0  0  0  0  0  0  0
   -2.6588   25.2439  -28.3903 H   0  0  0  0  0  0  0  0  0  0  0  0
   -1.8766   26.4668  -27.2649 H   0  0  0  0  0  0  0  0  0  0  0  0
   -0.8878   28.1092  -25.6620 H   0  0  0  0  0  0  0  0  0  0  0  0
    0.6130   24.8890  -23.3430 H   0  0  0  0  0  0  0  0  0  0  0  0
   -0.3064   23.2377  -24.8449 H   0  0  0  0  0  0  0  0  0  0  0  0
   -0.9576   22.0189  -26.0473 H   0  0  0  0  0  0  0  0  0  0  0  0
   -1.9265   20.3550  -27.6285 H   0  0  0  0  0  0  0  0  0  0  0  0
   -4.4982   20.5756  -31.5130 H   0  0  0  0  0  0  0  0  0  0  0  0
   -5.2475   24.1316  -32.2734 H   0  0  0  0  0  0  0  0  0  0  0  0
   -4.5403   22.7348  -33.1686 H   0  0  0  0  0  0  0  0  0  0  0  0
   -7.4588   24.0491  -31.3684 H   0  0  0  0  0  0  0  0  0  0  0  0
   -9.6830   22.9210  -31.3114 H   0  0  0  0  0  0  0  0  0  0  0  0
   -7.9489   19.3884  -33.1010 H   0  0  0  0  0  0  0  0  0  0  0  0
  1  2  2  0
  2  3  1  0
  3  4  2  0
  4  5  1  0
  5  6  1  0
  6  7  2  0
  7  8  1  0
  8  9  2  0
  9 10  1  0
  9 11  1  0
 11 12  2  0
  5 13  2  0
 13 14  1  0
 14 15  2  0
 15 16  1  0
 16 17  2  0
 17 18  1  0
 18 19  1  0
 19 20  1  0
 20 21  2  0
 21 22  1  0
 22 23  2  0
 23 24  1  0
 23 25  1  0
 25 26  2  0
 26 27  1  0
 18  2  1  0
 26 20  1  0
 15  3  1  0
 12  6  1  0
  4 28  1  0
  7 29  1  0
  8 30  1  0
 11 31  1  0
 12 32  1  0
 13 33  1  0
 14 34  1  0
 17 35  1  0
 19 36  1  0
 19 37  1  0
 21 38  1  0
 22 39  1  0
 25 40  1  0
M  CHG  1  11   1
M  END
>  <UniqueID>  (31) 
28

>  <SMILES>  (31) 
O=c1c2cc(-c3ccc(Cl)[nH+]c3)ccc2ncn1Cc1ccc(F)cc1F

>  <Energy>  (31) 
56.62925159529668

>  <Genealogy>  (31) 
O=c1c2cc(-c3ccc(Cl)[nH+]c3)ccc2ncn1Cc1ccc(F)cc1F (protonated)
O=c1c2cc(-c3ccc(Cl)[nH+]c3)ccc2ncn1Cc1ccc(F)cc1F (3D coordinates assigned)
O=c1c2cc(-c3ccc(Cl)[nH+]c3)ccc2ncn1Cc1ccc(F)cc1F (optimized conformer: 56.62925159529668 kcal/mol)

>  <smiles>  (31) 
O=c1c2cc(-c3ccc(Cl)nc3)ccc2ncn1Cc1ccc(F)cc1F

>  <score_type>  (31) 
oracle

>  <origin>  (31) 
adg

>  <m_score__min__energy>  (31) 
-9.2799999999999994

>  <m_primary>  (31) 
energy

$$$$
31:0
     RDKit          3D

 50 54  0  0  0  0  0  0  0  0999 V2000
   -5.2860   25.3950  -30.4090 C   0  0  0  0  0  0  0  0  0  0  0  0
   -3.8690   25.3210  -30.2920 O   0  0  0  0  0  0  0  0  0  0  0  0
   -3.1520   24.1310  -30.0970 C   0  0  0  0  0  0  0  0  0  0  0  0
   -1.9530   24.0840  -29.3610 C   0  0  0  0  0  0  0  0  0  0  0  0
   -1.2750   22.8730  -29.1950 C   0  0  0  0  0  0  0  0  0  0  0  0
   -1.7750   21.6920  -29.7690 C   0  0  0  0  0  0  0  0  0  0  0  0
   -1.0510   20.4110  -29.5830 C   0  0  0  0  0  0  0  0  0  0  0  0
   -1.0440   19.8040  -28.3600 N   0  0  0  0  0  0  0  0  0  0  0  0
   -0.4020   18.6220  -28.1600 C   0  0  0  0  0  0  0  0  0  0  0  0
    0.2700   18.0150  -29.2190 C   0  0  0  0  0  0  0  0  0  0  0  0
    0.2800   18.6170  -30.4350 N   0  0  0  0  0  0  0  0  0  0  0  0
   -0.3560   19.8020  -30.6480 C   0  0  0  0  0  0  0  0  0  0  0  0
   -0.3060   20.4180  -31.9030 O   0  0  0  0  0  0  0  0  0  0  0  0
   -1.0510   19.9510  -33.0250 C   0  0  0  0  0  0  0  0  0  0  0  0
   -2.1300   18.9900  -32.6400 C   0  0  0  0  0  0  0  0  0  0  0  0
   -3.2540   19.8910  -32.9500 N   0  0  0  0  0  0  0  0  0  0  0  0
   -4.6800   19.8640  -32.8950 C   0  0  0  0  0  0  0  0  0  0  0  0
   -5.3870   18.7740  -33.4180 C   0  0  0  0  0  0  0  0  0  0  0  0
   -6.7820   18.7640  -33.3530 C   0  0  0  0  0  0  0  0  0  0  0  0
   -7.4600   19.8410  -32.7700 C   0  0  0  0  0  0  0  0  0  0  0  0
   -8.8600   19.8640  -32.6860 C   0  0  0  0  0  0  0  0  0  0  0  0
   -9.5080   20.9560  -32.0970 C   0  0  0  0  0  0  0  0  0  0  0  0
   -8.7630   22.0250  -31.5890 C   0  0  0  0  0  0  0  0  0  0  0  0
   -7.3660   22.0100  -31.6670 C   0  0  0  0  0  0  0  0  0  0  0  0
   -6.7100   20.9230  -32.2550 C   0  0  0  0  0  0  0  0  0  0  0  0
   -5.3520   20.9040  -32.3320 N   0  0  0  0  0  0  0  0  0  0  0  0
   -2.2040   20.8480  -33.3380 C   0  0  0  0  0  0  0  0  0  0  0  0
   -2.9770   21.7420  -30.4950 C   0  0  0  0  0  0  0  0  0  0  0  0
   -3.6550   22.9520  -30.6590 C   0  0  0  0  0  0  0  0  0  0  0  0
   -5.7360   25.4185  -29.4055 H   0  0  0  0  0  0  0  0  0  0  0  0
   -5.5615   26.3088  -30.9559 H   0  0  0  0  0  0  0  0  0  0  0  0
   -5.6552   24.5149  -30.9559 H   0  0  0  0  0  0  0  0  0  0  0  0
   -1.5479   25.0041  -28.9146 H   0  0  0  0  0  0  0  0  0  0  0  0
   -0.3434   22.8444  -28.6108 H   0  0  0  0  0  0  0  0  0  0  0  0
   -1.5570   20.2330  -27.5560 H   0  0  0  0  0  0  0  0  0  0  0  0
   -0.4131   18.1477  -27.1676 H   0  0  0  0  0  0  0  0  0  0  0  0
    0.7880   17.0560  -29.0705 H   0  0  0  0  0  0  0  0  0  0  0  0
   -0.2371   19.7117  -33.7252 H   0  0  0  0  0  0  0  0  0  0  0  0
   -2.1305   18.0808  -33.2592 H   0  0  0  0  0  0  0  0  0  0  0  0
   -2.0889   18.5688  -31.6247 H   0  0  0  0  0  0  0  0  0  0  0  0
   -4.8476   17.9321  -33.8765 H   0  0  0  0  0  0  0  0  0  0  0  0
   -7.3467   17.9118  -33.7590 H   0  0  0  0  0  0  0  0  0  0  0  0
   -9.4487   19.0238  -33.0830 H   0  0  0  0  0  0  0  0  0  0  0  0
  -10.6060   20.9734  -32.0335 H   0  0  0  0  0  0  0  0  0  0  0  0
   -9.2770   22.8805  -31.1265 H   0  0  0  0  0  0  0  0  0  0  0  0
   -6.7836   22.8527  -31.2661 H   0  0  0  0  0  0  0  0  0  0  0  0
   -2.2518   21.1229  -34.4020 H   0  0  0  0  0  0  0  0  0  0  0  0
   -2.2191   21.8341  -32.8507 H   0  0  0  0  0  0  0  0  0  0  0  0
   -3.3868   20.8219  -30.9372 H   0  0  0  0  0  0  0  0  0  0  0  0
   -4.5920   22.9786  -31.2346 H   0  0  0  0  0  0  0  0  0  0  0  0
  1  2  1  0
  2  3  1  0
  3  4  2  0
  4  5  1  0
  5  6  2  0
  6  7  1  0
  7  8  2  0
  8  9  1  0
  9 10  2  0
 10 11  1  0
 11 12  2  0
 12 13  1  0
 13 14  1  0
 14 15  1  0
 15 16  1  0
 16 17  1  0
 17 18  2  0
 18 19  1  0
 19 20  2  0
 20 21  1  0
 21 22  2  0
 22 23  1  0
 23 24  2  0
 24 25  1  0
 25 26  2  0
 16 27  1  0
  6 28  1  0
 28 29  2  0
 29  3  1  0
 12  7  1  0
 27 14  1  0
 26 17  1  0
 25 20  1  0
  1 30  1  0
  1 31  1  0
  1 32  1  0
  4 33  1  0
  5 34  1  0
  8 35  1  0
  9 36  1  0
 10 37  1  0
 14 38  1  0
 15 39  1  0
 15 40  1  0
 18 41  1  0
 19 42  1  0
 21 43  1  0
 22 44  1  0
 23 45  1  0
 24 46  1  0
 27 47  1  0
 27 48  1  0
 28 49  1  0
 29 50  1  0
M  CHG  1   8   1
M  END
>  <UniqueID>  (32) 
29

>  <SMILES>  (32) 
COc1ccc(-c2[nH+]ccnc2OC2CN(c3ccc4ccccc4n3)C2)cc1

>  <Energy>  (32) 
107.1506754214109

>  <Genealogy>  (32) 
COc1ccc(-c2[nH+]ccnc2OC2CN(c3ccc4ccccc4n3)C2)cc1 (protonated)
COc1ccc(-c2[nH+]ccnc2OC2CN(c3ccc4ccccc4n3)C2)cc1 (3D coordinates assigned)
COc1ccc(-c2[nH+]ccnc2OC2CN(c3ccc4ccccc4n3)C2)cc1 (nonaromatic ring conformer: 107.1506754214109 kcal/mol)

>  <smiles>  (32) 
COc1ccc(-c2nccnc2OC2CN(c3ccc4ccccc4n3)C2)cc1

>  <score_type>  (32) 
oracle

>  <origin>  (32) 
adg

>  <m_score__min__energy>  (32) 
-8.4199999999999999

>  <m_primary>  (32) 
energy

$$$$
32:0
     RDKit          3D

 51 54  0  0  0  0  0  0  0  0999 V2000
   -5.9100   18.8570  -34.8130 C   0  0  0  0  0  0  0  0  0  0  0  0
   -6.2180   19.1840  -33.4220 N   0  0  0  0  0  0  0  0  0  0  0  0
   -7.1830   18.3800  -32.6740 C   0  0  0  0  0  0  0  0  0  0  0  0
   -5.4590   20.1910  -32.7360 C   0  0  0  0  0  0  0  0  0  0  0  0
   -4.0680   20.0550  -32.6600 C   0  0  0  0  0  0  0  0  0  0  0  0
   -3.2980   21.0250  -32.0250 C   0  0  0  0  0  0  0  0  0  0  0  0
   -3.9030   22.1420  -31.4510 C   0  0  0  0  0  0  0  0  0  0  0  0
   -5.3030   22.3080  -31.4960 C   0  0  0  0  0  0  0  0  0  0  0  0
   -5.9460   23.4320  -30.9070 C   0  0  0  0  0  0  0  0  0  0  0  0
   -5.0500   24.6980  -30.0440 S   0  0  0  0  0  0  0  0  0  0  0  0
   -5.9690   25.8600  -29.7960 O   0  0  0  0  0  0  0  0  0  0  0  0
   -3.8910   25.1530  -30.8900 O   0  0  0  0  0  0  0  0  0  0  0  0
   -4.4910   24.1060  -28.4990 N   0  0  0  0  0  0  0  0  0  0  0  0
   -3.2770   23.2900  -28.6090 C   0  0  2  0  0  0  0  0  0  0  0  0
   -3.2070   22.2520  -27.4690 C   0  0  0  0  0  0  0  0  0  0  0  0
   -2.3040   21.0990  -27.8230 C   0  0  0  0  0  0  0  0  0  0  0  0
   -1.6890   21.0460  -29.0860 C   0  0  0  0  0  0  0  0  0  0  0  0
   -0.8220   19.9970  -29.4040 C   0  0  0  0  0  0  0  0  0  0  0  0
   -0.5580   18.9970  -28.4620 C   0  0  0  0  0  0  0  0  0  0  0  0
   -1.1590   19.0470  -27.2020 C   0  0  0  0  0  0  0  0  0  0  0  0
   -2.0270   20.0950  -26.8800 C   0  0  0  0  0  0  0  0  0  0  0  0
   -2.0870   24.2040  -28.5500 C   0  0  0  0  0  0  0  0  0  0  0  0
   -0.8510   23.8320  -28.1690 N   0  0  0  0  0  0  0  0  0  0  0  0
   -0.1010   24.9120  -28.3450 N   0  0  0  0  0  0  0  0  0  0  0  0
   -0.8380   25.9030  -28.8250 N   0  0  0  0  0  0  0  0  0  0  0  0
   -2.0810   25.4810  -28.9650 N   0  0  0  0  0  0  0  0  0  0  0  0
   -7.3400   23.5550  -31.0070 C   0  0  0  0  0  0  0  0  0  0  0  0
   -8.1000   22.5800  -31.6460 C   0  0  0  0  0  0  0  0  0  0  0  0
   -7.4850   21.4660  -32.2100 C   0  0  0  0  0  0  0  0  0  0  0  0
   -6.0880   21.3160  -32.1540 C   0  0  0  0  0  0  0  0  0  0  0  0
   -5.1561   18.0566  -34.8432 H   0  0  0  0  0  0  0  0  0  0  0  0
   -6.8249   18.5184  -35.3213 H   0  0  0  0  0  0  0  0  0  0  0  0
   -5.5173   19.7500  -35.3213 H   0  0  0  0  0  0  0  0  0  0  0  0
   -7.0173   18.5180  -31.5953 H   0  0  0  0  0  0  0  0  0  0  0  0
   -8.2038   18.6985  -32.9319 H   0  0  0  0  0  0  0  0  0  0  0  0
   -7.0540   17.3185  -32.9319 H   0  0  0  0  0  0  0  0  0  0  0  0
   -3.5800   19.1754  -33.1052 H   0  0  0  0  0  0  0  0  0  0  0  0
   -2.2052   20.9095  -31.9758 H   0  0  0  0  0  0  0  0  0  0  0  0
   -3.2811   22.9031  -30.9570 H   0  0  0  0  0  0  0  0  0  0  0  0
   -3.2884   22.7401  -29.5616 H   0  0  0  0  0  0  0  0  0  0  0  0
   -2.8213   22.7423  -26.5630 H   0  0  0  0  0  0  0  0  0  0  0  0
   -4.2197   21.8567  -27.3011 H   0  0  0  0  0  0  0  0  0  0  0  0
   -1.8910   21.8334  -29.8271 H   0  0  0  0  0  0  0  0  0  0  0  0
   -0.3470   19.9576  -30.3954 H   0  0  0  0  0  0  0  0  0  0  0  0
    0.1233   18.1708  -28.7137 H   0  0  0  0  0  0  0  0  0  0  0  0
   -0.9491   18.2607  -26.4619 H   0  0  0  0  0  0  0  0  0  0  0  0
   -2.4945   20.1335  -25.8850 H   0  0  0  0  0  0  0  0  0  0  0  0
   -2.8750   26.0430  -29.3440 H   0  0  0  0  0  0  0  0  0  0  0  0
   -7.8392   24.4345  -30.5742 H   0  0  0  0  0  0  0  0  0  0  0  0
   -9.1928   22.6903  -31.7057 H   0  0  0  0  0  0  0  0  0  0  0  0
   -8.0969   20.6966  -32.7036 H   0  0  0  0  0  0  0  0  0  0  0  0
  1  2  1  0
  2  3  1  0
  2  4  1  0
  4  5  2  0
  5  6  1  0
  6  7  2  0
  7  8  1  0
  8  9  2  0
  9 10  1  0
 10 11  2  0
 10 12  2  0
 10 13  1  0
 13 14  1  0
 14 15  1  0
 15 16  1  0
 16 17  2  0
 17 18  1  0
 18 19  2  0
 19 20  1  0
 20 21  2  0
 14 22  1  0
 22 23  2  0
 23 24  1  0
 24 25  1  0
 25 26  2  0
  9 27  1  0
 27 28  2  0
 28 29  1  0
 29 30  2  0
 30  4  1  0
 30  8  1  0
 21 16  1  0
 26 22  1  0
  1 31  1  0
  1 32  1  0
  1 33  1  0
  3 34  1  0
  3 35  1  0
  3 36  1  0
  5 37  1  0
  6 38  1  0
  7 39  1  0
 14 40  1  6
 15 41  1  0
 15 42  1  0
 17 43  1  0
 18 44  1  0
 19 45  1  0
 20 46  1  0
 21 47  1  0
 26 48  1  0
 27 49  1  0
 28 50  1  0
 29 51  1  0
M  CHG  3  13  -1  24  -1  26   1
M  END
>  <UniqueID>  (33) 
30

>  <SMILES>  (33) 
CN(C)c1cccc2c(S(=O)(=O)[N-][C@H](Cc3ccccc3)c3n[n-]n[nH+]3)cccc12

>  <Energy>  (33) 
102.99540594005211

>  <Genealogy>  (33) 
CN(C)c1cccc2c(S(=O)(=O)[N-]C(Cc3ccccc3)c3n[n-]n[nH+]3)cccc12 (protonated)
CN(C)c1cccc2c(S(=O)(=O)[N-][C@H](Cc3ccccc3)c3n[n-]n[nH+]3)cccc12 (chirality)
CN(C)c1cccc2c(S(=O)(=O)[N-][C@H](Cc3ccccc3)c3n[n-]n[nH+]3)cccc12 (3D coordinates assigned)
CN(C)c1cccc2c(S(=O)(=O)[N-][C@H](Cc3ccccc3)c3n[n-]n[nH+]3)cccc12 (optimized conformer: 102.99540594005211 kcal/mol)

>  <smiles>  (33) 
CN(C)c1cccc2c(S(=O)(=O)NC(Cc3ccccc3)c3nn[nH]n3)cccc12

>  <score_type>  (33) 
oracle

>  <origin>  (33) 
adg

>  <m_score__min__energy>  (33) 
-12.42

>  <m_primary>  (33) 
energy

$$$$
33:0
     RDKit          3D

 56 59  0  0  0  0  0  0  0  0999 V2000
   -1.0610   17.8900  -34.2080 C   0  0  0  0  0  0  0  0  0  0  0  0
   -1.3260   18.9290  -33.1230 C   0  0  0  0  0  0  0  0  0  0  0  0
   -1.6230   20.2610  -33.7060 N   0  0  0  0  0  0  0  0  0  0  0  0
   -0.8330   20.4180  -34.9540 C   0  0  0  0  0  0  0  0  0  0  0  0
    0.1810   21.5580  -34.8710 C   0  0  0  0  0  0  0  0  0  0  0  0
   -1.3340   21.3500  -32.7300 C   0  0  0  0  0  0  0  0  0  0  0  0
   -2.4500   21.4690  -31.6750 C   0  0  0  0  0  0  0  0  0  0  0  0
   -3.6660   22.2960  -32.1330 C   0  0  0  0  0  0  0  0  0  0  0  0
   -4.2560   21.7800  -33.3840 N   0  0  0  0  0  0  0  0  0  0  0  0
   -5.4220   20.9630  -33.1020 C   0  0  0  0  0  0  0  0  0  0  0  0
   -6.6360   21.4980  -32.5810 C   0  0  0  0  0  0  0  0  0  0  0  0
   -6.7660   22.8700  -32.2720 C   0  0  0  0  0  0  0  0  0  0  0  0
   -7.9790   23.3960  -31.8360 C   0  0  0  0  0  0  0  0  0  0  0  0
   -9.0920   22.5760  -31.7050 C   0  0  0  0  0  0  0  0  0  0  0  0
   -8.9920   21.2120  -31.9660 C   0  0  0  0  0  0  0  0  0  0  0  0
   -7.7630   20.6280  -32.3600 C   0  0  0  0  0  0  0  0  0  0  0  0
   -7.6410   19.2590  -32.5430 N   0  0  0  0  0  0  0  0  0  0  0  0
   -8.6630   18.3190  -32.0520 C   0  0  0  0  0  0  0  0  0  0  0  0
   -6.4910   18.7830  -33.1150 C   0  0  0  0  0  0  0  0  0  0  0  0
   -5.3910   19.5850  -33.3460 C   0  0  0  0  0  0  0  0  0  0  0  0
   -4.3540   18.8630  -33.8330 N   0  0  0  0  0  0  0  0  0  0  0  0
   -4.8210   17.6060  -33.9480 C   0  0  0  0  0  0  0  0  0  0  0  0
   -4.1400   16.5060  -34.4590 C   0  0  0  0  0  0  0  0  0  0  0  0
   -4.8110   15.3230  -34.5690 N   0  0  0  0  0  0  0  0  0  0  0  0
   -6.1240   15.1980  -34.2020 C   0  0  0  0  0  0  0  0  0  0  0  0
   -6.8310   16.2990  -33.6880 C   0  0  0  0  0  0  0  0  0  0  0  0
   -6.1330   17.5040  -33.5390 C   0  0  0  0  0  0  0  0  0  0  0  0
   -0.8150   16.9255  -33.7398 H   0  0  0  0  0  0  0  0  0  0  0  0
   -1.9587   17.7757  -34.8333 H   0  0  0  0  0  0  0  0  0  0  0  0
   -0.2182   18.2196  -34.8333 H   0  0  0  0  0  0  0  0  0  0  0  0
   -2.1857   18.6036  -32.5189 H   0  0  0  0  0  0  0  0  0  0  0  0
   -0.4222   19.0178  -32.5023 H   0  0  0  0  0  0  0  0  0  0  0  0
   -0.2926   19.4799  -35.1487 H   0  0  0  0  0  0  0  0  0  0  0  0
   -1.5368   20.6580  -35.7646 H   0  0  0  0  0  0  0  0  0  0  0  0
    0.3869   21.7895  -33.8155 H   0  0  0  0  0  0  0  0  0  0  0  0
    1.1141   21.2557  -35.3689 H   0  0  0  0  0  0  0  0  0  0  0  0
   -0.2280   22.4495  -35.3689 H   0  0  0  0  0  0  0  0  0  0  0  0
   -0.3829   21.1324  -32.2221 H   0  0  0  0  0  0  0  0  0  0  0  0
   -1.2740   22.3009  -33.2796 H   0  0  0  0  0  0  0  0  0  0  0  0
   -2.7967   20.4558  -31.4238 H   0  0  0  0  0  0  0  0  0  0  0  0
   -2.0154   21.9965  -30.8131 H   0  0  0  0  0  0  0  0  0  0  0  0
   -4.4310   22.2673  -31.3431 H   0  0  0  0  0  0  0  0  0  0  0  0
   -3.3219   23.3235  -32.3222 H   0  0  0  0  0  0  0  0  0  0  0  0
   -3.5570   21.2180  -33.9190 H   0  0  0  0  0  0  0  0  0  0  0  0
   -4.5000   22.5640  -34.0270 H   0  0  0  0  0  0  0  0  0  0  0  0
   -5.8950   23.5335  -32.3775 H   0  0  0  0  0  0  0  0  0  0  0  0
   -8.0561   24.4663  -31.5941 H   0  0  0  0  0  0  0  0  0  0  0  0
  -10.0558   23.0054  -31.3940 H   0  0  0  0  0  0  0  0  0  0  0  0
   -9.8838   20.5761  -31.8644 H   0  0  0  0  0  0  0  0  0  0  0  0
   -8.6630   18.3190  -30.9520 H   0  0  0  0  0  0  0  0  0  0  0  0
   -9.6527   18.6290  -32.4186 H   0  0  0  0  0  0  0  0  0  0  0  0
   -8.4367   17.3069  -32.4186 H   0  0  0  0  0  0  0  0  0  0  0  0
   -3.3940   19.1880  -34.0840 H   0  0  0  0  0  0  0  0  0  0  0  0
   -3.0871   16.5878  -34.7667 H   0  0  0  0  0  0  0  0  0  0  0  0
   -6.6303   14.2274  -34.3103 H   0  0  0  0  0  0  0  0  0  0  0  0
   -7.8929   16.2171  -33.4131 H   0  0  0  0  0  0  0  0  0  0  0  0
  1  2  1  0
  2  3  1  0
  3  4  1  0
  4  5  1  0
  3  6  1  0
  6  7  1  0
  7  8  1  0
  8  9  1  0
  9 10  1  0
 10 11  2  0
 11 12  1  0
 12 13  2  0
 13 14  1  0
 14 15  2  0
 15 16  1  0
 16 17  2  0
 17 18  1  0
 17 19  1  0
 19 20  2  0
 20 21  1  0
 21 22  1  0
 22 23  2  0
 23 24  1  0
 24 25  2  0
 25 26  1  0
 26 27  2  0
 20 10  1  0
 27 22  1  0
 16 11  1  0
 27 19  1  0
  1 28  1  0
  1 29  1  0
  1 30  1  0
  2 31  1  0
  2 32  1  0
  4 33  1  0
  4 34  1  0
  5 35  1  0
  5 36  1  0
  5 37  1  0
  6 38  1  0
  6 39  1  0
  7 40  1  0
  7 41  1  0
  8 42  1  0
  8 43  1  0
  9 44  1  0
  9 45  1  0
 12 46  1  0
 13 47  1  0
 14 48  1  0
 15 49  1  0
 18 50  1  0
 18 51  1  0
 18 52  1  0
 21 53  1  0
 23 54  1  0
 25 55  1  0
 26 56  1  0
M  CHG  2   9   1  17   1
M  END
>  <UniqueID>  (34) 
31

>  <SMILES>  (34) 
CCN(CC)CCC[NH2+]c1c2ccccc2[n+](C)c2c1[nH]c1cnccc12

>  <Energy>  (34) 
120.25524359490659

>  <Genealogy>  (34) 
CCN(CC)CCC[NH2+]c1c2ccccc2[n+](C)c2c1[nH]c1cnccc12 (protonated)
CCN(CC)CCC[NH2+]c1c2ccccc2[n+](C)c2c1[nH]c1cnccc12 (3D coordinates assigned)
CCN(CC)CCC[NH2+]c1c2ccccc2[n+](C)c2c1[nH]c1cnccc12 (optimized conformer: 120.25524359490659 kcal/mol)

>  <smiles>  (34) 
CCN(CC)CCCNc1c2ccccc2[n+](C)c2c1[nH]c1cnccc12

>  <score_type>  (34) 
oracle

>  <origin>  (34) 
adg

>  <m_score__min__energy>  (34) 
-8.2899999999999991

>  <m_primary>  (34) 
energy

$$$$
34:0
     RDKit          3D

 24 24  0  0  0  0  0  0  0  0999 V2000
   -6.8490   25.1340  -29.7210 C   0  0  0  0  0  0  0  0  0  0  0  0
   -5.9750   24.4720  -30.6930 N   0  0  0  0  0  0  0  0  0  0  0  0
   -6.4890   24.1070  -32.0170 C   0  0  0  0  0  0  0  0  0  0  0  0
   -4.6140   24.1370  -30.3490 C   0  0  0  0  0  0  0  0  0  0  0  0
   -3.9040   23.4940  -31.1720 O   0  0  0  0  0  0  0  0  0  0  0  0
   -4.0440   24.5490  -29.0940 N   0  0  0  0  0  0  0  0  0  0  0  0
   -2.8250   24.0030  -28.5670 C   0  0  0  0  0  0  0  0  0  0  0  0
   -2.7910   22.6580  -28.1670 C   0  0  0  0  0  0  0  0  0  0  0  0
   -1.6140   22.0980  -27.6630 C   0  0  0  0  0  0  0  0  0  0  0  0
   -0.4550   22.8720  -27.5700 C   0  0  0  0  0  0  0  0  0  0  0  0
    0.6870   22.3270  -27.0850 F   0  0  0  0  0  0  0  0  0  0  0  0
   -0.4690   24.2050  -27.9900 C   0  0  0  0  0  0  0  0  0  0  0  0
   -1.6450   24.7710  -28.4940 C   0  0  0  0  0  0  0  0  0  0  0  0
   -1.6170   26.0480  -28.9520 F   0  0  0  0  0  0  0  0  0  0  0  0
   -6.5193   24.8843  -28.7017 H   0  0  0  0  0  0  0  0  0  0  0  0
   -6.7996   26.2233  -29.8658 H   0  0  0  0  0  0  0  0  0  0  0  0
   -7.8842   24.7914  -29.8658 H   0  0  0  0  0  0  0  0  0  0  0  0
   -7.3810   23.4736  -31.9022 H   0  0  0  0  0  0  0  0  0  0  0  0
   -6.7558   25.0191  -32.5710 H   0  0  0  0  0  0  0  0  0  0  0  0
   -5.7158   23.5545  -32.5710 H   0  0  0  0  0  0  0  0  0  0  0  0
   -4.4460   25.3830  -28.6110 H   0  0  0  0  0  0  0  0  0  0  0  0
   -3.6973   22.0403  -28.2508 H   0  0  0  0  0  0  0  0  0  0  0  0
   -1.6003   21.0468  -27.3393 H   0  0  0  0  0  0  0  0  0  0  0  0
    0.4469   24.8106  -27.9241 H   0  0  0  0  0  0  0  0  0  0  0  0
  1  2  1  0
  2  3  1  0
  2  4  1  0
  4  5  2  0
  4  6  1  0
  6  7  1  0
  7  8  2  0
  8  9  1  0
  9 10  2  0
 10 11  1  0
 10 12  1  0
 12 13  2  0
 13 14  1  0
 13  7  1  0
  1 15  1  0
  1 16  1  0
  1 17  1  0
  3 18  1  0
  3 19  1  0
  3 20  1  0
  6 21  1  0
  8 22  1  0
  9 23  1  0
 12 24  1  0
M  END
>  <UniqueID>  (35) 
32

>  <SMILES>  (35) 
CN(C)C(=O)Nc1ccc(F)cc1F

>  <Energy>  (35) 
24.467176351136224

>  <Genealogy>  (35) 
CN(C)C(=O)Nc1ccc(F)cc1F (3D coordinates assigned)
CN(C)C(=O)Nc1ccc(F)cc1F (optimized conformer: 24.467176351136224 kcal/mol)

>  <smiles>  (35) 
CN(C)C(=O)Nc1ccc(F)cc1F

>  <score_type>  (35) 
oracle

>  <origin>  (35) 
adg

>  <m_score__min__energy>  (35) 
-5.0300000000000002

>  <m_primary>  (35) 
energy

$$$$
35:0
     RDKit          3D

 29 31  0  0  0  0  0  0  0  0999 V2000
   -2.2600   24.5550  -28.8730 C   0  0  0  0  0  0  0  0  0  0  0  0
   -3.1510   25.2570  -29.7330 O   0  0  0  0  0  0  0  0  0  0  0  0
   -4.4450   24.8230  -30.0580 C   0  0  0  0  0  0  0  0  0  0  0  0
   -5.5940   25.5720  -29.7400 C   0  0  0  0  0  0  0  0  0  0  0  0
   -6.8590   25.1020  -30.1010 C   0  0  0  0  0  0  0  0  0  0  0  0
   -6.9930   23.8830  -30.7690 C   0  0  0  0  0  0  0  0  0  0  0  0
   -5.8600   23.1140  -31.0710 C   0  0  0  0  0  0  0  0  0  0  0  0
   -6.0070   21.8710  -31.7770 N   0  0  0  0  0  0  0  0  0  0  0  0
   -5.1390   21.4440  -32.6890 N   0  0  0  0  0  0  0  0  0  0  0  0
   -5.5610   20.2450  -33.1570 C   0  0  0  0  0  0  0  0  0  0  0  0
   -6.7390   19.9220  -32.5190 C   0  0  0  0  0  0  0  0  0  0  0  0
   -7.5990   18.8360  -32.6530 C   0  0  0  0  0  0  0  0  0  0  0  0
   -8.7720   18.8360  -31.8770 C   0  0  0  0  0  0  0  0  0  0  0  0
   -9.6430   17.8010  -31.9750 F   0  0  0  0  0  0  0  0  0  0  0  0
   -9.0570   19.9160  -31.0100 C   0  0  0  0  0  0  0  0  0  0  0  0
   -8.1670   21.0010  -30.9030 C   0  0  0  0  0  0  0  0  0  0  0  0
   -6.9960   20.9590  -31.6650 C   0  0  0  0  0  0  0  0  0  0  0  0
   -4.5880   23.6010  -30.7270 C   0  0  0  0  0  0  0  0  0  0  0  0
   -2.5227   24.7619  -27.8251 H   0  0  0  0  0  0  0  0  0  0  0  0
   -2.3402   23.4748  -29.0647 H   0  0  0  0  0  0  0  0  0  0  0  0
   -1.2286   24.8858  -29.0647 H   0  0  0  0  0  0  0  0  0  0  0  0
   -5.4954   26.5289  -29.2064 H   0  0  0  0  0  0  0  0  0  0  0  0
   -7.7533   25.6946  -29.8581 H   0  0  0  0  0  0  0  0  0  0  0  0
   -7.9916   23.5245  -31.0595 H   0  0  0  0  0  0  0  0  0  0  0  0
   -5.0509   19.6339  -33.9162 H   0  0  0  0  0  0  0  0  0  0  0  0
   -7.3698   18.0083  -33.3403 H   0  0  0  0  0  0  0  0  0  0  0  0
   -9.9817   19.9081  -30.4144 H   0  0  0  0  0  0  0  0  0  0  0  0
   -8.3855   21.8529  -30.2423 H   0  0  0  0  0  0  0  0  0  0  0  0
   -3.6936   23.0155  -30.9862 H   0  0  0  0  0  0  0  0  0  0  0  0
  1  2  1  0
  2  3  1  0
  3  4  2  0
  4  5  1  0
  5  6  2  0
  6  7  1  0
  7  8  1  0
  8  9  1  0
  9 10  2  0
 10 11  1  0
 11 12  2  0
 12 13  1  0
 13 14  1  0
 13 15  2  0
 15 16  1  0
 16 17  2  0
  7 18  2  0
 18  3  1  0
 17  8  1  0
 17 11  1  0
  1 19  1  0
  1 20  1  0
  1 21  1  0
  4 22  1  0
  5 23  1  0
  6 24  1  0
 10 25  1  0
 12 26  1  0
 15 27  1  0
 16 28  1  0
 18 29  1  0
M  END
>  <UniqueID>  (36) 
33

>  <SMILES>  (36) 
COc1cccc(-n2ncc3cc(F)ccc32)c1

>  <Energy>  (36) 
75.34045385287911

>  <Genealogy>  (36) 
COc1cccc(-n2ncc3cc(F)ccc32)c1 (3D coordinates assigned)
COc1cccc(-n2ncc3cc(F)ccc32)c1 (optimized conformer: 75.34045385287911 kcal/mol)

>  <smiles>  (36) 
COc1cccc(-n2ncc3cc(F)ccc32)c1

>  <score_type>  (36) 
oracle

>  <origin>  (36) 
adg

>  <m_score__min__energy>  (36) 
-7.2000000000000002

>  <m_primary>  (36) 
energy

$$$$
36:0
     RDKit          3D

 37 38  0  0  0  0  0  0  0  0999 V2000
   -6.5490   25.6680  -29.3350 C   0  0  0  0  0  0  0  0  0  0  0  0
   -5.6590   25.2860  -30.5140 C   0  0  0  0  0  0  0  0  0  0  0  0
   -6.0330   23.9240  -31.0450 C   0  0  0  0  0  0  0  0  0  0  0  0
   -7.3860   23.5540  -31.1160 C   0  0  0  0  0  0  0  0  0  0  0  0
   -7.7580   22.3080  -31.6290 C   0  0  0  0  0  0  0  0  0  0  0  0
   -9.4640   21.8870  -31.6900 Cl  0  0  0  0  0  0  0  0  0  0  0  0
   -6.7730   21.4170  -32.0820 C   0  0  0  0  0  0  0  0  0  0  0  0
   -7.1980   19.8340  -32.7170 Cl  0  0  0  0  0  0  0  0  0  0  0  0
   -5.4260   21.7850  -32.0280 C   0  0  0  0  0  0  0  0  0  0  0  0
   -5.0470   23.0450  -31.5320 C   0  0  0  0  0  0  0  0  0  0  0  0
   -3.6970   23.4250  -31.4730 O   0  0  0  0  0  0  0  0  0  0  0  0
   -2.6630   22.6760  -30.8880 C   0  0  0  0  0  0  0  0  0  0  0  0
   -2.1440   21.5330  -31.5240 C   0  0  0  0  0  0  0  0  0  0  0  0
   -1.1160   20.7990  -30.9280 C   0  0  0  0  0  0  0  0  0  0  0  0
   -0.5910   21.2020  -29.6990 C   0  0  0  0  0  0  0  0  0  0  0  0
   -1.0850   22.3460  -29.0680 C   0  0  0  0  0  0  0  0  0  0  0  0
   -2.1070   23.1030  -29.6650 C   0  0  0  0  0  0  0  0  0  0  0  0
   -2.6490   24.3160  -28.9550 C   0  0  0  0  0  0  0  0  0  0  0  0
   -1.6530   25.3930  -28.9820 N   0  0  0  0  0  0  0  0  0  0  0  0
   -0.9470   25.4630  -27.7010 C   0  0  0  0  0  0  0  0  0  0  0  0
   -6.0265   25.4437  -28.3934 H   0  0  0  0  0  0  0  0  0  0  0  0
   -6.7768   26.7432  -29.3808 H   0  0  0  0  0  0  0  0  0  0  0  0
   -7.4853   25.0925  -29.3808 H   0  0  0  0  0  0  0  0  0  0  0  0
   -5.7799   26.0312  -31.3140 H   0  0  0  0  0  0  0  0  0  0  0  0
   -4.6134   25.2580  -30.1734 H   0  0  0  0  0  0  0  0  0  0  0  0
   -8.1605   24.2515  -30.7645 H   0  0  0  0  0  0  0  0  0  0  0  0
   -4.6549   21.0824  -32.3768 H   0  0  0  0  0  0  0  0  0  0  0  0
   -2.5502   21.2159  -32.4958 H   0  0  0  0  0  0  0  0  0  0  0  0
   -0.7198   19.9026  -31.4275 H   0  0  0  0  0  0  0  0  0  0  0  0
    0.2127   20.6179  -29.2269 H   0  0  0  0  0  0  0  0  0  0  0  0
   -0.6711   22.6563  -28.0972 H   0  0  0  0  0  0  0  0  0  0  0  0
   -3.5667   24.6543  -29.4584 H   0  0  0  0  0  0  0  0  0  0  0  0
   -2.8744   24.0553  -27.9104 H   0  0  0  0  0  0  0  0  0  0  0  0
   -0.9430   25.1640  -29.7160 H   0  0  0  0  0  0  0  0  0  0  0  0
   -1.6730   25.3910  -26.8778 H   0  0  0  0  0  0  0  0  0  0  0  0
   -0.2302   24.6315  -27.6315 H   0  0  0  0  0  0  0  0  0  0  0  0
   -0.4074   26.4190  -27.6315 H   0  0  0  0  0  0  0  0  0  0  0  0
  1  2  1  0
  2  3  1  0
  3  4  2  0
  4  5  1  0
  5  6  1  0
  5  7  2  0
  7  8  1  0
  7  9  1  0
  9 10  2  0
 10 11  1  0
 11 12  1  0
 12 13  2  0
 13 14  1  0
 14 15  2  0
 15 16  1  0
 16 17  2  0
 17 18  1  0
 18 19  1  0
 19 20  1  0
 10  3  1  0
 17 12  1  0
  1 21  1  0
  1 22  1  0
  1 23  1  0
  2 24  1  0
  2 25  1  0
  4 26  1  0
  9 27  1  0
 13 28  1  0
 14 29  1  0
 15 30  1  0
 16 31  1  0
 18 32  1  0
 18 33  1  0
 19 34  1  0
 20 35  1  0
 20 36  1  0
 20 37  1  0
M  END
>  <UniqueID>  (37) 
34

>  <SMILES>  (37) 
CCc1cc(Cl)c(Cl)cc1Oc1ccccc1CNC

>  <Energy>  (37) 
38.63445503333746

>  <Genealogy>  (37) 
CCc1cc(Cl)c(Cl)cc1Oc1ccccc1CNC (3D coordinates assigned)
CCc1cc(Cl)c(Cl)cc1Oc1ccccc1CNC (optimized conformer: 38.63445503333746 kcal/mol)

>  <smiles>  (37) 
CCc1cc(Cl)c(Cl)cc1Oc1ccccc1CNC

>  <score_type>  (37) 
oracle

>  <origin>  (37) 
adg

>  <m_score__min__energy>  (37) 
-8.1199999999999992

>  <m_primary>  (37) 
energy

$$$$
37:0
     RDKit          3D

 34 36  0  0  0  0  0  0  0  0999 V2000
   -5.3660   25.3420  -30.0930 C   0  0  0  0  0  0  0  0  0  0  0  0
   -4.2230   24.6800  -30.6230 O   0  0  0  0  0  0  0  0  0  0  0  0
   -4.2470   23.4070  -31.2120 C   0  0  0  0  0  0  0  0  0  0  0  0
   -3.2570   22.4380  -30.9600 C   0  0  0  0  0  0  0  0  0  0  0  0
   -3.3270   21.1820  -31.5710 C   0  0  0  0  0  0  0  0  0  0  0  0
   -4.3910   20.8710  -32.4290 C   0  0  0  0  0  0  0  0  0  0  0  0
   -4.4420   19.5890  -33.0750 N   0  0  0  0  0  0  0  0  0  0  0  0
   -3.3900   19.0270  -33.6490 N   0  0  0  0  0  0  0  0  0  0  0  0
   -3.7840   17.8910  -34.2550 C   0  0  0  0  0  0  0  0  0  0  0  0
   -2.8600   16.9330  -34.9390 C   0  0  0  0  0  0  0  0  0  0  0  0
   -2.5180   15.9070  -34.0760 F   0  0  0  0  0  0  0  0  0  0  0  0
   -1.7060   17.5850  -35.3380 F   0  0  0  0  0  0  0  0  0  0  0  0
   -3.4900   16.4030  -36.0490 F   0  0  0  0  0  0  0  0  0  0  0  0
   -5.1370   17.7040  -34.0360 C   0  0  0  0  0  0  0  0  0  0  0  0
   -5.5250   18.8010  -33.2840 C   0  0  0  0  0  0  0  0  0  0  0  0
   -6.8740   18.9910  -32.7120 C   0  0  0  0  0  0  0  0  0  0  0  0
   -7.7750   19.9830  -33.0840 C   0  0  0  0  0  0  0  0  0  0  0  0
   -9.0130   19.8830  -32.4360 C   0  0  0  0  0  0  0  0  0  0  0  0
   -9.1020   18.8060  -31.5660 C   0  0  0  0  0  0  0  0  0  0  0  0
   -7.6410   17.9770  -31.6060 S   0  0  0  0  0  0  0  0  0  0  0  0
   -5.3650   21.8430  -32.6970 C   0  0  0  0  0  0  0  0  0  0  0  0
   -5.2960   23.0990  -32.0870 C   0  0  0  0  0  0  0  0  0  0  0  0
   -5.3263   25.3190  -28.9940 H   0  0  0  0  0  0  0  0  0  0  0  0
   -5.3774   26.3865  -30.4377 H   0  0  0  0  0  0  0  0  0  0  0  0
   -6.2777   24.8321  -30.4377 H   0  0  0  0  0  0  0  0  0  0  0  0
   -2.4246   22.6700  -30.2793 H   0  0  0  0  0  0  0  0  0  0  0  0
   -2.5435   20.4346  -31.3774 H   0  0  0  0  0  0  0  0  0  0  0  0
   -2.4220   19.4210  -33.6420 H   0  0  0  0  0  0  0  0  0  0  0  0
   -5.7651   16.8699  -34.3820 H   0  0  0  0  0  0  0  0  0  0  0  0
   -7.5386   20.7695  -33.8158 H   0  0  0  0  0  0  0  0  0  0  0  0
   -9.8375   20.5921  -32.6015 H   0  0  0  0  0  0  0  0  0  0  0  0
   -9.9777   18.5406  -30.9555 H   0  0  0  0  0  0  0  0  0  0  0  0
   -6.1879   21.6162  -33.3909 H   0  0  0  0  0  0  0  0  0  0  0  0
   -6.0714   23.8508  -32.2959 H   0  0  0  0  0  0  0  0  0  0  0  0
  1  2  1  0
  2  3  1  0
  3  4  2  0
  4  5  1  0
  5  6  2  0
  6  7  1  0
  7  8  1  0
  8  9  2  0
  9 10  1  0
 10 11  1  0
 10 12  1  0
 10 13  1  0
  9 14  1  0
 14 15  2  0
 15 16  1  0
 16 17  2  0
 17 18  1  0
 18 19  2  0
 19 20  1  0
  6 21  1  0
 21 22  2  0
 22  3  1  0
 15  7  1  0
 20 16  1  0
  1 23  1  0
  1 24  1  0
  1 25  1  0
  4 26  1  0
  5 27  1  0
  8 28  1  0
 14 29  1  0
 17 30  1  0
 18 31  1  0
 19 32  1  0
 21 33  1  0
 22 34  1  0
M  CHG  1   8   1
M  END
>  <UniqueID>  (38) 
35

>  <SMILES>  (38) 
COc1ccc(-n2[nH+]c(C(F)(F)F)cc2-c2cccs2)cc1

>  <Energy>  (38) 
99.00607194314811

>  <Genealogy>  (38) 
COc1ccc(-n2[nH+]c(C(F)(F)F)cc2-c2cccs2)cc1 (protonated)
COc1ccc(-n2[nH+]c(C(F)(F)F)cc2-c2cccs2)cc1 (3D coordinates assigned)
COc1ccc(-n2[nH+]c(C(F)(F)F)cc2-c2cccs2)cc1 (optimized conformer: 99.00607194314811 kcal/mol)

>  <smiles>  (38) 
COc1ccc(-n2nc(C(F)(F)F)cc2-c2cccs2)cc1

>  <score_type>  (38) 
oracle

>  <origin>  (38) 
adg

>  <m_score__min__energy>  (38) 
-6.5599999999999996

>  <m_primary>  (38) 
energy

$$$$
38:0
     RDKit          3D

 52 54  0  0  0  0  0  0  0  0999 V2000
   -1.9920   26.2740  -25.6790 C   0  0  0  0  0  0  0  0  0  0  0  0
   -2.3990   25.0590  -26.4500 C   0  0  0  0  0  0  0  0  0  0  0  0
   -3.5680   24.9220  -27.1000 N   0  0  0  0  0  0  0  0  0  0  0  0
   -3.5260   23.6740  -27.6070 C   0  0  0  0  0  0  0  0  0  0  0  0
   -4.6230   23.0610  -28.4220 C   0  0  0  0  0  0  0  0  0  0  0  0
   -4.1730   22.8390  -29.8050 N   0  0  0  0  0  0  0  0  0  0  0  0
   -2.9850   22.0120  -30.0450 C   0  0  0  0  0  0  0  0  0  0  0  0
   -4.8650   23.4040  -30.9460 C   0  0  0  0  0  0  0  0  0  0  0  0
   -4.7420   24.6370  -31.1890 O   0  0  0  0  0  0  0  0  0  0  0  0
   -5.7930   22.5900  -31.8310 C   0  0  2  0  0  0  0  0  0  0  0  0
   -6.8500   23.5020  -32.5270 C   0  0  0  0  0  0  0  0  0  0  0  0
   -8.2420   23.4210  -31.8910 C   0  0  0  0  0  0  0  0  0  0  0  0
   -8.6710   21.9890  -31.8530 C   0  0  0  0  0  0  0  0  0  0  0  0
   -9.8790   21.6820  -32.0490 O   0  0  0  0  0  0  0  0  0  0  0  0
   -7.6830   20.9840  -31.5710 N   0  0  0  0  0  0  0  0  0  0  0  0
   -7.9680   19.5530  -31.7230 C   0  0  0  0  0  0  0  0  0  0  0  0
   -6.8820   18.8870  -32.5300 C   0  0  0  0  0  0  0  0  0  0  0  0
   -6.5600   19.3810  -33.8060 C   0  0  0  0  0  0  0  0  0  0  0  0
   -5.5810   18.7510  -34.5800 C   0  0  0  0  0  0  0  0  0  0  0  0
   -4.9220   17.6200  -34.0920 C   0  0  0  0  0  0  0  0  0  0  0  0
   -5.2390   17.1160  -32.8280 C   0  0  0  0  0  0  0  0  0  0  0  0
   -6.2160   17.7440  -32.0460 C   0  0  0  0  0  0  0  0  0  0  0  0
   -6.5030   17.2390  -30.8190 F   0  0  0  0  0  0  0  0  0  0  0  0
   -6.4080   21.4340  -31.0020 C   0  0  0  0  0  0  0  0  0  0  0  0
   -2.4110   23.0480  -27.2960 O   0  0  0  0  0  0  0  0  0  0  0  0
   -1.6910   23.8810  -26.5810 C   0  0  0  0  0  0  0  0  0  0  0  0
   -0.3480   23.5680  -26.0100 C   0  0  0  0  0  0  0  0  0  0  0  0
   -2.0620   26.0649  -24.6013 H   0  0  0  0  0  0  0  0  0  0  0  0
   -0.9557   26.5401  -25.9343 H   0  0  0  0  0  0  0  0  0  0  0  0
   -2.6589   27.1107  -25.9343 H   0  0  0  0  0  0  0  0  0  0  0  0
   -4.3380   25.6210  -27.1860 H   0  0  0  0  0  0  0  0  0  0  0  0
   -4.9109   22.0977  -27.9757 H   0  0  0  0  0  0  0  0  0  0  0  0
   -5.4840   23.7455  -28.4329 H   0  0  0  0  0  0  0  0  0  0  0  0
   -2.5489   21.7084  -29.0819 H   0  0  0  0  0  0  0  0  0  0  0  0
   -3.2709   21.1167  -30.6165 H   0  0  0  0  0  0  0  0  0  0  0  0
   -2.2446   22.5909  -30.6165 H   0  0  0  0  0  0  0  0  0  0  0  0
   -5.2251   22.1309  -32.6537 H   0  0  0  0  0  0  0  0  0  0  0  0
   -6.5017   24.5439  -32.4707 H   0  0  0  0  0  0  0  0  0  0  0  0
   -6.9477   23.1498  -33.5645 H   0  0  0  0  0  0  0  0  0  0  0  0
   -8.2051   23.8233  -30.8679 H   0  0  0  0  0  0  0  0  0  0  0  0
   -8.9582   24.0105  -32.4822 H   0  0  0  0  0  0  0  0  0  0  0  0
   -8.0200   19.0855  -30.7286 H   0  0  0  0  0  0  0  0  0  0  0  0
   -8.9281   19.4325  -32.2461 H   0  0  0  0  0  0  0  0  0  0  0  0
   -7.0807   20.2674  -34.1973 H   0  0  0  0  0  0  0  0  0  0  0  0
   -5.3291   19.1466  -35.5750 H   0  0  0  0  0  0  0  0  0  0  0  0
   -4.1527   17.1257  -34.7035 H   0  0  0  0  0  0  0  0  0  0  0  0
   -4.7201   16.2242  -32.4466 H   0  0  0  0  0  0  0  0  0  0  0  0
   -6.5792   21.7836  -29.9732 H   0  0  0  0  0  0  0  0  0  0  0  0
   -5.7057   20.5875  -31.0160 H   0  0  0  0  0  0  0  0  0  0  0  0
   -0.4045   23.5812  -24.9115 H   0  0  0  0  0  0  0  0  0  0  0  0
   -0.0287   22.5714  -26.3488 H   0  0  0  0  0  0  0  0  0  0  0  0
    0.3790   24.3208  -26.3488 H   0  0  0  0  0  0  0  0  0  0  0  0
  1  2  1  0
  2  3  1  0
  3  4  2  0
  4  5  1  0
  5  6  1  0
  6  7  1  0
  6  8  1  0
  8  9  2  0
  8 10  1  0
 10 11  1  0
 11 12  1  0
 12 13  1  0
 13 14  2  0
 13 15  1  0
 15 16  1  0
 16 17  1  0
 17 18  2  0
 18 19  1  0
 19 20  2  0
 20 21  1  0
 21 22  2  0
 22 23  1  0
 15 24  1  0
  4 25  1  0
 25 26  1  0
 26 27  1  0
 26  2  2  0
 24 10  1  0
 22 17  1  0
  1 28  1  0
  1 29  1  0
  1 30  1  0
  3 31  1  0
  5 32  1  0
  5 33  1  0
  7 34  1  0
  7 35  1  0
  7 36  1  0
 10 37  1  6
 11 38  1  0
 11 39  1  0
 12 40  1  0
 12 41  1  0
 16 42  1  0
 16 43  1  0
 18 44  1  0
 19 45  1  0
 20 46  1  0
 21 47  1  0
 24 48  1  0
 24 49  1  0
 27 50  1  0
 27 51  1  0
 27 52  1  0
M  CHG  1   3   1
M  END
>  <UniqueID>  (39) 
36

>  <SMILES>  (39) 
Cc1[nH+]c(CN(C)C(=O)[C@@H]2CCC(=O)N(Cc3ccccc3F)C2)oc1C

>  <Energy>  (39) 
80.81751957439596

>  <Genealogy>  (39) 
Cc1[nH+]c(CN(C)C(=O)C2CCC(=O)N(Cc3ccccc3F)C2)oc1C (protonated)
Cc1[nH+]c(CN(C)C(=O)[C@@H]2CCC(=O)N(Cc3ccccc3F)C2)oc1C (chirality)
Cc1[nH+]c(CN(C)C(=O)[C@@H]2CCC(=O)N(Cc3ccccc3F)C2)oc1C (3D coordinates assigned)
Cc1[nH+]c(CN(C)C(=O)[C@@H]2CCC(=O)N(Cc3ccccc3F)C2)oc1C (nonaromatic ring conformer: 80.81751957439596 kcal/mol)

>  <smiles>  (39) 
Cc1nc(CN(C)C(=O)C2CCC(=O)N(Cc3ccccc3F)C2)oc1C

>  <score_type>  (39) 
oracle

>  <origin>  (39) 
adg

>  <m_score__min__energy>  (39) 
-9.0700000000000003

>  <m_primary>  (39) 
energy

$$$$
39:0
     RDKit          3D

 43 46  0  0  0  0  0  0  0  0999 V2000
   -3.2070   24.5110  -28.2810 C   0  0  0  0  0  0  0  0  0  0  0  0
   -4.3320   24.1900  -29.2200 C   0  0  0  0  0  0  0  0  0  0  0  0
   -5.0350   22.9820  -29.0980 C   0  0  0  0  0  0  0  0  0  0  0  0
   -6.0620   22.6720  -29.9950 C   0  0  0  0  0  0  0  0  0  0  0  0
   -6.3840   23.5490  -31.0470 C   0  0  0  0  0  0  0  0  0  0  0  0
   -7.5150   23.1730  -31.9800 C   0  0  0  0  0  0  0  0  0  0  0  0
   -7.7380   21.7190  -32.0420 N   0  0  0  0  0  0  0  0  0  0  0  0
   -9.0990   21.2430  -31.7640 C   0  0  0  0  0  0  0  0  0  0  0  0
   -9.1240   19.7410  -31.5390 C   0  0  0  0  0  0  0  0  0  0  0  0
   -8.4430   19.0440  -32.7110 C   0  0  0  0  0  0  0  0  0  0  0  0
   -7.0550   19.5130  -32.8750 N   0  0  0  0  0  0  0  0  0  0  0  0
   -6.7220   20.8090  -32.5480 C   0  0  0  0  0  0  0  0  0  0  0  0
   -5.4220   21.2220  -32.6660 N   0  0  0  0  0  0  0  0  0  0  0  0
   -4.4580   20.4030  -33.1660 C   0  0  0  0  0  0  0  0  0  0  0  0
   -3.1320   20.8580  -33.2890 C   0  0  0  0  0  0  0  0  0  0  0  0
   -2.1460   20.0190  -33.8170 C   0  0  0  0  0  0  0  0  0  0  0  0
   -0.4950   20.5950  -33.9710 Cl  0  0  0  0  0  0  0  0  0  0  0  0
   -2.4760   18.7220  -34.2240 C   0  0  0  0  0  0  0  0  0  0  0  0
   -3.7890   18.2600  -34.1020 C   0  0  0  0  0  0  0  0  0  0  0  0
   -4.7890   19.0980  -33.5690 C   0  0  0  0  0  0  0  0  0  0  0  0
   -6.1160   18.6710  -33.4160 C   0  0  0  0  0  0  0  0  0  0  0  0
   -6.4420   17.5050  -33.7810 O   0  0  0  0  0  0  0  0  0  0  0  0
   -5.6670   24.7570  -31.1710 C   0  0  0  0  0  0  0  0  0  0  0  0
   -4.6470   25.0690  -30.2680 C   0  0  0  0  0  0  0  0  0  0  0  0
   -3.5563   24.4113  -27.2427 H   0  0  0  0  0  0  0  0  0  0  0  0
   -2.3735   23.8148  -28.4559 H   0  0  0  0  0  0  0  0  0  0  0  0
   -2.8663   25.5422  -28.4559 H   0  0  0  0  0  0  0  0  0  0  0  0
   -4.7775   22.2765  -28.2942 H   0  0  0  0  0  0  0  0  0  0  0  0
   -6.6235   21.7335  -29.8770 H   0  0  0  0  0  0  0  0  0  0  0  0
   -8.4381   23.6563  -31.6274 H   0  0  0  0  0  0  0  0  0  0  0  0
   -7.2403   23.5114  -32.9900 H   0  0  0  0  0  0  0  0  0  0  0  0
   -9.4774   21.7466  -30.8622 H   0  0  0  0  0  0  0  0  0  0  0  0
   -9.7317   21.4740  -32.6337 H   0  0  0  0  0  0  0  0  0  0  0  0
   -8.5902   19.5001  -30.6079 H   0  0  0  0  0  0  0  0  0  0  0  0
  -10.1661   19.3976  -31.4615 H   0  0  0  0  0  0  0  0  0  0  0  0
   -8.4363   17.9592  -32.5289 H   0  0  0  0  0  0  0  0  0  0  0  0
   -9.0015   19.2791  -33.6291 H   0  0  0  0  0  0  0  0  0  0  0  0
   -5.1420   22.1770  -32.3530 H   0  0  0  0  0  0  0  0  0  0  0  0
   -2.8703   21.8773  -32.9686 H   0  0  0  0  0  0  0  0  0  0  0  0
   -1.6996   18.0639  -34.6413 H   0  0  0  0  0  0  0  0  0  0  0  0
   -4.0430   17.2390  -34.4230 H   0  0  0  0  0  0  0  0  0  0  0  0
   -5.9119   25.4576  -31.9829 H   0  0  0  0  0  0  0  0  0  0  0  0
   -4.0874   26.0095  -30.3793 H   0  0  0  0  0  0  0  0  0  0  0  0
  1  2  1  0
  2  3  2  0
  3  4  1  0
  4  5  2  0
  5  6  1  0
  6  7  1  0
  7  8  1  0
  8  9  1  0
  9 10  1  0
 10 11  1  0
 11 12  1  0
 12 13  2  0
 13 14  1  0
 14 15  2  0
 15 16  1  0
 16 17  1  0
 16 18  2  0
 18 19  1  0
 19 20  2  0
 20 21  1  0
 21 22  2  0
  5 23  1  0
 23 24  2  0
 24  2  1  0
 12  7  1  0
 20 14  1  0
 21 11  1  0
  1 25  1  0
  1 26  1  0
  1 27  1  0
  3 28  1  0
  4 29  1  0
  6 30  1  0
  6 31  1  0
  8 32  1  0
  8 33  1  0
  9 34  1  0
  9 35  1  0
 10 36  1  0
 10 37  1  0
 13 38  1  0
 15 39  1  0
 18 40  1  0
 19 41  1  0
 23 42  1  0
 24 43  1  0
M  CHG  1  13   1
M  END
>  <UniqueID>  (40) 
37

>  <SMILES>  (40) 
Cc1ccc(CN2CCCn3c2[nH+]c2cc(Cl)ccc2c3=O)cc1

>  <Energy>  (40) 
54.940519160150686

>  <Genealogy>  (40) 
Cc1ccc(CN2CCCn3c2[nH+]c2cc(Cl)ccc2c3=O)cc1 (protonated)
Cc1ccc(CN2CCCn3c2[nH+]c2cc(Cl)ccc2c3=O)cc1 (3D coordinates assigned)
Cc1ccc(CN2CCCn3c2[nH+]c2cc(Cl)ccc2c3=O)cc1 (nonaromatic ring conformer: 54.940519160150686 kcal/mol)

>  <smiles>  (40) 
Cc1ccc(CN2CCCn3c2nc2cc(Cl)ccc2c3=O)cc1

>  <score_type>  (40) 
oracle

>  <origin>  (40) 
adg

>  <m_score__min__energy>  (40) 
-8.2699999999999996

>  <m_primary>  (40) 
energy

$$$$
40:0
     RDKit          3D

 40 43  0  0  0  0  0  0  0  0999 V2000
   -1.4724   17.8632  -33.7191 H   0  0  0  0  0  0  0  0  0  0  0  0
   -1.6670   18.8510  -33.2760 C   0  0  0  0  0  0  0  0  0  0  0  0
   -2.3080   19.8410  -34.0280 C   0  0  0  0  0  0  0  0  0  0  0  0
   -2.6275   19.6278  -35.0588 H   0  0  0  0  0  0  0  0  0  0  0  0
   -2.5430   21.1020  -33.4700 C   0  0  0  0  0  0  0  0  0  0  0  0
   -3.0643   21.8725  -34.0570 H   0  0  0  0  0  0  0  0  0  0  0  0
   -2.1170   21.3870  -32.1670 C   0  0  0  0  0  0  0  0  0  0  0  0
   -2.4010   22.6760  -31.6030 N   0  0  0  0  0  0  0  0  0  0  0  0
   -3.5070   23.1530  -31.0950 C   0  0  0  0  0  0  0  0  0  0  0  0
   -3.4130   24.3490  -30.4600 N   0  0  0  0  0  0  0  0  0  0  0  0
   -4.4780   25.0290  -30.0470 N   0  0  0  0  0  0  0  0  0  0  0  0
   -5.7410   24.5780  -30.2410 C   0  0  0  0  0  0  0  0  0  0  0  0
   -6.8780   25.4410  -29.7720 C   0  0  0  0  0  0  0  0  0  0  0  0
   -6.8976   25.4559  -28.6723 H   0  0  0  0  0  0  0  0  0  0  0  0
   -6.7414   26.4649  -30.1502 H   0  0  0  0  0  0  0  0  0  0  0  0
   -7.8274   25.0341  -30.1502 H   0  0  0  0  0  0  0  0  0  0  0  0
   -5.9340   23.3070  -30.8220 C   0  0  0  0  0  0  0  0  0  0  0  0
   -7.2270   22.7670  -30.9890 C   0  0  0  0  0  0  0  0  0  0  0  0
   -8.1079   23.3818  -30.7523 H   0  0  0  0  0  0  0  0  0  0  0  0
   -7.4010   21.4590  -31.4520 C   0  0  0  0  0  0  0  0  0  0  0  0
   -8.6890   20.9250  -31.6160 C   0  0  0  0  0  0  0  0  0  0  0  0
   -9.5708   21.5499  -31.4112 H   0  0  0  0  0  0  0  0  0  0  0  0
   -8.8560   19.6040  -32.0380 C   0  0  0  0  0  0  0  0  0  0  0  0
   -9.8687   19.1946  -32.1678 H   0  0  0  0  0  0  0  0  0  0  0  0
   -7.7340   18.7940  -32.2980 C   0  0  0  0  0  0  0  0  0  0  0  0
   -7.8520   17.4610  -32.7200 O   0  0  0  0  0  0  0  0  0  0  0  0
   -6.8290   16.7360  -33.3930 C   0  0  0  0  0  0  0  0  0  0  0  0
   -6.1653   16.2656  -32.6526 H   0  0  0  0  0  0  0  0  0  0  0  0
   -7.2848   15.9582  -34.0233 H   0  0  0  0  0  0  0  0  0  0  0  0
   -6.2462   17.4238  -34.0233 H   0  0  0  0  0  0  0  0  0  0  0  0
   -6.4510   19.3270  -32.1320 C   0  0  0  0  0  0  0  0  0  0  0  0
   -5.5707   18.6972  -32.3280 H   0  0  0  0  0  0  0  0  0  0  0  0
   -6.2750   20.6570  -31.7180 C   0  0  0  0  0  0  0  0  0  0  0  0
   -4.9900   21.1900  -31.5610 C   0  0  0  0  0  0  0  0  0  0  0  0
   -4.1148   20.5427  -31.7195 H   0  0  0  0  0  0  0  0  0  0  0  0
   -4.7950   22.5430  -31.2030 C   0  0  0  0  0  0  0  0  0  0  0  0
   -1.5070   20.3760  -31.3990 C   0  0  0  0  0  0  0  0  0  0  0  0
   -1.1550   20.6060  -30.1100 F   0  0  0  0  0  0  0  0  0  0  0  0
   -1.2740   19.1170  -31.9620 C   0  0  0  0  0  0  0  0  0  0  0  0
   -0.7798   18.3339  -31.3683 H   0  0  0  0  0  0  0  0  0  0  0  0
  1  2  1  0
  2  3  2  0
  3  4  1  0
  3  5  1  0
  5  6  1  0
  5  7  2  0
  7  8  1  0
  8  9  2  0
  9 10  1  0
 10 11  1  0
 11 12  2  0
 12 13  1  0
 13 14  1  0
 13 15  1  0
 13 16  1  0
 12 17  1  0
 17 18  2  0
 18 19  1  0
 18 20  1  0
 20 21  2  0
 21 22  1  0
 21 23  1  0
 23 24  1  0
 23 25  2  0
 25 26  1  0
 26 27  1  0
 27 28  1  0
 27 29  1  0
 27 30  1  0
 25 31  1  0
 31 32  1  0
 31 33  2  0
 33 34  1  0
 34 35  1  0
 34 36  2  0
  7 37  1  0
 37 38  1  0
 37 39  2  0
 39 40  1  0
 39  2  1  0
 36  9  1  0
 36 17  1  0
 33 20  1  0
M  CHG  1  10  -1
M  END
>  <UniqueID>  (41) 
38

>  <SMILES>  (41) 
COc1ccc2cc3c(C)n[n-]/c(=N/c4ccccc4F)c3cc2c1

>  <Energy>  (41) 
73.31551167515047

>  <Genealogy>  (41) 
COc1ccc2cc3c(C)n[n-]c(=Nc4ccccc4F)c3cc2c1 (protonated)
COc1ccc2cc3c(C)n[n-]/c(=N/c4ccccc4F)c3cc2c1 (cis-trans isomerization)
COc1ccc2cc3c(C)n[n-]/c(=N/c4ccccc4F)c3cc2c1 (3D coordinates assigned)
COc1ccc2cc3c(C)n[n-]/c(=N/c4ccccc4F)c3cc2c1 (optimized conformer: 73.31551167515047 kcal/mol)

>  <smiles>  (41) 
COc1ccc2cc3c(C)n[nH]c(=Nc4ccccc4F)c3cc2c1

>  <score_type>  (41) 
oracle

>  <origin>  (41) 
adg

>  <m_score__min__energy>  (41) 
-9.2699999999999996

>  <m_primary>  (41) 
energy

$$$$
41:0
     RDKit          3D

 44 47  0  0  0  0  0  0  0  0999 V2000
   -2.3860   15.5530  -33.3770 C   0  0  0  0  0  0  0  0  0  0  0  0
   -3.7550   16.1470  -33.3390 C   0  0  0  0  0  0  0  0  0  0  0  0
   -4.1340   17.2170  -34.0730 N   0  0  0  0  0  0  0  0  0  0  0  0
   -5.4110   17.6040  -33.8050 C   0  0  0  0  0  0  0  0  0  0  0  0
   -6.0770   18.7360  -34.5340 C   0  0  0  0  0  0  0  0  0  0  0  0
   -6.0690   19.9610  -33.7090 N   0  0  0  0  0  0  0  0  0  0  0  0
   -4.8890   19.9960  -32.8060 C   0  0  0  0  0  0  0  0  0  0  0  0
   -5.0490   20.9950  -31.6370 C   0  0  0  0  0  0  0  0  0  0  0  0
   -6.0650   22.1080  -31.9820 C   0  0  1  0  0  0  0  0  0  0  0  0
   -7.4250   21.4930  -32.3330 C   0  0  2  0  0  0  0  0  0  0  0  0
   -8.2110   21.5340  -31.0290 C   0  0  0  0  0  0  0  0  0  0  0  0
   -7.6150   22.6970  -30.2450 C   0  0  0  0  0  0  0  0  0  0  0  0
   -6.3340   23.0530  -30.8820 N   0  0  0  0  0  0  0  0  0  0  0  0
   -5.1760   23.4520  -30.0410 C   0  0  0  0  0  0  0  0  0  0  0  0
   -3.8990   23.6810  -30.8200 C   0  0  0  0  0  0  0  0  0  0  0  0
   -3.8620   25.0490  -30.4880 O   0  0  0  0  0  0  0  0  0  0  0  0
   -5.0400   24.9280  -29.7240 C   0  0  0  0  0  0  0  0  0  0  0  0
   -7.3210   20.0740  -32.9380 C   0  0  0  0  0  0  0  0  0  0  0  0
   -6.0640   16.8370  -32.8420 C   0  0  0  0  0  0  0  0  0  0  0  0
   -4.9910   15.6530  -32.3120 S   0  0  0  0  0  0  0  0  0  0  0  0
   -2.0255   15.3966  -32.3496 H   0  0  0  0  0  0  0  0  0  0  0  0
   -2.4193   14.5884  -33.9047 H   0  0  0  0  0  0  0  0  0  0  0  0
   -1.7044   16.2363  -33.9047 H   0  0  0  0  0  0  0  0  0  0  0  0
   -3.5140   17.6910  -34.7680 H   0  0  0  0  0  0  0  0  0  0  0  0
   -5.5372   18.9288  -35.4729 H   0  0  0  0  0  0  0  0  0  0  0  0
   -7.1199   18.4573  -34.7453 H   0  0  0  0  0  0  0  0  0  0  0  0
   -4.7379   18.9897  -32.3883 H   0  0  0  0  0  0  0  0  0  0  0  0
   -4.0277   20.3271  -33.4047 H   0  0  0  0  0  0  0  0  0  0  0  0
   -5.4012   20.4519  -30.7476 H   0  0  0  0  0  0  0  0  0  0  0  0
   -4.0726   21.4643  -31.4462 H   0  0  0  0  0  0  0  0  0  0  0  0
   -5.5994   22.6506  -32.8180 H   0  0  0  0  0  0  0  0  0  0  0  0
   -7.9294   22.0568  -33.1316 H   0  0  0  0  0  0  0  0  0  0  0  0
   -9.2790   21.7081  -31.2267 H   0  0  0  0  0  0  0  0  0  0  0  0
   -8.1434   20.5855  -30.4761 H   0  0  0  0  0  0  0  0  0  0  0  0
   -8.2995   23.5577  -30.2720 H   0  0  0  0  0  0  0  0  0  0  0  0
   -7.4586   22.4146  -29.1934 H   0  0  0  0  0  0  0  0  0  0  0  0
   -5.3137   22.6871  -29.2626 H   0  0  0  0  0  0  0  0  0  0  0  0
   -3.0410   23.1125  -30.4319 H   0  0  0  0  0  0  0  0  0  0  0  0
   -3.8629   23.3896  -31.8801 H   0  0  0  0  0  0  0  0  0  0  0  0
   -4.8922   25.1352  -28.6538 H   0  0  0  0  0  0  0  0  0  0  0  0
   -5.8850   25.5993  -29.9367 H   0  0  0  0  0  0  0  0  0  0  0  0
   -7.3222   19.3290  -32.1287 H   0  0  0  0  0  0  0  0  0  0  0  0
   -8.1791   19.8939  -33.6022 H   0  0  0  0  0  0  0  0  0  0  0  0
   -7.0966   16.9798  -32.4908 H   0  0  0  0  0  0  0  0  0  0  0  0
  1  2  1  0
  2  3  2  0
  3  4  1  0
  4  5  1  0
  5  6  1  0
  6  7  1  0
  7  8  1  0
  8  9  1  0
  9 10  1  0
 10 11  1  0
 11 12  1  0
 12 13  1  0
 13 14  1  0
 14 15  1  0
 15 16  1  0
 16 17  1  0
 10 18  1  0
  4 19  2  0
 19 20  1  0
 20  2  1  0
 18  6  1  0
 13  9  1  0
 17 14  1  0
  1 21  1  0
  1 22  1  0
  1 23  1  0
  3 24  1  0
  5 25  1  0
  5 26  1  0
  7 27  1  0
  7 28  1  0
  8 29  1  0
  8 30  1  0
  9 31  1  6
 10 32  1  6
 11 33  1  0
 11 34  1  0
 12 35  1  0
 12 36  1  0
 14 37  1  0
 15 38  1  0
 15 39  1  0
 17 40  1  0
 17 41  1  0
 18 42  1  0
 18 43  1  0
 19 44  1  0
M  CHG  1   3   1
M  END
>  <UniqueID>  (42) 
39

>  <SMILES>  (42) 
Cc1[nH+]c(CN2CC[C@H]3[C@H](CCN3C3COC3)C2)cs1

>  <Energy>  (42) 
157.20194902737964

>  <Genealogy>  (42) 
Cc1[nH+]c(CN2CCC3C(CCN3C3COC3)C2)cs1 (protonated)
Cc1[nH+]c(CN2CC[C@H]3[C@H](CCN3C3COC3)C2)cs1 (chirality)
Cc1[nH+]c(CN2CC[C@H]3[C@H](CCN3C3COC3)C2)cs1 (3D coordinates assigned)
Cc1[nH+]c(CN2CC[C@H]3[C@H](CCN3C3COC3)C2)cs1 (nonaromatic ring conformer: 157.20194902737964 kcal/mol)

>  <smiles>  (42) 
Cc1nc(CN2CCC3C(CCN3C3COC3)C2)cs1

>  <score_type>  (42) 
oracle

>  <origin>  (42) 
adg

>  <m_score__min__energy>  (42) 
-7.4199999999999999

>  <m_primary>  (42) 
energy

$$$$
42:0
     RDKit          3D

 26 27  0  0  0  0  0  0  0  0999 V2000
   -4.0359   22.5508  -30.7153 H   0  0  0  0  0  0  0  0  0  0  0  0
   -4.8130   22.8110  -31.4490 C   0  0  0  0  0  0  0  0  0  0  0  0
   -5.0130   24.0620  -31.7250 N   0  0  0  0  0  0  0  0  0  0  0  0
   -4.7110   25.0710  -30.8380 O   0  0  0  0  0  0  0  0  0  0  0  0
   -5.7320   25.6740  -30.0610 C   0  0  0  0  0  0  0  0  0  0  0  0
   -5.5066   25.5409  -28.9926 H   0  0  0  0  0  0  0  0  0  0  0  0
   -5.7841   26.7478  -30.2938 H   0  0  0  0  0  0  0  0  0  0  0  0
   -6.6975   25.2011  -30.2938 H   0  0  0  0  0  0  0  0  0  0  0  0
   -5.5830   21.7240  -32.0770 C   0  0  0  0  0  0  0  0  0  0  0  0
   -5.0740   20.7970  -32.9850 C   0  0  0  0  0  0  0  0  0  0  0  0
   -4.0252   20.7481  -33.3132 H   0  0  0  0  0  0  0  0  0  0  0  0
   -6.0570   19.9650  -33.4050 N   0  0  0  0  0  0  0  0  0  0  0  0
   -5.9260   18.8980  -34.3930 C   0  0  0  0  0  0  0  0  0  0  0  0
   -5.8076   17.9335  -33.8775 H   0  0  0  0  0  0  0  0  0  0  0  0
   -6.8273   18.8689  -35.0229 H   0  0  0  0  0  0  0  0  0  0  0  0
   -5.0444   19.0878  -35.0229 H   0  0  0  0  0  0  0  0  0  0  0  0
   -7.1840   20.3810  -32.7970 C   0  0  0  0  0  0  0  0  0  0  0  0
   -6.9400   21.4560  -31.9850 C   0  0  0  0  0  0  0  0  0  0  0  0
   -7.9850   22.1110  -31.3340 C   0  0  0  0  0  0  0  0  0  0  0  0
   -7.8011   22.9973  -30.7089 H   0  0  0  0  0  0  0  0  0  0  0  0
   -9.2820   21.5970  -31.5060 C   0  0  0  0  0  0  0  0  0  0  0  0
  -10.1344   22.0690  -30.9954 H   0  0  0  0  0  0  0  0  0  0  0  0
   -9.4880   20.4730  -32.3360 C   0  0  0  0  0  0  0  0  0  0  0  0
  -10.5027   20.0682  -32.4646 H   0  0  0  0  0  0  0  0  0  0  0  0
   -8.4360   19.8840  -32.9810 N   0  0  0  0  0  0  0  0  0  0  0  0
   -8.6050   19.0690  -33.6120 H   0  0  0  0  0  0  0  0  0  0  0  0
  1  2  1  0
  2  3  2  0
  3  4  1  0
  4  5  1  0
  5  6  1  0
  5  7  1  0
  5  8  1  0
  2  9  1  0
  9 10  2  0
 10 11  1  0
 10 12  1  0
 12 13  1  0
 13 14  1  0
 13 15  1  0
 13 16  1  0
 12 17  1  0
 17 18  2  0
 18 19  1  0
 19 20  1  0
 19 21  2  0
 21 22  1  0
 21 23  1  0
 23 24  1  0
 23 25  2  0
 25 26  1  0
 18  9  1  0
 25 17  1  0
M  CHG  1  25   1
M  END
>  <UniqueID>  (43) 
40

>  <SMILES>  (43) 
CO/N=C\c1cn(C)c2[nH+]cccc12

>  <Energy>  (43) 
61.47773480905103

>  <Genealogy>  (43) 
CON=Cc1cn(C)c2[nH+]cccc12 (protonated)
CO/N=C\c1cn(C)c2[nH+]cccc12 (cis-trans isomerization)
CO/N=C\c1cn(C)c2[nH+]cccc12 (3D coordinates assigned)
CO/N=C\c1cn(C)c2[nH+]cccc12 (optimized conformer: 61.47773480905103 kcal/mol)

>  <smiles>  (43) 
CON=Cc1cn(C)c2ncccc12

>  <score_type>  (43) 
oracle

>  <origin>  (43) 
adg

>  <m_score__min__energy>  (43) 
-6.2300000000000004

>  <m_primary>  (43) 
energy

$$$$
43:0
     RDKit          3D

 46 48  0  0  0  0  0  0  0  0999 V2000
   -3.7460   24.1940  -27.8260 C   0  0  0  0  0  0  0  0  0  0  0  0
   -2.5060   24.2950  -28.7000 C   0  0  0  0  0  0  0  0  0  0  0  0
   -2.8340   23.9360  -30.0370 O   0  0  0  0  0  0  0  0  0  0  0  0
   -4.1280   24.0550  -30.5540 C   0  0  0  0  0  0  0  0  0  0  0  0
   -4.5780   25.1850  -30.8910 O   0  0  0  0  0  0  0  0  0  0  0  0
   -4.9900   22.8240  -30.6630 C   0  0  2  0  0  0  0  0  0  0  0  0
   -4.2360   21.6070  -30.2110 C   0  0  0  0  0  0  0  0  0  0  0  0
   -3.7900   21.5520  -29.0750 O   0  0  0  0  0  0  0  0  0  0  0  0
   -4.1040   20.4250  -31.1190 C   0  0  0  0  0  0  0  0  0  0  0  0
   -3.8210   20.8440  -32.5840 C   0  0  2  0  0  0  0  0  0  0  0  0
   -2.3290   20.9250  -32.9060 C   0  0  0  0  0  0  0  0  0  0  0  0
   -1.4170   21.1640  -31.8590 C   0  0  0  0  0  0  0  0  0  0  0  0
   -0.0420   21.1920  -32.1060 C   0  0  0  0  0  0  0  0  0  0  0  0
    0.4430   20.9710  -33.3950 C   0  0  0  0  0  0  0  0  0  0  0  0
   -0.4470   20.7110  -34.4390 C   0  0  0  0  0  0  0  0  0  0  0  0
   -1.8230   20.6800  -34.1990 C   0  0  0  0  0  0  0  0  0  0  0  0
   -4.5280   22.0850  -33.0280 N   0  0  0  0  0  0  0  0  0  0  0  0
   -5.5460   22.6550  -32.1070 C   0  0  1  0  0  0  0  0  0  0  0  0
   -6.9080   21.9460  -32.1260 C   0  0  0  0  0  0  0  0  0  0  0  0
   -7.1200   20.6660  -32.6840 C   0  0  0  0  0  0  0  0  0  0  0  0
   -8.3930   20.0850  -32.6730 C   0  0  0  0  0  0  0  0  0  0  0  0
   -9.4750   20.7720  -32.1240 C   0  0  0  0  0  0  0  0  0  0  0  0
   -9.2910   22.0490  -31.5940 C   0  0  0  0  0  0  0  0  0  0  0  0
   -8.0220   22.6340  -31.6010 C   0  0  0  0  0  0  0  0  0  0  0  0
   -3.4508   24.2180  -26.7666 H   0  0  0  0  0  0  0  0  0  0  0  0
   -4.4151   25.0406  -28.0395 H   0  0  0  0  0  0  0  0  0  0  0  0
   -4.2692   23.2503  -28.0395 H   0  0  0  0  0  0  0  0  0  0  0  0
   -2.1275   25.3277  -28.6806 H   0  0  0  0  0  0  0  0  0  0  0  0
   -1.7329   23.6123  -28.3176 H   0  0  0  0  0  0  0  0  0  0  0  0
   -5.8548   22.9473  -29.9945 H   0  0  0  0  0  0  0  0  0  0  0  0
   -3.2748   19.7956  -30.7636 H   0  0  0  0  0  0  0  0  0  0  0  0
   -5.0573   19.8764  -31.1017 H   0  0  0  0  0  0  0  0  0  0  0  0
   -4.2523   20.0208  -33.1725 H   0  0  0  0  0  0  0  0  0  0  0  0
   -1.7908   21.3301  -30.8379 H   0  0  0  0  0  0  0  0  0  0  0  0
    0.6596   21.3888  -31.2820 H   0  0  0  0  0  0  0  0  0  0  0  0
    1.5254   21.0015  -33.5888 H   0  0  0  0  0  0  0  0  0  0  0  0
   -0.0634   20.5300  -35.4539 H   0  0  0  0  0  0  0  0  0  0  0  0
   -2.5166   20.4629  -35.0247 H   0  0  0  0  0  0  0  0  0  0  0  0
   -3.8250   22.8420  -33.2020 H   0  0  0  0  0  0  0  0  0  0  0  0
   -4.9660   21.9180  -33.9640 H   0  0  0  0  0  0  0  0  0  0  0  0
   -5.7570   23.6569  -32.5092 H   0  0  0  0  0  0  0  0  0  0  0  0
   -6.2762   20.1204  -33.1316 H   0  0  0  0  0  0  0  0  0  0  0  0
   -8.5407   19.0818  -33.0994 H   0  0  0  0  0  0  0  0  0  0  0  0
  -10.4721   20.3077  -32.1089 H   0  0  0  0  0  0  0  0  0  0  0  0
  -10.1459   22.5962  -31.1700 H   0  0  0  0  0  0  0  0  0  0  0  0
   -7.8897   23.6461  -31.1910 H   0  0  0  0  0  0  0  0  0  0  0  0
  1  2  1  0
  2  3  1  0
  3  4  1  0
  4  5  2  0
  4  6  1  0
  6  7  1  0
  7  8  2  0
  7  9  1  0
  9 10  1  0
 10 11  1  0
 11 12  2  0
 12 13  1  0
 13 14  2  0
 14 15  1  0
 15 16  2  0
 10 17  1  0
 17 18  1  0
 18 19  1  0
 19 20  2  0
 20 21  1  0
 21 22  2  0
 22 23  1  0
 23 24  2  0
 18  6  1  0
 24 19  1  0
 16 11  1  0
  1 25  1  0
  1 26  1  0
  1 27  1  0
  2 28  1  0
  2 29  1  0
  6 30  1  1
  9 31  1  0
  9 32  1  0
 10 33  1  6
 12 34  1  0
 13 35  1  0
 14 36  1  0
 15 37  1  0
 16 38  1  0
 17 39  1  0
 17 40  1  0
 18 41  1  6
 20 42  1  0
 21 43  1  0
 22 44  1  0
 23 45  1  0
 24 46  1  0
M  CHG  1  17   1
M  END
>  <UniqueID>  (44) 
41

>  <SMILES>  (44) 
CCOC(=O)[C@@H]1C(=O)C[C@H](c2ccccc2)[NH2+]C1c1ccccc1

>  <Energy>  (44) 
60.09475957603489

>  <Genealogy>  (44) 
CCOC(=O)C1C(=O)CC(c2ccccc2)[NH2+]C1c1ccccc1 (protonated)
CCOC(=O)[C@@H]1C(=O)C[C@H](c2ccccc2)[NH2+]C1c1ccccc1 (chirality)
CCOC(=O)[C@@H]1C(=O)C[C@H](c2ccccc2)[NH2+]C1c1ccccc1 (3D coordinates assigned)
CCOC(=O)[C@@H]1C(=O)C[C@H](c2ccccc2)[NH2+]C1c1ccccc1 (nonaromatic ring conformer: 60.09475957603489 kcal/mol)

>  <smiles>  (44) 
CCOC(=O)C1C(=O)CC(c2ccccc2)NC1c1ccccc1

>  <score_type>  (44) 
oracle

>  <origin>  (44) 
adg

>  <m_score__min__energy>  (44) 
-8.25

>  <m_primary>  (44) 
energy

$$$$
44:0
     RDKit          3D

 20 20  0  0  0  0  0  0  0  0999 V2000
   -2.6080   24.9290  -26.8250 C   0  0  0  0  0  0  0  0  0  0  0  0
   -1.4420   25.7470  -26.8560 O   0  0  0  0  0  0  0  0  0  0  0  0
   -0.6500   26.0640  -25.7380 C   0  0  0  0  0  0  0  0  0  0  0  0
    0.6950   26.0050  -25.7740 C   0  0  0  0  0  0  0  0  0  0  0  0
    1.5480   26.4320  -24.6060 C   0  0  0  0  0  0  0  0  0  0  0  0
    0.8130   26.3920  -23.3340 N   0  0  0  0  0  0  0  0  0  0  0  0
   -0.4610   27.1130  -23.4490 C   0  0  0  0  0  0  0  0  0  0  0  0
   -1.3750   26.4220  -24.4670 C   0  0  0  0  0  0  0  0  0  0  0  0
   -2.8896   24.7314  -25.7802 H   0  0  0  0  0  0  0  0  0  0  0  0
   -3.4331   25.4472  -27.3354 H   0  0  0  0  0  0  0  0  0  0  0  0
   -2.4015   23.9767  -27.3354 H   0  0  0  0  0  0  0  0  0  0  0  0
    1.1873   25.6333  -26.6848 H   0  0  0  0  0  0  0  0  0  0  0  0
    2.4141   25.7576  -24.5354 H   0  0  0  0  0  0  0  0  0  0  0  0
    1.8614   27.4718  -24.7808 H   0  0  0  0  0  0  0  0  0  0  0  0
    0.6380   25.3980  -23.0570 H   0  0  0  0  0  0  0  0  0  0  0  0
    1.3950   26.8460  -22.5920 H   0  0  0  0  0  0  0  0  0  0  0  0
   -0.9582   27.1295  -22.4679 H   0  0  0  0  0  0  0  0  0  0  0  0
   -0.2608   28.1401  -23.7881 H   0  0  0  0  0  0  0  0  0  0  0  0
   -1.7737   25.5012  -24.0162 H   0  0  0  0  0  0  0  0  0  0  0  0
   -2.1805   27.1247  -24.7264 H   0  0  0  0  0  0  0  0  0  0  0  0
  1  2  1  0
  2  3  1  0
  3  4  2  0
  4  5  1  0
  5  6  1  0
  6  7  1  0
  7  8  1  0
  8  3  1  0
  1  9  1  0
  1 10  1  0
  1 11  1  0
  4 12  1  0
  5 13  1  0
  5 14  1  0
  6 15  1  0
  6 16  1  0
  7 17  1  0
  7 18  1  0
  8 19  1  0
  8 20  1  0
M  CHG  1   6   1
M  END
>  <UniqueID>  (45) 
42

>  <SMILES>  (45) 
COC1=CC[NH2+]CC1

>  <Energy>  (45) 
17.354224937397614

>  <Genealogy>  (45) 
COC1=CC[NH2+]CC1 (protonated)
COC1=CC[NH2+]CC1 (3D coordinates assigned)
COC1=CC[NH2+]CC1 (nonaromatic ring conformer: 17.354224937397614 kcal/mol)

>  <smiles>  (45) 
COC1=CCNCC1

>  <score_type>  (45) 
oracle

>  <origin>  (45) 
adg

>  <m_score__min__energy>  (45) 
-3.79

>  <m_primary>  (45) 
energy

$$$$
45:0
     RDKit          3D

 40 42  0  0  0  0  0  0  0  0999 V2000
   -1.7656   16.2491  -35.3252 H   0  0  0  0  0  0  0  0  0  0  0  0
   -2.5190   16.9430  -34.9240 C   0  0  0  0  0  0  0  0  0  0  0  0
   -2.1170   18.0840  -34.2260 C   0  0  0  0  0  0  0  0  0  0  0  0
   -1.0463   18.2868  -34.0764 H   0  0  0  0  0  0  0  0  0  0  0  0
   -3.0720   18.9690  -33.7170 C   0  0  0  0  0  0  0  0  0  0  0  0
   -2.7472   19.8649  -33.1675 H   0  0  0  0  0  0  0  0  0  0  0  0
   -4.4480   18.7230  -33.9020 C   0  0  0  0  0  0  0  0  0  0  0  0
   -5.4740   19.6550  -33.3650 C   0  0  0  0  0  0  0  0  0  0  0  0
   -5.1530   21.1910  -32.7140 S   0  0  0  0  0  0  0  0  0  0  0  0
   -6.7520   21.5590  -32.3570 C   0  0  0  0  0  0  0  0  0  0  0  0
   -7.2870   22.7080  -31.7750 C   0  0  0  0  0  0  0  0  0  0  0  0
   -6.4980   23.6860  -31.4330 N   0  0  0  0  0  0  0  0  0  0  0  0
   -6.7270   24.6350  -30.3440 C   0  0  0  0  0  0  0  0  0  0  0  0
   -6.7453   24.0946  -29.3861 H   0  0  0  0  0  0  0  0  0  0  0  0
   -7.6900   25.1430  -30.5005 H   0  0  0  0  0  0  0  0  0  0  0  0
   -5.6070   25.6720  -30.3200 C   0  0  0  0  0  0  0  0  0  0  0  0
   -5.4434   26.0060  -29.2848 H   0  0  0  0  0  0  0  0  0  0  0  0
   -5.8960   26.5264  -30.9496 H   0  0  0  0  0  0  0  0  0  0  0  0
   -4.3640   25.0900  -30.8440 N   0  0  0  0  0  0  0  0  0  0  0  0
   -4.6080   24.5550  -31.7110 H   0  0  0  0  0  0  0  0  0  0  0  0
   -3.7690   24.1460  -29.8880 C   0  0  0  0  0  0  0  0  0  0  0  0
   -4.5552   23.7606  -29.2222 H   0  0  0  0  0  0  0  0  0  0  0  0
   -2.9999   24.6696  -29.3012 H   0  0  0  0  0  0  0  0  0  0  0  0
   -3.1190   22.9790  -30.6270 C   0  0  0  0  0  0  0  0  0  0  0  0
   -2.7186   22.2601  -29.8970 H   0  0  0  0  0  0  0  0  0  0  0  0
   -3.8697   22.4810  -31.2582 H   0  0  0  0  0  0  0  0  0  0  0  0
   -2.3004   23.3550  -31.2582 H   0  0  0  0  0  0  0  0  0  0  0  0
   -8.6870   22.7440  -31.5860 C   0  0  0  0  0  0  0  0  0  0  0  0
   -9.1600   23.6269  -31.1313 H   0  0  0  0  0  0  0  0  0  0  0  0
   -9.4750   21.6450  -31.9820 C   0  0  0  0  0  0  0  0  0  0  0  0
  -10.5646   21.6752  -31.8344 H   0  0  0  0  0  0  0  0  0  0  0  0
   -8.9000   20.5430  -32.5470 N   0  0  0  0  0  0  0  0  0  0  0  0
   -9.5000   19.7370  -32.8330 H   0  0  0  0  0  0  0  0  0  0  0  0
   -7.5540   20.4980  -32.7350 C   0  0  0  0  0  0  0  0  0  0  0  0
   -6.8550   19.4240  -33.2990 C   0  0  0  0  0  0  0  0  0  0  0  0
   -7.3367   18.5001  -33.6517 H   0  0  0  0  0  0  0  0  0  0  0  0
   -4.8380   17.5650  -34.6040 C   0  0  0  0  0  0  0  0  0  0  0  0
   -5.9068   17.3522  -34.7537 H   0  0  0  0  0  0  0  0  0  0  0  0
   -3.8780   16.6840  -35.1120 C   0  0  0  0  0  0  0  0  0  0  0  0
   -4.1944   15.7848  -35.6610 H   0  0  0  0  0  0  0  0  0  0  0  0
  1  2  1  0
  2  3  2  0
  3  4  1  0
  3  5  1  0
  5  6  1  0
  5  7  2  0
  7  8  1  0
  8  9  1  0
  9 10  1  0
 10 11  1  0
 11 12  2  0
 12 13  1  0
 13 14  1  0
 13 15  1  0
 13 16  1  0
 16 17  1  0
 16 18  1  0
 16 19  1  0
 19 20  1  0
 19 21  1  0
 21 22  1  0
 21 23  1  0
 21 24  1  0
 24 25  1  0
 24 26  1  0
 24 27  1  0
 11 28  1  0
 28 29  1  0
 28 30  2  0
 30 31  1  0
 30 32  1  0
 32 33  1  0
 32 34  1  0
 34 35  1  0
 35 36  1  0
  7 37  1  0
 37 38  1  0
 37 39  2  0
 39 40  1  0
 39  2  1  0
 35  8  2  0
 34 10  2  0
M  END
>  <UniqueID>  (46) 
43

>  <SMILES>  (46) 
CCNCC/N=c1\cc[nH]c2cc(-c3ccccc3)sc12

>  <Energy>  (46) 
71.54357447993318

>  <Genealogy>  (46) 
CCNCC/N=c1\cc[nH]c2cc(-c3ccccc3)sc12 (cis-trans isomerization)
CCNCC/N=c1\cc[nH]c2cc(-c3ccccc3)sc12 (3D coordinates assigned)
CCNCC/N=c1\cc[nH]c2cc(-c3ccccc3)sc12 (optimized conformer: 71.54357447993318 kcal/mol)

>  <smiles>  (46) 
CCNCCN=c1cc[nH]c2cc(-c3ccccc3)sc12

>  <score_type>  (46) 
oracle

>  <origin>  (46) 
adg

>  <m_score__min__energy>  (46) 
-7.9100000000000001

>  <m_primary>  (46) 
energy

$$$$
46:0
     RDKit          3D

 62 65  0  0  0  0  0  0  0  0999 V2000
   -7.5040   17.9540  -31.6960 C   0  0  0  0  0  0  0  0  0  0  0  0
   -8.6740   18.7680  -32.2430 C   0  0  0  0  0  0  0  0  0  0  0  0
   -9.0150   19.9430  -31.3110 C   0  0  0  0  0  0  0  0  0  0  0  0
   -7.7960   20.8310  -30.9990 C   0  0  0  0  0  0  0  0  0  0  0  0
   -7.3150   21.6580  -32.2050 C   0  0  0  0  0  0  0  0  0  0  0  0
   -5.8600   21.9290  -32.1600 N   0  0  0  0  0  0  0  0  0  0  0  0
   -5.5040   23.1370  -31.6160 C   0  0  0  0  0  0  0  0  0  0  0  0
   -4.2000   23.3950  -31.1710 C   0  0  0  0  0  0  0  0  0  0  0  0
   -3.8820   24.7130  -30.5640 C   0  0  0  0  0  0  0  0  0  0  0  0
   -4.6110   25.7100  -30.8160 O   0  0  0  0  0  0  0  0  0  0  0  0
   -2.7650   24.8540  -29.6770 N   0  0  0  0  0  0  0  0  0  0  0  0
   -2.8290   24.5650  -28.2500 C   0  0  0  0  0  0  0  0  0  0  0  0
   -2.4540   23.1300  -28.0020 C   0  0  0  0  0  0  0  0  0  0  0  0
   -3.4560   22.1480  -27.9190 C   0  0  0  0  0  0  0  0  0  0  0  0
   -3.1140   20.8030  -27.7340 C   0  0  0  0  0  0  0  0  0  0  0  0
   -1.7690   20.4300  -27.6450 C   0  0  0  0  0  0  0  0  0  0  0  0
   -0.7650   21.4000  -27.7440 C   0  0  0  0  0  0  0  0  0  0  0  0
   -1.1030   22.7460  -27.9220 C   0  0  0  0  0  0  0  0  0  0  0  0
   -3.2420   22.3800  -31.2760 C   0  0  0  0  0  0  0  0  0  0  0  0
   -2.0700   22.5690  -30.8350 O   0  0  0  0  0  0  0  0  0  0  0  0
   -3.5730   21.1670  -31.9090 C   0  0  0  0  0  0  0  0  0  0  0  0
   -2.6080   20.1490  -32.0120 C   0  0  0  0  0  0  0  0  0  0  0  0
   -2.8830   18.9600  -32.6820 C   0  0  0  0  0  0  0  0  0  0  0  0
   -1.8920   17.9150  -32.7550 N   0  0  0  0  0  0  0  0  0  0  0  0
   -0.5750   18.0080  -32.4550 C   0  0  0  0  0  0  0  0  0  0  0  0
    0.0800   16.8420  -32.6260 N   0  0  0  0  0  0  0  0  0  0  0  0
   -0.8770   15.9850  -33.0350 C   0  0  0  0  0  0  0  0  0  0  0  0
   -0.6210   14.5660  -33.4130 C   0  0  0  0  0  0  0  0  0  0  0  0
   -2.0860   16.6330  -33.1180 C   0  0  0  0  0  0  0  0  0  0  0  0
   -4.1200   18.8130  -33.3160 C   0  0  0  0  0  0  0  0  0  0  0  0
   -5.0940   19.8270  -33.2760 C   0  0  0  0  0  0  0  0  0  0  0  0
   -6.2420   19.6750  -34.2430 C   0  0  0  0  0  0  0  0  0  0  0  0
   -4.8790   20.9860  -32.4560 C   0  0  0  0  0  0  0  0  0  0  0  0
   -7.5280   17.9707  -30.5964 H   0  0  0  0  0  0  0  0  0  0  0  0
   -7.5834   16.9151  -32.0487 H   0  0  0  0  0  0  0  0  0  0  0  0
   -6.5575   18.3897  -32.0487 H   0  0  0  0  0  0  0  0  0  0  0  0
   -8.4052   19.1620  -33.2342 H   0  0  0  0  0  0  0  0  0  0  0  0
   -9.5537   18.1114  -32.3134 H   0  0  0  0  0  0  0  0  0  0  0  0
   -9.7862   20.5617  -31.7933 H   0  0  0  0  0  0  0  0  0  0  0  0
   -9.3679   19.5190  -30.3593 H   0  0  0  0  0  0  0  0  0  0  0  0
   -8.0675   21.5230  -30.1882 H   0  0  0  0  0  0  0  0  0  0  0  0
   -6.9709   20.1607  -30.7161 H   0  0  0  0  0  0  0  0  0  0  0  0
   -7.5425   21.1030  -33.1271 H   0  0  0  0  0  0  0  0  0  0  0  0
   -7.8372   22.6258  -32.1775 H   0  0  0  0  0  0  0  0  0  0  0  0
   -6.2645   23.9267  -31.5263 H   0  0  0  0  0  0  0  0  0  0  0  0
   -2.1300   25.2229  -27.7128 H   0  0  0  0  0  0  0  0  0  0  0  0
   -3.8539   24.7392  -27.8904 H   0  0  0  0  0  0  0  0  0  0  0  0
   -4.5141   22.4376  -27.9998 H   0  0  0  0  0  0  0  0  0  0  0  0
   -3.9028   20.0400  -27.6587 H   0  0  0  0  0  0  0  0  0  0  0  0
   -1.5001   19.3737  -27.4971 H   0  0  0  0  0  0  0  0  0  0  0  0
    0.2924   21.1035  -27.6817 H   0  0  0  0  0  0  0  0  0  0  0  0
   -0.3109   23.5053  -27.9995 H   0  0  0  0  0  0  0  0  0  0  0  0
   -1.6181   20.2949  -31.5549 H   0  0  0  0  0  0  0  0  0  0  0  0
   -0.0920   18.9339  -32.1094 H   0  0  0  0  0  0  0  0  0  0  0  0
   -0.5113   13.9581  -32.5028 H   0  0  0  0  0  0  0  0  0  0  0  0
   -1.4653   14.1869  -34.0076 H   0  0  0  0  0  0  0  0  0  0  0  0
    0.3025   14.5058  -34.0076 H   0  0  0  0  0  0  0  0  0  0  0  0
   -3.0419   16.1843  -33.4261 H   0  0  0  0  0  0  0  0  0  0  0  0
   -4.3371   17.8816  -33.8595 H   0  0  0  0  0  0  0  0  0  0  0  0
   -7.1800   19.5508  -33.6820 H   0  0  0  0  0  0  0  0  0  0  0  0
   -6.3094   20.5721  -34.8760 H   0  0  0  0  0  0  0  0  0  0  0  0
   -6.0736   18.7913  -34.8760 H   0  0  0  0  0  0  0  0  0  0  0  0
  1  2  1  0
  2  3  1  0
  3  4  1  0
  4  5  1  0
  5  6  1  0
  6  7  1  0
  7  8  2  0
  8  9  1  0
  9 10  2  0
  9 11  1  0
 11 12  1  0
 12 13  1  0
 13 14  2  0
 14 15  1  0
 15 16  2  0
 16 17  1  0
 17 18  2  0
  8 19  1  0
 19 20  2  0
 19 21  1  0
 21 22  2  0
 22 23  1  0
 23 24  1  0
 24 25  1  0
 25 26  2  0
 26 27  1  0
 27 28  1  0
 27 29  2  0
 23 30  2  0
 30 31  1  0
 31 32  1  0
 31 33  2  0
 33  6  1  0
 18 13  1  0
 33 21  1  0
 29 24  1  0
  1 34  1  0
  1 35  1  0
  1 36  1  0
  2 37  1  0
  2 38  1  0
  3 39  1  0
  3 40  1  0
  4 41  1  0
  4 42  1  0
  5 43  1  0
  5 44  1  0
  7 45  1  0
 12 46  1  0
 12 47  1  0
 14 48  1  0
 15 49  1  0
 16 50  1  0
 17 51  1  0
 18 52  1  0
 22 53  1  0
 25 54  1  0
 28 55  1  0
 28 56  1  0
 28 57  1  0
 29 58  1  0
 30 59  1  0
 32 60  1  0
 32 61  1  0
 32 62  1  0
M  CHG  1  11  -1
M  END
>  <UniqueID>  (47) 
44

>  <SMILES>  (47) 
CCCCCn1cc(C(=O)[N-]Cc2ccccc2)c(=O)c2cc(-n3cnc(C)c3)cc(C)c21

>  <Energy>  (47) 
116.05454415692962

>  <Genealogy>  (47) 
CCCCCn1cc(C(=O)[N-]Cc2ccccc2)c(=O)c2cc(-n3cnc(C)c3)cc(C)c21 (protonated)
CCCCCn1cc(C(=O)[N-]Cc2ccccc2)c(=O)c2cc(-n3cnc(C)c3)cc(C)c21 (3D coordinates assigned)
CCCCCn1cc(C(=O)[N-]Cc2ccccc2)c(=O)c2cc(-n3cnc(C)c3)cc(C)c21 (optimized conformer: 116.05454415692962 kcal/mol)

>  <smiles>  (47) 
CCCCCn1cc(C(=O)NCc2ccccc2)c(=O)c2cc(-n3cnc(C)c3)cc(C)c21

>  <score_type>  (47) 
oracle

>  <origin>  (47) 
adg

>  <m_score__min__energy>  (47) 
-10.58

>  <m_primary>  (47) 
energy

$$$$
47:0
     RDKit          3D

 38 39  0  0  0  0  0  0  0  0999 V2000
   -3.0890   21.4690  -29.4860 C   0  0  0  0  0  0  0  0  0  0  0  0
   -2.4430   21.6770  -30.8470 C   0  0  0  0  0  0  0  0  0  0  0  0
   -3.4320   21.9270  -31.8930 N   0  0  0  0  0  0  0  0  0  0  0  0
   -3.2260   21.3930  -33.2140 C   0  0  0  0  0  0  0  0  0  0  0  0
   -3.1970   19.9000  -33.3040 C   0  0  0  0  0  0  0  0  0  0  0  0
   -4.6050   22.7220  -31.6420 C   0  0  0  0  0  0  0  0  0  0  0  0
   -4.3470   23.9710  -31.1470 N   0  0  0  0  0  0  0  0  0  0  0  0
   -5.3550   24.8180  -30.9160 C   0  0  0  0  0  0  0  0  0  0  0  0
   -5.1220   26.0290  -30.4500 N   0  0  0  0  0  0  0  0  0  0  0  0
   -6.5870   24.4000  -31.1840 N   0  0  0  0  0  0  0  0  0  0  0  0
   -6.8650   23.1350  -31.6870 C   0  0  0  0  0  0  0  0  0  0  0  0
   -8.3010   22.9570  -31.9620 C   0  0  0  0  0  0  0  0  0  0  0  0
   -9.0640   21.4170  -31.5880 S   0  0  0  0  0  0  0  0  0  0  0  0
   -8.1000   20.0430  -32.1550 C   0  0  0  0  0  0  0  0  0  0  0  0
   -8.0990   18.7660  -31.7020 C   0  0  0  0  0  0  0  0  0  0  0  0
   -7.2840   17.8210  -32.3250 C   0  0  0  0  0  0  0  0  0  0  0  0
   -6.4770   18.1780  -33.4000 C   0  0  0  0  0  0  0  0  0  0  0  0
   -6.4920   19.4830  -33.8440 C   0  0  0  0  0  0  0  0  0  0  0  0
   -7.2800   20.3440  -33.2250 N   0  0  0  0  0  0  0  0  0  0  0  0
   -5.8570   22.3000  -31.9100 N   0  0  0  0  0  0  0  0  0  0  0  0
   -2.3613   21.7033  -28.6951 H   0  0  0  0  0  0  0  0  0  0  0  0
   -3.9617   22.1315  -29.3893 H   0  0  0  0  0  0  0  0  0  0  0  0
   -3.4112   20.4217  -29.3893 H   0  0  0  0  0  0  0  0  0  0  0  0
   -1.7629   22.5396  -30.7886 H   0  0  0  0  0  0  0  0  0  0  0  0
   -1.8996   20.7569  -31.1079 H   0  0  0  0  0  0  0  0  0  0  0  0
   -4.0405   21.7563  -33.8580 H   0  0  0  0  0  0  0  0  0  0  0  0
   -2.2289   21.7355  -33.5279 H   0  0  0  0  0  0  0  0  0  0  0  0
   -3.1887   19.4717  -32.2908 H   0  0  0  0  0  0  0  0  0  0  0  0
   -4.0885   19.5478  -33.8437 H   0  0  0  0  0  0  0  0  0  0  0  0
   -2.2925   19.5827  -33.8437 H   0  0  0  0  0  0  0  0  0  0  0  0
   -5.0460   26.1330  -29.4200 H   0  0  0  0  0  0  0  0  0  0  0  0
   -8.8358   23.7280  -31.3879 H   0  0  0  0  0  0  0  0  0  0  0  0
   -8.3665   23.0210  -33.0582 H   0  0  0  0  0  0  0  0  0  0  0  0
   -8.7344   18.4776  -30.8517 H   0  0  0  0  0  0  0  0  0  0  0  0
   -7.2795   16.7825  -31.9623 H   0  0  0  0  0  0  0  0  0  0  0  0
   -5.8359   17.4297  -33.8890 H   0  0  0  0  0  0  0  0  0  0  0  0
   -5.8649   19.7989  -34.6907 H   0  0  0  0  0  0  0  0  0  0  0  0
   -6.0400   21.3470  -32.2800 H   0  0  0  0  0  0  0  0  0  0  0  0
  1  2  1  0
  2  3  1  0
  3  4  1  0
  4  5  1  0
  3  6  1  0
  6  7  2  0
  7  8  1  0
  8  9  2  3
  8 10  1  0
 10 11  2  0
 11 12  1  0
 12 13  1  0
 13 14  1  0
 14 15  2  0
 15 16  1  0
 16 17  2  0
 17 18  1  0
 18 19  2  0
 11 20  1  0
 20  6  1  0
 19 14  1  0
  1 21  1  0
  1 22  1  0
  1 23  1  0
  2 24  1  0
  2 25  1  0
  4 26  1  0
  4 27  1  0
  5 28  1  0
  5 29  1  0
  5 30  1  0
  9 31  1  0
 12 32  1  0
 12 33  1  0
 15 34  1  0
 16 35  1  0
 17 36  1  0
 18 37  1  0
 20 38  1  0
M  END
>  <smiles>  (48) 
CCN(CC)c1nc(=N)nc(CSc2ccccn2)[nH]1

>  <score_type>  (48) 
oracle

>  <origin>  (48) 
adg

>  <m_score__min__energy>  (48) 
-6.9000000000000004

>  <m_primary>  (48) 
energy

$$$$
