0:0
     RDKit          3D

 42 44  0  0  0  0  0  0  0  0999 V2000
   -9.1060   18.7150  -31.8320 C   0  0  0  0  0  0  0  0  0  0  0  0
   -7.7530   19.4290  -31.8050 C   0  0  0  0  0  0  0  0  0  0  0  0
   -7.3590   19.9380  -33.1310 N   0  0  0  0  0  0  0  0  0  0  0  0
   -6.0910   19.3910  -33.5640 C   0  0  0  0  0  0  0  0  0  0  0  0
   -6.0580   18.4060  -34.5660 C   0  0  0  0  0  0  0  0  0  0  0  0
   -4.8410   17.9040  -35.0240 C   0  0  0  0  0  0  0  0  0  0  0  0
   -3.6530   18.3880  -34.4770 C   0  0  0  0  0  0  0  0  0  0  0  0
   -3.6890   19.3320  -33.5020 N   0  0  0  0  0  0  0  0  0  0  0  0
   -4.8610   19.8420  -33.0290 C   0  0  0  0  0  0  0  0  0  0  0  0
   -4.8160   20.8200  -31.9850 N   0  0  0  0  0  0  0  0  0  0  0  0
   -4.1430   20.4880  -30.7240 C   0  0  0  0  0  0  0  0  0  0  0  0
   -3.5000   21.7460  -30.1310 C   0  0  0  0  0  0  0  0  0  0  0  0
   -4.4100   22.9020  -30.2040 N   0  0  0  0  0  0  0  0  0  0  0  0
   -3.8920   24.2230  -29.9740 C   0  0  0  0  0  0  0  0  0  0  0  0
   -4.0480   25.1120  -30.8530 O   0  0  0  0  0  0  0  0  0  0  0  0
   -3.1770   24.5620  -28.7310 C   0  0  0  0  0  0  0  0  0  0  0  0
   -3.6570   24.2680  -27.4560 C   0  0  0  0  0  0  0  0  0  0  0  0
   -2.5550   24.8740  -26.3430 S   0  0  0  0  0  0  0  0  0  0  0  0
   -1.5210   25.4890  -27.5150 C   0  0  0  0  0  0  0  0  0  0  0  0
   -2.0000   25.2460  -28.7540 N   0  0  0  0  0  0  0  0  0  0  0  0
   -5.7710   22.7340  -30.7260 C   0  0  0  0  0  0  0  0  0  0  0  0
   -5.7330   21.9680  -32.0530 C   0  0  0  0  0  0  0  0  0  0  0  0
   -9.4464   18.5354  -30.8015 H   0  0  0  0  0  0  0  0  0  0  0  0
   -9.8413   19.3425  -32.3569 H   0  0  0  0  0  0  0  0  0  0  0  0
   -9.0030   17.7538  -32.3569 H   0  0  0  0  0  0  0  0  0  0  0  0
   -7.8145   20.2758  -31.1057 H   0  0  0  0  0  0  0  0  0  0  0  0
   -6.9946   18.6981  -31.4877 H   0  0  0  0  0  0  0  0  0  0  0  0
   -8.1060   19.6880  -33.8160 H   0  0  0  0  0  0  0  0  0  0  0  0
   -7.3160   20.9840  -33.1110 H   0  0  0  0  0  0  0  0  0  0  0  0
   -6.9994   18.0285  -34.9919 H   0  0  0  0  0  0  0  0  0  0  0  0
   -4.8179   17.1338  -35.8090 H   0  0  0  0  0  0  0  0  0  0  0  0
   -2.6863   18.0047  -34.8357 H   0  0  0  0  0  0  0  0  0  0  0  0
   -4.8787   20.0842  -30.0129 H   0  0  0  0  0  0  0  0  0  0  0  0
   -3.3621   19.7375  -30.9162 H   0  0  0  0  0  0  0  0  0  0  0  0
   -3.2473   21.5558  -29.0774 H   0  0  0  0  0  0  0  0  0  0  0  0
   -2.5968   21.9799  -30.7138 H   0  0  0  0  0  0  0  0  0  0  0  0
   -4.5900   23.7348  -27.2209 H   0  0  0  0  0  0  0  0  0  0  0  0
   -0.5805   26.0183  -27.3021 H   0  0  0  0  0  0  0  0  0  0  0  0
   -6.3735   22.1713  -29.9978 H   0  0  0  0  0  0  0  0  0  0  0  0
   -6.2180   23.7249  -30.8939 H   0  0  0  0  0  0  0  0  0  0  0  0
   -6.7448   21.6043  -32.2852 H   0  0  0  0  0  0  0  0  0  0  0  0
   -5.3739   22.6514  -32.8366 H   0  0  0  0  0  0  0  0  0  0  0  0
  1  2  1  0
  2  3  1  0
  3  4  1  0
  4  5  2  0
  5  6  1  0
  6  7  2  0
  7  8  1  0
  8  9  2  0
  9 10  1  0
 10 11  1  0
 11 12  1  0
 12 13  1  0
 13 14  1  0
 14 15  2  0
 14 16  1  0
 16 17  2  0
 17 18  1  0
 18 19  1  0
 19 20  2  0
 13 21  1  0
 21 22  1  0
  9  4  1  0
 22 10  1  0
 20 16  1  0
  1 23  1  0
  1 24  1  0
  1 25  1  0
  2 26  1  0
  2 27  1  0
  3 28  1  0
  3 29  1  0
  5 30  1  0
  6 31  1  0
  7 32  1  0
 11 33  1  0
 11 34  1  0
 12 35  1  0
 12 36  1  0
 17 37  1  0
 19 38  1  0
 21 39  1  0
 21 40  1  0
 22 41  1  0
 22 42  1  0
M  CHG  1   3   1
M  END
>  <UniqueID>  (1) 
1

>  <SMILES>  (1) 
CC[NH2+]c1cccnc1N1CCN(C(=O)c2cscn2)CC1

>  <Energy>  (1) 
82.572719940777

>  <Genealogy>  (1) 
CC[NH2+]c1cccnc1N1CCN(C(=O)c2cscn2)CC1 (protonated)
CC[NH2+]c1cccnc1N1CCN(C(=O)c2cscn2)CC1 (3D coordinates assigned)
CC[NH2+]c1cccnc1N1CCN(C(=O)c2cscn2)CC1 (nonaromatic ring conformer: 82.572719940777 kcal/mol)

>  <smiles>  (1) 
CCNc1cccnc1N1CCN(C(=O)c2cscn2)CC1

>  <score_type>  (1) 
oracle

>  <origin>  (1) 
adg

>  <m_score__min__energy>  (1) 
-6.9699999999999998

>  <m_primary>  (1) 
energy

$$$$
1:0
     RDKit          3D

 44 46  0  0  0  0  0  0  0  0999 V2000
   -5.8660   25.0860  -30.0990 C   0  0  0  0  0  0  0  0  0  0  0  0
   -5.5130   23.6600  -30.4900 C   0  0  0  0  0  0  0  0  0  0  0  0
   -4.3070   23.6630  -31.2490 O   0  0  0  0  0  0  0  0  0  0  0  0
   -3.1430   22.9560  -30.9050 C   0  0  0  0  0  0  0  0  0  0  0  0
   -2.2680   23.4160  -29.9010 C   0  0  0  0  0  0  0  0  0  0  0  0
   -1.1290   22.6840  -29.5630 C   0  0  0  0  0  0  0  0  0  0  0  0
   -0.8460   21.4880  -30.2220 C   0  0  0  0  0  0  0  0  0  0  0  0
   -1.7000   21.0200  -31.2220 C   0  0  0  0  0  0  0  0  0  0  0  0
   -2.8540   21.7440  -31.5740 C   0  0  0  0  0  0  0  0  0  0  0  0
   -3.7460   21.2460  -32.6490 C   0  0  0  0  0  0  0  0  0  0  0  0
   -3.8360   21.8980  -33.7260 O   0  0  0  0  0  0  0  0  0  0  0  0
   -4.5670   19.9780  -32.4890 C   0  0  2  0  0  0  0  0  0  0  0  0
   -3.6480   18.7630  -32.7480 C   0  0  0  0  0  0  0  0  0  0  0  0
   -4.6050   17.2210  -32.8110 S   0  0  0  0  0  0  0  0  0  0  0  0
   -5.6110   17.6620  -34.2770 C   0  0  0  0  0  0  0  0  0  0  0  0
   -5.6950   19.1720  -34.5740 C   0  0  0  0  0  0  0  0  0  0  0  0
   -5.7930   20.0140  -33.3600 N   0  0  1  0  0  0  0  0  0  0  0  0
   -7.0170   19.7190  -32.6330 C   0  0  0  0  0  0  0  0  0  0  0  0
   -7.3820   18.5250  -32.4460 O   0  0  0  0  0  0  0  0  0  0  0  0
   -7.8910   20.8090  -32.1560 C   0  0  0  0  0  0  0  0  0  0  0  0
   -9.0530   20.6530  -31.4260 C   0  0  0  0  0  0  0  0  0  0  0  0
   -9.5300   21.9270  -31.2090 C   0  0  0  0  0  0  0  0  0  0  0  0
   -8.6320   22.7810  -31.8180 C   0  0  0  0  0  0  0  0  0  0  0  0
   -7.6680   22.0840  -32.3730 O   0  0  0  0  0  0  0  0  0  0  0  0
   -5.8870   25.1710  -29.0025 H   0  0  0  0  0  0  0  0  0  0  0  0
   -5.1114   25.7752  -30.5058 H   0  0  0  0  0  0  0  0  0  0  0  0
   -6.8550   25.3436  -30.5058 H   0  0  0  0  0  0  0  0  0  0  0  0
   -5.3741   23.0541  -29.5825 H   0  0  0  0  0  0  0  0  0  0  0  0
   -6.3267   23.2321  -31.0940 H   0  0  0  0  0  0  0  0  0  0  0  0
   -2.4845   24.3599  -29.3793 H   0  0  0  0  0  0  0  0  0  0  0  0
   -0.4537   23.0508  -28.7759 H   0  0  0  0  0  0  0  0  0  0  0  0
    0.0520   20.9123  -29.9532 H   0  0  0  0  0  0  0  0  0  0  0  0
   -1.4689   20.0771  -31.7393 H   0  0  0  0  0  0  0  0  0  0  0  0
   -4.9528   19.8908  -31.4626 H   0  0  0  0  0  0  0  0  0  0  0  0
   -3.1291   18.9032  -33.7077 H   0  0  0  0  0  0  0  0  0  0  0  0
   -2.9234   18.6910  -31.9235 H   0  0  0  0  0  0  0  0  0  0  0  0
   -5.1726   17.1647  -35.1548 H   0  0  0  0  0  0  0  0  0  0  0  0
   -6.6374   17.3323  -34.0582 H   0  0  0  0  0  0  0  0  0  0  0  0
   -4.7925   19.4672  -35.1292 H   0  0  0  0  0  0  0  0  0  0  0  0
   -6.6163   19.3345  -35.1525 H   0  0  0  0  0  0  0  0  0  0  0  0
   -5.9040   20.9940  -33.7140 H   0  0  0  0  0  0  0  0  0  0  0  0
   -9.5038   19.7082  -31.0882 H   0  0  0  0  0  0  0  0  0  0  0  0
  -10.4419   22.2073  -30.6613 H   0  0  0  0  0  0  0  0  0  0  0  0
   -8.7122   23.8779  -31.8354 H   0  0  0  0  0  0  0  0  0  0  0  0
  1  2  1  0
  2  3  1  0
  3  4  1  0
  4  5  2  0
  5  6  1  0
  6  7  2  0
  7  8  1  0
  8  9  2  0
  9 10  1  0
 10 11  2  0
 10 12  1  0
 12 13  1  0
 13 14  1  0
 14 15  1  0
 15 16  1  0
 16 17  1  0
 17 18  1  0
 18 19  2  0
 18 20  1  0
 20 21  2  0
 21 22  1  0
 22 23  2  0
 23 24  1  0
  9  4  1  0
 17 12  1  0
 24 20  1  0
  1 25  1  0
  1 26  1  0
  1 27  1  0
  2 28  1  0
  2 29  1  0
  5 30  1  0
  6 31  1  0
  7 32  1  0
  8 33  1  0
 12 34  1  1
 13 35  1  0
 13 36  1  0
 15 37  1  0
 15 38  1  0
 16 39  1  0
 16 40  1  0
 17 41  1  6
 21 42  1  0
 22 43  1  0
 23 44  1  0
M  CHG  1  17   1
M  END
>  <UniqueID>  (2) 
2

>  <SMILES>  (2) 
CCOc1ccccc1C(=O)[C@@H]1CSCC[N@H+]1C(=O)c1ccco1

>  <Energy>  (2) 
84.67063714843968

>  <Genealogy>  (2) 
CCOc1ccccc1C(=O)C1CSCC[NH+]1C(=O)c1ccco1 (protonated)
CCOc1ccccc1C(=O)[C@@H]1CSCC[N@H+]1C(=O)c1ccco1 (chirality)
CCOc1ccccc1C(=O)[C@@H]1CSCC[N@H+]1C(=O)c1ccco1 (3D coordinates assigned)
CCOc1ccccc1C(=O)[C@@H]1CSCC[N@H+]1C(=O)c1ccco1 (nonaromatic ring conformer: 84.67063714843968 kcal/mol)

>  <smiles>  (2) 
CCOc1ccccc1C(=O)C1CSCCN1C(=O)c1ccco1

>  <score_type>  (2) 
oracle

>  <origin>  (2) 
adg

>  <m_score__min__energy>  (2) 
-6.75

>  <m_primary>  (2) 
energy

$$$$
2:0
     RDKit          3D

 52 54  0  0  0  0  0  0  0  0999 V2000
    0.9300   24.3940  -24.8460 C   0  0  0  0  0  0  0  0  0  0  0  0
   -0.5490   24.7760  -24.6950 C   0  0  0  0  0  0  0  0  0  0  0  0
   -0.8010   26.2350  -24.7320 N   0  0  0  0  0  0  0  0  0  0  0  0
   -0.8560   26.8270  -23.3830 C   0  0  0  0  0  0  0  0  0  0  0  0
    0.1340   26.9570  -25.6210 C   0  0  0  0  0  0  0  0  0  0  0  0
   -0.4080   26.9990  -27.0530 C   0  0  0  0  0  0  0  0  0  0  0  0
   -1.3160   25.9230  -27.2800 O   0  0  0  0  0  0  0  0  0  0  0  0
   -1.1430   24.9700  -28.2910 C   0  0  0  0  0  0  0  0  0  0  0  0
    0.0100   24.5570  -28.5940 O   0  0  0  0  0  0  0  0  0  0  0  0
   -2.3550   24.3960  -28.9700 C   0  0  0  0  0  0  0  0  0  0  0  0
   -3.3850   23.9110  -27.9210 C   0  0  0  0  0  0  0  0  0  0  0  0
   -4.2310   22.7170  -28.4010 C   0  0  0  0  0  0  0  0  0  0  0  0
   -4.3930   22.7310  -29.8600 N   0  0  0  0  0  0  0  0  0  0  0  0
   -5.6600   22.4000  -30.4500 C   0  0  0  0  0  0  0  0  0  0  0  0
   -5.8550   21.1530  -30.9620 N   0  0  0  0  0  0  0  0  0  0  0  0
   -7.0330   20.7960  -31.5340 C   0  0  0  0  0  0  0  0  0  0  0  0
   -7.2170   19.5060  -32.0460 C   0  0  0  0  0  0  0  0  0  0  0  0
   -8.4390   19.1570  -32.6300 C   0  0  0  0  0  0  0  0  0  0  0  0
   -9.4780   20.0930  -32.7030 C   0  0  0  0  0  0  0  0  0  0  0  0
   -9.2990   21.3840  -32.1920 C   0  0  0  0  0  0  0  0  0  0  0  0
   -8.0780   21.7380  -31.6070 C   0  0  0  0  0  0  0  0  0  0  0  0
   -7.8810   22.9880  -31.1160 N   0  0  0  0  0  0  0  0  0  0  0  0
   -6.7020   23.3470  -30.5420 C   0  0  0  0  0  0  0  0  0  0  0  0
   -6.5320   24.7050  -30.0930 C   0  0  0  0  0  0  0  0  0  0  0  0
   -6.3950   25.7960  -29.7340 N   0  0  0  0  0  0  0  0  0  0  0  0
   -3.2110   22.8150  -30.7300 C   0  0  0  0  0  0  0  0  0  0  0  0
   -1.9690   23.2760  -29.9520 C   0  0  0  0  0  0  0  0  0  0  0  0
    1.3821   24.2772  -23.8500 H   0  0  0  0  0  0  0  0  0  0  0  0
    1.0093   23.4459  -25.3981 H   0  0  0  0  0  0  0  0  0  0  0  0
    1.4585   25.1851  -25.3981 H   0  0  0  0  0  0  0  0  0  0  0  0
   -1.1129   24.3067  -25.5146 H   0  0  0  0  0  0  0  0  0  0  0  0
   -0.8694   24.4227  -23.7038 H   0  0  0  0  0  0  0  0  0  0  0  0
   -0.7819   26.0293  -22.6292 H   0  0  0  0  0  0  0  0  0  0  0  0
   -0.0193   27.5298  -23.2566 H   0  0  0  0  0  0  0  0  0  0  0  0
   -1.8079   27.3636  -23.2566 H   0  0  0  0  0  0  0  0  0  0  0  0
    0.2619   27.9855  -25.2525 H   0  0  0  0  0  0  0  0  0  0  0  0
    1.0999   26.4307  -25.6226 H   0  0  0  0  0  0  0  0  0  0  0  0
   -0.9315   27.9531  -27.2131 H   0  0  0  0  0  0  0  0  0  0  0  0
    0.4351   26.9041  -27.7532 H   0  0  0  0  0  0  0  0  0  0  0  0
   -2.8282   25.1923  -29.5632 H   0  0  0  0  0  0  0  0  0  0  0  0
   -2.8424   23.6110  -27.0124 H   0  0  0  0  0  0  0  0  0  0  0  0
   -4.0771   24.7456  -27.7355 H   0  0  0  0  0  0  0  0  0  0  0  0
   -3.7324   21.7823  -28.1047 H   0  0  0  0  0  0  0  0  0  0  0  0
   -5.2272   22.7894  -27.9401 H   0  0  0  0  0  0  0  0  0  0  0  0
   -6.4026   18.7688  -31.9891 H   0  0  0  0  0  0  0  0  0  0  0  0
   -8.5844   18.1440  -33.0333 H   0  0  0  0  0  0  0  0  0  0  0  0
  -10.4372   19.8132  -33.1630 H   0  0  0  0  0  0  0  0  0  0  0  0
  -10.1160   22.1183  -32.2502 H   0  0  0  0  0  0  0  0  0  0  0  0
   -3.0140   21.8226  -31.1617 H   0  0  0  0  0  0  0  0  0  0  0  0
   -3.4163   23.5527  -31.5197 H   0  0  0  0  0  0  0  0  0  0  0  0
   -1.5531   22.4260  -29.3912 H   0  0  0  0  0  0  0  0  0  0  0  0
   -1.2177   23.6565  -30.6597 H   0  0  0  0  0  0  0  0  0  0  0  0
  1  2  1  0
  2  3  1  0
  3  4  1  0
  3  5  1  0
  5  6  1  0
  6  7  1  0
  7  8  1  0
  8  9  2  0
  8 10  1  0
 10 11  1  0
 11 12  1  0
 12 13  1  0
 13 14  1  0
 14 15  2  0
 15 16  1  0
 16 17  2  0
 17 18  1  0
 18 19  2  0
 19 20  1  0
 20 21  2  0
 21 22  1  0
 22 23  2  0
 23 24  1  0
 24 25  3  0
 13 26  1  0
 26 27  1  0
 27 10  1  0
 23 14  1  0
 21 16  1  0
  1 28  1  0
  1 29  1  0
  1 30  1  0
  2 31  1  0
  2 32  1  0
  4 33  1  0
  4 34  1  0
  4 35  1  0
  5 36  1  0
  5 37  1  0
  6 38  1  0
  6 39  1  0
 10 40  1  0
 11 41  1  0
 11 42  1  0
 12 43  1  0
 12 44  1  0
 17 45  1  0
 18 46  1  0
 19 47  1  0
 20 48  1  0
 26 49  1  0
 26 50  1  0
 27 51  1  0
 27 52  1  0
M  END
>  <UniqueID>  (3) 
3

>  <SMILES>  (3) 
CCN(C)CCOC(=O)C1CCN(c2nc3ccccc3nc2C#N)CC1

>  <Energy>  (3) 
59.96474455203592

>  <Genealogy>  (3) 
CCN(C)CCOC(=O)C1CCN(c2nc3ccccc3nc2C#N)CC1 (3D coordinates assigned)
CCN(C)CCOC(=O)C1CCN(c2nc3ccccc3nc2C#N)CC1 (nonaromatic ring conformer: 59.96474455203592 kcal/mol)

>  <smiles>  (3) 
CCN(C)CCOC(=O)C1CCN(c2nc3ccccc3nc2C#N)CC1

>  <score_type>  (3) 
oracle

>  <origin>  (3) 
adg

>  <m_score__min__energy>  (3) 
-8.5899999999999999

>  <m_primary>  (3) 
energy

$$$$
3:0
     RDKit          3D

 50 53  0  0  0  0  0  0  0  0999 V2000
   -5.4270   25.6150  -30.4490 C   0  0  0  0  0  0  0  0  0  0  0  0
   -4.0470   25.2720  -30.3850 O   0  0  0  0  0  0  0  0  0  0  0  0
   -3.5600   23.9600  -30.2880 C   0  0  0  0  0  0  0  0  0  0  0  0
   -3.2150   23.3750  -29.0590 C   0  0  0  0  0  0  0  0  0  0  0  0
   -2.7250   22.0710  -29.0190 C   0  0  0  0  0  0  0  0  0  0  0  0
   -2.5700   21.3390  -30.1990 C   0  0  0  0  0  0  0  0  0  0  0  0
   -2.9400   21.8840  -31.4390 C   0  0  0  0  0  0  0  0  0  0  0  0
   -3.4200   23.2140  -31.4650 C   0  0  0  0  0  0  0  0  0  0  0  0
   -2.8220   21.0430  -32.7170 C   0  0  2  0  0  0  0  0  0  0  0  0
   -3.3880   21.7920  -33.7780 O   0  0  0  0  0  0  0  0  0  0  0  0
   -3.6100   19.6970  -32.6180 C   0  0  0  0  0  0  0  0  0  0  0  0
   -4.6840   19.6430  -33.6230 N   0  0  0  0  0  0  0  0  0  0  0  0
   -5.9360   19.1130  -33.0590 C   0  0  0  0  0  0  0  0  0  0  0  0
   -6.8640   20.2170  -32.6070 C   0  0  0  0  0  0  0  0  0  0  0  0
   -6.3590   21.5010  -32.3410 C   0  0  0  0  0  0  0  0  0  0  0  0
   -7.2090   22.5130  -31.8860 C   0  0  0  0  0  0  0  0  0  0  0  0
   -8.5680   22.2490  -31.6890 C   0  0  0  0  0  0  0  0  0  0  0  0
   -9.0780   20.9740  -31.9460 C   0  0  0  0  0  0  0  0  0  0  0  0
   -8.2300   19.9590  -32.4030 C   0  0  0  0  0  0  0  0  0  0  0  0
   -1.3300   20.7610  -32.9920 C   0  0  0  0  0  0  0  0  0  0  0  0
   -0.7870   21.1170  -34.2550 C   0  0  0  0  0  0  0  0  0  0  0  0
    0.5440   20.8670  -34.5770 C   0  0  0  0  0  0  0  0  0  0  0  0
    1.3810   20.2550  -33.6580 C   0  0  0  0  0  0  0  0  0  0  0  0
    0.8930   19.8990  -32.4070 C   0  0  0  0  0  0  0  0  0  0  0  0
   -0.4450   20.1440  -32.0380 C   0  0  0  0  0  0  0  0  0  0  0  0
   -0.7870   19.6940  -30.6240 C   0  0  0  0  0  0  0  0  0  0  0  0
   -2.0730   20.0490  -30.1340 O   0  0  0  0  0  0  0  0  0  0  0  0
   -5.8277   25.7146  -29.4294 H   0  0  0  0  0  0  0  0  0  0  0  0
   -5.5432   26.5694  -30.9835 H   0  0  0  0  0  0  0  0  0  0  0  0
   -5.9765   24.8261  -30.9835 H   0  0  0  0  0  0  0  0  0  0  0  0
   -3.3317   23.9468  -28.1265 H   0  0  0  0  0  0  0  0  0  0  0  0
   -2.4589   21.6157  -28.0536 H   0  0  0  0  0  0  0  0  0  0  0  0
   -3.6887   23.6716  -32.4286 H   0  0  0  0  0  0  0  0  0  0  0  0
   -3.4840   21.2160  -34.5820 H   0  0  0  0  0  0  0  0  0  0  0  0
   -2.9163   18.8601  -32.7867 H   0  0  0  0  0  0  0  0  0  0  0  0
   -4.0608   19.6260  -31.6171 H   0  0  0  0  0  0  0  0  0  0  0  0
   -4.8640   20.6070  -33.9900 H   0  0  0  0  0  0  0  0  0  0  0  0
   -6.4456   18.5126  -33.8270 H   0  0  0  0  0  0  0  0  0  0  0  0
   -5.6815   18.5015  -32.1808 H   0  0  0  0  0  0  0  0  0  0  0  0
   -5.2897   21.7107  -32.4915 H   0  0  0  0  0  0  0  0  0  0  0  0
   -6.8088   23.5173  -31.6829 H   0  0  0  0  0  0  0  0  0  0  0  0
   -9.2363   23.0461  -31.3313 H   0  0  0  0  0  0  0  0  0  0  0  0
  -10.1470   20.7678  -31.7890 H   0  0  0  0  0  0  0  0  0  0  0  0
   -8.6342   18.9557  -32.6032 H   0  0  0  0  0  0  0  0  0  0  0  0
   -1.4355   21.6033  -34.9987 H   0  0  0  0  0  0  0  0  0  0  0  0
    0.9326   21.1563  -35.5645 H   0  0  0  0  0  0  0  0  0  0  0  0
    2.4301   20.0514  -33.9185 H   0  0  0  0  0  0  0  0  0  0  0  0
    1.5677   19.4138  -31.6864 H   0  0  0  0  0  0  0  0  0  0  0  0
   -0.7109   18.5970  -30.5959 H   0  0  0  0  0  0  0  0  0  0  0  0
   -0.0742   20.2212  -29.9728 H   0  0  0  0  0  0  0  0  0  0  0  0
  1  2  1  0
  2  3  1  0
  3  4  2  0
  4  5  1  0
  5  6  2  0
  6  7  1  0
  7  8  2  0
  7  9  1  0
  9 10  1  6
  9 11  1  0
 11 12  1  0
 12 13  1  0
 13 14  1  0
 14 15  2  0
 15 16  1  0
 16 17  2  0
 17 18  1  0
 18 19  2  0
  9 20  1  0
 20 21  2  0
 21 22  1  0
 22 23  2  0
 23 24  1  0
 24 25  2  0
 25 26  1  0
 26 27  1  0
  8  3  1  0
 19 14  1  0
 25 20  1  0
 27  6  1  0
  1 28  1  0
  1 29  1  0
  1 30  1  0
  4 31  1  0
  5 32  1  0
  8 33  1  0
 10 34  1  0
 11 35  1  0
 11 36  1  0
 12 37  1  0
 13 38  1  0
 13 39  1  0
 15 40  1  0
 16 41  1  0
 17 42  1  0
 18 43  1  0
 19 44  1  0
 21 45  1  0
 22 46  1  0
 23 47  1  0
 24 48  1  0
 26 49  1  0
 26 50  1  0
M  END
>  <UniqueID>  (4) 
4

>  <SMILES>  (4) 
COc1ccc2c(c1)[C@](O)(CNCc1ccccc1)c1ccccc1CO2

>  <Energy>  (4) 
80.21447383309113

>  <Genealogy>  (4) 
COc1ccc2c(c1)[C@](O)(CNCc1ccccc1)c1ccccc1CO2 (chirality)
COc1ccc2c(c1)[C@](O)(CNCc1ccccc1)c1ccccc1CO2 (3D coordinates assigned)
COc1ccc2c(c1)[C@](O)(CNCc1ccccc1)c1ccccc1CO2 (nonaromatic ring conformer: 80.21447383309113 kcal/mol)

>  <smiles>  (4) 
COc1ccc2c(c1)C(O)(CNCc1ccccc1)c1ccccc1CO2

>  <score_type>  (4) 
oracle

>  <origin>  (4) 
adg

>  <m_score__min__energy>  (4) 
-8.2100000000000009

>  <m_primary>  (4) 
energy

$$$$
4:0
     RDKit          3D

 45 48  0  0  0  0  0  0  0  0999 V2000
   -2.3300   24.2880  -29.0130 C   0  0  0  0  0  0  0  0  0  0  0  0
   -3.1220   24.9220  -30.0130 O   0  0  0  0  0  0  0  0  0  0  0  0
   -4.3770   24.4630  -30.4420 C   0  0  0  0  0  0  0  0  0  0  0  0
   -5.4860   25.2810  -30.2260 C   0  0  0  0  0  0  0  0  0  0  0  0
   -6.7630   24.8430  -30.5710 C   0  0  0  0  0  0  0  0  0  0  0  0
   -6.9440   23.5950  -31.1850 C   0  0  0  0  0  0  0  0  0  0  0  0
   -8.2380   23.1120  -31.3930 C   0  0  0  0  0  0  0  0  0  0  0  0
   -8.4340   21.8240  -31.8760 C   0  0  0  0  0  0  0  0  0  0  0  0
   -7.3430   21.0410  -32.2700 C   0  0  0  0  0  0  0  0  0  0  0  0
   -7.5570   19.7360  -32.7120 C   0  0  0  0  0  0  0  0  0  0  0  0
   -6.4790   18.9490  -33.1060 C   0  0  0  0  0  0  0  0  0  0  0  0
   -6.6810   17.6070  -33.4610 C   0  0  0  0  0  0  0  0  0  0  0  0
   -5.6050   16.8080  -33.8800 C   0  0  0  0  0  0  0  0  0  0  0  0
   -5.7710   15.4600  -34.2380 O   0  0  0  0  0  0  0  0  0  0  0  0
   -5.2940   14.3560  -33.4750 C   0  0  0  0  0  0  0  0  0  0  0  0
   -4.3190   17.3580  -33.9480 C   0  0  0  0  0  0  0  0  0  0  0  0
   -3.2650   16.5280  -34.3640 O   0  0  0  0  0  0  0  0  0  0  0  0
   -3.1010   16.0270  -35.6870 C   0  0  0  0  0  0  0  0  0  0  0  0
   -4.1160   18.7080  -33.6030 C   0  0  0  0  0  0  0  0  0  0  0  0
   -5.1920   19.5260  -33.1840 C   0  0  0  0  0  0  0  0  0  0  0  0
   -5.0150   20.8620  -32.8760 N   0  0  0  0  0  0  0  0  0  0  0  0
   -3.8620   21.5720  -33.4710 C   0  0  0  0  0  0  0  0  0  0  0  0
   -6.0250   21.5620  -32.2300 C   0  0  0  0  0  0  0  0  0  0  0  0
   -5.8190   22.8000  -31.5350 C   0  0  0  0  0  0  0  0  0  0  0  0
   -4.5500   23.2150  -31.0700 C   0  0  0  0  0  0  0  0  0  0  0  0
   -2.6945   24.5798  -28.0170 H   0  0  0  0  0  0  0  0  0  0  0  0
   -2.4032   23.1962  -29.1249 H   0  0  0  0  0  0  0  0  0  0  0  0
   -1.2807   24.5985  -29.1249 H   0  0  0  0  0  0  0  0  0  0  0  0
   -5.3517   26.2778  -29.7806 H   0  0  0  0  0  0  0  0  0  0  0  0
   -7.6347   25.4800  -30.3605 H   0  0  0  0  0  0  0  0  0  0  0  0
   -9.1045   23.7532  -31.1738 H   0  0  0  0  0  0  0  0  0  0  0  0
   -9.4534   21.4171  -31.9492 H   0  0  0  0  0  0  0  0  0  0  0  0
   -8.5781   19.3285  -32.7493 H   0  0  0  0  0  0  0  0  0  0  0  0
   -7.6920   17.1765  -33.4107 H   0  0  0  0  0  0  0  0  0  0  0  0
   -5.3916   14.5818  -32.4029 H   0  0  0  0  0  0  0  0  0  0  0  0
   -5.8855   13.4605  -33.7164 H   0  0  0  0  0  0  0  0  0  0  0  0
   -4.2365   14.1730  -33.7164 H   0  0  0  0  0  0  0  0  0  0  0  0
   -2.7591   14.9824  -35.6437 H   0  0  0  0  0  0  0  0  0  0  0  0
   -4.0622   16.0764  -36.2196 H   0  0  0  0  0  0  0  0  0  0  0  0
   -2.3551   16.6352  -36.2196 H   0  0  0  0  0  0  0  0  0  0  0  0
   -3.1035   19.1341  -33.6602 H   0  0  0  0  0  0  0  0  0  0  0  0
   -3.2209   21.9668  -32.6690 H   0  0  0  0  0  0  0  0  0  0  0  0
   -3.2828   20.8739  -34.0932 H   0  0  0  0  0  0  0  0  0  0  0  0
   -4.2247   22.4034  -34.0932 H   0  0  0  0  0  0  0  0  0  0  0  0
   -3.6827   22.5512  -31.2012 H   0  0  0  0  0  0  0  0  0  0  0  0
  1  2  1  0
  2  3  1  0
  3  4  2  0
  4  5  1  0
  5  6  2  0
  6  7  1  0
  7  8  2  0
  8  9  1  0
  9 10  2  0
 10 11  1  0
 11 12  2  0
 12 13  1  0
 13 14  1  0
 14 15  1  0
 13 16  2  0
 16 17  1  0
 17 18  1  0
 16 19  1  0
 19 20  2  0
 20 21  1  0
 21 22  1  0
 21 23  2  0
 23 24  1  0
 24 25  2  0
 25  3  1  0
 24  6  1  0
 23  9  1  0
 20 11  1  0
  1 26  1  0
  1 27  1  0
  1 28  1  0
  4 29  1  0
  5 30  1  0
  7 31  1  0
  8 32  1  0
 10 33  1  0
 12 34  1  0
 15 35  1  0
 15 36  1  0
 15 37  1  0
 18 38  1  0
 18 39  1  0
 18 40  1  0
 19 41  1  0
 22 42  1  0
 22 43  1  0
 22 44  1  0
 25 45  1  0
M  CHG  1  21   1
M  END
>  <UniqueID>  (5) 
5

>  <SMILES>  (5) 
COc1ccc2ccc3cc4cc(OC)c(OC)cc4[n+](C)c3c2c1

>  <Energy>  (5) 
81.13098721560903

>  <Genealogy>  (5) 
COc1ccc2ccc3cc4cc(OC)c(OC)cc4[n+](C)c3c2c1 (3D coordinates assigned)
COc1ccc2ccc3cc4cc(OC)c(OC)cc4[n+](C)c3c2c1 (optimized conformer: 81.13098721560903 kcal/mol)

>  <smiles>  (5) 
COc1ccc2ccc3cc4cc(OC)c(OC)cc4[n+](C)c3c2c1

>  <score_type>  (5) 
oracle

>  <origin>  (5) 
adg

>  <m_score__min__energy>  (5) 
-8.5399999999999991

>  <m_primary>  (5) 
energy

$$$$
5:0
     RDKit          3D

 51 54  0  0  1  0  0  0  0  0999 V2000
   -5.3550   26.0220  -30.4640 C   0  0  0  0  0  0  0  0  0  0  0  0
   -4.0010   25.5890  -30.4680 O   0  0  0  0  0  0  0  0  0  0  0  0
   -3.7020   24.3450  -29.9310 C   0  0  0  0  0  0  0  0  0  0  0  0
   -3.0100   24.1840  -28.7440 C   0  0  0  0  0  0  0  0  0  0  0  0
   -2.7210   22.9250  -28.2250 C   0  0  0  0  0  0  0  0  0  0  0  0
   -3.1300   21.7770  -28.9020 C   0  0  0  0  0  0  0  0  0  0  0  0
   -2.7940   20.4630  -28.3040 C   0  0  0  0  0  0  0  0  0  0  0  0
   -1.3680   20.4240  -27.8080 C   0  0  0  0  0  0  0  0  0  0  0  0
   -1.1410   19.3380  -26.8830 N   0  0  0  0  0  0  0  0  0  0  0  0
   -0.3840   18.2400  -27.4450 C   0  0  0  0  0  0  0  0  0  0  0  0
   -2.3520   18.8560  -26.3000 C   0  0  0  0  0  0  0  0  0  0  0  0
   -3.8160   21.9440  -30.0780 C   0  0  0  0  0  0  0  0  0  0  0  0
   -4.1060   23.2080  -30.6000 C   0  0  0  0  0  0  0  0  0  0  0  0
   -4.8240   23.2400  -31.8290 N   0  0  0  0  0  0  0  0  0  0  0  0
   -5.9940   22.7070  -31.8720 C   0  0  0  0  0  0  0  0  0  0  0  0
   -7.0450   23.4770  -31.5370 N   0  0  0  0  0  0  0  0  0  0  0  0
   -8.2940   22.9320  -31.5760 C   0  0  0  0  0  0  0  0  0  0  0  0
   -8.3950   21.6010  -31.9650 C   0  0  0  0  0  0  0  0  0  0  0  0
   -9.5330   20.8550  -32.0780 C   0  0  0  0  0  0  0  0  0  0  0  0
   -9.1200   19.6060  -32.4940 C   0  0  0  0  0  0  0  0  0  0  0  0
   -7.7280   19.5840  -32.6380 C   0  0  0  0  0  0  0  0  0  0  0  0
   -6.9590   18.4530  -33.0540 C   0  0  0  0  0  0  0  0  0  0  0  0
   -6.8070   17.1730  -32.7470 C   0  0  0  0  0  0  0  0  0  0  0  0
   -5.9430   16.3750  -33.3910 C   0  0  0  0  0  0  0  0  0  0  0  0
   -5.1940   16.9690  -34.4250 C   0  0  0  0  0  0  0  0  0  0  0  0
   -5.7850   18.7200  -34.4290 S   0  0  0  0  0  0  0  0  0  0  0  0
   -7.3520   20.8380  -32.2980 N   0  0  0  0  0  0  0  0  0  0  0  0
   -6.1580   21.3980  -32.2490 N   0  0  0  0  0  0  0  0  0  0  0  0
   -5.7015   26.1328  -29.4259 H   0  0  0  0  0  0  0  0  0  0  0  0
   -5.4321   26.9896  -30.9815 H   0  0  0  0  0  0  0  0  0  0  0  0
   -5.9792   25.2787  -30.9815 H   0  0  0  0  0  0  0  0  0  0  0  0
   -2.6784   25.0771  -28.1941 H   0  0  0  0  0  0  0  0  0  0  0  0
   -2.1684   22.8357  -27.2781 H   0  0  0  0  0  0  0  0  0  0  0  0
   -3.4711   20.2725  -27.4583 H   0  0  0  0  0  0  0  0  0  0  0  0
   -2.9082   19.6930  -29.0812 H   0  0  0  0  0  0  0  0  0  0  0  0
   -0.6963   20.3009  -28.6704 H   0  0  0  0  0  0  0  0  0  0  0  0
   -1.1695   21.3667  -27.2770 H   0  0  0  0  0  0  0  0  0  0  0  0
    0.0364   17.6303  -26.6317 H   0  0  0  0  0  0  0  0  0  0  0  0
   -1.0459   17.6178  -28.0652 H   0  0  0  0  0  0  0  0  0  0  0  0
    0.4329   18.6374  -28.0652 H   0  0  0  0  0  0  0  0  0  0  0  0
   -2.2695   18.8888  -25.2036 H   0  0  0  0  0  0  0  0  0  0  0  0
   -3.1918   19.4884  -26.6236 H   0  0  0  0  0  0  0  0  0  0  0  0
   -2.5276   17.8195  -26.6236 H   0  0  0  0  0  0  0  0  0  0  0  0
   -4.1495   21.0525  -30.6294 H   0  0  0  0  0  0  0  0  0  0  0  0
   -9.1846   23.5207  -31.3108 H   0  0  0  0  0  0  0  0  0  0  0  0
  -10.5643   21.1817  -31.8788 H   0  0  0  0  0  0  0  0  0  0  0  0
   -9.7871   18.7524  -32.6846 H   0  0  0  0  0  0  0  0  0  0  0  0
   -7.4128   16.7488  -31.9327 H   0  0  0  0  0  0  0  0  0  0  0  0
   -5.8257   15.3139  -33.1260 H   0  0  0  0  0  0  0  0  0  0  0  0
   -4.4385   16.5027  -35.0744 H   0  0  0  0  0  0  0  0  0  0  0  0
   -5.2920   20.9140  -32.4790 H   0  0  0  0  0  0  0  0  0  0  0  0
  1  2  1  0
  2  3  1  0
  3  4  2  0
  4  5  1  0
  5  6  2  0
  6  7  1  0
  7  8  1  0
  8  9  1  0
  9 10  1  0
  9 11  1  0
  6 12  1  0
 12 13  2  0
 13 14  1  0
 14 15  2  0
 15 16  1  0
 16 17  2  0
 17 18  1  0
 18 19  2  0
 19 20  1  0
 20 21  2  0
 21 22  1  0
 22 23  2  0
 23 24  1  0
 24 25  2  0
 25 26  1  0
 21 27  1  0
 27 28  1  0
 13  3  1  0
 28 15  1  0
 27 18  1  0
 26 22  1  0
  1 29  1  0
  1 30  1  0
  1 31  1  0
  4 32  1  0
  5 33  1  0
  7 34  1  0
  7 35  1  0
  8 36  1  0
  8 37  1  0
 10 38  1  0
 10 39  1  0
 10 40  1  0
 11 41  1  0
 11 42  1  0
 11 43  1  0
 12 44  1  0
 17 45  1  0
 19 46  1  0
 20 47  1  0
 23 48  1  0
 24 49  1  0
 25 50  1  0
 28 51  1  0
M  END
>  <smiles>  (6) 
COc1ccc(CCN(C)C)cc1N=c1ncc2ccc(-c3cccs3)n2[nH]1

>  <score_type>  (6) 
oracle

>  <origin>  (6) 
adg

>  <m_score__min__energy>  (6) 
-10.279999999999999

>  <m_primary>  (6) 
energy

$$$$
6:0
     RDKit          3D

 36 37  0  0  0  0  0  0  0  0999 V2000
  -10.0955   19.2921  -31.3873 H   0  0  0  0  0  0  0  0  0  0  0  0
   -9.0840   19.3820  -31.8100 C   0  0  0  0  0  0  0  0  0  0  0  0
   -8.3040   18.2390  -32.0050 C   0  0  0  0  0  0  0  0  0  0  0  0
   -8.7005   17.2503  -31.7307 H   0  0  0  0  0  0  0  0  0  0  0  0
   -7.0210   18.3500  -32.5480 C   0  0  0  0  0  0  0  0  0  0  0  0
   -6.4084   17.4484  -32.6956 H   0  0  0  0  0  0  0  0  0  0  0  0
   -6.5110   19.6090  -32.9060 C   0  0  0  0  0  0  0  0  0  0  0  0
   -5.1370   19.7440  -33.5020 C   0  0  0  0  0  0  0  0  0  0  0  0
   -5.1974   19.5892  -34.5894 H   0  0  0  0  0  0  0  0  0  0  0  0
   -4.4768   18.9907  -33.0475 H   0  0  0  0  0  0  0  0  0  0  0  0
   -4.6030   21.0440  -33.2410 O   0  0  0  0  0  0  0  0  0  0  0  0
   -3.5330   21.3430  -32.3790 C   0  0  0  0  0  0  0  0  0  0  0  0
   -2.3910   20.5220  -32.3240 C   0  0  0  0  0  0  0  0  0  0  0  0
   -2.3536   19.5993  -32.9217 H   0  0  0  0  0  0  0  0  0  0  0  0
   -1.3100   20.8670  -31.5210 C   0  0  0  0  0  0  0  0  0  0  0  0
   -0.4213   20.2202  -31.4790 H   0  0  0  0  0  0  0  0  0  0  0  0
   -1.3620   22.0360  -30.7720 C   0  0  0  0  0  0  0  0  0  0  0  0
   -0.5046   22.3256  -30.1467 H   0  0  0  0  0  0  0  0  0  0  0  0
   -2.4690   22.8220  -30.8100 N   0  0  0  0  0  0  0  0  0  0  0  0
   -2.4740   23.6910  -30.2260 H   0  0  0  0  0  0  0  0  0  0  0  0
   -3.5670   22.5080  -31.5610 C   0  0  0  0  0  0  0  0  0  0  0  0
   -4.5820   23.3310  -31.5160 N   0  0  0  0  0  0  0  0  0  0  0  0
   -4.7900   24.4740  -30.6740 C   0  0  0  0  0  0  0  0  0  0  0  0
   -3.8630   25.3090  -30.4940 O   0  0  0  0  0  0  0  0  0  0  0  0
   -6.1610   24.7740  -30.1460 C   0  0  0  0  0  0  0  0  0  0  0  0
   -6.4225   25.8118  -30.4003 H   0  0  0  0  0  0  0  0  0  0  0  0
   -6.1499   24.6282  -29.0558 H   0  0  0  0  0  0  0  0  0  0  0  0
   -7.1320   23.9070  -30.6990 O   0  0  0  0  0  0  0  0  0  0  0  0
   -7.2370   22.7310  -29.9240 C   0  0  0  0  0  0  0  0  0  0  0  0
   -7.2136   22.9925  -28.8558 H   0  0  0  0  0  0  0  0  0  0  0  0
   -8.1842   22.2221  -30.1563 H   0  0  0  0  0  0  0  0  0  0  0  0
   -6.3950   22.0624  -30.1563 H   0  0  0  0  0  0  0  0  0  0  0  0
   -7.2960   20.7540  -32.6950 C   0  0  0  0  0  0  0  0  0  0  0  0
   -6.8996   21.7458  -32.9581 H   0  0  0  0  0  0  0  0  0  0  0  0
   -8.5790   20.6390  -32.1520 C   0  0  0  0  0  0  0  0  0  0  0  0
   -9.1915   21.5389  -31.9939 H   0  0  0  0  0  0  0  0  0  0  0  0
  1  2  1  0
  2  3  2  0
  3  4  1  0
  3  5  1  0
  5  6  1  0
  5  7  2  0
  7  8  1  0
  8  9  1  0
  8 10  1  0
  8 11  1  0
 11 12  1  0
 12 13  2  0
 13 14  1  0
 13 15  1  0
 15 16  1  0
 15 17  2  0
 17 18  1  0
 17 19  1  0
 19 20  1  0
 19 21  1  0
 21 22  2  0
 22 23  1  0
 23 24  2  0
 23 25  1  0
 25 26  1  0
 25 27  1  0
 25 28  1  0
 28 29  1  0
 29 30  1  0
 29 31  1  0
 29 32  1  0
  7 33  1  0
 33 34  1  0
 33 35  2  0
 35 36  1  0
 35  2  1  0
 21 12  1  0
M  END
>  <UniqueID>  (7) 
6

>  <SMILES>  (7) 
COCC(=O)/N=c1/[nH]cccc1OCc1ccccc1

>  <Energy>  (7) 
48.414675747647934

>  <Genealogy>  (7) 
COCC(=O)/N=c1/[nH]cccc1OCc1ccccc1 (cis-trans isomerization)
COCC(=O)/N=c1/[nH]cccc1OCc1ccccc1 (3D coordinates assigned)
COCC(=O)/N=c1/[nH]cccc1OCc1ccccc1 (optimized conformer: 48.414675747647934 kcal/mol)

>  <smiles>  (7) 
COCC(=O)N=c1[nH]cccc1OCc1ccccc1

>  <score_type>  (7) 
oracle

>  <origin>  (7) 
adg

>  <m_score__min__energy>  (7) 
-7

>  <m_primary>  (7) 
energy

$$$$
7:0
     RDKit          3D

 41 43  0  0  0  0  0  0  0  0999 V2000
   -5.9200   14.1900  -34.1660 C   0  0  0  0  0  0  0  0  0  0  0  0
   -7.0440   15.2360  -34.2160 C   0  0  0  0  0  0  0  0  0  0  0  0
   -6.6180   16.6050  -33.8500 N   0  0  0  0  0  0  0  0  0  0  0  0
   -5.7200   17.2300  -34.8350 C   0  0  0  0  0  0  0  0  0  0  0  0
   -5.7040   18.7410  -34.5960 C   0  0  0  0  0  0  0  0  0  0  0  0
   -5.6470   19.0400  -33.1620 N   0  0  0  0  0  0  0  0  0  0  0  0
   -5.6270   20.4090  -32.7420 C   0  0  0  0  0  0  0  0  0  0  0  0
   -4.4430   21.0730  -32.7060 N   0  0  0  0  0  0  0  0  0  0  0  0
   -4.3580   22.3520  -32.3360 N   0  0  0  0  0  0  0  0  0  0  0  0
   -5.4620   23.0660  -31.9730 C   0  0  0  0  0  0  0  0  0  0  0  0
   -5.3680   24.4150  -31.5900 O   0  0  0  0  0  0  0  0  0  0  0  0
   -5.5970   24.8910  -30.2690 C   0  0  0  0  0  0  0  0  0  0  0  0
   -6.7180   22.4350  -31.9790 C   0  0  0  0  0  0  0  0  0  0  0  0
   -7.8870   23.1230  -31.6040 C   0  0  0  0  0  0  0  0  0  0  0  0
   -9.1210   22.4690  -31.6030 C   0  0  0  0  0  0  0  0  0  0  0  0
   -9.2030   21.1260  -31.9730 C   0  0  0  0  0  0  0  0  0  0  0  0
   -8.0530   20.4280  -32.3510 C   0  0  0  0  0  0  0  0  0  0  0  0
   -6.8040   21.0780  -32.3660 C   0  0  0  0  0  0  0  0  0  0  0  0
   -5.3010   17.9900  -32.2010 C   0  0  0  0  0  0  0  0  0  0  0  0
   -6.1200   16.7070  -32.4580 C   0  0  0  0  0  0  0  0  0  0  0  0
   -5.6764   13.9633  -33.1175 H   0  0  0  0  0  0  0  0  0  0  0  0
   -6.2512   13.2714  -34.6723 H   0  0  0  0  0  0  0  0  0  0  0  0
   -5.0275   14.5863  -34.6723 H   0  0  0  0  0  0  0  0  0  0  0  0
   -7.4451   15.2621  -35.2399 H   0  0  0  0  0  0  0  0  0  0  0  0
   -7.7933   14.9294  -33.4713 H   0  0  0  0  0  0  0  0  0  0  0  0
   -4.7036   16.8261  -34.7177 H   0  0  0  0  0  0  0  0  0  0  0  0
   -6.0748   17.0158  -35.8540 H   0  0  0  0  0  0  0  0  0  0  0  0
   -4.8224   19.1751  -35.0903 H   0  0  0  0  0  0  0  0  0  0  0  0
   -6.6267   19.1736  -35.0102 H   0  0  0  0  0  0  0  0  0  0  0  0
   -3.4130   22.7930  -32.3360 H   0  0  0  0  0  0  0  0  0  0  0  0
   -5.2385   24.1459  -29.5435 H   0  0  0  0  0  0  0  0  0  0  0  0
   -5.0554   25.8369  -30.1211 H   0  0  0  0  0  0  0  0  0  0  0  0
   -6.6741   25.0582  -30.1211 H   0  0  0  0  0  0  0  0  0  0  0  0
   -7.8285   24.1814  -31.3101 H   0  0  0  0  0  0  0  0  0  0  0  0
  -10.0305   23.0139  -31.3098 H   0  0  0  0  0  0  0  0  0  0  0  0
  -10.1769   20.6147  -31.9671 H   0  0  0  0  0  0  0  0  0  0  0  0
   -8.1236   19.3683  -32.6375 H   0  0  0  0  0  0  0  0  0  0  0  0
   -4.2300   17.7569  -32.2942 H   0  0  0  0  0  0  0  0  0  0  0  0
   -5.5317   18.3540  -31.1889 H   0  0  0  0  0  0  0  0  0  0  0  0
   -5.4810   15.8361  -32.2500 H   0  0  0  0  0  0  0  0  0  0  0  0
   -6.9984   16.7403  -31.7967 H   0  0  0  0  0  0  0  0  0  0  0  0
  1  2  1  0
  2  3  1  0
  3  4  1  0
  4  5  1  0
  5  6  1  0
  6  7  1  0
  7  8  2  0
  8  9  1  0
  9 10  2  0
 10 11  1  0
 11 12  1  0
 10 13  1  0
 13 14  2  0
 14 15  1  0
 15 16  2  0
 16 17  1  0
 17 18  2  0
  6 19  1  0
 19 20  1  0
 20  3  1  0
 18  7  1  0
 18 13  1  0
  1 21  1  0
  1 22  1  0
  1 23  1  0
  2 24  1  0
  2 25  1  0
  4 26  1  0
  4 27  1  0
  5 28  1  0
  5 29  1  0
  9 30  1  0
 12 31  1  0
 12 32  1  0
 12 33  1  0
 14 34  1  0
 15 35  1  0
 16 36  1  0
 17 37  1  0
 19 38  1  0
 19 39  1  0
 20 40  1  0
 20 41  1  0
M  CHG  1   9   1
M  END
>  <UniqueID>  (8) 
7

>  <SMILES>  (8) 
CCN1CCN(c2n[nH+]c(OC)c3ccccc23)CC1

>  <Energy>  (8) 
57.77182238391013

>  <Genealogy>  (8) 
CCN1CCN(c2n[nH+]c(OC)c3ccccc23)CC1 (protonated)
CCN1CCN(c2n[nH+]c(OC)c3ccccc23)CC1 (3D coordinates assigned)
CCN1CCN(c2n[nH+]c(OC)c3ccccc23)CC1 (nonaromatic ring conformer: 57.77182238391013 kcal/mol)

>  <smiles>  (8) 
CCN1CCN(c2nnc(OC)c3ccccc23)CC1

>  <score_type>  (8) 
oracle

>  <origin>  (8) 
adg

>  <m_score__min__energy>  (8) 
-6.6699999999999999

>  <m_primary>  (8) 
energy

$$$$
8:0
     RDKit          3D

 27 29  0  0  0  0  0  0  0  0999 V2000
   -3.6000   23.1940  -27.8880 Br  0  0  0  0  0  0  0  0  0  0  0  0
   -3.8050   23.2730  -29.8100 C   0  0  0  0  0  0  0  0  0  0  0  0
   -5.1870   23.7270  -30.1490 C   0  0  0  0  0  0  0  0  0  0  0  0
   -5.7700   24.8500  -29.6810 N   0  0  0  0  0  0  0  0  0  0  0  0
   -6.9960   24.9270  -30.1880 N   0  0  0  0  0  0  0  0  0  0  0  0
   -7.1330   23.8410  -30.9750 C   0  0  0  0  0  0  0  0  0  0  0  0
   -6.0310   23.0880  -30.9710 N   0  0  0  0  0  0  0  0  0  0  0  0
   -5.8950   21.8250  -31.5650 N   0  0  0  0  0  0  0  0  0  0  0  0
   -6.9320   21.1380  -31.9610 C   0  0  0  0  0  0  0  0  0  0  0  0
   -6.7050   19.8020  -32.5700 C   0  0  0  0  0  0  0  0  0  0  0  0
   -5.8590   19.6420  -33.6860 C   0  0  0  0  0  0  0  0  0  0  0  0
   -5.6630   18.3780  -34.2500 C   0  0  0  0  0  0  0  0  0  0  0  0
   -6.3080   17.2620  -33.7130 C   0  0  0  0  0  0  0  0  0  0  0  0
   -7.1550   17.4070  -32.6140 C   0  0  0  0  0  0  0  0  0  0  0  0
   -7.3570   18.6700  -32.0460 C   0  0  0  0  0  0  0  0  0  0  0  0
   -8.3440   21.6260  -31.6580 C   0  0  0  0  0  0  0  0  0  0  0  0
   -8.5580   23.4230  -31.9570 S   0  0  0  0  0  0  0  0  0  0  0  0
   -3.0744   23.9817  -30.2271 H   0  0  0  0  0  0  0  0  0  0  0  0
   -3.6342   22.2736  -30.2367 H   0  0  0  0  0  0  0  0  0  0  0  0
   -5.3540   25.5480  -29.0250 H   0  0  0  0  0  0  0  0  0  0  0  0
   -5.3498   20.5172  -34.1158 H   0  0  0  0  0  0  0  0  0  0  0  0
   -4.9989   18.2622  -35.1192 H   0  0  0  0  0  0  0  0  0  0  0  0
   -6.1482   16.2682  -34.1567 H   0  0  0  0  0  0  0  0  0  0  0  0
   -7.6647   16.5276  -32.1934 H   0  0  0  0  0  0  0  0  0  0  0  0
   -8.0306   18.7789  -31.1832 H   0  0  0  0  0  0  0  0  0  0  0  0
   -9.0500   21.0771  -32.2985 H   0  0  0  0  0  0  0  0  0  0  0  0
   -8.5338   21.4443  -30.5899 H   0  0  0  0  0  0  0  0  0  0  0  0
  1  2  1  0
  2  3  1  0
  3  4  2  0
  4  5  1  0
  5  6  2  0
  6  7  1  0
  7  8  1  0
  8  9  2  0
  9 10  1  0
 10 11  2  0
 11 12  1  0
 12 13  2  0
 13 14  1  0
 14 15  2  0
  9 16  1  0
 16 17  1  0
  7  3  1  0
 15 10  1  0
 17  6  1  0
  2 18  1  0
  2 19  1  0
  4 20  1  0
 11 21  1  0
 12 22  1  0
 13 23  1  0
 14 24  1  0
 15 25  1  0
 16 26  1  0
 16 27  1  0
M  CHG  1   4   1
M  END
>  <UniqueID>  (9) 
8

>  <SMILES>  (9) 
BrCc1[nH+]nc2n1N=C(c1ccccc1)CS2

>  <Energy>  (9) 
74.91692915221635

>  <Genealogy>  (9) 
BrCc1[nH+]nc2n1N=C(c1ccccc1)CS2 (protonated)
BrCc1[nH+]nc2n1N=C(c1ccccc1)CS2 (3D coordinates assigned)
BrCc1[nH+]nc2n1N=C(c1ccccc1)CS2 (nonaromatic ring conformer: 74.91692915221635 kcal/mol)

>  <smiles>  (9) 
BrCc1nnc2n1N=C(c1ccccc1)CS2

>  <score_type>  (9) 
oracle

>  <origin>  (9) 
adg

>  <m_score__min__energy>  (9) 
-7.2699999999999996

>  <m_primary>  (9) 
energy

$$$$
9:0
     RDKit          3D

 59 61  0  0  0  0  0  0  0  0999 V2000
   -3.2610   20.4570  -33.1930 C   0  0  0  0  0  0  0  0  0  0  0  0
   -4.6510   20.6540  -32.9610 O   0  0  0  0  0  0  0  0  0  0  0  0
   -5.6060   19.6260  -32.9180 C   0  0  0  0  0  0  0  0  0  0  0  0
   -5.3180   18.3240  -33.3780 C   0  0  0  0  0  0  0  0  0  0  0  0
   -6.2790   17.3150  -33.2940 C   0  0  0  0  0  0  0  0  0  0  0  0
   -7.5370   17.5900  -32.7580 C   0  0  0  0  0  0  0  0  0  0  0  0
   -7.8380   18.8740  -32.3020 C   0  0  0  0  0  0  0  0  0  0  0  0
   -6.8820   19.8990  -32.3800 C   0  0  0  0  0  0  0  0  0  0  0  0
   -7.2110   21.2110  -31.8890 N   0  0  0  0  0  0  0  0  0  0  0  0
   -8.0600   21.3660  -30.7010 C   0  0  0  0  0  0  0  0  0  0  0  0
   -7.6280   22.5700  -29.8330 C   0  0  0  0  0  0  0  0  0  0  0  0
   -6.7490   23.5370  -30.5390 N   0  0  0  0  0  0  0  0  0  0  0  0
   -6.7700   24.8490  -29.8360 C   0  0  0  0  0  0  0  0  0  0  0  0
   -5.5640   25.7450  -30.1840 C   0  0  0  0  0  0  0  0  0  0  0  0
   -4.3140   24.9490  -30.4220 C   0  0  0  0  0  0  0  0  0  0  0  0
   -4.3340   23.9790  -31.2250 O   0  0  0  0  0  0  0  0  0  0  0  0
   -3.1150   25.2950  -29.7140 N   0  0  0  0  0  0  0  0  0  0  0  0
   -2.1840   24.3860  -29.0360 C   0  0  2  0  0  0  0  0  0  0  0  0
   -1.9850   23.0480  -29.8040 C   0  0  0  0  0  0  0  0  0  0  0  0
   -2.5840   21.8330  -29.0830 C   0  0  0  0  0  0  0  0  0  0  0  0
   -2.0850   21.6900  -27.6290 C   0  0  0  0  0  0  0  0  0  0  0  0
   -1.7080   23.0220  -26.9480 C   0  0  0  0  0  0  0  0  0  0  0  0
   -2.4700   24.2370  -27.5100 C   0  0  2  0  0  0  0  0  0  0  0  0
   -3.9570   24.1980  -27.1110 C   0  0  0  0  0  0  0  0  0  0  0  0
   -7.1610   23.6810  -31.9520 C   0  0  0  0  0  0  0  0  0  0  0  0
   -6.8770   22.3800  -32.7110 C   0  0  0  0  0  0  0  0  0  0  0  0
   -2.7354   20.3825  -32.2296 H   0  0  0  0  0  0  0  0  0  0  0  0
   -3.1126   19.5288  -33.7644 H   0  0  0  0  0  0  0  0  0  0  0  0
   -2.8605   21.3074  -33.7644 H   0  0  0  0  0  0  0  0  0  0  0  0
   -4.3292   18.1022  -33.8059 H   0  0  0  0  0  0  0  0  0  0  0  0
   -6.0438   16.3015  -33.6511 H   0  0  0  0  0  0  0  0  0  0  0  0
   -8.2930   16.7935  -32.6947 H   0  0  0  0  0  0  0  0  0  0  0  0
   -8.8312   19.0844  -31.8785 H   0  0  0  0  0  0  0  0  0  0  0  0
   -9.1002   21.5171  -31.0253 H   0  0  0  0  0  0  0  0  0  0  0  0
   -7.9612   20.4554  -30.0919 H   0  0  0  0  0  0  0  0  0  0  0  0
   -8.5329   23.1015  -29.5032 H   0  0  0  0  0  0  0  0  0  0  0  0
   -7.0459   22.1647  -28.9922 H   0  0  0  0  0  0  0  0  0  0  0  0
   -5.7760   23.1510  -30.5120 H   0  0  0  0  0  0  0  0  0  0  0  0
   -7.6920   25.3802  -30.1149 H   0  0  0  0  0  0  0  0  0  0  0  0
   -6.7223   24.6419  -28.7567 H   0  0  0  0  0  0  0  0  0  0  0  0
   -5.7985   26.3162  -31.0943 H   0  0  0  0  0  0  0  0  0  0  0  0
   -5.3812   26.4113  -29.3281 H   0  0  0  0  0  0  0  0  0  0  0  0
   -1.1955   24.8676  -29.0683 H   0  0  0  0  0  0  0  0  0  0  0  0
   -2.4635   23.1383  -30.7903 H   0  0  0  0  0  0  0  0  0  0  0  0
   -0.9011   22.8769  -29.8801 H   0  0  0  0  0  0  0  0  0  0  0  0
   -3.6789   21.9377  -29.0695 H   0  0  0  0  0  0  0  0  0  0  0  0
   -2.2651   20.9341  -29.6310 H   0  0  0  0  0  0  0  0  0  0  0  0
   -2.8817   21.2152  -27.0375 H   0  0  0  0  0  0  0  0  0  0  0  0
   -1.1646   21.0891  -27.6718 H   0  0  0  0  0  0  0  0  0  0  0  0
   -1.9295   22.9387  -25.8738 H   0  0  0  0  0  0  0  0  0  0  0  0
   -0.6388   23.1930  -27.1417 H   0  0  0  0  0  0  0  0  0  0  0  0
   -2.0985   25.1655  -27.0520 H   0  0  0  0  0  0  0  0  0  0  0  0
   -4.0424   24.1958  -26.0143 H   0  0  0  0  0  0  0  0  0  0  0  0
   -4.4689   25.0830  -27.5168 H   0  0  0  0  0  0  0  0  0  0  0  0
   -4.4218   23.2874  -27.5168 H   0  0  0  0  0  0  0  0  0  0  0  0
   -8.2374   23.9029  -31.9977 H   0  0  0  0  0  0  0  0  0  0  0  0
   -6.5933   24.5022  -32.4139 H   0  0  0  0  0  0  0  0  0  0  0  0
   -7.4821   22.3593  -33.6294 H   0  0  0  0  0  0  0  0  0  0  0  0
   -5.8053   22.3428  -32.9563 H   0  0  0  0  0  0  0  0  0  0  0  0
  1  2  1  0
  2  3  1  0
  3  4  2  0
  4  5  1  0
  5  6  2  0
  6  7  1  0
  7  8  2  0
  8  9  1  0
  9 10  1  0
 10 11  1  0
 11 12  1  0
 12 13  1  0
 13 14  1  0
 14 15  1  0
 15 16  2  0
 15 17  1  0
 17 18  1  0
 18 19  1  0
 19 20  1  0
 20 21  1  0
 21 22  1  0
 22 23  1  0
 23 24  1  0
 12 25  1  0
 25 26  1  0
  8  3  1  0
 26  9  1  0
 23 18  1  0
  1 27  1  0
  1 28  1  0
  1 29  1  0
  4 30  1  0
  5 31  1  0
  6 32  1  0
  7 33  1  0
 10 34  1  0
 10 35  1  0
 11 36  1  0
 11 37  1  0
 12 38  1  0
 13 39  1  0
 13 40  1  0
 14 41  1  0
 14 42  1  0
 18 43  1  1
 19 44  1  0
 19 45  1  0
 20 46  1  0
 20 47  1  0
 21 48  1  0
 21 49  1  0
 22 50  1  0
 22 51  1  0
 23 52  1  1
 24 53  1  0
 24 54  1  0
 24 55  1  0
 25 56  1  0
 25 57  1  0
 26 58  1  0
 26 59  1  0
M  CHG  2  12   1  17  -1
M  END
>  <UniqueID>  (10) 
9

>  <SMILES>  (10) 
COc1ccccc1N1CC[NH+](CCC(=O)[N-][C@@H]2CCCC[C@@H]2C)CC1

>  <Energy>  (10) 
75.35903355379489

>  <Genealogy>  (10) 
COc1ccccc1N1CC[NH+](CCC(=O)[N-]C2CCCCC2C)CC1 (protonated)
COc1ccccc1N1CC[NH+](CCC(=O)[N-][C@@H]2CCCC[C@@H]2C)CC1 (chirality)
COc1ccccc1N1CC[NH+](CCC(=O)[N-][C@@H]2CCCC[C@@H]2C)CC1 (3D coordinates assigned)
COc1ccccc1N1CC[NH+](CCC(=O)[N-][C@@H]2CCCC[C@@H]2C)CC1 (nonaromatic ring conformer: 75.35903355379489 kcal/mol)

>  <smiles>  (10) 
COc1ccccc1N1CCN(CCC(=O)NC2CCCCC2C)CC1

>  <score_type>  (10) 
oracle

>  <origin>  (10) 
adg

>  <m_score__min__energy>  (10) 
-10.02

>  <m_primary>  (10) 
energy

$$$$
10:0
     RDKit          3D

 34 37  0  0  0  0  0  0  0  0999 V2000
   -8.2780   23.3520  -32.3380 C   0  0  0  0  0  0  0  0  0  0  0  0
   -6.9360   22.9570  -31.8120 C   0  0  0  0  0  0  0  0  0  0  0  0
   -6.6150   21.6410  -31.6990 N   0  0  0  0  0  0  0  0  0  0  0  0
   -5.4130   21.2470  -31.2100 C   0  0  0  0  0  0  0  0  0  0  0  0
   -5.1500   20.0180  -31.1340 O   0  0  0  0  0  0  0  0  0  0  0  0
   -4.4730   22.2090  -30.8000 C   0  0  0  0  0  0  0  0  0  0  0  0
   -4.8350   23.5630  -30.9020 C   0  0  0  0  0  0  0  0  0  0  0  0
   -6.0490   23.9080  -31.4080 N   0  0  0  0  0  0  0  0  0  0  0  0
   -3.9640   24.5650  -30.4660 O   0  0  0  0  0  0  0  0  0  0  0  0
   -2.7670   24.2780  -29.8100 C   0  0  0  0  0  0  0  0  0  0  0  0
   -2.0360   25.2940  -29.2860 N   0  0  0  0  0  0  0  0  0  0  0  0
   -0.8820   25.0540  -28.6130 C   0  0  0  0  0  0  0  0  0  0  0  0
   -0.2220   26.0140  -28.1350 O   0  0  0  0  0  0  0  0  0  0  0  0
   -0.4420   23.7810  -28.4510 N   0  0  0  0  0  0  0  0  0  0  0  0
   -1.1330   22.7290  -28.9600 C   0  0  0  0  0  0  0  0  0  0  0  0
   -0.6900   21.5610  -28.7960 O   0  0  0  0  0  0  0  0  0  0  0  0
   -2.3280   22.9500  -29.6690 C   0  0  0  0  0  0  0  0  0  0  0  0
   -3.0860   21.8090  -30.3230 C   0  0  2  0  0  0  0  0  0  0  0  0
   -2.2840   21.2600  -31.4870 C   0  0  0  0  0  0  0  0  0  0  0  0
   -2.5840   21.6370  -32.8100 C   0  0  0  0  0  0  0  0  0  0  0  0
   -1.8400   21.1270  -33.8770 C   0  0  0  0  0  0  0  0  0  0  0  0
   -0.7900   20.2360  -33.6380 C   0  0  0  0  0  0  0  0  0  0  0  0
    0.2250   19.5410  -35.0990 Br  0  0  0  0  0  0  0  0  0  0  0  0
   -0.4840   19.8550  -32.3280 C   0  0  0  0  0  0  0  0  0  0  0  0
   -1.2250   20.3630  -31.2580 C   0  0  0  0  0  0  0  0  0  0  0  0
   -8.9574   23.5520  -31.4963 H   0  0  0  0  0  0  0  0  0  0  0  0
   -8.1786   24.2590  -32.9524 H   0  0  0  0  0  0  0  0  0  0  0  0
   -8.6858   22.5358  -32.9524 H   0  0  0  0  0  0  0  0  0  0  0  0
   -6.3040   24.9190  -31.4760 H   0  0  0  0  0  0  0  0  0  0  0  0
   -3.2233   21.0359  -29.5526 H   0  0  0  0  0  0  0  0  0  0  0  0
   -3.4094   22.3375  -33.0048 H   0  0  0  0  0  0  0  0  0  0  0  0
   -2.0811   21.4274  -34.9074 H   0  0  0  0  0  0  0  0  0  0  0  0
    0.3421   19.1536  -32.1393 H   0  0  0  0  0  0  0  0  0  0  0  0
   -0.9786   20.0595  -30.2298 H   0  0  0  0  0  0  0  0  0  0  0  0
  1  2  1  0
  2  3  2  0
  3  4  1  0
  4  5  2  0
  4  6  1  0
  6  7  2  0
  7  8  1  0
  7  9  1  0
  9 10  1  0
 10 11  1  0
 11 12  1  0
 12 13  2  0
 12 14  1  0
 14 15  1  0
 15 16  2  0
 15 17  1  0
 17 18  1  0
 18 19  1  0
 19 20  2  0
 20 21  1  0
 21 22  2  0
 22 23  1  0
 22 24  1  0
 24 25  2  0
  8  2  1  0
 17 10  2  0
 25 19  1  0
 18  6  1  0
  1 26  1  0
  1 27  1  0
  1 28  1  0
  8 29  1  0
 18 30  1  1
 20 31  1  0
 21 32  1  0
 24 33  1  0
 25 34  1  0
M  CHG  2  11  -1  14  -1
M  END
>  <UniqueID>  (11) 
10

>  <SMILES>  (11) 
Cc1nc(=O)c2c([nH]1)Oc1[n-]c(=O)[n-]c(=O)c1[C@@H]2c1ccc(Br)cc1

>  <Energy>  (11) 
43.950189354362216

>  <Genealogy>  (11) 
Cc1nc(=O)c2c([nH]1)Oc1[n-]c(=O)[n-]c(=O)c1C2c1ccc(Br)cc1 (protonated)
Cc1nc(=O)c2c([nH]1)Oc1[n-]c(=O)[n-]c(=O)c1[C@@H]2c1ccc(Br)cc1 (chirality)
Cc1nc(=O)c2c([nH]1)Oc1[n-]c(=O)[n-]c(=O)c1[C@@H]2c1ccc(Br)cc1 (3D coordinates assigned)
Cc1nc(=O)c2c([nH]1)Oc1[n-]c(=O)[n-]c(=O)c1[C@@H]2c1ccc(Br)cc1 (nonaromatic ring conformer: 43.950189354362216 kcal/mol)

>  <smiles>  (11) 
Cc1nc(=O)c2c([nH]1)Oc1[nH]c(=O)[nH]c(=O)c1C2c1ccc(Br)cc1

>  <score_type>  (11) 
oracle

>  <origin>  (11) 
adg

>  <m_score__min__energy>  (11) 
-10.109999999999999

>  <m_primary>  (11) 
energy

$$$$
11:0
     RDKit          3D

 41 43  0  0  0  0  0  0  0  0999 V2000
   -6.2190   25.3520  -29.9430 C   0  0  0  0  0  0  0  0  0  0  0  0
   -5.0240   24.4040  -29.8990 C   0  0  0  0  0  0  0  0  0  0  0  0
   -4.5440   24.1560  -31.2050 O   0  0  0  0  0  0  0  0  0  0  0  0
   -5.5960   23.7410  -32.0510 C   0  0  0  0  0  0  0  0  0  0  0  0
   -5.8710   22.2530  -31.8330 C   0  0  0  0  0  0  0  0  0  0  0  0
   -7.3110   21.9740  -31.8610 N   0  0  0  0  0  0  0  0  0  0  0  0
   -8.2810   22.8780  -31.6380 C   0  0  0  0  0  0  0  0  0  0  0  0
   -9.4930   22.2920  -31.9230 C   0  0  0  0  0  0  0  0  0  0  0  0
   -9.2960   21.0260  -32.3390 N   0  0  0  0  0  0  0  0  0  0  0  0
   -7.9570   20.8590  -32.2830 C   0  0  0  0  0  0  0  0  0  0  0  0
   -7.3030   19.6130  -32.7240 C   0  0  0  0  0  0  0  0  0  0  0  0
   -7.8150   18.3600  -32.3590 C   0  0  0  0  0  0  0  0  0  0  0  0
   -7.1850   17.1900  -32.7900 C   0  0  0  0  0  0  0  0  0  0  0  0
   -6.0470   17.2550  -33.6010 C   0  0  0  0  0  0  0  0  0  0  0  0
   -5.4940   18.5130  -33.9260 C   0  0  0  0  0  0  0  0  0  0  0  0
   -6.1550   19.6810  -33.5280 C   0  0  0  0  0  0  0  0  0  0  0  0
   -4.2740   18.6340  -34.6010 O   0  0  0  0  0  0  0  0  0  0  0  0
   -3.1010   17.9300  -34.2010 C   0  0  0  0  0  0  0  0  0  0  0  0
   -3.1490   16.4550  -34.6120 C   0  0  0  0  0  0  0  0  0  0  0  0
   -4.1810   15.6360  -33.8330 C   0  0  0  0  0  0  0  0  0  0  0  0
   -5.5170   16.0600  -34.1030 O   0  0  0  0  0  0  0  0  0  0  0  0
   -6.5296   25.5984  -28.9169 H   0  0  0  0  0  0  0  0  0  0  0  0
   -5.9362   26.2741  -30.4719 H   0  0  0  0  0  0  0  0  0  0  0  0
   -7.0526   24.8669  -30.4719 H   0  0  0  0  0  0  0  0  0  0  0  0
   -4.2224   24.8587  -29.2984 H   0  0  0  0  0  0  0  0  0  0  0  0
   -5.3401   23.4518  -29.4480 H   0  0  0  0  0  0  0  0  0  0  0  0
   -6.5026   24.3190  -31.8187 H   0  0  0  0  0  0  0  0  0  0  0  0
   -5.3107   23.9105  -33.0997 H   0  0  0  0  0  0  0  0  0  0  0  0
   -5.3774   21.6758  -32.6287 H   0  0  0  0  0  0  0  0  0  0  0  0
   -5.4777   21.9651  -30.8469 H   0  0  0  0  0  0  0  0  0  0  0  0
   -8.1313   23.9099  -31.2876 H   0  0  0  0  0  0  0  0  0  0  0  0
  -10.4729   22.7824  -31.8260 H   0  0  0  0  0  0  0  0  0  0  0  0
   -8.7160   18.2979  -31.7310 H   0  0  0  0  0  0  0  0  0  0  0  0
   -7.5865   16.2109  -32.4896 H   0  0  0  0  0  0  0  0  0  0  0  0
   -5.7711   20.6608  -33.8484 H   0  0  0  0  0  0  0  0  0  0  0  0
   -2.2258   18.4016  -34.6718 H   0  0  0  0  0  0  0  0  0  0  0  0
   -3.0351   17.9751  -33.1039 H   0  0  0  0  0  0  0  0  0  0  0  0
   -3.3972   16.3999  -35.6822 H   0  0  0  0  0  0  0  0  0  0  0  0
   -2.1611   16.0254  -34.3894 H   0  0  0  0  0  0  0  0  0  0  0  0
   -4.0807   14.5777  -34.1157 H   0  0  0  0  0  0  0  0  0  0  0  0
   -3.9894   15.7821  -32.7597 H   0  0  0  0  0  0  0  0  0  0  0  0
  1  2  1  0
  2  3  1  0
  3  4  1  0
  4  5  1  0
  5  6  1  0
  6  7  1  0
  7  8  2  0
  8  9  1  0
  9 10  2  0
 10 11  1  0
 11 12  2  0
 12 13  1  0
 13 14  2  0
 14 15  1  0
 15 16  2  0
 15 17  1  0
 17 18  1  0
 18 19  1  0
 19 20  1  0
 20 21  1  0
 10  6  1  0
 16 11  1  0
 21 14  1  0
  1 22  1  0
  1 23  1  0
  1 24  1  0
  2 25  1  0
  2 26  1  0
  4 27  1  0
  4 28  1  0
  5 29  1  0
  5 30  1  0
  7 31  1  0
  8 32  1  0
 12 33  1  0
 13 34  1  0
 16 35  1  0
 18 36  1  0
 18 37  1  0
 19 38  1  0
 19 39  1  0
 20 40  1  0
 20 41  1  0
M  END
>  <UniqueID>  (12) 
11

>  <SMILES>  (12) 
CCOCCn1ccnc1-c1ccc2c(c1)OCCCO2

>  <Energy>  (12) 
78.66187795228834

>  <Genealogy>  (12) 
CCOCCn1ccnc1-c1ccc2c(c1)OCCCO2 (3D coordinates assigned)
CCOCCn1ccnc1-c1ccc2c(c1)OCCCO2 (nonaromatic ring conformer: 78.66187795228834 kcal/mol)

>  <smiles>  (12) 
CCOCCn1ccnc1-c1ccc2c(c1)OCCCO2

>  <score_type>  (12) 
oracle

>  <origin>  (12) 
adg

>  <m_score__min__energy>  (12) 
-5.5300000000000002

>  <m_primary>  (12) 
energy

$$$$
12:0
     RDKit          3D

 73 77  0  0  0  0  0  0  0  0999 V2000
   -4.2490   12.9360  -34.9530 C   0  0  0  0  0  0  0  0  0  0  0  0
   -4.9390   14.2100  -34.5600 C   0  0  0  0  0  0  0  0  0  0  0  0
   -6.2000   14.2350  -34.5620 O   0  0  0  0  0  0  0  0  0  0  0  0
   -4.1890   15.3810  -34.1670 N   0  0  0  0  0  0  0  0  0  0  0  0
   -2.7520   15.2620  -33.8590 C   0  0  0  0  0  0  0  0  0  0  0  0
   -2.1620   16.5910  -33.3720 C   0  0  0  0  0  0  0  0  0  0  0  0
   -2.5610   17.7200  -34.3350 C   0  0  0  0  0  0  0  0  0  0  0  0
   -1.9210   19.0480  -33.9770 C   0  0  0  0  0  0  0  0  0  0  0  0
   -0.8600   19.3740  -34.5780 O   0  0  0  0  0  0  0  0  0  0  0  0
   -2.4970   19.9750  -33.0340 N   0  0  0  0  0  0  0  0  0  0  0  0
   -2.3280   19.9190  -31.5910 C   0  0  0  0  0  0  0  0  0  0  0  0
   -3.1390   21.0890  -31.0140 C   0  0  1  0  0  0  0  0  0  0  0  0
   -2.2830   22.0420  -30.2120 C   0  0  0  0  0  0  0  0  0  0  0  0
   -1.7130   23.0060  -30.7920 O   0  0  0  0  0  0  0  0  0  0  0  0
   -2.1540   21.8650  -28.7900 N   0  0  0  0  0  0  0  0  0  0  0  0
   -1.6020   22.8460  -27.8950 C   0  0  0  0  0  0  0  0  0  0  0  0
   -1.9680   24.1910  -28.0430 C   0  0  0  0  0  0  0  0  0  0  0  0
   -1.4280   25.1700  -27.2040 C   0  0  0  0  0  0  0  0  0  0  0  0
   -0.5040   24.8230  -26.2040 C   0  0  0  0  0  0  0  0  0  0  0  0
    0.0670   25.8600  -25.3110 C   0  0  0  0  0  0  0  0  0  0  0  0
   -0.5300   27.1290  -25.2150 C   0  0  0  0  0  0  0  0  0  0  0  0
    0.0180   28.1100  -24.3820 C   0  0  0  0  0  0  0  0  0  0  0  0
    1.1600   27.8340  -23.6110 C   0  0  0  0  0  0  0  0  0  0  0  0
    1.7890   28.9000  -22.7510 C   0  0  0  0  0  0  0  0  0  0  0  0
    1.6640   30.1400  -23.3530 F   0  0  0  0  0  0  0  0  0  0  0  0
    1.1540   28.9290  -21.5250 F   0  0  0  0  0  0  0  0  0  0  0  0
    3.1360   28.6500  -22.5540 F   0  0  0  0  0  0  0  0  0  0  0  0
    1.7670   26.5720  -23.7190 C   0  0  0  0  0  0  0  0  0  0  0  0
    1.2240   25.5930  -24.5580 C   0  0  0  0  0  0  0  0  0  0  0  0
   -0.1190   23.4770  -26.0700 C   0  0  0  0  0  0  0  0  0  0  0  0
   -0.6540   22.4990  -26.9150 C   0  0  0  0  0  0  0  0  0  0  0  0
   -3.7990   21.8070  -32.2160 C   0  0  2  0  0  0  0  0  0  0  0  0
   -5.3150   21.7470  -32.1390 C   0  0  0  0  0  0  0  0  0  0  0  0
   -6.0040   20.5450  -32.3930 C   0  0  0  0  0  0  0  0  0  0  0  0
   -7.3970   20.4930  -32.2950 C   0  0  0  0  0  0  0  0  0  0  0  0
   -8.1190   21.6360  -31.9370 C   0  0  0  0  0  0  0  0  0  0  0  0
   -9.8670   21.5670  -31.8100 Cl  0  0  0  0  0  0  0  0  0  0  0  0
   -7.4430   22.8330  -31.6780 C   0  0  0  0  0  0  0  0  0  0  0  0
   -6.0510   22.8890  -31.7750 C   0  0  0  0  0  0  0  0  0  0  0  0
   -3.2590   21.1280  -33.4800 C   0  0  0  0  0  0  0  0  0  0  0  0
   -4.0970   17.8350  -34.5360 C   0  0  0  0  0  0  0  0  0  0  0  0
   -4.8820   16.6600  -33.9320 C   0  0  0  0  0  0  0  0  0  0  0  0
   -3.9512   12.3861  -34.0481 H   0  0  0  0  0  0  0  0  0  0  0  0
   -4.9349   12.3165  -35.5495 H   0  0  0  0  0  0  0  0  0  0  0  0
   -3.3554   13.1719  -35.5495 H   0  0  0  0  0  0  0  0  0  0  0  0
   -2.6178   14.5038  -33.0735 H   0  0  0  0  0  0  0  0  0  0  0  0
   -2.2274   14.9727  -34.7815 H   0  0  0  0  0  0  0  0  0  0  0  0
   -2.5473   16.8152  -32.3664 H   0  0  0  0  0  0  0  0  0  0  0  0
   -1.0654   16.5117  -33.3388 H   0  0  0  0  0  0  0  0  0  0  0  0
   -2.1506   17.4332  -35.3144 H   0  0  0  0  0  0  0  0  0  0  0  0
   -2.7078   18.9635  -31.2002 H   0  0  0  0  0  0  0  0  0  0  0  0
   -1.2669   19.9924  -31.3105 H   0  0  0  0  0  0  0  0  0  0  0  0
   -3.8956   20.7121  -30.3100 H   0  0  0  0  0  0  0  0  0  0  0  0
   -2.4270   20.9400  -28.3860 H   0  0  0  0  0  0  0  0  0  0  0  0
   -2.6858   24.4783  -28.8255 H   0  0  0  0  0  0  0  0  0  0  0  0
   -1.7289   26.2208  -27.3277 H   0  0  0  0  0  0  0  0  0  0  0  0
   -1.4349   27.3522  -25.7993 H   0  0  0  0  0  0  0  0  0  0  0  0
   -0.4484   29.1049  -24.3301 H   0  0  0  0  0  0  0  0  0  0  0  0
    2.6758   26.3518  -23.1397 H   0  0  0  0  0  0  0  0  0  0  0  0
    1.7059   24.6068  -24.6291 H   0  0  0  0  0  0  0  0  0  0  0  0
    0.6079   23.1913  -25.2954 H   0  0  0  0  0  0  0  0  0  0  0  0
   -0.3316   21.4523  -26.8127 H   0  0  0  0  0  0  0  0  0  0  0  0
   -3.5506   22.8786  -32.2191 H   0  0  0  0  0  0  0  0  0  0  0  0
   -5.4418   19.6412  -32.6704 H   0  0  0  0  0  0  0  0  0  0  0  0
   -7.9268   19.5510  -32.4999 H   0  0  0  0  0  0  0  0  0  0  0  0
   -8.0097   23.7330  -31.3970 H   0  0  0  0  0  0  0  0  0  0  0  0
   -5.5265   23.8329  -31.5653 H   0  0  0  0  0  0  0  0  0  0  0  0
   -4.0909   20.8078  -34.1245 H   0  0  0  0  0  0  0  0  0  0  0  0
   -2.6326   21.8170  -34.0655 H   0  0  0  0  0  0  0  0  0  0  0  0
   -4.4419   18.7654  -34.0612 H   0  0  0  0  0  0  0  0  0  0  0  0
   -4.2838   17.8269  -35.6200 H   0  0  0  0  0  0  0  0  0  0  0  0
   -4.9871   16.8176  -32.8484 H   0  0  0  0  0  0  0  0  0  0  0  0
   -5.8696   16.6155  -34.4144 H   0  0  0  0  0  0  0  0  0  0  0  0
  1  2  1  0
  2  3  2  0
  2  4  1  0
  4  5  1  0
  5  6  1  0
  6  7  1  0
  7  8  1  0
  8  9  2  0
  8 10  1  0
 10 11  1  0
 11 12  1  0
 12 13  1  0
 13 14  2  0
 13 15  1  0
 15 16  1  0
 16 17  2  0
 17 18  1  0
 18 19  2  0
 19 20  1  0
 20 21  2  0
 21 22  1  0
 22 23  2  0
 23 24  1  0
 24 25  1  0
 24 26  1  0
 24 27  1  0
 23 28  1  0
 28 29  2  0
 19 30  1  0
 30 31  2  0
 12 32  1  0
 32 33  1  0
 33 34  2  0
 34 35  1  0
 35 36  2  0
 36 37  1  0
 36 38  1  0
 38 39  2  0
 32 40  1  0
  7 41  1  0
 41 42  1  0
 42  4  1  0
 40 10  1  0
 31 16  1  0
 39 33  1  0
 29 20  1  0
  1 43  1  0
  1 44  1  0
  1 45  1  0
  5 46  1  0
  5 47  1  0
  6 48  1  0
  6 49  1  0
  7 50  1  0
 11 51  1  0
 11 52  1  0
 12 53  1  1
 15 54  1  0
 17 55  1  0
 18 56  1  0
 21 57  1  0
 22 58  1  0
 28 59  1  0
 29 60  1  0
 30 61  1  0
 31 62  1  0
 32 63  1  6
 34 64  1  0
 35 65  1  0
 38 66  1  0
 39 67  1  0
 40 68  1  0
 40 69  1  0
 41 70  1  0
 41 71  1  0
 42 72  1  0
 42 73  1  0
M  END
>  <UniqueID>  (13) 
12

>  <SMILES>  (13) 
CC(=O)N1CCC(C(=O)N2C[C@@H](C(=O)Nc3ccc(-c4ccc(C(F)(F)F)cc4)cc3)[C@H](c3ccc(Cl)cc3)C2)CC1

>  <Energy>  (13) 
93.57837653975906

>  <Genealogy>  (13) 
CC(=O)N1CCC(C(=O)N2C[C@@H](C(=O)Nc3ccc(-c4ccc(C(F)(F)F)cc4)cc3)[C@H](c3ccc(Cl)cc3)C2)CC1 (chirality)
CC(=O)N1CCC(C(=O)N2C[C@@H](C(=O)Nc3ccc(-c4ccc(C(F)(F)F)cc4)cc3)[C@H](c3ccc(Cl)cc3)C2)CC1 (3D coordinates assigned)
CC(=O)N1CCC(C(=O)N2C[C@@H](C(=O)Nc3ccc(-c4ccc(C(F)(F)F)cc4)cc3)[C@H](c3ccc(Cl)cc3)C2)CC1 (nonaromatic ring conformer: 93.57837653975906 kcal/mol)

>  <smiles>  (13) 
CC(=O)N1CCC(C(=O)N2CC(C(=O)Nc3ccc(-c4ccc(C(F)(F)F)cc4)cc3)C(c3ccc(Cl)cc3)C2)CC1

>  <score_type>  (13) 
oracle

>  <origin>  (13) 
adg

>  <m_score__min__energy>  (13) 
-9.1799999999999997

>  <m_primary>  (13) 
energy

$$$$
13:0
     RDKit          3D

 47 50  0  0  0  0  0  0  0  0999 V2000
   -6.8650   25.2980  -29.7450 C   0  0  0  0  0  0  0  0  0  0  0  0
   -5.3690   25.3640  -30.0110 C   0  0  0  0  0  0  0  0  0  0  0  0
   -5.0890   24.7340  -31.2450 O   0  0  0  0  0  0  0  0  0  0  0  0
   -6.2010   23.9710  -31.6780 C   0  0  0  0  0  0  0  0  0  0  0  0
   -6.1090   22.5270  -31.1740 C   0  0  0  0  0  0  0  0  0  0  0  0
   -4.7890   21.9600  -31.4580 N   0  0  0  0  0  0  0  0  0  0  0  0
   -4.4690   20.9480  -32.3090 C   0  0  0  0  0  0  0  0  0  0  0  0
   -5.3200   20.2460  -33.1670 C   0  0  0  0  0  0  0  0  0  0  0  0
   -4.7700   19.2030  -33.9540 C   0  0  0  0  0  0  0  0  0  0  0  0
   -5.5500   18.4480  -34.8430 O   0  0  0  0  0  0  0  0  0  0  0  0
   -6.0930   17.1660  -34.5430 C   0  0  0  0  0  0  0  0  0  0  0  0
   -3.3920   18.8960  -33.8510 C   0  0  0  0  0  0  0  0  0  0  0  0
   -2.5540   19.6070  -32.9760 C   0  0  0  0  0  0  0  0  0  0  0  0
   -3.1240   20.6270  -32.2240 C   0  0  0  0  0  0  0  0  0  0  0  0
   -2.6060   21.4710  -31.2730 C   0  0  0  0  0  0  0  0  0  0  0  0
   -1.3700   21.5720  -30.7380 N   0  0  0  0  0  0  0  0  0  0  0  0
   -1.1720   22.4660  -29.7600 N   0  0  0  0  0  0  0  0  0  0  0  0
   -2.1900   23.2670  -29.2930 C   0  0  0  0  0  0  0  0  0  0  0  0
   -1.9420   24.2320  -28.1950 C   0  0  0  0  0  0  0  0  0  0  0  0
   -0.7730   25.0170  -28.1810 C   0  0  0  0  0  0  0  0  0  0  0  0
   -0.5470   25.9350  -27.1500 C   0  0  0  0  0  0  0  0  0  0  0  0
   -1.4800   26.0790  -26.1210 C   0  0  0  0  0  0  0  0  0  0  0  0
   -1.1930   27.2310  -24.8300 Cl  0  0  0  0  0  0  0  0  0  0  0  0
   -2.6440   25.3050  -26.1230 C   0  0  0  0  0  0  0  0  0  0  0  0
   -2.8760   24.3870  -27.1520 C   0  0  0  0  0  0  0  0  0  0  0  0
   -3.4410   23.1530  -29.8380 N   0  0  0  0  0  0  0  0  0  0  0  0
   -3.6280   22.2520  -30.8300 C   0  0  0  0  0  0  0  0  0  0  0  0
   -7.0445   25.2901  -28.6598 H   0  0  0  0  0  0  0  0  0  0  0  0
   -7.3559   26.1754  -30.1914 H   0  0  0  0  0  0  0  0  0  0  0  0
   -7.2767   24.3808  -30.1914 H   0  0  0  0  0  0  0  0  0  0  0  0
   -5.0487   26.4155  -30.0535 H   0  0  0  0  0  0  0  0  0  0  0  0
   -4.8266   24.8518  -29.2026 H   0  0  0  0  0  0  0  0  0  0  0  0
   -7.1233   24.4286  -31.2908 H   0  0  0  0  0  0  0  0  0  0  0  0
   -6.2084   23.9574  -32.7779 H   0  0  0  0  0  0  0  0  0  0  0  0
   -6.2815   22.5125  -30.0877 H   0  0  0  0  0  0  0  0  0  0  0  0
   -6.8702   21.9241  -31.6908 H   0  0  0  0  0  0  0  0  0  0  0  0
   -6.3893   20.4964  -33.2301 H   0  0  0  0  0  0  0  0  0  0  0  0
   -6.1476   17.0371  -33.4519 H   0  0  0  0  0  0  0  0  0  0  0  0
   -7.1024   17.0857  -34.9727 H   0  0  0  0  0  0  0  0  0  0  0  0
   -5.4484   16.3851  -34.9727 H   0  0  0  0  0  0  0  0  0  0  0  0
   -2.9704   18.0874  -34.4662 H   0  0  0  0  0  0  0  0  0  0  0  0
   -1.4845   19.3649  -32.8892 H   0  0  0  0  0  0  0  0  0  0  0  0
   -0.5850   20.9670  -31.0660 H   0  0  0  0  0  0  0  0  0  0  0  0
   -0.0321   24.9075  -28.9867 H   0  0  0  0  0  0  0  0  0  0  0  0
    0.3682   26.5452  -27.1498 H   0  0  0  0  0  0  0  0  0  0  0  0
   -3.3795   25.4184  -25.3129 H   0  0  0  0  0  0  0  0  0  0  0  0
   -3.7944   23.7816  -27.1469 H   0  0  0  0  0  0  0  0  0  0  0  0
  1  2  1  0
  2  3  1  0
  3  4  1  0
  4  5  1  0
  5  6  1  0
  6  7  1  0
  7  8  2  0
  8  9  1  0
  9 10  1  0
 10 11  1  0
  9 12  2  0
 12 13  1  0
 13 14  2  0
 14 15  1  0
 15 16  2  0
 16 17  1  0
 17 18  2  0
 18 19  1  0
 19 20  2  0
 20 21  1  0
 21 22  2  0
 22 23  1  0
 22 24  1  0
 24 25  2  0
 18 26  1  0
 26 27  2  0
 27  6  1  0
 14  7  1  0
 27 15  1  0
 25 19  1  0
  1 28  1  0
  1 29  1  0
  1 30  1  0
  2 31  1  0
  2 32  1  0
  4 33  1  0
  4 34  1  0
  5 35  1  0
  5 36  1  0
  8 37  1  0
 11 38  1  0
 11 39  1  0
 11 40  1  0
 12 41  1  0
 13 42  1  0
 16 43  1  0
 20 44  1  0
 21 45  1  0
 24 46  1  0
 25 47  1  0
M  CHG  1  16   1
M  END
>  <UniqueID>  (14) 
13

>  <SMILES>  (14) 
CCOCCn1c2cc(OC)ccc2c2[nH+]nc(-c3ccc(Cl)cc3)nc21

>  <Energy>  (14) 
92.52673830342275

>  <Genealogy>  (14) 
CCOCCn1c2cc(OC)ccc2c2[nH+]nc(-c3ccc(Cl)cc3)nc21 (protonated)
CCOCCn1c2cc(OC)ccc2c2[nH+]nc(-c3ccc(Cl)cc3)nc21 (3D coordinates assigned)
CCOCCn1c2cc(OC)ccc2c2[nH+]nc(-c3ccc(Cl)cc3)nc21 (optimized conformer: 92.52673830342275 kcal/mol)

>  <smiles>  (14) 
CCOCCn1c2cc(OC)ccc2c2nnc(-c3ccc(Cl)cc3)nc21

>  <score_type>  (14) 
oracle

>  <origin>  (14) 
adg

>  <m_score__min__energy>  (14) 
-7.1799999999999997

>  <m_primary>  (14) 
energy

$$$$
14:0
     RDKit          3D

 44 46  0  0  0  0  0  0  0  0999 V2000
   -5.0210   20.5390  -32.3230 C   0  0  0  0  0  0  0  0  0  0  0  0
   -6.2820   20.8430  -33.1270 C   0  0  0  0  0  0  0  0  0  0  0  0
   -7.3810   19.9590  -32.7250 N   0  0  0  0  0  0  0  0  0  0  0  0
   -8.5780   20.3220  -32.2110 C   0  0  0  0  0  0  0  0  0  0  0  0
   -9.1160   22.0140  -31.9470 S   0  0  0  0  0  0  0  0  0  0  0  0
   -8.0720   22.2420  -30.4670 C   0  0  0  0  0  0  0  0  0  0  0  0
   -6.7310   22.9160  -30.8080 C   0  0  0  0  0  0  0  0  0  0  0  0
   -6.1690   23.7670  -29.7340 N   0  0  0  0  0  0  0  0  0  0  0  0
   -4.7850   23.4560  -29.3150 C   0  0  0  0  0  0  0  0  0  0  0  0
   -3.7880   24.5570  -29.7100 C   0  0  0  0  0  0  0  0  0  0  0  0
   -4.2560   25.2740  -30.8300 O   0  0  0  0  0  0  0  0  0  0  0  0
   -5.3760   26.0480  -30.4550 C   0  0  0  0  0  0  0  0  0  0  0  0
   -6.4990   25.2040  -29.8110 C   0  0  0  0  0  0  0  0  0  0  0  0
   -9.3240   19.2540  -31.8690 N   0  0  0  0  0  0  0  0  0  0  0  0
   -8.5940   18.1900  -32.1590 N   0  0  0  0  0  0  0  0  0  0  0  0
   -7.4240   18.6070  -32.6790 C   0  0  0  0  0  0  0  0  0  0  0  0
   -6.3360   17.6820  -33.0660 C   0  0  0  0  0  0  0  0  0  0  0  0
   -5.8150   17.6740  -34.3690 C   0  0  0  0  0  0  0  0  0  0  0  0
   -4.8030   16.7710  -34.7020 C   0  0  0  0  0  0  0  0  0  0  0  0
   -4.3350   15.8970  -33.7720 N   0  0  0  0  0  0  0  0  0  0  0  0
   -4.8310   15.8710  -32.5080 C   0  0  0  0  0  0  0  0  0  0  0  0
   -5.8440   16.7580  -32.1330 C   0  0  0  0  0  0  0  0  0  0  0  0
   -5.2492   20.5940  -31.2483 H   0  0  0  0  0  0  0  0  0  0  0  0
   -4.6629   19.5288  -32.5706 H   0  0  0  0  0  0  0  0  0  0  0  0
   -4.2420   21.2751  -32.5706 H   0  0  0  0  0  0  0  0  0  0  0  0
   -6.5776   21.8881  -32.9529 H   0  0  0  0  0  0  0  0  0  0  0  0
   -6.0687   20.6783  -34.1935 H   0  0  0  0  0  0  0  0  0  0  0  0
   -8.6124   22.8710  -29.7443 H   0  0  0  0  0  0  0  0  0  0  0  0
   -7.8567   21.2489  -30.0458 H   0  0  0  0  0  0  0  0  0  0  0  0
   -6.0000   22.1262  -31.0357 H   0  0  0  0  0  0  0  0  0  0  0  0
   -6.9297   23.5845  -31.6587 H   0  0  0  0  0  0  0  0  0  0  0  0
   -4.7656   23.3386  -28.2215 H   0  0  0  0  0  0  0  0  0  0  0  0
   -4.4811   22.5311  -29.8270 H   0  0  0  0  0  0  0  0  0  0  0  0
   -3.6613   25.2496  -28.8649 H   0  0  0  0  0  0  0  0  0  0  0  0
   -2.8265   24.0883  -29.9664 H   0  0  0  0  0  0  0  0  0  0  0  0
   -5.0503   26.8100  -29.7316 H   0  0  0  0  0  0  0  0  0  0  0  0
   -5.7859   26.5019  -31.3693 H   0  0  0  0  0  0  0  0  0  0  0  0
   -6.6778   25.5777  -28.7920 H   0  0  0  0  0  0  0  0  0  0  0  0
   -7.3909   25.3030  -30.4472 H   0  0  0  0  0  0  0  0  0  0  0  0
   -8.8990   17.2040  -32.0010 H   0  0  0  0  0  0  0  0  0  0  0  0
   -6.2014   18.3748  -35.1236 H   0  0  0  0  0  0  0  0  0  0  0  0
   -4.3838   16.7670  -35.7190 H   0  0  0  0  0  0  0  0  0  0  0  0
   -4.4346   15.1502  -31.7777 H   0  0  0  0  0  0  0  0  0  0  0  0
   -6.2528   16.7314  -31.1121 H   0  0  0  0  0  0  0  0  0  0  0  0
  1  2  1  0
  2  3  1  0
  3  4  1  0
  4  5  1  0
  5  6  1  0
  6  7  1  0
  7  8  1  0
  8  9  1  0
  9 10  1  0
 10 11  1  0
 11 12  1  0
 12 13  1  0
  4 14  2  0
 14 15  1  0
 15 16  2  0
 16 17  1  0
 17 18  2  0
 18 19  1  0
 19 20  2  0
 20 21  1  0
 21 22  2  0
 16  3  1  0
 22 17  1  0
 13  8  1  0
  1 23  1  0
  1 24  1  0
  1 25  1  0
  2 26  1  0
  2 27  1  0
  6 28  1  0
  6 29  1  0
  7 30  1  0
  7 31  1  0
  9 32  1  0
  9 33  1  0
 10 34  1  0
 10 35  1  0
 12 36  1  0
 12 37  1  0
 13 38  1  0
 13 39  1  0
 15 40  1  0
 18 41  1  0
 19 42  1  0
 21 43  1  0
 22 44  1  0
M  CHG  1  15   1
M  END
>  <UniqueID>  (15) 
14

>  <SMILES>  (15) 
CCn1c(SCCN2CCOCC2)n[nH+]c1-c1ccncc1

>  <Energy>  (15) 
95.84169030642374

>  <Genealogy>  (15) 
CCn1c(SCCN2CCOCC2)n[nH+]c1-c1ccncc1 (protonated)
CCn1c(SCCN2CCOCC2)n[nH+]c1-c1ccncc1 (3D coordinates assigned)
CCn1c(SCCN2CCOCC2)n[nH+]c1-c1ccncc1 (nonaromatic ring conformer: 95.84169030642374 kcal/mol)

>  <smiles>  (15) 
CCn1c(SCCN2CCOCC2)nnc1-c1ccncc1

>  <score_type>  (15) 
oracle

>  <origin>  (15) 
adg

>  <m_score__min__energy>  (15) 
-7.7199999999999998

>  <m_primary>  (15) 
energy

$$$$
15:0
     RDKit          3D

 37 38  0  0  0  0  0  0  0  0999 V2000
    0.1590   23.9160  -25.9820 C   0  0  0  0  0  0  0  0  0  0  0  0
    0.8570   24.6200  -27.1420 C   0  0  0  0  0  0  0  0  0  0  0  0
   -0.0990   24.9090  -28.2350 N   0  0  0  0  0  0  0  0  0  0  0  0
   -1.2640   25.6780  -27.7560 C   0  0  0  0  0  0  0  0  0  0  0  0
   -0.5200   23.6810  -28.9450 C   0  0  0  0  0  0  0  0  0  0  0  0
   -1.9370   23.7140  -29.3510 C   0  0  0  0  0  0  0  0  0  0  0  0
   -3.0930   23.7410  -29.6920 C   0  0  0  0  0  0  0  0  0  0  0  0
   -4.4720   23.7670  -30.1000 C   0  0  0  0  0  0  0  0  0  0  0  0
   -5.2210   24.9410  -29.9570 C   0  0  0  0  0  0  0  0  0  0  0  0
   -6.5610   24.9650  -30.3490 C   0  0  0  0  0  0  0  0  0  0  0  0
   -7.1570   23.8220  -30.8880 C   0  0  0  0  0  0  0  0  0  0  0  0
   -6.4150   22.6350  -31.0470 C   0  0  0  0  0  0  0  0  0  0  0  0
   -7.0310   21.4060  -31.6100 C   0  0  0  0  0  0  0  0  0  0  0  0
   -8.3530   21.0320  -31.3040 C   0  0  0  0  0  0  0  0  0  0  0  0
   -8.8870   19.8700  -31.8620 C   0  0  0  0  0  0  0  0  0  0  0  0
   -8.1130   19.0900  -32.7210 C   0  0  0  0  0  0  0  0  0  0  0  0
   -6.8080   19.4910  -33.0140 C   0  0  0  0  0  0  0  0  0  0  0  0
   -5.7250   18.4530  -34.1920 Br  0  0  0  0  0  0  0  0  0  0  0  0
   -6.3050   20.6250  -32.4610 N   0  0  0  0  0  0  0  0  0  0  0  0
   -5.0680   22.6180  -30.6390 C   0  0  0  0  0  0  0  0  0  0  0  0
    0.5464   24.3067  -25.0295 H   0  0  0  0  0  0  0  0  0  0  0  0
   -0.9241   24.0993  -26.0402 H   0  0  0  0  0  0  0  0  0  0  0  0
    0.3515   22.8345  -26.0402 H   0  0  0  0  0  0  0  0  0  0  0  0
    1.2895   25.5652  -26.7822 H   0  0  0  0  0  0  0  0  0  0  0  0
    1.6468   23.9601  -27.5304 H   0  0  0  0  0  0  0  0  0  0  0  0
   -1.2725   25.6836  -26.6560 H   0  0  0  0  0  0  0  0  0  0  0  0
   -1.1991   26.7113  -28.1275 H   0  0  0  0  0  0  0  0  0  0  0  0
   -2.1887   25.2122  -28.1275 H   0  0  0  0  0  0  0  0  0  0  0  0
    0.1011   23.5650  -29.8454 H   0  0  0  0  0  0  0  0  0  0  0  0
   -0.3936   22.8370  -28.2510 H   0  0  0  0  0  0  0  0  0  0  0  0
   -4.7543   25.8438  -29.5362 H   0  0  0  0  0  0  0  0  0  0  0  0
   -7.1495   25.8871  -30.2330 H   0  0  0  0  0  0  0  0  0  0  0  0
   -8.2142   23.8491  -31.1907 H   0  0  0  0  0  0  0  0  0  0  0  0
   -8.9614   21.6520  -30.6291 H   0  0  0  0  0  0  0  0  0  0  0  0
   -9.9181   19.5692  -31.6245 H   0  0  0  0  0  0  0  0  0  0  0  0
   -8.5254   18.1706  -33.1621 H   0  0  0  0  0  0  0  0  0  0  0  0
   -4.4780   21.6956  -30.7439 H   0  0  0  0  0  0  0  0  0  0  0  0
  1  2  1  0
  2  3  1  0
  3  4  1  0
  3  5  1  0
  5  6  1  0
  6  7  3  0
  7  8  1  0
  8  9  2  0
  9 10  1  0
 10 11  2  0
 11 12  1  0
 12 13  1  0
 13 14  2  0
 14 15  1  0
 15 16  2  0
 16 17  1  0
 17 18  1  0
 17 19  2  0
 12 20  2  0
 20  8  1  0
 19 13  1  0
  1 21  1  0
  1 22  1  0
  1 23  1  0
  2 24  1  0
  2 25  1  0
  4 26  1  0
  4 27  1  0
  4 28  1  0
  5 29  1  0
  5 30  1  0
  9 31  1  0
 10 32  1  0
 11 33  1  0
 14 34  1  0
 15 35  1  0
 16 36  1  0
 20 37  1  0
M  END
>  <UniqueID>  (16) 
15

>  <SMILES>  (16) 
CCN(C)CC#Cc1cccc(-c2cccc(Br)n2)c1

>  <Energy>  (16) 
38.092259153967944

>  <Genealogy>  (16) 
CCN(C)CC#Cc1cccc(-c2cccc(Br)n2)c1 (3D coordinates assigned)
CCN(C)CC#Cc1cccc(-c2cccc(Br)n2)c1 (optimized conformer: 38.092259153967944 kcal/mol)

>  <smiles>  (16) 
CCN(C)CC#Cc1cccc(-c2cccc(Br)n2)c1

>  <score_type>  (16) 
oracle

>  <origin>  (16) 
adg

>  <m_score__min__energy>  (16) 
-7.5099999999999998

>  <m_primary>  (16) 
energy

$$$$
16:0
     RDKit          3D

 50 51  0  0  0  0  0  0  0  0999 V2000
   -2.3650   25.1250  -26.6290 C   0  0  0  0  0  0  0  0  0  0  0  0
   -1.6090   25.2690  -27.9430 C   0  0  0  0  0  0  0  0  0  0  0  0
   -2.3650   24.5900  -29.0230 N   0  0  0  0  0  0  0  0  0  0  0  0
   -1.6300   23.4690  -29.6470 C   0  0  0  0  0  0  0  0  0  0  0  0
   -2.5170   22.2310  -29.7510 C   0  0  0  0  0  0  0  0  0  0  0  0
   -3.7450   24.2270  -28.6280 C   0  0  0  0  0  0  0  0  0  0  0  0
   -4.8360   24.8840  -29.5000 C   0  0  0  0  0  0  0  0  0  0  0  0
   -4.5920   24.6060  -30.8660 O   0  0  0  0  0  0  0  0  0  0  0  0
   -5.8070   24.5430  -31.5860 C   0  0  0  0  0  0  0  0  0  0  0  0
   -6.7080   23.4690  -30.9790 C   0  0  0  0  0  0  0  0  0  0  0  0
   -6.3990   22.1470  -31.5390 N   0  0  0  0  0  0  0  0  0  0  0  0
   -5.0290   21.8480  -32.0180 C   0  0  0  0  0  0  0  0  0  0  0  0
   -5.0360   20.9380  -33.1870 N   0  0  0  0  0  0  0  0  0  0  0  0
   -5.8670   19.7930  -32.9280 C   0  0  0  0  0  0  0  0  0  0  0  0
   -5.9550   18.6070  -33.6340 C   0  0  0  0  0  0  0  0  0  0  0  0
   -5.0520   18.1620  -34.7340 C   0  0  0  0  0  0  0  0  0  0  0  0
   -7.1050   17.9770  -33.2950 N   0  0  0  0  0  0  0  0  0  0  0  0
   -7.7320   18.7280  -32.4000 N   0  0  0  0  0  0  0  0  0  0  0  0
   -9.0550   18.4220  -31.8690 C   0  0  0  0  0  0  0  0  0  0  0  0
   -7.0090   19.8460  -32.1870 C   0  0  0  0  0  0  0  0  0  0  0  0
   -7.3560   21.0690  -31.4740 C   0  0  0  0  0  0  0  0  0  0  0  0
   -8.4500   21.1910  -30.8600 O   0  0  0  0  0  0  0  0  0  0  0  0
   -1.6679   25.2578  -25.7885 H   0  0  0  0  0  0  0  0  0  0  0  0
   -3.1546   25.8889  -26.5747 H   0  0  0  0  0  0  0  0  0  0  0  0
   -2.8185   24.1243  -26.5747 H   0  0  0  0  0  0  0  0  0  0  0  0
   -1.4979   26.3357  -28.1875 H   0  0  0  0  0  0  0  0  0  0  0  0
   -0.6139   24.8103  -27.8466 H   0  0  0  0  0  0  0  0  0  0  0  0
   -1.3064   23.7666  -30.6553 H   0  0  0  0  0  0  0  0  0  0  0  0
   -0.7583   23.2269  -29.0213 H   0  0  0  0  0  0  0  0  0  0  0  0
   -2.7712   21.8762  -28.7413 H   0  0  0  0  0  0  0  0  0  0  0  0
   -3.4396   22.4854  -30.2933 H   0  0  0  0  0  0  0  0  0  0  0  0
   -1.9794   21.4393  -30.2933 H   0  0  0  0  0  0  0  0  0  0  0  0
   -3.8515   23.1348  -28.7039 H   0  0  0  0  0  0  0  0  0  0  0  0
   -3.8913   24.5941  -27.6014 H   0  0  0  0  0  0  0  0  0  0  0  0
   -5.8203   24.4833  -29.2162 H   0  0  0  0  0  0  0  0  0  0  0  0
   -4.8188   25.9726  -29.3429 H   0  0  0  0  0  0  0  0  0  0  0  0
   -6.3139   25.5179  -31.5345 H   0  0  0  0  0  0  0  0  0  0  0  0
   -5.5965   24.2921  -32.6361 H   0  0  0  0  0  0  0  0  0  0  0  0
   -6.5545   23.4436  -29.8901 H   0  0  0  0  0  0  0  0  0  0  0  0
   -7.7542   23.7142  -31.2142 H   0  0  0  0  0  0  0  0  0  0  0  0
   -4.5394   22.7904  -32.3045 H   0  0  0  0  0  0  0  0  0  0  0  0
   -4.4852   21.3490  -31.2023 H   0  0  0  0  0  0  0  0  0  0  0  0
   -4.0590   20.6230  -33.3850 H   0  0  0  0  0  0  0  0  0  0  0  0
   -5.4140   21.4470  -34.0200 H   0  0  0  0  0  0  0  0  0  0  0  0
   -4.1437   17.7144  -34.3043 H   0  0  0  0  0  0  0  0  0  0  0  0
   -5.5701   17.4160  -35.3546 H   0  0  0  0  0  0  0  0  0  0  0  0
   -4.7761   19.0273  -35.3546 H   0  0  0  0  0  0  0  0  0  0  0  0
   -9.0197   18.4302  -30.7696 H   0  0  0  0  0  0  0  0  0  0  0  0
   -9.7741   19.1775  -32.2184 H   0  0  0  0  0  0  0  0  0  0  0  0
   -9.3693   17.4274  -32.2184 H   0  0  0  0  0  0  0  0  0  0  0  0
  1  2  1  0
  2  3  1  0
  3  4  1  0
  4  5  1  0
  3  6  1  0
  6  7  1  0
  7  8  1  0
  8  9  1  0
  9 10  1  0
 10 11  1  0
 11 12  1  0
 12 13  1  0
 13 14  1  0
 14 15  1  0
 15 16  1  0
 15 17  2  0
 17 18  1  0
 18 19  1  0
 18 20  1  0
 20 21  1  0
 21 22  2  0
 21 11  1  0
 20 14  2  0
  1 23  1  0
  1 24  1  0
  1 25  1  0
  2 26  1  0
  2 27  1  0
  4 28  1  0
  4 29  1  0
  5 30  1  0
  5 31  1  0
  5 32  1  0
  6 33  1  0
  6 34  1  0
  7 35  1  0
  7 36  1  0
  9 37  1  0
  9 38  1  0
 10 39  1  0
 10 40  1  0
 12 41  1  0
 12 42  1  0
 13 43  1  0
 13 44  1  0
 16 45  1  0
 16 46  1  0
 16 47  1  0
 19 48  1  0
 19 49  1  0
 19 50  1  0
M  CHG  1  13   1
M  END
>  <UniqueID>  (17) 
16

>  <SMILES>  (17) 
CCN(CC)CCOCCN1C[NH2+]c2c(C)nn(C)c2C1=O

>  <Energy>  (17) 
85.21235499173925

>  <Genealogy>  (17) 
CCN(CC)CCOCCN1C[NH2+]c2c(C)nn(C)c2C1=O (protonated)
CCN(CC)CCOCCN1C[NH2+]c2c(C)nn(C)c2C1=O (3D coordinates assigned)
CCN(CC)CCOCCN1C[NH2+]c2c(C)nn(C)c2C1=O (nonaromatic ring conformer: 85.21235499173925 kcal/mol)

>  <smiles>  (17) 
CCN(CC)CCOCCN1CNc2c(C)nn(C)c2C1=O

>  <score_type>  (17) 
oracle

>  <origin>  (17) 
adg

>  <m_score__min__energy>  (17) 
-6.5199999999999996

>  <m_primary>  (17) 
energy

$$$$
17:0
     RDKit          3D

 49 51  0  0  0  0  0  0  0  0999 V2000
   -1.4020   20.9420  -33.5520 C   0  0  0  0  0  0  0  0  0  0  0  0
   -2.8490   20.6360  -33.3070 C   0  0  0  0  0  0  0  0  0  0  0  0
   -3.6270   21.4750  -32.5010 C   0  0  0  0  0  0  0  0  0  0  0  0
   -4.9430   21.1990  -32.3020 N   0  0  0  0  0  0  0  0  0  0  0  0
   -5.5670   20.1430  -32.8940 C   0  0  0  0  0  0  0  0  0  0  0  0
   -4.8260   19.2990  -33.7470 C   0  0  0  0  0  0  0  0  0  0  0  0
   -3.4640   19.5470  -33.9350 C   0  0  0  0  0  0  0  0  0  0  0  0
   -5.4070   18.2170  -34.4120 O   0  0  0  0  0  0  0  0  0  0  0  0
   -5.8880   17.0650  -33.7250 C   0  0  0  0  0  0  0  0  0  0  0  0
   -7.2280   17.3240  -33.0440 C   0  0  0  0  0  0  0  0  0  0  0  0
   -7.1470   18.4060  -31.9570 C   0  0  0  0  0  0  0  0  0  0  0  0
   -6.9980   19.8430  -32.5030 C   0  0  1  0  0  0  0  0  0  0  0  0
   -7.4910   20.8480  -31.5360 N   0  0  0  0  0  0  0  0  0  0  0  0
   -8.6720   21.5850  -32.0210 C   0  0  0  0  0  0  0  0  0  0  0  0
   -8.4500   23.1090  -32.0060 C   0  0  0  0  0  0  0  0  0  0  0  0
   -6.9660   23.4480  -31.8300 C   0  0  0  0  0  0  0  0  0  0  0  0
   -6.6400   23.5530  -30.3880 N   0  0  0  0  0  0  0  0  0  0  0  0
   -5.2970   23.0120  -30.0690 C   0  0  0  0  0  0  0  0  0  0  0  0
   -4.1990   24.0950  -30.1050 C   0  0  0  0  0  0  0  0  0  0  0  0
   -4.5660   25.1460  -30.9710 O   0  0  0  0  0  0  0  0  0  0  0  0
   -5.6670   25.8580  -30.4320 C   0  0  0  0  0  0  0  0  0  0  0  0
   -6.7810   24.9340  -29.8850 C   0  0  0  0  0  0  0  0  0  0  0  0
   -0.8823   21.0519  -32.5888 H   0  0  0  0  0  0  0  0  0  0  0  0
   -0.9452   20.1206  -34.1235 H   0  0  0  0  0  0  0  0  0  0  0  0
   -1.3168   21.8780  -34.1235 H   0  0  0  0  0  0  0  0  0  0  0  0
   -3.1731   22.3584  -32.0282 H   0  0  0  0  0  0  0  0  0  0  0  0
   -2.8714   18.8822  -34.5806 H   0  0  0  0  0  0  0  0  0  0  0  0
   -6.0098   16.2452  -34.4483 H   0  0  0  0  0  0  0  0  0  0  0  0
   -5.1562   16.8033  -32.9466 H   0  0  0  0  0  0  0  0  0  0  0  0
   -7.9527   17.6460  -33.8064 H   0  0  0  0  0  0  0  0  0  0  0  0
   -7.5363   16.3879  -32.5555 H   0  0  0  0  0  0  0  0  0  0  0  0
   -8.0664   18.3595  -31.3549 H   0  0  0  0  0  0  0  0  0  0  0  0
   -6.2412   18.1960  -31.3693 H   0  0  0  0  0  0  0  0  0  0  0  0
   -7.6209   19.9068  -33.4074 H   0  0  0  0  0  0  0  0  0  0  0  0
   -6.7360   21.5340  -31.2970 H   0  0  0  0  0  0  0  0  0  0  0  0
   -8.8891   21.2683  -33.0518 H   0  0  0  0  0  0  0  0  0  0  0  0
   -9.5125   21.3584  -31.3485 H   0  0  0  0  0  0  0  0  0  0  0  0
   -8.8053   23.5333  -32.9567 H   0  0  0  0  0  0  0  0  0  0  0  0
   -9.0088   23.5354  -31.1599 H   0  0  0  0  0  0  0  0  0  0  0  0
   -6.3543   22.6553  -32.2854 H   0  0  0  0  0  0  0  0  0  0  0  0
   -6.7536   24.4096  -32.3202 H   0  0  0  0  0  0  0  0  0  0  0  0
   -5.3246   22.5712  -29.0615 H   0  0  0  0  0  0  0  0  0  0  0  0
   -5.0497   22.2604  -30.8332 H   0  0  0  0  0  0  0  0  0  0  0  0
   -4.0536   24.4962  -29.0911 H   0  0  0  0  0  0  0  0  0  0  0  0
   -3.2664   23.6421  -30.4726 H   0  0  0  0  0  0  0  0  0  0  0  0
   -5.3044   26.4929  -29.6101 H   0  0  0  0  0  0  0  0  0  0  0  0
   -6.1051   26.4502  -31.2489 H   0  0  0  0  0  0  0  0  0  0  0  0
   -6.7259   24.9208  -28.7865 H   0  0  0  0  0  0  0  0  0  0  0  0
   -7.7505   25.3262  -30.2260 H   0  0  0  0  0  0  0  0  0  0  0  0
  1  2  1  0
  2  3  2  0
  3  4  1  0
  4  5  2  0
  5  6  1  0
  6  7  2  0
  6  8  1  0
  8  9  1  0
  9 10  1  0
 10 11  1  0
 11 12  1  0
 12 13  1  0
 13 14  1  0
 14 15  1  0
 15 16  1  0
 16 17  1  0
 17 18  1  0
 18 19  1  0
 19 20  1  0
 20 21  1  0
 21 22  1  0
  7  2  1  0
 22 17  1  0
 12  5  1  0
  1 23  1  0
  1 24  1  0
  1 25  1  0
  3 26  1  0
  7 27  1  0
  9 28  1  0
  9 29  1  0
 10 30  1  0
 10 31  1  0
 11 32  1  0
 11 33  1  0
 12 34  1  6
 13 35  1  0
 14 36  1  0
 14 37  1  0
 15 38  1  0
 15 39  1  0
 16 40  1  0
 16 41  1  0
 18 42  1  0
 18 43  1  0
 19 44  1  0
 19 45  1  0
 21 46  1  0
 21 47  1  0
 22 48  1  0
 22 49  1  0
M  END
>  <UniqueID>  (18) 
17

>  <SMILES>  (18) 
Cc1cnc2c(c1)OCCC[C@H]2NCCCN1CCOCC1

>  <Energy>  (18) 
65.82905269713504

>  <Genealogy>  (18) 
Cc1cnc2c(c1)OCCC[C@H]2NCCCN1CCOCC1 (chirality)
Cc1cnc2c(c1)OCCC[C@H]2NCCCN1CCOCC1 (3D coordinates assigned)
Cc1cnc2c(c1)OCCC[C@H]2NCCCN1CCOCC1 (nonaromatic ring conformer: 65.82905269713504 kcal/mol)

>  <smiles>  (18) 
Cc1cnc2c(c1)OCCCC2NCCCN1CCOCC1

>  <score_type>  (18) 
oracle

>  <origin>  (18) 
adg

>  <m_score__min__energy>  (18) 
-6.1600000000000001

>  <m_primary>  (18) 
energy

$$$$
18:0
     RDKit          3D

 41 43  0  0  0  0  0  0  0  0999 V2000
   -2.7560   22.8060  -30.1690 C   0  0  0  0  0  0  0  0  0  0  0  0
   -3.3440   24.2130  -30.1030 C   0  0  0  0  0  0  0  0  0  0  0  0
   -4.6320   24.2790  -30.8300 N   0  0  0  0  0  0  0  0  0  0  0  0
   -5.2940   25.5740  -30.5880 C   0  0  0  0  0  0  0  0  0  0  0  0
   -5.5360   23.1770  -30.4300 C   0  0  0  0  0  0  0  0  0  0  0  0
   -6.2880   22.5990  -31.6430 C   0  0  0  0  0  0  0  0  0  0  0  0
   -5.3600   22.2730  -32.7270 N   0  0  0  0  0  0  0  0  0  0  0  0
   -4.7510   20.9840  -32.8650 C   0  0  0  0  0  0  0  0  0  0  0  0
   -5.3940   19.7440  -32.8470 C   0  0  0  0  0  0  0  0  0  0  0  0
   -6.8140   19.4570  -32.5760 C   0  0  0  0  0  0  0  0  0  0  0  0
   -7.9300   20.1680  -33.0090 C   0  0  0  0  0  0  0  0  0  0  0  0
   -9.1390   19.6460  -32.5340 C   0  0  0  0  0  0  0  0  0  0  0  0
   -8.9880   18.5300  -31.7230 C   0  0  0  0  0  0  0  0  0  0  0  0
   -7.3460   18.1990  -31.5940 S   0  0  0  0  0  0  0  0  0  0  0  0
   -4.5190   18.7890  -33.1110 O   0  0  0  0  0  0  0  0  0  0  0  0
   -3.3490   19.3500  -33.3070 C   0  0  0  0  0  0  0  0  0  0  0  0
   -2.1530   18.7170  -33.6350 C   0  0  0  0  0  0  0  0  0  0  0  0
   -1.0190   19.5200  -33.8510 C   0  0  0  0  0  0  0  0  0  0  0  0
   -1.1100   20.9260  -33.7470 C   0  0  0  0  0  0  0  0  0  0  0  0
   -2.3300   21.5400  -33.4140 C   0  0  0  0  0  0  0  0  0  0  0  0
   -3.4310   20.7140  -33.1750 C   0  0  0  0  0  0  0  0  0  0  0  0
   -2.5975   22.4266  -29.1487 H   0  0  0  0  0  0  0  0  0  0  0  0
   -3.4521   22.1424  -30.7029 H   0  0  0  0  0  0  0  0  0  0  0  0
   -1.7947   22.8350  -30.7029 H   0  0  0  0  0  0  0  0  0  0  0  0
   -3.5097   24.4856  -29.0503 H   0  0  0  0  0  0  0  0  0  0  0  0
   -2.6375   24.9129  -30.5731 H   0  0  0  0  0  0  0  0  0  0  0  0
   -5.3812   25.7445  -29.5048 H   0  0  0  0  0  0  0  0  0  0  0  0
   -4.6977   26.3806  -31.0393 H   0  0  0  0  0  0  0  0  0  0  0  0
   -6.2971   25.5630  -31.0393 H   0  0  0  0  0  0  0  0  0  0  0  0
   -4.9414   22.3778  -29.9635 H   0  0  0  0  0  0  0  0  0  0  0  0
   -6.2767   23.5766  -29.7217 H   0  0  0  0  0  0  0  0  0  0  0  0
   -6.8181   21.6854  -31.3360 H   0  0  0  0  0  0  0  0  0  0  0  0
   -7.0010   23.3537  -32.0063 H   0  0  0  0  0  0  0  0  0  0  0  0
   -5.1170   23.0170  -33.4190 H   0  0  0  0  0  0  0  0  0  0  0  0
   -7.8679   21.0525  -33.6600 H   0  0  0  0  0  0  0  0  0  0  0  0
  -10.1189   20.0806  -32.7810 H   0  0  0  0  0  0  0  0  0  0  0  0
   -9.8011   17.9616  -31.2478 H   0  0  0  0  0  0  0  0  0  0  0  0
   -2.0969   17.6219  -33.7225 H   0  0  0  0  0  0  0  0  0  0  0  0
   -0.0562   19.0510  -34.1022 H   0  0  0  0  0  0  0  0  0  0  0  0
   -0.2191   21.5453  -33.9280 H   0  0  0  0  0  0  0  0  0  0  0  0
   -2.4149   22.6345  -33.3440 H   0  0  0  0  0  0  0  0  0  0  0  0
  1  2  1  0
  2  3  1  0
  3  4  1  0
  3  5  1  0
  5  6  1  0
  6  7  1  0
  7  8  1  0
  8  9  2  0
  9 10  1  0
 10 11  2  0
 11 12  1  0
 12 13  2  0
 13 14  1  0
  9 15  1  0
 15 16  1  0
 16 17  2  0
 17 18  1  0
 18 19  2  0
 19 20  1  0
 20 21  2  0
 21  8  1  0
 14 10  1  0
 21 16  1  0
  1 22  1  0
  1 23  1  0
  1 24  1  0
  2 25  1  0
  2 26  1  0
  4 27  1  0
  4 28  1  0
  4 29  1  0
  5 30  1  0
  5 31  1  0
  6 32  1  0
  6 33  1  0
  7 34  1  0
 11 35  1  0
 12 36  1  0
 13 37  1  0
 17 38  1  0
 18 39  1  0
 19 40  1  0
 20 41  1  0
M  END
>  <UniqueID>  (19) 
18

>  <SMILES>  (19) 
CCN(C)CCNc1c(-c2cccs2)oc2ccccc12

>  <Energy>  (19) 
107.02935258350753

>  <Genealogy>  (19) 
CCN(C)CCNc1c(-c2cccs2)oc2ccccc12 (3D coordinates assigned)
CCN(C)CCNc1c(-c2cccs2)oc2ccccc12 (optimized conformer: 107.02935258350753 kcal/mol)

>  <smiles>  (19) 
CCN(C)CCNc1c(-c2cccs2)oc2ccccc12

>  <score_type>  (19) 
oracle

>  <origin>  (19) 
adg

>  <m_score__min__energy>  (19) 
-7.54

>  <m_primary>  (19) 
energy

$$$$
19:0
     RDKit          3D

 65 68  0  0  0  0  0  0  0  0999 V2000
   -2.2240   21.5420  -32.1650 C   0  0  0  0  0  0  0  0  0  0  0  0
   -2.3130   20.2040  -32.0460 C   0  0  0  0  0  0  0  0  0  0  0  0
   -2.6920   19.3370  -33.2160 C   0  0  0  0  0  0  0  0  0  0  0  0
   -3.8150   18.5050  -32.9120 O   0  0  0  0  0  0  0  0  0  0  0  0
   -5.1520   18.9190  -32.8510 C   0  0  0  0  0  0  0  0  0  0  0  0
   -5.5160   20.2810  -32.7720 C   0  0  0  0  0  0  0  0  0  0  0  0
   -6.8640   20.6420  -32.6630 C   0  0  0  0  0  0  0  0  0  0  0  0
   -7.8480   19.6510  -32.6010 C   0  0  0  0  0  0  0  0  0  0  0  0
   -7.5000   18.3030  -32.7240 C   0  0  0  0  0  0  0  0  0  0  0  0
   -6.1500   17.9280  -32.8540 C   0  0  0  0  0  0  0  0  0  0  0  0
   -5.7570   16.5830  -32.9780 O   0  0  0  0  0  0  0  0  0  0  0  0
   -5.2380   16.0070  -34.1700 C   0  0  0  0  0  0  0  0  0  0  0  0
   -9.1920   20.0010  -32.4090 O   0  0  0  0  0  0  0  0  0  0  0  0
   -9.6280   21.2980  -31.9600 C   0  0  0  0  0  0  0  0  0  0  0  0
   -8.4710   22.3100  -31.7160 C   0  0  1  0  0  0  0  0  0  0  0  0
   -7.9970   22.2890  -30.2430 C   0  0  0  0  0  0  0  0  0  0  0  0
   -6.7100   23.0610  -30.0660 C   0  0  0  0  0  0  0  0  0  0  0  0
   -5.4650   22.4200  -30.1590 C   0  0  0  0  0  0  0  0  0  0  0  0
   -4.2800   23.1560  -30.0310 C   0  0  0  0  0  0  0  0  0  0  0  0
   -4.3230   24.5420  -29.8250 C   0  0  0  0  0  0  0  0  0  0  0  0
   -3.1120   25.2420  -29.7090 O   0  0  0  0  0  0  0  0  0  0  0  0
   -2.0080   24.8040  -28.9200 C   0  0  0  0  0  0  0  0  0  0  0  0
   -2.5050   24.0900  -27.6650 C   0  0  0  0  0  0  0  0  0  0  0  0
   -1.9440   22.7260  -27.5720 N   0  0  0  0  0  0  0  0  0  0  0  0
   -3.0110   21.7020  -27.5130 C   0  0  0  0  0  0  0  0  0  0  0  0
   -2.3850   20.2940  -27.3670 C   0  0  0  0  0  0  0  0  0  0  0  0
   -0.9890   20.2900  -27.6200 O   0  0  0  0  0  0  0  0  0  0  0  0
   -0.7220   20.9560  -28.8380 C   0  0  0  0  0  0  0  0  0  0  0  0
   -1.0450   22.4570  -28.7150 C   0  0  0  0  0  0  0  0  0  0  0  0
   -5.5740   25.1850  -29.7360 C   0  0  0  0  0  0  0  0  0  0  0  0
   -6.7540   24.4460  -29.8500 C   0  0  0  0  0  0  0  0  0  0  0  0
   -7.3070   22.0740  -32.6990 C   0  0  0  0  0  0  0  0  0  0  0  0
   -1.9450   22.1542  -31.2947 H   0  0  0  0  0  0  0  0  0  0  0  0
   -2.4303   22.0231  -33.1325 H   0  0  0  0  0  0  0  0  0  0  0  0
   -2.1043   19.7348  -31.0732 H   0  0  0  0  0  0  0  0  0  0  0  0
   -2.9459   19.9814  -34.0705 H   0  0  0  0  0  0  0  0  0  0  0  0
   -1.8369   18.6876  -33.4546 H   0  0  0  0  0  0  0  0  0  0  0  0
   -4.7392   21.0594  -32.7961 H   0  0  0  0  0  0  0  0  0  0  0  0
   -8.2846   17.5321  -32.7192 H   0  0  0  0  0  0  0  0  0  0  0  0
   -4.5222   15.2126  -33.9119 H   0  0  0  0  0  0  0  0  0  0  0  0
   -6.0624   15.5802  -34.7601 H   0  0  0  0  0  0  0  0  0  0  0  0
   -4.7279   16.7826  -34.7601 H   0  0  0  0  0  0  0  0  0  0  0  0
  -10.2999   21.7192  -32.7223 H   0  0  0  0  0  0  0  0  0  0  0  0
  -10.1256   21.1465  -30.9907 H   0  0  0  0  0  0  0  0  0  0  0  0
   -8.8637   23.3190  -31.9105 H   0  0  0  0  0  0  0  0  0  0  0  0
   -8.7751   22.7409  -29.6103 H   0  0  0  0  0  0  0  0  0  0  0  0
   -7.8159   21.2435  -29.9529 H   0  0  0  0  0  0  0  0  0  0  0  0
   -5.4195   21.3348  -30.3332 H   0  0  0  0  0  0  0  0  0  0  0  0
   -3.3090   22.6428  -30.0926 H   0  0  0  0  0  0  0  0  0  0  0  0
   -1.3911   24.1114  -29.5115 H   0  0  0  0  0  0  0  0  0  0  0  0
   -1.4113   25.6787  -28.6219 H   0  0  0  0  0  0  0  0  0  0  0  0
   -2.1988   24.6656  -26.7790 H   0  0  0  0  0  0  0  0  0  0  0  0
   -3.6012   24.0143  -27.7168 H   0  0  0  0  0  0  0  0  0  0  0  0
   -3.6615   21.9029  -26.6490 H   0  0  0  0  0  0  0  0  0  0  0  0
   -3.6008   21.7408  -28.4407 H   0  0  0  0  0  0  0  0  0  0  0  0
   -2.5585   19.9357  -26.3416 H   0  0  0  0  0  0  0  0  0  0  0  0
   -2.8609   19.6384  -28.1111 H   0  0  0  0  0  0  0  0  0  0  0  0
    0.3415   20.8343  -29.0914 H   0  0  0  0  0  0  0  0  0  0  0  0
   -1.3525   20.5202  -29.6270 H   0  0  0  0  0  0  0  0  0  0  0  0
   -0.1073   23.0138  -28.5710 H   0  0  0  0  0  0  0  0  0  0  0  0
   -1.5530   22.7774  -29.6366 H   0  0  0  0  0  0  0  0  0  0  0  0
   -5.6214   26.2723  -29.5762 H   0  0  0  0  0  0  0  0  0  0  0  0
   -7.7260   24.9548  -29.7697 H   0  0  0  0  0  0  0  0  0  0  0  0
   -7.6386   22.3238  -33.7177 H   0  0  0  0  0  0  0  0  0  0  0  0
   -6.4612   22.7130  -32.4051 H   0  0  0  0  0  0  0  0  0  0  0  0
  1  2  2  0
  2  3  1  0
  3  4  1  0
  4  5  1  0
  5  6  2  0
  6  7  1  0
  7  8  2  0
  8  9  1  0
  9 10  2  0
 10 11  1  0
 11 12  1  0
  8 13  1  0
 13 14  1  0
 14 15  1  0
 15 16  1  0
 16 17  1  0
 17 18  2  0
 18 19  1  0
 19 20  2  0
 20 21  1  0
 21 22  1  0
 22 23  1  0
 23 24  1  0
 24 25  1  0
 25 26  1  0
 26 27  1  0
 27 28  1  0
 28 29  1  0
 20 30  1  0
 30 31  2  0
 15 32  1  0
 10  5  1  0
 31 17  1  0
 32  7  1  0
 29 24  1  0
  1 33  1  0
  1 34  1  0
  2 35  1  0
  3 36  1  0
  3 37  1  0
  6 38  1  0
  9 39  1  0
 12 40  1  0
 12 41  1  0
 12 42  1  0
 14 43  1  0
 14 44  1  0
 15 45  1  6
 16 46  1  0
 16 47  1  0
 18 48  1  0
 19 49  1  0
 22 50  1  0
 22 51  1  0
 23 52  1  0
 23 53  1  0
 25 54  1  0
 25 55  1  0
 26 56  1  0
 26 57  1  0
 28 58  1  0
 28 59  1  0
 29 60  1  0
 29 61  1  0
 30 62  1  0
 31 63  1  0
 32 64  1  0
 32 65  1  0
M  END
>  <UniqueID>  (20) 
19

>  <SMILES>  (20) 
C=CCOc1cc2c(cc1OC)OC[C@@H](Cc1ccc(OCCN3CCOCC3)cc1)C2

>  <Energy>  (20) 
77.06900175041302

>  <Genealogy>  (20) 
C=CCOc1cc2c(cc1OC)OC[C@@H](Cc1ccc(OCCN3CCOCC3)cc1)C2 (chirality)
C=CCOc1cc2c(cc1OC)OC[C@@H](Cc1ccc(OCCN3CCOCC3)cc1)C2 (3D coordinates assigned)
C=CCOc1cc2c(cc1OC)OC[C@@H](Cc1ccc(OCCN3CCOCC3)cc1)C2 (nonaromatic ring conformer: 77.06900175041302 kcal/mol)

>  <smiles>  (20) 
C=CCOc1cc2c(cc1OC)OCC(Cc1ccc(OCCN3CCOCC3)cc1)C2

>  <score_type>  (20) 
oracle

>  <origin>  (20) 
adg

>  <m_score__min__energy>  (20) 
-9.2100000000000009

>  <m_primary>  (20) 
energy

$$$$
20:0
     RDKit          3D

 48 50  0  0  0  0  0  0  0  0999 V2000
   -0.3640   22.2670  -27.2580 C   0  0  0  0  0  0  0  0  0  0  0  0
   -0.7710   21.1960  -28.2620 C   0  0  0  0  0  0  0  0  0  0  0  0
   -2.1140   21.3310  -28.6940 N   0  0  0  0  0  0  0  0  0  0  0  0
   -3.1120   20.5960  -28.0180 C   0  0  0  0  0  0  0  0  0  0  0  0
   -2.5980   19.6600  -26.9570 C   0  0  0  0  0  0  0  0  0  0  0  0
   -2.3250   21.4710  -30.3980 S   0  0  0  0  0  0  0  0  0  0  0  0
   -1.2560   22.2900  -31.0130 O   0  0  0  0  0  0  0  0  0  0  0  0
   -2.3080   20.0770  -31.0060 O   0  0  0  0  0  0  0  0  0  0  0  0
   -3.8910   22.1890  -30.6780 C   0  0  0  0  0  0  0  0  0  0  0  0
   -4.7870   21.6430  -31.5930 C   0  0  0  0  0  0  0  0  0  0  0  0
   -6.0260   22.1810  -31.8450 C   0  0  0  0  0  0  0  0  0  0  0  0
   -6.4460   23.3040  -31.1940 C   0  0  0  0  0  0  0  0  0  0  0  0
   -5.5860   23.8730  -30.2800 C   0  0  0  0  0  0  0  0  0  0  0  0
   -4.3190   23.3270  -30.0180 C   0  0  0  0  0  0  0  0  0  0  0  0
   -3.5440   24.0200  -29.0120 C   0  0  0  0  0  0  0  0  0  0  0  0
   -4.0480   24.0640  -27.7060 C   0  0  0  0  0  0  0  0  0  0  0  0
   -3.3130   24.6890  -26.7190 C   0  0  0  0  0  0  0  0  0  0  0  0
   -2.0930   25.2780  -26.9550 C   0  0  0  0  0  0  0  0  0  0  0  0
   -1.3180   25.9370  -25.9150 C   0  0  0  0  0  0  0  0  0  0  0  0
   -0.9560   27.2650  -25.9540 C   0  0  0  0  0  0  0  0  0  0  0  0
   -0.2290   27.7960  -24.9340 N   0  0  0  0  0  0  0  0  0  0  0  0
    0.1540   27.0580  -23.8720 C   0  0  0  0  0  0  0  0  0  0  0  0
    0.8400   27.5750  -22.9170 N   0  0  0  0  0  0  0  0  0  0  0  0
   -0.1870   25.7600  -23.8090 N   0  0  0  0  0  0  0  0  0  0  0  0
   -0.9090   25.2130  -24.8140 C   0  0  0  0  0  0  0  0  0  0  0  0
   -1.6270   25.2230  -28.2190 N   0  0  0  0  0  0  0  0  0  0  0  0
   -2.3280   24.6170  -29.2070 C   0  0  0  0  0  0  0  0  0  0  0  0
   -0.5088   21.8859  -26.2364 H   0  0  0  0  0  0  0  0  0  0  0  0
    0.6949   22.5252  -27.4063 H   0  0  0  0  0  0  0  0  0  0  0  0
   -0.9842   23.1633  -27.4063 H   0  0  0  0  0  0  0  0  0  0  0  0
   -0.1108   21.2671  -29.1389 H   0  0  0  0  0  0  0  0  0  0  0  0
   -0.6803   20.2207  -27.7614 H   0  0  0  0  0  0  0  0  0  0  0  0
   -3.7986   21.3105  -27.5404 H   0  0  0  0  0  0  0  0  0  0  0  0
   -3.5994   19.9659  -28.7766 H   0  0  0  0  0  0  0  0  0  0  0  0
   -2.8247   20.0727  -25.9629 H   0  0  0  0  0  0  0  0  0  0  0  0
   -3.0841   18.6793  -27.0664 H   0  0  0  0  0  0  0  0  0  0  0  0
   -1.5096   19.5440  -27.0664 H   0  0  0  0  0  0  0  0  0  0  0  0
   -4.4886   20.7370  -32.1408 H   0  0  0  0  0  0  0  0  0  0  0  0
   -6.6875   21.7003  -32.5808 H   0  0  0  0  0  0  0  0  0  0  0  0
   -7.4364   23.7399  -31.3918 H   0  0  0  0  0  0  0  0  0  0  0  0
   -5.9003   24.7791  -29.7412 H   0  0  0  0  0  0  0  0  0  0  0  0
   -5.0194   23.6053  -27.4694 H   0  0  0  0  0  0  0  0  0  0  0  0
   -3.7214   24.7172  -25.6980 H   0  0  0  0  0  0  0  0  0  0  0  0
   -1.2533   27.8938  -26.8062 H   0  0  0  0  0  0  0  0  0  0  0  0
    1.3540   26.9980  -22.2250 H   0  0  0  0  0  0  0  0  0  0  0  0
    0.0830   25.1340  -23.0060 H   0  0  0  0  0  0  0  0  0  0  0  0
   -1.1807   24.1490  -24.7508 H   0  0  0  0  0  0  0  0  0  0  0  0
   -1.8974   24.6040  -30.2191 H   0  0  0  0  0  0  0  0  0  0  0  0
  1  2  1  0
  2  3  1  0
  3  4  1  0
  4  5  1  0
  3  6  1  0
  6  7  2  0
  6  8  2  0
  6  9  1  0
  9 10  2  0
 10 11  1  0
 11 12  2  0
 12 13  1  0
 13 14  2  0
 14 15  1  0
 15 16  2  0
 16 17  1  0
 17 18  2  0
 18 19  1  0
 19 20  1  0
 20 21  2  0
 21 22  1  0
 22 23  2  3
 22 24  1  0
 24 25  1  0
 18 26  1  0
 26 27  2  0
 14  9  1  0
 27 15  1  0
 25 19  2  0
  1 28  1  0
  1 29  1  0
  1 30  1  0
  2 31  1  0
  2 32  1  0
  4 33  1  0
  4 34  1  0
  5 35  1  0
  5 36  1  0
  5 37  1  0
 10 38  1  0
 11 39  1  0
 12 40  1  0
 13 41  1  0
 16 42  1  0
 17 43  1  0
 20 44  1  0
 23 45  1  0
 24 46  1  0
 25 47  1  0
 27 48  1  0
M  END
>  <smiles>  (21) 
CCN(CC)S(=O)(=O)c1ccccc1-c1ccc(-c2cnc(=N)[nH]c2)nc1

>  <score_type>  (21) 
oracle

>  <origin>  (21) 
adg

>  <m_score__min__energy>  (21) 
-8.7300000000000004

>  <m_primary>  (21) 
energy

$$$$
21:0
     RDKit          3D

 49 52  0  0  0  0  0  0  0  0999 V2000
   -0.0970   25.4330  -36.4920 C   0  0  0  0  0  0  0  0  0  0  0  0
    0.8470   24.4770  -35.7750 C   0  0  0  0  0  0  0  0  0  0  0  0
    0.2580   23.1320  -35.7190 N   0  0  0  0  0  0  0  0  0  0  0  0
    1.2760   22.0760  -35.8290 C   0  0  0  0  0  0  0  0  0  0  0  0
    1.2810   21.0950  -34.6430 C   0  0  0  0  0  0  0  0  0  0  0  0
    0.1670   21.3220  -33.7760 O   0  0  0  0  0  0  0  0  0  0  0  0
   -1.0490   20.6160  -33.7640 C   0  0  0  0  0  0  0  0  0  0  0  0
   -1.1670   19.2780  -34.1700 C   0  0  0  0  0  0  0  0  0  0  0  0
   -2.4020   18.6310  -34.1260 C   0  0  0  0  0  0  0  0  0  0  0  0
   -3.5620   19.2960  -33.6820 C   0  0  0  0  0  0  0  0  0  0  0  0
   -3.4430   20.6600  -33.2810 C   0  0  0  0  0  0  0  0  0  0  0  0
   -2.1900   21.2960  -33.3320 C   0  0  0  0  0  0  0  0  0  0  0  0
   -4.6260   21.4140  -32.8080 C   0  0  0  0  0  0  0  0  0  0  0  0
   -4.5400   22.6190  -32.4520 O   0  0  0  0  0  0  0  0  0  0  0  0
   -5.9020   20.7150  -32.7660 C   0  0  0  0  0  0  0  0  0  0  0  0
   -6.0410   19.3990  -33.1460 C   0  0  0  0  0  0  0  0  0  0  0  0
   -7.2990   19.0130  -33.0090 O   0  0  0  0  0  0  0  0  0  0  0  0
   -7.9770   20.0410  -32.5520 C   0  0  0  0  0  0  0  0  0  0  0  0
   -9.3370   20.0970  -32.2580 C   0  0  0  0  0  0  0  0  0  0  0  0
   -9.8560   21.3120  -31.7730 C   0  0  0  0  0  0  0  0  0  0  0  0
   -9.0120   22.4320  -31.5980 C   0  0  0  0  0  0  0  0  0  0  0  0
   -7.6410   22.3480  -31.9030 C   0  0  0  0  0  0  0  0  0  0  0  0
   -7.1570   21.1300  -32.3800 C   0  0  0  0  0  0  0  0  0  0  0  0
   -4.9080   18.5300  -33.6470 C   0  0  0  0  0  0  0  0  0  0  0  0
   -4.7940   17.3180  -32.7000 C   0  0  0  0  0  0  0  0  0  0  0  0
   -5.2750   18.0560  -35.0670 C   0  0  0  0  0  0  0  0  0  0  0  0
   -0.6674   26.0106  -35.7497 H   0  0  0  0  0  0  0  0  0  0  0  0
    0.4863   26.1205  -37.1221 H   0  0  0  0  0  0  0  0  0  0  0  0
   -0.7918   24.8584  -37.1221 H   0  0  0  0  0  0  0  0  0  0  0  0
    1.8023   24.4333  -36.3185 H   0  0  0  0  0  0  0  0  0  0  0  0
    1.0154   24.8390  -34.7500 H   0  0  0  0  0  0  0  0  0  0  0  0
   -0.2890   23.0170  -34.8380 H   0  0  0  0  0  0  0  0  0  0  0  0
    1.0867   21.5058  -36.7504 H   0  0  0  0  0  0  0  0  0  0  0  0
    2.2565   22.5746  -35.8377 H   0  0  0  0  0  0  0  0  0  0  0  0
    1.2308   20.0661  -35.0289 H   0  0  0  0  0  0  0  0  0  0  0  0
    2.2057   21.2505  -34.0679 H   0  0  0  0  0  0  0  0  0  0  0  0
   -0.2788   18.7352  -34.5257 H   0  0  0  0  0  0  0  0  0  0  0  0
   -2.4716   17.5804  -34.4444 H   0  0  0  0  0  0  0  0  0  0  0  0
   -2.1068   22.3492  -33.0258 H   0  0  0  0  0  0  0  0  0  0  0  0
   -9.9850   19.2196  -32.4003 H   0  0  0  0  0  0  0  0  0  0  0  0
  -10.9256   21.3904  -31.5285 H   0  0  0  0  0  0  0  0  0  0  0  0
   -9.4302   23.3767  -31.2204 H   0  0  0  0  0  0  0  0  0  0  0  0
   -6.9742   23.2127  -31.7699 H   0  0  0  0  0  0  0  0  0  0  0  0
   -4.8265   17.6639  -31.6563 H   0  0  0  0  0  0  0  0  0  0  0  0
   -5.6313   16.6288  -32.8841 H   0  0  0  0  0  0  0  0  0  0  0  0
   -3.8429   16.7970  -32.8841 H   0  0  0  0  0  0  0  0  0  0  0  0
   -5.9472   17.1878  -35.0014 H   0  0  0  0  0  0  0  0  0  0  0  0
   -5.7800   18.8708  -35.6065 H   0  0  0  0  0  0  0  0  0  0  0  0
   -4.3597   17.7711  -35.6065 H   0  0  0  0  0  0  0  0  0  0  0  0
  1  2  1  0
  2  3  1  0
  3  4  1  0
  4  5  1  0
  5  6  1  0
  6  7  1  0
  7  8  2  0
  8  9  1  0
  9 10  2  0
 10 11  1  0
 11 12  2  0
 11 13  1  0
 13 14  2  0
 13 15  1  0
 15 16  2  0
 16 17  1  0
 17 18  1  0
 18 19  2  0
 19 20  1  0
 20 21  2  0
 21 22  1  0
 22 23  2  0
 16 24  1  0
 24 25  1  0
 24 26  1  0
 12  7  1  0
 23 15  1  0
 24 10  1  0
 23 18  1  0
  1 27  1  0
  1 28  1  0
  1 29  1  0
  2 30  1  0
  2 31  1  0
  3 32  1  0
  4 33  1  0
  4 34  1  0
  5 35  1  0
  5 36  1  0
  8 37  1  0
  9 38  1  0
 12 39  1  0
 19 40  1  0
 20 41  1  0
 21 42  1  0
 22 43  1  0
 25 44  1  0
 25 45  1  0
 25 46  1  0
 26 47  1  0
 26 48  1  0
 26 49  1  0
M  END
>  <UniqueID>  (22) 
20

>  <SMILES>  (22) 
CCNCCOc1ccc2c(c1)C(=O)c1c(oc3ccccc13)C2(C)C

>  <Energy>  (22) 
90.61824208641544

>  <Genealogy>  (22) 
CCNCCOc1ccc2c(c1)C(=O)c1c(oc3ccccc13)C2(C)C (3D coordinates assigned)
CCNCCOc1ccc2c(c1)C(=O)c1c(oc3ccccc13)C2(C)C (nonaromatic ring conformer: 90.61824208641544 kcal/mol)

>  <smiles>  (22) 
CCNCCOc1ccc2c(c1)C(=O)c1c(oc3ccccc13)C2(C)C

>  <score_type>  (22) 
oracle

>  <origin>  (22) 
adg

>  <m_score__min__energy>  (22) 
-8.9000000000000004

>  <m_primary>  (22) 
energy

$$$$
22:0
     RDKit          3D

 57 60  0  0  0  0  0  0  0  0999 V2000
   -3.9040   17.0350  -35.3280 C   0  0  0  0  0  0  0  0  0  0  0  0
   -4.4530   18.2720  -34.8890 O   0  0  0  0  0  0  0  0  0  0  0  0
   -5.5720   18.3900  -34.0490 C   0  0  0  0  0  0  0  0  0  0  0  0
   -6.3100   17.2610  -33.6090 C   0  0  0  0  0  0  0  0  0  0  0  0
   -7.4360   17.4230  -32.7810 C   0  0  0  0  0  0  0  0  0  0  0  0
   -7.8110   18.7140  -32.4100 C   0  0  0  0  0  0  0  0  0  0  0  0
   -7.0970   19.8100  -32.8270 C   0  0  0  0  0  0  0  0  0  0  0  0
   -5.9720   19.6780  -33.6450 C   0  0  0  0  0  0  0  0  0  0  0  0
   -7.7570   21.0100  -32.3320 C   0  0  0  0  0  0  0  0  0  0  0  0
   -7.2720   22.4210  -32.5310 C   0  0  0  0  0  0  0  0  0  0  0  0
   -6.3400   22.8400  -31.3890 C   0  0  0  0  0  0  0  0  0  0  0  0
   -5.0120   23.3840  -31.9330 C   0  0  0  0  0  0  0  0  0  0  0  0
   -4.1980   23.9460  -30.8320 N   0  0  0  0  0  0  0  0  0  0  0  0
   -3.1100   23.0270  -30.4490 C   0  0  0  0  0  0  0  0  0  0  0  0
   -2.1130   23.7990  -29.5950 C   0  0  0  0  0  0  0  0  0  0  0  0
   -2.7970   24.5810  -28.5530 N   0  0  0  0  0  0  0  0  0  0  0  0
   -1.9940   25.2530  -27.5560 C   0  0  0  0  0  0  0  0  0  0  0  0
   -2.4050   25.2990  -26.2100 C   0  0  0  0  0  0  0  0  0  0  0  0
   -1.6080   25.9200  -25.2430 C   0  0  0  0  0  0  0  0  0  0  0  0
   -0.3870   26.4920  -25.6050 C   0  0  0  0  0  0  0  0  0  0  0  0
    0.0330   26.4560  -26.9360 C   0  0  0  0  0  0  0  0  0  0  0  0
   -0.7610   25.8400  -27.9080 C   0  0  0  0  0  0  0  0  0  0  0  0
   -4.2450   24.4260  -28.3390 C   0  0  0  0  0  0  0  0  0  0  0  0
   -5.0440   24.2620  -29.6590 C   0  0  0  0  0  0  0  0  0  0  0  0
   -8.8290   20.6330  -31.6190 C   0  0  0  0  0  0  0  0  0  0  0  0
   -9.7950   21.5680  -30.9610 C   0  0  0  0  0  0  0  0  0  0  0  0
   -8.9810   19.1360  -31.5850 C   0  0  0  0  0  0  0  0  0  0  0  0
   -3.6327   16.4237  -34.4546 H   0  0  0  0  0  0  0  0  0  0  0  0
   -4.6483   16.4981  -35.9344 H   0  0  0  0  0  0  0  0  0  0  0  0
   -3.0065   17.2268  -35.9344 H   0  0  0  0  0  0  0  0  0  0  0  0
   -5.9997   16.2518  -33.9174 H   0  0  0  0  0  0  0  0  0  0  0  0
   -8.0082   16.5501  -32.4337 H   0  0  0  0  0  0  0  0  0  0  0  0
   -5.4082   20.5656  -33.9680 H   0  0  0  0  0  0  0  0  0  0  0  0
   -6.7263   22.4841  -33.4840 H   0  0  0  0  0  0  0  0  0  0  0  0
   -8.1412   23.0951  -32.5433 H   0  0  0  0  0  0  0  0  0  0  0  0
   -6.8317   23.6225  -30.7924 H   0  0  0  0  0  0  0  0  0  0  0  0
   -6.1284   21.9570  -30.7680 H   0  0  0  0  0  0  0  0  0  0  0  0
   -4.4554   22.5669  -32.4153 H   0  0  0  0  0  0  0  0  0  0  0  0
   -5.2231   24.1786  -32.6637 H   0  0  0  0  0  0  0  0  0  0  0  0
   -3.5199   22.1844  -29.8727 H   0  0  0  0  0  0  0  0  0  0  0  0
   -2.6139   22.6306  -31.3472 H   0  0  0  0  0  0  0  0  0  0  0  0
   -1.4248   23.0873  -29.1156 H   0  0  0  0  0  0  0  0  0  0  0  0
   -1.5619   24.4937  -30.2459 H   0  0  0  0  0  0  0  0  0  0  0  0
   -3.3617   24.8423  -25.9164 H   0  0  0  0  0  0  0  0  0  0  0  0
   -1.9435   25.9578  -24.1961 H   0  0  0  0  0  0  0  0  0  0  0  0
    0.2440   26.9709  -24.8418 H   0  0  0  0  0  0  0  0  0  0  0  0
    0.9918   26.9138  -27.2209 H   0  0  0  0  0  0  0  0  0  0  0  0
   -0.4218   25.8130  -28.9540 H   0  0  0  0  0  0  0  0  0  0  0  0
   -4.4129   23.5353  -27.7158 H   0  0  0  0  0  0  0  0  0  0  0  0
   -4.6036   25.3448  -27.8519 H   0  0  0  0  0  0  0  0  0  0  0  0
   -5.7711   23.4474  -29.5258 H   0  0  0  0  0  0  0  0  0  0  0  0
   -5.5285   25.2282  -29.8633 H   0  0  0  0  0  0  0  0  0  0  0  0
   -9.7040   21.4800  -29.8683 H   0  0  0  0  0  0  0  0  0  0  0  0
   -9.5708   22.6009  -31.2656 H   0  0  0  0  0  0  0  0  0  0  0  0
  -10.8201   21.3102  -31.2656 H   0  0  0  0  0  0  0  0  0  0  0  0
   -8.9137   18.7460  -30.5587 H   0  0  0  0  0  0  0  0  0  0  0  0
   -9.9512   18.7696  -31.9518 H   0  0  0  0  0  0  0  0  0  0  0  0
  1  2  1  0
  2  3  1  0
  3  4  2  0
  4  5  1  0
  5  6  2  0
  6  7  1  0
  7  8  2  0
  7  9  1  0
  9 10  1  0
 10 11  1  0
 11 12  1  0
 12 13  1  0
 13 14  1  0
 14 15  1  0
 15 16  1  0
 16 17  1  0
 17 18  2  0
 18 19  1  0
 19 20  2  0
 20 21  1  0
 21 22  2  0
 16 23  1  0
 23 24  1  0
  9 25  2  0
 25 26  1  0
 25 27  1  0
  8  3  1  0
 24 13  1  0
 27  6  1  0
 22 17  1  0
  1 28  1  0
  1 29  1  0
  1 30  1  0
  4 31  1  0
  5 32  1  0
  8 33  1  0
 10 34  1  0
 10 35  1  0
 11 36  1  0
 11 37  1  0
 12 38  1  0
 12 39  1  0
 14 40  1  0
 14 41  1  0
 15 42  1  0
 15 43  1  0
 18 44  1  0
 19 45  1  0
 20 46  1  0
 21 47  1  0
 22 48  1  0
 23 49  1  0
 23 50  1  0
 24 51  1  0
 24 52  1  0
 26 53  1  0
 26 54  1  0
 26 55  1  0
 27 56  1  0
 27 57  1  0
M  END
>  <UniqueID>  (23) 
21

>  <SMILES>  (23) 
COc1ccc2c(c1)C(CCCN1CCN(c3ccccc3)CC1)=C(C)C2

>  <Energy>  (23) 
80.60646478831863

>  <Genealogy>  (23) 
COc1ccc2c(c1)C(CCCN1CCN(c3ccccc3)CC1)=C(C)C2 (3D coordinates assigned)
COc1ccc2c(c1)C(CCCN1CCN(c3ccccc3)CC1)=C(C)C2 (nonaromatic ring conformer: 80.60646478831863 kcal/mol)

>  <smiles>  (23) 
COc1ccc2c(c1)C(CCCN1CCN(c3ccccc3)CC1)=C(C)C2

>  <score_type>  (23) 
oracle

>  <origin>  (23) 
adg

>  <m_score__min__energy>  (23) 
-9.7300000000000004

>  <m_primary>  (23) 
energy

$$$$
23:0
     RDKit          3D

 46 48  0  0  0  0  0  0  0  0999 V2000
   -2.2430   19.2230  -26.7590 C   0  0  0  0  0  0  0  0  0  0  0  0
   -1.6690   19.9690  -27.9740 C   0  0  0  0  0  0  0  0  0  0  0  0
   -2.6130   20.9380  -28.5740 N   0  0  0  0  0  0  0  0  0  0  0  0
   -2.0880   21.6010  -29.7970 C   0  0  0  0  0  0  0  0  0  0  0  0
   -2.3420   23.1180  -29.8360 C   0  0  0  0  0  0  0  0  0  0  0  0
   -3.7220   23.4160  -29.4250 N   0  0  0  0  0  0  0  0  0  0  0  0
   -4.4600   24.4730  -30.0780 C   0  0  0  0  0  0  0  0  0  0  0  0
   -3.8600   25.2820  -30.8400 O   0  0  0  0  0  0  0  0  0  0  0  0
   -5.9480   24.6120  -29.9190 C   0  0  0  0  0  0  0  0  0  0  0  0
   -6.6360   23.6220  -30.7360 N   0  0  0  0  0  0  0  0  0  0  0  0
   -7.7990   23.8220  -31.3320 N   0  0  0  0  0  0  0  0  0  0  0  0
   -8.1480   22.7170  -31.9690 N   0  0  0  0  0  0  0  0  0  0  0  0
   -7.1490   21.8410  -31.7260 C   0  0  0  0  0  0  0  0  0  0  0  0
   -7.1210   20.4470  -32.2150 C   0  0  0  0  0  0  0  0  0  0  0  0
   -8.0440   19.5030  -31.7310 C   0  0  0  0  0  0  0  0  0  0  0  0
   -7.9980   18.1760  -32.1720 C   0  0  0  0  0  0  0  0  0  0  0  0
   -7.0280   17.7740  -33.1070 C   0  0  0  0  0  0  0  0  0  0  0  0
   -6.9300   16.4530  -33.5700 O   0  0  0  0  0  0  0  0  0  0  0  0
   -5.7030   15.7870  -33.8510 C   0  0  0  0  0  0  0  0  0  0  0  0
   -6.1190   18.7190  -33.5960 C   0  0  0  0  0  0  0  0  0  0  0  0
   -6.1640   20.0450  -33.1570 C   0  0  0  0  0  0  0  0  0  0  0  0
   -6.1950   22.3930  -30.9500 N   0  0  0  0  0  0  0  0  0  0  0  0
   -4.2870   22.7180  -28.2610 C   0  0  0  0  0  0  0  0  0  0  0  0
   -3.2310   21.8420  -27.5840 C   0  0  0  0  0  0  0  0  0  0  0  0
   -1.8800   19.6948  -25.8340 H   0  0  0  0  0  0  0  0  0  0  0  0
   -3.3417   19.2678  -26.7867 H   0  0  0  0  0  0  0  0  0  0  0  0
   -1.9181   18.1724  -26.7867 H   0  0  0  0  0  0  0  0  0  0  0  0
   -0.7682   20.5133  -27.6542 H   0  0  0  0  0  0  0  0  0  0  0  0
   -1.4501   19.2133  -28.7428 H   0  0  0  0  0  0  0  0  0  0  0  0
   -1.0026   21.4293  -29.8463 H   0  0  0  0  0  0  0  0  0  0  0  0
   -2.6216   21.1637  -30.6538 H   0  0  0  0  0  0  0  0  0  0  0  0
   -1.6431   23.6205  -29.1512 H   0  0  0  0  0  0  0  0  0  0  0  0
   -2.1891   23.4797  -30.8635 H   0  0  0  0  0  0  0  0  0  0  0  0
   -6.2162   24.4613  -28.8629 H   0  0  0  0  0  0  0  0  0  0  0  0
   -6.2511   25.6184  -30.2436 H   0  0  0  0  0  0  0  0  0  0  0  0
   -8.8073   19.8099  -31.0008 H   0  0  0  0  0  0  0  0  0  0  0  0
   -8.7233   17.4447  -31.7858 H   0  0  0  0  0  0  0  0  0  0  0  0
   -5.2072   15.5179  -32.9067 H   0  0  0  0  0  0  0  0  0  0  0  0
   -5.9055   14.8750  -34.4317 H   0  0  0  0  0  0  0  0  0  0  0  0
   -5.0485   16.4537  -34.4317 H   0  0  0  0  0  0  0  0  0  0  0  0
   -5.3614   18.4150  -34.3334 H   0  0  0  0  0  0  0  0  0  0  0  0
   -5.4447   20.7771  -33.5528 H   0  0  0  0  0  0  0  0  0  0  0  0
   -4.6549   23.4617  -27.5388 H   0  0  0  0  0  0  0  0  0  0  0  0
   -5.1108   22.0743  -28.6031 H   0  0  0  0  0  0  0  0  0  0  0  0
   -2.4544   22.4837  -27.1423 H   0  0  0  0  0  0  0  0  0  0  0  0
   -3.7112   21.2412  -26.7975 H   0  0  0  0  0  0  0  0  0  0  0  0
  1  2  1  0
  2  3  1  0
  3  4  1  0
  4  5  1  0
  5  6  1  0
  6  7  1  0
  7  8  2  0
  7  9  1  0
  9 10  1  0
 10 11  1  0
 11 12  2  0
 12 13  1  0
 13 14  1  0
 14 15  2  0
 15 16  1  0
 16 17  2  0
 17 18  1  0
 18 19  1  0
 17 20  1  0
 20 21  2  0
 13 22  2  0
  6 23  1  0
 23 24  1  0
 24  3  1  0
 22 10  1  0
 21 14  1  0
  1 25  1  0
  1 26  1  0
  1 27  1  0
  2 28  1  0
  2 29  1  0
  4 30  1  0
  4 31  1  0
  5 32  1  0
  5 33  1  0
  9 34  1  0
  9 35  1  0
 15 36  1  0
 16 37  1  0
 19 38  1  0
 19 39  1  0
 19 40  1  0
 20 41  1  0
 21 42  1  0
 23 43  1  0
 23 44  1  0
 24 45  1  0
 24 46  1  0
M  END
>  <UniqueID>  (24) 
22

>  <SMILES>  (24) 
CCN1CCN(C(=O)Cn2nnc(-c3ccc(OC)cc3)n2)CC1

>  <Energy>  (24) 
90.64477648964007

>  <Genealogy>  (24) 
CCN1CCN(C(=O)Cn2nnc(-c3ccc(OC)cc3)n2)CC1 (3D coordinates assigned)
CCN1CCN(C(=O)Cn2nnc(-c3ccc(OC)cc3)n2)CC1 (nonaromatic ring conformer: 90.64477648964007 kcal/mol)

>  <smiles>  (24) 
CCN1CCN(C(=O)Cn2nnc(-c3ccc(OC)cc3)n2)CC1

>  <score_type>  (24) 
oracle

>  <origin>  (24) 
adg

>  <m_score__min__energy>  (24) 
-8.5600000000000005

>  <m_primary>  (24) 
energy

$$$$
24:0
     RDKit          3D

 55 59  0  0  0  0  0  0  0  0999 V2000
    1.4530   24.5030  -27.4400 C   0  0  0  0  0  0  0  0  0  0  0  0
    0.0470   24.1260  -27.9040 C   0  0  0  0  0  0  0  0  0  0  0  0
   -0.8160   25.3250  -27.9660 N   0  0  0  0  0  0  0  0  0  0  0  0
   -0.0870   26.5010  -27.4590 C   0  0  0  0  0  0  0  0  0  0  0  0
   -2.0770   25.1280  -27.2120 C   0  0  0  0  0  0  0  0  0  0  0  0
   -3.1580   24.5330  -28.1180 C   0  0  0  0  0  0  0  0  0  0  0  0
   -2.6810   24.4210  -29.4960 N   0  0  0  0  0  0  0  0  0  0  0  0
   -3.1600   23.3640  -30.3420 C   0  0  0  0  0  0  0  0  0  0  0  0
   -2.2960   22.3270  -30.7420 C   0  0  0  0  0  0  0  0  0  0  0  0
   -0.9670   22.2630  -30.2740 C   0  0  0  0  0  0  0  0  0  0  0  0
   -0.1040   21.2620  -30.7170 C   0  0  0  0  0  0  0  0  0  0  0  0
   -0.5480   20.3140  -31.6330 C   0  0  0  0  0  0  0  0  0  0  0  0
   -1.8600   20.3530  -32.1050 C   0  0  0  0  0  0  0  0  0  0  0  0
   -2.7620   21.3500  -31.6620 C   0  0  0  0  0  0  0  0  0  0  0  0
   -4.0630   21.3940  -32.1190 N   0  0  0  0  0  0  0  0  0  0  0  0
   -4.3680   20.8110  -33.4440 C   0  0  0  0  0  0  0  0  0  0  0  0
   -4.9780   22.2210  -31.4970 C   0  0  0  0  0  0  0  0  0  0  0  0
   -4.5040   23.3370  -30.7520 C   0  0  0  0  0  0  0  0  0  0  0  0
   -5.3760   24.4160  -30.4700 C   0  0  0  0  0  0  0  0  0  0  0  0
   -6.7200   24.3680  -30.8460 C   0  0  0  0  0  0  0  0  0  0  0  0
   -7.2070   23.1950  -31.4020 C   0  0  0  0  0  0  0  0  0  0  0  0
   -8.8220   22.8370  -31.7220 S   0  0  0  0  0  0  0  0  0  0  0  0
   -8.5170   21.2240  -32.0810 C   0  0  0  0  0  0  0  0  0  0  0  0
   -9.4600   20.2330  -32.3410 C   0  0  0  0  0  0  0  0  0  0  0  0
   -9.0230   18.9040  -32.4270 C   0  0  0  0  0  0  0  0  0  0  0  0
   -7.6720   18.5880  -32.2010 C   0  0  0  0  0  0  0  0  0  0  0  0
   -6.7400   19.6020  -31.9280 C   0  0  0  0  0  0  0  0  0  0  0  0
   -7.1570   20.9410  -31.9400 C   0  0  0  0  0  0  0  0  0  0  0  0
   -6.3880   22.0920  -31.6470 C   0  0  0  0  0  0  0  0  0  0  0  0
    1.4862   24.5119  -26.3405 H   0  0  0  0  0  0  0  0  0  0  0  0
    2.1751   23.7668  -27.8227 H   0  0  0  0  0  0  0  0  0  0  0  0
    1.7099   25.5018  -27.8227 H   0  0  0  0  0  0  0  0  0  0  0  0
    0.1056   23.6699  -28.9033 H   0  0  0  0  0  0  0  0  0  0  0  0
   -0.3854   23.4128  -27.1868 H   0  0  0  0  0  0  0  0  0  0  0  0
   -0.0936   26.4903  -26.3591 H   0  0  0  0  0  0  0  0  0  0  0  0
    0.9518   26.4720  -27.8197 H   0  0  0  0  0  0  0  0  0  0  0  0
   -0.5750   27.4185  -27.8197 H   0  0  0  0  0  0  0  0  0  0  0  0
   -1.8925   24.4431  -26.3713 H   0  0  0  0  0  0  0  0  0  0  0  0
   -2.4236   26.1030  -26.8389 H   0  0  0  0  0  0  0  0  0  0  0  0
   -3.4276   23.5328  -27.7479 H   0  0  0  0  0  0  0  0  0  0  0  0
   -4.0343   25.1977  -28.1025 H   0  0  0  0  0  0  0  0  0  0  0  0
   -1.7570   24.8510  -29.7340 H   0  0  0  0  0  0  0  0  0  0  0  0
   -0.6078   23.0109  -29.5518 H   0  0  0  0  0  0  0  0  0  0  0  0
    0.9293   21.2217  -30.3418 H   0  0  0  0  0  0  0  0  0  0  0  0
    0.1383   19.5304  -31.9866 H   0  0  0  0  0  0  0  0  0  0  0  0
   -2.1982   19.5990  -32.8311 H   0  0  0  0  0  0  0  0  0  0  0  0
   -4.8742   19.8435  -33.3111 H   0  0  0  0  0  0  0  0  0  0  0  0
   -5.0241   21.4944  -34.0030 H   0  0  0  0  0  0  0  0  0  0  0  0
   -3.4325   20.6617  -34.0030 H   0  0  0  0  0  0  0  0  0  0  0  0
   -4.9898   25.3038  -29.9479 H   0  0  0  0  0  0  0  0  0  0  0  0
   -7.3762   25.2394  -30.7045 H   0  0  0  0  0  0  0  0  0  0  0  0
  -10.5218   20.4869  -32.4756 H   0  0  0  0  0  0  0  0  0  0  0  0
   -9.7393   18.1060  -32.6720 H   0  0  0  0  0  0  0  0  0  0  0  0
   -7.3428   17.5391  -32.2383 H   0  0  0  0  0  0  0  0  0  0  0  0
   -5.6927   19.3486  -31.7068 H   0  0  0  0  0  0  0  0  0  0  0  0
  1  2  1  0
  2  3  1  0
  3  4  1  0
  3  5  1  0
  5  6  1  0
  6  7  1  0
  7  8  1  0
  8  9  2  0
  9 10  1  0
 10 11  2  0
 11 12  1  0
 12 13  2  0
 13 14  1  0
 14 15  2  0
 15 16  1  0
 15 17  1  0
 17 18  2  0
 18 19  1  0
 19 20  2  0
 20 21  1  0
 21 22  1  0
 22 23  1  0
 23 24  2  0
 24 25  1  0
 25 26  2  0
 26 27  1  0
 27 28  2  0
 28 29  1  0
 18  8  1  0
 29 21  2  0
 14  9  1  0
 29 17  1  0
 28 23  1  0
  1 30  1  0
  1 31  1  0
  1 32  1  0
  2 33  1  0
  2 34  1  0
  4 35  1  0
  4 36  1  0
  4 37  1  0
  5 38  1  0
  5 39  1  0
  6 40  1  0
  6 41  1  0
  7 42  1  0
 10 43  1  0
 11 44  1  0
 12 45  1  0
 13 46  1  0
 16 47  1  0
 16 48  1  0
 16 49  1  0
 19 50  1  0
 20 51  1  0
 24 52  1  0
 25 53  1  0
 26 54  1  0
 27 55  1  0
M  CHG  1  15   1
M  END
>  <UniqueID>  (25) 
23

>  <SMILES>  (25) 
CCN(C)CCNc1c2ccccc2[n+](C)c2c1ccc1sc3ccccc3c12

>  <Energy>  (25) 
135.44655975764508

>  <Genealogy>  (25) 
CCN(C)CCNc1c2ccccc2[n+](C)c2c1ccc1sc3ccccc3c12 (3D coordinates assigned)
CCN(C)CCNc1c2ccccc2[n+](C)c2c1ccc1sc3ccccc3c12 (optimized conformer: 135.44655975764508 kcal/mol)

>  <smiles>  (25) 
CCN(C)CCNc1c2ccccc2[n+](C)c2c1ccc1sc3ccccc3c12

>  <score_type>  (25) 
oracle

>  <origin>  (25) 
adg

>  <m_score__min__energy>  (25) 
-9.5800000000000001

>  <m_primary>  (25) 
energy

$$$$
25:0
     RDKit          3D

 44 45  0  0  0  0  0  0  0  0999 V2000
   -3.9130   24.5240  -27.0850 C   0  0  0  0  0  0  0  0  0  0  0  0
   -4.2390   23.3120  -27.9580 C   0  0  0  0  0  0  0  0  0  0  0  0
   -4.4470   23.6810  -29.3790 N   0  0  0  0  0  0  0  0  0  0  0  0
   -3.1830   23.7930  -30.1590 C   0  0  0  0  0  0  0  0  0  0  0  0
   -2.2440   22.5810  -30.0530 C   0  0  0  0  0  0  0  0  0  0  0  0
   -5.3200   24.8740  -29.4820 C   0  0  0  0  0  0  0  0  0  0  0  0
   -6.7050   24.5320  -30.0790 C   0  0  0  0  0  0  0  0  0  0  0  0
   -6.8230   23.1080  -30.4670 N   0  0  0  0  0  0  0  0  0  0  0  0
   -6.6920   22.8710  -31.9200 C   0  0  0  0  0  0  0  0  0  0  0  0
   -6.8310   21.4030  -32.2980 C   0  0  0  0  0  0  0  0  0  0  0  0
   -8.0760   20.7440  -32.1530 C   0  0  0  0  0  0  0  0  0  0  0  0
   -9.5380   21.5710  -31.6210 Cl  0  0  0  0  0  0  0  0  0  0  0  0
   -8.1870   19.3800  -32.4250 C   0  0  0  0  0  0  0  0  0  0  0  0
   -7.0810   18.6430  -32.8500 C   0  0  0  0  0  0  0  0  0  0  0  0
   -7.2160   17.2680  -33.1070 C   0  0  0  0  0  0  0  0  0  0  0  0
   -6.1200   16.5240  -33.5430 C   0  0  0  0  0  0  0  0  0  0  0  0
   -4.8850   17.1430  -33.7240 C   0  0  0  0  0  0  0  0  0  0  0  0
   -4.7350   18.5070  -33.4720 C   0  0  0  0  0  0  0  0  0  0  0  0
   -5.8300   19.2820  -33.0320 C   0  0  0  0  0  0  0  0  0  0  0  0
   -5.7100   20.6690  -32.7680 C   0  0  0  0  0  0  0  0  0  0  0  0
   -4.0280   21.5730  -33.0950 Br  0  0  0  0  0  0  0  0  0  0  0  0
   -3.9886   24.2428  -26.0242 H   0  0  0  0  0  0  0  0  0  0  0  0
   -2.8906   24.8673  -27.3013 H   0  0  0  0  0  0  0  0  0  0  0  0
   -4.6252   25.3339  -27.3013 H   0  0  0  0  0  0  0  0  0  0  0  0
   -3.4050   22.5974  -27.8966 H   0  0  0  0  0  0  0  0  0  0  0  0
   -5.1749   22.8706  -27.5847 H   0  0  0  0  0  0  0  0  0  0  0  0
   -3.4467   23.9286  -31.2183 H   0  0  0  0  0  0  0  0  0  0  0  0
   -2.6336   24.6453  -29.7328 H   0  0  0  0  0  0  0  0  0  0  0  0
   -2.0638   22.3484  -28.9931 H   0  0  0  0  0  0  0  0  0  0  0  0
   -2.7081   21.7135  -30.5450 H   0  0  0  0  0  0  0  0  0  0  0  0
   -1.2881   22.8136  -30.5450 H   0  0  0  0  0  0  0  0  0  0  0  0
   -5.4619   25.2975  -28.4767 H   0  0  0  0  0  0  0  0  0  0  0  0
   -4.8305   25.5948  -30.1534 H   0  0  0  0  0  0  0  0  0  0  0  0
   -7.4772   24.7577  -29.3289 H   0  0  0  0  0  0  0  0  0  0  0  0
   -6.8335   25.1365  -30.9890 H   0  0  0  0  0  0  0  0  0  0  0  0
   -7.7110   22.6920  -30.1090 H   0  0  0  0  0  0  0  0  0  0  0  0
   -6.0410   22.5870  -30.0040 H   0  0  0  0  0  0  0  0  0  0  0  0
   -7.4746   23.4426  -32.4404 H   0  0  0  0  0  0  0  0  0  0  0  0
   -5.6828   23.1930  -32.2163 H   0  0  0  0  0  0  0  0  0  0  0  0
   -9.1588   18.8793  -32.3028 H   0  0  0  0  0  0  0  0  0  0  0  0
   -8.1897   16.7768  -32.9637 H   0  0  0  0  0  0  0  0  0  0  0  0
   -6.2306   15.4482  -33.7440 H   0  0  0  0  0  0  0  0  0  0  0  0
   -4.0228   16.5526  -34.0677 H   0  0  0  0  0  0  0  0  0  0  0  0
   -3.7541   18.9832  -33.6175 H   0  0  0  0  0  0  0  0  0  0  0  0
  1  2  1  0
  2  3  1  0
  3  4  1  0
  4  5  1  0
  3  6  1  0
  6  7  1  0
  7  8  1  0
  8  9  1  0
  9 10  1  0
 10 11  2  0
 11 12  1  0
 11 13  1  0
 13 14  2  0
 14 15  1  0
 15 16  2  0
 16 17  1  0
 17 18  2  0
 18 19  1  0
 19 20  2  0
 20 21  1  0
 20 10  1  0
 19 14  1  0
  1 22  1  0
  1 23  1  0
  1 24  1  0
  2 25  1  0
  2 26  1  0
  4 27  1  0
  4 28  1  0
  5 29  1  0
  5 30  1  0
  5 31  1  0
  6 32  1  0
  6 33  1  0
  7 34  1  0
  7 35  1  0
  8 36  1  0
  8 37  1  0
  9 38  1  0
  9 39  1  0
 13 40  1  0
 15 41  1  0
 16 42  1  0
 17 43  1  0
 18 44  1  0
M  CHG  1   8   1
M  END
>  <UniqueID>  (26) 
24

>  <SMILES>  (26) 
CCN(CC)CC[NH2+]Cc1c(Cl)cc2ccccc2c1Br

>  <Energy>  (26) 
56.23972104761441

>  <Genealogy>  (26) 
CCN(CC)CC[NH2+]Cc1c(Cl)cc2ccccc2c1Br (protonated)
CCN(CC)CC[NH2+]Cc1c(Cl)cc2ccccc2c1Br (3D coordinates assigned)
CCN(CC)CC[NH2+]Cc1c(Cl)cc2ccccc2c1Br (optimized conformer: 56.23972104761441 kcal/mol)

>  <smiles>  (26) 
CCN(CC)CCNCc1c(Cl)cc2ccccc2c1Br

>  <score_type>  (26) 
oracle

>  <origin>  (26) 
adg

>  <m_score__min__energy>  (26) 
-6.8300000000000001

>  <m_primary>  (26) 
energy

$$$$
26:0
     RDKit          3D

 52 55  0  0  0  0  0  0  0  0999 V2000
   -1.0280   25.5390  -28.2120 C   0  0  0  0  0  0  0  0  0  0  0  0
   -2.1840   24.5980  -28.3840 C   0  0  0  0  0  0  0  0  0  0  0  0
   -2.2410   23.7420  -29.4970 C   0  0  0  0  0  0  0  0  0  0  0  0
   -3.3040   22.8330  -29.6500 C   0  0  0  0  0  0  0  0  0  0  0  0
   -3.3580   21.9330  -30.8260 C   0  0  0  0  0  0  0  0  0  0  0  0
   -2.7150   20.6840  -30.7980 C   0  0  0  0  0  0  0  0  0  0  0  0
   -2.8070   19.8140  -31.8880 C   0  0  0  0  0  0  0  0  0  0  0  0
   -3.5480   20.1750  -33.0210 C   0  0  0  0  0  0  0  0  0  0  0  0
   -3.6830   19.2830  -34.1400 N   0  0  0  0  0  0  0  0  0  0  0  0
   -4.8430   18.4070  -34.3660 C   0  0  1  0  0  0  0  0  0  0  0  0
   -4.7340   17.0810  -33.6300 C   0  0  0  0  0  0  0  0  0  0  0  0
   -6.1210   16.8230  -33.0200 C   0  0  0  0  0  0  0  0  0  0  0  0
   -6.8820   18.0940  -33.0080 N   0  0  1  0  0  0  0  0  0  0  0  0
   -7.0280   18.6270  -31.6340 C   0  0  0  0  0  0  0  0  0  0  0  0
   -7.7560   19.9510  -31.6100 C   0  0  0  0  0  0  0  0  0  0  0  0
   -9.1160   20.0170  -31.9590 C   0  0  0  0  0  0  0  0  0  0  0  0
   -9.7870   21.2430  -31.9500 C   0  0  0  0  0  0  0  0  0  0  0  0
   -9.1070   22.4120  -31.5940 C   0  0  0  0  0  0  0  0  0  0  0  0
   -7.7550   22.3560  -31.2460 C   0  0  0  0  0  0  0  0  0  0  0  0
   -7.0800   21.1310  -31.2550 C   0  0  0  0  0  0  0  0  0  0  0  0
   -6.1170   18.9690  -33.8510 C   0  0  0  0  0  0  0  0  0  0  0  0
   -6.5430   20.0550  -34.2180 O   0  0  0  0  0  0  0  0  0  0  0  0
   -4.1560   21.4360  -33.0700 C   0  0  0  0  0  0  0  0  0  0  0  0
   -4.0690   22.3070  -31.9800 C   0  0  0  0  0  0  0  0  0  0  0  0
   -4.3050   22.7810  -28.6630 C   0  0  0  0  0  0  0  0  0  0  0  0
   -4.2440   23.6210  -27.5500 C   0  0  0  0  0  0  0  0  0  0  0  0
   -3.1880   24.5240  -27.4040 C   0  0  0  0  0  0  0  0  0  0  0  0
   -3.1410   25.3220  -26.3080 F   0  0  0  0  0  0  0  0  0  0  0  0
   -0.8377   25.6939  -27.1397 H   0  0  0  0  0  0  0  0  0  0  0  0
   -0.1324   25.1099  -28.6851 H   0  0  0  0  0  0  0  0  0  0  0  0
   -1.2664   26.5030  -28.6851 H   0  0  0  0  0  0  0  0  0  0  0  0
   -1.4463   23.7830  -30.2565 H   0  0  0  0  0  0  0  0  0  0  0  0
   -2.1347   20.3886  -29.9114 H   0  0  0  0  0  0  0  0  0  0  0  0
   -2.2950   18.8409  -31.8562 H   0  0  0  0  0  0  0  0  0  0  0  0
   -3.1030   19.5010  -34.9820 H   0  0  0  0  0  0  0  0  0  0  0  0
   -4.8453   18.2937  -35.4602 H   0  0  0  0  0  0  0  0  0  0  0  0
   -4.4680   16.2754  -34.3302 H   0  0  0  0  0  0  0  0  0  0  0  0
   -3.9519   17.1110  -32.8571 H   0  0  0  0  0  0  0  0  0  0  0  0
   -6.6575   16.0767  -33.6243 H   0  0  0  0  0  0  0  0  0  0  0  0
   -6.0126   16.4429  -31.9935 H   0  0  0  0  0  0  0  0  0  0  0  0
   -7.8250   17.9380  -33.4380 H   0  0  0  0  0  0  0  0  0  0  0  0
   -7.5928   17.9011  -31.0306 H   0  0  0  0  0  0  0  0  0  0  0  0
   -6.0196   18.7885  -31.2254 H   0  0  0  0  0  0  0  0  0  0  0  0
   -9.6544   19.1000  -32.2404 H   0  0  0  0  0  0  0  0  0  0  0  0
  -10.8515   21.2885  -32.2233 H   0  0  0  0  0  0  0  0  0  0  0  0
   -9.6368   23.3760  -31.5880 H   0  0  0  0  0  0  0  0  0  0  0  0
   -7.2212   23.2758  -30.9648 H   0  0  0  0  0  0  0  0  0  0  0  0
   -6.0149   21.0909  -30.9829 H   0  0  0  0  0  0  0  0  0  0  0  0
   -4.7055   21.7429  -33.9721 H   0  0  0  0  0  0  0  0  0  0  0  0
   -4.5595   23.2905  -32.0254 H   0  0  0  0  0  0  0  0  0  0  0  0
   -5.1410   22.0740  -28.7690 H   0  0  0  0  0  0  0  0  0  0  0  0
   -5.0316   23.5718  -26.7837 H   0  0  0  0  0  0  0  0  0  0  0  0
  1  2  1  0
  2  3  2  0
  3  4  1  0
  4  5  1  0
  5  6  2  0
  6  7  1  0
  7  8  2  0
  8  9  1  0
  9 10  1  0
 10 11  1  0
 11 12  1  0
 12 13  1  0
 13 14  1  0
 14 15  1  0
 15 16  2  0
 16 17  1  0
 17 18  2  0
 18 19  1  0
 19 20  2  0
 13 21  1  0
 21 22  2  0
  8 23  1  0
 23 24  2  0
  4 25  2  0
 25 26  1  0
 26 27  2  0
 27 28  1  0
 27  2  1  0
 24  5  1  0
 21 10  1  0
 20 15  1  0
  1 29  1  0
  1 30  1  0
  1 31  1  0
  3 32  1  0
  6 33  1  0
  7 34  1  0
  9 35  1  0
 10 36  1  6
 11 37  1  0
 11 38  1  0
 12 39  1  0
 12 40  1  0
 13 41  1  6
 14 42  1  0
 14 43  1  0
 16 44  1  0
 17 45  1  0
 18 46  1  0
 19 47  1  0
 20 48  1  0
 23 49  1  0
 24 50  1  0
 25 51  1  0
 26 52  1  0
M  CHG  1  13   1
M  END
>  <UniqueID>  (27) 
25

>  <SMILES>  (27) 
Cc1cc(-c2ccc(N[C@H]3CC[N@@H+](Cc4ccccc4)C3=O)cc2)ccc1F

>  <Energy>  (27) 
68.71270743232199

>  <Genealogy>  (27) 
Cc1cc(-c2ccc(NC3CC[NH+](Cc4ccccc4)C3=O)cc2)ccc1F (protonated)
Cc1cc(-c2ccc(N[C@H]3CC[N@@H+](Cc4ccccc4)C3=O)cc2)ccc1F (chirality)
Cc1cc(-c2ccc(N[C@H]3CC[N@@H+](Cc4ccccc4)C3=O)cc2)ccc1F (3D coordinates assigned)
Cc1cc(-c2ccc(N[C@H]3CC[N@@H+](Cc4ccccc4)C3=O)cc2)ccc1F (nonaromatic ring conformer: 68.71270743232199 kcal/mol)

>  <smiles>  (27) 
Cc1cc(-c2ccc(NC3CCN(Cc4ccccc4)C3=O)cc2)ccc1F

>  <score_type>  (27) 
oracle

>  <origin>  (27) 
adg

>  <m_score__min__energy>  (27) 
-8.5800000000000001

>  <m_primary>  (27) 
energy

$$$$
27:0
     RDKit          3D

 49 52  0  0  0  0  0  0  0  0999 V2000
   -6.6550   25.2990  -29.7470 C   0  0  0  0  0  0  0  0  0  0  0  0
   -5.6040   25.6770  -30.7920 C   0  0  0  0  0  0  0  0  0  0  0  0
   -4.2710   25.1470  -30.4680 N   0  0  0  0  0  0  0  0  0  0  0  0
   -4.2960   23.7080  -30.1700 C   0  0  0  0  0  0  0  0  0  0  0  0
   -3.6990   22.9130  -31.3360 C   0  0  0  0  0  0  0  0  0  0  0  0
   -4.6920   22.6620  -32.3840 N   0  0  0  0  0  0  0  0  0  0  0  0
   -5.2250   21.3510  -32.6400 C   0  0  0  0  0  0  0  0  0  0  0  0
   -6.5660   21.0560  -32.3400 C   0  0  0  0  0  0  0  0  0  0  0  0
   -7.4470   22.0560  -31.8800 C   0  0  0  0  0  0  0  0  0  0  0  0
   -8.7770   21.7550  -31.5910 C   0  0  0  0  0  0  0  0  0  0  0  0
   -9.2520   20.4600  -31.7660 C   0  0  0  0  0  0  0  0  0  0  0  0
   -8.4070   19.4630  -32.2520 C   0  0  0  0  0  0  0  0  0  0  0  0
   -7.0530   19.7420  -32.5650 C   0  0  0  0  0  0  0  0  0  0  0  0
   -6.2230   18.7730  -33.0920 N   0  0  0  0  0  0  0  0  0  0  0  0
   -6.8400   17.6310  -33.8010 C   0  0  0  0  0  0  0  0  0  0  0  0
   -4.8590   18.9960  -33.1670 C   0  0  0  0  0  0  0  0  0  0  0  0
   -4.3790   20.3300  -33.1070 C   0  0  0  0  0  0  0  0  0  0  0  0
   -3.0570   20.6160  -33.4920 C   0  0  0  0  0  0  0  0  0  0  0  0
   -2.1830   19.5970  -33.8470 C   0  0  0  0  0  0  0  0  0  0  0  0
   -2.5710   18.2620  -33.7170 C   0  0  0  0  0  0  0  0  0  0  0  0
   -1.6280   17.2430  -33.9270 C   0  0  0  0  0  0  0  0  0  0  0  0
   -1.9570   15.9160  -33.6630 C   0  0  0  0  0  0  0  0  0  0  0  0
   -3.2150   15.6000  -33.1530 C   0  0  0  0  0  0  0  0  0  0  0  0
   -4.1670   16.6020  -32.9580 C   0  0  0  0  0  0  0  0  0  0  0  0
   -3.8960   17.9440  -33.3140 C   0  0  0  0  0  0  0  0  0  0  0  0
   -6.2402   25.4482  -28.7392 H   0  0  0  0  0  0  0  0  0  0  0  0
   -7.5443   25.9336  -29.8751 H   0  0  0  0  0  0  0  0  0  0  0  0
   -6.9364   24.2433  -29.8751 H   0  0  0  0  0  0  0  0  0  0  0  0
   -5.9159   25.2750  -31.7673 H   0  0  0  0  0  0  0  0  0  0  0  0
   -5.5315   26.7744  -30.8111 H   0  0  0  0  0  0  0  0  0  0  0  0
   -3.8790   25.6630  -29.6440 H   0  0  0  0  0  0  0  0  0  0  0  0
   -3.7078   23.5155  -29.2607 H   0  0  0  0  0  0  0  0  0  0  0  0
   -5.3387   23.3921  -30.0182 H   0  0  0  0  0  0  0  0  0  0  0  0
   -2.8630   23.4841  -31.7661 H   0  0  0  0  0  0  0  0  0  0  0  0
   -3.3549   21.9424  -30.9494 H   0  0  0  0  0  0  0  0  0  0  0  0
   -4.9940   23.4530  -32.9970 H   0  0  0  0  0  0  0  0  0  0  0  0
   -7.0809   23.0848  -31.7477 H   0  0  0  0  0  0  0  0  0  0  0  0
   -9.4514   22.5427  -31.2241 H   0  0  0  0  0  0  0  0  0  0  0  0
  -10.2973   20.2214  -31.5204 H   0  0  0  0  0  0  0  0  0  0  0  0
   -8.7971   18.4444  -32.3947 H   0  0  0  0  0  0  0  0  0  0  0  0
   -7.2293   16.9105  -33.0666 H   0  0  0  0  0  0  0  0  0  0  0  0
   -7.6650   17.9935  -34.4319 H   0  0  0  0  0  0  0  0  0  0  0  0
   -6.0846   17.1397  -34.4319 H   0  0  0  0  0  0  0  0  0  0  0  0
   -2.7110   21.6600  -33.5122 H   0  0  0  0  0  0  0  0  0  0  0  0
   -1.1821   19.8422  -34.2317 H   0  0  0  0  0  0  0  0  0  0  0  0
   -0.6248   17.4942  -34.3018 H   0  0  0  0  0  0  0  0  0  0  0  0
   -1.2250   15.1181  -33.8567 H   0  0  0  0  0  0  0  0  0  0  0  0
   -3.4586   14.5568  -32.9032 H   0  0  0  0  0  0  0  0  0  0  0  0
   -5.1429   16.3442  -32.5208 H   0  0  0  0  0  0  0  0  0  0  0  0
  1  2  1  0
  2  3  1  0
  3  4  1  0
  4  5  1  0
  5  6  1  0
  6  7  1  0
  7  8  2  0
  8  9  1  0
  9 10  2  0
 10 11  1  0
 11 12  2  0
 12 13  1  0
 13 14  2  0
 14 15  1  0
 14 16  1  0
 16 17  2  0
 17 18  1  0
 18 19  2  0
 19 20  1  0
 20 21  2  0
 21 22  1  0
 22 23  2  0
 23 24  1  0
 24 25  2  0
 17  7  1  0
 25 20  1  0
 13  8  1  0
 25 16  1  0
  1 26  1  0
  1 27  1  0
  1 28  1  0
  2 29  1  0
  2 30  1  0
  3 31  1  0
  4 32  1  0
  4 33  1  0
  5 34  1  0
  5 35  1  0
  6 36  1  0
  9 37  1  0
 10 38  1  0
 11 39  1  0
 12 40  1  0
 15 41  1  0
 15 42  1  0
 15 43  1  0
 18 44  1  0
 19 45  1  0
 21 46  1  0
 22 47  1  0
 23 48  1  0
 24 49  1  0
M  CHG  1  14   1
M  END
>  <UniqueID>  (28) 
26

>  <SMILES>  (28) 
CCNCCNc1c2ccccc2[n+](C)c2c1ccc1ccccc12

>  <Energy>  (28) 
88.86260658508324

>  <Genealogy>  (28) 
CCNCCNc1c2ccccc2[n+](C)c2c1ccc1ccccc12 (3D coordinates assigned)
CCNCCNc1c2ccccc2[n+](C)c2c1ccc1ccccc12 (optimized conformer: 88.86260658508324 kcal/mol)

>  <smiles>  (28) 
CCNCCNc1c2ccccc2[n+](C)c2c1ccc1ccccc12

>  <score_type>  (28) 
oracle

>  <origin>  (28) 
adg

>  <m_score__min__energy>  (28) 
-9.1899999999999995

>  <m_primary>  (28) 
energy

$$$$
28:0
     RDKit          3D

 30 32  0  0  0  0  0  0  0  0999 V2000
   -3.9540   25.6590  -30.8450 O   0  0  0  0  0  0  0  0  0  0  0  0
   -5.0410   25.0750  -30.6560 N   0  0  0  0  0  0  0  0  0  0  0  0
   -6.0990   25.7940  -30.1490 O   0  0  0  0  0  0  0  0  0  0  0  0
   -5.1840   23.6740  -30.9530 C   0  0  0  0  0  0  0  0  0  0  0  0
   -4.0810   22.8050  -30.8590 C   0  0  0  0  0  0  0  0  0  0  0  0
   -4.2230   21.4480  -31.1570 C   0  0  0  0  0  0  0  0  0  0  0  0
   -5.4640   20.9390  -31.5410 C   0  0  0  0  0  0  0  0  0  0  0  0
   -6.5820   21.7830  -31.6180 C   0  0  0  0  0  0  0  0  0  0  0  0
   -7.8880   21.2300  -32.0370 C   0  0  0  0  0  0  0  0  0  0  0  0
   -9.0590   21.8660  -31.8330 N   0  0  0  0  0  0  0  0  0  0  0  0
   -9.9800   21.0140  -32.2590 N   0  0  0  0  0  0  0  0  0  0  0  0
   -9.4250   19.9020  -32.7110 N   0  0  0  0  0  0  0  0  0  0  0  0
   -8.1140   20.0130  -32.5850 N   0  0  0  0  0  0  0  0  0  0  0  0
   -7.1790   19.0320  -33.0670 C   0  0  0  0  0  0  0  0  0  0  0  0
   -6.3640   19.2980  -34.1800 C   0  0  0  0  0  0  0  0  0  0  0  0
   -5.4670   18.3300  -34.6440 C   0  0  0  0  0  0  0  0  0  0  0  0
   -5.3870   17.0860  -34.0090 C   0  0  0  0  0  0  0  0  0  0  0  0
   -4.2610   15.8740  -34.5920 Cl  0  0  0  0  0  0  0  0  0  0  0  0
   -6.2120   16.8080  -32.9150 C   0  0  0  0  0  0  0  0  0  0  0  0
   -7.1100   17.7730  -32.4490 C   0  0  0  0  0  0  0  0  0  0  0  0
   -6.4290   23.1530  -31.3450 C   0  0  0  0  0  0  0  0  0  0  0  0
   -3.1011   23.1970  -30.5489 H   0  0  0  0  0  0  0  0  0  0  0  0
   -3.3532   20.7780  -31.0887 H   0  0  0  0  0  0  0  0  0  0  0  0
   -5.5663   19.8712  -31.7845 H   0  0  0  0  0  0  0  0  0  0  0  0
  -11.0070   21.1970  -32.2410 H   0  0  0  0  0  0  0  0  0  0  0  0
   -6.4315   20.2711  -34.6885 H   0  0  0  0  0  0  0  0  0  0  0  0
   -4.8236   18.5473  -35.5094 H   0  0  0  0  0  0  0  0  0  0  0  0
   -6.1544   15.8275  -32.4196 H   0  0  0  0  0  0  0  0  0  0  0  0
   -7.7649   17.5451  -31.5951 H   0  0  0  0  0  0  0  0  0  0  0  0
   -7.2942   23.8257  -31.4393 H   0  0  0  0  0  0  0  0  0  0  0  0
  1  2  2  0
  2  3  1  0
  2  4  1  0
  4  5  2  0
  5  6  1  0
  6  7  2  0
  7  8  1  0
  8  9  1  0
  9 10  2  0
 10 11  1  0
 11 12  2  0
 12 13  1  0
 13 14  1  0
 14 15  2  0
 15 16  1  0
 16 17  2  0
 17 18  1  0
 17 19  1  0
 19 20  2  0
  8 21  2  0
 21  4  1  0
 13  9  1  0
 20 14  1  0
  5 22  1  0
  6 23  1  0
  7 24  1  0
 11 25  1  0
 15 26  1  0
 16 27  1  0
 19 28  1  0
 20 29  1  0
 21 30  1  0
M  CHG  3   2   1   3  -1  11   1
M  END
>  <UniqueID>  (29) 
27

>  <SMILES>  (29) 
O=[N+]([O-])c1cccc(-c2n[nH+]nn2-c2ccc(Cl)cc2)c1

>  <Energy>  (29) 
82.34899646401188

>  <Genealogy>  (29) 
O=[N+]([O-])c1cccc(-c2n[nH+]nn2-c2ccc(Cl)cc2)c1 (protonated)
O=[N+]([O-])c1cccc(-c2n[nH+]nn2-c2ccc(Cl)cc2)c1 (3D coordinates assigned)
O=[N+]([O-])c1cccc(-c2n[nH+]nn2-c2ccc(Cl)cc2)c1 (optimized conformer: 82.34899646401188 kcal/mol)

>  <smiles>  (29) 
O=[N+]([O-])c1cccc(-c2nnnn2-c2ccc(Cl)cc2)c1

>  <score_type>  (29) 
oracle

>  <origin>  (29) 
adg

>  <m_score__min__energy>  (29) 
-8.8800000000000008

>  <m_primary>  (29) 
energy

$$$$
29:0
     RDKit          3D

 44 46  0  0  0  0  0  0  0  0999 V2000
   -6.8180   25.6710  -29.3710 C   0  0  0  0  0  0  0  0  0  0  0  0
   -5.7430   25.4830  -30.4430 C   0  0  0  0  0  0  0  0  0  0  0  0
   -4.7030   24.3950  -30.1120 C   0  0  2  0  0  0  0  0  0  0  0  0
   -3.3510   24.9490  -30.1380 N   0  0  0  0  0  0  0  0  0  0  0  0
   -2.4620   24.9130  -29.0160 C   0  0  0  0  0  0  0  0  0  0  0  0
   -1.4690   25.6900  -28.9670 O   0  0  0  0  0  0  0  0  0  0  0  0
   -2.7410   23.9720  -27.8790 C   0  0  2  0  0  0  0  0  0  0  0  0
   -3.8310   24.5440  -26.9510 C   0  0  0  0  0  0  0  0  0  0  0  0
   -3.3060   25.6030  -26.1480 O   0  0  0  0  0  0  0  0  0  0  0  0
   -2.0180   25.5290  -25.6090 C   0  0  0  0  0  0  0  0  0  0  0  0
   -1.6120   26.4110  -24.6030 C   0  0  0  0  0  0  0  0  0  0  0  0
   -0.3260   26.3000  -24.0600 C   0  0  0  0  0  0  0  0  0  0  0  0
    0.5510   25.3120  -24.5260 C   0  0  0  0  0  0  0  0  0  0  0  0
    0.1490   24.4400  -25.5440 C   0  0  0  0  0  0  0  0  0  0  0  0
   -1.1300   24.5590  -26.0950 C   0  0  0  0  0  0  0  0  0  0  0  0
   -1.5400   23.7220  -27.1400 O   0  0  0  0  0  0  0  0  0  0  0  0
   -4.8410   23.1720  -31.0120 C   0  0  0  0  0  0  0  0  0  0  0  0
   -6.1130   22.8750  -31.5380 C   0  0  0  0  0  0  0  0  0  0  0  0
   -6.2990   21.7790  -32.3800 C   0  0  0  0  0  0  0  0  0  0  0  0
   -5.2190   20.9670  -32.7190 C   0  0  0  0  0  0  0  0  0  0  0  0
   -3.9460   21.2520  -32.2230 C   0  0  0  0  0  0  0  0  0  0  0  0
   -3.7390   22.3560  -31.3720 C   0  0  0  0  0  0  0  0  0  0  0  0
   -2.4600   22.6670  -30.8810 O   0  0  0  0  0  0  0  0  0  0  0  0
   -1.4960   21.7060  -30.4590 C   0  0  0  0  0  0  0  0  0  0  0  0
   -6.3598   25.5909  -28.3742 H   0  0  0  0  0  0  0  0  0  0  0  0
   -7.2789   26.6634  -29.4840 H   0  0  0  0  0  0  0  0  0  0  0  0
   -7.5883   24.8939  -29.4840 H   0  0  0  0  0  0  0  0  0  0  0  0
   -6.2400   25.2096  -31.3855 H   0  0  0  0  0  0  0  0  0  0  0  0
   -5.1944   26.4341  -30.5102 H   0  0  0  0  0  0  0  0  0  0  0  0
   -4.9017   24.0431  -29.0889 H   0  0  0  0  0  0  0  0  0  0  0  0
   -3.1072   23.0221  -28.2957 H   0  0  0  0  0  0  0  0  0  0  0  0
   -4.6592   24.9312  -27.5626 H   0  0  0  0  0  0  0  0  0  0  0  0
   -4.1883   23.7417  -26.2887 H   0  0  0  0  0  0  0  0  0  0  0  0
   -2.2998   27.1888  -24.2396 H   0  0  0  0  0  0  0  0  0  0  0  0
   -0.0039   26.9899  -23.2661 H   0  0  0  0  0  0  0  0  0  0  0  0
    1.5573   25.2215  -24.0910 H   0  0  0  0  0  0  0  0  0  0  0  0
    0.8372   23.6636  -25.9093 H   0  0  0  0  0  0  0  0  0  0  0  0
   -6.9701   23.5151  -31.2817 H   0  0  0  0  0  0  0  0  0  0  0  0
   -7.3001   21.5553  -32.7771 H   0  0  0  0  0  0  0  0  0  0  0  0
   -5.3698   20.0998  -33.3787 H   0  0  0  0  0  0  0  0  0  0  0  0
   -3.0969   20.6093  -32.4987 H   0  0  0  0  0  0  0  0  0  0  0  0
   -1.4655   21.6756  -29.3598 H   0  0  0  0  0  0  0  0  0  0  0  0
   -1.7733   20.7143  -30.8457 H   0  0  0  0  0  0  0  0  0  0  0  0
   -0.5051   21.9864  -30.8457 H   0  0  0  0  0  0  0  0  0  0  0  0
  1  2  1  0
  2  3  1  0
  3  4  1  0
  4  5  1  0
  5  6  2  0
  5  7  1  0
  7  8  1  0
  8  9  1  0
  9 10  1  0
 10 11  2  0
 11 12  1  0
 12 13  2  0
 13 14  1  0
 14 15  2  0
 15 16  1  0
  3 17  1  0
 17 18  2  0
 18 19  1  0
 19 20  2  0
 20 21  1  0
 21 22  2  0
 22 23  1  0
 23 24  1  0
 16  7  1  0
 22 17  1  0
 15 10  1  0
  1 25  1  0
  1 26  1  0
  1 27  1  0
  2 28  1  0
  2 29  1  0
  3 30  1  1
  7 31  1  6
  8 32  1  0
  8 33  1  0
 11 34  1  0
 12 35  1  0
 13 36  1  0
 14 37  1  0
 18 38  1  0
 19 39  1  0
 20 40  1  0
 21 41  1  0
 24 42  1  0
 24 43  1  0
 24 44  1  0
M  CHG  1   4  -1
M  END
>  <UniqueID>  (30) 
28

>  <SMILES>  (30) 
CC[C@H]([N-]C(=O)[C@@H]1COc2ccccc2O1)c1ccccc1OC

>  <Energy>  (30) 
41.98797128417831

>  <Genealogy>  (30) 
CCC([N-]C(=O)C1COc2ccccc2O1)c1ccccc1OC (protonated)
CC[C@H]([N-]C(=O)[C@@H]1COc2ccccc2O1)c1ccccc1OC (chirality)
CC[C@H]([N-]C(=O)[C@@H]1COc2ccccc2O1)c1ccccc1OC (3D coordinates assigned)
CC[C@H]([N-]C(=O)[C@@H]1COc2ccccc2O1)c1ccccc1OC (nonaromatic ring conformer: 41.98797128417831 kcal/mol)

>  <smiles>  (30) 
CCC(NC(=O)C1COc2ccccc2O1)c1ccccc1OC

>  <score_type>  (30) 
oracle

>  <origin>  (30) 
adg

>  <m_score__min__energy>  (30) 
-8.9700000000000006

>  <m_primary>  (30) 
energy

$$$$
30:0
     RDKit          3D

 50 52  0  0  0  0  0  0  0  0999 V2000
   -8.4790   18.9090  -32.1870 C   0  0  0  0  0  0  0  0  0  0  0  0
   -9.1420   20.2810  -32.2970 C   0  0  0  0  0  0  0  0  0  0  0  0
   -8.1850   21.4060  -32.3310 N   0  0  0  0  0  0  0  0  0  0  0  0
   -8.4500   22.5270  -31.4080 C   0  0  0  0  0  0  0  0  0  0  0  0
   -7.5710   22.4830  -30.1480 C   0  0  0  0  0  0  0  0  0  0  0  0
   -6.1440   22.3230  -30.4670 N   0  0  0  0  0  0  0  0  0  0  0  0
   -5.5510   23.5410  -31.0620 C   0  0  0  0  0  0  0  0  0  0  0  0
   -4.5810   24.1770  -30.1100 C   0  0  0  0  0  0  0  0  0  0  0  0
   -3.9450   25.2040  -30.4710 O   0  0  0  0  0  0  0  0  0  0  0  0
   -4.4420   23.6610  -28.7770 N   0  0  0  0  0  0  0  0  0  0  0  0
   -3.3470   23.9830  -27.8970 C   0  0  0  0  0  0  0  0  0  0  0  0
   -3.5130   24.9240  -26.8630 C   0  0  0  0  0  0  0  0  0  0  0  0
   -2.4620   25.2180  -25.9920 C   0  0  0  0  0  0  0  0  0  0  0  0
   -1.2300   24.5850  -26.1460 C   0  0  0  0  0  0  0  0  0  0  0  0
   -1.0380   23.6710  -27.1830 C   0  0  0  0  0  0  0  0  0  0  0  0
   -2.0790   23.3820  -28.0760 C   0  0  0  0  0  0  0  0  0  0  0  0
   -1.7630   22.2160  -29.4100 S   0  0  0  0  0  0  0  0  0  0  0  0
   -1.8670   20.7840  -28.3320 C   0  0  0  0  0  0  0  0  0  0  0  0
   -3.0060   20.5670  -27.5440 C   0  0  0  0  0  0  0  0  0  0  0  0
   -3.0820   19.4450  -26.7130 C   0  0  0  0  0  0  0  0  0  0  0  0
   -2.0180   18.5380  -26.6620 C   0  0  0  0  0  0  0  0  0  0  0  0
   -0.8750   18.7580  -27.4370 C   0  0  0  0  0  0  0  0  0  0  0  0
   -0.7970   19.8800  -28.2670 C   0  0  0  0  0  0  0  0  0  0  0  0
   -5.9200   21.1030  -31.2660 C   0  0  0  0  0  0  0  0  0  0  0  0
   -6.7660   21.0600  -32.5520 C   0  0  0  0  0  0  0  0  0  0  0  0
   -8.3524   18.6470  -31.1262 H   0  0  0  0  0  0  0  0  0  0  0  0
   -9.1123   18.1553  -32.6778 H   0  0  0  0  0  0  0  0  0  0  0  0
   -7.4950   18.9369  -32.6778 H   0  0  0  0  0  0  0  0  0  0  0  0
   -9.7379   20.3049  -33.2213 H   0  0  0  0  0  0  0  0  0  0  0  0
   -9.7576   20.4120  -31.3949 H   0  0  0  0  0  0  0  0  0  0  0  0
   -8.2572   23.4714  -31.9380 H   0  0  0  0  0  0  0  0  0  0  0  0
   -9.4979   22.4473  -31.0831 H   0  0  0  0  0  0  0  0  0  0  0  0
   -7.7055   23.4214  -29.5901 H   0  0  0  0  0  0  0  0  0  0  0  0
   -7.8817   21.6125  -29.5517 H   0  0  0  0  0  0  0  0  0  0  0  0
   -5.0232   23.2703  -31.9884 H   0  0  0  0  0  0  0  0  0  0  0  0
   -6.3568   24.2579  -31.2779 H   0  0  0  0  0  0  0  0  0  0  0  0
   -5.2090   23.0470  -28.4290 H   0  0  0  0  0  0  0  0  0  0  0  0
   -4.4805   25.4328  -26.7401 H   0  0  0  0  0  0  0  0  0  0  0  0
   -2.6066   25.9498  -25.1836 H   0  0  0  0  0  0  0  0  0  0  0  0
   -0.4079   24.8061  -25.4493 H   0  0  0  0  0  0  0  0  0  0  0  0
   -0.0636   23.1743  -27.3003 H   0  0  0  0  0  0  0  0  0  0  0  0
   -3.8419   21.2811  -27.5795 H   0  0  0  0  0  0  0  0  0  0  0  0
   -3.9788   19.2754  -26.0990 H   0  0  0  0  0  0  0  0  0  0  0  0
   -2.0805   17.6523  -26.0126 H   0  0  0  0  0  0  0  0  0  0  0  0
   -0.0365   18.0474  -27.3934 H   0  0  0  0  0  0  0  0  0  0  0  0
    0.1059   20.0542  -28.8706 H   0  0  0  0  0  0  0  0  0  0  0  0
   -4.8568   21.0571  -31.5445 H   0  0  0  0  0  0  0  0  0  0  0  0
   -6.2206   20.2451  -30.6465 H   0  0  0  0  0  0  0  0  0  0  0  0
   -6.3411   21.7736  -33.2732 H   0  0  0  0  0  0  0  0  0  0  0  0
   -6.7377   20.0258  -32.9256 H   0  0  0  0  0  0  0  0  0  0  0  0
  1  2  1  0
  2  3  1  0
  3  4  1  0
  4  5  1  0
  5  6  1  0
  6  7  1  0
  7  8  1  0
  8  9  2  0
  8 10  1  0
 10 11  1  0
 11 12  2  0
 12 13  1  0
 13 14  2  0
 14 15  1  0
 15 16  2  0
 16 17  1  0
 17 18  1  0
 18 19  2  0
 19 20  1  0
 20 21  2  0
 21 22  1  0
 22 23  2  0
  6 24  1  0
 24 25  1  0
 25  3  1  0
 16 11  1  0
 23 18  1  0
  1 26  1  0
  1 27  1  0
  1 28  1  0
  2 29  1  0
  2 30  1  0
  4 31  1  0
  4 32  1  0
  5 33  1  0
  5 34  1  0
  7 35  1  0
  7 36  1  0
 10 37  1  0
 12 38  1  0
 13 39  1  0
 14 40  1  0
 15 41  1  0
 19 42  1  0
 20 43  1  0
 21 44  1  0
 22 45  1  0
 23 46  1  0
 24 47  1  0
 24 48  1  0
 25 49  1  0
 25 50  1  0
M  END
>  <UniqueID>  (31) 
29

>  <SMILES>  (31) 
CCN1CCN(CC(=O)Nc2ccccc2Sc2ccccc2)CC1

>  <Energy>  (31) 
62.036286910735406

>  <Genealogy>  (31) 
CCN1CCN(CC(=O)Nc2ccccc2Sc2ccccc2)CC1 (3D coordinates assigned)
CCN1CCN(CC(=O)Nc2ccccc2Sc2ccccc2)CC1 (nonaromatic ring conformer: 62.036286910735406 kcal/mol)

>  <smiles>  (31) 
CCN1CCN(CC(=O)Nc2ccccc2Sc2ccccc2)CC1

>  <score_type>  (31) 
oracle

>  <origin>  (31) 
adg

>  <m_score__min__energy>  (31) 
-8.9299999999999997

>  <m_primary>  (31) 
energy

$$$$
31:0
     RDKit          3D

 37 39  0  0  0  0  0  0  0  0999 V2000
    0.2090   27.2200  -22.9650 C   0  0  0  0  0  0  0  0  0  0  0  0
   -0.3680   26.2920  -23.9800 C   0  0  0  0  0  0  0  0  0  0  0  0
   -1.2690   26.6600  -24.9140 N   0  0  0  0  0  0  0  0  0  0  0  0
   -1.5260   25.4800  -25.5210 C   0  0  0  0  0  0  0  0  0  0  0  0
   -2.4910   25.3170  -26.6620 C   0  0  0  0  0  0  0  0  0  0  0  0
   -2.5600   23.9340  -27.1860 N   0  0  0  0  0  0  0  0  0  0  0  0
   -3.9000   23.3050  -27.1160 C   0  0  0  0  0  0  0  0  0  0  0  0
   -4.5050   22.9700  -28.4920 C   0  0  0  0  0  0  0  0  0  0  0  0
   -4.0620   23.9290  -29.5140 N   0  0  0  0  0  0  0  0  0  0  0  0
   -4.9810   24.5130  -30.4650 C   0  0  0  0  0  0  0  0  0  0  0  0
   -4.5890   25.4450  -31.2190 O   0  0  0  0  0  0  0  0  0  0  0  0
   -6.4180   24.0790  -30.5490 C   0  0  0  0  0  0  0  0  0  0  0  0
   -6.6200   22.6300  -30.9680 C   0  0  0  0  0  0  0  0  0  0  0  0
   -6.9090   23.7500  -31.9520 C   0  0  0  0  0  0  0  0  0  0  0  0
   -2.6230   24.1730  -29.6750 C   0  0  0  0  0  0  0  0  0  0  0  0
   -1.8280   23.7050  -28.4480 C   0  0  0  0  0  0  0  0  0  0  0  0
   -0.8350   24.5000  -24.9890 O   0  0  0  0  0  0  0  0  0  0  0  0
   -0.1110   24.9730  -24.0250 N   0  0  0  0  0  0  0  0  0  0  0  0
   -0.0218   26.8488  -21.9556 H   0  0  0  0  0  0  0  0  0  0  0  0
    1.2999   27.2736  -23.0954 H   0  0  0  0  0  0  0  0  0  0  0  0
   -0.2255   28.2221  -23.0954 H   0  0  0  0  0  0  0  0  0  0  0  0
   -3.4933   25.6077  -26.3142 H   0  0  0  0  0  0  0  0  0  0  0  0
   -2.1318   25.9556  -27.4824 H   0  0  0  0  0  0  0  0  0  0  0  0
   -3.8151   22.3725  -26.5387 H   0  0  0  0  0  0  0  0  0  0  0  0
   -4.5713   24.0359  -26.6416 H   0  0  0  0  0  0  0  0  0  0  0  0
   -4.1879   21.9589  -28.7870 H   0  0  0  0  0  0  0  0  0  0  0  0
   -5.6008   23.0249  -28.4139 H   0  0  0  0  0  0  0  0  0  0  0  0
   -6.7790   24.7134  -29.7261 H   0  0  0  0  0  0  0  0  0  0  0  0
   -5.7493   21.9753  -31.1205 H   0  0  0  0  0  0  0  0  0  0  0  0
   -7.1912   21.7783  -30.5702 H   0  0  0  0  0  0  0  0  0  0  0  0
   -6.2475   23.9064  -32.8168 H   0  0  0  0  0  0  0  0  0  0  0  0
   -7.7759   24.0450  -32.5615 H   0  0  0  0  0  0  0  0  0  0  0  0
   -2.2657   23.6275  -30.5608 H   0  0  0  0  0  0  0  0  0  0  0  0
   -2.4693   25.2560  -29.7911 H   0  0  0  0  0  0  0  0  0  0  0  0
   -1.6235   22.6288  -28.5482 H   0  0  0  0  0  0  0  0  0  0  0  0
   -0.8964   24.2885  -28.4077 H   0  0  0  0  0  0  0  0  0  0  0  0
    0.5260   24.4200  -23.4090 H   0  0  0  0  0  0  0  0  0  0  0  0
  1  2  1  0
  2  3  1  0
  3  4  2  0
  4  5  1  0
  5  6  1  0
  6  7  1  0
  7  8  1  0
  8  9  1  0
  9 10  1  0
 10 11  2  0
 10 12  1  0
 12 13  1  0
 13 14  1  0
  9 15  1  0
 15 16  1  0
  4 17  1  0
 17 18  1  0
 18  2  2  0
 16  6  1  0
 14 12  1  0
  1 19  1  0
  1 20  1  0
  1 21  1  0
  5 22  1  0
  5 23  1  0
  7 24  1  0
  7 25  1  0
  8 26  1  0
  8 27  1  0
 12 28  1  0
 13 29  1  0
 13 30  1  0
 14 31  1  0
 14 32  1  0
 15 33  1  0
 15 34  1  0
 16 35  1  0
 16 36  1  0
 18 37  1  0
M  CHG  1  18   1
M  END
>  <UniqueID>  (32) 
30

>  <SMILES>  (32) 
Cc1nc(CN2CCN(C(=O)C3CC3)CC2)o[nH+]1

>  <Energy>  (32) 
342.00892840982544

>  <Genealogy>  (32) 
Cc1nc(CN2CCN(C(=O)C3CC3)CC2)o[nH+]1 (protonated)
Cc1nc(CN2CCN(C(=O)C3CC3)CC2)o[nH+]1 (3D coordinates assigned)
Cc1nc(CN2CCN(C(=O)C3CC3)CC2)o[nH+]1 (nonaromatic ring conformer: 342.00892840982544 kcal/mol)

>  <smiles>  (32) 
Cc1noc(CN2CCN(C(=O)C3CC3)CC2)n1

>  <score_type>  (32) 
oracle

>  <origin>  (32) 
adg

>  <m_score__min__energy>  (32) 
-7.0300000000000002

>  <m_primary>  (32) 
energy

$$$$
32:0
     RDKit          3D

 64 67  0  0  0  0  0  0  0  0999 V2000
   -9.2860   21.2480  -31.9040 C   0  0  0  0  0  0  0  0  0  0  0  0
   -8.9850   19.9160  -32.5870 C   0  0  0  0  0  0  0  0  0  0  0  0
   -7.4730   19.7000  -32.7300 C   0  0  0  0  0  0  0  0  0  0  0  0
   -6.6760   20.6530  -31.8200 C   0  0  0  0  0  0  0  0  0  0  0  0
   -5.2460   20.6810  -32.2080 N   0  0  0  0  0  0  0  0  0  0  0  0
   -4.7630   22.0770  -32.3540 C   0  0  0  0  0  0  0  0  0  0  0  0
   -5.9010   23.0860  -32.0930 C   0  0  0  0  0  0  0  0  0  0  0  0
   -6.0380   23.3460  -30.6390 N   0  0  0  0  0  0  0  0  0  0  0  0
   -6.5590   24.6960  -30.3320 C   0  0  0  0  0  0  0  0  0  0  0  0
   -5.4560   25.7740  -30.3460 C   0  0  0  0  0  0  0  0  0  0  0  0
   -4.2450   25.2740  -30.8740 O   0  0  0  0  0  0  0  0  0  0  0  0
   -3.7630   24.2310  -30.0470 C   0  0  0  0  0  0  0  0  0  0  0  0
   -4.7870   23.0800  -29.9020 C   0  0  0  0  0  0  0  0  0  0  0  0
   -5.0400   19.9470  -33.4790 C   0  0  0  0  0  0  0  0  0  0  0  0
   -3.9430   18.9210  -33.3870 C   0  0  0  0  0  0  0  0  0  0  0  0
   -4.2540   17.7070  -33.2670 O   0  0  0  0  0  0  0  0  0  0  0  0
   -2.5780   19.2620  -33.6460 N   0  0  0  0  0  0  0  0  0  0  0  0
   -1.7810   20.3680  -34.2120 C   0  0  1  0  0  0  0  0  0  0  0  0
   -1.7450   21.5420  -33.1960 C   0  0  0  0  0  0  0  0  0  0  0  0
   -0.8950   21.3090  -31.9110 C   0  0  1  0  0  0  0  0  0  0  0  0
   -1.2320   22.3160  -30.8070 C   0  0  0  0  0  0  0  0  0  0  0  0
   -1.0820   21.5460  -29.4970 C   0  0  0  0  0  0  0  0  0  0  0  0
   -1.2540   20.0740  -29.8560 C   0  0  0  0  0  0  0  0  0  0  0  0
   -1.0830   19.9940  -31.2980 N   0  0  0  0  0  0  0  0  0  0  0  0
   -0.9070   18.7360  -31.9860 C   0  0  0  0  0  0  0  0  0  0  0  0
   -0.5110   17.7180  -31.3610 O   0  0  0  0  0  0  0  0  0  0  0  0
   -1.2650   18.6240  -33.4440 C   0  0  2  0  0  0  0  0  0  0  0  0
   -0.4940   19.5940  -34.2900 C   0  0  0  0  0  0  0  0  0  0  0  0
   -9.2560   21.1154  -30.8124 H   0  0  0  0  0  0  0  0  0  0  0  0
   -8.5334   21.9921  -32.2038 H   0  0  0  0  0  0  0  0  0  0  0  0
  -10.2855   21.5962  -32.2038 H   0  0  0  0  0  0  0  0  0  0  0  0
   -9.4096   19.0991  -31.9849 H   0  0  0  0  0  0  0  0  0  0  0  0
   -9.4335   19.9283  -33.5914 H   0  0  0  0  0  0  0  0  0  0  0  0
   -7.2332   18.6618  -32.4569 H   0  0  0  0  0  0  0  0  0  0  0  0
   -7.1930   19.9062  -33.7736 H   0  0  0  0  0  0  0  0  0  0  0  0
   -7.0929   21.6672  -31.9073 H   0  0  0  0  0  0  0  0  0  0  0  0
   -6.7521   20.2946  -30.7828 H   0  0  0  0  0  0  0  0  0  0  0  0
   -3.9523   22.2545  -31.6321 H   0  0  0  0  0  0  0  0  0  0  0  0
   -4.4001   22.2165  -33.3830 H   0  0  0  0  0  0  0  0  0  0  0  0
   -5.6742   24.0299  -32.6102 H   0  0  0  0  0  0  0  0  0  0  0  0
   -6.8446   22.6653  -32.4708 H   0  0  0  0  0  0  0  0  0  0  0  0
   -7.3189   24.9595  -31.0824 H   0  0  0  0  0  0  0  0  0  0  0  0
   -6.9839   24.6668  -29.3178 H   0  0  0  0  0  0  0  0  0  0  0  0
   -5.7920   26.6201  -30.9635 H   0  0  0  0  0  0  0  0  0  0  0  0
   -5.2732   26.0918  -29.3089 H   0  0  0  0  0  0  0  0  0  0  0  0
   -2.8381   23.8291  -30.4864 H   0  0  0  0  0  0  0  0  0  0  0  0
   -3.5815   24.6498  -29.0462 H   0  0  0  0  0  0  0  0  0  0  0  0
   -4.3369   22.1551  -30.2917 H   0  0  0  0  0  0  0  0  0  0  0  0
   -5.0387   22.9863  -28.8353 H   0  0  0  0  0  0  0  0  0  0  0  0
   -5.9772   19.4369  -33.7465 H   0  0  0  0  0  0  0  0  0  0  0  0
   -4.7440   20.6817  -34.2423 H   0  0  0  0  0  0  0  0  0  0  0  0
   -2.1026   20.8499  -35.1471 H   0  0  0  0  0  0  0  0  0  0  0  0
   -1.3372   22.4226  -33.7139 H   0  0  0  0  0  0  0  0  0  0  0  0
   -2.7812   21.6638  -32.8475 H   0  0  0  0  0  0  0  0  0  0  0  0
    0.1376   21.4152  -32.2749 H   0  0  0  0  0  0  0  0  0  0  0  0
   -0.5348   23.1664  -30.8357 H   0  0  0  0  0  0  0  0  0  0  0  0
   -2.2445   22.7293  -30.9252 H   0  0  0  0  0  0  0  0  0  0  0  0
   -0.0866   21.7202  -29.0625 H   0  0  0  0  0  0  0  0  0  0  0  0
   -1.8231   21.8693  -28.7511 H   0  0  0  0  0  0  0  0  0  0  0  0
   -0.4938   19.4642  -29.3459 H   0  0  0  0  0  0  0  0  0  0  0  0
   -2.2379   19.6939  -29.5438 H   0  0  0  0  0  0  0  0  0  0  0  0
   -1.1365   17.5598  -33.6908 H   0  0  0  0  0  0  0  0  0  0  0  0
    0.3765   20.0629  -33.8080 H   0  0  0  0  0  0  0  0  0  0  0  0
    0.0200   19.3323  -35.2267 H   0  0  0  0  0  0  0  0  0  0  0  0
  1  2  1  0
  2  3  1  0
  3  4  1  0
  4  5  1  0
  5  6  1  0
  6  7  1  0
  7  8  1  0
  8  9  1  0
  9 10  1  0
 10 11  1  0
 11 12  1  0
 12 13  1  0
  5 14  1  0
 14 15  1  0
 15 16  2  0
 15 17  1  0
 17 18  1  0
 18 19  1  0
 19 20  1  0
 20 21  1  0
 21 22  1  0
 22 23  1  0
 23 24  1  0
 24 25  1  0
 25 26  2  0
 25 27  1  0
 27 28  1  0
 13  8  1  0
 27 17  1  0
 28 18  1  0
 24 20  1  0
  1 29  1  0
  1 30  1  0
  1 31  1  0
  2 32  1  0
  2 33  1  0
  3 34  1  0
  3 35  1  0
  4 36  1  0
  4 37  1  0
  6 38  1  0
  6 39  1  0
  7 40  1  0
  7 41  1  0
  9 42  1  0
  9 43  1  0
 10 44  1  0
 10 45  1  0
 12 46  1  0
 12 47  1  0
 13 48  1  0
 13 49  1  0
 14 50  1  0
 14 51  1  0
 18 52  1  6
 19 53  1  0
 19 54  1  0
 20 55  1  6
 21 56  1  0
 21 57  1  0
 22 58  1  0
 22 59  1  0
 23 60  1  0
 23 61  1  0
 27 62  1  6
 28 63  1  0
 28 64  1  0
M  END
>  <UniqueID>  (33) 
31

>  <SMILES>  (33) 
CCCCN(CCN1CCOCC1)CC(=O)N1C2C[C@@H]1C[C@H]1CCCN1C2=O

>  <Energy>  (33) 
131.4629146464624

>  <Genealogy>  (33) 
CCCCN(CCN1CCOCC1)CC(=O)N1C2C[C@@H]1C[C@H]1CCCN1C2=O (chirality)
CCCCN(CCN1CCOCC1)CC(=O)N1C2C[C@@H]1C[C@H]1CCCN1C2=O (3D coordinates assigned)
CCCCN(CCN1CCOCC1)CC(=O)N1C2C[C@@H]1C[C@H]1CCCN1C2=O (nonaromatic ring conformer: 131.4629146464624 kcal/mol)

>  <smiles>  (33) 
CCCCN(CCN1CCOCC1)CC(=O)N1C2CC3CCCN3C(=O)C1C2

>  <score_type>  (33) 
oracle

>  <origin>  (33) 
adg

>  <m_score__min__energy>  (33) 
-8.0899999999999999

>  <m_primary>  (33) 
energy

$$$$
33:0
     RDKit          3D

 48 50  0  0  0  0  0  0  0  0999 V2000
   -7.2450   23.2350  -31.3700 C   0  0  0  0  0  0  0  0  0  0  0  0
   -7.1570   22.3010  -32.4410 O   0  0  0  0  0  0  0  0  0  0  0  0
   -7.4760   20.9360  -32.3400 C   0  0  0  0  0  0  0  0  0  0  0  0
   -8.8080   20.5010  -32.1800 C   0  0  0  0  0  0  0  0  0  0  0  0
   -9.0970   19.1430  -32.0340 C   0  0  0  0  0  0  0  0  0  0  0  0
   -8.0670   18.2030  -32.0400 C   0  0  0  0  0  0  0  0  0  0  0  0
   -6.7450   18.6170  -32.2050 C   0  0  0  0  0  0  0  0  0  0  0  0
   -6.4360   19.9780  -32.3740 C   0  0  0  0  0  0  0  0  0  0  0  0
   -5.0200   20.3720  -32.5560 C   0  0  0  0  0  0  0  0  0  0  0  0
   -4.1930   19.7360  -33.4880 C   0  0  0  0  0  0  0  0  0  0  0  0
   -2.8640   20.1280  -33.5970 C   0  0  0  0  0  0  0  0  0  0  0  0
   -2.3770   21.1390  -32.7700 C   0  0  0  0  0  0  0  0  0  0  0  0
   -1.1690   21.4890  -32.8670 O   0  0  0  0  0  0  0  0  0  0  0  0
   -3.2130   21.7310  -31.8590 N   0  0  0  0  0  0  0  0  0  0  0  0
   -2.7460   22.7790  -30.9410 C   0  0  0  0  0  0  0  0  0  0  0  0
   -3.8520   23.8080  -30.6640 C   0  0  0  0  0  0  0  0  0  0  0  0
   -3.6400   24.5880  -29.3590 C   0  0  0  0  0  0  0  0  0  0  0  0
   -2.3250   25.2340  -29.3410 N   0  0  0  0  0  0  0  0  0  0  0  0
   -1.3590   24.6630  -28.0120 S   0  0  0  0  0  0  0  0  0  0  0  0
    0.0680   25.0840  -28.2220 O   0  0  0  0  0  0  0  0  0  0  0  0
   -1.8530   25.2610  -26.7240 O   0  0  0  0  0  0  0  0  0  0  0  0
   -1.4290   22.9040  -27.9390 C   0  0  0  0  0  0  0  0  0  0  0  0
   -0.3120   22.1500  -28.3240 C   0  0  0  0  0  0  0  0  0  0  0  0
   -0.3580   20.7520  -28.2820 C   0  0  0  0  0  0  0  0  0  0  0  0
   -1.5220   20.1030  -27.8570 C   0  0  0  0  0  0  0  0  0  0  0  0
   -1.5660   18.7480  -27.8180 F   0  0  0  0  0  0  0  0  0  0  0  0
   -2.6390   20.8510  -27.4750 C   0  0  0  0  0  0  0  0  0  0  0  0
   -2.5950   22.2480  -27.5160 C   0  0  0  0  0  0  0  0  0  0  0  0
   -4.4890   21.3420  -31.7640 N   0  0  0  0  0  0  0  0  0  0  0  0
   -7.1945   22.6988  -30.4108 H   0  0  0  0  0  0  0  0  0  0  0  0
   -6.4101   23.9481  -31.4359 H   0  0  0  0  0  0  0  0  0  0  0  0
   -8.1984   23.7796  -31.4359 H   0  0  0  0  0  0  0  0  0  0  0  0
   -9.6253   21.2372  -32.1702 H   0  0  0  0  0  0  0  0  0  0  0  0
  -10.1397   18.8137  -31.9139 H   0  0  0  0  0  0  0  0  0  0  0  0
   -8.2970   17.1346  -31.9146 H   0  0  0  0  0  0  0  0  0  0  0  0
   -5.9365   17.8712  -32.2028 H   0  0  0  0  0  0  0  0  0  0  0  0
   -4.5903   18.9342  -34.1278 H   0  0  0  0  0  0  0  0  0  0  0  0
   -2.2017   19.6443  -34.3301 H   0  0  0  0  0  0  0  0  0  0  0  0
   -2.4419   22.3147  -29.9913 H   0  0  0  0  0  0  0  0  0  0  0  0
   -1.8964   23.2982  -31.4085 H   0  0  0  0  0  0  0  0  0  0  0  0
   -3.8801   24.5241  -31.4985 H   0  0  0  0  0  0  0  0  0  0  0  0
   -4.7965   23.2532  -30.5632 H   0  0  0  0  0  0  0  0  0  0  0  0
   -4.4203   25.3581  -29.2694 H   0  0  0  0  0  0  0  0  0  0  0  0
   -3.6957   23.8830  -28.5164 H   0  0  0  0  0  0  0  0  0  0  0  0
    0.6036   22.6587  -28.6602 H   0  0  0  0  0  0  0  0  0  0  0  0
    0.5212   20.1635  -28.5832 H   0  0  0  0  0  0  0  0  0  0  0  0
   -3.5542   20.3400  -27.1416 H   0  0  0  0  0  0  0  0  0  0  0  0
   -3.4763   22.8339  -27.2160 H   0  0  0  0  0  0  0  0  0  0  0  0
  1  2  1  0
  2  3  1  0
  3  4  2  0
  4  5  1  0
  5  6  2  0
  6  7  1  0
  7  8  2  0
  8  9  1  0
  9 10  1  0
 10 11  2  0
 11 12  1  0
 12 13  2  0
 12 14  1  0
 14 15  1  0
 15 16  1  0
 16 17  1  0
 17 18  1  0
 18 19  1  0
 19 20  2  0
 19 21  2  0
 19 22  1  0
 22 23  2  0
 23 24  1  0
 24 25  2  0
 25 26  1  0
 25 27  1  0
 27 28  2  0
 14 29  1  0
  8  3  1  0
 29  9  2  0
 28 22  1  0
  1 30  1  0
  1 31  1  0
  1 32  1  0
  4 33  1  0
  5 34  1  0
  6 35  1  0
  7 36  1  0
 10 37  1  0
 11 38  1  0
 15 39  1  0
 15 40  1  0
 16 41  1  0
 16 42  1  0
 17 43  1  0
 17 44  1  0
 23 45  1  0
 24 46  1  0
 27 47  1  0
 28 48  1  0
M  CHG  1  18  -1
M  END
>  <UniqueID>  (34) 
32

>  <SMILES>  (34) 
COc1ccccc1-c1ccc(=O)n(CCC[N-]S(=O)(=O)c2ccc(F)cc2)n1

>  <Energy>  (34) 
53.67852907930695

>  <Genealogy>  (34) 
COc1ccccc1-c1ccc(=O)n(CCC[N-]S(=O)(=O)c2ccc(F)cc2)n1 (protonated)
COc1ccccc1-c1ccc(=O)n(CCC[N-]S(=O)(=O)c2ccc(F)cc2)n1 (3D coordinates assigned)
COc1ccccc1-c1ccc(=O)n(CCC[N-]S(=O)(=O)c2ccc(F)cc2)n1 (optimized conformer: 53.67852907930695 kcal/mol)

>  <smiles>  (34) 
COc1ccccc1-c1ccc(=O)n(CCCNS(=O)(=O)c2ccc(F)cc2)n1

>  <score_type>  (34) 
oracle

>  <origin>  (34) 
adg

>  <m_score__min__energy>  (34) 
-10.210000000000001

>  <m_primary>  (34) 
energy

$$$$
34:0
     RDKit          3D

 36 37  0  0  0  0  0  0  0  0999 V2000
   -6.5660   25.2370  -29.7340 C   0  0  0  0  0  0  0  0  0  0  0  0
   -5.4890   24.8260  -30.0870 C   0  0  0  0  0  0  0  0  0  0  0  0
   -4.1760   24.3250  -30.5160 C   0  0  0  0  0  0  0  0  0  0  0  0
   -4.1720   22.8460  -30.5480 N   0  0  0  0  0  0  0  0  0  0  0  0
   -4.2410   22.3060  -29.1760 C   0  0  0  0  0  0  0  0  0  0  0  0
   -2.9610   22.3530  -31.2450 C   0  0  0  0  0  0  0  0  0  0  0  0
   -3.3100   21.5420  -32.5050 C   0  0  0  0  0  0  0  0  0  0  0  0
   -4.6050   21.9530  -33.0730 N   0  0  0  0  0  0  0  0  0  0  0  0
   -5.5440   20.8530  -33.0270 C   0  0  0  0  0  0  0  0  0  0  0  0
   -5.1500   19.6010  -33.5320 C   0  0  0  0  0  0  0  0  0  0  0  0
   -6.0320   18.5230  -33.5050 C   0  0  0  0  0  0  0  0  0  0  0  0
   -7.2830   18.6760  -33.0020 N   0  0  0  0  0  0  0  0  0  0  0  0
   -7.7210   19.8660  -32.5180 C   0  0  0  0  0  0  0  0  0  0  0  0
   -9.0250   19.9670  -32.0200 C   0  0  0  0  0  0  0  0  0  0  0  0
   -9.4980   21.1860  -31.5320 C   0  0  0  0  0  0  0  0  0  0  0  0
   -8.6730   22.3110  -31.5410 C   0  0  0  0  0  0  0  0  0  0  0  0
   -7.3670   22.2250  -32.0330 C   0  0  0  0  0  0  0  0  0  0  0  0
   -6.8650   21.0000  -32.5230 C   0  0  0  0  0  0  0  0  0  0  0  0
   -7.5487   25.6120  -29.4119 H   0  0  0  0  0  0  0  0  0  0  0  0
   -3.9527   24.7096  -31.5221 H   0  0  0  0  0  0  0  0  0  0  0  0
   -3.4132   24.6678  -29.8015 H   0  0  0  0  0  0  0  0  0  0  0  0
   -4.1360   23.1281  -28.4527 H   0  0  0  0  0  0  0  0  0  0  0  0
   -5.2101   21.8076  -29.0264 H   0  0  0  0  0  0  0  0  0  0  0  0
   -3.4283   21.5799  -29.0264 H   0  0  0  0  0  0  0  0  0  0  0  0
   -2.3440   23.2154  -31.5376 H   0  0  0  0  0  0  0  0  0  0  0  0
   -2.4181   21.6906  -30.5547 H   0  0  0  0  0  0  0  0  0  0  0  0
   -2.5241   21.6977  -33.2587 H   0  0  0  0  0  0  0  0  0  0  0  0
   -3.3793   20.4810  -32.2229 H   0  0  0  0  0  0  0  0  0  0  0  0
   -4.9820   22.7550  -32.5170 H   0  0  0  0  0  0  0  0  0  0  0  0
   -4.4940   22.3010  -34.0510 H   0  0  0  0  0  0  0  0  0  0  0  0
   -4.1408   19.4723  -33.9502 H   0  0  0  0  0  0  0  0  0  0  0  0
   -5.7132   17.5442  -33.8928 H   0  0  0  0  0  0  0  0  0  0  0  0
   -9.6793   19.0827  -32.0132 H   0  0  0  0  0  0  0  0  0  0  0  0
  -10.5230   21.2599  -31.1396 H   0  0  0  0  0  0  0  0  0  0  0  0
   -9.0518   23.2705  -31.1591 H   0  0  0  0  0  0  0  0  0  0  0  0
   -6.7258   23.1188  -32.0383 H   0  0  0  0  0  0  0  0  0  0  0  0
  1  2  3  0
  2  3  1  0
  3  4  1  0
  4  5  1  0
  4  6  1  0
  6  7  1  0
  7  8  1  0
  8  9  1  0
  9 10  2  0
 10 11  1  0
 11 12  2  0
 12 13  1  0
 13 14  2  0
 14 15  1  0
 15 16  2  0
 16 17  1  0
 17 18  2  0
 18  9  1  0
 18 13  1  0
  1 19  1  0
  3 20  1  0
  3 21  1  0
  5 22  1  0
  5 23  1  0
  5 24  1  0
  6 25  1  0
  6 26  1  0
  7 27  1  0
  7 28  1  0
  8 29  1  0
  8 30  1  0
 10 31  1  0
 11 32  1  0
 14 33  1  0
 15 34  1  0
 16 35  1  0
 17 36  1  0
M  CHG  1   8   1
M  END
>  <UniqueID>  (35) 
33

>  <SMILES>  (35) 
C#CCN(C)CC[NH2+]c1ccnc2ccccc12

>  <Energy>  (35) 
41.0452917607646

>  <Genealogy>  (35) 
C#CCN(C)CC[NH2+]c1ccnc2ccccc12 (protonated)
C#CCN(C)CC[NH2+]c1ccnc2ccccc12 (3D coordinates assigned)
C#CCN(C)CC[NH2+]c1ccnc2ccccc12 (optimized conformer: 41.0452917607646 kcal/mol)

>  <smiles>  (35) 
C#CCN(C)CCNc1ccnc2ccccc12

>  <score_type>  (35) 
oracle

>  <origin>  (35) 
adg

>  <m_score__min__energy>  (35) 
-5.8700000000000001

>  <m_primary>  (35) 
energy

$$$$
35:0
     RDKit          3D

 36 37  0  0  0  0  0  0  0  0999 V2000
   -9.0920   18.5940  -31.2250 C   0  0  0  0  0  0  0  0  0  0  0  0
   -9.1120   18.9400  -32.7140 C   0  0  0  0  0  0  0  0  0  0  0  0
   -8.6290   20.3220  -32.9600 N   0  0  0  0  0  0  0  0  0  0  0  0
   -9.3450   21.3100  -32.1150 C   0  0  0  0  0  0  0  0  0  0  0  0
   -8.3700   22.1240  -31.3830 C   0  0  0  0  0  0  0  0  0  0  0  0
   -7.5760   22.7950  -30.7740 C   0  0  0  0  0  0  0  0  0  0  0  0
   -6.6320   23.5900  -30.0420 C   0  0  0  0  0  0  0  0  0  0  0  0
   -6.7500   24.9270  -29.7170 C   0  0  0  0  0  0  0  0  0  0  0  0
   -5.6390   25.2950  -29.0520 N   0  0  0  0  0  0  0  0  0  0  0  0
   -4.8420   24.2440  -28.9390 N   0  0  0  0  0  0  0  0  0  0  0  0
   -3.5100   24.2810  -28.3480 C   0  0  0  0  0  0  0  0  0  0  0  0
   -5.4100   23.1840  -29.5460 C   0  0  0  0  0  0  0  0  0  0  0  0
   -7.1680   20.4050  -32.7440 C   0  0  0  0  0  0  0  0  0  0  0  0
   -6.4840   19.1750  -33.2620 C   0  0  0  0  0  0  0  0  0  0  0  0
   -6.0830   18.9600  -34.5740 C   0  0  0  0  0  0  0  0  0  0  0  0
   -5.4640   17.7200  -34.7620 C   0  0  0  0  0  0  0  0  0  0  0  0
   -5.3720   16.9600  -33.6030 C   0  0  0  0  0  0  0  0  0  0  0  0
   -6.0620   17.8330  -32.3420 S   0  0  0  0  0  0  0  0  0  0  0  0
   -9.1455   19.5194  -30.6328 H   0  0  0  0  0  0  0  0  0  0  0  0
   -9.9547   17.9550  -30.9854 H   0  0  0  0  0  0  0  0  0  0  0  0
   -8.1614   18.0586  -30.9854 H   0  0  0  0  0  0  0  0  0  0  0  0
   -8.4636   18.2338  -33.2534 H   0  0  0  0  0  0  0  0  0  0  0  0
  -10.1505   18.8699  -33.0698 H   0  0  0  0  0  0  0  0  0  0  0  0
   -9.9605   21.9609  -32.7534 H   0  0  0  0  0  0  0  0  0  0  0  0
   -9.9917   20.7807  -31.3997 H   0  0  0  0  0  0  0  0  0  0  0  0
   -7.6031   25.5778  -29.9593 H   0  0  0  0  0  0  0  0  0  0  0  0
   -5.4260   26.2530  -28.6920 H   0  0  0  0  0  0  0  0  0  0  0  0
   -3.5953   24.2786  -27.2513 H   0  0  0  0  0  0  0  0  0  0  0  0
   -2.9399   23.3983  -28.6734 H   0  0  0  0  0  0  0  0  0  0  0  0
   -2.9897   25.1939  -28.6734 H   0  0  0  0  0  0  0  0  0  0  0  0
   -4.9775   22.1762  -29.6310 H   0  0  0  0  0  0  0  0  0  0  0  0
   -6.7746   21.2862  -33.2719 H   0  0  0  0  0  0  0  0  0  0  0  0
   -6.9747   20.4886  -31.6644 H   0  0  0  0  0  0  0  0  0  0  0  0
   -6.2364   19.6900  -35.3824 H   0  0  0  0  0  0  0  0  0  0  0  0
   -5.0854   17.3785  -35.7367 H   0  0  0  0  0  0  0  0  0  0  0  0
   -4.9244   15.9584  -33.5235 H   0  0  0  0  0  0  0  0  0  0  0  0
  1  2  1  0
  2  3  1  0
  3  4  1  0
  4  5  1  0
  5  6  3  0
  6  7  1  0
  7  8  1  0
  8  9  2  0
  9 10  1  0
 10 11  1  0
 10 12  1  0
  3 13  1  0
 13 14  1  0
 14 15  2  0
 15 16  1  0
 16 17  2  0
 17 18  1  0
 12  7  2  0
 18 14  1  0
  1 19  1  0
  1 20  1  0
  1 21  1  0
  2 22  1  0
  2 23  1  0
  4 24  1  0
  4 25  1  0
  8 26  1  0
  9 27  1  0
 11 28  1  0
 11 29  1  0
 11 30  1  0
 12 31  1  0
 13 32  1  0
 13 33  1  0
 15 34  1  0
 16 35  1  0
 17 36  1  0
M  CHG  1   9   1
M  END
>  <UniqueID>  (36) 
34

>  <SMILES>  (36) 
CCN(CC#Cc1c[nH+]n(C)c1)Cc1cccs1

>  <Energy>  (36) 
87.79159221575922

>  <Genealogy>  (36) 
CCN(CC#Cc1c[nH+]n(C)c1)Cc1cccs1 (protonated)
CCN(CC#Cc1c[nH+]n(C)c1)Cc1cccs1 (3D coordinates assigned)
CCN(CC#Cc1c[nH+]n(C)c1)Cc1cccs1 (optimized conformer: 87.79159221575922 kcal/mol)

>  <smiles>  (36) 
CCN(CC#Cc1cnn(C)c1)Cc1cccs1

>  <score_type>  (36) 
oracle

>  <origin>  (36) 
adg

>  <m_score__min__energy>  (36) 
-6.0999999999999996

>  <m_primary>  (36) 
energy

$$$$
36:0
     RDKit          3D

 49 50  0  0  0  0  0  0  0  0999 V2000
   -8.9630   21.7710  -31.5370 C   0  0  0  0  0  0  0  0  0  0  0  0
   -8.1740   23.0100  -31.9620 C   0  0  0  0  0  0  0  0  0  0  0  0
   -7.1550   23.4590  -30.8910 C   0  0  0  0  0  0  0  0  0  0  0  0
   -5.9450   24.2210  -31.4610 C   0  0  0  0  0  0  0  0  0  0  0  0
   -5.3650   25.2640  -30.4990 C   0  0  0  0  0  0  0  0  0  0  0  0
   -3.9120   25.2980  -30.6050 N   0  0  0  0  0  0  0  0  0  0  0  0
   -3.0060   24.5600  -29.7760 C   0  0  0  0  0  0  0  0  0  0  0  0
   -2.3520   25.1780  -28.8940 O   0  0  0  0  0  0  0  0  0  0  0  0
   -2.8030   23.0730  -29.9290 C   0  0  0  0  0  0  0  0  0  0  0  0
   -1.3790   22.7400  -30.4600 C   0  0  1  0  0  0  0  0  0  0  0  0
   -0.4210   22.6560  -29.3160 C   0  0  0  0  0  0  0  0  0  0  0  0
    0.2210   23.6700  -28.9330 O   0  0  0  0  0  0  0  0  0  0  0  0
   -0.2510   21.4000  -28.6560 N   0  0  0  0  0  0  0  0  0  0  0  0
   -1.0900   20.2380  -28.9610 C   0  0  0  0  0  0  0  0  0  0  0  0
   -1.7800   20.3070  -30.3490 C   0  0  0  0  0  0  0  0  0  0  0  0
   -1.2960   21.4410  -31.1630 N   0  0  0  0  0  0  0  0  0  0  0  0
   -1.8570   21.4520  -32.5310 C   0  0  0  0  0  0  0  0  0  0  0  0
   -3.1880   20.7470  -32.5420 C   0  0  0  0  0  0  0  0  0  0  0  0
   -4.3550   21.3950  -32.1030 C   0  0  0  0  0  0  0  0  0  0  0  0
   -5.5880   20.7340  -32.1470 C   0  0  0  0  0  0  0  0  0  0  0  0
   -5.6700   19.4260  -32.6340 C   0  0  0  0  0  0  0  0  0  0  0  0
   -6.8650   18.7880  -32.6730 F   0  0  0  0  0  0  0  0  0  0  0  0
   -4.5130   18.7710  -33.0660 C   0  0  0  0  0  0  0  0  0  0  0  0
   -3.2750   19.4250  -33.0160 C   0  0  0  0  0  0  0  0  0  0  0  0
   -8.9974   21.7170  -30.4389 H   0  0  0  0  0  0  0  0  0  0  0  0
   -9.9872   21.8348  -31.9332 H   0  0  0  0  0  0  0  0  0  0  0  0
   -8.4720   20.8699  -31.9332 H   0  0  0  0  0  0  0  0  0  0  0  0
   -7.6314   22.7811  -32.8911 H   0  0  0  0  0  0  0  0  0  0  0  0
   -8.8923   23.8308  -32.1047 H   0  0  0  0  0  0  0  0  0  0  0  0
   -7.6716   24.1153  -30.1752 H   0  0  0  0  0  0  0  0  0  0  0  0
   -6.7636   22.5452  -30.4201 H   0  0  0  0  0  0  0  0  0  0  0  0
   -5.1565   23.4921  -31.6995 H   0  0  0  0  0  0  0  0  0  0  0  0
   -6.2970   24.7644  -32.3503 H   0  0  0  0  0  0  0  0  0  0  0  0
   -5.7704   26.2550  -30.7510 H   0  0  0  0  0  0  0  0  0  0  0  0
   -5.6421   24.9939  -29.4693 H   0  0  0  0  0  0  0  0  0  0  0  0
   -2.9402   22.5915  -28.9495 H   0  0  0  0  0  0  0  0  0  0  0  0
   -3.5375   22.6991  -30.6574 H   0  0  0  0  0  0  0  0  0  0  0  0
   -1.1348   23.5464  -31.1671 H   0  0  0  0  0  0  0  0  0  0  0  0
    0.3900   21.3490  -27.8310 H   0  0  0  0  0  0  0  0  0  0  0  0
   -0.4583   19.3379  -28.9327 H   0  0  0  0  0  0  0  0  0  0  0  0
   -1.8909   20.2161  -28.2073 H   0  0  0  0  0  0  0  0  0  0  0  0
   -1.5776   19.3714  -30.8910 H   0  0  0  0  0  0  0  0  0  0  0  0
   -2.8576   20.4506  -30.1810 H   0  0  0  0  0  0  0  0  0  0  0  0
   -1.9920   22.4923  -32.8620 H   0  0  0  0  0  0  0  0  0  0  0  0
   -1.1655   20.9334  -33.2114 H   0  0  0  0  0  0  0  0  0  0  0  0
   -4.2993   22.4259  -31.7232 H   0  0  0  0  0  0  0  0  0  0  0  0
   -6.4965   21.2459  -31.7969 H   0  0  0  0  0  0  0  0  0  0  0  0
   -4.5747   17.7405  -33.4458 H   0  0  0  0  0  0  0  0  0  0  0  0
   -2.3662   18.9023  -33.3490 H   0  0  0  0  0  0  0  0  0  0  0  0
  1  2  1  0
  2  3  1  0
  3  4  1  0
  4  5  1  0
  5  6  1  0
  6  7  1  0
  7  8  2  0
  7  9  1  0
  9 10  1  0
 10 11  1  0
 11 12  2  0
 11 13  1  0
 13 14  1  0
 14 15  1  0
 15 16  1  0
 16 17  1  0
 17 18  1  0
 18 19  2  0
 19 20  1  0
 20 21  2  0
 21 22  1  0
 21 23  1  0
 23 24  2  0
 16 10  1  0
 24 18  1  0
  1 25  1  0
  1 26  1  0
  1 27  1  0
  2 28  1  0
  2 29  1  0
  3 30  1  0
  3 31  1  0
  4 32  1  0
  4 33  1  0
  5 34  1  0
  5 35  1  0
  9 36  1  0
  9 37  1  0
 10 38  1  6
 13 39  1  0
 14 40  1  0
 14 41  1  0
 15 42  1  0
 15 43  1  0
 17 44  1  0
 17 45  1  0
 19 46  1  0
 20 47  1  0
 23 48  1  0
 24 49  1  0
M  CHG  1   6  -1
M  END
>  <UniqueID>  (37) 
35

>  <SMILES>  (37) 
CCCCC[N-]C(=O)C[C@H]1C(=O)NCCN1Cc1ccc(F)cc1

>  <Energy>  (37) 
47.377208266278416

>  <Genealogy>  (37) 
CCCCC[N-]C(=O)CC1C(=O)NCCN1Cc1ccc(F)cc1 (protonated)
CCCCC[N-]C(=O)C[C@H]1C(=O)NCCN1Cc1ccc(F)cc1 (chirality)
CCCCC[N-]C(=O)C[C@H]1C(=O)NCCN1Cc1ccc(F)cc1 (3D coordinates assigned)
CCCCC[N-]C(=O)C[C@H]1C(=O)NCCN1Cc1ccc(F)cc1 (nonaromatic ring conformer: 47.377208266278416 kcal/mol)

>  <smiles>  (37) 
CCCCCNC(=O)CC1C(=O)NCCN1Cc1ccc(F)cc1

>  <score_type>  (37) 
oracle

>  <origin>  (37) 
adg

>  <m_score__min__energy>  (37) 
-8.9900000000000002

>  <m_primary>  (37) 
energy

$$$$
37:0
     RDKit          3D

 84 87  0  0  0  0  0  0  0  0999 V2000
   -6.4660   25.6710  -29.5130 C   0  0  0  0  0  0  0  0  0  0  0  0
   -5.4310   25.5900  -30.6360 C   0  0  0  0  0  0  0  0  0  0  0  0
   -5.1430   24.2110  -31.0920 N   0  0  0  0  0  0  0  0  0  0  0  0
   -5.9620   23.7510  -32.2390 C   0  0  0  0  0  0  0  0  0  0  0  0
   -7.2820   23.0520  -31.8680 C   0  0  0  0  0  0  0  0  0  0  0  0
   -4.8990   23.2480  -29.9900 C   0  0  0  0  0  0  0  0  0  0  0  0
   -3.7150   23.6860  -29.1030 C   0  0  0  0  0  0  0  0  0  0  0  0
   -2.5590   22.7720  -29.1840 N   0  0  0  0  0  0  0  0  0  0  0  0
   -2.9270   21.3850  -29.5050 C   0  0  0  0  0  0  0  0  0  0  0  0
   -2.5570   20.4150  -28.3970 C   0  0  0  0  0  0  0  0  0  0  0  0
   -3.4630   20.2170  -27.3340 C   0  0  0  0  0  0  0  0  0  0  0  0
   -3.1910   19.2940  -26.3230 C   0  0  0  0  0  0  0  0  0  0  0  0
   -2.0210   18.5400  -26.3650 C   0  0  0  0  0  0  0  0  0  0  0  0
   -1.1250   18.6970  -27.4230 C   0  0  0  0  0  0  0  0  0  0  0  0
   -1.3840   19.6170  -28.4550 C   0  0  0  0  0  0  0  0  0  0  0  0
   -0.4760   19.6920  -29.5710 N   0  0  0  0  0  0  0  0  0  0  0  0
   -0.1470   20.9950  -30.1590 C   0  0  0  0  0  0  0  0  0  0  0  0
    0.0120   20.8710  -31.6890 C   0  0  0  0  0  0  0  0  0  0  0  0
    0.6820   19.6120  -32.0720 N   0  0  0  0  0  0  0  0  0  0  0  0
    0.3740   18.9250  -33.3120 C   0  0  0  0  0  0  0  0  0  0  0  0
    0.1700   17.6820  -33.2730 O   0  0  0  0  0  0  0  0  0  0  0  0
    0.3870   19.5740  -34.6940 C   0  0  2  0  0  0  0  0  0  0  0  0
    1.5720   20.4820  -34.9940 C   0  0  0  0  0  0  0  0  0  0  0  0
    1.1570   21.8450  -34.6290 N   0  0  0  0  0  0  0  0  0  0  0  0
    1.9560   22.8990  -35.3090 C   0  0  0  0  0  0  0  0  0  0  0  0
    3.0150   22.2720  -36.2380 C   0  0  0  0  0  0  0  0  0  0  0  0
    1.0390   23.8090  -36.1440 C   0  0  0  0  0  0  0  0  0  0  0  0
   -0.2800   21.9130  -34.9530 C   0  0  0  0  0  0  0  0  0  0  0  0
   -0.8190   20.4760  -35.0110 C   0  0  2  0  0  0  0  0  0  0  0  0
   -2.0880   20.2390  -34.1980 C   0  0  0  0  0  0  0  0  0  0  0  0
   -2.7330   18.9860  -34.1680 C   0  0  0  0  0  0  0  0  0  0  0  0
   -3.8920   18.8020  -33.4090 C   0  0  0  0  0  0  0  0  0  0  0  0
   -4.4330   19.8640  -32.6840 C   0  0  0  0  0  0  0  0  0  0  0  0
   -5.8860   19.6260  -31.7310 Cl  0  0  0  0  0  0  0  0  0  0  0  0
   -3.8140   21.1160  -32.7170 C   0  0  0  0  0  0  0  0  0  0  0  0
   -2.6550   21.3050  -33.4740 C   0  0  0  0  0  0  0  0  0  0  0  0
    1.3480   18.8460  -31.0090 C   0  0  0  0  0  0  0  0  0  0  0  0
    0.3250   18.5080  -29.9240 C   0  0  0  0  0  0  0  0  0  0  0  0
   -5.9549   25.6310  -28.5398 H   0  0  0  0  0  0  0  0  0  0  0  0
   -7.0237   26.6155  -29.5958 H   0  0  0  0  0  0  0  0  0  0  0  0
   -7.1638   24.8247  -29.5958 H   0  0  0  0  0  0  0  0  0  0  0  0
   -5.8061   26.1668  -31.4943 H   0  0  0  0  0  0  0  0  0  0  0  0
   -4.4911   25.9942  -30.2320 H   0  0  0  0  0  0  0  0  0  0  0  0
   -6.2043   24.6283  -32.8568 H   0  0  0  0  0  0  0  0  0  0  0  0
   -5.3556   22.9967  -32.7619 H   0  0  0  0  0  0  0  0  0  0  0  0
   -7.3755   23.0025  -30.7731 H   0  0  0  0  0  0  0  0  0  0  0  0
   -8.1273   23.6207  -32.2829 H   0  0  0  0  0  0  0  0  0  0  0  0
   -7.2866   22.0332  -32.2829 H   0  0  0  0  0  0  0  0  0  0  0  0
   -5.8042   23.1800  -29.3687 H   0  0  0  0  0  0  0  0  0  0  0  0
   -4.6527   22.2724  -30.4346 H   0  0  0  0  0  0  0  0  0  0  0  0
   -3.3915   24.6880  -29.4214 H   0  0  0  0  0  0  0  0  0  0  0  0
   -4.0664   23.6772  -28.0607 H   0  0  0  0  0  0  0  0  0  0  0  0
   -2.0330   22.7830  -28.2800 H   0  0  0  0  0  0  0  0  0  0  0  0
   -4.0138   21.3369  -29.6679 H   0  0  0  0  0  0  0  0  0  0  0  0
   -2.3700   21.0911  -30.4069 H   0  0  0  0  0  0  0  0  0  0  0  0
   -4.3965   20.7979  -27.3015 H   0  0  0  0  0  0  0  0  0  0  0  0
   -3.9008   19.1622  -25.4931 H   0  0  0  0  0  0  0  0  0  0  0  0
   -1.8028   17.8196  -25.5629 H   0  0  0  0  0  0  0  0  0  0  0  0
   -0.2053   18.0942  -27.4504 H   0  0  0  0  0  0  0  0  0  0  0  0
   -0.9544   21.7077  -29.9352 H   0  0  0  0  0  0  0  0  0  0  0  0
    0.8013   21.3506  -29.7297 H   0  0  0  0  0  0  0  0  0  0  0  0
   -0.9846   20.8993  -32.1537 H   0  0  0  0  0  0  0  0  0  0  0  0
    0.6350   21.7084  -32.0363 H   0  0  0  0  0  0  0  0  0  0  0  0
    0.4039   18.6573  -35.3018 H   0  0  0  0  0  0  0  0  0  0  0  0
    2.4445   20.1778  -34.3971 H   0  0  0  0  0  0  0  0  0  0  0  0
    1.8589   20.4242  -36.0544 H   0  0  0  0  0  0  0  0  0  0  0  0
    2.4608   23.4910  -34.5313 H   0  0  0  0  0  0  0  0  0  0  0  0
    3.8045   21.8046  -35.6312 H   0  0  0  0  0  0  0  0  0  0  0  0
    2.5404   21.5092  -36.8728 H   0  0  0  0  0  0  0  0  0  0  0  0
    3.4556   23.0549  -36.8728 H   0  0  0  0  0  0  0  0  0  0  0  0
    0.4208   24.4225  -35.4720 H   0  0  0  0  0  0  0  0  0  0  0  0
    1.6529   24.4652  -36.7785 H   0  0  0  0  0  0  0  0  0  0  0  0
    0.3876   23.1901  -36.7785 H   0  0  0  0  0  0  0  0  0  0  0  0
   -0.8121   22.4807  -34.1754 H   0  0  0  0  0  0  0  0  0  0  0  0
   -0.4318   22.4186  -35.9181 H   0  0  0  0  0  0  0  0  0  0  0  0
   -1.2081   20.2264  -36.0091 H   0  0  0  0  0  0  0  0  0  0  0  0
   -2.3208   18.1462  -34.7467 H   0  0  0  0  0  0  0  0  0  0  0  0
   -4.3794   17.8162  -33.3832 H   0  0  0  0  0  0  0  0  0  0  0  0
   -4.2398   21.9543  -32.1461 H   0  0  0  0  0  0  0  0  0  0  0  0
   -2.1806   22.2970  -33.5046 H   0  0  0  0  0  0  0  0  0  0  0  0
    1.7621   17.9170  -31.4278 H   0  0  0  0  0  0  0  0  0  0  0  0
    2.1650   19.4425  -30.5769 H   0  0  0  0  0  0  0  0  0  0  0  0
   -0.3444   17.7173  -30.2937 H   0  0  0  0  0  0  0  0  0  0  0  0
    0.8630   18.1671  -29.0272 H   0  0  0  0  0  0  0  0  0  0  0  0
  1  2  1  0
  2  3  1  0
  3  4  1  0
  4  5  1  0
  3  6  1  0
  6  7  1  0
  7  8  1  0
  8  9  1  0
  9 10  1  0
 10 11  2  0
 11 12  1  0
 12 13  2  0
 13 14  1  0
 14 15  2  0
 15 16  1  0
 16 17  1  0
 17 18  1  0
 18 19  1  0
 19 20  1  0
 20 21  2  0
 20 22  1  0
 22 23  1  0
 23 24  1  0
 24 25  1  0
 25 26  1  0
 25 27  1  0
 24 28  1  0
 28 29  1  0
 29 30  1  0
 30 31  2  0
 31 32  1  0
 32 33  2  0
 33 34  1  0
 33 35  1  0
 35 36  2  0
 19 37  1  0
 37 38  1  0
 15 10  1  0
 38 16  1  0
 29 22  1  0
 36 30  1  0
  1 39  1  0
  1 40  1  0
  1 41  1  0
  2 42  1  0
  2 43  1  0
  4 44  1  0
  4 45  1  0
  5 46  1  0
  5 47  1  0
  5 48  1  0
  6 49  1  0
  6 50  1  0
  7 51  1  0
  7 52  1  0
  8 53  1  0
  9 54  1  0
  9 55  1  0
 11 56  1  0
 12 57  1  0
 13 58  1  0
 14 59  1  0
 17 60  1  0
 17 61  1  0
 18 62  1  0
 18 63  1  0
 22 64  1  6
 23 65  1  0
 23 66  1  0
 25 67  1  0
 26 68  1  0
 26 69  1  0
 26 70  1  0
 27 71  1  0
 27 72  1  0
 27 73  1  0
 28 74  1  0
 28 75  1  0
 29 76  1  6
 31 77  1  0
 32 78  1  0
 35 79  1  0
 36 80  1  0
 37 81  1  0
 37 82  1  0
 38 83  1  0
 38 84  1  0
M  END
>  <UniqueID>  (38) 
36

>  <SMILES>  (38) 
CCN(CC)CCNCc1ccccc1N1CCN(C(=O)[C@@H]2CN(C(C)C)C[C@@H]2c2ccc(Cl)cc2)CC1

>  <Energy>  (38) 
114.08049696770692

>  <Genealogy>  (38) 
CCN(CC)CCNCc1ccccc1N1CCN(C(=O)[C@@H]2CN(C(C)C)C[C@@H]2c2ccc(Cl)cc2)CC1 (chirality)
CCN(CC)CCNCc1ccccc1N1CCN(C(=O)[C@@H]2CN(C(C)C)C[C@@H]2c2ccc(Cl)cc2)CC1 (3D coordinates assigned)
CCN(CC)CCNCc1ccccc1N1CCN(C(=O)[C@@H]2CN(C(C)C)C[C@@H]2c2ccc(Cl)cc2)CC1 (nonaromatic ring conformer: 114.08049696770692 kcal/mol)

>  <smiles>  (38) 
CCN(CC)CCNCc1ccccc1N1CCN(C(=O)C2CN(C(C)C)CC2c2ccc(Cl)cc2)CC1

>  <score_type>  (38) 
oracle

>  <origin>  (38) 
adg

>  <m_score__min__energy>  (38) 
-9.5099999999999998

>  <m_primary>  (38) 
energy

$$$$
38:0
     RDKit          3D

 47 49  0  0  0  0  0  0  0  0999 V2000
   -1.5850   25.9810  -26.4850 C   0  0  0  0  0  0  0  0  0  0  0  0
   -0.9670   26.4920  -27.7900 C   0  0  0  0  0  0  0  0  0  0  0  0
   -1.1900   25.5730  -28.9200 N   0  0  0  0  0  0  0  0  0  0  0  0
   -2.0560   24.4440  -28.5550 C   0  0  0  0  0  0  0  0  0  0  0  0
   -2.9180   24.0780  -29.7200 C   0  0  0  0  0  0  0  0  0  0  0  0
   -2.9770   22.8530  -30.3460 C   0  0  0  0  0  0  0  0  0  0  0  0
   -3.9410   22.9580  -31.2770 N   0  0  0  0  0  0  0  0  0  0  0  0
   -4.4480   21.8760  -32.1250 C   0  0  0  0  0  0  0  0  0  0  0  0
   -4.0370   20.5190  -31.5180 C   0  0  0  0  0  0  0  0  0  0  0  0
   -4.8190   19.3580  -32.1440 C   0  0  0  0  0  0  0  0  0  0  0  0
   -6.2700   19.5900  -32.0850 N   0  0  0  0  0  0  0  0  0  0  0  0
   -7.2000   18.5200  -32.3620 C   0  0  0  0  0  0  0  0  0  0  0  0
   -8.3040   18.4850  -31.7520 O   0  0  0  0  0  0  0  0  0  0  0  0
   -6.9310   17.4750  -33.4190 C   0  0  1  0  0  0  0  0  0  0  0  0
   -6.1150   18.0420  -34.5780 C   0  0  0  0  0  0  0  0  0  0  0  0
   -5.0890   16.9780  -34.8590 C   0  0  0  0  0  0  0  0  0  0  0  0
   -5.4430   15.8550  -33.9030 C   0  0  0  0  0  0  0  0  0  0  0  0
   -6.2450   16.3740  -32.8720 O   0  0  0  0  0  0  0  0  0  0  0  0
   -6.7830   20.9010  -31.6620 C   0  0  0  0  0  0  0  0  0  0  0  0
   -5.9800   22.0120  -32.3480 C   0  0  0  0  0  0  0  0  0  0  0  0
   -4.4740   24.1690  -31.1920 N   0  0  0  0  0  0  0  0  0  0  0  0
   -3.8640   24.8760  -30.2510 N   0  0  0  0  0  0  0  0  0  0  0  0
   -1.0520   26.4217  -25.6296 H   0  0  0  0  0  0  0  0  0  0  0  0
   -2.6458   26.2693  -26.4441 H   0  0  0  0  0  0  0  0  0  0  0  0
   -1.5011   24.8850  -26.4441 H   0  0  0  0  0  0  0  0  0  0  0  0
   -1.4153   27.4663  -28.0344 H   0  0  0  0  0  0  0  0  0  0  0  0
    0.1191   26.5728  -27.6353 H   0  0  0  0  0  0  0  0  0  0  0  0
   -1.6190   26.0970  -29.7200 H   0  0  0  0  0  0  0  0  0  0  0  0
   -1.4342   23.5812  -28.2740 H   0  0  0  0  0  0  0  0  0  0  0  0
   -2.6923   24.7309  -27.7048 H   0  0  0  0  0  0  0  0  0  0  0  0
   -2.3606   21.9683  -30.1285 H   0  0  0  0  0  0  0  0  0  0  0  0
   -3.9971   21.9411  -33.1262 H   0  0  0  0  0  0  0  0  0  0  0  0
   -2.9626   20.3608  -31.6932 H   0  0  0  0  0  0  0  0  0  0  0  0
   -4.2613   20.5427  -30.4414 H   0  0  0  0  0  0  0  0  0  0  0  0
   -4.5170   19.2502  -33.1962 H   0  0  0  0  0  0  0  0  0  0  0  0
   -4.5928   18.4440  -31.5753 H   0  0  0  0  0  0  0  0  0  0  0  0
   -7.9097   17.1488  -33.8008 H   0  0  0  0  0  0  0  0  0  0  0  0
   -6.7525   18.2120  -35.4582 H   0  0  0  0  0  0  0  0  0  0  0  0
   -5.6602   19.0145  -34.3383 H   0  0  0  0  0  0  0  0  0  0  0  0
   -5.1567   16.6372  -35.9027 H   0  0  0  0  0  0  0  0  0  0  0  0
   -4.0594   17.3395  -34.7202 H   0  0  0  0  0  0  0  0  0  0  0  0
   -5.9952   15.0710  -34.4419 H   0  0  0  0  0  0  0  0  0  0  0  0
   -4.5251   15.4208  -33.4800 H   0  0  0  0  0  0  0  0  0  0  0  0
   -7.8428   20.9878  -31.9435 H   0  0  0  0  0  0  0  0  0  0  0  0
   -6.6832   20.9980  -30.5708 H   0  0  0  0  0  0  0  0  0  0  0  0
   -6.1821   21.9752  -33.4286 H   0  0  0  0  0  0  0  0  0  0  0  0
   -6.2946   22.9686  -31.9053 H   0  0  0  0  0  0  0  0  0  0  0  0
  1  2  1  0
  2  3  1  0
  3  4  1  0
  4  5  1  0
  5  6  2  0
  6  7  1  0
  7  8  1  0
  8  9  1  0
  9 10  1  0
 10 11  1  0
 11 12  1  0
 12 13  2  0
 12 14  1  0
 14 15  1  0
 15 16  1  0
 16 17  1  0
 17 18  1  0
 11 19  1  0
 19 20  1  0
  7 21  1  0
 21 22  2  0
 22  5  1  0
 20  8  1  0
 18 14  1  0
  1 23  1  0
  1 24  1  0
  1 25  1  0
  2 26  1  0
  2 27  1  0
  3 28  1  0
  4 29  1  0
  4 30  1  0
  6 31  1  0
  8 32  1  0
  9 33  1  0
  9 34  1  0
 10 35  1  0
 10 36  1  0
 14 37  1  6
 15 38  1  0
 15 39  1  0
 16 40  1  0
 16 41  1  0
 17 42  1  0
 17 43  1  0
 19 44  1  0
 19 45  1  0
 20 46  1  0
 20 47  1  0
M  END
>  <UniqueID>  (39) 
37

>  <SMILES>  (39) 
CCNCc1cn(C2CCN(C(=O)[C@H]3CCCO3)CC2)nn1

>  <Energy>  (39) 
81.02093664366735

>  <Genealogy>  (39) 
CCNCc1cn(C2CCN(C(=O)[C@H]3CCCO3)CC2)nn1 (chirality)
CCNCc1cn(C2CCN(C(=O)[C@H]3CCCO3)CC2)nn1 (3D coordinates assigned)
CCNCc1cn(C2CCN(C(=O)[C@H]3CCCO3)CC2)nn1 (nonaromatic ring conformer: 81.02093664366735 kcal/mol)

>  <smiles>  (39) 
CCNCc1cn(C2CCN(C(=O)C3CCCO3)CC2)nn1

>  <score_type>  (39) 
oracle

>  <origin>  (39) 
adg

>  <m_score__min__energy>  (39) 
-8.2799999999999994

>  <m_primary>  (39) 
energy

$$$$
39:0
     RDKit          3D

 40 39  0  0  0  0  0  0  0  0999 V2000
   -8.3810   23.0740  -31.9680 C   0  0  0  0  0  0  0  0  0  0  0  0
   -8.0030   22.3730  -30.6630 C   0  0  0  0  0  0  0  0  0  0  0  0
   -6.9460   23.1460  -29.8540 C   0  0  0  0  0  0  0  0  0  0  0  0
   -6.5260   24.4880  -30.4930 C   0  0  1  0  0  0  0  0  0  0  0  0
   -6.4850   25.5950  -29.4340 C   0  0  0  0  0  0  0  0  0  0  0  0
   -5.1860   24.3770  -31.1690 C   0  0  0  0  0  0  0  0  0  0  0  0
   -4.2510   25.1540  -30.8320 O   0  0  0  0  0  0  0  0  0  0  0  0
   -4.9900   23.4180  -32.1710 O   0  0  0  0  0  0  0  0  0  0  0  0
   -4.6570   22.0580  -31.9010 C   0  0  0  0  0  0  0  0  0  0  0  0
   -4.9820   21.1450  -33.0920 C   0  0  0  0  0  0  0  0  0  0  0  0
   -5.8280   20.0010  -32.6760 N   0  0  0  0  0  0  0  0  0  0  0  0
   -7.2410   20.1690  -33.1040 C   0  0  0  0  0  0  0  0  0  0  0  0
   -8.1430   19.2720  -32.2670 C   0  0  0  0  0  0  0  0  0  0  0  0
   -5.2590   18.7220  -33.1580 C   0  0  0  0  0  0  0  0  0  0  0  0
   -5.6930   18.4360  -34.5960 C   0  0  0  0  0  0  0  0  0  0  0  0
   -8.8918   24.0213  -31.7407 H   0  0  0  0  0  0  0  0  0  0  0  0
   -7.4710   23.2788  -32.5511 H   0  0  0  0  0  0  0  0  0  0  0  0
   -9.0521   22.4262  -32.5511 H   0  0  0  0  0  0  0  0  0  0  0  0
   -8.9079   22.2660  -30.0468 H   0  0  0  0  0  0  0  0  0  0  0  0
   -7.5697   21.3966  -30.9255 H   0  0  0  0  0  0  0  0  0  0  0  0
   -7.3573   23.3520  -28.8548 H   0  0  0  0  0  0  0  0  0  0  0  0
   -6.0463   22.5141  -29.8187 H   0  0  0  0  0  0  0  0  0  0  0  0
   -7.2764   24.7442  -31.2554 H   0  0  0  0  0  0  0  0  0  0  0  0
   -6.5017   25.1437  -28.4310 H   0  0  0  0  0  0  0  0  0  0  0  0
   -5.5644   26.1847  -29.5554 H   0  0  0  0  0  0  0  0  0  0  0  0
   -7.3595   26.2512  -29.5554 H   0  0  0  0  0  0  0  0  0  0  0  0
   -3.5807   21.9911  -31.6842 H   0  0  0  0  0  0  0  0  0  0  0  0
   -5.2548   21.7236  -31.0403 H   0  0  0  0  0  0  0  0  0  0  0  0
   -5.5176   21.7283  -33.8554 H   0  0  0  0  0  0  0  0  0  0  0  0
   -4.0379   20.7509  -33.4962 H   0  0  0  0  0  0  0  0  0  0  0  0
   -7.5416   21.2183  -32.9679 H   0  0  0  0  0  0  0  0  0  0  0  0
   -7.3351   19.8913  -34.1642 H   0  0  0  0  0  0  0  0  0  0  0  0
   -7.9560   19.4580  -31.1991 H   0  0  0  0  0  0  0  0  0  0  0  0
   -9.1956   19.4919  -32.4986 H   0  0  0  0  0  0  0  0  0  0  0  0
   -7.9290   18.2182  -32.4986 H   0  0  0  0  0  0  0  0  0  0  0  0
   -4.1612   18.7791  -33.1183 H   0  0  0  0  0  0  0  0  0  0  0  0
   -5.6265   17.9101  -32.5132 H   0  0  0  0  0  0  0  0  0  0  0  0
   -6.6115   17.8307  -34.5883 H   0  0  0  0  0  0  0  0  0  0  0  0
   -5.8841   19.3857  -35.1171 H   0  0  0  0  0  0  0  0  0  0  0  0
   -4.8957   17.8858  -35.1171 H   0  0  0  0  0  0  0  0  0  0  0  0
  1  2  1  0
  2  3  1  0
  3  4  1  0
  4  5  1  0
  4  6  1  0
  6  7  2  0
  6  8  1  0
  8  9  1  0
  9 10  1  0
 10 11  1  0
 11 12  1  0
 12 13  1  0
 11 14  1  0
 14 15  1  0
  1 16  1  0
  1 17  1  0
  1 18  1  0
  2 19  1  0
  2 20  1  0
  3 21  1  0
  3 22  1  0
  4 23  1  6
  5 24  1  0
  5 25  1  0
  5 26  1  0
  9 27  1  0
  9 28  1  0
 10 29  1  0
 10 30  1  0
 12 31  1  0
 12 32  1  0
 13 33  1  0
 13 34  1  0
 13 35  1  0
 14 36  1  0
 14 37  1  0
 15 38  1  0
 15 39  1  0
 15 40  1  0
M  END
>  <UniqueID>  (40) 
38

>  <SMILES>  (40) 
CCC[C@@H](C)C(=O)OCCN(CC)CC

>  <Energy>  (40) 
23.20564664476722

>  <Genealogy>  (40) 
CCC[C@@H](C)C(=O)OCCN(CC)CC (chirality)
CCC[C@@H](C)C(=O)OCCN(CC)CC (3D coordinates assigned)
CCC[C@@H](C)C(=O)OCCN(CC)CC (optimized conformer: 23.20564664476722 kcal/mol)

>  <smiles>  (40) 
CCCC(C)C(=O)OCCN(CC)CC

>  <score_type>  (40) 
oracle

>  <origin>  (40) 
adg

>  <m_score__min__energy>  (40) 
-5.5599999999999996

>  <m_primary>  (40) 
energy

$$$$
40:0
     RDKit          3D

 52 53  0  0  0  0  0  0  0  0999 V2000
   -0.4310   18.2930  -31.6020 C   0  0  0  0  0  0  0  0  0  0  0  0
   -0.9560   17.2350  -32.5820 C   0  0  0  0  0  0  0  0  0  0  0  0
   -1.8990   17.7630  -33.5980 N   0  0  0  0  0  0  0  0  0  0  0  0
   -1.4220   18.9810  -34.2930 C   0  0  0  0  0  0  0  0  0  0  0  0
   -2.1670   20.2310  -33.8270 C   0  0  0  0  0  0  0  0  0  0  0  0
   -2.3330   16.7200  -34.5550 C   0  0  0  0  0  0  0  0  0  0  0  0
   -3.8620   16.6410  -34.6150 C   0  0  0  0  0  0  0  0  0  0  0  0
   -4.4600   17.6690  -33.7640 N   0  0  0  0  0  0  0  0  0  0  0  0
   -5.5750   18.4710  -34.1900 C   0  0  0  0  0  0  0  0  0  0  0  0
   -6.0850   18.2800  -35.3270 O   0  0  0  0  0  0  0  0  0  0  0  0
   -6.1240   19.5390  -33.3210 C   0  0  0  0  0  0  0  0  0  0  0  0
   -7.5060   19.6080  -33.0840 C   0  0  0  0  0  0  0  0  0  0  0  0
   -8.0190   20.6090  -32.2540 C   0  0  0  0  0  0  0  0  0  0  0  0
   -9.4910   20.7000  -32.0000 C   0  0  0  0  0  0  0  0  0  0  0  0
   -7.1780   21.5110  -31.6830 N   0  0  0  0  0  0  0  0  0  0  0  0
   -5.8310   21.4820  -31.8840 C   0  0  0  0  0  0  0  0  0  0  0  0
   -4.9770   22.4960  -31.2140 C   0  0  0  0  0  0  0  0  0  0  0  0
   -3.6090   22.2390  -31.0130 C   0  0  0  0  0  0  0  0  0  0  0  0
   -2.7940   23.1800  -30.3780 C   0  0  0  0  0  0  0  0  0  0  0  0
   -3.3260   24.3910  -29.9240 C   0  0  0  0  0  0  0  0  0  0  0  0
   -2.4650   25.3020  -29.2930 O   0  0  0  0  0  0  0  0  0  0  0  0
   -1.7990   25.0560  -28.0590 C   0  0  0  0  0  0  0  0  0  0  0  0
   -4.6950   24.6500  -30.1100 C   0  0  0  0  0  0  0  0  0  0  0  0
   -5.5130   23.7110  -30.7460 C   0  0  0  0  0  0  0  0  0  0  0  0
   -5.2820   20.4790  -32.7020 C   0  0  0  0  0  0  0  0  0  0  0  0
   -0.5999   17.9526  -30.5697 H   0  0  0  0  0  0  0  0  0  0  0  0
    0.6462   18.4432  -31.7669 H   0  0  0  0  0  0  0  0  0  0  0  0
   -0.9629   19.2416  -31.7669 H   0  0  0  0  0  0  0  0  0  0  0  0
   -0.0958   16.7931  -33.1062 H   0  0  0  0  0  0  0  0  0  0  0  0
   -1.5142   16.4994  -31.9843 H   0  0  0  0  0  0  0  0  0  0  0  0
   -0.3488   19.1097  -34.0889 H   0  0  0  0  0  0  0  0  0  0  0  0
   -1.6083   18.8544  -35.3697 H   0  0  0  0  0  0  0  0  0  0  0  0
   -2.1838   20.2593  -32.7275 H   0  0  0  0  0  0  0  0  0  0  0  0
   -1.6552   21.1266  -34.2090 H   0  0  0  0  0  0  0  0  0  0  0  0
   -3.1983   20.2070  -34.2090 H   0  0  0  0  0  0  0  0  0  0  0  0
   -1.9447   16.9636  -35.5549 H   0  0  0  0  0  0  0  0  0  0  0  0
   -1.9420   15.7481  -34.2195 H   0  0  0  0  0  0  0  0  0  0  0  0
   -4.1922   16.7929  -35.6532 H   0  0  0  0  0  0  0  0  0  0  0  0
   -4.1822   15.6513  -34.2572 H   0  0  0  0  0  0  0  0  0  0  0  0
   -3.9360   17.9350  -32.9010 H   0  0  0  0  0  0  0  0  0  0  0  0
   -8.1829   18.8768  -33.5499 H   0  0  0  0  0  0  0  0  0  0  0  0
   -9.6760   20.7114  -30.9157 H   0  0  0  0  0  0  0  0  0  0  0  0
   -9.8841   21.6242  -32.4488 H   0  0  0  0  0  0  0  0  0  0  0  0
   -9.9949   19.8313  -32.4488 H   0  0  0  0  0  0  0  0  0  0  0  0
   -3.1765   21.2885  -31.3588 H   0  0  0  0  0  0  0  0  0  0  0  0
   -1.7246   22.9663  -30.2340 H   0  0  0  0  0  0  0  0  0  0  0  0
   -2.4707   25.3041  -27.2240 H   0  0  0  0  0  0  0  0  0  0  0  0
   -1.5170   23.9944  -27.9998 H   0  0  0  0  0  0  0  0  0  0  0  0
   -0.8947   25.6794  -27.9998 H   0  0  0  0  0  0  0  0  0  0  0  0
   -5.1255   25.5972  -29.7530 H   0  0  0  0  0  0  0  0  0  0  0  0
   -6.5838   23.9232  -30.8818 H   0  0  0  0  0  0  0  0  0  0  0  0
   -4.1942   20.4299  -32.8575 H   0  0  0  0  0  0  0  0  0  0  0  0
  1  2  1  0
  2  3  1  0
  3  4  1  0
  4  5  1  0
  3  6  1  0
  6  7  1  0
  7  8  1  0
  8  9  1  0
  9 10  2  0
  9 11  1  0
 11 12  2  0
 12 13  1  0
 13 14  1  0
 13 15  2  0
 15 16  1  0
 16 17  1  0
 17 18  2  0
 18 19  1  0
 19 20  2  0
 20 21  1  0
 21 22  1  0
 20 23  1  0
 23 24  2  0
 16 25  2  0
 25 11  1  0
 24 17  1  0
  1 26  1  0
  1 27  1  0
  1 28  1  0
  2 29  1  0
  2 30  1  0
  4 31  1  0
  4 32  1  0
  5 33  1  0
  5 34  1  0
  5 35  1  0
  6 36  1  0
  6 37  1  0
  7 38  1  0
  7 39  1  0
  8 40  1  0
 12 41  1  0
 14 42  1  0
 14 43  1  0
 14 44  1  0
 18 45  1  0
 19 46  1  0
 22 47  1  0
 22 48  1  0
 22 49  1  0
 23 50  1  0
 24 51  1  0
 25 52  1  0
M  END
>  <UniqueID>  (41) 
39

>  <SMILES>  (41) 
CCN(CC)CCNC(=O)c1cc(C)nc(-c2ccc(OC)cc2)c1

>  <Energy>  (41) 
54.20428767898657

>  <Genealogy>  (41) 
CCN(CC)CCNC(=O)c1cc(C)nc(-c2ccc(OC)cc2)c1 (3D coordinates assigned)
CCN(CC)CCNC(=O)c1cc(C)nc(-c2ccc(OC)cc2)c1 (optimized conformer: 54.20428767898657 kcal/mol)

>  <smiles>  (41) 
CCN(CC)CCNC(=O)c1cc(C)nc(-c2ccc(OC)cc2)c1

>  <score_type>  (41) 
oracle

>  <origin>  (41) 
adg

>  <m_score__min__energy>  (41) 
-7.3099999999999996

>  <m_primary>  (41) 
energy

$$$$
41:0
     RDKit          3D

 32 33  0  0  0  0  0  0  0  0999 V2000
   -3.3660   22.1280  -28.5590 C   0  0  0  0  0  0  0  0  0  0  0  0
   -3.8530   23.2420  -27.6290 C   0  0  0  0  0  0  0  0  0  0  0  0
   -3.4510   24.5810  -28.0940 N   0  0  0  0  0  0  0  0  0  0  0  0
   -2.6930   24.5360  -29.3500 C   0  0  0  0  0  0  0  0  0  0  0  0
   -3.5360   24.9490  -30.4670 N   0  0  0  0  0  0  0  0  0  0  0  0
   -4.9610   24.8050  -30.4740 C   0  0  0  0  0  0  0  0  0  0  0  0
   -5.6820   25.7100  -29.9680 O   0  0  0  0  0  0  0  0  0  0  0  0
   -5.5870   23.6020  -31.0700 C   0  0  0  0  0  0  0  0  0  0  0  0
   -4.7970   22.6450  -31.7340 C   0  0  0  0  0  0  0  0  0  0  0  0
   -5.3790   21.5070  -32.2980 C   0  0  0  0  0  0  0  0  0  0  0  0
   -6.7610   21.3030  -32.2090 C   0  0  0  0  0  0  0  0  0  0  0  0
   -7.3550   20.1620  -32.7730 C   0  0  0  0  0  0  0  0  0  0  0  0
   -8.7360   19.9700  -32.6780 C   0  0  0  0  0  0  0  0  0  0  0  0
   -9.5330   20.9130  -32.0210 C   0  0  0  0  0  0  0  0  0  0  0  0
   -8.9550   22.0520  -31.4560 C   0  0  0  0  0  0  0  0  0  0  0  0
   -7.5690   22.2570  -31.5450 C   0  0  0  0  0  0  0  0  0  0  0  0
   -6.9760   23.3980  -30.9810 C   0  0  0  0  0  0  0  0  0  0  0  0
   -2.9970   21.2838  -27.9580 H   0  0  0  0  0  0  0  0  0  0  0  0
   -4.1985   21.7901  -29.1936 H   0  0  0  0  0  0  0  0  0  0  0  0
   -2.5526   22.5096  -29.1936 H   0  0  0  0  0  0  0  0  0  0  0  0
   -4.9510   23.2021  -27.5754 H   0  0  0  0  0  0  0  0  0  0  0  0
   -3.3938   23.0788  -26.6428 H   0  0  0  0  0  0  0  0  0  0  0  0
   -4.3000   25.1780  -28.2320 H   0  0  0  0  0  0  0  0  0  0  0  0
   -1.8299   25.2140  -29.2771 H   0  0  0  0  0  0  0  0  0  0  0  0
   -2.3500   23.5053  -29.5234 H   0  0  0  0  0  0  0  0  0  0  0  0
   -3.7099   22.7946  -31.8097 H   0  0  0  0  0  0  0  0  0  0  0  0
   -4.7485   20.7681  -32.8142 H   0  0  0  0  0  0  0  0  0  0  0  0
   -6.7318   19.4179  -33.2906 H   0  0  0  0  0  0  0  0  0  0  0  0
   -9.1973   19.0750  -33.1210 H   0  0  0  0  0  0  0  0  0  0  0  0
  -10.6195   20.7570  -31.9490 H   0  0  0  0  0  0  0  0  0  0  0  0
   -9.5870   22.7899  -30.9402 H   0  0  0  0  0  0  0  0  0  0  0  0
   -7.6035   24.1394  -30.4647 H   0  0  0  0  0  0  0  0  0  0  0  0
  1  2  1  0
  2  3  1  0
  3  4  1  0
  4  5  1  0
  5  6  1  0
  6  7  2  0
  6  8  1  0
  8  9  2  0
  9 10  1  0
 10 11  2  0
 11 12  1  0
 12 13  2  0
 13 14  1  0
 14 15  2  0
 15 16  1  0
 16 17  2  0
 17  8  1  0
 16 11  1  0
  1 18  1  0
  1 19  1  0
  1 20  1  0
  2 21  1  0
  2 22  1  0
  3 23  1  0
  4 24  1  0
  4 25  1  0
  9 26  1  0
 10 27  1  0
 12 28  1  0
 13 29  1  0
 14 30  1  0
 15 31  1  0
 17 32  1  0
M  CHG  1   5  -1
M  END
>  <UniqueID>  (42) 
40

>  <SMILES>  (42) 
CCNC[N-]C(=O)c1ccc2ccccc2c1

>  <Energy>  (42) 
32.632206247887645

>  <Genealogy>  (42) 
CCNC[N-]C(=O)c1ccc2ccccc2c1 (protonated)
CCNC[N-]C(=O)c1ccc2ccccc2c1 (3D coordinates assigned)
CCNC[N-]C(=O)c1ccc2ccccc2c1 (optimized conformer: 32.632206247887645 kcal/mol)

>  <smiles>  (42) 
CCNCNC(=O)c1ccc2ccccc2c1

>  <score_type>  (42) 
oracle

>  <origin>  (42) 
adg

>  <m_score__min__energy>  (42) 
-10.07

>  <m_primary>  (42) 
energy

$$$$
