0:0
     RDKit          3D

 75 77  0  0  0  0  0  0  0  0999 V2000
   -2.4770   20.0570  -27.5010 C   0  0  0  0  0  0  0  0  0  0  0  0
   -2.8530   20.5150  -28.9080 C   0  0  0  0  0  0  0  0  0  0  0  0
   -1.6290   20.6460  -29.7310 N   0  0  0  0  0  0  0  0  0  0  0  0
   -0.8830   19.3690  -29.8450 C   0  0  0  0  0  0  0  0  0  0  0  0
    0.5460   19.4350  -29.2780 C   0  0  0  0  0  0  0  0  0  0  0  0
   -0.7550   21.7760  -29.3330 C   0  0  0  0  0  0  0  0  0  0  0  0
   -1.1180   23.0790  -30.0740 C   0  0  0  0  0  0  0  0  0  0  0  0
   -2.4810   23.6980  -29.6940 C   0  0  0  0  0  0  0  0  0  0  0  0
   -3.3820   23.8930  -30.8370 N   0  0  0  0  0  0  0  0  0  0  0  0
   -4.7950   23.6790  -30.7800 C   0  0  0  0  0  0  0  0  0  0  0  0
   -5.5550   24.7620  -30.3160 C   0  0  0  0  0  0  0  0  0  0  0  0
   -6.9240   24.6830  -30.2010 C   0  0  0  0  0  0  0  0  0  0  0  0
   -7.5790   23.5390  -30.6020 C   0  0  0  0  0  0  0  0  0  0  0  0
   -6.8830   22.4370  -31.1590 C   0  0  0  0  0  0  0  0  0  0  0  0
   -5.4450   22.4590  -31.2090 C   0  0  0  0  0  0  0  0  0  0  0  0
   -4.7700   21.2570  -31.6610 C   0  0  0  0  0  0  0  0  0  0  0  0
   -3.3310   21.1750  -31.8880 N   0  0  0  0  0  0  0  0  0  0  0  0
   -2.9970   21.5150  -33.2860 C   0  0  0  0  0  0  0  0  0  0  0  0
   -1.9600   20.5480  -33.8840 C   0  0  0  0  0  0  0  0  0  0  0  0
   -1.2550   19.7800  -32.8290 N   0  0  0  0  0  0  0  0  0  0  0  0
   -1.6330   18.3490  -32.9230 C   0  0  0  0  0  0  0  0  0  0  0  0
   -2.3540   18.0230  -34.2300 C   0  0  0  0  0  0  0  0  0  0  0  0
    0.2180   19.9720  -32.9300 C   0  0  0  0  0  0  0  0  0  0  0  0
    0.5400   21.1350  -33.8630 C   0  0  0  0  0  0  0  0  0  0  0  0
   -5.5570   20.0930  -31.9320 C   0  0  0  0  0  0  0  0  0  0  0  0
   -4.9710   18.8520  -32.3110 C   0  0  0  0  0  0  0  0  0  0  0  0
   -5.7430   17.7090  -32.5020 C   0  0  0  0  0  0  0  0  0  0  0  0
   -7.1160   17.7600  -32.3310 C   0  0  0  0  0  0  0  0  0  0  0  0
   -7.7280   18.9650  -32.0100 C   0  0  0  0  0  0  0  0  0  0  0  0
   -6.9730   20.1570  -31.8520 C   0  0  0  0  0  0  0  0  0  0  0  0
   -7.5960   21.3600  -31.6350 N   0  0  0  0  0  0  0  0  0  0  0  0
   -9.0350   21.5070  -31.9570 C   0  0  0  0  0  0  0  0  0  0  0  0
   -2.9932   20.6857  -26.7605 H   0  0  0  0  0  0  0  0  0  0  0  0
   -2.7776   19.0077  -27.3643 H   0  0  0  0  0  0  0  0  0  0  0  0
   -1.3893   20.1475  -27.3643 H   0  0  0  0  0  0  0  0  0  0  0  0
   -3.5251   19.7748  -29.3666 H   0  0  0  0  0  0  0  0  0  0  0  0
   -3.3615   21.4888  -28.8517 H   0  0  0  0  0  0  0  0  0  0  0  0
   -1.4381   18.5925  -29.2983 H   0  0  0  0  0  0  0  0  0  0  0  0
   -0.7932   19.1437  -30.9179 H   0  0  0  0  0  0  0  0  0  0  0  0
    0.5048   19.4331  -28.1788 H   0  0  0  0  0  0  0  0  0  0  0  0
    1.1188   18.5624  -29.6250 H   0  0  0  0  0  0  0  0  0  0  0  0
    1.0359   20.3567  -29.6250 H   0  0  0  0  0  0  0  0  0  0  0  0
   -0.8608   21.9421  -28.2508 H   0  0  0  0  0  0  0  0  0  0  0  0
    0.2800   21.5131  -29.5971 H   0  0  0  0  0  0  0  0  0  0  0  0
   -0.3357   23.8216  -29.8582 H   0  0  0  0  0  0  0  0  0  0  0  0
   -1.1918   22.8124  -31.1386 H   0  0  0  0  0  0  0  0  0  0  0  0
   -2.9756   23.0314  -28.9722 H   0  0  0  0  0  0  0  0  0  0  0  0
   -2.2751   24.6938  -29.2745 H   0  0  0  0  0  0  0  0  0  0  0  0
   -3.0530   24.5460  -31.5820 H   0  0  0  0  0  0  0  0  0  0  0  0
   -5.0453   25.6962  -30.0375 H   0  0  0  0  0  0  0  0  0  0  0  0
   -7.4933   25.5300  -29.7905 H   0  0  0  0  0  0  0  0  0  0  0  0
   -8.6713   23.4793  -30.4868 H   0  0  0  0  0  0  0  0  0  0  0  0
   -2.9850   20.2250  -31.6300 H   0  0  0  0  0  0  0  0  0  0  0  0
   -2.7520   21.7400  -31.2540 H   0  0  0  0  0  0  0  0  0  0  0  0
   -3.9145   21.4700  -33.8911 H   0  0  0  0  0  0  0  0  0  0  0  0
   -2.5629   22.5257  -33.2948 H   0  0  0  0  0  0  0  0  0  0  0  0
   -2.4742   19.8437  -34.5545 H   0  0  0  0  0  0  0  0  0  0  0  0
   -1.2141   21.1413  -34.4332 H   0  0  0  0  0  0  0  0  0  0  0  0
   -0.7207   17.7376  -32.8605 H   0  0  0  0  0  0  0  0  0  0  0  0
   -2.3227   18.1286  -32.0949 H   0  0  0  0  0  0  0  0  0  0  0  0
   -3.3354   17.5793  -34.0066 H   0  0  0  0  0  0  0  0  0  0  0  0
   -2.4929   18.9459  -34.8122 H   0  0  0  0  0  0  0  0  0  0  0  0
   -1.7528   17.3091  -34.8122 H   0  0  0  0  0  0  0  0  0  0  0  0
    0.6250   20.1857  -31.9307 H   0  0  0  0  0  0  0  0  0  0  0  0
    0.6705   19.0545  -33.3342 H   0  0  0  0  0  0  0  0  0  0  0  0
    0.7867   22.0259  -33.2668 H   0  0  0  0  0  0  0  0  0  0  0  0
    1.3984   20.8692  -34.4975 H   0  0  0  0  0  0  0  0  0  0  0  0
   -0.3328   21.3485  -34.4975 H   0  0  0  0  0  0  0  0  0  0  0  0
   -3.8822   18.7948  -32.4564 H   0  0  0  0  0  0  0  0  0  0  0  0
   -5.2608   16.7631  -32.7895 H   0  0  0  0  0  0  0  0  0  0  0  0
   -7.7206   16.8487  -32.4490 H   0  0  0  0  0  0  0  0  0  0  0  0
   -8.8193   18.9963  -31.8755 H   0  0  0  0  0  0  0  0  0  0  0  0
   -9.6152   21.5663  -31.0244 H   0  0  0  0  0  0  0  0  0  0  0  0
   -9.1877   22.4254  -32.5428 H   0  0  0  0  0  0  0  0  0  0  0  0
   -9.3702   20.6384  -32.5428 H   0  0  0  0  0  0  0  0  0  0  0  0
  1  2  1  0
  2  3  1  0
  3  4  1  0
  4  5  1  0
  3  6  1  0
  6  7  1  0
  7  8  1  0
  8  9  1  0
  9 10  1  0
 10 11  2  0
 11 12  1  0
 12 13  2  0
 13 14  1  0
 14 15  2  0
 15 16  1  0
 16 17  1  0
 17 18  1  0
 18 19  1  0
 19 20  1  0
 20 21  1  0
 21 22  1  0
 20 23  1  0
 23 24  1  0
 16 25  2  0
 25 26  1  0
 26 27  2  0
 27 28  1  0
 28 29  2  0
 29 30  1  0
 30 31  2  0
 31 32  1  0
 15 10  1  0
 30 25  1  0
 31 14  1  0
  1 33  1  0
  1 34  1  0
  1 35  1  0
  2 36  1  0
  2 37  1  0
  4 38  1  0
  4 39  1  0
  5 40  1  0
  5 41  1  0
  5 42  1  0
  6 43  1  0
  6 44  1  0
  7 45  1  0
  7 46  1  0
  8 47  1  0
  8 48  1  0
  9 49  1  0
 11 50  1  0
 12 51  1  0
 13 52  1  0
 17 53  1  0
 17 54  1  0
 18 55  1  0
 18 56  1  0
 19 57  1  0
 19 58  1  0
 21 59  1  0
 21 60  1  0
 22 61  1  0
 22 62  1  0
 22 63  1  0
 23 64  1  0
 23 65  1  0
 24 66  1  0
 24 67  1  0
 24 68  1  0
 26 69  1  0
 27 70  1  0
 28 71  1  0
 29 72  1  0
 32 73  1  0
 32 74  1  0
 32 75  1  0
M  CHG  2  17   1  31   1
M  END
>  <UniqueID>  (1) 
1

>  <SMILES>  (1) 
CCN(CC)CCCNc1cccc2c1c([NH2+]CCN(CC)CC)c1ccccc1[n+]2C

>  <Energy>  (1) 
120.04876248995605

>  <Genealogy>  (1) 
CCN(CC)CCCNc1cccc2c1c([NH2+]CCN(CC)CC)c1ccccc1[n+]2C (protonated)
CCN(CC)CCCNc1cccc2c1c([NH2+]CCN(CC)CC)c1ccccc1[n+]2C (3D coordinates assigned)
CCN(CC)CCCNc1cccc2c1c([NH2+]CCN(CC)CC)c1ccccc1[n+]2C (optimized conformer: 120.04876248995605 kcal/mol)

>  <smiles>  (1) 
CCN(CC)CCCNc1cccc2c1c(NCCN(CC)CC)c1ccccc1[n+]2C

>  <score_type>  (1) 
oracle

>  <origin>  (1) 
adg

>  <m_score__min__energy>  (1) 
-9.2100000000000009

>  <m_primary>  (1) 
energy

$$$$
1:0
     RDKit          3D

 54 56  0  0  0  0  0  0  0  0999 V2000
   -4.0140   24.2120  -28.1150 C   0  0  0  0  0  0  0  0  0  0  0  0
   -3.1140   24.5290  -29.3060 C   0  0  0  0  0  0  0  0  0  0  0  0
   -3.8600   25.3030  -30.3090 N   0  0  0  0  0  0  0  0  0  0  0  0
   -5.3070   25.2970  -30.0340 C   0  0  0  0  0  0  0  0  0  0  0  0
   -6.0920   24.4780  -31.0710 C   0  0  0  0  0  0  0  0  0  0  0  0
   -5.2670   23.4720  -31.6260 O   0  0  0  0  0  0  0  0  0  0  0  0
   -5.0370   22.4220  -30.7060 C   0  0  0  0  0  0  0  0  0  0  0  0
   -3.7750   21.6320  -31.0920 C   0  0  0  0  0  0  0  0  0  0  0  0
   -3.3770   21.8210  -32.5730 C   0  0  0  0  0  0  0  0  0  0  0  0
   -4.4950   21.5780  -33.5080 N   0  0  0  0  0  0  0  0  0  0  0  0
   -5.0490   20.2360  -33.3720 C   0  0  0  0  0  0  0  0  0  0  0  0
   -6.3940   20.0220  -32.9390 C   0  0  0  0  0  0  0  0  0  0  0  0
   -7.2310   21.0760  -32.4840 C   0  0  0  0  0  0  0  0  0  0  0  0
   -8.5320   20.8340  -32.0500 C   0  0  0  0  0  0  0  0  0  0  0  0
   -9.0320   19.5440  -32.0300 C   0  0  0  0  0  0  0  0  0  0  0  0
   -8.2480   18.4880  -32.4770 C   0  0  0  0  0  0  0  0  0  0  0  0
   -6.9340   18.7020  -32.9710 C   0  0  0  0  0  0  0  0  0  0  0  0
   -6.1860   17.6540  -33.4650 N   0  0  0  0  0  0  0  0  0  0  0  0
   -6.8500   16.3800  -33.8260 C   0  0  0  0  0  0  0  0  0  0  0  0
   -4.8330   17.8030  -33.6640 C   0  0  0  0  0  0  0  0  0  0  0  0
   -3.9930   16.6740  -33.8470 C   0  0  0  0  0  0  0  0  0  0  0  0
   -2.6380   16.8230  -34.1260 C   0  0  0  0  0  0  0  0  0  0  0  0
   -1.6230   15.4070  -34.3570 Cl  0  0  0  0  0  0  0  0  0  0  0  0
   -2.0860   18.0930  -34.2320 C   0  0  0  0  0  0  0  0  0  0  0  0
   -2.8750   19.2180  -34.0120 C   0  0  0  0  0  0  0  0  0  0  0  0
   -4.2500   19.1000  -33.6840 C   0  0  0  0  0  0  0  0  0  0  0  0
   -3.4668   24.4047  -27.1804 H   0  0  0  0  0  0  0  0  0  0  0  0
   -4.9103   24.8485  -28.1531 H   0  0  0  0  0  0  0  0  0  0  0  0
   -4.3136   23.1543  -28.1531 H   0  0  0  0  0  0  0  0  0  0  0  0
   -2.2491   25.1156  -28.9628 H   0  0  0  0  0  0  0  0  0  0  0  0
   -2.7705   23.5874  -29.7593 H   0  0  0  0  0  0  0  0  0  0  0  0
   -3.6780   24.9010  -31.2580 H   0  0  0  0  0  0  0  0  0  0  0  0
   -5.4764   24.8626  -29.0377 H   0  0  0  0  0  0  0  0  0  0  0  0
   -5.6644   26.3361  -30.0839 H   0  0  0  0  0  0  0  0  0  0  0  0
   -6.9586   24.0085  -30.5825 H   0  0  0  0  0  0  0  0  0  0  0  0
   -6.4309   25.1479  -31.8750 H   0  0  0  0  0  0  0  0  0  0  0  0
   -4.9048   22.8455  -29.6995 H   0  0  0  0  0  0  0  0  0  0  0  0
   -5.9007   21.7410  -30.7214 H   0  0  0  0  0  0  0  0  0  0  0  0
   -2.9417   21.9703  -30.4587 H   0  0  0  0  0  0  0  0  0  0  0  0
   -3.9952   20.5646  -30.9429 H   0  0  0  0  0  0  0  0  0  0  0  0
   -3.0225   22.8531  -32.7115 H   0  0  0  0  0  0  0  0  0  0  0  0
   -2.5932   21.0831  -32.7993 H   0  0  0  0  0  0  0  0  0  0  0  0
   -5.2430   22.2860  -33.3450 H   0  0  0  0  0  0  0  0  0  0  0  0
   -4.1930   21.8170  -34.4710 H   0  0  0  0  0  0  0  0  0  0  0  0
   -6.8431   22.1053  -32.4743 H   0  0  0  0  0  0  0  0  0  0  0  0
   -9.1647   21.6718  -31.7218 H   0  0  0  0  0  0  0  0  0  0  0  0
  -10.0505   19.3547  -31.6601 H   0  0  0  0  0  0  0  0  0  0  0  0
   -8.6531   17.4657  -32.4477 H   0  0  0  0  0  0  0  0  0  0  0  0
   -7.1312   15.8405  -32.9095 H   0  0  0  0  0  0  0  0  0  0  0  0
   -7.7524   16.5918  -34.4183 H   0  0  0  0  0  0  0  0  0  0  0  0
   -6.1595   15.7616  -34.4183 H   0  0  0  0  0  0  0  0  0  0  0  0
   -4.4204   15.6636  -33.7669 H   0  0  0  0  0  0  0  0  0  0  0  0
   -1.0232   18.2098  -34.4903 H   0  0  0  0  0  0  0  0  0  0  0  0
   -2.4238   20.2178  -34.0940 H   0  0  0  0  0  0  0  0  0  0  0  0
  1  2  1  0
  2  3  1  0
  3  4  1  0
  4  5  1  0
  5  6  1  0
  6  7  1  0
  7  8  1  0
  8  9  1  0
  9 10  1  0
 10 11  1  0
 11 12  2  0
 12 13  1  0
 13 14  2  0
 14 15  1  0
 15 16  2  0
 16 17  1  0
 17 18  2  0
 18 19  1  0
 18 20  1  0
 20 21  2  0
 21 22  1  0
 22 23  1  0
 22 24  2  0
 24 25  1  0
 25 26  2  0
 26 11  1  0
 17 12  1  0
 26 20  1  0
  1 27  1  0
  1 28  1  0
  1 29  1  0
  2 30  1  0
  2 31  1  0
  3 32  1  0
  4 33  1  0
  4 34  1  0
  5 35  1  0
  5 36  1  0
  7 37  1  0
  7 38  1  0
  8 39  1  0
  8 40  1  0
  9 41  1  0
  9 42  1  0
 10 43  1  0
 10 44  1  0
 13 45  1  0
 14 46  1  0
 15 47  1  0
 16 48  1  0
 19 49  1  0
 19 50  1  0
 19 51  1  0
 21 52  1  0
 24 53  1  0
 25 54  1  0
M  CHG  2  10   1  18   1
M  END
>  <UniqueID>  (2) 
2

>  <SMILES>  (2) 
CCNCCOCCC[NH2+]c1c2ccccc2[n+](C)c2cc(Cl)ccc12

>  <Energy>  (2) 
84.83266884024887

>  <Genealogy>  (2) 
CCNCCOCCC[NH2+]c1c2ccccc2[n+](C)c2cc(Cl)ccc12 (protonated)
CCNCCOCCC[NH2+]c1c2ccccc2[n+](C)c2cc(Cl)ccc12 (3D coordinates assigned)
CCNCCOCCC[NH2+]c1c2ccccc2[n+](C)c2cc(Cl)ccc12 (optimized conformer: 84.83266884024887 kcal/mol)

>  <smiles>  (2) 
CCNCCOCCCNc1c2ccccc2[n+](C)c2cc(Cl)ccc12

>  <score_type>  (2) 
oracle

>  <origin>  (2) 
adg

>  <m_score__min__energy>  (2) 
-8.3699999999999992

>  <m_primary>  (2) 
energy

$$$$
2:0
     RDKit          3D

 59 63  0  0  0  0  0  0  0  0999 V2000
   -6.4740   25.9700  -29.3350 C   0  0  0  0  0  0  0  0  0  0  0  0
   -5.3600   25.7330  -30.3480 C   0  0  0  0  0  0  0  0  0  0  0  0
   -5.1470   24.2960  -30.5450 N   0  0  0  0  0  0  0  0  0  0  0  0
   -4.1040   23.5530  -30.0930 C   0  0  0  0  0  0  0  0  0  0  0  0
   -4.3010   22.2180  -30.3530 C   0  0  0  0  0  0  0  0  0  0  0  0
   -5.5210   22.1260  -30.9860 C   0  0  0  0  0  0  0  0  0  0  0  0
   -6.2390   21.0200  -31.4330 C   0  0  0  0  0  0  0  0  0  0  0  0
   -7.5110   21.2270  -32.0190 C   0  0  0  0  0  0  0  0  0  0  0  0
   -8.2620   20.0360  -32.5300 C   0  0  0  0  0  0  0  0  0  0  0  0
   -9.5250   20.0660  -32.4670 O   0  0  0  0  0  0  0  0  0  0  0  0
   -7.6310   18.8480  -33.0850 N   0  0  0  0  0  0  0  0  0  0  0  0
   -7.3340   17.8430  -32.0330 C   0  0  0  0  0  0  0  0  0  0  0  0
   -6.1670   16.9290  -32.4380 C   0  0  0  0  0  0  0  0  0  0  0  0
   -6.2120   16.6910  -33.8300 O   0  0  0  0  0  0  0  0  0  0  0  0
   -5.8570   17.8660  -34.5440 C   0  0  0  0  0  0  0  0  0  0  0  0
   -6.4770   19.1610  -33.9560 C   0  0  0  0  0  0  0  0  0  0  0  0
   -8.0040   22.5590  -32.1320 C   0  0  0  0  0  0  0  0  0  0  0  0
   -7.2600   23.6540  -31.6560 C   0  0  0  0  0  0  0  0  0  0  0  0
   -6.0100   23.4060  -31.0890 C   0  0  0  0  0  0  0  0  0  0  0  0
   -3.3910   21.1410  -29.8640 C   0  0  0  0  0  0  0  0  0  0  0  0
   -2.0410   21.7160  -29.4550 C   0  0  0  0  0  0  0  0  0  0  0  0
   -0.8590   20.8210  -29.3210 C   0  0  0  0  0  0  0  0  0  0  0  0
   -0.4630   20.3510  -28.0550 C   0  0  0  0  0  0  0  0  0  0  0  0
    0.6510   19.5180  -27.9210 C   0  0  0  0  0  0  0  0  0  0  0  0
    1.3910   19.1320  -29.0410 C   0  0  0  0  0  0  0  0  0  0  0  0
    2.5050   18.3000  -28.8510 O   0  0  0  0  0  0  0  0  0  0  0  0
    2.5130   17.1460  -28.0170 C   0  0  0  0  0  0  0  0  0  0  0  0
    0.9980   19.5880  -30.3120 C   0  0  0  0  0  0  0  0  0  0  0  0
   -0.1150   20.4230  -30.4500 C   0  0  0  0  0  0  0  0  0  0  0  0
   -1.8950   22.9970  -29.2210 N   0  0  0  0  0  0  0  0  0  0  0  0
   -2.9510   24.0190  -29.2640 C   0  0  0  0  0  0  0  0  0  0  0  0
   -6.0678   25.8836  -28.3164 H   0  0  0  0  0  0  0  0  0  0  0  0
   -6.8922   26.9772  -29.4788 H   0  0  0  0  0  0  0  0  0  0  0  0
   -7.2660   25.2202  -29.4788 H   0  0  0  0  0  0  0  0  0  0  0  0
   -5.6384   26.1932  -31.3075 H   0  0  0  0  0  0  0  0  0  0  0  0
   -4.4307   26.1833  -29.9690 H   0  0  0  0  0  0  0  0  0  0  0  0
   -5.8261   20.0054  -31.3328 H   0  0  0  0  0  0  0  0  0  0  0  0
   -8.3380   18.4070  -33.7230 H   0  0  0  0  0  0  0  0  0  0  0  0
   -7.0707   18.3672  -31.1025 H   0  0  0  0  0  0  0  0  0  0  0  0
   -8.2280   17.2178  -31.8919 H   0  0  0  0  0  0  0  0  0  0  0  0
   -5.2146   17.4155  -32.1804 H   0  0  0  0  0  0  0  0  0  0  0  0
   -6.2490   15.9724  -31.9011 H   0  0  0  0  0  0  0  0  0  0  0  0
   -4.7617   17.9659  -34.5267 H   0  0  0  0  0  0  0  0  0  0  0  0
   -6.2508   17.7545  -35.5650 H   0  0  0  0  0  0  0  0  0  0  0  0
   -5.7138   19.6895  -33.3659 H   0  0  0  0  0  0  0  0  0  0  0  0
   -6.8260   19.7913  -34.7872 H   0  0  0  0  0  0  0  0  0  0  0  0
   -8.9840   22.7343  -32.5998 H   0  0  0  0  0  0  0  0  0  0  0  0
   -7.6536   24.6786  -31.7290 H   0  0  0  0  0  0  0  0  0  0  0  0
   -3.8508   20.6477  -28.9950 H   0  0  0  0  0  0  0  0  0  0  0  0
   -3.2335   20.4171  -30.6771 H   0  0  0  0  0  0  0  0  0  0  0  0
   -1.0359   20.6422  -27.1623 H   0  0  0  0  0  0  0  0  0  0  0  0
    0.9482   19.1627  -26.9233 H   0  0  0  0  0  0  0  0  0  0  0  0
    2.5108   17.4563  -26.9617 H   0  0  0  0  0  0  0  0  0  0  0  0
    1.6190   16.5389  -28.2225 H   0  0  0  0  0  0  0  0  0  0  0  0
    3.4153   16.5513  -28.2225 H   0  0  0  0  0  0  0  0  0  0  0  0
    1.5692   19.2862  -31.2023 H   0  0  0  0  0  0  0  0  0  0  0  0
   -0.4129   20.7727  -31.4495 H   0  0  0  0  0  0  0  0  0  0  0  0
   -3.3003   24.2206  -28.2406 H   0  0  0  0  0  0  0  0  0  0  0  0
   -2.5391   24.9343  -29.7140 H   0  0  0  0  0  0  0  0  0  0  0  0
  1  2  1  0
  2  3  1  0
  3  4  1  0
  4  5  2  0
  5  6  1  0
  6  7  2  0
  7  8  1  0
  8  9  1  0
  9 10  2  0
  9 11  1  0
 11 12  1  0
 12 13  1  0
 13 14  1  0
 14 15  1  0
 15 16  1  0
  8 17  2  0
 17 18  1  0
 18 19  2  0
  5 20  1  0
 20 21  1  0
 21 22  1  0
 22 23  2  0
 23 24  1  0
 24 25  2  0
 25 26  1  0
 26 27  1  0
 25 28  1  0
 28 29  2  0
 21 30  2  0
 30 31  1  0
 19  3  1  0
 29 22  1  0
 31  4  1  0
 19  6  1  0
 16 11  1  0
  1 32  1  0
  1 33  1  0
  1 34  1  0
  2 35  1  0
  2 36  1  0
  7 37  1  0
 11 38  1  0
 12 39  1  0
 12 40  1  0
 13 41  1  0
 13 42  1  0
 15 43  1  0
 15 44  1  0
 16 45  1  0
 16 46  1  0
 17 47  1  0
 18 48  1  0
 20 49  1  0
 20 50  1  0
 23 51  1  0
 24 52  1  0
 27 53  1  0
 27 54  1  0
 27 55  1  0
 28 56  1  0
 29 57  1  0
 31 58  1  0
 31 59  1  0
M  CHG  1  11   1
M  END
>  <UniqueID>  (3) 
3

>  <SMILES>  (3) 
CCn1c2c(c3cc(C(=O)[NH+]4CCOCC4)ccc31)CC(c1ccc(OC)cc1)=NC2

>  <Energy>  (3) 
120.82448110588656

>  <Genealogy>  (3) 
CCn1c2c(c3cc(C(=O)[NH+]4CCOCC4)ccc31)CC(c1ccc(OC)cc1)=NC2 (protonated)
CCn1c2c(c3cc(C(=O)[NH+]4CCOCC4)ccc31)CC(c1ccc(OC)cc1)=NC2 (3D coordinates assigned)
CCn1c2c(c3cc(C(=O)[NH+]4CCOCC4)ccc31)CC(c1ccc(OC)cc1)=NC2 (nonaromatic ring conformer: 120.82448110588656 kcal/mol)

>  <smiles>  (3) 
CCn1c2c(c3cc(C(=O)N4CCOCC4)ccc31)CC(c1ccc(OC)cc1)=NC2

>  <score_type>  (3) 
oracle

>  <origin>  (3) 
adg

>  <m_score__min__energy>  (3) 
-8.3900000000000006

>  <m_primary>  (3) 
energy

$$$$
3:0
     RDKit          3D

 80 83  0  0  0  0  0  0  0  0999 V2000
   -5.7810   25.3540  -30.2060 C   0  0  0  0  0  0  0  0  0  0  0  0
   -4.3180   24.9780  -30.4350 C   0  0  0  0  0  0  0  0  0  0  0  0
   -3.7520   24.1410  -29.3590 N   0  0  0  0  0  0  0  0  0  0  0  0
   -4.5600   24.0640  -28.1180 C   0  0  0  0  0  0  0  0  0  0  0  0
   -3.8450   24.5490  -26.8500 C   0  0  0  0  0  0  0  0  0  0  0  0
   -2.2810   24.2250  -29.2150 C   0  0  0  0  0  0  0  0  0  0  0  0
   -1.6830   22.8850  -28.7410 C   0  0  0  0  0  0  0  0  0  0  0  0
   -2.6300   21.7630  -28.9120 N   0  0  0  0  0  0  0  0  0  0  0  0
   -2.0740   20.7040  -29.7470 C   0  0  0  0  0  0  0  0  0  0  0  0
   -1.2590   19.7070  -29.1370 C   0  0  0  0  0  0  0  0  0  0  0  0
   -1.2800   19.4760  -27.7370 C   0  0  0  0  0  0  0  0  0  0  0  0
   -0.4960   18.4760  -27.1550 C   0  0  0  0  0  0  0  0  0  0  0  0
    0.3270   17.6870  -27.9460 C   0  0  0  0  0  0  0  0  0  0  0  0
    1.3850   16.3120  -27.1450 Br  0  0  0  0  0  0  0  0  0  0  0  0
    0.3840   17.9090  -29.3220 C   0  0  0  0  0  0  0  0  0  0  0  0
   -0.3750   18.9420  -29.9360 C   0  0  0  0  0  0  0  0  0  0  0  0
   -0.2480   19.2220  -31.2740 N   0  0  0  0  0  0  0  0  0  0  0  0
    0.9470   18.7510  -32.0110 C   0  0  0  0  0  0  0  0  0  0  0  0
   -1.2200   19.9620  -31.9230 C   0  0  0  0  0  0  0  0  0  0  0  0
   -1.2780   19.9810  -33.3390 C   0  0  0  0  0  0  0  0  0  0  0  0
   -2.2250   20.7320  -34.0140 C   0  0  0  0  0  0  0  0  0  0  0  0
   -3.1780   21.4350  -33.3090 C   0  0  0  0  0  0  0  0  0  0  0  0
   -3.2140   21.4020  -31.9130 C   0  0  0  0  0  0  0  0  0  0  0  0
   -4.3840   21.9670  -31.3140 N   0  0  0  0  0  0  0  0  0  0  0  0
   -5.4300   22.5710  -32.1420 C   0  0  0  0  0  0  0  0  0  0  0  0
   -6.7970   21.9860  -31.7720 C   0  0  0  0  0  0  0  0  0  0  0  0
   -6.6910   20.4750  -31.4860 C   0  0  0  0  0  0  0  0  0  0  0  0
   -7.2750   19.5360  -32.5140 N   0  0  0  0  0  0  0  0  0  0  0  0
   -8.6720   20.0150  -32.7200 C   0  0  0  0  0  0  0  0  0  0  0  0
   -7.3780   18.1150  -32.0420 C   0  0  0  0  0  0  0  0  0  0  0  0
   -6.1150   17.2530  -32.2530 C   0  0  0  0  0  0  0  0  0  0  0  0
   -5.6020   17.3550  -33.6820 C   0  0  0  0  0  0  0  0  0  0  0  0
   -5.3270   18.8080  -34.0300 C   0  0  0  0  0  0  0  0  0  0  0  0
   -6.5930   19.6590  -33.8510 C   0  0  0  0  0  0  0  0  0  0  0  0
   -2.1890   20.7070  -31.1770 C   0  0  0  0  0  0  0  0  0  0  0  0
   -5.9816   25.4055  -29.1257 H   0  0  0  0  0  0  0  0  0  0  0  0
   -5.9838   26.3335  -30.6637 H   0  0  0  0  0  0  0  0  0  0  0  0
   -6.4310   24.5937  -30.6637 H   0  0  0  0  0  0  0  0  0  0  0  0
   -4.2446   24.4242  -31.3826 H   0  0  0  0  0  0  0  0  0  0  0  0
   -3.7415   25.9146  -30.4548 H   0  0  0  0  0  0  0  0  0  0  0  0
   -5.4612   24.6789  -28.2584 H   0  0  0  0  0  0  0  0  0  0  0  0
   -4.7803   22.9981  -27.9592 H   0  0  0  0  0  0  0  0  0  0  0  0
   -4.3834   24.1838  -25.9630 H   0  0  0  0  0  0  0  0  0  0  0  0
   -2.8153   24.1622  -26.8390 H   0  0  0  0  0  0  0  0  0  0  0  0
   -3.8237   25.6487  -26.8390 H   0  0  0  0  0  0  0  0  0  0  0  0
   -1.8409   24.4887  -30.1880 H   0  0  0  0  0  0  0  0  0  0  0  0
   -2.0509   24.9920  -28.4609 H   0  0  0  0  0  0  0  0  0  0  0  0
   -0.7750   22.6752  -29.3253 H   0  0  0  0  0  0  0  0  0  0  0  0
   -1.4549   22.9758  -27.6687 H   0  0  0  0  0  0  0  0  0  0  0  0
   -3.4910   22.1730  -29.2840 H   0  0  0  0  0  0  0  0  0  0  0  0
   -2.9310   21.3860  -27.9860 H   0  0  0  0  0  0  0  0  0  0  0  0
   -1.9257   20.0959  -27.0976 H   0  0  0  0  0  0  0  0  0  0  0  0
   -0.5314   18.3141  -26.0676 H   0  0  0  0  0  0  0  0  0  0  0  0
    1.0294   17.2717  -29.9444 H   0  0  0  0  0  0  0  0  0  0  0  0
    1.7231   18.4451  -31.2939 H   0  0  0  0  0  0  0  0  0  0  0  0
    0.6735   17.8934  -32.6433 H   0  0  0  0  0  0  0  0  0  0  0  0
    1.3321   19.5646  -32.6433 H   0  0  0  0  0  0  0  0  0  0  0  0
   -0.5541   19.3855  -33.9147 H   0  0  0  0  0  0  0  0  0  0  0  0
   -2.2169   20.7677  -35.1134 H   0  0  0  0  0  0  0  0  0  0  0  0
   -3.9231   22.0323  -33.8550 H   0  0  0  0  0  0  0  0  0  0  0  0
   -4.3030   22.2860  -30.3160 H   0  0  0  0  0  0  0  0  0  0  0  0
   -5.4426   23.6584  -31.9765 H   0  0  0  0  0  0  0  0  0  0  0  0
   -5.2207   22.3562  -33.2003 H   0  0  0  0  0  0  0  0  0  0  0  0
   -7.1759   22.4965  -30.8743 H   0  0  0  0  0  0  0  0  0  0  0  0
   -7.4834   22.1356  -32.6184 H   0  0  0  0  0  0  0  0  0  0  0  0
   -5.6231   20.2315  -31.3841 H   0  0  0  0  0  0  0  0  0  0  0  0
   -7.2941   20.3147  -30.5802 H   0  0  0  0  0  0  0  0  0  0  0  0
   -9.1510   20.1793  -31.7435 H   0  0  0  0  0  0  0  0  0  0  0  0
   -8.6565   20.9591  -33.2842 H   0  0  0  0  0  0  0  0  0  0  0  0
   -9.2391   19.2600  -33.2842 H   0  0  0  0  0  0  0  0  0  0  0  0
   -7.6019   18.1307  -30.9651 H   0  0  0  0  0  0  0  0  0  0  0  0
   -8.1670   17.6501  -32.6514 H   0  0  0  0  0  0  0  0  0  0  0  0
   -5.3284   17.5973  -31.5655 H   0  0  0  0  0  0  0  0  0  0  0  0
   -6.3768   16.2032  -32.0546 H   0  0  0  0  0  0  0  0  0  0  0  0
   -4.6725   16.7747  -33.7782 H   0  0  0  0  0  0  0  0  0  0  0  0
   -6.3624   16.9556  -34.3692 H   0  0  0  0  0  0  0  0  0  0  0  0
   -4.5364   19.1939  -33.3697 H   0  0  0  0  0  0  0  0  0  0  0  0
   -5.0085   18.8653  -35.0813 H   0  0  0  0  0  0  0  0  0  0  0  0
   -6.3150   20.7137  -33.9935 H   0  0  0  0  0  0  0  0  0  0  0  0
   -7.3144   19.2856  -34.5927 H   0  0  0  0  0  0  0  0  0  0  0  0
  1  2  1  0
  2  3  1  0
  3  4  1  0
  4  5  1  0
  3  6  1  0
  6  7  1  0
  7  8  1  0
  8  9  1  0
  9 10  2  0
 10 11  1  0
 11 12  2  0
 12 13  1  0
 13 14  1  0
 13 15  2  0
 15 16  1  0
 16 17  2  0
 17 18  1  0
 17 19  1  0
 19 20  2  0
 20 21  1  0
 21 22  2  0
 22 23  1  0
 23 24  1  0
 24 25  1  0
 25 26  1  0
 26 27  1  0
 27 28  1  0
 28 29  1  0
 28 30  1  0
 30 31  1  0
 31 32  1  0
 32 33  1  0
 33 34  1  0
 23 35  2  0
 35  9  1  0
 16 10  1  0
 35 19  1  0
 34 28  1  0
  1 36  1  0
  1 37  1  0
  1 38  1  0
  2 39  1  0
  2 40  1  0
  4 41  1  0
  4 42  1  0
  5 43  1  0
  5 44  1  0
  5 45  1  0
  6 46  1  0
  6 47  1  0
  7 48  1  0
  7 49  1  0
  8 50  1  0
  8 51  1  0
 11 52  1  0
 12 53  1  0
 15 54  1  0
 18 55  1  0
 18 56  1  0
 18 57  1  0
 20 58  1  0
 21 59  1  0
 22 60  1  0
 24 61  1  0
 25 62  1  0
 25 63  1  0
 26 64  1  0
 26 65  1  0
 27 66  1  0
 27 67  1  0
 29 68  1  0
 29 69  1  0
 29 70  1  0
 30 71  1  0
 30 72  1  0
 31 73  1  0
 31 74  1  0
 32 75  1  0
 32 76  1  0
 33 77  1  0
 33 78  1  0
 34 79  1  0
 34 80  1  0
M  CHG  3   8   1  17   1  28   1
M  END
>  <UniqueID>  (4) 
4

>  <SMILES>  (4) 
CCN(CC)CC[NH2+]c1c2ccc(Br)cc2[n+](C)c2cccc(NCCC[N+]3(C)CCCCC3)c12

>  <Energy>  (4) 
142.7839338134227

>  <Genealogy>  (4) 
CCN(CC)CC[NH2+]c1c2ccc(Br)cc2[n+](C)c2cccc(NCCC[N+]3(C)CCCCC3)c12 (protonated)
CCN(CC)CC[NH2+]c1c2ccc(Br)cc2[n+](C)c2cccc(NCCC[N+]3(C)CCCCC3)c12 (3D coordinates assigned)
CCN(CC)CC[NH2+]c1c2ccc(Br)cc2[n+](C)c2cccc(NCCC[N+]3(C)CCCCC3)c12 (nonaromatic ring conformer: 142.7839338134227 kcal/mol)

>  <smiles>  (4) 
CCN(CC)CCNc1c2ccc(Br)cc2[n+](C)c2cccc(NCCC[N+]3(C)CCCCC3)c12

>  <score_type>  (4) 
oracle

>  <origin>  (4) 
adg

>  <m_score__min__energy>  (4) 
-7.9500000000000002

>  <m_primary>  (4) 
energy

$$$$
4:0
     RDKit          3D

 43 43  0  0  0  0  0  0  0  0999 V2000
   -2.8080   20.3830  -33.1940 C   0  0  0  0  0  0  0  0  0  0  0  0
   -3.4760   21.4300  -32.3100 C   0  0  0  0  0  0  0  0  0  0  0  0
   -4.5360   22.1200  -33.0580 N   0  0  0  0  0  0  0  0  0  0  0  0
   -5.4370   22.8860  -32.1790 C   0  0  0  0  0  0  0  0  0  0  0  0
   -6.8000   22.9890  -32.7380 N   0  0  0  0  0  0  0  0  0  0  0  0
   -7.8180   23.1200  -31.6800 C   0  0  0  0  0  0  0  0  0  0  0  0
   -9.0220   22.1870  -31.9010 C   0  0  0  0  0  0  0  0  0  0  0  0
   -8.6950   20.6890  -31.7500 C   0  0  0  0  0  0  0  0  0  0  0  0
   -8.1470   20.0500  -33.0380 C   0  0  0  0  0  0  0  0  0  0  0  0
   -6.6670   19.9970  -33.0200 N   0  0  0  0  0  0  0  0  0  0  0  0
   -6.0760   19.3030  -34.1860 C   0  0  0  0  0  0  0  0  0  0  0  0
   -6.2460   17.7770  -34.1280 C   0  0  0  0  0  0  0  0  0  0  0  0
   -5.7220   17.2170  -32.8050 C   0  0  0  0  0  0  0  0  0  0  0  0
   -6.3490   17.9470  -31.6210 C   0  0  0  0  0  0  0  0  0  0  0  0
   -6.1340   19.4600  -31.7490 C   0  0  0  0  0  0  0  0  0  0  0  0
   -2.3239   19.6242  -32.5617 H   0  0  0  0  0  0  0  0  0  0  0  0
   -3.5662   19.9016  -33.8291 H   0  0  0  0  0  0  0  0  0  0  0  0
   -2.0519   20.8677  -33.8291 H   0  0  0  0  0  0  0  0  0  0  0  0
   -3.9138   20.9370  -31.4295 H   0  0  0  0  0  0  0  0  0  0  0  0
   -2.7229   22.1656  -31.9911 H   0  0  0  0  0  0  0  0  0  0  0  0
   -5.0830   21.4090  -33.5940 H   0  0  0  0  0  0  0  0  0  0  0  0
   -5.4910   22.3840  -31.2017 H   0  0  0  0  0  0  0  0  0  0  0  0
   -5.0320   23.9041  -32.0817 H   0  0  0  0  0  0  0  0  0  0  0  0
   -6.9890   22.1030  -33.2610 H   0  0  0  0  0  0  0  0  0  0  0  0
   -6.8560   23.7900  -33.4090 H   0  0  0  0  0  0  0  0  0  0  0  0
   -7.3549   22.8751  -30.7128 H   0  0  0  0  0  0  0  0  0  0  0  0
   -8.1895   24.1552  -31.7003 H   0  0  0  0  0  0  0  0  0  0  0  0
   -9.7990   22.4464  -31.1668 H   0  0  0  0  0  0  0  0  0  0  0  0
   -9.3513   22.3359  -32.9399 H   0  0  0  0  0  0  0  0  0  0  0  0
   -7.9419   20.5748  -30.9564 H   0  0  0  0  0  0  0  0  0  0  0  0
   -9.6363   20.1741  -31.5073 H   0  0  0  0  0  0  0  0  0  0  0  0
   -8.5419   19.0272  -33.1276 H   0  0  0  0  0  0  0  0  0  0  0  0
   -8.4639   20.6636  -33.8942 H   0  0  0  0  0  0  0  0  0  0  0  0
   -6.5634   19.6752  -35.0992 H   0  0  0  0  0  0  0  0  0  0  0  0
   -4.9963   19.5135  -34.1808 H   0  0  0  0  0  0  0  0  0  0  0  0
   -7.3135   17.5300  -34.2255 H   0  0  0  0  0  0  0  0  0  0  0  0
   -5.6699   17.3287  -34.9509 H   0  0  0  0  0  0  0  0  0  0  0  0
   -5.9713   16.1475  -32.7422 H   0  0  0  0  0  0  0  0  0  0  0  0
   -4.6318   17.3590  -32.7693 H   0  0  0  0  0  0  0  0  0  0  0  0
   -7.4282   17.7355  -31.5954 H   0  0  0  0  0  0  0  0  0  0  0  0
   -5.8722   17.5967  -30.6936 H   0  0  0  0  0  0  0  0  0  0  0  0
   -6.6422   19.9616  -30.9122 H   0  0  0  0  0  0  0  0  0  0  0  0
   -5.0504   19.6486  -31.7320 H   0  0  0  0  0  0  0  0  0  0  0  0
  1  2  1  0
  2  3  1  0
  3  4  1  0
  4  5  1  0
  5  6  1  0
  6  7  1  0
  7  8  1  0
  8  9  1  0
  9 10  1  0
 10 11  1  0
 11 12  1  0
 12 13  1  0
 13 14  1  0
 14 15  1  0
 15 10  1  0
  1 16  1  0
  1 17  1  0
  1 18  1  0
  2 19  1  0
  2 20  1  0
  3 21  1  0
  4 22  1  0
  4 23  1  0
  5 24  1  0
  5 25  1  0
  6 26  1  0
  6 27  1  0
  7 28  1  0
  7 29  1  0
  8 30  1  0
  8 31  1  0
  9 32  1  0
  9 33  1  0
 11 34  1  0
 11 35  1  0
 12 36  1  0
 12 37  1  0
 13 38  1  0
 13 39  1  0
 14 40  1  0
 14 41  1  0
 15 42  1  0
 15 43  1  0
M  CHG  1   5   1
M  END
>  <UniqueID>  (5) 
5

>  <SMILES>  (5) 
CCNC[NH2+]CCCCN1CCCCC1

>  <Energy>  (5) 
37.509399010853166

>  <Genealogy>  (5) 
CCNC[NH2+]CCCCN1CCCCC1 (protonated)
CCNC[NH2+]CCCCN1CCCCC1 (3D coordinates assigned)
CCNC[NH2+]CCCCN1CCCCC1 (nonaromatic ring conformer: 37.509399010853166 kcal/mol)

>  <smiles>  (5) 
CCNCNCCCCN1CCCCC1

>  <score_type>  (5) 
oracle

>  <origin>  (5) 
adg

>  <m_score__min__energy>  (5) 
-5.46

>  <m_primary>  (5) 
energy

$$$$
5:0
     RDKit          3D

 32 33  0  0  0  0  0  0  0  0999 V2000
   -9.1100   19.6260  -32.4710 C   0  0  0  0  0  0  0  0  0  0  0  0
   -8.1000   18.8240  -31.6670 C   0  0  0  0  0  0  0  0  0  0  0  0
   -7.9150   17.5480  -32.2700 O   0  0  0  0  0  0  0  0  0  0  0  0
   -6.6980   17.1460  -32.8270 C   0  0  0  0  0  0  0  0  0  0  0  0
   -5.7670   16.7110  -32.0960 O   0  0  0  0  0  0  0  0  0  0  0  0
   -6.4850   17.2830  -34.3010 C   0  0  0  0  0  0  0  0  0  0  0  0
   -5.2150   17.9500  -34.5740 N   0  0  0  0  0  0  0  0  0  0  0  0
   -4.8410   19.1310  -33.8570 C   0  0  0  0  0  0  0  0  0  0  0  0
   -5.6820   20.0190  -33.3900 O   0  0  0  0  0  0  0  0  0  0  0  0
   -4.9530   20.9440  -32.8000 C   0  0  0  0  0  0  0  0  0  0  0  0
   -5.5190   22.1250  -32.1430 C   0  0  0  0  0  0  0  0  0  0  0  0
   -6.8530   22.3120  -31.8280 C   0  0  0  0  0  0  0  0  0  0  0  0
   -6.9260   23.5520  -31.2270 C   0  0  0  0  0  0  0  0  0  0  0  0
   -5.6300   24.0320  -31.2190 C   0  0  0  0  0  0  0  0  0  0  0  0
   -5.2100   25.2930  -30.6900 N   0  0  0  0  0  0  0  0  0  0  0  0
   -4.0290   25.6740  -30.8200 O   0  0  0  0  0  0  0  0  0  0  0  0
   -6.1140   26.0940  -30.0330 O   0  0  0  0  0  0  0  0  0  0  0  0
   -4.8110   23.1660  -31.7680 O   0  0  0  0  0  0  0  0  0  0  0  0
   -3.6250   20.6940  -32.8620 N   0  0  0  0  0  0  0  0  0  0  0  0
   -3.5660   19.5330  -33.5400 C   0  0  0  0  0  0  0  0  0  0  0  0
   -2.3430   18.8490  -33.8610 C   0  0  0  0  0  0  0  0  0  0  0  0
   -1.3590   18.2980  -34.1200 N   0  0  0  0  0  0  0  0  0  0  0  0
   -9.7833   20.1607  -31.7849 H   0  0  0  0  0  0  0  0  0  0  0  0
   -8.5803   20.3523  -33.1050 H   0  0  0  0  0  0  0  0  0  0  0  0
   -9.6974   18.9455  -33.1050 H   0  0  0  0  0  0  0  0  0  0  0  0
   -7.1403   19.3611  -31.6448 H   0  0  0  0  0  0  0  0  0  0  0  0
   -8.4720   18.6924  -30.6402 H   0  0  0  0  0  0  0  0  0  0  0  0
   -6.4749   16.2833  -34.7598 H   0  0  0  0  0  0  0  0  0  0  0  0
   -7.3019   17.8860  -34.7241 H   0  0  0  0  0  0  0  0  0  0  0  0
   -4.5630   17.5710  -35.2990 H   0  0  0  0  0  0  0  0  0  0  0  0
   -7.6837   21.6162  -32.0174 H   0  0  0  0  0  0  0  0  0  0  0  0
   -7.8248   24.0522  -30.8371 H   0  0  0  0  0  0  0  0  0  0  0  0
  1  2  1  0
  2  3  1  0
  3  4  1  0
  4  5  2  0
  4  6  1  0
  6  7  1  0
  7  8  1  0
  8  9  1  0
  9 10  1  0
 10 11  1  0
 11 12  2  0
 12 13  1  0
 13 14  2  0
 14 15  1  0
 15 16  2  0
 15 17  1  0
 14 18  1  0
 10 19  2  0
 19 20  1  0
 20 21  1  0
 21 22  3  0
 20  8  2  0
 18 11  1  0
  1 23  1  0
  1 24  1  0
  1 25  1  0
  2 26  1  0
  2 27  1  0
  6 28  1  0
  6 29  1  0
  7 30  1  0
 12 31  1  0
 13 32  1  0
M  CHG  2  15   1  17  -1
M  END
>  <UniqueID>  (6) 
6

>  <SMILES>  (6) 
CCOC(=O)CNc1oc(-c2ccc([N+](=O)[O-])o2)nc1C#N

>  <Energy>  (6) 
78.43792845084538

>  <Genealogy>  (6) 
CCOC(=O)CNc1oc(-c2ccc([N+](=O)[O-])o2)nc1C#N (3D coordinates assigned)
CCOC(=O)CNc1oc(-c2ccc([N+](=O)[O-])o2)nc1C#N (optimized conformer: 78.43792845084538 kcal/mol)

>  <smiles>  (6) 
CCOC(=O)CNc1oc(-c2ccc([N+](=O)[O-])o2)nc1C#N

>  <score_type>  (6) 
oracle

>  <origin>  (6) 
adg

>  <m_score__min__energy>  (6) 
-6.5

>  <m_primary>  (6) 
energy

$$$$
6:0
     RDKit          3D

 56 59  0  0  0  0  0  0  0  0999 V2000
   -8.9990   19.8140  -32.5430 C   0  0  0  0  0  0  0  0  0  0  0  0
   -7.6900   20.4470  -32.6640 N   0  0  0  0  0  0  0  0  0  0  0  0
   -6.5750   19.8860  -33.1890 C   0  0  0  0  0  0  0  0  0  0  0  0
   -5.4900   20.7480  -33.0630 C   0  0  0  0  0  0  0  0  0  0  0  0
   -5.9880   21.8640  -32.4250 C   0  0  0  0  0  0  0  0  0  0  0  0
   -5.3410   23.0230  -32.0060 C   0  0  0  0  0  0  0  0  0  0  0  0
   -6.0940   23.9960  -31.3090 C   0  0  0  0  0  0  0  0  0  0  0  0
   -5.4250   25.2620  -30.8330 C   0  0  0  0  0  0  0  0  0  0  0  0
   -3.9670   25.1290  -30.6360 N   0  0  0  0  0  0  0  0  0  0  0  0
   -3.4700   24.5410  -29.3660 C   0  0  2  0  0  0  0  0  0  0  0  0
   -1.9550   24.2880  -29.3330 C   0  0  0  0  0  0  0  0  0  0  0  0
   -1.5090   23.7620  -27.9570 C   0  0  0  0  0  0  0  0  0  0  0  0
   -2.3010   22.6090  -27.4530 N   0  0  2  0  0  0  0  0  0  0  0  0
   -1.7720   21.2620  -27.8100 C   0  0  0  0  0  0  0  0  0  0  0  0
   -2.5520   20.5040  -28.8990 C   0  0  0  0  0  0  0  0  0  0  0  0
   -1.9580   20.7570  -30.2580 C   0  0  0  0  0  0  0  0  0  0  0  0
   -2.7640   21.2000  -31.3190 C   0  0  0  0  0  0  0  0  0  0  0  0
   -2.2050   21.4280  -32.5810 C   0  0  0  0  0  0  0  0  0  0  0  0
   -0.8380   21.2220  -32.7880 C   0  0  0  0  0  0  0  0  0  0  0  0
   -0.0260   20.7970  -31.7330 C   0  0  0  0  0  0  0  0  0  0  0  0
   -0.5810   20.5700  -30.4700 C   0  0  0  0  0  0  0  0  0  0  0  0
   -3.7740   22.7580  -27.5990 C   0  0  0  0  0  0  0  0  0  0  0  0
   -4.2340   23.2720  -28.9710 C   0  0  0  0  0  0  0  0  0  0  0  0
   -7.4870   23.7960  -31.1180 C   0  0  0  0  0  0  0  0  0  0  0  0
   -8.1080   22.6060  -31.5440 C   0  0  0  0  0  0  0  0  0  0  0  0
   -7.3210   21.6540  -32.1940 C   0  0  0  0  0  0  0  0  0  0  0  0
   -9.2505   19.6924  -31.4791 H   0  0  0  0  0  0  0  0  0  0  0  0
   -9.7577   20.4448  -33.0293 H   0  0  0  0  0  0  0  0  0  0  0  0
   -8.9757   18.8276  -33.0293 H   0  0  0  0  0  0  0  0  0  0  0  0
   -6.5329   18.8884  -33.6505 H   0  0  0  0  0  0  0  0  0  0  0  0
   -4.4571   20.5760  -33.4000 H   0  0  0  0  0  0  0  0  0  0  0  0
   -4.2716   23.1780  -32.2118 H   0  0  0  0  0  0  0  0  0  0  0  0
   -5.6035   26.0501  -31.5793 H   0  0  0  0  0  0  0  0  0  0  0  0
   -5.8597   25.5043  -29.8520 H   0  0  0  0  0  0  0  0  0  0  0  0
   -3.4850   26.0350  -30.8430 H   0  0  0  0  0  0  0  0  0  0  0  0
   -3.6697   25.3192  -28.6146 H   0  0  0  0  0  0  0  0  0  0  0  0
   -1.6985   23.5444  -30.1019 H   0  0  0  0  0  0  0  0  0  0  0  0
   -1.4384   25.2396  -29.5266 H   0  0  0  0  0  0  0  0  0  0  0  0
   -0.4570   23.4497  -28.0328 H   0  0  0  0  0  0  0  0  0  0  0  0
   -1.6624   24.5840  -27.2424 H   0  0  0  0  0  0  0  0  0  0  0  0
   -2.1550   22.6400  -26.4150 H   0  0  0  0  0  0  0  0  0  0  0  0
   -0.7373   21.3879  -28.1615 H   0  0  0  0  0  0  0  0  0  0  0  0
   -1.8634   20.6535  -26.8982 H   0  0  0  0  0  0  0  0  0  0  0  0
   -2.5147   19.4258  -28.6845 H   0  0  0  0  0  0  0  0  0  0  0  0
   -3.5929   20.8596  -28.8982 H   0  0  0  0  0  0  0  0  0  0  0  0
   -3.8389   21.3684  -31.1573 H   0  0  0  0  0  0  0  0  0  0  0  0
   -2.8414   21.7695  -33.4107 H   0  0  0  0  0  0  0  0  0  0  0  0
   -0.4009   21.3946  -33.7825 H   0  0  0  0  0  0  0  0  0  0  0  0
    1.0505   20.6410  -31.8964 H   0  0  0  0  0  0  0  0  0  0  0  0
    0.0621   20.2439  -29.6393 H   0  0  0  0  0  0  0  0  0  0  0  0
   -4.2364   21.7745  -27.4289 H   0  0  0  0  0  0  0  0  0  0  0  0
   -4.0841   23.5150  -26.8636 H   0  0  0  0  0  0  0  0  0  0  0  0
   -4.0528   22.4931  -29.7263 H   0  0  0  0  0  0  0  0  0  0  0  0
   -5.3061   23.5115  -28.9144 H   0  0  0  0  0  0  0  0  0  0  0  0
   -8.0874   24.5791  -30.6320 H   0  0  0  0  0  0  0  0  0  0  0  0
   -9.1801   22.4321  -31.3699 H   0  0  0  0  0  0  0  0  0  0  0  0
  1  2  1  0
  2  3  1  0
  3  4  2  0
  4  5  1  0
  5  6  2  0
  6  7  1  0
  7  8  1  0
  8  9  1  0
  9 10  1  0
 10 11  1  0
 11 12  1  0
 12 13  1  0
 13 14  1  0
 14 15  1  0
 15 16  1  0
 16 17  2  0
 17 18  1  0
 18 19  2  0
 19 20  1  0
 20 21  2  0
 13 22  1  0
 22 23  1  0
  7 24  2  0
 24 25  1  0
 25 26  2  0
 26  2  1  0
 26  5  1  0
 23 10  1  0
 21 16  1  0
  1 27  1  0
  1 28  1  0
  1 29  1  0
  3 30  1  0
  4 31  1  0
  6 32  1  0
  8 33  1  0
  8 34  1  0
  9 35  1  0
 10 36  1  1
 11 37  1  0
 11 38  1  0
 12 39  1  0
 12 40  1  0
 13 41  1  1
 14 42  1  0
 14 43  1  0
 15 44  1  0
 15 45  1  0
 17 46  1  0
 18 47  1  0
 19 48  1  0
 20 49  1  0
 21 50  1  0
 22 51  1  0
 22 52  1  0
 23 53  1  0
 23 54  1  0
 24 55  1  0
 25 56  1  0
M  CHG  1  13   1
M  END
>  <UniqueID>  (7) 
7

>  <SMILES>  (7) 
Cn1ccc2cc(CNC3CC[NH+](CCc4ccccc4)CC3)ccc21

>  <Energy>  (7) 
101.9071216208781

>  <Genealogy>  (7) 
Cn1ccc2cc(CNC3CC[NH+](CCc4ccccc4)CC3)ccc21 (protonated)
Cn1ccc2cc(CNC3CC[NH+](CCc4ccccc4)CC3)ccc21 (3D coordinates assigned)
Cn1ccc2cc(CNC3CC[NH+](CCc4ccccc4)CC3)ccc21 (nonaromatic ring conformer: 101.9071216208781 kcal/mol)

>  <smiles>  (7) 
Cn1ccc2cc(CNC3CCN(CCc4ccccc4)CC3)ccc21

>  <score_type>  (7) 
oracle

>  <origin>  (7) 
adg

>  <m_score__min__energy>  (7) 
-8.7699999999999996

>  <m_primary>  (7) 
energy

$$$$
7:0
     RDKit          3D

 42 44  0  0  0  0  0  0  0  0999 V2000
   -6.3090   17.4750  -31.1440 C   0  0  0  0  0  0  0  0  0  0  0  0
   -7.4520   18.0590  -31.9660 C   0  0  0  0  0  0  0  0  0  0  0  0
   -7.0320   19.2630  -32.6930 N   0  0  0  0  0  0  0  0  0  0  0  0
   -7.4670   20.5280  -32.4790 C   0  0  0  0  0  0  0  0  0  0  0  0
   -8.9130   20.9640  -31.5070 S   0  0  0  0  0  0  0  0  0  0  0  0
   -8.3490   22.6490  -31.0530 C   0  0  0  0  0  0  0  0  0  0  0  0
   -7.1330   22.6530  -30.1110 C   0  0  0  0  0  0  0  0  0  0  0  0
   -5.8710   22.9580  -30.8230 N   0  0  0  0  0  0  0  0  0  0  0  0
   -4.7000   22.9050  -29.9100 C   0  0  0  0  0  0  0  0  0  0  0  0
   -3.5620   23.8170  -30.4010 C   0  0  0  0  0  0  0  0  0  0  0  0
   -3.9280   25.1870  -30.4680 O   0  0  0  0  0  0  0  0  0  0  0  0
   -5.3060   25.3960  -30.7530 C   0  0  0  0  0  0  0  0  0  0  0  0
   -5.9530   24.2490  -31.5490 C   0  0  0  0  0  0  0  0  0  0  0  0
   -6.6540   21.4440  -33.0370 N   0  0  0  0  0  0  0  0  0  0  0  0
   -5.6940   20.7630  -33.6390 N   0  0  0  0  0  0  0  0  0  0  0  0
   -5.9150   19.4510  -33.4370 C   0  0  0  0  0  0  0  0  0  0  0  0
   -5.0100   18.3940  -33.9360 C   0  0  0  0  0  0  0  0  0  0  0  0
   -5.4450   17.2060  -34.5440 C   0  0  0  0  0  0  0  0  0  0  0  0
   -4.4100   16.3860  -34.9710 C   0  0  0  0  0  0  0  0  0  0  0  0
   -2.9580   17.1470  -34.6080 S   0  0  0  0  0  0  0  0  0  0  0  0
   -3.6240   18.5210  -33.9070 C   0  0  0  0  0  0  0  0  0  0  0  0
   -6.5321   17.5890  -30.0729 H   0  0  0  0  0  0  0  0  0  0  0  0
   -6.1937   16.4075  -31.3829 H   0  0  0  0  0  0  0  0  0  0  0  0
   -5.3764   18.0071  -31.3829 H   0  0  0  0  0  0  0  0  0  0  0  0
   -7.7928   17.3048  -32.6905 H   0  0  0  0  0  0  0  0  0  0  0  0
   -8.2643   18.3371  -31.2784 H   0  0  0  0  0  0  0  0  0  0  0  0
   -8.0784   23.1861  -31.9740 H   0  0  0  0  0  0  0  0  0  0  0  0
   -9.1771   23.1351  -30.5164 H   0  0  0  0  0  0  0  0  0  0  0  0
   -7.2919   23.4128  -29.3316 H   0  0  0  0  0  0  0  0  0  0  0  0
   -7.0399   21.6462  -29.6778 H   0  0  0  0  0  0  0  0  0  0  0  0
   -5.0131   23.2319  -28.9074 H   0  0  0  0  0  0  0  0  0  0  0  0
   -4.3275   21.8703  -29.8852 H   0  0  0  0  0  0  0  0  0  0  0  0
   -2.7117   23.7164  -29.7105 H   0  0  0  0  0  0  0  0  0  0  0  0
   -3.3073   23.4980  -31.4225 H   0  0  0  0  0  0  0  0  0  0  0  0
   -5.8451   25.5052  -29.8004 H   0  0  0  0  0  0  0  0  0  0  0  0
   -5.3721   26.2988  -31.3780 H   0  0  0  0  0  0  0  0  0  0  0  0
   -7.0114   24.4913  -31.7256 H   0  0  0  0  0  0  0  0  0  0  0  0
   -5.4074   24.1421  -32.4981 H   0  0  0  0  0  0  0  0  0  0  0  0
   -4.9070   21.1970  -34.1700 H   0  0  0  0  0  0  0  0  0  0  0  0
   -6.5071   16.9490  -34.6702 H   0  0  0  0  0  0  0  0  0  0  0  0
   -4.5215   15.4079  -35.4618 H   0  0  0  0  0  0  0  0  0  0  0  0
   -3.0624   19.3730  -33.4964 H   0  0  0  0  0  0  0  0  0  0  0  0
  1  2  1  0
  2  3  1  0
  3  4  1  0
  4  5  1  0
  5  6  1  0
  6  7  1  0
  7  8  1  0
  8  9  1  0
  9 10  1  0
 10 11  1  0
 11 12  1  0
 12 13  1  0
  4 14  2  0
 14 15  1  0
 15 16  2  0
 16 17  1  0
 17 18  1  0
 18 19  2  0
 19 20  1  0
 20 21  1  0
 16  3  1  0
 21 17  2  0
 13  8  1  0
  1 22  1  0
  1 23  1  0
  1 24  1  0
  2 25  1  0
  2 26  1  0
  6 27  1  0
  6 28  1  0
  7 29  1  0
  7 30  1  0
  9 31  1  0
  9 32  1  0
 10 33  1  0
 10 34  1  0
 12 35  1  0
 12 36  1  0
 13 37  1  0
 13 38  1  0
 15 39  1  0
 18 40  1  0
 19 41  1  0
 21 42  1  0
M  CHG  1  15   1
M  END
>  <UniqueID>  (8) 
8

>  <SMILES>  (8) 
CCn1c(SCCN2CCOCC2)n[nH+]c1-c1ccsc1

>  <Energy>  (8) 
115.62477808540066

>  <Genealogy>  (8) 
CCn1c(SCCN2CCOCC2)n[nH+]c1-c1ccsc1 (protonated)
CCn1c(SCCN2CCOCC2)n[nH+]c1-c1ccsc1 (3D coordinates assigned)
CCn1c(SCCN2CCOCC2)n[nH+]c1-c1ccsc1 (nonaromatic ring conformer: 115.62477808540066 kcal/mol)

>  <smiles>  (8) 
CCn1c(SCCN2CCOCC2)nnc1-c1ccsc1

>  <score_type>  (8) 
oracle

>  <origin>  (8) 
adg

>  <m_score__min__energy>  (8) 
-7.6799999999999997

>  <m_primary>  (8) 
energy

$$$$
8:0
     RDKit          3D

 52 54  0  0  0  0  0  0  0  0999 V2000
   -0.0080   23.9580  -28.1710 C   0  0  0  0  0  0  0  0  0  0  0  0
   -0.8930   24.1720  -29.3900 C   0  0  0  0  0  0  0  0  0  0  0  0
   -2.1140   24.7530  -28.9830 O   0  0  0  0  0  0  0  0  0  0  0  0
   -1.9670   25.2940  -27.6860 C   0  0  0  0  0  0  0  0  0  0  0  0
   -3.1270   24.8320  -26.8140 C   0  0  0  0  0  0  0  0  0  0  0  0
   -3.7460   23.7180  -27.4270 O   0  0  0  0  0  0  0  0  0  0  0  0
   -2.9790   22.5470  -27.2230 C   0  0  0  0  0  0  0  0  0  0  0  0
   -3.0040   21.6900  -28.4910 C   0  0  0  0  0  0  0  0  0  0  0  0
   -3.3920   22.4900  -29.6490 N   0  0  0  0  0  0  0  0  0  0  0  0
   -3.2480   21.9920  -30.9830 C   0  0  0  0  0  0  0  0  0  0  0  0
   -2.1150   21.6240  -31.5250 O   0  0  0  0  0  0  0  0  0  0  0  0
   -2.4000   21.2130  -32.7440 C   0  0  0  0  0  0  0  0  0  0  0  0
   -1.3860   20.7070  -33.6910 C   0  0  0  0  0  0  0  0  0  0  0  0
   -1.3800   19.3510  -34.0600 C   0  0  0  0  0  0  0  0  0  0  0  0
   -0.4250   18.8680  -34.9600 C   0  0  0  0  0  0  0  0  0  0  0  0
    0.5310   19.7330  -35.4990 C   0  0  0  0  0  0  0  0  0  0  0  0
    0.5340   21.0830  -35.1370 C   0  0  0  0  0  0  0  0  0  0  0  0
   -0.4170   21.5700  -34.2350 C   0  0  0  0  0  0  0  0  0  0  0  0
   -3.7220   21.2970  -33.0310 N   0  0  0  0  0  0  0  0  0  0  0  0
   -4.2520   21.8090  -31.9040 C   0  0  0  0  0  0  0  0  0  0  0  0
   -5.6870   22.0480  -31.7010 C   0  0  0  0  0  0  0  0  0  0  0  0
   -6.5780   21.0720  -32.1720 C   0  0  0  0  0  0  0  0  0  0  0  0
   -7.9550   21.2250  -32.0050 C   0  0  0  0  0  0  0  0  0  0  0  0
   -8.4570   22.3530  -31.3630 C   0  0  0  0  0  0  0  0  0  0  0  0
   -7.5850   23.3310  -30.8800 C   0  0  0  0  0  0  0  0  0  0  0  0
   -6.1880   23.2020  -31.0360 C   0  0  0  0  0  0  0  0  0  0  0  0
   -5.3210   24.2250  -30.4900 N   0  0  0  0  0  0  0  0  0  0  0  0
   -5.5510   24.7040  -29.3610 O   0  0  0  0  0  0  0  0  0  0  0  0
   -4.2380   24.7040  -31.1860 O   0  0  0  0  0  0  0  0  0  0  0  0
   -0.6023   24.1017  -27.2566 H   0  0  0  0  0  0  0  0  0  0  0  0
    0.3980   22.9358  -28.1875 H   0  0  0  0  0  0  0  0  0  0  0  0
    0.8202   24.6818  -28.1875 H   0  0  0  0  0  0  0  0  0  0  0  0
   -0.3856   24.8420  -30.0996 H   0  0  0  0  0  0  0  0  0  0  0  0
   -1.0888   23.2058  -29.8779 H   0  0  0  0  0  0  0  0  0  0  0  0
   -1.0184   24.9486  -27.2490 H   0  0  0  0  0  0  0  0  0  0  0  0
   -1.9633   26.3925  -27.7430 H   0  0  0  0  0  0  0  0  0  0  0  0
   -2.7509   24.5452  -25.8209 H   0  0  0  0  0  0  0  0  0  0  0  0
   -3.8561   25.6479  -26.7010 H   0  0  0  0  0  0  0  0  0  0  0  0
   -1.9407   22.8254  -26.9896 H   0  0  0  0  0  0  0  0  0  0  0  0
   -3.4033   21.9734  -26.3858 H   0  0  0  0  0  0  0  0  0  0  0  0
   -2.0020   21.2698  -28.6622 H   0  0  0  0  0  0  0  0  0  0  0  0
   -3.7395   20.8831  -28.3571 H   0  0  0  0  0  0  0  0  0  0  0  0
   -3.8890   23.3970  -29.4910 H   0  0  0  0  0  0  0  0  0  0  0  0
   -2.1305   18.6660  -33.6386 H   0  0  0  0  0  0  0  0  0  0  0  0
   -0.4263   17.8053  -35.2442 H   0  0  0  0  0  0  0  0  0  0  0  0
    1.2808   19.3517  -36.2078 H   0  0  0  0  0  0  0  0  0  0  0  0
    1.2860   21.7637  -35.5626 H   0  0  0  0  0  0  0  0  0  0  0  0
   -0.4075   22.6323  -33.9495 H   0  0  0  0  0  0  0  0  0  0  0  0
   -6.1872   20.1770  -32.6781 H   0  0  0  0  0  0  0  0  0  0  0  0
   -8.6436   20.4539  -32.3808 H   0  0  0  0  0  0  0  0  0  0  0  0
   -9.5428   22.4745  -31.2357 H   0  0  0  0  0  0  0  0  0  0  0  0
   -7.9932   24.2159  -30.3699 H   0  0  0  0  0  0  0  0  0  0  0  0
  1  2  1  0
  2  3  1  0
  3  4  1  0
  4  5  1  0
  5  6  1  0
  6  7  1  0
  7  8  1  0
  8  9  1  0
  9 10  1  0
 10 11  1  0
 11 12  1  0
 12 13  1  0
 13 14  2  0
 14 15  1  0
 15 16  2  0
 16 17  1  0
 17 18  2  0
 12 19  2  0
 19 20  1  0
 20 21  1  0
 21 22  2  0
 22 23  1  0
 23 24  2  0
 24 25  1  0
 25 26  2  0
 26 27  1  0
 27 28  2  0
 27 29  1  0
 20 10  2  0
 26 21  1  0
 18 13  1  0
  1 30  1  0
  1 31  1  0
  1 32  1  0
  2 33  1  0
  2 34  1  0
  4 35  1  0
  4 36  1  0
  5 37  1  0
  5 38  1  0
  7 39  1  0
  7 40  1  0
  8 41  1  0
  8 42  1  0
  9 43  1  0
 14 44  1  0
 15 45  1  0
 16 46  1  0
 17 47  1  0
 18 48  1  0
 22 49  1  0
 23 50  1  0
 24 51  1  0
 25 52  1  0
M  CHG  2  27   1  29  -1
M  END
>  <UniqueID>  (9) 
9

>  <SMILES>  (9) 
CCOCCOCCNc1oc(-c2ccccc2)nc1-c1ccccc1[N+](=O)[O-]

>  <Energy>  (9) 
89.9191216539598

>  <Genealogy>  (9) 
CCOCCOCCNc1oc(-c2ccccc2)nc1-c1ccccc1[N+](=O)[O-] (3D coordinates assigned)
CCOCCOCCNc1oc(-c2ccccc2)nc1-c1ccccc1[N+](=O)[O-] (optimized conformer: 89.9191216539598 kcal/mol)

>  <smiles>  (9) 
CCOCCOCCNc1oc(-c2ccccc2)nc1-c1ccccc1[N+](=O)[O-]

>  <score_type>  (9) 
oracle

>  <origin>  (9) 
adg

>  <m_score__min__energy>  (9) 
-9.3599999999999994

>  <m_primary>  (9) 
energy

$$$$
9:0
     RDKit          3D

 59 62  0  0  0  0  0  0  0  0999 V2000
    0.0300   18.6090  -33.9280 C   0  0  0  0  0  0  0  0  0  0  0  0
   -0.5750   17.4630  -33.1130 C   0  0  0  0  0  0  0  0  0  0  0  0
   -1.8310   16.9520  -33.7100 N   0  0  0  0  0  0  0  0  0  0  0  0
   -1.7060   15.5960  -34.2820 C   0  0  0  0  0  0  0  0  0  0  0  0
   -2.7420   15.2800  -35.3780 C   0  0  0  0  0  0  0  0  0  0  0  0
   -3.6520   16.4810  -35.7020 C   0  0  0  0  0  0  0  0  0  0  0  0
   -4.2630   17.0710  -34.5020 N   0  0  0  0  0  0  0  0  0  0  0  0
   -5.6180   16.5600  -34.2420 C   0  0  0  0  0  0  0  0  0  0  0  0
   -6.4900   17.6580  -33.6270 C   0  0  0  0  0  0  0  0  0  0  0  0
   -5.9660   18.9960  -33.9250 N   0  0  0  0  0  0  0  0  0  0  0  0
   -5.9750   20.0510  -32.9490 C   0  0  0  0  0  0  0  0  0  0  0  0
   -4.7840   20.5990  -32.4780 C   0  0  0  0  0  0  0  0  0  0  0  0
   -4.7810   21.7120  -31.6530 C   0  0  0  0  0  0  0  0  0  0  0  0
   -5.9390   22.3740  -31.3360 N   0  0  0  0  0  0  0  0  0  0  0  0
   -5.8760   23.7200  -30.7410 C   0  0  0  0  0  0  0  0  0  0  0  0
   -7.1490   21.7730  -31.6430 C   0  0  0  0  0  0  0  0  0  0  0  0
   -8.3770   22.2810  -31.1530 C   0  0  0  0  0  0  0  0  0  0  0  0
   -9.5910   21.6900  -31.5050 C   0  0  0  0  0  0  0  0  0  0  0  0
   -9.6150   20.5730  -32.3340 C   0  0  0  0  0  0  0  0  0  0  0  0
   -8.4250   20.0250  -32.8060 C   0  0  0  0  0  0  0  0  0  0  0  0
   -7.1840   20.6010  -32.4680 C   0  0  0  0  0  0  0  0  0  0  0  0
   -3.3770   21.9910  -31.2610 C   0  0  0  0  0  0  0  0  0  0  0  0
   -2.8270   22.8680  -30.3130 C   0  0  0  0  0  0  0  0  0  0  0  0
   -1.4390   22.8420  -30.0960 C   0  0  0  0  0  0  0  0  0  0  0  0
   -0.6240   21.9230  -30.7810 C   0  0  0  0  0  0  0  0  0  0  0  0
   -1.1910   21.0060  -31.6770 C   0  0  0  0  0  0  0  0  0  0  0  0
   -2.5660   21.0590  -31.8940 C   0  0  0  0  0  0  0  0  0  0  0  0
   -3.4050   20.1510  -32.6580 C   0  0  0  0  0  0  0  0  0  0  0  0
   -3.0180   19.1100  -33.2520 O   0  0  0  0  0  0  0  0  0  0  0  0
    0.4327   19.3717  -33.2453 H   0  0  0  0  0  0  0  0  0  0  0  0
    0.8403   18.2200  -34.5622 H   0  0  0  0  0  0  0  0  0  0  0  0
   -0.7482   19.0587  -34.5622 H   0  0  0  0  0  0  0  0  0  0  0  0
    0.1537   16.6405  -33.0637 H   0  0  0  0  0  0  0  0  0  0  0  0
   -0.8113   17.8502  -32.1109 H   0  0  0  0  0  0  0  0  0  0  0  0
   -2.6300   16.9930  -33.0380 H   0  0  0  0  0  0  0  0  0  0  0  0
   -2.0920   17.5880  -34.4990 H   0  0  0  0  0  0  0  0  0  0  0  0
   -0.7007   15.4954  -34.7170 H   0  0  0  0  0  0  0  0  0  0  0  0
   -1.8852   14.8865  -33.4607 H   0  0  0  0  0  0  0  0  0  0  0  0
   -2.2072   14.9869  -36.2935 H   0  0  0  0  0  0  0  0  0  0  0  0
   -3.3839   14.4689  -35.0038 H   0  0  0  0  0  0  0  0  0  0  0  0
   -3.0507   17.2521  -36.2059 H   0  0  0  0  0  0  0  0  0  0  0  0
   -4.4671   16.1160  -36.3442 H   0  0  0  0  0  0  0  0  0  0  0  0
   -4.3040   18.1120  -34.6110 H   0  0  0  0  0  0  0  0  0  0  0  0
   -6.0681   16.2265  -35.1887 H   0  0  0  0  0  0  0  0  0  0  0  0
   -5.5540   15.7171  -33.5382 H   0  0  0  0  0  0  0  0  0  0  0  0
   -7.5084   17.5748  -34.0343 H   0  0  0  0  0  0  0  0  0  0  0  0
   -6.4909   17.5248  -32.5351 H   0  0  0  0  0  0  0  0  0  0  0  0
   -5.4330   19.1350  -34.8120 H   0  0  0  0  0  0  0  0  0  0  0  0
   -5.8799   23.6366  -29.6442 H   0  0  0  0  0  0  0  0  0  0  0  0
   -4.9534   24.2223  -31.0672 H   0  0  0  0  0  0  0  0  0  0  0  0
   -6.7477   24.3063  -31.0672 H   0  0  0  0  0  0  0  0  0  0  0  0
   -8.3736   23.1548  -30.4848 H   0  0  0  0  0  0  0  0  0  0  0  0
  -10.5342   22.1095  -31.1250 H   0  0  0  0  0  0  0  0  0  0  0  0
  -10.5770   20.1213  -32.6175 H   0  0  0  0  0  0  0  0  0  0  0  0
   -8.4539   19.1332  -33.4494 H   0  0  0  0  0  0  0  0  0  0  0  0
   -3.4697   23.5617  -29.7512 H   0  0  0  0  0  0  0  0  0  0  0  0
   -0.9856   23.5470  -29.3837 H   0  0  0  0  0  0  0  0  0  0  0  0
    0.4631   21.9238  -30.6130 H   0  0  0  0  0  0  0  0  0  0  0  0
   -0.5662   20.2637  -32.1954 H   0  0  0  0  0  0  0  0  0  0  0  0
  1  2  1  0
  2  3  1  0
  3  4  1  0
  4  5  1  0
  5  6  1  0
  6  7  1  0
  7  8  1  0
  8  9  1  0
  9 10  1  0
 10 11  1  0
 11 12  2  0
 12 13  1  0
 13 14  2  0
 14 15  1  0
 14 16  1  0
 16 17  2  0
 17 18  1  0
 18 19  2  0
 19 20  1  0
 20 21  2  0
 13 22  1  0
 22 23  2  0
 23 24  1  0
 24 25  2  0
 25 26  1  0
 26 27  2  0
 27 28  1  0
 28 29  2  0
 21 11  1  0
 27 22  1  0
 28 12  1  0
 21 16  1  0
  1 30  1  0
  1 31  1  0
  1 32  1  0
  2 33  1  0
  2 34  1  0
  3 35  1  0
  3 36  1  0
  4 37  1  0
  4 38  1  0
  5 39  1  0
  5 40  1  0
  6 41  1  0
  6 42  1  0
  7 43  1  0
  8 44  1  0
  8 45  1  0
  9 46  1  0
  9 47  1  0
 10 48  1  0
 15 49  1  0
 15 50  1  0
 15 51  1  0
 17 52  1  0
 18 53  1  0
 19 54  1  0
 20 55  1  0
 23 56  1  0
 24 57  1  0
 25 58  1  0
 26 59  1  0
M  CHG  2   3   1  14   1
M  END
>  <UniqueID>  (10) 
10

>  <SMILES>  (10) 
CC[NH2+]CCCNCCNc1c2c([n+](C)c3ccccc13)-c1ccccc1C2=O

>  <Energy>  (10) 
109.75706488228079

>  <Genealogy>  (10) 
CC[NH2+]CCCNCCNc1c2c([n+](C)c3ccccc13)-c1ccccc1C2=O (protonated)
CC[NH2+]CCCNCCNc1c2c([n+](C)c3ccccc13)-c1ccccc1C2=O (3D coordinates assigned)
CC[NH2+]CCCNCCNc1c2c([n+](C)c3ccccc13)-c1ccccc1C2=O (nonaromatic ring conformer: 109.75706488228079 kcal/mol)

>  <smiles>  (10) 
CCNCCCNCCNc1c2c([n+](C)c3ccccc13)-c1ccccc1C2=O

>  <score_type>  (10) 
oracle

>  <origin>  (10) 
adg

>  <m_score__min__energy>  (10) 
-8.9499999999999993

>  <m_primary>  (10) 
energy

$$$$
10:0
     RDKit          3D

 67 69  0  0  0  0  0  0  0  0999 V2000
   -6.0000   24.2400  -30.0560 C   0  0  0  0  0  0  0  0  0  0  0  0
   -5.7410   24.7330  -31.4810 C   0  0  0  0  0  0  0  0  0  0  0  0
   -6.2100   23.7440  -32.4550 N   0  0  0  0  0  0  0  0  0  0  0  0
   -7.0830   22.6490  -32.1240 C   0  0  0  0  0  0  0  0  0  0  0  0
   -8.3800   22.9370  -31.6620 C   0  0  0  0  0  0  0  0  0  0  0  0
   -9.3270   21.9380  -31.5270 C   0  0  0  0  0  0  0  0  0  0  0  0
   -9.0050   20.6240  -31.8320 C   0  0  0  0  0  0  0  0  0  0  0  0
   -7.6930   20.2620  -32.2300 C   0  0  0  0  0  0  0  0  0  0  0  0
   -6.7150   21.2920  -32.3800 C   0  0  0  0  0  0  0  0  0  0  0  0
   -5.3980   20.9130  -32.7490 C   0  0  0  0  0  0  0  0  0  0  0  0
   -4.2820   21.8040  -32.5620 N   0  0  0  0  0  0  0  0  0  0  0  0
   -3.7560   22.0770  -31.2230 C   0  0  0  0  0  0  0  0  0  0  0  0
   -3.5130   20.7790  -30.4390 C   0  0  0  0  0  0  0  0  0  0  0  0
   -2.3260   20.8370  -29.4370 C   0  0  0  0  0  0  0  0  0  0  0  0
   -2.6270   21.0410  -27.9720 N   0  0  0  0  0  0  0  0  0  0  0  0
   -3.1120   19.7810  -27.3120 C   0  0  0  0  0  0  0  0  0  0  0  0
   -2.0390   18.8750  -26.6790 C   0  0  0  0  0  0  0  0  0  0  0  0
   -3.6400   22.1530  -27.8200 C   0  0  0  0  0  0  0  0  0  0  0  0
   -3.1440   23.6070  -28.0020 C   0  0  0  0  0  0  0  0  0  0  0  0
   -1.3500   21.4550  -27.2690 C   0  0  0  0  0  0  0  0  0  0  0  0
   -0.1120   21.6700  -28.1620 C   0  0  0  0  0  0  0  0  0  0  0  0
   -5.1660   19.6140  -33.2380 C   0  0  0  0  0  0  0  0  0  0  0  0
   -3.9340   19.2760  -33.8370 C   0  0  0  0  0  0  0  0  0  0  0  0
   -3.7160   17.9980  -34.3440 C   0  0  0  0  0  0  0  0  0  0  0  0
   -4.7190   17.0390  -34.2700 C   0  0  0  0  0  0  0  0  0  0  0  0
   -5.9360   17.3430  -33.6680 C   0  0  0  0  0  0  0  0  0  0  0  0
   -6.1780   18.6310  -33.1190 C   0  0  0  0  0  0  0  0  0  0  0  0
   -7.3610   18.9390  -32.4760 N   0  0  0  0  0  0  0  0  0  0  0  0
   -8.2600   17.8520  -32.0370 C   0  0  0  0  0  0  0  0  0  0  0  0
   -5.6128   24.9770  -29.3370 H   0  0  0  0  0  0  0  0  0  0  0  0
   -7.0818   24.1120  -29.9032 H   0  0  0  0  0  0  0  0  0  0  0  0
   -5.4916   23.2766  -29.9032 H   0  0  0  0  0  0  0  0  0  0  0  0
   -6.2763   25.6807  -31.6399 H   0  0  0  0  0  0  0  0  0  0  0  0
   -4.6598   24.8833  -31.6164 H   0  0  0  0  0  0  0  0  0  0  0  0
   -6.0300   23.9540  -33.4630 H   0  0  0  0  0  0  0  0  0  0  0  0
   -8.6453   23.9729  -31.4040 H   0  0  0  0  0  0  0  0  0  0  0  0
  -10.3395   22.1867  -31.1763 H   0  0  0  0  0  0  0  0  0  0  0  0
   -9.7818   19.8482  -31.7639 H   0  0  0  0  0  0  0  0  0  0  0  0
   -3.5930   21.8540  -33.3490 H   0  0  0  0  0  0  0  0  0  0  0  0
   -2.8048   22.6215  -31.3167 H   0  0  0  0  0  0  0  0  0  0  0  0
   -4.4982   22.6770  -30.6761 H   0  0  0  0  0  0  0  0  0  0  0  0
   -4.4270   20.5440  -29.8739 H   0  0  0  0  0  0  0  0  0  0  0  0
   -3.2540   20.0111  -31.1828 H   0  0  0  0  0  0  0  0  0  0  0  0
   -1.7793   19.8867  -29.5265 H   0  0  0  0  0  0  0  0  0  0  0  0
   -1.7745   21.7437  -29.7265 H   0  0  0  0  0  0  0  0  0  0  0  0
   -3.8152   20.0704  -26.5172 H   0  0  0  0  0  0  0  0  0  0  0  0
   -3.5551   19.1825  -28.1216 H   0  0  0  0  0  0  0  0  0  0  0  0
   -2.1092   18.9343  -25.5828 H   0  0  0  0  0  0  0  0  0  0  0  0
   -2.2002   17.8356  -27.0011 H   0  0  0  0  0  0  0  0  0  0  0  0
   -1.0413   19.2081  -27.0011 H   0  0  0  0  0  0  0  0  0  0  0  0
   -4.4316   21.9803  -28.5640 H   0  0  0  0  0  0  0  0  0  0  0  0
   -3.9585   22.0973  -26.7686 H   0  0  0  0  0  0  0  0  0  0  0  0
   -2.9870   24.0671  -27.0152 H   0  0  0  0  0  0  0  0  0  0  0  0
   -2.1961   23.6039  -28.5601 H   0  0  0  0  0  0  0  0  0  0  0  0
   -3.8962   24.1839  -28.5601 H   0  0  0  0  0  0  0  0  0  0  0  0
   -1.5499   22.3995  -26.7417 H   0  0  0  0  0  0  0  0  0  0  0  0
   -1.0923   20.6109  -26.6124 H   0  0  0  0  0  0  0  0  0  0  0  0
    0.7744   21.8239  -27.5291 H   0  0  0  0  0  0  0  0  0  0  0  0
    0.0402   20.7848  -28.7971 H   0  0  0  0  0  0  0  0  0  0  0  0
   -0.2672   22.5546  -28.7971 H   0  0  0  0  0  0  0  0  0  0  0  0
   -3.1368   20.0309  -33.9041 H   0  0  0  0  0  0  0  0  0  0  0  0
   -2.7487   17.7470  -34.8037 H   0  0  0  0  0  0  0  0  0  0  0  0
   -4.5502   16.0360  -34.6889 H   0  0  0  0  0  0  0  0  0  0  0  0
   -6.7220   16.5752  -33.6163 H   0  0  0  0  0  0  0  0  0  0  0  0
   -8.2867   17.8197  -30.9378 H   0  0  0  0  0  0  0  0  0  0  0  0
   -9.2734   18.0359  -32.4232 H   0  0  0  0  0  0  0  0  0  0  0  0
   -7.8892   16.8911  -32.4232 H   0  0  0  0  0  0  0  0  0  0  0  0
  1  2  1  0
  2  3  1  0
  3  4  1  0
  4  5  2  0
  5  6  1  0
  6  7  2  0
  7  8  1  0
  8  9  2  0
  9 10  1  0
 10 11  1  0
 11 12  1  0
 12 13  1  0
 13 14  1  0
 14 15  1  0
 15 16  1  0
 16 17  1  0
 15 18  1  0
 18 19  1  0
 15 20  1  0
 20 21  1  0
 10 22  2  0
 22 23  1  0
 23 24  2  0
 24 25  1  0
 25 26  2  0
 26 27  1  0
 27 28  2  0
 28 29  1  0
  9  4  1  0
 27 22  1  0
 28  8  1  0
  1 30  1  0
  1 31  1  0
  1 32  1  0
  2 33  1  0
  2 34  1  0
  3 35  1  0
  5 36  1  0
  6 37  1  0
  7 38  1  0
 11 39  1  0
 12 40  1  0
 12 41  1  0
 13 42  1  0
 13 43  1  0
 14 44  1  0
 14 45  1  0
 16 46  1  0
 16 47  1  0
 17 48  1  0
 17 49  1  0
 17 50  1  0
 18 51  1  0
 18 52  1  0
 19 53  1  0
 19 54  1  0
 19 55  1  0
 20 56  1  0
 20 57  1  0
 21 58  1  0
 21 59  1  0
 21 60  1  0
 23 61  1  0
 24 62  1  0
 25 63  1  0
 26 64  1  0
 29 65  1  0
 29 66  1  0
 29 67  1  0
M  CHG  2  15   1  28   1
M  END
>  <UniqueID>  (11) 
11

>  <SMILES>  (11) 
CCNc1cccc2c1c(NCCC[N+](CC)(CC)CC)c1ccccc1[n+]2C

>  <Energy>  (11) 
123.12958292863954

>  <Genealogy>  (11) 
CCNc1cccc2c1c(NCCC[N+](CC)(CC)CC)c1ccccc1[n+]2C (3D coordinates assigned)
CCNc1cccc2c1c(NCCC[N+](CC)(CC)CC)c1ccccc1[n+]2C (optimized conformer: 123.12958292863954 kcal/mol)

>  <smiles>  (11) 
CCNc1cccc2c1c(NCCC[N+](CC)(CC)CC)c1ccccc1[n+]2C

>  <score_type>  (11) 
oracle

>  <origin>  (11) 
adg

>  <m_score__min__energy>  (11) 
-7.5

>  <m_primary>  (11) 
energy

$$$$
11:0
     RDKit          3D

 39 40  0  0  0  0  0  0  0  0999 V2000
   -7.2300   17.0070  -33.1090 C   0  0  0  0  0  0  0  0  0  0  0  0
   -7.1140   18.4870  -32.8520 C   0  0  0  0  0  0  0  0  0  0  0  0
   -8.1570   19.1540  -32.1930 C   0  0  0  0  0  0  0  0  0  0  0  0
   -8.0920   20.5330  -31.9290 C   0  0  0  0  0  0  0  0  0  0  0  0
   -9.2720   21.1830  -31.2570 C   0  0  0  0  0  0  0  0  0  0  0  0
   -6.9500   21.2640  -32.3430 C   0  0  0  0  0  0  0  0  0  0  0  0
   -6.7420   23.0110  -32.0610 S   0  0  0  0  0  0  0  0  0  0  0  0
   -7.8360   23.7940  -32.7310 O   0  0  0  0  0  0  0  0  0  0  0  0
   -5.4510   23.4280  -32.7090 O   0  0  0  0  0  0  0  0  0  0  0  0
   -6.6470   23.4360  -30.3610 N   0  0  0  0  0  0  0  0  0  0  0  0
   -5.5610   22.7670  -29.6060 C   0  0  0  0  0  0  0  0  0  0  0  0
   -4.5740   23.7400  -28.9440 C   0  0  0  0  0  0  0  0  0  0  0  0
   -4.2670   24.9030  -29.8790 C   0  0  0  0  0  0  0  0  0  0  0  0
   -5.5350   25.7040  -30.2010 C   0  0  0  0  0  0  0  0  0  0  0  0
   -6.8340   24.8750  -30.0950 C   0  0  0  0  0  0  0  0  0  0  0  0
   -5.9270   20.5970  -33.0350 C   0  0  0  0  0  0  0  0  0  0  0  0
   -5.9950   19.2210  -33.2960 C   0  0  0  0  0  0  0  0  0  0  0  0
   -4.8550   18.5500  -34.0160 C   0  0  0  0  0  0  0  0  0  0  0  0
   -7.2721   16.4704  -32.1497 H   0  0  0  0  0  0  0  0  0  0  0  0
   -8.1467   16.8052  -33.6825 H   0  0  0  0  0  0  0  0  0  0  0  0
   -6.3559   16.6648  -33.6825 H   0  0  0  0  0  0  0  0  0  0  0  0
   -9.0442   18.5862  -31.8762 H   0  0  0  0  0  0  0  0  0  0  0  0
   -9.1539   21.1180  -30.1653 H   0  0  0  0  0  0  0  0  0  0  0  0
   -9.3288   22.2397  -31.5574 H   0  0  0  0  0  0  0  0  0  0  0  0
  -10.1955   20.6663  -31.5574 H   0  0  0  0  0  0  0  0  0  0  0  0
   -6.0165   22.1470  -28.8198 H   0  0  0  0  0  0  0  0  0  0  0  0
   -4.9862   22.1727  -30.3316 H   0  0  0  0  0  0  0  0  0  0  0  0
   -5.0164   24.1289  -28.0150 H   0  0  0  0  0  0  0  0  0  0  0  0
   -3.6393   23.2042  -28.7221 H   0  0  0  0  0  0  0  0  0  0  0  0
   -3.5352   25.5678  -29.3968 H   0  0  0  0  0  0  0  0  0  0  0  0
   -3.8623   24.4980  -30.8183 H   0  0  0  0  0  0  0  0  0  0  0  0
   -5.6020   26.5468  -29.4973 H   0  0  0  0  0  0  0  0  0  0  0  0
   -5.4494   26.0371  -31.2459 H   0  0  0  0  0  0  0  0  0  0  0  0
   -7.2364   24.9899  -29.0777 H   0  0  0  0  0  0  0  0  0  0  0  0
   -7.5203   25.2561  -30.8656 H   0  0  0  0  0  0  0  0  0  0  0  0
   -5.0518   21.1669  -33.3805 H   0  0  0  0  0  0  0  0  0  0  0  0
   -4.1502   18.1351  -33.2804 H   0  0  0  0  0  0  0  0  0  0  0  0
   -5.2467   17.7384  -34.6467 H   0  0  0  0  0  0  0  0  0  0  0  0
   -4.3355   19.2864  -34.6467 H   0  0  0  0  0  0  0  0  0  0  0  0
  1  2  1  0
  2  3  2  0
  3  4  1  0
  4  5  1  0
  4  6  2  0
  6  7  1  0
  7  8  2  0
  7  9  2  0
  7 10  1  0
 10 11  1  0
 11 12  1  0
 12 13  1  0
 13 14  1  0
 14 15  1  0
  6 16  1  0
 16 17  2  0
 17 18  1  0
 17  2  1  0
 15 10  1  0
  1 19  1  0
  1 20  1  0
  1 21  1  0
  3 22  1  0
  5 23  1  0
  5 24  1  0
  5 25  1  0
 11 26  1  0
 11 27  1  0
 12 28  1  0
 12 29  1  0
 13 30  1  0
 13 31  1  0
 14 32  1  0
 14 33  1  0
 15 34  1  0
 15 35  1  0
 16 36  1  0
 18 37  1  0
 18 38  1  0
 18 39  1  0
M  END
>  <UniqueID>  (12) 
12

>  <SMILES>  (12) 
Cc1cc(C)c(S(=O)(=O)N2CCCCC2)cc1C

>  <Energy>  (12) 
49.70326715994486

>  <Genealogy>  (12) 
Cc1cc(C)c(S(=O)(=O)N2CCCCC2)cc1C (3D coordinates assigned)
Cc1cc(C)c(S(=O)(=O)N2CCCCC2)cc1C (nonaromatic ring conformer: 49.70326715994486 kcal/mol)

>  <smiles>  (12) 
Cc1cc(C)c(S(=O)(=O)N2CCCCC2)cc1C

>  <score_type>  (12) 
oracle

>  <origin>  (12) 
adg

>  <m_score__min__energy>  (12) 
-8.0399999999999991

>  <m_primary>  (12) 
energy

$$$$
12:0
     RDKit          3D

 47 48  0  0  0  0  0  0  0  0999 V2000
   -5.8020   25.6420  -30.2610 C   0  0  0  0  0  0  0  0  0  0  0  0
   -4.8900   24.5540  -29.7100 C   0  0  0  0  0  0  0  0  0  0  0  0
   -3.5180   24.7670  -30.1880 N   0  0  0  0  0  0  0  0  0  0  0  0
   -2.6040   23.6800  -29.7980 C   0  0  0  0  0  0  0  0  0  0  0  0
   -2.8840   22.3340  -30.4990 C   0  0  0  0  0  0  0  0  0  0  0  0
   -1.7530   21.9040  -31.4450 C   0  0  0  0  0  0  0  0  0  0  0  0
   -2.2060   20.7650  -32.3630 C   0  0  0  0  0  0  0  0  0  0  0  0
   -3.2430   21.2390  -33.2770 N   0  0  0  0  0  0  0  0  0  0  0  0
   -4.5880   20.7460  -33.1790 C   0  0  0  0  0  0  0  0  0  0  0  0
   -4.8330   19.4370  -33.5950 C   0  0  0  0  0  0  0  0  0  0  0  0
   -6.1040   18.8710  -33.4550 C   0  0  0  0  0  0  0  0  0  0  0  0
   -6.3740   17.5540  -33.8660 O   0  0  0  0  0  0  0  0  0  0  0  0
   -5.4170   16.5000  -33.8940 C   0  0  0  0  0  0  0  0  0  0  0  0
   -7.1260   19.6380  -32.8760 C   0  0  0  0  0  0  0  0  0  0  0  0
   -8.4090   19.0880  -32.6870 C   0  0  0  0  0  0  0  0  0  0  0  0
   -9.4210   19.8410  -32.0950 C   0  0  0  0  0  0  0  0  0  0  0  0
   -9.1690   21.1440  -31.6790 C   0  0  0  0  0  0  0  0  0  0  0  0
   -7.9070   21.7100  -31.8610 C   0  0  0  0  0  0  0  0  0  0  0  0
   -6.8610   20.9760  -32.4740 C   0  0  0  0  0  0  0  0  0  0  0  0
   -5.6070   21.5250  -32.6780 N   0  0  0  0  0  0  0  0  0  0  0  0
   -5.3630   22.9530  -32.3920 C   0  0  0  0  0  0  0  0  0  0  0  0
   -6.2626   26.1915  -29.4268 H   0  0  0  0  0  0  0  0  0  0  0  0
   -5.2127   26.3371  -30.8771 H   0  0  0  0  0  0  0  0  0  0  0  0
   -6.5894   25.1832  -30.8771 H   0  0  0  0  0  0  0  0  0  0  0  0
   -4.9033   24.5882  -28.6106 H   0  0  0  0  0  0  0  0  0  0  0  0
   -5.2466   23.5719  -30.0541 H   0  0  0  0  0  0  0  0  0  0  0  0
   -3.5200   24.8810  -31.2270 H   0  0  0  0  0  0  0  0  0  0  0  0
   -1.5769   23.9889  -30.0425 H   0  0  0  0  0  0  0  0  0  0  0  0
   -2.7546   23.5123  -28.7213 H   0  0  0  0  0  0  0  0  0  0  0  0
   -3.0119   21.5580  -29.7299 H   0  0  0  0  0  0  0  0  0  0  0  0
   -3.7914   22.4621  -31.1075 H   0  0  0  0  0  0  0  0  0  0  0  0
   -1.4532   22.7645  -32.0611 H   0  0  0  0  0  0  0  0  0  0  0  0
   -0.9063   21.5490  -30.8391 H   0  0  0  0  0  0  0  0  0  0  0  0
   -1.3458   20.4028  -32.9451 H   0  0  0  0  0  0  0  0  0  0  0  0
   -2.6131   19.9480  -31.7491 H   0  0  0  0  0  0  0  0  0  0  0  0
   -2.9250   21.5960  -34.2070 H   0  0  0  0  0  0  0  0  0  0  0  0
   -4.0186   18.8445  -34.0373 H   0  0  0  0  0  0  0  0  0  0  0  0
   -5.1569   16.2135  -32.8643 H   0  0  0  0  0  0  0  0  0  0  0  0
   -5.8424   15.6324  -34.4197 H   0  0  0  0  0  0  0  0  0  0  0  0
   -4.5125   16.8399  -34.4197 H   0  0  0  0  0  0  0  0  0  0  0  0
   -8.6135   18.0563  -33.0092 H   0  0  0  0  0  0  0  0  0  0  0  0
  -10.4210   19.4041  -31.9564 H   0  0  0  0  0  0  0  0  0  0  0  0
   -9.9688   21.7312  -31.2041 H   0  0  0  0  0  0  0  0  0  0  0  0
   -7.7211   22.7405  -31.5240 H   0  0  0  0  0  0  0  0  0  0  0  0
   -5.3362   23.1096  -31.3035 H   0  0  0  0  0  0  0  0  0  0  0  0
   -4.4002   23.2553  -32.8297 H   0  0  0  0  0  0  0  0  0  0  0  0
   -6.1708   23.5579  -32.8297 H   0  0  0  0  0  0  0  0  0  0  0  0
  1  2  1  0
  2  3  1  0
  3  4  1  0
  4  5  1  0
  5  6  1  0
  6  7  1  0
  7  8  1  0
  8  9  1  0
  9 10  2  0
 10 11  1  0
 11 12  1  0
 12 13  1  0
 11 14  2  0
 14 15  1  0
 15 16  2  0
 16 17  1  0
 17 18  2  0
 18 19  1  0
 19 20  2  0
 20 21  1  0
 20  9  1  0
 19 14  1  0
  1 22  1  0
  1 23  1  0
  1 24  1  0
  2 25  1  0
  2 26  1  0
  3 27  1  0
  4 28  1  0
  4 29  1  0
  5 30  1  0
  5 31  1  0
  6 32  1  0
  6 33  1  0
  7 34  1  0
  7 35  1  0
  8 36  1  0
 10 37  1  0
 13 38  1  0
 13 39  1  0
 13 40  1  0
 15 41  1  0
 16 42  1  0
 17 43  1  0
 18 44  1  0
 21 45  1  0
 21 46  1  0
 21 47  1  0
M  CHG  1  20   1
M  END
>  <UniqueID>  (13) 
13

>  <SMILES>  (13) 
CCNCCCCNc1cc(OC)c2ccccc2[n+]1C

>  <Energy>  (13) 
53.23807210498727

>  <Genealogy>  (13) 
CCNCCCCNc1cc(OC)c2ccccc2[n+]1C (3D coordinates assigned)
CCNCCCCNc1cc(OC)c2ccccc2[n+]1C (optimized conformer: 53.23807210498727 kcal/mol)

>  <smiles>  (13) 
CCNCCCCNc1cc(OC)c2ccccc2[n+]1C

>  <score_type>  (13) 
oracle

>  <origin>  (13) 
adg

>  <m_score__min__energy>  (13) 
-7.3700000000000001

>  <m_primary>  (13) 
energy

$$$$
13:0
     RDKit          3D

 86 90  0  0  0  0  0  0  0  0999 V2000
    0.2580   21.9790  -35.3700 C   0  0  0  0  0  0  0  0  0  0  0  0
   -0.6440   20.9960  -34.7420 N   0  0  0  0  0  0  0  0  0  0  0  0
   -0.1860   19.6380  -35.0780 C   0  0  0  0  0  0  0  0  0  0  0  0
   -0.6800   21.1710  -33.2730 C   0  0  0  0  0  0  0  0  0  0  0  0
   -2.1190   21.3470  -32.7430 C   0  0  0  0  0  0  0  0  0  0  0  0
   -3.1400   21.3160  -33.8120 N   0  0  0  0  0  0  0  0  0  0  0  0
   -4.4270   20.8230  -33.3240 C   0  0  0  0  0  0  0  0  0  0  0  0
   -5.3710   21.6900  -32.6890 C   0  0  0  0  0  0  0  0  0  0  0  0
   -5.0700   23.0360  -32.3530 C   0  0  0  0  0  0  0  0  0  0  0  0
   -5.9970   23.8460  -31.7000 C   0  0  0  0  0  0  0  0  0  0  0  0
   -7.2390   23.3470  -31.3520 C   0  0  0  0  0  0  0  0  0  0  0  0
   -7.5790   22.0400  -31.6810 C   0  0  0  0  0  0  0  0  0  0  0  0
   -6.6720   21.1940  -32.3750 C   0  0  0  0  0  0  0  0  0  0  0  0
   -7.0380   19.9150  -32.7340 N   0  0  0  0  0  0  0  0  0  0  0  0
   -8.4660   19.5220  -32.7180 C   0  0  0  0  0  0  0  0  0  0  0  0
   -6.0770   19.0080  -33.1260 C   0  0  0  0  0  0  0  0  0  0  0  0
   -6.3650   17.6220  -33.1840 C   0  0  0  0  0  0  0  0  0  0  0  0
   -5.4260   16.7090  -33.6460 C   0  0  0  0  0  0  0  0  0  0  0  0
   -4.1710   17.1330  -34.0610 C   0  0  0  0  0  0  0  0  0  0  0  0
   -3.2680   16.1620  -34.5190 O   0  0  0  0  0  0  0  0  0  0  0  0
   -3.6240   14.9340  -35.1510 C   0  0  0  0  0  0  0  0  0  0  0  0
   -4.0790   13.9060  -34.0890 C   0  0  0  0  0  0  0  0  0  0  0  0
   -2.9820   13.2280  -33.3160 N   0  0  1  0  0  0  0  0  0  0  0  0
   -3.5420   12.0860  -32.5420 C   0  0  0  0  0  0  0  0  0  0  0  0
   -1.9760   12.6800  -34.2980 C   0  0  0  0  0  0  0  0  0  0  0  0
   -0.6740   13.5020  -34.3720 C   0  0  0  0  0  0  0  0  0  0  0  0
    0.0320   13.5860  -33.0560 N   0  0  1  0  0  0  0  0  0  0  0  0
    0.7880   12.3260  -32.8140 C   0  0  0  0  0  0  0  0  0  0  0  0
    0.9810   14.7500  -33.0710 C   0  0  0  0  0  0  0  0  0  0  0  0
    0.4570   16.0090  -32.4000 C   0  0  0  0  0  0  0  0  0  0  0  0
   -0.5180   16.8100  -33.0230 C   0  0  0  0  0  0  0  0  0  0  0  0
   -0.9730   17.9760  -32.4000 C   0  0  0  0  0  0  0  0  0  0  0  0
   -0.4750   18.3470  -31.1460 C   0  0  0  0  0  0  0  0  0  0  0  0
    0.4850   17.5520  -30.5150 C   0  0  0  0  0  0  0  0  0  0  0  0
    0.9430   16.3860  -31.1340 C   0  0  0  0  0  0  0  0  0  0  0  0
   -0.9430   13.7750  -31.9230 C   0  0  0  0  0  0  0  0  0  0  0  0
   -2.3500   14.2080  -32.3750 C   0  0  0  0  0  0  0  0  0  0  0  0
   -3.8480   18.4960  -33.9820 C   0  0  0  0  0  0  0  0  0  0  0  0
   -4.7730   19.4480  -33.4810 C   0  0  0  0  0  0  0  0  0  0  0  0
    0.7809   22.5489  -34.5878 H   0  0  0  0  0  0  0  0  0  0  0  0
    0.9947   21.4535  -35.9953 H   0  0  0  0  0  0  0  0  0  0  0  0
   -0.3288   22.6680  -35.9953 H   0  0  0  0  0  0  0  0  0  0  0  0
    0.0037   19.0754  -34.1520 H   0  0  0  0  0  0  0  0  0  0  0  0
   -0.9608   19.1249  -35.6666 H   0  0  0  0  0  0  0  0  0  0  0  0
    0.7413   19.6989  -35.6666 H   0  0  0  0  0  0  0  0  0  0  0  0
   -0.2338   20.2841  -32.7993 H   0  0  0  0  0  0  0  0  0  0  0  0
   -0.1152   22.0823  -33.0271 H   0  0  0  0  0  0  0  0  0  0  0  0
   -2.3318   20.5348  -32.0323 H   0  0  0  0  0  0  0  0  0  0  0  0
   -2.1737   22.3370  -32.2666 H   0  0  0  0  0  0  0  0  0  0  0  0
   -3.2540   22.2760  -34.2080 H   0  0  0  0  0  0  0  0  0  0  0  0
   -2.7630   20.7970  -34.6270 H   0  0  0  0  0  0  0  0  0  0  0  0
   -4.0841   23.4483  -32.6136 H   0  0  0  0  0  0  0  0  0  0  0  0
   -5.7395   24.8881  -31.4600 H   0  0  0  0  0  0  0  0  0  0  0  0
   -7.9573   23.9840  -30.8152 H   0  0  0  0  0  0  0  0  0  0  0  0
   -8.5692   21.6530  -31.3988 H   0  0  0  0  0  0  0  0  0  0  0  0
   -8.8087   19.4277  -31.6770 H   0  0  0  0  0  0  0  0  0  0  0  0
   -9.0632   20.2892  -33.2326 H   0  0  0  0  0  0  0  0  0  0  0  0
   -8.5866   18.5573  -33.2326 H   0  0  0  0  0  0  0  0  0  0  0  0
   -7.3516   17.2620  -32.8567 H   0  0  0  0  0  0  0  0  0  0  0  0
   -5.6793   15.6392  -33.6835 H   0  0  0  0  0  0  0  0  0  0  0  0
   -4.4458   15.1138  -35.8598 H   0  0  0  0  0  0  0  0  0  0  0  0
   -2.7496   14.5367  -35.6872 H   0  0  0  0  0  0  0  0  0  0  0  0
   -4.7244   14.4297  -33.3685 H   0  0  0  0  0  0  0  0  0  0  0  0
   -4.5859   13.1060  -34.6485 H   0  0  0  0  0  0  0  0  0  0  0  0
   -3.4425   12.2888  -31.4654 H   0  0  0  0  0  0  0  0  0  0  0  0
   -4.6050   11.9582  -32.7944 H   0  0  0  0  0  0  0  0  0  0  0  0
   -2.9922   11.1673  -32.7944 H   0  0  0  0  0  0  0  0  0  0  0  0
   -1.7219   11.6525  -33.9985 H   0  0  0  0  0  0  0  0  0  0  0  0
   -2.4413   12.7229  -35.2938 H   0  0  0  0  0  0  0  0  0  0  0  0
   -0.0009   13.0298  -35.1028 H   0  0  0  0  0  0  0  0  0  0  0  0
   -0.9443   14.5259  -34.6696 H   0  0  0  0  0  0  0  0  0  0  0  0
    0.8874   12.1603  -31.7311 H   0  0  0  0  0  0  0  0  0  0  0  0
    0.2473   11.4814  -33.2661 H   0  0  0  0  0  0  0  0  0  0  0  0
    1.7876   12.4056  -33.2661 H   0  0  0  0  0  0  0  0  0  0  0  0
    1.9035   14.4459  -32.5548 H   0  0  0  0  0  0  0  0  0  0  0  0
    1.1395   15.0063  -34.1289 H   0  0  0  0  0  0  0  0  0  0  0  0
   -0.9233   16.5179  -34.0030 H   0  0  0  0  0  0  0  0  0  0  0  0
   -1.7259   18.6047  -32.8979 H   0  0  0  0  0  0  0  0  0  0  0  0
   -0.8388   19.2632  -30.6578 H   0  0  0  0  0  0  0  0  0  0  0  0
    0.8803   17.8439  -29.5309 H   0  0  0  0  0  0  0  0  0  0  0  0
    1.6900   15.7572  -30.6274 H   0  0  0  0  0  0  0  0  0  0  0  0
   -1.0317   12.8224  -31.3801 H   0  0  0  0  0  0  0  0  0  0  0  0
   -0.5469   14.5853  -31.2933 H   0  0  0  0  0  0  0  0  0  0  0  0
   -2.9906   14.3058  -31.4862 H   0  0  0  0  0  0  0  0  0  0  0  0
   -2.2478   15.1638  -32.9098 H   0  0  0  0  0  0  0  0  0  0  0  0
   -2.8559   18.8340  -34.3158 H   0  0  0  0  0  0  0  0  0  0  0  0
  1  2  1  0
  2  3  1  0
  2  4  1  0
  4  5  1  0
  5  6  1  0
  6  7  1  0
  7  8  2  0
  8  9  1  0
  9 10  2  0
 10 11  1  0
 11 12  2  0
 12 13  1  0
 13 14  2  0
 14 15  1  0
 14 16  1  0
 16 17  2  0
 17 18  1  0
 18 19  2  0
 19 20  1  0
 20 21  1  0
 21 22  1  0
 23 22  1  6
 23 24  1  0
 23 25  1  0
 25 26  1  0
 26 27  1  0
 27 28  1  1
 27 29  1  0
 29 30  1  0
 30 31  2  0
 31 32  1  0
 32 33  2  0
 33 34  1  0
 34 35  2  0
 27 36  1  0
 36 37  1  0
 19 38  1  0
 38 39  2  0
 39  7  1  0
 13  8  1  0
 39 16  1  0
 37 23  1  0
 35 30  1  0
  1 40  1  0
  1 41  1  0
  1 42  1  0
  3 43  1  0
  3 44  1  0
  3 45  1  0
  4 46  1  0
  4 47  1  0
  5 48  1  0
  5 49  1  0
  6 50  1  0
  6 51  1  0
  9 52  1  0
 10 53  1  0
 11 54  1  0
 12 55  1  0
 15 56  1  0
 15 57  1  0
 15 58  1  0
 17 59  1  0
 18 60  1  0
 21 61  1  0
 21 62  1  0
 22 63  1  0
 22 64  1  0
 24 65  1  0
 24 66  1  0
 24 67  1  0
 25 68  1  0
 25 69  1  0
 26 70  1  0
 26 71  1  0
 28 72  1  0
 28 73  1  0
 28 74  1  0
 29 75  1  0
 29 76  1  0
 31 77  1  0
 32 78  1  0
 33 79  1  0
 34 80  1  0
 35 81  1  0
 36 82  1  0
 36 83  1  0
 37 84  1  0
 37 85  1  0
 38 86  1  0
M  CHG  4   6   1  14   1  23   1  27   1
M  END
>  <UniqueID>  (14) 
14

>  <SMILES>  (14) 
CN(C)CC[NH2+]c1c2ccccc2[n+](C)c2ccc(OCC[N+]3(C)CC[N+](C)(Cc4ccccc4)CC3)cc12

>  <Energy>  (14) 
152.40094384304888

>  <Genealogy>  (14) 
CN(C)CC[NH2+]c1c2ccccc2[n+](C)c2ccc(OCC[N+]3(C)CC[N+](C)(Cc4ccccc4)CC3)cc12 (protonated)
CN(C)CC[NH2+]c1c2ccccc2[n+](C)c2ccc(OCC[N+]3(C)CC[N+](C)(Cc4ccccc4)CC3)cc12 (3D coordinates assigned)
CN(C)CC[NH2+]c1c2ccccc2[n+](C)c2ccc(OCC[N+]3(C)CC[N+](C)(Cc4ccccc4)CC3)cc12 (nonaromatic ring conformer: 152.40094384304888 kcal/mol)

>  <smiles>  (14) 
CN(C)CCNc1c2ccccc2[n+](C)c2ccc(OCC[N+]3(C)CC[N+](C)(Cc4ccccc4)CC3)cc12

>  <score_type>  (14) 
oracle

>  <origin>  (14) 
adg

>  <m_score__min__energy>  (14) 
-8.2599999999999998

>  <m_primary>  (14) 
energy

$$$$
14:0
     RDKit          3D

 59 61  0  0  0  0  0  0  0  0999 V2000
   -6.1270   18.4860  -34.0100 C   0  0  0  0  0  0  0  0  0  0  0  0
   -6.9560   17.8740  -32.8720 C   0  0  0  0  0  0  0  0  0  0  0  0
   -7.8520   18.8430  -32.1970 N   0  0  0  0  0  0  0  0  0  0  0  0
   -8.9980   18.1770  -31.5550 C   0  0  0  0  0  0  0  0  0  0  0  0
   -8.2610   19.9520  -33.0870 C   0  0  0  0  0  0  0  0  0  0  0  0
   -9.1260   20.9760  -32.3350 C   0  0  0  0  0  0  0  0  0  0  0  0
   -8.4340   22.1880  -32.0910 O   0  0  0  0  0  0  0  0  0  0  0  0
   -8.1560   22.3790  -30.7140 C   0  0  0  0  0  0  0  0  0  0  0  0
   -6.8060   23.0400  -30.5570 C   0  0  0  0  0  0  0  0  0  0  0  0
   -6.7220   24.2110  -29.7860 C   0  0  0  0  0  0  0  0  0  0  0  0
   -5.4960   24.8390  -29.5670 C   0  0  0  0  0  0  0  0  0  0  0  0
   -4.3110   24.3200  -30.1140 C   0  0  0  0  0  0  0  0  0  0  0  0
   -3.0650   24.9500  -29.9310 O   0  0  0  0  0  0  0  0  0  0  0  0
   -2.0650   24.5980  -28.9670 C   0  0  0  0  0  0  0  0  0  0  0  0
   -2.5440   23.4500  -28.0720 C   0  0  0  0  0  0  0  0  0  0  0  0
   -1.4380   22.4970  -27.8300 N   0  0  0  0  0  0  0  0  0  0  0  0
   -0.7500   22.0390  -29.0610 C   0  0  0  0  0  0  0  0  0  0  0  0
   -1.2990   20.6950  -29.5700 C   0  0  0  0  0  0  0  0  0  0  0  0
   -2.6420   20.5270  -29.1660 O   0  0  0  0  0  0  0  0  0  0  0  0
   -2.7060   20.3400  -27.7620 C   0  0  0  0  0  0  0  0  0  0  0  0
   -1.8390   21.3520  -26.9870 C   0  0  0  0  0  0  0  0  0  0  0  0
   -4.3710   23.1430  -30.8910 C   0  0  0  0  0  0  0  0  0  0  0  0
   -3.2000   22.6100  -31.4620 C   0  0  0  0  0  0  0  0  0  0  0  0
   -3.2610   21.4920  -32.2900 C   0  0  0  0  0  0  0  0  0  0  0  0
   -4.4800   20.8680  -32.5410 C   0  0  0  0  0  0  0  0  0  0  0  0
   -5.6500   21.3530  -31.9610 C   0  0  0  0  0  0  0  0  0  0  0  0
   -5.6220   22.5020  -31.1340 C   0  0  0  0  0  0  0  0  0  0  0  0
   -5.3105   19.0888  -33.5857 H   0  0  0  0  0  0  0  0  0  0  0  0
   -5.7048   17.6813  -34.6298 H   0  0  0  0  0  0  0  0  0  0  0  0
   -6.7717   19.1265  -34.6298 H   0  0  0  0  0  0  0  0  0  0  0  0
   -7.5723   17.0638  -33.2888 H   0  0  0  0  0  0  0  0  0  0  0  0
   -6.2441   17.5142  -32.1145 H   0  0  0  0  0  0  0  0  0  0  0  0
   -8.8924   18.2383  -30.4618 H   0  0  0  0  0  0  0  0  0  0  0  0
   -9.9300   18.6741  -31.8618 H   0  0  0  0  0  0  0  0  0  0  0  0
   -9.0275   17.1211  -31.8618 H   0  0  0  0  0  0  0  0  0  0  0  0
   -7.3611   20.4550  -33.4708 H   0  0  0  0  0  0  0  0  0  0  0  0
   -8.8539   19.5350  -33.9144 H   0  0  0  0  0  0  0  0  0  0  0  0
  -10.0201   21.1942  -32.9375 H   0  0  0  0  0  0  0  0  0  0  0  0
   -9.3944   20.5397  -31.3615 H   0  0  0  0  0  0  0  0  0  0  0  0
   -8.9315   23.0199  -30.2693 H   0  0  0  0  0  0  0  0  0  0  0  0
   -8.1474   21.4043  -30.2041 H   0  0  0  0  0  0  0  0  0  0  0  0
   -7.6361   24.6389  -29.3487 H   0  0  0  0  0  0  0  0  0  0  0  0
   -5.4566   25.7537  -28.9573 H   0  0  0  0  0  0  0  0  0  0  0  0
   -1.1514   24.2858  -29.4942 H   0  0  0  0  0  0  0  0  0  0  0  0
   -1.8645   25.4751  -28.3342 H   0  0  0  0  0  0  0  0  0  0  0  0
   -2.8892   23.8581  -27.1106 H   0  0  0  0  0  0  0  0  0  0  0  0
   -3.3692   22.9233  -28.5736 H   0  0  0  0  0  0  0  0  0  0  0  0
   -0.8870   22.7973  -29.8460 H   0  0  0  0  0  0  0  0  0  0  0  0
    0.3140   21.8987  -28.8199 H   0  0  0  0  0  0  0  0  0  0  0  0
   -1.2457   20.6744  -30.6685 H   0  0  0  0  0  0  0  0  0  0  0  0
   -0.6944   19.8793  -29.1468 H   0  0  0  0  0  0  0  0  0  0  0  0
   -3.7516   20.4525  -27.4393 H   0  0  0  0  0  0  0  0  0  0  0  0
   -2.3187   19.3341  -27.5428 H   0  0  0  0  0  0  0  0  0  0  0  0
   -2.4141   21.7277  -26.1279 H   0  0  0  0  0  0  0  0  0  0  0  0
   -0.9251   20.8352  -26.6587 H   0  0  0  0  0  0  0  0  0  0  0  0
   -2.2282   23.0807  -31.2523 H   0  0  0  0  0  0  0  0  0  0  0  0
   -2.3411   21.0998  -32.7482 H   0  0  0  0  0  0  0  0  0  0  0  0
   -4.5194   19.9882  -33.2001 H   0  0  0  0  0  0  0  0  0  0  0  0
   -6.6044   20.8387  -32.1472 H   0  0  0  0  0  0  0  0  0  0  0  0
  1  2  1  0
  2  3  1  0
  3  4  1  0
  3  5  1  0
  5  6  1  0
  6  7  1  0
  7  8  1  0
  8  9  1  0
  9 10  2  0
 10 11  1  0
 11 12  2  0
 12 13  1  0
 13 14  1  0
 14 15  1  0
 15 16  1  0
 16 17  1  0
 17 18  1  0
 18 19  1  0
 19 20  1  0
 20 21  1  0
 12 22  1  0
 22 23  2  0
 23 24  1  0
 24 25  2  0
 25 26  1  0
 26 27  2  0
 27  9  1  0
 21 16  1  0
 27 22  1  0
  1 28  1  0
  1 29  1  0
  1 30  1  0
  2 31  1  0
  2 32  1  0
  4 33  1  0
  4 34  1  0
  4 35  1  0
  5 36  1  0
  5 37  1  0
  6 38  1  0
  6 39  1  0
  8 40  1  0
  8 41  1  0
 10 42  1  0
 11 43  1  0
 14 44  1  0
 14 45  1  0
 15 46  1  0
 15 47  1  0
 17 48  1  0
 17 49  1  0
 18 50  1  0
 18 51  1  0
 20 52  1  0
 20 53  1  0
 21 54  1  0
 21 55  1  0
 23 56  1  0
 24 57  1  0
 25 58  1  0
 26 59  1  0
M  END
>  <UniqueID>  (15) 
15

>  <SMILES>  (15) 
CCN(C)CCOCc1ccc(OCCN2CCOCC2)c2ccccc12

>  <Energy>  (15) 
81.33568615202776

>  <Genealogy>  (15) 
CCN(C)CCOCc1ccc(OCCN2CCOCC2)c2ccccc12 (3D coordinates assigned)
CCN(C)CCOCc1ccc(OCCN2CCOCC2)c2ccccc12 (nonaromatic ring conformer: 81.33568615202776 kcal/mol)

>  <smiles>  (15) 
CCN(C)CCOCc1ccc(OCCN2CCOCC2)c2ccccc12

>  <score_type>  (15) 
oracle

>  <origin>  (15) 
adg

>  <m_score__min__energy>  (15) 
-8.3800000000000008

>  <m_primary>  (15) 
energy

$$$$
15:0
     RDKit          3D

 63 65  0  0  0  0  0  0  0  0999 V2000
   -1.2110   26.8220  -24.1920 C   0  0  0  0  0  0  0  0  0  0  0  0
    0.2170   27.2870  -23.8950 C   0  0  0  0  0  0  0  0  0  0  0  0
    1.0560   26.2110  -23.3430 N   0  0  0  0  0  0  0  0  0  0  0  0
    2.2420   25.9450  -24.1770 C   0  0  0  0  0  0  0  0  0  0  0  0
    2.2340   24.5040  -24.7080 C   0  0  0  0  0  0  0  0  0  0  0  0
    0.8540   24.0790  -25.0330 N   0  0  0  0  0  0  0  0  0  0  0  0
    0.3470   23.0640  -24.0940 C   0  0  0  0  0  0  0  0  0  0  0  0
    0.6870   23.6800  -26.4480 C   0  0  0  0  0  0  0  0  0  0  0  0
    1.0610   24.7840  -27.4540 C   0  0  0  0  0  0  0  0  0  0  0  0
   -0.1510   25.2850  -28.1160 N   0  0  0  0  0  0  0  0  0  0  0  0
   -1.3330   25.2110  -27.2450 C   0  0  0  0  0  0  0  0  0  0  0  0
   -2.5290   24.5440  -27.9370 C   0  0  0  0  0  0  0  0  0  0  0  0
   -2.3230   24.4320  -29.3850 N   0  0  0  0  0  0  0  0  0  0  0  0
   -3.0800   23.5140  -30.1980 C   0  0  0  0  0  0  0  0  0  0  0  0
   -2.4400   22.4470  -30.8570 C   0  0  0  0  0  0  0  0  0  0  0  0
   -1.0660   22.1870  -30.6520 C   0  0  0  0  0  0  0  0  0  0  0  0
   -0.4150   21.1850  -31.3700 C   0  0  0  0  0  0  0  0  0  0  0  0
   -1.1160   20.4260  -32.2990 C   0  0  0  0  0  0  0  0  0  0  0  0
   -2.4830   20.6340  -32.4830 C   0  0  0  0  0  0  0  0  0  0  0  0
   -3.1880   21.6040  -31.7220 C   0  0  0  0  0  0  0  0  0  0  0  0
   -4.5620   21.7390  -31.8090 N   0  0  0  0  0  0  0  0  0  0  0  0
   -5.3610   20.6910  -32.4850 C   0  0  0  0  0  0  0  0  0  0  0  0
   -5.1910   22.8280  -31.2300 C   0  0  0  0  0  0  0  0  0  0  0  0
   -6.5560   23.1230  -31.4860 C   0  0  0  0  0  0  0  0  0  0  0  0
   -7.1910   24.1960  -30.8660 C   0  0  0  0  0  0  0  0  0  0  0  0
   -6.4860   25.0150  -29.9930 C   0  0  0  0  0  0  0  0  0  0  0  0
   -5.1360   24.7770  -29.7510 C   0  0  0  0  0  0  0  0  0  0  0  0
   -4.4640   23.7060  -30.3800 C   0  0  0  0  0  0  0  0  0  0  0  0
   -1.7443   26.6483  -23.2457 H   0  0  0  0  0  0  0  0  0  0  0  0
   -1.7355   27.5958  -24.7718 H   0  0  0  0  0  0  0  0  0  0  0  0
   -1.1793   25.8878  -24.7718 H   0  0  0  0  0  0  0  0  0  0  0  0
    0.6729   27.6458  -24.8296 H   0  0  0  0  0  0  0  0  0  0  0  0
    0.1587   28.0860  -23.1412 H   0  0  0  0  0  0  0  0  0  0  0  0
    1.3630   26.5120  -22.3890 H   0  0  0  0  0  0  0  0  0  0  0  0
    0.4900   25.3370  -23.2400 H   0  0  0  0  0  0  0  0  0  0  0  0
    2.2457   26.6414  -25.0285 H   0  0  0  0  0  0  0  0  0  0  0  0
    3.1414   26.0841  -23.5591 H   0  0  0  0  0  0  0  0  0  0  0  0
    2.8529   24.4493  -25.6157 H   0  0  0  0  0  0  0  0  0  0  0  0
    2.6384   23.8368  -23.9325 H   0  0  0  0  0  0  0  0  0  0  0  0
    0.5163   23.4028  -23.0613 H   0  0  0  0  0  0  0  0  0  0  0  0
   -0.7304   22.9169  -24.2597 H   0  0  0  0  0  0  0  0  0  0  0  0
    0.8765   22.1142  -24.2597 H   0  0  0  0  0  0  0  0  0  0  0  0
    1.3263   22.8055  -26.6394 H   0  0  0  0  0  0  0  0  0  0  0  0
   -0.3810   23.4615  -26.5950 H   0  0  0  0  0  0  0  0  0  0  0  0
    1.5549   25.6106  -26.9222 H   0  0  0  0  0  0  0  0  0  0  0  0
    1.7435   24.3699  -28.2107 H   0  0  0  0  0  0  0  0  0  0  0  0
    0.0010   26.2970  -28.3430 H   0  0  0  0  0  0  0  0  0  0  0  0
   -1.0747   24.6294  -26.3477 H   0  0  0  0  0  0  0  0  0  0  0  0
   -1.6252   26.2399  -26.9883 H   0  0  0  0  0  0  0  0  0  0  0  0
   -2.6676   23.5367  -27.5174 H   0  0  0  0  0  0  0  0  0  0  0  0
   -3.4180   25.1682  -27.7638 H   0  0  0  0  0  0  0  0  0  0  0  0
   -1.4850   24.8980  -29.7980 H   0  0  0  0  0  0  0  0  0  0  0  0
   -0.5038   22.7822  -29.9174 H   0  0  0  0  0  0  0  0  0  0  0  0
    0.6552   20.9950  -31.2008 H   0  0  0  0  0  0  0  0  0  0  0  0
   -0.5924   19.6602  -32.8901 H   0  0  0  0  0  0  0  0  0  0  0  0
   -3.0246   20.0361  -33.2308 H   0  0  0  0  0  0  0  0  0  0  0  0
   -5.8458   20.0551  -31.7296 H   0  0  0  0  0  0  0  0  0  0  0  0
   -6.1296   21.1643  -33.1137 H   0  0  0  0  0  0  0  0  0  0  0  0
   -4.7011   20.0752  -33.1137 H   0  0  0  0  0  0  0  0  0  0  0  0
   -7.1224   22.4923  -32.1870 H   0  0  0  0  0  0  0  0  0  0  0  0
   -8.2537   24.3957  -31.0680 H   0  0  0  0  0  0  0  0  0  0  0  0
   -6.9949   25.8521  -29.4927 H   0  0  0  0  0  0  0  0  0  0  0  0
   -4.5850   25.4322  -29.0603 H   0  0  0  0  0  0  0  0  0  0  0  0
  1  2  1  0
  2  3  1  0
  3  4  1  0
  4  5  1  0
  5  6  1  0
  6  7  1  0
  6  8  1  0
  8  9  1  0
  9 10  1  0
 10 11  1  0
 11 12  1  0
 12 13  1  0
 13 14  1  0
 14 15  2  0
 15 16  1  0
 16 17  2  0
 17 18  1  0
 18 19  2  0
 19 20  1  0
 20 21  2  0
 21 22  1  0
 21 23  1  0
 23 24  2  0
 24 25  1  0
 25 26  2  0
 26 27  1  0
 27 28  2  0
 28 14  1  0
 20 15  1  0
 28 23  1  0
  1 29  1  0
  1 30  1  0
  1 31  1  0
  2 32  1  0
  2 33  1  0
  3 34  1  0
  3 35  1  0
  4 36  1  0
  4 37  1  0
  5 38  1  0
  5 39  1  0
  7 40  1  0
  7 41  1  0
  7 42  1  0
  8 43  1  0
  8 44  1  0
  9 45  1  0
  9 46  1  0
 10 47  1  0
 11 48  1  0
 11 49  1  0
 12 50  1  0
 12 51  1  0
 13 52  1  0
 16 53  1  0
 17 54  1  0
 18 55  1  0
 19 56  1  0
 22 57  1  0
 22 58  1  0
 22 59  1  0
 24 60  1  0
 25 61  1  0
 26 62  1  0
 27 63  1  0
M  CHG  2   3   1  21   1
M  END
>  <UniqueID>  (16) 
16

>  <SMILES>  (16) 
CC[NH2+]CCN(C)CCNCCNc1c2ccccc2[n+](C)c2ccccc12

>  <Energy>  (16) 
80.78994621577256

>  <Genealogy>  (16) 
CC[NH2+]CCN(C)CCNCCNc1c2ccccc2[n+](C)c2ccccc12 (protonated)
CC[NH2+]CCN(C)CCNCCNc1c2ccccc2[n+](C)c2ccccc12 (3D coordinates assigned)
CC[NH2+]CCN(C)CCNCCNc1c2ccccc2[n+](C)c2ccccc12 (optimized conformer: 80.78994621577256 kcal/mol)

>  <smiles>  (16) 
CCNCCN(C)CCNCCNc1c2ccccc2[n+](C)c2ccccc12

>  <score_type>  (16) 
oracle

>  <origin>  (16) 
adg

>  <m_score__min__energy>  (16) 
-9.0500000000000007

>  <m_primary>  (16) 
energy

$$$$
16:0
     RDKit          3D

 49 53  0  0  0  0  0  0  0  0999 V2000
   -5.7250   25.6740  -30.4660 C   0  0  0  0  0  0  0  0  0  0  0  0
   -5.9900   24.3160  -29.8250 C   0  0  0  0  0  0  0  0  0  0  0  0
   -4.9000   23.3820  -30.1350 N   0  0  0  0  0  0  0  0  0  0  0  0
   -3.5970   23.5380  -29.7690 C   0  0  0  0  0  0  0  0  0  0  0  0
   -3.0480   24.5240  -28.9400 C   0  0  0  0  0  0  0  0  0  0  0  0
   -1.6580   24.5090  -28.7180 C   0  0  0  0  0  0  0  0  0  0  0  0
   -0.9290   25.7230  -27.6830 Cl  0  0  0  0  0  0  0  0  0  0  0  0
   -0.8450   23.5280  -29.3280 C   0  0  0  0  0  0  0  0  0  0  0  0
   -1.4120   22.5520  -30.1660 C   0  0  0  0  0  0  0  0  0  0  0  0
   -2.7900   22.5890  -30.3620 C   0  0  0  0  0  0  0  0  0  0  0  0
   -3.6240   21.8180  -31.1310 C   0  0  0  0  0  0  0  0  0  0  0  0
   -3.3220   20.7850  -31.9570 N   0  0  0  0  0  0  0  0  0  0  0  0
   -4.3380   20.1930  -32.6590 C   0  0  0  0  0  0  0  0  0  0  0  0
   -4.0770   19.0580  -33.5800 C   0  0  0  0  0  0  0  0  0  0  0  0
   -2.7880   18.5080  -33.7140 C   0  0  0  0  0  0  0  0  0  0  0  0
   -2.5630   17.4350  -34.5810 C   0  0  0  0  0  0  0  0  0  0  0  0
   -3.6180   16.8950  -35.3180 C   0  0  0  0  0  0  0  0  0  0  0  0
   -4.9040   17.4240  -35.1860 C   0  0  0  0  0  0  0  0  0  0  0  0
   -5.1350   18.4970  -34.3190 C   0  0  0  0  0  0  0  0  0  0  0  0
   -5.6200   20.6570  -32.5180 N   0  0  0  0  0  0  0  0  0  0  0  0
   -5.9380   21.7010  -31.6980 C   0  0  0  0  0  0  0  0  0  0  0  0
   -7.3080   22.0700  -31.5410 N   0  0  0  0  0  0  0  0  0  0  0  0
   -7.8810   23.2050  -32.2390 C   0  0  0  0  0  0  0  0  0  0  0  0
   -9.3790   23.1170  -31.9880 C   0  0  0  0  0  0  0  0  0  0  0  0
   -9.6480   21.6670  -31.5950 C   0  0  0  0  0  0  0  0  0  0  0  0
   -8.3100   21.1020  -31.1290 C   0  0  0  0  0  0  0  0  0  0  0  0
   -4.8970   22.3120  -30.9820 C   0  0  0  0  0  0  0  0  0  0  0  0
   -5.5778   26.4284  -29.6791 H   0  0  0  0  0  0  0  0  0  0  0  0
   -4.8215   25.6146  -31.0906 H   0  0  0  0  0  0  0  0  0  0  0  0
   -6.5845   25.9586  -31.0906 H   0  0  0  0  0  0  0  0  0  0  0  0
   -6.0634   24.4382  -28.7343 H   0  0  0  0  0  0  0  0  0  0  0  0
   -6.9315   23.9107  -30.2242 H   0  0  0  0  0  0  0  0  0  0  0  0
   -3.6859   25.2899  -28.4747 H   0  0  0  0  0  0  0  0  0  0  0  0
    0.2398   23.5278  -29.1459 H   0  0  0  0  0  0  0  0  0  0  0  0
   -0.7887   21.7857  -30.6500 H   0  0  0  0  0  0  0  0  0  0  0  0
   -2.3290   20.4840  -32.0690 H   0  0  0  0  0  0  0  0  0  0  0  0
   -1.9526   18.9254  -33.1327 H   0  0  0  0  0  0  0  0  0  0  0  0
   -1.5515   17.0149  -34.6827 H   0  0  0  0  0  0  0  0  0  0  0  0
   -3.4369   16.0532  -36.0025 H   0  0  0  0  0  0  0  0  0  0  0  0
   -5.7360   16.9962  -35.7646 H   0  0  0  0  0  0  0  0  0  0  0  0
   -6.1510   18.9053  -34.2141 H   0  0  0  0  0  0  0  0  0  0  0  0
   -7.4780   24.1469  -31.8385 H   0  0  0  0  0  0  0  0  0  0  0  0
   -7.6437   23.1881  -33.3130 H   0  0  0  0  0  0  0  0  0  0  0  0
   -9.6718   23.7957  -31.1734 H   0  0  0  0  0  0  0  0  0  0  0  0
   -9.9572   23.4105  -32.8765 H   0  0  0  0  0  0  0  0  0  0  0  0
  -10.3861   21.6225  -30.7806 H   0  0  0  0  0  0  0  0  0  0  0  0
  -10.0569   21.0905  -32.4379 H   0  0  0  0  0  0  0  0  0  0  0  0
   -8.3033   20.9853  -30.0352 H   0  0  0  0  0  0  0  0  0  0  0  0
   -8.1165   20.1092  -31.5613 H   0  0  0  0  0  0  0  0  0  0  0  0
  1  2  1  0
  2  3  1  0
  3  4  1  0
  4  5  2  0
  5  6  1  0
  6  7  1  0
  6  8  2  0
  8  9  1  0
  9 10  2  0
 10 11  1  0
 11 12  2  0
 12 13  1  0
 13 14  1  0
 14 15  2  0
 15 16  1  0
 16 17  2  0
 17 18  1  0
 18 19  2  0
 13 20  2  0
 20 21  1  0
 21 22  1  0
 22 23  1  0
 23 24  1  0
 24 25  1  0
 25 26  1  0
 21 27  2  0
 27  3  1  0
 10  4  1  0
 27 11  1  0
 19 14  1  0
 26 22  1  0
  1 28  1  0
  1 29  1  0
  1 30  1  0
  2 31  1  0
  2 32  1  0
  5 33  1  0
  8 34  1  0
  9 35  1  0
 12 36  1  0
 15 37  1  0
 16 38  1  0
 17 39  1  0
 18 40  1  0
 19 41  1  0
 23 42  1  0
 23 43  1  0
 24 44  1  0
 24 45  1  0
 25 46  1  0
 25 47  1  0
 26 48  1  0
 26 49  1  0
M  CHG  1  12   1
M  END
>  <UniqueID>  (17) 
17

>  <SMILES>  (17) 
CCn1c2cc(Cl)ccc2c2[nH+]c(-c3ccccc3)nc(N3CCCC3)c21

>  <Energy>  (17) 
106.86061177073154

>  <Genealogy>  (17) 
CCn1c2cc(Cl)ccc2c2[nH+]c(-c3ccccc3)nc(N3CCCC3)c21 (protonated)
CCn1c2cc(Cl)ccc2c2[nH+]c(-c3ccccc3)nc(N3CCCC3)c21 (3D coordinates assigned)
CCn1c2cc(Cl)ccc2c2[nH+]c(-c3ccccc3)nc(N3CCCC3)c21 (nonaromatic ring conformer: 106.86061177073154 kcal/mol)

>  <smiles>  (17) 
CCn1c2cc(Cl)ccc2c2nc(-c3ccccc3)nc(N3CCCC3)c21

>  <score_type>  (17) 
oracle

>  <origin>  (17) 
adg

>  <m_score__min__energy>  (17) 
-8.0999999999999996

>  <m_primary>  (17) 
energy

$$$$
17:0
     RDKit          3D

 50 52  0  0  0  0  0  0  0  0999 V2000
   -6.3880   25.4780  -30.0690 C   0  0  0  0  0  0  0  0  0  0  0  0
   -4.9980   24.9480  -29.9420 C   0  0  0  0  0  0  0  0  0  0  0  0
   -4.1250   25.2770  -30.7900 O   0  0  0  0  0  0  0  0  0  0  0  0
   -4.6560   24.0980  -28.8390 N   0  0  0  0  0  0  0  0  0  0  0  0
   -3.3350   23.4890  -28.6900 C   0  0  0  0  0  0  0  0  0  0  0  0
   -2.8480   22.8520  -30.0030 C   0  0  0  0  0  0  0  0  0  0  0  0
   -2.8590   21.3790  -29.9740 N   0  0  0  0  0  0  0  0  0  0  0  0
   -3.5850   20.7860  -31.1050 C   0  0  0  0  0  0  0  0  0  0  0  0
   -3.2990   21.5760  -32.3820 C   0  0  0  0  0  0  0  0  0  0  0  0
   -4.4500   21.5480  -33.2880 N   0  0  0  0  0  0  0  0  0  0  0  0
   -5.6190   20.7580  -33.0000 C   0  0  0  0  0  0  0  0  0  0  0  0
   -5.6340   19.3800  -33.2860 C   0  0  0  0  0  0  0  0  0  0  0  0
   -4.4810   18.7300  -33.7790 C   0  0  0  0  0  0  0  0  0  0  0  0
   -4.5190   17.3840  -34.1330 C   0  0  0  0  0  0  0  0  0  0  0  0
   -5.7000   16.6640  -34.0050 C   0  0  0  0  0  0  0  0  0  0  0  0
   -6.8380   17.2730  -33.4780 C   0  0  0  0  0  0  0  0  0  0  0  0
   -6.8170   18.6290  -33.0590 C   0  0  0  0  0  0  0  0  0  0  0  0
   -7.9120   19.2200  -32.4530 N   0  0  0  0  0  0  0  0  0  0  0  0
   -9.0270   18.3800  -31.9620 C   0  0  0  0  0  0  0  0  0  0  0  0
   -7.9450   20.5900  -32.2660 C   0  0  0  0  0  0  0  0  0  0  0  0
   -9.1330   21.2600  -31.8760 C   0  0  0  0  0  0  0  0  0  0  0  0
   -9.1410   22.6340  -31.6390 C   0  0  0  0  0  0  0  0  0  0  0  0
   -7.9780   23.3770  -31.7930 C   0  0  0  0  0  0  0  0  0  0  0  0
   -6.8060   22.7560  -32.2160 C   0  0  0  0  0  0  0  0  0  0  0  0
   -6.7780   21.3700  -32.4860 C   0  0  0  0  0  0  0  0  0  0  0  0
   -6.8118   25.6396  -29.0669 H   0  0  0  0  0  0  0  0  0  0  0  0
   -6.3682   26.4317  -30.6169 H   0  0  0  0  0  0  0  0  0  0  0  0
   -7.0081   24.7532  -30.6169 H   0  0  0  0  0  0  0  0  0  0  0  0
   -5.3600   23.9490  -28.0810 H   0  0  0  0  0  0  0  0  0  0  0  0
   -2.6179   24.2647  -28.3832 H   0  0  0  0  0  0  0  0  0  0  0  0
   -3.4079   22.6956  -27.9316 H   0  0  0  0  0  0  0  0  0  0  0  0
   -3.5030   23.1903  -30.8194 H   0  0  0  0  0  0  0  0  0  0  0  0
   -1.8048   23.1677  -30.1516 H   0  0  0  0  0  0  0  0  0  0  0  0
   -3.2760   21.0410  -29.0750 H   0  0  0  0  0  0  0  0  0  0  0  0
   -3.2596   19.7440  -31.2407 H   0  0  0  0  0  0  0  0  0  0  0  0
   -4.6646   20.8155  -30.8964 H   0  0  0  0  0  0  0  0  0  0  0  0
   -3.0761   22.6199  -32.1164 H   0  0  0  0  0  0  0  0  0  0  0  0
   -2.4406   21.1155  -32.8930 H   0  0  0  0  0  0  0  0  0  0  0  0
   -4.3100   21.8950  -34.2640 H   0  0  0  0  0  0  0  0  0  0  0  0
   -3.5423   19.2936  -33.8845 H   0  0  0  0  0  0  0  0  0  0  0  0
   -3.6130   16.8903  -34.5144 H   0  0  0  0  0  0  0  0  0  0  0  0
   -5.7374   15.6108  -34.3202 H   0  0  0  0  0  0  0  0  0  0  0  0
   -7.7679   16.6928  -33.3853 H   0  0  0  0  0  0  0  0  0  0  0  0
   -9.0284   18.3789  -30.8620 H   0  0  0  0  0  0  0  0  0  0  0  0
   -9.9811   18.7857  -32.3295 H   0  0  0  0  0  0  0  0  0  0  0  0
   -8.9003   17.3510  -32.3295 H   0  0  0  0  0  0  0  0  0  0  0  0
  -10.0638   20.6857  -31.7585 H   0  0  0  0  0  0  0  0  0  0  0  0
  -10.0719   23.1312  -31.3289 H   0  0  0  0  0  0  0  0  0  0  0  0
   -7.9828   24.4563  -31.5807 H   0  0  0  0  0  0  0  0  0  0  0  0
   -5.8902   23.3523  -32.3415 H   0  0  0  0  0  0  0  0  0  0  0  0
  1  2  1  0
  2  3  2  0
  2  4  1  0
  4  5  1  0
  5  6  1  0
  6  7  1  0
  7  8  1  0
  8  9  1  0
  9 10  1  0
 10 11  1  0
 11 12  2  0
 12 13  1  0
 13 14  2  0
 14 15  1  0
 15 16  2  0
 16 17  1  0
 17 18  2  0
 18 19  1  0
 18 20  1  0
 20 21  2  0
 21 22  1  0
 22 23  2  0
 23 24  1  0
 24 25  2  0
 25 11  1  0
 17 12  1  0
 25 20  1  0
  1 26  1  0
  1 27  1  0
  1 28  1  0
  4 29  1  0
  5 30  1  0
  5 31  1  0
  6 32  1  0
  6 33  1  0
  7 34  1  0
  8 35  1  0
  8 36  1  0
  9 37  1  0
  9 38  1  0
 10 39  1  0
 13 40  1  0
 14 41  1  0
 15 42  1  0
 16 43  1  0
 19 44  1  0
 19 45  1  0
 19 46  1  0
 21 47  1  0
 22 48  1  0
 23 49  1  0
 24 50  1  0
M  CHG  1  18   1
M  END
>  <UniqueID>  (18) 
18

>  <SMILES>  (18) 
CC(=O)NCCNCCNc1c2ccccc2[n+](C)c2ccccc12

>  <Energy>  (18) 
69.91981337861506

>  <Genealogy>  (18) 
CC(=O)NCCNCCNc1c2ccccc2[n+](C)c2ccccc12 (3D coordinates assigned)
CC(=O)NCCNCCNc1c2ccccc2[n+](C)c2ccccc12 (optimized conformer: 69.91981337861506 kcal/mol)

>  <smiles>  (18) 
CC(=O)NCCNCCNc1c2ccccc2[n+](C)c2ccccc12

>  <score_type>  (18) 
oracle

>  <origin>  (18) 
adg

>  <m_score__min__energy>  (18) 
-9.6899999999999995

>  <m_primary>  (18) 
energy

$$$$
18:0
     RDKit          3D

 46 47  0  0  0  0  0  0  0  0999 V2000
   -1.2570   24.7500  -28.5940 C   0  0  0  0  0  0  0  0  0  0  0  0
   -1.6240   23.4280  -29.2840 C   0  0  0  0  0  0  0  0  0  0  0  0
   -2.8410   23.5130  -30.1240 N   0  0  0  0  0  0  0  0  0  0  0  0
   -3.4280   22.1890  -30.4320 C   0  0  0  0  0  0  0  0  0  0  0  0
   -3.3700   21.9470  -31.9340 C   0  0  0  0  0  0  0  0  0  0  0  0
   -3.8230   24.4990  -29.6140 C   0  0  0  0  0  0  0  0  0  0  0  0
   -4.2010   25.4690  -30.6550 N   0  0  0  0  0  0  0  0  0  0  0  0
   -5.6550   25.5270  -30.8750 C   0  0  0  0  0  0  0  0  0  0  0  0
   -6.3730   24.4430  -30.0720 C   0  0  0  0  0  0  0  0  0  0  0  0
   -7.4850   23.9480  -30.8140 O   0  0  0  0  0  0  0  0  0  0  0  0
   -7.5980   22.6330  -31.2900 C   0  0  0  0  0  0  0  0  0  0  0  0
   -8.6070   21.8220  -30.7590 C   0  0  0  0  0  0  0  0  0  0  0  0
   -8.7680   20.5060  -31.2010 C   0  0  0  0  0  0  0  0  0  0  0  0
   -7.9060   19.9760  -32.1720 C   0  0  0  0  0  0  0  0  0  0  0  0
   -6.8930   20.7890  -32.7190 C   0  0  0  0  0  0  0  0  0  0  0  0
   -6.7420   22.1110  -32.2780 C   0  0  0  0  0  0  0  0  0  0  0  0
   -6.0130   20.2560  -33.7180 N   0  0  0  0  0  0  0  0  0  0  0  0
   -6.0130   18.8540  -34.0090 C   0  0  0  0  0  0  0  0  0  0  0  0
   -5.2780   18.4000  -34.9250 O   0  0  0  0  0  0  0  0  0  0  0  0
   -6.8280   17.9210  -33.1640 C   0  0  0  0  0  0  0  0  0  0  0  0
   -8.1360   18.5880  -32.7190 C   0  0  0  0  0  0  0  0  0  0  0  0
   -1.2940   24.6167  -27.5027 H   0  0  0  0  0  0  0  0  0  0  0  0
   -0.2416   25.0499  -28.8925 H   0  0  0  0  0  0  0  0  0  0  0  0
   -1.9725   25.5304  -28.8925 H   0  0  0  0  0  0  0  0  0  0  0  0
   -0.7816   23.1240  -29.9227 H   0  0  0  0  0  0  0  0  0  0  0  0
   -1.8325   22.6972  -28.4887 H   0  0  0  0  0  0  0  0  0  0  0  0
   -2.8583   21.4050  -29.9117 H   0  0  0  0  0  0  0  0  0  0  0  0
   -4.4752   22.1643  -30.0961 H   0  0  0  0  0  0  0  0  0  0  0  0
   -3.1176   20.8938  -32.1262 H   0  0  0  0  0  0  0  0  0  0  0  0
   -4.3487   22.1769  -32.3805 H   0  0  0  0  0  0  0  0  0  0  0  0
   -2.6019   22.5955  -32.3805 H   0  0  0  0  0  0  0  0  0  0  0  0
   -4.7243   23.9654  -29.2779 H   0  0  0  0  0  0  0  0  0  0  0  0
   -3.3608   25.0484  -28.7806 H   0  0  0  0  0  0  0  0  0  0  0  0
   -3.8640   26.4190  -30.3780 H   0  0  0  0  0  0  0  0  0  0  0  0
   -6.0274   26.5134  -30.5614 H   0  0  0  0  0  0  0  0  0  0  0  0
   -5.8550   25.3622  -31.9440 H   0  0  0  0  0  0  0  0  0  0  0  0
   -5.6749   23.6181  -29.8667 H   0  0  0  0  0  0  0  0  0  0  0  0
   -6.7309   24.8709  -29.1240 H   0  0  0  0  0  0  0  0  0  0  0  0
   -9.2795   22.2238  -29.9868 H   0  0  0  0  0  0  0  0  0  0  0  0
   -9.5741   19.8834  -30.7856 H   0  0  0  0  0  0  0  0  0  0  0  0
   -5.9506   22.7437  -32.7062 H   0  0  0  0  0  0  0  0  0  0  0  0
   -5.3480   20.8850  -34.2240 H   0  0  0  0  0  0  0  0  0  0  0  0
   -7.0640   17.0192  -33.7479 H   0  0  0  0  0  0  0  0  0  0  0  0
   -6.2454   17.6572  -32.2690 H   0  0  0  0  0  0  0  0  0  0  0  0
   -8.8126   18.6548  -33.5837 H   0  0  0  0  0  0  0  0  0  0  0  0
   -8.5739   17.9753  -31.9172 H   0  0  0  0  0  0  0  0  0  0  0  0
  1  2  1  0
  2  3  1  0
  3  4  1  0
  4  5  1  0
  3  6  1  0
  6  7  1  0
  7  8  1  0
  8  9  1  0
  9 10  1  0
 10 11  1  0
 11 12  2  0
 12 13  1  0
 13 14  2  0
 14 15  1  0
 15 16  2  0
 15 17  1  0
 17 18  1  0
 18 19  2  0
 18 20  1  0
 20 21  1  0
 16 11  1  0
 21 14  1  0
  1 22  1  0
  1 23  1  0
  1 24  1  0
  2 25  1  0
  2 26  1  0
  4 27  1  0
  4 28  1  0
  5 29  1  0
  5 30  1  0
  5 31  1  0
  6 32  1  0
  6 33  1  0
  7 34  1  0
  8 35  1  0
  8 36  1  0
  9 37  1  0
  9 38  1  0
 12 39  1  0
 13 40  1  0
 16 41  1  0
 17 42  1  0
 20 43  1  0
 20 44  1  0
 21 45  1  0
 21 46  1  0
M  END
>  <UniqueID>  (19) 
19

>  <SMILES>  (19) 
CCN(CC)CNCCOc1ccc2c(c1)NC(=O)CC2

>  <Energy>  (19) 
44.518632122272116

>  <Genealogy>  (19) 
CCN(CC)CNCCOc1ccc2c(c1)NC(=O)CC2 (3D coordinates assigned)
CCN(CC)CNCCOc1ccc2c(c1)NC(=O)CC2 (nonaromatic ring conformer: 44.518632122272116 kcal/mol)

>  <smiles>  (19) 
CCN(CC)CNCCOc1ccc2c(c1)NC(=O)CC2

>  <score_type>  (19) 
oracle

>  <origin>  (19) 
adg

>  <m_score__min__energy>  (19) 
-7.79

>  <m_primary>  (19) 
energy

$$$$
19:0
     RDKit          3D

 49 51  0  0  0  0  0  0  0  0999 V2000
   -2.0920   18.1510  -33.1880 C   0  0  0  0  0  0  0  0  0  0  0  0
   -1.9940   19.2830  -34.2110 C   0  0  0  0  0  0  0  0  0  0  0  0
   -1.6760   20.5790  -33.5670 N   0  0  0  0  0  0  0  0  0  0  0  0
   -0.4430   21.2220  -34.0850 C   0  0  0  0  0  0  0  0  0  0  0  0
   -0.1040   20.8550  -35.5370 C   0  0  0  0  0  0  0  0  0  0  0  0
   -1.6740   20.4680  -32.0900 C   0  0  0  0  0  0  0  0  0  0  0  0
   -2.8770   21.2140  -31.5030 C   0  0  0  0  0  0  0  0  0  0  0  0
   -3.9030   21.4300  -32.5260 N   0  0  0  0  0  0  0  0  0  0  0  0
   -5.2510   21.8060  -32.1940 C   0  0  0  0  0  0  0  0  0  0  0  0
   -5.4760   23.0820  -31.6500 C   0  0  0  0  0  0  0  0  0  0  0  0
   -6.6660   23.3990  -31.0650 N   0  0  0  0  0  0  0  0  0  0  0  0
   -6.8460   24.7250  -30.4680 C   0  0  0  0  0  0  0  0  0  0  0  0
   -7.6350   22.4560  -30.9130 C   0  0  0  0  0  0  0  0  0  0  0  0
   -7.4810   21.1760  -31.4600 C   0  0  0  0  0  0  0  0  0  0  0  0
   -8.4760   20.2130  -31.2480 C   0  0  0  0  0  0  0  0  0  0  0  0
   -8.3500   18.9400  -31.7890 C   0  0  0  0  0  0  0  0  0  0  0  0
   -7.2790   18.6340  -32.6340 C   0  0  0  0  0  0  0  0  0  0  0  0
   -7.2290   17.3740  -33.2540 C   0  0  0  0  0  0  0  0  0  0  0  0
   -6.2410   17.0900  -34.1930 C   0  0  0  0  0  0  0  0  0  0  0  0
   -5.3190   18.0710  -34.5500 C   0  0  0  0  0  0  0  0  0  0  0  0
   -5.3470   19.3240  -33.9330 C   0  0  0  0  0  0  0  0  0  0  0  0
   -6.2780   19.6090  -32.9050 C   0  0  0  0  0  0  0  0  0  0  0  0
   -6.3150   20.8600  -32.2060 C   0  0  0  0  0  0  0  0  0  0  0  0
   -2.0557   18.5709  -32.1719 H   0  0  0  0  0  0  0  0  0  0  0  0
   -3.0402   17.6113  -33.3280 H   0  0  0  0  0  0  0  0  0  0  0  0
   -1.2506   17.4564  -33.3280 H   0  0  0  0  0  0  0  0  0  0  0  0
   -1.2021   19.0412  -34.9352 H   0  0  0  0  0  0  0  0  0  0  0  0
   -2.9695   19.3789  -34.7102 H   0  0  0  0  0  0  0  0  0  0  0  0
   -0.5719   22.3128  -34.0260 H   0  0  0  0  0  0  0  0  0  0  0  0
    0.3885   20.8569  -33.4643 H   0  0  0  0  0  0  0  0  0  0  0  0
    0.6424   20.0470  -35.5463 H   0  0  0  0  0  0  0  0  0  0  0  0
   -1.0155   20.5181  -36.0524 H   0  0  0  0  0  0  0  0  0  0  0  0
    0.3040   21.7370  -36.0524 H   0  0  0  0  0  0  0  0  0  0  0  0
   -1.7297   19.4070  -31.8050 H   0  0  0  0  0  0  0  0  0  0  0  0
   -0.7481   20.9135  -31.6972 H   0  0  0  0  0  0  0  0  0  0  0  0
   -3.3050   20.6195  -30.6824 H   0  0  0  0  0  0  0  0  0  0  0  0
   -2.5386   22.1920  -31.1301 H   0  0  0  0  0  0  0  0  0  0  0  0
   -3.6440   21.3570  -33.5370 H   0  0  0  0  0  0  0  0  0  0  0  0
   -4.6784   23.8380  -31.6970 H   0  0  0  0  0  0  0  0  0  0  0  0
   -6.8342   24.6381  -29.3715 H   0  0  0  0  0  0  0  0  0  0  0  0
   -6.0295   25.3870  -30.7922 H   0  0  0  0  0  0  0  0  0  0  0  0
   -7.8094   25.1453  -30.7922 H   0  0  0  0  0  0  0  0  0  0  0  0
   -8.5499   22.7018  -30.3540 H   0  0  0  0  0  0  0  0  0  0  0  0
   -9.3631   20.4667  -30.6490 H   0  0  0  0  0  0  0  0  0  0  0  0
   -9.0970   18.1683  -31.5513 H   0  0  0  0  0  0  0  0  0  0  0  0
   -7.9747   16.6076  -32.9960 H   0  0  0  0  0  0  0  0  0  0  0  0
   -6.1887   16.0919  -34.6524 H   0  0  0  0  0  0  0  0  0  0  0  0
   -4.5648   17.8580  -35.3219 H   0  0  0  0  0  0  0  0  0  0  0  0
   -4.6354   20.1005  -34.2504 H   0  0  0  0  0  0  0  0  0  0  0  0
  1  2  1  0
  2  3  1  0
  3  4  1  0
  4  5  1  0
  3  6  1  0
  6  7  1  0
  7  8  1  0
  8  9  1  0
  9 10  2  0
 10 11  1  0
 11 12  1  0
 11 13  2  0
 13 14  1  0
 14 15  2  0
 15 16  1  0
 16 17  2  0
 17 18  1  0
 18 19  2  0
 19 20  1  0
 20 21  2  0
 21 22  1  0
 22 23  2  0
 23  9  1  0
 23 14  1  0
 22 17  1  0
  1 24  1  0
  1 25  1  0
  1 26  1  0
  2 27  1  0
  2 28  1  0
  4 29  1  0
  4 30  1  0
  5 31  1  0
  5 32  1  0
  5 33  1  0
  6 34  1  0
  6 35  1  0
  7 36  1  0
  7 37  1  0
  8 38  1  0
 10 39  1  0
 12 40  1  0
 12 41  1  0
 12 42  1  0
 13 43  1  0
 15 44  1  0
 16 45  1  0
 18 46  1  0
 19 47  1  0
 20 48  1  0
 21 49  1  0
M  CHG  1  11   1
M  END
>  <UniqueID>  (20) 
20

>  <SMILES>  (20) 
CCN(CC)CCNc1c[n+](C)cc2ccc3ccccc3c12

>  <Energy>  (20) 
71.73670194925282

>  <Genealogy>  (20) 
CCN(CC)CCNc1c[n+](C)cc2ccc3ccccc3c12 (3D coordinates assigned)
CCN(CC)CCNc1c[n+](C)cc2ccc3ccccc3c12 (optimized conformer: 71.73670194925282 kcal/mol)

>  <smiles>  (20) 
CCN(CC)CCNc1c[n+](C)cc2ccc3ccccc3c12

>  <score_type>  (20) 
oracle

>  <origin>  (20) 
adg

>  <m_score__min__energy>  (20) 
-8.3599999999999994

>  <m_primary>  (20) 
energy

$$$$
20:0
     RDKit          3D

 85 88  0  0  0  0  0  0  0  0999 V2000
   -1.2730   19.6990  -27.9930 C   0  0  0  0  0  0  0  0  0  0  0  0
   -2.7490   20.0370  -27.8110 C   0  0  0  0  0  0  0  0  0  0  0  0
   -3.1270   21.1380  -28.7070 N   0  0  0  0  0  0  0  0  0  0  0  0
   -2.7100   22.4420  -28.1650 C   0  0  0  0  0  0  0  0  0  0  0  0
   -1.5740   23.0300  -28.9980 C   0  0  0  0  0  0  0  0  0  0  0  0
   -1.8380   22.8570  -30.3760 O   0  0  0  0  0  0  0  0  0  0  0  0
   -0.8930   21.9580  -30.9250 C   0  0  0  0  0  0  0  0  0  0  0  0
   -1.5210   21.1910  -32.0910 C   0  0  0  0  0  0  0  0  0  0  0  0
   -2.8720   20.7290  -31.7450 N   0  0  0  0  0  0  0  0  0  0  0  0
   -3.8370   21.0930  -32.7910 C   0  0  0  0  0  0  0  0  0  0  0  0
   -5.2270   21.2580  -32.1880 C   0  0  0  0  0  0  0  0  0  0  0  0
   -5.5560   22.4640  -31.5110 C   0  0  0  0  0  0  0  0  0  0  0  0
   -4.5680   23.4050  -31.1240 C   0  0  0  0  0  0  0  0  0  0  0  0
   -4.9090   24.5790  -30.4550 C   0  0  0  0  0  0  0  0  0  0  0  0
   -6.2340   24.8420  -30.1440 C   0  0  0  0  0  0  0  0  0  0  0  0
   -7.2270   23.9360  -30.5040 C   0  0  0  0  0  0  0  0  0  0  0  0
   -6.9150   22.7400  -31.2030 C   0  0  0  0  0  0  0  0  0  0  0  0
   -7.9000   21.8520  -31.5740 N   0  0  0  0  0  0  0  0  0  0  0  0
   -9.3150   22.2880  -31.5880 C   0  0  0  0  0  0  0  0  0  0  0  0
   -7.5670   20.5630  -31.9320 C   0  0  0  0  0  0  0  0  0  0  0  0
   -8.5520   19.5470  -31.9540 C   0  0  0  0  0  0  0  0  0  0  0  0
   -8.2470   18.2550  -32.3470 C   0  0  0  0  0  0  0  0  0  0  0  0
   -6.9540   17.9280  -32.7180 C   0  0  0  0  0  0  0  0  0  0  0  0
   -5.9310   18.8890  -32.6930 C   0  0  0  0  0  0  0  0  0  0  0  0
   -4.6290   18.4980  -33.0440 O   0  0  0  0  0  0  0  0  0  0  0  0
   -4.2920   17.7020  -34.1810 C   0  0  0  0  0  0  0  0  0  0  0  0
   -3.5210   16.4450  -33.7270 C   0  0  0  0  0  0  0  0  0  0  0  0
   -2.0240   16.5430  -33.7590 N   0  0  0  0  0  0  0  0  0  0  0  0
   -1.6250   16.2500  -35.1640 C   0  0  0  0  0  0  0  0  0  0  0  0
   -1.5570   17.9310  -33.4160 C   0  0  0  0  0  0  0  0  0  0  0  0
   -0.8720   18.0260  -32.0350 C   0  0  0  0  0  0  0  0  0  0  0  0
    0.3040   17.1100  -31.9070 N   0  0  0  0  0  0  0  0  0  0  0  0
    0.5620   16.8880  -30.4630 C   0  0  0  0  0  0  0  0  0  0  0  0
    1.5070   17.7590  -32.4850 C   0  0  0  0  0  0  0  0  0  0  0  0
    0.0800   15.7890  -32.5850 C   0  0  0  0  0  0  0  0  0  0  0  0
   -1.4090   15.5060  -32.8700 C   0  0  0  0  0  0  0  0  0  0  0  0
   -6.2190   20.2300  -32.2770 C   0  0  0  0  0  0  0  0  0  0  0  0
   -0.7975   19.5901  -27.0071 H   0  0  0  0  0  0  0  0  0  0  0  0
   -1.1789   18.7561  -28.5516 H   0  0  0  0  0  0  0  0  0  0  0  0
   -0.7780   20.5070  -28.5516 H   0  0  0  0  0  0  0  0  0  0  0  0
   -3.3572   19.1510  -28.0460 H   0  0  0  0  0  0  0  0  0  0  0  0
   -2.9232   20.3437  -26.7691 H   0  0  0  0  0  0  0  0  0  0  0  0
   -2.6220   20.9930  -29.6130 H   0  0  0  0  0  0  0  0  0  0  0  0
   -3.5665   23.1319  -28.1831 H   0  0  0  0  0  0  0  0  0  0  0  0
   -2.3574   22.3013  -27.1326 H   0  0  0  0  0  0  0  0  0  0  0  0
   -1.4804   24.1037  -28.7781 H   0  0  0  0  0  0  0  0  0  0  0  0
   -0.6377   22.5114  -28.7444 H   0  0  0  0  0  0  0  0  0  0  0  0
   -0.0205   22.5218  -31.2869 H   0  0  0  0  0  0  0  0  0  0  0  0
   -0.5785   21.2444  -30.1492 H   0  0  0  0  0  0  0  0  0  0  0  0
   -1.5798   21.8527  -32.9678 H   0  0  0  0  0  0  0  0  0  0  0  0
   -0.8951   20.3143  -32.3138 H   0  0  0  0  0  0  0  0  0  0  0  0
   -3.1730   21.1980  -30.8560 H   0  0  0  0  0  0  0  0  0  0  0  0
   -3.5280   22.0402  -33.2571 H   0  0  0  0  0  0  0  0  0  0  0  0
   -3.8656   20.2949  -33.5475 H   0  0  0  0  0  0  0  0  0  0  0  0
   -3.5118   23.2042  -31.3565 H   0  0  0  0  0  0  0  0  0  0  0  0
   -4.1256   25.2980  -30.1733 H   0  0  0  0  0  0  0  0  0  0  0  0
   -6.5006   25.7673  -29.6124 H   0  0  0  0  0  0  0  0  0  0  0  0
   -8.2736   24.1504  -30.2421 H   0  0  0  0  0  0  0  0  0  0  0  0
   -9.6748   22.3989  -30.5544 H   0  0  0  0  0  0  0  0  0  0  0  0
   -9.3962   23.2528  -32.1100 H   0  0  0  0  0  0  0  0  0  0  0  0
   -9.9252   21.5362  -32.1100 H   0  0  0  0  0  0  0  0  0  0  0  0
   -9.5818   19.7890  -31.6524 H   0  0  0  0  0  0  0  0  0  0  0  0
   -9.0339   17.4865  -32.3645 H   0  0  0  0  0  0  0  0  0  0  0  0
   -6.7249   16.9005  -33.0369 H   0  0  0  0  0  0  0  0  0  0  0  0
   -5.2129   17.3982  -34.7003 H   0  0  0  0  0  0  0  0  0  0  0  0
   -3.6599   18.2902  -34.8625 H   0  0  0  0  0  0  0  0  0  0  0  0
   -3.8214   16.2215  -32.6927 H   0  0  0  0  0  0  0  0  0  0  0  0
   -3.7819   15.6598  -34.4518 H   0  0  0  0  0  0  0  0  0  0  0  0
   -0.7384   15.5989  -35.1652 H   0  0  0  0  0  0  0  0  0  0  0  0
   -2.4526   15.7434  -35.6821 H   0  0  0  0  0  0  0  0  0  0  0  0
   -1.3894   17.1913  -35.6821 H   0  0  0  0  0  0  0  0  0  0  0  0
   -0.8398   18.2569  -34.1837 H   0  0  0  0  0  0  0  0  0  0  0  0
   -2.4493   18.5733  -33.3798 H   0  0  0  0  0  0  0  0  0  0  0  0
   -0.5301   19.0603  -31.8827 H   0  0  0  0  0  0  0  0  0  0  0  0
   -1.6105   17.7247  -31.2775 H   0  0  0  0  0  0  0  0  0  0  0  0
   -0.1394   17.4915  -29.8682 H   0  0  0  0  0  0  0  0  0  0  0  0
    0.4225   15.8231  -30.2251 H   0  0  0  0  0  0  0  0  0  0  0  0
    1.5942   17.1847  -30.2251 H   0  0  0  0  0  0  0  0  0  0  0  0
    2.1597   18.1111  -31.6726 H   0  0  0  0  0  0  0  0  0  0  0  0
    2.0529   17.0330  -33.1054 H   0  0  0  0  0  0  0  0  0  0  0  0
    1.2000   18.6139  -33.1054 H   0  0  0  0  0  0  0  0  0  0  0  0
    0.6267   15.7872  -33.5395 H   0  0  0  0  0  0  0  0  0  0  0  0
    0.4413   15.0034  -31.9051 H   0  0  0  0  0  0  0  0  0  0  0  0
   -1.4954   14.5244  -33.3589 H   0  0  0  0  0  0  0  0  0  0  0  0
   -1.9452   15.5246  -31.9097 H   0  0  0  0  0  0  0  0  0  0  0  0
  1  2  1  0
  2  3  1  0
  3  4  1  0
  4  5  1  0
  5  6  1  0
  6  7  1  0
  7  8  1  0
  8  9  1  0
  9 10  1  0
 10 11  1  0
 11 12  2  0
 12 13  1  0
 13 14  2  0
 14 15  1  0
 15 16  2  0
 16 17  1  0
 17 18  2  0
 18 19  1  0
 18 20  1  0
 20 21  2  0
 21 22  1  0
 22 23  2  0
 23 24  1  0
 24 25  1  0
 25 26  1  0
 26 27  1  0
 27 28  1  0
 28 29  1  0
 28 30  1  0
 30 31  1  0
 31 32  1  0
 32 33  1  0
 32 34  1  0
 32 35  1  0
 35 36  1  0
 24 37  2  0
 37 11  1  0
 17 12  1  0
 37 20  1  0
 36 28  1  0
  1 38  1  0
  1 39  1  0
  1 40  1  0
  2 41  1  0
  2 42  1  0
  3 43  1  0
  4 44  1  0
  4 45  1  0
  5 46  1  0
  5 47  1  0
  7 48  1  0
  7 49  1  0
  8 50  1  0
  8 51  1  0
  9 52  1  0
 10 53  1  0
 10 54  1  0
 13 55  1  0
 14 56  1  0
 15 57  1  0
 16 58  1  0
 19 59  1  0
 19 60  1  0
 19 61  1  0
 21 62  1  0
 22 63  1  0
 23 64  1  0
 26 65  1  0
 26 66  1  0
 27 67  1  0
 27 68  1  0
 29 69  1  0
 29 70  1  0
 29 71  1  0
 30 72  1  0
 30 73  1  0
 31 74  1  0
 31 75  1  0
 33 76  1  0
 33 77  1  0
 33 78  1  0
 34 79  1  0
 34 80  1  0
 34 81  1  0
 35 82  1  0
 35 83  1  0
 36 84  1  0
 36 85  1  0
M  CHG  3  18   1  28   1  32   1
M  END
>  <UniqueID>  (21) 
21

>  <SMILES>  (21) 
CCNCCOCCNCc1c2ccccc2[n+](C)c2cccc(OCC[N+]3(C)CC[N+](C)(C)CC3)c12

>  <Energy>  (21) 
140.4119867250329

>  <Genealogy>  (21) 
CCNCCOCCNCc1c2ccccc2[n+](C)c2cccc(OCC[N+]3(C)CC[N+](C)(C)CC3)c12 (3D coordinates assigned)
CCNCCOCCNCc1c2ccccc2[n+](C)c2cccc(OCC[N+]3(C)CC[N+](C)(C)CC3)c12 (nonaromatic ring conformer: 140.4119867250329 kcal/mol)

>  <smiles>  (21) 
CCNCCOCCNCc1c2ccccc2[n+](C)c2cccc(OCC[N+]3(C)CC[N+](C)(C)CC3)c12

>  <score_type>  (21) 
oracle

>  <origin>  (21) 
adg

>  <m_score__min__energy>  (21) 
-7.3799999999999999

>  <m_primary>  (21) 
energy

$$$$
21:0
     RDKit          3D

 45 44  0  0  0  0  0  0  0  0999 V2000
   -2.9530   23.1000  -30.2210 C   0  0  0  0  0  0  0  0  0  0  0  0
   -3.3860   24.5350  -29.9400 C   0  0  0  0  0  0  0  0  0  0  0  0
   -4.3390   24.9940  -30.9600 N   0  0  0  0  0  0  0  0  0  0  0  0
   -5.4740   25.7040  -30.3540 C   0  0  0  0  0  0  0  0  0  0  0  0
   -6.7610   24.8830  -30.4980 C   0  0  0  0  0  0  0  0  0  0  0  0
   -6.4940   23.3750  -30.3510 C   0  0  0  0  0  0  0  0  0  0  0  0
   -6.1430   22.6860  -31.6860 C   0  0  0  0  0  0  0  0  0  0  0  0
   -7.2780   22.5330  -32.6170 N   0  0  0  0  0  0  0  0  0  0  0  0
   -8.5780   22.8000  -31.9740 C   0  0  0  0  0  0  0  0  0  0  0  0
   -9.1810   21.5360  -31.3290 C   0  0  0  0  0  0  0  0  0  0  0  0
   -9.5000   20.3860  -32.3010 C   0  0  0  0  0  0  0  0  0  0  0  0
   -8.3140   19.4220  -32.5030 C   0  0  0  0  0  0  0  0  0  0  0  0
   -7.3400   19.9290  -33.4830 N   0  0  0  0  0  0  0  0  0  0  0  0
   -6.1820   19.0370  -33.6330 C   0  0  0  0  0  0  0  0  0  0  0  0
   -4.8960   19.8190  -33.3990 C   0  0  0  0  0  0  0  0  0  0  0  0
   -2.7937   22.5720  -29.2692 H   0  0  0  0  0  0  0  0  0  0  0  0
   -3.7363   22.5870  -30.7982 H   0  0  0  0  0  0  0  0  0  0  0  0
   -2.0166   23.1059  -30.7982 H   0  0  0  0  0  0  0  0  0  0  0  0
   -3.8644   24.5816  -28.9506 H   0  0  0  0  0  0  0  0  0  0  0  0
   -2.4991   25.1853  -29.9634 H   0  0  0  0  0  0  0  0  0  0  0  0
   -3.8390   25.6720  -31.5820 H   0  0  0  0  0  0  0  0  0  0  0  0
   -5.2684   25.8702  -29.2862 H   0  0  0  0  0  0  0  0  0  0  0  0
   -5.6071   26.6667  -30.8694 H   0  0  0  0  0  0  0  0  0  0  0  0
   -7.4726   25.1964  -29.7200 H   0  0  0  0  0  0  0  0  0  0  0  0
   -7.1711   25.0621  -31.5029 H   0  0  0  0  0  0  0  0  0  0  0  0
   -5.6544   23.2351  -29.6542 H   0  0  0  0  0  0  0  0  0  0  0  0
   -7.4211   22.9140  -29.9795 H   0  0  0  0  0  0  0  0  0  0  0  0
   -5.3671   23.2837  -32.1867 H   0  0  0  0  0  0  0  0  0  0  0  0
   -5.8089   21.6690  -31.4329 H   0  0  0  0  0  0  0  0  0  0  0  0
   -7.2630   21.5390  -32.9420 H   0  0  0  0  0  0  0  0  0  0  0  0
   -7.1520   23.1420  -33.4560 H   0  0  0  0  0  0  0  0  0  0  0  0
   -8.4371   23.5626  -31.1939 H   0  0  0  0  0  0  0  0  0  0  0  0
   -9.2741   23.1461  -32.7522 H   0  0  0  0  0  0  0  0  0  0  0  0
   -8.4646   21.1610  -30.5833 H   0  0  0  0  0  0  0  0  0  0  0  0
  -10.1452   21.8458  -30.8996 H   0  0  0  0  0  0  0  0  0  0  0  0
  -10.3515   19.8154  -31.9017 H   0  0  0  0  0  0  0  0  0  0  0  0
   -9.7292   20.8353  -33.2786 H   0  0  0  0  0  0  0  0  0  0  0  0
   -7.8043   19.2818  -31.5383 H   0  0  0  0  0  0  0  0  0  0  0  0
   -8.7149   18.4729  -32.8885 H   0  0  0  0  0  0  0  0  0  0  0  0
   -7.8080   20.0450  -34.4140 H   0  0  0  0  0  0  0  0  0  0  0  0
   -6.2520   18.2208  -32.8989 H   0  0  0  0  0  0  0  0  0  0  0  0
   -6.1738   18.6197  -34.6508 H   0  0  0  0  0  0  0  0  0  0  0  0
   -4.7226   19.9245  -32.3179 H   0  0  0  0  0  0  0  0  0  0  0  0
   -4.0517   19.2812  -33.8551 H   0  0  0  0  0  0  0  0  0  0  0  0
   -4.9850   20.8160  -33.8551 H   0  0  0  0  0  0  0  0  0  0  0  0
  1  2  1  0
  2  3  1  0
  3  4  1  0
  4  5  1  0
  5  6  1  0
  6  7  1  0
  7  8  1  0
  8  9  1  0
  9 10  1  0
 10 11  1  0
 11 12  1  0
 12 13  1  0
 13 14  1  0
 14 15  1  0
  1 16  1  0
  1 17  1  0
  1 18  1  0
  2 19  1  0
  2 20  1  0
  3 21  1  0
  4 22  1  0
  4 23  1  0
  5 24  1  0
  5 25  1  0
  6 26  1  0
  6 27  1  0
  7 28  1  0
  7 29  1  0
  8 30  1  0
  8 31  1  0
  9 32  1  0
  9 33  1  0
 10 34  1  0
 10 35  1  0
 11 36  1  0
 11 37  1  0
 12 38  1  0
 12 39  1  0
 13 40  1  0
 14 41  1  0
 14 42  1  0
 15 43  1  0
 15 44  1  0
 15 45  1  0
M  CHG  1   8   1
M  END
>  <UniqueID>  (22) 
22

>  <SMILES>  (22) 
CCNCCCC[NH2+]CCCCNCC

>  <Energy>  (22) 
26.64043700110693

>  <Genealogy>  (22) 
CCNCCCC[NH2+]CCCCNCC (protonated)
CCNCCCC[NH2+]CCCCNCC (3D coordinates assigned)
CCNCCCC[NH2+]CCCCNCC (optimized conformer: 26.64043700110693 kcal/mol)

>  <smiles>  (22) 
CCNCCCCNCCCCNCC

>  <score_type>  (22) 
oracle

>  <origin>  (22) 
adg

>  <m_score__min__energy>  (22) 
-5.1100000000000003

>  <m_primary>  (22) 
energy

$$$$
