0:0
     RDKit          3D

 56 59  0  0  0  0  0  0  0  0999 V2000
   -5.4370   18.8310  -34.2160 C   0  0  0  0  0  0  0  0  0  0  0  0
   -6.6250   19.0840  -33.3370 C   0  0  0  0  0  0  0  0  0  0  0  0
   -7.2980   18.0120  -32.7310 C   0  0  0  0  0  0  0  0  0  0  0  0
   -8.3850   18.2510  -31.8870 C   0  0  0  0  0  0  0  0  0  0  0  0
   -8.8010   19.5600  -31.6310 C   0  0  0  0  0  0  0  0  0  0  0  0
   -8.1230   20.6440  -32.2120 C   0  0  0  0  0  0  0  0  0  0  0  0
   -8.5920   22.0540  -31.9530 C   0  0  0  0  0  0  0  0  0  0  0  0
   -7.7150   22.7540  -30.9030 C   0  0  0  0  0  0  0  0  0  0  0  0
   -6.3950   23.1360  -31.4540 N   0  0  0  0  0  0  0  0  0  0  0  0
   -6.1410   24.5940  -31.3140 C   0  0  0  0  0  0  0  0  0  0  0  0
   -5.2040   24.9100  -30.1410 C   0  0  0  0  0  0  0  0  0  0  0  0
   -3.8750   24.2900  -30.3390 N   0  0  0  0  0  0  0  0  0  0  0  0
   -3.1280   24.2250  -29.0640 C   0  0  0  0  0  0  0  0  0  0  0  0
   -1.8380   23.3860  -29.2160 C   0  0  1  0  0  0  0  0  0  0  0  0
   -0.5570   24.2190  -28.9740 C   0  0  0  0  0  0  0  0  0  0  0  0
   -0.3510   24.5100  -27.4830 C   0  0  0  0  0  0  0  0  0  0  0  0
   -0.3630   23.3000  -26.7290 O   0  0  0  0  0  0  0  0  0  0  0  0
   -1.1740   22.2100  -27.0660 C   0  0  0  0  0  0  0  0  0  0  0  0
   -1.2480   21.1150  -26.1980 C   0  0  0  0  0  0  0  0  0  0  0  0
   -2.0350   20.0080  -26.5290 C   0  0  0  0  0  0  0  0  0  0  0  0
   -2.7490   19.9890  -27.7290 C   0  0  0  0  0  0  0  0  0  0  0  0
   -2.6790   21.0770  -28.6040 C   0  0  0  0  0  0  0  0  0  0  0  0
   -1.8880   22.1940  -28.2830 C   0  0  0  0  0  0  0  0  0  0  0  0
   -3.9360   22.9750  -31.0290 C   0  0  0  0  0  0  0  0  0  0  0  0
   -5.3070   22.3000  -30.8840 C   0  0  0  0  0  0  0  0  0  0  0  0
   -7.0330   20.3990  -33.0630 C   0  0  0  0  0  0  0  0  0  0  0  0
   -4.5518   18.6425  -33.5908 H   0  0  0  0  0  0  0  0  0  0  0  0
   -5.6309   17.9540  -34.8510 H   0  0  0  0  0  0  0  0  0  0  0  0
   -5.2567   19.7109  -34.8510 H   0  0  0  0  0  0  0  0  0  0  0  0
   -6.9684   16.9800  -32.9213 H   0  0  0  0  0  0  0  0  0  0  0  0
   -8.9150   17.4063  -31.4226 H   0  0  0  0  0  0  0  0  0  0  0  0
   -9.6627   19.7422  -30.9720 H   0  0  0  0  0  0  0  0  0  0  0  0
   -8.5482   22.6238  -32.8929 H   0  0  0  0  0  0  0  0  0  0  0  0
   -9.6221   22.0107  -31.5696 H   0  0  0  0  0  0  0  0  0  0  0  0
   -8.2315   23.6609  -30.5554 H   0  0  0  0  0  0  0  0  0  0  0  0
   -7.5483   22.0508  -30.0737 H   0  0  0  0  0  0  0  0  0  0  0  0
   -5.6828   24.9644  -32.2429 H   0  0  0  0  0  0  0  0  0  0  0  0
   -7.1047   25.0870  -31.1181 H   0  0  0  0  0  0  0  0  0  0  0  0
   -5.0834   26.0005  -30.0611 H   0  0  0  0  0  0  0  0  0  0  0  0
   -5.6465   24.5016  -29.2205 H   0  0  0  0  0  0  0  0  0  0  0  0
   -2.8584   25.2452  -28.7533 H   0  0  0  0  0  0  0  0  0  0  0  0
   -3.7684   23.7469  -28.3082 H   0  0  0  0  0  0  0  0  0  0  0  0
   -1.7911   23.0345  -30.2573 H   0  0  0  0  0  0  0  0  0  0  0  0
    0.3108   23.6588  -29.3523 H   0  0  0  0  0  0  0  0  0  0  0  0
   -0.6635   25.1781  -29.5019 H   0  0  0  0  0  0  0  0  0  0  0  0
    0.6171   25.0133  -27.3433 H   0  0  0  0  0  0  0  0  0  0  0  0
   -1.1697   25.1550  -27.1313 H   0  0  0  0  0  0  0  0  0  0  0  0
   -0.6855   21.1252  -25.2528 H   0  0  0  0  0  0  0  0  0  0  0  0
   -2.0919   19.1502  -25.8428 H   0  0  0  0  0  0  0  0  0  0  0  0
   -3.3675   19.1165  -27.9862 H   0  0  0  0  0  0  0  0  0  0  0  0
   -3.2449   21.0591  -29.5471 H   0  0  0  0  0  0  0  0  0  0  0  0
   -3.7289   23.1275  -32.0985 H   0  0  0  0  0  0  0  0  0  0  0  0
   -3.1878   22.3171  -30.5628 H   0  0  0  0  0  0  0  0  0  0  0  0
   -5.2863   21.3345  -31.4107 H   0  0  0  0  0  0  0  0  0  0  0  0
   -5.5083   22.1603  -29.8117 H   0  0  0  0  0  0  0  0  0  0  0  0
   -6.4950   21.2436  -33.5182 H   0  0  0  0  0  0  0  0  0  0  0  0
  1  2  1  0
  2  3  2  0
  3  4  1  0
  4  5  2  0
  5  6  1  0
  6  7  1  0
  7  8  1  0
  8  9  1  0
  9 10  1  0
 10 11  1  0
 11 12  1  0
 12 13  1  0
 13 14  1  0
 14 15  1  0
 15 16  1  0
 16 17  1  0
 17 18  1  0
 18 19  2  0
 19 20  1  0
 20 21  2  0
 21 22  1  0
 22 23  2  0
 12 24  1  0
 24 25  1  0
  6 26  2  0
 26  2  1  0
 25  9  1  0
 23 14  1  0
 23 18  1  0
  1 27  1  0
  1 28  1  0
  1 29  1  0
  3 30  1  0
  4 31  1  0
  5 32  1  0
  7 33  1  0
  7 34  1  0
  8 35  1  0
  8 36  1  0
 10 37  1  0
 10 38  1  0
 11 39  1  0
 11 40  1  0
 13 41  1  0
 13 42  1  0
 14 43  1  6
 15 44  1  0
 15 45  1  0
 16 46  1  0
 16 47  1  0
 19 48  1  0
 20 49  1  0
 21 50  1  0
 22 51  1  0
 24 52  1  0
 24 53  1  0
 25 54  1  0
 25 55  1  0
 26 56  1  0
M  END
>  <UniqueID>  (1) 
1

>  <SMILES>  (1) 
Cc1cccc(CCN2CCN(C[C@H]3CCOc4ccccc43)CC2)c1

>  <Energy>  (1) 
68.64312388771954

>  <Genealogy>  (1) 
Cc1cccc(CCN2CCN(C[C@H]3CCOc4ccccc43)CC2)c1 (chirality)
Cc1cccc(CCN2CCN(C[C@H]3CCOc4ccccc43)CC2)c1 (3D coordinates assigned)
Cc1cccc(CCN2CCN(C[C@H]3CCOc4ccccc43)CC2)c1 (nonaromatic ring conformer: 68.64312388771954 kcal/mol)

>  <smiles>  (1) 
Cc1cccc(CCN2CCN(CC3CCOc4ccccc43)CC2)c1

>  <score_type>  (1) 
oracle

>  <origin>  (1) 
adg

>  <m_score__min__energy>  (1) 
-9.7899999999999991

>  <m_primary>  (1) 
energy

$$$$
1:0
     RDKit          3D

 35 37  0  0  0  0  0  0  0  0999 V2000
   -9.7568   18.9040  -32.7824 H   0  0  0  0  0  0  0  0  0  0  0  0
   -9.0690   19.7260  -32.5350 C   0  0  0  0  0  0  0  0  0  0  0  0
   -7.7370   19.5900  -32.7670 N   0  0  0  0  0  0  0  0  0  0  0  0
   -6.8520   20.5810  -32.4740 C   0  0  0  0  0  0  0  0  0  0  0  0
   -5.4960   20.3960  -32.7320 C   0  0  0  0  0  0  0  0  0  0  0  0
   -5.1416   19.4502  -33.1678 H   0  0  0  0  0  0  0  0  0  0  0  0
   -4.5840   21.4180  -32.4350 C   0  0  0  0  0  0  0  0  0  0  0  0
   -3.1380   21.2250  -32.7150 C   0  0  0  0  0  0  0  0  0  0  0  0
   -1.8690   21.7110  -31.7180 S   0  0  0  0  0  0  0  0  0  0  0  0
   -0.6200   21.1510  -32.6910 C   0  0  0  0  0  0  0  0  0  0  0  0
    0.4552   21.2331  -32.4739 H   0  0  0  0  0  0  0  0  0  0  0  0
   -1.1820   20.5670  -33.8160 C   0  0  0  0  0  0  0  0  0  0  0  0
   -0.5828   20.1156  -34.6205 H   0  0  0  0  0  0  0  0  0  0  0  0
   -2.5820   20.6040  -33.8350 C   0  0  0  0  0  0  0  0  0  0  0  0
   -3.1853   20.1842  -34.6534 H   0  0  0  0  0  0  0  0  0  0  0  0
   -5.0360   22.5850  -31.8810 N   0  0  0  0  0  0  0  0  0  0  0  0
   -4.3330   23.3100  -31.6310 H   0  0  0  0  0  0  0  0  0  0  0  0
   -6.3660   22.8060  -31.6210 C   0  0  0  0  0  0  0  0  0  0  0  0
   -6.7820   23.9320  -31.1020 N   0  0  0  0  0  0  0  0  0  0  0  0
   -6.2060   24.6670  -29.9760 C   0  0  0  0  0  0  0  0  0  0  0  0
   -5.7127   23.9564  -29.2965 H   0  0  0  0  0  0  0  0  0  0  0  0
   -7.0141   25.1999  -29.4536 H   0  0  0  0  0  0  0  0  0  0  0  0
   -5.1800   25.6900  -30.4610 C   0  0  0  0  0  0  0  0  0  0  0  0
   -5.1712   26.5544  -29.7808 H   0  0  0  0  0  0  0  0  0  0  0  0
   -5.4441   26.0298  -31.4733 H   0  0  0  0  0  0  0  0  0  0  0  0
   -3.9030   25.0880  -30.4780 O   0  0  0  0  0  0  0  0  0  0  0  0
   -3.8070   24.1620  -29.4200 C   0  0  0  0  0  0  0  0  0  0  0  0
   -3.8623   24.6955  -28.4596 H   0  0  0  0  0  0  0  0  0  0  0  0
   -4.6352   23.4412  -29.4873 H   0  0  0  0  0  0  0  0  0  0  0  0
   -2.8485   23.6265  -29.4873 H   0  0  0  0  0  0  0  0  0  0  0  0
   -7.3040   21.7930  -31.9140 C   0  0  0  0  0  0  0  0  0  0  0  0
   -8.6830   21.9430  -31.6720 C   0  0  0  0  0  0  0  0  0  0  0  0
   -9.0655   22.8781  -31.2369 H   0  0  0  0  0  0  0  0  0  0  0  0
   -9.5650   20.9080  -31.9830 C   0  0  0  0  0  0  0  0  0  0  0  0
  -10.6427   21.0225  -31.7947 H   0  0  0  0  0  0  0  0  0  0  0  0
  1  2  1  0
  2  3  2  0
  3  4  1  0
  4  5  1  0
  5  6  1  0
  5  7  2  0
  7  8  1  0
  8  9  1  0
  9 10  1  0
 10 11  1  0
 10 12  2  0
 12 13  1  0
 12 14  1  0
 14 15  1  0
  7 16  1  0
 16 17  1  0
 16 18  1  0
 18 19  2  0
 19 20  1  0
 20 21  1  0
 20 22  1  0
 20 23  1  0
 23 24  1  0
 23 25  1  0
 23 26  1  0
 26 27  1  0
 27 28  1  0
 27 29  1  0
 27 30  1  0
 18 31  1  0
 31 32  1  0
 32 33  1  0
 32 34  2  0
 34 35  1  0
 34  2  1  0
 31  4  2  0
 14  8  2  0
M  END
>  <UniqueID>  (2) 
2

>  <SMILES>  (2) 
COCC/N=c1\[nH]c(-c2cccs2)cc2ncccc12

>  <Energy>  (2) 
71.00411139350626

>  <Genealogy>  (2) 
COCC/N=c1\[nH]c(-c2cccs2)cc2ncccc12 (cis-trans isomerization)
COCC/N=c1\[nH]c(-c2cccs2)cc2ncccc12 (3D coordinates assigned)
COCC/N=c1\[nH]c(-c2cccs2)cc2ncccc12 (optimized conformer: 71.00411139350626 kcal/mol)

>  <smiles>  (2) 
COCCN=c1[nH]c(-c2cccs2)cc2ncccc12

>  <score_type>  (2) 
oracle

>  <origin>  (2) 
adg

>  <m_score__min__energy>  (2) 
-7.3300000000000001

>  <m_primary>  (2) 
energy

$$$$
2:0
     RDKit          3D

 43 45  0  0  0  0  0  0  0  0999 V2000
   -2.6450   24.5520  -28.9600 C   0  0  0  0  0  0  0  0  0  0  0  0
   -3.4690   25.0470  -30.0110 O   0  0  0  0  0  0  0  0  0  0  0  0
   -4.5490   24.3470  -30.5700 C   0  0  0  0  0  0  0  0  0  0  0  0
   -5.8290   24.8990  -30.4480 C   0  0  0  0  0  0  0  0  0  0  0  0
   -6.9400   24.2270  -30.9560 C   0  0  0  0  0  0  0  0  0  0  0  0
   -6.7810   23.0040  -31.6110 C   0  0  0  0  0  0  0  0  0  0  0  0
   -5.5000   22.4550  -31.7920 C   0  0  0  0  0  0  0  0  0  0  0  0
   -5.3390   21.1370  -32.5260 C   0  0  0  0  0  0  0  0  0  0  0  0
   -6.6150   20.5030  -32.9630 N   0  0  0  0  0  0  0  0  0  0  0  0
   -6.4890   19.6760  -34.1960 C   0  0  0  0  0  0  0  0  0  0  0  0
   -6.0960   18.2030  -33.9340 C   0  0  0  0  0  0  0  0  0  0  0  0
   -6.6570   17.7030  -32.6740 N   0  0  0  0  0  0  0  0  0  0  0  0
   -5.9250   16.7710  -31.8450 C   0  0  0  0  0  0  0  0  0  0  0  0
   -6.1090   16.7690  -30.5980 O   0  0  0  0  0  0  0  0  0  0  0  0
   -4.9270   15.8340  -32.3920 C   0  0  0  0  0  0  0  0  0  0  0  0
   -4.6830   14.5360  -31.9800 C   0  0  0  0  0  0  0  0  0  0  0  0
   -3.6580   14.0790  -32.7790 C   0  0  0  0  0  0  0  0  0  0  0  0
   -3.3340   15.1200  -33.6220 C   0  0  0  0  0  0  0  0  0  0  0  0
   -4.1030   16.1530  -33.3630 O   0  0  0  0  0  0  0  0  0  0  0  0
   -7.8030   18.4290  -32.1310 C   0  0  0  0  0  0  0  0  0  0  0  0
   -7.3780   19.8710  -31.8440 C   0  0  0  0  0  0  0  0  0  0  0  0
   -4.3900   23.1180  -31.2390 C   0  0  0  0  0  0  0  0  0  0  0  0
   -3.0889   24.8187  -27.9895 H   0  0  0  0  0  0  0  0  0  0  0  0
   -2.5674   23.4576  -29.0394 H   0  0  0  0  0  0  0  0  0  0  0  0
   -1.6424   24.9974  -29.0394 H   0  0  0  0  0  0  0  0  0  0  0  0
   -5.9596   25.8699  -29.9478 H   0  0  0  0  0  0  0  0  0  0  0  0
   -7.9441   24.6612  -30.8406 H   0  0  0  0  0  0  0  0  0  0  0  0
   -7.6640   22.4669  -31.9877 H   0  0  0  0  0  0  0  0  0  0  0  0
   -4.7229   21.3163  -33.4194 H   0  0  0  0  0  0  0  0  0  0  0  0
   -4.8767   20.4400  -31.8115 H   0  0  0  0  0  0  0  0  0  0  0  0
   -7.2020   21.3190  -33.2640 H   0  0  0  0  0  0  0  0  0  0  0  0
   -7.4565   19.6871  -34.7192 H   0  0  0  0  0  0  0  0  0  0  0  0
   -5.6772   20.1186  -34.7919 H   0  0  0  0  0  0  0  0  0  0  0  0
   -6.4708   17.5824  -34.7612 H   0  0  0  0  0  0  0  0  0  0  0  0
   -4.9995   18.1500  -33.8638 H   0  0  0  0  0  0  0  0  0  0  0  0
   -5.1997   13.9840  -31.1811 H   0  0  0  0  0  0  0  0  0  0  0  0
   -3.1918   13.0831  -32.7500 H   0  0  0  0  0  0  0  0  0  0  0  0
   -2.5509   15.0904  -34.3940 H   0  0  0  0  0  0  0  0  0  0  0  0
   -8.6249   18.4237  -32.8620 H   0  0  0  0  0  0  0  0  0  0  0  0
   -8.1469   17.9476  -31.2037 H   0  0  0  0  0  0  0  0  0  0  0  0
   -8.2819   20.4696  -31.6576 H   0  0  0  0  0  0  0  0  0  0  0  0
   -6.7082   19.8428  -30.9719 H   0  0  0  0  0  0  0  0  0  0  0  0
   -3.3883   22.6726  -31.3298 H   0  0  0  0  0  0  0  0  0  0  0  0
  1  2  1  0
  2  3  1  0
  3  4  2  0
  4  5  1  0
  5  6  2  0
  6  7  1  0
  7  8  1  0
  8  9  1  0
  9 10  1  0
 10 11  1  0
 11 12  1  0
 12 13  1  0
 13 14  2  0
 13 15  1  0
 15 16  2  0
 16 17  1  0
 17 18  2  0
 18 19  1  0
 12 20  1  0
 20 21  1  0
  7 22  2  0
 22  3  1  0
 21  9  1  0
 19 15  1  0
  1 23  1  0
  1 24  1  0
  1 25  1  0
  4 26  1  0
  5 27  1  0
  6 28  1  0
  8 29  1  0
  8 30  1  0
  9 31  1  0
 10 32  1  0
 10 33  1  0
 11 34  1  0
 11 35  1  0
 16 36  1  0
 17 37  1  0
 18 38  1  0
 20 39  1  0
 20 40  1  0
 21 41  1  0
 21 42  1  0
 22 43  1  0
M  CHG  1   9   1
M  END
>  <UniqueID>  (3) 
3

>  <SMILES>  (3) 
COc1cccc(C[NH+]2CCN(C(=O)c3ccco3)CC2)c1

>  <Energy>  (3) 
84.47610745453044

>  <Genealogy>  (3) 
COc1cccc(C[NH+]2CCN(C(=O)c3ccco3)CC2)c1 (protonated)
COc1cccc(C[NH+]2CCN(C(=O)c3ccco3)CC2)c1 (3D coordinates assigned)
COc1cccc(C[NH+]2CCN(C(=O)c3ccco3)CC2)c1 (nonaromatic ring conformer: 84.47610745453044 kcal/mol)

>  <smiles>  (3) 
COc1cccc(CN2CCN(C(=O)c3ccco3)CC2)c1

>  <score_type>  (3) 
oracle

>  <origin>  (3) 
adg

>  <m_score__min__energy>  (3) 
-7.0499999999999998

>  <m_primary>  (3) 
energy

$$$$
3:0
     RDKit          3D

 32 34  0  0  0  0  0  0  0  0999 V2000
   -6.2560   17.4450  -30.8290 C   0  0  0  0  0  0  0  0  0  0  0  0
   -6.1830   17.7040  -32.2660 N   0  0  0  0  0  0  0  0  0  0  0  0
   -6.8710   18.6310  -32.9850 C   0  0  0  0  0  0  0  0  0  0  0  0
   -8.0870   19.7110  -32.3120 S   0  0  0  0  0  0  0  0  0  0  0  0
   -8.7520   19.0280  -31.1490 O   0  0  0  0  0  0  0  0  0  0  0  0
   -9.1250   20.0250  -33.3520 O   0  0  0  0  0  0  0  0  0  0  0  0
   -7.3220   21.2130  -31.8000 C   0  0  0  0  0  0  0  0  0  0  0  0
   -7.9210   22.0270  -30.8280 C   0  0  0  0  0  0  0  0  0  0  0  0
   -7.2940   23.2080  -30.4200 C   0  0  0  0  0  0  0  0  0  0  0  0
   -6.0680   23.5830  -30.9800 C   0  0  0  0  0  0  0  0  0  0  0  0
   -5.2830   25.0640  -30.4640 Cl  0  0  0  0  0  0  0  0  0  0  0  0
   -5.4690   22.7750  -31.9520 C   0  0  0  0  0  0  0  0  0  0  0  0
   -6.0950   21.5930  -32.3620 C   0  0  0  0  0  0  0  0  0  0  0  0
   -6.4820   18.6810  -34.2830 N   0  0  0  0  0  0  0  0  0  0  0  0
   -5.5040   17.7650  -34.3710 C   0  0  0  0  0  0  0  0  0  0  0  0
   -4.7320   17.4350  -35.4820 C   0  0  0  0  0  0  0  0  0  0  0  0
   -3.7300   16.4610  -35.3130 C   0  0  0  0  0  0  0  0  0  0  0  0
   -3.5250   15.8550  -34.0530 C   0  0  0  0  0  0  0  0  0  0  0  0
   -4.3200   16.2150  -32.9480 C   0  0  0  0  0  0  0  0  0  0  0  0
   -5.3130   17.1770  -33.1510 C   0  0  0  0  0  0  0  0  0  0  0  0
   -5.9978   18.3612  -30.2777 H   0  0  0  0  0  0  0  0  0  0  0  0
   -7.2770   17.1331  -30.5640 H   0  0  0  0  0  0  0  0  0  0  0  0
   -5.5481   16.6458  -30.5640 H   0  0  0  0  0  0  0  0  0  0  0  0
   -8.8853   21.7360  -30.3860 H   0  0  0  0  0  0  0  0  0  0  0  0
   -7.7658   23.8441  -29.6566 H   0  0  0  0  0  0  0  0  0  0  0  0
   -4.5056   23.0690  -32.3941 H   0  0  0  0  0  0  0  0  0  0  0  0
   -5.6231   20.9598  -33.1277 H   0  0  0  0  0  0  0  0  0  0  0  0
   -6.8370   19.3110  -35.0370 H   0  0  0  0  0  0  0  0  0  0  0  0
   -4.8991   17.9179  -36.4561 H   0  0  0  0  0  0  0  0  0  0  0  0
   -3.1021   16.1695  -36.1678 H   0  0  0  0  0  0  0  0  0  0  0  0
   -2.7379   15.0958  -33.9344 H   0  0  0  0  0  0  0  0  0  0  0  0
   -4.1650   15.7556  -31.9606 H   0  0  0  0  0  0  0  0  0  0  0  0
  1  2  1  0
  2  3  1  0
  3  4  1  0
  4  5  2  0
  4  6  2  0
  4  7  1  0
  7  8  2  0
  8  9  1  0
  9 10  2  0
 10 11  1  0
 10 12  1  0
 12 13  2  0
  3 14  2  0
 14 15  1  0
 15 16  2  0
 16 17  1  0
 17 18  2  0
 18 19  1  0
 19 20  2  0
 20  2  1  0
 13  7  1  0
 20 15  1  0
  1 21  1  0
  1 22  1  0
  1 23  1  0
  8 24  1  0
  9 25  1  0
 12 26  1  0
 13 27  1  0
 14 28  1  0
 16 29  1  0
 17 30  1  0
 18 31  1  0
 19 32  1  0
M  CHG  1  14   1
M  END
>  <UniqueID>  (4) 
4

>  <SMILES>  (4) 
Cn1c(S(=O)(=O)c2ccc(Cl)cc2)[nH+]c2ccccc21

>  <Energy>  (4) 
74.42973074406598

>  <Genealogy>  (4) 
Cn1c(S(=O)(=O)c2ccc(Cl)cc2)[nH+]c2ccccc21 (protonated)
Cn1c(S(=O)(=O)c2ccc(Cl)cc2)[nH+]c2ccccc21 (3D coordinates assigned)
Cn1c(S(=O)(=O)c2ccc(Cl)cc2)[nH+]c2ccccc21 (optimized conformer: 74.42973074406598 kcal/mol)

>  <smiles>  (4) 
Cn1c(S(=O)(=O)c2ccc(Cl)cc2)nc2ccccc21

>  <score_type>  (4) 
oracle

>  <origin>  (4) 
adg

>  <m_score__min__energy>  (4) 
-7.54

>  <m_primary>  (4) 
energy

$$$$
4:0
     RDKit          3D

 39 41  0  0  0  0  0  0  0  0999 V2000
   -7.1840   18.0800  -32.6230 C   0  0  0  0  0  0  0  0  0  0  0  0
   -8.3190   18.3120  -31.8400 C   0  0  0  0  0  0  0  0  0  0  0  0
   -8.7720   19.6190  -31.6310 C   0  0  0  0  0  0  0  0  0  0  0  0
   -8.0960   20.7020  -32.2140 C   0  0  0  0  0  0  0  0  0  0  0  0
   -8.5540   22.1100  -31.9530 C   0  0  0  0  0  0  0  0  0  0  0  0
   -7.4080   22.9490  -31.6220 N   0  0  0  0  0  0  0  0  0  0  0  0
   -7.0520   23.3790  -30.4000 C   0  0  0  0  0  0  0  0  0  0  0  0
   -5.9540   24.1960  -30.5870 C   0  0  0  0  0  0  0  0  0  0  0  0
   -5.1720   24.9080  -29.5280 C   0  0  0  0  0  0  0  0  0  0  0  0
   -3.7400   25.0350  -29.8610 N   0  0  0  0  0  0  0  0  0  0  0  0
   -2.7550   24.2150  -29.1110 C   0  0  1  0  0  0  0  0  0  0  0  0
   -2.0370   23.1130  -29.8890 C   0  0  0  0  0  0  0  0  0  0  0  0
   -0.6260   23.1390  -29.3310 C   0  0  0  0  0  0  0  0  0  0  0  0
   -0.3640   24.5080  -28.8990 N   0  0  0  0  0  0  0  0  0  0  0  0
   -1.6500   25.0530  -28.4620 C   0  0  0  0  0  0  0  0  0  0  0  0
   -5.6830   24.2580  -31.9080 N   0  0  0  0  0  0  0  0  0  0  0  0
   -6.5860   23.4940  -32.5040 N   0  0  0  0  0  0  0  0  0  0  0  0
   -6.9470   20.4640  -32.9860 C   0  0  0  0  0  0  0  0  0  0  0  0
   -6.4980   19.1560  -33.1930 C   0  0  0  0  0  0  0  0  0  0  0  0
   -6.8314   17.0516  -32.7902 H   0  0  0  0  0  0  0  0  0  0  0  0
   -8.8565   17.4656  -31.3877 H   0  0  0  0  0  0  0  0  0  0  0  0
   -9.6606   19.7984  -31.0079 H   0  0  0  0  0  0  0  0  0  0  0  0
   -9.0487   22.5057  -32.8523 H   0  0  0  0  0  0  0  0  0  0  0  0
   -9.2608   22.1116  -31.1101 H   0  0  0  0  0  0  0  0  0  0  0  0
   -7.5367   23.1308  -29.4442 H   0  0  0  0  0  0  0  0  0  0  0  0
   -5.5932   25.9159  -29.3983 H   0  0  0  0  0  0  0  0  0  0  0  0
   -5.2455   24.3125  -28.6060 H   0  0  0  0  0  0  0  0  0  0  0  0
   -3.4850   26.0420  -29.7250 H   0  0  0  0  0  0  0  0  0  0  0  0
   -3.4169   23.7409  -28.3713 H   0  0  0  0  0  0  0  0  0  0  0  0
   -2.5106   22.1360  -29.7125 H   0  0  0  0  0  0  0  0  0  0  0  0
   -2.0678   23.2703  -30.9773 H   0  0  0  0  0  0  0  0  0  0  0  0
   -0.5448   22.4510  -28.4766 H   0  0  0  0  0  0  0  0  0  0  0  0
    0.1029   22.8205  -30.0908 H   0  0  0  0  0  0  0  0  0  0  0  0
    0.3010   24.4910  -28.0900 H   0  0  0  0  0  0  0  0  0  0  0  0
   -1.7293   24.9937  -27.3665 H   0  0  0  0  0  0  0  0  0  0  0  0
   -1.7421   26.1083  -28.7584 H   0  0  0  0  0  0  0  0  0  0  0  0
   -6.6410   23.3510  -33.5370 H   0  0  0  0  0  0  0  0  0  0  0  0
   -6.3990   21.3087  -33.4289 H   0  0  0  0  0  0  0  0  0  0  0  0
   -5.6029   18.9735  -33.8058 H   0  0  0  0  0  0  0  0  0  0  0  0
  1  2  2  0
  2  3  1  0
  3  4  2  0
  4  5  1  0
  5  6  1  0
  6  7  1  0
  7  8  2  0
  8  9  1  0
  9 10  1  0
 10 11  1  0
 11 12  1  0
 12 13  1  0
 13 14  1  0
 14 15  1  0
  8 16  1  0
 16 17  2  0
  4 18  1  0
 18 19  2  0
 19  1  1  0
 17  6  1  0
 15 11  1  0
  1 20  1  0
  2 21  1  0
  3 22  1  0
  5 23  1  0
  5 24  1  0
  7 25  1  0
  9 26  1  0
  9 27  1  0
 10 28  1  0
 11 29  1  1
 12 30  1  0
 12 31  1  0
 13 32  1  0
 13 33  1  0
 14 34  1  0
 15 35  1  0
 15 36  1  0
 17 37  1  0
 18 38  1  0
 19 39  1  0
M  CHG  1  17   1
M  END
>  <UniqueID>  (5) 
5

>  <SMILES>  (5) 
c1ccc(Cn2cc(CN[C@H]3CCNC3)n[nH+]2)cc1

>  <Energy>  (5) 
81.66347988046012

>  <Genealogy>  (5) 
c1ccc(Cn2cc(CNC3CCNC3)n[nH+]2)cc1 (protonated)
c1ccc(Cn2cc(CN[C@H]3CCNC3)n[nH+]2)cc1 (chirality)
c1ccc(Cn2cc(CN[C@H]3CCNC3)n[nH+]2)cc1 (3D coordinates assigned)
c1ccc(Cn2cc(CN[C@H]3CCNC3)n[nH+]2)cc1 (nonaromatic ring conformer: 81.66347988046012 kcal/mol)

>  <smiles>  (5) 
c1ccc(Cn2cc(CNC3CCNC3)nn2)cc1

>  <score_type>  (5) 
oracle

>  <origin>  (5) 
adg

>  <m_score__min__energy>  (5) 
-8.5099999999999998

>  <m_primary>  (5) 
energy

$$$$
5:0
     RDKit          3D

 69 73  0  0  0  0  0  0  0  0999 V2000
    1.4250   24.1560  -25.9290 C   0  0  0  0  0  0  0  0  0  0  0  0
    0.4940   23.1920  -25.3210 N   0  0  0  0  0  0  0  0  0  0  0  0
   -0.1990   22.4380  -26.3820 C   0  0  0  0  0  0  0  0  0  0  0  0
   -0.4730   23.8820  -24.4420 C   0  0  0  0  0  0  0  0  0  0  0  0
   -0.1570   25.3790  -24.3490 C   0  0  0  0  0  0  0  0  0  0  0  0
   -0.9230   26.1200  -25.3030 O   0  0  0  0  0  0  0  0  0  0  0  0
   -1.7420   25.5720  -26.3050 C   0  0  0  0  0  0  0  0  0  0  0  0
   -1.2280   25.4910  -27.6040 C   0  0  0  0  0  0  0  0  0  0  0  0
   -2.0050   24.9810  -28.6480 C   0  0  0  0  0  0  0  0  0  0  0  0
   -3.3110   24.5230  -28.4040 C   0  0  0  0  0  0  0  0  0  0  0  0
   -4.1560   24.0150  -29.5140 C   0  0  0  0  0  0  0  0  0  0  0  0
   -5.4850   24.4290  -29.6010 C   0  0  0  0  0  0  0  0  0  0  0  0
   -6.2940   23.9970  -30.6420 C   0  0  0  0  0  0  0  0  0  0  0  0
   -5.8090   23.1430  -31.6480 C   0  0  0  0  0  0  0  0  0  0  0  0
   -6.7330   22.7570  -32.6960 N   0  0  0  0  0  0  0  0  0  0  0  0
   -8.0470   22.4100  -32.1250 C   0  0  0  0  0  0  0  0  0  0  0  0
   -8.3640   20.9090  -32.2910 C   0  0  0  0  0  0  0  0  0  0  0  0
   -7.1260   20.1070  -32.4010 N   0  0  0  0  0  0  0  0  0  0  0  0
   -7.1910   18.8470  -31.6560 C   0  0  0  0  0  0  0  0  0  0  0  0
   -6.1980   17.9090  -32.3160 C   0  0  0  0  0  0  0  0  0  0  0  0
   -6.0880   18.4010  -33.7490 C   0  0  0  0  0  0  0  0  0  0  0  0
   -6.8570   19.7180  -33.7900 C   0  0  0  0  0  0  0  0  0  0  0  0
   -4.4560   22.6700  -31.5610 C   0  0  0  0  0  0  0  0  0  0  0  0
   -3.8560   21.7650  -32.4810 C   0  0  0  0  0  0  0  0  0  0  0  0
   -4.4910   21.3110  -33.4690 O   0  0  0  0  0  0  0  0  0  0  0  0
   -2.5240   21.3550  -32.2920 C   0  0  0  0  0  0  0  0  0  0  0  0
   -1.8840   20.4550  -33.1690 C   0  0  0  0  0  0  0  0  0  0  0  0
   -0.5600   20.0670  -32.9380 C   0  0  0  0  0  0  0  0  0  0  0  0
    0.1370   20.5720  -31.8370 C   0  0  0  0  0  0  0  0  0  0  0  0
   -0.4890   21.4640  -30.9620 C   0  0  0  0  0  0  0  0  0  0  0  0
   -1.8140   21.8550  -31.1850 C   0  0  0  0  0  0  0  0  0  0  0  0
   -2.3930   22.6960  -30.3440 O   0  0  0  0  0  0  0  0  0  0  0  0
   -3.6460   23.1220  -30.4760 C   0  0  0  0  0  0  0  0  0  0  0  0
   -3.8210   24.5850  -27.0950 C   0  0  0  0  0  0  0  0  0  0  0  0
   -3.0440   25.0980  -26.0530 C   0  0  0  0  0  0  0  0  0  0  0  0
    1.9546   24.7044  -25.1360 H   0  0  0  0  0  0  0  0  0  0  0  0
    2.1542   23.6182  -26.5527 H   0  0  0  0  0  0  0  0  0  0  0  0
    0.8621   24.8660  -26.5527 H   0  0  0  0  0  0  0  0  0  0  0  0
   -0.8763   21.7011  -25.9256 H   0  0  0  0  0  0  0  0  0  0  0  0
   -0.7801   23.1330  -27.0059 H   0  0  0  0  0  0  0  0  0  0  0  0
    0.5424   21.9174  -27.0059 H   0  0  0  0  0  0  0  0  0  0  0  0
   -1.4863   23.7526  -24.8499 H   0  0  0  0  0  0  0  0  0  0  0  0
   -0.4054   23.4455  -23.4346 H   0  0  0  0  0  0  0  0  0  0  0  0
   -0.3983   25.7363  -23.3370 H   0  0  0  0  0  0  0  0  0  0  0  0
    0.9117   25.5277  -24.5629 H   0  0  0  0  0  0  0  0  0  0  0  0
   -0.2019   25.8322  -27.8056 H   0  0  0  0  0  0  0  0  0  0  0  0
   -1.5918   24.9379  -29.6665 H   0  0  0  0  0  0  0  0  0  0  0  0
   -5.8959   25.1049  -28.8365 H   0  0  0  0  0  0  0  0  0  0  0  0
   -7.3413   24.3311  -30.6813 H   0  0  0  0  0  0  0  0  0  0  0  0
   -6.3500   21.9860  -33.2840 H   0  0  0  0  0  0  0  0  0  0  0  0
   -6.8500   23.5570  -33.3580 H   0  0  0  0  0  0  0  0  0  0  0  0
   -8.0464   22.6577  -31.0532 H   0  0  0  0  0  0  0  0  0  0  0  0
   -8.8163   22.9840  -32.6623 H   0  0  0  0  0  0  0  0  0  0  0  0
   -8.9372   20.5651  -31.4174 H   0  0  0  0  0  0  0  0  0  0  0  0
   -8.9461   20.7773  -33.2150 H   0  0  0  0  0  0  0  0  0  0  0  0
   -6.9168   19.0124  -30.6036 H   0  0  0  0  0  0  0  0  0  0  0  0
   -8.2074   18.4267  -31.6701 H   0  0  0  0  0  0  0  0  0  0  0  0
   -5.2215   17.9626  -31.8124 H   0  0  0  0  0  0  0  0  0  0  0  0
   -6.5218   16.8591  -32.2625 H   0  0  0  0  0  0  0  0  0  0  0  0
   -5.0342   18.5629  -34.0197 H   0  0  0  0  0  0  0  0  0  0  0  0
   -6.4944   17.6696  -34.4631 H   0  0  0  0  0  0  0  0  0  0  0  0
   -6.2536   20.4914  -34.2878 H   0  0  0  0  0  0  0  0  0  0  0  0
   -7.7955   19.6047  -34.3524 H   0  0  0  0  0  0  0  0  0  0  0  0
   -2.4280   20.0565  -34.0381 H   0  0  0  0  0  0  0  0  0  0  0  0
   -0.0666   19.3631  -33.6243 H   0  0  0  0  0  0  0  0  0  0  0  0
    1.1788   20.2673  -31.6590 H   0  0  0  0  0  0  0  0  0  0  0  0
    0.0613   21.8598  -30.0957 H   0  0  0  0  0  0  0  0  0  0  0  0
   -4.8405   24.2266  -26.8895 H   0  0  0  0  0  0  0  0  0  0  0  0
   -3.4510   25.1317  -25.0316 H   0  0  0  0  0  0  0  0  0  0  0  0
  1  2  1  0
  2  3  1  0
  2  4  1  0
  4  5  1  0
  5  6  1  0
  6  7  1  0
  7  8  2  0
  8  9  1  0
  9 10  2  0
 10 11  1  0
 11 12  2  0
 12 13  1  0
 13 14  2  0
 14 15  1  0
 15 16  1  0
 16 17  1  0
 17 18  1  0
 18 19  1  0
 19 20  1  0
 20 21  1  0
 21 22  1  0
 14 23  1  0
 23 24  1  0
 24 25  2  0
 24 26  1  0
 26 27  2  0
 27 28  1  0
 28 29  2  0
 29 30  1  0
 30 31  2  0
 31 32  1  0
 32 33  1  0
 10 34  1  0
 34 35  2  0
 35  7  1  0
 33 11  1  0
 22 18  1  0
 33 23  2  0
 31 26  1  0
  1 36  1  0
  1 37  1  0
  1 38  1  0
  3 39  1  0
  3 40  1  0
  3 41  1  0
  4 42  1  0
  4 43  1  0
  5 44  1  0
  5 45  1  0
  8 46  1  0
  9 47  1  0
 12 48  1  0
 13 49  1  0
 15 50  1  0
 15 51  1  0
 16 52  1  0
 16 53  1  0
 17 54  1  0
 17 55  1  0
 19 56  1  0
 19 57  1  0
 20 58  1  0
 20 59  1  0
 21 60  1  0
 21 61  1  0
 22 62  1  0
 22 63  1  0
 27 64  1  0
 28 65  1  0
 29 66  1  0
 30 67  1  0
 34 68  1  0
 35 69  1  0
M  CHG  1  15   1
M  END
>  <UniqueID>  (6) 
6

>  <SMILES>  (6) 
CN(C)CCOc1ccc(-c2ccc([NH2+]CCN3CCCC3)c3c(=O)c4ccccc4oc23)cc1

>  <Energy>  (6) 
99.12109367320983

>  <Genealogy>  (6) 
CN(C)CCOc1ccc(-c2ccc([NH2+]CCN3CCCC3)c3c(=O)c4ccccc4oc23)cc1 (protonated)
CN(C)CCOc1ccc(-c2ccc([NH2+]CCN3CCCC3)c3c(=O)c4ccccc4oc23)cc1 (3D coordinates assigned)
CN(C)CCOc1ccc(-c2ccc([NH2+]CCN3CCCC3)c3c(=O)c4ccccc4oc23)cc1 (nonaromatic ring conformer: 99.12109367320983 kcal/mol)

>  <smiles>  (6) 
CN(C)CCOc1ccc(-c2ccc(NCCN3CCCC3)c3c(=O)c4ccccc4oc23)cc1

>  <score_type>  (6) 
oracle

>  <origin>  (6) 
adg

>  <m_score__min__energy>  (6) 
-9.0800000000000001

>  <m_primary>  (6) 
energy

$$$$
6:0
     RDKit          3D

 59 62  0  0  0  0  0  0  0  0999 V2000
   -2.2530   19.8650  -34.1030 C   0  0  0  0  0  0  0  0  0  0  0  0
   -3.3980   20.2190  -33.3360 O   0  0  0  0  0  0  0  0  0  0  0  0
   -4.5240   19.3980  -33.1610 C   0  0  0  0  0  0  0  0  0  0  0  0
   -4.5690   18.0780  -33.6530 C   0  0  0  0  0  0  0  0  0  0  0  0
   -5.7040   17.2890  -33.4550 C   0  0  0  0  0  0  0  0  0  0  0  0
   -6.8070   17.8040  -32.7720 C   0  0  0  0  0  0  0  0  0  0  0  0
   -6.7760   19.1110  -32.2800 C   0  0  0  0  0  0  0  0  0  0  0  0
   -5.6360   19.9090  -32.4610 C   0  0  0  0  0  0  0  0  0  0  0  0
   -5.6190   21.2900  -31.9330 C   0  0  0  0  0  0  0  0  0  0  0  0
   -6.4350   22.2510  -32.5500 C   0  0  0  0  0  0  0  0  0  0  0  0
   -6.4650   23.5650  -32.0810 C   0  0  0  0  0  0  0  0  0  0  0  0
   -5.6770   23.9360  -30.9880 C   0  0  0  0  0  0  0  0  0  0  0  0
   -5.7100   25.2920  -30.5060 C   0  0  0  0  0  0  0  0  0  0  0  0
   -5.7350   26.3820  -30.1190 N   0  0  0  0  0  0  0  0  0  0  0  0
   -4.8520   22.9910  -30.3680 C   0  0  0  0  0  0  0  0  0  0  0  0
   -4.8070   21.6630  -30.8320 C   0  0  0  0  0  0  0  0  0  0  0  0
   -3.8610   20.6800  -30.1640 C   0  0  0  0  0  0  0  0  0  0  0  0
   -2.4910   20.7440  -30.7430 N   0  0  0  0  0  0  0  0  0  0  0  0
   -2.1990   22.0710  -31.3530 C   0  0  0  0  0  0  0  0  0  0  0  0
   -1.4250   23.0420  -30.4320 C   0  0  0  0  0  0  0  0  0  0  0  0
   -1.6220   22.7120  -29.0170 N   0  0  0  0  0  0  0  0  0  0  0  0
   -1.8180   23.7560  -28.0470 C   0  0  0  0  0  0  0  0  0  0  0  0
   -3.0740   23.9090  -27.4410 C   0  0  0  0  0  0  0  0  0  0  0  0
   -3.2900   24.9220  -26.5060 C   0  0  0  0  0  0  0  0  0  0  0  0
   -2.2520   25.7910  -26.1660 C   0  0  0  0  0  0  0  0  0  0  0  0
   -0.9940   25.6470  -26.7590 C   0  0  0  0  0  0  0  0  0  0  0  0
   -0.7630   24.6250  -27.7020 C   0  0  0  0  0  0  0  0  0  0  0  0
    0.4930   24.4400  -28.2980 O   0  0  0  0  0  0  0  0  0  0  0  0
    1.7380   24.5430  -27.6130 C   0  0  0  0  0  0  0  0  0  0  0  0
   -1.4370   21.3310  -28.5610 C   0  0  0  0  0  0  0  0  0  0  0  0
   -1.4640   20.3580  -29.7480 C   0  0  0  0  0  0  0  0  0  0  0  0
   -1.4239   19.6087  -33.4271 H   0  0  0  0  0  0  0  0  0  0  0  0
   -2.4903   18.9983  -34.7374 H   0  0  0  0  0  0  0  0  0  0  0  0
   -1.9597   20.7144  -34.7374 H   0  0  0  0  0  0  0  0  0  0  0  0
   -3.7052   17.6670  -34.1960 H   0  0  0  0  0  0  0  0  0  0  0  0
   -5.7289   16.2583  -33.8385 H   0  0  0  0  0  0  0  0  0  0  0  0
   -7.7007   17.1806  -32.6212 H   0  0  0  0  0  0  0  0  0  0  0  0
   -7.6493   19.5166  -31.7482 H   0  0  0  0  0  0  0  0  0  0  0  0
   -7.0568   21.9657  -33.4114 H   0  0  0  0  0  0  0  0  0  0  0  0
   -7.1093   24.3092  -32.5719 H   0  0  0  0  0  0  0  0  0  0  0  0
   -4.2324   23.2890  -29.5093 H   0  0  0  0  0  0  0  0  0  0  0  0
   -3.8044   20.9148  -29.0908 H   0  0  0  0  0  0  0  0  0  0  0  0
   -4.2528   19.6655  -30.3290 H   0  0  0  0  0  0  0  0  0  0  0  0
   -2.4250   20.0330  -31.5080 H   0  0  0  0  0  0  0  0  0  0  0  0
   -1.6002   21.9077  -32.2612 H   0  0  0  0  0  0  0  0  0  0  0  0
   -3.1714   22.5422  -31.5588 H   0  0  0  0  0  0  0  0  0  0  0  0
   -0.3523   22.9797  -30.6676 H   0  0  0  0  0  0  0  0  0  0  0  0
   -1.8054   24.0595  -30.6054 H   0  0  0  0  0  0  0  0  0  0  0  0
   -3.8945   23.2255  -27.7048 H   0  0  0  0  0  0  0  0  0  0  0  0
   -4.2784   25.0357  -26.0368 H   0  0  0  0  0  0  0  0  0  0  0  0
   -2.4240   26.5905  -25.4303 H   0  0  0  0  0  0  0  0  0  0  0  0
   -0.1798   26.3352  -26.4881 H   0  0  0  0  0  0  0  0  0  0  0  0
    1.5615   24.5284  -26.5274 H   0  0  0  0  0  0  0  0  0  0  0  0
    2.3809   23.6950  -27.8914 H   0  0  0  0  0  0  0  0  0  0  0  0
    2.2328   25.4851  -27.8914 H   0  0  0  0  0  0  0  0  0  0  0  0
   -0.4677   21.2473  -28.0477 H   0  0  0  0  0  0  0  0  0  0  0  0
   -2.2567   21.0731  -27.8743 H   0  0  0  0  0  0  0  0  0  0  0  0
   -0.4772   20.3595  -30.2339 H   0  0  0  0  0  0  0  0  0  0  0  0
   -1.7116   19.3561  -29.3674 H   0  0  0  0  0  0  0  0  0  0  0  0
  1  2  1  0
  2  3  1  0
  3  4  2  0
  4  5  1  0
  5  6  2  0
  6  7  1  0
  7  8  2  0
  8  9  1  0
  9 10  2  0
 10 11  1  0
 11 12  2  0
 12 13  1  0
 13 14  3  0
 12 15  1  0
 15 16  2  0
 16 17  1  0
 17 18  1  0
 18 19  1  0
 19 20  1  0
 20 21  1  0
 21 22  1  0
 22 23  2  0
 23 24  1  0
 24 25  2  0
 25 26  1  0
 26 27  2  0
 27 28  1  0
 28 29  1  0
 21 30  1  0
 30 31  1  0
  8  3  1  0
 16  9  1  0
 31 18  1  0
 27 22  1  0
  1 32  1  0
  1 33  1  0
  1 34  1  0
  4 35  1  0
  5 36  1  0
  6 37  1  0
  7 38  1  0
 10 39  1  0
 11 40  1  0
 15 41  1  0
 17 42  1  0
 17 43  1  0
 18 44  1  0
 19 45  1  0
 19 46  1  0
 20 47  1  0
 20 48  1  0
 23 49  1  0
 24 50  1  0
 25 51  1  0
 26 52  1  0
 29 53  1  0
 29 54  1  0
 29 55  1  0
 30 56  1  0
 30 57  1  0
 31 58  1  0
 31 59  1  0
M  CHG  1  18   1
M  END
>  <UniqueID>  (7) 
7

>  <SMILES>  (7) 
COc1ccccc1-c1ccc(C#N)cc1C[NH+]1CCN(c2ccccc2OC)CC1

>  <Energy>  (7) 
81.52933337026167

>  <Genealogy>  (7) 
COc1ccccc1-c1ccc(C#N)cc1C[NH+]1CCN(c2ccccc2OC)CC1 (protonated)
COc1ccccc1-c1ccc(C#N)cc1C[NH+]1CCN(c2ccccc2OC)CC1 (3D coordinates assigned)
COc1ccccc1-c1ccc(C#N)cc1C[NH+]1CCN(c2ccccc2OC)CC1 (nonaromatic ring conformer: 81.52933337026167 kcal/mol)

>  <smiles>  (7) 
COc1ccccc1-c1ccc(C#N)cc1CN1CCN(c2ccccc2OC)CC1

>  <score_type>  (7) 
oracle

>  <origin>  (7) 
adg

>  <m_score__min__energy>  (7) 
-7.9900000000000002

>  <m_primary>  (7) 
energy

$$$$
7:0
     RDKit          3D

 34 36  0  0  0  0  0  0  0  0999 V2000
   -1.6450   21.5700  -27.2610 C   0  0  0  0  0  0  0  0  0  0  0  0
   -1.8760   22.8720  -27.9810 C   0  0  0  0  0  0  0  0  0  0  0  0
   -1.0290   23.9590  -27.7240 C   0  0  0  0  0  0  0  0  0  0  0  0
   -1.2410   25.1680  -28.3900 C   0  0  0  0  0  0  0  0  0  0  0  0
   -0.4850   26.1500  -28.1660 O   0  0  0  0  0  0  0  0  0  0  0  0
   -2.2360   25.2930  -29.2600 O   0  0  0  0  0  0  0  0  0  0  0  0
   -3.0710   24.2970  -29.5430 C   0  0  0  0  0  0  0  0  0  0  0  0
   -4.0960   24.5040  -30.4720 C   0  0  0  0  0  0  0  0  0  0  0  0
   -4.9870   23.4760  -30.7940 C   0  0  0  0  0  0  0  0  0  0  0  0
   -5.9910   23.7430  -31.7400 O   0  0  0  0  0  0  0  0  0  0  0  0
   -7.3900   23.5420  -31.5370 C   0  0  0  0  0  0  0  0  0  0  0  0
   -7.7940   22.1470  -31.9320 C   0  0  0  0  0  0  0  0  0  0  0  0
   -9.0850   21.6780  -31.6380 C   0  0  0  0  0  0  0  0  0  0  0  0
   -9.4620   20.3810  -31.9980 C   0  0  0  0  0  0  0  0  0  0  0  0
   -8.5530   19.5410  -32.6470 C   0  0  0  0  0  0  0  0  0  0  0  0
   -7.2620   19.9960  -32.9340 C   0  0  0  0  0  0  0  0  0  0  0  0
   -6.0190   18.8460  -33.8170 Br  0  0  0  0  0  0  0  0  0  0  0  0
   -6.8810   21.2930  -32.5740 C   0  0  0  0  0  0  0  0  0  0  0  0
   -4.8500   22.2260  -30.1650 C   0  0  0  0  0  0  0  0  0  0  0  0
   -3.8290   22.0070  -29.2350 C   0  0  0  0  0  0  0  0  0  0  0  0
   -2.9270   23.0380  -28.9130 C   0  0  0  0  0  0  0  0  0  0  0  0
   -1.6754   21.7412  -26.1748 H   0  0  0  0  0  0  0  0  0  0  0  0
   -2.4298   20.8519  -27.5411 H   0  0  0  0  0  0  0  0  0  0  0  0
   -0.6611   21.1657  -27.5411 H   0  0  0  0  0  0  0  0  0  0  0  0
   -0.2038   23.8604  -27.0034 H   0  0  0  0  0  0  0  0  0  0  0  0
   -4.2022   25.4867  -30.9546 H   0  0  0  0  0  0  0  0  0  0  0  0
   -7.6260   23.6981  -30.4740 H   0  0  0  0  0  0  0  0  0  0  0  0
   -7.9428   24.2587  -32.1620 H   0  0  0  0  0  0  0  0  0  0  0  0
   -9.8020   22.3339  -31.1225 H   0  0  0  0  0  0  0  0  0  0  0  0
  -10.4761   20.0208  -31.7700 H   0  0  0  0  0  0  0  0  0  0  0  0
   -8.8529   18.5218  -32.9321 H   0  0  0  0  0  0  0  0  0  0  0  0
   -5.8627   21.6458  -32.7943 H   0  0  0  0  0  0  0  0  0  0  0  0
   -5.5516   21.4139  -30.4064 H   0  0  0  0  0  0  0  0  0  0  0  0
   -3.7304   21.0234  -28.7525 H   0  0  0  0  0  0  0  0  0  0  0  0
  1  2  1  0
  2  3  2  0
  3  4  1  0
  4  5  2  0
  4  6  1  0
  6  7  1  0
  7  8  2  0
  8  9  1  0
  9 10  1  0
 10 11  1  0
 11 12  1  0
 12 13  2  0
 13 14  1  0
 14 15  2  0
 15 16  1  0
 16 17  1  0
 16 18  2  0
  9 19  2  0
 19 20  1  0
 20 21  2  0
 21  2  1  0
 21  7  1  0
 18 12  1  0
  1 22  1  0
  1 23  1  0
  1 24  1  0
  3 25  1  0
  8 26  1  0
 11 27  1  0
 11 28  1  0
 13 29  1  0
 14 30  1  0
 15 31  1  0
 18 32  1  0
 19 33  1  0
 20 34  1  0
M  END
>  <UniqueID>  (8) 
8

>  <SMILES>  (8) 
Cc1cc(=O)oc2cc(OCc3cccc(Br)c3)ccc12

>  <Energy>  (8) 
41.495725523720054

>  <Genealogy>  (8) 
Cc1cc(=O)oc2cc(OCc3cccc(Br)c3)ccc12 (3D coordinates assigned)
Cc1cc(=O)oc2cc(OCc3cccc(Br)c3)ccc12 (optimized conformer: 41.495725523720054 kcal/mol)

>  <smiles>  (8) 
Cc1cc(=O)oc2cc(OCc3cccc(Br)c3)ccc12

>  <score_type>  (8) 
oracle

>  <origin>  (8) 
adg

>  <m_score__min__energy>  (8) 
-8.4399999999999995

>  <m_primary>  (8) 
energy

$$$$
8:0
     RDKit          3D

 46 49  0  0  0  0  0  0  0  0999 V2000
   -5.7510   25.0700  -29.6400 C   0  0  0  0  0  0  0  0  0  0  0  0
   -6.8580   24.7140  -30.4160 C   0  0  0  0  0  0  0  0  0  0  0  0
   -6.7390   23.7240  -31.3960 C   0  0  0  0  0  0  0  0  0  0  0  0
   -5.5080   23.0830  -31.6080 C   0  0  0  0  0  0  0  0  0  0  0  0
   -5.3850   22.1160  -32.5620 N   0  0  0  0  0  0  0  0  0  0  0  0
   -4.1930   21.4860  -32.8020 C   0  0  0  0  0  0  0  0  0  0  0  0
   -4.0700   20.4910  -33.7900 O   0  0  0  0  0  0  0  0  0  0  0  0
   -4.7030   19.2110  -33.7930 C   0  0  0  0  0  0  0  0  0  0  0  0
   -6.2310   19.3280  -33.8530 C   0  0  0  0  0  0  0  0  0  0  0  0
   -6.7770   19.8250  -32.5630 N   0  0  0  0  0  0  0  0  0  0  0  0
   -6.9610   18.7430  -31.5860 C   0  0  0  0  0  0  0  0  0  0  0  0
   -8.3560   18.1770  -31.7920 C   0  0  0  0  0  0  0  0  0  0  0  0
   -9.1380   19.2940  -32.4570 C   0  0  0  0  0  0  0  0  0  0  0  0
   -8.1210   20.3980  -32.7250 C   0  0  0  0  0  0  0  0  0  0  0  0
   -3.0560   21.8220  -32.0360 C   0  0  0  0  0  0  0  0  0  0  0  0
   -1.7500   21.1550  -32.2560 C   0  0  0  0  0  0  0  0  0  0  0  0
   -1.1680   21.1420  -33.5360 C   0  0  0  0  0  0  0  0  0  0  0  0
    0.0580   20.5030  -33.7310 C   0  0  0  0  0  0  0  0  0  0  0  0
    0.6830   19.8930  -32.6900 N   0  0  0  0  0  0  0  0  0  0  0  0
    0.1430   19.8820  -31.4430 C   0  0  0  0  0  0  0  0  0  0  0  0
   -1.0820   20.5090  -31.2030 C   0  0  0  0  0  0  0  0  0  0  0  0
   -3.1720   22.8030  -31.0420 C   0  0  0  0  0  0  0  0  0  0  0  0
   -4.3920   23.4450  -30.8230 C   0  0  0  0  0  0  0  0  0  0  0  0
   -4.5200   24.4390  -29.8410 C   0  0  0  0  0  0  0  0  0  0  0  0
   -5.8489   25.8487  -28.8692 H   0  0  0  0  0  0  0  0  0  0  0  0
   -7.8246   25.2138  -30.2552 H   0  0  0  0  0  0  0  0  0  0  0  0
   -7.6131   23.4462  -32.0032 H   0  0  0  0  0  0  0  0  0  0  0  0
   -6.2310   21.8640  -33.1150 H   0  0  0  0  0  0  0  0  0  0  0  0
   -4.3552   18.6444  -34.6694 H   0  0  0  0  0  0  0  0  0  0  0  0
   -4.4372   18.6974  -32.8573 H   0  0  0  0  0  0  0  0  0  0  0  0
   -6.5071   20.0288  -34.6546 H   0  0  0  0  0  0  0  0  0  0  0  0
   -6.6518   18.3312  -34.0515 H   0  0  0  0  0  0  0  0  0  0  0  0
   -6.2086   17.9573  -31.7490 H   0  0  0  0  0  0  0  0  0  0  0  0
   -6.8433   19.1220  -30.5601 H   0  0  0  0  0  0  0  0  0  0  0  0
   -8.3213   17.2896  -32.4411 H   0  0  0  0  0  0  0  0  0  0  0  0
   -8.8162   17.8568  -30.8456 H   0  0  0  0  0  0  0  0  0  0  0  0
   -9.5828   18.9436  -33.4001 H   0  0  0  0  0  0  0  0  0  0  0  0
   -9.9660   19.6460  -31.8241 H   0  0  0  0  0  0  0  0  0  0  0  0
   -8.2439   20.7783  -33.7498 H   0  0  0  0  0  0  0  0  0  0  0  0
   -8.2683   21.2324  -32.0236 H   0  0  0  0  0  0  0  0  0  0  0  0
   -1.6760   21.6327  -34.3793 H   0  0  0  0  0  0  0  0  0  0  0  0
    0.5190   20.4934  -34.7297 H   0  0  0  0  0  0  0  0  0  0  0  0
    0.6718   19.3781  -30.6206 H   0  0  0  0  0  0  0  0  0  0  0  0
   -1.5211   20.4968  -30.1945 H   0  0  0  0  0  0  0  0  0  0  0  0
   -2.2968   23.0686  -30.4309 H   0  0  0  0  0  0  0  0  0  0  0  0
   -3.6510   24.7219  -29.2288 H   0  0  0  0  0  0  0  0  0  0  0  0
  1  2  2  0
  2  3  1  0
  3  4  2  0
  4  5  1  0
  5  6  2  0
  6  7  1  0
  7  8  1  0
  8  9  1  0
  9 10  1  0
 10 11  1  0
 11 12  1  0
 12 13  1  0
 13 14  1  0
  6 15  1  0
 15 16  1  0
 16 17  2  0
 17 18  1  0
 18 19  2  0
 19 20  1  0
 20 21  2  0
 15 22  2  0
 22 23  1  0
 23 24  2  0
 24  1  1  0
 23  4  1  0
 14 10  1  0
 21 16  1  0
  1 25  1  0
  2 26  1  0
  3 27  1  0
  5 28  1  0
  8 29  1  0
  8 30  1  0
  9 31  1  0
  9 32  1  0
 11 33  1  0
 11 34  1  0
 12 35  1  0
 12 36  1  0
 13 37  1  0
 13 38  1  0
 14 39  1  0
 14 40  1  0
 17 41  1  0
 18 42  1  0
 20 43  1  0
 21 44  1  0
 22 45  1  0
 24 46  1  0
M  CHG  1   5   1
M  END
>  <UniqueID>  (9) 
9

>  <SMILES>  (9) 
c1ccc2[nH+]c(OCCN3CCCC3)c(-c3ccncc3)cc2c1

>  <Energy>  (9) 
62.76752836289822

>  <Genealogy>  (9) 
c1ccc2[nH+]c(OCCN3CCCC3)c(-c3ccncc3)cc2c1 (protonated)
c1ccc2[nH+]c(OCCN3CCCC3)c(-c3ccncc3)cc2c1 (3D coordinates assigned)
c1ccc2[nH+]c(OCCN3CCCC3)c(-c3ccncc3)cc2c1 (nonaromatic ring conformer: 62.76752836289822 kcal/mol)

>  <smiles>  (9) 
c1ccc2nc(OCCN3CCCC3)c(-c3ccncc3)cc2c1

>  <score_type>  (9) 
oracle

>  <origin>  (9) 
adg

>  <m_score__min__energy>  (9) 
-7.4800000000000004

>  <m_primary>  (9) 
energy

$$$$
9:0
     RDKit          3D

 48 49  0  0  0  0  0  0  0  0999 V2000
   -2.3400   25.1380  -26.7150 C   0  0  0  0  0  0  0  0  0  0  0  0
   -1.6170   25.5780  -27.9800 C   0  0  0  0  0  0  0  0  0  0  0  0
   -2.3880   25.2610  -29.1380 O   0  0  0  0  0  0  0  0  0  0  0  0
   -2.5360   23.9880  -29.7190 C   0  0  0  0  0  0  0  0  0  0  0  0
   -1.7350   22.9030  -29.3090 C   0  0  0  0  0  0  0  0  0  0  0  0
   -1.8560   21.6570  -29.9190 C   0  0  0  0  0  0  0  0  0  0  0  0
   -2.7790   21.4650  -30.9410 C   0  0  0  0  0  0  0  0  0  0  0  0
   -3.6100   22.5150  -31.3560 C   0  0  0  0  0  0  0  0  0  0  0  0
   -4.6040   22.2590  -32.4700 C   0  0  0  0  0  0  0  0  0  0  0  0
   -5.8690   22.9870  -32.2620 N   0  0  0  0  0  0  0  0  0  0  0  0
   -6.5700   22.5370  -31.0460 C   0  0  0  0  0  0  0  0  0  0  0  0
   -7.0660   21.0940  -31.1950 C   0  0  0  0  0  0  0  0  0  0  0  0
   -7.4520   20.8230  -32.6000 N   0  0  0  0  0  0  0  0  0  0  0  0
   -8.8600   20.4020  -32.7230 C   0  0  0  0  0  0  0  0  0  0  0  0
   -9.0820   18.9820  -32.1520 C   0  0  0  0  0  0  0  0  0  0  0  0
   -7.8750   18.2610  -31.9680 O   0  0  0  0  0  0  0  0  0  0  0  0
   -7.0510   18.3930  -33.1060 C   0  0  0  0  0  0  0  0  0  0  0  0
   -6.5520   19.8470  -33.2570 C   0  0  0  0  0  0  0  0  0  0  0  0
   -3.4960   23.7900  -30.7500 C   0  0  0  0  0  0  0  0  0  0  0  0
   -4.3560   24.8080  -31.2110 O   0  0  0  0  0  0  0  0  0  0  0  0
   -5.3150   25.5270  -30.4430 C   0  0  0  0  0  0  0  0  0  0  0  0
   -1.7779   25.4801  -25.8336 H   0  0  0  0  0  0  0  0  0  0  0  0
   -3.3493   25.5752  -26.6986 H   0  0  0  0  0  0  0  0  0  0  0  0
   -2.4154   24.0407  -26.6986 H   0  0  0  0  0  0  0  0  0  0  0  0
   -1.4524   26.6650  -27.9423 H   0  0  0  0  0  0  0  0  0  0  0  0
   -0.6549   25.0481  -28.0398 H   0  0  0  0  0  0  0  0  0  0  0  0
   -1.0056   23.0422  -28.4975 H   0  0  0  0  0  0  0  0  0  0  0  0
   -1.2193   20.8220  -29.5913 H   0  0  0  0  0  0  0  0  0  0  0  0
   -2.8578   20.4817  -31.4276 H   0  0  0  0  0  0  0  0  0  0  0  0
   -4.1604   22.5836  -33.4228 H   0  0  0  0  0  0  0  0  0  0  0  0
   -4.8303   21.1826  -32.4816 H   0  0  0  0  0  0  0  0  0  0  0  0
   -5.6830   24.0160  -32.2110 H   0  0  0  0  0  0  0  0  0  0  0  0
   -6.4790   22.8060  -33.0940 H   0  0  0  0  0  0  0  0  0  0  0  0
   -5.8790   22.5927  -30.1919 H   0  0  0  0  0  0  0  0  0  0  0  0
   -7.4403   23.1898  -30.8834 H   0  0  0  0  0  0  0  0  0  0  0  0
   -6.2631   20.4024  -30.8998 H   0  0  0  0  0  0  0  0  0  0  0  0
   -7.9449   20.9503  -30.5494 H   0  0  0  0  0  0  0  0  0  0  0  0
   -9.4942   21.1116  -32.1714 H   0  0  0  0  0  0  0  0  0  0  0  0
   -9.1227   20.3881  -33.7911 H   0  0  0  0  0  0  0  0  0  0  0  0
   -9.5882   19.0710  -31.1795 H   0  0  0  0  0  0  0  0  0  0  0  0
   -9.6878   18.4260  -32.8826 H   0  0  0  0  0  0  0  0  0  0  0  0
   -6.1844   17.7233  -33.0033 H   0  0  0  0  0  0  0  0  0  0  0  0
   -7.6371   18.1272  -33.9981 H   0  0  0  0  0  0  0  0  0  0  0  0
   -5.5529   19.9267  -32.8037 H   0  0  0  0  0  0  0  0  0  0  0  0
   -6.5268   20.0835  -34.3310 H   0  0  0  0  0  0  0  0  0  0  0  0
   -5.1143   25.3766  -29.3720 H   0  0  0  0  0  0  0  0  0  0  0  0
   -5.2471   26.5986  -30.6818 H   0  0  0  0  0  0  0  0  0  0  0  0
   -6.3246   25.1614  -30.6818 H   0  0  0  0  0  0  0  0  0  0  0  0
  1  2  1  0
  2  3  1  0
  3  4  1  0
  4  5  2  0
  5  6  1  0
  6  7  2  0
  7  8  1  0
  8  9  1  0
  9 10  1  0
 10 11  1  0
 11 12  1  0
 12 13  1  0
 13 14  1  0
 14 15  1  0
 15 16  1  0
 16 17  1  0
 17 18  1  0
  8 19  2  0
 19 20  1  0
 20 21  1  0
 19  4  1  0
 18 13  1  0
  1 22  1  0
  1 23  1  0
  1 24  1  0
  2 25  1  0
  2 26  1  0
  5 27  1  0
  6 28  1  0
  7 29  1  0
  9 30  1  0
  9 31  1  0
 10 32  1  0
 10 33  1  0
 11 34  1  0
 11 35  1  0
 12 36  1  0
 12 37  1  0
 14 38  1  0
 14 39  1  0
 15 40  1  0
 15 41  1  0
 17 42  1  0
 17 43  1  0
 18 44  1  0
 18 45  1  0
 21 46  1  0
 21 47  1  0
 21 48  1  0
M  CHG  1  10   1
M  END
>  <UniqueID>  (10) 
10

>  <SMILES>  (10) 
CCOc1cccc(C[NH2+]CCN2CCOCC2)c1OC

>  <Energy>  (10) 
58.12997959740187

>  <Genealogy>  (10) 
CCOc1cccc(C[NH2+]CCN2CCOCC2)c1OC (protonated)
CCOc1cccc(C[NH2+]CCN2CCOCC2)c1OC (3D coordinates assigned)
CCOc1cccc(C[NH2+]CCN2CCOCC2)c1OC (nonaromatic ring conformer: 58.12997959740187 kcal/mol)

>  <smiles>  (10) 
CCOc1cccc(CNCCN2CCOCC2)c1OC

>  <score_type>  (10) 
oracle

>  <origin>  (10) 
adg

>  <m_score__min__energy>  (10) 
-6.1500000000000004

>  <m_primary>  (10) 
energy

$$$$
10:0
     RDKit          3D

 54 56  0  0  0  0  0  0  0  0999 V2000
   -5.3400   26.0020  -30.5110 C   0  0  0  0  0  0  0  0  0  0  0  0
   -4.1290   25.3190  -30.8250 O   0  0  0  0  0  0  0  0  0  0  0  0
   -3.8470   23.9960  -30.4510 C   0  0  0  0  0  0  0  0  0  0  0  0
   -4.0760   23.6180  -29.1230 C   0  0  0  0  0  0  0  0  0  0  0  0
   -3.8040   22.3140  -28.6990 C   0  0  0  0  0  0  0  0  0  0  0  0
   -3.2980   21.3750  -29.6000 C   0  0  0  0  0  0  0  0  0  0  0  0
   -3.0660   21.7320  -30.9400 C   0  0  0  0  0  0  0  0  0  0  0  0
   -2.5150   20.7160  -31.9190 C   0  0  0  0  0  0  0  0  0  0  0  0
   -3.2680   20.6980  -33.2010 N   0  0  1  0  0  0  0  0  0  0  0  0
   -2.5240   19.8700  -34.1890 C   0  0  0  0  0  0  0  0  0  0  0  0
   -2.3250   18.4110  -33.7410 C   0  0  0  0  0  0  0  0  0  0  0  0
   -3.5850   17.7120  -33.2100 C   0  0  0  0  0  0  0  0  0  0  0  0
   -4.7950   17.9490  -34.0280 N   0  0  0  0  0  0  0  0  0  0  0  0
   -5.8550   16.9520  -33.7570 C   0  0  0  0  0  0  0  0  0  0  0  0
   -6.7060   17.3630  -32.5470 C   0  0  0  0  0  0  0  0  0  0  0  0
   -7.8190   18.1630  -32.9520 O   0  0  0  0  0  0  0  0  0  0  0  0
   -8.1740   19.4070  -32.4060 C   0  0  0  0  0  0  0  0  0  0  0  0
   -9.4290   19.9390  -32.7370 C   0  0  0  0  0  0  0  0  0  0  0  0
   -9.8320   21.1780  -32.2280 C   0  0  0  0  0  0  0  0  0  0  0  0
   -8.9840   21.8960  -31.3800 C   0  0  0  0  0  0  0  0  0  0  0  0
   -7.7290   21.3780  -31.0470 C   0  0  0  0  0  0  0  0  0  0  0  0
   -7.3220   20.1410  -31.5560 C   0  0  0  0  0  0  0  0  0  0  0  0
   -5.3200   19.3400  -34.0320 C   0  0  0  0  0  0  0  0  0  0  0  0
   -4.6980   20.2940  -32.9810 C   0  0  0  0  0  0  0  0  0  0  0  0
   -3.3400   23.0450  -31.3600 C   0  0  0  0  0  0  0  0  0  0  0  0
   -5.4525   26.0655  -29.4186 H   0  0  0  0  0  0  0  0  0  0  0  0
   -5.3098   27.0161  -30.9360 H   0  0  0  0  0  0  0  0  0  0  0  0
   -6.1922   25.4515  -30.9360 H   0  0  0  0  0  0  0  0  0  0  0  0
   -4.4732   24.3528  -28.4073 H   0  0  0  0  0  0  0  0  0  0  0  0
   -3.9890   22.0271  -27.6533 H   0  0  0  0  0  0  0  0  0  0  0  0
   -3.0800   20.3518  -29.2601 H   0  0  0  0  0  0  0  0  0  0  0  0
   -1.4640   20.9627  -32.1301 H   0  0  0  0  0  0  0  0  0  0  0  0
   -2.6111   19.7212  -31.4596 H   0  0  0  0  0  0  0  0  0  0  0  0
   -3.2640   21.6790  -33.5720 H   0  0  0  0  0  0  0  0  0  0  0  0
   -3.0842   19.8703  -35.1356 H   0  0  0  0  0  0  0  0  0  0  0  0
   -1.5237   20.3149  -34.2962 H   0  0  0  0  0  0  0  0  0  0  0  0
   -1.9559   17.8374  -34.6040 H   0  0  0  0  0  0  0  0  0  0  0  0
   -1.6170   18.4440  -32.8998 H   0  0  0  0  0  0  0  0  0  0  0  0
   -3.3936   16.6292  -33.1812 H   0  0  0  0  0  0  0  0  0  0  0  0
   -3.7867   18.1333  -32.2141 H   0  0  0  0  0  0  0  0  0  0  0  0
   -6.5043   16.8691  -34.6410 H   0  0  0  0  0  0  0  0  0  0  0  0
   -5.3771   15.9863  -33.5355 H   0  0  0  0  0  0  0  0  0  0  0  0
   -7.0775   16.4579  -32.0443 H   0  0  0  0  0  0  0  0  0  0  0  0
   -6.0799   17.9542  -31.8626 H   0  0  0  0  0  0  0  0  0  0  0  0
  -10.1015   19.3774  -33.4021 H   0  0  0  0  0  0  0  0  0  0  0  0
  -10.8172   21.5877  -32.4953 H   0  0  0  0  0  0  0  0  0  0  0  0
   -9.3038   22.8675  -30.9751 H   0  0  0  0  0  0  0  0  0  0  0  0
   -7.0600   21.9450  -30.3829 H   0  0  0  0  0  0  0  0  0  0  0  0
   -6.3328   19.7389  -31.2921 H   0  0  0  0  0  0  0  0  0  0  0  0
   -5.1361   19.7682  -35.0284 H   0  0  0  0  0  0  0  0  0  0  0  0
   -6.3858   19.2599  -33.7719 H   0  0  0  0  0  0  0  0  0  0  0  0
   -5.3047   21.2113  -32.9628 H   0  0  0  0  0  0  0  0  0  0  0  0
   -4.6968   19.7260  -32.0390 H   0  0  0  0  0  0  0  0  0  0  0  0
   -3.1575   23.3328  -32.4059 H   0  0  0  0  0  0  0  0  0  0  0  0
  1  2  1  0
  2  3  1  0
  3  4  2  0
  4  5  1  0
  5  6  2  0
  6  7  1  0
  7  8  1  0
  8  9  1  0
  9 10  1  0
 10 11  1  0
 11 12  1  0
 12 13  1  0
 13 14  1  0
 14 15  1  0
 15 16  1  0
 16 17  1  0
 17 18  2  0
 18 19  1  0
 19 20  2  0
 20 21  1  0
 21 22  2  0
 13 23  1  0
 23 24  1  0
  7 25  2  0
 25  3  1  0
 24  9  1  0
 22 17  1  0
  1 26  1  0
  1 27  1  0
  1 28  1  0
  4 29  1  0
  5 30  1  0
  6 31  1  0
  8 32  1  0
  8 33  1  0
  9 34  1  6
 10 35  1  0
 10 36  1  0
 11 37  1  0
 11 38  1  0
 12 39  1  0
 12 40  1  0
 14 41  1  0
 14 42  1  0
 15 43  1  0
 15 44  1  0
 18 45  1  0
 19 46  1  0
 20 47  1  0
 21 48  1  0
 22 49  1  0
 23 50  1  0
 23 51  1  0
 24 52  1  0
 24 53  1  0
 25 54  1  0
M  CHG  1   9   1
M  END
>  <UniqueID>  (11) 
11

>  <SMILES>  (11) 
COc1cccc(C[N@H+]2CCCN(CCOc3ccccc3)CC2)c1

>  <Energy>  (11) 
77.54491957697708

>  <Genealogy>  (11) 
COc1cccc(C[NH+]2CCCN(CCOc3ccccc3)CC2)c1 (protonated)
COc1cccc(C[N@H+]2CCCN(CCOc3ccccc3)CC2)c1 (chirality)
COc1cccc(C[N@H+]2CCCN(CCOc3ccccc3)CC2)c1 (3D coordinates assigned)
COc1cccc(C[N@H+]2CCCN(CCOc3ccccc3)CC2)c1 (nonaromatic ring conformer: 77.54491957697708 kcal/mol)

>  <smiles>  (11) 
COc1cccc(CN2CCCN(CCOc3ccccc3)CC2)c1

>  <score_type>  (11) 
oracle

>  <origin>  (11) 
adg

>  <m_score__min__energy>  (11) 
-6.2199999999999998

>  <m_primary>  (11) 
energy

$$$$
11:0
     RDKit          3D

 59 63  0  0  0  0  0  0  0  0999 V2000
   -4.2630   24.1860  -28.2960 C   0  0  0  0  0  0  0  0  0  0  0  0
   -3.3050   23.1270  -28.7550 C   0  0  0  0  0  0  0  0  0  0  0  0
   -2.3140   23.4340  -29.7000 C   0  0  0  0  0  0  0  0  0  0  0  0
   -1.4420   22.4400  -30.1570 C   0  0  0  0  0  0  0  0  0  0  0  0
   -1.5560   21.1250  -29.6800 C   0  0  0  0  0  0  0  0  0  0  0  0
   -0.6320   20.0430  -30.1890 C   0  0  0  0  0  0  0  0  0  0  0  0
   -0.1420   20.3280  -31.5460 N   0  0  0  0  0  0  0  0  0  0  0  0
   -0.6880   19.3890  -32.5410 C   0  0  0  0  0  0  0  0  0  0  0  0
   -2.0510   19.8700  -33.0780 C   0  0  0  0  0  0  0  0  0  0  0  0
   -3.2390   19.2390  -32.2980 C   0  0  0  0  0  0  0  0  0  0  0  0
   -4.0970   20.2740  -31.5580 C   0  0  0  0  0  0  0  0  0  0  0  0
   -4.5020   21.3580  -32.4640 N   0  0  0  0  0  0  0  0  0  0  0  0
   -5.6050   22.1870  -32.0650 C   0  0  0  0  0  0  0  0  0  0  0  0
   -5.3720   23.4990  -31.7670 N   0  0  0  0  0  0  0  0  0  0  0  0
   -6.3380   24.3060  -31.2430 C   0  0  0  0  0  0  0  0  0  0  0  0
   -7.5720   23.8080  -30.9660 N   0  0  0  0  0  0  0  0  0  0  0  0
   -7.8320   22.5110  -31.2530 C   0  0  0  0  0  0  0  0  0  0  0  0
   -9.2750   21.7060  -30.9840 S   0  0  0  0  0  0  0  0  0  0  0  0
   -8.7390   20.2420  -31.6310 C   0  0  0  0  0  0  0  0  0  0  0  0
   -7.4210   20.3790  -32.0820 C   0  0  0  0  0  0  0  0  0  0  0  0
   -6.7670   19.3110  -32.8600 C   0  0  0  0  0  0  0  0  0  0  0  0
   -6.7100   18.0020  -32.3530 C   0  0  0  0  0  0  0  0  0  0  0  0
   -6.1490   16.9740  -33.1190 C   0  0  0  0  0  0  0  0  0  0  0  0
   -5.6530   17.2450  -34.3980 C   0  0  0  0  0  0  0  0  0  0  0  0
   -5.7240   18.5410  -34.9150 C   0  0  0  0  0  0  0  0  0  0  0  0
   -6.2890   19.5690  -34.1540 C   0  0  0  0  0  0  0  0  0  0  0  0
   -6.8970   21.6700  -31.8330 C   0  0  0  0  0  0  0  0  0  0  0  0
   -3.5470   21.8840  -33.4540 C   0  0  0  0  0  0  0  0  0  0  0  0
   -2.1220   21.4110  -33.1570 C   0  0  0  0  0  0  0  0  0  0  0  0
   -2.5640   20.8130  -28.7540 C   0  0  0  0  0  0  0  0  0  0  0  0
   -3.4350   21.8070  -28.2970 C   0  0  0  0  0  0  0  0  0  0  0  0
   -4.2843   24.2095  -27.1965 H   0  0  0  0  0  0  0  0  0  0  0  0
   -3.9376   25.1651  -28.6775 H   0  0  0  0  0  0  0  0  0  0  0  0
   -5.2697   23.9600  -28.6775 H   0  0  0  0  0  0  0  0  0  0  0  0
   -2.2224   24.4610  -30.0832 H   0  0  0  0  0  0  0  0  0  0  0  0
   -0.6639   22.6901  -30.8932 H   0  0  0  0  0  0  0  0  0  0  0  0
    0.2297   19.9639  -29.5099 H   0  0  0  0  0  0  0  0  0  0  0  0
   -1.1996   19.1014  -30.2243 H   0  0  0  0  0  0  0  0  0  0  0  0
    0.9020   20.2600  -31.5440 H   0  0  0  0  0  0  0  0  0  0  0  0
    0.0183   19.3057  -33.3801 H   0  0  0  0  0  0  0  0  0  0  0  0
   -0.8319   18.4131  -32.0543 H   0  0  0  0  0  0  0  0  0  0  0  0
   -2.1468   19.5076  -34.1122 H   0  0  0  0  0  0  0  0  0  0  0  0
   -3.8795   18.7011  -33.0125 H   0  0  0  0  0  0  0  0  0  0  0  0
   -2.8108   18.5680  -31.5388 H   0  0  0  0  0  0  0  0  0  0  0  0
   -4.9964   19.7801  -31.1616 H   0  0  0  0  0  0  0  0  0  0  0  0
   -3.5033   20.7030  -30.7373 H   0  0  0  0  0  0  0  0  0  0  0  0
   -6.1177   25.3651  -31.0435 H   0  0  0  0  0  0  0  0  0  0  0  0
   -9.3354   19.3196  -31.6894 H   0  0  0  0  0  0  0  0  0  0  0  0
   -7.1076   17.7845  -31.3507 H   0  0  0  0  0  0  0  0  0  0  0  0
   -6.0982   15.9522  -32.7148 H   0  0  0  0  0  0  0  0  0  0  0  0
   -5.2068   16.4376  -34.9972 H   0  0  0  0  0  0  0  0  0  0  0  0
   -5.3350   18.7529  -35.9219 H   0  0  0  0  0  0  0  0  0  0  0  0
   -6.3591   20.5843  -34.5714 H   0  0  0  0  0  0  0  0  0  0  0  0
   -3.8394   21.5343  -34.4551 H   0  0  0  0  0  0  0  0  0  0  0  0
   -3.5657   22.9828  -33.4051 H   0  0  0  0  0  0  0  0  0  0  0  0
   -1.4535   21.7606  -33.9576 H   0  0  0  0  0  0  0  0  0  0  0  0
   -1.8126   21.8246  -32.1858 H   0  0  0  0  0  0  0  0  0  0  0  0
   -2.6692   19.7817  -28.3862 H   0  0  0  0  0  0  0  0  0  0  0  0
   -4.2254   21.5530  -27.5754 H   0  0  0  0  0  0  0  0  0  0  0  0
  1  2  1  0
  2  3  2  0
  3  4  1  0
  4  5  2  0
  5  6  1  0
  6  7  1  0
  7  8  1  0
  8  9  1  0
  9 10  1  0
 10 11  1  0
 11 12  1  0
 12 13  1  0
 13 14  2  0
 14 15  1  0
 15 16  2  0
 16 17  1  0
 17 18  1  0
 18 19  1  0
 19 20  2  0
 20 21  1  0
 21 22  2  0
 22 23  1  0
 23 24  2  0
 24 25  1  0
 25 26  2  0
 20 27  1  0
 12 28  1  0
 28 29  1  0
  5 30  1  0
 30 31  2  0
 31  2  1  0
 29  9  1  0
 27 13  1  0
 27 17  2  0
 26 21  1  0
  1 32  1  0
  1 33  1  0
  1 34  1  0
  3 35  1  0
  4 36  1  0
  6 37  1  0
  6 38  1  0
  7 39  1  0
  8 40  1  0
  8 41  1  0
  9 42  1  0
 10 43  1  0
 10 44  1  0
 11 45  1  0
 11 46  1  0
 15 47  1  0
 19 48  1  0
 22 49  1  0
 23 50  1  0
 24 51  1  0
 25 52  1  0
 26 53  1  0
 28 54  1  0
 28 55  1  0
 29 56  1  0
 29 57  1  0
 30 58  1  0
 31 59  1  0
M  END
>  <UniqueID>  (12) 
12

>  <SMILES>  (12) 
Cc1ccc(CNCC2CCN(c3ncnc4scc(-c5ccccc5)c34)CC2)cc1

>  <Energy>  (12) 
109.4167542321916

>  <Genealogy>  (12) 
Cc1ccc(CNCC2CCN(c3ncnc4scc(-c5ccccc5)c34)CC2)cc1 (3D coordinates assigned)
Cc1ccc(CNCC2CCN(c3ncnc4scc(-c5ccccc5)c34)CC2)cc1 (nonaromatic ring conformer: 109.4167542321916 kcal/mol)

>  <smiles>  (12) 
Cc1ccc(CNCC2CCN(c3ncnc4scc(-c5ccccc5)c34)CC2)cc1

>  <score_type>  (12) 
oracle

>  <origin>  (12) 
adg

>  <m_score__min__energy>  (12) 
-9.5800000000000001

>  <m_primary>  (12) 
energy

$$$$
12:0
     RDKit          3D

 31 32  0  0  0  0  0  0  0  0999 V2000
   -6.5370   17.0860  -33.1190 C   0  0  0  0  0  0  0  0  0  0  0  0
   -7.2130   17.9060  -32.5470 C   0  0  0  0  0  0  0  0  0  0  0  0
   -8.0390   18.9060  -31.8500 C   0  0  0  0  0  0  0  0  0  0  0  0
   -8.3550   20.0650  -32.7240 N   0  0  1  0  0  0  0  0  0  0  0  0
   -9.6050   20.7540  -32.3250 C   0  0  0  0  0  0  0  0  0  0  0  0
   -9.4490   21.5170  -30.9880 C   0  0  0  0  0  0  0  0  0  0  0  0
   -8.0970   21.7110  -30.6090 O   0  0  0  0  0  0  0  0  0  0  0  0
   -7.3330   22.1500  -31.7160 C   0  0  1  0  0  0  0  0  0  0  0  0
   -5.9600   22.5790  -31.2470 C   0  0  0  0  0  0  0  0  0  0  0  0
   -5.6780   23.9450  -31.0580 C   0  0  0  0  0  0  0  0  0  0  0  0
   -4.4060   24.3560  -30.6480 C   0  0  0  0  0  0  0  0  0  0  0  0
   -4.1470   25.6730  -30.4630 F   0  0  0  0  0  0  0  0  0  0  0  0
   -3.4000   23.4100  -30.4320 C   0  0  0  0  0  0  0  0  0  0  0  0
   -3.6630   22.0540  -30.6300 C   0  0  0  0  0  0  0  0  0  0  0  0
   -4.9320   21.6340  -31.0390 C   0  0  0  0  0  0  0  0  0  0  0  0
   -5.1550   20.3110  -31.2430 F   0  0  0  0  0  0  0  0  0  0  0  0
   -7.2260   21.0290  -32.7850 C   0  0  0  0  0  0  0  0  0  0  0  0
   -5.9209   16.3386  -33.6403 H   0  0  0  0  0  0  0  0  0  0  0  0
   -8.9796   18.4323  -31.5325 H   0  0  0  0  0  0  0  0  0  0  0  0
   -7.4709   19.2754  -30.9835 H   0  0  0  0  0  0  0  0  0  0  0  0
   -8.4950   19.6960  -33.6950 H   0  0  0  0  0  0  0  0  0  0  0  0
   -9.8814   21.4709  -33.1122 H   0  0  0  0  0  0  0  0  0  0  0  0
  -10.3842   19.9895  -32.1893 H   0  0  0  0  0  0  0  0  0  0  0  0
   -9.9281   22.5019  -31.0899 H   0  0  0  0  0  0  0  0  0  0  0  0
   -9.9226   20.9053  -30.2060 H   0  0  0  0  0  0  0  0  0  0  0  0
   -7.8351   23.0114  -32.1807 H   0  0  0  0  0  0  0  0  0  0  0  0
   -6.4638   24.6944  -31.2341 H   0  0  0  0  0  0  0  0  0  0  0  0
   -2.4008   23.7345  -30.1059 H   0  0  0  0  0  0  0  0  0  0  0  0
   -2.8681   21.3121  -30.4635 H   0  0  0  0  0  0  0  0  0  0  0  0
   -7.2145   21.4940  -33.7818 H   0  0  0  0  0  0  0  0  0  0  0  0
   -6.3009   20.4684  -32.5853 H   0  0  0  0  0  0  0  0  0  0  0  0
  1  2  3  0
  2  3  1  0
  3  4  1  0
  4  5  1  0
  5  6  1  0
  6  7  1  0
  7  8  1  0
  8  9  1  0
  9 10  2  0
 10 11  1  0
 11 12  1  0
 11 13  2  0
 13 14  1  0
 14 15  2  0
 15 16  1  0
  8 17  1  0
 17  4  1  0
 15  9  1  0
  1 18  1  0
  3 19  1  0
  3 20  1  0
  4 21  1  6
  5 22  1  0
  5 23  1  0
  6 24  1  0
  6 25  1  0
  8 26  1  6
 10 27  1  0
 13 28  1  0
 14 29  1  0
 17 30  1  0
 17 31  1  0
M  CHG  1   4   1
M  END
>  <UniqueID>  (13) 
13

>  <SMILES>  (13) 
C#CC[N@H+]1CCO[C@@H](c2cc(F)ccc2F)C1

>  <Energy>  (13) 
43.22395538592675

>  <Genealogy>  (13) 
C#CC[NH+]1CCOC(c2cc(F)ccc2F)C1 (protonated)
C#CC[N@H+]1CCO[C@@H](c2cc(F)ccc2F)C1 (chirality)
C#CC[N@H+]1CCO[C@@H](c2cc(F)ccc2F)C1 (3D coordinates assigned)
C#CC[N@H+]1CCO[C@@H](c2cc(F)ccc2F)C1 (nonaromatic ring conformer: 43.22395538592675 kcal/mol)

>  <smiles>  (13) 
C#CCN1CCOC(c2cc(F)ccc2F)C1

>  <score_type>  (13) 
oracle

>  <origin>  (13) 
adg

>  <m_score__min__energy>  (13) 
-5.5999999999999996

>  <m_primary>  (13) 
energy

$$$$
13:0
     RDKit          3D

 41 42  0  0  0  0  0  0  0  0999 V2000
   -2.3570   17.6510  -34.2200 C   0  0  0  0  0  0  0  0  0  0  0  0
   -3.2080   16.3950  -34.4040 C   0  0  0  0  0  0  0  0  0  0  0  0
   -4.6140   16.6590  -34.0230 N   0  0  0  0  0  0  0  0  0  0  0  0
   -5.3630   15.3990  -33.8140 C   0  0  0  0  0  0  0  0  0  0  0  0
   -6.8370   15.5910  -34.1590 C   0  0  0  0  0  0  0  0  0  0  0  0
   -5.2920   17.5510  -34.9970 C   0  0  0  0  0  0  0  0  0  0  0  0
   -5.6610   18.8800  -34.3280 C   0  0  0  0  0  0  0  0  0  0  0  0
   -5.3170   18.8840  -32.8970 N   0  0  0  0  0  0  0  0  0  0  0  0
   -5.7920   20.1020  -32.2680 C   0  0  0  0  0  0  0  0  0  0  0  0
   -7.1600   20.2400  -31.9300 C   0  0  0  0  0  0  0  0  0  0  0  0
   -8.4090   18.8140  -32.3200 Br  0  0  0  0  0  0  0  0  0  0  0  0
   -7.6330   21.4180  -31.3220 C   0  0  0  0  0  0  0  0  0  0  0  0
   -9.5070   21.5530  -30.8630 Br  0  0  0  0  0  0  0  0  0  0  0  0
   -6.7440   22.4820  -31.0570 C   0  0  0  0  0  0  0  0  0  0  0  0
   -7.1920   23.6720  -30.4420 C   0  0  0  0  0  0  0  0  0  0  0  0
   -6.3120   24.7230  -30.1910 C   0  0  0  0  0  0  0  0  0  0  0  0
   -4.9740   24.6120  -30.5470 C   0  0  0  0  0  0  0  0  0  0  0  0
   -4.5040   23.4490  -31.1550 C   0  0  0  0  0  0  0  0  0  0  0  0
   -5.3740   22.3670  -31.4200 C   0  0  0  0  0  0  0  0  0  0  0  0
   -4.9040   21.1820  -32.0340 C   0  0  0  0  0  0  0  0  0  0  0  0
   -3.0510   21.0350  -32.5800 Br  0  0  0  0  0  0  0  0  0  0  0  0
   -2.2229   17.8490  -33.1463 H   0  0  0  0  0  0  0  0  0  0  0  0
   -1.3743   17.5002  -34.6906 H   0  0  0  0  0  0  0  0  0  0  0  0
   -2.8614   18.5078  -34.6906 H   0  0  0  0  0  0  0  0  0  0  0  0
   -3.1712   16.0845  -35.4586 H   0  0  0  0  0  0  0  0  0  0  0  0
   -2.8090   15.5982  -33.7591 H   0  0  0  0  0  0  0  0  0  0  0  0
   -4.9394   14.6147  -34.4585 H   0  0  0  0  0  0  0  0  0  0  0  0
   -5.2798   15.1064  -32.7569 H   0  0  0  0  0  0  0  0  0  0  0  0
   -7.4237   15.6674  -33.2317 H   0  0  0  0  0  0  0  0  0  0  0  0
   -6.9589   16.5126  -34.7470 H   0  0  0  0  0  0  0  0  0  0  0  0
   -7.1909   14.7314  -34.7470 H   0  0  0  0  0  0  0  0  0  0  0  0
   -4.6168   17.7452  -35.8434 H   0  0  0  0  0  0  0  0  0  0  0  0
   -6.2099   17.0614  -35.3543 H   0  0  0  0  0  0  0  0  0  0  0  0
   -5.1156   19.6941  -34.8279 H   0  0  0  0  0  0  0  0  0  0  0  0
   -6.7483   19.0192  -34.4193 H   0  0  0  0  0  0  0  0  0  0  0  0
   -5.7300   18.0520  -32.4220 H   0  0  0  0  0  0  0  0  0  0  0  0
   -4.2840   18.7810  -32.7770 H   0  0  0  0  0  0  0  0  0  0  0  0
   -8.2499   23.7705  -30.1573 H   0  0  0  0  0  0  0  0  0  0  0  0
   -6.6777   25.6422  -29.7100 H   0  0  0  0  0  0  0  0  0  0  0  0
   -4.2830   25.4446  -30.3485 H   0  0  0  0  0  0  0  0  0  0  0  0
   -3.4423   23.3723  -31.4322 H   0  0  0  0  0  0  0  0  0  0  0  0
  1  2  1  0
  2  3  1  0
  3  4  1  0
  4  5  1  0
  3  6  1  0
  6  7  1  0
  7  8  1  0
  8  9  1  0
  9 10  2  0
 10 11  1  0
 10 12  1  0
 12 13  1  0
 12 14  2  0
 14 15  1  0
 15 16  2  0
 16 17  1  0
 17 18  2  0
 18 19  1  0
 19 20  2  0
 20 21  1  0
 20  9  1  0
 19 14  1  0
  1 22  1  0
  1 23  1  0
  1 24  1  0
  2 25  1  0
  2 26  1  0
  4 27  1  0
  4 28  1  0
  5 29  1  0
  5 30  1  0
  5 31  1  0
  6 32  1  0
  6 33  1  0
  7 34  1  0
  7 35  1  0
  8 36  1  0
  8 37  1  0
 15 38  1  0
 16 39  1  0
 17 40  1  0
 18 41  1  0
M  CHG  1   8   1
M  END
>  <UniqueID>  (14) 
14

>  <SMILES>  (14) 
CCN(CC)CC[NH2+]c1c(Br)c(Br)c2ccccc2c1Br

>  <Energy>  (14) 
53.52694512516387

>  <Genealogy>  (14) 
CCN(CC)CC[NH2+]c1c(Br)c(Br)c2ccccc2c1Br (protonated)
CCN(CC)CC[NH2+]c1c(Br)c(Br)c2ccccc2c1Br (3D coordinates assigned)
CCN(CC)CC[NH2+]c1c(Br)c(Br)c2ccccc2c1Br (optimized conformer: 53.52694512516387 kcal/mol)

>  <smiles>  (14) 
CCN(CC)CCNc1c(Br)c(Br)c2ccccc2c1Br

>  <score_type>  (14) 
oracle

>  <origin>  (14) 
adg

>  <m_score__min__energy>  (14) 
-8.7899999999999991

>  <m_primary>  (14) 
energy

$$$$
14:0
     RDKit          3D

 46 49  0  0  0  0  0  0  0  0999 V2000
   -2.1500   24.7670  -28.1680 C   0  0  0  0  0  0  0  0  0  0  0  0
   -2.7450   25.2980  -29.3450 O   0  0  0  0  0  0  0  0  0  0  0  0
   -3.5700   24.5410  -30.1830 C   0  0  0  0  0  0  0  0  0  0  0  0
   -3.0950   23.3340  -30.7040 C   0  0  0  0  0  0  0  0  0  0  0  0
   -3.9100   22.5690  -31.5550 C   0  0  0  0  0  0  0  0  0  0  0  0
   -3.4060   21.2840  -32.1030 C   0  0  0  0  0  0  0  0  0  0  0  0
   -2.0950   20.8080  -31.8050 C   0  0  0  0  0  0  0  0  0  0  0  0
   -1.6520   19.5800  -32.3290 C   0  0  0  0  0  0  0  0  0  0  0  0
   -2.5420   18.8730  -33.1260 C   0  0  0  0  0  0  0  0  0  0  0  0
   -2.3790   17.6860  -33.7330 N   0  0  0  0  0  0  0  0  0  0  0  0
   -3.5670   17.4640  -34.3560 C   0  0  0  0  0  0  0  0  0  0  0  0
   -3.8140   16.2580  -35.2210 C   0  0  0  0  0  0  0  0  0  0  0  0
   -2.5620   15.5760  -35.5380 N   0  0  0  0  0  0  0  0  0  0  0  0
   -4.4550   18.4830  -34.1700 N   0  0  0  0  0  0  0  0  0  0  0  0
   -5.8360   18.6010  -34.6420 C   0  0  0  0  0  0  0  0  0  0  0  0
   -6.7630   18.9060  -33.4940 C   0  0  0  0  0  0  0  0  0  0  0  0
   -7.2020   20.2220  -33.2710 C   0  0  0  0  0  0  0  0  0  0  0  0
   -8.0550   20.5110  -32.2020 C   0  0  0  0  0  0  0  0  0  0  0  0
   -8.4800   19.4870  -31.3500 C   0  0  0  0  0  0  0  0  0  0  0  0
   -8.0550   18.1740  -31.5680 C   0  0  0  0  0  0  0  0  0  0  0  0
   -7.2020   17.8820  -32.6380 C   0  0  0  0  0  0  0  0  0  0  0  0
   -3.7850   19.3470  -33.3860 C   0  0  0  0  0  0  0  0  0  0  0  0
   -4.2330   20.5280  -32.8950 N   0  0  0  0  0  0  0  0  0  0  0  0
   -5.2040   23.0340  -31.8480 C   0  0  0  0  0  0  0  0  0  0  0  0
   -5.6430   24.2450  -31.3060 C   0  0  0  0  0  0  0  0  0  0  0  0
   -4.8250   24.9650  -30.4950 N   0  0  0  0  0  0  0  0  0  0  0  0
   -2.6371   25.2017  -27.2827 H   0  0  0  0  0  0  0  0  0  0  0  0
   -2.2743   23.6741  -28.1553 H   0  0  0  0  0  0  0  0  0  0  0  0
   -1.0782   25.0143  -28.1553 H   0  0  0  0  0  0  0  0  0  0  0  0
   -2.0842   22.9836  -30.4480 H   0  0  0  0  0  0  0  0  0  0  0  0
   -1.4283   21.4029  -31.1635 H   0  0  0  0  0  0  0  0  0  0  0  0
   -0.6433   19.1963  -32.1163 H   0  0  0  0  0  0  0  0  0  0  0  0
   -1.5300   17.0770  -33.7310 H   0  0  0  0  0  0  0  0  0  0  0  0
   -4.4775   15.5620  -34.6868 H   0  0  0  0  0  0  0  0  0  0  0  0
   -4.2798   16.5901  -36.1605 H   0  0  0  0  0  0  0  0  0  0  0  0
   -2.2290   15.9030  -36.4750 H   0  0  0  0  0  0  0  0  0  0  0  0
   -2.7440   14.5500  -35.6080 H   0  0  0  0  0  0  0  0  0  0  0  0
   -5.8973   19.4126  -35.3820 H   0  0  0  0  0  0  0  0  0  0  0  0
   -6.1381   17.6470  -35.0987 H   0  0  0  0  0  0  0  0  0  0  0  0
   -6.8725   21.0294  -33.9415 H   0  0  0  0  0  0  0  0  0  0  0  0
   -8.3919   21.5441  -32.0310 H   0  0  0  0  0  0  0  0  0  0  0  0
   -9.1494   19.7153  -30.5075 H   0  0  0  0  0  0  0  0  0  0  0  0
   -8.3913   17.3691  -30.8979 H   0  0  0  0  0  0  0  0  0  0  0  0
   -6.8737   16.8463  -32.8098 H   0  0  0  0  0  0  0  0  0  0  0  0
   -5.8675   22.4476  -32.5006 H   0  0  0  0  0  0  0  0  0  0  0  0
   -6.6526   24.6158  -31.5365 H   0  0  0  0  0  0  0  0  0  0  0  0
  1  2  1  0
  2  3  1  0
  3  4  2  0
  4  5  1  0
  5  6  1  0
  6  7  2  0
  7  8  1  0
  8  9  2  0
  9 10  1  0
 10 11  2  0
 11 12  1  0
 12 13  1  0
 11 14  1  0
 14 15  1  0
 15 16  1  0
 16 17  2  0
 17 18  1  0
 18 19  2  0
 19 20  1  0
 20 21  2  0
 14 22  1  0
 22 23  2  0
  5 24  2  0
 24 25  1  0
 25 26  2  0
 26  3  1  0
 23  6  1  0
 22  9  1  0
 21 16  1  0
  1 27  1  0
  1 28  1  0
  1 29  1  0
  4 30  1  0
  7 31  1  0
  8 32  1  0
 10 33  1  0
 12 34  1  0
 12 35  1  0
 13 36  1  0
 13 37  1  0
 15 38  1  0
 15 39  1  0
 17 40  1  0
 18 41  1  0
 19 42  1  0
 20 43  1  0
 21 44  1  0
 24 45  1  0
 25 46  1  0
M  CHG  1  10   1
M  END
>  <UniqueID>  (15) 
15

>  <SMILES>  (15) 
COc1cc(-c2ccc3[nH+]c(CN)n(Cc4ccccc4)c3n2)ccn1

>  <Energy>  (15) 
90.14279510252706

>  <Genealogy>  (15) 
COc1cc(-c2ccc3[nH+]c(CN)n(Cc4ccccc4)c3n2)ccn1 (protonated)
COc1cc(-c2ccc3[nH+]c(CN)n(Cc4ccccc4)c3n2)ccn1 (3D coordinates assigned)
COc1cc(-c2ccc3[nH+]c(CN)n(Cc4ccccc4)c3n2)ccn1 (optimized conformer: 90.14279510252706 kcal/mol)

>  <smiles>  (15) 
COc1cc(-c2ccc3nc(CN)n(Cc4ccccc4)c3n2)ccn1

>  <score_type>  (15) 
oracle

>  <origin>  (15) 
adg

>  <m_score__min__energy>  (15) 
-7.9199999999999999

>  <m_primary>  (15) 
energy

$$$$
15:0
     RDKit          3D

 48 50  0  0  0  0  0  0  0  0999 V2000
   -0.7802   24.5604  -28.7920 H   0  0  0  0  0  0  0  0  0  0  0  0
   -1.6560   24.1900  -29.3450 C   0  0  0  0  0  0  0  0  0  0  0  0
   -2.7860   24.9270  -29.3890 N   0  0  0  0  0  0  0  0  0  0  0  0
   -3.8900   24.5170  -30.0640 C   0  0  0  0  0  0  0  0  0  0  0  0
   -5.0160   25.3480  -30.0610 C   0  0  0  0  0  0  0  0  0  0  0  0
   -4.9925   26.2983  -29.5076 H   0  0  0  0  0  0  0  0  0  0  0  0
   -6.1640   24.9800  -30.7530 C   0  0  0  0  0  0  0  0  0  0  0  0
   -7.0480   25.6345  -30.7402 H   0  0  0  0  0  0  0  0  0  0  0  0
   -6.1940   23.7830  -31.4620 C   0  0  0  0  0  0  0  0  0  0  0  0
   -7.6410   23.3370  -32.3500 Cl  0  0  0  0  0  0  0  0  0  0  0  0
   -5.0780   22.9400  -31.4760 C   0  0  0  0  0  0  0  0  0  0  0  0
   -5.1177   22.0018  -32.0489 H   0  0  0  0  0  0  0  0  0  0  0  0
   -3.8950   23.2720  -30.7650 C   0  0  0  0  0  0  0  0  0  0  0  0
   -2.7010   22.4700  -30.7050 C   0  0  0  0  0  0  0  0  0  0  0  0
   -2.5260   21.2840  -31.2330 N   0  0  0  0  0  0  0  0  0  0  0  0
   -2.0520   20.8260  -32.5310 C   0  0  0  0  0  0  0  0  0  0  0  0
   -1.1533   20.2055  -32.3993 H   0  0  0  0  0  0  0  0  0  0  0  0
   -1.7997   21.6891  -33.1645 H   0  0  0  0  0  0  0  0  0  0  0  0
   -3.1370   20.0140  -33.1790 C   0  0  0  0  0  0  0  0  0  0  0  0
   -2.8150   18.9180  -33.9950 C   0  0  0  0  0  0  0  0  0  0  0  0
   -1.7613   18.6795  -34.2021 H   0  0  0  0  0  0  0  0  0  0  0  0
   -3.8290   18.1290  -34.5450 C   0  0  0  0  0  0  0  0  0  0  0  0
   -3.5711   17.2796  -35.1946 H   0  0  0  0  0  0  0  0  0  0  0  0
   -5.1680   18.4150  -34.2730 C   0  0  0  0  0  0  0  0  0  0  0  0
   -5.9616   17.7901  -34.7086 H   0  0  0  0  0  0  0  0  0  0  0  0
   -5.5050   19.4980  -33.4450 C   0  0  0  0  0  0  0  0  0  0  0  0
   -6.9450   19.7870  -33.1070 C   0  0  0  0  0  0  0  0  0  0  0  0
   -7.4990   19.9940  -34.0345 H   0  0  0  0  0  0  0  0  0  0  0  0
   -6.9826   20.6586  -32.4370 H   0  0  0  0  0  0  0  0  0  0  0  0
   -7.5640   18.6310  -32.4190 N   0  0  0  0  0  0  0  0  0  0  0  0
   -8.9460   18.9360  -31.9660 C   0  0  0  0  0  0  0  0  0  0  0  0
   -9.0047   18.8296  -30.8727 H   0  0  0  0  0  0  0  0  0  0  0  0
   -9.6491   18.2369  -32.4423 H   0  0  0  0  0  0  0  0  0  0  0  0
   -9.3090   20.3640  -32.3570 C   0  0  0  0  0  0  0  0  0  0  0  0
   -9.4618   20.9653  -31.4486 H   0  0  0  0  0  0  0  0  0  0  0  0
   -8.4931   20.7998  -32.9522 H   0  0  0  0  0  0  0  0  0  0  0  0
  -10.2340   20.3573  -32.9522 H   0  0  0  0  0  0  0  0  0  0  0  0
   -6.7060   18.1730  -31.3040 C   0  0  0  0  0  0  0  0  0  0  0  0
   -5.9134   18.9157  -31.1300 H   0  0  0  0  0  0  0  0  0  0  0  0
   -7.3277   18.0593  -30.4037 H   0  0  0  0  0  0  0  0  0  0  0  0
   -6.0660   16.8240  -31.6320 C   0  0  0  0  0  0  0  0  0  0  0  0
   -5.8171   16.2994  -30.6977 H   0  0  0  0  0  0  0  0  0  0  0  0
   -6.7716   16.2160  -32.2171 H   0  0  0  0  0  0  0  0  0  0  0  0
   -5.1487   16.9859  -32.2171 H   0  0  0  0  0  0  0  0  0  0  0  0
   -4.4850   20.2940  -32.9020 C   0  0  0  0  0  0  0  0  0  0  0  0
   -4.7434   21.1444  -32.2539 H   0  0  0  0  0  0  0  0  0  0  0  0
   -1.5970   22.9660  -29.9960 C   0  0  0  0  0  0  0  0  0  0  0  0
   -0.6699   22.3754  -29.9554 H   0  0  0  0  0  0  0  0  0  0  0  0
  1  2  1  0
  2  3  1  0
  3  4  1  0
  4  5  2  0
  5  6  1  0
  5  7  1  0
  7  8  1  0
  7  9  2  0
  9 10  1  0
  9 11  1  0
 11 12  1  0
 11 13  2  0
 13 14  1  0
 14 15  2  0
 15 16  1  0
 16 17  1  0
 16 18  1  0
 16 19  1  0
 19 20  2  0
 20 21  1  0
 20 22  1  0
 22 23  1  0
 22 24  2  0
 24 25  1  0
 24 26  1  0
 26 27  1  0
 27 28  1  0
 27 29  1  0
 27 30  1  0
 30 31  1  0
 31 32  1  0
 31 33  1  0
 31 34  1  0
 34 35  1  0
 34 36  1  0
 34 37  1  0
 30 38  1  0
 38 39  1  0
 38 40  1  0
 38 41  1  0
 41 42  1  0
 41 43  1  0
 41 44  1  0
 26 45  2  0
 45 46  1  0
 14 47  1  0
 47 48  1  0
 47  2  2  0
 13  4  1  0
 45 19  1  0
M  CHG  1   3  -1
M  END
>  <UniqueID>  (16) 
16

>  <SMILES>  (16) 
CCN(CC)Cc1cccc(C/N=c2/cc[n-]c3ccc(Cl)cc23)c1

>  <Energy>  (16) 
65.75085469539817

>  <Genealogy>  (16) 
CCN(CC)Cc1cccc(CN=c2cc[n-]c3ccc(Cl)cc23)c1 (protonated)
CCN(CC)Cc1cccc(C/N=c2/cc[n-]c3ccc(Cl)cc23)c1 (cis-trans isomerization)
CCN(CC)Cc1cccc(C/N=c2/cc[n-]c3ccc(Cl)cc23)c1 (3D coordinates assigned)
CCN(CC)Cc1cccc(C/N=c2/cc[n-]c3ccc(Cl)cc23)c1 (optimized conformer: 65.75085469539817 kcal/mol)

>  <smiles>  (16) 
CCN(CC)Cc1cccc(CN=c2cc[nH]c3ccc(Cl)cc23)c1

>  <score_type>  (16) 
oracle

>  <origin>  (16) 
adg

>  <m_score__min__energy>  (16) 
-10.26

>  <m_primary>  (16) 
energy

$$$$
16:0
     RDKit          3D

 28 29  0  0  0  0  0  0  0  0999 V2000
   -6.1489   24.9125  -32.0984 H   0  0  0  0  0  0  0  0  0  0  0  0
   -5.9570   24.2720  -31.2250 C   0  0  0  0  0  0  0  0  0  0  0  0
   -4.6100   24.2910  -30.6140 C   0  0  0  0  0  0  0  0  0  0  0  0
   -3.8760   25.2920  -30.8290 O   0  0  0  0  0  0  0  0  0  0  0  0
   -4.0840   23.1820  -29.7810 C   0  0  0  0  0  0  0  0  0  0  0  0
   -3.6060   21.9970  -30.3690 C   0  0  0  0  0  0  0  0  0  0  0  0
   -3.6368   21.8783  -31.4621 H   0  0  0  0  0  0  0  0  0  0  0  0
   -3.0920   20.9690  -29.5730 C   0  0  0  0  0  0  0  0  0  0  0  0
   -2.7288   20.0418  -30.0402 H   0  0  0  0  0  0  0  0  0  0  0  0
   -3.0390   21.1180  -28.1840 C   0  0  0  0  0  0  0  0  0  0  0  0
   -2.3360   19.7120  -27.0980 Br  0  0  0  0  0  0  0  0  0  0  0  0
   -3.4940   22.2990  -27.5910 C   0  0  0  0  0  0  0  0  0  0  0  0
   -3.4479   22.4181  -26.4984 H   0  0  0  0  0  0  0  0  0  0  0  0
   -4.0080   23.3300  -28.3850 C   0  0  0  0  0  0  0  0  0  0  0  0
   -4.3547   24.2618  -27.9142 H   0  0  0  0  0  0  0  0  0  0  0  0
   -6.9540   23.5060  -30.7580 C   0  0  0  0  0  0  0  0  0  0  0  0
   -7.4385   23.8044  -29.8166 H   0  0  0  0  0  0  0  0  0  0  0  0
   -7.4420   22.2800  -31.4360 C   0  0  0  0  0  0  0  0  0  0  0  0
   -8.8050   21.9530  -31.3290 C   0  0  0  0  0  0  0  0  0  0  0  0
   -9.4774   22.6007  -30.7473 H   0  0  0  0  0  0  0  0  0  0  0  0
   -9.3130   20.8110  -31.9560 C   0  0  0  0  0  0  0  0  0  0  0  0
  -10.3797   20.5605  -31.8588 H   0  0  0  0  0  0  0  0  0  0  0  0
   -8.4700   19.9880  -32.7050 C   0  0  0  0  0  0  0  0  0  0  0  0
   -8.8716   19.0879  -33.1934 H   0  0  0  0  0  0  0  0  0  0  0  0
   -7.1160   20.3080  -32.8340 C   0  0  0  0  0  0  0  0  0  0  0  0
   -6.0630   19.2840  -33.7930 Cl  0  0  0  0  0  0  0  0  0  0  0  0
   -6.6020   21.4510  -32.2080 C   0  0  0  0  0  0  0  0  0  0  0  0
   -5.5371   21.7033  -32.3193 H   0  0  0  0  0  0  0  0  0  0  0  0
  1  2  1  0
  2  3  1  0
  3  4  2  0
  3  5  1  0
  5  6  2  0
  6  7  1  0
  6  8  1  0
  8  9  1  0
  8 10  2  0
 10 11  1  0
 10 12  1  0
 12 13  1  0
 12 14  2  0
 14 15  1  0
  2 16  2  0
 16 17  1  0
 16 18  1  0
 18 19  2  0
 19 20  1  0
 19 21  1  0
 21 22  1  0
 21 23  2  0
 23 24  1  0
 23 25  1  0
 25 26  1  0
 25 27  2  0
 27 28  1  0
 14  5  1  0
 27 18  1  0
M  END
>  <UniqueID>  (17) 
17

>  <SMILES>  (17) 
O=C(/C=C/c1cccc(Cl)c1)c1ccc(Br)cc1

>  <Energy>  (17) 
35.73721432234207

>  <Genealogy>  (17) 
O=C(/C=C/c1cccc(Cl)c1)c1ccc(Br)cc1 (cis-trans isomerization)
O=C(/C=C/c1cccc(Cl)c1)c1ccc(Br)cc1 (3D coordinates assigned)
O=C(/C=C/c1cccc(Cl)c1)c1ccc(Br)cc1 (optimized conformer: 35.73721432234207 kcal/mol)

>  <smiles>  (17) 
O=C(C=Cc1cccc(Cl)c1)c1ccc(Br)cc1

>  <score_type>  (17) 
oracle

>  <origin>  (17) 
adg

>  <m_score__min__energy>  (17) 
-8.6400000000000006

>  <m_primary>  (17) 
energy

$$$$
17:0
     RDKit          3D

 62 66  0  0  0  0  0  0  0  0999 V2000
   -3.4560   17.0500  -34.1430 C   0  0  0  0  0  0  0  0  0  0  0  0
   -4.1350   18.2270  -33.5870 N   0  0  0  0  0  0  0  0  0  0  0  0
   -5.5610   18.3640  -33.7420 C   0  0  0  0  0  0  0  0  0  0  0  0
   -6.3080   17.3700  -33.5290 O   0  0  0  0  0  0  0  0  0  0  0  0
   -6.1840   19.6750  -34.1450 C   0  0  0  0  0  0  0  0  0  0  0  0
   -7.0650   20.2160  -33.0390 C   0  0  0  0  0  0  0  0  0  0  0  0
   -8.2340   19.5070  -32.7140 C   0  0  0  0  0  0  0  0  0  0  0  0
   -9.0960   19.9640  -31.7190 C   0  0  0  0  0  0  0  0  0  0  0  0
   -8.8160   21.1440  -31.0300 C   0  0  0  0  0  0  0  0  0  0  0  0
   -9.6760   21.5590  -30.0630 F   0  0  0  0  0  0  0  0  0  0  0  0
   -7.6650   21.8860  -31.3400 C   0  0  0  0  0  0  0  0  0  0  0  0
   -7.3930   23.0860  -30.6600 C   0  0  0  0  0  0  0  0  0  0  0  0
   -6.2580   23.8330  -30.9730 C   0  0  0  0  0  0  0  0  0  0  0  0
   -5.3810   23.3930  -31.9630 C   0  0  0  0  0  0  0  0  0  0  0  0
   -5.6310   22.2010  -32.6450 C   0  0  0  0  0  0  0  0  0  0  0  0
   -6.7760   21.4280  -32.3520 C   0  0  0  0  0  0  0  0  0  0  0  0
   -3.3610   19.3470  -33.0970 C   0  0  0  0  0  0  0  0  0  0  0  0
   -2.3560   19.9190  -33.8980 C   0  0  0  0  0  0  0  0  0  0  0  0
   -1.6140   21.0090  -33.4400 C   0  0  0  0  0  0  0  0  0  0  0  0
   -1.8600   21.5440  -32.1750 C   0  0  0  0  0  0  0  0  0  0  0  0
   -2.8550   20.9900  -31.3540 C   0  0  0  0  0  0  0  0  0  0  0  0
   -3.1160   21.5470  -30.0120 C   0  0  0  0  0  0  0  0  0  0  0  0
   -3.1290   20.8200  -28.8740 N   0  0  0  0  0  0  0  0  0  0  0  0
   -3.3990   21.6810  -27.9080 N   0  0  0  0  0  0  0  0  0  0  0  0
   -3.5410   22.8920  -28.4750 C   0  0  0  0  0  0  0  0  0  0  0  0
   -3.8900   24.1470  -27.7330 C   0  0  0  0  0  0  0  0  0  0  0  0
   -2.6700   24.8910  -27.3540 N   0  0  0  0  0  0  0  0  0  0  0  0
   -2.7570   25.3950  -25.9570 C   0  0  0  0  0  0  0  0  0  0  0  0
   -1.3740   25.7050  -25.3720 C   0  0  0  0  0  0  0  0  0  0  0  0
   -0.5090   24.4350  -25.3050 C   0  0  0  0  0  0  0  0  0  0  0  0
   -0.8820   23.4070  -26.3870 C   0  0  0  0  0  0  0  0  0  0  0  0
   -1.4430   24.0990  -27.6380 C   0  0  0  0  0  0  0  0  0  0  0  0
   -3.3700   22.8170  -29.7710 O   0  0  0  0  0  0  0  0  0  0  0  0
   -3.6010   19.8950  -31.8200 C   0  0  0  0  0  0  0  0  0  0  0  0
   -3.0902   16.4159  -33.3220 H   0  0  0  0  0  0  0  0  0  0  0  0
   -4.1625   16.4773  -34.7618 H   0  0  0  0  0  0  0  0  0  0  0  0
   -2.6066   17.3750  -34.7618 H   0  0  0  0  0  0  0  0  0  0  0  0
   -5.3868   20.4021  -34.3589 H   0  0  0  0  0  0  0  0  0  0  0  0
   -6.8031   19.5102  -35.0392 H   0  0  0  0  0  0  0  0  0  0  0  0
   -8.4720   18.5780  -33.2527 H   0  0  0  0  0  0  0  0  0  0  0  0
  -10.0027   19.3907  -31.4755 H   0  0  0  0  0  0  0  0  0  0  0  0
   -8.0799   23.4378  -29.8761 H   0  0  0  0  0  0  0  0  0  0  0  0
   -6.0542   24.7719  -30.4373 H   0  0  0  0  0  0  0  0  0  0  0  0
   -4.4884   23.9874  -32.2078 H   0  0  0  0  0  0  0  0  0  0  0  0
   -4.9282   21.8599  -33.4194 H   0  0  0  0  0  0  0  0  0  0  0  0
   -2.1527   19.5029  -34.8958 H   0  0  0  0  0  0  0  0  0  0  0  0
   -0.8329   21.4476  -34.0783 H   0  0  0  0  0  0  0  0  0  0  0  0
   -1.2721   22.4031  -31.8197 H   0  0  0  0  0  0  0  0  0  0  0  0
   -3.4910   21.4380  -26.8970 H   0  0  0  0  0  0  0  0  0  0  0  0
   -4.5152   24.7838  -28.3761 H   0  0  0  0  0  0  0  0  0  0  0  0
   -4.4348   23.8744  -26.8171 H   0  0  0  0  0  0  0  0  0  0  0  0
   -3.3608   26.3144  -25.9479 H   0  0  0  0  0  0  0  0  0  0  0  0
   -3.2190   24.6100  -25.3403 H   0  0  0  0  0  0  0  0  0  0  0  0
   -0.8725   26.4492  -26.0081 H   0  0  0  0  0  0  0  0  0  0  0  0
   -1.5035   26.0961  -24.3521 H   0  0  0  0  0  0  0  0  0  0  0  0
    0.5452   24.7195  -25.4379 H   0  0  0  0  0  0  0  0  0  0  0  0
   -0.6823   23.9653  -24.3255 H   0  0  0  0  0  0  0  0  0  0  0  0
    0.0162   22.8360  -26.6648 H   0  0  0  0  0  0  0  0  0  0  0  0
   -1.6555   22.7383  -25.9814 H   0  0  0  0  0  0  0  0  0  0  0  0
   -0.6739   24.7740  -28.0416 H   0  0  0  0  0  0  0  0  0  0  0  0
   -1.7137   23.3137  -28.3591 H   0  0  0  0  0  0  0  0  0  0  0  0
   -4.3827   19.4592  -31.1805 H   0  0  0  0  0  0  0  0  0  0  0  0
  1  2  1  0
  2  3  1  0
  3  4  2  0
  3  5  1  0
  5  6  1  0
  6  7  2  0
  7  8  1  0
  8  9  2  0
  9 10  1  0
  9 11  1  0
 11 12  2  0
 12 13  1  0
 13 14  2  0
 14 15  1  0
 15 16  2  0
  2 17  1  0
 17 18  2  0
 18 19  1  0
 19 20  2  0
 20 21  1  0
 21 22  1  0
 22 23  2  0
 23 24  1  0
 24 25  2  0
 25 26  1  0
 26 27  1  0
 27 28  1  0
 28 29  1  0
 29 30  1  0
 30 31  1  0
 31 32  1  0
 25 33  1  0
 21 34  2  0
 16  6  1  0
 34 17  1  0
 16 11  1  0
 33 22  1  0
 32 27  1  0
  1 35  1  0
  1 36  1  0
  1 37  1  0
  5 38  1  0
  5 39  1  0
  7 40  1  0
  8 41  1  0
 12 42  1  0
 13 43  1  0
 14 44  1  0
 15 45  1  0
 18 46  1  0
 19 47  1  0
 20 48  1  0
 24 49  1  0
 26 50  1  0
 26 51  1  0
 28 52  1  0
 28 53  1  0
 29 54  1  0
 29 55  1  0
 30 56  1  0
 30 57  1  0
 31 58  1  0
 31 59  1  0
 32 60  1  0
 32 61  1  0
 34 62  1  0
M  CHG  1  24   1
M  END
>  <UniqueID>  (18) 
18

>  <SMILES>  (18) 
CN(C(=O)Cc1ccc(F)c2ccccc12)c1cccc(-c2n[nH+]c(CN3CCCCC3)o2)c1

>  <Energy>  (18) 
120.57390730324208

>  <Genealogy>  (18) 
CN(C(=O)Cc1ccc(F)c2ccccc12)c1cccc(-c2n[nH+]c(CN3CCCCC3)o2)c1 (protonated)
CN(C(=O)Cc1ccc(F)c2ccccc12)c1cccc(-c2n[nH+]c(CN3CCCCC3)o2)c1 (3D coordinates assigned)
CN(C(=O)Cc1ccc(F)c2ccccc12)c1cccc(-c2n[nH+]c(CN3CCCCC3)o2)c1 (nonaromatic ring conformer: 120.57390730324208 kcal/mol)

>  <smiles>  (18) 
CN(C(=O)Cc1ccc(F)c2ccccc12)c1cccc(-c2nnc(CN3CCCCC3)o2)c1

>  <score_type>  (18) 
oracle

>  <origin>  (18) 
adg

>  <m_score__min__energy>  (18) 
-10.91

>  <m_primary>  (18) 
energy

$$$$
18:0
     RDKit          3D

 45 47  0  0  0  0  0  0  0  0999 V2000
   -1.6030   25.4070  -27.6400 C   0  0  0  0  0  0  0  0  0  0  0  0
   -2.1170   25.5410  -28.9650 O   0  0  0  0  0  0  0  0  0  0  0  0
   -2.6910   24.4980  -29.7050 C   0  0  0  0  0  0  0  0  0  0  0  0
   -4.0200   24.5470  -30.1750 C   0  0  0  0  0  0  0  0  0  0  0  0
   -4.5530   23.4710  -30.8970 C   0  0  0  0  0  0  0  0  0  0  0  0
   -3.7720   22.3400  -31.1630 C   0  0  0  0  0  0  0  0  0  0  0  0
   -4.4690   20.9770  -32.0380 S   0  0  0  0  0  0  0  0  0  0  0  0
   -4.8680   21.4150  -33.4240 O   0  0  0  0  0  0  0  0  0  0  0  0
   -3.4450   19.8770  -32.1240 O   0  0  0  0  0  0  0  0  0  0  0  0
   -5.8670   20.4230  -31.1610 N   0  0  0  0  0  0  0  0  0  0  0  0
   -7.2420   20.6600  -31.5180 C   0  0  0  0  0  0  0  0  0  0  0  0
   -7.9140   21.8180  -31.0840 C   0  0  0  0  0  0  0  0  0  0  0  0
   -9.2250   22.0720  -31.4910 C   0  0  0  0  0  0  0  0  0  0  0  0
   -9.8860   21.1650  -32.3160 C   0  0  0  0  0  0  0  0  0  0  0  0
   -9.2510   19.9860  -32.7140 C   0  0  0  0  0  0  0  0  0  0  0  0
   -7.9330   19.7070  -32.3060 C   0  0  0  0  0  0  0  0  0  0  0  0
   -7.2810   18.4330  -32.7110 C   0  0  0  0  0  0  0  0  0  0  0  0
   -7.9660   17.3750  -32.7350 O   0  0  0  0  0  0  0  0  0  0  0  0
   -5.8830   18.3900  -33.0940 N   0  0  0  0  0  0  0  0  0  0  0  0
   -5.1580   17.3550  -32.3410 C   0  0  0  0  0  0  0  0  0  0  0  0
   -5.1710   16.0810  -33.1860 C   0  0  0  0  0  0  0  0  0  0  0  0
   -5.5330   16.5210  -34.5960 C   0  0  0  0  0  0  0  0  0  0  0  0
   -5.7370   18.0340  -34.5140 C   0  0  0  0  0  0  0  0  0  0  0  0
   -2.4420   22.2970  -30.7060 C   0  0  0  0  0  0  0  0  0  0  0  0
   -1.9130   23.3670  -29.9790 C   0  0  0  0  0  0  0  0  0  0  0  0
   -2.4025   25.6154  -26.9138 H   0  0  0  0  0  0  0  0  0  0  0  0
   -1.2318   24.3821  -27.4926 H   0  0  0  0  0  0  0  0  0  0  0  0
   -0.7787   26.1203  -27.4926 H   0  0  0  0  0  0  0  0  0  0  0  0
   -4.6401   25.4330  -29.9740 H   0  0  0  0  0  0  0  0  0  0  0  0
   -5.5915   23.5152  -31.2570 H   0  0  0  0  0  0  0  0  0  0  0  0
   -7.4020   22.5287  -30.4186 H   0  0  0  0  0  0  0  0  0  0  0  0
   -9.7359   22.9883  -31.1602 H   0  0  0  0  0  0  0  0  0  0  0  0
  -10.9106   21.3776  -32.6550 H   0  0  0  0  0  0  0  0  0  0  0  0
   -9.7865   19.2683  -33.3528 H   0  0  0  0  0  0  0  0  0  0  0  0
   -5.4300   19.3220  -32.9450 H   0  0  0  0  0  0  0  0  0  0  0  0
   -4.1215   17.6769  -32.1621 H   0  0  0  0  0  0  0  0  0  0  0  0
   -5.6349   17.1788  -31.3655 H   0  0  0  0  0  0  0  0  0  0  0  0
   -4.1793   15.6050  -33.1762 H   0  0  0  0  0  0  0  0  0  0  0  0
   -5.8885   15.3443  -32.7956 H   0  0  0  0  0  0  0  0  0  0  0  0
   -4.7180   16.2806  -35.2946 H   0  0  0  0  0  0  0  0  0  0  0  0
   -6.4336   16.0079  -34.9643 H   0  0  0  0  0  0  0  0  0  0  0  0
   -4.8670   18.5530  -34.9427 H   0  0  0  0  0  0  0  0  0  0  0  0
   -6.6316   18.3331  -35.0798 H   0  0  0  0  0  0  0  0  0  0  0  0
   -1.8164   21.4183  -30.9216 H   0  0  0  0  0  0  0  0  0  0  0  0
   -0.8748   23.3199  -29.6185 H   0  0  0  0  0  0  0  0  0  0  0  0
  1  2  1  0
  2  3  1  0
  3  4  2  0
  4  5  1  0
  5  6  2  0
  6  7  1  0
  7  8  2  0
  7  9  2  0
  7 10  1  0
 10 11  1  0
 11 12  2  0
 12 13  1  0
 13 14  2  0
 14 15  1  0
 15 16  2  0
 16 17  1  0
 17 18  2  0
 17 19  1  0
 19 20  1  0
 20 21  1  0
 21 22  1  0
 22 23  1  0
  6 24  1  0
 24 25  2  0
 25  3  1  0
 16 11  1  0
 23 19  1  0
  1 26  1  0
  1 27  1  0
  1 28  1  0
  4 29  1  0
  5 30  1  0
 12 31  1  0
 13 32  1  0
 14 33  1  0
 15 34  1  0
 19 35  1  0
 20 36  1  0
 20 37  1  0
 21 38  1  0
 21 39  1  0
 22 40  1  0
 22 41  1  0
 23 42  1  0
 23 43  1  0
 24 44  1  0
 25 45  1  0
M  CHG  2  10  -1  19   1
M  END
>  <UniqueID>  (19) 
19

>  <SMILES>  (19) 
COc1ccc(S(=O)(=O)[N-]c2ccccc2C(=O)[NH+]2CCCC2)cc1

>  <Energy>  (19) 
60.95464379243695

>  <Genealogy>  (19) 
COc1ccc(S(=O)(=O)[N-]c2ccccc2C(=O)[NH+]2CCCC2)cc1 (protonated)
COc1ccc(S(=O)(=O)[N-]c2ccccc2C(=O)[NH+]2CCCC2)cc1 (3D coordinates assigned)
COc1ccc(S(=O)(=O)[N-]c2ccccc2C(=O)[NH+]2CCCC2)cc1 (nonaromatic ring conformer: 60.95464379243695 kcal/mol)

>  <smiles>  (19) 
COc1ccc(S(=O)(=O)Nc2ccccc2C(=O)N2CCCC2)cc1

>  <score_type>  (19) 
oracle

>  <origin>  (19) 
adg

>  <m_score__min__energy>  (19) 
-7.9000000000000004

>  <m_primary>  (19) 
energy

$$$$
19:0
     RDKit          3D

 46 48  0  0  0  0  0  0  0  0999 V2000
   -5.7020   25.4710  -30.4780 C   0  0  0  0  0  0  0  0  0  0  0  0
   -5.5470   24.5760  -31.5740 O   0  0  0  0  0  0  0  0  0  0  0  0
   -6.3070   23.4110  -31.7690 C   0  0  0  0  0  0  0  0  0  0  0  0
   -7.7130   23.4310  -31.7280 C   0  0  0  0  0  0  0  0  0  0  0  0
   -8.4420   22.2620  -31.9370 C   0  0  0  0  0  0  0  0  0  0  0  0
   -7.7840   21.0600  -32.1940 C   0  0  0  0  0  0  0  0  0  0  0  0
   -6.3780   21.0120  -32.2410 C   0  0  0  0  0  0  0  0  0  0  0  0
   -5.6940   19.8140  -32.5130 O   0  0  0  0  0  0  0  0  0  0  0  0
   -5.9060   19.0020  -33.6630 C   0  0  0  0  0  0  0  0  0  0  0  0
   -5.6370   22.1930  -32.0150 C   0  0  0  0  0  0  0  0  0  0  0  0
   -4.1230   22.1810  -32.0840 C   0  0  0  0  0  0  0  0  0  0  0  0
   -3.5450   22.8860  -30.9220 N   0  0  0  0  0  0  0  0  0  0  0  0
   -4.2230   22.4850  -29.6760 C   0  0  0  0  0  0  0  0  0  0  0  0
   -3.8280   23.4570  -28.5590 C   0  0  0  0  0  0  0  0  0  0  0  0
   -2.4090   23.8230  -28.6610 N   0  0  0  0  0  0  0  0  0  0  0  0
   -1.9010   24.8910  -27.8390 C   0  0  0  0  0  0  0  0  0  0  0  0
   -2.2560   24.9960  -26.4840 C   0  0  0  0  0  0  0  0  0  0  0  0
   -1.7270   26.0350  -25.7140 C   0  0  0  0  0  0  0  0  0  0  0  0
   -0.8450   26.9490  -26.2910 C   0  0  0  0  0  0  0  0  0  0  0  0
   -0.4980   26.8060  -27.6350 C   0  0  0  0  0  0  0  0  0  0  0  0
   -1.0240   25.7910  -28.3700 N   0  0  0  0  0  0  0  0  0  0  0  0
   -1.5090   22.9500  -29.4260 C   0  0  0  0  0  0  0  0  0  0  0  0
   -2.0780   22.6650  -30.8310 C   0  0  0  0  0  0  0  0  0  0  0  0
   -5.6057   24.9147  -29.5339 H   0  0  0  0  0  0  0  0  0  0  0  0
   -4.9251   26.2482  -30.5266 H   0  0  0  0  0  0  0  0  0  0  0  0
   -6.6950   25.9417  -30.5266 H   0  0  0  0  0  0  0  0  0  0  0  0
   -8.2404   24.3757  -31.5296 H   0  0  0  0  0  0  0  0  0  0  0  0
   -9.5410   22.2876  -31.8991 H   0  0  0  0  0  0  0  0  0  0  0  0
   -8.3677   20.1427  -32.3612 H   0  0  0  0  0  0  0  0  0  0  0  0
   -6.1722   17.9823  -33.3478 H   0  0  0  0  0  0  0  0  0  0  0  0
   -6.7238   19.4250  -34.2649 H   0  0  0  0  0  0  0  0  0  0  0  0
   -4.9858   18.9713  -34.2649 H   0  0  0  0  0  0  0  0  0  0  0  0
   -3.7694   21.1394  -32.0877 H   0  0  0  0  0  0  0  0  0  0  0  0
   -3.8055   22.6934  -33.0041 H   0  0  0  0  0  0  0  0  0  0  0  0
   -5.3127   22.5149  -29.8229 H   0  0  0  0  0  0  0  0  0  0  0  0
   -3.9240   21.4624  -29.4023 H   0  0  0  0  0  0  0  0  0  0  0  0
   -4.4413   24.3666  -28.6393 H   0  0  0  0  0  0  0  0  0  0  0  0
   -3.9956   22.9654  -27.5894 H   0  0  0  0  0  0  0  0  0  0  0  0
   -2.9446   24.2664  -26.0329 H   0  0  0  0  0  0  0  0  0  0  0  0
   -2.0056   26.1322  -24.6543 H   0  0  0  0  0  0  0  0  0  0  0  0
   -0.4279   27.7729  -25.6934 H   0  0  0  0  0  0  0  0  0  0  0  0
    0.2021   27.5156  -28.1001 H   0  0  0  0  0  0  0  0  0  0  0  0
   -0.5305   23.4422  -29.5272 H   0  0  0  0  0  0  0  0  0  0  0  0
   -1.4064   21.9954  -28.8891 H   0  0  0  0  0  0  0  0  0  0  0  0
   -1.5786   23.3287  -31.5522 H   0  0  0  0  0  0  0  0  0  0  0  0
   -1.8921   21.6034  -31.0509 H   0  0  0  0  0  0  0  0  0  0  0  0
  1  2  1  0
  2  3  1  0
  3  4  2  0
  4  5  1  0
  5  6  2  0
  6  7  1  0
  7  8  1  0
  8  9  1  0
  7 10  2  0
 10 11  1  0
 11 12  1  0
 12 13  1  0
 13 14  1  0
 14 15  1  0
 15 16  1  0
 16 17  2  0
 17 18  1  0
 18 19  2  0
 19 20  1  0
 20 21  2  0
 15 22  1  0
 22 23  1  0
 10  3  1  0
 23 12  1  0
 21 16  1  0
  1 24  1  0
  1 25  1  0
  1 26  1  0
  4 27  1  0
  5 28  1  0
  6 29  1  0
  9 30  1  0
  9 31  1  0
  9 32  1  0
 11 33  1  0
 11 34  1  0
 13 35  1  0
 13 36  1  0
 14 37  1  0
 14 38  1  0
 17 39  1  0
 18 40  1  0
 19 41  1  0
 20 42  1  0
 22 43  1  0
 22 44  1  0
 23 45  1  0
 23 46  1  0
M  END
>  <UniqueID>  (20) 
20

>  <SMILES>  (20) 
COc1cccc(OC)c1CN1CCN(c2ccccn2)CC1

>  <Energy>  (20) 
56.50184467977447

>  <Genealogy>  (20) 
COc1cccc(OC)c1CN1CCN(c2ccccn2)CC1 (3D coordinates assigned)
COc1cccc(OC)c1CN1CCN(c2ccccn2)CC1 (nonaromatic ring conformer: 56.50184467977447 kcal/mol)

>  <smiles>  (20) 
COc1cccc(OC)c1CN1CCN(c2ccccn2)CC1

>  <score_type>  (20) 
oracle

>  <origin>  (20) 
adg

>  <m_score__min__energy>  (20) 
-6.9800000000000004

>  <m_primary>  (20) 
energy

$$$$
20:0
     RDKit          3D

 45 48  0  0  0  0  0  0  0  0999 V2000
   -2.5350   19.8010  -27.0620 C   0  0  0  0  0  0  0  0  0  0  0  0
   -3.0860   20.9590  -27.8930 C   0  0  0  0  0  0  0  0  0  0  0  0
   -2.0470   21.5660  -28.8490 C   0  0  0  0  0  0  0  0  0  0  0  0
   -2.5890   21.9040  -30.2540 C   0  0  0  0  0  0  0  0  0  0  0  0
   -3.9800   22.5100  -30.2440 C   0  0  0  0  0  0  0  0  0  0  0  0
   -4.9950   21.8250  -30.8540 N   0  0  0  0  0  0  0  0  0  0  0  0
   -6.2810   22.2740  -30.8210 C   0  0  0  0  0  0  0  0  0  0  0  0
   -7.3520   21.5290  -31.5050 C   0  0  0  0  0  0  0  0  0  0  0  0
   -8.6980   21.8450  -31.4900 C   0  0  0  0  0  0  0  0  0  0  0  0
   -9.3140   20.8820  -32.2610 C   0  0  0  0  0  0  0  0  0  0  0  0
   -8.3110   20.0400  -32.6970 C   0  0  0  0  0  0  0  0  0  0  0  0
   -7.1540   20.4530  -32.2310 O   0  0  0  0  0  0  0  0  0  0  0  0
   -6.5810   23.4050  -30.1360 N   0  0  0  0  0  0  0  0  0  0  0  0
   -5.6240   24.1080  -29.4840 C   0  0  0  0  0  0  0  0  0  0  0  0
   -4.2920   23.6910  -29.5230 C   0  0  0  0  0  0  0  0  0  0  0  0
   -3.2990   24.4850  -28.7750 C   0  0  0  0  0  0  0  0  0  0  0  0
   -3.1450   24.5520  -27.4060 C   0  0  0  0  0  0  0  0  0  0  0  0
   -2.0570   25.3900  -27.2380 C   0  0  0  0  0  0  0  0  0  0  0  0
   -1.4460   25.8130  -25.9560 C   0  0  0  0  0  0  0  0  0  0  0  0
   -1.2410   27.1770  -25.6860 C   0  0  0  0  0  0  0  0  0  0  0  0
   -0.6660   27.5760  -24.4780 C   0  0  0  0  0  0  0  0  0  0  0  0
   -0.2990   26.6090  -23.5430 C   0  0  0  0  0  0  0  0  0  0  0  0
   -0.5020   25.2920  -23.8110 N   0  0  0  0  0  0  0  0  0  0  0  0
   -1.0600   24.8760  -24.9790 C   0  0  0  0  0  0  0  0  0  0  0  0
   -1.6030   25.7730  -28.4490 N   0  0  0  0  0  0  0  0  0  0  0  0
   -2.3640   25.2110  -29.3410 O   0  0  0  0  0  0  0  0  0  0  0  0
   -2.6451   20.0324  -25.9923 H   0  0  0  0  0  0  0  0  0  0  0  0
   -3.0926   18.8826  -27.2978 H   0  0  0  0  0  0  0  0  0  0  0  0
   -1.4706   19.6544  -27.2978 H   0  0  0  0  0  0  0  0  0  0  0  0
   -3.9346   20.5899  -28.4876 H   0  0  0  0  0  0  0  0  0  0  0  0
   -3.3867   21.7510  -27.1913 H   0  0  0  0  0  0  0  0  0  0  0  0
   -1.6642   22.4927  -28.3966 H   0  0  0  0  0  0  0  0  0  0  0  0
   -1.2683   20.8019  -28.9900 H   0  0  0  0  0  0  0  0  0  0  0  0
   -1.9019   22.6206  -30.7277 H   0  0  0  0  0  0  0  0  0  0  0  0
   -2.6563   20.9561  -30.8081 H   0  0  0  0  0  0  0  0  0  0  0  0
   -4.7890   20.9240  -31.3390 H   0  0  0  0  0  0  0  0  0  0  0  0
   -9.1773   22.6884  -30.9714 H   0  0  0  0  0  0  0  0  0  0  0  0
  -10.3882   20.8011  -32.4837 H   0  0  0  0  0  0  0  0  0  0  0  0
   -8.4579   19.1576  -33.3371 H   0  0  0  0  0  0  0  0  0  0  0  0
   -5.8978   25.0123  -28.9208 H   0  0  0  0  0  0  0  0  0  0  0  0
   -3.7461   24.0557  -26.6299 H   0  0  0  0  0  0  0  0  0  0  0  0
   -1.5347   27.9329  -26.4292 H   0  0  0  0  0  0  0  0  0  0  0  0
   -0.5040   28.6431  -24.2659 H   0  0  0  0  0  0  0  0  0  0  0  0
    0.1550   26.9121  -22.5880 H   0  0  0  0  0  0  0  0  0  0  0  0
   -1.2106   23.8017  -25.1614 H   0  0  0  0  0  0  0  0  0  0  0  0
  1  2  1  0
  2  3  1  0
  3  4  1  0
  4  5  1  0
  5  6  2  0
  6  7  1  0
  7  8  1  0
  8  9  2  0
  9 10  1  0
 10 11  2  0
 11 12  1  0
  7 13  2  0
 13 14  1  0
 14 15  2  0
 15 16  1  0
 16 17  2  0
 17 18  1  0
 18 19  1  0
 19 20  2  0
 20 21  1  0
 21 22  2  0
 22 23  1  0
 23 24  2  0
 18 25  2  0
 25 26  1  0
 15  5  1  0
 26 16  1  0
 12  8  1  0
 24 19  1  0
  1 27  1  0
  1 28  1  0
  1 29  1  0
  2 30  1  0
  2 31  1  0
  3 32  1  0
  3 33  1  0
  4 34  1  0
  4 35  1  0
  6 36  1  0
  9 37  1  0
 10 38  1  0
 11 39  1  0
 14 40  1  0
 17 41  1  0
 20 42  1  0
 21 43  1  0
 22 44  1  0
 24 45  1  0
M  CHG  1   6   1
M  END
>  <UniqueID>  (21) 
21

>  <SMILES>  (21) 
CCCCc1[nH+]c(-c2ccco2)ncc1-c1cc(-c2cccnc2)no1

>  <Energy>  (21) 
110.7923974280781

>  <Genealogy>  (21) 
CCCCc1[nH+]c(-c2ccco2)ncc1-c1cc(-c2cccnc2)no1 (protonated)
CCCCc1[nH+]c(-c2ccco2)ncc1-c1cc(-c2cccnc2)no1 (3D coordinates assigned)
CCCCc1[nH+]c(-c2ccco2)ncc1-c1cc(-c2cccnc2)no1 (optimized conformer: 110.7923974280781 kcal/mol)

>  <smiles>  (21) 
CCCCc1nc(-c2ccco2)ncc1-c1cc(-c2cccnc2)no1

>  <score_type>  (21) 
oracle

>  <origin>  (21) 
adg

>  <m_score__min__energy>  (21) 
-7.8099999999999996

>  <m_primary>  (21) 
energy

$$$$
21:0
     RDKit          3D

 48 50  0  0  0  0  0  0  0  0999 V2000
   -2.0340   24.8930  -28.4510 C   0  0  0  0  0  0  0  0  0  0  0  0
   -2.7230   24.8280  -29.6800 O   0  0  0  0  0  0  0  0  0  0  0  0
   -2.9040   23.4800  -30.0750 C   0  0  0  0  0  0  0  0  0  0  0  0
   -4.2880   22.9750  -29.6600 C   0  0  0  0  0  0  0  0  0  0  0  0
   -5.2450   24.0780  -29.6020 N   0  0  0  0  0  0  0  0  0  0  0  0
   -5.3500   24.9220  -28.5900 N   0  0  0  0  0  0  0  0  0  0  0  0
   -6.2760   25.8170  -28.8960 N   0  0  0  0  0  0  0  0  0  0  0  0
   -6.7810   25.5870  -30.1000 N   0  0  0  0  0  0  0  0  0  0  0  0
   -6.1200   24.4980  -30.5400 C   0  0  0  0  0  0  0  0  0  0  0  0
   -6.3800   23.8480  -31.8680 C   0  0  0  0  0  0  0  0  0  0  0  0
   -6.6850   22.4150  -31.6880 N   0  0  0  0  0  0  0  0  0  0  0  0
   -5.6870   21.5660  -32.3680 C   0  0  0  0  0  0  0  0  0  0  0  0
   -5.9450   20.0790  -32.0560 C   0  0  0  0  0  0  0  0  0  0  0  0
   -7.2890   19.8620  -31.4730 N   0  0  0  0  0  0  0  0  0  0  0  0
   -7.6200   18.4230  -31.4170 C   0  0  0  0  0  0  0  0  0  0  0  0
   -6.7150   17.6340  -32.3250 C   0  0  0  0  0  0  0  0  0  0  0  0
   -6.8250   17.7700  -33.7190 C   0  0  0  0  0  0  0  0  0  0  0  0
   -6.0040   17.0200  -34.5660 C   0  0  0  0  0  0  0  0  0  0  0  0
   -5.0720   16.1280  -34.0300 C   0  0  0  0  0  0  0  0  0  0  0  0
   -4.9620   15.9800  -32.6440 C   0  0  0  0  0  0  0  0  0  0  0  0
   -4.0620   15.1090  -32.1250 F   0  0  0  0  0  0  0  0  0  0  0  0
   -5.7810   16.7280  -31.7920 C   0  0  0  0  0  0  0  0  0  0  0  0
   -8.3030   20.5930  -32.2560 C   0  0  0  0  0  0  0  0  0  0  0  0
   -8.0370   22.1120  -32.2000 C   0  0  0  0  0  0  0  0  0  0  0  0
   -2.7546   24.8250  -27.6226 H   0  0  0  0  0  0  0  0  0  0  0  0
   -1.3207   24.0582  -28.3859 H   0  0  0  0  0  0  0  0  0  0  0  0
   -1.4894   25.8465  -28.3859 H   0  0  0  0  0  0  0  0  0  0  0  0
   -2.8064   23.4080  -31.1683 H   0  0  0  0  0  0  0  0  0  0  0  0
   -2.1397   22.8616  -29.5817 H   0  0  0  0  0  0  0  0  0  0  0  0
   -4.6364   22.2330  -30.3935 H   0  0  0  0  0  0  0  0  0  0  0  0
   -4.2132   22.5192  -28.6617 H   0  0  0  0  0  0  0  0  0  0  0  0
   -6.5670   26.6010  -28.2730 H   0  0  0  0  0  0  0  0  0  0  0  0
   -7.2348   24.3425  -32.3525 H   0  0  0  0  0  0  0  0  0  0  0  0
   -5.4817   23.9458  -32.4953 H   0  0  0  0  0  0  0  0  0  0  0  0
   -5.7552   21.7256  -33.4542 H   0  0  0  0  0  0  0  0  0  0  0  0
   -4.6834   21.8372  -32.0085 H   0  0  0  0  0  0  0  0  0  0  0  0
   -5.8642   19.5008  -32.9883 H   0  0  0  0  0  0  0  0  0  0  0  0
   -5.1969   19.7505  -31.3195 H   0  0  0  0  0  0  0  0  0  0  0  0
   -7.4977   18.0641  -30.3844 H   0  0  0  0  0  0  0  0  0  0  0  0
   -8.6601   18.2859  -31.7476 H   0  0  0  0  0  0  0  0  0  0  0  0
   -7.5596   18.4690  -34.1453 H   0  0  0  0  0  0  0  0  0  0  0  0
   -6.0920   17.1324  -35.6567 H   0  0  0  0  0  0  0  0  0  0  0  0
   -4.4244   15.5418  -34.6986 H   0  0  0  0  0  0  0  0  0  0  0  0
   -5.6943   16.6072  -30.7021 H   0  0  0  0  0  0  0  0  0  0  0  0
   -8.2637   20.2569  -33.3027 H   0  0  0  0  0  0  0  0  0  0  0  0
   -9.2964   20.3897  -31.8296 H   0  0  0  0  0  0  0  0  0  0  0  0
   -8.1351   22.5280  -33.2136 H   0  0  0  0  0  0  0  0  0  0  0  0
   -8.7703   22.5619  -31.5145 H   0  0  0  0  0  0  0  0  0  0  0  0
  1  2  1  0
  2  3  1  0
  3  4  1  0
  4  5  1  0
  5  6  1  0
  6  7  2  0
  7  8  1  0
  8  9  2  0
  9 10  1  0
 10 11  1  0
 11 12  1  0
 12 13  1  0
 13 14  1  0
 14 15  1  0
 15 16  1  0
 16 17  2  0
 17 18  1  0
 18 19  2  0
 19 20  1  0
 20 21  1  0
 20 22  2  0
 14 23  1  0
 23 24  1  0
  9  5  1  0
 24 11  1  0
 22 16  1  0
  1 25  1  0
  1 26  1  0
  1 27  1  0
  3 28  1  0
  3 29  1  0
  4 30  1  0
  4 31  1  0
  7 32  1  0
 10 33  1  0
 10 34  1  0
 12 35  1  0
 12 36  1  0
 13 37  1  0
 13 38  1  0
 15 39  1  0
 15 40  1  0
 17 41  1  0
 18 42  1  0
 19 43  1  0
 22 44  1  0
 23 45  1  0
 23 46  1  0
 24 47  1  0
 24 48  1  0
M  CHG  1   7   1
M  END
>  <UniqueID>  (22) 
22

>  <SMILES>  (22) 
COCCn1n[nH+]nc1CN1CCN(Cc2cccc(F)c2)CC1

>  <Energy>  (22) 
95.53919032228475

>  <Genealogy>  (22) 
COCCn1n[nH+]nc1CN1CCN(Cc2cccc(F)c2)CC1 (protonated)
COCCn1n[nH+]nc1CN1CCN(Cc2cccc(F)c2)CC1 (3D coordinates assigned)
COCCn1n[nH+]nc1CN1CCN(Cc2cccc(F)c2)CC1 (nonaromatic ring conformer: 95.53919032228475 kcal/mol)

>  <smiles>  (22) 
COCCn1nnnc1CN1CCN(Cc2cccc(F)c2)CC1

>  <score_type>  (22) 
oracle

>  <origin>  (22) 
adg

>  <m_score__min__energy>  (22) 
-7.4000000000000004

>  <m_primary>  (22) 
energy

$$$$
22:0
     RDKit          3D

 69 72  0  0  0  0  0  0  0  0999 V2000
   -2.3160   24.3410  -29.2150 C   0  0  0  0  0  0  0  0  0  0  0  0
   -3.1490   24.7100  -30.3090 O   0  0  0  0  0  0  0  0  0  0  0  0
   -4.5250   24.4430  -30.3880 C   0  0  0  0  0  0  0  0  0  0  0  0
   -5.4850   25.2960  -29.8080 C   0  0  0  0  0  0  0  0  0  0  0  0
   -6.8480   25.0140  -29.9340 C   0  0  0  0  0  0  0  0  0  0  0  0
   -7.2680   23.8860  -30.6390 C   0  0  0  0  0  0  0  0  0  0  0  0
   -6.3270   23.0290  -31.2120 C   0  0  0  0  0  0  0  0  0  0  0  0
   -4.9530   23.2940  -31.0820 C   0  0  0  0  0  0  0  0  0  0  0  0
   -3.9920   22.3880  -31.6460 N   0  0  0  0  0  0  0  0  0  0  0  0
   -3.9860   22.1340  -33.0920 C   0  0  0  0  0  0  0  0  0  0  0  0
   -2.8960   21.1240  -33.4620 C   0  0  0  0  0  0  0  0  0  0  0  0
   -1.6260   21.5080  -32.8200 N   0  0  0  0  0  0  0  0  0  0  0  0
   -0.4550   20.7520  -33.3150 C   0  0  0  0  0  0  0  0  0  0  0  0
   -0.8050   19.3700  -33.9410 C   0  0  1  0  0  0  0  0  0  0  0  0
    0.0070   19.0730  -35.0510 O   0  0  0  0  0  0  0  0  0  0  0  0
   -0.7250   18.2420  -32.8950 C   0  0  0  0  0  0  0  0  0  0  0  0
   -0.8220   16.9500  -33.4970 O   0  0  0  0  0  0  0  0  0  0  0  0
   -1.6640   15.8960  -33.0970 C   0  0  0  0  0  0  0  0  0  0  0  0
   -1.1550   14.6490  -32.6780 C   0  0  0  0  0  0  0  0  0  0  0  0
   -2.0170   13.6250  -32.2850 C   0  0  0  0  0  0  0  0  0  0  0  0
   -3.3950   13.8220  -32.3110 C   0  0  0  0  0  0  0  0  0  0  0  0
   -3.9190   15.0480  -32.7230 C   0  0  0  0  0  0  0  0  0  0  0  0
   -3.0660   16.1000  -33.1110 C   0  0  0  0  0  0  0  0  0  0  0  0
   -3.6450   17.4050  -33.5300 C   0  0  0  0  0  0  0  0  0  0  0  0
   -3.5350   18.4070  -32.7700 O   0  0  0  0  0  0  0  0  0  0  0  0
   -4.3020   17.5750  -34.8790 C   0  0  0  0  0  0  0  0  0  0  0  0
   -5.8260   17.3690  -34.8410 C   0  0  0  0  0  0  0  0  0  0  0  0
   -6.4980   18.2290  -33.7970 C   0  0  0  0  0  0  0  0  0  0  0  0
   -6.3970   19.6290  -33.8570 C   0  0  0  0  0  0  0  0  0  0  0  0
   -7.0310   20.4220  -32.8960 C   0  0  0  0  0  0  0  0  0  0  0  0
   -7.7570   19.8250  -31.8610 C   0  0  0  0  0  0  0  0  0  0  0  0
   -8.3650   20.5970  -30.9270 F   0  0  0  0  0  0  0  0  0  0  0  0
   -7.8550   18.4340  -31.7900 C   0  0  0  0  0  0  0  0  0  0  0  0
   -7.2350   17.6370  -32.7580 C   0  0  0  0  0  0  0  0  0  0  0  0
   -1.6740   21.6050  -31.3390 C   0  0  0  0  0  0  0  0  0  0  0  0
   -3.1010   21.6230  -30.7680 C   0  0  0  0  0  0  0  0  0  0  0  0
   -2.8301   24.5687  -28.2696 H   0  0  0  0  0  0  0  0  0  0  0  0
   -2.1009   23.2634  -29.2651 H   0  0  0  0  0  0  0  0  0  0  0  0
   -1.3734   24.9058  -29.2651 H   0  0  0  0  0  0  0  0  0  0  0  0
   -5.1599   26.1885  -29.2532 H   0  0  0  0  0  0  0  0  0  0  0  0
   -7.5914   25.6831  -29.4761 H   0  0  0  0  0  0  0  0  0  0  0  0
   -8.3418   23.6717  -30.7435 H   0  0  0  0  0  0  0  0  0  0  0  0
   -6.6627   22.1414  -31.7683 H   0  0  0  0  0  0  0  0  0  0  0  0
   -4.9656   21.7335  -33.3919 H   0  0  0  0  0  0  0  0  0  0  0  0
   -3.7826   23.0799  -33.6154 H   0  0  0  0  0  0  0  0  0  0  0  0
   -3.1925   20.1227  -33.1165 H   0  0  0  0  0  0  0  0  0  0  0  0
   -2.7641   21.1133  -34.5540 H   0  0  0  0  0  0  0  0  0  0  0  0
    0.0492   21.3597  -34.0808 H   0  0  0  0  0  0  0  0  0  0  0  0
    0.1831   20.5508  -32.4419 H   0  0  0  0  0  0  0  0  0  0  0  0
   -1.8438   19.4378  -34.2965 H   0  0  0  0  0  0  0  0  0  0  0  0
    0.1650   18.0920  -35.0720 H   0  0  0  0  0  0  0  0  0  0  0  0
    0.2359   18.3161  -32.3647 H   0  0  0  0  0  0  0  0  0  0  0  0
   -1.5706   18.3595  -32.2013 H   0  0  0  0  0  0  0  0  0  0  0  0
   -0.0678   14.4824  -32.6610 H   0  0  0  0  0  0  0  0  0  0  0  0
   -1.6070   12.6595  -31.9538 H   0  0  0  0  0  0  0  0  0  0  0  0
   -4.0717   13.0100  -32.0063 H   0  0  0  0  0  0  0  0  0  0  0  0
   -5.0090   15.1945  -32.7450 H   0  0  0  0  0  0  0  0  0  0  0  0
   -4.0957   18.5925  -35.2426 H   0  0  0  0  0  0  0  0  0  0  0  0
   -3.8846   16.8056  -35.5452 H   0  0  0  0  0  0  0  0  0  0  0  0
   -6.2413   17.6221  -35.8277 H   0  0  0  0  0  0  0  0  0  0  0  0
   -6.0156   16.3170  -34.5813 H   0  0  0  0  0  0  0  0  0  0  0  0
   -5.8171   20.1027  -34.6628 H   0  0  0  0  0  0  0  0  0  0  0  0
   -6.9585   21.5181  -32.9543 H   0  0  0  0  0  0  0  0  0  0  0  0
   -8.4205   17.9643  -30.9718 H   0  0  0  0  0  0  0  0  0  0  0  0
   -7.3250   16.5419  -32.7054 H   0  0  0  0  0  0  0  0  0  0  0  0
   -1.1416   20.7400  -30.9167 H   0  0  0  0  0  0  0  0  0  0  0  0
   -1.2050   22.5611  -31.0636 H   0  0  0  0  0  0  0  0  0  0  0  0
   -3.4717   20.5906  -30.6856 H   0  0  0  0  0  0  0  0  0  0  0  0
   -3.0829   22.0978  -29.7759 H   0  0  0  0  0  0  0  0  0  0  0  0
  1  2  1  0
  2  3  1  0
  3  4  2  0
  4  5  1  0
  5  6  2  0
  6  7  1  0
  7  8  2  0
  8  9  1  0
  9 10  1  0
 10 11  1  0
 11 12  1  0
 12 13  1  0
 13 14  1  0
 14 15  1  0
 14 16  1  0
 16 17  1  0
 17 18  1  0
 18 19  2  0
 19 20  1  0
 20 21  2  0
 21 22  1  0
 22 23  2  0
 23 24  1  0
 24 25  2  0
 24 26  1  0
 26 27  1  0
 27 28  1  0
 28 29  2  0
 29 30  1  0
 30 31  2  0
 31 32  1  0
 31 33  1  0
 33 34  2  0
 12 35  1  0
 35 36  1  0
  8  3  1  0
 36  9  1  0
 23 18  1  0
 34 28  1  0
  1 37  1  0
  1 38  1  0
  1 39  1  0
  4 40  1  0
  5 41  1  0
  6 42  1  0
  7 43  1  0
 10 44  1  0
 10 45  1  0
 11 46  1  0
 11 47  1  0
 13 48  1  0
 13 49  1  0
 14 50  1  6
 15 51  1  0
 16 52  1  0
 16 53  1  0
 19 54  1  0
 20 55  1  0
 21 56  1  0
 22 57  1  0
 26 58  1  0
 26 59  1  0
 27 60  1  0
 27 61  1  0
 29 62  1  0
 30 63  1  0
 33 64  1  0
 34 65  1  0
 35 66  1  0
 35 67  1  0
 36 68  1  0
 36 69  1  0
M  END
>  <UniqueID>  (23) 
23

>  <SMILES>  (23) 
COc1ccccc1N1CCN(C[C@@H](O)COc2ccccc2C(=O)CCc2ccc(F)cc2)CC1

>  <Energy>  (23) 
84.26709509067649

>  <Genealogy>  (23) 
COc1ccccc1N1CCN(C[C@@H](O)COc2ccccc2C(=O)CCc2ccc(F)cc2)CC1 (chirality)
COc1ccccc1N1CCN(C[C@@H](O)COc2ccccc2C(=O)CCc2ccc(F)cc2)CC1 (3D coordinates assigned)
COc1ccccc1N1CCN(C[C@@H](O)COc2ccccc2C(=O)CCc2ccc(F)cc2)CC1 (nonaromatic ring conformer: 84.26709509067649 kcal/mol)

>  <smiles>  (23) 
COc1ccccc1N1CCN(CC(O)COc2ccccc2C(=O)CCc2ccc(F)cc2)CC1

>  <score_type>  (23) 
oracle

>  <origin>  (23) 
adg

>  <m_score__min__energy>  (23) 
-10.23

>  <m_primary>  (23) 
energy

$$$$
23:0
     RDKit          3D

 57 59  0  0  0  0  0  0  0  0999 V2000
    2.0210   18.9200  -30.0390 C   0  0  0  0  0  0  0  0  0  0  0  0
    1.8240   19.2900  -31.5150 C   0  0  0  0  0  0  0  0  0  0  0  0
    0.4080   19.1440  -31.9430 N   0  0  0  0  0  0  0  0  0  0  0  0
   -0.5120   19.5550  -30.8490 C   0  0  0  0  0  0  0  0  0  0  0  0
   -0.8480   21.0500  -30.9050 C   0  0  0  0  0  0  0  0  0  0  0  0
    0.1300   17.7390  -32.3510 C   0  0  0  0  0  0  0  0  0  0  0  0
   -0.4110   17.6240  -33.7890 C   0  0  0  0  0  0  0  0  0  0  0  0
   -1.0630   18.8350  -34.1850 O   0  0  0  0  0  0  0  0  0  0  0  0
   -2.3360   19.2550  -33.7730 C   0  0  0  0  0  0  0  0  0  0  0  0
   -2.6370   20.6200  -33.8480 C   0  0  0  0  0  0  0  0  0  0  0  0
   -3.8760   21.0970  -33.4150 C   0  0  0  0  0  0  0  0  0  0  0  0
   -4.8380   20.2130  -32.9030 C   0  0  0  0  0  0  0  0  0  0  0  0
   -6.1490   20.7100  -32.4390 C   0  0  0  0  0  0  0  0  0  0  0  0
   -7.6200   19.9800  -32.8180 S   0  0  0  0  0  0  0  0  0  0  0  0
   -8.5310   21.1860  -32.0870 C   0  0  0  0  0  0  0  0  0  0  0  0
  -10.0170   21.1750  -31.9730 C   0  0  0  0  0  0  0  0  0  0  0  0
   -7.7470   22.1300  -31.5250 N   0  0  0  0  0  0  0  0  0  0  0  0
   -6.4210   21.8820  -31.7130 C   0  0  0  0  0  0  0  0  0  0  0  0
   -5.3990   22.7710  -31.1160 C   0  0  0  0  0  0  0  0  0  0  0  0
   -5.6000   24.1590  -31.1110 C   0  0  0  0  0  0  0  0  0  0  0  0
   -4.6550   25.0100  -30.5290 C   0  0  0  0  0  0  0  0  0  0  0  0
   -3.4980   24.4810  -29.9280 C   0  0  0  0  0  0  0  0  0  0  0  0
   -2.5210   25.2910  -29.3310 O   0  0  0  0  0  0  0  0  0  0  0  0
   -1.7710   24.9260  -28.1760 C   0  0  0  0  0  0  0  0  0  0  0  0
   -3.3090   23.0940  -29.9160 C   0  0  0  0  0  0  0  0  0  0  0  0
   -4.2520   22.2440  -30.4980 C   0  0  0  0  0  0  0  0  0  0  0  0
   -4.5560   18.8400  -32.8690 C   0  0  0  0  0  0  0  0  0  0  0  0
   -3.3150   18.3620  -33.2980 C   0  0  0  0  0  0  0  0  0  0  0  0
    1.5992   19.7122  -29.4030 H   0  0  0  0  0  0  0  0  0  0  0  0
    1.5097   17.9692  -29.8279 H   0  0  0  0  0  0  0  0  0  0  0  0
    3.0953   18.8134  -29.8279 H   0  0  0  0  0  0  0  0  0  0  0  0
    2.1336   20.3351  -31.6632 H   0  0  0  0  0  0  0  0  0  0  0  0
    2.4339   18.6038  -32.1209 H   0  0  0  0  0  0  0  0  0  0  0  0
    0.2500   19.7750  -32.7590 H   0  0  0  0  0  0  0  0  0  0  0  0
   -1.4450   18.9788  -30.9357 H   0  0  0  0  0  0  0  0  0  0  0  0
   -0.0071   19.3582  -29.8917 H   0  0  0  0  0  0  0  0  0  0  0  0
   -0.9367   21.4445  -29.8820 H   0  0  0  0  0  0  0  0  0  0  0  0
   -0.0479   21.5860  -31.4366 H   0  0  0  0  0  0  0  0  0  0  0  0
   -1.8005   21.1921  -31.4366 H   0  0  0  0  0  0  0  0  0  0  0  0
    1.0643   17.1626  -32.2811 H   0  0  0  0  0  0  0  0  0  0  0  0
   -0.6458   17.3484  -31.6760 H   0  0  0  0  0  0  0  0  0  0  0  0
    0.4259   17.4243  -34.4743 H   0  0  0  0  0  0  0  0  0  0  0  0
   -1.1410   16.8020  -33.8264 H   0  0  0  0  0  0  0  0  0  0  0  0
   -1.8922   21.3220  -34.2509 H   0  0  0  0  0  0  0  0  0  0  0  0
   -4.0992   22.1724  -33.4757 H   0  0  0  0  0  0  0  0  0  0  0  0
  -10.3033   21.1729  -30.9109 H   0  0  0  0  0  0  0  0  0  0  0  0
  -10.4289   22.0701  -32.4620 H   0  0  0  0  0  0  0  0  0  0  0  0
  -10.4156   20.2739  -32.4620 H   0  0  0  0  0  0  0  0  0  0  0  0
   -6.5071   24.5812  -31.5680 H   0  0  0  0  0  0  0  0  0  0  0  0
   -4.8170   26.0979  -30.5412 H   0  0  0  0  0  0  0  0  0  0  0  0
   -2.3340   25.2000  -27.2716 H   0  0  0  0  0  0  0  0  0  0  0  0
   -1.5930   23.8405  -28.1823 H   0  0  0  0  0  0  0  0  0  0  0  0
   -0.8070   25.4557  -28.1823 H   0  0  0  0  0  0  0  0  0  0  0  0
   -2.4103   22.6701  -29.4442 H   0  0  0  0  0  0  0  0  0  0  0  0
   -4.0961   21.1554  -30.4726 H   0  0  0  0  0  0  0  0  0  0  0  0
   -5.3164   18.1347  -32.5023 H   0  0  0  0  0  0  0  0  0  0  0  0
   -3.1022   17.2833  -33.2644 H   0  0  0  0  0  0  0  0  0  0  0  0
  1  2  1  0
  2  3  1  0
  3  4  1  0
  4  5  1  0
  3  6  1  0
  6  7  1  0
  7  8  1  0
  8  9  1  0
  9 10  2  0
 10 11  1  0
 11 12  2  0
 12 13  1  0
 13 14  1  0
 14 15  1  0
 15 16  1  0
 15 17  2  0
 17 18  1  0
 18 19  1  0
 19 20  2  0
 20 21  1  0
 21 22  2  0
 22 23  1  0
 23 24  1  0
 22 25  1  0
 25 26  2  0
 12 27  1  0
 27 28  2  0
 28  9  1  0
 18 13  2  0
 26 19  1  0
  1 29  1  0
  1 30  1  0
  1 31  1  0
  2 32  1  0
  2 33  1  0
  3 34  1  0
  4 35  1  0
  4 36  1  0
  5 37  1  0
  5 38  1  0
  5 39  1  0
  6 40  1  0
  6 41  1  0
  7 42  1  0
  7 43  1  0
 10 44  1  0
 11 45  1  0
 16 46  1  0
 16 47  1  0
 16 48  1  0
 20 49  1  0
 21 50  1  0
 24 51  1  0
 24 52  1  0
 24 53  1  0
 25 54  1  0
 26 55  1  0
 27 56  1  0
 28 57  1  0
M  CHG  1   3   1
M  END
>  <UniqueID>  (24) 
24

>  <SMILES>  (24) 
CC[NH+](CC)CCOc1ccc(-c2sc(C)nc2-c2ccc(OC)cc2)cc1

>  <Energy>  (24) 
96.15203840051431

>  <Genealogy>  (24) 
CC[NH+](CC)CCOc1ccc(-c2sc(C)nc2-c2ccc(OC)cc2)cc1 (protonated)
CC[NH+](CC)CCOc1ccc(-c2sc(C)nc2-c2ccc(OC)cc2)cc1 (3D coordinates assigned)
CC[NH+](CC)CCOc1ccc(-c2sc(C)nc2-c2ccc(OC)cc2)cc1 (optimized conformer: 96.15203840051431 kcal/mol)

>  <smiles>  (24) 
CCN(CC)CCOc1ccc(-c2sc(C)nc2-c2ccc(OC)cc2)cc1

>  <score_type>  (24) 
oracle

>  <origin>  (24) 
adg

>  <m_score__min__energy>  (24) 
-6.6900000000000004

>  <m_primary>  (24) 
energy

$$$$
24:0
     RDKit          3D

 40 41  0  0  0  0  0  0  0  0999 V2000
   -3.4180   24.1920  -27.4940 C   0  0  0  0  0  0  0  0  0  0  0  0
   -2.4270   24.6090  -28.5750 C   0  0  0  0  0  0  0  0  0  0  0  0
   -3.1100   25.1400  -29.7110 O   0  0  0  0  0  0  0  0  0  0  0  0
   -4.2230   24.5600  -30.3410 C   0  0  0  0  0  0  0  0  0  0  0  0
   -5.5260   25.0820  -30.2240 C   0  0  0  0  0  0  0  0  0  0  0  0
   -6.5990   24.4590  -30.8700 C   0  0  0  0  0  0  0  0  0  0  0  0
   -6.3900   23.2970  -31.6390 C   0  0  0  0  0  0  0  0  0  0  0  0
   -7.4210   22.6120  -32.3050 O   0  0  0  0  0  0  0  0  0  0  0  0
   -8.3090   21.6430  -31.7420 C   0  0  0  0  0  0  0  0  0  0  0  0
   -8.0590   20.2370  -32.3190 C   0  0  0  0  0  0  0  0  0  0  0  0
   -6.6310   19.9900  -32.6680 N   0  0  0  0  0  0  0  0  0  0  0  0
   -6.4830   19.3020  -33.9790 C   0  0  0  0  0  0  0  0  0  0  0  0
   -6.4330   17.7670  -33.8430 C   0  0  0  0  0  0  0  0  0  0  0  0
   -7.1350   17.3490  -32.6920 O   0  0  0  0  0  0  0  0  0  0  0  0
   -6.4470   17.7660  -31.5260 C   0  0  0  0  0  0  0  0  0  0  0  0
   -5.9370   19.2250  -31.6070 C   0  0  0  0  0  0  0  0  0  0  0  0
   -5.0910   22.7880  -31.7560 C   0  0  0  0  0  0  0  0  0  0  0  0
   -4.0200   23.4100  -31.1110 C   0  0  0  0  0  0  0  0  0  0  0  0
   -2.9786   24.3769  -26.5027 H   0  0  0  0  0  0  0  0  0  0  0  0
   -4.3436   24.7770  -27.5997 H   0  0  0  0  0  0  0  0  0  0  0  0
   -3.6469   23.1213  -27.5997 H   0  0  0  0  0  0  0  0  0  0  0  0
   -1.7519   25.3766  -28.1687 H   0  0  0  0  0  0  0  0  0  0  0  0
   -1.8548   23.7237  -28.8895 H   0  0  0  0  0  0  0  0  0  0  0  0
   -5.7009   25.9852  -29.6209 H   0  0  0  0  0  0  0  0  0  0  0  0
   -7.6116   24.8786  -30.7771 H   0  0  0  0  0  0  0  0  0  0  0  0
   -8.1593   21.6129  -30.6526 H   0  0  0  0  0  0  0  0  0  0  0  0
   -9.3393   21.9372  -31.9907 H   0  0  0  0  0  0  0  0  0  0  0  0
   -8.3700   19.4922  -31.5716 H   0  0  0  0  0  0  0  0  0  0  0  0
   -8.6409   20.1575  -33.2491 H   0  0  0  0  0  0  0  0  0  0  0  0
   -6.1350   20.9080  -32.7280 H   0  0  0  0  0  0  0  0  0  0  0  0
   -7.3383   19.5712  -34.6162 H   0  0  0  0  0  0  0  0  0  0  0  0
   -5.5291   19.6278  -34.4195 H   0  0  0  0  0  0  0  0  0  0  0  0
   -6.8913   17.3098  -34.7323 H   0  0  0  0  0  0  0  0  0  0  0  0
   -5.3829   17.4521  -33.7528 H   0  0  0  0  0  0  0  0  0  0  0  0
   -7.1303   17.6818  -30.6681 H   0  0  0  0  0  0  0  0  0  0  0  0
   -5.5652   17.1174  -31.4176 H   0  0  0  0  0  0  0  0  0  0  0  0
   -6.1123   19.7181  -30.6394 H   0  0  0  0  0  0  0  0  0  0  0  0
   -4.8641   19.2002  -31.8484 H   0  0  0  0  0  0  0  0  0  0  0  0
   -4.9121   21.8881  -32.3628 H   0  0  0  0  0  0  0  0  0  0  0  0
   -3.0074   22.9918  -31.2093 H   0  0  0  0  0  0  0  0  0  0  0  0
  1  2  1  0
  2  3  1  0
  3  4  1  0
  4  5  2  0
  5  6  1  0
  6  7  2  0
  7  8  1  0
  8  9  1  0
  9 10  1  0
 10 11  1  0
 11 12  1  0
 12 13  1  0
 13 14  1  0
 14 15  1  0
 15 16  1  0
  7 17  1  0
 17 18  2  0
 18  4  1  0
 16 11  1  0
  1 19  1  0
  1 20  1  0
  1 21  1  0
  2 22  1  0
  2 23  1  0
  5 24  1  0
  6 25  1  0
  9 26  1  0
  9 27  1  0
 10 28  1  0
 10 29  1  0
 11 30  1  0
 12 31  1  0
 12 32  1  0
 13 33  1  0
 13 34  1  0
 15 35  1  0
 15 36  1  0
 16 37  1  0
 16 38  1  0
 17 39  1  0
 18 40  1  0
M  CHG  1  11   1
M  END
>  <UniqueID>  (25) 
25

>  <SMILES>  (25) 
CCOc1ccc(OCC[NH+]2CCOCC2)cc1

>  <Energy>  (25) 
52.05639972134706

>  <Genealogy>  (25) 
CCOc1ccc(OCC[NH+]2CCOCC2)cc1 (protonated)
CCOc1ccc(OCC[NH+]2CCOCC2)cc1 (3D coordinates assigned)
CCOc1ccc(OCC[NH+]2CCOCC2)cc1 (nonaromatic ring conformer: 52.05639972134706 kcal/mol)

>  <smiles>  (25) 
CCOc1ccc(OCCN2CCOCC2)cc1

>  <score_type>  (25) 
oracle

>  <origin>  (25) 
adg

>  <m_score__min__energy>  (25) 
-5.4100000000000001

>  <m_primary>  (25) 
energy

$$$$
25:0
     RDKit          3D

 57 59  0  0  0  0  0  0  0  0999 V2000
   -2.1180   25.1080  -26.9650 C   0  0  0  0  0  0  0  0  0  0  0  0
   -1.2330   25.8120  -27.9890 C   0  0  0  0  0  0  0  0  0  0  0  0
   -1.5840   25.4040  -29.3450 N   0  0  0  0  0  0  0  0  0  0  0  0
   -2.7600   24.6590  -29.6710 C   0  0  0  0  0  0  0  0  0  0  0  0
   -2.8140   23.4330  -29.3810 O   0  0  0  0  0  0  0  0  0  0  0  0
   -3.8650   25.2960  -30.3190 N   0  0  0  0  0  0  0  0  0  0  0  0
   -5.2540   24.9820  -30.0100 C   0  0  0  0  0  0  0  0  0  0  0  0
   -6.0610   24.9020  -31.3070 C   0  0  0  0  0  0  0  0  0  0  0  0
   -6.6090   23.5160  -31.5080 C   0  0  0  0  0  0  0  0  0  0  0  0
   -7.9750   23.2560  -31.3100 C   0  0  0  0  0  0  0  0  0  0  0  0
   -8.4880   21.9730  -31.5200 C   0  0  0  0  0  0  0  0  0  0  0  0
   -7.6460   20.9390  -31.9480 C   0  0  0  0  0  0  0  0  0  0  0  0
   -8.2840   19.3160  -32.1770 S   0  0  0  0  0  0  0  0  0  0  0  0
   -8.7010   18.7370  -30.8530 O   0  0  0  0  0  0  0  0  0  0  0  0
   -9.4900   19.3560  -33.0750 O   0  0  0  0  0  0  0  0  0  0  0  0
   -7.0620   18.3250  -32.8990 N   0  0  0  0  0  0  0  0  0  0  0  0
   -6.4700   18.5710  -34.2070 C   0  0  0  0  0  0  0  0  0  0  0  0
   -5.2650   17.6020  -34.3120 C   0  0  0  0  0  0  0  0  0  0  0  0
   -5.1860   16.9190  -33.0230 N   0  0  0  0  0  0  0  0  0  0  0  0
   -4.1760   15.9120  -32.6740 C   0  0  0  0  0  0  0  0  0  0  0  0
   -4.8380   14.5730  -32.2980 C   0  0  0  0  0  0  0  0  0  0  0  0
   -3.7960   13.5450  -31.8050 C   0  0  0  0  0  0  0  0  0  0  0  0
   -2.3940   13.7400  -32.4230 C   0  0  0  0  0  0  0  0  0  0  0  0
   -2.4720   14.3510  -33.8280 C   0  0  0  0  0  0  0  0  0  0  0  0
   -3.1430   15.7410  -33.8160 C   0  0  0  0  0  0  0  0  0  0  0  0
   -6.2570   17.3860  -32.2210 C   0  0  0  0  0  0  0  0  0  0  0  0
   -6.4650   17.0140  -31.0350 O   0  0  0  0  0  0  0  0  0  0  0  0
   -6.2830   21.1960  -32.1550 C   0  0  0  0  0  0  0  0  0  0  0  0
   -5.7700   22.4790  -31.9440 C   0  0  0  0  0  0  0  0  0  0  0  0
   -1.7859   25.3722  -25.9501 H   0  0  0  0  0  0  0  0  0  0  0  0
   -3.1622   25.4250  -27.1033 H   0  0  0  0  0  0  0  0  0  0  0  0
   -2.0440   24.0192  -27.1033 H   0  0  0  0  0  0  0  0  0  0  0  0
   -1.3665   26.8997  -27.8938 H   0  0  0  0  0  0  0  0  0  0  0  0
   -0.1853   25.5365  -27.7981 H   0  0  0  0  0  0  0  0  0  0  0  0
   -5.3036   24.0153  -29.4874 H   0  0  0  0  0  0  0  0  0  0  0  0
   -5.6728   25.7696  -29.3663 H   0  0  0  0  0  0  0  0  0  0  0  0
   -6.8958   25.6166  -31.2574 H   0  0  0  0  0  0  0  0  0  0  0  0
   -5.3989   25.1461  -32.1509 H   0  0  0  0  0  0  0  0  0  0  0  0
   -8.6449   24.0668  -30.9878 H   0  0  0  0  0  0  0  0  0  0  0  0
   -9.5563   21.7748  -31.3486 H   0  0  0  0  0  0  0  0  0  0  0  0
   -7.1998   18.3630  -35.0033 H   0  0  0  0  0  0  0  0  0  0  0  0
   -6.1582   19.6198  -34.3203 H   0  0  0  0  0  0  0  0  0  0  0  0
   -5.4284   16.8747  -35.1209 H   0  0  0  0  0  0  0  0  0  0  0  0
   -4.3334   18.1400  -34.5414 H   0  0  0  0  0  0  0  0  0  0  0  0
   -3.6294   16.2682  -31.7883 H   0  0  0  0  0  0  0  0  0  0  0  0
   -5.5722   14.7494  -31.4981 H   0  0  0  0  0  0  0  0  0  0  0  0
   -5.3268   14.1657  -33.1953 H   0  0  0  0  0  0  0  0  0  0  0  0
   -3.7097   13.6343  -30.7120 H   0  0  0  0  0  0  0  0  0  0  0  0
   -4.1506   12.5516  -32.1171 H   0  0  0  0  0  0  0  0  0  0  0  0
   -1.8091   14.4096  -31.7753 H   0  0  0  0  0  0  0  0  0  0  0  0
   -1.9156   12.7529  -32.5049 H   0  0  0  0  0  0  0  0  0  0  0  0
   -1.4526   14.4519  -34.2288 H   0  0  0  0  0  0  0  0  0  0  0  0
   -3.0814   13.6843  -34.4558 H   0  0  0  0  0  0  0  0  0  0  0  0
   -2.3610   16.5054  -33.6970 H   0  0  0  0  0  0  0  0  0  0  0  0
   -3.6864   15.8491  -34.7663 H   0  0  0  0  0  0  0  0  0  0  0  0
   -5.6158   20.3858  -32.4843 H   0  0  0  0  0  0  0  0  0  0  0  0
   -4.7025   22.6770  -32.1207 H   0  0  0  0  0  0  0  0  0  0  0  0
  1  2  1  0
  2  3  1  0
  3  4  1  0
  4  5  2  0
  4  6  1  0
  6  7  1  0
  7  8  1  0
  8  9  1  0
  9 10  2  0
 10 11  1  0
 11 12  2  0
 12 13  1  0
 13 14  2  0
 13 15  2  0
 13 16  1  0
 16 17  1  0
 17 18  1  0
 18 19  1  0
 19 20  1  0
 20 21  1  0
 21 22  1  0
 22 23  1  0
 23 24  1  0
 24 25  1  0
 19 26  1  0
 26 27  2  0
 12 28  1  0
 28 29  2  0
 29  9  1  0
 26 16  1  0
 25 20  1  0
  1 30  1  0
  1 31  1  0
  1 32  1  0
  2 33  1  0
  2 34  1  0
  7 35  1  0
  7 36  1  0
  8 37  1  0
  8 38  1  0
 10 39  1  0
 11 40  1  0
 17 41  1  0
 17 42  1  0
 18 43  1  0
 18 44  1  0
 20 45  1  0
 21 46  1  0
 21 47  1  0
 22 48  1  0
 22 49  1  0
 23 50  1  0
 23 51  1  0
 24 52  1  0
 24 53  1  0
 25 54  1  0
 25 55  1  0
 28 56  1  0
 29 57  1  0
M  CHG  2   3  -1   6  -1
M  END
>  <UniqueID>  (26) 
26

>  <SMILES>  (26) 
CC[N-]C(=O)[N-]CCc1ccc(S(=O)(=O)N2CCN(C3CCCCC3)C2=O)cc1

>  <Energy>  (26) 
61.50511440737484

>  <Genealogy>  (26) 
CC[N-]C(=O)[N-]CCc1ccc(S(=O)(=O)N2CCN(C3CCCCC3)C2=O)cc1 (protonated)
CC[N-]C(=O)[N-]CCc1ccc(S(=O)(=O)N2CCN(C3CCCCC3)C2=O)cc1 (3D coordinates assigned)
CC[N-]C(=O)[N-]CCc1ccc(S(=O)(=O)N2CCN(C3CCCCC3)C2=O)cc1 (nonaromatic ring conformer: 61.50511440737484 kcal/mol)

>  <smiles>  (26) 
CCNC(=O)NCCc1ccc(S(=O)(=O)N2CCN(C3CCCCC3)C2=O)cc1

>  <score_type>  (26) 
oracle

>  <origin>  (26) 
adg

>  <m_score__min__energy>  (26) 
-12.57

>  <m_primary>  (26) 
energy

$$$$
26:0
     RDKit          3D

 43 46  0  0  0  0  0  0  0  0999 V2000
   -0.3620   30.2910  -24.8920 C   0  0  0  0  0  0  0  0  0  0  0  0
    0.1060   28.9740  -24.6210 O   0  0  0  0  0  0  0  0  0  0  0  0
   -0.4130   27.8110  -25.2110 C   0  0  0  0  0  0  0  0  0  0  0  0
   -1.0570   26.8090  -24.4630 C   0  0  0  0  0  0  0  0  0  0  0  0
   -1.5560   25.6660  -25.0970 C   0  0  0  0  0  0  0  0  0  0  0  0
   -1.4160   25.4990  -26.4870 C   0  0  0  0  0  0  0  0  0  0  0  0
   -1.9480   24.2980  -27.1800 C   0  0  0  0  0  0  0  0  0  0  0  0
   -1.3410   23.0390  -27.0470 C   0  0  0  0  0  0  0  0  0  0  0  0
   -1.8770   21.9250  -27.7130 C   0  0  0  0  0  0  0  0  0  0  0  0
   -1.2540   20.5840  -27.5690 C   0  0  0  0  0  0  0  0  0  0  0  0
    0.0900   20.3090  -27.8910 C   0  0  0  0  0  0  0  0  0  0  0  0
    0.4580   18.9890  -27.6800 C   0  0  0  0  0  0  0  0  0  0  0  0
   -0.8780   18.1600  -27.0950 S   0  0  0  0  0  0  0  0  0  0  0  0
   -1.9390   19.4620  -27.1000 C   0  0  0  0  0  0  0  0  0  0  0  0
   -3.0140   22.1010  -28.5180 C   0  0  0  0  0  0  0  0  0  0  0  0
   -3.5810   23.3760  -28.6600 C   0  0  0  0  0  0  0  0  0  0  0  0
   -4.7860   23.5980  -29.4940 C   0  0  0  0  0  0  0  0  0  0  0  0
   -5.8730   22.7150  -29.3710 C   0  0  0  0  0  0  0  0  0  0  0  0
   -7.0220   22.8920  -30.1470 C   0  0  0  0  0  0  0  0  0  0  0  0
   -7.1020   23.9560  -31.0460 C   0  0  0  0  0  0  0  0  0  0  0  0
   -6.0390   24.8520  -31.1650 C   0  0  0  0  0  0  0  0  0  0  0  0
   -4.8830   24.6880  -30.3870 C   0  0  0  0  0  0  0  0  0  0  0  0
   -3.8490   25.6200  -30.4850 O   0  0  0  0  0  0  0  0  0  0  0  0
   -3.0400   24.4240  -27.9830 N   0  0  0  0  0  0  0  0  0  0  0  0
   -0.7820   26.5120  -27.2290 C   0  0  0  0  0  0  0  0  0  0  0  0
   -0.2830   27.6530  -26.5930 C   0  0  0  0  0  0  0  0  0  0  0  0
   -0.5486   30.8162  -23.9437 H   0  0  0  0  0  0  0  0  0  0  0  0
    0.3968   30.8379  -25.4709 H   0  0  0  0  0  0  0  0  0  0  0  0
   -1.2958   30.2364  -25.4709 H   0  0  0  0  0  0  0  0  0  0  0  0
   -1.1688   26.9245  -23.3748 H   0  0  0  0  0  0  0  0  0  0  0  0
   -2.0625   24.8908  -24.5033 H   0  0  0  0  0  0  0  0  0  0  0  0
   -0.4443   22.9251  -26.4202 H   0  0  0  0  0  0  0  0  0  0  0  0
    0.7836   21.0717  -28.2746 H   0  0  0  0  0  0  0  0  0  0  0  0
    1.4538   18.5596  -27.8643 H   0  0  0  0  0  0  0  0  0  0  0  0
   -2.9932   19.4351  -26.7872 H   0  0  0  0  0  0  0  0  0  0  0  0
   -3.4597   21.2395  -29.0369 H   0  0  0  0  0  0  0  0  0  0  0  0
   -5.8189   21.8785  -28.6587 H   0  0  0  0  0  0  0  0  0  0  0  0
   -7.8644   22.1914  -30.0488 H   0  0  0  0  0  0  0  0  0  0  0  0
   -8.0040   24.0886  -31.6615 H   0  0  0  0  0  0  0  0  0  0  0  0
   -6.1077   25.6914  -31.8726 H   0  0  0  0  0  0  0  0  0  0  0  0
   -3.1090   25.6700  -29.7940 H   0  0  0  0  0  0  0  0  0  0  0  0
   -0.6779   26.4057  -28.3189 H   0  0  0  0  0  0  0  0  0  0  0  0
    0.2164   28.4332  -27.1862 H   0  0  0  0  0  0  0  0  0  0  0  0
  1  2  1  0
  2  3  1  0
  3  4  2  0
  4  5  1  0
  5  6  2  0
  6  7  1  0
  7  8  2  0
  8  9  1  0
  9 10  1  0
 10 11  1  0
 11 12  2  0
 12 13  1  0
 13 14  1  0
  9 15  2  0
 15 16  1  0
 16 17  1  0
 17 18  2  0
 18 19  1  0
 19 20  2  0
 20 21  1  0
 21 22  2  0
 22 23  1  0
 16 24  2  0
  6 25  1  0
 25 26  2  0
 26  3  1  0
 24  7  1  0
 14 10  2  0
 22 17  1  0
  1 27  1  0
  1 28  1  0
  1 29  1  0
  4 30  1  0
  5 31  1  0
  8 32  1  0
 11 33  1  0
 12 34  1  0
 14 35  1  0
 15 36  1  0
 18 37  1  0
 19 38  1  0
 20 39  1  0
 21 40  1  0
 23 41  1  0
 25 42  1  0
 26 43  1  0
M  END
>  <UniqueID>  (27) 
27

>  <SMILES>  (27) 
COc1ccc(-c2cc(-c3ccsc3)cc(-c3ccccc3O)n2)cc1

>  <Energy>  (27) 
85.89773591784576

>  <Genealogy>  (27) 
COc1ccc(-c2cc(-c3ccsc3)cc(-c3ccccc3O)n2)cc1 (3D coordinates assigned)
COc1ccc(-c2cc(-c3ccsc3)cc(-c3ccccc3O)n2)cc1 (optimized conformer: 85.89773591784576 kcal/mol)

>  <smiles>  (27) 
COc1ccc(-c2cc(-c3ccsc3)cc(-c3ccccc3O)n2)cc1

>  <score_type>  (27) 
oracle

>  <origin>  (27) 
adg

>  <m_score__min__energy>  (27) 
-9.0800000000000001

>  <m_primary>  (27) 
energy

$$$$
27:0
     RDKit          3D

 29 30  0  0  0  0  0  0  0  0999 V2000
   -3.9380   25.6750  -31.6160 H   0  0  0  0  0  0  0  0  0  0  0  0
   -4.1980   25.1580  -30.7450 N   0  0  0  0  0  0  0  0  0  0  0  0
   -5.3170   24.5140  -30.6330 C   0  0  0  0  0  0  0  0  0  0  0  0
   -5.4620   23.2130  -31.3250 C   0  0  0  0  0  0  0  0  0  0  0  0
   -4.4170   22.5160  -31.9170 C   0  0  0  0  0  0  0  0  0  0  0  0
   -3.3570   22.8099  -31.9225 H   0  0  0  0  0  0  0  0  0  0  0  0
   -4.9570   21.3840  -32.4980 C   0  0  0  0  0  0  0  0  0  0  0  0
   -4.3901   20.6310  -33.0650 H   0  0  0  0  0  0  0  0  0  0  0  0
   -6.2850   21.3430  -32.2640 N   0  0  0  0  0  0  0  0  0  0  0  0
   -7.2140   20.4160  -32.6560 C   0  0  0  0  0  0  0  0  0  0  0  0
   -6.8610   19.1950  -33.4080 C   0  0  0  0  0  0  0  0  0  0  0  0
   -6.5294   19.2911  -34.4524 H   0  0  0  0  0  0  0  0  0  0  0  0
   -6.9310   17.9770  -32.8620 C   0  0  0  0  0  0  0  0  0  0  0  0
   -7.3032   17.1336  -33.4622 H   0  0  0  0  0  0  0  0  0  0  0  0
   -6.5100   17.7460  -31.4460 C   0  0  0  0  0  0  0  0  0  0  0  0
   -7.2678   18.1618  -30.7657 H   0  0  0  0  0  0  0  0  0  0  0  0
   -6.4083   16.6657  -31.2653 H   0  0  0  0  0  0  0  0  0  0  0  0
   -5.5442   18.2405  -31.2653 H   0  0  0  0  0  0  0  0  0  0  0  0
   -8.5610   20.6510  -32.3330 C   0  0  0  0  0  0  0  0  0  0  0  0
   -9.3398   19.9510  -32.6699 H   0  0  0  0  0  0  0  0  0  0  0  0
   -8.9090   21.7820  -31.5790 C   0  0  0  0  0  0  0  0  0  0  0  0
   -9.9604   21.9542  -31.3054 H   0  0  0  0  0  0  0  0  0  0  0  0
   -7.9270   22.6920  -31.1730 C   0  0  0  0  0  0  0  0  0  0  0  0
   -8.1873   23.5703  -30.5640 H   0  0  0  0  0  0  0  0  0  0  0  0
   -6.6050   22.4540  -31.5630 C   0  0  0  0  0  0  0  0  0  0  0  0
   -6.4350   25.1090  -29.8250 C   0  0  0  0  0  0  0  0  0  0  0  0
   -6.2155   24.9922  -28.7535 H   0  0  0  0  0  0  0  0  0  0  0  0
   -6.5321   26.1781  -30.0649 H   0  0  0  0  0  0  0  0  0  0  0  0
   -7.3760   24.5924  -30.0649 H   0  0  0  0  0  0  0  0  0  0  0  0
  1  2  1  0
  2  3  2  0
  3  4  1  0
  4  5  1  0
  5  6  1  0
  5  7  2  0
  7  8  1  0
  7  9  1  0
  9 10  1  0
 10 11  1  0
 11 12  1  0
 11 13  2  0
 13 14  1  0
 13 15  1  0
 15 16  1  0
 15 17  1  0
 15 18  1  0
 10 19  2  0
 19 20  1  0
 19 21  1  0
 21 22  1  0
 21 23  2  0
 23 24  1  0
 23 25  1  0
  3 26  1  0
 26 27  1  0
 26 28  1  0
 26 29  1  0
 25  4  2  0
 25  9  1  0
M  END
>  <UniqueID>  (28) 
28

>  <SMILES>  (28) 
[H]/N=C(\C)c1ccn2c(/C=C/C)cccc12

>  <Energy>  (28) 
64.55534548503547

>  <Genealogy>  (28) 
[H]/N=C(\C)c1ccn2c(/C=C/C)cccc12 (cis-trans isomerization)
[H]/N=C(\C)c1ccn2c(/C=C/C)cccc12 (3D coordinates assigned)
[H]/N=C(\C)c1ccn2c(/C=C/C)cccc12 (optimized conformer: 64.55534548503547 kcal/mol)

>  <smiles>  (28) 
CC=Cc1cccc2c(C(C)=N)ccn12

>  <score_type>  (28) 
oracle

>  <origin>  (28) 
adg

>  <m_score__min__energy>  (28) 
-7.6200000000000001

>  <m_primary>  (28) 
energy

$$$$
28:0
     RDKit          3D

 30 30  0  0  0  0  0  0  0  0999 V2000
   -5.7663   19.6239  -31.6240 H   0  0  0  0  0  0  0  0  0  0  0  0
   -6.0790   20.4300  -32.3040 C   0  0  0  0  0  0  0  0  0  0  0  0
   -5.1950   21.6040  -32.4650 C   0  0  0  0  0  0  0  0  0  0  0  0
   -4.3120   21.5610  -33.3630 O   0  0  0  0  0  0  0  0  0  0  0  0
   -5.2890   22.8120  -31.6090 C   0  0  0  0  0  0  0  0  0  0  0  0
   -6.5410   23.3970  -31.3620 C   0  0  0  0  0  0  0  0  0  0  0  0
   -7.4483   22.9503  -31.7947 H   0  0  0  0  0  0  0  0  0  0  0  0
   -6.6410   24.5430  -30.5700 C   0  0  0  0  0  0  0  0  0  0  0  0
   -7.6269   24.9894  -30.3731 H   0  0  0  0  0  0  0  0  0  0  0  0
   -5.4920   25.1240  -30.0270 C   0  0  0  0  0  0  0  0  0  0  0  0
   -5.5785   26.0235  -29.3998 H   0  0  0  0  0  0  0  0  0  0  0  0
   -4.2330   24.5690  -30.2760 C   0  0  0  0  0  0  0  0  0  0  0  0
   -3.1090   25.1920  -29.7130 O   0  0  0  0  0  0  0  0  0  0  0  0
   -2.2860   24.6100  -28.7060 C   0  0  0  0  0  0  0  0  0  0  0  0
   -2.6727   24.8834  -27.7132 H   0  0  0  0  0  0  0  0  0  0  0  0
   -2.2936   23.5153  -28.8137 H   0  0  0  0  0  0  0  0  0  0  0  0
   -1.2564   24.9819  -28.8137 H   0  0  0  0  0  0  0  0  0  0  0  0
   -4.1340   23.4150  -31.0780 C   0  0  0  0  0  0  0  0  0  0  0  0
   -3.1455   22.9818  -31.2908 H   0  0  0  0  0  0  0  0  0  0  0  0
   -7.2470   20.3070  -32.9530 C   0  0  0  0  0  0  0  0  0  0  0  0
   -7.2438   20.3564  -34.0519 H   0  0  0  0  0  0  0  0  0  0  0  0
   -8.5070   20.1130  -32.2770 N   0  0  0  0  0  0  0  0  0  0  0  0
   -9.4040   21.2310  -31.9650 C   0  0  0  0  0  0  0  0  0  0  0  0
   -9.4902   21.3384  -30.8737 H   0  0  0  0  0  0  0  0  0  0  0  0
   -8.9967   22.1585  -32.3937 H   0  0  0  0  0  0  0  0  0  0  0  0
  -10.3978   21.0344  -32.3937 H   0  0  0  0  0  0  0  0  0  0  0  0
   -8.8810   18.7430  -31.9210 C   0  0  0  0  0  0  0  0  0  0  0  0
   -8.9083   18.6432  -30.8259 H   0  0  0  0  0  0  0  0  0  0  0  0
   -9.8743   18.5148  -32.3348 H   0  0  0  0  0  0  0  0  0  0  0  0
   -8.1414   18.0417  -32.3348 H   0  0  0  0  0  0  0  0  0  0  0  0
  1  2  1  0
  2  3  1  0
  3  4  2  0
  3  5  1  0
  5  6  2  0
  6  7  1  0
  6  8  1  0
  8  9  1  0
  8 10  2  0
 10 11  1  0
 10 12  1  0
 12 13  1  0
 13 14  1  0
 14 15  1  0
 14 16  1  0
 14 17  1  0
 12 18  2  0
 18 19  1  0
  2 20  2  0
 20 21  1  0
 20 22  1  0
 22 23  1  0
 23 24  1  0
 23 25  1  0
 23 26  1  0
 22 27  1  0
 27 28  1  0
 27 29  1  0
 27 30  1  0
 18  5  1  0
M  END
>  <UniqueID>  (29) 
29

>  <SMILES>  (29) 
COc1cccc(C(=O)/C=C/N(C)C)c1

>  <Energy>  (29) 
29.11716728763255

>  <Genealogy>  (29) 
COc1cccc(C(=O)/C=C/N(C)C)c1 (cis-trans isomerization)
COc1cccc(C(=O)/C=C/N(C)C)c1 (3D coordinates assigned)
COc1cccc(C(=O)/C=C/N(C)C)c1 (optimized conformer: 29.11716728763255 kcal/mol)

>  <smiles>  (29) 
COc1cccc(C(=O)C=CN(C)C)c1

>  <score_type>  (29) 
oracle

>  <origin>  (29) 
adg

>  <m_score__min__energy>  (29) 
-5.8899999999999997

>  <m_primary>  (29) 
energy

$$$$
29:0
     RDKit          3D

 44 47  0  0  0  0  0  0  0  0999 V2000
   -7.5760   17.9370  -32.3600 C   0  0  0  0  0  0  0  0  0  0  0  0
   -7.8430   19.3990  -32.1610 C   0  0  0  0  0  0  0  0  0  0  0  0
   -9.1120   19.8360  -31.7510 C   0  0  0  0  0  0  0  0  0  0  0  0
   -9.3680   21.2000  -31.5930 C   0  0  0  0  0  0  0  0  0  0  0  0
   -8.3690   22.1380  -31.8630 C   0  0  0  0  0  0  0  0  0  0  0  0
   -7.1040   21.7180  -32.3110 C   0  0  0  0  0  0  0  0  0  0  0  0
   -6.0540   22.6650  -32.5840 N   0  0  0  0  0  0  0  0  0  0  0  0
   -4.8060   22.6960  -31.8760 C   0  0  0  0  0  0  0  0  0  0  0  0
   -3.7390   21.8470  -32.2470 C   0  0  0  0  0  0  0  0  0  0  0  0
   -2.5410   21.8280  -31.5030 C   0  0  0  0  0  0  0  0  0  0  0  0
   -2.3850   22.6530  -30.3780 C   0  0  0  0  0  0  0  0  0  0  0  0
   -3.4430   23.4990  -30.0350 C   0  0  0  0  0  0  0  0  0  0  0  0
   -4.6210   23.5070  -30.7450 C   0  0  0  0  0  0  0  0  0  0  0  0
   -5.4270   24.4310  -30.0940 C   0  0  0  0  0  0  0  0  0  0  0  0
   -6.8200   24.8460  -30.4460 C   0  0  0  0  0  0  0  0  0  0  0  0
   -4.7420   24.9160  -29.0330 N   0  0  0  0  0  0  0  0  0  0  0  0
   -3.5360   24.3630  -29.0000 N   0  0  0  0  0  0  0  0  0  0  0  0
   -2.5370   24.6770  -28.0150 C   0  0  0  0  0  0  0  0  0  0  0  0
   -1.1830   24.7890  -28.3740 C   0  0  0  0  0  0  0  0  0  0  0  0
   -0.2230   25.1160  -27.4130 C   0  0  0  0  0  0  0  0  0  0  0  0
   -0.6080   25.3450  -26.0890 C   0  0  0  0  0  0  0  0  0  0  0  0
   -1.9540   25.2540  -25.7260 C   0  0  0  0  0  0  0  0  0  0  0  0
   -2.9170   24.9270  -26.6870 C   0  0  0  0  0  0  0  0  0  0  0  0
   -6.8470   20.3450  -32.4490 C   0  0  0  0  0  0  0  0  0  0  0  0
   -7.4860   17.4441  -31.3807 H   0  0  0  0  0  0  0  0  0  0  0  0
   -8.4066   17.4858  -32.9226 H   0  0  0  0  0  0  0  0  0  0  0  0
   -6.6395   17.8085  -32.9226 H   0  0  0  0  0  0  0  0  0  0  0  0
   -9.9074   19.1022  -31.5535 H   0  0  0  0  0  0  0  0  0  0  0  0
  -10.3592   21.5364  -31.2550 H   0  0  0  0  0  0  0  0  0  0  0  0
   -8.5727   23.2101  -31.7246 H   0  0  0  0  0  0  0  0  0  0  0  0
   -6.2340   23.4140  -33.2880 H   0  0  0  0  0  0  0  0  0  0  0  0
   -3.8440   21.1937  -33.1258 H   0  0  0  0  0  0  0  0  0  0  0  0
   -1.7213   21.1605  -31.8071 H   0  0  0  0  0  0  0  0  0  0  0  0
   -1.4588   22.6341  -29.7849 H   0  0  0  0  0  0  0  0  0  0  0  0
   -7.3955   25.0174  -29.5243 H   0  0  0  0  0  0  0  0  0  0  0  0
   -6.7881   25.7737  -31.0363 H   0  0  0  0  0  0  0  0  0  0  0  0
   -7.3010   24.0521  -31.0363 H   0  0  0  0  0  0  0  0  0  0  0  0
   -5.0880   25.6330  -28.3550 H   0  0  0  0  0  0  0  0  0  0  0  0
   -0.8774   24.6184  -29.4168 H   0  0  0  0  0  0  0  0  0  0  0  0
    0.8365   25.1933  -27.6985 H   0  0  0  0  0  0  0  0  0  0  0  0
    0.1494   25.5971  -25.3322 H   0  0  0  0  0  0  0  0  0  0  0  0
   -2.2567   25.4394  -24.6848 H   0  0  0  0  0  0  0  0  0  0  0  0
   -3.9772   24.8655  -26.4004 H   0  0  0  0  0  0  0  0  0  0  0  0
   -5.8558   20.0073  -32.7860 H   0  0  0  0  0  0  0  0  0  0  0  0
  1  2  1  0
  2  3  2  0
  3  4  1  0
  4  5  2  0
  5  6  1  0
  6  7  1  0
  7  8  1  0
  8  9  2  0
  9 10  1  0
 10 11  2  0
 11 12  1  0
 12 13  2  0
 13 14  1  0
 14 15  1  0
 14 16  2  0
 16 17  1  0
 17 18  1  0
 18 19  2  0
 19 20  1  0
 20 21  2  0
 21 22  1  0
 22 23  2  0
  6 24  2  0
 24  2  1  0
 13  8  1  0
 23 18  1  0
 17 12  1  0
  1 25  1  0
  1 26  1  0
  1 27  1  0
  3 28  1  0
  4 29  1  0
  5 30  1  0
  7 31  1  0
  9 32  1  0
 10 33  1  0
 11 34  1  0
 15 35  1  0
 15 36  1  0
 15 37  1  0
 16 38  1  0
 19 39  1  0
 20 40  1  0
 21 41  1  0
 22 42  1  0
 23 43  1  0
 24 44  1  0
M  CHG  1  16   1
M  END
>  <UniqueID>  (30) 
30

>  <SMILES>  (30) 
Cc1cccc(Nc2cccc3c2c(C)[nH+]n3-c2ccccc2)c1

>  <Energy>  (30) 
97.69139338706796

>  <Genealogy>  (30) 
Cc1cccc(Nc2cccc3c2c(C)[nH+]n3-c2ccccc2)c1 (protonated)
Cc1cccc(Nc2cccc3c2c(C)[nH+]n3-c2ccccc2)c1 (3D coordinates assigned)
Cc1cccc(Nc2cccc3c2c(C)[nH+]n3-c2ccccc2)c1 (optimized conformer: 97.69139338706796 kcal/mol)

>  <smiles>  (30) 
Cc1cccc(Nc2cccc3c2c(C)nn3-c2ccccc2)c1

>  <score_type>  (30) 
oracle

>  <origin>  (30) 
adg

>  <m_score__min__energy>  (30) 
-9.0099999999999998

>  <m_primary>  (30) 
energy

$$$$
30:0
     RDKit          3D

 27 28  0  0  0  0  0  0  0  0999 V2000
   -5.9080   18.3830  -35.3640 N   0  0  0  0  0  0  0  0  0  0  0  0
   -6.0110   17.9490  -34.0010 C   0  0  0  0  0  0  0  0  0  0  0  0
   -5.2120   16.8740  -33.5780 C   0  0  0  0  0  0  0  0  0  0  0  0
   -5.2670   16.4190  -32.2610 C   0  0  0  0  0  0  0  0  0  0  0  0
   -6.1210   17.0320  -31.3460 C   0  0  0  0  0  0  0  0  0  0  0  0
   -6.9250   18.1000  -31.7470 C   0  0  0  0  0  0  0  0  0  0  0  0
   -6.8870   18.5770  -33.0730 C   0  0  0  0  0  0  0  0  0  0  0  0
   -7.7600   19.6660  -33.4580 N   0  0  0  0  0  0  0  0  0  0  0  0
   -7.5910   20.7980  -32.5750 C   0  0  0  0  0  0  0  0  0  0  0  0
   -8.6090   21.1610  -31.6720 C   0  0  0  0  0  0  0  0  0  0  0  0
   -8.4510   22.2700  -30.8350 C   0  0  0  0  0  0  0  0  0  0  0  0
   -7.2860   23.0380  -30.9010 C   0  0  0  0  0  0  0  0  0  0  0  0
   -6.2800   22.7050  -31.8100 C   0  0  0  0  0  0  0  0  0  0  0  0
   -6.4320   21.5970  -32.6500 C   0  0  0  0  0  0  0  0  0  0  0  0
   -6.6810   18.9320  -35.8020 H   0  0  0  0  0  0  0  0  0  0  0  0
   -5.0950   18.1510  -35.9700 H   0  0  0  0  0  0  0  0  0  0  0  0
   -4.5349   16.3853  -34.2941 H   0  0  0  0  0  0  0  0  0  0  0  0
   -4.6359   15.5756  -31.9441 H   0  0  0  0  0  0  0  0  0  0  0  0
   -6.1614   16.6737  -30.3068 H   0  0  0  0  0  0  0  0  0  0  0  0
   -7.5976   18.5761  -31.0183 H   0  0  0  0  0  0  0  0  0  0  0  0
   -8.7500   19.3340  -33.4780 H   0  0  0  0  0  0  0  0  0  0  0  0
   -7.5440   19.9810  -34.4330 H   0  0  0  0  0  0  0  0  0  0  0  0
   -9.5344   20.5683  -31.6248 H   0  0  0  0  0  0  0  0  0  0  0  0
   -9.2456   22.5381  -30.1232 H   0  0  0  0  0  0  0  0  0  0  0  0
   -7.1612   23.9056  -30.2364 H   0  0  0  0  0  0  0  0  0  0  0  0
   -5.3663   23.3150  -31.8657 H   0  0  0  0  0  0  0  0  0  0  0  0
   -5.6421   21.3475  -33.3738 H   0  0  0  0  0  0  0  0  0  0  0  0
  1  2  1  0
  2  3  2  0
  3  4  1  0
  4  5  2  0
  5  6  1  0
  6  7  2  0
  7  8  1  0
  8  9  1  0
  9 10  2  0
 10 11  1  0
 11 12  2  0
 12 13  1  0
 13 14  2  0
  7  2  1  0
 14  9  1  0
  1 15  1  0
  1 16  1  0
  3 17  1  0
  4 18  1  0
  5 19  1  0
  6 20  1  0
  8 21  1  0
  8 22  1  0
 10 23  1  0
 11 24  1  0
 12 25  1  0
 13 26  1  0
 14 27  1  0
M  CHG  1   8   1
M  END
>  <UniqueID>  (31) 
31

>  <SMILES>  (31) 
Nc1ccccc1[NH2+]c1ccccc1

>  <Energy>  (31) 
32.05758844885182

>  <Genealogy>  (31) 
Nc1ccccc1[NH2+]c1ccccc1 (protonated)
Nc1ccccc1[NH2+]c1ccccc1 (3D coordinates assigned)
Nc1ccccc1[NH2+]c1ccccc1 (optimized conformer: 32.05758844885182 kcal/mol)

>  <smiles>  (31) 
Nc1ccccc1Nc1ccccc1

>  <score_type>  (31) 
oracle

>  <origin>  (31) 
adg

>  <m_score__min__energy>  (31) 
-5.6299999999999999

>  <m_primary>  (31) 
energy

$$$$
31:0
     RDKit          3D

 42 44  0  0  0  0  0  0  0  0999 V2000
   -0.8640   26.6800  -27.9000 C   0  0  0  0  0  0  0  0  0  0  0  0
   -1.5390   26.0080  -28.9580 O   0  0  0  0  0  0  0  0  0  0  0  0
   -1.6670   24.6140  -29.0510 C   0  0  0  0  0  0  0  0  0  0  0  0
   -0.6130   23.7230  -28.7450 C   0  0  0  0  0  0  0  0  0  0  0  0
   -0.8000   22.3320  -28.8580 C   0  0  0  0  0  0  0  0  0  0  0  0
   -2.0350   21.8090  -29.2760 C   0  0  0  0  0  0  0  0  0  0  0  0
   -3.0730   22.6930  -29.5760 C   0  0  0  0  0  0  0  0  0  0  0  0
   -4.3560   22.3360  -30.0050 C   0  0  0  0  0  0  0  0  0  0  0  0
   -5.1760   23.4490  -30.2270 C   0  0  0  0  0  0  0  0  0  0  0  0
   -6.5750   23.4360  -30.6930 C   0  0  0  0  0  0  0  0  0  0  0  0
   -7.1700   24.5350  -30.8660 O   0  0  0  0  0  0  0  0  0  0  0  0
   -7.2680   22.2020  -30.9440 N   0  0  0  0  0  0  0  0  0  0  0  0
   -8.6140   22.1660  -31.5110 C   0  0  0  0  0  0  0  0  0  0  0  0
   -8.8340   20.8620  -32.2890 C   0  0  0  0  0  0  0  0  0  0  0  0
   -7.8010   19.8550  -31.9620 N   0  0  0  0  0  0  0  0  0  0  0  0
   -8.3210   18.4720  -32.1020 C   0  0  0  0  0  0  0  0  0  0  0  0
   -7.1870   17.4750  -32.3900 C   0  0  0  0  0  0  0  0  0  0  0  0
   -6.4870   17.7450  -33.5970 O   0  0  0  0  0  0  0  0  0  0  0  0
   -6.4730   19.1200  -33.9540 C   0  0  0  0  0  0  0  0  0  0  0  0
   -6.5620   20.0730  -32.7480 C   0  0  0  0  0  0  0  0  0  0  0  0
   -4.2960   24.8570  -29.8930 S   0  0  0  0  0  0  0  0  0  0  0  0
   -2.8810   24.0610  -29.4630 C   0  0  0  0  0  0  0  0  0  0  0  0
   -1.2364   26.3093  -26.9336 H   0  0  0  0  0  0  0  0  0  0  0  0
    0.2166   26.4885  -27.9744 H   0  0  0  0  0  0  0  0  0  0  0  0
   -1.0507   27.7615  -27.9744 H   0  0  0  0  0  0  0  0  0  0  0  0
    0.3593   24.1189  -28.4166 H   0  0  0  0  0  0  0  0  0  0  0  0
    0.0279   21.6491  -28.6169 H   0  0  0  0  0  0  0  0  0  0  0  0
   -2.1815   20.7225  -29.3653 H   0  0  0  0  0  0  0  0  0  0  0  0
   -4.6841   21.2963  -30.1516 H   0  0  0  0  0  0  0  0  0  0  0  0
   -6.8370   21.2960  -30.6580 H   0  0  0  0  0  0  0  0  0  0  0  0
   -9.3515   22.2311  -30.6974 H   0  0  0  0  0  0  0  0  0  0  0  0
   -8.7332   23.0157  -32.1993 H   0  0  0  0  0  0  0  0  0  0  0  0
   -9.8234   20.4554  -32.0327 H   0  0  0  0  0  0  0  0  0  0  0  0
   -8.7694   21.0863  -33.3640 H   0  0  0  0  0  0  0  0  0  0  0  0
   -8.8242   18.1822  -31.1678 H   0  0  0  0  0  0  0  0  0  0  0  0
   -9.0253   18.4499  -32.9466 H   0  0  0  0  0  0  0  0  0  0  0  0
   -6.4705   17.5125  -31.5562 H   0  0  0  0  0  0  0  0  0  0  0  0
   -7.6489   16.4827  -32.4992 H   0  0  0  0  0  0  0  0  0  0  0  0
   -5.5377   19.3292  -34.4938 H   0  0  0  0  0  0  0  0  0  0  0  0
   -7.3640   19.3007  -34.5732 H   0  0  0  0  0  0  0  0  0  0  0  0
   -5.6925   19.9037  -32.0958 H   0  0  0  0  0  0  0  0  0  0  0  0
   -6.5766   21.1049  -33.1288 H   0  0  0  0  0  0  0  0  0  0  0  0
  1  2  1  0
  2  3  1  0
  3  4  2  0
  4  5  1  0
  5  6  2  0
  6  7  1  0
  7  8  1  0
  8  9  2  0
  9 10  1  0
 10 11  2  0
 10 12  1  0
 12 13  1  0
 13 14  1  0
 14 15  1  0
 15 16  1  0
 16 17  1  0
 17 18  1  0
 18 19  1  0
 19 20  1  0
  9 21  1  0
 21 22  1  0
 22  3  1  0
 22  7  2  0
 20 15  1  0
  1 23  1  0
  1 24  1  0
  1 25  1  0
  4 26  1  0
  5 27  1  0
  6 28  1  0
  8 29  1  0
 12 30  1  0
 13 31  1  0
 13 32  1  0
 14 33  1  0
 14 34  1  0
 16 35  1  0
 16 36  1  0
 17 37  1  0
 17 38  1  0
 19 39  1  0
 19 40  1  0
 20 41  1  0
 20 42  1  0
M  END
>  <UniqueID>  (32) 
32

>  <SMILES>  (32) 
COc1cccc2cc(C(=O)NCCN3CCOCC3)sc12

>  <Energy>  (32) 
83.93820447220816

>  <Genealogy>  (32) 
COc1cccc2cc(C(=O)NCCN3CCOCC3)sc12 (3D coordinates assigned)
COc1cccc2cc(C(=O)NCCN3CCOCC3)sc12 (nonaromatic ring conformer: 83.93820447220816 kcal/mol)

>  <smiles>  (32) 
COc1cccc2cc(C(=O)NCCN3CCOCC3)sc12

>  <score_type>  (32) 
oracle

>  <origin>  (32) 
adg

>  <m_score__min__energy>  (32) 
-7.8399999999999999

>  <m_primary>  (32) 
energy

$$$$
32:0
     RDKit          3D

 53 55  0  0  0  0  0  0  0  0999 V2000
   -8.8180   23.4210  -32.2910 C   0  0  0  0  0  0  0  0  0  0  0  0
   -7.7080   22.8290  -31.5340 N   0  0  0  0  0  0  0  0  0  0  0  0
   -7.9110   21.5510  -30.8360 C   0  0  0  0  0  0  0  0  0  0  0  0
   -8.7210   20.5920  -31.7120 C   0  0  0  0  0  0  0  0  0  0  0  0
   -7.8130   19.6240  -32.4200 C   0  0  0  0  0  0  0  0  0  0  0  0
   -6.9830   20.0650  -33.4650 C   0  0  0  0  0  0  0  0  0  0  0  0
   -6.1160   19.1710  -34.1000 C   0  0  0  0  0  0  0  0  0  0  0  0
   -6.0640   17.8350  -33.6920 C   0  0  0  0  0  0  0  0  0  0  0  0
   -6.8760   17.3920  -32.6440 C   0  0  0  0  0  0  0  0  0  0  0  0
   -7.7450   18.2840  -32.0070 C   0  0  0  0  0  0  0  0  0  0  0  0
   -6.4300   23.5010  -31.4550 C   0  0  0  0  0  0  0  0  0  0  0  0
   -5.8040   23.7720  -32.5180 O   0  0  0  0  0  0  0  0  0  0  0  0
   -5.8300   23.8760  -30.1200 C   0  0  0  0  0  0  0  0  0  0  0  0
   -5.2850   25.3090  -30.0840 C   0  0  0  0  0  0  0  0  0  0  0  0
   -3.8990   25.3350  -30.5550 N   0  0  0  0  0  0  0  0  0  0  0  0
   -2.8450   24.4810  -29.4660 S   0  0  0  0  0  0  0  0  0  0  0  0
   -1.6120   25.3040  -29.2240 O   0  0  0  0  0  0  0  0  0  0  0  0
   -3.5380   24.2580  -28.1500 O   0  0  0  0  0  0  0  0  0  0  0  0
   -2.3720   22.9400  -30.1770 C   0  0  0  0  0  0  0  0  0  0  0  0
   -1.3120   22.1980  -29.6390 C   0  0  0  0  0  0  0  0  0  0  0  0
   -0.9630   20.9650  -30.1950 C   0  0  0  0  0  0  0  0  0  0  0  0
   -1.6660   20.4640  -31.2980 C   0  0  0  0  0  0  0  0  0  0  0  0
   -2.7310   21.2070  -31.8480 C   0  0  0  0  0  0  0  0  0  0  0  0
   -3.0870   22.4350  -31.2720 C   0  0  0  0  0  0  0  0  0  0  0  0
   -3.5580   20.6210  -32.9670 C   0  0  0  0  0  0  0  0  0  0  0  0
   -2.7170   19.7460  -33.9070 C   0  0  0  0  0  0  0  0  0  0  0  0
   -1.8630   18.7910  -33.1260 C   0  0  0  0  0  0  0  0  0  0  0  0
   -1.5830   17.6580  -33.6010 O   0  0  0  0  0  0  0  0  0  0  0  0
   -1.3030   19.2010  -31.8740 N   0  0  0  0  0  0  0  0  0  0  0  0
   -9.5670   23.8205  -31.5914 H   0  0  0  0  0  0  0  0  0  0  0  0
   -8.4366   24.2355  -32.9244 H   0  0  0  0  0  0  0  0  0  0  0  0
   -9.2820   22.6505  -32.9244 H   0  0  0  0  0  0  0  0  0  0  0  0
   -6.9330   21.1001  -30.6121 H   0  0  0  0  0  0  0  0  0  0  0  0
   -8.4623   21.7361  -29.9023 H   0  0  0  0  0  0  0  0  0  0  0  0
   -9.4239   20.0308  -31.0788 H   0  0  0  0  0  0  0  0  0  0  0  0
   -9.2695   21.1777  -32.4644 H   0  0  0  0  0  0  0  0  0  0  0  0
   -7.0157   21.1171  -33.7843 H   0  0  0  0  0  0  0  0  0  0  0  0
   -5.4736   19.5194  -34.9221 H   0  0  0  0  0  0  0  0  0  0  0  0
   -5.3840   17.1322  -34.1957 H   0  0  0  0  0  0  0  0  0  0  0  0
   -6.8316   16.3417  -32.3202 H   0  0  0  0  0  0  0  0  0  0  0  0
   -8.3782   17.9338  -31.1785 H   0  0  0  0  0  0  0  0  0  0  0  0
   -6.6070   23.7779  -29.3475 H   0  0  0  0  0  0  0  0  0  0  0  0
   -4.9817   23.1990  -29.9410 H   0  0  0  0  0  0  0  0  0  0  0  0
   -5.9013   25.9485  -30.7330 H   0  0  0  0  0  0  0  0  0  0  0  0
   -5.3193   25.6801  -29.0490 H   0  0  0  0  0  0  0  0  0  0  0  0
   -0.7527   22.5879  -28.7757 H   0  0  0  0  0  0  0  0  0  0  0  0
   -0.1329   20.3853  -29.7650 H   0  0  0  0  0  0  0  0  0  0  0  0
   -3.9331   23.0059  -31.6822 H   0  0  0  0  0  0  0  0  0  0  0  0
   -4.3594   20.0060  -32.5317 H   0  0  0  0  0  0  0  0  0  0  0  0
   -3.9703   21.4533  -33.5562 H   0  0  0  0  0  0  0  0  0  0  0  0
   -3.3886   19.1742  -34.5642 H   0  0  0  0  0  0  0  0  0  0  0  0
   -2.0614   20.3983  -34.5026 H   0  0  0  0  0  0  0  0  0  0  0  0
   -0.6080   18.5850  -31.3960 H   0  0  0  0  0  0  0  0  0  0  0  0
  1  2  1  0
  2  3  1  0
  3  4  1  0
  4  5  1  0
  5  6  2  0
  6  7  1  0
  7  8  2  0
  8  9  1  0
  9 10  2  0
  2 11  1  0
 11 12  2  0
 11 13  1  0
 13 14  1  0
 14 15  1  0
 15 16  1  0
 16 17  2  0
 16 18  2  0
 16 19  1  0
 19 20  2  0
 20 21  1  0
 21 22  2  0
 22 23  1  0
 23 24  2  0
 23 25  1  0
 25 26  1  0
 26 27  1  0
 27 28  2  0
 27 29  1  0
 10  5  1  0
 24 19  1  0
 29 22  1  0
  1 30  1  0
  1 31  1  0
  1 32  1  0
  3 33  1  0
  3 34  1  0
  4 35  1  0
  4 36  1  0
  6 37  1  0
  7 38  1  0
  8 39  1  0
  9 40  1  0
 10 41  1  0
 13 42  1  0
 13 43  1  0
 14 44  1  0
 14 45  1  0
 20 46  1  0
 21 47  1  0
 24 48  1  0
 25 49  1  0
 25 50  1  0
 26 51  1  0
 26 52  1  0
 29 53  1  0
M  CHG  1  15  -1
M  END
>  <UniqueID>  (33) 
33

>  <SMILES>  (33) 
CN(CCc1ccccc1)C(=O)CC[N-]S(=O)(=O)c1ccc2c(c1)CCC(=O)N2

>  <Energy>  (33) 
47.86276414531543

>  <Genealogy>  (33) 
CN(CCc1ccccc1)C(=O)CC[N-]S(=O)(=O)c1ccc2c(c1)CCC(=O)N2 (protonated)
CN(CCc1ccccc1)C(=O)CC[N-]S(=O)(=O)c1ccc2c(c1)CCC(=O)N2 (3D coordinates assigned)
CN(CCc1ccccc1)C(=O)CC[N-]S(=O)(=O)c1ccc2c(c1)CCC(=O)N2 (nonaromatic ring conformer: 47.86276414531543 kcal/mol)

>  <smiles>  (33) 
CN(CCc1ccccc1)C(=O)CCNS(=O)(=O)c1ccc2c(c1)CCC(=O)N2

>  <score_type>  (33) 
oracle

>  <origin>  (33) 
adg

>  <m_score__min__energy>  (33) 
-10.92

>  <m_primary>  (33) 
energy

$$$$
33:0
     RDKit          3D

 40 41  0  0  0  0  0  0  0  0999 V2000
   -9.4120   21.5470  -30.4880 C   0  0  0  0  0  0  0  0  0  0  0  0
   -9.0710   21.7940  -31.9560 C   0  0  0  0  0  0  0  0  0  0  0  0
   -7.6520   21.5100  -32.2240 N   0  0  0  0  0  0  0  0  0  0  0  0
   -7.2960   20.2920  -32.9710 C   0  0  0  0  0  0  0  0  0  0  0  0
   -7.9940   19.0700  -32.3820 C   0  0  0  0  0  0  0  0  0  0  0  0
   -6.6270   22.4150  -31.7520 C   0  0  0  0  0  0  0  0  0  0  0  0
   -5.2750   22.0260  -31.7520 C   0  0  0  0  0  0  0  0  0  0  0  0
   -4.2840   22.9010  -31.3000 C   0  0  0  0  0  0  0  0  0  0  0  0
   -4.6190   24.1830  -30.8570 C   0  0  0  0  0  0  0  0  0  0  0  0
   -3.5740   25.0650  -30.4220 N   0  0  0  0  0  0  0  0  0  0  0  0
   -2.8020   24.9170  -29.2220 C   0  0  0  0  0  0  0  0  0  0  0  0
   -3.1810   24.0940  -28.3500 O   0  0  0  0  0  0  0  0  0  0  0  0
   -1.6120   25.6820  -28.9870 N   0  0  0  0  0  0  0  0  0  0  0  0
   -0.8760   25.7280  -27.7550 C   0  0  0  0  0  0  0  0  0  0  0  0
   -0.8730   26.8830  -26.9510 C   0  0  0  0  0  0  0  0  0  0  0  0
   -0.1610   26.9040  -25.7500 C   0  0  0  0  0  0  0  0  0  0  0  0
    0.5680   25.7830  -25.3480 C   0  0  0  0  0  0  0  0  0  0  0  0
    0.5920   24.6410  -26.1520 C   0  0  0  0  0  0  0  0  0  0  0  0
   -0.1210   24.6110  -27.3570 C   0  0  0  0  0  0  0  0  0  0  0  0
   -0.0860   23.1530  -28.3370 Cl  0  0  0  0  0  0  0  0  0  0  0  0
   -5.9690   24.5690  -30.8260 C   0  0  0  0  0  0  0  0  0  0  0  0
   -6.9620   23.6960  -31.2780 C   0  0  0  0  0  0  0  0  0  0  0  0
   -8.6865   22.0725  -29.8496 H   0  0  0  0  0  0  0  0  0  0  0  0
  -10.4244   21.9227  -30.2785 H   0  0  0  0  0  0  0  0  0  0  0  0
   -9.3707   20.4679  -30.2785 H   0  0  0  0  0  0  0  0  0  0  0  0
   -9.6934   21.1402  -32.5846 H   0  0  0  0  0  0  0  0  0  0  0  0
   -9.2660   22.8515  -32.1874 H   0  0  0  0  0  0  0  0  0  0  0  0
   -7.6022   20.4107  -34.0208 H   0  0  0  0  0  0  0  0  0  0  0  0
   -6.2083   20.1428  -32.9031 H   0  0  0  0  0  0  0  0  0  0  0  0
   -7.9632   19.1240  -31.2838 H   0  0  0  0  0  0  0  0  0  0  0  0
   -9.0409   19.0479  -32.7188 H   0  0  0  0  0  0  0  0  0  0  0  0
   -7.4812   18.1570  -32.7188 H   0  0  0  0  0  0  0  0  0  0  0  0
   -4.9957   21.0244  -32.1109 H   0  0  0  0  0  0  0  0  0  0  0  0
   -3.2324   22.5782  -31.2929 H   0  0  0  0  0  0  0  0  0  0  0  0
   -1.4343   27.7736  -27.2702 H   0  0  0  0  0  0  0  0  0  0  0  0
   -0.1744   27.8052  -25.1195 H   0  0  0  0  0  0  0  0  0  0  0  0
    1.1232   25.7992  -24.3985 H   0  0  0  0  0  0  0  0  0  0  0  0
    1.1733   23.7617  -25.8374 H   0  0  0  0  0  0  0  0  0  0  0  0
   -6.2458   25.5628  -30.4443 H   0  0  0  0  0  0  0  0  0  0  0  0
   -8.0151   24.0135  -31.2629 H   0  0  0  0  0  0  0  0  0  0  0  0
  1  2  1  0
  2  3  1  0
  3  4  1  0
  4  5  1  0
  3  6  1  0
  6  7  2  0
  7  8  1  0
  8  9  2  0
  9 10  1  0
 10 11  1  0
 11 12  2  0
 11 13  1  0
 13 14  1  0
 14 15  2  0
 15 16  1  0
 16 17  2  0
 17 18  1  0
 18 19  2  0
 19 20  1  0
  9 21  1  0
 21 22  2  0
 22  6  1  0
 19 14  1  0
  1 23  1  0
  1 24  1  0
  1 25  1  0
  2 26  1  0
  2 27  1  0
  4 28  1  0
  4 29  1  0
  5 30  1  0
  5 31  1  0
  5 32  1  0
  7 33  1  0
  8 34  1  0
 15 35  1  0
 16 36  1  0
 17 37  1  0
 18 38  1  0
 21 39  1  0
 22 40  1  0
M  CHG  2  10  -1  13  -1
M  END
>  <UniqueID>  (34) 
34

>  <SMILES>  (34) 
CCN(CC)c1ccc([N-]C(=O)[N-]c2ccccc2Cl)cc1

>  <Energy>  (34) 
44.74687189643027

>  <Genealogy>  (34) 
CCN(CC)c1ccc([N-]C(=O)[N-]c2ccccc2Cl)cc1 (protonated)
CCN(CC)c1ccc([N-]C(=O)[N-]c2ccccc2Cl)cc1 (3D coordinates assigned)
CCN(CC)c1ccc([N-]C(=O)[N-]c2ccccc2Cl)cc1 (optimized conformer: 44.74687189643027 kcal/mol)

>  <smiles>  (34) 
CCN(CC)c1ccc(NC(=O)Nc2ccccc2Cl)cc1

>  <score_type>  (34) 
oracle

>  <origin>  (34) 
adg

>  <m_score__min__energy>  (34) 
-10.52

>  <m_primary>  (34) 
energy

$$$$
34:0
     RDKit          3D

 45 47  0  0  0  0  0  0  0  0999 V2000
   -1.6430   24.9900  -28.1530 C   0  0  0  0  0  0  0  0  0  0  0  0
   -2.3610   25.2940  -29.3450 O   0  0  0  0  0  0  0  0  0  0  0  0
   -3.4260   24.5290  -29.8450 C   0  0  0  0  0  0  0  0  0  0  0  0
   -4.6880   25.0850  -30.1250 C   0  0  0  0  0  0  0  0  0  0  0  0
   -5.7180   24.2810  -30.6230 C   0  0  0  0  0  0  0  0  0  0  0  0
   -5.5060   22.9100  -30.8470 C   0  0  0  0  0  0  0  0  0  0  0  0
   -6.5900   22.0560  -31.3730 C   0  0  0  0  0  0  0  0  0  0  0  0
   -6.4100   20.7810  -31.7810 N   0  0  0  0  0  0  0  0  0  0  0  0
   -7.6430   20.4050  -32.1670 C   0  0  0  0  0  0  0  0  0  0  0  0
   -7.9850   19.0380  -32.6950 C   0  0  0  0  0  0  0  0  0  0  0  0
   -6.8730   18.0560  -32.5890 N   0  0  1  0  0  0  0  0  0  0  0  0
   -6.8320   17.4530  -31.2420 C   0  0  0  0  0  0  0  0  0  0  0  0
   -6.9040   16.9840  -33.6210 C   0  0  0  0  0  0  0  0  0  0  0  0
   -5.5190   16.6870  -34.2610 C   0  0  1  0  0  0  0  0  0  0  0  0
   -5.0430   17.7940  -35.1710 C   0  0  0  0  0  0  0  0  0  0  0  0
   -4.1640   18.6500  -34.2750 C   0  0  0  0  0  0  0  0  0  0  0  0
   -3.8840   17.9590  -33.0800 O   0  0  0  0  0  0  0  0  0  0  0  0
   -4.4190   16.6650  -33.2080 C   0  0  0  0  0  0  0  0  0  0  0  0
   -8.5210   21.4510  -31.9850 C   0  0  0  0  0  0  0  0  0  0  0  0
   -7.8390   22.4530  -31.4930 O   0  0  0  0  0  0  0  0  0  0  0  0
   -4.2450   22.3600  -30.5660 C   0  0  0  0  0  0  0  0  0  0  0  0
   -3.2160   23.1640  -30.0700 C   0  0  0  0  0  0  0  0  0  0  0  0
   -2.2574   25.2501  -27.2784 H   0  0  0  0  0  0  0  0  0  0  0  0
   -1.4087   23.9155  -28.1300 H   0  0  0  0  0  0  0  0  0  0  0  0
   -0.7084   25.5696  -28.1300 H   0  0  0  0  0  0  0  0  0  0  0  0
   -4.8650   26.1567  -29.9514 H   0  0  0  0  0  0  0  0  0  0  0  0
   -6.7007   24.7246  -30.8409 H   0  0  0  0  0  0  0  0  0  0  0  0
   -8.8437   18.6518  -32.1262 H   0  0  0  0  0  0  0  0  0  0  0  0
   -8.2066   19.1554  -33.7660 H   0  0  0  0  0  0  0  0  0  0  0  0
   -5.9830   18.5960  -32.6930 H   0  0  0  0  0  0  0  0  0  0  0  0
   -6.8860   18.2473  -30.4829 H   0  0  0  0  0  0  0  0  0  0  0  0
   -7.6858   16.7703  -31.1197 H   0  0  0  0  0  0  0  0  0  0  0  0
   -5.8936   16.8922  -31.1197 H   0  0  0  0  0  0  0  0  0  0  0  0
   -7.2735   16.0608  -33.1507 H   0  0  0  0  0  0  0  0  0  0  0  0
   -7.5607   17.3375  -34.4296 H   0  0  0  0  0  0  0  0  0  0  0  0
   -5.6727   15.7327  -34.7861 H   0  0  0  0  0  0  0  0  0  0  0  0
   -4.4645   17.3868  -36.0133 H   0  0  0  0  0  0  0  0  0  0  0  0
   -5.8721   18.3611  -35.6192 H   0  0  0  0  0  0  0  0  0  0  0  0
   -3.2217   18.8755  -34.7958 H   0  0  0  0  0  0  0  0  0  0  0  0
   -4.6900   19.5866  -34.0381 H   0  0  0  0  0  0  0  0  0  0  0  0
   -3.6268   15.9669  -33.5163 H   0  0  0  0  0  0  0  0  0  0  0  0
   -4.8334   16.3363  -32.2435 H   0  0  0  0  0  0  0  0  0  0  0  0
   -9.5974   21.4447  -32.2117 H   0  0  0  0  0  0  0  0  0  0  0  0
   -4.0661   21.2883  -30.7377 H   0  0  0  0  0  0  0  0  0  0  0  0
   -2.2327   22.7205  -29.8546 H   0  0  0  0  0  0  0  0  0  0  0  0
  1  2  1  0
  2  3  1  0
  3  4  2  0
  4  5  1  0
  5  6  2  0
  6  7  1  0
  7  8  2  0
  8  9  1  0
  9 10  1  0
 10 11  1  0
 11 12  1  0
 11 13  1  0
 13 14  1  0
 14 15  1  0
 15 16  1  0
 16 17  1  0
 17 18  1  0
  9 19  2  0
 19 20  1  0
  6 21  1  0
 21 22  2  0
 22  3  1  0
 20  7  1  0
 18 14  1  0
  1 23  1  0
  1 24  1  0
  1 25  1  0
  4 26  1  0
  5 27  1  0
 10 28  1  0
 10 29  1  0
 11 30  1  6
 12 31  1  0
 12 32  1  0
 12 33  1  0
 13 34  1  0
 13 35  1  0
 14 36  1  6
 15 37  1  0
 15 38  1  0
 16 39  1  0
 16 40  1  0
 18 41  1  0
 18 42  1  0
 19 43  1  0
 21 44  1  0
 22 45  1  0
M  CHG  1  11   1
M  END
>  <UniqueID>  (35) 
35

>  <SMILES>  (35) 
COc1ccc(-c2nc(C[N@@H+](C)C[C@H]3CCOC3)co2)cc1

>  <Energy>  (35) 
79.25825718648402

>  <Genealogy>  (35) 
COc1ccc(-c2nc(C[NH+](C)CC3CCOC3)co2)cc1 (protonated)
COc1ccc(-c2nc(C[N@@H+](C)C[C@H]3CCOC3)co2)cc1 (chirality)
COc1ccc(-c2nc(C[N@@H+](C)C[C@H]3CCOC3)co2)cc1 (3D coordinates assigned)
COc1ccc(-c2nc(C[N@@H+](C)C[C@H]3CCOC3)co2)cc1 (nonaromatic ring conformer: 79.25825718648402 kcal/mol)

>  <smiles>  (35) 
COc1ccc(-c2nc(CN(C)CC3CCOC3)co2)cc1

>  <score_type>  (35) 
oracle

>  <origin>  (35) 
adg

>  <m_score__min__energy>  (35) 
-6.1299999999999999

>  <m_primary>  (35) 
energy

$$$$
35:0
     RDKit          3D

 70 73  0  0  0  0  0  0  0  0999 V2000
   -6.2670   25.5600  -29.3300 C   0  0  0  0  0  0  0  0  0  0  0  0
   -6.2120   24.2610  -30.1460 C   0  0  0  0  0  0  0  0  0  0  0  0
   -6.4240   24.5400  -31.6350 C   0  0  0  0  0  0  0  0  0  0  0  0
   -4.9510   23.5240  -29.9070 N   0  0  0  0  0  0  0  0  0  0  0  0
   -4.9050   22.0520  -30.0340 C   0  0  0  0  0  0  0  0  0  0  0  0
   -3.9370   21.5580  -31.1030 C   0  0  0  0  0  0  0  0  0  0  0  0
   -2.5690   21.4980  -30.7700 C   0  0  0  0  0  0  0  0  0  0  0  0
   -1.5980   21.1790  -31.7300 C   0  0  0  0  0  0  0  0  0  0  0  0
   -0.1450   21.1380  -31.3500 C   0  0  0  0  0  0  0  0  0  0  0  0
    0.2180   19.7900  -30.9110 N   0  0  0  0  0  0  0  0  0  0  0  0
   -0.0720   19.2680  -29.6030 C   0  0  0  0  0  0  0  0  0  0  0  0
    0.7720   18.2940  -29.0530 C   0  0  0  0  0  0  0  0  0  0  0  0
    0.4930   17.7410  -27.8020 C   0  0  0  0  0  0  0  0  0  0  0  0
   -0.6380   18.1480  -27.0910 C   0  0  0  0  0  0  0  0  0  0  0  0
   -1.5050   19.1180  -27.6240 C   0  0  0  0  0  0  0  0  0  0  0  0
   -2.7190   19.5170  -26.8740 C   0  0  0  0  0  0  0  0  0  0  0  0
   -3.0350   18.9360  -25.6060 N   0  0  0  0  0  0  0  0  0  0  0  0
   -3.5020   20.3750  -27.3630 O   0  0  0  0  0  0  0  0  0  0  0  0
   -1.2210   19.6640  -28.8900 C   0  0  0  0  0  0  0  0  0  0  0  0
   -1.9930   20.9140  -33.0440 C   0  0  0  0  0  0  0  0  0  0  0  0
   -3.3400   20.9650  -33.3960 C   0  0  0  0  0  0  0  0  0  0  0  0
   -4.3300   21.2560  -32.4390 C   0  0  0  0  0  0  0  0  0  0  0  0
   -5.7640   21.2840  -32.9150 C   0  0  0  0  0  0  0  0  0  0  0  0
   -6.6950   20.1330  -32.5220 C   0  0  0  0  0  0  0  0  0  0  0  0
   -6.4060   18.7360  -32.6460 C   0  0  0  0  0  0  0  0  0  0  0  0
   -4.9300   18.0500  -33.3200 Cl  0  0  0  0  0  0  0  0  0  0  0  0
   -7.3480   17.7890  -32.2250 C   0  0  0  0  0  0  0  0  0  0  0  0
   -8.5760   18.1800  -31.7020 C   0  0  0  0  0  0  0  0  0  0  0  0
   -8.8870   19.5300  -31.6030 C   0  0  0  0  0  0  0  0  0  0  0  0
   -7.9690   20.5010  -32.0090 C   0  0  0  0  0  0  0  0  0  0  0  0
   -8.4630   22.1880  -31.8460 Cl  0  0  0  0  0  0  0  0  0  0  0  0
   -3.7430   24.2990  -29.7870 C   0  0  0  0  0  0  0  0  0  0  0  0
   -3.5700   25.2820  -30.5580 O   0  0  0  0  0  0  0  0  0  0  0  0
   -2.6640   23.9290  -28.8420 C   0  0  0  0  0  0  0  0  0  0  0  0
   -1.3200   24.1550  -29.1860 C   0  0  0  0  0  0  0  0  0  0  0  0
   -0.2920   23.7400  -28.3340 C   0  0  0  0  0  0  0  0  0  0  0  0
   -0.5960   23.0840  -27.1400 C   0  0  0  0  0  0  0  0  0  0  0  0
   -1.9280   22.8640  -26.7830 C   0  0  0  0  0  0  0  0  0  0  0  0
   -2.9590   23.2800  -27.6300 C   0  0  0  0  0  0  0  0  0  0  0  0
   -6.2568   25.3195  -28.2567 H   0  0  0  0  0  0  0  0  0  0  0  0
   -5.3945   26.1837  -29.5743 H   0  0  0  0  0  0  0  0  0  0  0  0
   -7.1891   26.1077  -29.5743 H   0  0  0  0  0  0  0  0  0  0  0  0
   -7.0354   23.6161  -29.8053 H   0  0  0  0  0  0  0  0  0  0  0  0
   -7.0856   25.4107  -31.7543 H   0  0  0  0  0  0  0  0  0  0  0  0
   -5.4543   24.7484  -32.1107 H   0  0  0  0  0  0  0  0  0  0  0  0
   -6.8846   23.6616  -32.1107 H   0  0  0  0  0  0  0  0  0  0  0  0
   -4.5980   21.6295  -29.0659 H   0  0  0  0  0  0  0  0  0  0  0  0
   -5.9108   21.7243  -30.3356 H   0  0  0  0  0  0  0  0  0  0  0  0
   -2.2566   21.7056  -29.7359 H   0  0  0  0  0  0  0  0  0  0  0  0
    0.4675   21.4152  -32.2206 H   0  0  0  0  0  0  0  0  0  0  0  0
    0.0341   21.8467  -30.5280 H   0  0  0  0  0  0  0  0  0  0  0  0
    0.8750   19.2550  -31.5230 H   0  0  0  0  0  0  0  0  0  0  0  0
    1.6604   17.9629  -29.6108 H   0  0  0  0  0  0  0  0  0  0  0  0
    1.1658   16.9826  -27.3751 H   0  0  0  0  0  0  0  0  0  0  0  0
   -0.8521   17.7063  -26.1066 H   0  0  0  0  0  0  0  0  0  0  0  0
   -3.8700   19.2660  -25.0750 H   0  0  0  0  0  0  0  0  0  0  0  0
   -2.5010   18.1230  -25.2280 H   0  0  0  0  0  0  0  0  0  0  0  0
   -1.9033   20.4077  -29.3273 H   0  0  0  0  0  0  0  0  0  0  0  0
   -1.2374   20.6642  -33.8034 H   0  0  0  0  0  0  0  0  0  0  0  0
   -3.6345   20.7748  -34.4386 H   0  0  0  0  0  0  0  0  0  0  0  0
   -6.2146   22.2103  -32.5291 H   0  0  0  0  0  0  0  0  0  0  0  0
   -5.6827   21.1985  -34.0087 H   0  0  0  0  0  0  0  0  0  0  0  0
   -7.1127   16.7178  -32.3094 H   0  0  0  0  0  0  0  0  0  0  0  0
   -9.2993   17.4217  -31.3675 H   0  0  0  0  0  0  0  0  0  0  0  0
   -9.8641   19.8368  -31.2016 H   0  0  0  0  0  0  0  0  0  0  0  0
   -1.0755   24.6615  -30.1313 H   0  0  0  0  0  0  0  0  0  0  0  0
    0.7570   23.9306  -28.6048 H   0  0  0  0  0  0  0  0  0  0  0  0
    0.2140   22.7402  -26.4800 H   0  0  0  0  0  0  0  0  0  0  0  0
   -2.1662   22.3624  -25.8335 H   0  0  0  0  0  0  0  0  0  0  0  0
   -4.0064   23.0988  -27.3471 H   0  0  0  0  0  0  0  0  0  0  0  0
  1  2  1  0
  2  3  1  0
  2  4  1  0
  4  5  1  0
  5  6  1  0
  6  7  2  0
  7  8  1  0
  8  9  1  0
  9 10  1  0
 10 11  1  0
 11 12  2  0
 12 13  1  0
 13 14  2  0
 14 15  1  0
 15 16  1  0
 16 17  1  0
 16 18  2  0
 15 19  2  0
  8 20  2  0
 20 21  1  0
 21 22  2  0
 22 23  1  0
 23 24  1  0
 24 25  2  0
 25 26  1  0
 25 27  1  0
 27 28  2  0
 28 29  1  0
 29 30  2  0
 30 31  1  0
  4 32  1  0
 32 33  2  0
 32 34  1  0
 34 35  2  0
 35 36  1  0
 36 37  2  0
 37 38  1  0
 38 39  2  0
 22  6  1  0
 30 24  1  0
 39 34  1  0
 19 11  1  0
  1 40  1  0
  1 41  1  0
  1 42  1  0
  2 43  1  0
  3 44  1  0
  3 45  1  0
  3 46  1  0
  5 47  1  0
  5 48  1  0
  7 49  1  0
  9 50  1  0
  9 51  1  0
 10 52  1  0
 12 53  1  0
 13 54  1  0
 14 55  1  0
 17 56  1  0
 17 57  1  0
 19 58  1  0
 20 59  1  0
 21 60  1  0
 23 61  1  0
 23 62  1  0
 27 63  1  0
 28 64  1  0
 29 65  1  0
 35 66  1  0
 36 67  1  0
 37 68  1  0
 38 69  1  0
 39 70  1  0
M  END
>  <UniqueID>  (36) 
36

>  <SMILES>  (36) 
CC(C)N(Cc1cc(CNc2cccc(C(N)=O)c2)ccc1Cc1c(Cl)cccc1Cl)C(=O)c1ccccc1

>  <Energy>  (36) 
86.66604485162635

>  <Genealogy>  (36) 
CC(C)N(Cc1cc(CNc2cccc(C(N)=O)c2)ccc1Cc1c(Cl)cccc1Cl)C(=O)c1ccccc1 (3D coordinates assigned)
CC(C)N(Cc1cc(CNc2cccc(C(N)=O)c2)ccc1Cc1c(Cl)cccc1Cl)C(=O)c1ccccc1 (optimized conformer: 86.66604485162635 kcal/mol)

>  <smiles>  (36) 
CC(C)N(Cc1cc(CNc2cccc(C(N)=O)c2)ccc1Cc1c(Cl)cccc1Cl)C(=O)c1ccccc1

>  <score_type>  (36) 
oracle

>  <origin>  (36) 
adg

>  <m_score__min__energy>  (36) 
-12.210000000000001

>  <m_primary>  (36) 
energy

$$$$
36:0
     RDKit          3D

 45 47  0  0  0  0  0  0  0  0999 V2000
   -2.3490   24.1480  -27.9640 C   0  0  0  0  0  0  0  0  0  0  0  0
   -2.0150   23.8870  -29.3240 O   0  0  0  0  0  0  0  0  0  0  0  0
   -2.6240   22.9000  -30.1140 C   0  0  0  0  0  0  0  0  0  0  0  0
   -1.9740   22.2980  -31.2070 C   0  0  0  0  0  0  0  0  0  0  0  0
   -2.6240   21.3200  -31.9650 C   0  0  0  0  0  0  0  0  0  0  0  0
   -3.9400   20.9280  -31.6510 C   0  0  0  0  0  0  0  0  0  0  0  0
   -4.6470   19.8840  -32.4370 C   0  0  0  0  0  0  0  0  0  0  0  0
   -4.2050   19.4810  -33.7040 C   0  0  0  0  0  0  0  0  0  0  0  0
   -4.9090   18.4980  -34.3910 C   0  0  0  0  0  0  0  0  0  0  0  0
   -6.0450   17.9350  -33.8110 C   0  0  0  0  0  0  0  0  0  0  0  0
   -6.6750   17.0370  -34.4320 O   0  0  0  0  0  0  0  0  0  0  0  0
   -6.4570   18.3640  -32.5770 N   0  0  0  0  0  0  0  0  0  0  0  0
   -7.6390   17.7970  -31.9140 C   0  0  0  0  0  0  0  0  0  0  0  0
   -8.7070   18.8720  -31.6700 C   0  0  0  0  0  0  0  0  0  0  0  0
   -8.6830   19.9670  -32.7420 C   0  0  0  0  0  0  0  0  0  0  0  0
   -7.7810   21.0470  -32.3470 N   0  0  0  0  0  0  0  0  0  0  0  0
   -8.1630   22.0580  -31.3990 C   0  0  0  0  0  0  0  0  0  0  0  0
   -9.2730   21.9760  -30.8080 O   0  0  0  0  0  0  0  0  0  0  0  0
   -7.2730   23.1950  -31.0920 C   0  0  0  0  0  0  0  0  0  0  0  0
   -7.1820   23.8910  -29.8910 C   0  0  0  0  0  0  0  0  0  0  0  0
   -6.2270   24.9170  -29.9150 C   0  0  0  0  0  0  0  0  0  0  0  0
   -5.5620   25.0320  -31.1270 C   0  0  0  0  0  0  0  0  0  0  0  0
   -6.1610   23.8570  -32.1680 S   0  0  0  0  0  0  0  0  0  0  0  0
   -5.7680   19.3070  -31.9250 N   0  0  0  0  0  0  0  0  0  0  0  0
   -4.5780   21.5260  -30.5500 C   0  0  0  0  0  0  0  0  0  0  0  0
   -3.9270   22.5040  -29.7950 C   0  0  0  0  0  0  0  0  0  0  0  0
   -1.6548   23.6055  -27.3053 H   0  0  0  0  0  0  0  0  0  0  0  0
   -2.2720   25.2277  -27.7682 H   0  0  0  0  0  0  0  0  0  0  0  0
   -3.3781   23.8123  -27.7682 H   0  0  0  0  0  0  0  0  0  0  0  0
   -0.9482   22.5988  -31.4665 H   0  0  0  0  0  0  0  0  0  0  0  0
   -2.1035   20.8525  -32.8139 H   0  0  0  0  0  0  0  0  0  0  0  0
   -3.3097   19.9378  -34.1510 H   0  0  0  0  0  0  0  0  0  0  0  0
   -4.5721   18.1671  -35.3845 H   0  0  0  0  0  0  0  0  0  0  0  0
   -8.0637   17.0073  -32.5512 H   0  0  0  0  0  0  0  0  0  0  0  0
   -7.3297   17.3860  -30.9417 H   0  0  0  0  0  0  0  0  0  0  0  0
   -9.6978   18.3941  -31.6741 H   0  0  0  0  0  0  0  0  0  0  0  0
   -8.4941   19.3449  -30.6999 H   0  0  0  0  0  0  0  0  0  0  0  0
   -8.3373   19.5357  -33.6930 H   0  0  0  0  0  0  0  0  0  0  0  0
   -9.6981   20.3745  -32.8586 H   0  0  0  0  0  0  0  0  0  0  0  0
   -6.8090   21.0280  -32.7240 H   0  0  0  0  0  0  0  0  0  0  0  0
   -7.7983   23.6593  -29.0098 H   0  0  0  0  0  0  0  0  0  0  0  0
   -6.0239   25.5699  -29.0533 H   0  0  0  0  0  0  0  0  0  0  0  0
   -4.7779   25.7657  -31.3654 H   0  0  0  0  0  0  0  0  0  0  0  0
   -5.5998   21.2205  -30.2807 H   0  0  0  0  0  0  0  0  0  0  0  0
   -4.4438   22.9672  -28.9415 H   0  0  0  0  0  0  0  0  0  0  0  0
  1  2  1  0
  2  3  1  0
  3  4  2  0
  4  5  1  0
  5  6  2  0
  6  7  1  0
  7  8  1  0
  8  9  2  0
  9 10  1  0
 10 11  2  0
 10 12  1  0
 12 13  1  0
 13 14  1  0
 14 15  1  0
 15 16  1  0
 16 17  1  0
 17 18  2  0
 17 19  1  0
 19 20  2  0
 20 21  1  0
 21 22  2  0
 22 23  1  0
 12 24  1  0
  6 25  1  0
 25 26  2  0
 26  3  1  0
 24  7  2  0
 23 19  1  0
  1 27  1  0
  1 28  1  0
  1 29  1  0
  4 30  1  0
  5 31  1  0
  8 32  1  0
  9 33  1  0
 13 34  1  0
 13 35  1  0
 14 36  1  0
 14 37  1  0
 15 38  1  0
 15 39  1  0
 16 40  1  0
 20 41  1  0
 21 42  1  0
 22 43  1  0
 25 44  1  0
 26 45  1  0
M  END
>  <UniqueID>  (37) 
37

>  <SMILES>  (37) 
COc1ccc(-c2ccc(=O)n(CCCNC(=O)c3cccs3)n2)cc1

>  <Energy>  (37) 
72.01529681261158

>  <Genealogy>  (37) 
COc1ccc(-c2ccc(=O)n(CCCNC(=O)c3cccs3)n2)cc1 (3D coordinates assigned)
COc1ccc(-c2ccc(=O)n(CCCNC(=O)c3cccs3)n2)cc1 (optimized conformer: 72.01529681261158 kcal/mol)

>  <smiles>  (37) 
COc1ccc(-c2ccc(=O)n(CCCNC(=O)c3cccs3)n2)cc1

>  <score_type>  (37) 
oracle

>  <origin>  (37) 
adg

>  <m_score__min__energy>  (37) 
-9.1500000000000004

>  <m_primary>  (37) 
energy

$$$$
37:0
     RDKit          3D

 57 59  0  0  0  0  0  0  0  0999 V2000
   -2.2970   21.1090  -32.2790 C   0  0  0  0  0  0  0  0  0  0  0  0
   -2.7840   22.3930  -31.8910 O   0  0  0  0  0  0  0  0  0  0  0  0
   -4.1320   22.7020  -31.6560 C   0  0  0  0  0  0  0  0  0  0  0  0
   -5.1690   21.8980  -32.1740 C   0  0  0  0  0  0  0  0  0  0  0  0
   -6.5100   22.1950  -31.8970 C   0  0  0  0  0  0  0  0  0  0  0  0
   -7.6160   21.3500  -32.4770 C   0  0  0  0  0  0  0  0  0  0  0  0
   -8.5500   20.8980  -31.4210 N   0  0  0  0  0  0  0  0  0  0  0  0
   -9.8820   21.5130  -31.6130 C   0  0  0  0  0  0  0  0  0  0  0  0
   -8.6520   19.4200  -31.4390 C   0  0  0  0  0  0  0  0  0  0  0  0
   -8.0530   18.8150  -32.7220 C   0  0  0  0  0  0  0  0  0  0  0  0
   -6.9180   17.9050  -32.4310 N   0  0  0  0  0  0  0  0  0  0  0  0
   -6.8550   16.7660  -33.3790 C   0  0  0  0  0  0  0  0  0  0  0  0
   -5.9560   17.0550  -34.5990 C   0  0  0  0  0  0  0  0  0  0  0  0
   -5.8560   18.4430  -34.8310 O   0  0  0  0  0  0  0  0  0  0  0  0
   -5.1430   19.0590  -33.7730 C   0  0  0  0  0  0  0  0  0  0  0  0
   -5.6170   18.6040  -32.3720 C   0  0  0  0  0  0  0  0  0  0  0  0
   -6.8220   23.2990  -31.0930 C   0  0  0  0  0  0  0  0  0  0  0  0
   -5.8060   24.1010  -30.5700 C   0  0  0  0  0  0  0  0  0  0  0  0
   -6.2360   25.4920  -29.5820 Cl  0  0  0  0  0  0  0  0  0  0  0  0
   -4.4600   23.8260  -30.8620 C   0  0  0  0  0  0  0  0  0  0  0  0
   -3.4840   24.6850  -30.3350 O   0  0  0  0  0  0  0  0  0  0  0  0
   -2.9620   24.5870  -29.0110 C   0  0  0  0  0  0  0  0  0  0  0  0
   -2.4800   23.1840  -28.7790 C   0  0  0  0  0  0  0  0  0  0  0  0
   -3.2780   22.2590  -28.0810 C   0  0  0  0  0  0  0  0  0  0  0  0
   -2.8140   20.9560  -27.8650 C   0  0  0  0  0  0  0  0  0  0  0  0
   -1.5520   20.5730  -28.3280 C   0  0  0  0  0  0  0  0  0  0  0  0
   -0.7460   21.4950  -29.0060 C   0  0  0  0  0  0  0  0  0  0  0  0
   -1.2030   22.7980  -29.2280 C   0  0  0  0  0  0  0  0  0  0  0  0
   -2.0719   20.5154  -31.3807 H   0  0  0  0  0  0  0  0  0  0  0  0
   -3.0616   20.5924  -32.8777 H   0  0  0  0  0  0  0  0  0  0  0  0
   -1.3821   21.2294  -32.8777 H   0  0  0  0  0  0  0  0  0  0  0  0
   -4.9223   21.0291  -32.8018 H   0  0  0  0  0  0  0  0  0  0  0  0
   -8.1713   21.9440  -33.2178 H   0  0  0  0  0  0  0  0  0  0  0  0
   -7.1677   20.4639  -32.9501 H   0  0  0  0  0  0  0  0  0  0  0  0
  -10.3343   21.7218  -30.6323 H   0  0  0  0  0  0  0  0  0  0  0  0
   -9.7745   22.4526  -32.1747 H   0  0  0  0  0  0  0  0  0  0  0  0
  -10.5275   20.8218  -32.1747 H   0  0  0  0  0  0  0  0  0  0  0  0
   -8.1114   19.0163  -30.5702 H   0  0  0  0  0  0  0  0  0  0  0  0
   -9.7185   19.1530  -31.4038 H   0  0  0  0  0  0  0  0  0  0  0  0
   -8.8365   18.2487  -33.2468 H   0  0  0  0  0  0  0  0  0  0  0  0
   -7.6753   19.6410  -33.3425 H   0  0  0  0  0  0  0  0  0  0  0  0
   -6.4568   15.8884  -32.8486 H   0  0  0  0  0  0  0  0  0  0  0  0
   -7.8743   16.5881  -33.7524 H   0  0  0  0  0  0  0  0  0  0  0  0
   -4.9516   16.6476  -34.4112 H   0  0  0  0  0  0  0  0  0  0  0  0
   -6.4023   16.5809  -35.4856 H   0  0  0  0  0  0  0  0  0  0  0  0
   -4.0766   18.8107  -33.8790 H   0  0  0  0  0  0  0  0  0  0  0  0
   -5.3243   20.1417  -33.8436 H   0  0  0  0  0  0  0  0  0  0  0  0
   -4.8659   17.9223  -31.9464 H   0  0  0  0  0  0  0  0  0  0  0  0
   -5.7392   19.4999  -31.7456 H   0  0  0  0  0  0  0  0  0  0  0  0
   -7.8735   23.5353  -30.8725 H   0  0  0  0  0  0  0  0  0  0  0  0
   -2.1239   25.2895  -28.8919 H   0  0  0  0  0  0  0  0  0  0  0  0
   -3.7474   24.8358  -28.2822 H   0  0  0  0  0  0  0  0  0  0  0  0
   -4.2669   22.5598  -27.7048 H   0  0  0  0  0  0  0  0  0  0  0  0
   -3.4446   20.2312  -27.3292 H   0  0  0  0  0  0  0  0  0  0  0  0
   -1.1923   19.5472  -28.1596 H   0  0  0  0  0  0  0  0  0  0  0  0
    0.2492   21.1940  -29.3651 H   0  0  0  0  0  0  0  0  0  0  0  0
   -0.5637   23.5221  -29.7542 H   0  0  0  0  0  0  0  0  0  0  0  0
  1  2  1  0
  2  3  1  0
  3  4  2  0
  4  5  1  0
  5  6  1  0
  6  7  1  0
  7  8  1  0
  7  9  1  0
  9 10  1  0
 10 11  1  0
 11 12  1  0
 12 13  1  0
 13 14  1  0
 14 15  1  0
 15 16  1  0
  5 17  2  0
 17 18  1  0
 18 19  1  0
 18 20  2  0
 20 21  1  0
 21 22  1  0
 22 23  1  0
 23 24  2  0
 24 25  1  0
 25 26  2  0
 26 27  1  0
 27 28  2  0
 20  3  1  0
 28 23  1  0
 16 11  1  0
  1 29  1  0
  1 30  1  0
  1 31  1  0
  4 32  1  0
  6 33  1  0
  6 34  1  0
  8 35  1  0
  8 36  1  0
  8 37  1  0
  9 38  1  0
  9 39  1  0
 10 40  1  0
 10 41  1  0
 12 42  1  0
 12 43  1  0
 13 44  1  0
 13 45  1  0
 15 46  1  0
 15 47  1  0
 16 48  1  0
 16 49  1  0
 17 50  1  0
 22 51  1  0
 22 52  1  0
 24 53  1  0
 25 54  1  0
 26 55  1  0
 27 56  1  0
 28 57  1  0
M  END
>  <UniqueID>  (38) 
38

>  <SMILES>  (38) 
COc1cc(CN(C)CCN2CCOCC2)cc(Cl)c1OCc1ccccc1

>  <Energy>  (38) 
74.18464885791518

>  <Genealogy>  (38) 
COc1cc(CN(C)CCN2CCOCC2)cc(Cl)c1OCc1ccccc1 (3D coordinates assigned)
COc1cc(CN(C)CCN2CCOCC2)cc(Cl)c1OCc1ccccc1 (nonaromatic ring conformer: 74.18464885791518 kcal/mol)

>  <smiles>  (38) 
COc1cc(CN(C)CCN2CCOCC2)cc(Cl)c1OCc1ccccc1

>  <score_type>  (38) 
oracle

>  <origin>  (38) 
adg

>  <m_score__min__energy>  (38) 
-8.8599999999999994

>  <m_primary>  (38) 
energy

$$$$
38:0
     RDKit          3D

 69 71  0  0  0  0  0  0  0  0999 V2000
   -1.2000   21.8180  -31.1240 C   0  0  0  0  0  0  0  0  0  0  0  0
   -2.3260   20.8950  -30.6750 C   0  0  0  0  0  0  0  0  0  0  0  0
   -2.6910   21.1730  -29.3240 O   0  0  0  0  0  0  0  0  0  0  0  0
   -2.3660   20.3190  -28.2620 C   0  0  0  0  0  0  0  0  0  0  0  0
   -3.3770   19.9180  -27.3500 C   0  0  0  0  0  0  0  0  0  0  0  0
   -3.0690   19.0050  -26.3100 C   0  0  0  0  0  0  0  0  0  0  0  0
   -1.8840   18.3070  -26.3530 C   0  0  0  0  0  0  0  0  0  0  0  0
   -0.8290   18.7950  -27.1550 C   0  0  0  0  0  0  0  0  0  0  0  0
   -1.0320   19.8700  -28.0240 C   0  0  0  0  0  0  0  0  0  0  0  0
    0.1560   20.4240  -28.5700 O   0  0  0  0  0  0  0  0  0  0  0  0
    1.3410   20.8120  -27.8640 C   0  0  0  0  0  0  0  0  0  0  0  0
    1.1070   22.2370  -27.3180 C   0  0  0  0  0  0  0  0  0  0  0  0
   -0.2840   22.6930  -27.5960 N   0  0  0  0  0  0  0  0  0  0  0  0
   -0.2440   23.7810  -28.6050 C   0  0  0  0  0  0  0  0  0  0  0  0
   -1.6510   24.3580  -28.8680 C   0  0  0  0  0  0  0  0  0  0  0  0
   -2.6910   23.5680  -28.1870 N   0  0  0  0  0  0  0  0  0  0  0  0
   -4.0390   24.0580  -28.5140 C   0  0  0  0  0  0  0  0  0  0  0  0
   -4.3240   24.2260  -30.0070 C   0  0  0  0  0  0  0  0  0  0  0  0
   -3.8700   25.2840  -30.5500 O   0  0  0  0  0  0  0  0  0  0  0  0
   -5.2970   23.4490  -30.7310 N   0  0  0  0  0  0  0  0  0  0  0  0
   -6.2010   24.1760  -31.6430 C   0  0  0  0  0  0  0  0  0  0  0  0
   -7.3500   23.3360  -32.2760 C   0  0  0  0  0  0  0  0  0  0  0  0
   -7.1820   21.8470  -32.2620 N   0  0  0  0  0  0  0  0  0  0  0  0
   -8.1280   21.1770  -31.3310 C   0  0  0  0  0  0  0  0  0  0  0  0
   -9.4650   21.9330  -31.3430 C   0  0  0  0  0  0  0  0  0  0  0  0
   -8.4540   19.7070  -31.6850 C   0  0  0  0  0  0  0  0  0  0  0  0
   -5.7710   21.4610  -32.1330 C   0  0  0  0  0  0  0  0  0  0  0  0
   -5.1800   21.9760  -30.8270 C   0  0  0  0  0  0  0  0  0  0  0  0
   -2.4590   23.6400  -26.7360 C   0  0  0  0  0  0  0  0  0  0  0  0
   -1.0520   23.0830  -26.3730 C   0  0  0  0  0  0  0  0  0  0  0  0
   -0.6927   22.2339  -30.2410 H   0  0  0  0  0  0  0  0  0  0  0  0
   -0.4778   21.2486  -31.7276 H   0  0  0  0  0  0  0  0  0  0  0  0
   -1.6166   22.6379  -31.7276 H   0  0  0  0  0  0  0  0  0  0  0  0
   -3.2002   21.0477  -31.3250 H   0  0  0  0  0  0  0  0  0  0  0  0
   -1.9804   19.8529  -30.7430 H   0  0  0  0  0  0  0  0  0  0  0  0
   -4.3980   20.3150  -27.4500 H   0  0  0  0  0  0  0  0  0  0  0  0
   -3.7710   18.8560  -25.4763 H   0  0  0  0  0  0  0  0  0  0  0  0
   -1.7602   17.3819  -25.7709 H   0  0  0  0  0  0  0  0  0  0  0  0
    0.1631   18.3237  -27.0949 H   0  0  0  0  0  0  0  0  0  0  0  0
    1.5279   20.1167  -27.0324 H   0  0  0  0  0  0  0  0  0  0  0  0
    2.2154   20.7903  -28.5311 H   0  0  0  0  0  0  0  0  0  0  0  0
    1.2755   22.2380  -26.2310 H   0  0  0  0  0  0  0  0  0  0  0  0
    1.8073   22.9231  -27.8169 H   0  0  0  0  0  0  0  0  0  0  0  0
    0.4098   24.5858  -28.2377 H   0  0  0  0  0  0  0  0  0  0  0  0
    0.1408   23.3646  -29.5476 H   0  0  0  0  0  0  0  0  0  0  0  0
   -1.6882   25.3933  -28.4982 H   0  0  0  0  0  0  0  0  0  0  0  0
   -1.8429   24.3234  -29.9506 H   0  0  0  0  0  0  0  0  0  0  0  0
   -2.6170   22.5640  -28.4600 H   0  0  0  0  0  0  0  0  0  0  0  0
   -4.7694   23.3438  -28.1060 H   0  0  0  0  0  0  0  0  0  0  0  0
   -4.1150   25.0628  -28.0728 H   0  0  0  0  0  0  0  0  0  0  0  0
   -6.6590   25.0005  -31.0769 H   0  0  0  0  0  0  0  0  0  0  0  0
   -5.5735   24.5034  -32.4850 H   0  0  0  0  0  0  0  0  0  0  0  0
   -8.2752   23.5721  -31.7299 H   0  0  0  0  0  0  0  0  0  0  0  0
   -7.3600   23.6156  -33.3398 H   0  0  0  0  0  0  0  0  0  0  0  0
   -7.6239   21.1855  -30.3534 H   0  0  0  0  0  0  0  0  0  0  0  0
   -9.7912   22.1175  -30.3088 H   0  0  0  0  0  0  0  0  0  0  0  0
   -9.3386   22.8933  -31.8644 H   0  0  0  0  0  0  0  0  0  0  0  0
  -10.2227   21.3297  -31.8644 H   0  0  0  0  0  0  0  0  0  0  0  0
   -8.5827   19.1268  -30.7594 H   0  0  0  0  0  0  0  0  0  0  0  0
   -9.3824   19.6688  -32.2737 H   0  0  0  0  0  0  0  0  0  0  0  0
   -7.6287   19.2799  -32.2737 H   0  0  0  0  0  0  0  0  0  0  0  0
   -5.6951   20.3638  -32.1539 H   0  0  0  0  0  0  0  0  0  0  0  0
   -5.2095   21.9028  -32.9694 H   0  0  0  0  0  0  0  0  0  0  0  0
   -5.7180   21.5175  -29.9842 H   0  0  0  0  0  0  0  0  0  0  0  0
   -4.1134   21.7084  -30.7976 H   0  0  0  0  0  0  0  0  0  0  0  0
   -2.5263   24.6889  -26.4116 H   0  0  0  0  0  0  0  0  0  0  0  0
   -3.2211   23.0320  -26.2265 H   0  0  0  0  0  0  0  0  0  0  0  0
   -0.4903   23.8574  -25.8301 H   0  0  0  0  0  0  0  0  0  0  0  0
   -1.1862   22.1867  -25.7496 H   0  0  0  0  0  0  0  0  0  0  0  0
  1  2  1  0
  2  3  1  0
  3  4  1  0
  4  5  2  0
  5  6  1  0
  6  7  2  0
  7  8  1  0
  8  9  2  0
  9 10  1  0
 10 11  1  0
 11 12  1  0
 12 13  1  0
 13 14  1  0
 14 15  1  0
 15 16  1  0
 16 17  1  0
 17 18  1  0
 18 19  2  0
 18 20  1  0
 20 21  1  0
 21 22  1  0
 22 23  1  0
 23 24  1  0
 24 25  1  0
 24 26  1  0
 23 27  1  0
 27 28  1  0
 16 29  1  0
 29 30  1  0
  9  4  1  0
 30 13  1  0
 28 20  1  0
  1 31  1  0
  1 32  1  0
  1 33  1  0
  2 34  1  0
  2 35  1  0
  5 36  1  0
  6 37  1  0
  7 38  1  0
  8 39  1  0
 11 40  1  0
 11 41  1  0
 12 42  1  0
 12 43  1  0
 14 44  1  0
 14 45  1  0
 15 46  1  0
 15 47  1  0
 16 48  1  0
 17 49  1  0
 17 50  1  0
 21 51  1  0
 21 52  1  0
 22 53  1  0
 22 54  1  0
 24 55  1  0
 25 56  1  0
 25 57  1  0
 25 58  1  0
 26 59  1  0
 26 60  1  0
 26 61  1  0
 27 62  1  0
 27 63  1  0
 28 64  1  0
 28 65  1  0
 29 66  1  0
 29 67  1  0
 30 68  1  0
 30 69  1  0
M  CHG  1  16   1
M  END
>  <UniqueID>  (39) 
39

>  <SMILES>  (39) 
CCOc1ccccc1OCCN1CC[NH+](CC(=O)N2CCN(C(C)C)CC2)CC1

>  <Energy>  (39) 
125.17212467281242

>  <Genealogy>  (39) 
CCOc1ccccc1OCCN1CC[NH+](CC(=O)N2CCN(C(C)C)CC2)CC1 (protonated)
CCOc1ccccc1OCCN1CC[NH+](CC(=O)N2CCN(C(C)C)CC2)CC1 (3D coordinates assigned)
CCOc1ccccc1OCCN1CC[NH+](CC(=O)N2CCN(C(C)C)CC2)CC1 (nonaromatic ring conformer: 125.17212467281242 kcal/mol)

>  <smiles>  (39) 
CCOc1ccccc1OCCN1CCN(CC(=O)N2CCN(C(C)C)CC2)CC1

>  <score_type>  (39) 
oracle

>  <origin>  (39) 
adg

>  <m_score__min__energy>  (39) 
-8.7599999999999998

>  <m_primary>  (39) 
energy

$$$$
39:0
     RDKit          3D

 46 49  0  0  0  0  0  0  0  0999 V2000
   -6.8150   17.4880  -33.2620 C   0  0  0  0  0  0  0  0  0  0  0  0
   -7.4640   17.9350  -31.9530 C   0  0  0  0  0  0  0  0  0  0  0  0
   -8.9250   18.3780  -32.1370 C   0  0  0  0  0  0  0  0  0  0  0  0
   -9.0480   19.4880  -33.1000 N   0  0  0  0  0  0  0  0  0  0  0  0
   -9.3070   20.7740  -32.4280 C   0  0  0  0  0  0  0  0  0  0  0  0
   -8.0520   21.3590  -31.8260 C   0  0  0  0  0  0  0  0  0  0  0  0
   -6.8040   21.1320  -32.4210 C   0  0  0  0  0  0  0  0  0  0  0  0
   -5.6470   21.6970  -31.8770 C   0  0  0  0  0  0  0  0  0  0  0  0
   -5.7170   22.5070  -30.7280 C   0  0  0  0  0  0  0  0  0  0  0  0
   -4.4810   23.1050  -30.1570 C   0  0  0  0  0  0  0  0  0  0  0  0
   -3.1630   22.7940  -30.5020 C   0  0  0  0  0  0  0  0  0  0  0  0
   -2.2060   23.5240  -29.7860 C   0  0  0  0  0  0  0  0  0  0  0  0
   -2.7590   24.4120  -28.8720 C   0  0  0  0  0  0  0  0  0  0  0  0
   -2.0140   25.3080  -27.9800 C   0  0  0  0  0  0  0  0  0  0  0  0
   -1.2360   26.3220  -28.4430 N   0  0  0  0  0  0  0  0  0  0  0  0
   -0.7610   26.8620  -27.3120 C   0  0  0  0  0  0  0  0  0  0  0  0
    0.1010   27.9490  -27.1820 C   0  0  0  0  0  0  0  0  0  0  0  0
    0.4660   28.3400  -25.8800 C   0  0  0  0  0  0  0  0  0  0  0  0
   -0.0340   27.6420  -24.7570 C   0  0  0  0  0  0  0  0  0  0  0  0
   -0.9030   26.5480  -24.9280 C   0  0  0  0  0  0  0  0  0  0  0  0
   -1.2430   26.1910  -26.2310 C   0  0  0  0  0  0  0  0  0  0  0  0
   -2.0450   25.1920  -26.6260 N   0  0  0  0  0  0  0  0  0  0  0  0
   -4.4320   24.2890  -28.9540 S   0  0  0  0  0  0  0  0  0  0  0  0
   -6.9740   22.7340  -30.1370 C   0  0  0  0  0  0  0  0  0  0  0  0
   -8.1290   22.1670  -30.6830 C   0  0  0  0  0  0  0  0  0  0  0  0
   -5.9275   16.8767  -33.0412 H   0  0  0  0  0  0  0  0  0  0  0  0
   -7.5346   16.8930  -33.8436 H   0  0  0  0  0  0  0  0  0  0  0  0
   -6.5157   18.3724  -33.8436 H   0  0  0  0  0  0  0  0  0  0  0  0
   -7.4374   17.0958  -31.2423 H   0  0  0  0  0  0  0  0  0  0  0  0
   -6.8981   18.8014  -31.5801 H   0  0  0  0  0  0  0  0  0  0  0  0
   -9.5120   17.5230  -32.5036 H   0  0  0  0  0  0  0  0  0  0  0  0
   -9.2990   18.7291  -31.1639 H   0  0  0  0  0  0  0  0  0  0  0  0
   -8.1750   19.5680  -33.6710 H   0  0  0  0  0  0  0  0  0  0  0  0
   -9.8490   19.2970  -33.7450 H   0  0  0  0  0  0  0  0  0  0  0  0
   -9.7126   21.4841  -33.1637 H   0  0  0  0  0  0  0  0  0  0  0  0
  -10.0234   20.5939  -31.6130 H   0  0  0  0  0  0  0  0  0  0  0  0
   -6.7342   20.5050  -33.3221 H   0  0  0  0  0  0  0  0  0  0  0  0
   -4.6728   21.5069  -32.3512 H   0  0  0  0  0  0  0  0  0  0  0  0
   -2.9016   22.0457  -31.2647 H   0  0  0  0  0  0  0  0  0  0  0  0
   -1.1223   23.4058  -29.9330 H   0  0  0  0  0  0  0  0  0  0  0  0
    0.4826   28.4824  -28.0651 H   0  0  0  0  0  0  0  0  0  0  0  0
    1.1444   29.1938  -25.7355 H   0  0  0  0  0  0  0  0  0  0  0  0
    0.2577   27.9556  -23.7438 H   0  0  0  0  0  0  0  0  0  0  0  0
   -1.2994   25.9948  -24.0638 H   0  0  0  0  0  0  0  0  0  0  0  0
   -7.0481   23.3630  -29.2377 H   0  0  0  0  0  0  0  0  0  0  0  0
   -9.1052   22.3561  -30.2126 H   0  0  0  0  0  0  0  0  0  0  0  0
  1  2  1  0
  2  3  1  0
  3  4  1  0
  4  5  1  0
  5  6  1  0
  6  7  2  0
  7  8  1  0
  8  9  2  0
  9 10  1  0
 10 11  2  0
 11 12  1  0
 12 13  2  0
 13 14  1  0
 14 15  2  0
 15 16  1  0
 16 17  2  0
 17 18  1  0
 18 19  2  0
 19 20  1  0
 20 21  2  0
 21 22  1  0
 13 23  1  0
  9 24  1  0
 24 25  2  0
 25  6  1  0
 23 10  1  0
 22 14  1  0
 21 16  1  0
  1 26  1  0
  1 27  1  0
  1 28  1  0
  2 29  1  0
  2 30  1  0
  3 31  1  0
  3 32  1  0
  4 33  1  0
  4 34  1  0
  5 35  1  0
  5 36  1  0
  7 37  1  0
  8 38  1  0
 11 39  1  0
 12 40  1  0
 17 41  1  0
 18 42  1  0
 19 43  1  0
 20 44  1  0
 24 45  1  0
 25 46  1  0
M  CHG  2   4   1  22  -1
M  END
>  <UniqueID>  (40) 
40

>  <SMILES>  (40) 
CCC[NH2+]Cc1ccc(-c2ccc(-c3nc4ccccc4[n-]3)s2)cc1

>  <Energy>  (40) 
108.13983431936693

>  <Genealogy>  (40) 
CCC[NH2+]Cc1ccc(-c2ccc(-c3nc4ccccc4[n-]3)s2)cc1 (protonated)
CCC[NH2+]Cc1ccc(-c2ccc(-c3nc4ccccc4[n-]3)s2)cc1 (3D coordinates assigned)
CCC[NH2+]Cc1ccc(-c2ccc(-c3nc4ccccc4[n-]3)s2)cc1 (optimized conformer: 108.13983431936693 kcal/mol)

>  <smiles>  (40) 
CCCNCc1ccc(-c2ccc(-c3nc4ccccc4[nH]3)s2)cc1

>  <score_type>  (40) 
oracle

>  <origin>  (40) 
adg

>  <m_score__min__energy>  (40) 
-8.6600000000000001

>  <m_primary>  (40) 
energy

$$$$
40:0
     RDKit          3D

 47 49  0  0  0  0  0  0  0  0999 V2000
   -5.7210   23.5460  -32.4250 O   0  0  0  0  0  0  0  0  0  0  0  0
   -7.0750   23.2330  -32.2020 C   0  0  2  0  0  0  0  0  0  0  0  0
   -7.6010   23.8390  -30.8720 C   0  0  0  0  0  0  0  0  0  0  0  0
   -6.6140   23.9430  -29.7600 N   0  0  0  0  0  0  0  0  0  0  0  0
   -5.7370   25.1480  -29.8100 C   0  0  0  0  0  0  0  0  0  0  0  0
   -4.3710   24.9240  -30.4720 C   0  0  0  0  0  0  0  0  0  0  0  0
   -3.7830   23.6800  -29.9910 N   0  0  0  0  0  0  0  0  0  0  0  0
   -2.5810   23.6940  -29.2040 C   0  0  0  0  0  0  0  0  0  0  0  0
   -2.5040   24.5520  -28.0970 C   0  0  0  0  0  0  0  0  0  0  0  0
   -1.3650   24.5670  -27.2920 C   0  0  0  0  0  0  0  0  0  0  0  0
   -0.2960   23.7180  -27.5810 C   0  0  0  0  0  0  0  0  0  0  0  0
   -0.3580   22.8600  -28.6810 C   0  0  0  0  0  0  0  0  0  0  0  0
   -1.4910   22.8470  -29.5200 C   0  0  0  0  0  0  0  0  0  0  0  0
   -1.5480   21.9080  -30.7060 C   0  0  0  0  0  0  0  0  0  0  0  0
   -0.2700   21.6130  -31.1470 F   0  0  0  0  0  0  0  0  0  0  0  0
   -2.2580   22.5040  -31.7320 F   0  0  0  0  0  0  0  0  0  0  0  0
   -2.1670   20.7140  -30.3760 F   0  0  0  0  0  0  0  0  0  0  0  0
   -4.5790   22.4660  -30.1020 C   0  0  0  0  0  0  0  0  0  0  0  0
   -5.9280   22.6730  -29.3990 C   0  0  0  0  0  0  0  0  0  0  0  0
   -7.2810   21.7270  -32.2560 C   0  0  0  0  0  0  0  0  0  0  0  0
   -8.5180   21.1820  -31.8610 C   0  0  0  0  0  0  0  0  0  0  0  0
   -8.7340   19.8010  -31.9050 C   0  0  0  0  0  0  0  0  0  0  0  0
   -7.7220   18.9470  -32.3450 C   0  0  0  0  0  0  0  0  0  0  0  0
   -7.9340   17.6080  -32.3910 F   0  0  0  0  0  0  0  0  0  0  0  0
   -6.4910   19.4720  -32.7440 C   0  0  0  0  0  0  0  0  0  0  0  0
   -6.2650   20.8520  -32.7030 C   0  0  0  0  0  0  0  0  0  0  0  0
   -5.0540   21.3220  -33.0930 F   0  0  0  0  0  0  0  0  0  0  0  0
   -5.5210   23.4100  -33.3860 H   0  0  0  0  0  0  0  0  0  0  0  0
   -7.6680   23.6919  -33.0068 H   0  0  0  0  0  0  0  0  0  0  0  0
   -7.9710   24.8521  -31.0881 H   0  0  0  0  0  0  0  0  0  0  0  0
   -8.3730   23.1411  -30.5158 H   0  0  0  0  0  0  0  0  0  0  0  0
   -7.2330   24.1310  -28.9330 H   0  0  0  0  0  0  0  0  0  0  0  0
   -6.2651   25.9322  -30.3723 H   0  0  0  0  0  0  0  0  0  0  0  0
   -5.5325   25.4251  -28.7653 H   0  0  0  0  0  0  0  0  0  0  0  0
   -4.4995   24.8684  -31.5631 H   0  0  0  0  0  0  0  0  0  0  0  0
   -3.7043   25.7611  -30.2175 H   0  0  0  0  0  0  0  0  0  0  0  0
   -3.3477   25.2176  -27.8621 H   0  0  0  0  0  0  0  0  0  0  0  0
   -1.3095   25.2478  -26.4298 H   0  0  0  0  0  0  0  0  0  0  0  0
    0.5982   23.7246  -26.9404 H   0  0  0  0  0  0  0  0  0  0  0  0
    0.4857   22.1874  -28.8951 H   0  0  0  0  0  0  0  0  0  0  0  0
   -4.7504   22.2356  -31.1639 H   0  0  0  0  0  0  0  0  0  0  0  0
   -4.0425   21.6310  -29.6278 H   0  0  0  0  0  0  0  0  0  0  0  0
   -6.5889   21.8355  -29.6668 H   0  0  0  0  0  0  0  0  0  0  0  0
   -5.7187   22.7218  -28.3202 H   0  0  0  0  0  0  0  0  0  0  0  0
   -9.3216   21.8486  -31.5147 H   0  0  0  0  0  0  0  0  0  0  0  0
   -9.7039   19.3870  -31.5920 H   0  0  0  0  0  0  0  0  0  0  0  0
   -5.6952   18.7972  -33.0922 H   0  0  0  0  0  0  0  0  0  0  0  0
  1  2  1  0
  2  3  1  0
  3  4  1  0
  4  5  1  0
  5  6  1  0
  6  7  1  0
  7  8  1  0
  8  9  2  0
  9 10  1  0
 10 11  2  0
 11 12  1  0
 12 13  2  0
 13 14  1  0
 14 15  1  0
 14 16  1  0
 14 17  1  0
  7 18  1  0
 18 19  1  0
  2 20  1  0
 20 21  2  0
 21 22  1  0
 22 23  2  0
 23 24  1  0
 23 25  1  0
 25 26  2  0
 26 27  1  0
 19  4  1  0
 26 20  1  0
 13  8  1  0
  1 28  1  0
  2 29  1  6
  3 30  1  0
  3 31  1  0
  4 32  1  0
  5 33  1  0
  5 34  1  0
  6 35  1  0
  6 36  1  0
  9 37  1  0
 10 38  1  0
 11 39  1  0
 12 40  1  0
 18 41  1  0
 18 42  1  0
 19 43  1  0
 19 44  1  0
 21 45  1  0
 22 46  1  0
 25 47  1  0
M  CHG  1   4   1
M  END
>  <UniqueID>  (41) 
41

>  <SMILES>  (41) 
O[C@H](C[NH+]1CCN(c2ccccc2C(F)(F)F)CC1)c1ccc(F)cc1F

>  <Energy>  (41) 
72.57281839877503

>  <Genealogy>  (41) 
OC(C[NH+]1CCN(c2ccccc2C(F)(F)F)CC1)c1ccc(F)cc1F (protonated)
O[C@H](C[NH+]1CCN(c2ccccc2C(F)(F)F)CC1)c1ccc(F)cc1F (chirality)
O[C@H](C[NH+]1CCN(c2ccccc2C(F)(F)F)CC1)c1ccc(F)cc1F (3D coordinates assigned)
O[C@H](C[NH+]1CCN(c2ccccc2C(F)(F)F)CC1)c1ccc(F)cc1F (nonaromatic ring conformer: 72.57281839877503 kcal/mol)

>  <smiles>  (41) 
OC(CN1CCN(c2ccccc2C(F)(F)F)CC1)c1ccc(F)cc1F

>  <score_type>  (41) 
oracle

>  <origin>  (41) 
adg

>  <m_score__min__energy>  (41) 
-6.4699999999999998

>  <m_primary>  (41) 
energy

$$$$
41:0
     RDKit          3D

 45 44  0  0  0  0  0  0  0  0999 V2000
   -4.1150   23.7870  -28.2870 C   0  0  0  0  0  0  0  0  0  0  0  0
   -3.3200   24.1900  -29.5230 C   0  0  0  0  0  0  0  0  0  0  0  0
   -4.2380   24.5150  -30.6220 N   0  0  0  0  0  0  0  0  0  0  0  0
   -5.3820   25.3180  -30.1610 C   0  0  0  0  0  0  0  0  0  0  0  0
   -6.7210   24.5980  -30.4360 C   0  0  0  0  0  0  0  0  0  0  0  0
   -6.6130   23.1780  -30.8680 N   0  0  1  0  0  0  0  0  0  0  0  0
   -7.6280   22.2810  -30.2370 C   0  0  0  0  0  0  0  0  0  0  0  0
   -8.8520   21.9340  -31.1080 C   0  0  0  0  0  0  0  0  0  0  0  0
   -8.7370   20.2480  -31.6710 Cl  0  0  0  0  0  0  0  0  0  0  0  0
   -6.4560   23.0370  -32.3410 C   0  0  0  0  0  0  0  0  0  0  0  0
   -5.1120   22.3580  -32.7170 C   0  0  0  0  0  0  0  0  0  0  0  0
   -4.5470   21.5170  -31.6370 N   0  0  0  0  0  0  0  0  0  0  0  0
   -3.0680   21.5720  -31.5680 C   0  0  0  0  0  0  0  0  0  0  0  0
   -2.4960   21.5280  -32.9800 C   0  0  0  0  0  0  0  0  0  0  0  0
   -0.7960   20.9940  -32.9440 Cl  0  0  0  0  0  0  0  0  0  0  0  0
   -5.0920   20.1430  -31.6240 C   0  0  0  0  0  0  0  0  0  0  0  0
   -5.5020   19.7140  -33.0330 C   0  0  0  0  0  0  0  0  0  0  0  0
   -6.2390   18.0920  -32.9890 Cl  0  0  0  0  0  0  0  0  0  0  0  0
   -3.5560   24.0704  -27.3830 H   0  0  0  0  0  0  0  0  0  0  0  0
   -5.0875   24.3010  -28.2929 H   0  0  0  0  0  0  0  0  0  0  0  0
   -4.2753   22.6988  -28.2929 H   0  0  0  0  0  0  0  0  0  0  0  0
   -2.7039   25.0708  -29.2895 H   0  0  0  0  0  0  0  0  0  0  0  0
   -2.6726   23.3541  -29.8264 H   0  0  0  0  0  0  0  0  0  0  0  0
   -4.6130   23.6100  -30.9950 H   0  0  0  0  0  0  0  0  0  0  0  0
   -5.2846   25.4924  -29.0793 H   0  0  0  0  0  0  0  0  0  0  0  0
   -5.3811   26.2708  -30.7107 H   0  0  0  0  0  0  0  0  0  0  0  0
   -7.3158   24.6256  -29.5111 H   0  0  0  0  0  0  0  0  0  0  0  0
   -7.1821   25.1337  -31.2789 H   0  0  0  0  0  0  0  0  0  0  0  0
   -5.6960   22.8770  -30.4570 H   0  0  0  0  0  0  0  0  0  0  0  0
   -7.1263   21.3393  -29.9698 H   0  0  0  0  0  0  0  0  0  0  0  0
   -8.0236   22.8380  -29.3749 H   0  0  0  0  0  0  0  0  0  0  0  0
   -9.7694   22.0584  -30.5140 H   0  0  0  0  0  0  0  0  0  0  0  0
   -8.8789   22.6056  -31.9788 H   0  0  0  0  0  0  0  0  0  0  0  0
   -7.2841   22.4264  -32.7301 H   0  0  0  0  0  0  0  0  0  0  0  0
   -6.4646   24.0443  -32.7829 H   0  0  0  0  0  0  0  0  0  0  0  0
   -5.2786   21.7235  -33.6000 H   0  0  0  0  0  0  0  0  0  0  0  0
   -4.3878   23.1634  -32.9093 H   0  0  0  0  0  0  0  0  0  0  0  0
   -2.7576   22.5049  -31.0747 H   0  0  0  0  0  0  0  0  0  0  0  0
   -2.6937   20.7130  -30.9918 H   0  0  0  0  0  0  0  0  0  0  0  0
   -3.0842   20.8247  -33.5878 H   0  0  0  0  0  0  0  0  0  0  0  0
   -2.5445   22.5364  -33.4167 H   0  0  0  0  0  0  0  0  0  0  0  0
   -4.3238   19.4529  -31.2450 H   0  0  0  0  0  0  0  0  0  0  0  0
   -5.9788   20.1191  -30.9736 H   0  0  0  0  0  0  0  0  0  0  0  0
   -6.2302   20.4338  -33.4350 H   0  0  0  0  0  0  0  0  0  0  0  0
   -4.6093   19.6866  -33.6751 H   0  0  0  0  0  0  0  0  0  0  0  0
  1  2  1  0
  2  3  1  0
  3  4  1  0
  4  5  1  0
  5  6  1  0
  6  7  1  0
  7  8  1  0
  8  9  1  0
  6 10  1  0
 10 11  1  0
 11 12  1  0
 12 13  1  0
 13 14  1  0
 14 15  1  0
 12 16  1  0
 16 17  1  0
 17 18  1  0
  1 19  1  0
  1 20  1  0
  1 21  1  0
  2 22  1  0
  2 23  1  0
  3 24  1  0
  4 25  1  0
  4 26  1  0
  5 27  1  0
  5 28  1  0
  6 29  1  1
  7 30  1  0
  7 31  1  0
  8 32  1  0
  8 33  1  0
 10 34  1  0
 10 35  1  0
 11 36  1  0
 11 37  1  0
 13 38  1  0
 13 39  1  0
 14 40  1  0
 14 41  1  0
 16 42  1  0
 16 43  1  0
 17 44  1  0
 17 45  1  0
M  CHG  1   6   1
M  END
>  <UniqueID>  (42) 
42

>  <SMILES>  (42) 
CCNCC[N@@H+](CCCl)CCN(CCCl)CCCl

>  <Energy>  (42) 
46.071900136478774

>  <Genealogy>  (42) 
CCNCC[NH+](CCCl)CCN(CCCl)CCCl (protonated)
CCNCC[N@@H+](CCCl)CCN(CCCl)CCCl (chirality)
CCNCC[N@@H+](CCCl)CCN(CCCl)CCCl (3D coordinates assigned)
CCNCC[N@@H+](CCCl)CCN(CCCl)CCCl (optimized conformer: 46.071900136478774 kcal/mol)

>  <smiles>  (42) 
CCNCCN(CCCl)CCN(CCCl)CCCl

>  <score_type>  (42) 
oracle

>  <origin>  (42) 
adg

>  <m_score__min__energy>  (42) 
-5.3499999999999996

>  <m_primary>  (42) 
energy

$$$$
