0:0
     RDKit          3D

 40 40  0  0  0  0  0  0  0  0999 V2000
   -6.0940   19.6640  -33.7870 C   0  0  0  0  0  0  0  0  0  0  0  0
   -6.6250   18.4050  -33.1020 C   0  0  0  0  0  0  0  0  0  0  0  0
   -7.2820   18.7050  -31.7390 C   0  0  0  0  0  0  0  0  0  0  0  0
   -8.7820   19.0450  -31.8300 C   0  0  0  0  0  0  0  0  0  0  0  0
   -9.0990   20.4830  -32.2770 C   0  0  0  0  0  0  0  0  0  0  0  0
   -8.6450   21.5850  -31.3010 C   0  0  0  0  0  0  0  0  0  0  0  0
   -8.4880   22.9780  -31.9510 C   0  0  0  0  0  0  0  0  0  0  0  0
   -7.3210   23.7940  -31.3770 C   0  0  0  0  0  0  0  0  0  0  0  0
   -6.0640   23.4370  -32.0380 N   0  0  0  0  0  0  0  0  0  0  0  0
   -4.8690   23.1220  -31.3040 C   0  0  0  0  0  0  0  0  0  0  0  0
   -4.3530   21.8160  -31.3370 C   0  0  0  0  0  0  0  0  0  0  0  0
   -3.1900   21.4950  -30.6330 C   0  0  0  0  0  0  0  0  0  0  0  0
   -2.5270   22.4760  -29.8960 C   0  0  0  0  0  0  0  0  0  0  0  0
   -3.0220   23.7810  -29.8610 C   0  0  0  0  0  0  0  0  0  0  0  0
   -4.1940   24.1160  -30.5580 C   0  0  0  0  0  0  0  0  0  0  0  0
   -4.7030   25.4540  -30.4600 N   0  0  0  0  0  0  0  0  0  0  0  0
   -5.7860   20.3943  -33.0242 H   0  0  0  0  0  0  0  0  0  0  0  0
   -5.2294   19.4029  -34.4149 H   0  0  0  0  0  0  0  0  0  0  0  0
   -6.8845   20.1009  -34.4149 H   0  0  0  0  0  0  0  0  0  0  0  0
   -7.3727   17.9354  -33.7580 H   0  0  0  0  0  0  0  0  0  0  0  0
   -5.7695   17.7379  -32.9204 H   0  0  0  0  0  0  0  0  0  0  0  0
   -7.1659   17.8198  -31.0963 H   0  0  0  0  0  0  0  0  0  0  0  0
   -6.7777   19.5930  -31.3302 H   0  0  0  0  0  0  0  0  0  0  0  0
   -9.2450   18.3543  -32.5502 H   0  0  0  0  0  0  0  0  0  0  0  0
   -9.1812   18.9461  -30.8098 H   0  0  0  0  0  0  0  0  0  0  0  0
   -8.6021   20.6571  -33.2428 H   0  0  0  0  0  0  0  0  0  0  0  0
  -10.1955   20.5530  -32.3300 H   0  0  0  0  0  0  0  0  0  0  0  0
   -9.3903   21.6616  -30.4956 H   0  0  0  0  0  0  0  0  0  0  0  0
   -7.6504   21.2928  -30.9331 H   0  0  0  0  0  0  0  0  0  0  0  0
   -8.3203   22.8420  -33.0296 H   0  0  0  0  0  0  0  0  0  0  0  0
   -9.4100   23.5394  -31.7395 H   0  0  0  0  0  0  0  0  0  0  0  0
   -7.5188   24.8649  -31.5320 H   0  0  0  0  0  0  0  0  0  0  0  0
   -7.2304   23.5736  -30.3031 H   0  0  0  0  0  0  0  0  0  0  0  0
   -6.0210   23.5020  -33.0790 H   0  0  0  0  0  0  0  0  0  0  0  0
   -4.8687   21.0400  -31.9217 H   0  0  0  0  0  0  0  0  0  0  0  0
   -2.7969   20.4680  -30.6599 H   0  0  0  0  0  0  0  0  0  0  0  0
   -1.6121   22.2210  -29.3411 H   0  0  0  0  0  0  0  0  0  0  0  0
   -2.4904   24.5518  -29.2836 H   0  0  0  0  0  0  0  0  0  0  0  0
   -4.9360   25.8930  -29.5430 H   0  0  0  0  0  0  0  0  0  0  0  0
   -4.7990   26.0480  -31.3130 H   0  0  0  0  0  0  0  0  0  0  0  0
  1  2  1  0
  2  3  1  0
  3  4  1  0
  4  5  1  0
  5  6  1  0
  6  7  1  0
  7  8  1  0
  8  9  1  0
  9 10  1  0
 10 11  2  0
 11 12  1  0
 12 13  2  0
 13 14  1  0
 14 15  2  0
 15 16  1  0
 15 10  1  0
  1 17  1  0
  1 18  1  0
  1 19  1  0
  2 20  1  0
  2 21  1  0
  3 22  1  0
  3 23  1  0
  4 24  1  0
  4 25  1  0
  5 26  1  0
  5 27  1  0
  6 28  1  0
  6 29  1  0
  7 30  1  0
  7 31  1  0
  8 32  1  0
  8 33  1  0
  9 34  1  0
 11 35  1  0
 12 36  1  0
 13 37  1  0
 14 38  1  0
 16 39  1  0
 16 40  1  0
M  END
>  <UniqueID>  (1) 
1

>  <SMILES>  (1) 
CCCCCCCCNc1ccccc1N

>  <Energy>  (1) 
31.052314301673366

>  <Genealogy>  (1) 
CCCCCCCCNc1ccccc1N (3D coordinates assigned)
CCCCCCCCNc1ccccc1N (optimized conformer: 31.052314301673366 kcal/mol)

>  <smiles>  (1) 
CCCCCCCCNc1ccccc1N

>  <score_type>  (1) 
oracle

>  <origin>  (1) 
adg

>  <m_score__min__energy>  (1) 
-6.5

>  <m_primary>  (1) 
energy

$$$$
1:0
     RDKit          3D

 58 60  0  0  0  0  0  0  0  0999 V2000
   -6.6690   16.6570  -34.2210 C   0  0  0  0  0  0  0  0  0  0  0  0
   -6.3930   17.5090  -33.0480 N   0  0  0  0  0  0  0  0  0  0  0  0
   -5.3510   16.9250  -32.1740 C   0  0  0  0  0  0  0  0  0  0  0  0
   -4.3060   16.0840  -32.9460 C   0  0  0  0  0  0  0  0  0  0  0  0
   -3.1250   16.8250  -33.4790 N   0  0  1  0  0  0  0  0  0  0  0  0
   -2.3080   15.9820  -34.3770 C   0  0  0  0  0  0  0  0  0  0  0  0
   -3.4160   18.1270  -34.1370 C   0  0  0  0  0  0  0  0  0  0  0  0
   -3.1630   19.3340  -33.2660 C   0  0  0  0  0  0  0  0  0  0  0  0
   -3.9100   20.5130  -33.3940 C   0  0  0  0  0  0  0  0  0  0  0  0
   -3.6010   21.6020  -32.5760 C   0  0  0  0  0  0  0  0  0  0  0  0
   -4.2410   22.6810  -32.6910 O   0  0  0  0  0  0  0  0  0  0  0  0
   -2.5720   21.4900  -31.6280 C   0  0  0  0  0  0  0  0  0  0  0  0
   -2.2630   22.5920  -30.8160 O   0  0  0  0  0  0  0  0  0  0  0  0
   -2.8850   22.8870  -29.5630 C   0  0  0  0  0  0  0  0  0  0  0  0
   -4.2020   23.5850  -29.7750 C   0  0  0  0  0  0  0  0  0  0  0  0
   -5.4160   22.9190  -29.5350 C   0  0  0  0  0  0  0  0  0  0  0  0
   -6.6330   23.5770  -29.7310 C   0  0  0  0  0  0  0  0  0  0  0  0
   -6.6480   24.8990  -30.1880 C   0  0  0  0  0  0  0  0  0  0  0  0
   -5.4470   25.5650  -30.4470 C   0  0  0  0  0  0  0  0  0  0  0  0
   -4.2270   24.9140  -30.2420 C   0  0  0  0  0  0  0  0  0  0  0  0
   -1.8970   20.2600  -31.5330 C   0  0  0  0  0  0  0  0  0  0  0  0
   -2.2080   19.2530  -32.3390 O   0  0  0  0  0  0  0  0  0  0  0  0
   -7.6330   17.8330  -32.2970 C   0  0  0  0  0  0  0  0  0  0  0  0
   -7.9160   19.3200  -32.2040 C   0  0  0  0  0  0  0  0  0  0  0  0
   -6.8930   20.2610  -32.4320 C   0  0  0  0  0  0  0  0  0  0  0  0
   -7.1500   21.6300  -32.2990 C   0  0  0  0  0  0  0  0  0  0  0  0
   -8.4300   22.0730  -31.9520 C   0  0  0  0  0  0  0  0  0  0  0  0
   -9.4570   21.1460  -31.7420 C   0  0  0  0  0  0  0  0  0  0  0  0
   -9.2020   19.7770  -31.8700 C   0  0  0  0  0  0  0  0  0  0  0  0
   -6.9916   15.6611  -33.8831 H   0  0  0  0  0  0  0  0  0  0  0  0
   -7.4650   17.1142  -34.8271 H   0  0  0  0  0  0  0  0  0  0  0  0
   -5.7561   16.5606  -34.8271 H   0  0  0  0  0  0  0  0  0  0  0  0
   -4.8282   17.7441  -31.6585 H   0  0  0  0  0  0  0  0  0  0  0  0
   -5.8577   16.2489  -31.4696 H   0  0  0  0  0  0  0  0  0  0  0  0
   -3.9334   15.3047  -32.2649 H   0  0  0  0  0  0  0  0  0  0  0  0
   -4.8346   15.6988  -33.8304 H   0  0  0  0  0  0  0  0  0  0  0  0
   -2.5160   17.0290  -32.6510 H   0  0  0  0  0  0  0  0  0  0  0  0
   -1.6668   15.3204  -33.7760 H   0  0  0  0  0  0  0  0  0  0  0  0
   -2.9695   15.3740  -35.0116 H   0  0  0  0  0  0  0  0  0  0  0  0
   -1.6796   16.6242  -35.0116 H   0  0  0  0  0  0  0  0  0  0  0  0
   -2.7825   18.2096  -35.0325 H   0  0  0  0  0  0  0  0  0  0  0  0
   -4.4906   18.1279  -34.3718 H   0  0  0  0  0  0  0  0  0  0  0  0
   -4.7271   20.5796  -34.1275 H   0  0  0  0  0  0  0  0  0  0  0  0
   -3.0575   21.9487  -29.0155 H   0  0  0  0  0  0  0  0  0  0  0  0
   -2.2224   23.5488  -28.9859 H   0  0  0  0  0  0  0  0  0  0  0  0
   -5.4081   21.8742  -29.1910 H   0  0  0  0  0  0  0  0  0  0  0  0
   -7.5795   23.0553  -29.5259 H   0  0  0  0  0  0  0  0  0  0  0  0
   -7.6068   25.4152  -30.3438 H   0  0  0  0  0  0  0  0  0  0  0  0
   -5.4617   26.6024  -30.8125 H   0  0  0  0  0  0  0  0  0  0  0  0
   -3.2833   25.4412  -30.4460 H   0  0  0  0  0  0  0  0  0  0  0  0
   -1.1029   20.1314  -30.7827 H   0  0  0  0  0  0  0  0  0  0  0  0
   -8.4818   17.3485  -32.8018 H   0  0  0  0  0  0  0  0  0  0  0  0
   -7.4925   17.4667  -31.2693 H   0  0  0  0  0  0  0  0  0  0  0  0
   -5.8872   19.9180  -32.7160 H   0  0  0  0  0  0  0  0  0  0  0  0
   -6.3437   22.3590  -32.4677 H   0  0  0  0  0  0  0  0  0  0  0  0
   -8.6295   23.1494  -31.8442 H   0  0  0  0  0  0  0  0  0  0  0  0
  -10.4659   21.4945  -31.4760 H   0  0  0  0  0  0  0  0  0  0  0  0
  -10.0140   19.0528  -31.7081 H   0  0  0  0  0  0  0  0  0  0  0  0
  1  2  1  0
  2  3  1  0
  3  4  1  0
  4  5  1  0
  5  6  1  0
  5  7  1  0
  7  8  1  0
  8  9  2  0
  9 10  1  0
 10 11  2  0
 10 12  1  0
 12 13  1  0
 13 14  1  0
 14 15  1  0
 15 16  2  0
 16 17  1  0
 17 18  2  0
 18 19  1  0
 19 20  2  0
 12 21  2  0
 21 22  1  0
  2 23  1  0
 23 24  1  0
 24 25  2  0
 25 26  1  0
 26 27  2  0
 27 28  1  0
 28 29  2  0
 22  8  1  0
 29 24  1  0
 20 15  1  0
  1 30  1  0
  1 31  1  0
  1 32  1  0
  3 33  1  0
  3 34  1  0
  4 35  1  0
  4 36  1  0
  5 37  1  1
  6 38  1  0
  6 39  1  0
  6 40  1  0
  7 41  1  0
  7 42  1  0
  9 43  1  0
 14 44  1  0
 14 45  1  0
 16 46  1  0
 17 47  1  0
 18 48  1  0
 19 49  1  0
 20 50  1  0
 21 51  1  0
 23 52  1  0
 23 53  1  0
 25 54  1  0
 26 55  1  0
 27 56  1  0
 28 57  1  0
 29 58  1  0
M  CHG  1   5   1
M  END
>  <UniqueID>  (2) 
2

>  <SMILES>  (2) 
CN(CC[N@@H+](C)Cc1cc(=O)c(OCc2ccccc2)co1)Cc1ccccc1

>  <Energy>  (2) 
69.52016399135731

>  <Genealogy>  (2) 
CN(CC[NH+](C)Cc1cc(=O)c(OCc2ccccc2)co1)Cc1ccccc1 (protonated)
CN(CC[N@@H+](C)Cc1cc(=O)c(OCc2ccccc2)co1)Cc1ccccc1 (chirality)
CN(CC[N@@H+](C)Cc1cc(=O)c(OCc2ccccc2)co1)Cc1ccccc1 (3D coordinates assigned)
CN(CC[N@@H+](C)Cc1cc(=O)c(OCc2ccccc2)co1)Cc1ccccc1 (optimized conformer: 69.52016399135731 kcal/mol)

>  <smiles>  (2) 
CN(CCN(C)Cc1cc(=O)c(OCc2ccccc2)co1)Cc1ccccc1

>  <score_type>  (2) 
oracle

>  <origin>  (2) 
adg

>  <m_score__min__energy>  (2) 
-7.6100000000000003

>  <m_primary>  (2) 
energy

$$$$
2:0
     RDKit          3D

 55 57  0  0  0  0  0  0  0  0999 V2000
   -8.2780   23.2960  -31.9770 C   0  0  0  0  0  0  0  0  0  0  0  0
   -7.2050   22.3740  -32.1420 O   0  0  0  0  0  0  0  0  0  0  0  0
   -7.3560   20.9800  -32.2240 C   0  0  0  0  0  0  0  0  0  0  0  0
   -8.5880   20.3880  -32.5660 C   0  0  0  0  0  0  0  0  0  0  0  0
   -8.7010   19.0000  -32.6750 C   0  0  0  0  0  0  0  0  0  0  0  0
   -7.5920   18.1870  -32.4470 C   0  0  0  0  0  0  0  0  0  0  0  0
   -6.3650   18.7580  -32.1020 C   0  0  0  0  0  0  0  0  0  0  0  0
   -6.2370   20.1520  -31.9780 C   0  0  0  0  0  0  0  0  0  0  0  0
   -4.9260   20.7320  -31.6000 C   0  0  0  0  0  0  0  0  0  0  0  0
   -4.2040   20.2150  -30.5130 C   0  0  0  0  0  0  0  0  0  0  0  0
   -2.9690   20.7660  -30.1580 C   0  0  0  0  0  0  0  0  0  0  0  0
   -2.4370   21.8450  -30.8820 C   0  0  0  0  0  0  0  0  0  0  0  0
   -1.1250   22.4620  -30.4690 C   0  0  0  0  0  0  0  0  0  0  0  0
   -1.2510   23.1880  -29.1950 N   0  0  0  0  0  0  0  0  0  0  0  0
   -1.0470   22.4800  -27.9190 C   0  0  0  0  0  0  0  0  0  0  0  0
   -1.7610   23.1740  -26.7330 C   0  0  0  0  0  0  0  0  0  0  0  0
   -1.1010   24.4020  -26.2200 N   0  0  0  0  0  0  0  0  0  0  0  0
   -0.1330   24.1170  -25.1450 C   0  0  0  0  0  0  0  0  0  0  0  0
   -2.0550   25.4420  -25.8050 C   0  0  0  0  0  0  0  0  0  0  0  0
   -1.9400   24.4490  -29.1900 C   0  0  0  0  0  0  0  0  0  0  0  0
   -1.3100   25.5040  -28.9120 O   0  0  0  0  0  0  0  0  0  0  0  0
   -3.3700   24.5370  -29.5210 C   0  0  0  0  0  0  0  0  0  0  0  0
   -4.4020   23.8620  -28.8950 C   0  0  0  0  0  0  0  0  0  0  0  0
   -5.5510   24.2500  -29.5500 C   0  0  0  0  0  0  0  0  0  0  0  0
   -5.1530   25.1330  -30.5330 C   0  0  0  0  0  0  0  0  0  0  0  0
   -3.8490   25.2820  -30.4920 O   0  0  0  0  0  0  0  0  0  0  0  0
   -3.1510   22.3480  -31.9820 C   0  0  0  0  0  0  0  0  0  0  0  0
   -4.3830   21.7950  -32.3390 C   0  0  0  0  0  0  0  0  0  0  0  0
   -8.4631   23.4551  -30.9044 H   0  0  0  0  0  0  0  0  0  0  0  0
   -8.0145   24.2537  -32.4496 H   0  0  0  0  0  0  0  0  0  0  0  0
   -9.1851   22.8913  -32.4496 H   0  0  0  0  0  0  0  0  0  0  0  0
   -9.4672   21.0234  -32.7485 H   0  0  0  0  0  0  0  0  0  0  0  0
   -9.6676   18.5475  -32.9414 H   0  0  0  0  0  0  0  0  0  0  0  0
   -7.6833   17.0947  -32.5389 H   0  0  0  0  0  0  0  0  0  0  0  0
   -5.4924   18.1118  -31.9260 H   0  0  0  0  0  0  0  0  0  0  0  0
   -4.6122   19.3714  -29.9371 H   0  0  0  0  0  0  0  0  0  0  0  0
   -2.4105   20.3514  -29.3059 H   0  0  0  0  0  0  0  0  0  0  0  0
   -0.3751   21.6654  -30.3544 H   0  0  0  0  0  0  0  0  0  0  0  0
   -0.8186   23.1773  -31.2465 H   0  0  0  0  0  0  0  0  0  0  0  0
   -1.4395   21.4571  -28.0169 H   0  0  0  0  0  0  0  0  0  0  0  0
    0.0321   22.4814  -27.7056 H   0  0  0  0  0  0  0  0  0  0  0  0
   -2.7755   23.4458  -27.0601 H   0  0  0  0  0  0  0  0  0  0  0  0
   -1.7415   22.4515  -25.9038 H   0  0  0  0  0  0  0  0  0  0  0  0
   -0.5510   24.7990  -27.0190 H   0  0  0  0  0  0  0  0  0  0  0  0
   -0.6176   24.2597  -24.1679 H   0  0  0  0  0  0  0  0  0  0  0  0
    0.2167   23.0778  -25.2326 H   0  0  0  0  0  0  0  0  0  0  0  0
    0.7241   24.8009  -25.2326 H   0  0  0  0  0  0  0  0  0  0  0  0
   -2.0950   25.4856  -24.7066 H   0  0  0  0  0  0  0  0  0  0  0  0
   -1.7298   26.4162  -26.1990 H   0  0  0  0  0  0  0  0  0  0  0  0
   -3.0535   25.2019  -26.1990 H   0  0  0  0  0  0  0  0  0  0  0  0
   -4.3225   23.1616  -28.0505 H   0  0  0  0  0  0  0  0  0  0  0  0
   -6.5782   23.9219  -29.3329 H   0  0  0  0  0  0  0  0  0  0  0  0
   -5.8260   25.6357  -31.2432 H   0  0  0  0  0  0  0  0  0  0  0  0
   -2.7372   23.1831  -32.5663 H   0  0  0  0  0  0  0  0  0  0  0  0
   -4.9313   22.1950  -33.2047 H   0  0  0  0  0  0  0  0  0  0  0  0
  1  2  1  0
  2  3  1  0
  3  4  2  0
  4  5  1  0
  5  6  2  0
  6  7  1  0
  7  8  2  0
  8  9  1  0
  9 10  2  0
 10 11  1  0
 11 12  2  0
 12 13  1  0
 13 14  1  0
 14 15  1  0
 15 16  1  0
 16 17  1  0
 17 18  1  0
 17 19  1  0
 14 20  1  0
 20 21  2  0
 20 22  1  0
 22 23  2  0
 23 24  1  0
 24 25  2  0
 25 26  1  0
 12 27  1  0
 27 28  2  0
  8  3  1  0
 28  9  1  0
 26 22  1  0
  1 29  1  0
  1 30  1  0
  1 31  1  0
  4 32  1  0
  5 33  1  0
  6 34  1  0
  7 35  1  0
 10 36  1  0
 11 37  1  0
 13 38  1  0
 13 39  1  0
 15 40  1  0
 15 41  1  0
 16 42  1  0
 16 43  1  0
 17 44  1  0
 18 45  1  0
 18 46  1  0
 18 47  1  0
 19 48  1  0
 19 49  1  0
 19 50  1  0
 23 51  1  0
 24 52  1  0
 25 53  1  0
 27 54  1  0
 28 55  1  0
M  CHG  1  17   1
M  END
>  <UniqueID>  (3) 
3

>  <SMILES>  (3) 
COc1ccccc1-c1ccc(CN(CC[NH+](C)C)C(=O)c2ccco2)cc1

>  <Energy>  (3) 
94.54681979351025

>  <Genealogy>  (3) 
COc1ccccc1-c1ccc(CN(CC[NH+](C)C)C(=O)c2ccco2)cc1 (protonated)
COc1ccccc1-c1ccc(CN(CC[NH+](C)C)C(=O)c2ccco2)cc1 (3D coordinates assigned)
COc1ccccc1-c1ccc(CN(CC[NH+](C)C)C(=O)c2ccco2)cc1 (optimized conformer: 94.54681979351025 kcal/mol)

>  <smiles>  (3) 
COc1ccccc1-c1ccc(CN(CCN(C)C)C(=O)c2ccco2)cc1

>  <score_type>  (3) 
oracle

>  <origin>  (3) 
adg

>  <m_score__min__energy>  (3) 
-7.6299999999999999

>  <m_primary>  (3) 
energy

$$$$
3:0
     RDKit          3D

 51 54  0  0  0  0  0  0  0  0999 V2000
   -7.1820   17.6820  -32.2730 C   0  0  0  0  0  0  0  0  0  0  0  0
   -6.9090   19.1580  -32.2130 C   0  0  0  0  0  0  0  0  0  0  0  0
   -7.8900   20.0060  -31.6720 C   0  0  0  0  0  0  0  0  0  0  0  0
   -7.6880   21.3860  -31.6110 C   0  0  0  0  0  0  0  0  0  0  0  0
   -6.4900   21.9430  -32.0750 C   0  0  0  0  0  0  0  0  0  0  0  0
   -6.2630   23.3980  -31.9930 C   0  0  0  0  0  0  0  0  0  0  0  0
   -6.9300   24.1670  -32.7430 O   0  0  0  0  0  0  0  0  0  0  0  0
   -5.2370   23.9150  -31.1130 N   0  0  2  0  0  0  0  0  0  0  0  0
   -4.4660   22.9110  -30.3590 C   0  0  0  0  0  0  0  0  0  0  0  0
   -4.9280   23.4690  -29.0140 C   0  0  1  0  0  0  0  0  0  0  0  0
   -3.8300   24.1410  -28.2080 C   0  0  0  0  0  0  0  0  0  0  0  0
   -4.1040   24.5860  -26.9080 C   0  0  0  0  0  0  0  0  0  0  0  0
   -3.1100   25.2130  -26.1460 C   0  0  0  0  0  0  0  0  0  0  0  0
   -1.8310   25.4010  -26.6770 C   0  0  0  0  0  0  0  0  0  0  0  0
   -0.8120   26.0620  -25.9060 C   0  0  0  0  0  0  0  0  0  0  0  0
    0.0020   26.6010  -25.2860 N   0  0  0  0  0  0  0  0  0  0  0  0
   -1.5460   24.9600  -27.9710 C   0  0  0  0  0  0  0  0  0  0  0  0
   -2.5370   24.3330  -28.7320 C   0  0  0  0  0  0  0  0  0  0  0  0
   -5.7680   24.4370  -29.8450 C   0  0  0  0  0  0  0  0  0  0  0  0
   -5.5120   21.1110  -32.6340 C   0  0  0  0  0  0  0  0  0  0  0  0
   -5.7170   19.7240  -32.7340 C   0  0  0  0  0  0  0  0  0  0  0  0
   -4.6870   18.8990  -33.4010 C   0  0  0  0  0  0  0  0  0  0  0  0
   -4.9080   17.8560  -34.2800 C   0  0  0  0  0  0  0  0  0  0  0  0
   -3.7140   17.4430  -34.7450 N   0  0  0  0  0  0  0  0  0  0  0  0
   -3.4940   16.3440  -35.6760 C   0  0  0  0  0  0  0  0  0  0  0  0
   -2.7380   18.1600  -34.2060 N   0  0  0  0  0  0  0  0  0  0  0  0
   -3.3090   19.0580  -33.3780 C   0  0  0  0  0  0  0  0  0  0  0  0
   -2.5340   20.0760  -32.6060 C   0  0  0  0  0  0  0  0  0  0  0  0
   -7.2562   17.2810  -31.2514 H   0  0  0  0  0  0  0  0  0  0  0  0
   -8.1280   17.5054  -32.8058 H   0  0  0  0  0  0  0  0  0  0  0  0
   -6.3617   17.1787  -32.8058 H   0  0  0  0  0  0  0  0  0  0  0  0
   -8.8289   19.5772  -31.2918 H   0  0  0  0  0  0  0  0  0  0  0  0
   -8.4719   22.0374  -31.1974 H   0  0  0  0  0  0  0  0  0  0  0  0
   -4.6020   24.6050  -31.5890 H   0  0  0  0  0  0  0  0  0  0  0  0
   -4.7942   21.8771  -30.5417 H   0  0  0  0  0  0  0  0  0  0  0  0
   -3.3881   22.8086  -30.5532 H   0  0  0  0  0  0  0  0  0  0  0  0
   -5.3508   22.8368  -28.2192 H   0  0  0  0  0  0  0  0  0  0  0  0
   -5.1080   24.4418  -26.4823 H   0  0  0  0  0  0  0  0  0  0  0  0
   -3.3367   25.5585  -25.1266 H   0  0  0  0  0  0  0  0  0  0  0  0
   -0.5403   25.1062  -28.3921 H   0  0  0  0  0  0  0  0  0  0  0  0
   -2.3046   23.9863  -29.7497 H   0  0  0  0  0  0  0  0  0  0  0  0
   -6.8517   24.2885  -29.7289 H   0  0  0  0  0  0  0  0  0  0  0  0
   -5.6968   25.5155  -29.6408 H   0  0  0  0  0  0  0  0  0  0  0  0
   -4.5713   21.5485  -32.9995 H   0  0  0  0  0  0  0  0  0  0  0  0
   -5.8878   17.4366  -34.5521 H   0  0  0  0  0  0  0  0  0  0  0  0
   -3.3086   15.4177  -35.1125 H   0  0  0  0  0  0  0  0  0  0  0  0
   -4.3843   16.2160  -36.3092 H   0  0  0  0  0  0  0  0  0  0  0  0
   -2.6230   16.5686  -36.3092 H   0  0  0  0  0  0  0  0  0  0  0  0
   -2.6684   19.8995  -31.5286 H   0  0  0  0  0  0  0  0  0  0  0  0
   -1.4669   19.9949  -32.8606 H   0  0  0  0  0  0  0  0  0  0  0  0
   -2.8962   21.0830  -32.8606 H   0  0  0  0  0  0  0  0  0  0  0  0
  1  2  1  0
  2  3  2  0
  3  4  1  0
  4  5  2  0
  5  6  1  0
  6  7  2  0
  6  8  1  0
  8  9  1  0
  9 10  1  0
 10 11  1  0
 11 12  2  0
 12 13  1  0
 13 14  2  0
 14 15  1  0
 15 16  3  0
 14 17  1  0
 17 18  2  0
 10 19  1  0
  5 20  1  0
 20 21  2  0
 21 22  1  0
 22 23  2  0
 23 24  1  0
 24 25  1  0
 24 26  1  0
 26 27  2  0
 27 28  1  0
 21  2  1  0
 27 22  1  0
 19  8  1  0
 18 11  1  0
  1 29  1  0
  1 30  1  0
  1 31  1  0
  3 32  1  0
  4 33  1  0
  8 34  1  6
  9 35  1  0
  9 36  1  0
 10 37  1  1
 12 38  1  0
 13 39  1  0
 17 40  1  0
 18 41  1  0
 19 42  1  0
 19 43  1  0
 20 44  1  0
 23 45  1  0
 25 46  1  0
 25 47  1  0
 25 48  1  0
 28 49  1  0
 28 50  1  0
 28 51  1  0
M  CHG  1   8   1
M  END
>  <UniqueID>  (4) 
4

>  <SMILES>  (4) 
Cc1ccc(C(=O)[NH+]2CC(c3ccc(C#N)cc3)C2)cc1-c1cn(C)nc1C

>  <Energy>  (4) 
169.11820406301905

>  <Genealogy>  (4) 
Cc1ccc(C(=O)[NH+]2CC(c3ccc(C#N)cc3)C2)cc1-c1cn(C)nc1C (protonated)
Cc1ccc(C(=O)[NH+]2CC(c3ccc(C#N)cc3)C2)cc1-c1cn(C)nc1C (3D coordinates assigned)
Cc1ccc(C(=O)[NH+]2CC(c3ccc(C#N)cc3)C2)cc1-c1cn(C)nc1C (nonaromatic ring conformer: 169.11820406301905 kcal/mol)

>  <smiles>  (4) 
Cc1ccc(C(=O)N2CC(c3ccc(C#N)cc3)C2)cc1-c1cn(C)nc1C

>  <score_type>  (4) 
oracle

>  <origin>  (4) 
adg

>  <m_score__min__energy>  (4) 
-8.6699999999999999

>  <m_primary>  (4) 
energy

$$$$
4:0
     RDKit          3D

 47 48  0  0  0  0  0  0  0  0999 V2000
   -0.4820   26.8130  -23.0170 C   0  0  0  0  0  0  0  0  0  0  0  0
   -0.4240   26.6300  -24.4900 N   0  0  0  0  0  0  0  0  0  0  0  0
   -0.8660   27.8690  -25.1750 C   0  0  0  0  0  0  0  0  0  0  0  0
    0.9880   26.3690  -24.8660 C   0  0  0  0  0  0  0  0  0  0  0  0
   -1.2410   25.4560  -24.9260 C   0  0  0  0  0  0  0  0  0  0  0  0
   -2.3360   25.7570  -25.9890 C   0  0  0  0  0  0  0  0  0  0  0  0
   -2.5170   24.6250  -27.0130 C   0  0  0  0  0  0  0  0  0  0  0  0
   -1.8080   24.9210  -28.3430 C   0  0  0  0  0  0  0  0  0  0  0  0
   -2.7560   25.2990  -29.3410 O   0  0  0  0  0  0  0  0  0  0  0  0
   -3.7840   24.4820  -29.8430 C   0  0  0  0  0  0  0  0  0  0  0  0
   -3.5360   23.2560  -30.4900 C   0  0  0  0  0  0  0  0  0  0  0  0
   -4.5990   22.4870  -30.9740 C   0  0  0  0  0  0  0  0  0  0  0  0
   -5.9280   22.9230  -30.8200 C   0  0  0  0  0  0  0  0  0  0  0  0
   -7.0570   22.1090  -31.3410 C   0  0  0  0  0  0  0  0  0  0  0  0
   -6.8440   20.7860  -31.7760 C   0  0  0  0  0  0  0  0  0  0  0  0
   -7.9070   20.0240  -32.2690 C   0  0  0  0  0  0  0  0  0  0  0  0
   -9.1890   20.5710  -32.3370 C   0  0  0  0  0  0  0  0  0  0  0  0
   -9.4130   21.8810  -31.9080 C   0  0  0  0  0  0  0  0  0  0  0  0
   -8.3540   22.6470  -31.4100 C   0  0  0  0  0  0  0  0  0  0  0  0
   -6.1680   24.1440  -30.1670 C   0  0  0  0  0  0  0  0  0  0  0  0
   -5.1050   24.9100  -29.6810 C   0  0  0  0  0  0  0  0  0  0  0  0
   -0.1856   25.8778  -22.5194 H   0  0  0  0  0  0  0  0  0  0  0  0
    0.2045   27.6197  -22.7204 H   0  0  0  0  0  0  0  0  0  0  0  0
   -1.5078   27.0770  -22.7204 H   0  0  0  0  0  0  0  0  0  0  0  0
   -1.1362   28.6264  -24.4245 H   0  0  0  0  0  0  0  0  0  0  0  0
   -0.0489   28.2515  -25.8043 H   0  0  0  0  0  0  0  0  0  0  0  0
   -1.7407   27.6480  -25.8043 H   0  0  0  0  0  0  0  0  0  0  0  0
    1.5951   26.2568  -23.9556 H   0  0  0  0  0  0  0  0  0  0  0  0
    1.0444   25.4452  -25.4605 H   0  0  0  0  0  0  0  0  0  0  0  0
    1.3709   27.2116  -25.4605 H   0  0  0  0  0  0  0  0  0  0  0  0
   -0.5566   24.7055  -25.3482 H   0  0  0  0  0  0  0  0  0  0  0  0
   -1.7781   25.1134  -24.0293 H   0  0  0  0  0  0  0  0  0  0  0  0
   -3.2929   25.9143  -25.4697 H   0  0  0  0  0  0  0  0  0  0  0  0
   -2.0140   26.6502  -26.5444 H   0  0  0  0  0  0  0  0  0  0  0  0
   -2.1035   23.6972  -26.5909 H   0  0  0  0  0  0  0  0  0  0  0  0
   -3.5930   24.5285  -27.2202 H   0  0  0  0  0  0  0  0  0  0  0  0
   -1.0904   25.7416  -28.1960 H   0  0  0  0  0  0  0  0  0  0  0  0
   -1.2830   24.0136  -28.6762 H   0  0  0  0  0  0  0  0  0  0  0  0
   -2.5021   22.9019  -30.6151 H   0  0  0  0  0  0  0  0  0  0  0  0
   -4.3943   21.5320  -31.4800 H   0  0  0  0  0  0  0  0  0  0  0  0
   -5.8352   20.3502  -31.7274 H   0  0  0  0  0  0  0  0  0  0  0  0
   -7.7326   18.9909  -32.6041 H   0  0  0  0  0  0  0  0  0  0  0  0
  -10.0232   19.9703  -32.7285 H   0  0  0  0  0  0  0  0  0  0  0  0
  -10.4240   22.3111  -31.9618 H   0  0  0  0  0  0  0  0  0  0  0  0
   -8.5371   23.6770  -31.0701 H   0  0  0  0  0  0  0  0  0  0  0  0
   -7.2008   24.4996  -30.0374 H   0  0  0  0  0  0  0  0  0  0  0  0
   -5.3099   25.8599  -29.1655 H   0  0  0  0  0  0  0  0  0  0  0  0
  1  2  1  0
  2  3  1  0
  2  4  1  0
  2  5  1  0
  5  6  1  0
  6  7  1  0
  7  8  1  0
  8  9  1  0
  9 10  1  0
 10 11  2  0
 11 12  1  0
 12 13  2  0
 13 14  1  0
 14 15  2  0
 15 16  1  0
 16 17  2  0
 17 18  1  0
 18 19  2  0
 13 20  1  0
 20 21  2  0
 21 10  1  0
 19 14  1  0
  1 22  1  0
  1 23  1  0
  1 24  1  0
  3 25  1  0
  3 26  1  0
  3 27  1  0
  4 28  1  0
  4 29  1  0
  4 30  1  0
  5 31  1  0
  5 32  1  0
  6 33  1  0
  6 34  1  0
  7 35  1  0
  7 36  1  0
  8 37  1  0
  8 38  1  0
 11 39  1  0
 12 40  1  0
 15 41  1  0
 16 42  1  0
 17 43  1  0
 18 44  1  0
 19 45  1  0
 20 46  1  0
 21 47  1  0
M  CHG  1   2   1
M  END
>  <UniqueID>  (5) 
5

>  <SMILES>  (5) 
C[N+](C)(C)CCCCOc1ccc(-c2ccccc2)cc1

>  <Energy>  (5) 
57.55244536690411

>  <Genealogy>  (5) 
C[N+](C)(C)CCCCOc1ccc(-c2ccccc2)cc1 (3D coordinates assigned)
C[N+](C)(C)CCCCOc1ccc(-c2ccccc2)cc1 (optimized conformer: 57.55244536690411 kcal/mol)

>  <smiles>  (5) 
C[N+](C)(C)CCCCOc1ccc(-c2ccccc2)cc1

>  <score_type>  (5) 
oracle

>  <origin>  (5) 
adg

>  <m_score__min__energy>  (5) 
-7.7000000000000002

>  <m_primary>  (5) 
energy

$$$$
5:0
     RDKit          3D

 46 48  0  0  0  0  0  0  0  0999 V2000
   -1.4510   18.6140  -27.0760 C   0  0  0  0  0  0  0  0  0  0  0  0
   -1.2640   19.8050  -27.0620 C   0  0  0  0  0  0  0  0  0  0  0  0
   -1.0300   21.2620  -27.0440 C   0  0  0  0  0  0  0  0  0  0  0  0
   -2.2590   22.0440  -27.3210 N   0  0  0  0  0  0  0  0  0  0  0  0
   -1.9680   23.4900  -27.5700 C   0  0  0  0  0  0  0  0  0  0  0  0
   -2.3300   23.9550  -28.9880 C   0  0  0  0  0  0  0  0  0  0  0  0
   -3.7190   23.5910  -29.2920 N   0  0  0  0  0  0  0  0  0  0  0  0
   -4.5200   24.4410  -30.1420 C   0  0  0  0  0  0  0  0  0  0  0  0
   -3.9560   25.3240  -30.8460 O   0  0  0  0  0  0  0  0  0  0  0  0
   -6.0110   24.2460  -30.2620 C   0  0  0  0  0  0  0  0  0  0  0  0
   -6.4560   24.0460  -31.7180 C   0  0  0  0  0  0  0  0  0  0  0  0
   -6.6280   22.6130  -32.0100 N   0  0  0  0  0  0  0  0  0  0  0  0
   -7.9170   22.0010  -31.8000 C   0  0  0  0  0  0  0  0  0  0  0  0
   -8.8350   22.6190  -31.1940 O   0  0  0  0  0  0  0  0  0  0  0  0
   -8.1970   20.6430  -32.3650 C   0  0  0  0  0  0  0  0  0  0  0  0
   -7.0200   19.8410  -32.3670 O   0  0  0  0  0  0  0  0  0  0  0  0
   -5.7440   20.3750  -32.5610 C   0  0  0  0  0  0  0  0  0  0  0  0
   -4.6870   19.5190  -32.8870 C   0  0  0  0  0  0  0  0  0  0  0  0
   -3.4030   20.0280  -33.0810 C   0  0  0  0  0  0  0  0  0  0  0  0
   -3.1680   21.3960  -32.9410 C   0  0  0  0  0  0  0  0  0  0  0  0
   -4.2140   22.2600  -32.6030 C   0  0  0  0  0  0  0  0  0  0  0  0
   -5.5210   21.7620  -32.4090 C   0  0  0  0  0  0  0  0  0  0  0  0
   -4.2340   22.2960  -28.8270 C   0  0  0  0  0  0  0  0  0  0  0  0
   -3.0840   21.3900  -28.3680 C   0  0  0  0  0  0  0  0  0  0  0  0
   -1.6216   17.5274  -27.0888 H   0  0  0  0  0  0  0  0  0  0  0  0
   -0.6496   21.5448  -26.0514 H   0  0  0  0  0  0  0  0  0  0  0  0
   -0.3050   21.4912  -27.8389 H   0  0  0  0  0  0  0  0  0  0  0  0
   -2.8240   21.9990  -26.4390 H   0  0  0  0  0  0  0  0  0  0  0  0
   -2.5440   24.0896  -26.8498 H   0  0  0  0  0  0  0  0  0  0  0  0
   -0.8825   23.6251  -27.4536 H   0  0  0  0  0  0  0  0  0  0  0  0
   -2.2159   25.0471  -29.0543 H   0  0  0  0  0  0  0  0  0  0  0  0
   -1.6604   23.4674  -29.7118 H   0  0  0  0  0  0  0  0  0  0  0  0
   -6.3001   23.3594  -29.6785 H   0  0  0  0  0  0  0  0  0  0  0  0
   -6.5014   25.1541  -29.8814 H   0  0  0  0  0  0  0  0  0  0  0  0
   -7.4117   24.5661  -31.8796 H   0  0  0  0  0  0  0  0  0  0  0  0
   -5.6847   24.4563  -32.3864 H   0  0  0  0  0  0  0  0  0  0  0  0
   -8.9675   20.1504  -31.7537 H   0  0  0  0  0  0  0  0  0  0  0  0
   -8.5453   20.7587  -33.4020 H   0  0  0  0  0  0  0  0  0  0  0  0
   -4.8692   18.4392  -32.9909 H   0  0  0  0  0  0  0  0  0  0  0  0
   -2.5765   19.3515  -33.3441 H   0  0  0  0  0  0  0  0  0  0  0  0
   -2.1555   21.7966  -33.0972 H   0  0  0  0  0  0  0  0  0  0  0  0
   -4.0172   23.3361  -32.4873 H   0  0  0  0  0  0  0  0  0  0  0  0
   -4.9216   22.4620  -27.9846 H   0  0  0  0  0  0  0  0  0  0  0  0
   -4.7615   21.8053  -29.6583 H   0  0  0  0  0  0  0  0  0  0  0  0
   -3.5039   20.4581  -27.9616 H   0  0  0  0  0  0  0  0  0  0  0  0
   -2.4399   21.1844  -29.2357 H   0  0  0  0  0  0  0  0  0  0  0  0
  1  2  3  0
  2  3  1  0
  3  4  1  0
  4  5  1  0
  5  6  1  0
  6  7  1  0
  7  8  1  0
  8  9  2  0
  8 10  1  0
 10 11  1  0
 11 12  1  0
 12 13  1  0
 13 14  2  0
 13 15  1  0
 15 16  1  0
 16 17  1  0
 17 18  2  0
 18 19  1  0
 19 20  2  0
 20 21  1  0
 21 22  2  0
  7 23  1  0
 23 24  1  0
 24  4  1  0
 22 12  1  0
 22 17  1  0
  1 25  1  0
  3 26  1  0
  3 27  1  0
  4 28  1  0
  5 29  1  0
  5 30  1  0
  6 31  1  0
  6 32  1  0
 10 33  1  0
 10 34  1  0
 11 35  1  0
 11 36  1  0
 15 37  1  0
 15 38  1  0
 18 39  1  0
 19 40  1  0
 20 41  1  0
 21 42  1  0
 23 43  1  0
 23 44  1  0
 24 45  1  0
 24 46  1  0
M  CHG  1   4   1
M  END
>  <UniqueID>  (6) 
6

>  <SMILES>  (6) 
C#CC[NH+]1CCN(C(=O)CCN2C(=O)COc3ccccc32)CC1

>  <Energy>  (6) 
57.33347260774954

>  <Genealogy>  (6) 
C#CC[NH+]1CCN(C(=O)CCN2C(=O)COc3ccccc32)CC1 (protonated)
C#CC[NH+]1CCN(C(=O)CCN2C(=O)COc3ccccc32)CC1 (3D coordinates assigned)
C#CC[NH+]1CCN(C(=O)CCN2C(=O)COc3ccccc32)CC1 (nonaromatic ring conformer: 57.33347260774954 kcal/mol)

>  <smiles>  (6) 
C#CCN1CCN(C(=O)CCN2C(=O)COc3ccccc32)CC1

>  <score_type>  (6) 
oracle

>  <origin>  (6) 
adg

>  <m_score__min__energy>  (6) 
-7.4500000000000002

>  <m_primary>  (6) 
energy

$$$$
6:0
     RDKit          3D

 54 55  0  0  0  0  0  0  0  0999 V2000
   -1.2080   25.1730  -29.2170 H   0  0  0  0  0  0  0  0  0  0  0  0
   -2.2370   25.2980  -29.3440 N   0  0  0  0  0  0  0  0  0  0  0  0
   -2.9560   24.4200  -29.9720 C   0  0  0  0  0  0  0  0  0  0  0  0
   -4.1510   24.7980  -30.5040 N   0  0  0  0  0  0  0  0  0  0  0  0
   -4.9630   23.9280  -31.1560 C   0  0  0  0  0  0  0  0  0  0  0  0
   -5.9166   24.2792  -31.5771 H   0  0  0  0  0  0  0  0  0  0  0  0
   -4.5920   22.5850  -31.2950 C   0  0  0  0  0  0  0  0  0  0  0  0
   -5.4680   21.6310  -32.0200 C   0  0  0  0  0  0  0  0  0  0  0  0
   -6.8290   21.5510  -31.6800 C   0  0  0  0  0  0  0  0  0  0  0  0
   -7.2218   22.1794  -30.8671 H   0  0  0  0  0  0  0  0  0  0  0  0
   -7.6920   20.6850  -32.3590 C   0  0  0  0  0  0  0  0  0  0  0  0
   -9.0420   20.6560  -31.9780 O   0  0  0  0  0  0  0  0  0  0  0  0
   -9.6770   21.6530  -31.1840 C   0  0  0  0  0  0  0  0  0  0  0  0
   -9.5299   21.4220  -30.1186 H   0  0  0  0  0  0  0  0  0  0  0  0
   -9.2383   22.6361  -31.4100 H   0  0  0  0  0  0  0  0  0  0  0  0
  -10.7534   21.6711  -31.4100 H   0  0  0  0  0  0  0  0  0  0  0  0
   -7.1840   19.8810  -33.3930 C   0  0  0  0  0  0  0  0  0  0  0  0
   -7.8554   19.1996  -33.9361 H   0  0  0  0  0  0  0  0  0  0  0  0
   -5.8320   19.9420  -33.7350 C   0  0  0  0  0  0  0  0  0  0  0  0
   -5.4453   19.3064  -34.5453 H   0  0  0  0  0  0  0  0  0  0  0  0
   -4.9580   20.8110  -33.0510 C   0  0  0  0  0  0  0  0  0  0  0  0
   -3.5880   20.8670  -33.3580 O   0  0  0  0  0  0  0  0  0  0  0  0
   -2.7230   19.7370  -33.4150 C   0  0  0  0  0  0  0  0  0  0  0  0
   -2.4751   19.4131  -32.3934 H   0  0  0  0  0  0  0  0  0  0  0  0
   -3.2261   18.9166  -33.9478 H   0  0  0  0  0  0  0  0  0  0  0  0
   -1.7997   20.0085  -33.9478 H   0  0  0  0  0  0  0  0  0  0  0  0
   -3.3640   22.1690  -30.7590 C   0  0  0  0  0  0  0  0  0  0  0  0
   -3.0538   21.1186  -30.8615 H   0  0  0  0  0  0  0  0  0  0  0  0
   -2.5250   23.0800  -30.0920 C   0  0  0  0  0  0  0  0  0  0  0  0
   -1.2260   22.6090  -29.5470 C   0  0  0  0  0  0  0  0  0  0  0  0
   -0.6000   21.6790  -30.1290 O   0  0  0  0  0  0  0  0  0  0  0  0
   -0.6790   23.2050  -28.4080 O   0  0  0  0  0  0  0  0  0  0  0  0
   -0.8310   22.6580  -27.1010 C   0  0  0  0  0  0  0  0  0  0  0  0
   -1.6321   21.9043  -27.1140 H   0  0  0  0  0  0  0  0  0  0  0  0
    0.1182   22.1940  -26.7948 H   0  0  0  0  0  0  0  0  0  0  0  0
   -1.1930   23.7660  -26.0970 C   0  0  0  0  0  0  0  0  0  0  0  0
   -1.9029   23.3534  -25.3650 H   0  0  0  0  0  0  0  0  0  0  0  0
   -0.2539   24.0964  -25.6292 H   0  0  0  0  0  0  0  0  0  0  0  0
   -1.8110   24.9640  -26.7280 N   0  0  0  0  0  0  0  0  0  0  0  0
   -1.7920   24.8040  -27.7640 H   0  0  0  0  0  0  0  0  0  0  0  0
   -0.9600   26.1550  -26.4660 C   0  0  0  0  0  0  0  0  0  0  0  0
    0.0952   25.8561  -26.5508 H   0  0  0  0  0  0  0  0  0  0  0  0
   -1.2333   26.9212  -27.2064 H   0  0  0  0  0  0  0  0  0  0  0  0
   -1.1840   26.7640  -25.0760 C   0  0  0  0  0  0  0  0  0  0  0  0
   -0.9131   26.0276  -24.3051 H   0  0  0  0  0  0  0  0  0  0  0  0
   -0.5568   27.6606  -24.9631 H   0  0  0  0  0  0  0  0  0  0  0  0
   -2.2427   27.0405  -24.9631 H   0  0  0  0  0  0  0  0  0  0  0  0
   -3.2420   25.1650  -26.3500 C   0  0  0  0  0  0  0  0  0  0  0  0
   -3.3370   24.9927  -25.2677 H   0  0  0  0  0  0  0  0  0  0  0  0
   -3.4997   26.1909  -26.6517 H   0  0  0  0  0  0  0  0  0  0  0  0
   -4.2360   24.2420  -27.0690 C   0  0  0  0  0  0  0  0  0  0  0  0
   -4.8293   23.6911  -26.3244 H   0  0  0  0  0  0  0  0  0  0  0  0
   -4.9066   24.8450  -27.6989 H   0  0  0  0  0  0  0  0  0  0  0  0
   -3.6843   23.5286  -27.6989 H   0  0  0  0  0  0  0  0  0  0  0  0
  1  2  1  0
  2  3  2  0
  3  4  1  0
  4  5  1  0
  5  6  1  0
  5  7  2  0
  7  8  1  0
  8  9  2  0
  9 10  1  0
  9 11  1  0
 11 12  1  0
 12 13  1  0
 13 14  1  0
 13 15  1  0
 13 16  1  0
 11 17  2  0
 17 18  1  0
 17 19  1  0
 19 20  1  0
 19 21  2  0
 21 22  1  0
 22 23  1  0
 23 24  1  0
 23 25  1  0
 23 26  1  0
  7 27  1  0
 27 28  1  0
 27 29  2  0
 29 30  1  0
 30 31  2  0
 30 32  1  0
 32 33  1  0
 33 34  1  0
 33 35  1  0
 33 36  1  0
 36 37  1  0
 36 38  1  0
 36 39  1  0
 39 40  1  0
 39 41  1  0
 41 42  1  0
 41 43  1  0
 41 44  1  0
 44 45  1  0
 44 46  1  0
 44 47  1  0
 39 48  1  0
 48 49  1  0
 48 50  1  0
 48 51  1  0
 51 52  1  0
 51 53  1  0
 51 54  1  0
 29  3  1  0
 21  8  1  0
M  CHG  2   4  -1  39   1
M  END
>  <UniqueID>  (7) 
7

>  <SMILES>  (7) 
[H]/N=c1\[n-]cc(-c2cc(OC)ccc2OC)cc1C(=O)OCC[NH+](CC)CC

>  <Energy>  (7) 
62.89746803049478

>  <Genealogy>  (7) 
CC[NH+](CC)CCOC(=O)c1cc(-c2cc(OC)ccc2OC)c[n-]c1=N (protonated)
[H]/N=c1\[n-]cc(-c2cc(OC)ccc2OC)cc1C(=O)OCC[NH+](CC)CC (cis-trans isomerization)
[H]/N=c1\[n-]cc(-c2cc(OC)ccc2OC)cc1C(=O)OCC[NH+](CC)CC (3D coordinates assigned)
[H]/N=c1\[n-]cc(-c2cc(OC)ccc2OC)cc1C(=O)OCC[NH+](CC)CC (optimized conformer: 62.89746803049478 kcal/mol)

>  <smiles>  (7) 
CCN(CC)CCOC(=O)c1cc(-c2cc(OC)ccc2OC)c[nH]c1=N

>  <score_type>  (7) 
oracle

>  <origin>  (7) 
adg

>  <m_score__min__energy>  (7) 
-7.6600000000000001

>  <m_primary>  (7) 
energy

$$$$
7:0
     RDKit          3D

 38 39  0  0  0  0  0  0  0  0999 V2000
   -5.7200   25.9980  -30.1340 C   0  0  0  0  0  0  0  0  0  0  0  0
   -5.0620   24.9370  -30.8180 O   0  0  0  0  0  0  0  0  0  0  0  0
   -5.7070   23.8020  -31.3320 C   0  0  0  0  0  0  0  0  0  0  0  0
   -4.9750   22.9430  -32.1600 C   0  0  0  0  0  0  0  0  0  0  0  0
   -5.5620   21.7920  -32.7160 C   0  0  0  0  0  0  0  0  0  0  0  0
   -4.7680   20.9100  -33.5420 N   0  0  0  0  0  0  0  0  0  0  0  0
   -3.8200   20.1530  -32.7100 C   0  0  0  0  0  0  0  0  0  0  0  0
   -4.1210   18.6310  -32.7410 C   0  0  0  0  0  0  0  0  0  0  0  0
   -5.4660   18.2710  -33.2450 N   0  0  0  0  0  0  0  0  0  0  0  0
   -5.4390   17.6610  -34.5850 C   0  0  0  0  0  0  0  0  0  0  0  0
   -6.2420   17.4550  -32.2990 C   0  0  0  0  0  0  0  0  0  0  0  0
   -6.9050   21.4910  -32.4090 C   0  0  0  0  0  0  0  0  0  0  0  0
   -7.4960   20.3690  -32.9100 N   0  0  0  0  0  0  0  0  0  0  0  0
   -8.7870   20.0490  -32.6320 C   0  0  0  0  0  0  0  0  0  0  0  0
   -9.5540   20.8790  -31.8130 C   0  0  0  0  0  0  0  0  0  0  0  0
   -8.9830   22.0360  -31.2810 C   0  0  0  0  0  0  0  0  0  0  0  0
   -7.6490   22.3540  -31.5720 C   0  0  0  0  0  0  0  0  0  0  0  0
   -7.0510   23.5050  -31.0420 C   0  0  0  0  0  0  0  0  0  0  0  0
   -5.6268   25.8478  -29.0483 H   0  0  0  0  0  0  0  0  0  0  0  0
   -5.2575   26.9564  -30.4126 H   0  0  0  0  0  0  0  0  0  0  0  0
   -6.7841   26.0097  -30.4126 H   0  0  0  0  0  0  0  0  0  0  0  0
   -3.9218   23.1722  -32.3798 H   0  0  0  0  0  0  0  0  0  0  0  0
   -4.2390   21.4740  -34.2480 H   0  0  0  0  0  0  0  0  0  0  0  0
   -5.3930   20.2600  -34.0710 H   0  0  0  0  0  0  0  0  0  0  0  0
   -2.8004   20.3229  -33.0862 H   0  0  0  0  0  0  0  0  0  0  0  0
   -3.9191   20.5020  -31.6716 H   0  0  0  0  0  0  0  0  0  0  0  0
   -3.3734   18.1481  -33.3875 H   0  0  0  0  0  0  0  0  0  0  0  0
   -4.0810   18.2876  -31.6968 H   0  0  0  0  0  0  0  0  0  0  0  0
   -5.3905   16.5663  -34.4886 H   0  0  0  0  0  0  0  0  0  0  0  0
   -6.3504   17.9408  -35.1337 H   0  0  0  0  0  0  0  0  0  0  0  0
   -4.5559   18.0202  -35.1337 H   0  0  0  0  0  0  0  0  0  0  0  0
   -5.9758   17.7350  -31.2691 H   0  0  0  0  0  0  0  0  0  0  0  0
   -7.3162   17.6288  -32.4602 H   0  0  0  0  0  0  0  0  0  0  0  0
   -6.0145   16.3909  -32.4602 H   0  0  0  0  0  0  0  0  0  0  0  0
   -9.2285   19.1338  -33.0533 H   0  0  0  0  0  0  0  0  0  0  0  0
  -10.6001   20.6233  -31.5886 H   0  0  0  0  0  0  0  0  0  0  0  0
   -9.5786   22.6973  -30.6345 H   0  0  0  0  0  0  0  0  0  0  0  0
   -7.6344   24.1785  -30.3970 H   0  0  0  0  0  0  0  0  0  0  0  0
  1  2  1  0
  2  3  1  0
  3  4  2  0
  4  5  1  0
  5  6  1  0
  6  7  1  0
  7  8  1  0
  8  9  1  0
  9 10  1  0
  9 11  1  0
  5 12  2  0
 12 13  1  0
 13 14  2  0
 14 15  1  0
 15 16  2  0
 16 17  1  0
 17 18  2  0
 18  3  1  0
 17 12  1  0
  1 19  1  0
  1 20  1  0
  1 21  1  0
  4 22  1  0
  6 23  1  0
  6 24  1  0
  7 25  1  0
  7 26  1  0
  8 27  1  0
  8 28  1  0
 10 29  1  0
 10 30  1  0
 10 31  1  0
 11 32  1  0
 11 33  1  0
 11 34  1  0
 14 35  1  0
 15 36  1  0
 16 37  1  0
 18 38  1  0
M  CHG  1   6   1
M  END
>  <UniqueID>  (8) 
8

>  <SMILES>  (8) 
COc1cc([NH2+]CCN(C)C)c2ncccc2c1

>  <Energy>  (8) 
45.53350261430641

>  <Genealogy>  (8) 
COc1cc([NH2+]CCN(C)C)c2ncccc2c1 (protonated)
COc1cc([NH2+]CCN(C)C)c2ncccc2c1 (3D coordinates assigned)
COc1cc([NH2+]CCN(C)C)c2ncccc2c1 (optimized conformer: 45.53350261430641 kcal/mol)

>  <smiles>  (8) 
COc1cc(NCCN(C)C)c2ncccc2c1

>  <score_type>  (8) 
oracle

>  <origin>  (8) 
adg

>  <m_score__min__energy>  (8) 
-5.6900000000000004

>  <m_primary>  (8) 
energy

$$$$
8:0
     RDKit          3D

 43 45  0  0  0  0  0  0  0  0999 V2000
   -2.4930   20.7500  -32.5890 C   0  0  0  0  0  0  0  0  0  0  0  0
   -3.8320   21.2470  -33.1450 C   0  0  0  0  0  0  0  0  0  0  0  0
   -4.8820   20.2040  -33.0640 N   0  0  0  0  0  0  0  0  0  0  0  0
   -4.6720   19.0740  -33.8360 C   0  0  0  0  0  0  0  0  0  0  0  0
   -3.5790   18.8950  -34.4420 O   0  0  0  0  0  0  0  0  0  0  0  0
   -5.6630   18.1170  -34.0020 C   0  0  0  0  0  0  0  0  0  0  0  0
   -6.9080   18.3130  -33.4440 C   0  0  0  0  0  0  0  0  0  0  0  0
   -7.1500   19.4380  -32.6600 C   0  0  0  0  0  0  0  0  0  0  0  0
   -8.4400   19.6280  -32.1510 C   0  0  0  0  0  0  0  0  0  0  0  0
   -8.7260   20.7210  -31.3560 C   0  0  0  0  0  0  0  0  0  0  0  0
   -7.7170   21.6030  -31.0030 C   0  0  0  0  0  0  0  0  0  0  0  0
   -6.3960   21.4400  -31.4680 C   0  0  0  0  0  0  0  0  0  0  0  0
   -5.4000   22.2880  -30.7640 C   0  0  0  0  0  0  0  0  0  0  0  0
   -5.3360   23.5910  -31.0730 C   0  0  0  0  0  0  0  0  0  0  0  0
   -4.2220   24.4380  -30.6180 C   0  0  0  0  0  0  0  0  0  0  0  0
   -4.2500   25.6760  -30.8410 O   0  0  0  0  0  0  0  0  0  0  0  0
   -3.0180   23.8240  -29.9650 C   0  0  0  0  0  0  0  0  0  0  0  0
   -3.3920   22.5560  -29.1580 C   0  0  0  0  0  0  0  0  0  0  0  0
   -4.1570   22.9510  -27.8770 C   0  0  0  0  0  0  0  0  0  0  0  0
   -2.1010   21.8240  -28.7390 C   0  0  0  0  0  0  0  0  0  0  0  0
   -4.2480   21.6050  -30.0420 C   0  0  0  0  0  0  0  0  0  0  0  0
   -6.0970   20.3720  -32.3950 C   0  0  0  0  0  0  0  0  0  0  0  0
   -2.5254   20.7620  -31.4895 H   0  0  0  0  0  0  0  0  0  0  0  0
   -2.3088   19.7236  -32.9392 H   0  0  0  0  0  0  0  0  0  0  0  0
   -1.6838   21.4077  -32.9392 H   0  0  0  0  0  0  0  0  0  0  0  0
   -4.1553   22.1237  -32.5646 H   0  0  0  0  0  0  0  0  0  0  0  0
   -3.6878   21.5059  -34.2043 H   0  0  0  0  0  0  0  0  0  0  0  0
   -5.4553   17.2032  -34.5781 H   0  0  0  0  0  0  0  0  0  0  0  0
   -7.7103   17.5808  -33.6180 H   0  0  0  0  0  0  0  0  0  0  0  0
   -9.2320   18.9016  -32.3858 H   0  0  0  0  0  0  0  0  0  0  0  0
   -9.7540   20.8911  -31.0034 H   0  0  0  0  0  0  0  0  0  0  0  0
   -7.9526   22.4513  -30.3436 H   0  0  0  0  0  0  0  0  0  0  0  0
   -6.1359   24.0379  -31.6816 H   0  0  0  0  0  0  0  0  0  0  0  0
   -2.2904   23.5502  -30.7432 H   0  0  0  0  0  0  0  0  0  0  0  0
   -2.5903   24.5610  -29.2694 H   0  0  0  0  0  0  0  0  0  0  0  0
   -3.5739   22.6499  -26.9942 H   0  0  0  0  0  0  0  0  0  0  0  0
   -4.3091   24.0403  -27.8619 H   0  0  0  0  0  0  0  0  0  0  0  0
   -5.1332   22.4442  -27.8619 H   0  0  0  0  0  0  0  0  0  0  0  0
   -2.0392   21.7889  -27.6413 H   0  0  0  0  0  0  0  0  0  0  0  0
   -2.1145   20.7992  -29.1384 H   0  0  0  0  0  0  0  0  0  0  0  0
   -1.2285   22.3618  -29.1384 H   0  0  0  0  0  0  0  0  0  0  0  0
   -3.5894   21.1508  -30.7969 H   0  0  0  0  0  0  0  0  0  0  0  0
   -4.6966   20.8640  -29.3640 H   0  0  0  0  0  0  0  0  0  0  0  0
  1  2  1  0
  2  3  1  0
  3  4  1  0
  4  5  2  0
  4  6  1  0
  6  7  2  0
  7  8  1  0
  8  9  2  0
  9 10  1  0
 10 11  2  0
 11 12  1  0
 12 13  1  0
 13 14  2  0
 14 15  1  0
 15 16  2  0
 15 17  1  0
 17 18  1  0
 18 19  1  0
 18 20  1  0
 18 21  1  0
 12 22  2  0
 22  3  1  0
 22  8  1  0
 21 13  1  0
  1 23  1  0
  1 24  1  0
  1 25  1  0
  2 26  1  0
  2 27  1  0
  6 28  1  0
  7 29  1  0
  9 30  1  0
 10 31  1  0
 11 32  1  0
 14 33  1  0
 17 34  1  0
 17 35  1  0
 19 36  1  0
 19 37  1  0
 19 38  1  0
 20 39  1  0
 20 40  1  0
 20 41  1  0
 21 42  1  0
 21 43  1  0
M  END
>  <UniqueID>  (9) 
9

>  <SMILES>  (9) 
CCn1c(=O)ccc2cccc(C3=CC(=O)CC(C)(C)C3)c21

>  <Energy>  (9) 
70.29009751345536

>  <Genealogy>  (9) 
CCn1c(=O)ccc2cccc(C3=CC(=O)CC(C)(C)C3)c21 (3D coordinates assigned)
CCn1c(=O)ccc2cccc(C3=CC(=O)CC(C)(C)C3)c21 (nonaromatic ring conformer: 70.29009751345536 kcal/mol)

>  <smiles>  (9) 
CCn1c(=O)ccc2cccc(C3=CC(=O)CC(C)(C)C3)c21

>  <score_type>  (9) 
oracle

>  <origin>  (9) 
adg

>  <m_score__min__energy>  (9) 
-8.8800000000000008

>  <m_primary>  (9) 
energy

$$$$
9:0
     RDKit          3D

 50 53  0  0  0  0  0  0  0  0999 V2000
   -1.2850   20.6130  -31.4120 C   0  0  0  0  0  0  0  0  0  0  0  0
   -2.1370   21.7300  -30.8680 C   0  0  0  0  0  0  0  0  0  0  0  0
   -1.5250   22.7340  -30.0980 C   0  0  0  0  0  0  0  0  0  0  0  0
   -2.2750   23.7870  -29.5790 C   0  0  0  0  0  0  0  0  0  0  0  0
   -3.6430   23.8610  -29.8300 C   0  0  0  0  0  0  0  0  0  0  0  0
   -4.2820   22.8720  -30.5900 C   0  0  0  0  0  0  0  0  0  0  0  0
   -5.6850   23.0090  -30.8660 N   0  0  0  0  0  0  0  0  0  0  0  0
   -6.6450   23.0970  -29.7630 C   0  0  0  0  0  0  0  0  0  0  0  0
   -7.8850   22.2730  -30.1120 C   0  0  0  0  0  0  0  0  0  0  0  0
   -8.5210   22.7330  -31.3690 N   0  0  0  0  0  0  0  0  0  0  0  0
   -9.4150   21.7170  -31.9640 C   0  0  0  0  0  0  0  0  0  0  0  0
   -8.7770   20.3590  -32.0520 C   0  0  0  0  0  0  0  0  0  0  0  0
   -9.1110   19.3110  -31.2740 N   0  0  0  0  0  0  0  0  0  0  0  0
   -8.3120   18.3170  -31.6300 N   0  0  0  0  0  0  0  0  0  0  0  0
   -7.5220   18.7970  -32.6110 C   0  0  0  0  0  0  0  0  0  0  0  0
   -6.4670   18.0200  -33.2910 C   0  0  0  0  0  0  0  0  0  0  0  0
   -6.1060   16.7430  -32.8260 C   0  0  0  0  0  0  0  0  0  0  0  0
   -5.1000   16.0170  -33.4730 C   0  0  0  0  0  0  0  0  0  0  0  0
   -4.4500   16.5570  -34.5850 C   0  0  0  0  0  0  0  0  0  0  0  0
   -4.8020   17.8260  -35.0530 C   0  0  0  0  0  0  0  0  0  0  0  0
   -5.8070   18.5570  -34.4100 C   0  0  0  0  0  0  0  0  0  0  0  0
   -7.8060   20.0510  -32.8750 O   0  0  0  0  0  0  0  0  0  0  0  0
   -7.6230   23.3930  -32.3510 C   0  0  0  0  0  0  0  0  0  0  0  0
   -6.1650   22.9200  -32.2490 C   0  0  0  0  0  0  0  0  0  0  0  0
   -3.5390   21.7730  -31.0850 C   0  0  0  0  0  0  0  0  0  0  0  0
   -4.2360   20.6850  -31.8700 C   0  0  0  0  0  0  0  0  0  0  0  0
   -0.8505   20.0434  -30.5773 H   0  0  0  0  0  0  0  0  0  0  0  0
   -1.9053   19.9453  -32.0280 H   0  0  0  0  0  0  0  0  0  0  0  0
   -0.4771   21.0347  -32.0280 H   0  0  0  0  0  0  0  0  0  0  0  0
   -0.4434   22.6878  -29.9033 H   0  0  0  0  0  0  0  0  0  0  0  0
   -1.7859   24.5614  -28.9699 H   0  0  0  0  0  0  0  0  0  0  0  0
   -4.2266   24.7025  -29.4284 H   0  0  0  0  0  0  0  0  0  0  0  0
   -6.1872   22.7024  -28.8439 H   0  0  0  0  0  0  0  0  0  0  0  0
   -6.9308   24.1472  -29.6033 H   0  0  0  0  0  0  0  0  0  0  0  0
   -7.5904   21.2195  -30.2278 H   0  0  0  0  0  0  0  0  0  0  0  0
   -8.6144   22.3948  -29.2976 H   0  0  0  0  0  0  0  0  0  0  0  0
  -10.3209   21.6402  -31.3447 H   0  0  0  0  0  0  0  0  0  0  0  0
   -9.6476   22.0405  -32.9893 H   0  0  0  0  0  0  0  0  0  0  0  0
   -6.6160   16.3136  -31.9511 H   0  0  0  0  0  0  0  0  0  0  0  0
   -4.8204   15.0188  -33.1050 H   0  0  0  0  0  0  0  0  0  0  0  0
   -3.6607   15.9833  -35.0927 H   0  0  0  0  0  0  0  0  0  0  0  0
   -4.2883   18.2507  -35.9280 H   0  0  0  0  0  0  0  0  0  0  0  0
   -6.0816   19.5553  -34.7814 H   0  0  0  0  0  0  0  0  0  0  0  0
   -7.9916   23.1745  -33.3641 H   0  0  0  0  0  0  0  0  0  0  0  0
   -7.6337   24.4709  -32.1317 H   0  0  0  0  0  0  0  0  0  0  0  0
   -6.1002   21.8752  -32.5869 H   0  0  0  0  0  0  0  0  0  0  0  0
   -5.5392   23.5662  -32.8821 H   0  0  0  0  0  0  0  0  0  0  0  0
   -4.6955   19.9677  -31.1740 H   0  0  0  0  0  0  0  0  0  0  0  0
   -5.0161   21.1323  -32.5036 H   0  0  0  0  0  0  0  0  0  0  0  0
   -3.5035   20.1634  -32.5036 H   0  0  0  0  0  0  0  0  0  0  0  0
  1  2  1  0
  2  3  2  0
  3  4  1  0
  4  5  2  0
  5  6  1  0
  6  7  1  0
  7  8  1  0
  8  9  1  0
  9 10  1  0
 10 11  1  0
 11 12  1  0
 12 13  2  0
 13 14  1  0
 14 15  2  0
 15 16  1  0
 16 17  2  0
 17 18  1  0
 18 19  2  0
 19 20  1  0
 20 21  2  0
 15 22  1  0
 10 23  1  0
 23 24  1  0
  6 25  2  0
 25 26  1  0
 25  2  1  0
 24  7  1  0
 22 12  1  0
 21 16  1  0
  1 27  1  0
  1 28  1  0
  1 29  1  0
  3 30  1  0
  4 31  1  0
  5 32  1  0
  8 33  1  0
  8 34  1  0
  9 35  1  0
  9 36  1  0
 11 37  1  0
 11 38  1  0
 17 39  1  0
 18 40  1  0
 19 41  1  0
 20 42  1  0
 21 43  1  0
 23 44  1  0
 23 45  1  0
 24 46  1  0
 24 47  1  0
 26 48  1  0
 26 49  1  0
 26 50  1  0
M  END
>  <UniqueID>  (10) 
10

>  <SMILES>  (10) 
Cc1cccc(N2CCN(Cc3nnc(-c4ccccc4)o3)CC2)c1C

>  <Energy>  (10) 
101.78057953708739

>  <Genealogy>  (10) 
Cc1cccc(N2CCN(Cc3nnc(-c4ccccc4)o3)CC2)c1C (3D coordinates assigned)
Cc1cccc(N2CCN(Cc3nnc(-c4ccccc4)o3)CC2)c1C (nonaromatic ring conformer: 101.78057953708739 kcal/mol)

>  <smiles>  (10) 
Cc1cccc(N2CCN(Cc3nnc(-c4ccccc4)o3)CC2)c1C

>  <score_type>  (10) 
oracle

>  <origin>  (10) 
adg

>  <m_score__min__energy>  (10) 
-8.6500000000000004

>  <m_primary>  (10) 
energy

$$$$
10:0
     RDKit          3D

 63 67  0  0  0  0  0  0  0  0999 V2000
   -6.4080   24.2890  -30.2650 C   0  0  0  0  0  0  0  0  0  0  0  0
   -5.6980   23.2760  -29.3720 C   0  0  0  0  0  0  0  0  0  0  0  0
   -4.6050   22.6270  -30.0910 N   0  0  0  0  0  0  0  0  0  0  0  0
   -3.5990   23.3680  -30.7970 C   0  0  0  0  0  0  0  0  0  0  0  0
   -3.6180   24.6280  -30.7940 O   0  0  0  0  0  0  0  0  0  0  0  0
   -2.5220   22.6470  -31.5530 C   0  0  0  0  0  0  0  0  0  0  0  0
   -2.7940   21.1940  -31.5890 N   0  0  0  0  0  0  0  0  0  0  0  0
   -3.3600   20.7620  -32.8920 C   0  0  0  0  0  0  0  0  0  0  0  0
   -4.8360   20.4200  -32.8470 C   0  0  0  0  0  0  0  0  0  0  0  0
   -5.2870   19.1540  -33.2540 C   0  0  0  0  0  0  0  0  0  0  0  0
   -6.6470   18.8360  -33.2170 C   0  0  0  0  0  0  0  0  0  0  0  0
   -7.5810   19.7850  -32.7800 C   0  0  0  0  0  0  0  0  0  0  0  0
   -8.9490   19.4750  -32.7340 C   0  0  0  0  0  0  0  0  0  0  0  0
   -9.8720   20.4320  -32.3000 C   0  0  0  0  0  0  0  0  0  0  0  0
   -9.4360   21.7010  -31.9100 C   0  0  0  0  0  0  0  0  0  0  0  0
   -8.0770   22.0230  -31.9520 C   0  0  0  0  0  0  0  0  0  0  0  0
   -7.1410   21.0700  -32.3850 C   0  0  0  0  0  0  0  0  0  0  0  0
   -5.7730   21.3810  -32.4300 C   0  0  0  0  0  0  0  0  0  0  0  0
   -1.6390   20.3820  -31.1180 C   0  0  0  0  0  0  0  0  0  0  0  0
   -1.3250   20.5760  -29.5950 C   0  0  1  0  0  0  0  0  0  0  0  0
   -0.6230   21.9450  -29.3430 C   0  0  0  0  0  0  0  0  0  0  0  0
   -0.3630   22.1480  -27.8330 C   0  0  2  0  0  0  0  0  0  0  0  0
    0.5360   21.0100  -27.3060 C   0  0  0  0  0  0  0  0  0  0  0  0
   -0.1670   19.6520  -27.5210 C   0  0  1  0  0  0  0  0  0  0  0  0
   -1.5110   19.6420  -26.7630 C   0  0  0  0  0  0  0  0  0  0  0  0
   -2.4080   20.7810  -27.2910 C   0  0  1  0  0  0  0  0  0  0  0  0
   -1.7050   22.1370  -27.0740 C   0  0  0  0  0  0  0  0  0  0  0  0
   -2.6660   20.5740  -28.7970 C   0  0  0  0  0  0  0  0  0  0  0  0
   -0.4220   19.4400  -29.0300 C   0  0  0  0  0  0  0  0  0  0  0  0
   -6.9270   25.0295  -29.6387 H   0  0  0  0  0  0  0  0  0  0  0  0
   -5.6690   24.7994  -30.9001 H   0  0  0  0  0  0  0  0  0  0  0  0
   -7.1399   23.7684  -30.9001 H   0  0  0  0  0  0  0  0  0  0  0  0
   -5.2923   23.7942  -28.4906 H   0  0  0  0  0  0  0  0  0  0  0  0
   -6.4229   22.5079  -29.0647 H   0  0  0  0  0  0  0  0  0  0  0  0
   -4.5990   21.5820  -30.1530 H   0  0  0  0  0  0  0  0  0  0  0  0
   -2.4827   23.0329  -32.5823 H   0  0  0  0  0  0  0  0  0  0  0  0
   -1.5602   22.8150  -31.0463 H   0  0  0  0  0  0  0  0  0  0  0  0
   -3.2169   21.5767  -33.6171 H   0  0  0  0  0  0  0  0  0  0  0  0
   -2.8311   19.8402  -33.1757 H   0  0  0  0  0  0  0  0  0  0  0  0
   -4.5622   18.4050  -33.6056 H   0  0  0  0  0  0  0  0  0  0  0  0
   -6.9856   17.8379  -33.5318 H   0  0  0  0  0  0  0  0  0  0  0  0
   -9.2961   18.4771  -33.0400 H   0  0  0  0  0  0  0  0  0  0  0  0
  -10.9434   20.1852  -32.2656 H   0  0  0  0  0  0  0  0  0  0  0  0
  -10.1659   22.4498  -31.5684 H   0  0  0  0  0  0  0  0  0  0  0  0
   -7.7399   23.0242  -31.6455 H   0  0  0  0  0  0  0  0  0  0  0  0
   -5.4316   22.3847  -32.1366 H   0  0  0  0  0  0  0  0  0  0  0  0
   -1.8633   19.3199  -31.2957 H   0  0  0  0  0  0  0  0  0  0  0  0
   -0.7542   20.7182  -31.6785 H   0  0  0  0  0  0  0  0  0  0  0  0
   -1.2679   22.7562  -29.7119 H   0  0  0  0  0  0  0  0  0  0  0  0
    0.3397   21.9553  -29.8751 H   0  0  0  0  0  0  0  0  0  0  0  0
    0.1397   23.1136  -27.6752 H   0  0  0  0  0  0  0  0  0  0  0  0
    0.7236   21.1591  -26.2324 H   0  0  0  0  0  0  0  0  0  0  0  0
    1.4912   21.0170  -27.8514 H   0  0  0  0  0  0  0  0  0  0  0  0
    0.4724   18.8421  -27.1399 H   0  0  0  0  0  0  0  0  0  0  0  0
   -1.3270   19.7884  -25.6884 H   0  0  0  0  0  0  0  0  0  0  0  0
   -2.0137   18.6764  -26.9208 H   0  0  0  0  0  0  0  0  0  0  0  0
   -3.3645   20.7738  -26.7478 H   0  0  0  0  0  0  0  0  0  0  0  0
   -1.5200   22.2863  -26.0000 H   0  0  0  0  0  0  0  0  0  0  0  0
   -2.3463   22.9469  -27.4518 H   0  0  0  0  0  0  0  0  0  0  0  0
   -3.3075   21.3870  -29.1680 H   0  0  0  0  0  0  0  0  0  0  0  0
   -3.1593   19.6012  -28.9395 H   0  0  0  0  0  0  0  0  0  0  0  0
    0.5399   19.4428  -29.5636 H   0  0  0  0  0  0  0  0  0  0  0  0
   -0.9318   18.4758  -29.1728 H   0  0  0  0  0  0  0  0  0  0  0  0
  1  2  1  0
  2  3  1  0
  3  4  1  0
  4  5  2  0
  4  6  1  0
  6  7  1  0
  7  8  1  0
  8  9  1  0
  9 10  2  0
 10 11  1  0
 11 12  2  0
 12 13  1  0
 13 14  2  0
 14 15  1  0
 15 16  2  0
 16 17  1  0
 17 18  2  0
  7 19  1  0
 20 19  1  6
 20 21  1  0
 21 22  1  0
 22 23  1  0
 23 24  1  0
 24 25  1  0
 25 26  1  0
 26 27  1  0
 26 28  1  0
 24 29  1  0
 18  9  1  0
 28 20  1  0
 17 12  1  0
 29 20  1  0
 27 22  1  0
  1 30  1  0
  1 31  1  0
  1 32  1  0
  2 33  1  0
  2 34  1  0
  3 35  1  0
  6 36  1  0
  6 37  1  0
  8 38  1  0
  8 39  1  0
 10 40  1  0
 11 41  1  0
 13 42  1  0
 14 43  1  0
 15 44  1  0
 16 45  1  0
 18 46  1  0
 19 47  1  0
 19 48  1  0
 21 49  1  0
 21 50  1  0
 22 51  1  6
 23 52  1  0
 23 53  1  0
 24 54  1  1
 25 55  1  0
 25 56  1  0
 26 57  1  1
 27 58  1  0
 27 59  1  0
 28 60  1  0
 28 61  1  0
 29 62  1  0
 29 63  1  0
M  END
>  <UniqueID>  (11) 
11

>  <SMILES>  (11) 
CCNC(=O)CN(Cc1ccc2ccccc2c1)CC12CC3CC(CC(C3)C1)C2

>  <Energy>  (11) 
68.27816707468564

>  <Genealogy>  (11) 
CCNC(=O)CN(Cc1ccc2ccccc2c1)CC12CC3CC(CC(C3)C1)C2 (3D coordinates assigned)
CCNC(=O)CN(Cc1ccc2ccccc2c1)CC12CC3CC(CC(C3)C1)C2 (nonaromatic ring conformer: 68.27816707468564 kcal/mol)

>  <smiles>  (11) 
CCNC(=O)CN(Cc1ccc2ccccc2c1)CC12CC3CC(CC(C3)C1)C2

>  <score_type>  (11) 
oracle

>  <origin>  (11) 
adg

>  <m_score__min__energy>  (11) 
-9.8499999999999996

>  <m_primary>  (11) 
energy

$$$$
11:0
     RDKit          3D

 35 36  0  0  0  0  0  0  0  0999 V2000
   -0.4340   23.0110  -26.9150 C   0  0  0  0  0  0  0  0  0  0  0  0
   -1.5360   23.9870  -26.9180 N   0  0  0  0  0  0  0  0  0  0  0  0
   -2.5360   23.6140  -27.9490 C   0  0  0  0  0  0  0  0  0  0  0  0
   -2.1860   24.2030  -29.2910 C   0  0  0  0  0  0  0  0  0  0  0  0
   -1.0060   24.0880  -29.7140 O   0  0  0  0  0  0  0  0  0  0  0  0
   -3.1350   24.9230  -30.0910 N   0  0  0  0  0  0  0  0  0  0  0  0
   -4.4790   24.5260  -30.3870 C   0  0  0  0  0  0  0  0  0  0  0  0
   -5.5410   25.2720  -29.8580 C   0  0  0  0  0  0  0  0  0  0  0  0
   -6.8630   24.9120  -30.1330 C   0  0  0  0  0  0  0  0  0  0  0  0
   -7.1330   23.8170  -30.9580 C   0  0  0  0  0  0  0  0  0  0  0  0
   -6.0800   23.0890  -31.5210 C   0  0  0  0  0  0  0  0  0  0  0  0
   -6.3410   22.0440  -32.3430 F   0  0  0  0  0  0  0  0  0  0  0  0
   -4.7560   23.4480  -31.2460 C   0  0  0  0  0  0  0  0  0  0  0  0
   -0.9930   25.3470  -27.1380 C   0  0  0  0  0  0  0  0  0  0  0  0
   -0.6170   25.9920  -25.8360 C   0  0  0  0  0  0  0  0  0  0  0  0
    0.1010   25.2910  -24.8570 C   0  0  0  0  0  0  0  0  0  0  0  0
    0.4500   25.9190  -23.7030 N   0  0  0  0  0  0  0  0  0  0  0  0
    0.1110   27.2180  -23.4810 C   0  0  0  0  0  0  0  0  0  0  0  0
   -0.6060   27.9170  -24.4540 C   0  0  0  0  0  0  0  0  0  0  0  0
   -0.9510   27.2900  -25.6080 N   0  0  0  0  0  0  0  0  0  0  0  0
   -0.1611   22.7693  -25.8772 H   0  0  0  0  0  0  0  0  0  0  0  0
   -0.7542   22.0948  -27.4328 H   0  0  0  0  0  0  0  0  0  0  0  0
    0.4368   23.4396  -27.4328 H   0  0  0  0  0  0  0  0  0  0  0  0
   -2.5685   22.5180  -28.0364 H   0  0  0  0  0  0  0  0  0  0  0  0
   -3.5152   24.0096  -27.6414 H   0  0  0  0  0  0  0  0  0  0  0  0
   -5.3328   26.1457  -29.2229 H   0  0  0  0  0  0  0  0  0  0  0  0
   -7.6918   25.4911  -29.6996 H   0  0  0  0  0  0  0  0  0  0  0  0
   -8.1739   23.5276  -31.1646 H   0  0  0  0  0  0  0  0  0  0  0  0
   -3.9291   22.8850  -31.7034 H   0  0  0  0  0  0  0  0  0  0  0  0
   -0.1003   25.2791  -27.7770 H   0  0  0  0  0  0  0  0  0  0  0  0
   -1.7674   25.9599  -27.6225 H   0  0  0  0  0  0  0  0  0  0  0  0
    0.3801   24.2398  -25.0216 H   0  0  0  0  0  0  0  0  0  0  0  0
    0.9880   25.3980  -22.9750 H   0  0  0  0  0  0  0  0  0  0  0  0
    0.3996   27.7135  -22.5423 H   0  0  0  0  0  0  0  0  0  0  0  0
   -0.8890   28.9668  -24.2871 H   0  0  0  0  0  0  0  0  0  0  0  0
  1  2  1  0
  2  3  1  0
  3  4  1  0
  4  5  2  0
  4  6  1  0
  6  7  1  0
  7  8  2  0
  8  9  1  0
  9 10  2  0
 10 11  1  0
 11 12  1  0
 11 13  2  0
  2 14  1  0
 14 15  1  0
 15 16  2  0
 16 17  1  0
 17 18  2  0
 18 19  1  0
 19 20  2  0
 13  7  1  0
 20 15  1  0
  1 21  1  0
  1 22  1  0
  1 23  1  0
  3 24  1  0
  3 25  1  0
  8 26  1  0
  9 27  1  0
 10 28  1  0
 13 29  1  0
 14 30  1  0
 14 31  1  0
 16 32  1  0
 17 33  1  0
 18 34  1  0
 19 35  1  0
M  CHG  2   6  -1  17   1
M  END
>  <UniqueID>  (12) 
12

>  <SMILES>  (12) 
CN(CC(=O)[N-]c1cccc(F)c1)Cc1c[nH+]ccn1

>  <Energy>  (12) 
40.20400750780243

>  <Genealogy>  (12) 
CN(CC(=O)[N-]c1cccc(F)c1)Cc1c[nH+]ccn1 (protonated)
CN(CC(=O)[N-]c1cccc(F)c1)Cc1c[nH+]ccn1 (3D coordinates assigned)
CN(CC(=O)[N-]c1cccc(F)c1)Cc1c[nH+]ccn1 (optimized conformer: 40.20400750780243 kcal/mol)

>  <smiles>  (12) 
CN(CC(=O)Nc1cccc(F)c1)Cc1cnccn1

>  <score_type>  (12) 
oracle

>  <origin>  (12) 
adg

>  <m_score__min__energy>  (12) 
-8.7599999999999998

>  <m_primary>  (12) 
energy

$$$$
12:0
     RDKit          3D

 51 53  0  0  0  0  0  0  0  0999 V2000
   -7.4600   23.3220  -31.5200 C   0  0  0  0  0  0  0  0  0  0  0  0
   -6.4350   24.4290  -31.3080 C   0  0  0  0  0  0  0  0  0  0  0  0
   -5.1730   23.8650  -30.8410 N   0  0  0  0  0  0  0  0  0  0  0  0
   -4.8890   22.5540  -30.7240 C   0  0  0  0  0  0  0  0  0  0  0  0
   -3.5770   22.4420  -30.3190 C   0  0  0  0  0  0  0  0  0  0  0  0
   -2.7930   21.1750  -30.1110 C   0  0  0  0  0  0  0  0  0  0  0  0
   -2.4790   20.4930  -31.3930 N   0  0  1  0  0  0  0  0  0  0  0  0
   -2.2840   21.4970  -32.4790 C   0  0  0  0  0  0  0  0  0  0  0  0
   -1.6320   20.9440  -33.7650 C   0  0  0  0  0  0  0  0  0  0  0  0
   -2.3620   19.6970  -34.2810 C   0  0  0  0  0  0  0  0  0  0  0  0
   -2.3410   18.6220  -33.2850 N   0  0  0  0  0  0  0  0  0  0  0  0
   -3.2430   17.5070  -33.4300 C   0  0  0  0  0  0  0  0  0  0  0  0
   -3.0190   16.4360  -32.7980 O   0  0  0  0  0  0  0  0  0  0  0  0
   -4.4750   17.6120  -34.2900 C   0  0  0  0  0  0  0  0  0  0  0  0
   -5.6010   18.2850  -33.5500 C   0  0  0  0  0  0  0  0  0  0  0  0
   -6.4810   17.5250  -32.7590 C   0  0  0  0  0  0  0  0  0  0  0  0
   -7.5090   18.1510  -32.0480 C   0  0  0  0  0  0  0  0  0  0  0  0
   -7.6640   19.5390  -32.1160 C   0  0  0  0  0  0  0  0  0  0  0  0
   -6.7860   20.3040  -32.8910 C   0  0  0  0  0  0  0  0  0  0  0  0
   -5.7560   19.6810  -33.6030 C   0  0  0  0  0  0  0  0  0  0  0  0
   -1.1900   18.5270  -32.3770 C   0  0  0  0  0  0  0  0  0  0  0  0
   -1.3660   19.5160  -31.2120 C   0  0  0  0  0  0  0  0  0  0  0  0
   -3.1090   23.7390  -30.2260 C   0  0  0  0  0  0  0  0  0  0  0  0
   -4.1030   24.5900  -30.5520 N   0  0  0  0  0  0  0  0  0  0  0  0
   -7.8047   22.9497  -30.5440 H   0  0  0  0  0  0  0  0  0  0  0  0
   -8.3167   23.7187  -32.0845 H   0  0  0  0  0  0  0  0  0  0  0  0
   -6.9986   22.4983  -32.0845 H   0  0  0  0  0  0  0  0  0  0  0  0
   -6.2676   24.9560  -32.2589 H   0  0  0  0  0  0  0  0  0  0  0  0
   -6.8161   25.1307  -30.5515 H   0  0  0  0  0  0  0  0  0  0  0  0
   -5.5810   21.7211  -30.9173 H   0  0  0  0  0  0  0  0  0  0  0  0
   -1.8503   21.4214  -29.6006 H   0  0  0  0  0  0  0  0  0  0  0  0
   -3.4085   20.4921  -29.5069 H   0  0  0  0  0  0  0  0  0  0  0  0
   -3.3290   19.9420  -31.6620 H   0  0  0  0  0  0  0  0  0  0  0  0
   -3.2688   21.9087  -32.7448 H   0  0  0  0  0  0  0  0  0  0  0  0
   -1.5900   22.2519  -32.0808 H   0  0  0  0  0  0  0  0  0  0  0  0
   -1.6618   21.7216  -34.5424 H   0  0  0  0  0  0  0  0  0  0  0  0
   -0.5954   20.6613  -33.5293 H   0  0  0  0  0  0  0  0  0  0  0  0
   -3.4067   19.9592  -34.5043 H   0  0  0  0  0  0  0  0  0  0  0  0
   -1.8494   19.3428  -35.1875 H   0  0  0  0  0  0  0  0  0  0  0  0
   -4.2357   18.1985  -35.1893 H   0  0  0  0  0  0  0  0  0  0  0  0
   -4.7963   16.5961  -34.5632 H   0  0  0  0  0  0  0  0  0  0  0  0
   -6.3599   16.4333  -32.6995 H   0  0  0  0  0  0  0  0  0  0  0  0
   -8.1969   17.5509  -31.4342 H   0  0  0  0  0  0  0  0  0  0  0  0
   -8.4766   20.0294  -31.5599 H   0  0  0  0  0  0  0  0  0  0  0  0
   -6.9058   21.3963  -32.9405 H   0  0  0  0  0  0  0  0  0  0  0  0
   -5.0641   20.2862  -34.2072 H   0  0  0  0  0  0  0  0  0  0  0  0
   -1.1206   17.5033  -31.9804 H   0  0  0  0  0  0  0  0  0  0  0  0
   -0.2701   18.7727  -32.9278 H   0  0  0  0  0  0  0  0  0  0  0  0
   -1.5618   18.9378  -30.2970 H   0  0  0  0  0  0  0  0  0  0  0  0
   -0.4384   20.1047  -31.1584 H   0  0  0  0  0  0  0  0  0  0  0  0
   -2.0895   24.0304  -29.9331 H   0  0  0  0  0  0  0  0  0  0  0  0
  1  2  1  0
  2  3  1  0
  3  4  1  0
  4  5  2  0
  5  6  1  0
  6  7  1  0
  7  8  1  0
  8  9  1  0
  9 10  1  0
 10 11  1  0
 11 12  1  0
 12 13  2  0
 12 14  1  0
 14 15  1  0
 15 16  2  0
 16 17  1  0
 17 18  2  0
 18 19  1  0
 19 20  2  0
 11 21  1  0
 21 22  1  0
  5 23  1  0
 23 24  2  0
 24  3  1  0
 22  7  1  0
 20 15  1  0
  1 25  1  0
  1 26  1  0
  1 27  1  0
  2 28  1  0
  2 29  1  0
  4 30  1  0
  6 31  1  0
  6 32  1  0
  7 33  1  6
  8 34  1  0
  8 35  1  0
  9 36  1  0
  9 37  1  0
 10 38  1  0
 10 39  1  0
 14 40  1  0
 14 41  1  0
 16 42  1  0
 17 43  1  0
 18 44  1  0
 19 45  1  0
 20 46  1  0
 21 47  1  0
 21 48  1  0
 22 49  1  0
 22 50  1  0
 23 51  1  0
M  CHG  1   7   1
M  END
>  <UniqueID>  (13) 
13

>  <SMILES>  (13) 
CCn1cc(C[N@H+]2CCCN(C(=O)Cc3ccccc3)CC2)cn1

>  <Energy>  (13) 
89.34609303025624

>  <Genealogy>  (13) 
CCn1cc(C[NH+]2CCCN(C(=O)Cc3ccccc3)CC2)cn1 (protonated)
CCn1cc(C[N@H+]2CCCN(C(=O)Cc3ccccc3)CC2)cn1 (chirality)
CCn1cc(C[N@H+]2CCCN(C(=O)Cc3ccccc3)CC2)cn1 (3D coordinates assigned)
CCn1cc(C[N@H+]2CCCN(C(=O)Cc3ccccc3)CC2)cn1 (nonaromatic ring conformer: 89.34609303025624 kcal/mol)

>  <smiles>  (13) 
CCn1cc(CN2CCCN(C(=O)Cc3ccccc3)CC2)cn1

>  <score_type>  (13) 
oracle

>  <origin>  (13) 
adg

>  <m_score__min__energy>  (13) 
-5.8399999999999999

>  <m_primary>  (13) 
energy

$$$$
13:0
     RDKit          3D

 50 52  0  0  0  0  0  0  0  0999 V2000
   -2.9870   15.5750  -36.0350 C   0  0  0  0  0  0  0  0  0  0  0  0
   -3.9100   16.4260  -35.3920 O   0  0  0  0  0  0  0  0  0  0  0  0
   -4.4040   15.8230  -34.2090 C   0  0  0  0  0  0  0  0  0  0  0  0
   -4.5680   16.8760  -33.0950 C   0  0  0  0  0  0  0  0  0  0  0  0
   -4.7610   18.2580  -33.6250 N   0  0  2  0  0  0  0  0  0  0  0  0
   -3.5960   19.1040  -33.2220 C   0  0  0  0  0  0  0  0  0  0  0  0
   -3.9410   20.6040  -33.1350 C   0  0  0  0  0  0  0  0  0  0  0  0
   -5.0000   20.8770  -32.1250 N   0  0  0  0  0  0  0  0  0  0  0  0
   -4.4250   21.2890  -30.8260 C   0  0  0  0  0  0  0  0  0  0  0  0
   -4.5250   22.7770  -30.6630 C   0  0  0  0  0  0  0  0  0  0  0  0
   -3.4880   23.6850  -30.7630 C   0  0  0  0  0  0  0  0  0  0  0  0
   -3.9560   24.9250  -30.5190 N   0  0  0  0  0  0  0  0  0  0  0  0
   -5.2530   24.8290  -30.2710 N   0  0  0  0  0  0  0  0  0  0  0  0
   -6.0950   25.9770  -29.9510 C   0  0  0  0  0  0  0  0  0  0  0  0
   -5.6420   23.5380  -30.3630 C   0  0  0  0  0  0  0  0  0  0  0  0
   -7.0260   23.0240  -30.0980 C   0  0  0  0  0  0  0  0  0  0  0  0
   -5.9400   19.7390  -31.9530 C   0  0  1  0  0  0  0  0  0  0  0  0
   -7.3450   20.2390  -31.5960 C   0  0  0  0  0  0  0  0  0  0  0  0
   -8.4540   19.0060  -32.2200 S   0  0  0  0  0  0  0  0  0  0  0  0
   -9.0880   18.2200  -31.1090 O   0  0  0  0  0  0  0  0  0  0  0  0
   -9.5030   19.6110  -33.1100 O   0  0  0  0  0  0  0  0  0  0  0  0
   -7.3100   18.0210  -33.1420 C   0  0  0  0  0  0  0  0  0  0  0  0
   -6.0590   18.9140  -33.2540 C   0  0  2  0  0  0  0  0  0  0  0  0
   -2.3995   15.0333  -35.2791 H   0  0  0  0  0  0  0  0  0  0  0  0
   -3.5297   14.8537  -36.6637 H   0  0  0  0  0  0  0  0  0  0  0  0
   -2.3120   16.1743  -36.6637 H   0  0  0  0  0  0  0  0  0  0  0  0
   -5.3806   15.3620  -34.4181 H   0  0  0  0  0  0  0  0  0  0  0  0
   -3.6881   15.0582  -33.8735 H   0  0  0  0  0  0  0  0  0  0  0  0
   -5.4438   16.6085  -32.4855 H   0  0  0  0  0  0  0  0  0  0  0  0
   -3.6412   16.8764  -32.5025 H   0  0  0  0  0  0  0  0  0  0  0  0
   -4.7380   18.2150  -34.6710 H   0  0  0  0  0  0  0  0  0  0  0  0
   -3.2434   18.7678  -32.2357 H   0  0  0  0  0  0  0  0  0  0  0  0
   -2.8230   18.9890  -33.9961 H   0  0  0  0  0  0  0  0  0  0  0  0
   -3.0340   21.1611  -32.8575 H   0  0  0  0  0  0  0  0  0  0  0  0
   -4.3196   20.9222  -34.1175 H   0  0  0  0  0  0  0  0  0  0  0  0
   -4.9770   20.7965  -30.0119 H   0  0  0  0  0  0  0  0  0  0  0  0
   -3.3655   20.9950  -30.7934 H   0  0  0  0  0  0  0  0  0  0  0  0
   -2.4443   23.4348  -31.0040 H   0  0  0  0  0  0  0  0  0  0  0  0
   -6.1721   26.0821  -28.8587 H   0  0  0  0  0  0  0  0  0  0  0  0
   -5.6496   26.8884  -30.3765 H   0  0  0  0  0  0  0  0  0  0  0  0
   -7.0981   25.8260  -30.3765 H   0  0  0  0  0  0  0  0  0  0  0  0
   -7.1926   22.9621  -29.0124 H   0  0  0  0  0  0  0  0  0  0  0  0
   -7.7629   23.7084  -30.5436 H   0  0  0  0  0  0  0  0  0  0  0  0
   -7.1375   22.0245  -30.5436 H   0  0  0  0  0  0  0  0  0  0  0  0
   -5.5365   19.1149  -31.1420 H   0  0  0  0  0  0  0  0  0  0  0  0
   -7.4531   20.3379  -30.5058 H   0  0  0  0  0  0  0  0  0  0  0  0
   -7.5492   21.2299  -32.0278 H   0  0  0  0  0  0  0  0  0  0  0  0
   -7.0781   17.0876  -32.6081 H   0  0  0  0  0  0  0  0  0  0  0  0
   -7.7048   17.7187  -34.1232 H   0  0  0  0  0  0  0  0  0  0  0  0
   -6.2306   19.5506  -34.1345 H   0  0  0  0  0  0  0  0  0  0  0  0
  1  2  1  0
  2  3  1  0
  3  4  1  0
  4  5  1  0
  5  6  1  0
  6  7  1  0
  7  8  1  0
  8  9  1  0
  9 10  1  0
 10 11  1  0
 11 12  2  0
 12 13  1  0
 13 14  1  0
 13 15  1  0
 15 16  1  0
  8 17  1  0
 17 18  1  0
 18 19  1  0
 19 20  2  0
 19 21  2  0
 19 22  1  0
 22 23  1  0
 23  5  1  0
 15 10  2  0
 23 17  1  0
  1 24  1  0
  1 25  1  0
  1 26  1  0
  3 27  1  0
  3 28  1  0
  4 29  1  0
  4 30  1  0
  5 31  1  6
  6 32  1  0
  6 33  1  0
  7 34  1  0
  7 35  1  0
  9 36  1  0
  9 37  1  0
 11 38  1  0
 14 39  1  0
 14 40  1  0
 14 41  1  0
 16 42  1  0
 16 43  1  0
 16 44  1  0
 17 45  1  1
 18 46  1  0
 18 47  1  0
 22 48  1  0
 22 49  1  0
 23 50  1  6
M  CHG  1   5   1
M  END
>  <UniqueID>  (14) 
14

>  <SMILES>  (14) 
COCC[N@@H+]1CCN(Cc2cnn(C)c2C)[C@H]2CS(=O)(=O)CC21

>  <Energy>  (14) 
102.43577673226336

>  <Genealogy>  (14) 
COCC[NH+]1CCN(Cc2cnn(C)c2C)C2CS(=O)(=O)CC21 (protonated)
COCC[N@@H+]1CCN(Cc2cnn(C)c2C)[C@H]2CS(=O)(=O)CC21 (chirality)
COCC[N@@H+]1CCN(Cc2cnn(C)c2C)[C@H]2CS(=O)(=O)CC21 (3D coordinates assigned)
COCC[N@@H+]1CCN(Cc2cnn(C)c2C)[C@H]2CS(=O)(=O)CC21 (nonaromatic ring conformer: 102.43577673226336 kcal/mol)

>  <smiles>  (14) 
COCCN1CCN(Cc2cnn(C)c2C)C2CS(=O)(=O)CC21

>  <score_type>  (14) 
oracle

>  <origin>  (14) 
adg

>  <m_score__min__energy>  (14) 
-7.4699999999999998

>  <m_primary>  (14) 
energy

$$$$
14:0
     RDKit          3D

 31 32  0  0  0  0  0  0  0  0999 V2000
   -6.4240   16.6060  -33.8380 C   0  0  0  0  0  0  0  0  0  0  0  0
   -7.1490   17.0780  -32.7070 O   0  0  0  0  0  0  0  0  0  0  0  0
   -7.5270   18.4150  -32.5120 C   0  0  0  0  0  0  0  0  0  0  0  0
   -6.6330   19.4220  -32.8950 C   0  0  0  0  0  0  0  0  0  0  0  0
   -6.9620   20.7690  -32.7200 C   0  0  0  0  0  0  0  0  0  0  0  0
   -8.1960   21.1280  -32.1580 C   0  0  0  0  0  0  0  0  0  0  0  0
   -8.5460   22.5760  -31.9400 C   0  0  0  0  0  0  0  0  0  0  0  0
   -7.3900   23.4500  -32.2000 N   0  0  0  0  0  0  0  0  0  0  0  0
   -6.5350   23.6110  -31.0070 C   0  0  2  0  0  0  0  0  0  0  0  0
   -6.8500   24.9230  -30.2570 C   0  0  0  0  0  0  0  0  0  0  0  0
   -5.5090   25.6470  -30.0470 C   0  0  0  0  0  0  0  0  0  0  0  0
   -4.5710   24.9620  -30.8530 O   0  0  0  0  0  0  0  0  0  0  0  0
   -5.1120   23.8140  -31.3810 C   0  0  0  0  0  0  0  0  0  0  0  0
   -4.4400   23.0050  -32.0740 O   0  0  0  0  0  0  0  0  0  0  0  0
   -9.0960   20.1220  -31.7740 C   0  0  0  0  0  0  0  0  0  0  0  0
   -8.7670   18.7760  -31.9490 C   0  0  0  0  0  0  0  0  0  0  0  0
   -5.5470   16.0350  -33.4992 H   0  0  0  0  0  0  0  0  0  0  0  0
   -7.0725   15.9565  -34.4443 H   0  0  0  0  0  0  0  0  0  0  0  0
   -6.0925   17.4619  -34.4443 H   0  0  0  0  0  0  0  0  0  0  0  0
   -5.6632   19.1507  -33.3375 H   0  0  0  0  0  0  0  0  0  0  0  0
   -6.2504   21.5507  -33.0242 H   0  0  0  0  0  0  0  0  0  0  0  0
   -9.3650   22.8531  -32.6200 H   0  0  0  0  0  0  0  0  0  0  0  0
   -8.8508   22.7058  -30.8911 H   0  0  0  0  0  0  0  0  0  0  0  0
   -6.8330   22.9770  -32.9510 H   0  0  0  0  0  0  0  0  0  0  0  0
   -6.7161   22.7030  -30.4131 H   0  0  0  0  0  0  0  0  0  0  0  0
   -7.5283   25.5483  -30.8560 H   0  0  0  0  0  0  0  0  0  0  0  0
   -7.3438   24.7195  -29.2954 H   0  0  0  0  0  0  0  0  0  0  0  0
   -5.5881   26.6983  -30.3607 H   0  0  0  0  0  0  0  0  0  0  0  0
   -5.2100   25.6463  -28.9884 H   0  0  0  0  0  0  0  0  0  0  0  0
  -10.0659   20.3951  -31.3328 H   0  0  0  0  0  0  0  0  0  0  0  0
   -9.4791   17.9943  -31.6459 H   0  0  0  0  0  0  0  0  0  0  0  0
  1  2  1  0
  2  3  1  0
  3  4  2  0
  4  5  1  0
  5  6  2  0
  6  7  1  0
  7  8  1  0
  8  9  1  0
  9 10  1  0
 10 11  1  0
 11 12  1  0
 12 13  1  0
 13 14  2  0
  6 15  1  0
 15 16  2  0
 16  3  1  0
 13  9  1  0
  1 17  1  0
  1 18  1  0
  1 19  1  0
  4 20  1  0
  5 21  1  0
  7 22  1  0
  7 23  1  0
  8 24  1  0
  9 25  1  1
 10 26  1  0
 10 27  1  0
 11 28  1  0
 11 29  1  0
 15 30  1  0
 16 31  1  0
M  END
>  <UniqueID>  (15) 
15

>  <SMILES>  (15) 
COc1ccc(CN[C@@H]2CCOC2=O)cc1

>  <Energy>  (15) 
37.842443567157154

>  <Genealogy>  (15) 
COc1ccc(CN[C@@H]2CCOC2=O)cc1 (chirality)
COc1ccc(CN[C@@H]2CCOC2=O)cc1 (3D coordinates assigned)
COc1ccc(CN[C@@H]2CCOC2=O)cc1 (nonaromatic ring conformer: 37.842443567157154 kcal/mol)

>  <smiles>  (15) 
COc1ccc(CNC2CCOC2=O)cc1

>  <score_type>  (15) 
oracle

>  <origin>  (15) 
adg

>  <m_score__min__energy>  (15) 
-6.9199999999999999

>  <m_primary>  (15) 
energy

$$$$
15:0
     RDKit          3D

 52 56  0  0  0  0  0  0  0  0999 V2000
   -5.6940   25.1380  -29.8840 C   0  0  0  0  0  0  0  0  0  0  0  0
   -4.3040   25.1900  -30.1910 O   0  0  0  0  0  0  0  0  0  0  0  0
   -3.5020   24.0640  -30.4250 C   0  0  0  0  0  0  0  0  0  0  0  0
   -2.3030   23.9410  -29.7140 C   0  0  0  0  0  0  0  0  0  0  0  0
   -1.4700   22.8370  -29.9130 C   0  0  0  0  0  0  0  0  0  0  0  0
   -1.8280   21.8350  -30.8260 C   0  0  0  0  0  0  0  0  0  0  0  0
   -0.9700   20.7020  -31.0340 N   0  0  0  0  0  0  0  0  0  0  0  0
   -0.1570   20.4760  -32.0870 C   0  0  0  0  0  0  0  0  0  0  0  0
   -0.0440   21.5170  -33.5490 S   0  0  0  0  0  0  0  0  0  0  0  0
   -0.8660   20.3190  -34.6540 C   0  0  0  0  0  0  0  0  0  0  0  0
   -1.9560   19.5970  -33.9320 C   0  0  0  0  0  0  0  0  0  0  0  0
   -1.7640   18.5640  -33.0950 N   0  0  0  0  0  0  0  0  0  0  0  0
   -2.9480   18.2090  -32.6250 N   0  0  0  0  0  0  0  0  0  0  0  0
   -3.8320   19.0500  -33.2010 C   0  0  0  0  0  0  0  0  0  0  0  0
   -5.2880   19.0230  -32.9610 C   0  0  0  0  0  0  0  0  0  0  0  0
   -5.9200   17.8210  -32.5960 C   0  0  0  0  0  0  0  0  0  0  0  0
   -7.3000   17.7920  -32.3690 C   0  0  0  0  0  0  0  0  0  0  0  0
   -8.0580   18.9580  -32.5040 C   0  0  0  0  0  0  0  0  0  0  0  0
   -7.4370   20.1560  -32.8650 C   0  0  0  0  0  0  0  0  0  0  0  0
   -6.0580   20.1910  -33.0940 C   0  0  0  0  0  0  0  0  0  0  0  0
   -3.2280   19.9040  -34.0010 O   0  0  0  0  0  0  0  0  0  0  0  0
    0.6410   19.4140  -31.8790 N   0  0  0  0  0  0  0  0  0  0  0  0
    0.3500   18.9430  -30.6750 N   0  0  0  0  0  0  0  0  0  0  0  0
   -0.6220   19.7260  -30.1650 C   0  0  0  0  0  0  0  0  0  0  0  0
   -1.2170   19.5000  -28.8290 C   0  0  0  0  0  0  0  0  0  0  0  0
   -2.3380   20.2310  -28.4000 C   0  0  0  0  0  0  0  0  0  0  0  0
   -2.8920   19.9980  -27.1370 C   0  0  0  0  0  0  0  0  0  0  0  0
   -2.3410   19.0250  -26.2990 C   0  0  0  0  0  0  0  0  0  0  0  0
   -1.2400   18.2790  -26.7260 C   0  0  0  0  0  0  0  0  0  0  0  0
   -0.6830   18.5090  -27.9870 C   0  0  0  0  0  0  0  0  0  0  0  0
   -3.0270   21.9550  -31.5440 C   0  0  0  0  0  0  0  0  0  0  0  0
   -3.8600   23.0610  -31.3470 C   0  0  0  0  0  0  0  0  0  0  0  0
   -5.8284   25.1330  -28.7923 H   0  0  0  0  0  0  0  0  0  0  0  0
   -6.1971   26.0180  -30.3113 H   0  0  0  0  0  0  0  0  0  0  0  0
   -6.1299   24.2229  -30.3113 H   0  0  0  0  0  0  0  0  0  0  0  0
   -2.0140   24.7196  -28.9927 H   0  0  0  0  0  0  0  0  0  0  0  0
   -0.5284   22.7536  -29.3504 H   0  0  0  0  0  0  0  0  0  0  0  0
   -1.2955   20.8556  -35.5128 H   0  0  0  0  0  0  0  0  0  0  0  0
   -0.1217   19.5849  -34.9962 H   0  0  0  0  0  0  0  0  0  0  0  0
   -0.8580   18.1140  -32.8360 H   0  0  0  0  0  0  0  0  0  0  0  0
   -5.3273   16.9006  -32.4886 H   0  0  0  0  0  0  0  0  0  0  0  0
   -7.7895   16.8492  -32.0836 H   0  0  0  0  0  0  0  0  0  0  0  0
   -9.1432   18.9325  -32.3261 H   0  0  0  0  0  0  0  0  0  0  0  0
   -8.0341   21.0739  -32.9694 H   0  0  0  0  0  0  0  0  0  0  0  0
   -5.5740   21.1366  -33.3794 H   0  0  0  0  0  0  0  0  0  0  0  0
   -2.7819   20.9902  -29.0608 H   0  0  0  0  0  0  0  0  0  0  0  0
   -3.7626   20.5815  -26.8030 H   0  0  0  0  0  0  0  0  0  0  0  0
   -2.7740   18.8466  -25.3037 H   0  0  0  0  0  0  0  0  0  0  0  0
   -0.8105   17.5089  -26.0684 H   0  0  0  0  0  0  0  0  0  0  0  0
    0.1776   17.9116  -28.3223 H   0  0  0  0  0  0  0  0  0  0  0  0
   -3.3134   21.1755  -32.2654 H   0  0  0  0  0  0  0  0  0  0  0  0
   -4.7984   23.1480  -31.9143 H   0  0  0  0  0  0  0  0  0  0  0  0
  1  2  1  0
  2  3  1  0
  3  4  2  0
  4  5  1  0
  5  6  2  0
  6  7  1  0
  7  8  1  0
  8  9  1  0
  9 10  1  0
 10 11  1  0
 11 12  2  0
 12 13  1  0
 13 14  2  0
 14 15  1  0
 15 16  2  0
 16 17  1  0
 17 18  2  0
 18 19  1  0
 19 20  2  0
 14 21  1  0
  8 22  2  0
 22 23  1  0
 23 24  2  0
 24 25  1  0
 25 26  2  0
 26 27  1  0
 27 28  2  0
 28 29  1  0
 29 30  2  0
  6 31  1  0
 31 32  2  0
 32  3  1  0
 24  7  1  0
 30 25  1  0
 21 11  1  0
 20 15  1  0
  1 33  1  0
  1 34  1  0
  1 35  1  0
  4 36  1  0
  5 37  1  0
 10 38  1  0
 10 39  1  0
 12 40  1  0
 16 41  1  0
 17 42  1  0
 18 43  1  0
 19 44  1  0
 20 45  1  0
 26 46  1  0
 27 47  1  0
 28 48  1  0
 29 49  1  0
 30 50  1  0
 31 51  1  0
 32 52  1  0
M  CHG  1  12   1
M  END
>  <UniqueID>  (16) 
16

>  <SMILES>  (16) 
COc1ccc(-n2c(SCc3[nH+]nc(-c4ccccc4)o3)nnc2-c2ccccc2)cc1

>  <Energy>  (16) 
131.53921871675985

>  <Genealogy>  (16) 
COc1ccc(-n2c(SCc3[nH+]nc(-c4ccccc4)o3)nnc2-c2ccccc2)cc1 (protonated)
COc1ccc(-n2c(SCc3[nH+]nc(-c4ccccc4)o3)nnc2-c2ccccc2)cc1 (3D coordinates assigned)
COc1ccc(-n2c(SCc3[nH+]nc(-c4ccccc4)o3)nnc2-c2ccccc2)cc1 (optimized conformer: 131.53921871675985 kcal/mol)

>  <smiles>  (16) 
COc1ccc(-n2c(SCc3nnc(-c4ccccc4)o3)nnc2-c2ccccc2)cc1

>  <score_type>  (16) 
oracle

>  <origin>  (16) 
adg

>  <m_score__min__energy>  (16) 
-9.5199999999999996

>  <m_primary>  (16) 
energy

$$$$
16:0
     RDKit          3D

 39 41  0  0  0  0  0  0  0  0999 V2000
   -8.7640   23.0860  -31.9730 C   0  0  0  0  0  0  0  0  0  0  0  0
   -8.0500   22.0570  -31.0970 C   0  0  0  0  0  0  0  0  0  0  0  0
   -6.5850   21.9180  -31.4850 C   0  0  0  0  0  0  0  0  0  0  0  0
   -6.1810   20.9410  -32.4360 C   0  0  0  0  0  0  0  0  0  0  0  0
   -7.1200   19.9710  -33.0430 C   0  0  0  0  0  0  0  0  0  0  0  0
   -8.3470   20.2600  -33.1020 O   0  0  0  0  0  0  0  0  0  0  0  0
   -6.6590   18.6450  -33.5280 C   0  0  0  0  0  0  0  0  0  0  0  0
   -5.6670   18.5390  -34.5230 C   0  0  0  0  0  0  0  0  0  0  0  0
   -5.2490   17.2840  -34.9760 C   0  0  0  0  0  0  0  0  0  0  0  0
   -5.8200   16.1230  -34.4520 C   0  0  0  0  0  0  0  0  0  0  0  0
   -6.8130   16.2140  -33.4730 C   0  0  0  0  0  0  0  0  0  0  0  0
   -7.2340   17.4660  -33.0160 C   0  0  0  0  0  0  0  0  0  0  0  0
   -4.8790   20.8650  -32.8180 N   0  0  0  0  0  0  0  0  0  0  0  0
   -3.9190   21.6790  -32.3190 C   0  0  0  0  0  0  0  0  0  0  0  0
   -4.2420   22.6410  -31.3620 C   0  0  0  0  0  0  0  0  0  0  0  0
   -3.2390   23.4730  -30.8380 C   0  0  0  0  0  0  0  0  0  0  0  0
   -3.5520   24.4430  -29.8710 C   0  0  0  0  0  0  0  0  0  0  0  0
   -2.5850   25.2950  -29.3180 O   0  0  0  0  0  0  0  0  0  0  0  0
   -1.8170   24.9960  -28.1570 C   0  0  0  0  0  0  0  0  0  0  0  0
   -4.8710   24.5690  -29.4370 C   0  0  0  0  0  0  0  0  0  0  0  0
   -5.8770   23.7490  -29.9520 C   0  0  0  0  0  0  0  0  0  0  0  0
   -5.5860   22.7690  -30.9270 C   0  0  0  0  0  0  0  0  0  0  0  0
   -9.2741   23.8212  -31.3333 H   0  0  0  0  0  0  0  0  0  0  0  0
   -8.0280   23.6007  -32.6081 H   0  0  0  0  0  0  0  0  0  0  0  0
   -9.5038   22.5767  -32.6081 H   0  0  0  0  0  0  0  0  0  0  0  0
   -8.1131   22.3762  -30.0462 H   0  0  0  0  0  0  0  0  0  0  0  0
   -8.5396   21.0823  -31.2391 H   0  0  0  0  0  0  0  0  0  0  0  0
   -5.2184   19.4498  -34.9463 H   0  0  0  0  0  0  0  0  0  0  0  0
   -4.4681   17.2114  -35.7473 H   0  0  0  0  0  0  0  0  0  0  0  0
   -5.4885   15.1370  -34.8095 H   0  0  0  0  0  0  0  0  0  0  0  0
   -7.2640   15.2990  -33.0614 H   0  0  0  0  0  0  0  0  0  0  0  0
   -8.0209   17.5308  -32.2501 H   0  0  0  0  0  0  0  0  0  0  0  0
   -2.8809   21.5814  -32.6695 H   0  0  0  0  0  0  0  0  0  0  0  0
   -2.2015   23.3644  -31.1870 H   0  0  0  0  0  0  0  0  0  0  0  0
   -2.4073   25.2258  -27.2577 H   0  0  0  0  0  0  0  0  0  0  0  0
   -1.5510   23.9286  -28.1582 H   0  0  0  0  0  0  0  0  0  0  0  0
   -0.8993   25.6025  -28.1582 H   0  0  0  0  0  0  0  0  0  0  0  0
   -5.1226   25.3248  -28.6784 H   0  0  0  0  0  0  0  0  0  0  0  0
   -6.9102   23.8677  -29.5936 H   0  0  0  0  0  0  0  0  0  0  0  0
  1  2  1  0
  2  3  1  0
  3  4  2  0
  4  5  1  0
  5  6  2  0
  5  7  1  0
  7  8  2  0
  8  9  1  0
  9 10  2  0
 10 11  1  0
 11 12  2  0
  4 13  1  0
 13 14  2  0
 14 15  1  0
 15 16  2  0
 16 17  1  0
 17 18  1  0
 18 19  1  0
 17 20  2  0
 20 21  1  0
 21 22  2  0
 22  3  1  0
 12  7  1  0
 22 15  1  0
  1 23  1  0
  1 24  1  0
  1 25  1  0
  2 26  1  0
  2 27  1  0
  8 28  1  0
  9 29  1  0
 10 30  1  0
 11 31  1  0
 12 32  1  0
 14 33  1  0
 16 34  1  0
 19 35  1  0
 19 36  1  0
 19 37  1  0
 20 38  1  0
 21 39  1  0
M  END
>  <UniqueID>  (17) 
17

>  <SMILES>  (17) 
CCc1c(C(=O)c2ccccc2)ncc2cc(OC)ccc12

>  <Energy>  (17) 
53.97610724942394

>  <Genealogy>  (17) 
CCc1c(C(=O)c2ccccc2)ncc2cc(OC)ccc12 (3D coordinates assigned)
CCc1c(C(=O)c2ccccc2)ncc2cc(OC)ccc12 (optimized conformer: 53.97610724942394 kcal/mol)

>  <smiles>  (17) 
CCc1c(C(=O)c2ccccc2)ncc2cc(OC)ccc12

>  <score_type>  (17) 
oracle

>  <origin>  (17) 
adg

>  <m_score__min__energy>  (17) 
-8.6300000000000008

>  <m_primary>  (17) 
energy

$$$$
17:0
     RDKit          3D

 60 63  0  0  0  0  0  0  0  0999 V2000
    1.3580   21.1990  -34.7270 C   0  0  0  0  0  0  0  0  0  0  0  0
    0.5920   21.5340  -33.5740 O   0  0  0  0  0  0  0  0  0  0  0  0
   -0.7320   21.1230  -33.3570 C   0  0  0  0  0  0  0  0  0  0  0  0
   -1.5120   21.6210  -32.2960 C   0  0  0  0  0  0  0  0  0  0  0  0
   -2.8260   21.1780  -32.1180 C   0  0  0  0  0  0  0  0  0  0  0  0
   -3.3880   20.2290  -32.9940 C   0  0  0  0  0  0  0  0  0  0  0  0
   -4.7440   19.7650  -32.8040 N   0  0  0  0  0  0  0  0  0  0  0  0
   -5.6660   19.6720  -33.9450 C   0  0  0  0  0  0  0  0  0  0  0  0
   -7.1130   19.8290  -33.4690 C   0  0  0  0  0  0  0  0  0  0  0  0
   -7.4640   18.8090  -32.4570 N   0  0  0  0  0  0  0  0  0  0  0  0
   -8.7570   19.0650  -31.7860 C   0  0  0  0  0  0  0  0  0  0  0  0
   -9.1210   20.5620  -31.6740 C   0  0  0  0  0  0  0  0  0  0  0  0
   -8.1020   21.3250  -30.8180 C   0  0  0  0  0  0  0  0  0  0  0  0
   -8.1860   22.7680  -31.0850 N   0  0  0  0  0  0  0  0  0  0  0  0
   -7.1400   23.1950  -32.0230 C   0  0  0  0  0  0  0  0  0  0  0  0
   -5.9110   23.6070  -31.2730 C   0  0  0  0  0  0  0  0  0  0  0  0
   -5.3970   24.8810  -31.1900 C   0  0  0  0  0  0  0  0  0  0  0  0
   -4.3010   24.8140  -30.4780 O   0  0  0  0  0  0  0  0  0  0  0  0
   -4.1320   23.5540  -30.1350 C   0  0  0  0  0  0  0  0  0  0  0  0
   -2.9980   23.0720  -29.3210 C   0  0  0  0  0  0  0  0  0  0  0  0
   -1.8320   23.8480  -29.1830 C   0  0  0  0  0  0  0  0  0  0  0  0
   -0.7630   23.3850  -28.4080 C   0  0  0  0  0  0  0  0  0  0  0  0
   -0.8450   22.1440  -27.7700 C   0  0  0  0  0  0  0  0  0  0  0  0
    0.1930   21.6940  -27.0220 F   0  0  0  0  0  0  0  0  0  0  0  0
   -1.9980   21.3660  -27.9030 C   0  0  0  0  0  0  0  0  0  0  0  0
   -3.0710   21.8260  -28.6730 C   0  0  0  0  0  0  0  0  0  0  0  0
   -5.1120   22.7510  -30.6100 N   0  0  0  0  0  0  0  0  0  0  0  0
   -6.3700   18.3950  -31.5450 C   0  0  0  0  0  0  0  0  0  0  0  0
   -5.2370   19.4280  -31.4600 C   0  0  0  0  0  0  0  0  0  0  0  0
   -2.6030   19.7390  -34.0530 C   0  0  0  0  0  0  0  0  0  0  0  0
   -1.2890   20.1830  -34.2290 C   0  0  0  0  0  0  0  0  0  0  0  0
    2.3245   20.7763  -34.4150 H   0  0  0  0  0  0  0  0  0  0  0  0
    0.8107   20.4581  -35.3282 H   0  0  0  0  0  0  0  0  0  0  0  0
    1.5305   22.1039  -35.3282 H   0  0  0  0  0  0  0  0  0  0  0  0
   -1.0856   22.3621  -31.6039 H   0  0  0  0  0  0  0  0  0  0  0  0
   -3.4266   21.5743  -31.2860 H   0  0  0  0  0  0  0  0  0  0  0  0
   -5.4324   20.4684  -34.6669 H   0  0  0  0  0  0  0  0  0  0  0  0
   -5.5495   18.6875  -34.4216 H   0  0  0  0  0  0  0  0  0  0  0  0
   -7.2376   20.8286  -33.0272 H   0  0  0  0  0  0  0  0  0  0  0  0
   -7.7777   19.6986  -34.3357 H   0  0  0  0  0  0  0  0  0  0  0  0
   -9.5492   18.5581  -32.3566 H   0  0  0  0  0  0  0  0  0  0  0  0
   -8.6639   18.6823  -30.7589 H   0  0  0  0  0  0  0  0  0  0  0  0
   -9.1414   21.0014  -32.6822 H   0  0  0  0  0  0  0  0  0  0  0  0
  -10.1065   20.6428  -31.1920 H   0  0  0  0  0  0  0  0  0  0  0  0
   -8.3121   21.1405  -29.7541 H   0  0  0  0  0  0  0  0  0  0  0  0
   -7.0905   20.9740  -31.0702 H   0  0  0  0  0  0  0  0  0  0  0  0
   -9.1130   22.9540  -31.5390 H   0  0  0  0  0  0  0  0  0  0  0  0
   -6.8926   22.3608  -32.6960 H   0  0  0  0  0  0  0  0  0  0  0  0
   -7.5086   24.0513  -32.6069 H   0  0  0  0  0  0  0  0  0  0  0  0
   -5.8278   25.7880  -31.6391 H   0  0  0  0  0  0  0  0  0  0  0  0
   -1.7607   24.8232  -29.6869 H   0  0  0  0  0  0  0  0  0  0  0  0
    0.1436   23.9987  -28.3006 H   0  0  0  0  0  0  0  0  0  0  0  0
   -2.0619   20.3894  -27.4009 H   0  0  0  0  0  0  0  0  0  0  0  0
   -3.9769   21.2099  -28.7723 H   0  0  0  0  0  0  0  0  0  0  0  0
   -6.7888   18.2503  -30.5382 H   0  0  0  0  0  0  0  0  0  0  0  0
   -5.9393   17.4664  -31.9478 H   0  0  0  0  0  0  0  0  0  0  0  0
   -5.6144   20.3398  -30.9739 H   0  0  0  0  0  0  0  0  0  0  0  0
   -4.4095   19.0004  -30.8748 H   0  0  0  0  0  0  0  0  0  0  0  0
   -3.0265   18.9999  -34.7490 H   0  0  0  0  0  0  0  0  0  0  0  0
   -0.6877   19.7889  -35.0616 H   0  0  0  0  0  0  0  0  0  0  0  0
  1  2  1  0
  2  3  1  0
  3  4  2  0
  4  5  1  0
  5  6  2  0
  6  7  1  0
  7  8  1  0
  8  9  1  0
  9 10  1  0
 10 11  1  0
 11 12  1  0
 12 13  1  0
 13 14  1  0
 14 15  1  0
 15 16  1  0
 16 17  2  0
 17 18  1  0
 18 19  1  0
 19 20  1  0
 20 21  2  0
 21 22  1  0
 22 23  2  0
 23 24  1  0
 23 25  1  0
 25 26  2  0
 19 27  2  0
 10 28  1  0
 28 29  1  0
  6 30  1  0
 30 31  2  0
 31  3  1  0
 29  7  1  0
 27 16  1  0
 26 20  1  0
  1 32  1  0
  1 33  1  0
  1 34  1  0
  4 35  1  0
  5 36  1  0
  8 37  1  0
  8 38  1  0
  9 39  1  0
  9 40  1  0
 11 41  1  0
 11 42  1  0
 12 43  1  0
 12 44  1  0
 13 45  1  0
 13 46  1  0
 14 47  1  0
 15 48  1  0
 15 49  1  0
 17 50  1  0
 21 51  1  0
 22 52  1  0
 25 53  1  0
 26 54  1  0
 28 55  1  0
 28 56  1  0
 29 57  1  0
 29 58  1  0
 30 59  1  0
 31 60  1  0
M  END
>  <UniqueID>  (18) 
18

>  <SMILES>  (18) 
COc1ccc(N2CCN(CCCNCc3coc(-c4ccc(F)cc4)n3)CC2)cc1

>  <Energy>  (18) 
99.43299938587482

>  <Genealogy>  (18) 
COc1ccc(N2CCN(CCCNCc3coc(-c4ccc(F)cc4)n3)CC2)cc1 (3D coordinates assigned)
COc1ccc(N2CCN(CCCNCc3coc(-c4ccc(F)cc4)n3)CC2)cc1 (nonaromatic ring conformer: 99.43299938587482 kcal/mol)

>  <smiles>  (18) 
COc1ccc(N2CCN(CCCNCc3coc(-c4ccc(F)cc4)n3)CC2)cc1

>  <score_type>  (18) 
oracle

>  <origin>  (18) 
adg

>  <m_score__min__energy>  (18) 
-8.4600000000000009

>  <m_primary>  (18) 
energy

$$$$
18:0
     RDKit          3D

 39 43  0  0  0  0  0  0  0  0999 V2000
   -0.5510   24.9520  -28.9370 O   0  0  0  0  0  0  0  0  0  0  0  0
   -1.6580   24.3500  -28.9780 C   0  0  0  0  0  0  0  0  0  0  0  0
   -2.7400   24.9510  -29.5460 N   0  0  0  0  0  0  0  0  0  0  0  0
   -3.9550   24.3280  -29.6030 C   0  0  0  0  0  0  0  0  0  0  0  0
   -5.1190   25.0240  -30.2380 C   0  0  0  0  0  0  0  0  0  0  0  0
   -5.3310   24.5410  -31.5640 O   0  0  0  0  0  0  0  0  0  0  0  0
   -5.3970   23.1860  -31.9320 C   0  0  0  0  0  0  0  0  0  0  0  0
   -6.6090   22.4750  -32.0040 C   0  0  0  0  0  0  0  0  0  0  0  0
   -6.6170   21.1290  -32.3810 C   0  0  0  0  0  0  0  0  0  0  0  0
   -5.4160   20.4680  -32.6920 C   0  0  0  0  0  0  0  0  0  0  0  0
   -5.4240   19.0430  -33.0930 C   0  0  0  0  0  0  0  0  0  0  0  0
   -6.5670   18.3110  -33.1960 N   0  0  0  0  0  0  0  0  0  0  0  0
   -6.1130   17.1090  -33.5770 C   0  0  0  0  0  0  0  0  0  0  0  0
   -6.8560   15.9590  -33.8360 C   0  0  0  0  0  0  0  0  0  0  0  0
   -6.1540   14.8030  -34.2260 C   0  0  0  0  0  0  0  0  0  0  0  0
   -4.7450   14.8280  -34.3470 C   0  0  0  0  0  0  0  0  0  0  0  0
   -4.0290   16.0100  -34.0760 C   0  0  0  0  0  0  0  0  0  0  0  0
   -4.7580   17.1340  -33.6930 C   0  0  0  0  0  0  0  0  0  0  0  0
   -4.2910   18.3520  -33.3910 N   0  0  0  0  0  0  0  0  0  0  0  0
   -4.2070   21.1800  -32.6140 C   0  0  0  0  0  0  0  0  0  0  0  0
   -4.2020   22.5260  -32.2360 C   0  0  0  0  0  0  0  0  0  0  0  0
   -4.1060   23.0710  -29.0960 N   0  0  0  0  0  0  0  0  0  0  0  0
   -3.0500   22.4450  -28.5220 C   0  0  0  0  0  0  0  0  0  0  0  0
   -3.0960   21.1740  -27.9720 C   0  0  0  0  0  0  0  0  0  0  0  0
   -1.5480   20.8450  -27.3910 S   0  0  0  0  0  0  0  0  0  0  0  0
   -0.8190   22.3010  -27.8320 C   0  0  0  0  0  0  0  0  0  0  0  0
   -1.8010   23.0680  -28.4480 C   0  0  0  0  0  0  0  0  0  0  0  0
   -6.0219   24.8395  -29.6374 H   0  0  0  0  0  0  0  0  0  0  0  0
   -4.9057   26.1022  -30.2833 H   0  0  0  0  0  0  0  0  0  0  0  0
   -7.5553   22.9811  -31.7623 H   0  0  0  0  0  0  0  0  0  0  0  0
   -7.5703   20.5829  -32.4347 H   0  0  0  0  0  0  0  0  0  0  0  0
   -7.9517   15.9547  -33.7392 H   0  0  0  0  0  0  0  0  0  0  0  0
   -6.7045   13.8746  -34.4380 H   0  0  0  0  0  0  0  0  0  0  0  0
   -4.2058   13.9198  -34.6543 H   0  0  0  0  0  0  0  0  0  0  0  0
   -2.9330   16.0447  -34.1636 H   0  0  0  0  0  0  0  0  0  0  0  0
   -3.2590   20.6753  -32.8517 H   0  0  0  0  0  0  0  0  0  0  0  0
   -3.2486   23.0714  -32.1771 H   0  0  0  0  0  0  0  0  0  0  0  0
   -3.9714   20.5096  -27.9239 H   0  0  0  0  0  0  0  0  0  0  0  0
    0.2297   22.5877  -27.6646 H   0  0  0  0  0  0  0  0  0  0  0  0
  1  2  2  0
  2  3  1  0
  3  4  2  0
  4  5  1  0
  5  6  1  0
  6  7  1  0
  7  8  2  0
  8  9  1  0
  9 10  2  0
 10 11  1  0
 11 12  2  0
 12 13  1  0
 13 14  2  0
 14 15  1  0
 15 16  2  0
 16 17  1  0
 17 18  2  0
 18 19  1  0
 10 20  1  0
 20 21  2  0
  4 22  1  0
 22 23  1  0
 23 24  2  0
 24 25  1  0
 25 26  1  0
 26 27  2  0
 27  2  1  0
 21  7  1  0
 27 23  1  0
 19 11  1  0
 18 13  1  0
  5 28  1  0
  5 29  1  0
  8 30  1  0
  9 31  1  0
 14 32  1  0
 15 33  1  0
 16 34  1  0
 17 35  1  0
 20 36  1  0
 21 37  1  0
 24 38  1  0
 26 39  1  0
M  CHG  2  19  -1  22  -1
M  END
>  <UniqueID>  (19) 
19

>  <SMILES>  (19) 
O=c1nc(COc2ccc(-c3nc4ccccc4[n-]3)cc2)[n-]c2cscc12

>  <Energy>  (19) 
112.10524330392707

>  <Genealogy>  (19) 
O=c1nc(COc2ccc(-c3nc4ccccc4[n-]3)cc2)[n-]c2cscc12 (protonated)
O=c1nc(COc2ccc(-c3nc4ccccc4[n-]3)cc2)[n-]c2cscc12 (3D coordinates assigned)
O=c1nc(COc2ccc(-c3nc4ccccc4[n-]3)cc2)[n-]c2cscc12 (optimized conformer: 112.10524330392707 kcal/mol)

>  <smiles>  (19) 
O=c1nc(COc2ccc(-c3nc4ccccc4[nH]3)cc2)[nH]c2cscc12

>  <score_type>  (19) 
oracle

>  <origin>  (19) 
adg

>  <m_score__min__energy>  (19) 
-10.15

>  <m_primary>  (19) 
energy

$$$$
19:0
     RDKit          3D

 44 45  0  0  0  0  0  0  0  0999 V2000
   -2.0630   24.8160  -28.2130 C   0  0  0  0  0  0  0  0  0  0  0  0
   -2.7770   25.2640  -29.3610 O   0  0  0  0  0  0  0  0  0  0  0  0
   -3.7980   24.5380  -29.9920 C   0  0  0  0  0  0  0  0  0  0  0  0
   -5.1230   24.9270  -29.7700 C   0  0  0  0  0  0  0  0  0  0  0  0
   -6.1740   24.2380  -30.3790 C   0  0  0  0  0  0  0  0  0  0  0  0
   -5.9100   23.1520  -31.2160 C   0  0  0  0  0  0  0  0  0  0  0  0
   -4.5830   22.7350  -31.4420 C   0  0  0  0  0  0  0  0  0  0  0  0
   -4.2540   21.6420  -32.2620 O   0  0  0  0  0  0  0  0  0  0  0  0
   -2.9730   21.3850  -32.8430 C   0  0  0  0  0  0  0  0  0  0  0  0
   -2.9240   19.9970  -33.4810 C   0  0  0  0  0  0  0  0  0  0  0  0
   -4.0080   19.2190  -33.0200 O   0  0  0  0  0  0  0  0  0  0  0  0
   -4.8510   18.8430  -34.0900 C   0  0  0  0  0  0  0  0  0  0  0  0
   -6.2920   19.3550  -33.8840 C   0  0  0  0  0  0  0  0  0  0  0  0
   -6.5820   19.7990  -32.4940 N   0  0  0  0  0  0  0  0  0  0  0  0
   -7.6430   20.8320  -32.4720 C   0  0  0  0  0  0  0  0  0  0  0  0
   -9.0430   20.2210  -32.6600 C   0  0  0  0  0  0  0  0  0  0  0  0
   -9.2990   19.2320  -31.6830 O   0  0  0  0  0  0  0  0  0  0  0  0
   -8.3640   18.1810  -31.8150 C   0  0  0  0  0  0  0  0  0  0  0  0
   -6.9350   18.6920  -31.5720 C   0  0  0  0  0  0  0  0  0  0  0  0
   -3.5350   23.4390  -30.8340 C   0  0  0  0  0  0  0  0  0  0  0  0
   -2.5873   25.1450  -27.3037 H   0  0  0  0  0  0  0  0  0  0  0  0
   -2.0025   23.7177  -28.2243 H   0  0  0  0  0  0  0  0  0  0  0  0
   -1.0478   25.2393  -28.2243 H   0  0  0  0  0  0  0  0  0  0  0  0
   -5.3386   25.7812  -29.1114 H   0  0  0  0  0  0  0  0  0  0  0  0
   -7.2128   24.5517  -30.1988 H   0  0  0  0  0  0  0  0  0  0  0  0
   -6.7414   22.6196  -31.7011 H   0  0  0  0  0  0  0  0  0  0  0  0
   -2.7707   22.1421  -33.6149 H   0  0  0  0  0  0  0  0  0  0  0  0
   -2.2144   21.4298  -32.0477 H   0  0  0  0  0  0  0  0  0  0  0  0
   -2.9848   20.0958  -34.5749 H   0  0  0  0  0  0  0  0  0  0  0  0
   -1.9803   19.5039  -33.2047 H   0  0  0  0  0  0  0  0  0  0  0  0
   -4.4522   19.2652  -35.0242 H   0  0  0  0  0  0  0  0  0  0  0  0
   -4.8793   17.7443  -34.1364 H   0  0  0  0  0  0  0  0  0  0  0  0
   -6.4570   20.2063  -34.5608 H   0  0  0  0  0  0  0  0  0  0  0  0
   -6.9639   18.5102  -34.0956 H   0  0  0  0  0  0  0  0  0  0  0  0
   -5.7190   20.2590  -32.1200 H   0  0  0  0  0  0  0  0  0  0  0  0
   -7.6102   21.3549  -31.5048 H   0  0  0  0  0  0  0  0  0  0  0  0
   -7.4596   21.5267  -33.3049 H   0  0  0  0  0  0  0  0  0  0  0  0
   -9.7975   21.0167  -32.5728 H   0  0  0  0  0  0  0  0  0  0  0  0
   -9.0905   19.7524  -33.6541 H   0  0  0  0  0  0  0  0  0  0  0  0
   -8.5967   17.3962  -31.0803 H   0  0  0  0  0  0  0  0  0  0  0  0
   -8.4267   17.7779  -32.8365 H   0  0  0  0  0  0  0  0  0  0  0  0
   -6.8573   19.0530  -30.5358 H   0  0  0  0  0  0  0  0  0  0  0  0
   -6.2387   17.8601  -31.7539 H   0  0  0  0  0  0  0  0  0  0  0  0
   -2.4950   23.1302  -31.0161 H   0  0  0  0  0  0  0  0  0  0  0  0
  1  2  1  0
  2  3  1  0
  3  4  2  0
  4  5  1  0
  5  6  2  0
  6  7  1  0
  7  8  1  0
  8  9  1  0
  9 10  1  0
 10 11  1  0
 11 12  1  0
 12 13  1  0
 13 14  1  0
 14 15  1  0
 15 16  1  0
 16 17  1  0
 17 18  1  0
 18 19  1  0
  7 20  2  0
 20  3  1  0
 19 14  1  0
  1 21  1  0
  1 22  1  0
  1 23  1  0
  4 24  1  0
  5 25  1  0
  6 26  1  0
  9 27  1  0
  9 28  1  0
 10 29  1  0
 10 30  1  0
 12 31  1  0
 12 32  1  0
 13 33  1  0
 13 34  1  0
 14 35  1  0
 15 36  1  0
 15 37  1  0
 16 38  1  0
 16 39  1  0
 18 40  1  0
 18 41  1  0
 19 42  1  0
 19 43  1  0
 20 44  1  0
M  CHG  1  14   1
M  END
>  <UniqueID>  (20) 
20

>  <SMILES>  (20) 
COc1cccc(OCCOCC[NH+]2CCOCC2)c1

>  <Energy>  (20) 
48.34741569189115

>  <Genealogy>  (20) 
COc1cccc(OCCOCC[NH+]2CCOCC2)c1 (protonated)
COc1cccc(OCCOCC[NH+]2CCOCC2)c1 (3D coordinates assigned)
COc1cccc(OCCOCC[NH+]2CCOCC2)c1 (nonaromatic ring conformer: 48.34741569189115 kcal/mol)

>  <smiles>  (20) 
COc1cccc(OCCOCCN2CCOCC2)c1

>  <score_type>  (20) 
oracle

>  <origin>  (20) 
adg

>  <m_score__min__energy>  (20) 
-5.0499999999999998

>  <m_primary>  (20) 
energy

$$$$
20:0
     RDKit          3D

 54 56  0  0  0  0  0  0  0  0999 V2000
   -3.1940   24.5620  -27.0580 C   0  0  0  0  0  0  0  0  0  0  0  0
   -4.1000   24.1480  -28.0770 O   0  0  0  0  0  0  0  0  0  0  0  0
   -3.7730   23.2670  -29.1210 C   0  0  0  0  0  0  0  0  0  0  0  0
   -3.4810   21.9100  -28.8900 C   0  0  0  0  0  0  0  0  0  0  0  0
   -3.1570   21.0650  -29.9530 C   0  0  0  0  0  0  0  0  0  0  0  0
   -3.1140   21.5590  -31.2630 C   0  0  0  0  0  0  0  0  0  0  0  0
   -2.7570   20.6430  -32.4150 C   0  0  0  0  0  0  0  0  0  0  0  0
   -3.8730   19.7810  -32.8660 N   0  0  0  0  0  0  0  0  0  0  0  0
   -4.9810   20.5350  -33.4750 C   0  0  0  0  0  0  0  0  0  0  0  0
   -6.1170   19.6000  -33.9490 C   0  0  0  0  0  0  0  0  0  0  0  0
   -5.9160   18.1840  -33.5740 N   0  0  0  0  0  0  0  0  0  0  0  0
   -6.5720   17.7510  -32.3190 C   0  0  0  0  0  0  0  0  0  0  0  0
   -8.0030   18.2750  -32.1400 C   0  0  0  0  0  0  0  0  0  0  0  0
   -8.0400   19.2700  -31.1210 O   0  0  0  0  0  0  0  0  0  0  0  0
   -8.0250   20.6530  -31.3570 C   0  0  0  0  0  0  0  0  0  0  0  0
   -6.8760   21.4420  -31.1520 C   0  0  0  0  0  0  0  0  0  0  0  0
   -6.9210   22.8210  -31.3800 C   0  0  0  0  0  0  0  0  0  0  0  0
   -8.1050   23.4210  -31.8170 C   0  0  0  0  0  0  0  0  0  0  0  0
   -9.2460   22.6420  -32.0270 C   0  0  0  0  0  0  0  0  0  0  0  0
   -9.2040   21.2630  -31.8000 C   0  0  0  0  0  0  0  0  0  0  0  0
   -4.5670   17.6280  -33.8310 C   0  0  0  0  0  0  0  0  0  0  0  0
   -3.4490   18.6810  -33.7410 C   0  0  0  0  0  0  0  0  0  0  0  0
   -3.4170   22.9090  -31.4990 C   0  0  0  0  0  0  0  0  0  0  0  0
   -3.7420   23.7690  -30.4310 C   0  0  0  0  0  0  0  0  0  0  0  0
   -4.0370   25.1260  -30.6320 O   0  0  0  0  0  0  0  0  0  0  0  0
   -5.3290   25.7040  -30.4730 C   0  0  0  0  0  0  0  0  0  0  0  0
   -3.6354   24.3603  -26.0708 H   0  0  0  0  0  0  0  0  0  0  0  0
   -2.2503   24.0057  -27.1583 H   0  0  0  0  0  0  0  0  0  0  0  0
   -2.9969   25.6395  -27.1583 H   0  0  0  0  0  0  0  0  0  0  0  0
   -3.5082   21.5123  -27.8648 H   0  0  0  0  0  0  0  0  0  0  0  0
   -2.9342   20.0051  -29.7607 H   0  0  0  0  0  0  0  0  0  0  0  0
   -2.4346   21.2640  -33.2638 H   0  0  0  0  0  0  0  0  0  0  0  0
   -1.9624   19.9730  -32.0549 H   0  0  0  0  0  0  0  0  0  0  0  0
   -5.3848   21.2379  -32.7315 H   0  0  0  0  0  0  0  0  0  0  0  0
   -4.5895   21.0707  -34.3524 H   0  0  0  0  0  0  0  0  0  0  0  0
   -7.0610   19.9467  -33.5034 H   0  0  0  0  0  0  0  0  0  0  0  0
   -6.1314   19.6428  -35.0481 H   0  0  0  0  0  0  0  0  0  0  0  0
   -6.6042   16.6515  -32.3089 H   0  0  0  0  0  0  0  0  0  0  0  0
   -5.9781   18.1695  -31.4930 H   0  0  0  0  0  0  0  0  0  0  0  0
   -8.3507   18.7125  -33.0875 H   0  0  0  0  0  0  0  0  0  0  0  0
   -8.6568   17.4396  -31.8491 H   0  0  0  0  0  0  0  0  0  0  0  0
   -5.9413   20.9723  -30.8118 H   0  0  0  0  0  0  0  0  0  0  0  0
   -6.0229   23.4344  -31.2151 H   0  0  0  0  0  0  0  0  0  0  0  0
   -8.1388   24.5059  -31.9956 H   0  0  0  0  0  0  0  0  0  0  0  0
  -10.1780   23.1141  -32.3712 H   0  0  0  0  0  0  0  0  0  0  0  0
  -10.1037   20.6535  -31.9708 H   0  0  0  0  0  0  0  0  0  0  0  0
   -4.3663   16.8410  -33.0891 H   0  0  0  0  0  0  0  0  0  0  0  0
   -4.5654   17.2374  -34.8593 H   0  0  0  0  0  0  0  0  0  0  0  0
   -2.5411   18.2158  -33.3294 H   0  0  0  0  0  0  0  0  0  0  0  0
   -3.2393   19.0758  -34.7461 H   0  0  0  0  0  0  0  0  0  0  0  0
   -3.4006   23.2994  -32.5273 H   0  0  0  0  0  0  0  0  0  0  0  0
   -5.5559   25.8055  -29.4015 H   0  0  0  0  0  0  0  0  0  0  0  0
   -5.3477   26.6963  -30.9474 H   0  0  0  0  0  0  0  0  0  0  0  0
   -6.0812   25.0566  -30.9474 H   0  0  0  0  0  0  0  0  0  0  0  0
  1  2  1  0
  2  3  1  0
  3  4  2  0
  4  5  1  0
  5  6  2  0
  6  7  1  0
  7  8  1  0
  8  9  1  0
  9 10  1  0
 10 11  1  0
 11 12  1  0
 12 13  1  0
 13 14  1  0
 14 15  1  0
 15 16  2  0
 16 17  1  0
 17 18  2  0
 18 19  1  0
 19 20  2  0
 11 21  1  0
 21 22  1  0
  6 23  1  0
 23 24  2  0
 24 25  1  0
 25 26  1  0
 24  3  1  0
 22  8  1  0
 20 15  1  0
  1 27  1  0
  1 28  1  0
  1 29  1  0
  4 30  1  0
  5 31  1  0
  7 32  1  0
  7 33  1  0
  9 34  1  0
  9 35  1  0
 10 36  1  0
 10 37  1  0
 12 38  1  0
 12 39  1  0
 13 40  1  0
 13 41  1  0
 16 42  1  0
 17 43  1  0
 18 44  1  0
 19 45  1  0
 20 46  1  0
 21 47  1  0
 21 48  1  0
 22 49  1  0
 22 50  1  0
 23 51  1  0
 26 52  1  0
 26 53  1  0
 26 54  1  0
M  END
>  <UniqueID>  (21) 
21

>  <SMILES>  (21) 
COc1ccc(CN2CCN(CCOc3ccccc3)CC2)cc1OC

>  <Energy>  (21) 
68.17053121357625

>  <Genealogy>  (21) 
COc1ccc(CN2CCN(CCOc3ccccc3)CC2)cc1OC (3D coordinates assigned)
COc1ccc(CN2CCN(CCOc3ccccc3)CC2)cc1OC (nonaromatic ring conformer: 68.17053121357625 kcal/mol)

>  <smiles>  (21) 
COc1ccc(CN2CCN(CCOc3ccccc3)CC2)cc1OC

>  <score_type>  (21) 
oracle

>  <origin>  (21) 
adg

>  <m_score__min__energy>  (21) 
-8.2200000000000006

>  <m_primary>  (21) 
energy

$$$$
21:0
     RDKit          3D

 52 55  0  0  0  0  0  0  0  0999 V2000
   -0.5188   25.5238  -27.9344 H   0  0  0  0  0  0  0  0  0  0  0  0
   -1.0450   24.5710  -27.7750 C   0  0  0  0  0  0  0  0  0  0  0  0
   -0.2900   23.4940  -27.5130 C   0  0  0  0  0  0  0  0  0  0  0  0
    0.7726   23.6648  -27.2856 H   0  0  0  0  0  0  0  0  0  0  0  0
   -0.7690   22.0990  -27.5050 C   0  0  0  0  0  0  0  0  0  0  0  0
   -0.9610   21.3920  -28.7060 C   0  0  0  0  0  0  0  0  0  0  0  0
   -0.7138   21.8666  -29.6671 H   0  0  0  0  0  0  0  0  0  0  0  0
   -1.4650   20.0880  -28.6820 C   0  0  0  0  0  0  0  0  0  0  0  0
   -1.5967   19.5324  -29.6222 H   0  0  0  0  0  0  0  0  0  0  0  0
   -1.8020   19.4890  -27.4630 C   0  0  0  0  0  0  0  0  0  0  0  0
   -2.1985   18.4631  -27.4456 H   0  0  0  0  0  0  0  0  0  0  0  0
   -1.6350   20.1940  -26.2670 C   0  0  0  0  0  0  0  0  0  0  0  0
   -1.9013   19.7229  -25.3093 H   0  0  0  0  0  0  0  0  0  0  0  0
   -1.1290   21.4990  -26.2880 C   0  0  0  0  0  0  0  0  0  0  0  0
   -1.0130   22.0567  -25.3470 H   0  0  0  0  0  0  0  0  0  0  0  0
   -2.5190   24.5940  -27.8690 C   0  0  0  0  0  0  0  0  0  0  0  0
   -3.3740   24.6480  -26.8270 N   0  0  0  0  0  0  0  0  0  0  0  0
   -4.5840   24.6100  -27.3590 N   0  0  0  0  0  0  0  0  0  0  0  0
   -5.4770   24.6230  -26.8200 H   0  0  0  0  0  0  0  0  0  0  0  0
   -4.4350   24.5180  -28.6920 C   0  0  0  0  0  0  0  0  0  0  0  0
   -5.5650   24.3890  -29.6740 C   0  0  0  0  0  0  0  0  0  0  0  0
   -6.0564   25.3679  -29.7753 H   0  0  0  0  0  0  0  0  0  0  0  0
   -6.2552   23.6249  -29.2871 H   0  0  0  0  0  0  0  0  0  0  0  0
   -5.1130   23.9460  -31.0110 N   0  0  0  0  0  0  0  0  0  0  0  0
   -4.4190   22.6320  -31.0060 C   0  0  0  0  0  0  0  0  0  0  0  0
   -4.7036   22.0892  -30.0926 H   0  0  0  0  0  0  0  0  0  0  0  0
   -3.3380   22.8317  -31.0463 H   0  0  0  0  0  0  0  0  0  0  0  0
   -4.7690   21.7630  -32.2190 C   0  0  0  0  0  0  0  0  0  0  0  0
   -4.3756   20.7467  -32.0694 H   0  0  0  0  0  0  0  0  0  0  0  0
   -4.3211   22.1960  -33.1256 H   0  0  0  0  0  0  0  0  0  0  0  0
   -6.2220   21.7080  -32.3670 N   0  0  0  0  0  0  0  0  0  0  0  0
   -6.9180   20.4560  -32.2260 C   0  0  0  0  0  0  0  0  0  0  0  0
   -8.0230   20.3800  -31.3630 C   0  0  0  0  0  0  0  0  0  0  0  0
   -8.3130   21.2595  -30.7694 H   0  0  0  0  0  0  0  0  0  0  0  0
   -8.7570   19.1970  -31.2520 C   0  0  0  0  0  0  0  0  0  0  0  0
   -9.6209   19.1481  -30.5728 H   0  0  0  0  0  0  0  0  0  0  0  0
   -8.3960   18.0780  -32.0010 C   0  0  0  0  0  0  0  0  0  0  0  0
   -8.9837   17.1514  -31.9225 H   0  0  0  0  0  0  0  0  0  0  0  0
   -7.2890   18.1320  -32.8510 C   0  0  0  0  0  0  0  0  0  0  0  0
   -7.0101   17.2463  -33.4406 H   0  0  0  0  0  0  0  0  0  0  0  0
   -6.5280   19.3100  -32.9590 C   0  0  0  0  0  0  0  0  0  0  0  0
   -5.3380   19.3280  -33.8760 C   0  0  0  0  0  0  0  0  0  0  0  0
   -4.4147   19.3420  -33.2783 H   0  0  0  0  0  0  0  0  0  0  0  0
   -5.3505   18.4296  -34.5106 H   0  0  0  0  0  0  0  0  0  0  0  0
   -5.3776   20.2256  -34.5106 H   0  0  0  0  0  0  0  0  0  0  0  0
   -6.9920   22.9560  -32.3720 C   0  0  0  0  0  0  0  0  0  0  0  0
   -7.7663   22.9012  -31.5926 H   0  0  0  0  0  0  0  0  0  0  0  0
   -7.4452   23.0775  -33.3669 H   0  0  0  0  0  0  0  0  0  0  0  0
   -6.0930   24.1760  -32.0990 C   0  0  0  0  0  0  0  0  0  0  0  0
   -6.7325   25.0263  -31.8198 H   0  0  0  0  0  0  0  0  0  0  0  0
   -5.5216   24.3738  -33.0179 H   0  0  0  0  0  0  0  0  0  0  0  0
   -3.1640   24.5140  -29.0120 O   0  0  0  0  0  0  0  0  0  0  0  0
  1  2  1  0
  2  3  2  0
  3  4  1  0
  3  5  1  0
  5  6  2  0
  6  7  1  0
  6  8  1  0
  8  9  1  0
  8 10  2  0
 10 11  1  0
 10 12  1  0
 12 13  1  0
 12 14  2  0
 14 15  1  0
  2 16  1  0
 16 17  2  0
 17 18  1  0
 18 19  1  0
 18 20  2  0
 20 21  1  0
 21 22  1  0
 21 23  1  0
 21 24  1  0
 24 25  1  0
 25 26  1  0
 25 27  1  0
 25 28  1  0
 28 29  1  0
 28 30  1  0
 28 31  1  0
 31 32  1  0
 32 33  2  0
 33 34  1  0
 33 35  1  0
 35 36  1  0
 35 37  2  0
 37 38  1  0
 37 39  1  0
 39 40  1  0
 39 41  2  0
 41 42  1  0
 42 43  1  0
 42 44  1  0
 42 45  1  0
 31 46  1  0
 46 47  1  0
 46 48  1  0
 46 49  1  0
 49 50  1  0
 49 51  1  0
 20 52  1  0
 14  5  1  0
 52 16  1  0
 49 24  1  0
 41 32  1  0
M  CHG  1  18   1
M  END
>  <UniqueID>  (22) 
22

>  <SMILES>  (22) 
Cc1ccccc1N1CCN(Cc2[nH+]nc(/C=C\c3ccccc3)o2)CC1

>  <Energy>  (22) 
110.09899064001239

>  <Genealogy>  (22) 
Cc1ccccc1N1CCN(Cc2[nH+]nc(C=Cc3ccccc3)o2)CC1 (protonated)
Cc1ccccc1N1CCN(Cc2[nH+]nc(/C=C\c3ccccc3)o2)CC1 (cis-trans isomerization)
Cc1ccccc1N1CCN(Cc2[nH+]nc(/C=C\c3ccccc3)o2)CC1 (3D coordinates assigned)
Cc1ccccc1N1CCN(Cc2[nH+]nc(/C=C\c3ccccc3)o2)CC1 (nonaromatic ring conformer: 110.09899064001239 kcal/mol)

>  <smiles>  (22) 
Cc1ccccc1N1CCN(Cc2nnc(C=Cc3ccccc3)o2)CC1

>  <score_type>  (22) 
oracle

>  <origin>  (22) 
adg

>  <m_score__min__energy>  (22) 
-8.7899999999999991

>  <m_primary>  (22) 
energy

$$$$
22:0
     RDKit          3D

 48 50  0  0  0  0  0  0  0  0999 V2000
   -4.1340   20.5640  -31.4840 C   0  0  0  0  0  0  0  0  0  0  0  0
   -5.3660   21.2260  -31.2210 O   0  0  0  0  0  0  0  0  0  0  0  0
   -5.4830   22.5770  -30.8590 C   0  0  0  0  0  0  0  0  0  0  0  0
   -4.3740   23.4450  -30.8340 C   0  0  0  0  0  0  0  0  0  0  0  0
   -4.5330   24.7830  -30.4670 C   0  0  0  0  0  0  0  0  0  0  0  0
   -5.7950   25.2680  -30.1210 C   0  0  0  0  0  0  0  0  0  0  0  0
   -6.9020   24.4170  -30.1430 C   0  0  0  0  0  0  0  0  0  0  0  0
   -6.7540   23.0670  -30.5140 C   0  0  0  0  0  0  0  0  0  0  0  0
   -7.8410   22.1810  -30.5560 O   0  0  0  0  0  0  0  0  0  0  0  0
   -8.8670   22.1990  -31.5430 C   0  0  0  0  0  0  0  0  0  0  0  0
   -8.9190   20.8630  -32.3130 C   0  0  0  0  0  0  0  0  0  0  0  0
   -7.7050   20.0110  -32.1980 N   0  0  0  0  0  0  0  0  0  0  0  0
   -6.8620   20.0290  -33.4330 C   0  0  0  0  0  0  0  0  0  0  0  0
   -6.4720   18.6330  -33.9470 C   0  0  0  0  0  0  0  0  0  0  0  0
   -6.0050   17.7870  -32.8410 N   0  0  0  0  0  0  0  0  0  0  0  0
   -4.9780   16.7950  -33.0570 C   0  0  0  0  0  0  0  0  0  0  0  0
   -3.9530   17.0130  -33.9980 C   0  0  0  0  0  0  0  0  0  0  0  0
   -2.9650   16.0460  -34.2070 C   0  0  0  0  0  0  0  0  0  0  0  0
   -2.9890   14.8530  -33.4830 C   0  0  0  0  0  0  0  0  0  0  0  0
   -4.0020   14.6210  -32.5500 C   0  0  0  0  0  0  0  0  0  0  0  0
   -4.9930   15.5850  -32.3380 C   0  0  0  0  0  0  0  0  0  0  0  0
   -6.7230   17.8260  -31.5600 C   0  0  0  0  0  0  0  0  0  0  0  0
   -8.0070   18.6540  -31.6840 C   0  0  0  0  0  0  0  0  0  0  0  0
   -3.6477   20.3027  -30.5325 H   0  0  0  0  0  0  0  0  0  0  0  0
   -4.3261   19.6476  -32.0614 H   0  0  0  0  0  0  0  0  0  0  0  0
   -3.4759   21.2300  -32.0614 H   0  0  0  0  0  0  0  0  0  0  0  0
   -3.3772   23.0669  -31.1050 H   0  0  0  0  0  0  0  0  0  0  0  0
   -3.6626   25.4554  -30.4506 H   0  0  0  0  0  0  0  0  0  0  0  0
   -5.9179   26.3218  -29.8306 H   0  0  0  0  0  0  0  0  0  0  0  0
   -7.8948   24.8035  -29.8690 H   0  0  0  0  0  0  0  0  0  0  0  0
   -9.8362   22.3683  -31.0510 H   0  0  0  0  0  0  0  0  0  0  0  0
   -8.6506   23.0066  -32.2578 H   0  0  0  0  0  0  0  0  0  0  0  0
   -9.7753   20.2861  -31.9337 H   0  0  0  0  0  0  0  0  0  0  0  0
   -9.0014   21.1301  -33.3769 H   0  0  0  0  0  0  0  0  0  0  0  0
   -7.1300   20.4670  -31.4480 H   0  0  0  0  0  0  0  0  0  0  0  0
   -7.4224   20.5452  -34.2264 H   0  0  0  0  0  0  0  0  0  0  0  0
   -5.9258   20.5436  -33.1707 H   0  0  0  0  0  0  0  0  0  0  0  0
   -7.3485   18.1628  -34.4167 H   0  0  0  0  0  0  0  0  0  0  0  0
   -5.6588   18.7393  -34.6801 H   0  0  0  0  0  0  0  0  0  0  0  0
   -3.9296   17.9507  -34.5726 H   0  0  0  0  0  0  0  0  0  0  0  0
   -2.1676   16.2257  -34.9431 H   0  0  0  0  0  0  0  0  0  0  0  0
   -2.2093   14.0947  -33.6474 H   0  0  0  0  0  0  0  0  0  0  0  0
   -4.0205   13.6795  -31.9815 H   0  0  0  0  0  0  0  0  0  0  0  0
   -5.7901   15.3961  -31.6039 H   0  0  0  0  0  0  0  0  0  0  0  0
   -6.9824   16.8000  -31.2600 H   0  0  0  0  0  0  0  0  0  0  0  0
   -6.0733   18.2916  -30.8043 H   0  0  0  0  0  0  0  0  0  0  0  0
   -8.6966   18.1501  -32.3772 H   0  0  0  0  0  0  0  0  0  0  0  0
   -8.4672   18.7459  -30.6891 H   0  0  0  0  0  0  0  0  0  0  0  0
  1  2  1  0
  2  3  1  0
  3  4  2  0
  4  5  1  0
  5  6  2  0
  6  7  1  0
  7  8  2  0
  8  9  1  0
  9 10  1  0
 10 11  1  0
 11 12  1  0
 12 13  1  0
 13 14  1  0
 14 15  1  0
 15 16  1  0
 16 17  2  0
 17 18  1  0
 18 19  2  0
 19 20  1  0
 20 21  2  0
 15 22  1  0
 22 23  1  0
  8  3  1  0
 23 12  1  0
 21 16  1  0
  1 24  1  0
  1 25  1  0
  1 26  1  0
  4 27  1  0
  5 28  1  0
  6 29  1  0
  7 30  1  0
 10 31  1  0
 10 32  1  0
 11 33  1  0
 11 34  1  0
 12 35  1  0
 13 36  1  0
 13 37  1  0
 14 38  1  0
 14 39  1  0
 17 40  1  0
 18 41  1  0
 19 42  1  0
 20 43  1  0
 21 44  1  0
 22 45  1  0
 22 46  1  0
 23 47  1  0
 23 48  1  0
M  CHG  1  12   1
M  END
>  <UniqueID>  (23) 
23

>  <SMILES>  (23) 
COc1ccccc1OCC[NH+]1CCN(c2ccccc2)CC1

>  <Energy>  (23) 
60.40927075406196

>  <Genealogy>  (23) 
COc1ccccc1OCC[NH+]1CCN(c2ccccc2)CC1 (protonated)
COc1ccccc1OCC[NH+]1CCN(c2ccccc2)CC1 (3D coordinates assigned)
COc1ccccc1OCC[NH+]1CCN(c2ccccc2)CC1 (nonaromatic ring conformer: 60.40927075406196 kcal/mol)

>  <smiles>  (23) 
COc1ccccc1OCCN1CCN(c2ccccc2)CC1

>  <score_type>  (23) 
oracle

>  <origin>  (23) 
adg

>  <m_score__min__energy>  (23) 
-7.5300000000000002

>  <m_primary>  (23) 
energy

$$$$
23:0
     RDKit          3D

 58 61  0  0  0  0  0  0  0  0999 V2000
   -0.2060   18.1790  -34.6600 C   0  0  0  0  0  0  0  0  0  0  0  0
   -0.8790   16.8200  -34.8120 C   0  0  0  0  0  0  0  0  0  0  0  0
   -2.0800   16.9470  -35.6480 N   0  0  0  0  0  0  0  0  0  0  0  0
   -2.9210   15.7420  -35.5620 C   0  0  0  0  0  0  0  0  0  0  0  0
   -3.6280   15.6650  -34.2250 C   0  0  0  0  0  0  0  0  0  0  0  0
   -3.1280   14.7840  -33.2460 C   0  0  0  0  0  0  0  0  0  0  0  0
   -3.7990   14.6060  -32.0330 C   0  0  0  0  0  0  0  0  0  0  0  0
   -4.9900   15.2850  -31.7870 C   0  0  0  0  0  0  0  0  0  0  0  0
   -5.5080   16.1510  -32.7500 C   0  0  0  0  0  0  0  0  0  0  0  0
   -4.8350   16.3630  -33.9630 C   0  0  0  0  0  0  0  0  0  0  0  0
   -5.6020   17.4770  -35.1560 S   0  0  0  0  0  0  0  0  0  0  0  0
   -5.6370   18.8790  -34.0310 C   0  0  0  0  0  0  0  0  0  0  0  0
   -6.8190   19.4920  -33.7160 N   0  0  0  0  0  0  0  0  0  0  0  0
   -6.8590   20.5730  -32.8720 C   0  0  0  0  0  0  0  0  0  0  0  0
   -5.7120   21.0560  -32.3060 N   0  0  0  0  0  0  0  0  0  0  0  0
   -4.5480   20.4240  -32.5920 C   0  0  0  0  0  0  0  0  0  0  0  0
   -4.4810   19.3650  -33.4300 C   0  0  0  0  0  0  0  0  0  0  0  0
   -3.2060   18.9630  -33.5810 N   0  0  0  0  0  0  0  0  0  0  0  0
   -2.5170   19.8400  -32.8000 C   0  0  0  0  0  0  0  0  0  0  0  0
   -3.3140   20.7490  -32.1780 N   0  0  0  0  0  0  0  0  0  0  0  0
   -2.9060   21.8170  -31.3040 C   0  0  0  0  0  0  0  0  0  0  0  0
   -1.7970   21.6640  -30.4630 C   0  0  0  0  0  0  0  0  0  0  0  0
   -1.3770   22.7090  -29.6160 C   0  0  0  0  0  0  0  0  0  0  0  0
   -0.2630   22.5520  -28.7770 O   0  0  0  0  0  0  0  0  0  0  0  0
   -0.2960   21.9860  -27.4700 C   0  0  0  0  0  0  0  0  0  0  0  0
   -2.0960   23.9330  -29.6180 C   0  0  0  0  0  0  0  0  0  0  0  0
   -1.7630   25.0370  -28.8100 O   0  0  0  0  0  0  0  0  0  0  0  0
   -1.9700   25.1540  -27.4050 C   0  0  0  0  0  0  0  0  0  0  0  0
   -3.2110   24.0830  -30.4600 C   0  0  0  0  0  0  0  0  0  0  0  0
   -3.9020   25.3060  -30.4330 O   0  0  0  0  0  0  0  0  0  0  0  0
   -5.3200   25.4350  -30.4060 C   0  0  0  0  0  0  0  0  0  0  0  0
   -3.6040   23.0290  -31.3010 C   0  0  0  0  0  0  0  0  0  0  0  0
   -0.0900   18.4133  -33.5915 H   0  0  0  0  0  0  0  0  0  0  0  0
    0.7837   18.1537  -35.1394 H   0  0  0  0  0  0  0  0  0  0  0  0
   -0.8260   18.9509  -35.1394 H   0  0  0  0  0  0  0  0  0  0  0  0
   -0.1779   16.1168  -35.2853 H   0  0  0  0  0  0  0  0  0  0  0  0
   -1.1674   16.4458  -33.8186 H   0  0  0  0  0  0  0  0  0  0  0  0
   -2.6430   17.7500  -35.2790 H   0  0  0  0  0  0  0  0  0  0  0  0
   -3.6726   15.7704  -36.3647 H   0  0  0  0  0  0  0  0  0  0  0  0
   -2.2758   14.8573  -35.6676 H   0  0  0  0  0  0  0  0  0  0  0  0
   -2.1979   14.2293  -33.4387 H   0  0  0  0  0  0  0  0  0  0  0  0
   -3.3858   13.9285  -31.2713 H   0  0  0  0  0  0  0  0  0  0  0  0
   -5.5212   15.1386  -30.8349 H   0  0  0  0  0  0  0  0  0  0  0  0
   -6.4559   16.6743  -32.5562 H   0  0  0  0  0  0  0  0  0  0  0  0
   -7.7120   19.1300  -34.1160 H   0  0  0  0  0  0  0  0  0  0  0  0
   -7.8222   21.0552  -32.6488 H   0  0  0  0  0  0  0  0  0  0  0  0
   -1.4234   19.8155  -32.6838 H   0  0  0  0  0  0  0  0  0  0  0  0
   -1.2447   20.7127  -30.4635 H   0  0  0  0  0  0  0  0  0  0  0  0
   -0.2491   22.7901  -26.7209 H   0  0  0  0  0  0  0  0  0  0  0  0
   -1.2288   21.4177  -27.3400 H   0  0  0  0  0  0  0  0  0  0  0  0
    0.5644   21.3131  -27.3400 H   0  0  0  0  0  0  0  0  0  0  0  0
   -1.1331   24.6810  -26.8704 H   0  0  0  0  0  0  0  0  0  0  0  0
   -2.0264   26.2176  -27.1300 H   0  0  0  0  0  0  0  0  0  0  0  0
   -2.9103   24.6538  -27.1300 H   0  0  0  0  0  0  0  0  0  0  0  0
   -5.6655   25.4664  -29.3621 H   0  0  0  0  0  0  0  0  0  0  0  0
   -5.6135   26.3636  -30.9175 H   0  0  0  0  0  0  0  0  0  0  0  0
   -5.7763   24.5747  -30.9175 H   0  0  0  0  0  0  0  0  0  0  0  0
   -4.4712   23.1583  -31.9653 H   0  0  0  0  0  0  0  0  0  0  0  0
  1  2  1  0
  2  3  1  0
  3  4  1  0
  4  5  1  0
  5  6  2  0
  6  7  1  0
  7  8  2  0
  8  9  1  0
  9 10  2  0
 10 11  1  0
 11 12  1  0
 12 13  2  0
 13 14  1  0
 14 15  2  0
 15 16  1  0
 16 17  2  0
 17 18  1  0
 18 19  2  0
 19 20  1  0
 20 21  1  0
 21 22  2  0
 22 23  1  0
 23 24  1  0
 24 25  1  0
 23 26  2  0
 26 27  1  0
 27 28  1  0
 26 29  1  0
 29 30  1  0
 30 31  1  0
 29 32  2  0
 10  5  1  0
 17 12  1  0
 32 21  1  0
 20 16  1  0
  1 33  1  0
  1 34  1  0
  1 35  1  0
  2 36  1  0
  2 37  1  0
  3 38  1  0
  4 39  1  0
  4 40  1  0
  6 41  1  0
  7 42  1  0
  8 43  1  0
  9 44  1  0
 13 45  1  0
 14 46  1  0
 19 47  1  0
 22 48  1  0
 25 49  1  0
 25 50  1  0
 25 51  1  0
 28 52  1  0
 28 53  1  0
 28 54  1  0
 31 55  1  0
 31 56  1  0
 31 57  1  0
 32 58  1  0
M  CHG  1  13   1
M  END
>  <UniqueID>  (24) 
24

>  <SMILES>  (24) 
CCNCc1ccccc1Sc1[nH+]cnc2c1ncn2-c1cc(OC)c(OC)c(OC)c1

>  <Energy>  (24) 
101.60322229216978

>  <Genealogy>  (24) 
CCNCc1ccccc1Sc1[nH+]cnc2c1ncn2-c1cc(OC)c(OC)c(OC)c1 (protonated)
CCNCc1ccccc1Sc1[nH+]cnc2c1ncn2-c1cc(OC)c(OC)c(OC)c1 (3D coordinates assigned)
CCNCc1ccccc1Sc1[nH+]cnc2c1ncn2-c1cc(OC)c(OC)c(OC)c1 (optimized conformer: 101.60322229216978 kcal/mol)

>  <smiles>  (24) 
CCNCc1ccccc1Sc1ncnc2c1ncn2-c1cc(OC)c(OC)c(OC)c1

>  <score_type>  (24) 
oracle

>  <origin>  (24) 
adg

>  <m_score__min__energy>  (24) 
-7.4500000000000002

>  <m_primary>  (24) 
energy

$$$$
24:0
     RDKit          3D

 48 52  0  0  0  0  0  0  0  0999 V2000
   -9.4710   19.8040  -32.7260 C   0  0  0  0  0  0  0  0  0  0  0  0
   -8.0910   20.3470  -32.5360 C   0  0  0  0  0  0  0  0  0  0  0  0
   -7.0440   19.9370  -33.3920 C   0  0  0  0  0  0  0  0  0  0  0  0
   -5.7520   20.4520  -33.2050 C   0  0  0  0  0  0  0  0  0  0  0  0
   -5.5500   21.3600  -32.1680 C   0  0  0  0  0  0  0  0  0  0  0  0
   -6.5900   21.7350  -31.3590 C   0  0  0  0  0  0  0  0  0  0  0  0
   -7.8430   21.2410  -31.5330 N   0  0  0  0  0  0  0  0  0  0  0  0
   -6.1540   22.7030  -30.3300 C   0  0  0  0  0  0  0  0  0  0  0  0
   -4.7270   22.8620  -30.6230 N   0  0  0  0  0  0  0  0  0  0  0  0
   -3.8310   23.7150  -29.8910 C   0  0  0  0  0  0  0  0  0  0  0  0
   -3.5910   24.8720  -30.3300 O   0  0  0  0  0  0  0  0  0  0  0  0
   -3.2140   23.2570  -28.6710 N   0  0  0  0  0  0  0  0  0  0  0  0
   -2.2810   24.0470  -27.8420 C   0  0  2  0  0  0  0  0  0  0  0  0
   -1.3550   23.0780  -27.0480 C   0  0  0  0  0  0  0  0  0  0  0  0
   -0.3660   23.8740  -26.1700 C   0  0  1  0  0  0  0  0  0  0  0  0
    0.5040   24.7790  -27.0690 C   0  0  0  0  0  0  0  0  0  0  0  0
   -0.4020   25.7550  -27.8490 C   0  0  2  0  0  0  0  0  0  0  0  0
   -1.1970   26.6270  -26.8510 C   0  0  0  0  0  0  0  0  0  0  0  0
   -2.0650   25.7240  -25.9470 C   0  0  2  0  0  0  0  0  0  0  0  0
   -1.1560   24.7470  -25.1710 C   0  0  0  0  0  0  0  0  0  0  0  0
   -3.0580   24.9240  -26.8200 C   0  0  0  0  0  0  0  0  0  0  0  0
   -1.3850   24.9550  -28.7320 C   0  0  0  0  0  0  0  0  0  0  0  0
   -4.3000   22.0440  -31.7620 C   0  0  0  0  0  0  0  0  0  0  0  0
   -9.9321   19.6226  -31.7439 H   0  0  0  0  0  0  0  0  0  0  0  0
  -10.0770   20.5307  -33.2869 H   0  0  0  0  0  0  0  0  0  0  0  0
   -9.4193   18.8592  -33.2869 H   0  0  0  0  0  0  0  0  0  0  0  0
   -7.2407   19.2178  -34.2008 H   0  0  0  0  0  0  0  0  0  0  0  0
   -4.9218   20.1471  -33.8591 H   0  0  0  0  0  0  0  0  0  0  0  0
   -6.6890   23.6587  -30.4321 H   0  0  0  0  0  0  0  0  0  0  0  0
   -6.3542   22.3675  -29.3017 H   0  0  0  0  0  0  0  0  0  0  0  0
   -3.4460   22.2910  -28.3500 H   0  0  0  0  0  0  0  0  0  0  0  0
   -1.9720   22.4332  -26.4049 H   0  0  0  0  0  0  0  0  0  0  0  0
   -0.7842   22.4662  -27.7621 H   0  0  0  0  0  0  0  0  0  0  0  0
    0.2801   23.1764  -25.6170 H   0  0  0  0  0  0  0  0  0  0  0  0
    1.2058   25.3506  -26.4438 H   0  0  0  0  0  0  0  0  0  0  0  0
    1.0680   24.1562  -27.7790 H   0  0  0  0  0  0  0  0  0  0  0  0
    0.2190   26.4006  -28.4874 H   0  0  0  0  0  0  0  0  0  0  0  0
   -0.4956   27.2017  -26.2283 H   0  0  0  0  0  0  0  0  0  0  0  0
   -1.8473   27.3173  -27.4082 H   0  0  0  0  0  0  0  0  0  0  0  0
   -2.6246   26.3473  -25.2340 H   0  0  0  0  0  0  0  0  0  0  0  0
   -0.4526   25.3179  -24.5471 H   0  0  0  0  0  0  0  0  0  0  0  0
   -1.7747   24.1017  -24.5301 H   0  0  0  0  0  0  0  0  0  0  0  0
   -3.6698   24.2761  -26.1751 H   0  0  0  0  0  0  0  0  0  0  0  0
   -3.7056   25.6260  -27.3657 H   0  0  0  0  0  0  0  0  0  0  0  0
   -2.0205   25.6542  -29.2952 H   0  0  0  0  0  0  0  0  0  0  0  0
   -0.8134   24.3256  -29.4299 H   0  0  0  0  0  0  0  0  0  0  0  0
   -3.9108   22.6727  -32.5764 H   0  0  0  0  0  0  0  0  0  0  0  0
   -3.4854   21.3475  -31.5144 H   0  0  0  0  0  0  0  0  0  0  0  0
  1  2  1  0
  2  3  1  0
  3  4  2  0
  4  5  1  0
  5  6  2  0
  6  7  1  0
  6  8  1  0
  8  9  1  0
  9 10  1  0
 10 11  2  0
 10 12  1  0
 13 12  1  6
 13 14  1  0
 14 15  1  0
 15 16  1  0
 16 17  1  0
 17 18  1  0
 18 19  1  0
 19 20  1  0
 19 21  1  0
 17 22  1  0
  9 23  1  0
  7  2  2  0
 21 13  1  0
 23  5  1  0
 22 13  1  0
 20 15  1  0
  1 24  1  0
  1 25  1  0
  1 26  1  0
  3 27  1  0
  4 28  1  0
  8 29  1  0
  8 30  1  0
 12 31  1  0
 14 32  1  0
 14 33  1  0
 15 34  1  1
 16 35  1  0
 16 36  1  0
 17 37  1  6
 18 38  1  0
 18 39  1  0
 19 40  1  1
 20 41  1  0
 20 42  1  0
 21 43  1  0
 21 44  1  0
 22 45  1  0
 22 46  1  0
 23 47  1  0
 23 48  1  0
M  END
>  <UniqueID>  (25) 
25

>  <SMILES>  (25) 
Cc1ccc2c(n1)CN(C(=O)NC13CC4CC(CC(C4)C1)C3)C2

>  <Energy>  (25) 
59.387959889972166

>  <Genealogy>  (25) 
Cc1ccc2c(n1)CN(C(=O)NC13CC4CC(CC(C4)C1)C3)C2 (3D coordinates assigned)
Cc1ccc2c(n1)CN(C(=O)NC13CC4CC(CC(C4)C1)C3)C2 (nonaromatic ring conformer: 59.387959889972166 kcal/mol)

>  <smiles>  (25) 
Cc1ccc2c(n1)CN(C(=O)NC13CC4CC(CC(C4)C1)C3)C2

>  <score_type>  (25) 
oracle

>  <origin>  (25) 
adg

>  <m_score__min__energy>  (25) 
-8.6799999999999997

>  <m_primary>  (25) 
energy

$$$$
25:0
     RDKit          3D

 32 32  0  0  0  0  0  0  0  0999 V2000
   -4.0690   24.1400  -28.3060 C   0  0  0  0  0  0  0  0  0  0  0  0
   -3.1340   24.5200  -29.4480 C   0  0  0  0  0  0  0  0  0  0  0  0
   -3.8440   25.2130  -30.4720 O   0  0  0  0  0  0  0  0  0  0  0  0
   -5.1550   24.8980  -30.8480 C   0  0  0  0  0  0  0  0  0  0  0  0
   -6.1110   25.6710  -30.5670 O   0  0  0  0  0  0  0  0  0  0  0  0
   -5.4280   23.6030  -31.5410 C   0  0  0  0  0  0  0  0  0  0  0  0
   -6.6850   23.7000  -32.2840 N   0  0  0  0  0  0  0  0  0  0  0  0
   -7.8600   22.6210  -31.5970 S   0  0  0  0  0  0  0  0  0  0  0  0
   -7.7700   22.6810  -30.0980 O   0  0  0  0  0  0  0  0  0  0  0  0
   -9.2420   23.0480  -32.0070 O   0  0  0  0  0  0  0  0  0  0  0  0
   -7.5570   20.9660  -32.1250 C   0  0  0  0  0  0  0  0  0  0  0  0
   -6.4940   20.6960  -32.9950 C   0  0  0  0  0  0  0  0  0  0  0  0
   -6.2580   19.3890  -33.4360 C   0  0  0  0  0  0  0  0  0  0  0  0
   -7.0800   18.3380  -33.0020 C   0  0  0  0  0  0  0  0  0  0  0  0
   -6.8530   16.9440  -33.5070 C   0  0  0  0  0  0  0  0  0  0  0  0
   -8.1600   18.6150  -32.1490 C   0  0  0  0  0  0  0  0  0  0  0  0
   -8.3930   19.9210  -31.7090 C   0  0  0  0  0  0  0  0  0  0  0  0
   -3.5740   24.3412  -27.3445 H   0  0  0  0  0  0  0  0  0  0  0  0
   -4.9921   24.7343  -28.3746 H   0  0  0  0  0  0  0  0  0  0  0  0
   -4.3157   23.0702  -28.3746 H   0  0  0  0  0  0  0  0  0  0  0  0
   -2.3353   25.1692  -29.0598 H   0  0  0  0  0  0  0  0  0  0  0  0
   -2.7057   23.6011  -29.8748 H   0  0  0  0  0  0  0  0  0  0  0  0
   -4.6068   23.3805  -32.2382 H   0  0  0  0  0  0  0  0  0  0  0  0
   -5.5055   22.7984  -30.7950 H   0  0  0  0  0  0  0  0  0  0  0  0
   -7.0610   24.6700  -32.1660 H   0  0  0  0  0  0  0  0  0  0  0  0
   -5.8416   21.5145  -33.3333 H   0  0  0  0  0  0  0  0  0  0  0  0
   -5.4253   19.1850  -34.1252 H   0  0  0  0  0  0  0  0  0  0  0  0
   -6.7414   16.2586  -32.6539 H   0  0  0  0  0  0  0  0  0  0  0  0
   -7.7120   16.6312  -34.1187 H   0  0  0  0  0  0  0  0  0  0  0  0
   -5.9391   16.9199  -34.1187 H   0  0  0  0  0  0  0  0  0  0  0  0
   -8.8255   17.8010  -31.8256 H   0  0  0  0  0  0  0  0  0  0  0  0
   -9.2358   20.1294  -31.0336 H   0  0  0  0  0  0  0  0  0  0  0  0
  1  2  1  0
  2  3  1  0
  3  4  1  0
  4  5  2  0
  4  6  1  0
  6  7  1  0
  7  8  1  0
  8  9  2  0
  8 10  2  0
  8 11  1  0
 11 12  2  0
 12 13  1  0
 13 14  2  0
 14 15  1  0
 14 16  1  0
 16 17  2  0
 17 11  1  0
  1 18  1  0
  1 19  1  0
  1 20  1  0
  2 21  1  0
  2 22  1  0
  6 23  1  0
  6 24  1  0
  7 25  1  0
 12 26  1  0
 13 27  1  0
 15 28  1  0
 15 29  1  0
 15 30  1  0
 16 31  1  0
 17 32  1  0
M  END
>  <UniqueID>  (26) 
26

>  <SMILES>  (26) 
CCOC(=O)CNS(=O)(=O)c1ccc(C)cc1

>  <Energy>  (26) 
21.11314466822103

>  <Genealogy>  (26) 
CCOC(=O)CNS(=O)(=O)c1ccc(C)cc1 (3D coordinates assigned)
CCOC(=O)CNS(=O)(=O)c1ccc(C)cc1 (optimized conformer: 21.11314466822103 kcal/mol)

>  <smiles>  (26) 
CCOC(=O)CNS(=O)(=O)c1ccc(C)cc1

>  <score_type>  (26) 
oracle

>  <origin>  (26) 
adg

>  <m_score__min__energy>  (26) 
-7.5099999999999998

>  <m_primary>  (26) 
energy

$$$$
26:0
     RDKit          3D

 46 47  0  0  0  0  0  0  0  0999 V2000
   -4.2300   22.5190  -33.5340 H   0  0  0  0  0  0  0  0  0  0  0  0
   -4.1330   21.5580  -33.8350 O   0  0  0  0  0  0  0  0  0  0  0  0
   -4.7620   20.5440  -33.1450 N   0  0  0  0  0  0  0  0  0  0  0  0
   -4.2610   20.1330  -32.3280 H   0  0  0  0  0  0  0  0  0  0  0  0
   -5.9540   20.1330  -33.4820 C   0  0  0  0  0  0  0  0  0  0  0  0
   -7.1610   20.7050  -32.8420 C   0  0  0  0  0  0  0  0  0  0  0  0
   -7.1610   22.0020  -32.2950 C   0  0  0  0  0  0  0  0  0  0  0  0
   -5.9980   22.7830  -32.3420 O   0  0  0  0  0  0  0  0  0  0  0  0
   -5.3790   23.3500  -31.2210 C   0  0  0  0  0  0  0  0  0  0  0  0
   -6.0990   24.2840  -30.4670 C   0  0  0  0  0  0  0  0  0  0  0  0
   -7.1257   24.5476  -30.7610 H   0  0  0  0  0  0  0  0  0  0  0  0
   -5.5250   24.8830  -29.3460 C   0  0  0  0  0  0  0  0  0  0  0  0
   -6.0953   25.6225  -28.7647 H   0  0  0  0  0  0  0  0  0  0  0  0
   -4.2270   24.5440  -28.9620 C   0  0  0  0  0  0  0  0  0  0  0  0
   -3.7710   25.0259  -28.0846 H   0  0  0  0  0  0  0  0  0  0  0  0
   -3.5050   23.5940  -29.6890 C   0  0  0  0  0  0  0  0  0  0  0  0
   -2.4829   23.3297  -29.3801 H   0  0  0  0  0  0  0  0  0  0  0  0
   -4.0800   22.9720  -30.8170 C   0  0  0  0  0  0  0  0  0  0  0  0
   -3.4090   21.9720  -31.5440 O   0  0  0  0  0  0  0  0  0  0  0  0
   -2.4350   21.0690  -31.0230 C   0  0  0  0  0  0  0  0  0  0  0  0
   -2.5466   20.0929  -31.5177 H   0  0  0  0  0  0  0  0  0  0  0  0
   -2.5911   20.9678  -29.9388 H   0  0  0  0  0  0  0  0  0  0  0  0
   -1.0250   21.5960  -31.2680 C   0  0  0  0  0  0  0  0  0  0  0  0
   -0.5299   21.7810  -30.3033 H   0  0  0  0  0  0  0  0  0  0  0  0
   -0.4496   20.8522  -31.8387 H   0  0  0  0  0  0  0  0  0  0  0  0
   -1.0785   22.5348  -31.8387 H   0  0  0  0  0  0  0  0  0  0  0  0
   -8.2950   22.4870  -31.7130 N   0  0  0  0  0  0  0  0  0  0  0  0
   -9.4460   21.7680  -31.6650 C   0  0  0  0  0  0  0  0  0  0  0  0
  -10.3396   22.1917  -31.1834 H   0  0  0  0  0  0  0  0  0  0  0  0
   -9.4950   20.4910  -32.2270 C   0  0  0  0  0  0  0  0  0  0  0  0
  -10.4276   19.9083  -32.2023 H   0  0  0  0  0  0  0  0  0  0  0  0
   -8.3490   19.9620  -32.8200 C   0  0  0  0  0  0  0  0  0  0  0  0
   -8.3776   18.9593  -33.2715 H   0  0  0  0  0  0  0  0  0  0  0  0
   -6.1360   19.1020  -34.4740 N   0  0  0  0  0  0  0  0  0  0  0  0
   -7.0940   18.9660  -34.8680 H   0  0  0  0  0  0  0  0  0  0  0  0
   -5.0930   18.1780  -34.9220 C   0  0  0  0  0  0  0  0  0  0  0  0
   -5.1502   18.0754  -36.0157 H   0  0  0  0  0  0  0  0  0  0  0  0
   -4.1158   18.5835  -34.6209 H   0  0  0  0  0  0  0  0  0  0  0  0
   -5.2630   16.7990  -34.2820 C   0  0  0  0  0  0  0  0  0  0  0  0
   -5.2791   16.0331  -35.0714 H   0  0  0  0  0  0  0  0  0  0  0  0
   -4.4221   16.6193  -33.5960 H   0  0  0  0  0  0  0  0  0  0  0  0
   -6.8240   16.7200  -33.3360 S   0  0  0  0  0  0  0  0  0  0  0  0
   -6.0630   17.2100  -31.7560 C   0  0  0  0  0  0  0  0  0  0  0  0
   -6.6664   16.8215  -30.9223 H   0  0  0  0  0  0  0  0  0  0  0  0
   -5.0452   16.7971  -31.6956 H   0  0  0  0  0  0  0  0  0  0  0  0
   -6.0177   18.3074  -31.6956 H   0  0  0  0  0  0  0  0  0  0  0  0
  1  2  1  0
  2  3  1  0
  3  4  1  0
  3  5  2  0
  5  6  1  0
  6  7  2  0
  7  8  1  0
  8  9  1  0
  9 10  2  0
 10 11  1  0
 10 12  1  0
 12 13  1  0
 12 14  2  0
 14 15  1  0
 14 16  1  0
 16 17  1  0
 16 18  2  0
 18 19  1  0
 19 20  1  0
 20 21  1  0
 20 22  1  0
 20 23  1  0
 23 24  1  0
 23 25  1  0
 23 26  1  0
  7 27  1  0
 27 28  2  0
 28 29  1  0
 28 30  1  0
 30 31  1  0
 30 32  2  0
 32 33  1  0
  5 34  1  0
 34 35  1  0
 34 36  1  0
 36 37  1  0
 36 38  1  0
 36 39  1  0
 39 40  1  0
 39 41  1  0
 39 42  1  0
 42 43  1  0
 43 44  1  0
 43 45  1  0
 43 46  1  0
 32  6  1  0
 18  9  1  0
M  CHG  1   3   1
M  END
>  <UniqueID>  (27) 
27

>  <SMILES>  (27) 
CCOc1ccccc1Oc1ncccc1/C(NCCSC)=[NH+]\O

>  <Energy>  (27) 
48.80376376852538

>  <Genealogy>  (27) 
CCOc1ccccc1Oc1ncccc1C(NCCSC)=[NH+]O (protonated)
CCOc1ccccc1Oc1ncccc1/C(NCCSC)=[NH+]\O (cis-trans isomerization)
CCOc1ccccc1Oc1ncccc1/C(NCCSC)=[NH+]\O (3D coordinates assigned)
CCOc1ccccc1Oc1ncccc1/C(NCCSC)=[NH+]\O (optimized conformer: 48.80376376852538 kcal/mol)

>  <smiles>  (27) 
CCOc1ccccc1Oc1ncccc1C(=NO)NCCSC

>  <score_type>  (27) 
oracle

>  <origin>  (27) 
adg

>  <m_score__min__energy>  (27) 
-7.3600000000000003

>  <m_primary>  (27) 
energy

$$$$
27:0
     RDKit          3D

 80 83  0  0  0  0  0  0  0  0999 V2000
   -0.0760   19.2060  -33.3400 C   0  0  0  0  0  0  0  0  0  0  0  0
   -0.3170   18.1610  -32.3220 N   0  0  2  0  0  0  0  0  0  0  0  0
   -1.5180   17.3780  -32.7180 C   0  0  0  0  0  0  0  0  0  0  0  0
   -2.4030   18.0720  -33.7740 C   0  0  0  0  0  0  0  0  0  0  0  0
   -3.8250   17.5640  -33.7900 C   0  0  0  0  0  0  0  0  0  0  0  0
   -4.1840   16.4270  -33.0440 C   0  0  0  0  0  0  0  0  0  0  0  0
   -5.4970   15.9490  -33.0730 C   0  0  0  0  0  0  0  0  0  0  0  0
   -6.4560   16.5860  -33.8630 C   0  0  0  0  0  0  0  0  0  0  0  0
   -6.1020   17.6970  -34.6320 C   0  0  0  0  0  0  0  0  0  0  0  0
   -4.7930   18.1870  -34.5940 C   0  0  0  0  0  0  0  0  0  0  0  0
   -0.4870   18.7450  -30.9640 C   0  0  0  0  0  0  0  0  0  0  0  0
    0.2200   17.9600  -29.8720 C   0  0  0  0  0  0  0  0  0  0  0  0
    0.9470   16.8060  -30.2240 C   0  0  0  0  0  0  0  0  0  0  0  0
    1.5630   16.0250  -29.2450 C   0  0  0  0  0  0  0  0  0  0  0  0
    1.4590   16.3810  -27.9010 C   0  0  0  0  0  0  0  0  0  0  0  0
    0.7460   17.5220  -27.5350 C   0  0  0  0  0  0  0  0  0  0  0  0
    0.1260   18.3190  -28.5080 C   0  0  0  0  0  0  0  0  0  0  0  0
   -0.5660   19.5060  -28.0950 N   0  0  0  0  0  0  0  0  0  0  0  0
   -0.0520   20.8170  -28.4970 C   0  0  0  0  0  0  0  0  0  0  0  0
   -1.0490   21.5000  -29.4340 C   0  0  0  0  0  0  0  0  0  0  0  0
   -2.4320   21.4030  -28.9310 N   0  0  0  0  0  0  0  0  0  0  0  0
   -3.5030   22.1100  -29.6000 C   0  0  0  0  0  0  0  0  0  0  0  0
   -4.5800   22.3320  -28.9820 O   0  0  0  0  0  0  0  0  0  0  0  0
   -3.3400   22.6180  -31.0190 C   0  0  1  0  0  0  0  0  0  0  0  0
   -3.5380   21.5250  -32.0980 C   0  0  0  0  0  0  0  0  0  0  0  0
   -4.9070   20.8800  -32.0960 C   0  0  0  0  0  0  0  0  0  0  0  0
   -6.0070   21.5470  -32.6610 C   0  0  0  0  0  0  0  0  0  0  0  0
   -7.2720   20.9520  -32.6620 C   0  0  0  0  0  0  0  0  0  0  0  0
   -7.4470   19.6770  -32.1150 C   0  0  0  0  0  0  0  0  0  0  0  0
   -9.0360   18.9290  -32.1200 Cl  0  0  0  0  0  0  0  0  0  0  0  0
   -6.3520   18.9960  -31.5730 C   0  0  0  0  0  0  0  0  0  0  0  0
   -5.0880   19.5910  -31.5660 C   0  0  0  0  0  0  0  0  0  0  0  0
   -4.2410   23.7530  -31.2210 N   0  0  0  0  0  0  0  0  0  0  0  0
   -4.3510   24.9140  -30.3870 C   0  0  0  0  0  0  0  0  0  0  0  0
   -3.3350   25.2790  -29.7370 O   0  0  0  0  0  0  0  0  0  0  0  0
   -5.6540   25.6660  -30.2440 C   0  0  0  0  0  0  0  0  0  0  0  0
   -6.8820   24.7710  -30.4580 C   0  0  0  0  0  0  0  0  0  0  0  0
   -6.7060   23.4980  -29.7680 N   0  0  0  0  0  0  0  0  0  0  0  0
   -2.6960   20.7090  -27.6610 C   0  0  0  0  0  0  0  0  0  0  0  0
   -1.9450   19.3730  -27.6090 C   0  0  0  0  0  0  0  0  0  0  0  0
    0.1442   20.1609  -32.8403 H   0  0  0  0  0  0  0  0  0  0  0  0
    0.7787   18.9154  -33.9685 H   0  0  0  0  0  0  0  0  0  0  0  0
   -0.9716   19.3191  -33.9685 H   0  0  0  0  0  0  0  0  0  0  0  0
    0.5180   17.5310  -32.3200 H   0  0  0  0  0  0  0  0  0  0  0  0
   -1.1821   16.4143  -33.1284 H   0  0  0  0  0  0  0  0  0  0  0  0
   -2.1340   17.2635  -31.8139 H   0  0  0  0  0  0  0  0  0  0  0  0
   -2.4202   19.1509  -33.5603 H   0  0  0  0  0  0  0  0  0  0  0  0
   -1.9674   17.8511  -34.7596 H   0  0  0  0  0  0  0  0  0  0  0  0
   -3.4274   15.9112  -32.4345 H   0  0  0  0  0  0  0  0  0  0  0  0
   -5.7752   15.0701  -32.4729 H   0  0  0  0  0  0  0  0  0  0  0  0
   -7.4906   16.2128  -33.8798 H   0  0  0  0  0  0  0  0  0  0  0  0
   -6.8538   18.1870  -35.2682 H   0  0  0  0  0  0  0  0  0  0  0  0
   -4.5200   19.0654  -35.1973 H   0  0  0  0  0  0  0  0  0  0  0  0
   -0.0845   19.7687  -30.9727 H   0  0  0  0  0  0  0  0  0  0  0  0
   -1.5625   18.7206  -30.7344 H   0  0  0  0  0  0  0  0  0  0  0  0
    1.0301   16.5172  -31.2821 H   0  0  0  0  0  0  0  0  0  0  0  0
    2.1308   15.1282  -29.5339 H   0  0  0  0  0  0  0  0  0  0  0  0
    1.9395   15.7617  -27.1293 H   0  0  0  0  0  0  0  0  0  0  0  0
    0.6692   17.7995  -26.4733 H   0  0  0  0  0  0  0  0  0  0  0  0
    0.0954   21.4410  -27.6032 H   0  0  0  0  0  0  0  0  0  0  0  0
    0.9067   20.6860  -29.0203 H   0  0  0  0  0  0  0  0  0  0  0  0
   -0.7785   22.5621  -29.5280 H   0  0  0  0  0  0  0  0  0  0  0  0
   -1.0043   20.9915  -30.4084 H   0  0  0  0  0  0  0  0  0  0  0  0
   -2.2965   22.9431  -31.1431 H   0  0  0  0  0  0  0  0  0  0  0  0
   -3.3759   21.9833  -33.0847 H   0  0  0  0  0  0  0  0  0  0  0  0
   -2.8164   20.7267  -31.8699 H   0  0  0  0  0  0  0  0  0  0  0  0
   -5.8719   22.5441  -33.1055 H   0  0  0  0  0  0  0  0  0  0  0  0
   -8.1306   21.4873  -33.0935 H   0  0  0  0  0  0  0  0  0  0  0  0
   -6.4865   17.9891  -31.1511 H   0  0  0  0  0  0  0  0  0  0  0  0
   -4.2299   19.0477  -31.1434 H   0  0  0  0  0  0  0  0  0  0  0  0
   -5.7034   26.0949  -29.2323 H   0  0  0  0  0  0  0  0  0  0  0  0
   -5.6733   26.4467  -31.0187 H   0  0  0  0  0  0  0  0  0  0  0  0
   -7.7743   25.2782  -30.0622 H   0  0  0  0  0  0  0  0  0  0  0  0
   -7.0035   24.5810  -31.5346 H   0  0  0  0  0  0  0  0  0  0  0  0
   -6.2560   23.7030  -28.8480 H   0  0  0  0  0  0  0  0  0  0  0  0
   -6.0180   22.9270  -30.3080 H   0  0  0  0  0  0  0  0  0  0  0  0
   -2.3630   21.3435  -26.8264 H   0  0  0  0  0  0  0  0  0  0  0  0
   -3.7754   20.5120  -27.5825 H   0  0  0  0  0  0  0  0  0  0  0  0
   -1.9235   19.0164  -26.5686 H   0  0  0  0  0  0  0  0  0  0  0  0
   -2.4705   18.6586  -28.2598 H   0  0  0  0  0  0  0  0  0  0  0  0
  1  2  1  0
  2  3  1  0
  3  4  1  0
  4  5  1  0
  5  6  2  0
  6  7  1  0
  7  8  2  0
  8  9  1  0
  9 10  2  0
  2 11  1  0
 11 12  1  0
 12 13  2  0
 13 14  1  0
 14 15  2  0
 15 16  1  0
 16 17  2  0
 17 18  1  0
 18 19  1  0
 19 20  1  0
 20 21  1  0
 21 22  1  0
 22 23  2  0
 22 24  1  0
 24 25  1  0
 25 26  1  0
 26 27  2  0
 27 28  1  0
 28 29  2  0
 29 30  1  0
 29 31  1  0
 31 32  2  0
 24 33  1  0
 33 34  1  0
 34 35  2  0
 34 36  1  0
 36 37  1  0
 37 38  1  0
 21 39  1  0
 39 40  1  0
 10  5  1  0
 17 12  1  0
 40 18  1  0
 32 26  1  0
  1 41  1  0
  1 42  1  0
  1 43  1  0
  2 44  1  1
  3 45  1  0
  3 46  1  0
  4 47  1  0
  4 48  1  0
  6 49  1  0
  7 50  1  0
  8 51  1  0
  9 52  1  0
 10 53  1  0
 11 54  1  0
 11 55  1  0
 13 56  1  0
 14 57  1  0
 15 58  1  0
 16 59  1  0
 19 60  1  0
 19 61  1  0
 20 62  1  0
 20 63  1  0
 24 64  1  1
 25 65  1  0
 25 66  1  0
 27 67  1  0
 28 68  1  0
 31 69  1  0
 32 70  1  0
 36 71  1  0
 36 72  1  0
 37 73  1  0
 37 74  1  0
 38 75  1  0
 38 76  1  0
 39 77  1  0
 39 78  1  0
 40 79  1  0
 40 80  1  0
M  CHG  2   2   1  33  -1
M  END
>  <UniqueID>  (28) 
28

>  <SMILES>  (28) 
C[N@H+](CCc1ccccc1)Cc1ccccc1N1CCN(C(=O)[C@@H](Cc2ccc(Cl)cc2)[N-]C(=O)CCN)CC1

>  <Energy>  (28) 
86.15707579954876

>  <Genealogy>  (28) 
C[NH+](CCc1ccccc1)Cc1ccccc1N1CCN(C(=O)C(Cc2ccc(Cl)cc2)[N-]C(=O)CCN)CC1 (protonated)
C[N@H+](CCc1ccccc1)Cc1ccccc1N1CCN(C(=O)[C@@H](Cc2ccc(Cl)cc2)[N-]C(=O)CCN)CC1 (chirality)
C[N@H+](CCc1ccccc1)Cc1ccccc1N1CCN(C(=O)[C@@H](Cc2ccc(Cl)cc2)[N-]C(=O)CCN)CC1 (3D coordinates assigned)
C[N@H+](CCc1ccccc1)Cc1ccccc1N1CCN(C(=O)[C@@H](Cc2ccc(Cl)cc2)[N-]C(=O)CCN)CC1 (nonaromatic ring conformer: 86.15707579954876 kcal/mol)

>  <smiles>  (28) 
CN(CCc1ccccc1)Cc1ccccc1N1CCN(C(=O)C(Cc2ccc(Cl)cc2)NC(=O)CCN)CC1

>  <score_type>  (28) 
oracle

>  <origin>  (28) 
adg

>  <m_score__min__energy>  (28) 
-12.02

>  <m_primary>  (28) 
energy

$$$$
28:0
     RDKit          3D

 50 54  0  0  0  0  0  0  0  0999 V2000
   -0.1370   20.5080  -34.7360 C   0  0  0  0  0  0  0  0  0  0  0  0
   -1.1740   20.8090  -33.7010 C   0  0  0  0  0  0  0  0  0  0  0  0
   -2.4840   20.3350  -33.8520 C   0  0  0  0  0  0  0  0  0  0  0  0
   -3.4460   20.6460  -32.8820 C   0  0  0  0  0  0  0  0  0  0  0  0
   -4.8290   20.1330  -33.0130 C   0  0  0  0  0  0  0  0  0  0  0  0
   -5.8900   21.0340  -32.8480 C   0  0  0  0  0  0  0  0  0  0  0  0
   -7.2040   20.6000  -33.0080 C   0  0  0  0  0  0  0  0  0  0  0  0
   -7.4690   19.3050  -33.3190 N   0  0  0  0  0  0  0  0  0  0  0  0
   -6.4700   18.3880  -33.4720 C   0  0  0  0  0  0  0  0  0  0  0  0
   -6.7820   17.0530  -33.7760 C   0  0  0  0  0  0  0  0  0  0  0  0
   -5.7670   16.1060  -33.9110 C   0  0  0  0  0  0  0  0  0  0  0  0
   -4.4330   16.4770  -33.7360 C   0  0  0  0  0  0  0  0  0  0  0  0
   -4.1050   17.8010  -33.4350 C   0  0  0  0  0  0  0  0  0  0  0  0
   -5.1150   18.7790  -33.3140 C   0  0  0  0  0  0  0  0  0  0  0  0
   -3.0740   21.4090  -31.7660 C   0  0  0  0  0  0  0  0  0  0  0  0
   -1.7600   21.8700  -31.6510 C   0  0  0  0  0  0  0  0  0  0  0  0
   -1.3990   22.6420  -30.5420 O   0  0  0  0  0  0  0  0  0  0  0  0
   -1.4890   22.1770  -29.1960 C   0  0  0  0  0  0  0  0  0  0  0  0
   -1.3400   23.3570  -28.2180 C   0  0  1  0  0  0  0  0  0  0  0  0
   -1.1590   24.7140  -28.8840 C   0  0  0  0  0  0  0  0  0  0  0  0
   -2.4570   24.4020  -28.1410 C   0  0  1  0  0  0  0  0  0  0  0  0
   -3.6660   24.1960  -29.0120 C   0  0  0  0  0  0  0  0  0  0  0  0
   -4.5930   23.1920  -28.7030 C   0  0  0  0  0  0  0  0  0  0  0  0
   -5.7270   23.0370  -29.5030 C   0  0  0  0  0  0  0  0  0  0  0  0
   -5.9350   23.8920  -30.5870 C   0  0  0  0  0  0  0  0  0  0  0  0
   -7.3550   23.7100  -31.6000 Cl  0  0  0  0  0  0  0  0  0  0  0  0
   -5.0000   24.8960  -30.8530 C   0  0  0  0  0  0  0  0  0  0  0  0
   -3.9010   25.0290  -30.0640 N   0  0  0  0  0  0  0  0  0  0  0  0
   -0.8480   21.5610  -32.6160 N   0  0  0  0  0  0  0  0  0  0  0  0
    0.8064   20.2342  -34.2410 H   0  0  0  0  0  0  0  0  0  0  0  0
   -0.4777   19.6717  -35.3641 H   0  0  0  0  0  0  0  0  0  0  0  0
    0.0230   21.3968  -35.3641 H   0  0  0  0  0  0  0  0  0  0  0  0
   -2.7550   19.7235  -34.7253 H   0  0  0  0  0  0  0  0  0  0  0  0
   -5.6850   22.0840  -32.5921 H   0  0  0  0  0  0  0  0  0  0  0  0
   -8.0332   21.3117  -32.8815 H   0  0  0  0  0  0  0  0  0  0  0  0
   -8.4680   19.0180  -33.4340 H   0  0  0  0  0  0  0  0  0  0  0  0
   -7.8319   16.7527  -33.9083 H   0  0  0  0  0  0  0  0  0  0  0  0
   -6.0186   15.0636  -34.1561 H   0  0  0  0  0  0  0  0  0  0  0  0
   -3.6371   15.7242  -33.8354 H   0  0  0  0  0  0  0  0  0  0  0  0
   -3.0516   18.0833  -33.2912 H   0  0  0  0  0  0  0  0  0  0  0  0
   -3.8126   21.6434  -30.9853 H   0  0  0  0  0  0  0  0  0  0  0  0
   -2.4668   21.6973  -29.0413 H   0  0  0  0  0  0  0  0  0  0  0  0
   -0.6831   21.4516  -29.0108 H   0  0  0  0  0  0  0  0  0  0  0  0
   -0.8152   22.7579  -27.4593 H   0  0  0  0  0  0  0  0  0  0  0  0
   -0.4475   25.4408  -28.4651 H   0  0  0  0  0  0  0  0  0  0  0  0
   -0.9085   25.0527  -29.9001 H   0  0  0  0  0  0  0  0  0  0  0  0
   -3.0288   24.8557  -27.3181 H   0  0  0  0  0  0  0  0  0  0  0  0
   -4.4291   22.5320  -27.8384 H   0  0  0  0  0  0  0  0  0  0  0  0
   -6.4548   22.2430  -29.2796 H   0  0  0  0  0  0  0  0  0  0  0  0
   -5.1534   25.5791  -31.7014 H   0  0  0  0  0  0  0  0  0  0  0  0
  1  2  1  0
  2  3  2  0
  3  4  1  0
  4  5  1  0
  5  6  2  0
  6  7  1  0
  7  8  2  0
  8  9  1  0
  9 10  2  0
 10 11  1  0
 11 12  2  0
 12 13  1  0
 13 14  2  0
  4 15  2  0
 15 16  1  0
 16 17  1  0
 17 18  1  0
 18 19  1  0
 19 20  1  0
 20 21  1  0
 21 22  1  0
 22 23  2  0
 23 24  1  0
 24 25  2  0
 25 26  1  0
 25 27  1  0
 27 28  2  0
 16 29  2  0
 29  2  1  0
 14  5  1  0
 21 19  1  0
 28 22  1  0
 14  9  1  0
  1 30  1  0
  1 31  1  0
  1 32  1  0
  3 33  1  0
  6 34  1  0
  7 35  1  0
  8 36  1  0
 10 37  1  0
 11 38  1  0
 12 39  1  0
 13 40  1  0
 15 41  1  0
 18 42  1  0
 18 43  1  0
 19 44  1  1
 20 45  1  0
 20 46  1  0
 21 47  1  1
 23 48  1  0
 24 49  1  0
 27 50  1  0
M  CHG  1   8   1
M  END
>  <UniqueID>  (29) 
29

>  <SMILES>  (29) 
Cc1cc(-c2cc[nH+]c3ccccc23)cc(OC[C@H]2C[C@H]2c2ccc(Cl)cn2)n1

>  <Energy>  (29) 
332.24244846137395

>  <Genealogy>  (29) 
Cc1cc(-c2cc[nH+]c3ccccc23)cc(OCC2CC2c2ccc(Cl)cn2)n1 (protonated)
Cc1cc(-c2cc[nH+]c3ccccc23)cc(OC[C@H]2C[C@H]2c2ccc(Cl)cn2)n1 (chirality)
Cc1cc(-c2cc[nH+]c3ccccc23)cc(OC[C@H]2C[C@H]2c2ccc(Cl)cn2)n1 (3D coordinates assigned)
Cc1cc(-c2cc[nH+]c3ccccc23)cc(OC[C@H]2C[C@H]2c2ccc(Cl)cn2)n1 (nonaromatic ring conformer: 332.24244846137395 kcal/mol)

>  <smiles>  (29) 
Cc1cc(-c2ccnc3ccccc23)cc(OCC2CC2c2ccc(Cl)cn2)n1

>  <score_type>  (29) 
oracle

>  <origin>  (29) 
adg

>  <m_score__min__energy>  (29) 
-10.130000000000001

>  <m_primary>  (29) 
energy

$$$$
29:0
     RDKit          3D

 48 49  0  0  0  0  0  0  0  0999 V2000
   -6.0740   25.1900  -29.5670 C   0  0  0  0  0  0  0  0  0  0  0  0
   -5.2140   25.6220  -30.7430 C   0  0  0  0  0  0  0  0  0  0  0  0
   -3.8670   25.2880  -30.4830 O   0  0  0  0  0  0  0  0  0  0  0  0
   -3.7910   24.0990  -29.7170 C   0  0  0  0  0  0  0  0  0  0  0  0
   -2.4990   23.3430  -30.0360 C   0  0  0  0  0  0  0  0  0  0  0  0
   -2.7790   22.1700  -30.7780 O   0  0  0  0  0  0  0  0  0  0  0  0
   -1.7430   21.9050  -31.7010 C   0  0  0  0  0  0  0  0  0  0  0  0
   -2.1490   20.7560  -32.6240 C   0  0  0  0  0  0  0  0  0  0  0  0
   -3.2560   21.1500  -33.4990 N   0  0  0  0  0  0  0  0  0  0  0  0
   -4.6110   21.3640  -33.0510 C   0  0  0  0  0  0  0  0  0  0  0  0
   -5.0200   22.6210  -32.5740 C   0  0  0  0  0  0  0  0  0  0  0  0
   -6.3320   22.8360  -32.1590 C   0  0  0  0  0  0  0  0  0  0  0  0
   -7.2680   21.7970  -32.2040 C   0  0  0  0  0  0  0  0  0  0  0  0
   -8.5870   22.0170  -31.7750 C   0  0  0  0  0  0  0  0  0  0  0  0
   -9.5140   20.9750  -31.7960 C   0  0  0  0  0  0  0  0  0  0  0  0
   -9.1350   19.7080  -32.2410 C   0  0  0  0  0  0  0  0  0  0  0  0
   -7.8290   19.4770  -32.6770 C   0  0  0  0  0  0  0  0  0  0  0  0
   -6.8790   20.5180  -32.6730 C   0  0  0  0  0  0  0  0  0  0  0  0
   -5.5510   20.3110  -33.1160 C   0  0  0  0  0  0  0  0  0  0  0  0
   -5.1460   19.0260  -33.6160 N   0  0  0  0  0  0  0  0  0  0  0  0
   -5.6610   18.5670  -34.9070 C   0  0  0  0  0  0  0  0  0  0  0  0
   -4.2170   18.2160  -32.8270 C   0  0  0  0  0  0  0  0  0  0  0  0
   -5.5643   25.4460  -28.6264 H   0  0  0  0  0  0  0  0  0  0  0  0
   -7.0433   25.7082  -29.6116 H   0  0  0  0  0  0  0  0  0  0  0  0
   -6.2370   24.1031  -29.6116 H   0  0  0  0  0  0  0  0  0  0  0  0
   -5.5513   25.1061  -31.6541 H   0  0  0  0  0  0  0  0  0  0  0  0
   -5.3034   26.7091  -30.8855 H   0  0  0  0  0  0  0  0  0  0  0  0
   -3.8070   24.3549  -28.6473 H   0  0  0  0  0  0  0  0  0  0  0  0
   -4.6505   23.4586  -29.9643 H   0  0  0  0  0  0  0  0  0  0  0  0
   -1.8353   23.9934  -30.6246 H   0  0  0  0  0  0  0  0  0  0  0  0
   -2.0122   23.0579  -29.0917 H   0  0  0  0  0  0  0  0  0  0  0  0
   -1.5514   22.8057  -32.3026 H   0  0  0  0  0  0  0  0  0  0  0  0
   -0.8323   21.6236  -31.1519 H   0  0  0  0  0  0  0  0  0  0  0  0
   -1.2858   20.4699  -33.2429 H   0  0  0  0  0  0  0  0  0  0  0  0
   -2.4774   19.9086  -32.0043 H   0  0  0  0  0  0  0  0  0  0  0  0
   -3.0460   21.2100  -34.5200 H   0  0  0  0  0  0  0  0  0  0  0  0
   -4.2942   23.4462  -32.5278 H   0  0  0  0  0  0  0  0  0  0  0  0
   -6.6341   23.8286  -31.7937 H   0  0  0  0  0  0  0  0  0  0  0  0
   -8.8899   23.0136  -31.4215 H   0  0  0  0  0  0  0  0  0  0  0  0
  -10.5466   21.1525  -31.4609 H   0  0  0  0  0  0  0  0  0  0  0  0
   -9.8681   18.8879  -32.2483 H   0  0  0  0  0  0  0  0  0  0  0  0
   -7.5393   18.4750  -33.0263 H   0  0  0  0  0  0  0  0  0  0  0  0
   -6.4728   17.8434  -34.7416 H   0  0  0  0  0  0  0  0  0  0  0  0
   -6.0462   19.4268  -35.4748 H   0  0  0  0  0  0  0  0  0  0  0  0
   -4.8510   18.0858  -35.4748 H   0  0  0  0  0  0  0  0  0  0  0  0
   -4.4057   18.3805  -31.7559 H   0  0  0  0  0  0  0  0  0  0  0  0
   -4.3638   17.1524  -33.0660 H   0  0  0  0  0  0  0  0  0  0  0  0
   -3.1833   18.5063  -33.0660 H   0  0  0  0  0  0  0  0  0  0  0  0
  1  2  1  0
  2  3  1  0
  3  4  1  0
  4  5  1  0
  5  6  1  0
  6  7  1  0
  7  8  1  0
  8  9  1  0
  9 10  1  0
 10 11  2  0
 11 12  1  0
 12 13  2  0
 13 14  1  0
 14 15  2  0
 15 16  1  0
 16 17  2  0
 17 18  1  0
 18 19  2  0
 19 20  1  0
 20 21  1  0
 20 22  1  0
 19 10  1  0
 18 13  1  0
  1 23  1  0
  1 24  1  0
  1 25  1  0
  2 26  1  0
  2 27  1  0
  4 28  1  0
  4 29  1  0
  5 30  1  0
  5 31  1  0
  7 32  1  0
  7 33  1  0
  8 34  1  0
  8 35  1  0
  9 36  1  0
 11 37  1  0
 12 38  1  0
 14 39  1  0
 15 40  1  0
 16 41  1  0
 17 42  1  0
 21 43  1  0
 21 44  1  0
 21 45  1  0
 22 46  1  0
 22 47  1  0
 22 48  1  0
M  END
>  <UniqueID>  (30) 
30

>  <SMILES>  (30) 
CCOCCOCCNc1ccc2ccccc2c1N(C)C

>  <Energy>  (30) 
48.61656241963783

>  <Genealogy>  (30) 
CCOCCOCCNc1ccc2ccccc2c1N(C)C (3D coordinates assigned)
CCOCCOCCNc1ccc2ccccc2c1N(C)C (optimized conformer: 48.61656241963783 kcal/mol)

>  <smiles>  (30) 
CCOCCOCCNc1ccc2ccccc2c1N(C)C

>  <score_type>  (30) 
oracle

>  <origin>  (30) 
adg

>  <m_score__min__energy>  (30) 
-8

>  <m_primary>  (30) 
energy

$$$$
30:0
     RDKit          3D

 25 26  0  0  0  0  0  0  0  0999 V2000
   -4.2020   25.6640  -31.5960 H   0  0  0  0  0  0  0  0  0  0  0  0
   -3.8660   25.6080  -30.6630 O   0  0  0  0  0  0  0  0  0  0  0  0
   -4.8940   25.0350  -29.8990 C   0  0  0  0  0  0  0  0  0  0  0  0
   -5.3728   25.8177  -29.2923 H   0  0  0  0  0  0  0  0  0  0  0  0
   -4.4626   24.2599  -29.2485 H   0  0  0  0  0  0  0  0  0  0  0  0
   -5.9410   24.3910  -30.8040 C   0  0  0  0  0  0  0  0  0  0  0  0
   -6.6801   25.1489  -31.1030 H   0  0  0  0  0  0  0  0  0  0  0  0
   -6.4411   23.5783  -30.2568 H   0  0  0  0  0  0  0  0  0  0  0  0
   -5.3000   23.8430  -31.9970 N   0  0  0  0  0  0  0  0  0  0  0  0
   -5.3330   22.5870  -32.3300 C   0  0  0  0  0  0  0  0  0  0  0  0
   -4.0090   21.6820  -32.8810 S   0  0  0  0  0  0  0  0  0  0  0  0
   -4.9490   20.2990  -33.0600 C   0  0  0  0  0  0  0  0  0  0  0  0
   -4.5520   19.0560  -33.5410 C   0  0  0  0  0  0  0  0  0  0  0  0
   -3.5072   18.8697  -33.8304 H   0  0  0  0  0  0  0  0  0  0  0  0
   -5.5180   18.0480  -33.6470 C   0  0  0  0  0  0  0  0  0  0  0  0
   -5.2339   17.0573  -34.0314 H   0  0  0  0  0  0  0  0  0  0  0  0
   -6.8500   18.2940  -33.2650 C   0  0  0  0  0  0  0  0  0  0  0  0
   -7.5982   17.4934  -33.3611 H   0  0  0  0  0  0  0  0  0  0  0  0
   -7.2400   19.5540  -32.7600 C   0  0  0  0  0  0  0  0  0  0  0  0
   -8.5990   19.7630  -32.3390 N   0  0  0  0  0  0  0  0  0  0  0  0
   -9.0630   20.9180  -32.2410 O   0  0  0  0  0  0  0  0  0  0  0  0
   -9.3320   18.7120  -31.8390 O   0  0  0  0  0  0  0  0  0  0  0  0
   -6.2600   20.5680  -32.6790 C   0  0  0  0  0  0  0  0  0  0  0  0
   -6.4710   21.8540  -32.2830 N   0  0  0  0  0  0  0  0  0  0  0  0
   -7.3910   22.2570  -32.0020 H   0  0  0  0  0  0  0  0  0  0  0  0
  1  2  1  0
  2  3  1  0
  3  4  1  0
  3  5  1  0
  3  6  1  0
  6  7  1  0
  6  8  1  0
  6  9  1  0
  9 10  2  0
 10 11  1  0
 11 12  1  0
 12 13  2  0
 13 14  1  0
 13 15  1  0
 15 16  1  0
 15 17  2  0
 17 18  1  0
 17 19  1  0
 19 20  1  0
 20 21  2  0
 20 22  1  0
 19 23  2  0
 23 24  1  0
 24 25  1  0
 24 10  1  0
 23 12  1  0
M  CHG  2  20   1  22  -1
M  END
>  <UniqueID>  (31) 
31

>  <SMILES>  (31) 
O=[N+]([O-])c1cccc2s/c(=N\CCO)[nH]c12

>  <Energy>  (31) 
61.58181165347449

>  <Genealogy>  (31) 
O=[N+]([O-])c1cccc2s/c(=N\CCO)[nH]c12 (cis-trans isomerization)
O=[N+]([O-])c1cccc2s/c(=N\CCO)[nH]c12 (3D coordinates assigned)
O=[N+]([O-])c1cccc2s/c(=N\CCO)[nH]c12 (optimized conformer: 61.58181165347449 kcal/mol)

>  <smiles>  (31) 
O=[N+]([O-])c1cccc2sc(=NCCO)[nH]c12

>  <score_type>  (31) 
oracle

>  <origin>  (31) 
adg

>  <m_score__min__energy>  (31) 
-7.5

>  <m_primary>  (31) 
energy

$$$$
31:0
     RDKit          3D

 71 71  0  0  0  0  0  0  0  0999 V2000
   -6.8700   23.2910  -32.2570 C   0  0  0  0  0  0  0  0  0  0  0  0
   -7.7040   22.4100  -31.3280 C   0  0  0  0  0  0  0  0  0  0  0  0
   -9.0870   22.0630  -31.9060 C   0  0  0  0  0  0  0  0  0  0  0  0
   -9.2630   20.5650  -32.2320 C   0  0  0  0  0  0  0  0  0  0  0  0
   -8.3250   19.6760  -31.4030 C   0  0  0  0  0  0  0  0  0  0  0  0
   -8.2840   18.2470  -31.9630 C   0  0  0  0  0  0  0  0  0  0  0  0
   -6.8520   17.7680  -32.2570 C   0  0  0  0  0  0  0  0  0  0  0  0
   -6.5490   17.7040  -33.7600 C   0  0  0  0  0  0  0  0  0  0  0  0
   -5.4880   18.7430  -34.1510 C   0  0  0  0  0  0  0  0  0  0  0  0
   -5.7070   20.1090  -33.4750 C   0  0  0  0  0  0  0  0  0  0  0  0
   -4.4270   20.8140  -32.9920 C   0  0  0  0  0  0  0  0  0  0  0  0
   -3.1090   20.1470  -33.4300 C   0  0  0  0  0  0  0  0  0  0  0  0
   -2.2850   19.5630  -32.2610 C   0  0  0  0  0  0  0  0  0  0  0  0
   -0.7950   19.9620  -32.2550 C   0  0  0  0  0  0  0  0  0  0  0  0
   -0.3420   20.8420  -31.0700 C   0  0  0  0  0  0  0  0  0  0  0  0
   -0.3080   20.1380  -29.6990 C   0  0  0  0  0  0  0  0  0  0  0  0
   -1.4510   20.5410  -28.7530 C   0  0  0  0  0  0  0  0  0  0  0  0
   -2.1300   21.8150  -29.1910 C   0  0  0  0  0  0  0  0  0  0  0  0
   -3.3310   21.7600  -29.9110 C   0  0  0  0  0  0  0  0  0  0  0  0
   -3.9500   22.9330  -30.3450 C   0  0  0  0  0  0  0  0  0  0  0  0
   -3.3730   24.1870  -30.0680 C   0  0  0  0  0  0  0  0  0  0  0  0
   -3.9630   25.3890  -30.4920 O   0  0  0  0  0  0  0  0  0  0  0  0
   -5.3490   25.6910  -30.3760 C   0  0  0  0  0  0  0  0  0  0  0  0
   -2.1680   24.2520  -29.3490 C   0  0  0  0  0  0  0  0  0  0  0  0
   -1.6140   25.5160  -29.0920 O   0  0  0  0  0  0  0  0  0  0  0  0
   -0.9840   25.8870  -27.8700 C   0  0  0  0  0  0  0  0  0  0  0  0
   -1.5530   23.0630  -28.9110 C   0  0  0  0  0  0  0  0  0  0  0  0
   -6.2364   23.9603  -31.6565 H   0  0  0  0  0  0  0  0  0  0  0  0
   -6.2344   22.6560  -32.8916 H   0  0  0  0  0  0  0  0  0  0  0  0
   -7.5388   23.8909  -32.8916 H   0  0  0  0  0  0  0  0  0  0  0  0
   -7.1552   21.4740  -31.1472 H   0  0  0  0  0  0  0  0  0  0  0  0
   -7.8692   22.9764  -30.3996 H   0  0  0  0  0  0  0  0  0  0  0  0
   -9.8531   22.3512  -31.1712 H   0  0  0  0  0  0  0  0  0  0  0  0
   -9.1875   22.6129  -32.8533 H   0  0  0  0  0  0  0  0  0  0  0  0
  -10.3032   20.2764  -32.0203 H   0  0  0  0  0  0  0  0  0  0  0  0
   -9.0148   20.4194  -33.2937 H   0  0  0  0  0  0  0  0  0  0  0  0
   -7.3109   20.1014  -31.4280 H   0  0  0  0  0  0  0  0  0  0  0  0
   -8.7011   19.6370  -30.3700 H   0  0  0  0  0  0  0  0  0  0  0  0
   -8.7389   17.5672  -31.2276 H   0  0  0  0  0  0  0  0  0  0  0  0
   -8.8377   18.2455  -32.9135 H   0  0  0  0  0  0  0  0  0  0  0  0
   -6.1435   18.4638  -31.7839 H   0  0  0  0  0  0  0  0  0  0  0  0
   -6.7512   16.7499  -31.8528 H   0  0  0  0  0  0  0  0  0  0  0  0
   -6.1780   16.6991  -34.0099 H   0  0  0  0  0  0  0  0  0  0  0  0
   -7.4741   17.9214  -34.3141 H   0  0  0  0  0  0  0  0  0  0  0  0
   -4.4988   18.3614  -33.8581 H   0  0  0  0  0  0  0  0  0  0  0  0
   -5.5629   18.8974  -35.2375 H   0  0  0  0  0  0  0  0  0  0  0  0
   -6.2075   20.7701  -34.1979 H   0  0  0  0  0  0  0  0  0  0  0  0
   -6.3051   19.9109  -32.5733 H   0  0  0  0  0  0  0  0  0  0  0  0
   -4.4355   21.8418  -33.3837 H   0  0  0  0  0  0  0  0  0  0  0  0
   -4.4455   20.7640  -31.8933 H   0  0  0  0  0  0  0  0  0  0  0  0
   -3.3489   19.3303  -34.1268 H   0  0  0  0  0  0  0  0  0  0  0  0
   -2.4931   20.9310  -33.8947 H   0  0  0  0  0  0  0  0  0  0  0  0
   -2.7354   19.9089  -31.3189 H   0  0  0  0  0  0  0  0  0  0  0  0
   -2.3116   18.4698  -32.3801 H   0  0  0  0  0  0  0  0  0  0  0  0
   -0.1979   19.0383  -32.2376 H   0  0  0  0  0  0  0  0  0  0  0  0
   -0.6449   20.5735  -33.1570 H   0  0  0  0  0  0  0  0  0  0  0  0
    0.6716   21.2094  -31.2881 H   0  0  0  0  0  0  0  0  0  0  0  0
   -1.0924   21.6414  -30.9818 H   0  0  0  0  0  0  0  0  0  0  0  0
   -0.3666   19.0526  -29.8674 H   0  0  0  0  0  0  0  0  0  0  0  0
    0.6286   20.4445  -29.2103 H   0  0  0  0  0  0  0  0  0  0  0  0
   -2.1957   19.7317  -28.7321 H   0  0  0  0  0  0  0  0  0  0  0  0
   -1.0196   20.7135  -27.7559 H   0  0  0  0  0  0  0  0  0  0  0  0
   -3.7890   20.7854  -30.1356 H   0  0  0  0  0  0  0  0  0  0  0  0
   -4.8941   22.8775  -30.9067 H   0  0  0  0  0  0  0  0  0  0  0  0
   -5.6235   25.7508  -29.3125 H   0  0  0  0  0  0  0  0  0  0  0  0
   -5.5562   26.6554  -30.8629 H   0  0  0  0  0  0  0  0  0  0  0  0
   -5.9386   24.9002  -30.8629 H   0  0  0  0  0  0  0  0  0  0  0  0
   -1.5887   25.5309  -27.0229 H   0  0  0  0  0  0  0  0  0  0  0  0
    0.0174   25.4344  -27.8216 H   0  0  0  0  0  0  0  0  0  0  0  0
   -0.8941   26.9822  -27.8216 H   0  0  0  0  0  0  0  0  0  0  0  0
   -0.6116   23.1132  -28.3442 H   0  0  0  0  0  0  0  0  0  0  0  0
  1  2  1  0
  2  3  1  0
  3  4  1  0
  4  5  1  0
  5  6  1  0
  6  7  1  0
  7  8  1  0
  8  9  1  0
  9 10  1  0
 10 11  1  0
 11 12  1  0
 12 13  1  0
 13 14  1  0
 14 15  1  0
 15 16  1  0
 16 17  1  0
 17 18  1  0
 18 19  2  0
 19 20  1  0
 20 21  2  0
 21 22  1  0
 22 23  1  0
 21 24  1  0
 24 25  1  0
 25 26  1  0
 24 27  2  0
 27 18  1  0
  1 28  1  0
  1 29  1  0
  1 30  1  0
  2 31  1  0
  2 32  1  0
  3 33  1  0
  3 34  1  0
  4 35  1  0
  4 36  1  0
  5 37  1  0
  5 38  1  0
  6 39  1  0
  6 40  1  0
  7 41  1  0
  7 42  1  0
  8 43  1  0
  8 44  1  0
  9 45  1  0
  9 46  1  0
 10 47  1  0
 10 48  1  0
 11 49  1  0
 11 50  1  0
 12 51  1  0
 12 52  1  0
 13 53  1  0
 13 54  1  0
 14 55  1  0
 14 56  1  0
 15 57  1  0
 15 58  1  0
 16 59  1  0
 16 60  1  0
 17 61  1  0
 17 62  1  0
 19 63  1  0
 20 64  1  0
 23 65  1  0
 23 66  1  0
 23 67  1  0
 26 68  1  0
 26 69  1  0
 26 70  1  0
 27 71  1  0
M  END
>  <UniqueID>  (32) 
32

>  <SMILES>  (32) 
CCCCCCCCCCCCCCCCCc1ccc(OC)c(OC)c1

>  <Energy>  (32) 
45.15755585244453

>  <Genealogy>  (32) 
CCCCCCCCCCCCCCCCCc1ccc(OC)c(OC)c1 (3D coordinates assigned)
CCCCCCCCCCCCCCCCCc1ccc(OC)c(OC)c1 (optimized conformer: 45.15755585244453 kcal/mol)

>  <smiles>  (32) 
CCCCCCCCCCCCCCCCCc1ccc(OC)c(OC)c1

>  <score_type>  (32) 
oracle

>  <origin>  (32) 
adg

>  <m_score__min__energy>  (32) 
-8.4199999999999999

>  <m_primary>  (32) 
energy

$$$$
32:0
     RDKit          3D

 30 31  0  0  0  0  0  0  0  0999 V2000
   -6.4869   23.3079  -33.1384 H   0  0  0  0  0  0  0  0  0  0  0  0
   -6.3210   22.6070  -32.3070 C   0  0  0  0  0  0  0  0  0  0  0  0
   -6.0140   23.1070  -31.1000 C   0  0  0  0  0  0  0  0  0  0  0  0
   -6.7861   23.6621  -30.5470 H   0  0  0  0  0  0  0  0  0  0  0  0
   -4.6780   22.9420  -30.4820 C   0  0  0  0  0  0  0  0  0  0  0  0
   -3.7890   24.0280  -30.3200 C   0  0  0  0  0  0  0  0  0  0  0  0
   -4.1510   25.3030  -30.7870 O   0  0  0  0  0  0  0  0  0  0  0  0
   -5.3620   25.9730  -30.4580 C   0  0  0  0  0  0  0  0  0  0  0  0
   -5.4643   26.0296  -29.3642 H   0  0  0  0  0  0  0  0  0  0  0  0
   -5.3443   26.9896  -30.8777 H   0  0  0  0  0  0  0  0  0  0  0  0
   -6.2139   25.4179  -30.8777 H   0  0  0  0  0  0  0  0  0  0  0  0
   -2.5420   23.7900  -29.7150 C   0  0  0  0  0  0  0  0  0  0  0  0
   -1.8425   24.6239  -29.5555 H   0  0  0  0  0  0  0  0  0  0  0  0
   -2.1890   22.5030  -29.3170 C   0  0  0  0  0  0  0  0  0  0  0  0
   -1.2160   22.3171  -28.8388 H   0  0  0  0  0  0  0  0  0  0  0  0
   -3.0790   21.4540  -29.5300 C   0  0  0  0  0  0  0  0  0  0  0  0
   -2.8033   20.4321  -29.2305 H   0  0  0  0  0  0  0  0  0  0  0  0
   -4.2880   21.6880  -30.1070 N   0  0  0  0  0  0  0  0  0  0  0  0
   -4.9340   20.8780  -30.2470 H   0  0  0  0  0  0  0  0  0  0  0  0
   -6.4470   21.1520  -32.5720 C   0  0  0  0  0  0  0  0  0  0  0  0
   -7.6740   20.4850  -32.3860 C   0  0  0  0  0  0  0  0  0  0  0  0
   -8.5492   21.0438  -32.0230 H   0  0  0  0  0  0  0  0  0  0  0  0
   -7.7880   19.1190  -32.6590 C   0  0  0  0  0  0  0  0  0  0  0  0
   -8.7495   18.6074  -32.5045 H   0  0  0  0  0  0  0  0  0  0  0  0
   -6.6860   18.4020  -33.1270 C   0  0  0  0  0  0  0  0  0  0  0  0
   -6.8340   16.6880  -33.4690 Cl  0  0  0  0  0  0  0  0  0  0  0  0
   -5.4650   19.0520  -33.3270 C   0  0  0  0  0  0  0  0  0  0  0  0
   -4.5981   18.4854  -33.6977 H   0  0  0  0  0  0  0  0  0  0  0  0
   -5.3390   20.4210  -33.0580 C   0  0  0  0  0  0  0  0  0  0  0  0
   -3.7660   21.1740  -33.3070 Cl  0  0  0  0  0  0  0  0  0  0  0  0
  1  2  1  0
  2  3  2  0
  3  4  1  0
  3  5  1  0
  5  6  2  0
  6  7  1  0
  7  8  1  0
  8  9  1  0
  8 10  1  0
  8 11  1  0
  6 12  1  0
 12 13  1  0
 12 14  2  0
 14 15  1  0
 14 16  1  0
 16 17  1  0
 16 18  2  0
 18 19  1  0
  2 20  1  0
 20 21  2  0
 21 22  1  0
 21 23  1  0
 23 24  1  0
 23 25  2  0
 25 26  1  0
 25 27  1  0
 27 28  1  0
 27 29  2  0
 29 30  1  0
 18  5  1  0
 29 20  1  0
M  CHG  1  18   1
M  END
>  <UniqueID>  (33) 
33

>  <SMILES>  (33) 
COc1ccc[nH+]c1/C=C/c1ccc(Cl)cc1Cl

>  <Energy>  (33) 
38.623655798864284

>  <Genealogy>  (33) 
COc1ccc[nH+]c1C=Cc1ccc(Cl)cc1Cl (protonated)
COc1ccc[nH+]c1/C=C/c1ccc(Cl)cc1Cl (cis-trans isomerization)
COc1ccc[nH+]c1/C=C/c1ccc(Cl)cc1Cl (3D coordinates assigned)
COc1ccc[nH+]c1/C=C/c1ccc(Cl)cc1Cl (optimized conformer: 38.623655798864284 kcal/mol)

>  <smiles>  (33) 
COc1cccnc1C=Cc1ccc(Cl)cc1Cl

>  <score_type>  (33) 
oracle

>  <origin>  (33) 
adg

>  <m_score__min__energy>  (33) 
-6.7800000000000002

>  <m_primary>  (33) 
energy

$$$$
33:0
     RDKit          3D

 37 38  0  0  0  0  0  0  0  0999 V2000
   -3.4160   24.4860  -29.5370 C   0  0  0  0  0  0  0  0  0  0  0  0
   -4.0120   25.1620  -30.6890 N   0  0  0  0  0  0  0  0  0  0  0  0
   -5.4190   25.4840  -30.4180 C   0  0  0  0  0  0  0  0  0  0  0  0
   -6.2860   24.2230  -30.5080 C   0  0  0  0  0  0  0  0  0  0  0  0
   -6.1510   23.5420  -31.8480 C   0  0  0  0  0  0  0  0  0  0  0  0
   -5.8760   22.2290  -31.9870 C   0  0  0  0  0  0  0  0  0  0  0  0
   -6.9780   21.2350  -32.0830 C   0  0  0  0  0  0  0  0  0  0  0  0
   -8.3130   21.6400  -31.8910 C   0  0  0  0  0  0  0  0  0  0  0  0
   -9.3540   20.7110  -31.9670 C   0  0  0  0  0  0  0  0  0  0  0  0
   -9.0780   19.3670  -32.2260 C   0  0  0  0  0  0  0  0  0  0  0  0
   -7.7580   18.9490  -32.4080 C   0  0  0  0  0  0  0  0  0  0  0  0
   -6.7120   19.8730  -32.3340 C   0  0  0  0  0  0  0  0  0  0  0  0
   -4.4790   21.7420  -32.0710 C   0  0  0  0  0  0  0  0  0  0  0  0
   -3.8660   21.5930  -33.3260 C   0  0  0  0  0  0  0  0  0  0  0  0
   -2.5580   21.1080  -33.4170 C   0  0  0  0  0  0  0  0  0  0  0  0
   -1.8580   20.7590  -32.2580 C   0  0  0  0  0  0  0  0  0  0  0  0
   -2.4680   20.8880  -31.0070 C   0  0  0  0  0  0  0  0  0  0  0  0
   -3.7770   21.3720  -30.9120 C   0  0  0  0  0  0  0  0  0  0  0  0
   -3.8068   24.9292  -28.6092 H   0  0  0  0  0  0  0  0  0  0  0  0
   -3.6702   23.4162  -29.5677 H   0  0  0  0  0  0  0  0  0  0  0  0
   -2.3228   24.6041  -29.5677 H   0  0  0  0  0  0  0  0  0  0  0  0
   -3.4930   26.0610  -30.8270 H   0  0  0  0  0  0  0  0  0  0  0  0
   -5.5045   25.9106  -29.4077 H   0  0  0  0  0  0  0  0  0  0  0  0
   -5.7683   26.2097  -31.1672 H   0  0  0  0  0  0  0  0  0  0  0  0
   -5.9761   23.5213  -29.7196 H   0  0  0  0  0  0  0  0  0  0  0  0
   -7.3370   24.5221  -30.3818 H   0  0  0  0  0  0  0  0  0  0  0  0
   -6.2836   24.1470  -32.7571 H   0  0  0  0  0  0  0  0  0  0  0  0
   -8.5380   22.6958  -31.6796 H   0  0  0  0  0  0  0  0  0  0  0  0
  -10.3938   21.0394  -31.8224 H   0  0  0  0  0  0  0  0  0  0  0  0
   -9.8996   18.6381  -32.2866 H   0  0  0  0  0  0  0  0  0  0  0  0
   -7.5409   17.8897  -32.6101 H   0  0  0  0  0  0  0  0  0  0  0  0
   -5.6742   19.5356  -32.4725 H   0  0  0  0  0  0  0  0  0  0  0  0
   -4.4170   21.8588  -34.2402 H   0  0  0  0  0  0  0  0  0  0  0  0
   -2.0790   21.0008  -34.4014 H   0  0  0  0  0  0  0  0  0  0  0  0
   -0.8269   20.3828  -32.3307 H   0  0  0  0  0  0  0  0  0  0  0  0
   -1.9181   20.6086  -30.0962 H   0  0  0  0  0  0  0  0  0  0  0  0
   -4.2579   21.4631  -29.9269 H   0  0  0  0  0  0  0  0  0  0  0  0
  1  2  1  0
  2  3  1  0
  3  4  1  0
  4  5  1  0
  5  6  2  3
  6  7  1  0
  7  8  2  0
  8  9  1  0
  9 10  2  0
 10 11  1  0
 11 12  2  0
  6 13  1  0
 13 14  2  0
 14 15  1  0
 15 16  2  0
 16 17  1  0
 17 18  2  0
 12  7  1  0
 18 13  1  0
  1 19  1  0
  1 20  1  0
  1 21  1  0
  2 22  1  0
  3 23  1  0
  3 24  1  0
  4 25  1  0
  4 26  1  0
  5 27  1  0
  8 28  1  0
  9 29  1  0
 10 30  1  0
 11 31  1  0
 12 32  1  0
 14 33  1  0
 15 34  1  0
 16 35  1  0
 17 36  1  0
 18 37  1  0
M  END
>  <UniqueID>  (34) 
34

>  <SMILES>  (34) 
CNCCC=C(c1ccccc1)c1ccccc1

>  <Energy>  (34) 
43.08078020454669

>  <Genealogy>  (34) 
CNCCC=C(c1ccccc1)c1ccccc1 (3D coordinates assigned)
CNCCC=C(c1ccccc1)c1ccccc1 (optimized conformer: 43.08078020454669 kcal/mol)

>  <smiles>  (34) 
CNCCC=C(c1ccccc1)c1ccccc1

>  <score_type>  (34) 
oracle

>  <origin>  (34) 
adg

>  <m_score__min__energy>  (34) 
-8.0399999999999991

>  <m_primary>  (34) 
energy

$$$$
34:0
     RDKit          3D

 45 47  0  0  0  0  0  0  0  0999 V2000
   -1.2310   25.7660  -27.7120 C   0  0  0  0  0  0  0  0  0  0  0  0
   -1.9530   25.6720  -28.9360 O   0  0  0  0  0  0  0  0  0  0  0  0
   -2.5670   24.5010  -29.4050 C   0  0  0  0  0  0  0  0  0  0  0  0
   -3.9660   24.3740  -29.5170 C   0  0  0  0  0  0  0  0  0  0  0  0
   -4.5290   23.1860  -29.9900 C   0  0  0  0  0  0  0  0  0  0  0  0
   -3.7100   22.1040  -30.3460 C   0  0  0  0  0  0  0  0  0  0  0  0
   -4.3170   20.8420  -30.8910 C   0  0  0  0  0  0  0  0  0  0  0  0
   -4.4620   20.9520  -32.3480 N   0  0  0  0  0  0  0  0  0  0  0  0
   -5.4120   22.0170  -32.6880 C   0  0  0  0  0  0  0  0  0  0  0  0
   -6.8160   21.5740  -32.3640 C   0  0  0  0  0  0  0  0  0  0  0  0
   -7.6070   22.3540  -31.5020 C   0  0  0  0  0  0  0  0  0  0  0  0
   -8.9290   21.9920  -31.2320 C   0  0  0  0  0  0  0  0  0  0  0  0
   -9.4820   20.8580  -31.8320 C   0  0  0  0  0  0  0  0  0  0  0  0
   -8.7120   20.0830  -32.7020 C   0  0  0  0  0  0  0  0  0  0  0  0
   -7.3830   20.4300  -32.9710 C   0  0  0  0  0  0  0  0  0  0  0  0
   -6.6450   19.6420  -33.8600 O   0  0  0  0  0  0  0  0  0  0  0  0
   -6.1490   18.3660  -33.5520 C   0  0  0  0  0  0  0  0  0  0  0  0
   -6.2140   17.9280  -32.2230 C   0  0  0  0  0  0  0  0  0  0  0  0
   -5.7360   16.6620  -31.8710 C   0  0  0  0  0  0  0  0  0  0  0  0
   -5.1870   15.8250  -32.8470 C   0  0  0  0  0  0  0  0  0  0  0  0
   -5.1150   16.2540  -34.1750 C   0  0  0  0  0  0  0  0  0  0  0  0
   -5.5920   17.5200  -34.5310 C   0  0  0  0  0  0  0  0  0  0  0  0
   -2.3170   22.2370  -30.2490 C   0  0  0  0  0  0  0  0  0  0  0  0
   -1.7530   23.4250  -29.7760 C   0  0  0  0  0  0  0  0  0  0  0  0
   -1.9290   25.6751  -26.8667 H   0  0  0  0  0  0  0  0  0  0  0  0
   -0.4872   24.9571  -27.6620 H   0  0  0  0  0  0  0  0  0  0  0  0
   -0.7191   26.7384  -27.6620 H   0  0  0  0  0  0  0  0  0  0  0  0
   -4.6171   25.2132  -29.2310 H   0  0  0  0  0  0  0  0  0  0  0  0
   -5.6215   23.0985  -30.0839 H   0  0  0  0  0  0  0  0  0  0  0  0
   -3.6645   19.9894  -30.6518 H   0  0  0  0  0  0  0  0  0  0  0  0
   -5.3070   20.6881  -30.4369 H   0  0  0  0  0  0  0  0  0  0  0  0
   -4.8560   20.0440  -32.6960 H   0  0  0  0  0  0  0  0  0  0  0  0
   -5.1712   22.9198  -32.1075 H   0  0  0  0  0  0  0  0  0  0  0  0
   -5.3404   22.2368  -33.7634 H   0  0  0  0  0  0  0  0  0  0  0  0
   -7.1818   23.2556  -31.0369 H   0  0  0  0  0  0  0  0  0  0  0  0
   -9.5357   22.6010  -30.5457 H   0  0  0  0  0  0  0  0  0  0  0  0
  -10.5236   20.5756  -31.6192 H   0  0  0  0  0  0  0  0  0  0  0  0
   -9.1525   19.1948  -33.1785 H   0  0  0  0  0  0  0  0  0  0  0  0
   -6.6437   18.5840  -31.4516 H   0  0  0  0  0  0  0  0  0  0  0  0
   -5.7920   16.3244  -30.8256 H   0  0  0  0  0  0  0  0  0  0  0  0
   -4.8118   14.8289  -32.5696 H   0  0  0  0  0  0  0  0  0  0  0  0
   -4.6823   15.5948  -34.9420 H   0  0  0  0  0  0  0  0  0  0  0  0
   -5.5320   17.8553  -35.5769 H   0  0  0  0  0  0  0  0  0  0  0  0
   -1.6654   21.4022  -30.5467 H   0  0  0  0  0  0  0  0  0  0  0  0
   -0.6597   23.5150  -29.6946 H   0  0  0  0  0  0  0  0  0  0  0  0
  1  2  1  0
  2  3  1  0
  3  4  2  0
  4  5  1  0
  5  6  2  0
  6  7  1  0
  7  8  1  0
  8  9  1  0
  9 10  1  0
 10 11  2  0
 11 12  1  0
 12 13  2  0
 13 14  1  0
 14 15  2  0
 15 16  1  0
 16 17  1  0
 17 18  2  0
 18 19  1  0
 19 20  2  0
 20 21  1  0
 21 22  2  0
  6 23  1  0
 23 24  2  0
 24  3  1  0
 15 10  1  0
 22 17  1  0
  1 25  1  0
  1 26  1  0
  1 27  1  0
  4 28  1  0
  5 29  1  0
  7 30  1  0
  7 31  1  0
  8 32  1  0
  9 33  1  0
  9 34  1  0
 11 35  1  0
 12 36  1  0
 13 37  1  0
 14 38  1  0
 18 39  1  0
 19 40  1  0
 20 41  1  0
 21 42  1  0
 22 43  1  0
 23 44  1  0
 24 45  1  0
M  END
>  <UniqueID>  (35) 
35

>  <SMILES>  (35) 
COc1ccc(CNCc2ccccc2Oc2ccccc2)cc1

>  <Energy>  (35) 
53.37071531890915

>  <Genealogy>  (35) 
COc1ccc(CNCc2ccccc2Oc2ccccc2)cc1 (3D coordinates assigned)
COc1ccc(CNCc2ccccc2Oc2ccccc2)cc1 (optimized conformer: 53.37071531890915 kcal/mol)

>  <smiles>  (35) 
COc1ccc(CNCc2ccccc2Oc2ccccc2)cc1

>  <score_type>  (35) 
oracle

>  <origin>  (35) 
adg

>  <m_score__min__energy>  (35) 
-8.3399999999999999

>  <m_primary>  (35) 
energy

$$$$
35:0
     RDKit          3D

 71 75  0  0  0  0  0  0  0  0999 V2000
   -6.1190   26.0430  -29.5870 C   0  0  0  0  0  0  0  0  0  0  0  0
   -6.1250   25.4630  -30.8870 O   0  0  0  0  0  0  0  0  0  0  0  0
   -6.1300   24.0820  -31.1440 C   0  0  0  0  0  0  0  0  0  0  0  0
   -7.3160   23.3770  -31.4160 C   0  0  0  0  0  0  0  0  0  0  0  0
   -7.2860   21.9990  -31.6780 C   0  0  0  0  0  0  0  0  0  0  0  0
   -6.0520   21.3160  -31.7320 C   0  0  0  0  0  0  0  0  0  0  0  0
   -4.8780   22.0150  -31.3940 C   0  0  0  0  0  0  0  0  0  0  0  0
   -4.9080   23.3950  -31.1180 C   0  0  0  0  0  0  0  0  0  0  0  0
   -3.7450   24.1210  -30.8140 O   0  0  0  0  0  0  0  0  0  0  0  0
   -2.8420   23.7970  -29.7620 C   0  0  0  0  0  0  0  0  0  0  0  0
   -5.9990   19.8120  -32.0190 C   0  0  2  0  0  0  0  0  0  0  0  0
   -4.9230   19.4910  -33.0810 C   0  0  0  0  0  0  0  0  0  0  0  0
   -4.9890   18.0580  -33.5460 C   0  0  0  0  0  0  0  0  0  0  0  0
   -3.9170   17.5220  -34.2740 C   0  0  0  0  0  0  0  0  0  0  0  0
   -3.9630   16.2060  -34.7360 C   0  0  0  0  0  0  0  0  0  0  0  0
   -5.0860   15.4080  -34.4970 C   0  0  0  0  0  0  0  0  0  0  0  0
   -5.0710   14.0870  -34.9660 O   0  0  0  0  0  0  0  0  0  0  0  0
   -5.8280   13.0150  -34.4020 C   0  0  0  0  0  0  0  0  0  0  0  0
   -4.9740   11.7480  -34.3360 C   0  0  0  0  0  0  0  0  0  0  0  0
   -3.7110   11.9450  -33.4770 C   0  0  0  0  0  0  0  0  0  0  0  0
   -2.3900   11.4710  -34.1440 C   0  0  0  0  0  0  0  0  0  0  0  0
   -1.9110   12.2370  -35.3310 N   0  0  0  0  0  0  0  0  0  0  0  0
   -1.9050   13.7050  -35.1050 C   0  0  0  0  0  0  0  0  0  0  0  0
   -1.8690   14.4810  -36.4290 C   0  0  0  0  0  0  0  0  0  0  0  0
   -3.0440   14.1920  -37.2700 N   0  0  0  0  0  0  0  0  0  0  0  0
   -3.5750   12.8220  -37.1240 C   0  0  0  0  0  0  0  0  0  0  0  0
   -2.5170   11.8240  -36.6250 C   0  0  0  0  0  0  0  0  0  0  0  0
   -6.1780   15.9500  -33.7940 C   0  0  0  0  0  0  0  0  0  0  0  0
   -6.1400   17.2750  -33.3290 C   0  0  0  0  0  0  0  0  0  0  0  0
   -7.2880   17.8120  -32.5100 C   0  0  0  0  0  0  0  0  0  0  0  0
   -7.2980   19.2880  -32.5110 N   0  0  0  0  0  0  0  0  0  0  0  0
   -8.4210   19.7840  -31.6980 C   0  0  0  0  0  0  0  0  0  0  0  0
   -8.5800   21.2790  -31.9380 C   0  0  0  0  0  0  0  0  0  0  0  0
   -6.1273   25.2453  -28.8296 H   0  0  0  0  0  0  0  0  0  0  0  0
   -5.2145   26.6566  -29.4634 H   0  0  0  0  0  0  0  0  0  0  0  0
   -7.0107   26.6752  -29.4634 H   0  0  0  0  0  0  0  0  0  0  0  0
   -8.2773   23.9116  -31.4234 H   0  0  0  0  0  0  0  0  0  0  0  0
   -3.9215   21.4741  -31.3447 H   0  0  0  0  0  0  0  0  0  0  0  0
   -3.3307   23.9724  -28.7923 H   0  0  0  0  0  0  0  0  0  0  0  0
   -2.5521   22.7388  -29.8405 H   0  0  0  0  0  0  0  0  0  0  0  0
   -1.9455   24.4295  -29.8405 H   0  0  0  0  0  0  0  0  0  0  0  0
   -5.7535   19.3275  -31.0625 H   0  0  0  0  0  0  0  0  0  0  0  0
   -5.0729   20.1516  -33.9477 H   0  0  0  0  0  0  0  0  0  0  0  0
   -3.9369   19.6508  -32.6206 H   0  0  0  0  0  0  0  0  0  0  0  0
   -3.0335   18.1433  -34.4824 H   0  0  0  0  0  0  0  0  0  0  0  0
   -3.1088   15.7931  -35.2927 H   0  0  0  0  0  0  0  0  0  0  0  0
   -6.1491   13.2909  -33.3867 H   0  0  0  0  0  0  0  0  0  0  0  0
   -6.7082   12.8240  -35.0334 H   0  0  0  0  0  0  0  0  0  0  0  0
   -5.5760   10.9367  -33.9008 H   0  0  0  0  0  0  0  0  0  0  0  0
   -4.6530   11.5021  -35.3590 H   0  0  0  0  0  0  0  0  0  0  0  0
   -3.6147   13.0171  -33.2506 H   0  0  0  0  0  0  0  0  0  0  0  0
   -3.8460   11.3229  -32.5799 H   0  0  0  0  0  0  0  0  0  0  0  0
   -1.5994   11.5159  -33.3805 H   0  0  0  0  0  0  0  0  0  0  0  0
   -2.6122   10.4643  -34.5278 H   0  0  0  0  0  0  0  0  0  0  0  0
   -0.8970   11.9740  -35.4130 H   0  0  0  0  0  0  0  0  0  0  0  0
   -2.8139   13.9847  -34.5520 H   0  0  0  0  0  0  0  0  0  0  0  0
   -1.0017   13.9609  -34.5318 H   0  0  0  0  0  0  0  0  0  0  0  0
   -1.8462   15.5585  -36.2087 H   0  0  0  0  0  0  0  0  0  0  0  0
   -0.9705   14.1690  -36.9816 H   0  0  0  0  0  0  0  0  0  0  0  0
   -3.8070   14.8610  -37.0050 H   0  0  0  0  0  0  0  0  0  0  0  0
   -4.4066   12.8420  -36.4043 H   0  0  0  0  0  0  0  0  0  0  0  0
   -3.9046   12.4864  -38.1183 H   0  0  0  0  0  0  0  0  0  0  0  0
   -2.9931   10.8411  -36.4940 H   0  0  0  0  0  0  0  0  0  0  0  0
   -1.7126   11.7866  -37.3743 H   0  0  0  0  0  0  0  0  0  0  0  0
   -7.0682   15.3313  -33.6072 H   0  0  0  0  0  0  0  0  0  0  0  0
   -8.2343   17.4462  -32.9350 H   0  0  0  0  0  0  0  0  0  0  0  0
   -7.1695   17.4645  -31.4731 H   0  0  0  0  0  0  0  0  0  0  0  0
   -9.3454   19.2630  -31.9879 H   0  0  0  0  0  0  0  0  0  0  0  0
   -8.2217   19.5964  -30.6326 H   0  0  0  0  0  0  0  0  0  0  0  0
   -8.8834   21.4470  -32.9819 H   0  0  0  0  0  0  0  0  0  0  0  0
   -9.3458   21.6682  -31.2509 H   0  0  0  0  0  0  0  0  0  0  0  0
  1  2  1  0
  2  3  1  0
  3  4  2  0
  4  5  1  0
  5  6  2  0
  6  7  1  0
  7  8  2  0
  8  9  1  0
  9 10  1  0
  6 11  1  0
 11 12  1  0
 12 13  1  0
 13 14  2  0
 14 15  1  0
 15 16  2  0
 16 17  1  0
 17 18  1  0
 18 19  1  0
 19 20  1  0
 20 21  1  0
 21 22  1  0
 22 23  1  0
 23 24  1  0
 24 25  1  0
 25 26  1  0
 26 27  1  0
 16 28  1  0
 28 29  2  0
 29 30  1  0
 30 31  1  0
 31 32  1  0
 32 33  1  0
  8  3  1  0
 31 11  1  0
 33  5  1  0
 29 13  1  0
 27 22  1  0
  1 34  1  0
  1 35  1  0
  1 36  1  0
  4 37  1  0
  7 38  1  0
 10 39  1  0
 10 40  1  0
 10 41  1  0
 11 42  1  1
 12 43  1  0
 12 44  1  0
 14 45  1  0
 15 46  1  0
 18 47  1  0
 18 48  1  0
 19 49  1  0
 19 50  1  0
 20 51  1  0
 20 52  1  0
 21 53  1  0
 21 54  1  0
 22 55  1  0
 23 56  1  0
 23 57  1  0
 24 58  1  0
 24 59  1  0
 25 60  1  0
 26 61  1  0
 26 62  1  0
 27 63  1  0
 27 64  1  0
 28 65  1  0
 30 66  1  0
 30 67  1  0
 32 68  1  0
 32 69  1  0
 33 70  1  0
 33 71  1  0
M  CHG  1  22   1
M  END
>  <UniqueID>  (36) 
36

>  <SMILES>  (36) 
COc1cc2c(cc1OC)[C@@H]1Cc3ccc(OCCCC[NH+]4CCNCC4)cc3CN1CC2

>  <Energy>  (36) 
94.98281403349132

>  <Genealogy>  (36) 
COc1cc2c(cc1OC)C1Cc3ccc(OCCCC[NH+]4CCNCC4)cc3CN1CC2 (protonated)
COc1cc2c(cc1OC)[C@@H]1Cc3ccc(OCCCC[NH+]4CCNCC4)cc3CN1CC2 (chirality)
COc1cc2c(cc1OC)[C@@H]1Cc3ccc(OCCCC[NH+]4CCNCC4)cc3CN1CC2 (3D coordinates assigned)
COc1cc2c(cc1OC)[C@@H]1Cc3ccc(OCCCC[NH+]4CCNCC4)cc3CN1CC2 (nonaromatic ring conformer: 94.98281403349132 kcal/mol)

>  <smiles>  (36) 
COc1cc2c(cc1OC)C1Cc3ccc(OCCCCN4CCNCC4)cc3CN1CC2

>  <score_type>  (36) 
oracle

>  <origin>  (36) 
adg

>  <m_score__min__energy>  (36) 
-9.3800000000000008

>  <m_primary>  (36) 
energy

$$$$
36:0
     RDKit          3D

 49 51  0  0  0  0  0  0  0  0999 V2000
   -3.5850   18.6580  -33.8400 C   0  0  0  0  0  0  0  0  0  0  0  0
   -4.8950   18.1110  -33.9080 O   0  0  0  0  0  0  0  0  0  0  0  0
   -6.0320   18.6970  -33.3260 C   0  0  0  0  0  0  0  0  0  0  0  0
   -7.1880   17.9580  -33.0330 C   0  0  0  0  0  0  0  0  0  0  0  0
   -8.2980   18.5840  -32.4650 C   0  0  0  0  0  0  0  0  0  0  0  0
   -8.2700   19.9570  -32.1710 C   0  0  0  0  0  0  0  0  0  0  0  0
   -9.3990   20.5710  -31.6140 C   0  0  0  0  0  0  0  0  0  0  0  0
   -9.3900   21.9340  -31.3330 C   0  0  0  0  0  0  0  0  0  0  0  0
   -8.2550   22.7000  -31.5900 C   0  0  0  0  0  0  0  0  0  0  0  0
   -7.0850   22.1150  -32.1260 C   0  0  0  0  0  0  0  0  0  0  0  0
   -5.8390   22.9520  -32.4100 C   0  0  0  0  0  0  0  0  0  0  0  0
   -4.8090   23.0550  -31.2580 C   0  0  0  0  0  0  0  0  0  0  0  0
   -4.5090   24.4510  -30.8350 N   0  0  0  0  0  0  0  0  0  0  0  0
   -5.7430   25.2630  -30.7790 C   0  0  0  0  0  0  0  0  0  0  0  0
   -3.6850   24.5510  -29.5900 C   0  0  0  0  0  0  0  0  0  0  0  0
   -4.5640   24.3010  -28.3250 C   0  0  0  0  0  0  0  0  0  0  0  0
   -3.7880   23.7830  -27.0970 C   0  0  0  0  0  0  0  0  0  0  0  0
   -2.3370   24.2590  -27.1200 C   0  0  0  0  0  0  0  0  0  0  0  0
   -1.5970   23.6970  -28.3470 C   0  0  0  0  0  0  0  0  0  0  0  0
   -2.4990   23.5500  -29.5940 C   0  0  0  0  0  0  0  0  0  0  0  0
   -7.1040   20.7230  -32.4430 C   0  0  0  0  0  0  0  0  0  0  0  0
   -5.9970   20.0680  -33.0320 C   0  0  0  0  0  0  0  0  0  0  0  0
   -3.2928   18.7800  -32.7866 H   0  0  0  0  0  0  0  0  0  0  0  0
   -2.8781   17.9799  -34.3404 H   0  0  0  0  0  0  0  0  0  0  0  0
   -3.5702   19.6375  -34.3404 H   0  0  0  0  0  0  0  0  0  0  0  0
   -7.2194   16.8805  -33.2520 H   0  0  0  0  0  0  0  0  0  0  0  0
   -9.2023   17.9974  -32.2457 H   0  0  0  0  0  0  0  0  0  0  0  0
  -10.2967   19.9732  -31.3977 H   0  0  0  0  0  0  0  0  0  0  0  0
  -10.2849   22.4096  -30.9052 H   0  0  0  0  0  0  0  0  0  0  0  0
   -8.2695   23.7781  -31.3722 H   0  0  0  0  0  0  0  0  0  0  0  0
   -5.3285   22.5104  -33.2785 H   0  0  0  0  0  0  0  0  0  0  0  0
   -6.2031   23.9772  -32.5728 H   0  0  0  0  0  0  0  0  0  0  0  0
   -5.2057   22.5084  -30.3897 H   0  0  0  0  0  0  0  0  0  0  0  0
   -3.8677   22.6279  -31.6343 H   0  0  0  0  0  0  0  0  0  0  0  0
   -6.0163   25.4428  -29.7288 H   0  0  0  0  0  0  0  0  0  0  0  0
   -5.5718   26.2255  -31.2833 H   0  0  0  0  0  0  0  0  0  0  0  0
   -6.5592   24.7249  -31.2833 H   0  0  0  0  0  0  0  0  0  0  0  0
   -3.2757   25.5716  -29.5619 H   0  0  0  0  0  0  0  0  0  0  0  0
   -5.0477   25.2499  -28.0501 H   0  0  0  0  0  0  0  0  0  0  0  0
   -5.2827   23.5132  -28.5951 H   0  0  0  0  0  0  0  0  0  0  0  0
   -4.2733   24.1551  -26.1827 H   0  0  0  0  0  0  0  0  0  0  0  0
   -3.7944   22.6832  -27.1192 H   0  0  0  0  0  0  0  0  0  0  0  0
   -2.3186   25.3581  -27.1599 H   0  0  0  0  0  0  0  0  0  0  0  0
   -1.8338   23.9005  -26.2099 H   0  0  0  0  0  0  0  0  0  0  0  0
   -0.7674   24.3755  -28.5948 H   0  0  0  0  0  0  0  0  0  0  0  0
   -1.2448   22.6896  -28.0804 H   0  0  0  0  0  0  0  0  0  0  0  0
   -1.8903   23.7277  -30.4928 H   0  0  0  0  0  0  0  0  0  0  0  0
   -2.9192   22.5334  -29.5850 H   0  0  0  0  0  0  0  0  0  0  0  0
   -5.0902   20.6458  -33.2642 H   0  0  0  0  0  0  0  0  0  0  0  0
  1  2  1  0
  2  3  1  0
  3  4  2  0
  4  5  1  0
  5  6  2  0
  6  7  1  0
  7  8  2  0
  8  9  1  0
  9 10  2  0
 10 11  1  0
 11 12  1  0
 12 13  1  0
 13 14  1  0
 13 15  1  0
 15 16  1  0
 16 17  1  0
 17 18  1  0
 18 19  1  0
 19 20  1  0
 10 21  1  0
 21 22  2  0
 22  3  1  0
 21  6  1  0
 20 15  1  0
  1 23  1  0
  1 24  1  0
  1 25  1  0
  4 26  1  0
  5 27  1  0
  7 28  1  0
  8 29  1  0
  9 30  1  0
 11 31  1  0
 11 32  1  0
 12 33  1  0
 12 34  1  0
 14 35  1  0
 14 36  1  0
 14 37  1  0
 15 38  1  0
 16 39  1  0
 16 40  1  0
 17 41  1  0
 17 42  1  0
 18 43  1  0
 18 44  1  0
 19 45  1  0
 19 46  1  0
 20 47  1  0
 20 48  1  0
 22 49  1  0
M  END
>  <UniqueID>  (37) 
37

>  <SMILES>  (37) 
COc1ccc2cccc(CCN(C)C3CCCCC3)c2c1

>  <Energy>  (37) 
68.32704075364816

>  <Genealogy>  (37) 
COc1ccc2cccc(CCN(C)C3CCCCC3)c2c1 (3D coordinates assigned)
COc1ccc2cccc(CCN(C)C3CCCCC3)c2c1 (nonaromatic ring conformer: 68.32704075364816 kcal/mol)

>  <smiles>  (37) 
COc1ccc2cccc(CCN(C)C3CCCCC3)c2c1

>  <score_type>  (37) 
oracle

>  <origin>  (37) 
adg

>  <m_score__min__energy>  (37) 
-8.9399999999999995

>  <m_primary>  (37) 
energy

$$$$
37:0
     RDKit          3D

 39 41  0  0  0  0  0  0  0  0999 V2000
    0.1650   20.7980  -33.5920 C   0  0  0  0  0  0  0  0  0  0  0  0
   -0.5130   20.9810  -32.3540 O   0  0  0  0  0  0  0  0  0  0  0  0
   -1.9000   21.1530  -32.2290 C   0  0  0  0  0  0  0  0  0  0  0  0
   -2.6240   21.5530  -33.3580 C   0  0  0  0  0  0  0  0  0  0  0  0
   -4.0070   21.7370  -33.2850 C   0  0  0  0  0  0  0  0  0  0  0  0
   -4.6860   21.5190  -32.0780 C   0  0  0  0  0  0  0  0  0  0  0  0
   -6.1070   21.7110  -32.0040 N   0  0  0  0  0  0  0  0  0  0  0  0
   -6.7420   22.8240  -31.5670 C   0  0  0  0  0  0  0  0  0  0  0  0
   -6.0720   24.0830  -31.0780 C   0  0  0  0  0  0  0  0  0  0  0  0
   -5.0430   23.7930  -29.9810 C   0  0  0  0  0  0  0  0  0  0  0  0
   -3.8920   24.7500  -30.0330 C   0  0  0  0  0  0  0  0  0  0  0  0
   -3.8770   25.6760  -30.8870 O   0  0  0  0  0  0  0  0  0  0  0  0
   -2.8540   24.6410  -29.1160 O   0  0  0  0  0  0  0  0  0  0  0  0
   -8.1050   22.6000  -31.5030 C   0  0  0  0  0  0  0  0  0  0  0  0
   -8.3110   21.3020  -31.9210 C   0  0  0  0  0  0  0  0  0  0  0  0
   -7.0690   20.7810  -32.2270 C   0  0  0  0  0  0  0  0  0  0  0  0
   -6.8610   19.4090  -32.7330 C   0  0  0  0  0  0  0  0  0  0  0  0
   -7.3650   18.2340  -32.2040 C   0  0  0  0  0  0  0  0  0  0  0  0
   -6.8780   17.2230  -33.0040 C   0  0  0  0  0  0  0  0  0  0  0  0
   -6.1040   17.8360  -33.9660 C   0  0  0  0  0  0  0  0  0  0  0  0
   -6.1110   19.1350  -33.7770 O   0  0  0  0  0  0  0  0  0  0  0  0
   -3.9650   21.1250  -30.9430 C   0  0  0  0  0  0  0  0  0  0  0  0
   -2.5820   20.9400  -31.0150 C   0  0  0  0  0  0  0  0  0  0  0  0
    1.2106   20.5158  -33.3992 H   0  0  0  0  0  0  0  0  0  0  0  0
   -0.3298   20.0013  -34.1668 H   0  0  0  0  0  0  0  0  0  0  0  0
    0.1383   21.7355  -34.1668 H   0  0  0  0  0  0  0  0  0  0  0  0
   -2.1001   21.7238  -34.3101 H   0  0  0  0  0  0  0  0  0  0  0  0
   -4.5653   22.0542  -34.1781 H   0  0  0  0  0  0  0  0  0  0  0  0
   -5.5627   24.5667  -31.9245 H   0  0  0  0  0  0  0  0  0  0  0  0
   -6.8466   24.7390  -30.6542 H   0  0  0  0  0  0  0  0  0  0  0  0
   -5.5338   23.8789  -29.0003 H   0  0  0  0  0  0  0  0  0  0  0  0
   -4.6513   22.7772  -30.1386 H   0  0  0  0  0  0  0  0  0  0  0  0
   -8.8747   23.3171  -31.1815 H   0  0  0  0  0  0  0  0  0  0  0  0
   -9.2775   20.7822  -31.9962 H   0  0  0  0  0  0  0  0  0  0  0  0
   -8.0193   18.1286  -31.3261 H   0  0  0  0  0  0  0  0  0  0  0  0
   -7.0684   16.1449  -32.8966 H   0  0  0  0  0  0  0  0  0  0  0  0
   -5.5627   17.3157  -34.7699 H   0  0  0  0  0  0  0  0  0  0  0  0
   -4.4904   20.9605  -29.9907 H   0  0  0  0  0  0  0  0  0  0  0  0
   -2.0237   20.6269  -30.1204 H   0  0  0  0  0  0  0  0  0  0  0  0
  1  2  1  0
  2  3  1  0
  3  4  2  0
  4  5  1  0
  5  6  2  0
  6  7  1  0
  7  8  1  0
  8  9  1  0
  9 10  1  0
 10 11  1  0
 11 12  2  0
 11 13  1  0
  8 14  2  0
 14 15  1  0
 15 16  2  0
 16 17  1  0
 17 18  2  0
 18 19  1  0
 19 20  2  0
 20 21  1  0
  6 22  1  0
 22 23  2  0
 23  3  1  0
 16  7  1  0
 21 17  1  0
  1 24  1  0
  1 25  1  0
  1 26  1  0
  4 27  1  0
  5 28  1  0
  9 29  1  0
  9 30  1  0
 10 31  1  0
 10 32  1  0
 14 33  1  0
 15 34  1  0
 18 35  1  0
 19 36  1  0
 20 37  1  0
 22 38  1  0
 23 39  1  0
M  CHG  1  13  -1
M  END
>  <UniqueID>  (38) 
38

>  <SMILES>  (38) 
COc1ccc(-n2c(CCC(=O)[O-])ccc2-c2ccco2)cc1

>  <Energy>  (38) 
95.91382935645659

>  <Genealogy>  (38) 
COc1ccc(-n2c(CCC(=O)[O-])ccc2-c2ccco2)cc1 (protonated)
COc1ccc(-n2c(CCC(=O)[O-])ccc2-c2ccco2)cc1 (3D coordinates assigned)
COc1ccc(-n2c(CCC(=O)[O-])ccc2-c2ccco2)cc1 (optimized conformer: 95.91382935645659 kcal/mol)

>  <smiles>  (38) 
COc1ccc(-n2c(CCC(=O)O)ccc2-c2ccco2)cc1

>  <score_type>  (38) 
oracle

>  <origin>  (38) 
adg

>  <m_score__min__energy>  (38) 
-9.6500000000000004

>  <m_primary>  (38) 
energy

$$$$
38:0
     RDKit          3D

 41 44  0  0  0  0  0  0  0  0999 V2000
   -2.1540   24.0680  -29.3330 C   0  0  0  0  0  0  0  0  0  0  0  0
   -3.3300   24.2710  -29.1650 C   0  0  0  0  0  0  0  0  0  0  0  0
   -4.7620   24.5140  -28.9620 C   0  0  0  0  0  0  0  0  0  0  0  0
   -5.5160   25.1910  -30.4790 S   0  0  0  0  0  0  0  0  0  0  0  0
   -5.5320   23.6230  -31.3510 C   0  0  0  0  0  0  0  0  0  0  0  0
   -4.3640   23.0320  -31.7450 N   0  0  0  0  0  0  0  0  0  0  0  0
   -4.3470   21.8180  -32.3940 C   0  0  0  0  0  0  0  0  0  0  0  0
   -3.0590   21.1990  -32.7900 C   0  0  0  0  0  0  0  0  0  0  0  0
   -3.0360   20.1020  -33.6700 C   0  0  0  0  0  0  0  0  0  0  0  0
   -1.8140   19.5330  -34.0340 C   0  0  0  0  0  0  0  0  0  0  0  0
   -0.6260   20.0550  -33.5250 C   0  0  0  0  0  0  0  0  0  0  0  0
   -0.6790   21.1440  -32.6530 C   0  0  0  0  0  0  0  0  0  0  0  0
   -1.8770   21.6890  -32.3070 N   0  0  0  0  0  0  0  0  0  0  0  0
   -5.5270   21.1730  -32.6630 N   0  0  0  0  0  0  0  0  0  0  0  0
   -6.6770   21.7740  -32.2820 C   0  0  0  0  0  0  0  0  0  0  0  0
   -6.7110   22.9570  -31.6440 C   0  0  0  0  0  0  0  0  0  0  0  0
   -7.9910   23.2620  -31.3570 N   0  0  0  0  0  0  0  0  0  0  0  0
   -8.7130   22.2440  -31.8290 N   0  0  0  0  0  0  0  0  0  0  0  0
   -7.9320   21.3310  -32.4040 N   0  0  0  0  0  0  0  0  0  0  0  0
   -8.3880   20.0520  -32.9390 C   0  0  0  0  0  0  0  0  0  0  0  0
   -7.3110   19.0180  -32.7740 C   0  0  0  0  0  0  0  0  0  0  0  0
   -7.1700   18.3240  -31.5600 C   0  0  0  0  0  0  0  0  0  0  0  0
   -6.1970   17.3290  -31.4260 C   0  0  0  0  0  0  0  0  0  0  0  0
   -5.3650   17.0140  -32.5040 C   0  0  0  0  0  0  0  0  0  0  0  0
   -5.5070   17.6910  -33.7180 C   0  0  0  0  0  0  0  0  0  0  0  0
   -6.4790   18.6860  -33.8560 C   0  0  0  0  0  0  0  0  0  0  0  0
   -1.0806   23.8827  -29.4863 H   0  0  0  0  0  0  0  0  0  0  0  0
   -5.2570   23.5663  -28.7035 H   0  0  0  0  0  0  0  0  0  0  0  0
   -4.8875   25.2418  -28.1468 H   0  0  0  0  0  0  0  0  0  0  0  0
   -3.9763   19.6943  -34.0696 H   0  0  0  0  0  0  0  0  0  0  0  0
   -1.7889   18.6744  -34.7212 H   0  0  0  0  0  0  0  0  0  0  0  0
    0.3416   19.6142  -33.8070 H   0  0  0  0  0  0  0  0  0  0  0  0
    0.2519   21.5634  -32.2437 H   0  0  0  0  0  0  0  0  0  0  0  0
   -1.8690   22.5050  -31.6520 H   0  0  0  0  0  0  0  0  0  0  0  0
   -9.2894   19.7300  -32.3970 H   0  0  0  0  0  0  0  0  0  0  0  0
   -8.6196   20.1675  -34.0081 H   0  0  0  0  0  0  0  0  0  0  0  0
   -7.8278   18.5646  -30.7119 H   0  0  0  0  0  0  0  0  0  0  0  0
   -6.0862   16.7937  -30.4715 H   0  0  0  0  0  0  0  0  0  0  0  0
   -4.5981   16.2328  -32.3966 H   0  0  0  0  0  0  0  0  0  0  0  0
   -4.8530   17.4406  -34.5663 H   0  0  0  0  0  0  0  0  0  0  0  0
   -6.5928   19.2112  -34.8158 H   0  0  0  0  0  0  0  0  0  0  0  0
  1  2  3  0
  2  3  1  0
  3  4  1  0
  4  5  1  0
  5  6  2  0
  6  7  1  0
  7  8  1  0
  8  9  2  0
  9 10  1  0
 10 11  2  0
 11 12  1  0
 12 13  2  0
  7 14  2  0
 14 15  1  0
 15 16  2  0
 16 17  1  0
 17 18  2  0
 18 19  1  0
 19 20  1  0
 20 21  1  0
 21 22  2  0
 22 23  1  0
 23 24  2  0
 24 25  1  0
 25 26  2  0
 16  5  1  0
 26 21  1  0
 13  8  1  0
 19 15  1  0
  1 27  1  0
  3 28  1  0
  3 29  1  0
  9 30  1  0
 10 31  1  0
 11 32  1  0
 12 33  1  0
 13 34  1  0
 20 35  1  0
 20 36  1  0
 22 37  1  0
 23 38  1  0
 24 39  1  0
 25 40  1  0
 26 41  1  0
M  CHG  1  13   1
M  END
>  <UniqueID>  (39) 
39

>  <SMILES>  (39) 
C#CCSc1nc(-c2cccc[nH+]2)nc2c1nnn2Cc1ccccc1

>  <Energy>  (39) 
86.57541716006047

>  <Genealogy>  (39) 
C#CCSc1nc(-c2cccc[nH+]2)nc2c1nnn2Cc1ccccc1 (protonated)
C#CCSc1nc(-c2cccc[nH+]2)nc2c1nnn2Cc1ccccc1 (3D coordinates assigned)
C#CCSc1nc(-c2cccc[nH+]2)nc2c1nnn2Cc1ccccc1 (optimized conformer: 86.57541716006047 kcal/mol)

>  <smiles>  (39) 
C#CCSc1nc(-c2ccccn2)nc2c1nnn2Cc1ccccc1

>  <score_type>  (39) 
oracle

>  <origin>  (39) 
adg

>  <m_score__min__energy>  (39) 
-8.4100000000000001

>  <m_primary>  (39) 
energy

$$$$
39:0
     RDKit          3D

 58 61  0  0  0  0  0  0  0  0999 V2000
   -0.7250   16.9360  -34.5200 C   0  0  0  0  0  0  0  0  0  0  0  0
   -1.9840   17.4230  -34.9670 O   0  0  0  0  0  0  0  0  0  0  0  0
   -3.2140   17.1330  -34.3530 C   0  0  0  0  0  0  0  0  0  0  0  0
   -3.9610   15.9870  -34.6940 C   0  0  0  0  0  0  0  0  0  0  0  0
   -5.1960   15.7400  -34.0850 C   0  0  0  0  0  0  0  0  0  0  0  0
   -5.7020   16.6330  -33.1410 C   0  0  0  0  0  0  0  0  0  0  0  0
   -4.9700   17.7680  -32.7900 C   0  0  0  0  0  0  0  0  0  0  0  0
   -3.7210   18.0230  -33.3830 C   0  0  0  0  0  0  0  0  0  0  0  0
   -2.9640   19.1800  -32.9830 N   0  0  0  0  0  0  0  0  0  0  0  0
   -3.3270   20.5090  -33.4840 C   0  0  0  0  0  0  0  0  0  0  0  0
   -2.2670   21.5450  -33.0900 C   0  0  0  0  0  0  0  0  0  0  0  0
   -1.9790   21.5380  -31.6340 N   0  0  0  0  0  0  0  0  0  0  0  0
   -2.9030   22.4300  -30.8960 C   0  0  0  0  0  0  0  0  0  0  0  0
   -2.2110   23.0880  -29.6790 C   0  0  1  0  0  0  0  0  0  0  0  0
   -0.8240   23.2160  -29.8760 O   0  0  0  0  0  0  0  0  0  0  0  0
   -2.8450   24.4450  -29.3240 C   0  0  0  0  0  0  0  0  0  0  0  0
   -3.4880   25.0590  -30.4810 N   0  0  0  0  0  0  0  0  0  0  0  0
   -4.9070   25.2330  -30.6070 C   0  0  0  0  0  0  0  0  0  0  0  0
   -5.4020   26.3910  -30.6280 O   0  0  0  0  0  0  0  0  0  0  0  0
   -5.7940   24.0600  -30.7110 C   0  0  0  0  0  0  0  0  0  0  0  0
   -6.7800   23.8040  -29.7460 C   0  0  0  0  0  0  0  0  0  0  0  0
   -7.6030   22.6840  -29.8780 C   0  0  0  0  0  0  0  0  0  0  0  0
   -7.4430   21.8260  -30.9720 C   0  0  0  0  0  0  0  0  0  0  0  0
   -8.2600   20.6990  -31.1420 C   0  0  0  0  0  0  0  0  0  0  0  0
   -8.0810   19.8660  -32.2490 C   0  0  0  0  0  0  0  0  0  0  0  0
   -7.0810   20.1490  -33.1860 C   0  0  0  0  0  0  0  0  0  0  0  0
   -6.2610   21.2700  -33.0230 C   0  0  0  0  0  0  0  0  0  0  0  0
   -6.4370   22.1110  -31.9210 C   0  0  0  0  0  0  0  0  0  0  0  0
   -5.6490   23.2070  -31.7630 N   0  0  0  0  0  0  0  0  0  0  0  0
   -1.9120   20.1780  -31.0260 C   0  0  0  0  0  0  0  0  0  0  0  0
   -1.8360   19.0500  -32.0570 C   0  0  0  0  0  0  0  0  0  0  0  0
   -0.7044   16.9280  -33.4202 H   0  0  0  0  0  0  0  0  0  0  0  0
   -0.5724   15.9140  -34.8970 H   0  0  0  0  0  0  0  0  0  0  0  0
    0.0757   17.5893  -34.8970 H   0  0  0  0  0  0  0  0  0  0  0  0
   -3.5704   15.2828  -35.4434 H   0  0  0  0  0  0  0  0  0  0  0  0
   -5.7691   14.8396  -34.3513 H   0  0  0  0  0  0  0  0  0  0  0  0
   -6.6789   16.4426  -32.6727 H   0  0  0  0  0  0  0  0  0  0  0  0
   -5.3732   18.4684  -32.0438 H   0  0  0  0  0  0  0  0  0  0  0  0
   -3.4060   20.4723  -34.5805 H   0  0  0  0  0  0  0  0  0  0  0  0
   -4.2903   20.8028  -33.0415 H   0  0  0  0  0  0  0  0  0  0  0  0
   -1.3374   21.3231  -33.6346 H   0  0  0  0  0  0  0  0  0  0  0  0
   -2.6595   22.5396  -33.3483 H   0  0  0  0  0  0  0  0  0  0  0  0
   -3.2556   23.2196  -31.5759 H   0  0  0  0  0  0  0  0  0  0  0  0
   -3.7437   21.8241  -30.5269 H   0  0  0  0  0  0  0  0  0  0  0  0
   -2.3669   22.4151  -28.8229 H   0  0  0  0  0  0  0  0  0  0  0  0
   -0.5910   22.7390  -30.7150 H   0  0  0  0  0  0  0  0  0  0  0  0
   -3.5982   24.2917  -28.5371 H   0  0  0  0  0  0  0  0  0  0  0  0
   -2.0457   25.1173  -28.9788 H   0  0  0  0  0  0  0  0  0  0  0  0
   -6.9040   24.4828  -28.8893 H   0  0  0  0  0  0  0  0  0  0  0  0
   -8.3759   22.4763  -29.1234 H   0  0  0  0  0  0  0  0  0  0  0  0
   -9.0423   20.4708  -30.4032 H   0  0  0  0  0  0  0  0  0  0  0  0
   -8.7272   18.9862  -32.3843 H   0  0  0  0  0  0  0  0  0  0  0  0
   -6.9395   19.4876  -34.0535 H   0  0  0  0  0  0  0  0  0  0  0  0
   -5.4770   21.4899  -33.7626 H   0  0  0  0  0  0  0  0  0  0  0  0
   -1.0180   20.1262  -30.3871 H   0  0  0  0  0  0  0  0  0  0  0  0
   -2.8418   20.0328  -30.4564 H   0  0  0  0  0  0  0  0  0  0  0  0
   -0.8902   19.1214  -32.6141 H   0  0  0  0  0  0  0  0  0  0  0  0
   -1.8801   18.0755  -31.5487 H   0  0  0  0  0  0  0  0  0  0  0  0
  1  2  1  0
  2  3  1  0
  3  4  2  0
  4  5  1  0
  5  6  2  0
  6  7  1  0
  7  8  2  0
  8  9  1  0
  9 10  1  0
 10 11  1  0
 11 12  1  0
 12 13  1  0
 13 14  1  0
 14 15  1  0
 14 16  1  0
 16 17  1  0
 17 18  1  0
 18 19  2  0
 18 20  1  0
 20 21  2  0
 21 22  1  0
 22 23  2  0
 23 24  1  0
 24 25  2  0
 25 26  1  0
 26 27  2  0
 27 28  1  0
 28 29  2  0
 12 30  1  0
 30 31  1  0
  8  3  1  0
 31  9  1  0
 29 20  1  0
 28 23  1  0
  1 32  1  0
  1 33  1  0
  1 34  1  0
  4 35  1  0
  5 36  1  0
  6 37  1  0
  7 38  1  0
 10 39  1  0
 10 40  1  0
 11 41  1  0
 11 42  1  0
 13 43  1  0
 13 44  1  0
 14 45  1  1
 15 46  1  0
 16 47  1  0
 16 48  1  0
 21 49  1  0
 22 50  1  0
 24 51  1  0
 25 52  1  0
 26 53  1  0
 27 54  1  0
 30 55  1  0
 30 56  1  0
 31 57  1  0
 31 58  1  0
M  CHG  1  17  -1
M  END
>  <UniqueID>  (40) 
40

>  <SMILES>  (40) 
COc1ccccc1N1CCN(C[C@@H](O)C[N-]C(=O)c2ccc3ccccc3n2)CC1

>  <Energy>  (40) 
74.4441880209666

>  <Genealogy>  (40) 
COc1ccccc1N1CCN(CC(O)C[N-]C(=O)c2ccc3ccccc3n2)CC1 (protonated)
COc1ccccc1N1CCN(C[C@@H](O)C[N-]C(=O)c2ccc3ccccc3n2)CC1 (chirality)
COc1ccccc1N1CCN(C[C@@H](O)C[N-]C(=O)c2ccc3ccccc3n2)CC1 (3D coordinates assigned)
COc1ccccc1N1CCN(C[C@@H](O)C[N-]C(=O)c2ccc3ccccc3n2)CC1 (nonaromatic ring conformer: 74.4441880209666 kcal/mol)

>  <smiles>  (40) 
COc1ccccc1N1CCN(CC(O)CNC(=O)c2ccc3ccccc3n2)CC1

>  <score_type>  (40) 
oracle

>  <origin>  (40) 
adg

>  <m_score__min__energy>  (40) 
-11.119999999999999

>  <m_primary>  (40) 
energy

$$$$
40:0
     RDKit          3D

 48 50  0  0  0  0  0  0  0  0999 V2000
   -0.5870   20.5170  -30.6110 C   0  0  0  0  0  0  0  0  0  0  0  0
   -0.9030   21.5580  -31.6820 C   0  0  0  0  0  0  0  0  0  0  0  0
   -0.6360   21.0070  -33.0890 C   0  0  0  0  0  0  0  0  0  0  0  0
   -1.8940   20.8790  -33.8460 N   0  0  0  0  0  0  0  0  0  0  0  0
   -3.0540   20.6550  -32.9640 C   0  0  0  0  0  0  0  0  0  0  0  0
   -4.2450   21.5580  -33.3250 C   0  0  0  0  0  0  0  0  0  0  0  0
   -5.5100   21.0290  -32.7010 C   0  0  0  0  0  0  0  0  0  0  0  0
   -6.2350   21.5890  -31.6400 C   0  0  0  0  0  0  0  0  0  0  0  0
   -5.9930   22.8980  -31.0040 C   0  0  0  0  0  0  0  0  0  0  0  0
   -7.0770   23.7320  -30.6940 C   0  0  0  0  0  0  0  0  0  0  0  0
   -6.8600   24.9770  -30.1010 C   0  0  0  0  0  0  0  0  0  0  0  0
   -5.5590   25.4050  -29.8260 C   0  0  0  0  0  0  0  0  0  0  0  0
   -4.4630   24.5970  -30.1480 C   0  0  0  0  0  0  0  0  0  0  0  0
   -3.1760   25.0750  -29.8610 O   0  0  0  0  0  0  0  0  0  0  0  0
   -2.2970   24.4920  -28.9030 C   0  0  0  0  0  0  0  0  0  0  0  0
   -4.6860   23.3420  -30.7490 C   0  0  0  0  0  0  0  0  0  0  0  0
   -7.1890   20.7310  -31.2110 N   0  0  0  0  0  0  0  0  0  0  0  0
   -7.0790   19.6360  -31.9800 C   0  0  0  0  0  0  0  0  0  0  0  0
   -7.8320   18.4670  -31.8860 C   0  0  0  0  0  0  0  0  0  0  0  0
   -7.5230   17.4100  -32.7600 C   0  0  0  0  0  0  0  0  0  0  0  0
   -6.4720   17.5390  -33.6920 C   0  0  0  0  0  0  0  0  0  0  0  0
   -6.1790   16.5070  -34.5210 F   0  0  0  0  0  0  0  0  0  0  0  0
   -5.7230   18.7280  -33.7620 C   0  0  0  0  0  0  0  0  0  0  0  0
   -4.7030   18.8440  -34.6490 F   0  0  0  0  0  0  0  0  0  0  0  0
   -6.0620   19.7710  -32.8920 C   0  0  0  0  0  0  0  0  0  0  0  0
   -0.7224   20.9632  -29.6147 H   0  0  0  0  0  0  0  0  0  0  0  0
   -1.2649   19.6580  -30.7233 H   0  0  0  0  0  0  0  0  0  0  0  0
    0.4540   20.1798  -30.7233 H   0  0  0  0  0  0  0  0  0  0  0  0
   -1.9626   21.8429  -31.6036 H   0  0  0  0  0  0  0  0  0  0  0  0
   -0.2531   22.4308  -31.5212 H   0  0  0  0  0  0  0  0  0  0  0  0
    0.0386   21.6923  -33.6231 H   0  0  0  0  0  0  0  0  0  0  0  0
   -0.1756   20.0122  -32.9976 H   0  0  0  0  0  0  0  0  0  0  0  0
   -2.0600   21.7700  -34.3730 H   0  0  0  0  0  0  0  0  0  0  0  0
   -1.8160   20.1000  -34.5420 H   0  0  0  0  0  0  0  0  0  0  0  0
   -3.3674   19.6043  -33.0519 H   0  0  0  0  0  0  0  0  0  0  0  0
   -2.7469   20.8982  -31.9361 H   0  0  0  0  0  0  0  0  0  0  0  0
   -4.0548   22.5755  -32.9529 H   0  0  0  0  0  0  0  0  0  0  0  0
   -4.3644   21.5728  -34.4184 H   0  0  0  0  0  0  0  0  0  0  0  0
   -8.1025   23.4038  -30.9190 H   0  0  0  0  0  0  0  0  0  0  0  0
   -7.7149   25.6221  -29.8499 H   0  0  0  0  0  0  0  0  0  0  0  0
   -5.3950   26.3844  -29.3529 H   0  0  0  0  0  0  0  0  0  0  0  0
   -2.6519   24.7274  -27.8888 H   0  0  0  0  0  0  0  0  0  0  0  0
   -2.2767   23.4008  -29.0403 H   0  0  0  0  0  0  0  0  0  0  0  0
   -1.2838   24.8978  -29.0403 H   0  0  0  0  0  0  0  0  0  0  0  0
   -3.8303   22.7062  -31.0201 H   0  0  0  0  0  0  0  0  0  0  0  0
   -7.8660   20.8820  -30.4290 H   0  0  0  0  0  0  0  0  0  0  0  0
   -8.6440   18.3741  -31.1498 H   0  0  0  0  0  0  0  0  0  0  0  0
   -8.1041   16.4770  -32.7168 H   0  0  0  0  0  0  0  0  0  0  0  0
  1  2  1  0
  2  3  1  0
  3  4  1  0
  4  5  1  0
  5  6  1  0
  6  7  1  0
  7  8  2  0
  8  9  1  0
  9 10  2  0
 10 11  1  0
 11 12  2  0
 12 13  1  0
 13 14  1  0
 14 15  1  0
 13 16  2  0
  8 17  1  0
 17 18  1  0
 18 19  2  0
 19 20  1  0
 20 21  2  0
 21 22  1  0
 21 23  1  0
 23 24  1  0
 23 25  2  0
 25  7  1  0
 16  9  1  0
 25 18  1  0
  1 26  1  0
  1 27  1  0
  1 28  1  0
  2 29  1  0
  2 30  1  0
  3 31  1  0
  3 32  1  0
  4 33  1  0
  4 34  1  0
  5 35  1  0
  5 36  1  0
  6 37  1  0
  6 38  1  0
 10 39  1  0
 11 40  1  0
 12 41  1  0
 15 42  1  0
 15 43  1  0
 15 44  1  0
 16 45  1  0
 17 46  1  0
 19 47  1  0
 20 48  1  0
M  CHG  1   4   1
M  END
>  <UniqueID>  (41) 
41

>  <SMILES>  (41) 
CCC[NH2+]CCc1c(-c2cccc(OC)c2)[nH]c2ccc(F)c(F)c12

>  <Energy>  (41) 
80.33326708110087

>  <Genealogy>  (41) 
CCC[NH2+]CCc1c(-c2cccc(OC)c2)[nH]c2ccc(F)c(F)c12 (protonated)
CCC[NH2+]CCc1c(-c2cccc(OC)c2)[nH]c2ccc(F)c(F)c12 (3D coordinates assigned)
CCC[NH2+]CCc1c(-c2cccc(OC)c2)[nH]c2ccc(F)c(F)c12 (optimized conformer: 80.33326708110087 kcal/mol)

>  <smiles>  (41) 
CCCNCCc1c(-c2cccc(OC)c2)[nH]c2ccc(F)c(F)c12

>  <score_type>  (41) 
oracle

>  <origin>  (41) 
adg

>  <m_score__min__energy>  (41) 
-7.96

>  <m_primary>  (41) 
energy

$$$$
41:0
     RDKit          3D

 41 43  0  0  0  0  0  0  0  0999 V2000
    0.4050   20.3700  -34.9040 C   0  0  0  0  0  0  0  0  0  0  0  0
   -0.0870   20.3310  -33.5250 C   0  0  0  0  0  0  0  0  0  0  0  0
   -0.4940   20.2960  -32.3900 C   0  0  0  0  0  0  0  0  0  0  0  0
   -0.9890   20.2590  -31.0080 C   0  0  0  0  0  0  0  0  0  0  0  0
   -1.8120   21.4540  -30.7280 N   0  0  0  0  0  0  0  0  0  0  0  0
   -1.1850   22.4800  -30.0680 C   0  0  0  0  0  0  0  0  0  0  0  0
   -1.8350   23.6830  -29.7720 C   0  0  0  0  0  0  0  0  0  0  0  0
   -1.0930   24.7650  -29.0650 C   0  0  0  0  0  0  0  0  0  0  0  0
    0.0270   24.5300  -28.5390 O   0  0  0  0  0  0  0  0  0  0  0  0
   -1.6140   26.0520  -28.9690 O   0  0  0  0  0  0  0  0  0  0  0  0
   -3.1740   23.8290  -30.1550 C   0  0  0  0  0  0  0  0  0  0  0  0
   -3.7870   24.9050  -29.9110 O   0  0  0  0  0  0  0  0  0  0  0  0
   -3.8420   22.7720  -30.7990 C   0  0  0  0  0  0  0  0  0  0  0  0
   -5.1960   22.9090  -31.1590 C   0  0  0  0  0  0  0  0  0  0  0  0
   -5.8800   21.8680  -31.7730 C   0  0  0  0  0  0  0  0  0  0  0  0
   -7.1820   22.0380  -32.1150 F   0  0  0  0  0  0  0  0  0  0  0  0
   -5.2310   20.6630  -32.0400 C   0  0  0  0  0  0  0  0  0  0  0  0
   -5.9390   19.5820  -32.6670 N   0  0  0  0  0  0  0  0  0  0  0  0
   -5.6710   19.2570  -34.0690 C   0  0  0  0  0  0  0  0  0  0  0  0
   -5.9300   17.7670  -34.3150 C   0  0  0  0  0  0  0  0  0  0  0  0
   -7.2110   17.3940  -33.8400 O   0  0  0  0  0  0  0  0  0  0  0  0
   -7.2630   17.5400  -32.4340 C   0  0  0  0  0  0  0  0  0  0  0  0
   -7.1310   19.0140  -32.0370 C   0  0  0  0  0  0  0  0  0  0  0  0
   -3.8830   20.5010  -31.6930 C   0  0  0  0  0  0  0  0  0  0  0  0
   -3.3410   19.2820  -31.9350 F   0  0  0  0  0  0  0  0  0  0  0  0
   -3.1500   21.5600  -31.0750 C   0  0  0  0  0  0  0  0  0  0  0  0
    1.5016   20.4569  -34.8998 H   0  0  0  0  0  0  0  0  0  0  0  0
    0.1125   19.4458  -35.4240 H   0  0  0  0  0  0  0  0  0  0  0  0
   -0.0295   21.2365  -35.4240 H   0  0  0  0  0  0  0  0  0  0  0  0
   -1.6000   19.3555  -30.8650 H   0  0  0  0  0  0  0  0  0  0  0  0
   -0.1309   20.2452  -30.3199 H   0  0  0  0  0  0  0  0  0  0  0  0
   -0.1363   22.3527  -29.7613 H   0  0  0  0  0  0  0  0  0  0  0  0
   -5.7195   23.8538  -30.9511 H   0  0  0  0  0  0  0  0  0  0  0  0
   -6.3315   19.8540  -34.7150 H   0  0  0  0  0  0  0  0  0  0  0  0
   -4.6203   19.4861  -34.3005 H   0  0  0  0  0  0  0  0  0  0  0  0
   -5.8727   17.5645  -35.3947 H   0  0  0  0  0  0  0  0  0  0  0  0
   -5.1700   17.1832  -33.7750 H   0  0  0  0  0  0  0  0  0  0  0  0
   -8.2241   17.1517  -32.0660 H   0  0  0  0  0  0  0  0  0  0  0  0
   -6.4286   16.9780  -31.9891 H   0  0  0  0  0  0  0  0  0  0  0  0
   -8.0216   19.5656  -32.3725 H   0  0  0  0  0  0  0  0  0  0  0  0
   -7.0419   19.0935  -30.9435 H   0  0  0  0  0  0  0  0  0  0  0  0
  1  2  1  0
  2  3  3  0
  3  4  1  0
  4  5  1  0
  5  6  1  0
  6  7  2  0
  7  8  1  0
  8  9  2  0
  8 10  1  0
  7 11  1  0
 11 12  2  0
 11 13  1  0
 13 14  2  0
 14 15  1  0
 15 16  1  0
 15 17  2  0
 17 18  1  0
 18 19  1  0
 19 20  1  0
 20 21  1  0
 21 22  1  0
 22 23  1  0
 17 24  1  0
 24 25  1  0
 24 26  2  0
 26  5  1  0
 26 13  1  0
 23 18  1  0
  1 27  1  0
  1 28  1  0
  1 29  1  0
  4 30  1  0
  4 31  1  0
  6 32  1  0
 14 33  1  0
 19 34  1  0
 19 35  1  0
 20 36  1  0
 20 37  1  0
 22 38  1  0
 22 39  1  0
 23 40  1  0
 23 41  1  0
M  CHG  1  10  -1
M  END
>  <UniqueID>  (42) 
42

>  <SMILES>  (42) 
CC#CCn1cc(C(=O)[O-])c(=O)c2cc(F)c(N3CCOCC3)c(F)c21

>  <Energy>  (42) 
59.909307476646745

>  <Genealogy>  (42) 
CC#CCn1cc(C(=O)[O-])c(=O)c2cc(F)c(N3CCOCC3)c(F)c21 (protonated)
CC#CCn1cc(C(=O)[O-])c(=O)c2cc(F)c(N3CCOCC3)c(F)c21 (3D coordinates assigned)
CC#CCn1cc(C(=O)[O-])c(=O)c2cc(F)c(N3CCOCC3)c(F)c21 (nonaromatic ring conformer: 59.909307476646745 kcal/mol)

>  <smiles>  (42) 
CC#CCn1cc(C(=O)O)c(=O)c2cc(F)c(N3CCOCC3)c(F)c21

>  <score_type>  (42) 
oracle

>  <origin>  (42) 
adg

>  <m_score__min__energy>  (42) 
-8.8200000000000003

>  <m_primary>  (42) 
energy

$$$$
42:0
     RDKit          3D

 51 53  0  0  0  0  0  0  0  0999 V2000
   -7.4020   19.4870  -32.3650 C   0  0  0  0  0  0  0  0  0  0  0  0
   -6.8310   20.8460  -32.7490 C   0  0  0  0  0  0  0  0  0  0  0  0
   -7.0100   21.7930  -31.6240 N   0  0  0  0  0  0  0  0  0  0  0  0
   -8.2520   21.5310  -30.8540 C   0  0  0  0  0  0  0  0  0  0  0  0
   -9.5450   21.8950  -31.6000 C   0  0  0  0  0  0  0  0  0  0  0  0
   -6.8130   23.2020  -32.0340 C   0  0  0  0  0  0  0  0  0  0  0  0
   -7.0090   24.1730  -30.8610 C   0  0  0  0  0  0  0  0  0  0  0  0
   -5.8830   24.1370  -29.9880 O   0  0  0  0  0  0  0  0  0  0  0  0
   -4.5780   24.4510  -30.3920 C   0  0  0  0  0  0  0  0  0  0  0  0
   -4.2370   25.6560  -30.5480 O   0  0  0  0  0  0  0  0  0  0  0  0
   -3.6040   23.3650  -30.6460 C   0  0  0  0  0  0  0  0  0  0  0  0
   -2.3550   23.3630  -30.0030 C   0  0  0  0  0  0  0  0  0  0  0  0
   -1.4390   22.3380  -30.2450 C   0  0  0  0  0  0  0  0  0  0  0  0
   -1.7580   21.3050  -31.1270 C   0  0  0  0  0  0  0  0  0  0  0  0
   -3.0010   21.2830  -31.7810 C   0  0  0  0  0  0  0  0  0  0  0  0
   -3.3210   20.1750  -32.7140 C   0  0  0  0  0  0  0  0  0  0  0  0
   -4.0540   19.0920  -32.3770 N   0  0  0  0  0  0  0  0  0  0  0  0
   -4.1010   18.3670  -33.4850 N   0  0  0  0  0  0  0  0  0  0  0  0
   -4.7850   17.1070  -33.6060 C   0  0  0  0  0  0  0  0  0  0  0  0
   -6.0580   17.0410  -34.1990 C   0  0  0  0  0  0  0  0  0  0  0  0
   -6.7220   15.8150  -34.3150 C   0  0  0  0  0  0  0  0  0  0  0  0
   -6.1210   14.6450  -33.8440 C   0  0  0  0  0  0  0  0  0  0  0  0
   -4.8550   14.6980  -33.2540 C   0  0  0  0  0  0  0  0  0  0  0  0
   -4.0330   13.0970  -32.6150 Br  0  0  0  0  0  0  0  0  0  0  0  0
   -4.1880   15.9230  -33.1340 C   0  0  0  0  0  0  0  0  0  0  0  0
   -3.4360   18.9580  -34.4660 N   0  0  0  0  0  0  0  0  0  0  0  0
   -2.9400   20.0920  -34.0050 N   0  0  0  0  0  0  0  0  0  0  0  0
   -3.9190   22.3210  -31.5330 C   0  0  0  0  0  0  0  0  0  0  0  0
   -7.4382   19.4009  -31.2690 H   0  0  0  0  0  0  0  0  0  0  0  0
   -8.4181   19.3873  -32.7744 H   0  0  0  0  0  0  0  0  0  0  0  0
   -6.7621   18.6915  -32.7744 H   0  0  0  0  0  0  0  0  0  0  0  0
   -5.7593   20.7429  -32.9744 H   0  0  0  0  0  0  0  0  0  0  0  0
   -7.3575   21.2273  -33.6363 H   0  0  0  0  0  0  0  0  0  0  0  0
   -8.2857   20.4593  -30.6082 H   0  0  0  0  0  0  0  0  0  0  0  0
   -8.2113   22.1724  -29.9612 H   0  0  0  0  0  0  0  0  0  0  0  0
  -10.3382   22.1183  -30.8714 H   0  0  0  0  0  0  0  0  0  0  0  0
   -9.3678   22.7782  -32.2314 H   0  0  0  0  0  0  0  0  0  0  0  0
   -9.8546   21.0491  -32.2314 H   0  0  0  0  0  0  0  0  0  0  0  0
   -5.7917   23.3189  -32.4254 H   0  0  0  0  0  0  0  0  0  0  0  0
   -7.5625   23.4410  -32.8029 H   0  0  0  0  0  0  0  0  0  0  0  0
   -7.1305   25.1937  -31.2527 H   0  0  0  0  0  0  0  0  0  0  0  0
   -7.9049   23.8731  -30.2976 H   0  0  0  0  0  0  0  0  0  0  0  0
   -2.0975   24.1734  -29.3052 H   0  0  0  0  0  0  0  0  0  0  0  0
   -0.4625   22.3446  -29.7387 H   0  0  0  0  0  0  0  0  0  0  0  0
   -1.0301   20.5012  -31.3117 H   0  0  0  0  0  0  0  0  0  0  0  0
   -6.5348   17.9587  -34.5740 H   0  0  0  0  0  0  0  0  0  0  0  0
   -7.7190   15.7722  -34.7778 H   0  0  0  0  0  0  0  0  0  0  0  0
   -6.6442   13.6819  -33.9375 H   0  0  0  0  0  0  0  0  0  0  0  0
   -3.1921   15.9604  -32.6684 H   0  0  0  0  0  0  0  0  0  0  0  0
   -2.3720   20.7610  -34.5680 H   0  0  0  0  0  0  0  0  0  0  0  0
   -4.8953   22.3150  -32.0398 H   0  0  0  0  0  0  0  0  0  0  0  0
  1  2  1  0
  2  3  1  0
  3  4  1  0
  4  5  1  0
  3  6  1  0
  6  7  1  0
  7  8  1  0
  8  9  1  0
  9 10  2  0
  9 11  1  0
 11 12  2  0
 12 13  1  0
 13 14  2  0
 14 15  1  0
 15 16  1  0
 16 17  2  0
 17 18  1  0
 18 19  1  0
 19 20  2  0
 20 21  1  0
 21 22  2  0
 22 23  1  0
 23 24  1  0
 23 25  2  0
 18 26  1  0
 26 27  2  0
 15 28  2  0
 28 11  1  0
 27 16  1  0
 25 19  1  0
  1 29  1  0
  1 30  1  0
  1 31  1  0
  2 32  1  0
  2 33  1  0
  4 34  1  0
  4 35  1  0
  5 36  1  0
  5 37  1  0
  5 38  1  0
  6 39  1  0
  6 40  1  0
  7 41  1  0
  7 42  1  0
 12 43  1  0
 13 44  1  0
 14 45  1  0
 20 46  1  0
 21 47  1  0
 22 48  1  0
 25 49  1  0
 27 50  1  0
 28 51  1  0
M  CHG  1  27   1
M  END
>  <UniqueID>  (43) 
43

>  <SMILES>  (43) 
CCN(CC)CCOC(=O)c1cccc(-c2nn(-c3cccc(Br)c3)n[nH+]2)c1

>  <Energy>  (43) 
95.47895209524742

>  <Genealogy>  (43) 
CCN(CC)CCOC(=O)c1cccc(-c2nn(-c3cccc(Br)c3)n[nH+]2)c1 (protonated)
CCN(CC)CCOC(=O)c1cccc(-c2nn(-c3cccc(Br)c3)n[nH+]2)c1 (3D coordinates assigned)
CCN(CC)CCOC(=O)c1cccc(-c2nn(-c3cccc(Br)c3)n[nH+]2)c1 (optimized conformer: 95.47895209524742 kcal/mol)

>  <smiles>  (43) 
CCN(CC)CCOC(=O)c1cccc(-c2nnn(-c3cccc(Br)c3)n2)c1

>  <score_type>  (43) 
oracle

>  <origin>  (43) 
adg

>  <m_score__min__energy>  (43) 
-8.5800000000000001

>  <m_primary>  (43) 
energy

$$$$
43:0
     RDKit          3D

 49 52  0  0  0  0  0  0  0  0999 V2000
   -2.1700   24.9240  -28.9430 C   0  0  0  0  0  0  0  0  0  0  0  0
   -3.0450   24.8600  -30.0640 O   0  0  0  0  0  0  0  0  0  0  0  0
   -4.4200   24.5800  -29.9910 C   0  0  0  0  0  0  0  0  0  0  0  0
   -5.3880   25.6010  -30.0850 C   0  0  0  0  0  0  0  0  0  0  0  0
   -6.7470   25.2960  -30.0050 C   0  0  0  0  0  0  0  0  0  0  0  0
   -7.1610   23.9770  -29.8270 C   0  0  0  0  0  0  0  0  0  0  0  0
   -6.2150   22.9550  -29.7300 C   0  0  0  0  0  0  0  0  0  0  0  0
   -4.8410   23.2400  -29.8220 C   0  0  0  0  0  0  0  0  0  0  0  0
   -3.8370   22.1050  -29.7020 C   0  0  2  0  0  0  0  0  0  0  0  0
   -3.1080   22.2140  -28.3480 C   0  0  0  0  0  0  0  0  0  0  0  0
   -1.9340   21.2450  -28.2900 C   0  0  0  0  0  0  0  0  0  0  0  0
   -0.8900   21.6430  -29.3250 C   0  0  0  0  0  0  0  0  0  0  0  0
   -1.4980   21.7980  -30.6870 C   0  0  0  0  0  0  0  0  0  0  0  0
   -0.7340   21.7410  -31.6880 O   0  0  0  0  0  0  0  0  0  0  0  0
   -2.9110   22.0710  -30.8610 N   0  0  0  0  0  0  0  0  0  0  0  0
   -3.4870   21.9980  -32.2190 C   0  0  0  0  0  0  0  0  0  0  0  0
   -4.6560   21.0480  -32.2450 C   0  0  0  0  0  0  0  0  0  0  0  0
   -4.4400   19.6650  -32.3320 C   0  0  0  0  0  0  0  0  0  0  0  0
   -5.5200   18.7810  -32.3990 C   0  0  0  0  0  0  0  0  0  0  0  0
   -6.8340   19.2710  -32.3840 C   0  0  0  0  0  0  0  0  0  0  0  0
   -7.9270   18.3920  -32.4530 C   0  0  0  0  0  0  0  0  0  0  0  0
   -9.2310   18.8930  -32.4400 C   0  0  0  0  0  0  0  0  0  0  0  0
   -9.4550   20.2700  -32.3590 C   0  0  0  0  0  0  0  0  0  0  0  0
   -8.3760   21.1560  -32.2900 C   0  0  0  0  0  0  0  0  0  0  0  0
   -7.0600   20.6650  -32.3020 C   0  0  0  0  0  0  0  0  0  0  0  0
   -5.9690   21.5440  -32.2340 C   0  0  0  0  0  0  0  0  0  0  0  0
   -2.7591   24.8809  -28.0151 H   0  0  0  0  0  0  0  0  0  0  0  0
   -1.4718   24.0745  -28.9738 H   0  0  0  0  0  0  0  0  0  0  0  0
   -1.6029   25.8660  -28.9738 H   0  0  0  0  0  0  0  0  0  0  0  0
   -5.0695   26.6449  -30.2223 H   0  0  0  0  0  0  0  0  0  0  0  0
   -7.4945   26.0993  -30.0827 H   0  0  0  0  0  0  0  0  0  0  0  0
   -8.2335   23.7413  -29.7629 H   0  0  0  0  0  0  0  0  0  0  0  0
   -6.5474   21.9172  -29.5802 H   0  0  0  0  0  0  0  0  0  0  0  0
   -4.3665   21.1411  -29.7242 H   0  0  0  0  0  0  0  0  0  0  0  0
   -2.7354   23.2410  -28.2200 H   0  0  0  0  0  0  0  0  0  0  0  0
   -3.8151   21.9620  -27.5439 H   0  0  0  0  0  0  0  0  0  0  0  0
   -1.4843   21.2747  -27.2866 H   0  0  0  0  0  0  0  0  0  0  0  0
   -2.2905   20.2267  -28.5043 H   0  0  0  0  0  0  0  0  0  0  0  0
   -0.4359   22.5990  -29.0253 H   0  0  0  0  0  0  0  0  0  0  0  0
   -0.1317   20.8477  -29.3739 H   0  0  0  0  0  0  0  0  0  0  0  0
   -3.8271   22.9991  -32.5224 H   0  0  0  0  0  0  0  0  0  0  0  0
   -2.7161   21.6332  -32.9137 H   0  0  0  0  0  0  0  0  0  0  0  0
   -3.4123   19.2731  -32.3476 H   0  0  0  0  0  0  0  0  0  0  0  0
   -5.3391   17.6979  -32.4637 H   0  0  0  0  0  0  0  0  0  0  0  0
   -7.7561   17.3073  -32.5174 H   0  0  0  0  0  0  0  0  0  0  0  0
  -10.0845   18.2011  -32.4937 H   0  0  0  0  0  0  0  0  0  0  0  0
  -10.4842   20.6581  -32.3495 H   0  0  0  0  0  0  0  0  0  0  0  0
   -8.5577   22.2390  -32.2262 H   0  0  0  0  0  0  0  0  0  0  0  0
   -6.1434   22.6283  -32.1717 H   0  0  0  0  0  0  0  0  0  0  0  0
  1  2  1  0
  2  3  1  0
  3  4  2  0
  4  5  1  0
  5  6  2  0
  6  7  1  0
  7  8  2  0
  8  9  1  0
  9 10  1  0
 10 11  1  0
 11 12  1  0
 12 13  1  0
 13 14  2  0
 13 15  1  0
 15 16  1  0
 16 17  1  0
 17 18  2  0
 18 19  1  0
 19 20  2  0
 20 21  1  0
 21 22  2  0
 22 23  1  0
 23 24  2  0
 24 25  1  0
 25 26  2  0
  8  3  1  0
 15  9  1  0
 26 17  1  0
 25 20  1  0
  1 27  1  0
  1 28  1  0
  1 29  1  0
  4 30  1  0
  5 31  1  0
  6 32  1  0
  7 33  1  0
  9 34  1  1
 10 35  1  0
 10 36  1  0
 11 37  1  0
 11 38  1  0
 12 39  1  0
 12 40  1  0
 16 41  1  0
 16 42  1  0
 18 43  1  0
 19 44  1  0
 21 45  1  0
 22 46  1  0
 23 47  1  0
 24 48  1  0
 26 49  1  0
M  END
>  <UniqueID>  (44) 
44

>  <SMILES>  (44) 
COc1ccccc1[C@@H]1CCCC(=O)N1Cc1ccc2ccccc2c1

>  <Energy>  (44) 
52.57825868187826

>  <Genealogy>  (44) 
COc1ccccc1[C@@H]1CCCC(=O)N1Cc1ccc2ccccc2c1 (chirality)
COc1ccccc1[C@@H]1CCCC(=O)N1Cc1ccc2ccccc2c1 (3D coordinates assigned)
COc1ccccc1[C@@H]1CCCC(=O)N1Cc1ccc2ccccc2c1 (nonaromatic ring conformer: 52.57825868187826 kcal/mol)

>  <smiles>  (44) 
COc1ccccc1C1CCCC(=O)N1Cc1ccc2ccccc2c1

>  <score_type>  (44) 
oracle

>  <origin>  (44) 
adg

>  <m_score__min__energy>  (44) 
-9.3599999999999994

>  <m_primary>  (44) 
energy

$$$$
44:0
     RDKit          3D

 37 38  0  0  0  0  0  0  0  0999 V2000
   -4.8420   25.1330  -30.5270 C   0  0  0  0  0  0  0  0  0  0  0  0
   -5.9170   24.1110  -30.7530 C   0  0  0  0  0  0  0  0  0  0  0  0
   -6.2880   23.2350  -29.7220 C   0  0  0  0  0  0  0  0  0  0  0  0
   -7.3160   22.3090  -29.9200 C   0  0  0  0  0  0  0  0  0  0  0  0
   -7.9920   22.2520  -31.1480 C   0  0  0  0  0  0  0  0  0  0  0  0
   -9.1210   21.2700  -31.3560 C   0  0  0  0  0  0  0  0  0  0  0  0
   -8.6500   19.8750  -31.3300 N   0  0  0  0  0  0  0  0  0  0  0  0
   -8.4710   19.3270  -32.6840 C   0  0  0  0  0  0  0  0  0  0  0  0
   -7.0060   19.1900  -33.0070 C   0  0  0  0  0  0  0  0  0  0  0  0
   -6.5060   17.9900  -33.5360 C   0  0  0  0  0  0  0  0  0  0  0  0
   -5.1450   17.8590  -33.8160 C   0  0  0  0  0  0  0  0  0  0  0  0
   -4.2680   18.9150  -33.5520 C   0  0  0  0  0  0  0  0  0  0  0  0
   -4.7440   20.1090  -32.9820 C   0  0  0  0  0  0  0  0  0  0  0  0
   -3.8060   21.2630  -32.7340 C   0  0  0  0  0  0  0  0  0  0  0  0
   -2.6530   21.1320  -33.4900 F   0  0  0  0  0  0  0  0  0  0  0  0
   -3.4420   21.3180  -31.3990 F   0  0  0  0  0  0  0  0  0  0  0  0
   -4.4370   22.4440  -33.0770 F   0  0  0  0  0  0  0  0  0  0  0  0
   -6.1200   20.2440  -32.7290 C   0  0  0  0  0  0  0  0  0  0  0  0
   -7.6350   23.1430  -32.1720 C   0  0  0  0  0  0  0  0  0  0  0  0
   -6.6070   24.0700  -31.9740 C   0  0  0  0  0  0  0  0  0  0  0  0
   -4.6925   25.2751  -29.4465 H   0  0  0  0  0  0  0  0  0  0  0  0
   -3.9038   24.7856  -30.9844 H   0  0  0  0  0  0  0  0  0  0  0  0
   -5.1415   26.0875  -30.9844 H   0  0  0  0  0  0  0  0  0  0  0  0
   -5.7677   23.2771  -28.7537 H   0  0  0  0  0  0  0  0  0  0  0  0
   -7.5965   21.6212  -29.1087 H   0  0  0  0  0  0  0  0  0  0  0  0
   -9.8643   21.4089  -30.5571 H   0  0  0  0  0  0  0  0  0  0  0  0
   -9.5605   21.4620  -32.3459 H   0  0  0  0  0  0  0  0  0  0  0  0
   -9.3660   19.3020  -30.8250 H   0  0  0  0  0  0  0  0  0  0  0  0
   -7.7490   19.8150  -30.7990 H   0  0  0  0  0  0  0  0  0  0  0  0
   -8.9484   18.3376  -32.7404 H   0  0  0  0  0  0  0  0  0  0  0  0
   -8.9333   20.0123  -33.4097 H   0  0  0  0  0  0  0  0  0  0  0  0
   -7.1890   17.1500  -33.7306 H   0  0  0  0  0  0  0  0  0  0  0  0
   -4.7613   16.9219  -34.2457 H   0  0  0  0  0  0  0  0  0  0  0  0
   -3.1994   18.8113  -33.7915 H   0  0  0  0  0  0  0  0  0  0  0  0
   -6.5069   21.1843  -32.3092 H   0  0  0  0  0  0  0  0  0  0  0  0
   -8.1663   23.1119  -33.1347 H   0  0  0  0  0  0  0  0  0  0  0  0
   -6.3382   24.7700  -32.7788 H   0  0  0  0  0  0  0  0  0  0  0  0
  1  2  1  0
  2  3  2  0
  3  4  1  0
  4  5  2  0
  5  6  1  0
  6  7  1  0
  7  8  1  0
  8  9  1  0
  9 10  2  0
 10 11  1  0
 11 12  2  0
 12 13  1  0
 13 14  1  0
 14 15  1  0
 14 16  1  0
 14 17  1  0
 13 18  2  0
  5 19  1  0
 19 20  2  0
 20  2  1  0
 18  9  1  0
  1 21  1  0
  1 22  1  0
  1 23  1  0
  3 24  1  0
  4 25  1  0
  6 26  1  0
  6 27  1  0
  7 28  1  0
  7 29  1  0
  8 30  1  0
  8 31  1  0
 10 32  1  0
 11 33  1  0
 12 34  1  0
 18 35  1  0
 19 36  1  0
 20 37  1  0
M  CHG  1   7   1
M  END
>  <UniqueID>  (45) 
45

>  <SMILES>  (45) 
Cc1ccc(C[NH2+]Cc2cccc(C(F)(F)F)c2)cc1

>  <Energy>  (45) 
35.68334798307311

>  <Genealogy>  (45) 
Cc1ccc(C[NH2+]Cc2cccc(C(F)(F)F)c2)cc1 (protonated)
Cc1ccc(C[NH2+]Cc2cccc(C(F)(F)F)c2)cc1 (3D coordinates assigned)
Cc1ccc(C[NH2+]Cc2cccc(C(F)(F)F)c2)cc1 (optimized conformer: 35.68334798307311 kcal/mol)

>  <smiles>  (45) 
Cc1ccc(CNCc2cccc(C(F)(F)F)c2)cc1

>  <score_type>  (45) 
oracle

>  <origin>  (45) 
adg

>  <m_score__min__energy>  (45) 
-6.6799999999999997

>  <m_primary>  (45) 
energy

$$$$
