0:0
     RDKit          3D

 29 30  0  0  0  0  0  0  0  0999 V2000
   -2.3780   24.4000  -28.8530 C   0  0  0  0  0  0  0  0  0  0  0  0
   -3.4040   24.9900  -29.7070 N   0  0  0  0  0  0  0  0  0  0  0  0
   -4.2970   24.2160  -30.5290 C   0  0  0  0  0  0  0  0  0  0  0  0
   -5.6420   24.5890  -30.7160 C   0  0  0  0  0  0  0  0  0  0  0  0
   -6.4830   23.8170  -31.5220 C   0  0  0  0  0  0  0  0  0  0  0  0
   -5.9950   22.6640  -32.1610 C   0  0  0  0  0  0  0  0  0  0  0  0
   -6.8100   21.8590  -32.9730 O   0  0  0  0  0  0  0  0  0  0  0  0
   -7.1150   20.5160  -32.7150 C   0  0  0  0  0  0  0  0  0  0  0  0
   -6.3400   19.5250  -33.3300 C   0  0  0  0  0  0  0  0  0  0  0  0
   -6.6080   18.1730  -33.1010 C   0  0  0  0  0  0  0  0  0  0  0  0
   -7.6610   17.8010  -32.2640 C   0  0  0  0  0  0  0  0  0  0  0  0
   -8.4590   18.7790  -31.6640 C   0  0  0  0  0  0  0  0  0  0  0  0
   -8.1980   20.1380  -31.8900 C   0  0  0  0  0  0  0  0  0  0  0  0
   -9.0790   21.1230  -31.3140 C   0  0  0  0  0  0  0  0  0  0  0  0
   -9.7870   21.9140  -30.8530 N   0  0  0  0  0  0  0  0  0  0  0  0
   -4.6630   22.2850  -31.9620 C   0  0  0  0  0  0  0  0  0  0  0  0
   -3.8200   23.0550  -31.1580 C   0  0  0  0  0  0  0  0  0  0  0  0
   -2.6463   24.5543  -27.7974 H   0  0  0  0  0  0  0  0  0  0  0  0
   -2.3049   23.3219  -29.0590 H   0  0  0  0  0  0  0  0  0  0  0  0
   -1.4095   24.8791  -29.0590 H   0  0  0  0  0  0  0  0  0  0  0  0
   -3.4870   26.0330  -29.7120 H   0  0  0  0  0  0  0  0  0  0  0  0
   -6.0326   25.4926  -30.2252 H   0  0  0  0  0  0  0  0  0  0  0  0
   -7.5336   24.1135  -31.6573 H   0  0  0  0  0  0  0  0  0  0  0  0
   -5.5147   19.8129  -33.9979 H   0  0  0  0  0  0  0  0  0  0  0  0
   -5.9885   17.4011  -33.5809 H   0  0  0  0  0  0  0  0  0  0  0  0
   -7.8632   16.7362  -32.0762 H   0  0  0  0  0  0  0  0  0  0  0  0
   -9.2941   18.4818  -31.0127 H   0  0  0  0  0  0  0  0  0  0  0  0
   -4.2770   21.3738  -32.4424 H   0  0  0  0  0  0  0  0  0  0  0  0
   -2.7729   22.7492  -31.0162 H   0  0  0  0  0  0  0  0  0  0  0  0
  1  2  1  0
  2  3  1  0
  3  4  2  0
  4  5  1  0
  5  6  2  0
  6  7  1  0
  7  8  1  0
  8  9  2  0
  9 10  1  0
 10 11  2  0
 11 12  1  0
 12 13  2  0
 13 14  1  0
 14 15  3  0
  6 16  1  0
 16 17  2  0
 17  3  1  0
 13  8  1  0
  1 18  1  0
  1 19  1  0
  1 20  1  0
  2 21  1  0
  4 22  1  0
  5 23  1  0
  9 24  1  0
 10 25  1  0
 11 26  1  0
 12 27  1  0
 16 28  1  0
 17 29  1  0
M  END
>  <UniqueID>  (1) 
1

>  <SMILES>  (1) 
CNc1ccc(Oc2ccccc2C#N)cc1

>  <Energy>  (1) 
35.82018858640512

>  <Genealogy>  (1) 
CNc1ccc(Oc2ccccc2C#N)cc1 (3D coordinates assigned)
CNc1ccc(Oc2ccccc2C#N)cc1 (optimized conformer: 35.82018858640512 kcal/mol)

>  <smiles>  (1) 
CNc1ccc(Oc2ccccc2C#N)cc1

>  <score_type>  (1) 
oracle

>  <origin>  (1) 
adg

>  <m_score__min__energy>  (1) 
-7.0099999999999998

>  <m_primary>  (1) 
energy

$$$$
1:0
     RDKit          3D

 40 42  0  0  1  0  0  0  0  0999 V2000
   -4.6820   14.8280  -32.6950 C   0  0  0  0  0  0  0  0  0  0  0  0
   -5.2130   16.1050  -32.2600 N   0  0  0  0  0  0  0  0  0  0  0  0
   -6.2720   16.6950  -33.4610 S   0  0  0  0  0  0  0  0  0  0  0  0
   -7.2210   15.6260  -33.9390 O   0  0  0  0  0  0  0  0  0  0  0  0
   -5.4920   17.1210  -34.6890 O   0  0  0  0  0  0  0  0  0  0  0  0
   -7.1300   18.1260  -32.9330 C   0  0  0  0  0  0  0  0  0  0  0  0
   -8.3610   17.9360  -32.3100 C   0  0  0  0  0  0  0  0  0  0  0  0
   -9.1080   19.0020  -31.8610 C   0  0  0  0  0  0  0  0  0  0  0  0
   -8.6480   20.2890  -32.0190 C   0  0  0  0  0  0  0  0  0  0  0  0
   -7.3990   20.5100  -32.6490 C   0  0  0  0  0  0  0  0  0  0  0  0
   -6.8800   21.7570  -32.7170 N   0  0  0  0  0  0  0  0  0  0  0  0
   -5.8520   22.2640  -32.2920 C   0  0  0  0  0  0  0  0  0  0  0  0
   -4.6610   21.7730  -32.7200 N   0  0  0  0  0  0  0  0  0  0  0  0
   -3.4710   22.2380  -32.3310 C   0  0  0  0  0  0  0  0  0  0  0  0
   -3.4530   23.2560  -31.4630 N   0  0  0  0  0  0  0  0  0  0  0  0
   -4.6090   23.7710  -31.0140 C   0  0  0  0  0  0  0  0  0  0  0  0
   -4.5330   24.8060  -30.1310 C   0  0  0  0  0  0  0  0  0  0  0  0
   -3.2980   25.2860  -29.7300 O   0  0  0  0  0  0  0  0  0  0  0  0
   -2.5590   24.5710  -28.7280 C   0  0  0  0  0  0  0  0  0  0  0  0
   -5.7050   25.3420  -29.6640 C   0  0  0  0  0  0  0  0  0  0  0  0
   -6.9540   24.9220  -30.0120 C   0  0  0  0  0  0  0  0  0  0  0  0
   -7.0090   23.8520  -30.9260 C   0  0  0  0  0  0  0  0  0  0  0  0
   -5.8570   23.3020  -31.4050 C   0  0  0  0  0  0  0  0  0  0  0  0
   -6.6580   19.3890  -33.0980 C   0  0  0  0  0  0  0  0  0  0  0  0
   -4.4282   14.2177  -31.8157 H   0  0  0  0  0  0  0  0  0  0  0  0
   -5.4367   14.3039  -33.2997 H   0  0  0  0  0  0  0  0  0  0  0  0
   -3.7781   14.9935  -33.2997 H   0  0  0  0  0  0  0  0  0  0  0  0
   -5.7790   15.9540  -31.3940 H   0  0  0  0  0  0  0  0  0  0  0  0
   -8.7442   16.9139  -32.1739 H   0  0  0  0  0  0  0  0  0  0  0  0
  -10.0777   18.8237  -31.3734 H   0  0  0  0  0  0  0  0  0  0  0  0
   -9.2455   21.1395  -31.6589 H   0  0  0  0  0  0  0  0  0  0  0  0
   -4.6360   20.9690  -33.4060 H   0  0  0  0  0  0  0  0  0  0  0  0
   -2.5370   21.7988  -32.7115 H   0  0  0  0  0  0  0  0  0  0  0  0
   -2.8904   24.8917  -27.7293 H   0  0  0  0  0  0  0  0  0  0  0  0
   -2.7347   23.4913  -28.8435 H   0  0  0  0  0  0  0  0  0  0  0  0
   -1.4857   24.7822  -28.8435 H   0  0  0  0  0  0  0  0  0  0  0  0
   -5.6316   26.1773  -28.9520 H   0  0  0  0  0  0  0  0  0  0  0  0
   -7.8624   25.3896  -29.6044 H   0  0  0  0  0  0  0  0  0  0  0  0
   -7.9828   23.4594  -31.2540 H   0  0  0  0  0  0  0  0  0  0  0  0
   -5.6853   19.5438  -33.5878 H   0  0  0  0  0  0  0  0  0  0  0  0
  1  2  1  0
  2  3  1  0
  3  4  2  0
  3  5  2  0
  3  6  1  0
  6  7  2  0
  7  8  1  0
  8  9  2  0
  9 10  1  0
 10 11  1  0
 11 12  2  0
 12 13  1  0
 13 14  1  0
 14 15  2  0
 15 16  1  0
 16 17  2  0
 17 18  1  0
 18 19  1  0
 17 20  1  0
 20 21  2  0
 21 22  1  0
 22 23  2  0
 10 24  2  0
 24  6  1  0
 23 12  1  0
 23 16  1  0
  1 25  1  0
  1 26  1  0
  1 27  1  0
  2 28  1  0
  7 29  1  0
  8 30  1  0
  9 31  1  0
 13 32  1  0
 14 33  1  0
 19 34  1  0
 19 35  1  0
 19 36  1  0
 20 37  1  0
 21 38  1  0
 22 39  1  0
 24 40  1  0
M  END
>  <smiles>  (2) 
CNS(=O)(=O)c1cccc(N=c2[nH]cnc3c(OC)cccc23)c1

>  <score_type>  (2) 
oracle

>  <origin>  (2) 
adg

>  <m_score__min__energy>  (2) 
-9.0299999999999994

>  <m_primary>  (2) 
energy

$$$$
2:0
     RDKit          3D

 47 49  0  0  0  0  0  0  0  0999 V2000
   -1.2470   21.5250  -31.0430 C   0  0  0  0  0  0  0  0  0  0  0  0
   -0.6430   20.3250  -31.7630 C   0  0  0  0  0  0  0  0  0  0  0  0
   -0.7790   20.4880  -33.2310 N   0  0  0  0  0  0  0  0  0  0  0  0
    0.4210   21.1190  -33.8390 C   0  0  0  0  0  0  0  0  0  0  0  0
    0.2410   21.5610  -35.3000 C   0  0  0  0  0  0  0  0  0  0  0  0
   -1.2170   19.2330  -33.8860 C   0  0  0  0  0  0  0  0  0  0  0  0
   -2.5110   18.6490  -33.2840 C   0  0  0  0  0  0  0  0  0  0  0  0
   -3.7360   18.7550  -34.2090 C   0  0  0  0  0  0  0  0  0  0  0  0
   -4.7510   19.6750  -33.6690 N   0  0  0  0  0  0  0  0  0  0  0  0
   -6.1260   19.2590  -33.5610 C   0  0  0  0  0  0  0  0  0  0  0  0
   -6.5010   18.1750  -34.0870 O   0  0  0  0  0  0  0  0  0  0  0  0
   -7.0980   20.1040  -32.8320 C   0  0  0  0  0  0  0  0  0  0  0  0
   -8.4270   19.6790  -32.6630 C   0  0  0  0  0  0  0  0  0  0  0  0
   -9.3400   20.4690  -31.9650 C   0  0  0  0  0  0  0  0  0  0  0  0
   -8.9450   21.6920  -31.4260 C   0  0  0  0  0  0  0  0  0  0  0  0
   -7.6250   22.1400  -31.5840 C   0  0  0  0  0  0  0  0  0  0  0  0
   -7.2300   23.3720  -31.0430 C   0  0  0  0  0  0  0  0  0  0  0  0
   -5.9130   23.8340  -31.1990 C   0  0  0  0  0  0  0  0  0  0  0  0
   -5.5100   25.1000  -30.6420 N   0  0  0  0  0  0  0  0  0  0  0  0
   -6.3130   25.7880  -29.9770 O   0  0  0  0  0  0  0  0  0  0  0  0
   -4.2320   25.5720  -30.8300 O   0  0  0  0  0  0  0  0  0  0  0  0
   -4.9910   23.0470  -31.9060 C   0  0  0  0  0  0  0  0  0  0  0  0
   -5.3670   21.8060  -32.4520 C   0  0  0  0  0  0  0  0  0  0  0  0
   -6.6900   21.3450  -32.2910 C   0  0  0  0  0  0  0  0  0  0  0  0
   -4.3830   20.9850  -33.1950 C   0  0  0  0  0  0  0  0  0  0  0  0
   -3.2270   21.4380  -33.4180 O   0  0  0  0  0  0  0  0  0  0  0  0
   -1.1720   21.3761  -29.9557 H   0  0  0  0  0  0  0  0  0  0  0  0
   -0.7002   22.4363  -31.3268 H   0  0  0  0  0  0  0  0  0  0  0  0
   -2.3047   21.6287  -31.3268 H   0  0  0  0  0  0  0  0  0  0  0  0
    0.4229   20.2440  -31.5034 H   0  0  0  0  0  0  0  0  0  0  0  0
   -1.1751   19.4140  -31.4518 H   0  0  0  0  0  0  0  0  0  0  0  0
    0.6821   22.0053  -33.2421 H   0  0  0  0  0  0  0  0  0  0  0  0
    1.2095   20.3520  -33.8404 H   0  0  0  0  0  0  0  0  0  0  0  0
   -0.1738   22.5795  -35.3265 H   0  0  0  0  0  0  0  0  0  0  0  0
    1.2158   21.5487  -35.8096 H   0  0  0  0  0  0  0  0  0  0  0  0
   -0.4478   20.8712  -35.8096 H   0  0  0  0  0  0  0  0  0  0  0  0
   -1.3900   19.4381  -34.9528 H   0  0  0  0  0  0  0  0  0  0  0  0
   -0.4213   18.4897  -33.7300 H   0  0  0  0  0  0  0  0  0  0  0  0
   -2.3386   17.5861  -33.0590 H   0  0  0  0  0  0  0  0  0  0  0  0
   -2.7390   19.2411  -32.3855 H   0  0  0  0  0  0  0  0  0  0  0  0
   -3.4087   19.1234  -35.1924 H   0  0  0  0  0  0  0  0  0  0  0  0
   -4.1894   17.7562  -34.2918 H   0  0  0  0  0  0  0  0  0  0  0  0
   -8.7496   18.7156  -33.0846 H   0  0  0  0  0  0  0  0  0  0  0  0
  -10.3772   20.1251  -31.8392 H   0  0  0  0  0  0  0  0  0  0  0  0
   -9.6707   22.3081  -30.8748 H   0  0  0  0  0  0  0  0  0  0  0  0
   -7.9593   23.9829  -30.4907 H   0  0  0  0  0  0  0  0  0  0  0  0
   -3.9592   23.4056  -32.0352 H   0  0  0  0  0  0  0  0  0  0  0  0
  1  2  1  0
  2  3  1  0
  3  4  1  0
  4  5  1  0
  3  6  1  0
  6  7  1  0
  7  8  1  0
  8  9  1  0
  9 10  1  0
 10 11  2  0
 10 12  1  0
 12 13  1  0
 13 14  2  0
 14 15  1  0
 15 16  2  0
 16 17  1  0
 17 18  2  0
 18 19  1  0
 19 20  2  0
 19 21  1  0
 18 22  1  0
 22 23  2  0
 23 24  1  0
 23 25  1  0
 25 26  2  0
 25  9  1  0
 24 12  2  0
 24 16  1  0
  1 27  1  0
  1 28  1  0
  1 29  1  0
  2 30  1  0
  2 31  1  0
  4 32  1  0
  4 33  1  0
  5 34  1  0
  5 35  1  0
  5 36  1  0
  6 37  1  0
  6 38  1  0
  7 39  1  0
  7 40  1  0
  8 41  1  0
  8 42  1  0
 13 43  1  0
 14 44  1  0
 15 45  1  0
 17 46  1  0
 22 47  1  0
M  CHG  2  19   1  21  -1
M  END
>  <UniqueID>  (3) 
2

>  <SMILES>  (3) 
CCN(CC)CCCN1C(=O)c2cccc3cc([N+](=O)[O-])cc(c23)C1=O

>  <Energy>  (3) 
55.049018906697356

>  <Genealogy>  (3) 
CCN(CC)CCCN1C(=O)c2cccc3cc([N+](=O)[O-])cc(c23)C1=O (3D coordinates assigned)
CCN(CC)CCCN1C(=O)c2cccc3cc([N+](=O)[O-])cc(c23)C1=O (nonaromatic ring conformer: 55.049018906697356 kcal/mol)

>  <smiles>  (3) 
CCN(CC)CCCN1C(=O)c2cccc3cc([N+](=O)[O-])cc(c23)C1=O

>  <score_type>  (3) 
oracle

>  <origin>  (3) 
adg

>  <m_score__min__energy>  (3) 
-9.2799999999999994

>  <m_primary>  (3) 
energy

$$$$
3:0
     RDKit          3D

 65 67  0  0  0  0  0  0  0  0999 V2000
   -5.3700   26.6406  -30.9416 H   0  0  0  0  0  0  0  0  0  0  0  0
   -5.0630   25.5900  -30.8320 C   0  0  0  0  0  0  0  0  0  0  0  0
   -3.8480   25.2920  -30.3080 N   0  0  0  0  0  0  0  0  0  0  0  0
   -3.4240   24.0090  -30.1630 C   0  0  0  0  0  0  0  0  0  0  0  0
   -2.1530   23.7570  -29.6330 C   0  0  0  0  0  0  0  0  0  0  0  0
   -1.5141   24.5945  -29.3161 H   0  0  0  0  0  0  0  0  0  0  0  0
   -1.6950   22.4430  -29.5060 C   0  0  0  0  0  0  0  0  0  0  0  0
   -0.6932   22.2485  -29.0955 H   0  0  0  0  0  0  0  0  0  0  0  0
   -2.5060   21.3760  -29.8990 C   0  0  0  0  0  0  0  0  0  0  0  0
   -2.1403   20.3436  -29.7975 H   0  0  0  0  0  0  0  0  0  0  0  0
   -3.7810   21.6150  -30.4210 C   0  0  0  0  0  0  0  0  0  0  0  0
   -4.4161   20.7690  -30.7225 H   0  0  0  0  0  0  0  0  0  0  0  0
   -4.2570   22.9350  -30.5630 C   0  0  0  0  0  0  0  0  0  0  0  0
   -5.5310   23.2210  -31.1080 C   0  0  0  0  0  0  0  0  0  0  0  0
   -6.3110   22.2340  -31.4700 N   0  0  0  0  0  0  0  0  0  0  0  0
   -7.5350   21.7700  -30.8100 C   0  0  0  0  0  0  0  0  0  0  0  0
   -8.3680   22.4313  -31.0908 H   0  0  0  0  0  0  0  0  0  0  0  0
   -7.3762   21.7914  -29.7217 H   0  0  0  0  0  0  0  0  0  0  0  0
   -7.8740   20.3280  -31.2280 C   0  0  0  0  0  0  0  0  0  0  0  0
   -8.8350   20.3255  -31.7633 H   0  0  0  0  0  0  0  0  0  0  0  0
   -7.9346   19.7065  -30.3224 H   0  0  0  0  0  0  0  0  0  0  0  0
   -6.8280   19.7710  -32.1110 N   0  0  0  0  0  0  0  0  0  0  0  0
   -7.2400   19.8220  -33.5240 C   0  0  0  0  0  0  0  0  0  0  0  0
   -7.4634   20.8644  -33.7951 H   0  0  0  0  0  0  0  0  0  0  0  0
   -8.1306   19.1888  -33.6500 H   0  0  0  0  0  0  0  0  0  0  0  0
   -6.1230   19.2870  -34.4530 C   0  0  0  0  0  0  0  0  0  0  0  0
   -5.7875   20.1068  -35.1051 H   0  0  0  0  0  0  0  0  0  0  0  0
   -6.5471   18.4507  -35.0280 H   0  0  0  0  0  0  0  0  0  0  0  0
   -4.9550   18.7660  -33.7140 N   0  0  0  0  0  0  0  0  0  0  0  0
   -4.0610   19.8380  -33.2070 C   0  0  0  0  0  0  0  0  0  0  0  0
   -4.6309   20.4949  -32.5335 H   0  0  0  0  0  0  0  0  0  0  0  0
   -3.6753   20.4111  -34.0631 H   0  0  0  0  0  0  0  0  0  0  0  0
   -2.8770   19.2390  -32.4420 C   0  0  0  0  0  0  0  0  0  0  0  0
   -3.0768   18.1777  -32.2330 H   0  0  0  0  0  0  0  0  0  0  0  0
   -2.7427   19.7846  -31.4963 H   0  0  0  0  0  0  0  0  0  0  0  0
   -1.7000   19.3510  -33.2160 O   0  0  0  0  0  0  0  0  0  0  0  0
   -0.9680   20.4860  -32.8050 C   0  0  0  0  0  0  0  0  0  0  0  0
    0.0765   20.1954  -32.6189 H   0  0  0  0  0  0  0  0  0  0  0  0
   -1.4193   20.8870  -31.8854 H   0  0  0  0  0  0  0  0  0  0  0  0
   -1.0050   21.5700  -33.8900 C   0  0  0  0  0  0  0  0  0  0  0  0
   -1.4188   22.4862  -33.4435 H   0  0  0  0  0  0  0  0  0  0  0  0
   -1.6210   21.1670  -34.7074 H   0  0  0  0  0  0  0  0  0  0  0  0
    0.3100   21.9020  -34.4860 N   0  0  0  0  0  0  0  0  0  0  0  0
    1.3780   20.8910  -34.3330 C   0  0  0  0  0  0  0  0  0  0  0  0
    1.1902   20.3018  -33.4233 H   0  0  0  0  0  0  0  0  0  0  0  0
    2.3466   21.4072  -34.2593 H   0  0  0  0  0  0  0  0  0  0  0  0
    1.4100   19.9560  -35.5380 C   0  0  0  0  0  0  0  0  0  0  0  0
    1.4457   18.9126  -35.1916 H   0  0  0  0  0  0  0  0  0  0  0  0
    0.5061   20.1099  -36.1456 H   0  0  0  0  0  0  0  0  0  0  0  0
    2.3013   20.1713  -36.1456 H   0  0  0  0  0  0  0  0  0  0  0  0
    0.3000   22.6860  -35.7420 C   0  0  0  0  0  0  0  0  0  0  0  0
    0.3708   21.9839  -36.5858 H   0  0  0  0  0  0  0  0  0  0  0  0
   -0.6351   23.2653  -35.7418 H   0  0  0  0  0  0  0  0  0  0  0  0
    1.4450   23.7040  -35.8670 C   0  0  0  0  0  0  0  0  0  0  0  0
    1.7811   24.0029  -34.8632 H   0  0  0  0  0  0  0  0  0  0  0  0
    2.2834   23.2476  -36.4136 H   0  0  0  0  0  0  0  0  0  0  0  0
    1.0898   24.5900  -36.4136 H   0  0  0  0  0  0  0  0  0  0  0  0
   -5.3800   17.8140  -32.6650 C   0  0  0  0  0  0  0  0  0  0  0  0
   -4.5025   17.5469  -32.0578 H   0  0  0  0  0  0  0  0  0  0  0  0
   -5.8115   16.9379  -33.1713 H   0  0  0  0  0  0  0  0  0  0  0  0
   -6.4680   18.3900  -31.7310 C   0  0  0  0  0  0  0  0  0  0  0  0
   -6.0897   18.3900  -30.6981 H   0  0  0  0  0  0  0  0  0  0  0  0
   -7.3667   17.7616  -31.8173 H   0  0  0  0  0  0  0  0  0  0  0  0
   -5.9260   24.5670  -31.2330 C   0  0  0  0  0  0  0  0  0  0  0  0
   -6.9150   24.8132  -31.6468 H   0  0  0  0  0  0  0  0  0  0  0  0
  1  2  1  0
  2  3  1  0
  3  4  1  0
  4  5  2  0
  5  6  1  0
  5  7  1  0
  7  8  1  0
  7  9  2  0
  9 10  1  0
  9 11  1  0
 11 12  1  0
 11 13  2  0
 13 14  1  0
 14 15  2  0
 15 16  1  0
 16 17  1  0
 16 18  1  0
 16 19  1  0
 19 20  1  0
 19 21  1  0
 19 22  1  0
 22 23  1  0
 23 24  1  0
 23 25  1  0
 23 26  1  0
 26 27  1  0
 26 28  1  0
 26 29  1  0
 29 30  1  0
 30 31  1  0
 30 32  1  0
 30 33  1  0
 33 34  1  0
 33 35  1  0
 33 36  1  0
 36 37  1  0
 37 38  1  0
 37 39  1  0
 37 40  1  0
 40 41  1  0
 40 42  1  0
 40 43  1  0
 43 44  1  0
 44 45  1  0
 44 46  1  0
 44 47  1  0
 47 48  1  0
 47 49  1  0
 47 50  1  0
 43 51  1  0
 51 52  1  0
 51 53  1  0
 51 54  1  0
 54 55  1  0
 54 56  1  0
 54 57  1  0
 29 58  1  0
 58 59  1  0
 58 60  1  0
 58 61  1  0
 61 62  1  0
 61 63  1  0
 14 64  1  0
 64 65  1  0
 64  2  2  0
 13  4  1  0
 61 22  1  0
M  CHG  1   3  -1
M  END
>  <UniqueID>  (4) 
3

>  <SMILES>  (4) 
CCN(CC)CCOCCN1CCN(CC/N=c2\cc[n-]c3ccccc23)CC1

>  <Energy>  (4) 
86.24742125135374

>  <Genealogy>  (4) 
CCN(CC)CCOCCN1CCN(CCN=c2cc[n-]c3ccccc23)CC1 (protonated)
CCN(CC)CCOCCN1CCN(CC/N=c2\cc[n-]c3ccccc23)CC1 (cis-trans isomerization)
CCN(CC)CCOCCN1CCN(CC/N=c2\cc[n-]c3ccccc23)CC1 (3D coordinates assigned)
CCN(CC)CCOCCN1CCN(CC/N=c2\cc[n-]c3ccccc23)CC1 (nonaromatic ring conformer: 86.24742125135374 kcal/mol)

>  <smiles>  (4) 
CCN(CC)CCOCCN1CCN(CCN=c2cc[nH]c3ccccc23)CC1

>  <score_type>  (4) 
oracle

>  <origin>  (4) 
adg

>  <m_score__min__energy>  (4) 
-8.8200000000000003

>  <m_primary>  (4) 
energy

$$$$
4:0
     RDKit          3D

 56 59  0  0  0  0  0  0  0  0999 V2000
   -1.7810   23.3730  -29.5940 C   0  0  0  0  0  0  0  0  0  0  0  0
   -0.7090   22.3220  -29.8600 C   0  0  0  0  0  0  0  0  0  0  0  0
   -1.3410   21.0980  -30.4060 N   0  0  0  0  0  0  0  0  0  0  0  0
   -1.5870   20.0640  -29.3740 C   0  0  0  0  0  0  0  0  0  0  0  0
   -2.6540   20.4640  -28.3450 C   0  0  0  0  0  0  0  0  0  0  0  0
   -0.6510   20.5580  -31.5990 C   0  0  0  0  0  0  0  0  0  0  0  0
   -1.1010   21.2970  -32.8660 C   0  0  0  0  0  0  0  0  0  0  0  0
   -2.6220   21.1450  -33.0970 C   0  0  0  0  0  0  0  0  0  0  0  0
   -3.4240   20.8280  -31.8840 N   0  0  0  0  0  0  0  0  0  0  0  0
   -4.8330   20.5570  -32.1150 C   0  0  0  0  0  0  0  0  0  0  0  0
   -5.2400   19.3450  -32.7480 C   0  0  0  0  0  0  0  0  0  0  0  0
   -4.2980   18.4820  -33.3610 C   0  0  0  0  0  0  0  0  0  0  0  0
   -4.7010   17.3100  -33.9950 C   0  0  0  0  0  0  0  0  0  0  0  0
   -6.0440   16.9670  -34.0400 C   0  0  0  0  0  0  0  0  0  0  0  0
   -6.9970   17.7880  -33.4470 C   0  0  0  0  0  0  0  0  0  0  0  0
   -6.6240   18.9840  -32.7820 C   0  0  0  0  0  0  0  0  0  0  0  0
   -7.5670   19.7870  -32.1730 N   0  0  0  0  0  0  0  0  0  0  0  0
   -8.9850   19.3770  -32.1160 C   0  0  0  0  0  0  0  0  0  0  0  0
   -7.1760   20.9910  -31.6550 C   0  0  0  0  0  0  0  0  0  0  0  0
   -8.1900   22.1480  -30.9520 S   0  0  0  0  0  0  0  0  0  0  0  0
   -6.9730   23.2510  -30.6590 C   0  0  0  0  0  0  0  0  0  0  0  0
   -7.1290   24.5160  -30.0970 C   0  0  0  0  0  0  0  0  0  0  0  0
   -6.0090   25.3450  -30.0020 C   0  0  0  0  0  0  0  0  0  0  0  0
   -4.7700   24.9100  -30.4920 C   0  0  0  0  0  0  0  0  0  0  0  0
   -4.6340   23.6320  -31.0610 C   0  0  0  0  0  0  0  0  0  0  0  0
   -5.7440   22.7630  -31.1120 C   0  0  0  0  0  0  0  0  0  0  0  0
   -5.8480   21.4370  -31.6490 C   0  0  0  0  0  0  0  0  0  0  0  0
   -1.9096   23.4991  -28.5088 H   0  0  0  0  0  0  0  0  0  0  0  0
   -1.4746   24.3304  -30.0406 H   0  0  0  0  0  0  0  0  0  0  0  0
   -2.7322   23.0478  -30.0406 H   0  0  0  0  0  0  0  0  0  0  0  0
    0.0172   22.7150  -30.5868 H   0  0  0  0  0  0  0  0  0  0  0  0
   -0.1925   22.0793  -28.9196 H   0  0  0  0  0  0  0  0  0  0  0  0
   -1.9166   19.1427  -29.8765 H   0  0  0  0  0  0  0  0  0  0  0  0
   -0.6443   19.9264  -28.8242 H   0  0  0  0  0  0  0  0  0  0  0  0
   -2.2580   20.3155  -27.3296 H   0  0  0  0  0  0  0  0  0  0  0  0
   -2.9190   21.5225  -28.4841 H   0  0  0  0  0  0  0  0  0  0  0  0
   -3.5495   19.8405  -28.4841 H   0  0  0  0  0  0  0  0  0  0  0  0
    0.4350   20.6819  -31.4751 H   0  0  0  0  0  0  0  0  0  0  0  0
   -0.9041   19.4925  -31.7021 H   0  0  0  0  0  0  0  0  0  0  0  0
   -0.8597   22.3652  -32.7621 H   0  0  0  0  0  0  0  0  0  0  0  0
   -0.5745   20.8600  -33.7273 H   0  0  0  0  0  0  0  0  0  0  0  0
   -2.9979   22.0907  -33.5146 H   0  0  0  0  0  0  0  0  0  0  0  0
   -2.7413   20.2848  -33.7722 H   0  0  0  0  0  0  0  0  0  0  0  0
   -2.9940   20.0030  -31.4070 H   0  0  0  0  0  0  0  0  0  0  0  0
   -3.3100   21.5610  -31.1530 H   0  0  0  0  0  0  0  0  0  0  0  0
   -3.2296   18.7427  -33.3354 H   0  0  0  0  0  0  0  0  0  0  0  0
   -3.9517   16.6538  -34.4618 H   0  0  0  0  0  0  0  0  0  0  0  0
   -6.3566   16.0420  -34.5467 H   0  0  0  0  0  0  0  0  0  0  0  0
   -8.0589   17.5049  -33.4945 H   0  0  0  0  0  0  0  0  0  0  0  0
   -9.2985   19.2863  -31.0655 H   0  0  0  0  0  0  0  0  0  0  0  0
   -9.6057   20.1325  -32.6200 H   0  0  0  0  0  0  0  0  0  0  0  0
   -9.1067   18.4069  -32.6200 H   0  0  0  0  0  0  0  0  0  0  0  0
   -8.1116   24.8542  -29.7363 H   0  0  0  0  0  0  0  0  0  0  0  0
   -6.0994   26.3402  -29.5422 H   0  0  0  0  0  0  0  0  0  0  0  0
   -3.8959   25.5750  -30.4307 H   0  0  0  0  0  0  0  0  0  0  0  0
   -3.6633   23.3099  -31.4660 H   0  0  0  0  0  0  0  0  0  0  0  0
  1  2  1  0
  2  3  1  0
  3  4  1  0
  4  5  1  0
  3  6  1  0
  6  7  1  0
  7  8  1  0
  8  9  1  0
  9 10  1  0
 10 11  2  0
 11 12  1  0
 12 13  2  0
 13 14  1  0
 14 15  2  0
 15 16  1  0
 16 17  2  0
 17 18  1  0
 17 19  1  0
 19 20  1  0
 20 21  1  0
 21 22  2  0
 22 23  1  0
 23 24  2  0
 24 25  1  0
 25 26  2  0
 26 27  1  0
 27 10  1  0
 16 11  1  0
 27 19  2  0
 26 21  1  0
  1 28  1  0
  1 29  1  0
  1 30  1  0
  2 31  1  0
  2 32  1  0
  4 33  1  0
  4 34  1  0
  5 35  1  0
  5 36  1  0
  5 37  1  0
  6 38  1  0
  6 39  1  0
  7 40  1  0
  7 41  1  0
  8 42  1  0
  8 43  1  0
  9 44  1  0
  9 45  1  0
 12 46  1  0
 13 47  1  0
 14 48  1  0
 15 49  1  0
 18 50  1  0
 18 51  1  0
 18 52  1  0
 22 53  1  0
 23 54  1  0
 24 55  1  0
 25 56  1  0
M  CHG  2   9   1  17   1
M  END
>  <UniqueID>  (5) 
4

>  <SMILES>  (5) 
CCN(CC)CCC[NH2+]c1c2ccccc2[n+](C)c2sc3ccccc3c12

>  <Energy>  (5) 
122.00638072331377

>  <Genealogy>  (5) 
CCN(CC)CCC[NH2+]c1c2ccccc2[n+](C)c2sc3ccccc3c12 (protonated)
CCN(CC)CCC[NH2+]c1c2ccccc2[n+](C)c2sc3ccccc3c12 (3D coordinates assigned)
CCN(CC)CCC[NH2+]c1c2ccccc2[n+](C)c2sc3ccccc3c12 (optimized conformer: 122.00638072331377 kcal/mol)

>  <smiles>  (5) 
CCN(CC)CCCNc1c2ccccc2[n+](C)c2sc3ccccc3c12

>  <score_type>  (5) 
oracle

>  <origin>  (5) 
adg

>  <m_score__min__energy>  (5) 
-8.4100000000000001

>  <m_primary>  (5) 
energy

$$$$
5:0
     RDKit          3D

 36 38  0  0  0  0  0  0  0  0999 V2000
   -3.0600   14.9680  -33.7490 C   0  0  0  0  0  0  0  0  0  0  0  0
   -3.8430   15.8770  -34.5160 O   0  0  0  0  0  0  0  0  0  0  0  0
   -4.7790   16.7690  -33.9730 C   0  0  0  0  0  0  0  0  0  0  0  0
   -5.1200   17.9060  -34.7120 C   0  0  0  0  0  0  0  0  0  0  0  0
   -6.0480   18.8240  -34.2150 C   0  0  0  0  0  0  0  0  0  0  0  0
   -6.6610   18.6210  -32.9660 C   0  0  0  0  0  0  0  0  0  0  0  0
   -7.6460   19.6110  -32.4550 C   0  0  0  0  0  0  0  0  0  0  0  0
   -8.9110   19.8270  -33.0110 C   0  0  0  0  0  0  0  0  0  0  0  0
   -9.6650   21.0510  -32.1380 S   0  0  0  0  0  0  0  0  0  0  0  0
   -8.3730   21.2470  -31.0850 C   0  0  0  0  0  0  0  0  0  0  0  0
   -8.2930   22.2840  -30.0130 C   0  0  0  0  0  0  0  0  0  0  0  0
   -7.0290   23.0830  -30.1660 C   0  0  0  0  0  0  0  0  0  0  0  0
   -7.0840   24.4820  -30.2760 C   0  0  0  0  0  0  0  0  0  0  0  0
   -5.9120   25.2220  -30.4560 C   0  0  0  0  0  0  0  0  0  0  0  0
   -4.6730   24.5700  -30.5380 C   0  0  0  0  0  0  0  0  0  0  0  0
   -3.4980   25.2960  -30.7180 O   0  0  0  0  0  0  0  0  0  0  0  0
   -4.6160   23.1750  -30.4420 C   0  0  0  0  0  0  0  0  0  0  0  0
   -5.7870   22.4340  -30.2610 C   0  0  0  0  0  0  0  0  0  0  0  0
   -7.3560   20.4150  -31.3920 N   0  0  0  0  0  0  0  0  0  0  0  0
   -6.3130   17.4770  -32.2220 C   0  0  0  0  0  0  0  0  0  0  0  0
   -5.3830   16.5600  -32.7200 C   0  0  0  0  0  0  0  0  0  0  0  0
   -3.2230   15.1572  -32.6777 H   0  0  0  0  0  0  0  0  0  0  0  0
   -3.3566   13.9361  -33.9884 H   0  0  0  0  0  0  0  0  0  0  0  0
   -1.9956   15.1085  -33.9884 H   0  0  0  0  0  0  0  0  0  0  0  0
   -4.6535   18.0790  -35.6930 H   0  0  0  0  0  0  0  0  0  0  0  0
   -6.3020   19.7155  -34.8072 H   0  0  0  0  0  0  0  0  0  0  0  0
   -9.3386   19.2896  -33.8702 H   0  0  0  0  0  0  0  0  0  0  0  0
   -9.1606   22.9558  -30.0902 H   0  0  0  0  0  0  0  0  0  0  0  0
   -8.2915   21.7893  -29.0305 H   0  0  0  0  0  0  0  0  0  0  0  0
   -8.0540   24.9978  -30.2202 H   0  0  0  0  0  0  0  0  0  0  0  0
   -5.9615   26.3181  -30.5335 H   0  0  0  0  0  0  0  0  0  0  0  0
   -3.2380   25.6660  -31.6250 H   0  0  0  0  0  0  0  0  0  0  0  0
   -3.6463   22.6601  -30.5092 H   0  0  0  0  0  0  0  0  0  0  0  0
   -5.7358   21.3373  -30.1926 H   0  0  0  0  0  0  0  0  0  0  0  0
   -6.7773   17.3035  -31.2400 H   0  0  0  0  0  0  0  0  0  0  0  0
   -5.1220   15.6699  -32.1287 H   0  0  0  0  0  0  0  0  0  0  0  0
  1  2  1  0
  2  3  1  0
  3  4  2  0
  4  5  1  0
  5  6  2  0
  6  7  1  0
  7  8  2  0
  8  9  1  0
  9 10  1  0
 10 11  1  0
 11 12  1  0
 12 13  2  0
 13 14  1  0
 14 15  2  0
 15 16  1  0
 15 17  1  0
 17 18  2  0
 10 19  2  0
  6 20  1  0
 20 21  2  0
 21  3  1  0
 19  7  1  0
 18 12  1  0
  1 22  1  0
  1 23  1  0
  1 24  1  0
  4 25  1  0
  5 26  1  0
  8 27  1  0
 11 28  1  0
 11 29  1  0
 13 30  1  0
 14 31  1  0
 16 32  1  0
 17 33  1  0
 18 34  1  0
 20 35  1  0
 21 36  1  0
M  END
>  <UniqueID>  (6) 
5

>  <SMILES>  (6) 
COc1ccc(-c2csc(Cc3ccc(O)cc3)n2)cc1

>  <Energy>  (6) 
66.98656567911604

>  <Genealogy>  (6) 
COc1ccc(-c2csc(Cc3ccc(O)cc3)n2)cc1 (3D coordinates assigned)
COc1ccc(-c2csc(Cc3ccc(O)cc3)n2)cc1 (optimized conformer: 66.98656567911604 kcal/mol)

>  <smiles>  (6) 
COc1ccc(-c2csc(Cc3ccc(O)cc3)n2)cc1

>  <score_type>  (6) 
oracle

>  <origin>  (6) 
adg

>  <m_score__min__energy>  (6) 
-8.8800000000000008

>  <m_primary>  (6) 
energy

$$$$
6:0
     RDKit          3D

 56 59  0  0  0  0  0  0  0  0999 V2000
    0.2980   21.4820  -34.2170 C   0  0  0  0  0  0  0  0  0  0  0  0
   -0.7790   21.6720  -33.3050 O   0  0  0  0  0  0  0  0  0  0  0  0
   -1.8520   20.7810  -33.1520 C   0  0  0  0  0  0  0  0  0  0  0  0
   -2.4920   20.7200  -31.9120 C   0  0  0  0  0  0  0  0  0  0  0  0
   -3.5840   19.8710  -31.7170 C   0  0  0  0  0  0  0  0  0  0  0  0
   -4.0600   19.0580  -32.7630 C   0  0  0  0  0  0  0  0  0  0  0  0
   -5.3180   18.2290  -32.5130 C   0  0  2  0  0  0  0  0  0  0  0  0
   -5.8060   17.3290  -33.6440 C   0  0  0  0  0  0  0  0  0  0  0  0
   -7.2490   17.0380  -33.2670 C   0  0  0  0  0  0  0  0  0  0  0  0
   -7.6030   18.0470  -32.1710 C   0  0  0  0  0  0  0  0  0  0  0  0
   -6.4870   19.0040  -32.0430 N   0  0  0  0  0  0  0  0  0  0  0  0
   -6.7610   20.2340  -32.8330 C   0  0  0  0  0  0  0  0  0  0  0  0
   -6.4660   21.4780  -32.0320 C   0  0  0  0  0  0  0  0  0  0  0  0
   -5.3700   22.2950  -32.3570 C   0  0  0  0  0  0  0  0  0  0  0  0
   -5.1280   23.4690  -31.6410 C   0  0  0  0  0  0  0  0  0  0  0  0
   -5.9600   23.8310  -30.5690 C   0  0  0  0  0  0  0  0  0  0  0  0
   -5.7130   25.1140  -29.8210 C   0  0  0  0  0  0  0  0  0  0  0  0
   -4.8800   24.8740  -28.6410 N   0  0  0  0  0  0  0  0  0  0  0  0
   -3.8990   23.8220  -28.5370 C   0  0  0  0  0  0  0  0  0  0  0  0
   -4.2390   22.5380  -28.0620 C   0  0  0  0  0  0  0  0  0  0  0  0
   -3.2690   21.5360  -27.9760 C   0  0  0  0  0  0  0  0  0  0  0  0
   -1.9520   21.7990  -28.3560 C   0  0  0  0  0  0  0  0  0  0  0  0
   -1.6010   23.0670  -28.8230 C   0  0  0  0  0  0  0  0  0  0  0  0
   -2.5660   24.0760  -28.9130 C   0  0  0  0  0  0  0  0  0  0  0  0
   -2.2010   25.2980  -29.3750 F   0  0  0  0  0  0  0  0  0  0  0  0
   -7.0340   22.9990  -30.2230 C   0  0  0  0  0  0  0  0  0  0  0  0
   -7.2750   21.8230  -30.9380 C   0  0  0  0  0  0  0  0  0  0  0  0
   -3.4040   19.1130  -34.0090 C   0  0  0  0  0  0  0  0  0  0  0  0
   -2.3080   19.9620  -34.2000 C   0  0  0  0  0  0  0  0  0  0  0  0
    1.2294   21.3177  -33.6553 H   0  0  0  0  0  0  0  0  0  0  0  0
    0.0922   20.6063  -34.8501 H   0  0  0  0  0  0  0  0  0  0  0  0
    0.4043   22.3753  -34.8501 H   0  0  0  0  0  0  0  0  0  0  0  0
   -2.1330   21.3460  -31.0818 H   0  0  0  0  0  0  0  0  0  0  0  0
   -4.0777   19.8373  -30.7346 H   0  0  0  0  0  0  0  0  0  0  0  0
   -4.9285   17.5806  -31.7143 H   0  0  0  0  0  0  0  0  0  0  0  0
   -5.7494   17.8482  -34.6121 H   0  0  0  0  0  0  0  0  0  0  0  0
   -5.2006   16.4178  -33.7585 H   0  0  0  0  0  0  0  0  0  0  0  0
   -7.9073   17.1714  -34.1381 H   0  0  0  0  0  0  0  0  0  0  0  0
   -7.3770   16.0016  -32.9212 H   0  0  0  0  0  0  0  0  0  0  0  0
   -8.5237   18.5838  -32.4432 H   0  0  0  0  0  0  0  0  0  0  0  0
   -7.7669   17.5266  -31.2159 H   0  0  0  0  0  0  0  0  0  0  0  0
   -6.1291   20.2295  -33.7334 H   0  0  0  0  0  0  0  0  0  0  0  0
   -7.8268   20.2413  -33.1050 H   0  0  0  0  0  0  0  0  0  0  0  0
   -4.6990   22.0081  -33.1800 H   0  0  0  0  0  0  0  0  0  0  0  0
   -4.2811   24.1139  -31.9181 H   0  0  0  0  0  0  0  0  0  0  0  0
   -5.2014   25.8262  -30.4851 H   0  0  0  0  0  0  0  0  0  0  0  0
   -6.6799   25.5237  -29.4935 H   0  0  0  0  0  0  0  0  0  0  0  0
   -4.9840   25.5450  -27.8460 H   0  0  0  0  0  0  0  0  0  0  0  0
   -5.2742   22.3243  -27.7574 H   0  0  0  0  0  0  0  0  0  0  0  0
   -3.5442   20.5367  -27.6076 H   0  0  0  0  0  0  0  0  0  0  0  0
   -1.1910   21.0077  -28.2876 H   0  0  0  0  0  0  0  0  0  0  0  0
   -0.5625   23.2734  -29.1211 H   0  0  0  0  0  0  0  0  0  0  0  0
   -7.6905   23.2735  -29.3841 H   0  0  0  0  0  0  0  0  0  0  0  0
   -8.1039   21.1634  -30.6417 H   0  0  0  0  0  0  0  0  0  0  0  0
   -3.7566   18.4830  -34.8389 H   0  0  0  0  0  0  0  0  0  0  0  0
   -1.8004   19.9888  -35.1755 H   0  0  0  0  0  0  0  0  0  0  0  0
  1  2  1  0
  2  3  1  0
  3  4  2  0
  4  5  1  0
  5  6  2  0
  6  7  1  0
  7  8  1  0
  8  9  1  0
  9 10  1  0
 10 11  1  0
 11 12  1  0
 12 13  1  0
 13 14  2  0
 14 15  1  0
 15 16  2  0
 16 17  1  0
 17 18  1  0
 18 19  1  0
 19 20  2  0
 20 21  1  0
 21 22  2  0
 22 23  1  0
 23 24  2  0
 24 25  1  0
 16 26  1  0
 26 27  2  0
  6 28  1  0
 28 29  2  0
 29  3  1  0
 11  7  1  0
 27 13  1  0
 24 19  1  0
  1 30  1  0
  1 31  1  0
  1 32  1  0
  4 33  1  0
  5 34  1  0
  7 35  1  1
  8 36  1  0
  8 37  1  0
  9 38  1  0
  9 39  1  0
 10 40  1  0
 10 41  1  0
 12 42  1  0
 12 43  1  0
 14 44  1  0
 15 45  1  0
 17 46  1  0
 17 47  1  0
 18 48  1  0
 20 49  1  0
 21 50  1  0
 22 51  1  0
 23 52  1  0
 26 53  1  0
 27 54  1  0
 28 55  1  0
 29 56  1  0
M  END
>  <UniqueID>  (7) 
6

>  <SMILES>  (7) 
COc1ccc([C@@H]2CCCN2Cc2ccc(CNc3ccccc3F)cc2)cc1

>  <Energy>  (7) 
67.27305607128507

>  <Genealogy>  (7) 
COc1ccc([C@@H]2CCCN2Cc2ccc(CNc3ccccc3F)cc2)cc1 (chirality)
COc1ccc([C@@H]2CCCN2Cc2ccc(CNc3ccccc3F)cc2)cc1 (3D coordinates assigned)
COc1ccc([C@@H]2CCCN2Cc2ccc(CNc3ccccc3F)cc2)cc1 (nonaromatic ring conformer: 67.27305607128507 kcal/mol)

>  <smiles>  (7) 
COc1ccc(C2CCCN2Cc2ccc(CNc3ccccc3F)cc2)cc1

>  <score_type>  (7) 
oracle

>  <origin>  (7) 
adg

>  <m_score__min__energy>  (7) 
-9.6099999999999994

>  <m_primary>  (7) 
energy

$$$$
7:0
     RDKit          3D

 46 47  0  0  0  0  0  0  0  0999 V2000
   -1.7670   20.3020  -27.0490 C   0  0  0  0  0  0  0  0  0  0  0  0
   -3.0510   20.3970  -27.8670 C   0  0  0  0  0  0  0  0  0  0  0  0
   -3.0030   21.5150  -28.7540 O   0  0  0  0  0  0  0  0  0  0  0  0
   -2.5030   22.7910  -28.4400 C   0  0  0  0  0  0  0  0  0  0  0  0
   -3.0180   23.5650  -27.3800 C   0  0  0  0  0  0  0  0  0  0  0  0
   -2.4840   24.8230  -27.1020 C   0  0  0  0  0  0  0  0  0  0  0  0
   -1.4370   25.3250  -27.8730 C   0  0  0  0  0  0  0  0  0  0  0  0
   -0.9220   24.5730  -28.9310 C   0  0  0  0  0  0  0  0  0  0  0  0
   -1.4510   23.3000  -29.2220 C   0  0  0  0  0  0  0  0  0  0  0  0
   -0.9680   22.5070  -30.2780 O   0  0  0  0  0  0  0  0  0  0  0  0
   -0.2450   21.2830  -30.1380 C   0  0  0  0  0  0  0  0  0  0  0  0
   -0.7900   20.2210  -31.0980 C   0  0  0  0  0  0  0  0  0  0  0  0
   -2.2360   20.4040  -31.2940 N   0  0  0  0  0  0  0  0  0  0  0  0
   -2.5750   20.8150  -32.6670 C   0  0  0  0  0  0  0  0  0  0  0  0
   -3.6430   21.9250  -32.6980 C   0  0  0  0  0  0  0  0  0  0  0  0
   -3.7210   22.6010  -31.4010 N   0  0  0  0  0  0  0  0  0  0  0  0
   -4.8440   23.3840  -30.9430 C   0  0  0  0  0  0  0  0  0  0  0  0
   -6.1310   22.8150  -30.9720 C   0  0  0  0  0  0  0  0  0  0  0  0
   -6.3160   21.5570  -31.4460 F   0  0  0  0  0  0  0  0  0  0  0  0
   -7.2420   23.5460  -30.5410 C   0  0  0  0  0  0  0  0  0  0  0  0
   -7.0840   24.8490  -30.0700 C   0  0  0  0  0  0  0  0  0  0  0  0
   -5.8130   25.4250  -30.0260 C   0  0  0  0  0  0  0  0  0  0  0  0
   -4.6940   24.7030  -30.4540 C   0  0  0  0  0  0  0  0  0  0  0  0
   -3.4780   25.2890  -30.3500 F   0  0  0  0  0  0  0  0  0  0  0  0
   -2.0130   20.3202  -25.9770 H   0  0  0  0  0  0  0  0  0  0  0  0
   -1.2473   19.3629  -27.2901 H   0  0  0  0  0  0  0  0  0  0  0  0
   -1.1148   21.1543  -27.2901 H   0  0  0  0  0  0  0  0  0  0  0  0
   -3.1739   19.4751  -28.4544 H   0  0  0  0  0  0  0  0  0  0  0  0
   -3.8995   20.5275  -27.1793 H   0  0  0  0  0  0  0  0  0  0  0  0
   -3.8453   23.1746  -26.7691 H   0  0  0  0  0  0  0  0  0  0  0  0
   -2.8900   25.4204  -26.2724 H   0  0  0  0  0  0  0  0  0  0  0  0
   -1.0154   26.3157  -27.6476 H   0  0  0  0  0  0  0  0  0  0  0  0
   -0.0996   24.9764  -29.5400 H   0  0  0  0  0  0  0  0  0  0  0  0
    0.8167   21.4627  -30.3629 H   0  0  0  0  0  0  0  0  0  0  0  0
   -0.3596   20.9199  -29.1060 H   0  0  0  0  0  0  0  0  0  0  0  0
   -0.2781   20.3113  -32.0674 H   0  0  0  0  0  0  0  0  0  0  0  0
   -0.6105   19.2244  -30.6684 H   0  0  0  0  0  0  0  0  0  0  0  0
   -2.5870   21.1180  -30.6140 H   0  0  0  0  0  0  0  0  0  0  0  0
   -1.6645   21.1862  -33.1602 H   0  0  0  0  0  0  0  0  0  0  0  0
   -2.9856   19.9382  -33.1892 H   0  0  0  0  0  0  0  0  0  0  0  0
   -3.3789   22.6594  -33.4732 H   0  0  0  0  0  0  0  0  0  0  0  0
   -4.6200   21.4713  -32.9210 H   0  0  0  0  0  0  0  0  0  0  0  0
   -2.9510   22.3980  -30.7220 H   0  0  0  0  0  0  0  0  0  0  0  0
   -8.2435   23.0921  -30.5735 H   0  0  0  0  0  0  0  0  0  0  0  0
   -7.9602   25.4226  -29.7334 H   0  0  0  0  0  0  0  0  0  0  0  0
   -5.6909   26.4525  -29.6526 H   0  0  0  0  0  0  0  0  0  0  0  0
  1  2  1  0
  2  3  1  0
  3  4  1  0
  4  5  2  0
  5  6  1  0
  6  7  2  0
  7  8  1  0
  8  9  2  0
  9 10  1  0
 10 11  1  0
 11 12  1  0
 12 13  1  0
 13 14  1  0
 14 15  1  0
 15 16  1  0
 16 17  1  0
 17 18  2  0
 18 19  1  0
 18 20  1  0
 20 21  2  0
 21 22  1  0
 22 23  2  0
 23 24  1  0
  9  4  1  0
 23 17  1  0
  1 25  1  0
  1 26  1  0
  1 27  1  0
  2 28  1  0
  2 29  1  0
  5 30  1  0
  6 31  1  0
  7 32  1  0
  8 33  1  0
 11 34  1  0
 11 35  1  0
 12 36  1  0
 12 37  1  0
 13 38  1  0
 14 39  1  0
 14 40  1  0
 15 41  1  0
 15 42  1  0
 16 43  1  0
 20 44  1  0
 21 45  1  0
 22 46  1  0
M  END
>  <UniqueID>  (8) 
7

>  <SMILES>  (8) 
CCOc1ccccc1OCCNCCNc1c(F)cccc1F

>  <Energy>  (8) 
45.12002566702055

>  <Genealogy>  (8) 
CCOc1ccccc1OCCNCCNc1c(F)cccc1F (3D coordinates assigned)
CCOc1ccccc1OCCNCCNc1c(F)cccc1F (optimized conformer: 45.12002566702055 kcal/mol)

>  <smiles>  (8) 
CCOc1ccccc1OCCNCCNc1c(F)cccc1F

>  <score_type>  (8) 
oracle

>  <origin>  (8) 
adg

>  <m_score__min__energy>  (8) 
-8.0299999999999994

>  <m_primary>  (8) 
energy

$$$$
8:0
     RDKit          3D

 45 47  0  0  0  0  0  0  0  0999 V2000
   -6.8570   24.9180  -29.8310 C   0  0  0  0  0  0  0  0  0  0  0  0
   -6.1580   23.8820  -30.5910 N   0  0  0  0  0  0  0  0  0  0  0  0
   -6.6140   23.1560  -31.6490 C   0  0  0  0  0  0  0  0  0  0  0  0
   -8.0250   23.1910  -32.1650 C   0  0  0  0  0  0  0  0  0  0  0  0
   -8.8850   22.0640  -31.5670 C   0  0  0  0  0  0  0  0  0  0  0  0
   -8.0680   20.8410  -31.1250 C   0  0  0  0  0  0  0  0  0  0  0  0
   -8.2100   19.7370  -32.1060 N   0  0  0  0  0  0  0  0  0  0  0  0
   -7.7050   18.4480  -31.5950 C   0  0  0  0  0  0  0  0  0  0  0  0
   -6.1590   18.3900  -31.5500 C   0  0  0  0  0  0  0  0  0  0  0  0
   -5.5180   19.3510  -32.4810 N   0  0  0  0  0  0  0  0  0  0  0  0
   -4.1340   18.9390  -32.7690 C   0  0  0  0  0  0  0  0  0  0  0  0
   -6.2880   19.4730  -33.7310 C   0  0  0  0  0  0  0  0  0  0  0  0
   -7.6940   20.0490  -33.4620 C   0  0  0  0  0  0  0  0  0  0  0  0
   -5.6690   22.3420  -32.1910 N   0  0  0  0  0  0  0  0  0  0  0  0
   -4.5820   22.5980  -31.4430 C   0  0  0  0  0  0  0  0  0  0  0  0
   -3.3100   22.0450  -31.5780 C   0  0  0  0  0  0  0  0  0  0  0  0
   -2.3080   22.4820  -30.6930 C   0  0  0  0  0  0  0  0  0  0  0  0
   -2.5970   23.4540  -29.7090 C   0  0  0  0  0  0  0  0  0  0  0  0
   -3.8930   23.9940  -29.5980 C   0  0  0  0  0  0  0  0  0  0  0  0
   -4.8640   23.5300  -30.4870 C   0  0  0  0  0  0  0  0  0  0  0  0
   -6.7308   24.7310  -28.7544 H   0  0  0  0  0  0  0  0  0  0  0  0
   -6.4384   25.9034  -30.0835 H   0  0  0  0  0  0  0  0  0  0  0  0
   -7.9274   24.8987  -30.0835 H   0  0  0  0  0  0  0  0  0  0  0  0
   -8.4755   24.1594  -31.9019 H   0  0  0  0  0  0  0  0  0  0  0  0
   -7.9917   23.0511  -33.2556 H   0  0  0  0  0  0  0  0  0  0  0  0
   -9.4197   22.4608  -30.6914 H   0  0  0  0  0  0  0  0  0  0  0  0
   -9.5723   21.7266  -32.3568 H   0  0  0  0  0  0  0  0  0  0  0  0
   -7.0075   21.1229  -31.0487 H   0  0  0  0  0  0  0  0  0  0  0  0
   -8.4414   20.4986  -30.1486 H   0  0  0  0  0  0  0  0  0  0  0  0
   -8.0930   18.2963  -30.5769 H   0  0  0  0  0  0  0  0  0  0  0  0
   -8.0481   17.6600  -32.2816 H   0  0  0  0  0  0  0  0  0  0  0  0
   -5.8288   18.6197  -30.5262 H   0  0  0  0  0  0  0  0  0  0  0  0
   -5.8574   17.3786  -31.8601 H   0  0  0  0  0  0  0  0  0  0  0  0
   -5.4690   20.2930  -32.0250 H   0  0  0  0  0  0  0  0  0  0  0  0
   -3.5950   18.7785  -31.8237 H   0  0  0  0  0  0  0  0  0  0  0  0
   -4.1428   18.0045  -33.3492 H   0  0  0  0  0  0  0  0  0  0  0  0
   -3.6303   19.7262  -33.3492 H   0  0  0  0  0  0  0  0  0  0  0  0
   -5.7513   20.1418  -34.4200 H   0  0  0  0  0  0  0  0  0  0  0  0
   -6.3987   18.4717  -34.1728 H   0  0  0  0  0  0  0  0  0  0  0  0
   -7.6503   21.1423  -33.5753 H   0  0  0  0  0  0  0  0  0  0  0  0
   -8.3794   19.5828  -34.1851 H   0  0  0  0  0  0  0  0  0  0  0  0
   -3.0967   21.2919  -32.3509 H   0  0  0  0  0  0  0  0  0  0  0  0
   -1.2930   22.0645  -30.7673 H   0  0  0  0  0  0  0  0  0  0  0  0
   -1.8043   23.7912  -29.0250 H   0  0  0  0  0  0  0  0  0  0  0  0
   -4.1313   24.7534  -28.8387 H   0  0  0  0  0  0  0  0  0  0  0  0
  1  2  1  0
  2  3  1  0
  3  4  1  0
  4  5  1  0
  5  6  1  0
  6  7  1  0
  7  8  1  0
  8  9  1  0
  9 10  1  0
 10 11  1  0
 10 12  1  0
 12 13  1  0
  3 14  2  0
 14 15  1  0
 15 16  2  0
 16 17  1  0
 17 18  2  0
 18 19  1  0
 19 20  2  0
 20  2  1  0
 13  7  1  0
 20 15  1  0
  1 21  1  0
  1 22  1  0
  1 23  1  0
  4 24  1  0
  4 25  1  0
  5 26  1  0
  5 27  1  0
  6 28  1  0
  6 29  1  0
  8 30  1  0
  8 31  1  0
  9 32  1  0
  9 33  1  0
 10 34  1  0
 11 35  1  0
 11 36  1  0
 11 37  1  0
 12 38  1  0
 12 39  1  0
 13 40  1  0
 13 41  1  0
 16 42  1  0
 17 43  1  0
 18 44  1  0
 19 45  1  0
M  CHG  1  10   1
M  END
>  <UniqueID>  (9) 
8

>  <SMILES>  (9) 
Cn1c(CCCN2CC[NH+](C)CC2)nc2ccccc21

>  <Energy>  (9) 
91.46605499084781

>  <Genealogy>  (9) 
Cn1c(CCCN2CC[NH+](C)CC2)nc2ccccc21 (protonated)
Cn1c(CCCN2CC[NH+](C)CC2)nc2ccccc21 (3D coordinates assigned)
Cn1c(CCCN2CC[NH+](C)CC2)nc2ccccc21 (nonaromatic ring conformer: 91.46605499084781 kcal/mol)

>  <smiles>  (9) 
CN1CCN(CCCc2nc3ccccc3n2C)CC1

>  <score_type>  (9) 
oracle

>  <origin>  (9) 
adg

>  <m_score__min__energy>  (9) 
-6.5999999999999996

>  <m_primary>  (9) 
energy

$$$$
9:0
     RDKit          3D

 52 54  0  0  0  0  0  0  0  0999 V2000
   -2.5020   24.9180  -26.8080 C   0  0  0  0  0  0  0  0  0  0  0  0
   -1.9220   24.9300  -28.2190 C   0  0  0  0  0  0  0  0  0  0  0  0
   -2.8860   24.3520  -29.1890 N   0  0  0  0  0  0  0  0  0  0  0  0
   -2.3800   23.0600  -29.7120 C   0  0  0  0  0  0  0  0  0  0  0  0
   -0.8620   22.9700  -29.5680 C   0  0  0  0  0  0  0  0  0  0  0  0
   -4.2130   24.1690  -28.5510 C   0  0  0  0  0  0  0  0  0  0  0  0
   -5.1860   23.4410  -29.4830 C   0  0  0  0  0  0  0  0  0  0  0  0
   -5.1340   24.1290  -31.1800 S   0  0  0  0  0  0  0  0  0  0  0  0
   -5.0020   22.5390  -32.0220 C   0  0  0  0  0  0  0  0  0  0  0  0
   -3.7410   22.1340  -32.4580 C   0  0  0  0  0  0  0  0  0  0  0  0
   -3.5760   20.8960  -33.0980 C   0  0  0  0  0  0  0  0  0  0  0  0
   -2.2280   20.4550  -33.5430 C   0  0  0  0  0  0  0  0  0  0  0  0
   -2.0170   19.1280  -33.9630 C   0  0  0  0  0  0  0  0  0  0  0  0
   -0.7500   18.7110  -34.3830 C   0  0  0  0  0  0  0  0  0  0  0  0
    0.3180   19.6110  -34.3900 C   0  0  0  0  0  0  0  0  0  0  0  0
    0.1220   20.9290  -33.9740 C   0  0  0  0  0  0  0  0  0  0  0  0
   -1.1420   21.3510  -33.5520 C   0  0  0  0  0  0  0  0  0  0  0  0
   -4.6630   20.0940  -33.2970 N   0  0  0  0  0  0  0  0  0  0  0  0
   -5.9090   20.4500  -32.8710 C   0  0  0  0  0  0  0  0  0  0  0  0
   -6.9990   19.5930  -33.0920 C   0  0  0  0  0  0  0  0  0  0  0  0
   -8.2750   19.9460  -32.6540 C   0  0  0  0  0  0  0  0  0  0  0  0
   -8.4830   21.1530  -31.9750 C   0  0  0  0  0  0  0  0  0  0  0  0
   -9.8640   21.5450  -31.5390 C   0  0  0  0  0  0  0  0  0  0  0  0
   -7.4040   22.0260  -31.7670 C   0  0  0  0  0  0  0  0  0  0  0  0
   -6.1090   21.6850  -32.2070 C   0  0  0  0  0  0  0  0  0  0  0  0
   -1.6824   24.9350  -26.0745 H   0  0  0  0  0  0  0  0  0  0  0  0
   -3.1395   25.8031  -26.6661 H   0  0  0  0  0  0  0  0  0  0  0  0
   -3.1023   24.0072  -26.6661 H   0  0  0  0  0  0  0  0  0  0  0  0
   -1.6974   25.9673  -28.5080 H   0  0  0  0  0  0  0  0  0  0  0  0
   -1.0045   24.3232  -28.2288 H   0  0  0  0  0  0  0  0  0  0  0  0
   -2.8445   22.2370  -29.1491 H   0  0  0  0  0  0  0  0  0  0  0  0
   -2.6364   22.9885  -30.7793 H   0  0  0  0  0  0  0  0  0  0  0  0
   -0.5952   22.9542  -28.5010 H   0  0  0  0  0  0  0  0  0  0  0  0
   -0.5020   22.0489  -30.0497 H   0  0  0  0  0  0  0  0  0  0  0  0
   -0.3956   23.8421  -30.0497 H   0  0  0  0  0  0  0  0  0  0  0  0
   -4.0894   23.5787  -27.6311 H   0  0  0  0  0  0  0  0  0  0  0  0
   -4.6281   25.1623  -28.3249 H   0  0  0  0  0  0  0  0  0  0  0  0
   -4.9148   22.3756  -29.5210 H   0  0  0  0  0  0  0  0  0  0  0  0
   -6.2045   23.5726  -29.0888 H   0  0  0  0  0  0  0  0  0  0  0  0
   -2.8710   22.7883  -32.2995 H   0  0  0  0  0  0  0  0  0  0  0  0
   -2.8542   18.4145  -33.9608 H   0  0  0  0  0  0  0  0  0  0  0  0
   -0.5942   17.6719  -34.7086 H   0  0  0  0  0  0  0  0  0  0  0  0
    1.3132   19.2814  -34.7232 H   0  0  0  0  0  0  0  0  0  0  0  0
    0.9639   21.6369  -33.9783 H   0  0  0  0  0  0  0  0  0  0  0  0
   -1.2893   22.3907  -33.2245 H   0  0  0  0  0  0  0  0  0  0  0  0
   -4.5410   19.1870  -33.8020 H   0  0  0  0  0  0  0  0  0  0  0  0
   -6.8454   18.6370  -33.6140 H   0  0  0  0  0  0  0  0  0  0  0  0
   -9.1236   19.2721  -32.8430 H   0  0  0  0  0  0  0  0  0  0  0  0
   -9.9116   21.5585  -30.4401 H   0  0  0  0  0  0  0  0  0  0  0  0
  -10.1012   22.5460  -31.9286 H   0  0  0  0  0  0  0  0  0  0  0  0
  -10.5917   20.8179  -31.9286 H   0  0  0  0  0  0  0  0  0  0  0  0
   -7.5705   22.9856  -31.2557 H   0  0  0  0  0  0  0  0  0  0  0  0
  1  2  1  0
  2  3  1  0
  3  4  1  0
  4  5  1  0
  3  6  1  0
  6  7  1  0
  7  8  1  0
  8  9  1  0
  9 10  2  0
 10 11  1  0
 11 12  1  0
 12 13  2  0
 13 14  1  0
 14 15  2  0
 15 16  1  0
 16 17  2  0
 11 18  2  0
 18 19  1  0
 19 20  2  0
 20 21  1  0
 21 22  2  0
 22 23  1  0
 22 24  1  0
 24 25  2  0
 25  9  1  0
 17 12  1  0
 25 19  1  0
  1 26  1  0
  1 27  1  0
  1 28  1  0
  2 29  1  0
  2 30  1  0
  4 31  1  0
  4 32  1  0
  5 33  1  0
  5 34  1  0
  5 35  1  0
  6 36  1  0
  6 37  1  0
  7 38  1  0
  7 39  1  0
 10 40  1  0
 13 41  1  0
 14 42  1  0
 15 43  1  0
 16 44  1  0
 17 45  1  0
 18 46  1  0
 20 47  1  0
 21 48  1  0
 23 49  1  0
 23 50  1  0
 23 51  1  0
 24 52  1  0
M  CHG  1  18   1
M  END
>  <UniqueID>  (10) 
9

>  <SMILES>  (10) 
CCN(CC)CCSc1cc(-c2ccccc2)[nH+]c2ccc(C)cc12

>  <Energy>  (10) 
54.046487138306

>  <Genealogy>  (10) 
CCN(CC)CCSc1cc(-c2ccccc2)[nH+]c2ccc(C)cc12 (protonated)
CCN(CC)CCSc1cc(-c2ccccc2)[nH+]c2ccc(C)cc12 (3D coordinates assigned)
CCN(CC)CCSc1cc(-c2ccccc2)[nH+]c2ccc(C)cc12 (optimized conformer: 54.046487138306 kcal/mol)

>  <smiles>  (10) 
CCN(CC)CCSc1cc(-c2ccccc2)nc2ccc(C)cc12

>  <score_type>  (10) 
oracle

>  <origin>  (10) 
adg

>  <m_score__min__energy>  (10) 
-8.1999999999999993

>  <m_primary>  (10) 
energy

$$$$
10:0
     RDKit          3D

 32 34  0  0  0  0  0  0  0  0999 V2000
   -8.8130   18.1490  -31.4580 C   0  0  0  0  0  0  0  0  0  0  0  0
   -9.4720   18.7330  -32.6270 N   0  0  0  0  0  0  0  0  0  0  0  0
   -9.1580   20.1650  -32.7310 C   0  0  0  0  0  0  0  0  0  0  0  0
   -7.6580   20.4390  -32.7960 C   0  0  0  0  0  0  0  0  0  0  0  0
   -6.8060   19.5220  -33.4310 C   0  0  0  0  0  0  0  0  0  0  0  0
   -5.4260   19.7230  -33.4860 C   0  0  0  0  0  0  0  0  0  0  0  0
   -4.6200   18.7550  -34.1100 C   0  0  0  0  0  0  0  0  0  0  0  0
   -3.2390   18.9170  -34.1700 C   0  0  0  0  0  0  0  0  0  0  0  0
   -2.6450   20.0430  -33.6080 C   0  0  0  0  0  0  0  0  0  0  0  0
   -0.9030   20.2380  -33.6820 Cl  0  0  0  0  0  0  0  0  0  0  0  0
   -3.4310   21.0180  -32.9870 C   0  0  0  0  0  0  0  0  0  0  0  0
   -4.8430   20.8840  -32.9150 C   0  0  0  0  0  0  0  0  0  0  0  0
   -5.6920   21.8610  -32.3110 C   0  0  0  0  0  0  0  0  0  0  0  0
   -5.1850   23.0630  -31.7560 C   0  0  0  0  0  0  0  0  0  0  0  0
   -6.0340   24.0160  -31.1940 C   0  0  0  0  0  0  0  0  0  0  0  0
   -5.3140   25.6270  -30.4590 Br  0  0  0  0  0  0  0  0  0  0  0  0
   -7.4060   23.8050  -31.1790 C   0  0  0  0  0  0  0  0  0  0  0  0
   -7.9390   22.6360  -31.7110 C   0  0  0  0  0  0  0  0  0  0  0  0
   -7.1050   21.6390  -32.2700 C   0  0  0  0  0  0  0  0  0  0  0  0
   -9.2679   18.5521  -30.5412 H   0  0  0  0  0  0  0  0  0  0  0  0
   -8.9336   17.0558  -31.4771 H   0  0  0  0  0  0  0  0  0  0  0  0
   -7.7422   18.4002  -31.4771 H   0  0  0  0  0  0  0  0  0  0  0  0
   -9.0830   18.2550  -33.4750 H   0  0  0  0  0  0  0  0  0  0  0  0
   -9.6276   20.5623  -33.6429 H   0  0  0  0  0  0  0  0  0  0  0  0
   -9.5450   20.6553  -31.8255 H   0  0  0  0  0  0  0  0  0  0  0  0
   -7.2364   18.6231  -33.8966 H   0  0  0  0  0  0  0  0  0  0  0  0
   -5.0845   17.8624  -34.5544 H   0  0  0  0  0  0  0  0  0  0  0  0
   -2.6168   18.1547  -34.6618 H   0  0  0  0  0  0  0  0  0  0  0  0
   -2.9482   21.9031  -32.5471 H   0  0  0  0  0  0  0  0  0  0  0  0
   -4.1007   23.2476  -31.7689 H   0  0  0  0  0  0  0  0  0  0  0  0
   -8.0732   24.5644  -30.7452 H   0  0  0  0  0  0  0  0  0  0  0  0
   -9.0283   22.4837  -31.6970 H   0  0  0  0  0  0  0  0  0  0  0  0
  1  2  1  0
  2  3  1  0
  3  4  1  0
  4  5  2  0
  5  6  1  0
  6  7  2  0
  7  8  1  0
  8  9  2  0
  9 10  1  0
  9 11  1  0
 11 12  2  0
 12 13  1  0
 13 14  2  0
 14 15  1  0
 15 16  1  0
 15 17  2  0
 17 18  1  0
 18 19  2  0
 19  4  1  0
 12  6  1  0
 19 13  1  0
  1 20  1  0
  1 21  1  0
  1 22  1  0
  2 23  1  0
  3 24  1  0
  3 25  1  0
  5 26  1  0
  7 27  1  0
  8 28  1  0
 11 29  1  0
 14 30  1  0
 17 31  1  0
 18 32  1  0
M  END
>  <UniqueID>  (11) 
10

>  <SMILES>  (11) 
CNCc1cc2ccc(Cl)cc2c2cc(Br)ccc12

>  <Energy>  (11) 
49.56867508441917

>  <Genealogy>  (11) 
CNCc1cc2ccc(Cl)cc2c2cc(Br)ccc12 (3D coordinates assigned)
CNCc1cc2ccc(Cl)cc2c2cc(Br)ccc12 (optimized conformer: 49.56867508441917 kcal/mol)

>  <smiles>  (11) 
CNCc1cc2ccc(Cl)cc2c2cc(Br)ccc12

>  <score_type>  (11) 
oracle

>  <origin>  (11) 
adg

>  <m_score__min__energy>  (11) 
-8.4399999999999995

>  <m_primary>  (11) 
energy

$$$$
11:0
     RDKit          3D

 43 46  0  0  0  0  0  0  0  0999 V2000
   -6.3770   14.7570  -34.2060 C   0  0  0  0  0  0  0  0  0  0  0  0
   -7.2190   15.8680  -33.9190 O   0  0  0  0  0  0  0  0  0  0  0  0
   -6.7640   17.0990  -33.4230 C   0  0  0  0  0  0  0  0  0  0  0  0
   -7.5910   17.9690  -32.6870 C   0  0  0  0  0  0  0  0  0  0  0  0
   -7.0900   19.1860  -32.2150 C   0  0  0  0  0  0  0  0  0  0  0  0
   -5.7580   19.5570  -32.4650 C   0  0  0  0  0  0  0  0  0  0  0  0
   -5.2260   20.8500  -31.9630 C   0  0  0  0  0  0  0  0  0  0  0  0
   -6.0850   21.9400  -31.7530 C   0  0  0  0  0  0  0  0  0  0  0  0
   -5.5890   23.1520  -31.2720 C   0  0  0  0  0  0  0  0  0  0  0  0
   -4.2240   23.3030  -30.9840 C   0  0  0  0  0  0  0  0  0  0  0  0
   -3.3430   22.2270  -31.2250 C   0  0  0  0  0  0  0  0  0  0  0  0
   -3.8560   21.0030  -31.6960 C   0  0  0  0  0  0  0  0  0  0  0  0
   -1.9280   22.3790  -31.0070 N   0  0  0  0  0  0  0  0  0  0  0  0
   -1.6600   22.4190  -29.5940 C   0  0  0  0  0  0  0  0  0  0  0  0
   -0.9850   21.3530  -28.9730 C   0  0  0  0  0  0  0  0  0  0  0  0
   -0.6540   21.4150  -27.6180 C   0  0  0  0  0  0  0  0  0  0  0  0
   -0.9970   22.5410  -26.8580 C   0  0  0  0  0  0  0  0  0  0  0  0
   -0.5940   22.6310  -25.4170 C   0  0  0  0  0  0  0  0  0  0  0  0
   -1.6660   23.6090  -27.4730 C   0  0  0  0  0  0  0  0  0  0  0  0
   -2.0310   23.5430  -28.8230 C   0  0  0  0  0  0  0  0  0  0  0  0
   -2.7500   24.6470  -29.3900 N   0  0  0  0  0  0  0  0  0  0  0  0
   -3.7370   24.5870  -30.4310 C   0  0  0  0  0  0  0  0  0  0  0  0
   -4.2510   25.6640  -30.8340 O   0  0  0  0  0  0  0  0  0  0  0  0
   -4.9360   18.6830  -33.1980 C   0  0  0  0  0  0  0  0  0  0  0  0
   -5.4380   17.4670  -33.6710 C   0  0  0  0  0  0  0  0  0  0  0  0
   -6.0338   14.3041  -33.2642 H   0  0  0  0  0  0  0  0  0  0  0  0
   -6.9390   14.0116  -34.7878 H   0  0  0  0  0  0  0  0  0  0  0  0
   -5.5074   15.0966  -34.7878 H   0  0  0  0  0  0  0  0  0  0  0  0
   -8.6352   17.6901  -32.4826 H   0  0  0  0  0  0  0  0  0  0  0  0
   -7.7448   19.8594  -31.6425 H   0  0  0  0  0  0  0  0  0  0  0  0
   -7.1586   21.8377  -31.9696 H   0  0  0  0  0  0  0  0  0  0  0  0
   -6.2749   23.9978  -31.1169 H   0  0  0  0  0  0  0  0  0  0  0  0
   -3.1740   20.1551  -31.8570 H   0  0  0  0  0  0  0  0  0  0  0  0
   -1.3960   21.6010  -31.4660 H   0  0  0  0  0  0  0  0  0  0  0  0
   -1.5940   23.2650  -31.4530 H   0  0  0  0  0  0  0  0  0  0  0  0
   -0.7154   20.4626  -29.5599 H   0  0  0  0  0  0  0  0  0  0  0  0
   -0.1218   20.5764  -27.1452 H   0  0  0  0  0  0  0  0  0  0  0  0
   -1.4684   22.4357  -24.7788 H   0  0  0  0  0  0  0  0  0  0  0  0
    0.1868   21.8851  -25.2074 H   0  0  0  0  0  0  0  0  0  0  0  0
   -0.2047   23.6382  -25.2074 H   0  0  0  0  0  0  0  0  0  0  0  0
   -1.9068   24.5089  -26.8880 H   0  0  0  0  0  0  0  0  0  0  0  0
   -3.8904   18.9580  -33.4008 H   0  0  0  0  0  0  0  0  0  0  0  0
   -4.7837   16.7933  -34.2437 H   0  0  0  0  0  0  0  0  0  0  0  0
  1  2  1  0
  2  3  1  0
  3  4  2  0
  4  5  1  0
  5  6  2  0
  6  7  1  0
  7  8  2  0
  8  9  1  0
  9 10  2  0
 10 11  1  0
 11 12  2  0
 11 13  1  0
 13 14  1  0
 14 15  2  0
 15 16  1  0
 16 17  2  0
 17 18  1  0
 17 19  1  0
 19 20  2  0
 20 21  1  0
 21 22  1  0
 22 23  2  0
  6 24  1  0
 24 25  2  0
 25  3  1  0
 12  7  1  0
 20 14  1  0
 22 10  1  0
  1 26  1  0
  1 27  1  0
  1 28  1  0
  4 29  1  0
  5 30  1  0
  8 31  1  0
  9 32  1  0
 12 33  1  0
 13 34  1  0
 13 35  1  0
 15 36  1  0
 16 37  1  0
 18 38  1  0
 18 39  1  0
 18 40  1  0
 19 41  1  0
 24 42  1  0
 25 43  1  0
M  CHG  2  13   1  21  -1
M  END
>  <UniqueID>  (12) 
11

>  <SMILES>  (12) 
COc1ccc(-c2ccc3c(c2)[NH2+]c2ccc(C)cc2[N-]C3=O)cc1

>  <Energy>  (12) 
64.91286988455471

>  <Genealogy>  (12) 
COc1ccc(-c2ccc3c(c2)[NH2+]c2ccc(C)cc2[N-]C3=O)cc1 (protonated)
COc1ccc(-c2ccc3c(c2)[NH2+]c2ccc(C)cc2[N-]C3=O)cc1 (3D coordinates assigned)
COc1ccc(-c2ccc3c(c2)[NH2+]c2ccc(C)cc2[N-]C3=O)cc1 (nonaromatic ring conformer: 64.91286988455471 kcal/mol)

>  <smiles>  (12) 
COc1ccc(-c2ccc3c(c2)Nc2ccc(C)cc2NC3=O)cc1

>  <score_type>  (12) 
oracle

>  <origin>  (12) 
adg

>  <m_score__min__energy>  (12) 
-9.0399999999999991

>  <m_primary>  (12) 
energy

$$$$
12:0
     RDKit          3D

 33 35  0  0  0  0  0  0  0  0999 V2000
   -3.7810   16.2690  -34.0150 C   0  0  0  0  0  0  0  0  0  0  0  0
   -3.7400   17.5820  -34.7910 C   0  0  0  0  0  0  0  0  0  0  0  0
   -4.6020   18.5920  -34.1430 N   0  0  0  0  0  0  0  0  0  0  0  0
   -5.9690   18.5030  -34.2680 C   0  0  0  0  0  0  0  0  0  0  0  0
   -6.4860   17.5830  -34.9620 O   0  0  0  0  0  0  0  0  0  0  0  0
   -6.7920   19.3970  -33.6530 N   0  0  0  0  0  0  0  0  0  0  0  0
   -6.3070   20.3980  -32.8620 C   0  0  0  0  0  0  0  0  0  0  0  0
   -7.1320   21.2690  -32.1800 N   0  0  0  0  0  0  0  0  0  0  0  0
   -8.5730   20.9690  -32.0540 C   0  0  0  0  0  0  0  0  0  0  0  0
   -6.5970   22.4060  -31.5960 C   0  0  0  0  0  0  0  0  0  0  0  0
   -7.4170   23.4490  -31.0960 C   0  0  0  0  0  0  0  0  0  0  0  0
   -6.8590   24.5680  -30.4730 C   0  0  0  0  0  0  0  0  0  0  0  0
   -5.4800   24.6860  -30.3430 C   0  0  0  0  0  0  0  0  0  0  0  0
   -4.6440   23.6980  -30.8580 C   0  0  0  0  0  0  0  0  0  0  0  0
   -5.1860   22.5700  -31.4980 C   0  0  0  0  0  0  0  0  0  0  0  0
   -4.3260   21.6200  -32.0480 C   0  0  0  0  0  0  0  0  0  0  0  0
   -4.8450   20.5420  -32.7580 C   0  0  0  0  0  0  0  0  0  0  0  0
   -4.0350   19.5920  -33.3930 C   0  0  0  0  0  0  0  0  0  0  0  0
   -2.7790   19.6640  -33.2750 O   0  0  0  0  0  0  0  0  0  0  0  0
   -3.7744   16.4807  -32.9356 H   0  0  0  0  0  0  0  0  0  0  0  0
   -4.6968   15.7179  -34.2750 H   0  0  0  0  0  0  0  0  0  0  0  0
   -2.9014   15.6618  -34.2750 H   0  0  0  0  0  0  0  0  0  0  0  0
   -2.7051   17.9537  -34.8195 H   0  0  0  0  0  0  0  0  0  0  0  0
   -4.1066   17.4035  -35.8127 H   0  0  0  0  0  0  0  0  0  0  0  0
   -7.8150   19.3040  -33.8420 H   0  0  0  0  0  0  0  0  0  0  0  0
   -8.8441   20.9126  -30.9894 H   0  0  0  0  0  0  0  0  0  0  0  0
   -9.1570   21.7648  -32.5394 H   0  0  0  0  0  0  0  0  0  0  0  0
   -8.7909   20.0062  -32.5394 H   0  0  0  0  0  0  0  0  0  0  0  0
   -8.5096   23.3760  -31.2003 H   0  0  0  0  0  0  0  0  0  0  0  0
   -7.5147   25.3604  -30.0830 H   0  0  0  0  0  0  0  0  0  0  0  0
   -5.0487   25.5601  -29.8331 H   0  0  0  0  0  0  0  0  0  0  0  0
   -3.5530   23.8012  -30.7633 H   0  0  0  0  0  0  0  0  0  0  0  0
   -3.2383   21.7229  -31.9206 H   0  0  0  0  0  0  0  0  0  0  0  0
  1  2  1  0
  2  3  1  0
  3  4  1  0
  4  5  2  0
  4  6  1  0
  6  7  2  0
  7  8  1  0
  8  9  1  0
  8 10  1  0
 10 11  2  0
 11 12  1  0
 12 13  2  0
 13 14  1  0
 14 15  2  0
 15 16  1  0
 16 17  2  0
 17 18  1  0
 18 19  2  0
 18  3  1  0
 17  7  1  0
 15 10  1  0
  1 20  1  0
  1 21  1  0
  1 22  1  0
  2 23  1  0
  2 24  1  0
  6 25  1  0
  9 26  1  0
  9 27  1  0
  9 28  1  0
 11 29  1  0
 12 30  1  0
 13 31  1  0
 14 32  1  0
 16 33  1  0
M  CHG  1   6   1
M  END
>  <UniqueID>  (13) 
12

>  <SMILES>  (13) 
CCn1c(=O)[nH+]c2n(C)c3ccccc3cc-2c1=O

>  <Energy>  (13) 
54.04412591276983

>  <Genealogy>  (13) 
CCn1c(=O)[nH+]c2n(C)c3ccccc3cc-2c1=O (protonated)
CCn1c(=O)[nH+]c2n(C)c3ccccc3cc-2c1=O (3D coordinates assigned)
CCn1c(=O)[nH+]c2n(C)c3ccccc3cc-2c1=O (optimized conformer: 54.04412591276983 kcal/mol)

>  <smiles>  (13) 
CCn1c(=O)nc2n(C)c3ccccc3cc-2c1=O

>  <score_type>  (13) 
oracle

>  <origin>  (13) 
adg

>  <m_score__min__energy>  (13) 
-6.5199999999999996

>  <m_primary>  (13) 
energy

$$$$
13:0
     RDKit          3D

 37 36  0  0  0  0  0  0  0  0999 V2000
   -6.1150   17.4260  -34.2190 C   0  0  0  0  0  0  0  0  0  0  0  0
   -6.0750   18.9530  -34.2250 C   0  0  0  0  0  0  0  0  0  0  0  0
   -7.2390   19.5160  -33.5210 N   0  0  0  0  0  0  0  0  0  0  0  0
   -7.6650   18.6590  -32.3900 C   0  0  0  0  0  0  0  0  0  0  0  0
   -8.9180   19.1960  -31.6670 C   0  0  0  0  0  0  0  0  0  0  0  0
   -9.1110   20.7180  -31.7800 C   0  0  0  0  0  0  0  0  0  0  0  0
   -7.9950   21.5150  -31.0800 C   0  0  0  0  0  0  0  0  0  0  0  0
   -6.9660   21.9470  -32.0550 N   0  0  0  0  0  0  0  0  0  0  0  0
   -7.0540   23.4020  -32.3450 C   0  0  0  0  0  0  0  0  0  0  0  0
   -6.4780   24.1910  -31.1760 C   0  0  0  0  0  0  0  0  0  0  0  0
   -5.6150   21.5600  -31.5900 C   0  0  0  0  0  0  0  0  0  0  0  0
   -4.5890   21.6920  -32.7160 C   0  0  0  0  0  0  0  0  0  0  0  0
   -6.1245   17.0635  -33.1805 H   0  0  0  0  0  0  0  0  0  0  0  0
   -7.0225   17.0809  -34.7361 H   0  0  0  0  0  0  0  0  0  0  0  0
   -5.2268   17.0339  -34.7361 H   0  0  0  0  0  0  0  0  0  0  0  0
   -5.1550   19.2903  -33.7251 H   0  0  0  0  0  0  0  0  0  0  0  0
   -6.0968   19.2992  -35.2689 H   0  0  0  0  0  0  0  0  0  0  0  0
   -8.0220   19.6640  -34.1990 H   0  0  0  0  0  0  0  0  0  0  0  0
   -6.9700   20.4550  -33.1460 H   0  0  0  0  0  0  0  0  0  0  0  0
   -7.8869   17.6532  -32.7762 H   0  0  0  0  0  0  0  0  0  0  0  0
   -6.8431   18.6453  -31.6590 H   0  0  0  0  0  0  0  0  0  0  0  0
   -9.8021   18.7037  -32.0984 H   0  0  0  0  0  0  0  0  0  0  0  0
   -8.7840   18.9742  -30.5980 H   0  0  0  0  0  0  0  0  0  0  0  0
   -9.1237   20.9925  -32.8451 H   0  0  0  0  0  0  0  0  0  0  0  0
  -10.0593   20.9693  -31.2823 H   0  0  0  0  0  0  0  0  0  0  0  0
   -8.4325   22.4029  -30.6002 H   0  0  0  0  0  0  0  0  0  0  0  0
   -7.5188   20.8688  -30.3278 H   0  0  0  0  0  0  0  0  0  0  0  0
   -6.4824   23.6289  -33.2570 H   0  0  0  0  0  0  0  0  0  0  0  0
   -8.1074   23.6825  -32.4918 H   0  0  0  0  0  0  0  0  0  0  0  0
   -6.8086   23.7381  -30.2296 H   0  0  0  0  0  0  0  0  0  0  0  0
   -5.3793   24.1727  -31.2271 H   0  0  0  0  0  0  0  0  0  0  0  0
   -6.8302   25.2319  -31.2271 H   0  0  0  0  0  0  0  0  0  0  0  0
   -5.3204   22.2144  -30.7564 H   0  0  0  0  0  0  0  0  0  0  0  0
   -5.6442   20.5098  -31.2639 H   0  0  0  0  0  0  0  0  0  0  0  0
   -3.5855   21.8211  -32.2844 H   0  0  0  0  0  0  0  0  0  0  0  0
   -4.6071   20.7841  -33.3368 H   0  0  0  0  0  0  0  0  0  0  0  0
   -4.8363   22.5657  -33.3368 H   0  0  0  0  0  0  0  0  0  0  0  0
  1  2  1  0
  2  3  1  0
  3  4  1  0
  4  5  1  0
  5  6  1  0
  6  7  1  0
  7  8  1  0
  8  9  1  0
  9 10  1  0
  8 11  1  0
 11 12  1  0
  1 13  1  0
  1 14  1  0
  1 15  1  0
  2 16  1  0
  2 17  1  0
  3 18  1  0
  3 19  1  0
  4 20  1  0
  4 21  1  0
  5 22  1  0
  5 23  1  0
  6 24  1  0
  6 25  1  0
  7 26  1  0
  7 27  1  0
  9 28  1  0
  9 29  1  0
 10 30  1  0
 10 31  1  0
 10 32  1  0
 11 33  1  0
 11 34  1  0
 12 35  1  0
 12 36  1  0
 12 37  1  0
M  CHG  1   3   1
M  END
>  <UniqueID>  (14) 
13

>  <SMILES>  (14) 
CC[NH2+]CCCCN(CC)CC

>  <Energy>  (14) 
26.43655208019387

>  <Genealogy>  (14) 
CC[NH2+]CCCCN(CC)CC (protonated)
CC[NH2+]CCCCN(CC)CC (3D coordinates assigned)
CC[NH2+]CCCCN(CC)CC (optimized conformer: 26.43655208019387 kcal/mol)

>  <smiles>  (14) 
CCNCCCCN(CC)CC

>  <score_type>  (14) 
oracle

>  <origin>  (14) 
adg

>  <m_score__min__energy>  (14) 
-4.1299999999999999

>  <m_primary>  (14) 
energy

$$$$
14:0
     RDKit          3D

 52 54  0  0  0  0  0  0  0  0999 V2000
   -6.5920   25.2920  -29.7240 C   0  0  0  0  0  0  0  0  0  0  0  0
   -5.3440   25.7650  -30.4700 C   0  0  0  0  0  0  0  0  0  0  0  0
   -4.4230   24.6460  -30.7740 N   0  0  0  0  0  0  0  0  0  0  0  0
   -3.4190   24.3600  -29.7200 C   0  0  0  0  0  0  0  0  0  0  0  0
   -3.9740   23.5640  -28.5310 C   0  0  0  0  0  0  0  0  0  0  0  0
   -5.1440   23.4320  -31.2260 C   0  0  0  0  0  0  0  0  0  0  0  0
   -4.1510   22.4280  -31.8130 C   0  0  0  0  0  0  0  0  0  0  0  0
   -4.6330   21.8950  -33.0840 N   0  0  0  0  0  0  0  0  0  0  0  0
   -5.1650   20.5610  -33.1480 C   0  0  0  0  0  0  0  0  0  0  0  0
   -6.5040   20.3180  -32.7970 C   0  0  0  0  0  0  0  0  0  0  0  0
   -7.3280   21.3630  -32.3290 C   0  0  0  0  0  0  0  0  0  0  0  0
   -8.6380   21.1140  -31.9310 C   0  0  0  0  0  0  0  0  0  0  0  0
   -9.1440   19.8210  -31.9750 C   0  0  0  0  0  0  0  0  0  0  0  0
   -8.3500   18.7710  -32.4370 C   0  0  0  0  0  0  0  0  0  0  0  0
   -7.0230   18.9990  -32.8880 C   0  0  0  0  0  0  0  0  0  0  0  0
   -6.2370   17.9770  -33.3840 N   0  0  0  0  0  0  0  0  0  0  0  0
   -6.8530   16.6810  -33.7490 C   0  0  0  0  0  0  0  0  0  0  0  0
   -4.8810   18.1720  -33.5670 C   0  0  0  0  0  0  0  0  0  0  0  0
   -3.9980   17.0910  -33.8180 C   0  0  0  0  0  0  0  0  0  0  0  0
   -2.6390   17.3050  -34.0820 C   0  0  0  0  0  0  0  0  0  0  0  0
   -1.7190   16.1430  -34.3180 C   0  0  0  0  0  0  0  0  0  0  0  0
   -2.1300   18.6050  -34.0560 C   0  0  0  0  0  0  0  0  0  0  0  0
   -2.9640   19.6800  -33.7660 C   0  0  0  0  0  0  0  0  0  0  0  0
   -4.3330   19.4810  -33.4930 C   0  0  0  0  0  0  0  0  0  0  0  0
   -6.4181   25.3579  -28.6398 H   0  0  0  0  0  0  0  0  0  0  0  0
   -7.4462   25.9288  -29.9977 H   0  0  0  0  0  0  0  0  0  0  0  0
   -6.8096   24.2491  -29.9977 H   0  0  0  0  0  0  0  0  0  0  0  0
   -5.6523   26.2379  -31.4141 H   0  0  0  0  0  0  0  0  0  0  0  0
   -4.8112   26.4780  -29.8237 H   0  0  0  0  0  0  0  0  0  0  0  0
   -2.5988   23.7821  -30.1709 H   0  0  0  0  0  0  0  0  0  0  0  0
   -3.0850   25.3311  -29.3257 H   0  0  0  0  0  0  0  0  0  0  0  0
   -3.6471   24.0329  -27.5912 H   0  0  0  0  0  0  0  0  0  0  0  0
   -5.0731   23.5580  -28.5748 H   0  0  0  0  0  0  0  0  0  0  0  0
   -3.5996   22.5306  -28.5748 H   0  0  0  0  0  0  0  0  0  0  0  0
   -5.6622   22.9752  -30.3700 H   0  0  0  0  0  0  0  0  0  0  0  0
   -5.8770   23.7110  -31.9973 H   0  0  0  0  0  0  0  0  0  0  0  0
   -3.1862   22.9304  -31.9767 H   0  0  0  0  0  0  0  0  0  0  0  0
   -4.0369   21.5941  -31.1048 H   0  0  0  0  0  0  0  0  0  0  0  0
   -4.9340   22.5730  -33.8220 H   0  0  0  0  0  0  0  0  0  0  0  0
   -6.9301   22.3873  -32.2780 H   0  0  0  0  0  0  0  0  0  0  0  0
   -9.2731   21.9413  -31.5814 H   0  0  0  0  0  0  0  0  0  0  0  0
  -10.1745   19.6243  -31.6443 H   0  0  0  0  0  0  0  0  0  0  0  0
   -8.7586   17.7498  -32.4521 H   0  0  0  0  0  0  0  0  0  0  0  0
   -7.1153   16.1292  -32.8343 H   0  0  0  0  0  0  0  0  0  0  0  0
   -7.7618   16.8611  -34.3419 H   0  0  0  0  0  0  0  0  0  0  0  0
   -6.1395   16.0899  -34.3419 H   0  0  0  0  0  0  0  0  0  0  0  0
   -4.3885   16.0627  -33.8051 H   0  0  0  0  0  0  0  0  0  0  0  0
   -1.3930   15.7312  -33.3515 H   0  0  0  0  0  0  0  0  0  0  0  0
   -2.2490   15.3655  -34.8878 H   0  0  0  0  0  0  0  0  0  0  0  0
   -0.8407   16.4805  -34.8878 H   0  0  0  0  0  0  0  0  0  0  0  0
   -1.0645   18.7799  -34.2658 H   0  0  0  0  0  0  0  0  0  0  0  0
   -2.5499   20.6990  -33.7494 H   0  0  0  0  0  0  0  0  0  0  0  0
  1  2  1  0
  2  3  1  0
  3  4  1  0
  4  5  1  0
  3  6  1  0
  6  7  1  0
  7  8  1  0
  8  9  1  0
  9 10  2  0
 10 11  1  0
 11 12  2  0
 12 13  1  0
 13 14  2  0
 14 15  1  0
 15 16  2  0
 16 17  1  0
 16 18  1  0
 18 19  2  0
 19 20  1  0
 20 21  1  0
 20 22  2  0
 22 23  1  0
 23 24  2  0
 24  9  1  0
 15 10  1  0
 24 18  1  0
  1 25  1  0
  1 26  1  0
  1 27  1  0
  2 28  1  0
  2 29  1  0
  4 30  1  0
  4 31  1  0
  5 32  1  0
  5 33  1  0
  5 34  1  0
  6 35  1  0
  6 36  1  0
  7 37  1  0
  7 38  1  0
  8 39  1  0
 11 40  1  0
 12 41  1  0
 13 42  1  0
 14 43  1  0
 17 44  1  0
 17 45  1  0
 17 46  1  0
 19 47  1  0
 21 48  1  0
 21 49  1  0
 21 50  1  0
 22 51  1  0
 23 52  1  0
M  CHG  1  16   1
M  END
>  <UniqueID>  (15) 
14

>  <SMILES>  (15) 
CCN(CC)CCNc1c2ccccc2[n+](C)c2cc(C)ccc12

>  <Energy>  (15) 
79.00876120024157

>  <Genealogy>  (15) 
CCN(CC)CCNc1c2ccccc2[n+](C)c2cc(C)ccc12 (3D coordinates assigned)
CCN(CC)CCNc1c2ccccc2[n+](C)c2cc(C)ccc12 (optimized conformer: 79.00876120024157 kcal/mol)

>  <smiles>  (15) 
CCN(CC)CCNc1c2ccccc2[n+](C)c2cc(C)ccc12

>  <score_type>  (15) 
oracle

>  <origin>  (15) 
adg

>  <m_score__min__energy>  (15) 
-8.5299999999999994

>  <m_primary>  (15) 
energy

$$$$
15:0
     RDKit          3D

 39 40  0  0  0  0  0  0  0  0999 V2000
   -6.0410   18.7990  -33.6050 C   0  0  0  0  0  0  0  0  0  0  0  0
   -6.6260   20.0930  -33.6900 O   0  0  0  0  0  0  0  0  0  0  0  0
   -6.3990   21.1310  -32.7720 C   0  0  0  0  0  0  0  0  0  0  0  0
   -5.1190   21.6820  -32.5700 C   0  0  0  0  0  0  0  0  0  0  0  0
   -4.9300   22.7110  -31.6460 C   0  0  0  0  0  0  0  0  0  0  0  0
   -6.0110   23.2020  -30.9020 C   0  0  0  0  0  0  0  0  0  0  0  0
   -5.8120   24.3290  -29.9210 C   0  0  0  0  0  0  0  0  0  0  0  0
   -4.9550   25.4460  -30.5190 C   0  0  0  0  0  0  0  0  0  0  0  0
   -3.5440   25.0780  -30.4770 N   0  0  0  0  0  0  0  0  0  0  0  0
   -2.7940   24.8410  -29.2800 C   0  0  0  0  0  0  0  0  0  0  0  0
   -1.8890   25.6600  -28.9660 O   0  0  0  0  0  0  0  0  0  0  0  0
   -3.0060   23.6150  -28.4300 C   0  0  0  0  0  0  0  0  0  0  0  0
   -2.3550   22.4180  -29.0520 C   0  0  0  0  0  0  0  0  0  0  0  0
   -1.7070   22.3880  -30.2820 C   0  0  0  0  0  0  0  0  0  0  0  0
   -1.1310   21.1440  -30.5720 C   0  0  0  0  0  0  0  0  0  0  0  0
   -1.3120   20.1980  -29.5690 C   0  0  0  0  0  0  0  0  0  0  0  0
   -2.1870   20.9120  -28.3190 S   0  0  0  0  0  0  0  0  0  0  0  0
   -7.2900   22.6650  -31.1080 C   0  0  0  0  0  0  0  0  0  0  0  0
   -7.4900   21.6270  -32.0410 C   0  0  0  0  0  0  0  0  0  0  0  0
   -8.7550   21.0630  -32.2670 O   0  0  0  0  0  0  0  0  0  0  0  0
   -9.0900   19.7040  -32.0090 C   0  0  0  0  0  0  0  0  0  0  0  0
   -5.9158   18.5220  -32.5479 H   0  0  0  0  0  0  0  0  0  0  0  0
   -6.6959   18.0673  -34.1007 H   0  0  0  0  0  0  0  0  0  0  0  0
   -5.0591   18.8072  -34.1007 H   0  0  0  0  0  0  0  0  0  0  0  0
   -4.2624   21.2990  -33.1441 H   0  0  0  0  0  0  0  0  0  0  0  0
   -3.9270   23.1387  -31.5011 H   0  0  0  0  0  0  0  0  0  0  0  0
   -6.7941   24.7405  -29.6449 H   0  0  0  0  0  0  0  0  0  0  0  0
   -5.2927   23.9303  -29.0370 H   0  0  0  0  0  0  0  0  0  0  0  0
   -5.2554   25.6143  -31.5637 H   0  0  0  0  0  0  0  0  0  0  0  0
   -5.1033   26.3645  -29.9321 H   0  0  0  0  0  0  0  0  0  0  0  0
   -2.5700   23.7863  -27.4347 H   0  0  0  0  0  0  0  0  0  0  0  0
   -4.0864   23.4257  -28.3471 H   0  0  0  0  0  0  0  0  0  0  0  0
   -1.6521   23.2533  -30.9589 H   0  0  0  0  0  0  0  0  0  0  0  0
   -0.5870   20.9354  -31.5050 H   0  0  0  0  0  0  0  0  0  0  0  0
   -0.9463   19.1607  -29.5885 H   0  0  0  0  0  0  0  0  0  0  0  0
   -8.1445   23.0569  -30.5368 H   0  0  0  0  0  0  0  0  0  0  0  0
   -9.1313   19.5364  -30.9226 H   0  0  0  0  0  0  0  0  0  0  0  0
  -10.0708   19.4776  -32.4525 H   0  0  0  0  0  0  0  0  0  0  0  0
   -8.3268   19.0477  -32.4525 H   0  0  0  0  0  0  0  0  0  0  0  0
  1  2  1  0
  2  3  1  0
  3  4  2  0
  4  5  1  0
  5  6  2  0
  6  7  1  0
  7  8  1  0
  8  9  1  0
  9 10  1  0
 10 11  2  0
 10 12  1  0
 12 13  1  0
 13 14  2  0
 14 15  1  0
 15 16  2  0
 16 17  1  0
  6 18  1  0
 18 19  2  0
 19 20  1  0
 20 21  1  0
 19  3  1  0
 17 13  1  0
  1 22  1  0
  1 23  1  0
  1 24  1  0
  4 25  1  0
  5 26  1  0
  7 27  1  0
  7 28  1  0
  8 29  1  0
  8 30  1  0
 12 31  1  0
 12 32  1  0
 14 33  1  0
 15 34  1  0
 16 35  1  0
 18 36  1  0
 21 37  1  0
 21 38  1  0
 21 39  1  0
M  CHG  1   9  -1
M  END
>  <UniqueID>  (16) 
15

>  <SMILES>  (16) 
COc1ccc(CC[N-]C(=O)Cc2cccs2)cc1OC

>  <Energy>  (16) 
58.017448550539065

>  <Genealogy>  (16) 
COc1ccc(CC[N-]C(=O)Cc2cccs2)cc1OC (protonated)
COc1ccc(CC[N-]C(=O)Cc2cccs2)cc1OC (3D coordinates assigned)
COc1ccc(CC[N-]C(=O)Cc2cccs2)cc1OC (optimized conformer: 58.017448550539065 kcal/mol)

>  <smiles>  (16) 
COc1ccc(CCNC(=O)Cc2cccs2)cc1OC

>  <score_type>  (16) 
oracle

>  <origin>  (16) 
adg

>  <m_score__min__energy>  (16) 
-8.3599999999999994

>  <m_primary>  (16) 
energy

$$$$
16:0
     RDKit          3D

 58 61  0  0  0  0  0  0  0  0999 V2000
   -2.8530   13.6870  -32.1250 C   0  0  0  0  0  0  0  0  0  0  0  0
   -3.7050   14.5940  -32.7900 O   0  0  0  0  0  0  0  0  0  0  0  0
   -4.9350   13.9710  -33.1160 C   0  0  0  0  0  0  0  0  0  0  0  0
   -5.7690   14.8470  -34.0580 C   0  0  0  0  0  0  0  0  0  0  0  0
   -5.7590   16.2790  -33.6170 C   0  0  0  0  0  0  0  0  0  0  0  0
   -6.8630   17.0900  -33.4600 C   0  0  0  0  0  0  0  0  0  0  0  0
   -6.4360   18.3150  -33.0970 N   0  0  0  0  0  0  0  0  0  0  0  0
   -7.2860   19.4090  -32.7130 C   0  0  0  0  0  0  0  0  0  0  0  0
   -8.6130   19.1660  -32.3300 C   0  0  0  0  0  0  0  0  0  0  0  0
   -9.4460   20.2270  -31.9700 C   0  0  0  0  0  0  0  0  0  0  0  0
   -8.9550   21.5340  -31.9630 C   0  0  0  0  0  0  0  0  0  0  0  0
   -7.6140   21.7920  -32.2920 C   0  0  0  0  0  0  0  0  0  0  0  0
   -7.0750   23.2090  -32.2610 C   0  0  0  0  0  0  0  0  0  0  0  0
   -6.1270   23.4710  -31.1520 N   0  0  0  0  0  0  0  0  0  0  0  0
   -6.4120   24.6950  -30.3700 C   0  0  0  0  0  0  0  0  0  0  0  0
   -5.3520   25.7820  -30.6210 C   0  0  0  0  0  0  0  0  0  0  0  0
   -4.0290   25.3690  -30.2990 O   0  0  0  0  0  0  0  0  0  0  0  0
   -3.7980   23.9770  -30.4780 C   0  0  0  0  0  0  0  0  0  0  0  0
   -4.7070   23.3300  -31.5350 C   0  0  0  0  0  0  0  0  0  0  0  0
   -6.7900   20.7220  -32.6850 C   0  0  0  0  0  0  0  0  0  0  0  0
   -5.0800   18.2330  -33.0600 C   0  0  0  0  0  0  0  0  0  0  0  0
   -4.1540   19.3470  -32.7660 C   0  0  0  0  0  0  0  0  0  0  0  0
   -3.4970   20.0460  -33.7910 C   0  0  0  0  0  0  0  0  0  0  0  0
   -2.6340   21.0920  -33.4640 C   0  0  0  0  0  0  0  0  0  0  0  0
   -2.4180   21.4230  -32.1260 C   0  0  0  0  0  0  0  0  0  0  0  0
   -3.0700   20.6920  -31.1250 C   0  0  0  0  0  0  0  0  0  0  0  0
   -2.8440   21.0170  -29.6830 C   0  0  0  0  0  0  0  0  0  0  0  0
   -3.9100   19.6780  -31.4680 N   0  0  0  0  0  0  0  0  0  0  0  0
   -4.6470   16.9950  -33.3710 N   0  0  0  0  0  0  0  0  0  0  0  0
   -2.9663   13.8076  -31.0375 H   0  0  0  0  0  0  0  0  0  0  0  0
   -3.1189   12.6582  -32.4095 H   0  0  0  0  0  0  0  0  0  0  0  0
   -1.8096   13.8881  -32.4095 H   0  0  0  0  0  0  0  0  0  0  0  0
   -4.7302   13.0089  -33.6084 H   0  0  0  0  0  0  0  0  0  0  0  0
   -5.5046   13.8186  -32.1874 H   0  0  0  0  0  0  0  0  0  0  0  0
   -5.3508   14.7813  -35.0733 H   0  0  0  0  0  0  0  0  0  0  0  0
   -6.8076   14.4849  -34.0421 H   0  0  0  0  0  0  0  0  0  0  0  0
   -7.9109   16.7889  -33.6059 H   0  0  0  0  0  0  0  0  0  0  0  0
   -8.9988   18.1360  -32.3132 H   0  0  0  0  0  0  0  0  0  0  0  0
  -10.4922   20.0327  -31.6911 H   0  0  0  0  0  0  0  0  0  0  0  0
   -9.6227   22.3671  -31.6981 H   0  0  0  0  0  0  0  0  0  0  0  0
   -6.5566   23.4024  -33.2117 H   0  0  0  0  0  0  0  0  0  0  0  0
   -7.9376   23.8735  -32.1050 H   0  0  0  0  0  0  0  0  0  0  0  0
   -7.3990   25.0838  -30.6610 H   0  0  0  0  0  0  0  0  0  0  0  0
   -6.3942   24.4347  -29.3014 H   0  0  0  0  0  0  0  0  0  0  0  0
   -5.3814   26.0579  -31.6854 H   0  0  0  0  0  0  0  0  0  0  0  0
   -5.5956   26.6297  -29.9637 H   0  0  0  0  0  0  0  0  0  0  0  0
   -2.7517   23.8356  -30.7865 H   0  0  0  0  0  0  0  0  0  0  0  0
   -4.0228   23.4882  -29.5186 H   0  0  0  0  0  0  0  0  0  0  0  0
   -4.5428   23.8231  -32.5045 H   0  0  0  0  0  0  0  0  0  0  0  0
   -4.4625   22.2600  -31.6078 H   0  0  0  0  0  0  0  0  0  0  0  0
   -5.7463   20.9160  -32.9733 H   0  0  0  0  0  0  0  0  0  0  0  0
   -3.6614   19.7711  -34.8433 H   0  0  0  0  0  0  0  0  0  0  0  0
   -2.1245   21.6550  -34.2599 H   0  0  0  0  0  0  0  0  0  0  0  0
   -1.7426   22.2495  -31.8600 H   0  0  0  0  0  0  0  0  0  0  0  0
   -3.3596   20.2756  -29.0549 H   0  0  0  0  0  0  0  0  0  0  0  0
   -1.7657   20.9945  -29.4667 H   0  0  0  0  0  0  0  0  0  0  0  0
   -3.2405   22.0200  -29.4667 H   0  0  0  0  0  0  0  0  0  0  0  0
   -3.6570   16.6660  -33.4370 H   0  0  0  0  0  0  0  0  0  0  0  0
  1  2  1  0
  2  3  1  0
  3  4  1  0
  4  5  1  0
  5  6  2  0
  6  7  1  0
  7  8  1  0
  8  9  2  0
  9 10  1  0
 10 11  2  0
 11 12  1  0
 12 13  1  0
 13 14  1  0
 14 15  1  0
 15 16  1  0
 16 17  1  0
 17 18  1  0
 18 19  1  0
 12 20  2  0
  7 21  1  0
 21 22  1  0
 22 23  2  0
 23 24  1  0
 24 25  2  0
 25 26  1  0
 26 27  1  0
 26 28  2  0
 21 29  2  0
 29  5  1  0
 20  8  1  0
 28 22  1  0
 19 14  1  0
  1 30  1  0
  1 31  1  0
  1 32  1  0
  3 33  1  0
  3 34  1  0
  4 35  1  0
  4 36  1  0
  6 37  1  0
  9 38  1  0
 10 39  1  0
 11 40  1  0
 13 41  1  0
 13 42  1  0
 15 43  1  0
 15 44  1  0
 16 45  1  0
 16 46  1  0
 18 47  1  0
 18 48  1  0
 19 49  1  0
 19 50  1  0
 20 51  1  0
 23 52  1  0
 24 53  1  0
 25 54  1  0
 27 55  1  0
 27 56  1  0
 27 57  1  0
 29 58  1  0
M  CHG  1  29   1
M  END
>  <UniqueID>  (17) 
16

>  <SMILES>  (17) 
COCCc1cn(-c2cccc(CN3CCOCC3)c2)c(-c2cccc(C)n2)[nH+]1

>  <Energy>  (17) 
114.0522602041105

>  <Genealogy>  (17) 
COCCc1cn(-c2cccc(CN3CCOCC3)c2)c(-c2cccc(C)n2)[nH+]1 (protonated)
COCCc1cn(-c2cccc(CN3CCOCC3)c2)c(-c2cccc(C)n2)[nH+]1 (3D coordinates assigned)
COCCc1cn(-c2cccc(CN3CCOCC3)c2)c(-c2cccc(C)n2)[nH+]1 (nonaromatic ring conformer: 114.0522602041105 kcal/mol)

>  <smiles>  (17) 
COCCc1cn(-c2cccc(CN3CCOCC3)c2)c(-c2cccc(C)n2)n1

>  <score_type>  (17) 
oracle

>  <origin>  (17) 
adg

>  <m_score__min__energy>  (17) 
-8.5099999999999998

>  <m_primary>  (17) 
energy

$$$$
17:0
     RDKit          3D

 48 49  0  0  0  0  0  0  0  0999 V2000
   -1.3390   25.5450  -25.8890 C   0  0  0  0  0  0  0  0  0  0  0  0
   -1.8250   24.8460  -27.1320 C   0  0  0  0  0  0  0  0  0  0  0  0
   -0.8970   24.4630  -28.1130 C   0  0  0  0  0  0  0  0  0  0  0  0
   -1.3170   23.8120  -29.2730 C   0  0  0  0  0  0  0  0  0  0  0  0
   -2.6740   23.5400  -29.4840 C   0  0  0  0  0  0  0  0  0  0  0  0
   -3.0770   22.8450  -30.6780 N   0  0  0  0  0  0  0  0  0  0  0  0
   -4.3360   23.0650  -31.3340 C   0  0  0  0  0  0  0  0  0  0  0  0
   -4.8940   24.1930  -31.2430 O   0  0  0  0  0  0  0  0  0  0  0  0
   -4.9510   22.0190  -32.1190 N   0  0  0  0  0  0  0  0  0  0  0  0
   -4.2710   20.7300  -32.3250 C   0  0  0  0  0  0  0  0  0  0  0  0
   -3.2040   20.8450  -33.4250 C   0  0  0  0  0  0  0  0  0  0  0  0
   -1.8780   21.1250  -32.8320 N   0  0  0  0  0  0  0  0  0  0  0  0
   -0.8330   21.1610  -33.8710 C   0  0  0  0  0  0  0  0  0  0  0  0
   -1.5370   20.0990  -31.8320 C   0  0  0  0  0  0  0  0  0  0  0  0
   -6.3280   22.1800  -32.6090 C   0  0  0  0  0  0  0  0  0  0  0  0
   -7.1150   20.9320  -32.3600 C   0  0  0  0  0  0  0  0  0  0  0  0
   -7.0400   19.7610  -33.1040 C   0  0  0  0  0  0  0  0  0  0  0  0
   -7.9660   18.7920  -32.6980 C   0  0  0  0  0  0  0  0  0  0  0  0
   -8.7760   19.2010  -31.6470 C   0  0  0  0  0  0  0  0  0  0  0  0
   -8.3440   20.7690  -31.2250 S   0  0  0  0  0  0  0  0  0  0  0  0
   -3.6060   23.8970  -28.4960 C   0  0  0  0  0  0  0  0  0  0  0  0
   -3.1960   24.5520  -27.3220 C   0  0  0  0  0  0  0  0  0  0  0  0
   -4.2240   24.9250  -26.2860 C   0  0  0  0  0  0  0  0  0  0  0  0
   -1.7092   25.0126  -25.0005 H   0  0  0  0  0  0  0  0  0  0  0  0
   -0.2391   25.5537  -25.8795 H   0  0  0  0  0  0  0  0  0  0  0  0
   -1.7139   26.5791  -25.8795 H   0  0  0  0  0  0  0  0  0  0  0  0
    0.1716   24.6783  -27.9656 H   0  0  0  0  0  0  0  0  0  0  0  0
   -0.5761   23.5100  -30.0279 H   0  0  0  0  0  0  0  0  0  0  0  0
   -2.3880   22.2050  -31.1300 H   0  0  0  0  0  0  0  0  0  0  0  0
   -3.7885   20.4227  -31.3854 H   0  0  0  0  0  0  0  0  0  0  0  0
   -5.0172   19.9835  -32.6346 H   0  0  0  0  0  0  0  0  0  0  0  0
   -3.1579   19.8994  -33.9851 H   0  0  0  0  0  0  0  0  0  0  0  0
   -3.4746   21.6714  -34.0987 H   0  0  0  0  0  0  0  0  0  0  0  0
    0.1575   21.1951  -33.3938 H   0  0  0  0  0  0  0  0  0  0  0  0
   -0.9074   20.2598  -34.4973 H   0  0  0  0  0  0  0  0  0  0  0  0
   -0.9693   22.0550  -34.4973 H   0  0  0  0  0  0  0  0  0  0  0  0
   -1.6742   20.5118  -30.8217 H   0  0  0  0  0  0  0  0  0  0  0  0
   -2.1934   19.2262  -31.9637 H   0  0  0  0  0  0  0  0  0  0  0  0
   -0.4887   19.7927  -31.9637 H   0  0  0  0  0  0  0  0  0  0  0  0
   -6.8045   23.0208  -32.0837 H   0  0  0  0  0  0  0  0  0  0  0  0
   -6.3029   22.3783  -33.6907 H   0  0  0  0  0  0  0  0  0  0  0  0
   -6.3264   19.6104  -33.9275 H   0  0  0  0  0  0  0  0  0  0  0  0
   -8.0443   17.8003  -33.1675 H   0  0  0  0  0  0  0  0  0  0  0  0
   -9.5659   18.6008  -31.1717 H   0  0  0  0  0  0  0  0  0  0  0  0
   -4.6703   23.6610  -28.6428 H   0  0  0  0  0  0  0  0  0  0  0  0
   -3.8037   24.7725  -25.2809 H   0  0  0  0  0  0  0  0  0  0  0  0
   -4.5031   25.9817  -26.4103 H   0  0  0  0  0  0  0  0  0  0  0  0
   -5.1158   24.2931  -26.4103 H   0  0  0  0  0  0  0  0  0  0  0  0
  1  2  1  0
  2  3  2  0
  3  4  1  0
  4  5  2  0
  5  6  1  0
  6  7  1  0
  7  8  2  0
  7  9  1  0
  9 10  1  0
 10 11  1  0
 11 12  1  0
 12 13  1  0
 12 14  1  0
  9 15  1  0
 15 16  1  0
 16 17  2  0
 17 18  1  0
 18 19  2  0
 19 20  1  0
  5 21  1  0
 21 22  2  0
 22 23  1  0
 22  2  1  0
 20 16  1  0
  1 24  1  0
  1 25  1  0
  1 26  1  0
  3 27  1  0
  4 28  1  0
  6 29  1  0
 10 30  1  0
 10 31  1  0
 11 32  1  0
 11 33  1  0
 13 34  1  0
 13 35  1  0
 13 36  1  0
 14 37  1  0
 14 38  1  0
 14 39  1  0
 15 40  1  0
 15 41  1  0
 17 42  1  0
 18 43  1  0
 19 44  1  0
 21 45  1  0
 23 46  1  0
 23 47  1  0
 23 48  1  0
M  END
>  <UniqueID>  (18) 
17

>  <SMILES>  (18) 
Cc1ccc(NC(=O)N(CCN(C)C)Cc2cccs2)cc1C

>  <Energy>  (18) 
72.26390926606173

>  <Genealogy>  (18) 
Cc1ccc(NC(=O)N(CCN(C)C)Cc2cccs2)cc1C (3D coordinates assigned)
Cc1ccc(NC(=O)N(CCN(C)C)Cc2cccs2)cc1C (optimized conformer: 72.26390926606173 kcal/mol)

>  <smiles>  (18) 
Cc1ccc(NC(=O)N(CCN(C)C)Cc2cccs2)cc1C

>  <score_type>  (18) 
oracle

>  <origin>  (18) 
adg

>  <m_score__min__energy>  (18) 
-7.3700000000000001

>  <m_primary>  (18) 
energy

$$$$
18:0
     RDKit          3D

 50 52  0  0  0  0  0  0  0  0999 V2000
   -8.8880   18.5640  -31.9860 C   0  0  0  0  0  0  0  0  0  0  0  0
   -7.5750   18.4240  -31.8070 C   0  0  0  0  0  0  0  0  0  0  0  0
   -6.6420   18.2610  -32.9740 C   0  0  0  0  0  0  0  0  0  0  0  0
   -5.2890   18.7300  -32.6270 N   0  0  0  0  0  0  0  0  0  0  0  0
   -4.5570   19.1540  -33.8440 C   0  0  0  0  0  0  0  0  0  0  0  0
   -3.3600   20.0370  -33.4830 C   0  0  0  0  0  0  0  0  0  0  0  0
   -3.7990   21.2900  -32.8220 N   0  0  0  0  0  0  0  0  0  0  0  0
   -2.7290   22.0010  -32.0820 C   0  0  0  0  0  0  0  0  0  0  0  0
   -2.9680   22.1110  -30.5820 C   0  0  0  0  0  0  0  0  0  0  0  0
   -2.5060   21.0800  -29.7410 C   0  0  0  0  0  0  0  0  0  0  0  0
   -2.7270   21.1270  -28.3640 C   0  0  0  0  0  0  0  0  0  0  0  0
   -2.1060   19.7060  -27.2450 Br  0  0  0  0  0  0  0  0  0  0  0  0
   -3.3870   22.2170  -27.8030 C   0  0  0  0  0  0  0  0  0  0  0  0
   -3.8080   23.2730  -28.6120 C   0  0  0  0  0  0  0  0  0  0  0  0
   -3.5920   23.2460  -30.0060 C   0  0  0  0  0  0  0  0  0  0  0  0
   -3.9340   24.3330  -30.8300 O   0  0  0  0  0  0  0  0  0  0  0  0
   -5.1910   25.0130  -30.8590 C   0  0  0  0  0  0  0  0  0  0  0  0
   -6.3210   24.0260  -30.9730 C   0  0  0  0  0  0  0  0  0  0  0  0
   -6.7530   23.2940  -29.8530 C   0  0  0  0  0  0  0  0  0  0  0  0
   -7.7800   22.3540  -29.9800 C   0  0  0  0  0  0  0  0  0  0  0  0
   -8.3840   22.1380  -31.2240 C   0  0  0  0  0  0  0  0  0  0  0  0
   -9.3750   21.2210  -31.3450 F   0  0  0  0  0  0  0  0  0  0  0  0
   -7.9630   22.8650  -32.3420 C   0  0  0  0  0  0  0  0  0  0  0  0
   -6.9360   23.8040  -32.2200 C   0  0  0  0  0  0  0  0  0  0  0  0
   -5.0870   21.1800  -32.1000 C   0  0  0  0  0  0  0  0  0  0  0  0
   -5.3150   19.7600  -31.5550 C   0  0  0  0  0  0  0  0  0  0  0  0
   -9.5521   18.6819  -31.1170 H   0  0  0  0  0  0  0  0  0  0  0  0
   -9.3078   18.5617  -33.0027 H   0  0  0  0  0  0  0  0  0  0  0  0
   -7.1662   18.4278  -30.7858 H   0  0  0  0  0  0  0  0  0  0  0  0
   -6.5953   17.1981  -33.2536 H   0  0  0  0  0  0  0  0  0  0  0  0
   -7.0195   18.8602  -33.8157 H   0  0  0  0  0  0  0  0  0  0  0  0
   -4.1980   18.2615  -34.3774 H   0  0  0  0  0  0  0  0  0  0  0  0
   -5.2413   19.7337  -34.4810 H   0  0  0  0  0  0  0  0  0  0  0  0
   -2.6987   19.4836  -32.8001 H   0  0  0  0  0  0  0  0  0  0  0  0
   -2.8282   20.2993  -34.4095 H   0  0  0  0  0  0  0  0  0  0  0  0
   -1.7837   21.4615  -32.2411 H   0  0  0  0  0  0  0  0  0  0  0  0
   -2.7069   23.0291  -32.4727 H   0  0  0  0  0  0  0  0  0  0  0  0
   -1.9641   20.2269  -30.1752 H   0  0  0  0  0  0  0  0  0  0  0  0
   -3.5769   22.2457  -26.7199 H   0  0  0  0  0  0  0  0  0  0  0  0
   -4.3145   24.1372  -28.1574 H   0  0  0  0  0  0  0  0  0  0  0  0
   -5.3098   25.5940  -29.9326 H   0  0  0  0  0  0  0  0  0  0  0  0
   -5.2136   25.6823  -31.7316 H   0  0  0  0  0  0  0  0  0  0  0  0
   -6.2813   23.4615  -28.8735 H   0  0  0  0  0  0  0  0  0  0  0  0
   -8.1139   21.7833  -29.1009 H   0  0  0  0  0  0  0  0  0  0  0  0
   -8.4410   22.6973  -33.3184 H   0  0  0  0  0  0  0  0  0  0  0  0
   -6.6063   24.3725  -33.1021 H   0  0  0  0  0  0  0  0  0  0  0  0
   -5.0855   21.8886  -31.2587 H   0  0  0  0  0  0  0  0  0  0  0  0
   -5.8972   21.4095  -32.8078 H   0  0  0  0  0  0  0  0  0  0  0  0
   -4.5243   19.5305  -30.8255 H   0  0  0  0  0  0  0  0  0  0  0  0
   -6.3118   19.7353  -31.0905 H   0  0  0  0  0  0  0  0  0  0  0  0
  1  2  2  0
  2  3  1  0
  3  4  1  0
  4  5  1  0
  5  6  1  0
  6  7  1  0
  7  8  1  0
  8  9  1  0
  9 10  2  0
 10 11  1  0
 11 12  1  0
 11 13  2  0
 13 14  1  0
 14 15  2  0
 15 16  1  0
 16 17  1  0
 17 18  1  0
 18 19  2  0
 19 20  1  0
 20 21  2  0
 21 22  1  0
 21 23  1  0
 23 24  2  0
  7 25  1  0
 25 26  1  0
 26  4  1  0
 15  9  1  0
 24 18  1  0
  1 27  1  0
  1 28  1  0
  2 29  1  0
  3 30  1  0
  3 31  1  0
  5 32  1  0
  5 33  1  0
  6 34  1  0
  6 35  1  0
  8 36  1  0
  8 37  1  0
 10 38  1  0
 13 39  1  0
 14 40  1  0
 17 41  1  0
 17 42  1  0
 19 43  1  0
 20 44  1  0
 23 45  1  0
 24 46  1  0
 25 47  1  0
 25 48  1  0
 26 49  1  0
 26 50  1  0
M  END
>  <UniqueID>  (19) 
18

>  <SMILES>  (19) 
C=CCN1CCN(Cc2cc(Br)ccc2OCc2ccc(F)cc2)CC1

>  <Energy>  (19) 
62.8845066415997

>  <Genealogy>  (19) 
C=CCN1CCN(Cc2cc(Br)ccc2OCc2ccc(F)cc2)CC1 (3D coordinates assigned)
C=CCN1CCN(Cc2cc(Br)ccc2OCc2ccc(F)cc2)CC1 (nonaromatic ring conformer: 62.8845066415997 kcal/mol)

>  <smiles>  (19) 
C=CCN1CCN(Cc2cc(Br)ccc2OCc2ccc(F)cc2)CC1

>  <score_type>  (19) 
oracle

>  <origin>  (19) 
adg

>  <m_score__min__energy>  (19) 
-8.6099999999999994

>  <m_primary>  (19) 
energy

$$$$
19:0
     RDKit          3D

 59 61  0  0  0  0  0  0  0  0999 V2000
   -1.6970   26.2850  -25.2830 C   0  0  0  0  0  0  0  0  0  0  0  0
   -2.6830   25.6970  -26.1020 O   0  0  0  0  0  0  0  0  0  0  0  0
   -2.0860   24.7030  -26.9090 C   0  0  0  0  0  0  0  0  0  0  0  0
   -1.6030   25.3240  -28.1780 C   0  0  0  0  0  0  0  0  0  0  0  0
   -0.4470   25.8270  -28.2350 O   0  0  0  0  0  0  0  0  0  0  0  0
   -2.4380   25.2990  -29.3380 N   0  0  0  0  0  0  0  0  0  0  0  0
   -2.8040   24.0740  -30.0340 C   0  0  0  0  0  0  0  0  0  0  0  0
   -4.2900   23.9560  -30.0450 C   0  0  0  0  0  0  0  0  0  0  0  0
   -5.1600   24.8800  -30.6100 C   0  0  0  0  0  0  0  0  0  0  0  0
   -6.4810   24.4250  -30.6780 C   0  0  0  0  0  0  0  0  0  0  0  0
   -6.6440   23.1290  -30.1970 C   0  0  0  0  0  0  0  0  0  0  0  0
   -7.9180   22.3260  -30.2220 C   0  0  0  0  0  0  0  0  0  0  0  0
   -8.2270   21.7550  -31.5520 N   0  0  0  0  0  0  0  0  0  0  0  0
   -7.0880   21.7680  -32.5040 C   0  0  0  0  0  0  0  0  0  0  0  0
   -7.0950   20.5780  -33.4640 C   0  0  0  0  0  0  0  0  0  0  0  0
   -7.2210   19.3420  -32.6890 N   0  0  0  0  0  0  0  0  0  0  0  0
   -6.3410   18.2280  -32.9310 C   0  0  0  0  0  0  0  0  0  0  0  0
   -6.8760   16.9840  -33.3050 C   0  0  0  0  0  0  0  0  0  0  0  0
   -6.0360   15.8940  -33.5410 C   0  0  0  0  0  0  0  0  0  0  0  0
   -4.6550   16.0350  -33.4030 C   0  0  0  0  0  0  0  0  0  0  0  0
   -4.1080   17.2650  -33.0320 C   0  0  0  0  0  0  0  0  0  0  0  0
   -4.9450   18.3750  -32.7930 C   0  0  0  0  0  0  0  0  0  0  0  0
   -4.4350   19.6380  -32.4400 O   0  0  0  0  0  0  0  0  0  0  0  0
   -3.6220   20.4770  -33.2620 C   0  0  0  0  0  0  0  0  0  0  0  0
   -2.1430   20.1110  -33.0950 C   0  0  0  0  0  0  0  0  0  0  0  0
   -3.8530   21.9290  -32.8510 C   0  0  0  0  0  0  0  0  0  0  0  0
   -8.2580   19.2370  -31.6600 C   0  0  0  0  0  0  0  0  0  0  0  0
   -9.0710   20.5370  -31.5350 C   0  0  0  0  0  0  0  0  0  0  0  0
   -5.1530   22.5670  -29.6490 S   0  0  0  0  0  0  0  0  0  0  0  0
   -1.9579   26.1294  -24.2258 H   0  0  0  0  0  0  0  0  0  0  0  0
   -0.7220   25.8207  -25.4922 H   0  0  0  0  0  0  0  0  0  0  0  0
   -1.6420   27.3635  -25.4922 H   0  0  0  0  0  0  0  0  0  0  0  0
   -1.2367   24.2549  -26.3724 H   0  0  0  0  0  0  0  0  0  0  0  0
   -2.8249   23.9211  -27.1386 H   0  0  0  0  0  0  0  0  0  0  0  0
   -2.4278   24.1088  -31.0671 H   0  0  0  0  0  0  0  0  0  0  0  0
   -2.3630   23.2061  -29.5219 H   0  0  0  0  0  0  0  0  0  0  0  0
   -4.8419   25.8703  -30.9680 H   0  0  0  0  0  0  0  0  0  0  0  0
   -7.3094   25.0316  -31.0727 H   0  0  0  0  0  0  0  0  0  0  0  0
   -7.8239   21.5003  -29.5014 H   0  0  0  0  0  0  0  0  0  0  0  0
   -8.7389   23.0113  -29.9642 H   0  0  0  0  0  0  0  0  0  0  0  0
   -7.1361   22.6947  -33.0948 H   0  0  0  0  0  0  0  0  0  0  0  0
   -6.1639   21.7053  -31.9106 H   0  0  0  0  0  0  0  0  0  0  0  0
   -7.9450   20.6676  -34.1564 H   0  0  0  0  0  0  0  0  0  0  0  0
   -6.1593   20.5609  -34.0420 H   0  0  0  0  0  0  0  0  0  0  0  0
   -7.9645   16.8679  -33.4127 H   0  0  0  0  0  0  0  0  0  0  0  0
   -6.4631   14.9241  -33.8357 H   0  0  0  0  0  0  0  0  0  0  0  0
   -3.9949   15.1745  -33.5870 H   0  0  0  0  0  0  0  0  0  0  0  0
   -3.0181   17.3690  -32.9255 H   0  0  0  0  0  0  0  0  0  0  0  0
   -3.8930   20.3384  -34.3191 H   0  0  0  0  0  0  0  0  0  0  0  0
   -1.8989   20.0506  -32.0241 H   0  0  0  0  0  0  0  0  0  0  0  0
   -1.9501   19.1380  -33.5705 H   0  0  0  0  0  0  0  0  0  0  0  0
   -1.5186   20.8817  -33.5705 H   0  0  0  0  0  0  0  0  0  0  0  0
   -3.8646   22.0020  -31.7535 H   0  0  0  0  0  0  0  0  0  0  0  0
   -3.0434   22.5567  -33.2517 H   0  0  0  0  0  0  0  0  0  0  0  0
   -4.8174   22.2745  -33.2517 H   0  0  0  0  0  0  0  0  0  0  0  0
   -8.9394   18.4146  -31.9235 H   0  0  0  0  0  0  0  0  0  0  0  0
   -7.7649   19.0474  -30.6951 H   0  0  0  0  0  0  0  0  0  0  0  0
   -9.7784   20.5896  -32.3757 H   0  0  0  0  0  0  0  0  0  0  0  0
   -9.5866   20.5090  -30.5637 H   0  0  0  0  0  0  0  0  0  0  0  0
  1  2  1  0
  2  3  1  0
  3  4  1  0
  4  5  2  0
  4  6  1  0
  6  7  1  0
  7  8  1  0
  8  9  2  0
  9 10  1  0
 10 11  2  0
 11 12  1  0
 12 13  1  0
 13 14  1  0
 14 15  1  0
 15 16  1  0
 16 17  1  0
 17 18  2  0
 18 19  1  0
 19 20  2  0
 20 21  1  0
 21 22  2  0
 22 23  1  0
 23 24  1  0
 24 25  1  0
 24 26  1  0
 16 27  1  0
 27 28  1  0
 11 29  1  0
 29  8  1  0
 28 13  1  0
 22 17  1  0
  1 30  1  0
  1 31  1  0
  1 32  1  0
  3 33  1  0
  3 34  1  0
  7 35  1  0
  7 36  1  0
  9 37  1  0
 10 38  1  0
 12 39  1  0
 12 40  1  0
 14 41  1  0
 14 42  1  0
 15 43  1  0
 15 44  1  0
 18 45  1  0
 19 46  1  0
 20 47  1  0
 21 48  1  0
 24 49  1  0
 25 50  1  0
 25 51  1  0
 25 52  1  0
 26 53  1  0
 26 54  1  0
 26 55  1  0
 27 56  1  0
 27 57  1  0
 28 58  1  0
 28 59  1  0
M  CHG  1   6  -1
M  END
>  <UniqueID>  (20) 
19

>  <SMILES>  (20) 
COCC(=O)[N-]Cc1ccc(CN2CCN(c3ccccc3OC(C)C)CC2)s1

>  <Energy>  (20) 
89.01031119732713

>  <Genealogy>  (20) 
COCC(=O)[N-]Cc1ccc(CN2CCN(c3ccccc3OC(C)C)CC2)s1 (protonated)
COCC(=O)[N-]Cc1ccc(CN2CCN(c3ccccc3OC(C)C)CC2)s1 (3D coordinates assigned)
COCC(=O)[N-]Cc1ccc(CN2CCN(c3ccccc3OC(C)C)CC2)s1 (nonaromatic ring conformer: 89.01031119732713 kcal/mol)

>  <smiles>  (20) 
COCC(=O)NCc1ccc(CN2CCN(c3ccccc3OC(C)C)CC2)s1

>  <score_type>  (20) 
oracle

>  <origin>  (20) 
adg

>  <m_score__min__energy>  (20) 
-10.029999999999999

>  <m_primary>  (20) 
energy

$$$$
20:0
     RDKit          3D

 44 47  0  0  0  0  0  0  0  0999 V2000
   -1.1450   25.9000  -26.7480 C   0  0  0  0  0  0  0  0  0  0  0  0
   -0.5530   25.3430  -27.9160 O   0  0  0  0  0  0  0  0  0  0  0  0
   -1.2050   24.4560  -28.7870 C   0  0  0  0  0  0  0  0  0  0  0  0
   -0.5200   23.3980  -29.4450 C   0  0  0  0  0  0  0  0  0  0  0  0
   -1.2050   22.5310  -30.3140 C   0  0  0  0  0  0  0  0  0  0  0  0
   -2.5750   22.7340  -30.5160 C   0  0  0  0  0  0  0  0  0  0  0  0
   -3.2330   23.7530  -29.8700 C   0  0  0  0  0  0  0  0  0  0  0  0
   -2.5820   24.6330  -29.0060 C   0  0  0  0  0  0  0  0  0  0  0  0
   -4.5450   23.6800  -30.2680 C   0  0  0  0  0  0  0  0  0  0  0  0
   -5.6130   24.4980  -29.9430 C   0  0  0  0  0  0  0  0  0  0  0  0
   -6.8450   24.2300  -30.5370 C   0  0  0  0  0  0  0  0  0  0  0  0
   -7.0220   23.1340  -31.4160 C   0  0  0  0  0  0  0  0  0  0  0  0
   -5.9290   22.2280  -31.6580 C   0  0  0  0  0  0  0  0  0  0  0  0
   -4.6570   22.5990  -31.1290 C   0  0  0  0  0  0  0  0  0  0  0  0
   -3.4210   22.0330  -31.3170 N   0  0  0  0  0  0  0  0  0  0  0  0
   -3.0130   20.9810  -32.2540 C   0  0  0  0  0  0  0  0  0  0  0  0
   -6.0990   20.9160  -32.4120 C   0  0  0  0  0  0  0  0  0  0  0  0
   -7.2450   20.0210  -31.9200 C   0  0  0  0  0  0  0  0  0  0  0  0
   -8.5590   20.4890  -32.4030 N   0  0  0  0  0  0  0  0  0  0  0  0
   -9.5190   19.3720  -32.4370 C   0  0  0  0  0  0  0  0  0  0  0  0
   -9.0980   21.6440  -31.6500 C   0  0  0  0  0  0  0  0  0  0  0  0
   -8.4150   22.9730  -31.9990 C   0  0  0  0  0  0  0  0  0  0  0  0
   -0.6776   25.4602  -25.8546 H   0  0  0  0  0  0  0  0  0  0  0  0
   -0.9921   26.9893  -26.7432 H   0  0  0  0  0  0  0  0  0  0  0  0
   -2.2230   25.6811  -26.7432 H   0  0  0  0  0  0  0  0  0  0  0  0
    0.5571   23.2564  -29.2723 H   0  0  0  0  0  0  0  0  0  0  0  0
   -0.6764   21.7118  -30.8235 H   0  0  0  0  0  0  0  0  0  0  0  0
   -3.1323   25.4452  -28.5084 H   0  0  0  0  0  0  0  0  0  0  0  0
   -5.4932   25.3337  -29.2378 H   0  0  0  0  0  0  0  0  0  0  0  0
   -7.7005   24.8857  -30.3177 H   0  0  0  0  0  0  0  0  0  0  0  0
   -2.6714   20.1003  -31.6904 H   0  0  0  0  0  0  0  0  0  0  0  0
   -3.8682   20.7021  -32.8872 H   0  0  0  0  0  0  0  0  0  0  0  0
   -2.1934   21.3516  -32.8872 H   0  0  0  0  0  0  0  0  0  0  0  0
   -6.2834   21.1534  -33.4701 H   0  0  0  0  0  0  0  0  0  0  0  0
   -5.1735   20.3458  -32.2433 H   0  0  0  0  0  0  0  0  0  0  0  0
   -7.0771   18.9967  -32.2842 H   0  0  0  0  0  0  0  0  0  0  0  0
   -7.2552   20.0559  -30.8206 H   0  0  0  0  0  0  0  0  0  0  0  0
   -9.7735   19.0758  -31.4086 H   0  0  0  0  0  0  0  0  0  0  0  0
  -10.4313   19.6885  -32.9639 H   0  0  0  0  0  0  0  0  0  0  0  0
   -9.0690   18.5177  -32.9639 H   0  0  0  0  0  0  0  0  0  0  0  0
  -10.1714   21.7349  -31.8727 H   0  0  0  0  0  0  0  0  0  0  0  0
   -8.9087   21.4525  -30.5835 H   0  0  0  0  0  0  0  0  0  0  0  0
   -8.3401   23.0442  -33.0941 H   0  0  0  0  0  0  0  0  0  0  0  0
   -9.0336   23.7691  -31.5591 H   0  0  0  0  0  0  0  0  0  0  0  0
  1  2  1  0
  2  3  1  0
  3  4  2  0
  4  5  1  0
  5  6  2  0
  6  7  1  0
  7  8  2  0
  7  9  1  0
  9 10  2  0
 10 11  1  0
 11 12  2  0
 12 13  1  0
 13 14  2  0
 14 15  1  0
 15 16  1  0
 13 17  1  0
 17 18  1  0
 18 19  1  0
 19 20  1  0
 19 21  1  0
 21 22  1  0
  8  3  1  0
 14  9  1  0
 15  6  1  0
 22 12  1  0
  1 23  1  0
  1 24  1  0
  1 25  1  0
  4 26  1  0
  5 27  1  0
  8 28  1  0
 10 29  1  0
 11 30  1  0
 16 31  1  0
 16 32  1  0
 16 33  1  0
 17 34  1  0
 17 35  1  0
 18 36  1  0
 18 37  1  0
 20 38  1  0
 20 39  1  0
 20 40  1  0
 21 41  1  0
 21 42  1  0
 22 43  1  0
 22 44  1  0
M  END
>  <UniqueID>  (21) 
20

>  <SMILES>  (21) 
COc1ccc2c(c1)c1ccc3c(c1n2C)CCN(C)CC3

>  <Energy>  (21) 
107.82774033275868

>  <Genealogy>  (21) 
COc1ccc2c(c1)c1ccc3c(c1n2C)CCN(C)CC3 (3D coordinates assigned)
COc1ccc2c(c1)c1ccc3c(c1n2C)CCN(C)CC3 (nonaromatic ring conformer: 107.82774033275868 kcal/mol)

>  <smiles>  (21) 
COc1ccc2c(c1)c1ccc3c(c1n2C)CCN(C)CC3

>  <score_type>  (21) 
oracle

>  <origin>  (21) 
adg

>  <m_score__min__energy>  (21) 
-6.5099999999999998

>  <m_primary>  (21) 
energy

$$$$
21:0
     RDKit          3D

 55 59  0  0  0  0  0  0  0  0999 V2000
   -2.6390   11.8740  -33.1700 C   0  0  0  0  0  0  0  0  0  0  0  0
   -3.8350   12.6300  -32.5810 C   0  0  0  0  0  0  0  0  0  0  0  0
   -3.5570   14.0780  -32.4040 N   0  0  1  0  0  0  0  0  0  0  0  0
   -2.1140   14.3780  -32.4890 C   0  0  0  0  0  0  0  0  0  0  0  0
   -4.3600   14.9250  -33.3260 C   0  0  0  0  0  0  0  0  0  0  0  0
   -3.9510   14.8620  -34.8170 C   0  0  0  0  0  0  0  0  0  0  0  0
   -3.8770   16.1890  -35.4310 N   0  0  0  0  0  0  0  0  0  0  0  0
   -3.0370   17.1990  -34.8540 C   0  0  0  0  0  0  0  0  0  0  0  0
   -1.6380   17.0660  -34.9440 C   0  0  0  0  0  0  0  0  0  0  0  0
   -0.8400   15.5690  -35.8350 Br  0  0  0  0  0  0  0  0  0  0  0  0
   -0.8020   18.0150  -34.3540 C   0  0  0  0  0  0  0  0  0  0  0  0
   -1.3420   19.1070  -33.6750 C   0  0  0  0  0  0  0  0  0  0  0  0
   -2.7330   19.2700  -33.5920 C   0  0  0  0  0  0  0  0  0  0  0  0
   -3.2740   20.3750  -32.9290 C   0  0  0  0  0  0  0  0  0  0  0  0
   -4.6680   20.5510  -32.8720 C   0  0  0  0  0  0  0  0  0  0  0  0
   -5.4910   19.6060  -33.4400 N   0  0  0  0  0  0  0  0  0  0  0  0
   -4.9750   18.5330  -34.1110 C   0  0  0  0  0  0  0  0  0  0  0  0
   -3.5890   18.3200  -34.1870 C   0  0  0  0  0  0  0  0  0  0  0  0
   -6.9540   19.7830  -33.4180 C   0  0  0  0  0  0  0  0  0  0  0  0
   -7.4180   20.3780  -32.0850 C   0  0  0  0  0  0  0  0  0  0  0  0
   -6.6450   21.6300  -31.7840 C   0  0  0  0  0  0  0  0  0  0  0  0
   -7.2620   22.6920  -31.0870 C   0  0  0  0  0  0  0  0  0  0  0  0
   -6.5020   23.8240  -30.8210 C   0  0  0  0  0  0  0  0  0  0  0  0
   -5.2060   23.9250  -31.2040 C   0  0  0  0  0  0  0  0  0  0  0  0
   -4.5510   22.9010  -31.8770 C   0  0  0  0  0  0  0  0  0  0  0  0
   -5.2750   21.7140  -32.1590 C   0  0  0  0  0  0  0  0  0  0  0  0
   -4.7100   25.1570  -30.8200 O   0  0  0  0  0  0  0  0  0  0  0  0
   -5.7580   25.8710  -30.1520 C   0  0  0  0  0  0  0  0  0  0  0  0
   -6.8850   24.9830  -30.1740 O   0  0  0  0  0  0  0  0  0  0  0  0
   -2.0160   11.4802  -32.3535 H   0  0  0  0  0  0  0  0  0  0  0  0
   -3.0012   11.0404  -33.7896 H   0  0  0  0  0  0  0  0  0  0  0  0
   -2.0414   12.5588  -33.7896 H   0  0  0  0  0  0  0  0  0  0  0  0
   -4.6940   12.5153  -33.2585 H   0  0  0  0  0  0  0  0  0  0  0  0
   -4.0453   12.2047  -31.5886 H   0  0  0  0  0  0  0  0  0  0  0  0
   -3.8620   14.3510  -31.4380 H   0  0  0  0  0  0  0  0  0  0  0  0
   -1.6971   14.4647  -31.4747 H   0  0  0  0  0  0  0  0  0  0  0  0
   -1.6020   13.5671  -33.0278 H   0  0  0  0  0  0  0  0  0  0  0  0
   -1.9676   15.3258  -33.0278 H   0  0  0  0  0  0  0  0  0  0  0  0
   -5.4103   14.6074  -33.2493 H   0  0  0  0  0  0  0  0  0  0  0  0
   -4.1859   15.9640  -33.0094 H   0  0  0  0  0  0  0  0  0  0  0  0
   -2.9642   14.3820  -34.8928 H   0  0  0  0  0  0  0  0  0  0  0  0
   -4.7207   14.2867  -35.3523 H   0  0  0  0  0  0  0  0  0  0  0  0
   -4.1460   16.3050  -36.4340 H   0  0  0  0  0  0  0  0  0  0  0  0
    0.2898   17.9010  -34.4249 H   0  0  0  0  0  0  0  0  0  0  0  0
   -0.6749   19.8432  -33.2028 H   0  0  0  0  0  0  0  0  0  0  0  0
   -2.6081   21.1084  -32.4508 H   0  0  0  0  0  0  0  0  0  0  0  0
   -5.6579   17.8231  -34.6006 H   0  0  0  0  0  0  0  0  0  0  0  0
   -7.2462   20.4597  -34.2345 H   0  0  0  0  0  0  0  0  0  0  0  0
   -7.4268   18.7978  -33.5441 H   0  0  0  0  0  0  0  0  0  0  0  0
   -8.4898   20.6177  -32.1466 H   0  0  0  0  0  0  0  0  0  0  0  0
   -7.2448   19.6453  -31.2830 H   0  0  0  0  0  0  0  0  0  0  0  0
   -8.3116   22.6249  -30.7648 H   0  0  0  0  0  0  0  0  0  0  0  0
   -3.4998   23.0078  -32.1828 H   0  0  0  0  0  0  0  0  0  0  0  0
   -5.4687   26.1029  -29.1164 H   0  0  0  0  0  0  0  0  0  0  0  0
   -5.9794   26.8317  -30.6398 H   0  0  0  0  0  0  0  0  0  0  0  0
  1  2  1  0
  2  3  1  0
  3  4  1  0
  3  5  1  0
  5  6  1  0
  6  7  1  0
  7  8  1  0
  8  9  2  0
  9 10  1  0
  9 11  1  0
 11 12  2  0
 12 13  1  0
 13 14  2  0
 14 15  1  0
 15 16  2  0
 16 17  1  0
 17 18  2  0
 16 19  1  0
 19 20  1  0
 20 21  1  0
 21 22  2  0
 22 23  1  0
 23 24  2  0
 24 25  1  0
 25 26  2  0
 24 27  1  0
 27 28  1  0
 28 29  1  0
 18  8  1  0
 26 21  1  0
 18 13  1  0
 29 23  1  0
 26 15  1  0
  1 30  1  0
  1 31  1  0
  1 32  1  0
  2 33  1  0
  2 34  1  0
  3 35  1  1
  4 36  1  0
  4 37  1  0
  4 38  1  0
  5 39  1  0
  5 40  1  0
  6 41  1  0
  6 42  1  0
  7 43  1  0
 11 44  1  0
 12 45  1  0
 14 46  1  0
 17 47  1  0
 19 48  1  0
 19 49  1  0
 20 50  1  0
 20 51  1  0
 22 52  1  0
 25 53  1  0
 28 54  1  0
 28 55  1  0
M  CHG  2   3   1  16   1
M  END
>  <UniqueID>  (22) 
21

>  <SMILES>  (22) 
CC[N@@H+](C)CCNc1c(Br)ccc2cc3[n+](cc12)CCc1cc2c(cc1-3)OCO2

>  <Energy>  (22) 
105.68916735195376

>  <Genealogy>  (22) 
CC[NH+](C)CCNc1c(Br)ccc2cc3[n+](cc12)CCc1cc2c(cc1-3)OCO2 (protonated)
CC[N@@H+](C)CCNc1c(Br)ccc2cc3[n+](cc12)CCc1cc2c(cc1-3)OCO2 (chirality)
CC[N@@H+](C)CCNc1c(Br)ccc2cc3[n+](cc12)CCc1cc2c(cc1-3)OCO2 (3D coordinates assigned)
CC[N@@H+](C)CCNc1c(Br)ccc2cc3[n+](cc12)CCc1cc2c(cc1-3)OCO2 (nonaromatic ring conformer: 105.68916735195376 kcal/mol)

>  <smiles>  (22) 
CCN(C)CCNc1c(Br)ccc2cc3[n+](cc12)CCc1cc2c(cc1-3)OCO2

>  <score_type>  (22) 
oracle

>  <origin>  (22) 
adg

>  <m_score__min__energy>  (22) 
-7.2699999999999996

>  <m_primary>  (22) 
energy

$$$$
22:0
     RDKit          3D

 76 79  0  0  0  0  0  0  0  0999 V2000
   -4.4180   19.1850  -33.4940 C   0  0  0  0  0  0  0  0  0  0  0  0
   -5.8020   19.4550  -32.9680 C   0  0  0  0  0  0  0  0  0  0  0  0
   -6.8760   18.5890  -33.2600 C   0  0  0  0  0  0  0  0  0  0  0  0
   -6.6860   17.4320  -34.0170 O   0  0  0  0  0  0  0  0  0  0  0  0
   -6.1850   16.2380  -33.4250 C   0  0  0  0  0  0  0  0  0  0  0  0
   -4.9490   15.7430  -34.1820 C   0  0  0  0  0  0  0  0  0  0  0  0
   -3.6060   16.0920  -33.4960 C   0  0  0  0  0  0  0  0  0  0  0  0
   -2.6010   16.7300  -34.3880 N   0  0  2  0  0  0  0  0  0  0  0  0
   -2.2060   15.8340  -35.4920 C   0  0  0  0  0  0  0  0  0  0  0  0
   -1.4010   17.1500  -33.6020 C   0  0  0  0  0  0  0  0  0  0  0  0
   -1.1010   18.6170  -33.7970 C   0  0  0  0  0  0  0  0  0  0  0  0
   -0.4450   19.0590  -34.9590 C   0  0  0  0  0  0  0  0  0  0  0  0
   -0.0890   20.4050  -35.0960 C   0  0  0  0  0  0  0  0  0  0  0  0
   -0.3790   21.3150  -34.0750 C   0  0  0  0  0  0  0  0  0  0  0  0
   -1.0280   20.8810  -32.9160 C   0  0  0  0  0  0  0  0  0  0  0  0
   -1.3900   19.5370  -32.7760 C   0  0  0  0  0  0  0  0  0  0  0  0
   -8.1580   18.8770  -32.7800 C   0  0  0  0  0  0  0  0  0  0  0  0
   -8.3900   20.0140  -32.0080 C   0  0  0  0  0  0  0  0  0  0  0  0
   -7.3320   20.8790  -31.6910 C   0  0  0  0  0  0  0  0  0  0  0  0
   -7.5250   22.0250  -30.9000 C   0  0  0  0  0  0  0  0  0  0  0  0
   -8.6740   22.3100  -30.4630 O   0  0  0  0  0  0  0  0  0  0  0  0
   -6.4250   22.8490  -30.6050 C   0  0  0  0  0  0  0  0  0  0  0  0
   -6.5510   24.0070  -29.8210 C   0  0  0  0  0  0  0  0  0  0  0  0
   -5.4300   24.8000  -29.5590 C   0  0  0  0  0  0  0  0  0  0  0  0
   -4.1720   24.4550  -30.0670 C   0  0  0  0  0  0  0  0  0  0  0  0
   -3.0890   25.2990  -29.7750 O   0  0  0  0  0  0  0  0  0  0  0  0
   -2.0010   24.9840  -28.9040 C   0  0  0  0  0  0  0  0  0  0  0  0
   -2.5090   24.5050  -27.5400 C   0  0  0  0  0  0  0  0  0  0  0  0
   -2.2420   23.0050  -27.3370 C   0  0  0  0  0  0  0  0  0  0  0  0
   -1.5600   22.3690  -28.5590 C   0  0  0  0  0  0  0  0  0  0  0  0
   -1.8080   20.9120  -28.6300 N   0  0  0  0  0  0  0  0  0  0  0  0
   -2.5540   20.5580  -29.8500 C   0  0  0  0  0  0  0  0  0  0  0  0
   -2.5740   20.4750  -27.4500 C   0  0  0  0  0  0  0  0  0  0  0  0
   -4.0430   23.2920  -30.8520 C   0  0  0  0  0  0  0  0  0  0  0  0
   -5.1600   22.4960  -31.1240 C   0  0  0  0  0  0  0  0  0  0  0  0
   -5.0190   21.4060  -31.8700 O   0  0  0  0  0  0  0  0  0  0  0  0
   -6.0310   20.5960  -32.1730 C   0  0  0  0  0  0  0  0  0  0  0  0
   -3.7251   19.0498  -32.6505 H   0  0  0  0  0  0  0  0  0  0  0  0
   -4.4307   18.2724  -34.1080 H   0  0  0  0  0  0  0  0  0  0  0  0
   -4.0867   20.0354  -34.1080 H   0  0  0  0  0  0  0  0  0  0  0  0
   -5.9123   16.4394  -32.3786 H   0  0  0  0  0  0  0  0  0  0  0  0
   -6.9647   15.4634  -33.4708 H   0  0  0  0  0  0  0  0  0  0  0  0
   -5.0157   14.6489  -34.2744 H   0  0  0  0  0  0  0  0  0  0  0  0
   -4.9490   16.2524  -35.1569 H   0  0  0  0  0  0  0  0  0  0  0  0
   -3.8145   16.7824  -32.6654 H   0  0  0  0  0  0  0  0  0  0  0  0
   -3.1682   15.1384  -33.1658 H   0  0  0  0  0  0  0  0  0  0  0  0
   -3.0410   17.5720  -34.8230 H   0  0  0  0  0  0  0  0  0  0  0  0
   -1.7949   14.9014  -35.0781 H   0  0  0  0  0  0  0  0  0  0  0  0
   -3.0862   15.6040  -36.1104 H   0  0  0  0  0  0  0  0  0  0  0  0
   -1.4425   16.3286  -36.1104 H   0  0  0  0  0  0  0  0  0  0  0  0
   -1.5884   16.9617  -32.5346 H   0  0  0  0  0  0  0  0  0  0  0  0
   -0.5356   16.5696  -33.9544 H   0  0  0  0  0  0  0  0  0  0  0  0
   -0.2110   18.3450  -35.7624 H   0  0  0  0  0  0  0  0  0  0  0  0
    0.4201   20.7480  -36.0088 H   0  0  0  0  0  0  0  0  0  0  0  0
   -0.0963   22.3725  -34.1840 H   0  0  0  0  0  0  0  0  0  0  0  0
   -1.2546   21.5973  -32.1125 H   0  0  0  0  0  0  0  0  0  0  0  0
   -1.9027   19.1996  -31.8632 H   0  0  0  0  0  0  0  0  0  0  0  0
   -8.9918   18.1989  -33.0143 H   0  0  0  0  0  0  0  0  0  0  0  0
   -9.4053   20.2337  -31.6463 H   0  0  0  0  0  0  0  0  0  0  0  0
   -7.5323   24.2903  -29.4127 H   0  0  0  0  0  0  0  0  0  0  0  0
   -5.5378   25.7068  -28.9457 H   0  0  0  0  0  0  0  0  0  0  0  0
   -1.3934   24.1889  -29.3608 H   0  0  0  0  0  0  0  0  0  0  0  0
   -1.3986   25.8921  -28.7539 H   0  0  0  0  0  0  0  0  0  0  0  0
   -1.9955   25.0702  -26.7483 H   0  0  0  0  0  0  0  0  0  0  0  0
   -3.5954   24.6720  -27.4972 H   0  0  0  0  0  0  0  0  0  0  0  0
   -1.5906   22.8761  -26.4601 H   0  0  0  0  0  0  0  0  0  0  0  0
   -3.2109   22.5050  -27.1911 H   0  0  0  0  0  0  0  0  0  0  0  0
   -1.9518   22.8418  -29.4717 H   0  0  0  0  0  0  0  0  0  0  0  0
   -0.4754   22.5272  -28.4663 H   0  0  0  0  0  0  0  0  0  0  0  0
   -3.5156   20.1017  -29.5723 H   0  0  0  0  0  0  0  0  0  0  0  0
   -2.7368   21.4654  -30.4443 H   0  0  0  0  0  0  0  0  0  0  0  0
   -1.9667   19.8426  -30.4443 H   0  0  0  0  0  0  0  0  0  0  0  0
   -2.0431   20.7779  -26.5354 H   0  0  0  0  0  0  0  0  0  0  0  0
   -3.5705   20.9405  -27.4667 H   0  0  0  0  0  0  0  0  0  0  0  0
   -2.6804   19.3803  -27.4667 H   0  0  0  0  0  0  0  0  0  0  0  0
   -3.0586   23.0088  -31.2529 H   0  0  0  0  0  0  0  0  0  0  0  0
  1  2  1  0
  2  3  2  0
  3  4  1  0
  4  5  1  0
  5  6  1  0
  6  7  1  0
  7  8  1  0
  8  9  1  0
  8 10  1  0
 10 11  1  0
 11 12  2  0
 12 13  1  0
 13 14  2  0
 14 15  1  0
 15 16  2  0
  3 17  1  0
 17 18  2  0
 18 19  1  0
 19 20  1  0
 20 21  2  0
 20 22  1  0
 22 23  2  0
 23 24  1  0
 24 25  2  0
 25 26  1  0
 26 27  1  0
 27 28  1  0
 28 29  1  0
 29 30  1  0
 30 31  1  0
 31 32  1  0
 31 33  1  0
 25 34  1  0
 34 35  2  0
 35 36  1  0
 36 37  1  0
 37  2  1  0
 16 11  1  0
 37 19  2  0
 35 22  1  0
  1 38  1  0
  1 39  1  0
  1 40  1  0
  5 41  1  0
  5 42  1  0
  6 43  1  0
  6 44  1  0
  7 45  1  0
  7 46  1  0
  8 47  1  6
  9 48  1  0
  9 49  1  0
  9 50  1  0
 10 51  1  0
 10 52  1  0
 12 53  1  0
 13 54  1  0
 14 55  1  0
 15 56  1  0
 16 57  1  0
 17 58  1  0
 18 59  1  0
 23 60  1  0
 24 61  1  0
 27 62  1  0
 27 63  1  0
 28 64  1  0
 28 65  1  0
 29 66  1  0
 29 67  1  0
 30 68  1  0
 30 69  1  0
 32 70  1  0
 32 71  1  0
 32 72  1  0
 33 73  1  0
 33 74  1  0
 33 75  1  0
 34 76  1  0
M  CHG  1   8   1
M  END
>  <UniqueID>  (23) 
22

>  <SMILES>  (23) 
Cc1c(OCCC[N@H+](C)Cc2ccccc2)ccc2c(=O)c3ccc(OCCCCN(C)C)cc3oc12

>  <Energy>  (23) 
92.27524083803033

>  <Genealogy>  (23) 
Cc1c(OCCC[NH+](C)Cc2ccccc2)ccc2c(=O)c3ccc(OCCCCN(C)C)cc3oc12 (protonated)
Cc1c(OCCC[N@H+](C)Cc2ccccc2)ccc2c(=O)c3ccc(OCCCCN(C)C)cc3oc12 (chirality)
Cc1c(OCCC[N@H+](C)Cc2ccccc2)ccc2c(=O)c3ccc(OCCCCN(C)C)cc3oc12 (3D coordinates assigned)
Cc1c(OCCC[N@H+](C)Cc2ccccc2)ccc2c(=O)c3ccc(OCCCCN(C)C)cc3oc12 (optimized conformer: 92.27524083803033 kcal/mol)

>  <smiles>  (23) 
Cc1c(OCCCN(C)Cc2ccccc2)ccc2c(=O)c3ccc(OCCCCN(C)C)cc3oc12

>  <score_type>  (23) 
oracle

>  <origin>  (23) 
adg

>  <m_score__min__energy>  (23) 
-8.7400000000000002

>  <m_primary>  (23) 
energy

$$$$
23:0
     RDKit          3D

 72 75  0  0  0  0  0  0  0  0999 V2000
   -6.4670   17.7930  -31.1620 C   0  0  0  0  0  0  0  0  0  0  0  0
   -7.2400   17.3280  -32.3950 C   0  0  0  0  0  0  0  0  0  0  0  0
   -6.4560   16.3380  -33.1720 N   0  0  0  0  0  0  0  0  0  0  0  0
   -5.1770   16.0720  -32.4850 C   0  0  0  0  0  0  0  0  0  0  0  0
   -6.2200   16.8440  -34.5470 C   0  0  0  0  0  0  0  0  0  0  0  0
   -5.3120   18.0810  -34.5960 C   0  0  0  0  0  0  0  0  0  0  0  0
   -6.0830   19.3250  -34.5460 N   0  0  0  0  0  0  0  0  0  0  0  0
   -5.9460   20.2610  -33.4580 C   0  0  0  0  0  0  0  0  0  0  0  0
   -7.0780   20.6670  -32.7270 C   0  0  0  0  0  0  0  0  0  0  0  0
   -8.3710   20.2300  -33.0860 C   0  0  0  0  0  0  0  0  0  0  0  0
   -9.4840   20.5870  -32.3300 C   0  0  0  0  0  0  0  0  0  0  0  0
   -9.3290   21.3630  -31.1890 C   0  0  0  0  0  0  0  0  0  0  0  0
   -8.0650   21.8160  -30.8170 C   0  0  0  0  0  0  0  0  0  0  0  0
   -6.9180   21.5170  -31.5970 C   0  0  0  0  0  0  0  0  0  0  0  0
   -5.6690   22.0130  -31.2710 N   0  0  0  0  0  0  0  0  0  0  0  0
   -5.5410   23.0990  -30.2730 C   0  0  0  0  0  0  0  0  0  0  0  0
   -4.5420   21.5320  -31.9140 C   0  0  0  0  0  0  0  0  0  0  0  0
   -3.2360   21.8250  -31.4450 C   0  0  0  0  0  0  0  0  0  0  0  0
   -2.0950   21.4420  -32.1710 C   0  0  0  0  0  0  0  0  0  0  0  0
   -0.7870   21.7200  -31.7400 O   0  0  0  0  0  0  0  0  0  0  0  0
    0.0560   20.8360  -30.9980 C   0  0  0  0  0  0  0  0  0  0  0  0
   -0.7720   19.9000  -30.0760 C   0  0  0  0  0  0  0  0  0  0  0  0
   -1.1130   20.4430  -28.7190 N   0  0  0  0  0  0  0  0  0  0  0  0
   -0.7000   21.8690  -28.6190 C   0  0  0  0  0  0  0  0  0  0  0  0
   -2.6100   20.3810  -28.5700 C   0  0  0  0  0  0  0  0  0  0  0  0
   -3.0710   20.2710  -27.1080 C   0  0  0  0  0  0  0  0  0  0  0  0
   -2.5450   18.9800  -26.4580 C   0  0  0  0  0  0  0  0  0  0  0  0
   -1.2530   18.4780  -27.1170 C   0  0  0  0  0  0  0  0  0  0  0  0
   -0.4150   19.6540  -27.6450 C   0  0  0  0  0  0  0  0  0  0  0  0
   -2.2540   20.7570  -33.3710 C   0  0  0  0  0  0  0  0  0  0  0  0
   -3.5220   20.3990  -33.8200 C   0  0  0  0  0  0  0  0  0  0  0  0
   -4.6720   20.7190  -33.0690 C   0  0  0  0  0  0  0  0  0  0  0  0
   -6.9987   17.4731  -30.2537 H   0  0  0  0  0  0  0  0  0  0  0  0
   -5.4599   17.3507  -31.1723 H   0  0  0  0  0  0  0  0  0  0  0  0
   -6.3858   18.8900  -31.1723 H   0  0  0  0  0  0  0  0  0  0  0  0
   -8.1852   16.8660  -32.0738 H   0  0  0  0  0  0  0  0  0  0  0  0
   -7.4354   18.2006  -33.0356 H   0  0  0  0  0  0  0  0  0  0  0  0
   -5.3319   16.1042  -31.3964 H   0  0  0  0  0  0  0  0  0  0  0  0
   -4.8058   15.0774  -32.7733 H   0  0  0  0  0  0  0  0  0  0  0  0
   -4.4401   16.8361  -32.7733 H   0  0  0  0  0  0  0  0  0  0  0  0
   -5.7500   16.0433  -35.1369 H   0  0  0  0  0  0  0  0  0  0  0  0
   -7.1971   17.1431  -34.9543 H   0  0  0  0  0  0  0  0  0  0  0  0
   -4.6257   18.0529  -33.7369 H   0  0  0  0  0  0  0  0  0  0  0  0
   -4.7580   18.0605  -35.5461 H   0  0  0  0  0  0  0  0  0  0  0  0
   -6.8860   19.4260  -35.2040 H   0  0  0  0  0  0  0  0  0  0  0  0
   -8.5013   19.5977  -33.9767 H   0  0  0  0  0  0  0  0  0  0  0  0
  -10.4866   20.2543  -32.6366 H   0  0  0  0  0  0  0  0  0  0  0  0
  -10.2062   21.6207  -30.5774 H   0  0  0  0  0  0  0  0  0  0  0  0
   -7.9542   22.4164  -29.9020 H   0  0  0  0  0  0  0  0  0  0  0  0
   -5.5911   22.6737  -29.2598 H   0  0  0  0  0  0  0  0  0  0  0  0
   -4.5764   23.6100  -30.4088 H   0  0  0  0  0  0  0  0  0  0  0  0
   -6.3604   23.8203  -30.4088 H   0  0  0  0  0  0  0  0  0  0  0  0
   -3.1135   22.3631  -30.4934 H   0  0  0  0  0  0  0  0  0  0  0  0
    0.6372   20.2218  -31.7016 H   0  0  0  0  0  0  0  0  0  0  0  0
    0.7211   21.4428  -30.3660 H   0  0  0  0  0  0  0  0  0  0  0  0
   -1.7154   19.6685  -30.5921 H   0  0  0  0  0  0  0  0  0  0  0  0
   -0.1317   19.0248  -29.8917 H   0  0  0  0  0  0  0  0  0  0  0  0
   -0.6176   22.1534  -27.5596 H   0  0  0  0  0  0  0  0  0  0  0  0
    0.2742   22.0040  -29.1117 H   0  0  0  0  0  0  0  0  0  0  0  0
   -1.4512   22.5037  -29.1117 H   0  0  0  0  0  0  0  0  0  0  0  0
   -3.0423   21.2943  -29.0047 H   0  0  0  0  0  0  0  0  0  0  0  0
   -2.9519   19.4733  -29.0888 H   0  0  0  0  0  0  0  0  0  0  0  0
   -2.6918   21.1369  -26.5455 H   0  0  0  0  0  0  0  0  0  0  0  0
   -4.1706   20.2493  -27.0887 H   0  0  0  0  0  0  0  0  0  0  0  0
   -2.3459   19.1758  -25.3940 H   0  0  0  0  0  0  0  0  0  0  0  0
   -3.3120   18.2023  -26.5879 H   0  0  0  0  0  0  0  0  0  0  0  0
   -0.6633   17.9198  -26.3749 H   0  0  0  0  0  0  0  0  0  0  0  0
   -1.5193   17.8277  -27.9633 H   0  0  0  0  0  0  0  0  0  0  0  0
   -0.1907   20.3284  -26.8054 H   0  0  0  0  0  0  0  0  0  0  0  0
    0.4978   19.2315  -28.0903 H   0  0  0  0  0  0  0  0  0  0  0  0
   -1.3696   20.4958  -33.9707 H   0  0  0  0  0  0  0  0  0  0  0  0
   -3.6284   19.8596  -34.7728 H   0  0  0  0  0  0  0  0  0  0  0  0
  1  2  1  0
  2  3  1  0
  3  4  1  0
  3  5  1  0
  5  6  1  0
  6  7  1  0
  7  8  1  0
  8  9  2  0
  9 10  1  0
 10 11  2  0
 11 12  1  0
 12 13  2  0
 13 14  1  0
 14 15  2  0
 15 16  1  0
 15 17  1  0
 17 18  2  0
 18 19  1  0
 19 20  1  0
 20 21  1  0
 21 22  1  0
 22 23  1  0
 23 24  1  0
 23 25  1  0
 25 26  1  0
 26 27  1  0
 27 28  1  0
 28 29  1  0
 19 30  2  0
 30 31  1  0
 31 32  2  0
 32  8  1  0
 14  9  1  0
 32 17  1  0
 29 23  1  0
  1 33  1  0
  1 34  1  0
  1 35  1  0
  2 36  1  0
  2 37  1  0
  4 38  1  0
  4 39  1  0
  4 40  1  0
  5 41  1  0
  5 42  1  0
  6 43  1  0
  6 44  1  0
  7 45  1  0
 10 46  1  0
 11 47  1  0
 12 48  1  0
 13 49  1  0
 16 50  1  0
 16 51  1  0
 16 52  1  0
 18 53  1  0
 21 54  1  0
 21 55  1  0
 22 56  1  0
 22 57  1  0
 24 58  1  0
 24 59  1  0
 24 60  1  0
 25 61  1  0
 25 62  1  0
 26 63  1  0
 26 64  1  0
 27 65  1  0
 27 66  1  0
 28 67  1  0
 28 68  1  0
 29 69  1  0
 29 70  1  0
 30 71  1  0
 31 72  1  0
M  CHG  2  15   1  23   1
M  END
>  <UniqueID>  (24) 
23

>  <SMILES>  (24) 
CCN(C)CCNc1c2ccccc2[n+](C)c2cc(OCC[N+]3(C)CCCCC3)ccc12

>  <Energy>  (24) 
116.46619476075854

>  <Genealogy>  (24) 
CCN(C)CCNc1c2ccccc2[n+](C)c2cc(OCC[N+]3(C)CCCCC3)ccc12 (3D coordinates assigned)
CCN(C)CCNc1c2ccccc2[n+](C)c2cc(OCC[N+]3(C)CCCCC3)ccc12 (nonaromatic ring conformer: 116.46619476075854 kcal/mol)

>  <smiles>  (24) 
CCN(C)CCNc1c2ccccc2[n+](C)c2cc(OCC[N+]3(C)CCCCC3)ccc12

>  <score_type>  (24) 
oracle

>  <origin>  (24) 
adg

>  <m_score__min__energy>  (24) 
-8.5600000000000005

>  <m_primary>  (24) 
energy

$$$$
24:0
     RDKit          3D

 38 41  0  0  0  0  0  0  0  0999 V2000
   -3.5510   17.1980  -35.0030 C   0  0  0  0  0  0  0  0  0  0  0  0
   -3.8540   17.1280  -33.5080 C   0  0  0  0  0  0  0  0  0  0  0  0
   -5.2640   16.7850  -33.2730 N   0  0  0  0  0  0  0  0  0  0  0  0
   -5.6830   15.3910  -33.4680 C   0  0  0  0  0  0  0  0  0  0  0  0
   -6.2230   17.7790  -32.8250 C   0  0  0  0  0  0  0  0  0  0  0  0
   -7.6060   17.5000  -32.8110 C   0  0  0  0  0  0  0  0  0  0  0  0
   -8.5280   18.4610  -32.3840 C   0  0  0  0  0  0  0  0  0  0  0  0
   -8.0910   19.7160  -31.9590 C   0  0  0  0  0  0  0  0  0  0  0  0
   -6.7210   20.0110  -31.9730 C   0  0  0  0  0  0  0  0  0  0  0  0
   -5.7920   19.0540  -32.4030 C   0  0  0  0  0  0  0  0  0  0  0  0
   -6.3320   21.3540  -31.5450 C   0  0  0  0  0  0  0  0  0  0  0  0
   -5.0650   21.8510  -31.5460 N   0  0  0  0  0  0  0  0  0  0  0  0
   -5.2450   23.0970  -31.0590 C   0  0  0  0  0  0  0  0  0  0  0  0
   -4.2720   24.0650  -30.8220 C   0  0  0  0  0  0  0  0  0  0  0  0
   -4.6900   25.2950  -30.2800 C   0  0  0  0  0  0  0  0  0  0  0  0
   -6.0550   25.5240  -29.9870 C   0  0  0  0  0  0  0  0  0  0  0  0
   -7.0150   24.5250  -30.2360 C   0  0  0  0  0  0  0  0  0  0  0  0
   -6.5650   23.3240  -30.7810 C   0  0  0  0  0  0  0  0  0  0  0  0
   -7.2600   22.2250  -31.1000 N   0  0  0  0  0  0  0  0  0  0  0  0
   -8.6740   21.9140  -30.8960 C   0  0  0  0  0  0  0  0  0  0  0  0
   -9.0270   20.6790  -31.5400 O   0  0  0  0  0  0  0  0  0  0  0  0
   -2.4889   17.4434  -35.1508 H   0  0  0  0  0  0  0  0  0  0  0  0
   -3.7707   16.2254  -35.4676 H   0  0  0  0  0  0  0  0  0  0  0  0
   -4.1751   17.9756  -35.4676 H   0  0  0  0  0  0  0  0  0  0  0  0
   -3.2151   16.3604  -33.0468 H   0  0  0  0  0  0  0  0  0  0  0  0
   -3.6536   18.1137  -33.0627 H   0  0  0  0  0  0  0  0  0  0  0  0
   -5.8272   14.9111  -32.4888 H   0  0  0  0  0  0  0  0  0  0  0  0
   -6.6279   15.3674  -34.0306 H   0  0  0  0  0  0  0  0  0  0  0  0
   -4.9077   14.8504  -34.0306 H   0  0  0  0  0  0  0  0  0  0  0  0
   -7.9639   16.5134  -33.1404 H   0  0  0  0  0  0  0  0  0  0  0  0
   -9.6027   18.2263  -32.3832 H   0  0  0  0  0  0  0  0  0  0  0  0
   -4.7196   19.2987  -32.4115 H   0  0  0  0  0  0  0  0  0  0  0  0
   -3.2130   23.8748  -31.0506 H   0  0  0  0  0  0  0  0  0  0  0  0
   -3.9496   26.0842  -30.0827 H   0  0  0  0  0  0  0  0  0  0  0  0
   -6.3682   26.4890  -29.5618 H   0  0  0  0  0  0  0  0  0  0  0  0
   -8.0792   24.6862  -30.0091 H   0  0  0  0  0  0  0  0  0  0  0  0
   -8.8713   21.8266  -29.8174 H   0  0  0  0  0  0  0  0  0  0  0  0
   -9.2777   22.7228  -31.3335 H   0  0  0  0  0  0  0  0  0  0  0  0
  1  2  1  0
  2  3  1  0
  3  4  1  0
  3  5  1  0
  5  6  2  0
  6  7  1  0
  7  8  2  0
  8  9  1  0
  9 10  2  0
  9 11  1  0
 11 12  2  0
 12 13  1  0
 13 14  2  0
 14 15  1  0
 15 16  2  0
 16 17  1  0
 17 18  2  0
 18 19  1  0
 19 20  1  0
 20 21  1  0
 10  5  1  0
 19 11  1  0
 21  8  1  0
 18 13  1  0
  1 22  1  0
  1 23  1  0
  1 24  1  0
  2 25  1  0
  2 26  1  0
  4 27  1  0
  4 28  1  0
  4 29  1  0
  6 30  1  0
  7 31  1  0
 10 32  1  0
 14 33  1  0
 15 34  1  0
 16 35  1  0
 17 36  1  0
 20 37  1  0
 20 38  1  0
M  END
>  <UniqueID>  (25) 
24

>  <SMILES>  (25) 
CCN(C)c1ccc2c(c1)-c1nc3ccccc3n1CO2

>  <Energy>  (25) 
84.32778537964975

>  <Genealogy>  (25) 
CCN(C)c1ccc2c(c1)-c1nc3ccccc3n1CO2 (3D coordinates assigned)
CCN(C)c1ccc2c(c1)-c1nc3ccccc3n1CO2 (nonaromatic ring conformer: 84.32778537964975 kcal/mol)

>  <smiles>  (25) 
CCN(C)c1ccc2c(c1)-c1nc3ccccc3n1CO2

>  <score_type>  (25) 
oracle

>  <origin>  (25) 
adg

>  <m_score__min__energy>  (25) 
-7.04

>  <m_primary>  (25) 
energy

$$$$
25:0
     RDKit          3D

 46 48  0  0  0  0  0  0  0  0999 V2000
   -0.4020   25.6950  -24.7110 C   0  0  0  0  0  0  0  0  0  0  0  0
   -0.2140   24.6660  -25.7390 N   0  0  0  0  0  0  0  0  0  0  0  0
    0.4110   23.3790  -25.3820 C   0  0  0  0  0  0  0  0  0  0  0  0
   -0.0800   22.2750  -26.2820 C   0  0  0  0  0  0  0  0  0  0  0  0
   -1.2330   21.5420  -25.9520 C   0  0  0  0  0  0  0  0  0  0  0  0
   -1.7000   20.5400  -26.8070 C   0  0  0  0  0  0  0  0  0  0  0  0
   -1.0170   20.2580  -27.9940 C   0  0  0  0  0  0  0  0  0  0  0  0
    0.1350   20.9770  -28.3250 C   0  0  0  0  0  0  0  0  0  0  0  0
    0.6030   21.9820  -27.4730 C   0  0  0  0  0  0  0  0  0  0  0  0
   -0.5570   24.9860  -27.1060 C   0  0  0  0  0  0  0  0  0  0  0  0
    0.2600   25.6300  -27.8190 O   0  0  0  0  0  0  0  0  0  0  0  0
   -1.8310   24.5530  -27.7120 C   0  0  0  0  0  0  0  0  0  0  0  0
   -1.8780   24.1130  -29.0430 C   0  0  0  0  0  0  0  0  0  0  0  0
   -3.0950   23.7310  -29.6160 C   0  0  0  0  0  0  0  0  0  0  0  0
   -4.2830   23.7850  -28.8660 C   0  0  0  0  0  0  0  0  0  0  0  0
   -5.5440   23.3880  -29.4310 N   0  0  0  0  0  0  0  0  0  0  0  0
   -5.7770   23.2550  -30.8430 C   0  0  0  0  0  0  0  0  0  0  0  0
   -5.0270   23.8590  -31.6590 O   0  0  0  0  0  0  0  0  0  0  0  0
   -6.9180   22.4580  -31.3540 C   0  0  0  0  0  0  0  0  0  0  0  0
   -6.7410   21.1010  -31.6870 C   0  0  0  0  0  0  0  0  0  0  0  0
   -7.8150   20.3420  -32.1650 C   0  0  0  0  0  0  0  0  0  0  0  0
   -9.0760   20.9250  -32.3080 C   0  0  0  0  0  0  0  0  0  0  0  0
   -9.2660   22.2670  -31.9720 C   0  0  0  0  0  0  0  0  0  0  0  0
   -8.1970   23.0310  -31.4960 C   0  0  0  0  0  0  0  0  0  0  0  0
   -4.2240   24.1820  -27.5220 C   0  0  0  0  0  0  0  0  0  0  0  0
   -3.0080   24.5630  -26.9480 C   0  0  0  0  0  0  0  0  0  0  0  0
   -0.3184   25.2372  -23.7143 H   0  0  0  0  0  0  0  0  0  0  0  0
    0.3692   26.4712  -24.8238 H   0  0  0  0  0  0  0  0  0  0  0  0
   -1.3978   26.1484  -24.8238 H   0  0  0  0  0  0  0  0  0  0  0  0
    1.5026   23.4682  -25.4840 H   0  0  0  0  0  0  0  0  0  0  0  0
    0.1409   23.1329  -24.3444 H   0  0  0  0  0  0  0  0  0  0  0  0
   -1.7701   21.7580  -25.0167 H   0  0  0  0  0  0  0  0  0  0  0  0
   -2.6056   19.9728  -26.5459 H   0  0  0  0  0  0  0  0  0  0  0  0
   -1.3862   19.4704  -28.6673 H   0  0  0  0  0  0  0  0  0  0  0  0
    0.6741   20.7519  -29.2570 H   0  0  0  0  0  0  0  0  0  0  0  0
    1.5101   22.5454  -27.7370 H   0  0  0  0  0  0  0  0  0  0  0  0
   -0.9541   24.0683  -29.6383 H   0  0  0  0  0  0  0  0  0  0  0  0
   -3.1231   23.3861  -30.6601 H   0  0  0  0  0  0  0  0  0  0  0  0
   -6.3630   23.3080  -28.7880 H   0  0  0  0  0  0  0  0  0  0  0  0
   -5.7516   20.6346  -31.5705 H   0  0  0  0  0  0  0  0  0  0  0  0
   -7.6658   19.2845  -32.4285 H   0  0  0  0  0  0  0  0  0  0  0  0
   -9.9190   20.3274  -32.6851 H   0  0  0  0  0  0  0  0  0  0  0  0
  -10.2603   22.7243  -32.0823 H   0  0  0  0  0  0  0  0  0  0  0  0
   -8.3554   24.0867  -31.2305 H   0  0  0  0  0  0  0  0  0  0  0  0
   -5.1415   24.1936  -26.9153 H   0  0  0  0  0  0  0  0  0  0  0  0
   -2.9734   24.8720  -25.8929 H   0  0  0  0  0  0  0  0  0  0  0  0
  1  2  1  0
  2  3  1  0
  3  4  1  0
  4  5  2  0
  5  6  1  0
  6  7  2  0
  7  8  1  0
  8  9  2  0
  2 10  1  0
 10 11  2  0
 10 12  1  0
 12 13  2  0
 13 14  1  0
 14 15  2  0
 15 16  1  0
 16 17  1  0
 17 18  2  0
 17 19  1  0
 19 20  2  0
 20 21  1  0
 21 22  2  0
 22 23  1  0
 23 24  2  0
 15 25  1  0
 25 26  2  0
  9  4  1  0
 26 12  1  0
 24 19  1  0
  1 27  1  0
  1 28  1  0
  1 29  1  0
  3 30  1  0
  3 31  1  0
  5 32  1  0
  6 33  1  0
  7 34  1  0
  8 35  1  0
  9 36  1  0
 13 37  1  0
 14 38  1  0
 16 39  1  0
 20 40  1  0
 21 41  1  0
 22 42  1  0
 23 43  1  0
 24 44  1  0
 25 45  1  0
 26 46  1  0
M  END
>  <UniqueID>  (26) 
25

>  <SMILES>  (26) 
CN(Cc1ccccc1)C(=O)c1ccc(NC(=O)c2ccccc2)cc1

>  <Energy>  (26) 
55.91679493323607

>  <Genealogy>  (26) 
CN(Cc1ccccc1)C(=O)c1ccc(NC(=O)c2ccccc2)cc1 (3D coordinates assigned)
CN(Cc1ccccc1)C(=O)c1ccc(NC(=O)c2ccccc2)cc1 (optimized conformer: 55.91679493323607 kcal/mol)

>  <smiles>  (26) 
CN(Cc1ccccc1)C(=O)c1ccc(NC(=O)c2ccccc2)cc1

>  <score_type>  (26) 
oracle

>  <origin>  (26) 
adg

>  <m_score__min__energy>  (26) 
-8.8200000000000003

>  <m_primary>  (26) 
energy

$$$$
26:0
     RDKit          3D

 51 54  0  0  0  0  0  0  0  0999 V2000
   -5.6990   14.8810  -34.0920 C   0  0  0  0  0  0  0  0  0  0  0  0
   -6.0000   15.9860  -33.7130 C   0  0  0  0  0  0  0  0  0  0  0  0
   -6.3590   17.3050  -33.2610 C   0  0  0  0  0  0  0  0  0  0  0  0
   -6.9220   17.4820  -31.9920 C   0  0  0  0  0  0  0  0  0  0  0  0
   -7.2730   18.7620  -31.5520 C   0  0  0  0  0  0  0  0  0  0  0  0
   -7.0550   19.8810  -32.3740 C   0  0  0  0  0  0  0  0  0  0  0  0
   -7.4270   21.2010  -31.9270 N   0  0  0  0  0  0  0  0  0  0  0  0
   -8.2290   21.3910  -30.7140 C   0  0  0  0  0  0  0  0  0  0  0  0
   -7.5640   22.4230  -29.7800 C   0  0  0  0  0  0  0  0  0  0  0  0
   -6.6750   23.3780  -30.4940 N   0  0  0  0  0  0  0  0  0  0  0  0
   -6.5140   24.6400  -29.7400 C   0  0  0  0  0  0  0  0  0  0  0  0
   -5.0380   24.9440  -29.4750 C   0  0  0  0  0  0  0  0  0  0  0  0
   -4.2470   24.3970  -30.5270 O   0  0  0  0  0  0  0  0  0  0  0  0
   -3.1910   23.4880  -30.3440 C   0  0  0  0  0  0  0  0  0  0  0  0
   -2.2790   23.6210  -29.2790 C   0  0  0  0  0  0  0  0  0  0  0  0
   -1.2360   22.7060  -29.1170 C   0  0  0  0  0  0  0  0  0  0  0  0
   -1.0850   21.6460  -30.0100 C   0  0  0  0  0  0  0  0  0  0  0  0
   -1.9780   21.4900  -31.0780 C   0  0  0  0  0  0  0  0  0  0  0  0
   -1.8270   20.4250  -31.9790 C   0  0  0  0  0  0  0  0  0  0  0  0
   -2.7190   20.2720  -33.0430 C   0  0  0  0  0  0  0  0  0  0  0  0
   -3.7650   21.1790  -33.2180 C   0  0  0  0  0  0  0  0  0  0  0  0
   -3.9290   22.2460  -32.3290 C   0  0  0  0  0  0  0  0  0  0  0  0
   -3.0400   22.4160  -31.2510 C   0  0  0  0  0  0  0  0  0  0  0  0
   -7.1590   23.6540  -31.8610 C   0  0  0  0  0  0  0  0  0  0  0  0
   -7.0390   22.3820  -32.7080 C   0  0  0  0  0  0  0  0  0  0  0  0
   -6.4960   19.6930  -33.6500 C   0  0  0  0  0  0  0  0  0  0  0  0
   -6.1480   18.4120  -34.0890 C   0  0  0  0  0  0  0  0  0  0  0  0
   -5.4245   13.8734  -34.4376 H   0  0  0  0  0  0  0  0  0  0  0  0
   -7.0887   16.6124  -31.3394 H   0  0  0  0  0  0  0  0  0  0  0  0
   -7.7224   18.8939  -30.5567 H   0  0  0  0  0  0  0  0  0  0  0  0
   -9.2301   21.7499  -30.9950 H   0  0  0  0  0  0  0  0  0  0  0  0
   -8.3043   20.4299  -30.1843 H   0  0  0  0  0  0  0  0  0  0  0  0
   -8.3549   22.9951  -29.2729 H   0  0  0  0  0  0  0  0  0  0  0  0
   -6.9367   21.8630  -29.0708 H   0  0  0  0  0  0  0  0  0  0  0  0
   -6.9506   25.4642  -30.3232 H   0  0  0  0  0  0  0  0  0  0  0  0
   -7.0262   24.5344  -28.7723 H   0  0  0  0  0  0  0  0  0  0  0  0
   -4.8893   26.0331  -29.4319 H   0  0  0  0  0  0  0  0  0  0  0  0
   -4.7363   24.4961  -28.5167 H   0  0  0  0  0  0  0  0  0  0  0  0
   -2.3891   24.4532  -28.5681 H   0  0  0  0  0  0  0  0  0  0  0  0
   -0.5306   22.8223  -28.2810 H   0  0  0  0  0  0  0  0  0  0  0  0
   -0.2614   20.9294  -29.8754 H   0  0  0  0  0  0  0  0  0  0  0  0
   -1.0033   19.7080  -31.8470 H   0  0  0  0  0  0  0  0  0  0  0  0
   -2.5966   19.4341  -33.7450 H   0  0  0  0  0  0  0  0  0  0  0  0
   -4.4634   21.0542  -34.0586 H   0  0  0  0  0  0  0  0  0  0  0  0
   -4.7568   22.9559  -32.4729 H   0  0  0  0  0  0  0  0  0  0  0  0
   -8.2116   23.9708  -31.8210 H   0  0  0  0  0  0  0  0  0  0  0  0
   -6.5539   24.4547  -32.3113 H   0  0  0  0  0  0  0  0  0  0  0  0
   -7.6982   22.4681  -33.5844 H   0  0  0  0  0  0  0  0  0  0  0  0
   -5.9928   22.2669  -33.0277 H   0  0  0  0  0  0  0  0  0  0  0  0
   -6.3313   20.5594  -34.3074 H   0  0  0  0  0  0  0  0  0  0  0  0
   -5.7074   18.2747  -35.0875 H   0  0  0  0  0  0  0  0  0  0  0  0
  1  2  3  0
  2  3  1  0
  3  4  2  0
  4  5  1  0
  5  6  2  0
  6  7  1  0
  7  8  1  0
  8  9  1  0
  9 10  1  0
 10 11  1  0
 11 12  1  0
 12 13  1  0
 13 14  1  0
 14 15  2  0
 15 16  1  0
 16 17  2  0
 17 18  1  0
 18 19  2  0
 19 20  1  0
 20 21  2  0
 21 22  1  0
 22 23  2  0
 10 24  1  0
 24 25  1  0
  6 26  1  0
 26 27  2  0
 27  3  1  0
 25  7  1  0
 23 14  1  0
 23 18  1  0
  1 28  1  0
  4 29  1  0
  5 30  1  0
  8 31  1  0
  8 32  1  0
  9 33  1  0
  9 34  1  0
 11 35  1  0
 11 36  1  0
 12 37  1  0
 12 38  1  0
 15 39  1  0
 16 40  1  0
 17 41  1  0
 19 42  1  0
 20 43  1  0
 21 44  1  0
 22 45  1  0
 24 46  1  0
 24 47  1  0
 25 48  1  0
 25 49  1  0
 26 50  1  0
 27 51  1  0
M  END
>  <UniqueID>  (27) 
26

>  <SMILES>  (27) 
C#Cc1ccc(N2CCN(CCOc3cccc4ccccc34)CC2)cc1

>  <Energy>  (27) 
64.68388312968324

>  <Genealogy>  (27) 
C#Cc1ccc(N2CCN(CCOc3cccc4ccccc34)CC2)cc1 (3D coordinates assigned)
C#Cc1ccc(N2CCN(CCOc3cccc4ccccc34)CC2)cc1 (nonaromatic ring conformer: 64.68388312968324 kcal/mol)

>  <smiles>  (27) 
C#Cc1ccc(N2CCN(CCOc3cccc4ccccc34)CC2)cc1

>  <score_type>  (27) 
oracle

>  <origin>  (27) 
adg

>  <m_score__min__energy>  (27) 
-9.6999999999999993

>  <m_primary>  (27) 
energy

$$$$
27:0
     RDKit          3D

 58 60  0  0  0  0  0  0  0  0999 V2000
   -3.3380   21.9480  -28.7690 C   0  0  0  0  0  0  0  0  0  0  0  0
   -4.3880   23.0180  -28.4930 C   0  0  0  0  0  0  0  0  0  0  0  0
   -3.8920   24.3360  -28.9530 N   0  0  0  0  0  0  0  0  0  0  0  0
   -4.5470   24.8320  -30.1890 C   0  0  0  0  0  0  0  0  0  0  0  0
   -6.0780   25.0340  -30.1020 C   0  0  0  0  0  0  0  0  0  0  0  0
   -6.8760   24.1760  -31.0950 C   0  0  0  0  0  0  0  0  0  0  0  0
   -7.1990   22.7840  -30.5350 C   0  0  0  0  0  0  0  0  0  0  0  0
   -6.9390   21.7290  -31.5290 N   0  0  0  0  0  0  0  0  0  0  0  0
   -8.0150   20.8740  -31.9670 C   0  0  0  0  0  0  0  0  0  0  0  0
   -9.1730   21.0090  -31.4860 O   0  0  0  0  0  0  0  0  0  0  0  0
   -7.7940   19.8430  -33.0390 C   0  0  0  0  0  0  0  0  0  0  0  0
   -6.3280   19.3370  -33.0570 C   0  0  0  0  0  0  0  0  0  0  0  0
   -6.0200   18.4710  -31.8210 C   0  0  0  0  0  0  0  0  0  0  0  0
   -6.4270   17.0470  -32.1870 C   0  0  0  0  0  0  0  0  0  0  0  0
   -6.5160   16.9880  -33.7090 C   0  0  0  0  0  0  0  0  0  0  0  0
   -6.1180   18.3650  -34.2270 C   0  0  0  0  0  0  0  0  0  0  0  0
   -5.3710   20.5460  -33.1720 C   0  0  0  0  0  0  0  0  0  0  0  0
   -5.6170   21.5480  -32.0790 C   0  0  0  0  0  0  0  0  0  0  0  0
   -4.6560   22.2660  -31.6880 O   0  0  0  0  0  0  0  0  0  0  0  0
   -2.4190   24.4510  -28.9710 C   0  0  0  0  0  0  0  0  0  0  0  0
   -1.9310   25.2010  -27.7610 C   0  0  0  0  0  0  0  0  0  0  0  0
   -2.5260   24.9740  -26.5090 C   0  0  0  0  0  0  0  0  0  0  0  0
   -2.0560   25.6410  -25.3740 C   0  0  0  0  0  0  0  0  0  0  0  0
   -0.9870   26.5370  -25.4800 C   0  0  0  0  0  0  0  0  0  0  0  0
   -0.3960   27.3720  -24.0540 Cl  0  0  0  0  0  0  0  0  0  0  0  0
   -0.3880   26.7650  -26.7240 C   0  0  0  0  0  0  0  0  0  0  0  0
   -0.8560   26.0990  -27.8600 C   0  0  0  0  0  0  0  0  0  0  0  0
   -2.9539   21.5566  -27.8154 H   0  0  0  0  0  0  0  0  0  0  0  0
   -3.7922   21.1286  -29.3454 H   0  0  0  0  0  0  0  0  0  0  0  0
   -2.5101   22.3867  -29.3454 H   0  0  0  0  0  0  0  0  0  0  0  0
   -5.3145   22.7682  -29.0308 H   0  0  0  0  0  0  0  0  0  0  0  0
   -4.5879   23.0614  -27.4122 H   0  0  0  0  0  0  0  0  0  0  0  0
   -4.0925   25.7999  -30.4472 H   0  0  0  0  0  0  0  0  0  0  0  0
   -4.3904   24.0495  -30.9460 H   0  0  0  0  0  0  0  0  0  0  0  0
   -6.4039   24.7779  -29.0831 H   0  0  0  0  0  0  0  0  0  0  0  0
   -6.2765   26.0855  -30.3569 H   0  0  0  0  0  0  0  0  0  0  0  0
   -7.8196   24.6909  -31.3285 H   0  0  0  0  0  0  0  0  0  0  0  0
   -6.2581   24.0412  -31.9950 H   0  0  0  0  0  0  0  0  0  0  0  0
   -6.5741   22.6016  -29.6483 H   0  0  0  0  0  0  0  0  0  0  0  0
   -8.2671   22.7564  -30.2736 H   0  0  0  0  0  0  0  0  0  0  0  0
   -8.4632   18.9894  -32.8557 H   0  0  0  0  0  0  0  0  0  0  0  0
   -8.0068   20.3099  -34.0120 H   0  0  0  0  0  0  0  0  0  0  0  0
   -4.9465   18.5119  -31.5846 H   0  0  0  0  0  0  0  0  0  0  0  0
   -6.5652   18.8286  -30.9350 H   0  0  0  0  0  0  0  0  0  0  0  0
   -5.6728   16.3331  -31.8244 H   0  0  0  0  0  0  0  0  0  0  0  0
   -7.3900   16.7823  -31.7260 H   0  0  0  0  0  0  0  0  0  0  0  0
   -5.8283   16.2233  -34.0992 H   0  0  0  0  0  0  0  0  0  0  0  0
   -7.5324   16.7223  -34.0350 H   0  0  0  0  0  0  0  0  0  0  0  0
   -5.0632   18.3653  -34.5390 H   0  0  0  0  0  0  0  0  0  0  0  0
   -6.7182   18.6540  -35.1023 H   0  0  0  0  0  0  0  0  0  0  0  0
   -4.3331   20.1884  -33.1023 H   0  0  0  0  0  0  0  0  0  0  0  0
   -5.5510   21.0384  -34.1390 H   0  0  0  0  0  0  0  0  0  0  0  0
   -1.9778   23.4434  -28.9739 H   0  0  0  0  0  0  0  0  0  0  0  0
   -2.1175   25.0012  -29.8745 H   0  0  0  0  0  0  0  0  0  0  0  0
   -3.3653   24.2684  -26.4213 H   0  0  0  0  0  0  0  0  0  0  0  0
   -2.5273   25.4611  -24.3965 H   0  0  0  0  0  0  0  0  0  0  0  0
    0.4526   27.4696  -26.8078 H   0  0  0  0  0  0  0  0  0  0  0  0
   -0.3804   26.2789  -28.8354 H   0  0  0  0  0  0  0  0  0  0  0  0
  1  2  1  0
  2  3  1  0
  3  4  1  0
  4  5  1  0
  5  6  1  0
  6  7  1  0
  7  8  1  0
  8  9  1  0
  9 10  2  0
  9 11  1  0
 11 12  1  0
 12 13  1  0
 13 14  1  0
 14 15  1  0
 15 16  1  0
 12 17  1  0
 17 18  1  0
 18 19  2  0
  3 20  1  0
 20 21  1  0
 21 22  2  0
 22 23  1  0
 23 24  2  0
 24 25  1  0
 24 26  1  0
 26 27  2  0
 18  8  1  0
 27 21  1  0
 16 12  1  0
  1 28  1  0
  1 29  1  0
  1 30  1  0
  2 31  1  0
  2 32  1  0
  4 33  1  0
  4 34  1  0
  5 35  1  0
  5 36  1  0
  6 37  1  0
  6 38  1  0
  7 39  1  0
  7 40  1  0
 11 41  1  0
 11 42  1  0
 13 43  1  0
 13 44  1  0
 14 45  1  0
 14 46  1  0
 15 47  1  0
 15 48  1  0
 16 49  1  0
 16 50  1  0
 17 51  1  0
 17 52  1  0
 20 53  1  0
 20 54  1  0
 22 55  1  0
 23 56  1  0
 26 57  1  0
 27 58  1  0
M  END
>  <UniqueID>  (28) 
27

>  <SMILES>  (28) 
CCN(CCCCN1C(=O)CC2(CCCC2)CC1=O)Cc1ccc(Cl)cc1

>  <Energy>  (28) 
58.75682919552555

>  <Genealogy>  (28) 
CCN(CCCCN1C(=O)CC2(CCCC2)CC1=O)Cc1ccc(Cl)cc1 (3D coordinates assigned)
CCN(CCCCN1C(=O)CC2(CCCC2)CC1=O)Cc1ccc(Cl)cc1 (nonaromatic ring conformer: 58.75682919552555 kcal/mol)

>  <smiles>  (28) 
CCN(CCCCN1C(=O)CC2(CCCC2)CC1=O)Cc1ccc(Cl)cc1

>  <score_type>  (28) 
oracle

>  <origin>  (28) 
adg

>  <m_score__min__energy>  (28) 
-8.9600000000000009

>  <m_primary>  (28) 
energy

$$$$
28:0
     RDKit          3D

 52 55  0  0  0  0  0  0  0  0999 V2000
    0.8790   19.7950  -36.0360 C   0  0  0  0  0  0  0  0  0  0  0  0
   -0.1120   20.9600  -36.0610 C   0  0  0  0  0  0  0  0  0  0  0  0
    0.2100   21.9270  -34.9910 N   0  0  0  0  0  0  0  0  0  0  0  0
    1.3960   22.7280  -35.3520 C   0  0  0  0  0  0  0  0  0  0  0  0
    0.4350   21.2410  -33.6920 C   0  0  0  0  0  0  0  0  0  0  0  0
   -0.8670   21.1470  -32.8780 C   0  0  0  0  0  0  0  0  0  0  0  0
   -2.0340   21.1020  -33.7610 N   0  0  0  0  0  0  0  0  0  0  0  0
   -3.1390   20.2130  -33.5070 C   0  0  0  0  0  0  0  0  0  0  0  0
   -3.0290   18.8560  -33.8170 C   0  0  0  0  0  0  0  0  0  0  0  0
   -1.7750   18.3260  -34.2280 C   0  0  0  0  0  0  0  0  0  0  0  0
   -1.6330   16.9800  -34.5360 C   0  0  0  0  0  0  0  0  0  0  0  0
   -2.7190   16.1250  -34.4250 C   0  0  0  0  0  0  0  0  0  0  0  0
   -3.9610   16.6120  -34.0130 C   0  0  0  0  0  0  0  0  0  0  0  0
   -4.1660   18.0030  -33.7030 C   0  0  0  0  0  0  0  0  0  0  0  0
   -5.4100   18.5450  -33.3090 N   0  0  0  0  0  0  0  0  0  0  0  0
   -6.5960   17.6680  -33.1780 C   0  0  0  0  0  0  0  0  0  0  0  0
   -5.5230   19.9070  -32.9790 C   0  0  0  0  0  0  0  0  0  0  0  0
   -4.3380   20.7060  -32.9490 C   0  0  0  0  0  0  0  0  0  0  0  0
   -4.3180   21.9570  -32.3110 C   0  0  0  0  0  0  0  0  0  0  0  0
   -5.4530   22.4680  -31.7060 C   0  0  0  0  0  0  0  0  0  0  0  0
   -6.6740   21.8110  -31.8330 C   0  0  0  0  0  0  0  0  0  0  0  0
   -7.8190   22.4300  -31.2890 C   0  0  0  0  0  0  0  0  0  0  0  0
   -9.0820   21.8970  -31.5190 C   0  0  0  0  0  0  0  0  0  0  0  0
   -9.2180   20.7930  -32.3450 C   0  0  0  0  0  0  0  0  0  0  0  0
   -8.0840   20.1590  -32.8840 C   0  0  0  0  0  0  0  0  0  0  0  0
   -6.7620   20.5850  -32.5590 C   0  0  0  0  0  0  0  0  0  0  0  0
    1.1056   19.5287  -34.9931 H   0  0  0  0  0  0  0  0  0  0  0  0
    0.4379   18.9274  -36.5485 H   0  0  0  0  0  0  0  0  0  0  0  0
    1.8062   20.0912  -36.5485 H   0  0  0  0  0  0  0  0  0  0  0  0
   -0.0545   21.4650  -37.0365 H   0  0  0  0  0  0  0  0  0  0  0  0
   -1.1279   20.5705  -35.8990 H   0  0  0  0  0  0  0  0  0  0  0  0
    1.9008   23.0690  -34.4361 H   0  0  0  0  0  0  0  0  0  0  0  0
    2.0882   22.1117  -35.9445 H   0  0  0  0  0  0  0  0  0  0  0  0
    1.0828   23.6003  -35.9445 H   0  0  0  0  0  0  0  0  0  0  0  0
    0.8123   20.2256  -33.8834 H   0  0  0  0  0  0  0  0  0  0  0  0
    1.1659   21.8243  -33.1127 H   0  0  0  0  0  0  0  0  0  0  0  0
   -0.8435   20.2336  -32.2656 H   0  0  0  0  0  0  0  0  0  0  0  0
   -0.9456   22.0377  -32.2373 H   0  0  0  0  0  0  0  0  0  0  0  0
   -2.0840   21.7610  -34.5690 H   0  0  0  0  0  0  0  0  0  0  0  0
   -0.9037   18.9933  -34.3030 H   0  0  0  0  0  0  0  0  0  0  0  0
   -0.6589   16.5916  -34.8681 H   0  0  0  0  0  0  0  0  0  0  0  0
   -2.6014   15.0575  -34.6628 H   0  0  0  0  0  0  0  0  0  0  0  0
   -4.8061   15.9137  -33.9228 H   0  0  0  0  0  0  0  0  0  0  0  0
   -6.8159   17.5054  -32.1125 H   0  0  0  0  0  0  0  0  0  0  0  0
   -7.4606   18.1457  -33.6621 H   0  0  0  0  0  0  0  0  0  0  0  0
   -6.3925   16.7014  -33.6621 H   0  0  0  0  0  0  0  0  0  0  0  0
   -3.3854   22.5400  -32.2919 H   0  0  0  0  0  0  0  0  0  0  0  0
   -5.3902   23.3979  -31.1218 H   0  0  0  0  0  0  0  0  0  0  0  0
   -7.7117   23.3394  -30.6795 H   0  0  0  0  0  0  0  0  0  0  0  0
   -9.9677   22.3487  -31.0483 H   0  0  0  0  0  0  0  0  0  0  0  0
  -10.2214   20.4090  -32.5813 H   0  0  0  0  0  0  0  0  0  0  0  0
   -8.2201   19.3130  -33.5738 H   0  0  0  0  0  0  0  0  0  0  0  0
  1  2  1  0
  2  3  1  0
  3  4  1  0
  3  5  1  0
  5  6  1  0
  6  7  1  0
  7  8  1  0
  8  9  2  0
  9 10  1  0
 10 11  2  0
 11 12  1  0
 12 13  2  0
 13 14  1  0
 14 15  2  0
 15 16  1  0
 15 17  1  0
 17 18  2  0
 18 19  1  0
 19 20  2  0
 20 21  1  0
 21 22  2  0
 22 23  1  0
 23 24  2  0
 24 25  1  0
 25 26  2  0
 18  8  1  0
 26 21  1  0
 14  9  1  0
 26 17  1  0
  1 27  1  0
  1 28  1  0
  1 29  1  0
  2 30  1  0
  2 31  1  0
  4 32  1  0
  4 33  1  0
  4 34  1  0
  5 35  1  0
  5 36  1  0
  6 37  1  0
  6 38  1  0
  7 39  1  0
 10 40  1  0
 11 41  1  0
 12 42  1  0
 13 43  1  0
 16 44  1  0
 16 45  1  0
 16 46  1  0
 19 47  1  0
 20 48  1  0
 22 49  1  0
 23 50  1  0
 24 51  1  0
 25 52  1  0
M  CHG  1  15   1
M  END
>  <UniqueID>  (29) 
28

>  <SMILES>  (29) 
CCN(C)CCNc1c2ccccc2[n+](C)c2c1ccc1ccccc12

>  <Energy>  (29) 
107.18309189820977

>  <Genealogy>  (29) 
CCN(C)CCNc1c2ccccc2[n+](C)c2c1ccc1ccccc12 (3D coordinates assigned)
CCN(C)CCNc1c2ccccc2[n+](C)c2c1ccc1ccccc12 (optimized conformer: 107.18309189820977 kcal/mol)

>  <smiles>  (29) 
CCN(C)CCNc1c2ccccc2[n+](C)c2c1ccc1ccccc12

>  <score_type>  (29) 
oracle

>  <origin>  (29) 
adg

>  <m_score__min__energy>  (29) 
-8.75

>  <m_primary>  (29) 
energy

$$$$
29:0
     RDKit          3D

 39 42  0  0  0  0  0  0  0  0999 V2000
   -7.9120   24.6350  -30.2000 H   0  0  0  0  0  0  0  0  0  0  0  0
   -7.1180   25.2960  -30.0620 N   0  0  0  0  0  0  0  0  0  0  0  0
   -5.9100   25.0410  -30.4520 C   0  0  0  0  0  0  0  0  0  0  0  0
   -4.9060   25.9270  -30.3750 N   0  0  0  0  0  0  0  0  0  0  0  0
   -3.8620   25.2920  -30.8300 O   0  0  0  0  0  0  0  0  0  0  0  0
   -4.1080   24.0630  -31.1980 N   0  0  0  0  0  0  0  0  0  0  0  0
   -5.4180   23.8590  -30.9660 C   0  0  0  0  0  0  0  0  0  0  0  0
   -6.1380   22.6070  -31.2860 C   0  0  0  0  0  0  0  0  0  0  0  0
   -7.4790   22.4690  -31.1080 N   0  0  0  0  0  0  0  0  0  0  0  0
   -7.7300   21.2390  -31.5870 C   0  0  0  0  0  0  0  0  0  0  0  0
   -8.9570   20.5790  -31.6280 C   0  0  0  0  0  0  0  0  0  0  0  0
   -9.8749   21.0620  -31.2615 H   0  0  0  0  0  0  0  0  0  0  0  0
   -8.9820   19.2740  -32.1540 C   0  0  0  0  0  0  0  0  0  0  0  0
   -9.9333   18.7244  -32.2076 H   0  0  0  0  0  0  0  0  0  0  0  0
   -7.7920   18.6650  -32.6140 C   0  0  0  0  0  0  0  0  0  0  0  0
   -7.8218   17.6426  -33.0187 H   0  0  0  0  0  0  0  0  0  0  0  0
   -6.5690   19.3600  -32.5570 C   0  0  0  0  0  0  0  0  0  0  0  0
   -5.6343   18.8958  -32.9046 H   0  0  0  0  0  0  0  0  0  0  0  0
   -6.5830   20.6590  -32.0440 C   0  0  0  0  0  0  0  0  0  0  0  0
   -5.5620   21.5140  -31.8620 N   0  0  0  0  0  0  0  0  0  0  0  0
   -4.1740   21.2790  -32.1470 C   0  0  0  0  0  0  0  0  0  0  0  0
   -3.2440   21.1850  -31.1030 C   0  0  0  0  0  0  0  0  0  0  0  0
   -3.5790   21.2954  -30.0611 H   0  0  0  0  0  0  0  0  0  0  0  0
   -1.8940   20.9520  -31.3770 C   0  0  0  0  0  0  0  0  0  0  0  0
   -1.1721   20.8821  -30.5499 H   0  0  0  0  0  0  0  0  0  0  0  0
   -1.4520   20.8060  -32.7070 C   0  0  0  0  0  0  0  0  0  0  0  0
   -0.0680   20.5660  -33.0250 N   0  0  0  0  0  0  0  0  0  0  0  0
    0.6200   20.5440  -32.2380 H   0  0  0  0  0  0  0  0  0  0  0  0
    0.4160   20.3480  -34.3900 C   0  0  0  0  0  0  0  0  0  0  0  0
    1.4091   19.8769  -34.3482 H   0  0  0  0  0  0  0  0  0  0  0  0
   -0.2987   19.6968  -34.9146 H   0  0  0  0  0  0  0  0  0  0  0  0
    0.5210   21.6660  -35.1520 C   0  0  0  0  0  0  0  0  0  0  0  0
    0.5874   22.4989  -34.4365 H   0  0  0  0  0  0  0  0  0  0  0  0
    1.4210   21.6532  -35.7844 H   0  0  0  0  0  0  0  0  0  0  0  0
   -0.3696   21.7959  -35.7844 H   0  0  0  0  0  0  0  0  0  0  0  0
   -2.3900   20.8960  -33.7480 C   0  0  0  0  0  0  0  0  0  0  0  0
   -2.0595   20.7813  -34.7909 H   0  0  0  0  0  0  0  0  0  0  0  0
   -3.7400   21.1300  -33.4710 C   0  0  0  0  0  0  0  0  0  0  0  0
   -4.4647   21.1975  -34.2958 H   0  0  0  0  0  0  0  0  0  0  0  0
  1  2  1  0
  2  3  2  0
  3  4  1  0
  4  5  1  0
  5  6  1  0
  6  7  2  0
  7  8  1  0
  8  9  2  0
  9 10  1  0
 10 11  2  0
 11 12  1  0
 11 13  1  0
 13 14  1  0
 13 15  2  0
 15 16  1  0
 15 17  1  0
 17 18  1  0
 17 19  2  0
 19 20  1  0
 20 21  1  0
 21 22  2  0
 22 23  1  0
 22 24  1  0
 24 25  1  0
 24 26  2  0
 26 27  1  0
 27 28  1  0
 27 29  1  0
 29 30  1  0
 29 31  1  0
 29 32  1  0
 32 33  1  0
 32 34  1  0
 32 35  1  0
 26 36  1  0
 36 37  1  0
 36 38  2  0
 38 39  1  0
  7  3  1  0
 20  8  1  0
 38 21  1  0
 19 10  1  0
M  CHG  1   4  -1
M  END
>  <UniqueID>  (30) 
29

>  <SMILES>  (30) 
[H]/N=c1/[n-]onc1-c1nc2ccccc2n1-c1ccc(NCC)cc1

>  <Energy>  (30) 
122.56249587673015

>  <Genealogy>  (30) 
CCNc1ccc(-n2c(-c3no[n-]c3=N)nc3ccccc32)cc1 (protonated)
[H]/N=c1/[n-]onc1-c1nc2ccccc2n1-c1ccc(NCC)cc1 (cis-trans isomerization)
[H]/N=c1/[n-]onc1-c1nc2ccccc2n1-c1ccc(NCC)cc1 (3D coordinates assigned)
[H]/N=c1/[n-]onc1-c1nc2ccccc2n1-c1ccc(NCC)cc1 (optimized conformer: 122.56249587673015 kcal/mol)

>  <smiles>  (30) 
CCNc1ccc(-n2c(-c3no[nH]c3=N)nc3ccccc32)cc1

>  <score_type>  (30) 
oracle

>  <origin>  (30) 
adg

>  <m_score__min__energy>  (30) 
-9.8800000000000008

>  <m_primary>  (30) 
energy

$$$$
30:0
     RDKit          3D

 61 63  0  0  0  0  0  0  0  0999 V2000
   -1.2930   23.6760  -29.3050 C   0  0  0  0  0  0  0  0  0  0  0  0
   -2.4810   24.3910  -28.6670 C   0  0  0  0  0  0  0  0  0  0  0  0
   -3.7570   23.8070  -29.1450 N   0  0  0  0  0  0  0  0  0  0  0  0
   -3.8400   22.3810  -28.7790 C   0  0  0  0  0  0  0  0  0  0  0  0
   -4.9260   24.5390  -28.6040 C   0  0  0  0  0  0  0  0  0  0  0  0
   -5.8180   25.0790  -29.7310 C   0  0  0  0  0  0  0  0  0  0  0  0
   -5.4630   24.4780  -31.0180 N   0  0  0  0  0  0  0  0  0  0  0  0
   -6.1360   23.3160  -31.5270 C   0  0  0  0  0  0  0  0  0  0  0  0
   -7.5310   23.2860  -31.4290 C   0  0  0  0  0  0  0  0  0  0  0  0
   -8.2630   22.2150  -31.9190 C   0  0  0  0  0  0  0  0  0  0  0  0
   -7.6180   21.1360  -32.5300 C   0  0  0  0  0  0  0  0  0  0  0  0
   -8.3900   20.0490  -33.0830 N   0  0  0  0  0  0  0  0  0  0  0  0
   -8.8180   18.8760  -32.3190 C   0  0  0  0  0  0  0  0  0  0  0  0
   -7.6280   17.9890  -31.9340 C   0  0  0  0  0  0  0  0  0  0  0  0
   -7.2230   17.0410  -33.0750 C   0  0  0  0  0  0  0  0  0  0  0  0
   -5.7480   16.9600  -33.1820 N   0  0  0  0  0  0  0  0  0  0  0  0
   -5.3480   16.6970  -34.5760 C   0  0  0  0  0  0  0  0  0  0  0  0
   -5.2110   15.8970  -32.3110 C   0  0  0  0  0  0  0  0  0  0  0  0
   -6.2080   21.1420  -32.6200 C   0  0  0  0  0  0  0  0  0  0  0  0
   -5.4030   19.8350  -33.3230 S   0  0  0  0  0  0  0  0  0  0  0  0
   -3.7400   20.0170  -33.3450 C   0  0  0  0  0  0  0  0  0  0  0  0
   -2.9330   19.0230  -33.9100 C   0  0  0  0  0  0  0  0  0  0  0  0
   -1.5480   19.1780  -33.9290 C   0  0  0  0  0  0  0  0  0  0  0  0
   -0.9710   20.3260  -33.3870 C   0  0  0  0  0  0  0  0  0  0  0  0
   -1.7740   21.3200  -32.8240 C   0  0  0  0  0  0  0  0  0  0  0  0
   -3.1870   21.1880  -32.7870 C   0  0  0  0  0  0  0  0  0  0  0  0
   -3.9840   22.2200  -32.1970 C   0  0  0  0  0  0  0  0  0  0  0  0
   -3.3580   23.2070  -31.7200 O   0  0  0  0  0  0  0  0  0  0  0  0
   -5.4260   22.2190  -32.1130 C   0  0  0  0  0  0  0  0  0  0  0  0
   -0.6362   23.2807  -28.5161 H   0  0  0  0  0  0  0  0  0  0  0  0
   -1.6565   22.8465  -29.9293 H   0  0  0  0  0  0  0  0  0  0  0  0
   -0.7302   24.3855  -29.9293 H   0  0  0  0  0  0  0  0  0  0  0  0
   -2.4220   24.2859  -27.5736 H   0  0  0  0  0  0  0  0  0  0  0  0
   -2.4491   25.4539  -28.9483 H   0  0  0  0  0  0  0  0  0  0  0  0
   -3.8457   22.2834  -27.6834 H   0  0  0  0  0  0  0  0  0  0  0  0
   -4.7647   21.9501  -29.1903 H   0  0  0  0  0  0  0  0  0  0  0  0
   -2.9715   21.8457  -29.1903 H   0  0  0  0  0  0  0  0  0  0  0  0
   -5.5167   23.8561  -27.9758 H   0  0  0  0  0  0  0  0  0  0  0  0
   -4.5585   25.3916  -28.0141 H   0  0  0  0  0  0  0  0  0  0  0  0
   -6.8679   24.8439  -29.5021 H   0  0  0  0  0  0  0  0  0  0  0  0
   -5.6719   26.1670  -29.8013 H   0  0  0  0  0  0  0  0  0  0  0  0
   -4.6230   24.8340  -31.5280 H   0  0  0  0  0  0  0  0  0  0  0  0
   -8.0571   24.1275  -30.9545 H   0  0  0  0  0  0  0  0  0  0  0  0
   -9.3591   22.2146  -31.8262 H   0  0  0  0  0  0  0  0  0  0  0  0
   -8.6330   20.0590  -34.0980 H   0  0  0  0  0  0  0  0  0  0  0  0
   -9.3241   19.2123  -31.4021 H   0  0  0  0  0  0  0  0  0  0  0  0
   -9.4988   18.2845  -32.9488 H   0  0  0  0  0  0  0  0  0  0  0  0
   -6.7711   18.6325  -31.6859 H   0  0  0  0  0  0  0  0  0  0  0  0
   -7.9271   17.3747  -31.0720 H   0  0  0  0  0  0  0  0  0  0  0  0
   -7.6271   16.0380  -32.8732 H   0  0  0  0  0  0  0  0  0  0  0  0
   -7.6280   17.4292  -34.0212 H   0  0  0  0  0  0  0  0  0  0  0  0
   -4.4289   16.0927  -34.5859 H   0  0  0  0  0  0  0  0  0  0  0  0
   -6.1517   16.1505  -35.0912 H   0  0  0  0  0  0  0  0  0  0  0  0
   -5.1649   17.6515  -35.0912 H   0  0  0  0  0  0  0  0  0  0  0  0
   -5.3536   16.1793  -31.2574 H   0  0  0  0  0  0  0  0  0  0  0  0
   -5.7412   14.9546  -32.5131 H   0  0  0  0  0  0  0  0  0  0  0  0
   -4.1379   15.7646  -32.5131 H   0  0  0  0  0  0  0  0  0  0  0  0
   -3.3915   18.1198  -34.3389 H   0  0  0  0  0  0  0  0  0  0  0  0
   -0.9117   18.3968  -34.3704 H   0  0  0  0  0  0  0  0  0  0  0  0
    0.1220   20.4491  -33.4030 H   0  0  0  0  0  0  0  0  0  0  0  0
   -1.3038   22.2205  -32.4021 H   0  0  0  0  0  0  0  0  0  0  0  0
  1  2  1  0
  2  3  1  0
  3  4  1  0
  3  5  1  0
  5  6  1  0
  6  7  1  0
  7  8  1  0
  8  9  2  0
  9 10  1  0
 10 11  2  0
 11 12  1  0
 12 13  1  0
 13 14  1  0
 14 15  1  0
 15 16  1  0
 16 17  1  0
 16 18  1  0
 11 19  1  0
 19 20  1  0
 20 21  1  0
 21 22  2  0
 22 23  1  0
 23 24  2  0
 24 25  1  0
 25 26  2  0
 26 27  1  0
 27 28  2  0
 27 29  1  0
 29  8  1  0
 29 19  2  0
 26 21  1  0
  1 30  1  0
  1 31  1  0
  1 32  1  0
  2 33  1  0
  2 34  1  0
  4 35  1  0
  4 36  1  0
  4 37  1  0
  5 38  1  0
  5 39  1  0
  6 40  1  0
  6 41  1  0
  7 42  1  0
  9 43  1  0
 10 44  1  0
 12 45  1  0
 13 46  1  0
 13 47  1  0
 14 48  1  0
 14 49  1  0
 15 50  1  0
 15 51  1  0
 17 52  1  0
 17 53  1  0
 17 54  1  0
 18 55  1  0
 18 56  1  0
 18 57  1  0
 22 58  1  0
 23 59  1  0
 24 60  1  0
 25 61  1  0
M  END
>  <UniqueID>  (31) 
30

>  <SMILES>  (31) 
CCN(C)CCNc1ccc(NCCCN(C)C)c2sc3ccccc3c(=O)c12

>  <Energy>  (31) 
76.60279079839056

>  <Genealogy>  (31) 
CCN(C)CCNc1ccc(NCCCN(C)C)c2sc3ccccc3c(=O)c12 (3D coordinates assigned)
CCN(C)CCNc1ccc(NCCCN(C)C)c2sc3ccccc3c(=O)c12 (optimized conformer: 76.60279079839056 kcal/mol)

>  <smiles>  (31) 
CCN(C)CCNc1ccc(NCCCN(C)C)c2sc3ccccc3c(=O)c12

>  <score_type>  (31) 
oracle

>  <origin>  (31) 
adg

>  <m_score__min__energy>  (31) 
-8.7200000000000006

>  <m_primary>  (31) 
energy

$$$$
31:0
     RDKit          3D

 50 52  0  0  0  0  0  0  0  0999 V2000
   -9.1280   20.7760  -31.3640 C   0  0  0  0  0  0  0  0  0  0  0  0
   -8.3870   20.6630  -32.5740 O   0  0  0  0  0  0  0  0  0  0  0  0
   -7.3600   19.7300  -32.7970 C   0  0  0  0  0  0  0  0  0  0  0  0
   -7.6350   18.3570  -32.9530 C   0  0  0  0  0  0  0  0  0  0  0  0
   -6.5950   17.4430  -33.1380 C   0  0  0  0  0  0  0  0  0  0  0  0
   -5.2730   17.8820  -33.1570 C   0  0  0  0  0  0  0  0  0  0  0  0
   -4.9850   19.2380  -33.0010 C   0  0  0  0  0  0  0  0  0  0  0  0
   -6.0210   20.1770  -32.8450 C   0  0  0  0  0  0  0  0  0  0  0  0
   -5.6730   21.6440  -32.6850 C   0  0  0  0  0  0  0  0  0  0  0  0
   -5.6690   22.1070  -31.2800 N   0  0  0  0  0  0  0  0  0  0  0  0
   -6.7540   23.0490  -30.9370 C   0  0  0  0  0  0  0  0  0  0  0  0
   -6.3080   24.5230  -31.0030 C   0  0  0  0  0  0  0  0  0  0  0  0
   -5.7250   25.0590  -29.6740 C   0  0  0  0  0  0  0  0  0  0  0  0
   -4.3450   24.5710  -29.4620 N   0  0  0  0  0  0  0  0  0  0  0  0
   -4.2230   23.7960  -28.2090 C   0  0  0  0  0  0  0  0  0  0  0  0
   -2.8120   23.2980  -28.0350 C   0  0  0  0  0  0  0  0  0  0  0  0
   -2.5630   21.9550  -27.7100 C   0  0  0  0  0  0  0  0  0  0  0  0
   -1.2500   21.4980  -27.5670 C   0  0  0  0  0  0  0  0  0  0  0  0
   -0.1780   22.3770  -27.7450 C   0  0  0  0  0  0  0  0  0  0  0  0
   -0.4150   23.7140  -28.0800 C   0  0  0  0  0  0  0  0  0  0  0  0
    0.6620   24.5770  -28.2650 O   0  0  0  0  0  0  0  0  0  0  0  0
   -1.7310   24.1720  -28.2330 C   0  0  0  0  0  0  0  0  0  0  0  0
   -3.8420   23.7920  -30.6190 C   0  0  0  0  0  0  0  0  0  0  0  0
   -4.3350   22.3180  -30.6680 C   0  0  0  0  0  0  0  0  0  0  0  0
   -8.4473   20.6722  -30.5061 H   0  0  0  0  0  0  0  0  0  0  0  0
   -9.6193   21.7594  -31.3254 H   0  0  0  0  0  0  0  0  0  0  0  0
   -9.8901   19.9837  -31.3254 H   0  0  0  0  0  0  0  0  0  0  0  0
   -8.6760   18.0023  -32.9289 H   0  0  0  0  0  0  0  0  0  0  0  0
   -6.8204   16.3743  -33.2690 H   0  0  0  0  0  0  0  0  0  0  0  0
   -4.4557   17.1589  -33.2951 H   0  0  0  0  0  0  0  0  0  0  0  0
   -3.9383   19.5762  -32.9999 H   0  0  0  0  0  0  0  0  0  0  0  0
   -4.6714   21.8109  -33.1080 H   0  0  0  0  0  0  0  0  0  0  0  0
   -6.4522   22.2170  -33.2089 H   0  0  0  0  0  0  0  0  0  0  0  0
   -7.5843   22.9010  -31.6432 H   0  0  0  0  0  0  0  0  0  0  0  0
   -7.0581   22.8409  -29.9005 H   0  0  0  0  0  0  0  0  0  0  0  0
   -5.5379   24.6178  -31.7828 H   0  0  0  0  0  0  0  0  0  0  0  0
   -7.2055   25.1198  -31.2229 H   0  0  0  0  0  0  0  0  0  0  0  0
   -5.7166   26.1586  -29.7031 H   0  0  0  0  0  0  0  0  0  0  0  0
   -6.3537   24.6986  -28.8465 H   0  0  0  0  0  0  0  0  0  0  0  0
   -4.4878   24.4399  -27.3573 H   0  0  0  0  0  0  0  0  0  0  0  0
   -4.9030   22.9326  -28.2558 H   0  0  0  0  0  0  0  0  0  0  0  0
   -3.4039   21.2604  -27.5675 H   0  0  0  0  0  0  0  0  0  0  0  0
   -1.0599   20.4445  -27.3139 H   0  0  0  0  0  0  0  0  0  0  0  0
    0.8539   22.0166  -27.6214 H   0  0  0  0  0  0  0  0  0  0  0  0
    1.2360   24.5380  -29.1000 H   0  0  0  0  0  0  0  0  0  0  0  0
   -1.9176   25.2203  -28.5093 H   0  0  0  0  0  0  0  0  0  0  0  0
   -4.1705   24.2949  -31.5405 H   0  0  0  0  0  0  0  0  0  0  0  0
   -2.7475   23.7523  -30.5170 H   0  0  0  0  0  0  0  0  0  0  0  0
   -3.6021   21.7354  -31.2454 H   0  0  0  0  0  0  0  0  0  0  0  0
   -4.4317   21.9988  -29.6198 H   0  0  0  0  0  0  0  0  0  0  0  0
  1  2  1  0
  2  3  1  0
  3  4  2  0
  4  5  1  0
  5  6  2  0
  6  7  1  0
  7  8  2  0
  8  9  1  0
  9 10  1  0
 10 11  1  0
 11 12  1  0
 12 13  1  0
 13 14  1  0
 14 15  1  0
 15 16  1  0
 16 17  2  0
 17 18  1  0
 18 19  2  0
 19 20  1  0
 20 21  1  0
 20 22  2  0
 14 23  1  0
 23 24  1  0
  8  3  1  0
 24 10  1  0
 22 16  1  0
  1 25  1  0
  1 26  1  0
  1 27  1  0
  4 28  1  0
  5 29  1  0
  6 30  1  0
  7 31  1  0
  9 32  1  0
  9 33  1  0
 11 34  1  0
 11 35  1  0
 12 36  1  0
 12 37  1  0
 13 38  1  0
 13 39  1  0
 15 40  1  0
 15 41  1  0
 17 42  1  0
 18 43  1  0
 19 44  1  0
 21 45  1  0
 22 46  1  0
 23 47  1  0
 23 48  1  0
 24 49  1  0
 24 50  1  0
M  END
>  <UniqueID>  (32) 
31

>  <SMILES>  (32) 
COc1ccccc1CN1CCCN(Cc2cccc(O)c2)CC1

>  <Energy>  (32) 
66.9123711099399

>  <Genealogy>  (32) 
COc1ccccc1CN1CCCN(Cc2cccc(O)c2)CC1 (3D coordinates assigned)
COc1ccccc1CN1CCCN(Cc2cccc(O)c2)CC1 (nonaromatic ring conformer: 66.9123711099399 kcal/mol)

>  <smiles>  (32) 
COc1ccccc1CN1CCCN(Cc2cccc(O)c2)CC1

>  <score_type>  (32) 
oracle

>  <origin>  (32) 
adg

>  <m_score__min__energy>  (32) 
-5.9299999999999997

>  <m_primary>  (32) 
energy

$$$$
32:0
     RDKit          3D

 63 66  0  0  0  0  0  0  0  0999 V2000
   -3.0880   15.2800  -36.0200 C   0  0  0  0  0  0  0  0  0  0  0  0
   -3.6340   16.5680  -35.7470 O   0  0  0  0  0  0  0  0  0  0  0  0
   -4.5010   16.8530  -34.6800 C   0  0  0  0  0  0  0  0  0  0  0  0
   -4.4130   16.1950  -33.4370 C   0  0  0  0  0  0  0  0  0  0  0  0
   -5.3110   16.5070  -32.4110 C   0  0  0  0  0  0  0  0  0  0  0  0
   -6.3030   17.4840  -32.6030 C   0  0  0  0  0  0  0  0  0  0  0  0
   -7.3030   17.7850  -31.5130 C   0  0  0  0  0  0  0  0  0  0  0  0
   -8.6550   18.2430  -32.0820 C   0  0  0  0  0  0  0  0  0  0  0  0
   -8.8710   19.7540  -31.9400 C   0  0  0  0  0  0  0  0  0  0  0  0
   -8.3070   20.4430  -33.1080 N   0  0  0  0  0  0  0  0  0  0  0  0
   -7.1080   21.2290  -32.7780 C   0  0  0  0  0  0  0  0  0  0  0  0
   -6.3230   20.6830  -31.5640 C   0  0  0  0  0  0  0  0  0  0  0  0
   -5.2340   21.6340  -31.0920 C   0  0  0  0  0  0  0  0  0  0  0  0
   -3.9150   21.1740  -31.1220 C   0  0  0  0  0  0  0  0  0  0  0  0
   -2.8580   21.9580  -30.6520 C   0  0  0  0  0  0  0  0  0  0  0  0
   -1.5630   21.4260  -30.6700 C   0  0  0  0  0  0  0  0  0  0  0  0
   -0.4980   22.1460  -30.1440 C   0  0  0  0  0  0  0  0  0  0  0  0
   -0.7150   23.3780  -29.5070 C   0  0  0  0  0  0  0  0  0  0  0  0
    0.3490   24.1030  -28.9480 O   0  0  0  0  0  0  0  0  0  0  0  0
    0.7910   23.9900  -27.6000 C   0  0  0  0  0  0  0  0  0  0  0  0
   -2.0290   23.9040  -29.4330 C   0  0  0  0  0  0  0  0  0  0  0  0
   -2.3110   25.0160  -28.6220 O   0  0  0  0  0  0  0  0  0  0  0  0
   -2.5120   24.9770  -27.2090 C   0  0  0  0  0  0  0  0  0  0  0  0
   -3.0960   23.2580  -30.1360 C   0  0  0  0  0  0  0  0  0  0  0  0
   -4.4100   23.8120  -30.2760 C   0  0  0  0  0  0  0  0  0  0  0  0
   -4.6770   25.1910  -30.0960 C   0  0  0  0  0  0  0  0  0  0  0  0
   -5.9750   25.6930  -30.1600 C   0  0  0  0  0  0  0  0  0  0  0  0
   -7.0380   24.8460  -30.4360 C   0  0  0  0  0  0  0  0  0  0  0  0
   -6.8050   23.5020  -30.7110 C   0  0  0  0  0  0  0  0  0  0  0  0
   -5.4930   22.9710  -30.6870 C   0  0  0  0  0  0  0  0  0  0  0  0
   -6.3860   18.1420  -33.8390 C   0  0  0  0  0  0  0  0  0  0  0  0
   -5.4910   17.8280  -34.8670 C   0  0  0  0  0  0  0  0  0  0  0  0
   -2.8700   14.7658  -35.0723 H   0  0  0  0  0  0  0  0  0  0  0  0
   -3.8132   14.6896  -36.5992 H   0  0  0  0  0  0  0  0  0  0  0  0
   -2.1594   15.3906  -36.5992 H   0  0  0  0  0  0  0  0  0  0  0  0
   -3.6359   15.4339  -33.2731 H   0  0  0  0  0  0  0  0  0  0  0  0
   -5.2403   15.9835  -31.4461 H   0  0  0  0  0  0  0  0  0  0  0  0
   -7.4596   16.8759  -30.9139 H   0  0  0  0  0  0  0  0  0  0  0  0
   -6.8990   18.6025  -30.8978 H   0  0  0  0  0  0  0  0  0  0  0  0
   -8.6958   17.9797  -33.1492 H   0  0  0  0  0  0  0  0  0  0  0  0
   -9.4467   17.7373  -31.5097 H   0  0  0  0  0  0  0  0  0  0  0  0
   -9.9485   19.9655  -31.8749 H   0  0  0  0  0  0  0  0  0  0  0  0
   -8.3706   20.1110  -31.0278 H   0  0  0  0  0  0  0  0  0  0  0  0
   -8.0850   19.7430  -33.8550 H   0  0  0  0  0  0  0  0  0  0  0  0
   -6.4405   21.2281  -33.6523 H   0  0  0  0  0  0  0  0  0  0  0  0
   -7.4493   22.2403  -32.5121 H   0  0  0  0  0  0  0  0  0  0  0  0
   -7.0275   20.5162  -30.7358 H   0  0  0  0  0  0  0  0  0  0  0  0
   -5.8345   19.7487  -31.8777 H   0  0  0  0  0  0  0  0  0  0  0  0
   -3.7039   20.1723  -31.5246 H   0  0  0  0  0  0  0  0  0  0  0  0
   -1.3877   20.4305  -31.1039 H   0  0  0  0  0  0  0  0  0  0  0  0
    0.5239   21.7475  -30.2273 H   0  0  0  0  0  0  0  0  0  0  0  0
   -0.0469   24.2042  -26.9202 H   0  0  0  0  0  0  0  0  0  0  0  0
    1.1583   22.9691  -27.4189 H   0  0  0  0  0  0  0  0  0  0  0  0
    1.6032   24.7094  -27.4189 H   0  0  0  0  0  0  0  0  0  0  0  0
   -1.5560   25.1625  -26.6974 H   0  0  0  0  0  0  0  0  0  0  0  0
   -3.2385   25.7509  -26.9205 H   0  0  0  0  0  0  0  0  0  0  0  0
   -2.8963   23.9875  -26.9205 H   0  0  0  0  0  0  0  0  0  0  0  0
   -3.8421   25.8803  -29.9016 H   0  0  0  0  0  0  0  0  0  0  0  0
   -6.1574   26.7645  -29.9911 H   0  0  0  0  0  0  0  0  0  0  0  0
   -8.0662   25.2370  -30.4375 H   0  0  0  0  0  0  0  0  0  0  0  0
   -7.6524   22.8428  -30.9505 H   0  0  0  0  0  0  0  0  0  0  0  0
   -7.1584   18.9084  -34.0005 H   0  0  0  0  0  0  0  0  0  0  0  0
   -5.5646   18.3512  -35.8318 H   0  0  0  0  0  0  0  0  0  0  0  0
  1  2  1  0
  2  3  1  0
  3  4  2  0
  4  5  1  0
  5  6  2  0
  6  7  1  0
  7  8  1  0
  8  9  1  0
  9 10  1  0
 10 11  1  0
 11 12  1  0
 12 13  1  0
 13 14  2  0
 14 15  1  0
 15 16  2  0
 16 17  1  0
 17 18  2  0
 18 19  1  0
 19 20  1  0
 18 21  1  0
 21 22  1  0
 22 23  1  0
 21 24  2  0
 24 25  1  0
 25 26  2  0
 26 27  1  0
 27 28  2  0
 28 29  1  0
 29 30  2  0
  6 31  1  0
 31 32  2  0
 32  3  1  0
 30 13  1  0
 24 15  1  0
 30 25  1  0
  1 33  1  0
  1 34  1  0
  1 35  1  0
  4 36  1  0
  5 37  1  0
  7 38  1  0
  7 39  1  0
  8 40  1  0
  8 41  1  0
  9 42  1  0
  9 43  1  0
 10 44  1  0
 11 45  1  0
 11 46  1  0
 12 47  1  0
 12 48  1  0
 14 49  1  0
 16 50  1  0
 17 51  1  0
 20 52  1  0
 20 53  1  0
 20 54  1  0
 23 55  1  0
 23 56  1  0
 23 57  1  0
 26 58  1  0
 27 59  1  0
 28 60  1  0
 29 61  1  0
 31 62  1  0
 32 63  1  0
M  END
>  <UniqueID>  (33) 
32

>  <SMILES>  (33) 
COc1ccc(CCCNCCc2cc3ccc(OC)c(OC)c3c3ccccc23)cc1

>  <Energy>  (33) 
85.93843707199244

>  <Genealogy>  (33) 
COc1ccc(CCCNCCc2cc3ccc(OC)c(OC)c3c3ccccc23)cc1 (3D coordinates assigned)
COc1ccc(CCCNCCc2cc3ccc(OC)c(OC)c3c3ccccc23)cc1 (optimized conformer: 85.93843707199244 kcal/mol)

>  <smiles>  (33) 
COc1ccc(CCCNCCc2cc3ccc(OC)c(OC)c3c3ccccc23)cc1

>  <score_type>  (33) 
oracle

>  <origin>  (33) 
adg

>  <m_score__min__energy>  (33) 
-10.09

>  <m_primary>  (33) 
energy

$$$$
33:0
     RDKit          3D

 44 46  0  0  0  0  0  0  0  0999 V2000
   -3.3980   17.3260  -34.6080 C   0  0  0  0  0  0  0  0  0  0  0  0
   -4.1750   18.4130  -33.9390 C   0  0  0  0  0  0  0  0  0  0  0  0
   -3.4740   19.8170  -33.2660 S   0  0  0  0  0  0  0  0  0  0  0  0
   -4.9560   20.4250  -32.7780 C   0  0  0  0  0  0  0  0  0  0  0  0
   -5.9740   19.5950  -33.1060 C   0  0  0  0  0  0  0  0  0  0  0  0
   -5.5720   18.4410  -33.7810 C   0  0  0  0  0  0  0  0  0  0  0  0
   -6.5030   17.3470  -34.2040 C   0  0  0  0  0  0  0  0  0  0  0  0
   -7.2950   20.1220  -32.6260 C   0  0  0  0  0  0  0  0  0  0  0  0
   -6.8320   21.4010  -31.9650 C   0  0  0  0  0  0  0  0  0  0  0  0
   -7.6130   22.3660  -31.3280 C   0  0  0  0  0  0  0  0  0  0  0  0
   -6.9760   23.4940  -30.7810 C   0  0  0  0  0  0  0  0  0  0  0  0
   -5.5700   23.6420  -30.8610 C   0  0  0  0  0  0  0  0  0  0  0  0
   -4.9280   24.8420  -30.2910 C   0  0  0  0  0  0  0  0  0  0  0  0
   -5.6420   25.6940  -29.6970 O   0  0  0  0  0  0  0  0  0  0  0  0
   -3.5130   25.0580  -30.3640 N   0  0  0  0  0  0  0  0  0  0  0  0
   -2.5020   24.1060  -29.9170 C   0  0  0  0  0  0  0  0  0  0  0  0
   -2.2520   24.2600  -28.4060 C   0  0  0  0  0  0  0  0  0  0  0  0
   -3.4910   24.5320  -27.6370 N   0  0  0  0  0  0  0  0  0  0  0  0
   -3.1520   25.2180  -26.3760 C   0  0  0  0  0  0  0  0  0  0  0  0
   -4.2390   23.2960  -27.3400 C   0  0  0  0  0  0  0  0  0  0  0  0
   -4.8010   22.6680  -31.5290 C   0  0  0  0  0  0  0  0  0  0  0  0
   -5.4590   21.5630  -32.0590 C   0  0  0  0  0  0  0  0  0  0  0  0
   -2.9373   16.6815  -33.8448 H   0  0  0  0  0  0  0  0  0  0  0  0
   -4.0730   16.7258  -35.2358 H   0  0  0  0  0  0  0  0  0  0  0  0
   -2.6117   17.7704  -35.2358 H   0  0  0  0  0  0  0  0  0  0  0  0
   -6.9208   16.8560  -33.3127 H   0  0  0  0  0  0  0  0  0  0  0  0
   -7.3200   17.7728  -34.8050 H   0  0  0  0  0  0  0  0  0  0  0  0
   -5.9520   16.6086  -34.8050 H   0  0  0  0  0  0  0  0  0  0  0  0
   -7.9853   20.3182  -33.4597 H   0  0  0  0  0  0  0  0  0  0  0  0
   -7.8618   19.4392  -31.9760 H   0  0  0  0  0  0  0  0  0  0  0  0
   -8.7041   22.2469  -31.2552 H   0  0  0  0  0  0  0  0  0  0  0  0
   -7.5770   24.2705  -30.2851 H   0  0  0  0  0  0  0  0  0  0  0  0
   -2.8500   23.0833  -30.1246 H   0  0  0  0  0  0  0  0  0  0  0  0
   -1.5635   24.3022  -30.4561 H   0  0  0  0  0  0  0  0  0  0  0  0
   -1.8027   23.3295  -28.0287 H   0  0  0  0  0  0  0  0  0  0  0  0
   -1.5846   25.1237  -28.2698 H   0  0  0  0  0  0  0  0  0  0  0  0
   -4.1090   25.1730  -28.1890 H   0  0  0  0  0  0  0  0  0  0  0  0
   -3.4605   24.5937  -25.5245 H   0  0  0  0  0  0  0  0  0  0  0  0
   -2.0661   25.3881  -26.3315 H   0  0  0  0  0  0  0  0  0  0  0  0
   -3.6765   26.1839  -26.3315 H   0  0  0  0  0  0  0  0  0  0  0  0
   -4.3168   23.1674  -26.2503 H   0  0  0  0  0  0  0  0  0  0  0  0
   -5.2474   23.3644  -27.7741 H   0  0  0  0  0  0  0  0  0  0  0  0
   -3.7106   22.4344  -27.7741 H   0  0  0  0  0  0  0  0  0  0  0  0
   -3.7111   22.7785  -31.6285 H   0  0  0  0  0  0  0  0  0  0  0  0
  1  2  1  0
  2  3  1  0
  3  4  1  0
  4  5  2  0
  5  6  1  0
  6  7  1  0
  5  8  1  0
  8  9  1  0
  9 10  2  0
 10 11  1  0
 11 12  2  0
 12 13  1  0
 13 14  2  0
 13 15  1  0
 15 16  1  0
 16 17  1  0
 17 18  1  0
 18 19  1  0
 18 20  1  0
 12 21  1  0
 21 22  2  0
  6  2  2  0
 22  9  1  0
 22  4  1  0
  1 23  1  0
  1 24  1  0
  1 25  1  0
  7 26  1  0
  7 27  1  0
  7 28  1  0
  8 29  1  0
  8 30  1  0
 10 31  1  0
 11 32  1  0
 16 33  1  0
 16 34  1  0
 17 35  1  0
 17 36  1  0
 18 37  1  0
 19 38  1  0
 19 39  1  0
 19 40  1  0
 20 41  1  0
 20 42  1  0
 20 43  1  0
 21 44  1  0
M  CHG  2  15  -1  18   1
M  END
>  <UniqueID>  (34) 
33

>  <SMILES>  (34) 
Cc1sc2c(c1C)Cc1ccc(C(=O)[N-]CC[NH+](C)C)cc1-2

>  <Energy>  (34) 
106.67961786078952

>  <Genealogy>  (34) 
Cc1sc2c(c1C)Cc1ccc(C(=O)[N-]CC[NH+](C)C)cc1-2 (protonated)
Cc1sc2c(c1C)Cc1ccc(C(=O)[N-]CC[NH+](C)C)cc1-2 (3D coordinates assigned)
Cc1sc2c(c1C)Cc1ccc(C(=O)[N-]CC[NH+](C)C)cc1-2 (nonaromatic ring conformer: 106.67961786078952 kcal/mol)

>  <smiles>  (34) 
Cc1sc2c(c1C)Cc1ccc(C(=O)NCCN(C)C)cc1-2

>  <score_type>  (34) 
oracle

>  <origin>  (34) 
adg

>  <m_score__min__energy>  (34) 
-9.4900000000000002

>  <m_primary>  (34) 
energy

$$$$
34:0
     RDKit          3D

 56 58  0  0  0  0  0  0  0  0999 V2000
   -0.8780   21.5040  -30.0510 C   0  0  0  0  0  0  0  0  0  0  0  0
   -1.6560   22.8170  -30.0650 C   0  0  0  0  0  0  0  0  0  0  0  0
   -2.9990   22.6260  -29.4680 N   0  0  0  0  0  0  0  0  0  0  0  0
   -3.0680   21.3380  -28.7550 C   0  0  0  0  0  0  0  0  0  0  0  0
   -3.3470   23.7340  -28.5510 C   0  0  0  0  0  0  0  0  0  0  0  0
   -4.5190   24.5410  -29.1090 C   0  0  0  0  0  0  0  0  0  0  0  0
   -4.2390   24.9030  -30.4450 O   0  0  0  0  0  0  0  0  0  0  0  0
   -5.4330   24.9700  -31.2030 C   0  0  0  0  0  0  0  0  0  0  0  0
   -5.7470   23.6160  -31.8520 C   0  0  0  0  0  0  0  0  0  0  0  0
   -4.9010   22.5430  -31.3030 N   0  0  0  0  0  0  0  0  0  0  0  0
   -5.2140   21.2740  -31.9470 C   0  0  0  0  0  0  0  0  0  0  0  0
   -6.5370   20.7560  -31.9070 C   0  0  0  0  0  0  0  0  0  0  0  0
   -7.5680   21.3920  -31.1680 C   0  0  0  0  0  0  0  0  0  0  0  0
   -8.8820   20.9400  -31.2290 C   0  0  0  0  0  0  0  0  0  0  0  0
   -9.2060   19.8500  -32.0220 C   0  0  0  0  0  0  0  0  0  0  0  0
   -8.2070   19.1680  -32.7100 C   0  0  0  0  0  0  0  0  0  0  0  0
   -6.8470   19.5660  -32.6220 C   0  0  0  0  0  0  0  0  0  0  0  0
   -5.8450   18.8270  -33.2140 N   0  0  0  0  0  0  0  0  0  0  0  0
   -6.1170   17.4410  -33.6610 C   0  0  0  0  0  0  0  0  0  0  0  0
   -4.5750   19.3520  -33.3390 C   0  0  0  0  0  0  0  0  0  0  0  0
   -3.6000   18.7210  -34.1520 C   0  0  0  0  0  0  0  0  0  0  0  0
   -2.2960   19.1980  -34.2210 C   0  0  0  0  0  0  0  0  0  0  0  0
   -1.9160   20.3190  -33.4950 C   0  0  0  0  0  0  0  0  0  0  0  0
   -0.5570   20.7670  -33.5900 N   0  0  0  0  0  0  0  0  0  0  0  0
   -0.1800   21.5630  -34.4500 N   0  0  0  0  0  0  0  0  0  0  0  0
    0.2020   22.3610  -35.3060 N   0  0  0  0  0  0  0  0  0  0  0  0
   -2.8670   20.9850  -32.7070 C   0  0  0  0  0  0  0  0  0  0  0  0
   -4.2180   20.5500  -32.6580 C   0  0  0  0  0  0  0  0  0  0  0  0
   -0.6959   21.1968  -29.0106 H   0  0  0  0  0  0  0  0  0  0  0  0
   -1.4614   20.7266  -30.5662 H   0  0  0  0  0  0  0  0  0  0  0  0
    0.0840   21.6423  -30.5662 H   0  0  0  0  0  0  0  0  0  0  0  0
   -1.1049   23.5715  -29.4845 H   0  0  0  0  0  0  0  0  0  0  0  0
   -1.7719   23.1529  -31.1060 H   0  0  0  0  0  0  0  0  0  0  0  0
   -3.0583   21.5186  -27.6700 H   0  0  0  0  0  0  0  0  0  0  0  0
   -3.9954   20.8151  -29.0314 H   0  0  0  0  0  0  0  0  0  0  0  0
   -2.2017   20.7190  -29.0314 H   0  0  0  0  0  0  0  0  0  0  0  0
   -3.6267   23.3191  -27.5714 H   0  0  0  0  0  0  0  0  0  0  0  0
   -2.4755   24.3971  -28.4465 H   0  0  0  0  0  0  0  0  0  0  0  0
   -5.4339   23.9312  -29.0770 H   0  0  0  0  0  0  0  0  0  0  0  0
   -4.6653   25.4475  -28.5033 H   0  0  0  0  0  0  0  0  0  0  0  0
   -6.2644   25.2532  -30.5408 H   0  0  0  0  0  0  0  0  0  0  0  0
   -5.3025   25.7187  -31.9982 H   0  0  0  0  0  0  0  0  0  0  0  0
   -6.8027   23.3680  -31.6677 H   0  0  0  0  0  0  0  0  0  0  0  0
   -5.5450   23.6960  -32.9303 H   0  0  0  0  0  0  0  0  0  0  0  0
   -3.8900   22.7760  -31.4090 H   0  0  0  0  0  0  0  0  0  0  0  0
   -5.0100   22.4850  -30.2670 H   0  0  0  0  0  0  0  0  0  0  0  0
   -7.3236   22.2581  -30.5355 H   0  0  0  0  0  0  0  0  0  0  0  0
   -9.6652   21.4481  -30.6472 H   0  0  0  0  0  0  0  0  0  0  0  0
  -10.2531   19.5241  -32.1074 H   0  0  0  0  0  0  0  0  0  0  0  0
   -8.4764   18.3034  -33.3344 H   0  0  0  0  0  0  0  0  0  0  0  0
   -6.2446   16.7909  -32.7829 H   0  0  0  0  0  0  0  0  0  0  0  0
   -7.0355   17.4245  -34.2660 H   0  0  0  0  0  0  0  0  0  0  0  0
   -5.2729   17.0785  -34.2660 H   0  0  0  0  0  0  0  0  0  0  0  0
   -3.8812   17.8353  -34.7406 H   0  0  0  0  0  0  0  0  0  0  0  0
   -1.5595   18.6834  -34.8557 H   0  0  0  0  0  0  0  0  0  0  0  0
   -2.5603   21.8606  -32.1160 H   0  0  0  0  0  0  0  0  0  0  0  0
  1  2  1  0
  2  3  1  0
  3  4  1  0
  3  5  1  0
  5  6  1  0
  6  7  1  0
  7  8  1  0
  8  9  1  0
  9 10  1  0
 10 11  1  0
 11 12  2  0
 12 13  1  0
 13 14  2  0
 14 15  1  0
 15 16  2  0
 16 17  1  0
 17 18  2  0
 18 19  1  0
 18 20  1  0
 20 21  2  0
 21 22  1  0
 22 23  2  0
 23 24  1  0
 24 25  2  0
 25 26  2  0
 23 27  1  0
 27 28  2  0
 28 11  1  0
 17 12  1  0
 28 20  1  0
  1 29  1  0
  1 30  1  0
  1 31  1  0
  2 32  1  0
  2 33  1  0
  4 34  1  0
  4 35  1  0
  4 36  1  0
  5 37  1  0
  5 38  1  0
  6 39  1  0
  6 40  1  0
  8 41  1  0
  8 42  1  0
  9 43  1  0
  9 44  1  0
 10 45  1  0
 10 46  1  0
 13 47  1  0
 14 48  1  0
 15 49  1  0
 16 50  1  0
 19 51  1  0
 19 52  1  0
 19 53  1  0
 21 54  1  0
 22 55  1  0
 27 56  1  0
M  CHG  4  10   1  18   1  25   1  26  -1
M  END
>  <UniqueID>  (35) 
34

>  <SMILES>  (35) 
CCN(C)CCOCC[NH2+]c1c2ccccc2[n+](C)c2ccc(N=[N+]=[N-])cc12

>  <Energy>  (35) 
84.07231008260955

>  <Genealogy>  (35) 
CCN(C)CCOCC[NH2+]c1c2ccccc2[n+](C)c2ccc(N=[N+]=[N-])cc12 (protonated)
CCN(C)CCOCC[NH2+]c1c2ccccc2[n+](C)c2ccc(N=[N+]=[N-])cc12 (3D coordinates assigned)
CCN(C)CCOCC[NH2+]c1c2ccccc2[n+](C)c2ccc(N=[N+]=[N-])cc12 (optimized conformer: 84.07231008260955 kcal/mol)

>  <smiles>  (35) 
CCN(C)CCOCCNc1c2ccccc2[n+](C)c2ccc(N=[N+]=[N-])cc12

>  <score_type>  (35) 
oracle

>  <origin>  (35) 
adg

>  <m_score__min__energy>  (35) 
-8.4800000000000004

>  <m_primary>  (35) 
energy

$$$$
35:0
     RDKit          3D

 53 55  0  0  0  0  0  0  0  0999 V2000
  -10.1423   22.3633  -31.3105 H   0  0  0  0  0  0  0  0  0  0  0  0
   -9.2250   21.8540  -31.6410 C   0  0  0  0  0  0  0  0  0  0  0  0
   -9.3610   20.6360  -32.1880 C   0  0  0  0  0  0  0  0  0  0  0  0
  -10.3516   20.3635  -32.5809 H   0  0  0  0  0  0  0  0  0  0  0  0
   -8.2810   19.6320  -32.3030 C   0  0  0  0  0  0  0  0  0  0  0  0
   -8.0560   18.7490  -31.2390 C   0  0  0  0  0  0  0  0  0  0  0  0
   -8.6789   18.8051  -30.3341 H   0  0  0  0  0  0  0  0  0  0  0  0
   -7.0400   17.7990  -31.3310 C   0  0  0  0  0  0  0  0  0  0  0  0
   -6.8498   17.1127  -30.4926 H   0  0  0  0  0  0  0  0  0  0  0  0
   -6.2630   17.7200  -32.4910 C   0  0  0  0  0  0  0  0  0  0  0  0
   -5.2320   16.7760  -32.6100 C   0  0  0  0  0  0  0  0  0  0  0  0
   -5.0179   16.0877  -31.7791 H   0  0  0  0  0  0  0  0  0  0  0  0
   -4.4770   16.7100  -33.7840 C   0  0  0  0  0  0  0  0  0  0  0  0
   -3.6653   15.9729  -33.8731 H   0  0  0  0  0  0  0  0  0  0  0  0
   -4.7500   17.5780  -34.8460 C   0  0  0  0  0  0  0  0  0  0  0  0
   -4.1533   17.5214  -35.7684 H   0  0  0  0  0  0  0  0  0  0  0  0
   -5.7790   18.5170  -34.7380 C   0  0  0  0  0  0  0  0  0  0  0  0
   -5.9947   19.1919  -35.5794 H   0  0  0  0  0  0  0  0  0  0  0  0
   -6.5380   18.6030  -33.5620 C   0  0  0  0  0  0  0  0  0  0  0  0
   -7.5380   19.5250  -33.4450 N   0  0  0  0  0  0  0  0  0  0  0  0
   -7.7470   20.1540  -34.2540 H   0  0  0  0  0  0  0  0  0  0  0  0
   -7.9430   22.5700  -31.4450 C   0  0  0  0  0  0  0  0  0  0  0  0
   -7.3800   22.6190  -30.1620 C   0  0  0  0  0  0  0  0  0  0  0  0
   -7.9090   22.1569  -29.3154 H   0  0  0  0  0  0  0  0  0  0  0  0
   -6.1510   23.2510  -29.9510 C   0  0  0  0  0  0  0  0  0  0  0  0
   -5.7245   23.2893  -28.9378 H   0  0  0  0  0  0  0  0  0  0  0  0
   -5.4590   23.8350  -31.0170 C   0  0  0  0  0  0  0  0  0  0  0  0
   -4.2300   24.4600  -30.7470 O   0  0  0  0  0  0  0  0  0  0  0  0
   -3.1350   23.8700  -30.0440 C   0  0  0  0  0  0  0  0  0  0  0  0
   -3.4830   23.5221  -29.0602 H   0  0  0  0  0  0  0  0  0  0  0  0
   -2.3440   24.6249  -29.9242 H   0  0  0  0  0  0  0  0  0  0  0  0
   -2.5670   22.6820  -30.8250 C   0  0  0  0  0  0  0  0  0  0  0  0
   -1.4683   22.7363  -30.8226 H   0  0  0  0  0  0  0  0  0  0  0  0
   -2.9401   22.7182  -31.8592 H   0  0  0  0  0  0  0  0  0  0  0  0
   -2.9970   21.4100  -30.1970 N   0  0  0  0  0  0  0  0  0  0  0  0
   -4.0550   20.7450  -30.9910 C   0  0  0  0  0  0  0  0  0  0  0  0
   -5.0375   21.1345  -30.6861 H   0  0  0  0  0  0  0  0  0  0  0  0
   -4.0103   19.6604  -30.8130 H   0  0  0  0  0  0  0  0  0  0  0  0
   -3.8440   21.0160  -32.4790 C   0  0  0  0  0  0  0  0  0  0  0  0
   -3.1725   21.8784  -32.6030 H   0  0  0  0  0  0  0  0  0  0  0  0
   -3.3951   20.1306  -32.9529 H   0  0  0  0  0  0  0  0  0  0  0  0
   -4.8124   21.2342  -32.9529 H   0  0  0  0  0  0  0  0  0  0  0  0
   -3.4230   21.6190  -28.7950 C   0  0  0  0  0  0  0  0  0  0  0  0
   -3.1551   22.6390  -28.4822 H   0  0  0  0  0  0  0  0  0  0  0  0
   -4.5118   21.4785  -28.7263 H   0  0  0  0  0  0  0  0  0  0  0  0
   -2.7320   20.6120  -27.8770 C   0  0  0  0  0  0  0  0  0  0  0  0
   -2.9187   20.8841  -26.8277 H   0  0  0  0  0  0  0  0  0  0  0  0
   -3.1304   19.6053  -28.0712 H   0  0  0  0  0  0  0  0  0  0  0  0
   -1.6493   20.6216  -28.0712 H   0  0  0  0  0  0  0  0  0  0  0  0
   -6.0080   23.7640  -32.3110 C   0  0  0  0  0  0  0  0  0  0  0  0
   -5.4705   24.2131  -33.1592 H   0  0  0  0  0  0  0  0  0  0  0  0
   -7.2320   23.1260  -32.5230 C   0  0  0  0  0  0  0  0  0  0  0  0
   -7.6430   23.0579  -33.5411 H   0  0  0  0  0  0  0  0  0  0  0  0
  1  2  1  0
  2  3  2  0
  3  4  1  0
  3  5  1  0
  5  6  2  0
  6  7  1  0
  6  8  1  0
  8  9  1  0
  8 10  2  0
 10 11  1  0
 11 12  1  0
 11 13  2  0
 13 14  1  0
 13 15  1  0
 15 16  1  0
 15 17  2  0
 17 18  1  0
 17 19  1  0
 19 20  2  0
 20 21  1  0
  2 22  1  0
 22 23  2  0
 23 24  1  0
 23 25  1  0
 25 26  1  0
 25 27  2  0
 27 28  1  0
 28 29  1  0
 29 30  1  0
 29 31  1  0
 29 32  1  0
 32 33  1  0
 32 34  1  0
 32 35  1  0
 35 36  1  0
 36 37  1  0
 36 38  1  0
 36 39  1  0
 39 40  1  0
 39 41  1  0
 39 42  1  0
 35 43  1  0
 43 44  1  0
 43 45  1  0
 43 46  1  0
 46 47  1  0
 46 48  1  0
 46 49  1  0
 27 50  1  0
 50 51  1  0
 50 52  2  0
 52 53  1  0
 20  5  1  0
 52 22  1  0
 19 10  1  0
M  CHG  1  20   1
M  END
>  <UniqueID>  (36) 
35

>  <SMILES>  (36) 
CCN(CC)CCOc1ccc(/C=C\c2ccc3ccccc3[nH+]2)cc1

>  <Energy>  (36) 
61.66549135489463

>  <Genealogy>  (36) 
CCN(CC)CCOc1ccc(C=Cc2ccc3ccccc3[nH+]2)cc1 (protonated)
CCN(CC)CCOc1ccc(/C=C\c2ccc3ccccc3[nH+]2)cc1 (cis-trans isomerization)
CCN(CC)CCOc1ccc(/C=C\c2ccc3ccccc3[nH+]2)cc1 (3D coordinates assigned)
CCN(CC)CCOc1ccc(/C=C\c2ccc3ccccc3[nH+]2)cc1 (optimized conformer: 61.66549135489463 kcal/mol)

>  <smiles>  (36) 
CCN(CC)CCOc1ccc(C=Cc2ccc3ccccc3n2)cc1

>  <score_type>  (36) 
oracle

>  <origin>  (36) 
adg

>  <m_score__min__energy>  (36) 
-9.4299999999999997

>  <m_primary>  (36) 
energy

$$$$
36:0
     RDKit          3D

 43 45  0  0  0  0  0  0  0  0999 V2000
   -9.6040   21.5410  -31.8380 C   0  0  0  0  0  0  0  0  0  0  0  0
   -9.1370   20.1250  -32.1540 C   0  0  0  0  0  0  0  0  0  0  0  0
   -7.8410   19.8850  -31.6040 O   0  0  0  0  0  0  0  0  0  0  0  0
   -6.7480   19.3140  -32.2820 C   0  0  0  0  0  0  0  0  0  0  0  0
   -6.7750   17.9870  -32.7480 C   0  0  0  0  0  0  0  0  0  0  0  0
   -5.6660   17.4360  -33.3910 C   0  0  0  0  0  0  0  0  0  0  0  0
   -4.4990   18.1910  -33.5810 C   0  0  0  0  0  0  0  0  0  0  0  0
   -3.3330   17.5880  -34.2760 C   0  0  0  0  0  0  0  0  0  0  0  0
   -2.0460   18.1400  -34.1760 C   0  0  0  0  0  0  0  0  0  0  0  0
   -0.9950   17.5190  -34.8510 C   0  0  0  0  0  0  0  0  0  0  0  0
   -1.2240   16.3980  -35.5810 N   0  0  0  0  0  0  0  0  0  0  0  0
   -2.4710   15.8670  -35.6640 C   0  0  0  0  0  0  0  0  0  0  0  0
   -3.5080   16.4570  -35.0160 N   0  0  0  0  0  0  0  0  0  0  0  0
   -4.4750   19.5240  -33.1310 C   0  0  0  0  0  0  0  0  0  0  0  0
   -5.5840   20.0910  -32.4780 C   0  0  0  0  0  0  0  0  0  0  0  0
   -5.5380   21.5080  -32.0360 C   0  0  0  0  0  0  0  0  0  0  0  0
   -6.5420   22.4160  -32.3960 C   0  0  0  0  0  0  0  0  0  0  0  0
   -6.4640   23.7370  -31.9580 C   0  0  0  0  0  0  0  0  0  0  0  0
   -5.3860   24.1620  -31.1600 C   0  0  0  0  0  0  0  0  0  0  0  0
   -5.2860   25.4880  -30.7090 O   0  0  0  0  0  0  0  0  0  0  0  0
   -6.0800   26.0530  -29.6700 C   0  0  0  0  0  0  0  0  0  0  0  0
   -4.3890   23.2210  -30.8190 C   0  0  0  0  0  0  0  0  0  0  0  0
   -3.2100   23.5630  -29.9900 C   0  0  0  0  0  0  0  0  0  0  0  0
   -2.8180   24.9160  -29.7700 N   0  0  0  0  0  0  0  0  0  0  0  0
   -2.5340   22.6380  -29.4650 O   0  0  0  0  0  0  0  0  0  0  0  0
   -4.5030   21.9390  -31.2660 N   0  0  0  0  0  0  0  0  0  0  0  0
   -9.6490   21.6774  -30.7474 H   0  0  0  0  0  0  0  0  0  0  0  0
   -8.8971   22.2651  -32.2693 H   0  0  0  0  0  0  0  0  0  0  0  0
  -10.6030   21.7024  -32.2693 H   0  0  0  0  0  0  0  0  0  0  0  0
   -9.8500   19.4057  -31.7248 H   0  0  0  0  0  0  0  0  0  0  0  0
   -9.0846   20.0060  -33.2463 H   0  0  0  0  0  0  0  0  0  0  0  0
   -7.6794   17.3776  -32.6041 H   0  0  0  0  0  0  0  0  0  0  0  0
   -5.7072   16.3981  -33.7529 H   0  0  0  0  0  0  0  0  0  0  0  0
   -1.8697   19.0453  -33.5765 H   0  0  0  0  0  0  0  0  0  0  0  0
    0.0202   17.9382  -34.7916 H   0  0  0  0  0  0  0  0  0  0  0  0
   -2.6414   14.9567  -36.2576 H   0  0  0  0  0  0  0  0  0  0  0  0
   -3.5734   20.1330  -33.2927 H   0  0  0  0  0  0  0  0  0  0  0  0
   -7.3865   22.0887  -33.0203 H   0  0  0  0  0  0  0  0  0  0  0  0
   -7.2511   24.4525  -32.2383 H   0  0  0  0  0  0  0  0  0  0  0  0
   -5.6681   25.7599  -28.6931 H   0  0  0  0  0  0  0  0  0  0  0  0
   -6.0718   27.1495  -29.7573 H   0  0  0  0  0  0  0  0  0  0  0  0
   -7.1133   25.6859  -29.7573 H   0  0  0  0  0  0  0  0  0  0  0  0
   -3.5290   25.6770  -29.7010 H   0  0  0  0  0  0  0  0  0  0  0  0
  1  2  1  0
  2  3  1  0
  3  4  1  0
  4  5  2  0
  5  6  1  0
  6  7  2  0
  7  8  1  0
  8  9  2  0
  9 10  1  0
 10 11  2  0
 11 12  1  0
 12 13  2  0
  7 14  1  0
 14 15  2  0
 15 16  1  0
 16 17  2  0
 17 18  1  0
 18 19  2  0
 19 20  1  0
 20 21  1  0
 19 22  1  0
 22 23  1  0
 23 24  1  0
 23 25  2  0
 22 26  2  0
 15  4  1  0
 26 16  1  0
 13  8  1  0
  1 27  1  0
  1 28  1  0
  1 29  1  0
  2 30  1  0
  2 31  1  0
  5 32  1  0
  6 33  1  0
  9 34  1  0
 10 35  1  0
 12 36  1  0
 14 37  1  0
 17 38  1  0
 18 39  1  0
 21 40  1  0
 21 41  1  0
 21 42  1  0
 24 43  1  0
M  CHG  1  24  -1
M  END
>  <UniqueID>  (37) 
36

>  <SMILES>  (37) 
CCOc1ccc(-c2ccncn2)cc1-c1ccc(OC)c(C([NH-])=O)n1

>  <Energy>  (37) 
54.70504669464907

>  <Genealogy>  (37) 
CCOc1ccc(-c2ccncn2)cc1-c1ccc(OC)c(C([NH-])=O)n1 (protonated)
CCOc1ccc(-c2ccncn2)cc1-c1ccc(OC)c(C([NH-])=O)n1 (3D coordinates assigned)
CCOc1ccc(-c2ccncn2)cc1-c1ccc(OC)c(C([NH-])=O)n1 (optimized conformer: 54.70504669464907 kcal/mol)

>  <smiles>  (37) 
CCOc1ccc(-c2ccncn2)cc1-c1ccc(OC)c(C(N)=O)n1

>  <score_type>  (37) 
oracle

>  <origin>  (37) 
adg

>  <m_score__min__energy>  (37) 
-10.6

>  <m_primary>  (37) 
energy

$$$$
37:0
     RDKit          3D

 49 51  0  0  0  0  0  0  0  0999 V2000
   -2.0830   21.5240  -34.2800 H   0  0  0  0  0  0  0  0  0  0  0  0
   -1.8390   21.6380  -33.3040 O   0  0  0  0  0  0  0  0  0  0  0  0
   -2.6020   21.1170  -32.2770 N   0  0  0  0  0  0  0  0  0  0  0  0
   -2.9220   20.1290  -32.3820 H   0  0  0  0  0  0  0  0  0  0  0  0
   -2.9050   21.7770  -31.1900 C   0  0  0  0  0  0  0  0  0  0  0  0
   -3.8860   22.8930  -31.2050 C   0  0  0  0  0  0  0  0  0  0  0  0
   -3.6390   24.0730  -30.4800 C   0  0  0  0  0  0  0  0  0  0  0  0
   -2.4120   24.2410  -29.8250 O   0  0  0  0  0  0  0  0  0  0  0  0
   -2.2460   24.7650  -28.5360 C   0  0  0  0  0  0  0  0  0  0  0  0
   -3.2430   24.5240  -27.5850 C   0  0  0  0  0  0  0  0  0  0  0  0
   -4.1221   23.9216  -27.8575 H   0  0  0  0  0  0  0  0  0  0  0  0
   -3.1320   25.0420  -26.2910 C   0  0  0  0  0  0  0  0  0  0  0  0
   -3.9173   24.8368  -25.5485 H   0  0  0  0  0  0  0  0  0  0  0  0
   -2.0170   25.8260  -25.9360 C   0  0  0  0  0  0  0  0  0  0  0  0
   -1.8570   26.3680  -24.6520 O   0  0  0  0  0  0  0  0  0  0  0  0
   -0.6360   26.3540  -23.9200 C   0  0  0  0  0  0  0  0  0  0  0  0
   -0.8547   26.3565  -22.8420 H   0  0  0  0  0  0  0  0  0  0  0  0
   -0.0652   25.4493  -24.1762 H   0  0  0  0  0  0  0  0  0  0  0  0
   -0.0446   27.2454  -24.1762 H   0  0  0  0  0  0  0  0  0  0  0  0
   -1.0300   26.0810  -26.8940 C   0  0  0  0  0  0  0  0  0  0  0  0
   -0.1577   26.6955  -26.6267 H   0  0  0  0  0  0  0  0  0  0  0  0
   -1.1410   25.5630  -28.1870 C   0  0  0  0  0  0  0  0  0  0  0  0
   -0.3628   25.7796  -28.9337 H   0  0  0  0  0  0  0  0  0  0  0  0
   -4.5780   25.0600  -30.4540 N   0  0  0  0  0  0  0  0  0  0  0  0
   -5.7730   24.9350  -31.0900 C   0  0  0  0  0  0  0  0  0  0  0  0
   -6.5061   25.7541  -31.0485 H   0  0  0  0  0  0  0  0  0  0  0  0
   -6.0700   23.7690  -31.7950 C   0  0  0  0  0  0  0  0  0  0  0  0
   -7.0379   23.6598  -32.3062 H   0  0  0  0  0  0  0  0  0  0  0  0
   -5.1270   22.7430  -31.8450 C   0  0  0  0  0  0  0  0  0  0  0  0
   -5.3558   21.8137  -32.3872 H   0  0  0  0  0  0  0  0  0  0  0  0
   -2.2780   21.4170  -29.9400 N   0  0  0  0  0  0  0  0  0  0  0  0
   -0.8000   21.3850  -29.8880 C   0  0  0  0  0  0  0  0  0  0  0  0
   -0.4745   20.3349  -29.9248 H   0  0  0  0  0  0  0  0  0  0  0  0
   -0.4370   21.9692  -30.7464 H   0  0  0  0  0  0  0  0  0  0  0  0
   -0.2080   22.0320  -28.6240 C   0  0  0  0  0  0  0  0  0  0  0  0
    0.8137   22.3691  -28.8532 H   0  0  0  0  0  0  0  0  0  0  0  0
   -0.8740   22.8628  -28.3479 H   0  0  0  0  0  0  0  0  0  0  0  0
   -0.1460   21.0840  -27.4090 C   0  0  0  0  0  0  0  0  0  0  0  0
    0.2978   20.1340  -27.7415 H   0  0  0  0  0  0  0  0  0  0  0  0
    0.4502   21.6060  -26.6461 H   0  0  0  0  0  0  0  0  0  0  0  0
   -1.4990   20.7710  -26.7500 C   0  0  0  0  0  0  0  0  0  0  0  0
   -1.3383   20.0082  -25.9739 H   0  0  0  0  0  0  0  0  0  0  0  0
   -1.8810   21.7170  -26.3386 H   0  0  0  0  0  0  0  0  0  0  0  0
   -2.5600   20.2490  -27.7290 C   0  0  0  0  0  0  0  0  0  0  0  0
   -2.1124   19.4270  -28.3070 H   0  0  0  0  0  0  0  0  0  0  0  0
   -3.4161   19.9419  -27.1103 H   0  0  0  0  0  0  0  0  0  0  0  0
   -3.1110   21.2870  -28.7280 C   0  0  0  0  0  0  0  0  0  0  0  0
   -4.1236   20.9809  -29.0294 H   0  0  0  0  0  0  0  0  0  0  0  0
   -3.1120   22.2637  -28.2220 H   0  0  0  0  0  0  0  0  0  0  0  0
  1  2  1  0
  2  3  1  0
  3  4  1  0
  3  5  2  0
  5  6  1  0
  6  7  1  0
  7  8  1  0
  8  9  1  0
  9 10  2  0
 10 11  1  0
 10 12  1  0
 12 13  1  0
 12 14  2  0
 14 15  1  0
 15 16  1  0
 16 17  1  0
 16 18  1  0
 16 19  1  0
 14 20  1  0
 20 21  1  0
 20 22  2  0
 22 23  1  0
  7 24  2  0
 24 25  1  0
 25 26  1  0
 25 27  2  0
 27 28  1  0
 27 29  1  0
 29 30  1  0
  5 31  1  0
 31 32  1  0
 32 33  1  0
 32 34  1  0
 32 35  1  0
 35 36  1  0
 35 37  1  0
 35 38  1  0
 38 39  1  0
 38 40  1  0
 38 41  1  0
 41 42  1  0
 41 43  1  0
 41 44  1  0
 44 45  1  0
 44 46  1  0
 44 47  1  0
 47 48  1  0
 47 49  1  0
 29  6  2  0
 47 31  1  0
 22  9  1  0
M  CHG  1   3   1
M  END
>  <UniqueID>  (38) 
37

>  <SMILES>  (38) 
COc1ccc(Oc2ncccc2/C(=[NH+]\O)N2CCCCCC2)cc1

>  <Energy>  (38) 
69.27730758028886

>  <Genealogy>  (38) 
COc1ccc(Oc2ncccc2C(=[NH+]O)N2CCCCCC2)cc1 (protonated)
COc1ccc(Oc2ncccc2/C(=[NH+]\O)N2CCCCCC2)cc1 (cis-trans isomerization)
COc1ccc(Oc2ncccc2/C(=[NH+]\O)N2CCCCCC2)cc1 (3D coordinates assigned)
COc1ccc(Oc2ncccc2/C(=[NH+]\O)N2CCCCCC2)cc1 (nonaromatic ring conformer: 69.27730758028886 kcal/mol)

>  <smiles>  (38) 
COc1ccc(Oc2ncccc2C(=NO)N2CCCCCC2)cc1

>  <score_type>  (38) 
oracle

>  <origin>  (38) 
adg

>  <m_score__min__energy>  (38) 
-6.4900000000000002

>  <m_primary>  (38) 
energy

$$$$
