0:0
     RDKit          3D

 41 43  0  0  0  0  0  0  0  0999 V2000
   -9.4760   18.9310  -32.6470 C   0  0  0  0  0  0  0  0  0  0  0  0
   -8.6180   20.1430  -32.4360 C   0  0  0  0  0  0  0  0  0  0  0  0
   -9.1860   21.3370  -31.9670 C   0  0  0  0  0  0  0  0  0  0  0  0
   -8.3800   22.4550  -31.7340 C   0  0  0  0  0  0  0  0  0  0  0  0
   -6.9980   22.3990  -31.9670 C   0  0  0  0  0  0  0  0  0  0  0  0
   -6.1900   23.5580  -31.6990 N   0  0  0  0  0  0  0  0  0  0  0  0
   -6.4060   24.4510  -30.5940 C   0  0  0  0  0  0  0  0  0  0  0  0
   -7.2130   24.1500  -29.6730 O   0  0  0  0  0  0  0  0  0  0  0  0
   -5.6180   25.7210  -30.4840 C   0  0  0  0  0  0  0  0  0  0  0  0
   -4.2540   25.4900  -30.8310 O   0  0  0  0  0  0  0  0  0  0  0  0
   -3.5430   24.3440  -30.4530 C   0  0  0  0  0  0  0  0  0  0  0  0
   -3.5220   23.3340  -31.2100 O   0  0  0  0  0  0  0  0  0  0  0  0
   -2.8130   24.3210  -29.1670 C   0  0  0  0  0  0  0  0  0  0  0  0
   -3.5080   24.1990  -27.9470 C   0  0  0  0  0  0  0  0  0  0  0  0
   -2.8130   24.1710  -26.7340 C   0  0  0  0  0  0  0  0  0  0  0  0
   -1.4200   24.2650  -26.7270 C   0  0  0  0  0  0  0  0  0  0  0  0
   -0.7210   24.4170  -27.9310 C   0  0  0  0  0  0  0  0  0  0  0  0
   -1.4100   24.4300  -29.1470 C   0  0  0  0  0  0  0  0  0  0  0  0
    0.6710   24.5550  -27.8950 O   0  0  0  0  0  0  0  0  0  0  0  0
    1.3560   24.8190  -26.6690 C   0  0  0  0  0  0  0  0  0  0  0  0
    0.7140   24.0280  -25.5210 C   0  0  0  0  0  0  0  0  0  0  0  0
   -0.7040   24.2100  -25.5270 O   0  0  0  0  0  0  0  0  0  0  0  0
   -6.4260   21.1900  -32.3990 C   0  0  0  0  0  0  0  0  0  0  0  0
   -7.2310   20.0700  -32.6310 C   0  0  0  0  0  0  0  0  0  0  0  0
   -9.7700   18.5156  -31.6718 H   0  0  0  0  0  0  0  0  0  0  0  0
  -10.3767   19.2132  -33.2120 H   0  0  0  0  0  0  0  0  0  0  0  0
   -8.9106   18.1753  -33.2120 H   0  0  0  0  0  0  0  0  0  0  0  0
  -10.2689   21.3935  -31.7821 H   0  0  0  0  0  0  0  0  0  0  0  0
   -8.8334   23.3867  -31.3648 H   0  0  0  0  0  0  0  0  0  0  0  0
   -5.3410   23.7090  -32.2900 H   0  0  0  0  0  0  0  0  0  0  0  0
   -6.0435   26.4720  -31.1658 H   0  0  0  0  0  0  0  0  0  0  0  0
   -5.6664   26.0829  -29.4464 H   0  0  0  0  0  0  0  0  0  0  0  0
   -4.6055   24.1252  -27.9491 H   0  0  0  0  0  0  0  0  0  0  0  0
   -3.3631   24.0750  -25.7863 H   0  0  0  0  0  0  0  0  0  0  0  0
   -0.8540   24.5257  -30.0913 H   0  0  0  0  0  0  0  0  0  0  0  0
    2.4100   24.5210  -26.7704 H   0  0  0  0  0  0  0  0  0  0  0  0
    1.2890   25.8939  -26.4452 H   0  0  0  0  0  0  0  0  0  0  0  0
    0.9435   22.9592  -25.6436 H   0  0  0  0  0  0  0  0  0  0  0  0
    1.1181   24.3922  -24.5649 H   0  0  0  0  0  0  0  0  0  0  0  0
   -5.3392   21.1243  -32.5555 H   0  0  0  0  0  0  0  0  0  0  0  0
   -6.7743   19.1277  -32.9679 H   0  0  0  0  0  0  0  0  0  0  0  0
  1  2  1  0
  2  3  2  0
  3  4  1  0
  4  5  2  0
  5  6  1  0
  6  7  1  0
  7  8  2  0
  7  9  1  0
  9 10  1  0
 10 11  1  0
 11 12  2  0
 11 13  1  0
 13 14  2  0
 14 15  1  0
 15 16  2  0
 16 17  1  0
 17 18  2  0
 17 19  1  0
 19 20  1  0
 20 21  1  0
 21 22  1  0
  5 23  1  0
 23 24  2  0
 24  2  1  0
 18 13  1  0
 22 16  1  0
  1 25  1  0
  1 26  1  0
  1 27  1  0
  3 28  1  0
  4 29  1  0
  6 30  1  0
  9 31  1  0
  9 32  1  0
 14 33  1  0
 15 34  1  0
 18 35  1  0
 20 36  1  0
 20 37  1  0
 21 38  1  0
 21 39  1  0
 23 40  1  0
 24 41  1  0
M  END
>  <UniqueID>  (1) 
1

>  <SMILES>  (1) 
Cc1ccc(NC(=O)COC(=O)c2ccc3c(c2)OCCO3)cc1

>  <Energy>  (1) 
44.19480808935597

>  <Genealogy>  (1) 
Cc1ccc(NC(=O)COC(=O)c2ccc3c(c2)OCCO3)cc1 (3D coordinates assigned)
Cc1ccc(NC(=O)COC(=O)c2ccc3c(c2)OCCO3)cc1 (nonaromatic ring conformer: 44.19480808935597 kcal/mol)

>  <smiles>  (1) 
Cc1ccc(NC(=O)COC(=O)c2ccc3c(c2)OCCO3)cc1

>  <score_type>  (1) 
oracle

>  <origin>  (1) 
adg

>  <m_score__min__energy>  (1) 
-7.8700000000000001

>  <m_primary>  (1) 
energy

$$$$
1:0
     RDKit          3D

 46 48  0  0  0  0  0  0  0  0999 V2000
   -0.7320   26.3980  -23.5140 C   0  0  0  0  0  0  0  0  0  0  0  0
   -0.6030   26.6260  -24.9140 O   0  0  0  0  0  0  0  0  0  0  0  0
   -1.3270   25.9380  -25.9000 C   0  0  0  0  0  0  0  0  0  0  0  0
   -2.6930   25.6350  -25.7570 C   0  0  0  0  0  0  0  0  0  0  0  0
   -3.3680   24.9440  -26.7630 C   0  0  0  0  0  0  0  0  0  0  0  0
   -2.6960   24.5380  -27.9260 C   0  0  0  0  0  0  0  0  0  0  0  0
   -3.4090   23.8170  -28.9440 N   0  0  0  0  0  0  0  0  0  0  0  0
   -3.6570   22.4900  -28.9700 C   0  0  0  0  0  0  0  0  0  0  0  0
   -3.2740   21.6060  -27.9670 O   0  0  0  0  0  0  0  0  0  0  0  0
   -4.3490   22.1320  -30.1100 C   0  0  0  0  0  0  0  0  0  0  0  0
   -4.5200   23.3040  -30.8230 C   0  0  0  0  0  0  0  0  0  0  0  0
   -5.1850   23.3990  -32.0920 N   0  0  0  0  0  0  0  0  0  0  0  0
   -6.5830   23.7960  -32.2630 C   0  0  0  0  0  0  0  0  0  0  0  0
   -7.5020   23.0260  -31.3050 C   0  0  0  0  0  0  0  0  0  0  0  0
   -7.7240   21.6120  -31.7750 C   0  0  0  0  0  0  0  0  0  0  0  0
   -8.8580   20.8960  -31.3540 C   0  0  0  0  0  0  0  0  0  0  0  0
   -9.0470   19.5720  -31.7630 C   0  0  0  0  0  0  0  0  0  0  0  0
   -8.1020   18.9510  -32.5860 C   0  0  0  0  0  0  0  0  0  0  0  0
   -6.9670   19.6530  -33.0000 C   0  0  0  0  0  0  0  0  0  0  0  0
   -6.7740   20.9780  -32.5930 C   0  0  0  0  0  0  0  0  0  0  0  0
   -3.9330   24.3190  -30.0810 C   0  0  0  0  0  0  0  0  0  0  0  0
   -3.8650   25.6610  -30.4370 O   0  0  0  0  0  0  0  0  0  0  0  0
   -1.3320   24.8510  -28.0870 C   0  0  0  0  0  0  0  0  0  0  0  0
   -0.6870   24.4770  -29.2780 O   0  0  0  0  0  0  0  0  0  0  0  0
   -0.4930   23.1350  -29.7070 C   0  0  0  0  0  0  0  0  0  0  0  0
   -0.6570   25.5430  -27.0630 C   0  0  0  0  0  0  0  0  0  0  0  0
   -0.2632   27.2265  -22.9628 H   0  0  0  0  0  0  0  0  0  0  0  0
   -1.7979   26.3380  -23.2490 H   0  0  0  0  0  0  0  0  0  0  0  0
   -0.2345   25.4534  -23.2490 H   0  0  0  0  0  0  0  0  0  0  0  0
   -3.2308   25.9441  -24.8486 H   0  0  0  0  0  0  0  0  0  0  0  0
   -4.4373   24.7151  -26.6436 H   0  0  0  0  0  0  0  0  0  0  0  0
   -4.6922   21.1256  -30.3917 H   0  0  0  0  0  0  0  0  0  0  0  0
   -4.6250   23.2130  -32.9540 H   0  0  0  0  0  0  0  0  0  0  0  0
   -6.6769   24.8733  -32.0614 H   0  0  0  0  0  0  0  0  0  0  0  0
   -6.8858   23.5657  -33.2951 H   0  0  0  0  0  0  0  0  0  0  0  0
   -7.0403   23.0032  -30.3069 H   0  0  0  0  0  0  0  0  0  0  0  0
   -8.4754   23.5373  -31.2728 H   0  0  0  0  0  0  0  0  0  0  0  0
   -9.5995   21.3788  -30.7005 H   0  0  0  0  0  0  0  0  0  0  0  0
   -9.9399   19.0184  -31.4370 H   0  0  0  0  0  0  0  0  0  0  0  0
   -8.2523   17.9098  -32.9074 H   0  0  0  0  0  0  0  0  0  0  0  0
   -6.2241   19.1634  -33.6468 H   0  0  0  0  0  0  0  0  0  0  0  0
   -5.8754   21.5249  -32.9147 H   0  0  0  0  0  0  0  0  0  0  0  0
   -0.3982   22.4794  -28.8288 H   0  0  0  0  0  0  0  0  0  0  0  0
   -1.3543   22.8153  -30.3120 H   0  0  0  0  0  0  0  0  0  0  0  0
    0.4235   23.0723  -30.3120 H   0  0  0  0  0  0  0  0  0  0  0  0
    0.4117   25.7762  -27.1791 H   0  0  0  0  0  0  0  0  0  0  0  0
  1  2  1  0
  2  3  1  0
  3  4  2  0
  4  5  1  0
  5  6  2  0
  6  7  1  0
  7  8  1  0
  8  9  1  0
  8 10  2  0
 10 11  1  0
 11 12  1  0
 12 13  1  0
 13 14  1  0
 14 15  1  0
 15 16  2  0
 16 17  1  0
 17 18  2  0
 18 19  1  0
 19 20  2  0
 11 21  2  0
 21 22  1  0
  6 23  1  0
 23 24  1  0
 24 25  1  0
 23 26  2  0
 26  3  1  0
 21  7  1  0
 20 15  1  0
  1 27  1  0
  1 28  1  0
  1 29  1  0
  4 30  1  0
  5 31  1  0
 10 32  1  0
 12 33  1  0
 13 34  1  0
 13 35  1  0
 14 36  1  0
 14 37  1  0
 16 38  1  0
 17 39  1  0
 18 40  1  0
 19 41  1  0
 20 42  1  0
 25 43  1  0
 25 44  1  0
 25 45  1  0
 26 46  1  0
M  CHG  2   9  -1  22  -1
M  END
>  <UniqueID>  (2) 
2

>  <SMILES>  (2) 
COc1ccc(-n2c([O-])cc(NCCc3ccccc3)c2[O-])c(OC)c1

>  <Energy>  (2) 
78.84146612624133

>  <Genealogy>  (2) 
COc1ccc(-n2c([O-])cc(NCCc3ccccc3)c2[O-])c(OC)c1 (protonated)
COc1ccc(-n2c([O-])cc(NCCc3ccccc3)c2[O-])c(OC)c1 (3D coordinates assigned)
COc1ccc(-n2c([O-])cc(NCCc3ccccc3)c2[O-])c(OC)c1 (optimized conformer: 78.84146612624133 kcal/mol)

>  <smiles>  (2) 
COc1ccc(-n2c(O)cc(NCCc3ccccc3)c2O)c(OC)c1

>  <score_type>  (2) 
oracle

>  <origin>  (2) 
adg

>  <m_score__min__energy>  (2) 
-11.050000000000001

>  <m_primary>  (2) 
energy

$$$$
2:0
     RDKit          3D

 31 33  0  0  0  0  0  0  0  0999 V2000
   -5.7400   17.8130  -35.2420 C   0  0  0  0  0  0  0  0  0  0  0  0
   -4.3950   17.3650  -34.1020 S   0  0  0  0  0  0  0  0  0  0  0  0
   -4.0800   19.0650  -33.6150 C   0  0  0  0  0  0  0  0  0  0  0  0
   -2.8770   19.6550  -33.7020 N   0  0  0  0  0  0  0  0  0  0  0  0
   -2.9760   20.8670  -33.1820 N   0  0  0  0  0  0  0  0  0  0  0  0
   -4.2560   21.0050  -32.7730 C   0  0  0  0  0  0  0  0  0  0  0  0
   -4.7800   22.2420  -32.1510 C   0  0  0  0  0  0  0  0  0  0  0  0
   -3.9540   23.0540  -31.3580 C   0  0  0  0  0  0  0  0  0  0  0  0
   -4.4590   24.1920  -30.8110 N   0  0  0  0  0  0  0  0  0  0  0  0
   -5.7480   24.5630  -31.0200 C   0  0  0  0  0  0  0  0  0  0  0  0
   -6.5710   23.7640  -31.8140 C   0  0  0  0  0  0  0  0  0  0  0  0
   -6.0690   22.6270  -32.3620 N   0  0  0  0  0  0  0  0  0  0  0  0
   -4.9780   19.8870  -33.0380 N   0  0  0  0  0  0  0  0  0  0  0  0
   -6.3080   19.5550  -32.6140 C   0  0  0  0  0  0  0  0  0  0  0  0
   -6.5150   18.5180  -31.6900 C   0  0  0  0  0  0  0  0  0  0  0  0
   -7.8120   18.1900  -31.2810 C   0  0  0  0  0  0  0  0  0  0  0  0
   -8.9060   18.8910  -31.7950 C   0  0  0  0  0  0  0  0  0  0  0  0
   -8.7050   19.9220  -32.7180 C   0  0  0  0  0  0  0  0  0  0  0  0
   -7.4110   20.2530  -33.1280 C   0  0  0  0  0  0  0  0  0  0  0  0
   -6.6277   18.1087  -34.6636 H   0  0  0  0  0  0  0  0  0  0  0  0
   -5.4190   18.6527  -35.8759 H   0  0  0  0  0  0  0  0  0  0  0  0
   -5.9866   16.9485  -35.8759 H   0  0  0  0  0  0  0  0  0  0  0  0
   -2.0000   19.2420  -34.0900 H   0  0  0  0  0  0  0  0  0  0  0  0
   -2.9058   22.7718  -31.1803 H   0  0  0  0  0  0  0  0  0  0  0  0
   -6.1401   25.4856  -30.5672 H   0  0  0  0  0  0  0  0  0  0  0  0
   -7.6171   24.0522  -31.9947 H   0  0  0  0  0  0  0  0  0  0  0  0
   -5.6554   17.9624  -31.2869 H   0  0  0  0  0  0  0  0  0  0  0  0
   -7.9707   17.3797  -30.5542 H   0  0  0  0  0  0  0  0  0  0  0  0
   -9.9255   18.6318  -31.4735 H   0  0  0  0  0  0  0  0  0  0  0  0
   -9.5669   20.4733  -33.1219 H   0  0  0  0  0  0  0  0  0  0  0  0
   -7.2567   21.0632  -33.8559 H   0  0  0  0  0  0  0  0  0  0  0  0
  1  2  1  0
  2  3  1  0
  3  4  2  0
  4  5  1  0
  5  6  2  0
  6  7  1  0
  7  8  2  0
  8  9  1  0
  9 10  2  0
 10 11  1  0
 11 12  2  0
  6 13  1  0
 13 14  1  0
 14 15  2  0
 15 16  1  0
 16 17  2  0
 17 18  1  0
 18 19  2  0
 13  3  1  0
 19 14  1  0
 12  7  1  0
  1 20  1  0
  1 21  1  0
  1 22  1  0
  4 23  1  0
  8 24  1  0
 10 25  1  0
 11 26  1  0
 15 27  1  0
 16 28  1  0
 17 29  1  0
 18 30  1  0
 19 31  1  0
M  CHG  1   4   1
M  END
>  <UniqueID>  (3) 
3

>  <SMILES>  (3) 
CSc1[nH+]nc(-c2cnccn2)n1-c1ccccc1

>  <Energy>  (3) 
75.0430527323976

>  <Genealogy>  (3) 
CSc1[nH+]nc(-c2cnccn2)n1-c1ccccc1 (protonated)
CSc1[nH+]nc(-c2cnccn2)n1-c1ccccc1 (3D coordinates assigned)
CSc1[nH+]nc(-c2cnccn2)n1-c1ccccc1 (optimized conformer: 75.0430527323976 kcal/mol)

>  <smiles>  (3) 
CSc1nnc(-c2cnccn2)n1-c1ccccc1

>  <score_type>  (3) 
oracle

>  <origin>  (3) 
adg

>  <m_score__min__energy>  (3) 
-6.6799999999999997

>  <m_primary>  (3) 
energy

$$$$
3:0
     RDKit          3D

 69 71  0  0  0  0  0  0  0  0999 V2000
   -1.6000   21.2720  -31.2120 C   0  0  0  0  0  0  0  0  0  0  0  0
   -0.8380   21.8450  -30.0190 C   0  0  0  0  0  0  0  0  0  0  0  0
   -0.9150   20.9060  -28.8060 C   0  0  0  0  0  0  0  0  0  0  0  0
   -1.2560   21.6350  -27.5620 N   0  0  0  0  0  0  0  0  0  0  0  0
   -1.5010   20.7660  -26.3790 C   0  0  0  0  0  0  0  0  0  0  0  0
   -1.8270   19.2940  -26.7110 C   0  0  0  0  0  0  0  0  0  0  0  0
   -3.2350   18.9290  -26.2470 C   0  0  0  0  0  0  0  0  0  0  0  0
   -0.2820   22.7160  -27.2890 C   0  0  0  0  0  0  0  0  0  0  0  0
   -0.9440   23.8570  -26.5390 C   0  0  0  0  0  0  0  0  0  0  0  0
   -0.2840   24.3880  -25.4130 C   0  0  0  0  0  0  0  0  0  0  0  0
    0.8920   23.8570  -24.9910 F   0  0  0  0  0  0  0  0  0  0  0  0
   -0.8200   25.4790  -24.7240 C   0  0  0  0  0  0  0  0  0  0  0  0
   -2.0150   26.0570  -25.1470 C   0  0  0  0  0  0  0  0  0  0  0  0
   -2.6810   25.5470  -26.2610 C   0  0  0  0  0  0  0  0  0  0  0  0
   -2.1640   24.4450  -26.9630 C   0  0  0  0  0  0  0  0  0  0  0  0
   -2.9200   23.9530  -28.1340 C   0  0  0  0  0  0  0  0  0  0  0  0
   -3.8780   22.9380  -27.9990 C   0  0  0  0  0  0  0  0  0  0  0  0
   -4.6120   22.5190  -29.1090 C   0  0  0  0  0  0  0  0  0  0  0  0
   -4.4000   23.1410  -30.3430 C   0  0  0  0  0  0  0  0  0  0  0  0
   -5.3790   22.7060  -31.7290 S   0  0  0  0  0  0  0  0  0  0  0  0
   -4.4440   22.6350  -33.1230 O   0  0  0  0  0  0  0  0  0  0  0  0
   -6.8030   23.7640  -31.9590 C   0  0  0  0  0  0  0  0  0  0  0  0
   -8.1360   23.0570  -31.6730 C   0  0  0  0  0  0  0  0  0  0  0  0
   -7.9710   21.5560  -31.3640 C   0  0  0  0  0  0  0  0  0  0  0  0
   -8.1430   20.7380  -32.5880 N   0  0  0  0  0  0  0  0  0  0  0  0
   -9.3280   19.8510  -32.5290 C   0  0  0  0  0  0  0  0  0  0  0  0
   -9.0770   18.5950  -31.6720 C   0  0  0  0  0  0  0  0  0  0  0  0
   -7.9290   17.8970  -32.1070 O   0  0  0  0  0  0  0  0  0  0  0  0
   -6.7950   18.7310  -31.9920 C   0  0  0  0  0  0  0  0  0  0  0  0
   -6.9300   19.9570  -32.9080 C   0  0  0  0  0  0  0  0  0  0  0  0
   -3.4690   24.1260  -30.4580 N   0  0  0  0  0  0  0  0  0  0  0  0
   -2.7340   24.5430  -29.3930 C   0  0  0  0  0  0  0  0  0  0  0  0
   -2.4305   20.6475  -30.8510 H   0  0  0  0  0  0  0  0  0  0  0  0
   -1.9990   22.0957  -31.8222 H   0  0  0  0  0  0  0  0  0  0  0  0
   -0.9194   20.6600  -31.8222 H   0  0  0  0  0  0  0  0  0  0  0  0
    0.2167   21.9824  -30.2997 H   0  0  0  0  0  0  0  0  0  0  0  0
   -1.2953   22.8068  -29.7437 H   0  0  0  0  0  0  0  0  0  0  0  0
   -1.6862   20.1446  -28.9944 H   0  0  0  0  0  0  0  0  0  0  0  0
    0.0741   20.4444  -28.6697 H   0  0  0  0  0  0  0  0  0  0  0  0
   -0.5989   20.7828  -25.7498 H   0  0  0  0  0  0  0  0  0  0  0  0
   -2.3902   21.1732  -25.8755 H   0  0  0  0  0  0  0  0  0  0  0  0
   -1.7568   19.1462  -27.7988 H   0  0  0  0  0  0  0  0  0  0  0  0
   -1.1064   18.6482  -26.1878 H   0  0  0  0  0  0  0  0  0  0  0  0
   -3.2680   18.9204  -25.1475 H   0  0  0  0  0  0  0  0  0  0  0  0
   -3.9511   19.6712  -26.6296 H   0  0  0  0  0  0  0  0  0  0  0  0
   -3.5003   17.9324  -26.6296 H   0  0  0  0  0  0  0  0  0  0  0  0
    0.5423   22.3145  -26.6813 H   0  0  0  0  0  0  0  0  0  0  0  0
    0.1011   23.0974  -28.2470 H   0  0  0  0  0  0  0  0  0  0  0  0
   -0.2968   25.8829  -23.8447 H   0  0  0  0  0  0  0  0  0  0  0  0
   -2.4333   26.9160  -24.6020 H   0  0  0  0  0  0  0  0  0  0  0  0
   -3.6207   26.0121  -26.5936 H   0  0  0  0  0  0  0  0  0  0  0  0
   -4.0508   22.4720  -27.0177 H   0  0  0  0  0  0  0  0  0  0  0  0
   -5.3494   21.7082  -29.0143 H   0  0  0  0  0  0  0  0  0  0  0  0
   -4.9960   23.0780  -33.8170 H   0  0  0  0  0  0  0  0  0  0  0  0
   -6.7117   24.6251  -31.2807 H   0  0  0  0  0  0  0  0  0  0  0  0
   -6.8156   24.0691  -33.0158 H   0  0  0  0  0  0  0  0  0  0  0  0
   -8.6109   23.5423  -30.8076 H   0  0  0  0  0  0  0  0  0  0  0  0
   -8.7518   23.1389  -32.5808 H   0  0  0  0  0  0  0  0  0  0  0  0
   -6.9653   21.3819  -30.9538 H   0  0  0  0  0  0  0  0  0  0  0  0
   -8.7413   21.2621  -30.6358 H   0  0  0  0  0  0  0  0  0  0  0  0
  -10.1688   20.4125  -32.0957 H   0  0  0  0  0  0  0  0  0  0  0  0
   -9.5514   19.5197  -33.5538 H   0  0  0  0  0  0  0  0  0  0  0  0
   -8.9359   18.8987  -30.6242 H   0  0  0  0  0  0  0  0  0  0  0  0
   -9.9464   17.9283  -31.7708 H   0  0  0  0  0  0  0  0  0  0  0  0
   -6.6982   19.0677  -30.9493 H   0  0  0  0  0  0  0  0  0  0  0  0
   -5.9036   18.1607  -32.2921 H   0  0  0  0  0  0  0  0  0  0  0  0
   -6.0464   20.5993  -32.7789 H   0  0  0  0  0  0  0  0  0  0  0  0
   -7.0086   19.6057  -33.9474 H   0  0  0  0  0  0  0  0  0  0  0  0
   -1.9917   25.3450  -29.5189 H   0  0  0  0  0  0  0  0  0  0  0  0
  1  2  1  0
  2  3  1  0
  3  4  1  0
  4  5  1  0
  5  6  1  0
  6  7  1  0
  4  8  1  0
  8  9  1  0
  9 10  2  0
 10 11  1  0
 10 12  1  0
 12 13  2  0
 13 14  1  0
 14 15  2  0
 15 16  1  0
 16 17  2  0
 17 18  1  0
 18 19  2  0
 19 20  1  0
 20 21  1  6
 20 22  1  0
 22 23  1  0
 23 24  1  0
 24 25  1  0
 25 26  1  0
 26 27  1  0
 27 28  1  0
 28 29  1  0
 29 30  1  0
 19 31  1  0
 31 32  2  0
 15  9  1  0
 32 16  1  0
 30 25  1  0
  1 33  1  0
  1 34  1  0
  1 35  1  0
  2 36  1  0
  2 37  1  0
  3 38  1  0
  3 39  1  0
  5 40  1  0
  5 41  1  0
  6 42  1  0
  6 43  1  0
  7 44  1  0
  7 45  1  0
  7 46  1  0
  8 47  1  0
  8 48  1  0
 12 49  1  0
 13 50  1  0
 14 51  1  0
 17 52  1  0
 18 53  1  0
 21 54  1  0
 22 55  1  0
 22 56  1  0
 23 57  1  0
 23 58  1  0
 24 59  1  0
 24 60  1  0
 26 61  1  0
 26 62  1  0
 27 63  1  0
 27 64  1  0
 29 65  1  0
 29 66  1  0
 30 67  1  0
 30 68  1  0
 32 69  1  0
M  CHG  1  20   1
M  END
>  <UniqueID>  (4) 
4

>  <SMILES>  (4) 
CCCN(CCC)Cc1c(F)cccc1-c1ccc([S@+](O)CCCN2CCOCC2)nc1

>  <Energy>  (4) 
74.09884985357621

>  <Genealogy>  (4) 
CCCN(CCC)Cc1c(F)cccc1-c1ccc([S+](O)CCCN2CCOCC2)nc1 (protonated)
CCCN(CCC)Cc1c(F)cccc1-c1ccc([S@+](O)CCCN2CCOCC2)nc1 (chirality)
CCCN(CCC)Cc1c(F)cccc1-c1ccc([S@+](O)CCCN2CCOCC2)nc1 (3D coordinates assigned)
CCCN(CCC)Cc1c(F)cccc1-c1ccc([S@+](O)CCCN2CCOCC2)nc1 (nonaromatic ring conformer: 74.09884985357621 kcal/mol)

>  <smiles>  (4) 
CCCN(CCC)Cc1c(F)cccc1-c1ccc([S+]([O-])CCCN2CCOCC2)nc1

>  <score_type>  (4) 
oracle

>  <origin>  (4) 
adg

>  <m_score__min__energy>  (4) 
-8.3599999999999994

>  <m_primary>  (4) 
energy

$$$$
4:0
     RDKit          3D

 47 50  0  0  1  0  0  0  0  0999 V2000
   -4.5870   15.4540  -33.1750 C   0  0  0  0  0  0  0  0  0  0  0  0
   -5.8640   14.9160  -33.8330 C   0  0  0  0  0  0  0  0  0  0  0  0
   -6.4890   16.0330  -34.4350 O   0  0  0  0  0  0  0  0  0  0  0  0
   -6.5300   17.3030  -33.8360 C   0  0  0  0  0  0  0  0  0  0  0  0
   -7.2670   17.5070  -32.6650 C   0  0  0  0  0  0  0  0  0  0  0  0
   -7.3060   18.7680  -32.0720 C   0  0  0  0  0  0  0  0  0  0  0  0
   -6.6090   19.8190  -32.6490 C   0  0  0  0  0  0  0  0  0  0  0  0
   -6.6140   21.1670  -32.0700 C   0  0  0  0  0  0  0  0  0  0  0  0
   -7.8790   21.7300  -31.8670 C   0  0  0  0  0  0  0  0  0  0  0  0
   -7.9440   23.0050  -31.3210 C   0  0  0  0  0  0  0  0  0  0  0  0
   -6.7940   23.6720  -30.9980 C   0  0  0  0  0  0  0  0  0  0  0  0
   -6.9020   24.9010  -30.4720 N   0  0  0  0  0  0  0  0  0  0  0  0
   -5.7750   25.5620  -30.1530 C   0  0  0  0  0  0  0  0  0  0  0  0
   -4.5430   25.0530  -30.3340 N   0  0  0  0  0  0  0  0  0  0  0  0
   -4.3830   23.8260  -30.8570 C   0  0  0  0  0  0  0  0  0  0  0  0
   -3.2270   23.3070  -31.0440 N   0  0  0  0  0  0  0  0  0  0  0  0
   -2.4760   22.7060  -29.9590 C   0  0  0  0  0  0  0  0  0  0  0  0
   -2.0360   23.7070  -28.9520 C   0  0  0  0  0  0  0  0  0  0  0  0
   -2.8170   23.9840  -27.8250 C   0  0  0  0  0  0  0  0  0  0  0  0
   -2.4140   24.9160  -26.8800 C   0  0  0  0  0  0  0  0  0  0  0  0
   -1.2070   25.5930  -27.0510 C   0  0  0  0  0  0  0  0  0  0  0  0
   -0.4570   25.3200  -28.1420 N   0  0  0  0  0  0  0  0  0  0  0  0
   -0.8540   24.4060  -29.0680 C   0  0  0  0  0  0  0  0  0  0  0  0
   -5.5230   23.1220  -31.1950 C   0  0  0  0  0  0  0  0  0  0  0  0
   -5.4560   21.8390  -31.7450 C   0  0  0  0  0  0  0  0  0  0  0  0
   -5.8820   19.6030  -33.8100 C   0  0  0  0  0  0  0  0  0  0  0  0
   -5.8240   18.3590  -34.4220 C   0  0  0  0  0  0  0  0  0  0  0  0
   -4.6917   15.4099  -32.0809 H   0  0  0  0  0  0  0  0  0  0  0  0
   -3.7281   14.8413  -33.4861 H   0  0  0  0  0  0  0  0  0  0  0  0
   -4.4255   16.4966  -33.4861 H   0  0  0  0  0  0  0  0  0  0  0  0
   -5.6141   14.1613  -34.5933 H   0  0  0  0  0  0  0  0  0  0  0  0
   -6.5237   14.4308  -33.0985 H   0  0  0  0  0  0  0  0  0  0  0  0
   -7.8175   16.6700  -32.2106 H   0  0  0  0  0  0  0  0  0  0  0  0
   -7.8864   18.9285  -31.1515 H   0  0  0  0  0  0  0  0  0  0  0  0
   -8.7937   21.1794  -32.1318 H   0  0  0  0  0  0  0  0  0  0  0  0
   -8.9213   23.4793  -31.1479 H   0  0  0  0  0  0  0  0  0  0  0  0
   -7.8120   25.3570  -30.3040 H   0  0  0  0  0  0  0  0  0  0  0  0
   -5.8652   26.5701  -29.7222 H   0  0  0  0  0  0  0  0  0  0  0  0
   -3.1116   21.9593  -29.4605 H   0  0  0  0  0  0  0  0  0  0  0  0
   -1.5749   22.2451  -30.3897 H   0  0  0  0  0  0  0  0  0  0  0  0
   -3.7697   23.4521  -27.6854 H   0  0  0  0  0  0  0  0  0  0  0  0
   -3.0429   25.1198  -26.0008 H   0  0  0  0  0  0  0  0  0  0  0  0
   -0.8714   26.3354  -26.3119 H   0  0  0  0  0  0  0  0  0  0  0  0
   -0.2094   24.2184  -29.9394 H   0  0  0  0  0  0  0  0  0  0  0  0
   -4.4784   21.3655  -31.9185 H   0  0  0  0  0  0  0  0  0  0  0  0
   -5.3342   20.4441  -34.2598 H   0  0  0  0  0  0  0  0  0  0  0  0
   -5.2396   18.2075  -35.3416 H   0  0  0  0  0  0  0  0  0  0  0  0
  1  2  1  0
  2  3  1  0
  3  4  1  0
  4  5  2  0
  5  6  1  0
  6  7  2  0
  7  8  1  0
  8  9  2  0
  9 10  1  0
 10 11  2  0
 11 12  1  0
 12 13  1  0
 13 14  2  0
 14 15  1  0
 15 16  2  0
 16 17  1  0
 17 18  1  0
 18 19  2  0
 19 20  1  0
 20 21  2  0
 21 22  1  0
 22 23  2  0
 15 24  1  0
 24 25  2  0
  7 26  1  0
 26 27  2  0
 27  4  1  0
 25  8  1  0
 24 11  1  0
 23 18  1  0
  1 28  1  0
  1 29  1  0
  1 30  1  0
  2 31  1  0
  2 32  1  0
  5 33  1  0
  6 34  1  0
  9 35  1  0
 10 36  1  0
 12 37  1  0
 13 38  1  0
 17 39  1  0
 17 40  1  0
 19 41  1  0
 20 42  1  0
 21 43  1  0
 23 44  1  0
 25 45  1  0
 26 46  1  0
 27 47  1  0
M  END
>  <smiles>  (5) 
CCOc1ccc(-c2ccc3[nH]cnc(=NCc4cccnc4)c3c2)cc1

>  <score_type>  (5) 
oracle

>  <origin>  (5) 
adg

>  <m_score__min__energy>  (5) 
-9.1899999999999995

>  <m_primary>  (5) 
energy

$$$$
5:0
     RDKit          3D

 42 45  0  0  0  0  0  0  0  0999 V2000
   -2.9141   18.2933  -34.3734 H   0  0  0  0  0  0  0  0  0  0  0  0
   -3.5790   19.0520  -33.9350 C   0  0  0  0  0  0  0  0  0  0  0  0
   -4.9530   18.8120  -33.8500 C   0  0  0  0  0  0  0  0  0  0  0  0
   -5.3696   17.8654  -34.2247 H   0  0  0  0  0  0  0  0  0  0  0  0
   -5.7990   19.7740  -33.2890 C   0  0  0  0  0  0  0  0  0  0  0  0
   -6.8805   19.5823  -33.2290 H   0  0  0  0  0  0  0  0  0  0  0  0
   -5.2760   20.9850  -32.8010 C   0  0  0  0  0  0  0  0  0  0  0  0
   -6.1810   22.0020  -32.2130 C   0  0  0  0  0  0  0  0  0  0  0  0
   -7.5720   21.9860  -32.2730 C   0  0  0  0  0  0  0  0  0  0  0  0
   -8.1943   21.2260  -32.7681 H   0  0  0  0  0  0  0  0  0  0  0  0
   -8.0290   23.1090  -31.5910 C   0  0  0  0  0  0  0  0  0  0  0  0
   -9.0744   23.4180  -31.4438 H   0  0  0  0  0  0  0  0  0  0  0  0
   -6.8970   23.7540  -31.1380 C   0  0  0  0  0  0  0  0  0  0  0  0
   -6.7950   24.9120  -30.3780 C   0  0  0  0  0  0  0  0  0  0  0  0
   -7.6892   25.4740  -30.0705 H   0  0  0  0  0  0  0  0  0  0  0  0
   -5.5090   25.3370  -30.0180 C   0  0  0  0  0  0  0  0  0  0  0  0
   -5.3787   26.2531  -29.4233 H   0  0  0  0  0  0  0  0  0  0  0  0
   -4.3750   24.5850  -30.4210 C   0  0  0  0  0  0  0  0  0  0  0  0
   -3.1570   24.9230  -30.1050 N   0  0  0  0  0  0  0  0  0  0  0  0
   -2.2220   24.1740  -29.2640 C   0  0  0  0  0  0  0  0  0  0  0  0
   -1.2880   24.0103  -29.8216 H   0  0  0  0  0  0  0  0  0  0  0  0
   -2.6837   23.2122  -28.9962 H   0  0  0  0  0  0  0  0  0  0  0  0
   -1.9140   24.9290  -27.9970 C   0  0  0  0  0  0  0  0  0  0  0  0
   -0.8350   25.8260  -27.9550 C   0  0  0  0  0  0  0  0  0  0  0  0
   -0.2101   25.9720  -28.8484 H   0  0  0  0  0  0  0  0  0  0  0  0
   -0.5500   26.5350  -26.7840 C   0  0  0  0  0  0  0  0  0  0  0  0
    0.3079   27.2229  -26.7554 H   0  0  0  0  0  0  0  0  0  0  0  0
   -1.3530   26.3730  -25.6460 C   0  0  0  0  0  0  0  0  0  0  0  0
   -1.0230   27.1020  -24.3770 C   0  0  0  0  0  0  0  0  0  0  0  0
   -1.3041   26.4810  -23.5137 H   0  0  0  0  0  0  0  0  0  0  0  0
    0.0568   27.3094  -24.3434 H   0  0  0  0  0  0  0  0  0  0  0  0
   -1.5797   28.0501  -24.3434 H   0  0  0  0  0  0  0  0  0  0  0  0
   -2.4290   25.4730  -25.6850 C   0  0  0  0  0  0  0  0  0  0  0  0
   -3.0508   25.3247  -24.7898 H   0  0  0  0  0  0  0  0  0  0  0  0
   -2.7150   24.7640  -26.8550 C   0  0  0  0  0  0  0  0  0  0  0  0
   -3.5711   24.0738  -26.8816 H   0  0  0  0  0  0  0  0  0  0  0  0
   -4.5650   23.4600  -31.1690 N   0  0  0  0  0  0  0  0  0  0  0  0
   -5.7970   23.0880  -31.5140 N   0  0  0  0  0  0  0  0  0  0  0  0
   -3.8920   21.2200  -32.9020 C   0  0  0  0  0  0  0  0  0  0  0  0
   -3.4705   22.1683  -32.5371 H   0  0  0  0  0  0  0  0  0  0  0  0
   -3.0500   20.2560  -33.4630 C   0  0  0  0  0  0  0  0  0  0  0  0
   -1.9687   20.4455  -33.5331 H   0  0  0  0  0  0  0  0  0  0  0  0
  1  2  1  0
  2  3  2  0
  3  4  1  0
  3  5  1  0
  5  6  1  0
  5  7  2  0
  7  8  1  0
  8  9  2  0
  9 10  1  0
  9 11  1  0
 11 12  1  0
 11 13  2  0
 13 14  1  0
 14 15  1  0
 14 16  2  0
 16 17  1  0
 16 18  1  0
 18 19  2  0
 19 20  1  0
 20 21  1  0
 20 22  1  0
 20 23  1  0
 23 24  2  0
 24 25  1  0
 24 26  1  0
 26 27  1  0
 26 28  2  0
 28 29  1  0
 29 30  1  0
 29 31  1  0
 29 32  1  0
 28 33  1  0
 33 34  1  0
 33 35  2  0
 35 36  1  0
 18 37  1  0
 37 38  1  0
  7 39  1  0
 39 40  1  0
 39 41  2  0
 41 42  1  0
 41  2  1  0
 38  8  1  0
 38 13  1  0
 35 23  1  0
M  CHG  1  37  -1
M  END
>  <UniqueID>  (6) 
5

>  <SMILES>  (6) 
Cc1ccc(C/N=c2\ccc3ccc(-c4ccccc4)n3[n-]2)cc1

>  <Energy>  (6) 
83.65080822646735

>  <Genealogy>  (6) 
Cc1ccc(CN=c2ccc3ccc(-c4ccccc4)n3[n-]2)cc1 (protonated)
Cc1ccc(C/N=c2\ccc3ccc(-c4ccccc4)n3[n-]2)cc1 (cis-trans isomerization)
Cc1ccc(C/N=c2\ccc3ccc(-c4ccccc4)n3[n-]2)cc1 (3D coordinates assigned)
Cc1ccc(C/N=c2\ccc3ccc(-c4ccccc4)n3[n-]2)cc1 (optimized conformer: 83.65080822646735 kcal/mol)

>  <smiles>  (6) 
Cc1ccc(CN=c2ccc3ccc(-c4ccccc4)n3[nH]2)cc1

>  <score_type>  (6) 
oracle

>  <origin>  (6) 
adg

>  <m_score__min__energy>  (6) 
-10.380000000000001

>  <m_primary>  (6) 
energy

$$$$
6:0
     RDKit          3D

 27 28  0  0  0  0  0  0  0  0999 V2000
   -3.1890   25.0490  -31.5880 H   0  0  0  0  0  0  0  0  0  0  0  0
   -3.8590   25.3000  -30.8730 O   0  0  0  0  0  0  0  0  0  0  0  0
   -5.1630   24.8460  -30.8750 N   0  0  0  0  0  0  0  0  0  0  0  0
   -5.6120   23.8190  -31.5420 C   0  0  0  0  0  0  0  0  0  0  0  0
   -4.7580   22.6930  -32.0030 C   0  0  0  0  0  0  0  0  0  0  0  0
   -3.5170   22.8560  -32.1430 O   0  0  0  0  0  0  0  0  0  0  0  0
   -5.4010   21.4010  -32.3930 C   0  0  0  0  0  0  0  0  0  0  0  0
   -4.6400   20.3150  -32.8970 C   0  0  0  0  0  0  0  0  0  0  0  0
   -3.2420   20.4280  -32.9820 O   0  0  0  0  0  0  0  0  0  0  0  0
   -2.4110   19.6350  -33.8240 C   0  0  0  0  0  0  0  0  0  0  0  0
   -1.7535   19.0076  -33.2043 H   0  0  0  0  0  0  0  0  0  0  0  0
   -3.0389   18.9927  -34.4590 H   0  0  0  0  0  0  0  0  0  0  0  0
   -1.7988   20.2923  -34.4590 H   0  0  0  0  0  0  0  0  0  0  0  0
   -5.2990   19.1410  -33.3060 C   0  0  0  0  0  0  0  0  0  0  0  0
   -4.7122   18.2905  -33.6833 H   0  0  0  0  0  0  0  0  0  0  0  0
   -6.6860   19.0450  -33.2380 C   0  0  0  0  0  0  0  0  0  0  0  0
   -7.1890   18.1295  -33.5826 H   0  0  0  0  0  0  0  0  0  0  0  0
   -7.4390   20.1020  -32.7360 C   0  0  0  0  0  0  0  0  0  0  0  0
   -8.5355   20.0223  -32.7007 H   0  0  0  0  0  0  0  0  0  0  0  0
   -6.8100   21.2700  -32.2740 C   0  0  0  0  0  0  0  0  0  0  0  0
   -7.5990   22.4120  -31.7310 C   0  0  0  0  0  0  0  0  0  0  0  0
   -8.6680   22.2570  -31.0030 N   0  0  0  0  0  0  0  0  0  0  0  0
   -9.8320   21.6950  -31.4740 O   0  0  0  0  0  0  0  0  0  0  0  0
  -10.6180   21.5640  -30.8530 H   0  0  0  0  0  0  0  0  0  0  0  0
   -7.0600   23.7960  -31.9310 C   0  0  0  0  0  0  0  0  0  0  0  0
   -7.6213   24.5042  -31.3038 H   0  0  0  0  0  0  0  0  0  0  0  0
   -7.1649   24.0858  -32.9869 H   0  0  0  0  0  0  0  0  0  0  0  0
  1  2  1  0
  2  3  1  0
  3  4  2  0
  4  5  1  0
  5  6  2  0
  5  7  1  0
  7  8  2  0
  8  9  1  0
  9 10  1  0
 10 11  1  0
 10 12  1  0
 10 13  1  0
  8 14  1  0
 14 15  1  0
 14 16  2  0
 16 17  1  0
 16 18  1  0
 18 19  1  0
 18 20  2  0
 20 21  1  0
 21 22  2  0
 22 23  1  0
 23 24  1  0
 21 25  1  0
 25 26  1  0
 25 27  1  0
 25  4  1  0
 20  7  1  0
M  END
>  <UniqueID>  (7) 
6

>  <SMILES>  (7) 
COc1cccc2c1C(=O)/C(=N\O)C/C2=N/O

>  <Energy>  (7) 
41.62789974978193

>  <Genealogy>  (7) 
COc1cccc2c1C(=O)/C(=N\O)C/C2=N/O (cis-trans isomerization)
COc1cccc2c1C(=O)/C(=N\O)C/C2=N/O (3D coordinates assigned)
COc1cccc2c1C(=O)/C(=N\O)C/C2=N/O (nonaromatic ring conformer: 41.62789974978193 kcal/mol)

>  <smiles>  (7) 
COc1cccc2c1C(=O)C(=NO)CC2=NO

>  <score_type>  (7) 
oracle

>  <origin>  (7) 
adg

>  <m_score__min__energy>  (7) 
-7.0899999999999999

>  <m_primary>  (7) 
energy

$$$$
7:0
     RDKit          3D

 51 53  0  0  0  0  0  0  0  0999 V2000
   -9.2220   19.0520  -32.3000 C   0  0  0  0  0  0  0  0  0  0  0  0
   -7.9330   18.3840  -31.8050 C   0  0  0  0  0  0  0  0  0  0  0  0
   -6.8850   18.2420  -32.8460 N   0  0  0  0  0  0  0  0  0  0  0  0
   -6.6570   16.8480  -33.2910 C   0  0  0  0  0  0  0  0  0  0  0  0
   -5.4770   16.7460  -34.2570 C   0  0  0  0  0  0  0  0  0  0  0  0
   -5.6190   18.9090  -32.4640 C   0  0  0  0  0  0  0  0  0  0  0  0
   -5.3080   20.0690  -33.4200 C   0  0  0  0  0  0  0  0  0  0  0  0
   -5.1730   21.3440  -32.6810 N   0  0  0  0  0  0  0  0  0  0  0  0
   -3.9340   21.9070  -32.4710 C   0  0  0  0  0  0  0  0  0  0  0  0
   -2.4230   21.1850  -33.1320 S   0  0  0  0  0  0  0  0  0  0  0  0
   -1.9920   20.3580  -31.5670 C   0  0  0  0  0  0  0  0  0  0  0  0
   -2.0630   21.3500  -30.4440 C   0  0  0  0  0  0  0  0  0  0  0  0
   -3.0380   21.2150  -29.4420 C   0  0  0  0  0  0  0  0  0  0  0  0
   -3.1270   22.1580  -28.4140 C   0  0  0  0  0  0  0  0  0  0  0  0
   -2.2510   23.2480  -28.3850 C   0  0  0  0  0  0  0  0  0  0  0  0
   -2.3750   24.5370  -26.9810 Br  0  0  0  0  0  0  0  0  0  0  0  0
   -1.2870   23.3960  -29.3870 C   0  0  0  0  0  0  0  0  0  0  0  0
   -1.1960   22.4540  -30.4160 C   0  0  0  0  0  0  0  0  0  0  0  0
   -3.8130   23.0460  -31.7430 N   0  0  0  0  0  0  0  0  0  0  0  0
   -4.8870   23.6670  -31.2070 C   0  0  0  0  0  0  0  0  0  0  0  0
   -4.7200   24.8410  -30.4630 C   0  0  0  0  0  0  0  0  0  0  0  0
   -5.8310   25.4820  -29.9080 C   0  0  0  0  0  0  0  0  0  0  0  0
   -7.1110   24.9520  -30.0930 C   0  0  0  0  0  0  0  0  0  0  0  0
   -7.2860   23.7800  -30.8360 C   0  0  0  0  0  0  0  0  0  0  0  0
   -6.1720   23.1280  -31.4000 C   0  0  0  0  0  0  0  0  0  0  0  0
   -6.2910   21.9470  -32.1510 C   0  0  0  0  0  0  0  0  0  0  0  0
   -7.4360   21.4430  -32.3340 O   0  0  0  0  0  0  0  0  0  0  0  0
   -9.8273   19.3657  -31.4367 H   0  0  0  0  0  0  0  0  0  0  0  0
   -8.9683   19.9321  -32.9091 H   0  0  0  0  0  0  0  0  0  0  0  0
   -9.7948   18.3373  -32.9091 H   0  0  0  0  0  0  0  0  0  0  0  0
   -7.5236   18.9900  -30.9833 H   0  0  0  0  0  0  0  0  0  0  0  0
   -8.2050   17.3663  -31.4883 H   0  0  0  0  0  0  0  0  0  0  0  0
   -6.4510   16.2223  -32.4101 H   0  0  0  0  0  0  0  0  0  0  0  0
   -7.5601   16.5052  -33.8172 H   0  0  0  0  0  0  0  0  0  0  0  0
   -4.5409   16.6651  -33.6851 H   0  0  0  0  0  0  0  0  0  0  0  0
   -5.5978   15.8549  -34.8906 H   0  0  0  0  0  0  0  0  0  0  0  0
   -5.4431   17.6446  -34.8906 H   0  0  0  0  0  0  0  0  0  0  0  0
   -5.7112   19.2997  -31.4399 H   0  0  0  0  0  0  0  0  0  0  0  0
   -4.8014   18.1753  -32.5199 H   0  0  0  0  0  0  0  0  0  0  0  0
   -4.3662   19.8576  -33.9476 H   0  0  0  0  0  0  0  0  0  0  0  0
   -6.1377   20.1651  -34.1358 H   0  0  0  0  0  0  0  0  0  0  0  0
   -2.7004   19.5380  -31.3778 H   0  0  0  0  0  0  0  0  0  0  0  0
   -0.9721   19.9515  -31.6346 H   0  0  0  0  0  0  0  0  0  0  0  0
   -3.7343   20.3638  -29.4663 H   0  0  0  0  0  0  0  0  0  0  0  0
   -3.8868   22.0427  -27.6270 H   0  0  0  0  0  0  0  0  0  0  0  0
   -0.5996   24.2545  -29.3656 H   0  0  0  0  0  0  0  0  0  0  0  0
   -0.4419   22.5783  -31.2071 H   0  0  0  0  0  0  0  0  0  0  0  0
   -3.7135   25.2593  -30.3151 H   0  0  0  0  0  0  0  0  0  0  0  0
   -5.6979   26.4050  -29.3247 H   0  0  0  0  0  0  0  0  0  0  0  0
   -7.9831   25.4580  -29.6531 H   0  0  0  0  0  0  0  0  0  0  0  0
   -8.2952   23.3668  -30.9801 H   0  0  0  0  0  0  0  0  0  0  0  0
  1  2  1  0
  2  3  1  0
  3  4  1  0
  4  5  1  0
  3  6  1  0
  6  7  1  0
  7  8  1  0
  8  9  1  0
  9 10  1  0
 10 11  1  0
 11 12  1  0
 12 13  2  0
 13 14  1  0
 14 15  2  0
 15 16  1  0
 15 17  1  0
 17 18  2  0
  9 19  2  0
 19 20  1  0
 20 21  2  0
 21 22  1  0
 22 23  2  0
 23 24  1  0
 24 25  2  0
 25 26  1  0
 26 27  2  0
 26  8  1  0
 18 12  1  0
 25 20  1  0
  1 28  1  0
  1 29  1  0
  1 30  1  0
  2 31  1  0
  2 32  1  0
  4 33  1  0
  4 34  1  0
  5 35  1  0
  5 36  1  0
  5 37  1  0
  6 38  1  0
  6 39  1  0
  7 40  1  0
  7 41  1  0
 11 42  1  0
 11 43  1  0
 13 44  1  0
 14 45  1  0
 17 46  1  0
 18 47  1  0
 21 48  1  0
 22 49  1  0
 23 50  1  0
 24 51  1  0
M  END
>  <UniqueID>  (8) 
7

>  <SMILES>  (8) 
CCN(CC)CCn1c(SCc2ccc(Br)cc2)nc2ccccc2c1=O

>  <Energy>  (8) 
55.458660464268185

>  <Genealogy>  (8) 
CCN(CC)CCn1c(SCc2ccc(Br)cc2)nc2ccccc2c1=O (3D coordinates assigned)
CCN(CC)CCn1c(SCc2ccc(Br)cc2)nc2ccccc2c1=O (optimized conformer: 55.458660464268185 kcal/mol)

>  <smiles>  (8) 
CCN(CC)CCn1c(SCc2ccc(Br)cc2)nc2ccccc2c1=O

>  <score_type>  (8) 
oracle

>  <origin>  (8) 
adg

>  <m_score__min__energy>  (8) 
-8.2200000000000006

>  <m_primary>  (8) 
energy

$$$$
8:0
     RDKit          3D

 55 57  0  0  0  0  0  0  0  0999 V2000
   -5.3750   24.9040  -30.1720 C   0  0  0  0  0  0  0  0  0  0  0  0
   -4.0340   24.7680  -30.6270 O   0  0  0  0  0  0  0  0  0  0  0  0
   -3.3770   23.5390  -30.7980 C   0  0  0  0  0  0  0  0  0  0  0  0
   -2.2750   23.1550  -30.0100 C   0  0  0  0  0  0  0  0  0  0  0  0
   -1.6550   21.9200  -30.2210 C   0  0  0  0  0  0  0  0  0  0  0  0
   -2.1150   21.0570  -31.2260 C   0  0  0  0  0  0  0  0  0  0  0  0
   -1.4710   19.7130  -31.4250 C   0  0  0  0  0  0  0  0  0  0  0  0
   -1.7510   19.2340  -32.7850 N   0  0  0  0  0  0  0  0  0  0  0  0
   -1.3530   17.8320  -32.9820 C   0  0  0  0  0  0  0  0  0  0  0  0
   -2.5660   16.8960  -33.1860 C   0  0  0  0  0  0  0  0  0  0  0  0
   -3.8380   17.6480  -33.3160 N   0  0  0  0  0  0  0  0  0  0  0  0
   -4.8990   16.9780  -32.5370 C   0  0  0  0  0  0  0  0  0  0  0  0
   -6.1880   17.8260  -32.5200 C   0  0  0  0  0  0  0  0  0  0  0  0
   -6.4560   18.5300  -33.8000 N   0  0  0  0  0  0  0  0  0  0  0  0
   -6.2150   19.9890  -33.7170 C   0  0  0  0  0  0  0  0  0  0  0  0
   -7.2440   20.6520  -32.8380 C   0  0  0  0  0  0  0  0  0  0  0  0
   -6.9460   21.8490  -32.1660 C   0  0  0  0  0  0  0  0  0  0  0  0
   -7.9130   22.4670  -31.3660 C   0  0  0  0  0  0  0  0  0  0  0  0
   -9.1820   21.8970  -31.2350 C   0  0  0  0  0  0  0  0  0  0  0  0
   -9.4870   20.7090  -31.9040 C   0  0  0  0  0  0  0  0  0  0  0  0
   -8.5240   20.0870  -32.7040 C   0  0  0  0  0  0  0  0  0  0  0  0
   -5.7680   17.8950  -34.9440 C   0  0  0  0  0  0  0  0  0  0  0  0
   -4.2390   17.8060  -34.7410 C   0  0  0  0  0  0  0  0  0  0  0  0
   -3.2220   21.4340  -32.0010 C   0  0  0  0  0  0  0  0  0  0  0  0
   -3.8430   22.6680  -31.7900 C   0  0  0  0  0  0  0  0  0  0  0  0
   -5.3906   24.9056  -29.0721 H   0  0  0  0  0  0  0  0  0  0  0  0
   -5.7950   25.8493  -30.5460 H   0  0  0  0  0  0  0  0  0  0  0  0
   -5.9763   24.0622  -30.5460 H   0  0  0  0  0  0  0  0  0  0  0  0
   -1.9007   23.8292  -29.2256 H   0  0  0  0  0  0  0  0  0  0  0  0
   -0.8008   21.6233  -29.5947 H   0  0  0  0  0  0  0  0  0  0  0  0
   -0.3837   19.8026  -31.2841 H   0  0  0  0  0  0  0  0  0  0  0  0
   -1.8772   18.9991  -30.6933 H   0  0  0  0  0  0  0  0  0  0  0  0
   -1.2460   19.8420  -33.4730 H   0  0  0  0  0  0  0  0  0  0  0  0
   -0.7064   17.7702  -33.8697 H   0  0  0  0  0  0  0  0  0  0  0  0
   -0.8258   17.5033  -32.0743 H   0  0  0  0  0  0  0  0  0  0  0  0
   -2.4082   16.3058  -34.1008 H   0  0  0  0  0  0  0  0  0  0  0  0
   -2.6455   16.2482  -32.3006 H   0  0  0  0  0  0  0  0  0  0  0  0
   -3.6880   18.5960  -32.8950 H   0  0  0  0  0  0  0  0  0  0  0  0
   -5.1169   16.0004  -32.9917 H   0  0  0  0  0  0  0  0  0  0  0  0
   -4.5483   16.8506  -31.5022 H   0  0  0  0  0  0  0  0  0  0  0  0
   -7.0379   17.1618  -32.3043 H   0  0  0  0  0  0  0  0  0  0  0  0
   -6.0540   18.5995  -31.7495 H   0  0  0  0  0  0  0  0  0  0  0  0
   -5.2139   20.1659  -33.2968 H   0  0  0  0  0  0  0  0  0  0  0  0
   -6.2868   20.4164  -34.7280 H   0  0  0  0  0  0  0  0  0  0  0  0
   -5.9489   22.3019  -32.2692 H   0  0  0  0  0  0  0  0  0  0  0  0
   -7.6741   23.4028  -30.8395 H   0  0  0  0  0  0  0  0  0  0  0  0
   -9.9411   22.3838  -30.6050 H   0  0  0  0  0  0  0  0  0  0  0  0
  -10.4869   20.2622  -31.8010 H   0  0  0  0  0  0  0  0  0  0  0  0
   -8.7687   19.1526  -33.2302 H   0  0  0  0  0  0  0  0  0  0  0  0
   -6.1661   16.8779  -35.0745 H   0  0  0  0  0  0  0  0  0  0  0  0
   -5.9511   18.5185  -35.8315 H   0  0  0  0  0  0  0  0  0  0  0  0
   -3.8623   16.9411  -35.3068 H   0  0  0  0  0  0  0  0  0  0  0  0
   -3.8095   18.7548  -35.0950 H   0  0  0  0  0  0  0  0  0  0  0  0
   -3.6029   20.7552  -32.7783 H   0  0  0  0  0  0  0  0  0  0  0  0
   -4.7053   22.9574  -32.4086 H   0  0  0  0  0  0  0  0  0  0  0  0
  1  2  1  0
  2  3  1  0
  3  4  2  0
  4  5  1  0
  5  6  2  0
  6  7  1  0
  7  8  1  0
  8  9  1  0
  9 10  1  0
 10 11  1  0
 11 12  1  0
 12 13  1  0
 13 14  1  0
 14 15  1  0
 15 16  1  0
 16 17  2  0
 17 18  1  0
 18 19  2  0
 19 20  1  0
 20 21  2  0
 14 22  1  0
 22 23  1  0
  6 24  1  0
 24 25  2  0
 25  3  1  0
 23 11  1  0
 21 16  1  0
  1 26  1  0
  1 27  1  0
  1 28  1  0
  4 29  1  0
  5 30  1  0
  7 31  1  0
  7 32  1  0
  8 33  1  0
  9 34  1  0
  9 35  1  0
 10 36  1  0
 10 37  1  0
 11 38  1  0
 12 39  1  0
 12 40  1  0
 13 41  1  0
 13 42  1  0
 15 43  1  0
 15 44  1  0
 17 45  1  0
 18 46  1  0
 19 47  1  0
 20 48  1  0
 21 49  1  0
 22 50  1  0
 22 51  1  0
 23 52  1  0
 23 53  1  0
 24 54  1  0
 25 55  1  0
M  CHG  1  11   1
M  END
>  <UniqueID>  (9) 
8

>  <SMILES>  (9) 
COc1ccc(CNCC[NH+]2CCN(Cc3ccccc3)CC2)cc1

>  <Energy>  (9) 
67.9675973538321

>  <Genealogy>  (9) 
COc1ccc(CNCC[NH+]2CCN(Cc3ccccc3)CC2)cc1 (protonated)
COc1ccc(CNCC[NH+]2CCN(Cc3ccccc3)CC2)cc1 (3D coordinates assigned)
COc1ccc(CNCC[NH+]2CCN(Cc3ccccc3)CC2)cc1 (nonaromatic ring conformer: 67.9675973538321 kcal/mol)

>  <smiles>  (9) 
COc1ccc(CNCCN2CCN(Cc3ccccc3)CC2)cc1

>  <score_type>  (9) 
oracle

>  <origin>  (9) 
adg

>  <m_score__min__energy>  (9) 
-7.2400000000000002

>  <m_primary>  (9) 
energy

$$$$
9:0
     RDKit          3D

 50 52  0  0  0  0  0  0  0  0999 V2000
   -6.4750   14.6240  -34.2290 C   0  0  0  0  0  0  0  0  0  0  0  0
   -7.2770   15.7690  -33.9550 O   0  0  0  0  0  0  0  0  0  0  0  0
   -6.7680   17.0200  -33.5800 C   0  0  0  0  0  0  0  0  0  0  0  0
   -5.6740   17.6180  -34.2350 C   0  0  0  0  0  0  0  0  0  0  0  0
   -5.2040   18.8690  -33.8230 C   0  0  0  0  0  0  0  0  0  0  0  0
   -5.8210   19.5390  -32.7570 C   0  0  0  0  0  0  0  0  0  0  0  0
   -5.2340   21.1080  -32.2150 S   0  0  0  0  0  0  0  0  0  0  0  0
   -4.2330   21.6110  -33.2180 O   0  0  0  0  0  0  0  0  0  0  0  0
   -4.5560   20.9650  -30.8800 O   0  0  0  0  0  0  0  0  0  0  0  0
   -6.5850   22.2140  -32.1020 N   0  0  0  0  0  0  0  0  0  0  0  0
   -7.5210   21.8480  -31.0150 C   0  0  0  0  0  0  0  0  0  0  0  0
   -7.3700   22.7250  -29.7610 C   0  0  0  0  0  0  0  0  0  0  0  0
   -5.9750   23.1320  -29.6010 N   0  0  0  0  0  0  0  0  0  0  0  0
   -5.5700   24.0510  -30.6810 C   0  0  1  0  0  0  0  0  0  0  0  0
   -4.0650   24.1670  -30.7300 C   0  0  0  0  0  0  0  0  0  0  0  0
   -3.4050   23.5230  -31.5910 O   0  0  0  0  0  0  0  0  0  0  0  0
   -3.3870   24.9310  -29.7250 N   0  0  0  0  0  0  0  0  0  0  0  0
   -2.5620   24.3980  -28.6780 C   0  0  0  0  0  0  0  0  0  0  0  0
   -2.8840   23.1350  -28.1630 C   0  0  0  0  0  0  0  0  0  0  0  0
   -2.1180   22.5680  -27.1440 C   0  0  0  0  0  0  0  0  0  0  0  0
   -1.0310   23.2640  -26.6180 C   0  0  0  0  0  0  0  0  0  0  0  0
   -0.7180   24.5390  -27.0970 C   0  0  0  0  0  0  0  0  0  0  0  0
   -1.4890   25.1290  -28.1190 C   0  0  0  0  0  0  0  0  0  0  0  0
   -1.2330   26.4340  -28.5690 O   0  0  0  0  0  0  0  0  0  0  0  0
   -0.4990   27.4130  -27.8430 C   0  0  0  0  0  0  0  0  0  0  0  0
   -6.1510   23.6240  -32.0610 C   0  0  0  0  0  0  0  0  0  0  0  0
   -6.9060   18.9430  -32.1020 C   0  0  0  0  0  0  0  0  0  0  0  0
   -7.3770   17.6940  -32.5140 C   0  0  0  0  0  0  0  0  0  0  0  0
   -6.1541   14.1659  -33.2818 H   0  0  0  0  0  0  0  0  0  0  0  0
   -7.0614   13.8957  -34.8084 H   0  0  0  0  0  0  0  0  0  0  0  0
   -5.5902   14.9262  -34.8084 H   0  0  0  0  0  0  0  0  0  0  0  0
   -5.1873   17.0990  -35.0739 H   0  0  0  0  0  0  0  0  0  0  0  0
   -4.3472   19.3290  -34.3371 H   0  0  0  0  0  0  0  0  0  0  0  0
   -8.5497   21.9505  -31.3909 H   0  0  0  0  0  0  0  0  0  0  0  0
   -7.2886   20.8143  -30.7194 H   0  0  0  0  0  0  0  0  0  0  0  0
   -8.0011   23.6200  -29.8642 H   0  0  0  0  0  0  0  0  0  0  0  0
   -7.6818   22.1487  -28.8774 H   0  0  0  0  0  0  0  0  0  0  0  0
   -5.8920   23.6400  -28.6890 H   0  0  0  0  0  0  0  0  0  0  0  0
   -5.9912   25.0419  -30.4558 H   0  0  0  0  0  0  0  0  0  0  0  0
   -3.7480   22.5860  -28.5656 H   0  0  0  0  0  0  0  0  0  0  0  0
   -2.3722   21.5708  -26.7554 H   0  0  0  0  0  0  0  0  0  0  0  0
   -0.4189   22.8093  -25.8251 H   0  0  0  0  0  0  0  0  0  0  0  0
    0.1368   25.0865  -26.6732 H   0  0  0  0  0  0  0  0  0  0  0  0
   -0.6273   27.2419  -26.7640 H   0  0  0  0  0  0  0  0  0  0  0  0
    0.5675   27.3382  -28.1019 H   0  0  0  0  0  0  0  0  0  0  0  0
   -0.8697   28.4158  -28.1019 H   0  0  0  0  0  0  0  0  0  0  0  0
   -7.0176   24.2625  -32.2874 H   0  0  0  0  0  0  0  0  0  0  0  0
   -5.3462   23.7383  -32.8022 H   0  0  0  0  0  0  0  0  0  0  0  0
   -7.3891   19.4603  -31.2600 H   0  0  0  0  0  0  0  0  0  0  0  0
   -8.2332   17.2362  -31.9969 H   0  0  0  0  0  0  0  0  0  0  0  0
  1  2  1  0
  2  3  1  0
  3  4  2  0
  4  5  1  0
  5  6  2  0
  6  7  1  0
  7  8  2  0
  7  9  2  0
  7 10  1  0
 10 11  1  0
 11 12  1  0
 12 13  1  0
 13 14  1  0
 14 15  1  0
 15 16  2  0
 15 17  1  0
 17 18  1  0
 18 19  2  0
 19 20  1  0
 20 21  2  0
 21 22  1  0
 22 23  2  0
 23 24  1  0
 24 25  1  0
 14 26  1  0
  6 27  1  0
 27 28  2  0
 28  3  1  0
 26 10  1  0
 23 18  1  0
  1 29  1  0
  1 30  1  0
  1 31  1  0
  4 32  1  0
  5 33  1  0
 11 34  1  0
 11 35  1  0
 12 36  1  0
 12 37  1  0
 13 38  1  0
 14 39  1  1
 19 40  1  0
 20 41  1  0
 21 42  1  0
 22 43  1  0
 25 44  1  0
 25 45  1  0
 25 46  1  0
 26 47  1  0
 26 48  1  0
 27 49  1  0
 28 50  1  0
M  CHG  1  17  -1
M  END
>  <UniqueID>  (10) 
9

>  <SMILES>  (10) 
COc1ccc(S(=O)(=O)N2CCN[C@@H](C(=O)[N-]c3ccccc3OC)C2)cc1

>  <Energy>  (10) 
64.00614116073022

>  <Genealogy>  (10) 
COc1ccc(S(=O)(=O)N2CCNC(C(=O)[N-]c3ccccc3OC)C2)cc1 (protonated)
COc1ccc(S(=O)(=O)N2CCN[C@@H](C(=O)[N-]c3ccccc3OC)C2)cc1 (chirality)
COc1ccc(S(=O)(=O)N2CCN[C@@H](C(=O)[N-]c3ccccc3OC)C2)cc1 (3D coordinates assigned)
COc1ccc(S(=O)(=O)N2CCN[C@@H](C(=O)[N-]c3ccccc3OC)C2)cc1 (nonaromatic ring conformer: 64.00614116073022 kcal/mol)

>  <smiles>  (10) 
COc1ccc(S(=O)(=O)N2CCNC(C(=O)Nc3ccccc3OC)C2)cc1

>  <score_type>  (10) 
oracle

>  <origin>  (10) 
adg

>  <m_score__min__energy>  (10) 
-10.109999999999999

>  <m_primary>  (10) 
energy

$$$$
10:0
     RDKit          3D

 42 43  0  0  0  0  0  0  0  0999 V2000
   -3.9240   24.1770  -27.1570 C   0  0  0  0  0  0  0  0  0  0  0  0
   -2.8700   24.0720  -28.2510 C   0  0  0  0  0  0  0  0  0  0  0  0
   -3.0270   22.7970  -28.9790 N   0  0  0  0  0  0  0  0  0  0  0  0
   -3.3410   22.9800  -30.4140 C   0  0  1  0  0  0  0  0  0  0  0  0
   -3.7560   21.6270  -31.0440 C   0  0  0  0  0  0  0  0  0  0  0  0
   -5.2640   21.4090  -30.9210 C   0  0  0  0  0  0  0  0  0  0  0  0
   -6.0010   22.4030  -31.7240 N   0  0  0  0  0  0  0  0  0  0  0  0
   -7.6980   22.4390  -31.3030 S   0  0  0  0  0  0  0  0  0  0  0  0
   -7.8110   22.4430  -29.8040 O   0  0  0  0  0  0  0  0  0  0  0  0
   -8.3010   23.7170  -31.8170 O   0  0  0  0  0  0  0  0  0  0  0  0
   -8.6290   21.0280  -31.9190 C   0  0  0  0  0  0  0  0  0  0  0  0
   -7.7480   19.8850  -32.3580 C   0  0  0  0  0  0  0  0  0  0  0  0
   -7.7420   18.6760  -31.6370 C   0  0  0  0  0  0  0  0  0  0  0  0
   -6.9270   17.6150  -32.0440 C   0  0  0  0  0  0  0  0  0  0  0  0
   -6.1000   17.7550  -33.1620 C   0  0  0  0  0  0  0  0  0  0  0  0
   -6.0750   18.9610  -33.8650 C   0  0  0  0  0  0  0  0  0  0  0  0
   -6.8850   20.0260  -33.4590 C   0  0  0  0  0  0  0  0  0  0  0  0
   -5.3910   23.7540  -31.7780 C   0  0  0  0  0  0  0  0  0  0  0  0
   -4.4600   24.0520  -30.5860 C   0  0  2  0  0  0  0  0  0  0  0  0
   -3.8770   25.3190  -30.7560 O   0  0  0  0  0  0  0  0  0  0  0  0
   -3.4364   24.1284  -26.1722 H   0  0  0  0  0  0  0  0  0  0  0  0
   -4.4595   25.1329  -27.2543 H   0  0  0  0  0  0  0  0  0  0  0  0
   -4.6375   23.3455  -27.2543 H   0  0  0  0  0  0  0  0  0  0  0  0
   -2.9886   24.9101  -28.9535 H   0  0  0  0  0  0  0  0  0  0  0  0
   -1.8696   24.1080  -27.7949 H   0  0  0  0  0  0  0  0  0  0  0  0
   -2.1180   22.2830  -28.8930 H   0  0  0  0  0  0  0  0  0  0  0  0
   -2.4435   23.3391  -30.9389 H   0  0  0  0  0  0  0  0  0  0  0  0
   -3.4771   21.6243  -32.1081 H   0  0  0  0  0  0  0  0  0  0  0  0
   -3.2385   20.8166  -30.5097 H   0  0  0  0  0  0  0  0  0  0  0  0
   -5.5133   20.3991  -31.2787 H   0  0  0  0  0  0  0  0  0  0  0  0
   -5.5531   21.5219  -29.8657 H   0  0  0  0  0  0  0  0  0  0  0  0
   -9.2937   20.6706  -31.1187 H   0  0  0  0  0  0  0  0  0  0  0  0
   -9.1923   21.3661  -32.8013 H   0  0  0  0  0  0  0  0  0  0  0  0
   -8.3816   18.5653  -30.7490 H   0  0  0  0  0  0  0  0  0  0  0  0
   -6.9368   16.6687  -31.4833 H   0  0  0  0  0  0  0  0  0  0  0  0
   -5.4689   16.9151  -33.4880 H   0  0  0  0  0  0  0  0  0  0  0  0
   -5.4172   19.0735  -34.7394 H   0  0  0  0  0  0  0  0  0  0  0  0
   -6.8468   20.9804  -34.0046 H   0  0  0  0  0  0  0  0  0  0  0  0
   -4.8065   23.8361  -32.7063 H   0  0  0  0  0  0  0  0  0  0  0  0
   -6.2130   24.4839  -31.7391 H   0  0  0  0  0  0  0  0  0  0  0  0
   -5.0749   24.0277  -29.6743 H   0  0  0  0  0  0  0  0  0  0  0  0
   -4.2030   25.6730  -31.6240 H   0  0  0  0  0  0  0  0  0  0  0  0
  1  2  1  0
  2  3  1  0
  3  4  1  0
  4  5  1  0
  5  6  1  0
  6  7  1  0
  7  8  1  0
  8  9  2  0
  8 10  2  0
  8 11  1  0
 11 12  1  0
 12 13  2  0
 13 14  1  0
 14 15  2  0
 15 16  1  0
 16 17  2  0
  7 18  1  0
 18 19  1  0
 19 20  1  0
 19  4  1  0
 17 12  1  0
  1 21  1  0
  1 22  1  0
  1 23  1  0
  2 24  1  0
  2 25  1  0
  3 26  1  0
  4 27  1  6
  5 28  1  0
  5 29  1  0
  6 30  1  0
  6 31  1  0
 11 32  1  0
 11 33  1  0
 13 34  1  0
 14 35  1  0
 15 36  1  0
 16 37  1  0
 17 38  1  0
 18 39  1  0
 18 40  1  0
 19 41  1  1
 20 42  1  0
M  END
>  <UniqueID>  (11) 
10

>  <SMILES>  (11) 
CCN[C@H]1CCN(S(=O)(=O)Cc2ccccc2)C[C@@H]1O

>  <Energy>  (11) 
43.9345607963828

>  <Genealogy>  (11) 
CCN[C@H]1CCN(S(=O)(=O)Cc2ccccc2)C[C@@H]1O (chirality)
CCN[C@H]1CCN(S(=O)(=O)Cc2ccccc2)C[C@@H]1O (3D coordinates assigned)
CCN[C@H]1CCN(S(=O)(=O)Cc2ccccc2)C[C@@H]1O (nonaromatic ring conformer: 43.9345607963828 kcal/mol)

>  <smiles>  (11) 
CCNC1CCN(S(=O)(=O)Cc2ccccc2)CC1O

>  <score_type>  (11) 
oracle

>  <origin>  (11) 
adg

>  <m_score__min__energy>  (11) 
-8.3399999999999999

>  <m_primary>  (11) 
energy

$$$$
11:0
     RDKit          3D

 44 47  0  0  1  0  0  0  0  0999 V2000
   -4.1580   24.7610  -26.5390 C   0  0  0  0  0  0  0  0  0  0  0  0
   -2.7060   25.1060  -26.6820 C   0  0  0  0  0  0  0  0  0  0  0  0
   -2.0980   25.5990  -25.5500 C   0  0  0  0  0  0  0  0  0  0  0  0
   -0.7810   25.9910  -25.5470 C   0  0  0  0  0  0  0  0  0  0  0  0
   -0.0940   25.8670  -26.7330 C   0  0  0  0  0  0  0  0  0  0  0  0
   -0.7000   25.3720  -27.8690 C   0  0  0  0  0  0  0  0  0  0  0  0
   -2.0350   24.9680  -27.9010 C   0  0  0  0  0  0  0  0  0  0  0  0
   -2.6480   24.3340  -29.0390 C   0  0  0  0  0  0  0  0  0  0  0  0
   -3.7730   24.8400  -29.6010 N   0  0  0  0  0  0  0  0  0  0  0  0
   -4.3470   24.3010  -30.6960 C   0  0  0  0  0  0  0  0  0  0  0  0
   -5.4320   24.8100  -31.2170 N   0  0  0  0  0  0  0  0  0  0  0  0
   -6.6990   24.5660  -30.5820 C   0  0  0  0  0  0  0  0  0  0  0  0
   -6.5690   23.2000  -29.9060 C   0  0  0  0  0  0  0  0  0  0  0  0
   -7.2050   22.2340  -30.8260 C   0  0  0  0  0  0  0  0  0  0  0  0
   -8.5450   21.9380  -31.0040 C   0  0  0  0  0  0  0  0  0  0  0  0
   -8.9090   21.0320  -31.8890 C   0  0  0  0  0  0  0  0  0  0  0  0
   -7.8850   20.4010  -32.6200 C   0  0  0  0  0  0  0  0  0  0  0  0
   -6.3300   21.1640  -31.9880 S   0  0  0  0  0  0  0  0  0  0  0  0
   -3.8510   23.2200  -31.3180 N   0  0  0  0  0  0  0  0  0  0  0  0
   -2.7230   22.6660  -30.8070 C   0  0  0  0  0  0  0  0  0  0  0  0
   -2.2190   21.5830  -31.4860 C   0  0  0  0  0  0  0  0  0  0  0  0
   -1.0540   20.9920  -31.0500 C   0  0  0  0  0  0  0  0  0  0  0  0
   -0.4500   21.5250  -29.9450 C   0  0  0  0  0  0  0  0  0  0  0  0
   -0.9640   22.6240  -29.2550 C   0  0  0  0  0  0  0  0  0  0  0  0
   -2.1300   23.2150  -29.6840 C   0  0  0  0  0  0  0  0  0  0  0  0
   -4.4169   24.6995  -25.4717 H   0  0  0  0  0  0  0  0  0  0  0  0
   -4.7689   25.5390  -27.0202 H   0  0  0  0  0  0  0  0  0  0  0  0
   -4.3536   23.7914  -27.0202 H   0  0  0  0  0  0  0  0  0  0  0  0
   -2.6826   25.6815  -24.6219 H   0  0  0  0  0  0  0  0  0  0  0  0
   -0.2990   26.3850  -24.6401 H   0  0  0  0  0  0  0  0  0  0  0  0
    0.9627   26.1696  -26.7761 H   0  0  0  0  0  0  0  0  0  0  0  0
   -0.1044   25.2923  -28.7903 H   0  0  0  0  0  0  0  0  0  0  0  0
   -4.2780   25.6720  -29.2050 H   0  0  0  0  0  0  0  0  0  0  0  0
   -6.9093   25.3451  -29.8345 H   0  0  0  0  0  0  0  0  0  0  0  0
   -7.5257   24.5821  -31.3075 H   0  0  0  0  0  0  0  0  0  0  0  0
   -5.5093   22.9459  -29.7563 H   0  0  0  0  0  0  0  0  0  0  0  0
   -7.0471   23.1911  -28.9154 H   0  0  0  0  0  0  0  0  0  0  0  0
   -9.3070   22.4595  -30.4062 H   0  0  0  0  0  0  0  0  0  0  0  0
   -9.9676   20.7797  -32.0495 H   0  0  0  0  0  0  0  0  0  0  0  0
   -7.9890   19.6267  -33.3943 H   0  0  0  0  0  0  0  0  0  0  0  0
   -2.7419   21.1911  -32.3709 H   0  0  0  0  0  0  0  0  0  0  0  0
   -0.6252   20.1234  -31.5713 H   0  0  0  0  0  0  0  0  0  0  0  0
    0.4827   21.0671  -29.5838 H   0  0  0  0  0  0  0  0  0  0  0  0
   -0.4388   23.0161  -28.3716 H   0  0  0  0  0  0  0  0  0  0  0  0
  1  2  1  0
  2  3  2  0
  3  4  1  0
  4  5  2  0
  5  6  1  0
  6  7  2  0
  7  8  1  0
  8  9  1  0
  9 10  1  0
 10 11  2  0
 11 12  1  0
 12 13  1  0
 13 14  1  0
 14 15  2  0
 15 16  1  0
 16 17  2  0
 17 18  1  0
 10 19  1  0
 19 20  2  0
 20 21  1  0
 21 22  2  0
 22 23  1  0
 23 24  2  0
 24 25  1  0
  7  2  1  0
 25  8  2  0
 18 14  1  0
 25 20  1  0
  1 26  1  0
  1 27  1  0
  1 28  1  0
  3 29  1  0
  4 30  1  0
  5 31  1  0
  6 32  1  0
  9 33  1  0
 12 34  1  0
 12 35  1  0
 13 36  1  0
 13 37  1  0
 15 38  1  0
 16 39  1  0
 17 40  1  0
 21 41  1  0
 22 42  1  0
 23 43  1  0
 24 44  1  0
M  END
>  <smiles>  (12) 
Cc1ccccc1-c1[nH]c(=NCCc2cccs2)nc2ccccc12

>  <score_type>  (12) 
oracle

>  <origin>  (12) 
adg

>  <m_score__min__energy>  (12) 
-9.2400000000000002

>  <m_primary>  (12) 
energy

$$$$
12:0
     RDKit          3D

 50 53  0  0  0  0  0  0  0  0999 V2000
   -9.6330   20.8450  -31.9630 C   0  0  0  0  0  0  0  0  0  0  0  0
   -8.4370   20.0410  -32.3560 C   0  0  0  0  0  0  0  0  0  0  0  0
   -8.4300   18.6930  -32.4340 N   0  0  0  0  0  0  0  0  0  0  0  0
   -7.2450   18.1990  -32.8900 C   0  0  0  0  0  0  0  0  0  0  0  0
   -7.0180   16.7280  -33.0760 C   0  0  0  0  0  0  0  0  0  0  0  0
   -6.2870   19.1750  -33.1850 C   0  0  0  0  0  0  0  0  0  0  0  0
   -4.9560   18.9440  -33.7830 C   0  0  0  0  0  0  0  0  0  0  0  0
   -4.8950   18.2980  -34.8670 O   0  0  0  0  0  0  0  0  0  0  0  0
   -3.7410   19.4170  -33.1550 N   0  0  0  0  0  0  0  0  0  0  0  0
   -2.4290   19.1570  -33.7790 C   0  0  0  0  0  0  0  0  0  0  0  0
   -1.2950   19.9370  -33.0960 C   0  0  0  0  0  0  0  0  0  0  0  0
   -1.6490   21.4230  -32.9120 C   0  0  0  0  0  0  0  0  0  0  0  0
   -3.0930   21.6490  -32.3840 C   0  0  2  0  0  0  0  0  0  0  0  0
   -3.1480   22.6740  -31.2740 C   0  0  0  0  0  0  0  0  0  0  0  0
   -1.8540   22.9800  -30.2390 S   0  0  0  0  0  0  0  0  0  0  0  0
   -2.6780   24.1420  -29.3490 C   0  0  0  0  0  0  0  0  0  0  0  0
   -2.1150   24.8890  -28.2100 C   0  0  0  0  0  0  0  0  0  0  0  0
   -2.6120   24.7080  -26.9090 C   0  0  0  0  0  0  0  0  0  0  0  0
   -2.0530   25.4330  -25.8550 C   0  0  0  0  0  0  0  0  0  0  0  0
   -1.0090   26.3270  -26.1010 C   0  0  0  0  0  0  0  0  0  0  0  0
   -0.5390   26.4820  -27.4060 C   0  0  0  0  0  0  0  0  0  0  0  0
   -1.0960   25.7680  -28.4210 N   0  0  0  0  0  0  0  0  0  0  0  0
   -3.9360   24.3110  -29.8170 N   0  0  0  0  0  0  0  0  0  0  0  0
   -4.2150   23.4970  -30.8720 C   0  0  0  0  0  0  0  0  0  0  0  0
   -5.5490   23.5710  -31.5470 C   0  0  0  0  0  0  0  0  0  0  0  0
   -3.8040   20.3380  -32.0080 C   0  0  0  0  0  0  0  0  0  0  0  0
   -6.9760   20.6840  -32.8840 S   0  0  0  0  0  0  0  0  0  0  0  0
   -9.7001   20.8901  -30.8660 H   0  0  0  0  0  0  0  0  0  0  0  0
   -9.5387   21.8638  -32.3668 H   0  0  0  0  0  0  0  0  0  0  0  0
  -10.5409   20.3731  -32.3668 H   0  0  0  0  0  0  0  0  0  0  0  0
   -9.2530   18.0980  -32.1840 H   0  0  0  0  0  0  0  0  0  0  0  0
   -6.9429   16.2413  -32.0924 H   0  0  0  0  0  0  0  0  0  0  0  0
   -7.8600   16.2950  -33.6360 H   0  0  0  0  0  0  0  0  0  0  0  0
   -6.0847   16.5689  -33.6360 H   0  0  0  0  0  0  0  0  0  0  0  0
   -2.2107   18.0811  -33.7090 H   0  0  0  0  0  0  0  0  0  0  0  0
   -2.4825   19.4881  -34.8266 H   0  0  0  0  0  0  0  0  0  0  0  0
   -1.1026   19.4925  -32.1084 H   0  0  0  0  0  0  0  0  0  0  0  0
   -0.4047   19.8763  -33.7391 H   0  0  0  0  0  0  0  0  0  0  0  0
   -0.9416   21.8644  -32.1945 H   0  0  0  0  0  0  0  0  0  0  0  0
   -1.5854   21.8985  -33.9019 H   0  0  0  0  0  0  0  0  0  0  0  0
   -3.6608   22.0708  -33.2265 H   0  0  0  0  0  0  0  0  0  0  0  0
   -3.4342   24.0015  -26.7222 H   0  0  0  0  0  0  0  0  0  0  0  0
   -2.4346   25.3001  -24.8319 H   0  0  0  0  0  0  0  0  0  0  0  0
   -0.5625   26.9020  -25.2764 H   0  0  0  0  0  0  0  0  0  0  0  0
    0.2831   27.1826  -27.6140 H   0  0  0  0  0  0  0  0  0  0  0  0
   -6.3427   23.6150  -30.7867 H   0  0  0  0  0  0  0  0  0  0  0  0
   -5.5926   24.4729  -32.1752 H   0  0  0  0  0  0  0  0  0  0  0  0
   -5.6920   22.6794  -32.1752 H   0  0  0  0  0  0  0  0  0  0  0  0
   -3.3044   19.8824  -31.1404 H   0  0  0  0  0  0  0  0  0  0  0  0
   -4.8537   20.5430  -31.7511 H   0  0  0  0  0  0  0  0  0  0  0  0
  1  2  1  0
  2  3  2  0
  3  4  1  0
  4  5  1  0
  4  6  2  0
  6  7  1  0
  7  8  2  0
  7  9  1  0
  9 10  1  0
 10 11  1  0
 11 12  1  0
 12 13  1  0
 13 14  1  0
 14 15  1  0
 15 16  1  0
 16 17  1  0
 17 18  2  0
 18 19  1  0
 19 20  2  0
 20 21  1  0
 21 22  2  0
 16 23  2  0
 23 24  1  0
 24 25  1  0
 13 26  1  0
  6 27  1  0
 27  2  1  0
 26  9  1  0
 24 14  2  0
 22 17  1  0
  1 28  1  0
  1 29  1  0
  1 30  1  0
  3 31  1  0
  5 32  1  0
  5 33  1  0
  5 34  1  0
 10 35  1  0
 10 36  1  0
 11 37  1  0
 11 38  1  0
 12 39  1  0
 12 40  1  0
 13 41  1  6
 18 42  1  0
 19 43  1  0
 20 44  1  0
 21 45  1  0
 25 46  1  0
 25 47  1  0
 25 48  1  0
 26 49  1  0
 26 50  1  0
M  CHG  1   3   1
M  END
>  <UniqueID>  (13) 
11

>  <SMILES>  (13) 
Cc1[nH+]c(C)c(C(=O)N2CCC[C@H](c3sc(-c4ccccn4)nc3C)C2)s1

>  <Energy>  (13) 
117.8963849988008

>  <Genealogy>  (13) 
Cc1[nH+]c(C)c(C(=O)N2CCCC(c3sc(-c4ccccn4)nc3C)C2)s1 (protonated)
Cc1[nH+]c(C)c(C(=O)N2CCC[C@H](c3sc(-c4ccccn4)nc3C)C2)s1 (chirality)
Cc1[nH+]c(C)c(C(=O)N2CCC[C@H](c3sc(-c4ccccn4)nc3C)C2)s1 (3D coordinates assigned)
Cc1[nH+]c(C)c(C(=O)N2CCC[C@H](c3sc(-c4ccccn4)nc3C)C2)s1 (nonaromatic ring conformer: 117.8963849988008 kcal/mol)

>  <smiles>  (13) 
Cc1nc(C)c(C(=O)N2CCCC(c3sc(-c4ccccn4)nc3C)C2)s1

>  <score_type>  (13) 
oracle

>  <origin>  (13) 
adg

>  <m_score__min__energy>  (13) 
-9.2899999999999991

>  <m_primary>  (13) 
energy

$$$$
13:0
     RDKit          3D

 48 49  0  0  0  0  0  0  0  0999 V2000
   -6.4740   16.0590  -34.2280 C   0  0  0  0  0  0  0  0  0  0  0  0
   -6.1230   17.5110  -34.5300 C   0  0  0  0  0  0  0  0  0  0  0  0
   -6.0920   18.3040  -33.2930 N   0  0  0  0  0  0  0  0  0  0  0  0
   -6.7890   17.8270  -32.0920 C   0  0  0  0  0  0  0  0  0  0  0  0
   -8.2620   18.2580  -32.0770 C   0  0  0  0  0  0  0  0  0  0  0  0
   -8.4620   19.4570  -32.9060 N   0  0  0  0  0  0  0  0  0  0  0  0
   -9.4700   20.3470  -32.3250 C   0  0  0  0  0  0  0  0  0  0  0  0
   -5.0280   19.2540  -33.1310 C   0  0  0  0  0  0  0  0  0  0  0  0
   -5.1470   20.5190  -32.6090 C   0  0  0  0  0  0  0  0  0  0  0  0
   -6.2350   21.2490  -32.1450 C   0  0  0  0  0  0  0  0  0  0  0  0
   -5.9930   22.5620  -31.6700 C   0  0  0  0  0  0  0  0  0  0  0  0
   -7.0300   23.3750  -31.1890 O   0  0  0  0  0  0  0  0  0  0  0  0
   -8.3370   23.4280  -31.7500 C   0  0  0  0  0  0  0  0  0  0  0  0
   -4.6720   23.0890  -31.6750 C   0  0  0  0  0  0  0  0  0  0  0  0
   -4.4770   24.3930  -31.1940 O   0  0  0  0  0  0  0  0  0  0  0  0
   -4.9940   24.8810  -29.9600 C   0  0  0  0  0  0  0  0  0  0  0  0
   -3.5950   22.3020  -32.1570 C   0  0  0  0  0  0  0  0  0  0  0  0
   -3.8760   21.0200  -32.6170 C   0  0  0  0  0  0  0  0  0  0  0  0
   -3.0110   20.1160  -33.1160 N   0  0  0  0  0  0  0  0  0  0  0  0
   -3.7240   19.0360  -33.4260 N   0  0  0  0  0  0  0  0  0  0  0  0
   -3.1420   17.8390  -34.0270 C   0  0  0  0  0  0  0  0  0  0  0  0
   -2.1600   17.1870  -33.0610 C   0  0  0  0  0  0  0  0  0  0  0  0
   -6.5102   15.9094  -33.1388 H   0  0  0  0  0  0  0  0  0  0  0  0
   -7.4556   15.8208  -34.6636 H   0  0  0  0  0  0  0  0  0  0  0  0
   -5.7096   15.3988  -34.6636 H   0  0  0  0  0  0  0  0  0  0  0  0
   -5.1342   17.5515  -35.0102 H   0  0  0  0  0  0  0  0  0  0  0  0
   -6.8889   17.9289  -35.1999 H   0  0  0  0  0  0  0  0  0  0  0  0
   -6.7394   16.7285  -32.0646 H   0  0  0  0  0  0  0  0  0  0  0  0
   -6.2955   18.2678  -31.2133 H   0  0  0  0  0  0  0  0  0  0  0  0
   -8.8818   17.4391  -32.4711 H   0  0  0  0  0  0  0  0  0  0  0  0
   -8.5513   18.4918  -31.0418 H   0  0  0  0  0  0  0  0  0  0  0  0
   -8.8210   19.1530  -33.8410 H   0  0  0  0  0  0  0  0  0  0  0  0
   -9.4140   20.2975  -31.2275 H   0  0  0  0  0  0  0  0  0  0  0  0
   -9.2820   21.3792  -32.6556 H   0  0  0  0  0  0  0  0  0  0  0  0
  -10.4709   20.0326  -32.6556 H   0  0  0  0  0  0  0  0  0  0  0  0
   -7.2489   20.8223  -32.1465 H   0  0  0  0  0  0  0  0  0  0  0  0
   -9.0821   23.4582  -30.9414 H   0  0  0  0  0  0  0  0  0  0  0  0
   -8.4331   24.3308  -32.3711 H   0  0  0  0  0  0  0  0  0  0  0  0
   -8.5059   22.5360  -32.3711 H   0  0  0  0  0  0  0  0  0  0  0  0
   -4.4736   24.3898  -29.1246 H   0  0  0  0  0  0  0  0  0  0  0  0
   -4.8373   25.9682  -29.9011 H   0  0  0  0  0  0  0  0  0  0  0  0
   -6.0704   24.6619  -29.9011 H   0  0  0  0  0  0  0  0  0  0  0  0
   -2.5674   22.6942  -32.1667 H   0  0  0  0  0  0  0  0  0  0  0  0
   -3.9446   17.1255  -34.2653 H   0  0  0  0  0  0  0  0  0  0  0  0
   -2.6063   18.1233  -34.9447 H   0  0  0  0  0  0  0  0  0  0  0  0
   -2.4714   17.3937  -32.0265 H   0  0  0  0  0  0  0  0  0  0  0  0
   -2.1467   16.1001  -33.2297 H   0  0  0  0  0  0  0  0  0  0  0  0
   -1.1531   17.5966  -33.2297 H   0  0  0  0  0  0  0  0  0  0  0  0
  1  2  1  0
  2  3  1  0
  3  4  1  0
  4  5  1  0
  5  6  1  0
  6  7  1  0
  3  8  1  0
  8  9  2  0
  9 10  1  0
 10 11  2  0
 11 12  1  0
 12 13  1  0
 11 14  1  0
 14 15  1  0
 15 16  1  0
 14 17  2  0
 17 18  1  0
 18 19  2  0
 19 20  1  0
 20 21  1  0
 21 22  1  0
 20  8  1  0
 18  9  1  0
  1 23  1  0
  1 24  1  0
  1 25  1  0
  2 26  1  0
  2 27  1  0
  4 28  1  0
  4 29  1  0
  5 30  1  0
  5 31  1  0
  6 32  1  0
  7 33  1  0
  7 34  1  0
  7 35  1  0
 10 36  1  0
 13 37  1  0
 13 38  1  0
 13 39  1  0
 16 40  1  0
 16 41  1  0
 16 42  1  0
 17 43  1  0
 21 44  1  0
 21 45  1  0
 22 46  1  0
 22 47  1  0
 22 48  1  0
M  END
>  <UniqueID>  (14) 
12

>  <SMILES>  (14) 
CCN(CCNC)c1c2cc(OC)c(OC)cc2nn1CC

>  <Energy>  (14) 
79.59730451384549

>  <Genealogy>  (14) 
CCN(CCNC)c1c2cc(OC)c(OC)cc2nn1CC (3D coordinates assigned)
CCN(CCNC)c1c2cc(OC)c(OC)cc2nn1CC (optimized conformer: 79.59730451384549 kcal/mol)

>  <smiles>  (14) 
CCN(CCNC)c1c2cc(OC)c(OC)cc2nn1CC

>  <score_type>  (14) 
oracle

>  <origin>  (14) 
adg

>  <m_score__min__energy>  (14) 
-6.7699999999999996

>  <m_primary>  (14) 
energy

$$$$
14:0
     RDKit          3D

 48 50  0  0  0  0  0  0  0  0999 V2000
   -0.6490   19.4350  -34.2320 C   0  0  0  0  0  0  0  0  0  0  0  0
   -1.0040   18.3290  -33.2400 C   0  0  0  0  0  0  0  0  0  0  0  0
   -2.0560   17.4540  -33.7780 N   0  0  0  0  0  0  0  0  0  0  0  0
   -1.7280   16.0560  -34.1050 C   0  0  0  0  0  0  0  0  0  0  0  0
   -2.1470   15.1230  -32.9730 C   0  0  0  0  0  0  0  0  0  0  0  0
   -3.3930   17.9670  -33.9860 C   0  0  0  0  0  0  0  0  0  0  0  0
   -4.3090   17.2780  -34.8030 C   0  0  0  0  0  0  0  0  0  0  0  0
   -5.6040   17.7680  -34.9850 C   0  0  0  0  0  0  0  0  0  0  0  0
   -6.0010   18.9530  -34.3650 C   0  0  0  0  0  0  0  0  0  0  0  0
   -5.0960   19.6670  -33.5650 C   0  0  0  0  0  0  0  0  0  0  0  0
   -5.5180   20.9040  -32.8720 C   0  0  0  0  0  0  0  0  0  0  0  0
   -4.6040   21.8980  -32.7440 N   0  0  0  0  0  0  0  0  0  0  0  0
   -4.8760   23.0310  -32.1050 N   0  0  0  0  0  0  0  0  0  0  0  0
   -6.0860   23.2780  -31.5390 C   0  0  0  0  0  0  0  0  0  0  0  0
   -6.2510   24.5930  -30.8120 C   0  0  0  0  0  0  0  0  0  0  0  0
   -5.0290   24.9150  -29.9460 C   0  0  0  0  0  0  0  0  0  0  0  0
   -3.8600   25.2020  -30.7730 N   0  0  0  0  0  0  0  0  0  0  0  0
   -7.0990   22.2910  -31.6350 C   0  0  0  0  0  0  0  0  0  0  0  0
   -8.3850   22.4650  -31.0770 C   0  0  0  0  0  0  0  0  0  0  0  0
   -9.3650   21.4840  -31.2250 C   0  0  0  0  0  0  0  0  0  0  0  0
   -9.0910   20.3200  -31.9370 C   0  0  0  0  0  0  0  0  0  0  0  0
   -7.8280   20.1200  -32.4920 C   0  0  0  0  0  0  0  0  0  0  0  0
   -6.8110   21.0860  -32.3320 C   0  0  0  0  0  0  0  0  0  0  0  0
   -3.8030   19.1620  -33.3670 C   0  0  0  0  0  0  0  0  0  0  0  0
   -0.3580   20.3418  -33.6815 H   0  0  0  0  0  0  0  0  0  0  0  0
    0.1885   19.1054  -34.8644 H   0  0  0  0  0  0  0  0  0  0  0  0
   -1.5219   19.6543  -34.8644 H   0  0  0  0  0  0  0  0  0  0  0  0
   -0.1059   17.7276  -33.0358 H   0  0  0  0  0  0  0  0  0  0  0  0
   -1.3755   18.7947  -32.3153 H   0  0  0  0  0  0  0  0  0  0  0  0
   -2.2570   15.7671  -35.0252 H   0  0  0  0  0  0  0  0  0  0  0  0
   -0.6404   15.9726  -34.2468 H   0  0  0  0  0  0  0  0  0  0  0  0
   -1.9324   15.6007  -32.0057 H   0  0  0  0  0  0  0  0  0  0  0  0
   -3.2246   14.9157  -33.0486 H   0  0  0  0  0  0  0  0  0  0  0  0
   -1.5860   14.1798  -33.0486 H   0  0  0  0  0  0  0  0  0  0  0  0
   -4.0025   16.3467  -35.3018 H   0  0  0  0  0  0  0  0  0  0  0  0
   -6.3139   17.2174  -35.6198 H   0  0  0  0  0  0  0  0  0  0  0  0
   -7.0256   19.3284  -34.5036 H   0  0  0  0  0  0  0  0  0  0  0  0
   -6.3858   25.3957  -31.5520 H   0  0  0  0  0  0  0  0  0  0  0  0
   -7.1287   24.5147  -30.1536 H   0  0  0  0  0  0  0  0  0  0  0  0
   -5.2521   25.7930  -29.3220 H   0  0  0  0  0  0  0  0  0  0  0  0
   -4.8061   24.0405  -29.3170 H   0  0  0  0  0  0  0  0  0  0  0  0
   -3.4490   24.2870  -31.0700 H   0  0  0  0  0  0  0  0  0  0  0  0
   -4.1870   25.6760  -31.6460 H   0  0  0  0  0  0  0  0  0  0  0  0
   -8.6160   23.3847  -30.5195 H   0  0  0  0  0  0  0  0  0  0  0  0
  -10.3589   21.6308  -30.7771 H   0  0  0  0  0  0  0  0  0  0  0  0
   -9.8727   19.5562  -32.0621 H   0  0  0  0  0  0  0  0  0  0  0  0
   -7.6218   19.2008  -33.0600 H   0  0  0  0  0  0  0  0  0  0  0  0
   -3.1004   19.7070  -32.7195 H   0  0  0  0  0  0  0  0  0  0  0  0
  1  2  1  0
  2  3  1  0
  3  4  1  0
  4  5  1  0
  3  6  1  0
  6  7  2  0
  7  8  1  0
  8  9  2  0
  9 10  1  0
 10 11  1  0
 11 12  2  0
 12 13  1  0
 13 14  2  0
 14 15  1  0
 15 16  1  0
 16 17  1  0
 14 18  1  0
 18 19  2  0
 19 20  1  0
 20 21  2  0
 21 22  1  0
 22 23  2  0
 10 24  2  0
 24  6  1  0
 23 11  1  0
 23 18  1  0
  1 25  1  0
  1 26  1  0
  1 27  1  0
  2 28  1  0
  2 29  1  0
  4 30  1  0
  4 31  1  0
  5 32  1  0
  5 33  1  0
  5 34  1  0
  7 35  1  0
  8 36  1  0
  9 37  1  0
 15 38  1  0
 15 39  1  0
 16 40  1  0
 16 41  1  0
 17 42  1  0
 17 43  1  0
 19 44  1  0
 20 45  1  0
 21 46  1  0
 22 47  1  0
 24 48  1  0
M  END
>  <UniqueID>  (15) 
13

>  <SMILES>  (15) 
CCN(CC)c1cccc(-c2nnc(CCN)c3ccccc23)c1

>  <Energy>  (15) 
59.1358353827348

>  <Genealogy>  (15) 
CCN(CC)c1cccc(-c2nnc(CCN)c3ccccc23)c1 (3D coordinates assigned)
CCN(CC)c1cccc(-c2nnc(CCN)c3ccccc23)c1 (optimized conformer: 59.1358353827348 kcal/mol)

>  <smiles>  (15) 
CCN(CC)c1cccc(-c2nnc(CCN)c3ccccc23)c1

>  <score_type>  (15) 
oracle

>  <origin>  (15) 
adg

>  <m_score__min__energy>  (15) 
-9.1500000000000004

>  <m_primary>  (15) 
energy

$$$$
15:0
     RDKit          3D

 36 38  0  0  0  0  0  0  0  0999 V2000
   -0.4140   22.2570  -23.4050 C   0  0  0  0  0  0  0  0  0  0  0  0
   -0.1350   23.2650  -24.4250 N   0  0  0  0  0  0  0  0  0  0  0  0
    0.1750   24.5220  -24.1510 N   0  0  0  0  0  0  0  0  0  0  0  0
    0.3740   25.1870  -25.3030 C   0  0  0  0  0  0  0  0  0  0  0  0
    0.1920   24.3090  -26.3590 C   0  0  0  0  0  0  0  0  0  0  0  0
    0.3760   24.6250  -27.7860 C   0  0  0  0  0  0  0  0  0  0  0  0
    1.5190   24.5430  -28.3090 O   0  0  0  0  0  0  0  0  0  0  0  0
   -0.7400   25.0930  -28.5540 N   0  0  0  0  0  0  0  0  0  0  0  0
   -2.0530   24.5140  -28.5930 C   0  0  0  0  0  0  0  0  0  0  0  0
   -2.5220   23.8040  -29.7140 C   0  0  0  0  0  0  0  0  0  0  0  0
   -3.8000   23.2350  -29.7020 C   0  0  0  0  0  0  0  0  0  0  0  0
   -4.6110   23.3590  -28.5700 C   0  0  0  0  0  0  0  0  0  0  0  0
   -4.1420   24.0420  -27.4460 C   0  0  0  0  0  0  0  0  0  0  0  0
   -2.8640   24.6110  -27.4550 C   0  0  0  0  0  0  0  0  0  0  0  0
   -0.1270   23.0920  -25.7660 C   0  0  0  0  0  0  0  0  0  0  0  0
   -0.4520   21.8260  -26.4540 C   0  0  0  0  0  0  0  0  0  0  0  0
    0.3840   21.3360  -27.4700 C   0  0  0  0  0  0  0  0  0  0  0  0
    0.0800   20.1320  -28.1120 C   0  0  0  0  0  0  0  0  0  0  0  0
   -1.0590   19.4100  -27.7440 C   0  0  0  0  0  0  0  0  0  0  0  0
   -1.8940   19.8900  -26.7320 C   0  0  0  0  0  0  0  0  0  0  0  0
   -1.5920   21.0940  -26.0870 C   0  0  0  0  0  0  0  0  0  0  0  0
   -0.2909   22.7019  -22.4065 H   0  0  0  0  0  0  0  0  0  0  0  0
   -1.4462   21.8947  -23.5202 H   0  0  0  0  0  0  0  0  0  0  0  0
    0.2850   21.4155  -23.5202 H   0  0  0  0  0  0  0  0  0  0  0  0
    0.2520   24.9250  -23.1900 H   0  0  0  0  0  0  0  0  0  0  0  0
    0.6375   26.2513  -25.3919 H   0  0  0  0  0  0  0  0  0  0  0  0
   -1.8819   23.6962  -30.6021 H   0  0  0  0  0  0  0  0  0  0  0  0
   -4.1670   22.6896  -30.5839 H   0  0  0  0  0  0  0  0  0  0  0  0
   -5.6189   22.9184  -28.5648 H   0  0  0  0  0  0  0  0  0  0  0  0
   -4.7778   24.1327  -26.5529 H   0  0  0  0  0  0  0  0  0  0  0  0
   -2.4938   25.1377  -26.5631 H   0  0  0  0  0  0  0  0  0  0  0  0
    1.2813   21.9014  -27.7618 H   0  0  0  0  0  0  0  0  0  0  0  0
    0.7378   19.7523  -28.9077 H   0  0  0  0  0  0  0  0  0  0  0  0
   -1.2979   18.4637  -28.2514 H   0  0  0  0  0  0  0  0  0  0  0  0
   -2.7895   19.3208  -26.4422 H   0  0  0  0  0  0  0  0  0  0  0  0
   -2.2503   21.4685  -25.2893 H   0  0  0  0  0  0  0  0  0  0  0  0
  1  2  1  0
  2  3  1  0
  3  4  2  0
  4  5  1  0
  5  6  1  0
  6  7  2  0
  6  8  1  0
  8  9  1  0
  9 10  2  0
 10 11  1  0
 11 12  2  0
 12 13  1  0
 13 14  2  0
  5 15  2  0
 15 16  1  0
 16 17  2  0
 17 18  1  0
 18 19  2  0
 19 20  1  0
 20 21  2  0
 15  2  1  0
 21 16  1  0
 14  9  1  0
  1 22  1  0
  1 23  1  0
  1 24  1  0
  3 25  1  0
  4 26  1  0
 10 27  1  0
 11 28  1  0
 12 29  1  0
 13 30  1  0
 14 31  1  0
 17 32  1  0
 18 33  1  0
 19 34  1  0
 20 35  1  0
 21 36  1  0
M  CHG  2   3   1   8  -1
M  END
>  <UniqueID>  (16) 
14

>  <SMILES>  (16) 
Cn1[nH+]cc(C(=O)[N-]c2ccccc2)c1-c1ccccc1

>  <Energy>  (16) 
78.31483357014439

>  <Genealogy>  (16) 
Cn1[nH+]cc(C(=O)[N-]c2ccccc2)c1-c1ccccc1 (protonated)
Cn1[nH+]cc(C(=O)[N-]c2ccccc2)c1-c1ccccc1 (3D coordinates assigned)
Cn1[nH+]cc(C(=O)[N-]c2ccccc2)c1-c1ccccc1 (optimized conformer: 78.31483357014439 kcal/mol)

>  <smiles>  (16) 
Cn1ncc(C(=O)Nc2ccccc2)c1-c1ccccc1

>  <score_type>  (16) 
oracle

>  <origin>  (16) 
adg

>  <m_score__min__energy>  (16) 
-7.9699999999999998

>  <m_primary>  (16) 
energy

$$$$
16:0
     RDKit          3D

 43 44  0  0  0  0  0  0  0  0999 V2000
   -4.1510   25.2390  -30.7720 O   0  0  0  0  0  0  0  0  0  0  0  0
   -4.6710   24.6590  -29.7790 C   0  0  0  0  0  0  0  0  0  0  0  0
   -3.8530   24.4280  -28.5470 C   0  0  0  0  0  0  0  0  0  0  0  0
   -3.0790   23.1460  -28.6820 C   0  0  0  0  0  0  0  0  0  0  0  0
   -1.9430   23.0840  -29.5070 C   0  0  0  0  0  0  0  0  0  0  0  0
   -1.1840   21.9120  -29.5740 C   0  0  0  0  0  0  0  0  0  0  0  0
   -1.5480   20.7960  -28.8110 C   0  0  0  0  0  0  0  0  0  0  0  0
   -0.5880   19.3310  -28.8870 Cl  0  0  0  0  0  0  0  0  0  0  0  0
   -2.6740   20.8530  -27.9840 C   0  0  0  0  0  0  0  0  0  0  0  0
   -3.4370   22.0220  -27.9190 C   0  0  0  0  0  0  0  0  0  0  0  0
   -6.0210   24.1750  -29.8460 N   0  0  0  0  0  0  0  0  0  0  0  0
   -6.7900   24.1670  -31.0880 C   0  0  0  0  0  0  0  0  0  0  0  0
   -7.4230   22.7890  -31.3520 C   0  0  0  0  0  0  0  0  0  0  0  0
   -6.4080   21.7840  -31.7480 N   0  0  0  0  0  0  0  0  0  0  0  0
   -5.1390   22.4100  -32.2100 C   0  0  0  0  0  0  0  0  0  0  0  0
   -3.9430   21.4460  -32.3600 C   0  0  0  0  0  0  0  0  0  0  0  0
   -4.2360   20.1320  -33.1260 C   0  0  0  0  0  0  0  0  0  0  0  0
   -5.0150   19.0620  -32.3380 C   0  0  0  0  0  0  0  0  0  0  0  0
   -6.5330   19.3010  -32.2970 C   0  0  0  0  0  0  0  0  0  0  0  0
   -6.9860   20.7370  -32.6270 C   0  0  0  0  0  0  0  0  0  0  0  0
   -3.1522   25.2650  -28.4118 H   0  0  0  0  0  0  0  0  0  0  0  0
   -4.5207   24.3589  -27.6756 H   0  0  0  0  0  0  0  0  0  0  0  0
   -1.6499   23.9612  -30.1024 H   0  0  0  0  0  0  0  0  0  0  0  0
   -0.2999   21.8666  -30.2269 H   0  0  0  0  0  0  0  0  0  0  0  0
   -2.9596   19.9766  -27.3838 H   0  0  0  0  0  0  0  0  0  0  0  0
   -4.3222   22.0623  -27.2672 H   0  0  0  0  0  0  0  0  0  0  0  0
   -6.4790   23.8370  -28.9700 H   0  0  0  0  0  0  0  0  0  0  0  0
   -7.5891   24.9197  -31.0183 H   0  0  0  0  0  0  0  0  0  0  0  0
   -6.1061   24.3969  -31.9183 H   0  0  0  0  0  0  0  0  0  0  0  0
   -7.9248   22.4461  -30.4352 H   0  0  0  0  0  0  0  0  0  0  0  0
   -8.1403   22.8949  -32.1792 H   0  0  0  0  0  0  0  0  0  0  0  0
   -5.3262   22.8740  -33.1896 H   0  0  0  0  0  0  0  0  0  0  0  0
   -4.8531   23.1293  -31.4284 H   0  0  0  0  0  0  0  0  0  0  0  0
   -3.1435   21.9790  -32.8954 H   0  0  0  0  0  0  0  0  0  0  0  0
   -3.6688   21.1446  -31.3383 H   0  0  0  0  0  0  0  0  0  0  0  0
   -4.8217   20.3859  -34.0219 H   0  0  0  0  0  0  0  0  0  0  0  0
   -3.2545   19.6875  -33.3476 H   0  0  0  0  0  0  0  0  0  0  0  0
   -4.8309   18.0841  -32.8068 H   0  0  0  0  0  0  0  0  0  0  0  0
   -4.6565   19.1064  -31.2990 H   0  0  0  0  0  0  0  0  0  0  0  0
   -7.0031   18.6216  -33.0232 H   0  0  0  0  0  0  0  0  0  0  0  0
   -6.8404   19.1180  -31.2568 H   0  0  0  0  0  0  0  0  0  0  0  0
   -6.6935   20.9594  -33.6638 H   0  0  0  0  0  0  0  0  0  0  0  0
   -8.0745   20.7644  -32.4708 H   0  0  0  0  0  0  0  0  0  0  0  0
  1  2  2  0
  2  3  1  0
  3  4  1  0
  4  5  2  0
  5  6  1  0
  6  7  2  0
  7  8  1  0
  7  9  1  0
  9 10  2  0
  2 11  1  0
 11 12  1  0
 12 13  1  0
 13 14  1  0
 14 15  1  0
 15 16  1  0
 16 17  1  0
 17 18  1  0
 18 19  1  0
 19 20  1  0
 10  4  1  0
 20 14  1  0
  3 21  1  0
  3 22  1  0
  5 23  1  0
  6 24  1  0
  9 25  1  0
 10 26  1  0
 11 27  1  0
 12 28  1  0
 12 29  1  0
 13 30  1  0
 13 31  1  0
 15 32  1  0
 15 33  1  0
 16 34  1  0
 16 35  1  0
 17 36  1  0
 17 37  1  0
 18 38  1  0
 18 39  1  0
 19 40  1  0
 19 41  1  0
 20 42  1  0
 20 43  1  0
M  END
>  <UniqueID>  (17) 
15

>  <SMILES>  (17) 
O=C(Cc1ccc(Cl)cc1)NCCN1CCCCCC1

>  <Energy>  (17) 
46.7294155182898

>  <Genealogy>  (17) 
O=C(Cc1ccc(Cl)cc1)NCCN1CCCCCC1 (3D coordinates assigned)
O=C(Cc1ccc(Cl)cc1)NCCN1CCCCCC1 (nonaromatic ring conformer: 46.7294155182898 kcal/mol)

>  <smiles>  (17) 
O=C(Cc1ccc(Cl)cc1)NCCN1CCCCCC1

>  <score_type>  (17) 
oracle

>  <origin>  (17) 
adg

>  <m_score__min__energy>  (17) 
-6.4800000000000004

>  <m_primary>  (17) 
energy

$$$$
17:0
     RDKit          3D

 32 34  0  0  0  0  0  0  0  0999 V2000
   -1.8920   24.9610  -28.1900 C   0  0  0  0  0  0  0  0  0  0  0  0
   -2.6470   25.3000  -29.3480 O   0  0  0  0  0  0  0  0  0  0  0  0
   -3.7290   24.5520  -29.8340 C   0  0  0  0  0  0  0  0  0  0  0  0
   -3.4640   23.3430  -30.4870 C   0  0  0  0  0  0  0  0  0  0  0  0
   -4.5070   22.5610  -30.9900 C   0  0  0  0  0  0  0  0  0  0  0  0
   -5.8440   22.9760  -30.8480 C   0  0  0  0  0  0  0  0  0  0  0  0
   -6.9660   22.1600  -31.3740 C   0  0  0  0  0  0  0  0  0  0  0  0
   -8.2130   22.6420  -31.5680 N   0  0  0  0  0  0  0  0  0  0  0  0
   -8.9000   21.6440  -32.0400 O   0  0  0  0  0  0  0  0  0  0  0  0
   -8.1340   20.5850  -32.1380 C   0  0  0  0  0  0  0  0  0  0  0  0
   -8.5790   19.2640  -32.6720 C   0  0  0  0  0  0  0  0  0  0  0  0
   -7.3890   18.4570  -33.0820 C   0  0  0  0  0  0  0  0  0  0  0  0
   -7.1880   17.1090  -32.8170 C   0  0  0  0  0  0  0  0  0  0  0  0
   -6.0180   16.6030  -33.3930 C   0  0  0  0  0  0  0  0  0  0  0  0
   -5.3050   17.5450  -34.1240 C   0  0  0  0  0  0  0  0  0  0  0  0
   -6.1330   19.0070  -34.0560 S   0  0  0  0  0  0  0  0  0  0  0  0
   -6.8850   20.8600  -31.7280 N   0  0  0  0  0  0  0  0  0  0  0  0
   -6.1080   24.1900  -30.1900 C   0  0  0  0  0  0  0  0  0  0  0  0
   -5.0640   24.9720  -29.6880 C   0  0  0  0  0  0  0  0  0  0  0  0
   -2.4672   25.2193  -27.2887 H   0  0  0  0  0  0  0  0  0  0  0  0
   -1.6805   23.8815  -28.1932 H   0  0  0  0  0  0  0  0  0  0  0  0
   -0.9448   25.5202  -28.1932 H   0  0  0  0  0  0  0  0  0  0  0  0
   -2.4240   23.0048  -30.6055 H   0  0  0  0  0  0  0  0  0  0  0  0
   -4.2811   21.6135  -31.5010 H   0  0  0  0  0  0  0  0  0  0  0  0
   -9.1357   18.7236  -31.8922 H   0  0  0  0  0  0  0  0  0  0  0  0
   -9.2274   19.4251  -33.5459 H   0  0  0  0  0  0  0  0  0  0  0  0
   -7.8789   16.5005  -32.2150 H   0  0  0  0  0  0  0  0  0  0  0  0
   -5.6933   15.5583  -33.2781 H   0  0  0  0  0  0  0  0  0  0  0  0
   -4.3596   17.3651  -34.6567 H   0  0  0  0  0  0  0  0  0  0  0  0
   -6.0670   20.2120  -31.7070 H   0  0  0  0  0  0  0  0  0  0  0  0
   -7.1477   24.5282  -30.0689 H   0  0  0  0  0  0  0  0  0  0  0  0
   -5.2870   25.9200  -29.1765 H   0  0  0  0  0  0  0  0  0  0  0  0
  1  2  1  0
  2  3  1  0
  3  4  2  0
  4  5  1  0
  5  6  2  0
  6  7  1  0
  7  8  2  0
  8  9  1  0
  9 10  1  0
 10 11  1  0
 11 12  1  0
 12 13  2  0
 13 14  1  0
 14 15  2  0
 15 16  1  0
 10 17  2  0
  6 18  1  0
 18 19  2  0
 19  3  1  0
 17  7  1  0
 16 12  1  0
  1 20  1  0
  1 21  1  0
  1 22  1  0
  4 23  1  0
  5 24  1  0
 11 25  1  0
 11 26  1  0
 13 27  1  0
 14 28  1  0
 15 29  1  0
 17 30  1  0
 18 31  1  0
 19 32  1  0
M  CHG  1  17   1
M  END
>  <UniqueID>  (18) 
16

>  <SMILES>  (18) 
COc1ccc(-c2noc(Cc3cccs3)[nH+]2)cc1

>  <Energy>  (18) 
92.98902350429876

>  <Genealogy>  (18) 
COc1ccc(-c2noc(Cc3cccs3)[nH+]2)cc1 (protonated)
COc1ccc(-c2noc(Cc3cccs3)[nH+]2)cc1 (3D coordinates assigned)
COc1ccc(-c2noc(Cc3cccs3)[nH+]2)cc1 (optimized conformer: 92.98902350429876 kcal/mol)

>  <smiles>  (18) 
COc1ccc(-c2noc(Cc3cccs3)n2)cc1

>  <score_type>  (18) 
oracle

>  <origin>  (18) 
adg

>  <m_score__min__energy>  (18) 
-7.21

>  <m_primary>  (18) 
energy

$$$$
18:0
     RDKit          3D

 50 53  0  0  0  0  0  0  0  0999 V2000
    1.5430   22.6300  -35.6970 C   0  0  0  0  0  0  0  0  0  0  0  0
    0.3590   22.3820  -34.9730 O   0  0  0  0  0  0  0  0  0  0  0  0
    0.3780   21.0590  -34.4850 C   0  0  0  0  0  0  0  0  0  0  0  0
   -0.9040   20.7900  -33.7590 C   0  0  0  0  0  0  0  0  0  0  0  0
   -1.7900   19.8090  -34.2190 C   0  0  0  0  0  0  0  0  0  0  0  0
   -2.9900   19.6050  -33.5250 C   0  0  0  0  0  0  0  0  0  0  0  0
   -3.9220   18.5860  -33.9310 N   0  0  0  0  0  0  0  0  0  0  0  0
   -5.3240   18.9450  -34.1620 C   0  0  0  0  0  0  0  0  0  0  0  0
   -6.1970   17.6860  -34.2840 C   0  0  0  0  0  0  0  0  0  0  0  0
   -5.7710   16.6380  -33.3310 N   0  0  0  0  0  0  0  0  0  0  0  0
   -6.0060   17.0420  -31.9280 C   0  0  0  0  0  0  0  0  0  0  0  0
   -6.7260   18.3530  -31.8840 C   0  0  0  0  0  0  0  0  0  0  0  0
   -6.1170   19.5360  -31.6250 N   0  0  0  0  0  0  0  0  0  0  0  0
   -7.1200   20.4220  -31.7010 C   0  0  0  0  0  0  0  0  0  0  0  0
   -7.0760   21.8030  -31.5260 C   0  0  0  0  0  0  0  0  0  0  0  0
   -8.2850   22.5130  -31.6640 C   0  0  0  0  0  0  0  0  0  0  0  0
   -9.4870   21.8310  -31.9680 C   0  0  0  0  0  0  0  0  0  0  0  0
   -9.4910   20.4320  -32.1390 C   0  0  0  0  0  0  0  0  0  0  0  0
   -8.2780   19.7640  -31.9960 C   0  0  0  0  0  0  0  0  0  0  0  0
   -8.0250   18.4840  -32.1070 O   0  0  0  0  0  0  0  0  0  0  0  0
   -4.3740   16.1830  -33.5630 C   0  0  0  0  0  0  0  0  0  0  0  0
   -3.4830   17.2270  -34.2660 C   0  0  0  0  0  0  0  0  0  0  0  0
   -3.2520   20.3540  -32.4190 N   0  0  0  0  0  0  0  0  0  0  0  0
   -2.3930   21.3200  -31.9970 C   0  0  0  0  0  0  0  0  0  0  0  0
   -2.6990   22.1050  -30.7670 C   0  0  0  0  0  0  0  0  0  0  0  0
   -1.2270   21.5270  -32.6640 N   0  0  0  0  0  0  0  0  0  0  0  0
    2.3722   22.8037  -34.9954 H   0  0  0  0  0  0  0  0  0  0  0  0
    1.7744   21.7608  -36.3302 H   0  0  0  0  0  0  0  0  0  0  0  0
    1.4062   23.5190  -36.3302 H   0  0  0  0  0  0  0  0  0  0  0  0
    0.4803   20.3570  -35.3257 H   0  0  0  0  0  0  0  0  0  0  0  0
    1.2284   20.9272  -33.7999 H   0  0  0  0  0  0  0  0  0  0  0  0
   -1.5487   19.2092  -35.1090 H   0  0  0  0  0  0  0  0  0  0  0  0
   -5.6841   19.5532  -33.3191 H   0  0  0  0  0  0  0  0  0  0  0  0
   -5.3921   19.5136  -35.1012 H   0  0  0  0  0  0  0  0  0  0  0  0
   -7.2432   17.9547  -34.0760 H   0  0  0  0  0  0  0  0  0  0  0  0
   -6.0907   17.2892  -35.3044 H   0  0  0  0  0  0  0  0  0  0  0  0
   -6.6147   16.2756  -31.4258 H   0  0  0  0  0  0  0  0  0  0  0  0
   -5.0378   17.1457  -31.4163 H   0  0  0  0  0  0  0  0  0  0  0  0
   -5.1070   19.7150  -31.4220 H   0  0  0  0  0  0  0  0  0  0  0  0
   -6.1340   22.3193  -31.2893 H   0  0  0  0  0  0  0  0  0  0  0  0
   -8.2946   23.6053  -31.5345 H   0  0  0  0  0  0  0  0  0  0  0  0
  -10.4247   22.3966  -32.0716 H   0  0  0  0  0  0  0  0  0  0  0  0
  -10.4174   19.8886  -32.3764 H   0  0  0  0  0  0  0  0  0  0  0  0
   -3.9224   15.9423  -32.5893 H   0  0  0  0  0  0  0  0  0  0  0  0
   -4.4301   15.3109  -34.2310 H   0  0  0  0  0  0  0  0  0  0  0  0
   -2.4412   17.0923  -33.9396 H   0  0  0  0  0  0  0  0  0  0  0  0
   -3.5607   17.0861  -35.3542 H   0  0  0  0  0  0  0  0  0  0  0  0
   -2.4635   21.5009  -29.8784 H   0  0  0  0  0  0  0  0  0  0  0  0
   -2.0928   23.0229  -30.7575 H   0  0  0  0  0  0  0  0  0  0  0  0
   -3.7664   22.3705  -30.7575 H   0  0  0  0  0  0  0  0  0  0  0  0
  1  2  1  0
  2  3  1  0
  3  4  1  0
  4  5  2  0
  5  6  1  0
  6  7  1  0
  7  8  1  0
  8  9  1  0
  9 10  1  0
 10 11  1  0
 11 12  1  0
 12 13  2  0
 13 14  1  0
 14 15  2  0
 15 16  1  0
 16 17  2  0
 17 18  1  0
 18 19  2  0
 19 20  1  0
 10 21  1  0
 21 22  1  0
  6 23  2  0
 23 24  1  0
 24 25  1  0
 24 26  2  0
 26  4  1  0
 22  7  1  0
 20 12  1  0
 19 14  1  0
  1 27  1  0
  1 28  1  0
  1 29  1  0
  3 30  1  0
  3 31  1  0
  5 32  1  0
  8 33  1  0
  8 34  1  0
  9 35  1  0
  9 36  1  0
 11 37  1  0
 11 38  1  0
 13 39  1  0
 15 40  1  0
 16 41  1  0
 17 42  1  0
 18 43  1  0
 21 44  1  0
 21 45  1  0
 22 46  1  0
 22 47  1  0
 25 48  1  0
 25 49  1  0
 25 50  1  0
M  CHG  1  13   1
M  END
>  <UniqueID>  (19) 
17

>  <SMILES>  (19) 
COCc1cc(N2CCN(Cc3[nH+]c4ccccc4o3)CC2)nc(C)n1

>  <Energy>  (19) 
100.88607078973054

>  <Genealogy>  (19) 
COCc1cc(N2CCN(Cc3[nH+]c4ccccc4o3)CC2)nc(C)n1 (protonated)
COCc1cc(N2CCN(Cc3[nH+]c4ccccc4o3)CC2)nc(C)n1 (3D coordinates assigned)
COCc1cc(N2CCN(Cc3[nH+]c4ccccc4o3)CC2)nc(C)n1 (nonaromatic ring conformer: 100.88607078973054 kcal/mol)

>  <smiles>  (19) 
COCc1cc(N2CCN(Cc3nc4ccccc4o3)CC2)nc(C)n1

>  <score_type>  (19) 
oracle

>  <origin>  (19) 
adg

>  <m_score__min__energy>  (19) 
-7.1699999999999999

>  <m_primary>  (19) 
energy

$$$$
19:0
     RDKit          3D

 41 42  0  0  0  0  0  0  0  0999 V2000
   -9.1616   20.4389  -33.4657 H   0  0  0  0  0  0  0  0  0  0  0  0
   -8.3610   20.4080  -32.7120 C   0  0  0  0  0  0  0  0  0  0  0  0
   -8.3090   21.3940  -31.8020 C   0  0  0  0  0  0  0  0  0  0  0  0
   -9.2251   21.6341  -31.2424 H   0  0  0  0  0  0  0  0  0  0  0  0
   -7.0820   22.1780  -31.5100 C   0  0  0  0  0  0  0  0  0  0  0  0
   -5.7960   21.6270  -31.6190 C   0  0  0  0  0  0  0  0  0  0  0  0
   -5.6776   20.5810  -31.9381 H   0  0  0  0  0  0  0  0  0  0  0  0
   -4.6580   22.3970  -31.3250 C   0  0  0  0  0  0  0  0  0  0  0  0
   -3.3600   21.8730  -31.4330 O   0  0  0  0  0  0  0  0  0  0  0  0
   -2.9240   20.9900  -32.4630 C   0  0  0  0  0  0  0  0  0  0  0  0
   -2.4799   20.0907  -32.0113 H   0  0  0  0  0  0  0  0  0  0  0  0
   -3.7831   20.7012  -33.0864 H   0  0  0  0  0  0  0  0  0  0  0  0
   -2.1724   21.4965  -33.0864 H   0  0  0  0  0  0  0  0  0  0  0  0
   -4.7990   23.7300  -30.9050 C   0  0  0  0  0  0  0  0  0  0  0  0
   -3.6100   24.4360  -30.6350 O   0  0  0  0  0  0  0  0  0  0  0  0
   -2.6830   24.1710  -29.5870 C   0  0  0  0  0  0  0  0  0  0  0  0
   -3.1782   24.3125  -28.6150 H   0  0  0  0  0  0  0  0  0  0  0  0
   -2.3243   23.1343  -29.6682 H   0  0  0  0  0  0  0  0  0  0  0  0
   -1.8305   24.8614  -29.6682 H   0  0  0  0  0  0  0  0  0  0  0  0
   -6.0950   24.2900  -30.7700 C   0  0  0  0  0  0  0  0  0  0  0  0
   -6.2440   25.6190  -30.3410 O   0  0  0  0  0  0  0  0  0  0  0  0
   -6.4760   26.0240  -28.9950 C   0  0  0  0  0  0  0  0  0  0  0  0
   -6.0487   25.2780  -28.3088 H   0  0  0  0  0  0  0  0  0  0  0  0
   -5.9999   26.9998  -28.8185 H   0  0  0  0  0  0  0  0  0  0  0  0
   -7.5586   26.1069  -28.8185 H   0  0  0  0  0  0  0  0  0  0  0  0
   -7.2200   23.4990  -31.0710 C   0  0  0  0  0  0  0  0  0  0  0  0
   -8.2267   23.9279  -30.9588 H   0  0  0  0  0  0  0  0  0  0  0  0
   -7.3990   19.2790  -32.7580 C   0  0  0  0  0  0  0  0  0  0  0  0
   -6.4750   19.1110  -33.8100 C   0  0  0  0  0  0  0  0  0  0  0  0
   -6.4570   19.8304  -34.6419 H   0  0  0  0  0  0  0  0  0  0  0  0
   -5.5820   18.0360  -33.8020 C   0  0  0  0  0  0  0  0  0  0  0  0
   -4.8648   17.9154  -34.6273 H   0  0  0  0  0  0  0  0  0  0  0  0
   -5.5940   17.1100  -32.7490 C   0  0  0  0  0  0  0  0  0  0  0  0
   -4.6070   15.9810  -32.7230 C   0  0  0  0  0  0  0  0  0  0  0  0
   -4.3775   15.7185  -31.6797 H   0  0  0  0  0  0  0  0  0  0  0  0
   -5.0360   15.1071  -33.2351 H   0  0  0  0  0  0  0  0  0  0  0  0
   -3.6836   16.2894  -33.2351 H   0  0  0  0  0  0  0  0  0  0  0  0
   -6.4870   17.2930  -31.6840 C   0  0  0  0  0  0  0  0  0  0  0  0
   -6.4839   16.5880  -30.8397 H   0  0  0  0  0  0  0  0  0  0  0  0
   -7.3820   18.3680  -31.6900 C   0  0  0  0  0  0  0  0  0  0  0  0
   -8.0793   18.5008  -30.8497 H   0  0  0  0  0  0  0  0  0  0  0  0
  1  2  1  0
  2  3  2  0
  3  4  1  0
  3  5  1  0
  5  6  2  0
  6  7  1  0
  6  8  1  0
  8  9  1  0
  9 10  1  0
 10 11  1  0
 10 12  1  0
 10 13  1  0
  8 14  2  0
 14 15  1  0
 15 16  1  0
 16 17  1  0
 16 18  1  0
 16 19  1  0
 14 20  1  0
 20 21  1  0
 21 22  1  0
 22 23  1  0
 22 24  1  0
 22 25  1  0
 20 26  2  0
 26 27  1  0
  2 28  1  0
 28 29  2  0
 29 30  1  0
 29 31  1  0
 31 32  1  0
 31 33  2  0
 33 34  1  0
 34 35  1  0
 34 36  1  0
 34 37  1  0
 33 38  1  0
 38 39  1  0
 38 40  2  0
 40 41  1  0
 26  5  1  0
 40 28  1  0
M  END
>  <UniqueID>  (20) 
18

>  <SMILES>  (20) 
COc1cc(/C=C/c2ccc(C)cc2)cc(OC)c1OC

>  <Energy>  (20) 
47.03680984676234

>  <Genealogy>  (20) 
COc1cc(/C=C/c2ccc(C)cc2)cc(OC)c1OC (cis-trans isomerization)
COc1cc(/C=C/c2ccc(C)cc2)cc(OC)c1OC (3D coordinates assigned)
COc1cc(/C=C/c2ccc(C)cc2)cc(OC)c1OC (optimized conformer: 47.03680984676234 kcal/mol)

>  <smiles>  (20) 
COc1cc(C=Cc2ccc(C)cc2)cc(OC)c1OC

>  <score_type>  (20) 
oracle

>  <origin>  (20) 
adg

>  <m_score__min__energy>  (20) 
-7.5999999999999996

>  <m_primary>  (20) 
energy

$$$$
20:0
     RDKit          3D

 30 31  0  0  0  0  0  0  0  0999 V2000
   -5.3720   25.5940  -29.3240 H   0  0  0  0  0  0  0  0  0  0  0  0
   -6.2770   25.1760  -29.6330 N   0  0  0  0  0  0  0  0  0  0  0  0
   -6.3100   24.0750  -30.3130 C   0  0  0  0  0  0  0  0  0  0  0  0
   -7.6000   23.5890  -31.2750 S   0  0  0  0  0  0  0  0  0  0  0  0
   -6.8480   22.1500  -31.7290 C   0  0  0  0  0  0  0  0  0  0  0  0
   -7.2694   21.3876  -32.4007 H   0  0  0  0  0  0  0  0  0  0  0  0
   -5.6030   22.0910  -31.1090 C   0  0  0  0  0  0  0  0  0  0  0  0
   -4.9153   21.2424  -31.2388 H   0  0  0  0  0  0  0  0  0  0  0  0
   -5.3030   23.1680  -30.3280 N   0  0  0  0  0  0  0  0  0  0  0  0
   -4.0610   23.2870  -29.5590 C   0  0  0  0  0  0  0  0  0  0  0  0
   -4.2988   23.3010  -28.4851 H   0  0  0  0  0  0  0  0  0  0  0  0
   -3.4131   22.4285  -29.7897 H   0  0  0  0  0  0  0  0  0  0  0  0
   -3.3410   24.5570  -29.9250 C   0  0  0  0  0  0  0  0  0  0  0  0
   -3.8280   25.3060  -30.8110 O   0  0  0  0  0  0  0  0  0  0  0  0
   -2.0870   24.9160  -29.3270 N   0  0  0  0  0  0  0  0  0  0  0  0
   -1.8790   25.3390  -27.9740 C   0  0  0  0  0  0  0  0  0  0  0  0
   -2.7020   24.8910  -26.9270 C   0  0  0  0  0  0  0  0  0  0  0  0
   -3.5137   24.1784  -27.1353 H   0  0  0  0  0  0  0  0  0  0  0  0
   -2.4940   25.3470  -25.6210 C   0  0  0  0  0  0  0  0  0  0  0  0
   -3.1338   24.9807  -24.8046 H   0  0  0  0  0  0  0  0  0  0  0  0
   -1.4690   26.2730  -25.3470 C   0  0  0  0  0  0  0  0  0  0  0  0
   -1.2170   26.7570  -24.0560 O   0  0  0  0  0  0  0  0  0  0  0  0
    0.0420   26.6700  -23.3970 C   0  0  0  0  0  0  0  0  0  0  0  0
   -0.1127   26.6807  -22.3080 H   0  0  0  0  0  0  0  0  0  0  0  0
    0.5438   25.7350  -23.6869 H   0  0  0  0  0  0  0  0  0  0  0  0
    0.6676   27.5271  -23.6869 H   0  0  0  0  0  0  0  0  0  0  0  0
   -0.6710   26.7360  -26.4000 C   0  0  0  0  0  0  0  0  0  0  0  0
    0.1279   27.4648  -26.1986 H   0  0  0  0  0  0  0  0  0  0  0  0
   -0.8800   26.2810  -27.7040 C   0  0  0  0  0  0  0  0  0  0  0  0
   -0.2554   26.6656  -28.5238 H   0  0  0  0  0  0  0  0  0  0  0  0
  1  2  1  0
  2  3  2  0
  3  4  1  0
  4  5  1  0
  5  6  1  0
  5  7  2  0
  7  8  1  0
  7  9  1  0
  9 10  1  0
 10 11  1  0
 10 12  1  0
 10 13  1  0
 13 14  2  0
 13 15  1  0
 15 16  1  0
 16 17  2  0
 17 18  1  0
 17 19  1  0
 19 20  1  0
 19 21  2  0
 21 22  1  0
 22 23  1  0
 23 24  1  0
 23 25  1  0
 23 26  1  0
 21 27  1  0
 27 28  1  0
 27 29  2  0
 29 30  1  0
  9  3  1  0
 29 16  1  0
M  CHG  1  15  -1
M  END
>  <UniqueID>  (21) 
19

>  <SMILES>  (21) 
[H]/N=c1\sccn1CC(=O)[N-]c1ccc(OC)cc1

>  <Energy>  (21) 
63.864301598172645

>  <Genealogy>  (21) 
COc1ccc([N-]C(=O)Cn2ccsc2=N)cc1 (protonated)
[H]/N=c1\sccn1CC(=O)[N-]c1ccc(OC)cc1 (cis-trans isomerization)
[H]/N=c1\sccn1CC(=O)[N-]c1ccc(OC)cc1 (3D coordinates assigned)
[H]/N=c1\sccn1CC(=O)[N-]c1ccc(OC)cc1 (optimized conformer: 63.864301598172645 kcal/mol)

>  <smiles>  (21) 
COc1ccc(NC(=O)Cn2ccsc2=N)cc1

>  <score_type>  (21) 
oracle

>  <origin>  (21) 
adg

>  <m_score__min__energy>  (21) 
-7.4000000000000004

>  <m_primary>  (21) 
energy

$$$$
21:0
     RDKit          3D

 25 26  0  0  0  0  0  0  0  0999 V2000
   -2.3330   24.4520  -29.0330 C   0  0  0  0  0  0  0  0  0  0  0  0
   -3.1540   24.9240  -30.0970 O   0  0  0  0  0  0  0  0  0  0  0  0
   -4.4790   24.5140  -30.3280 C   0  0  0  0  0  0  0  0  0  0  0  0
   -5.5710   25.2530  -29.8380 C   0  0  0  0  0  0  0  0  0  0  0  0
   -6.8760   24.8280  -30.0780 C   0  0  0  0  0  0  0  0  0  0  0  0
   -7.1180   23.6660  -30.8070 C   0  0  0  0  0  0  0  0  0  0  0  0
   -6.0500   22.8960  -31.3170 C   0  0  0  0  0  0  0  0  0  0  0  0
   -4.7200   23.3360  -31.0680 C   0  0  0  0  0  0  0  0  0  0  0  0
   -3.6520   22.5790  -31.5690 C   0  0  0  0  0  0  0  0  0  0  0  0
   -3.8990   21.4220  -32.2950 C   0  0  0  0  0  0  0  0  0  0  0  0
   -5.2100   21.0160  -32.5240 C   0  0  0  0  0  0  0  0  0  0  0  0
   -6.2680   21.7410  -32.0440 N   0  0  0  0  0  0  0  0  0  0  0  0
   -7.6270   21.2510  -32.3240 C   0  0  0  0  0  0  0  0  0  0  0  0
   -2.7933   24.7166  -28.0696 H   0  0  0  0  0  0  0  0  0  0  0  0
   -2.2335   23.3588  -29.1039 H   0  0  0  0  0  0  0  0  0  0  0  0
   -1.3382   24.9161  -29.1039 H   0  0  0  0  0  0  0  0  0  0  0  0
   -5.3934   26.1728  -29.2614 H   0  0  0  0  0  0  0  0  0  0  0  0
   -7.7214   25.4144  -29.6889 H   0  0  0  0  0  0  0  0  0  0  0  0
   -8.1542   23.3442  -30.9877 H   0  0  0  0  0  0  0  0  0  0  0  0
   -2.6165   22.9023  -31.3866 H   0  0  0  0  0  0  0  0  0  0  0  0
   -3.0608   20.8279  -32.6881 H   0  0  0  0  0  0  0  0  0  0  0  0
   -5.3996   20.0981  -33.0997 H   0  0  0  0  0  0  0  0  0  0  0  0
   -8.1513   21.0620  -31.3756 H   0  0  0  0  0  0  0  0  0  0  0  0
   -8.1774   22.0073  -32.9028 H   0  0  0  0  0  0  0  0  0  0  0  0
   -7.5682   20.3175  -32.9028 H   0  0  0  0  0  0  0  0  0  0  0  0
  1  2  1  0
  2  3  1  0
  3  4  2  0
  4  5  1  0
  5  6  2  0
  6  7  1  0
  7  8  2  0
  8  9  1  0
  9 10  2  0
 10 11  1  0
 11 12  2  0
 12 13  1  0
  8  3  1  0
 12  7  1  0
  1 14  1  0
  1 15  1  0
  1 16  1  0
  4 17  1  0
  5 18  1  0
  6 19  1  0
  9 20  1  0
 10 21  1  0
 11 22  1  0
 13 23  1  0
 13 24  1  0
 13 25  1  0
M  CHG  1  12   1
M  END
>  <UniqueID>  (22) 
20

>  <SMILES>  (22) 
COc1cccc2c1ccc[n+]2C

>  <Energy>  (22) 
32.78356856625385

>  <Genealogy>  (22) 
COc1cccc2c1ccc[n+]2C (3D coordinates assigned)
COc1cccc2c1ccc[n+]2C (optimized conformer: 32.78356856625385 kcal/mol)

>  <smiles>  (22) 
COc1cccc2c1ccc[n+]2C

>  <score_type>  (22) 
oracle

>  <origin>  (22) 
adg

>  <m_score__min__energy>  (22) 
-5.1399999999999997

>  <m_primary>  (22) 
energy

$$$$
22:0
     RDKit          3D

 27 28  0  0  0  0  0  0  0  0999 V2000
   -3.0960   25.2970  -29.6580 F   0  0  0  0  0  0  0  0  0  0  0  0
   -4.2150   24.6580  -30.0800 C   0  0  0  0  0  0  0  0  0  0  0  0
   -5.4510   25.3090  -30.0320 C   0  0  0  0  0  0  0  0  0  0  0  0
   -6.6060   24.6510  -30.4660 C   0  0  0  0  0  0  0  0  0  0  0  0
   -6.5340   23.3320  -30.9450 C   0  0  0  0  0  0  0  0  0  0  0  0
   -7.7730   22.6200  -31.4210 C   0  0  0  0  0  0  0  0  0  0  0  0
   -7.4830   21.8160  -32.6090 N   0  0  0  0  0  0  0  0  0  0  0  0
   -7.4630   20.3750  -32.6340 C   0  0  0  0  0  0  0  0  0  0  0  0
   -8.3850   19.6040  -31.8980 C   0  0  0  0  0  0  0  0  0  0  0  0
   -8.3330   18.2070  -31.9440 C   0  0  0  0  0  0  0  0  0  0  0  0
   -7.3660   17.5660  -32.7220 C   0  0  0  0  0  0  0  0  0  0  0  0
   -6.4520   18.3210  -33.4590 C   0  0  0  0  0  0  0  0  0  0  0  0
   -6.5000   19.7180  -33.4180 C   0  0  0  0  0  0  0  0  0  0  0  0
   -5.2850   22.6900  -31.0000 C   0  0  0  0  0  0  0  0  0  0  0  0
   -4.1320   23.3500  -30.5650 C   0  0  0  0  0  0  0  0  0  0  0  0
   -5.5151   26.3395  -29.6526 H   0  0  0  0  0  0  0  0  0  0  0  0
   -7.5760   25.1687  -30.4322 H   0  0  0  0  0  0  0  0  0  0  0  0
   -8.1413   21.9616  -30.6204 H   0  0  0  0  0  0  0  0  0  0  0  0
   -8.5351   23.3701  -31.6788 H   0  0  0  0  0  0  0  0  0  0  0  0
   -7.2380   22.3320  -33.4850 H   0  0  0  0  0  0  0  0  0  0  0  0
   -9.1493   20.1033  -31.2844 H   0  0  0  0  0  0  0  0  0  0  0  0
   -9.0553   17.6117  -31.3662 H   0  0  0  0  0  0  0  0  0  0  0  0
   -7.3248   16.4672  -32.7539 H   0  0  0  0  0  0  0  0  0  0  0  0
   -5.6922   17.8159  -34.0735 H   0  0  0  0  0  0  0  0  0  0  0  0
   -5.7786   20.3066  -34.0038 H   0  0  0  0  0  0  0  0  0  0  0  0
   -5.2143   21.6629  -31.3873 H   0  0  0  0  0  0  0  0  0  0  0  0
   -3.1585   22.8393  -30.6045 H   0  0  0  0  0  0  0  0  0  0  0  0
  1  2  1  0
  2  3  2  0
  3  4  1  0
  4  5  2  0
  5  6  1  0
  6  7  1  0
  7  8  1  0
  8  9  2  0
  9 10  1  0
 10 11  2  0
 11 12  1  0
 12 13  2  0
  5 14  1  0
 14 15  2  0
 15  2  1  0
 13  8  1  0
  3 16  1  0
  4 17  1  0
  6 18  1  0
  6 19  1  0
  7 20  1  0
  9 21  1  0
 10 22  1  0
 11 23  1  0
 12 24  1  0
 13 25  1  0
 14 26  1  0
 15 27  1  0
M  END
>  <UniqueID>  (23) 
21

>  <SMILES>  (23) 
Fc1ccc(CNc2ccccc2)cc1

>  <Energy>  (23) 
26.858037968915333

>  <Genealogy>  (23) 
Fc1ccc(CNc2ccccc2)cc1 (3D coordinates assigned)
Fc1ccc(CNc2ccccc2)cc1 (optimized conformer: 26.858037968915333 kcal/mol)

>  <smiles>  (23) 
Fc1ccc(CNc2ccccc2)cc1

>  <score_type>  (23) 
oracle

>  <origin>  (23) 
adg

>  <m_score__min__energy>  (23) 
-6.4699999999999998

>  <m_primary>  (23) 
energy

$$$$
23:0
     RDKit          3D

 45 47  0  0  0  0  0  0  0  0999 V2000
   -4.2710   25.6620  -30.6270 O   0  0  0  0  0  0  0  0  0  0  0  0
   -3.6420   24.5910  -30.4250 C   0  0  0  0  0  0  0  0  0  0  0  0
   -2.4390   24.6360  -29.6440 N   0  0  0  0  0  0  0  0  0  0  0  0
   -2.3580   24.8540  -28.2000 C   0  0  0  0  0  0  0  0  0  0  0  0
   -2.1550   23.5350  -27.4230 C   0  0  0  0  0  0  0  0  0  0  0  0
   -2.0220   22.3480  -28.3050 N   0  0  0  0  0  0  0  0  0  0  0  0
   -3.0520   21.3240  -27.9700 C   0  0  0  0  0  0  0  0  0  0  0  0
   -2.4790   20.2020  -27.0860 C   0  0  0  0  0  0  0  0  0  0  0  0
   -1.4050   19.4950  -27.6930 O   0  0  0  0  0  0  0  0  0  0  0  0
   -0.6460   20.2830  -28.6010 C   0  0  0  0  0  0  0  0  0  0  0  0
   -0.6480   21.7840  -28.2610 C   0  0  0  0  0  0  0  0  0  0  0  0
   -4.1810   23.3320  -30.9720 C   0  0  0  0  0  0  0  0  0  0  0  0
   -3.3220   22.3130  -31.4080 C   0  0  0  0  0  0  0  0  0  0  0  0
   -3.8440   21.1250  -31.9260 C   0  0  0  0  0  0  0  0  0  0  0  0
   -5.2330   20.9390  -32.0310 C   0  0  0  0  0  0  0  0  0  0  0  0
   -5.7870   19.6740  -32.5780 C   0  0  0  0  0  0  0  0  0  0  0  0
   -6.8100   18.9860  -31.8960 C   0  0  0  0  0  0  0  0  0  0  0  0
   -7.3300   17.7960  -32.4130 C   0  0  0  0  0  0  0  0  0  0  0  0
   -6.8360   17.2790  -33.6130 C   0  0  0  0  0  0  0  0  0  0  0  0
   -5.8230   17.9510  -34.2990 C   0  0  0  0  0  0  0  0  0  0  0  0
   -5.3000   19.1420  -33.7860 C   0  0  0  0  0  0  0  0  0  0  0  0
   -6.0900   21.9730  -31.6130 C   0  0  0  0  0  0  0  0  0  0  0  0
   -5.5670   23.1610  -31.0950 C   0  0  0  0  0  0  0  0  0  0  0  0
   -1.5109   25.5235  -27.9895 H   0  0  0  0  0  0  0  0  0  0  0  0
   -3.3093   25.2976  -27.8709 H   0  0  0  0  0  0  0  0  0  0  0  0
   -1.2412   23.6238  -26.8171 H   0  0  0  0  0  0  0  0  0  0  0  0
   -3.0504   23.3812  -26.8028 H   0  0  0  0  0  0  0  0  0  0  0  0
   -2.2110   22.6580  -29.2880 H   0  0  0  0  0  0  0  0  0  0  0  0
   -3.8782   21.8130  -27.4331 H   0  0  0  0  0  0  0  0  0  0  0  0
   -3.4023   20.8724  -28.9099 H   0  0  0  0  0  0  0  0  0  0  0  0
   -2.1163   20.6483  -26.1483 H   0  0  0  0  0  0  0  0  0  0  0  0
   -3.2891   19.4774  -26.9169 H   0  0  0  0  0  0  0  0  0  0  0  0
    0.3938   19.9245  -28.5882 H   0  0  0  0  0  0  0  0  0  0  0  0
   -1.1123   20.1749  -29.5914 H   0  0  0  0  0  0  0  0  0  0  0  0
   -0.2364   21.9226  -27.2504 H   0  0  0  0  0  0  0  0  0  0  0  0
   -0.0342   22.3090  -29.0078 H   0  0  0  0  0  0  0  0  0  0  0  0
   -2.2325   22.4495  -31.3419 H   0  0  0  0  0  0  0  0  0  0  0  0
   -3.1612   20.3277  -32.2548 H   0  0  0  0  0  0  0  0  0  0  0  0
   -7.2022   19.3881  -30.9502 H   0  0  0  0  0  0  0  0  0  0  0  0
   -8.1292   17.2660  -31.8742 H   0  0  0  0  0  0  0  0  0  0  0  0
   -7.2456   16.3417  -34.0176 H   0  0  0  0  0  0  0  0  0  0  0  0
   -5.4357   17.5431  -35.2443 H   0  0  0  0  0  0  0  0  0  0  0  0
   -4.5017   19.6670  -34.3311 H   0  0  0  0  0  0  0  0  0  0  0  0
   -7.1796   21.8457  -31.6944 H   0  0  0  0  0  0  0  0  0  0  0  0
   -6.2471   23.9669  -30.7819 H   0  0  0  0  0  0  0  0  0  0  0  0
  1  2  2  0
  2  3  1  0
  3  4  1  0
  4  5  1  0
  5  6  1  0
  6  7  1  0
  7  8  1  0
  8  9  1  0
  9 10  1  0
 10 11  1  0
  2 12  1  0
 12 13  2  0
 13 14  1  0
 14 15  2  0
 15 16  1  0
 16 17  2  0
 17 18  1  0
 18 19  2  0
 19 20  1  0
 20 21  2  0
 15 22  1  0
 22 23  2  0
 11  6  1  0
 23 12  1  0
 21 16  1  0
  4 24  1  0
  4 25  1  0
  5 26  1  0
  5 27  1  0
  6 28  1  0
  7 29  1  0
  7 30  1  0
  8 31  1  0
  8 32  1  0
 10 33  1  0
 10 34  1  0
 11 35  1  0
 11 36  1  0
 13 37  1  0
 14 38  1  0
 17 39  1  0
 18 40  1  0
 19 41  1  0
 20 42  1  0
 21 43  1  0
 22 44  1  0
 23 45  1  0
M  CHG  2   3  -1   6   1
M  END
>  <UniqueID>  (24) 
22

>  <SMILES>  (24) 
O=C([N-]CC[NH+]1CCOCC1)c1ccc(-c2ccccc2)cc1

>  <Energy>  (24) 
70.4887136035876

>  <Genealogy>  (24) 
O=C([N-]CC[NH+]1CCOCC1)c1ccc(-c2ccccc2)cc1 (protonated)
O=C([N-]CC[NH+]1CCOCC1)c1ccc(-c2ccccc2)cc1 (3D coordinates assigned)
O=C([N-]CC[NH+]1CCOCC1)c1ccc(-c2ccccc2)cc1 (nonaromatic ring conformer: 70.4887136035876 kcal/mol)

>  <smiles>  (24) 
O=C(NCCN1CCOCC1)c1ccc(-c2ccccc2)cc1

>  <score_type>  (24) 
oracle

>  <origin>  (24) 
adg

>  <m_score__min__energy>  (24) 
-8.3399999999999999

>  <m_primary>  (24) 
energy

$$$$
24:0
     RDKit          3D

 36 38  0  0  0  0  0  0  0  0999 V2000
   -7.7898   23.6930  -32.4706 H   0  0  0  0  0  0  0  0  0  0  0  0
   -6.8310   23.4630  -31.9830 C   0  0  0  0  0  0  0  0  0  0  0  0
   -6.3860   22.1200  -31.9150 C   0  0  0  0  0  0  0  0  0  0  0  0
   -7.1360   21.0640  -32.4550 O   0  0  0  0  0  0  0  0  0  0  0  0
   -8.0930   20.2990  -31.7280 C   0  0  0  0  0  0  0  0  0  0  0  0
   -7.9259   20.4326  -30.6490 H   0  0  0  0  0  0  0  0  0  0  0  0
   -9.1068   20.6384  -31.9868 H   0  0  0  0  0  0  0  0  0  0  0  0
   -7.9852   19.2353  -31.9868 H   0  0  0  0  0  0  0  0  0  0  0  0
   -5.1570   21.8120  -31.2920 C   0  0  0  0  0  0  0  0  0  0  0  0
   -4.7690   20.4600  -31.2560 O   0  0  0  0  0  0  0  0  0  0  0  0
   -4.4240   19.6490  -32.3730 C   0  0  0  0  0  0  0  0  0  0  0  0
   -4.0164   18.6908  -32.0185 H   0  0  0  0  0  0  0  0  0  0  0  0
   -5.3209   19.4630  -32.9821 H   0  0  0  0  0  0  0  0  0  0  0  0
   -3.6680   20.1662  -32.9821 H   0  0  0  0  0  0  0  0  0  0  0  0
   -4.4070   22.8810  -30.7520 C   0  0  0  0  0  0  0  0  0  0  0  0
   -2.9220   22.8900  -29.9500 S   0  0  0  0  0  0  0  0  0  0  0  0
   -2.9360   24.5600  -29.7430 C   0  0  0  0  0  0  0  0  0  0  0  0
   -1.9840   25.2140  -29.1490 N   0  0  0  0  0  0  0  0  0  0  0  0
   -1.0800   24.6880  -28.1630 C   0  0  0  0  0  0  0  0  0  0  0  0
    0.1440   24.5320  -28.4190 O   0  0  0  0  0  0  0  0  0  0  0  0
   -1.6120   24.2800  -26.8190 C   0  0  1  0  0  0  0  0  0  0  0  0
   -2.0738   23.2862  -26.9143 H   0  0  0  0  0  0  0  0  0  0  0  0
   -0.5480   24.2370  -25.8900 O   0  0  0  0  0  0  0  0  0  0  0  0
   -0.8580   25.1230  -24.8400 C   0  0  0  0  0  0  0  0  0  0  0  0
    0.0369   25.7035  -24.5716 H   0  0  0  0  0  0  0  0  0  0  0  0
   -1.1969   24.5532  -23.9622 H   0  0  0  0  0  0  0  0  0  0  0  0
   -1.9540   26.0620  -25.2920 C   0  0  0  0  0  0  0  0  0  0  0  0
   -1.5340   26.9809  -25.7269 H   0  0  0  0  0  0  0  0  0  0  0  0
   -2.6044   26.3989  -24.4714 H   0  0  0  0  0  0  0  0  0  0  0  0
   -2.6760   25.2560  -26.3280 C   0  0  0  0  0  0  0  0  0  0  0  0
   -3.0314   25.8968  -27.1484 H   0  0  0  0  0  0  0  0  0  0  0  0
   -3.5719   24.7534  -25.9345 H   0  0  0  0  0  0  0  0  0  0  0  0
   -4.0440   25.1340  -30.2670 N   0  0  0  0  0  0  0  0  0  0  0  0
   -4.8560   24.1980  -30.8250 C   0  0  0  0  0  0  0  0  0  0  0  0
   -6.0670   24.5010  -31.4380 C   0  0  0  0  0  0  0  0  0  0  0  0
   -6.4192   25.5416  -31.4936 H   0  0  0  0  0  0  0  0  0  0  0  0
  1  2  1  0
  2  3  2  0
  3  4  1  0
  4  5  1  0
  5  6  1  0
  5  7  1  0
  5  8  1  0
  3  9  1  0
  9 10  1  0
 10 11  1  0
 11 12  1  0
 11 13  1  0
 11 14  1  0
  9 15  2  0
 15 16  1  0
 16 17  1  0
 17 18  2  0
 18 19  1  0
 19 20  2  0
 19 21  1  0
 21 22  1  6
 21 23  1  0
 23 24  1  0
 24 25  1  0
 24 26  1  0
 24 27  1  0
 27 28  1  0
 27 29  1  0
 27 30  1  0
 30 31  1  0
 30 32  1  0
 17 33  1  0
 33 34  1  0
 34 35  2  0
 35 36  1  0
 35  2  1  0
 34 15  1  0
 30 21  1  0
M  CHG  1  33  -1
M  END
>  <UniqueID>  (25) 
23

>  <SMILES>  (25) 
COc1ccc2[n-]/c(=N\C(=O)[C@@H]3CCCO3)sc2c1OC

>  <Energy>  (25) 
74.802700938348

>  <Genealogy>  (25) 
COc1ccc2[n-]c(=NC(=O)C3CCCO3)sc2c1OC (protonated)
COc1ccc2[n-]c(=NC(=O)[C@@H]3CCCO3)sc2c1OC (chirality)
COc1ccc2[n-]/c(=N\C(=O)[C@@H]3CCCO3)sc2c1OC (cis-trans isomerization)
COc1ccc2[n-]/c(=N\C(=O)[C@@H]3CCCO3)sc2c1OC (3D coordinates assigned)
COc1ccc2[n-]/c(=N\C(=O)[C@@H]3CCCO3)sc2c1OC (nonaromatic ring conformer: 74.802700938348 kcal/mol)

>  <smiles>  (25) 
COc1ccc2[nH]c(=NC(=O)C3CCCO3)sc2c1OC

>  <score_type>  (25) 
oracle

>  <origin>  (25) 
adg

>  <m_score__min__energy>  (25) 
-7.9800000000000004

>  <m_primary>  (25) 
energy

$$$$
25:0
     RDKit          3D

 38 38  0  0  0  0  0  0  0  0999 V2000
   -9.5460   21.7560  -31.9460 C   0  0  0  0  0  0  0  0  0  0  0  0
   -8.1450   22.0140  -31.4000 C   0  0  0  0  0  0  0  0  0  0  0  0
   -7.2400   20.9010  -31.7580 N   0  0  0  0  0  0  0  0  0  0  0  0
   -7.9450   19.8310  -32.5020 C   0  0  0  0  0  0  0  0  0  0  0  0
   -8.2300   18.6170  -31.6200 C   0  0  0  0  0  0  0  0  0  0  0  0
   -5.9690   21.3590  -32.3810 C   0  0  0  0  0  0  0  0  0  0  0  0
   -5.7190   22.8830  -32.3400 C   0  0  0  0  0  0  0  0  0  0  0  0
   -5.5020   23.3690  -30.9810 N   0  0  0  0  0  0  0  0  0  0  0  0
   -4.8200   22.7100  -30.0960 C   0  0  0  0  0  0  0  0  0  0  0  0
   -3.5240   23.2270  -29.5940 C   0  0  0  0  0  0  0  0  0  0  0  0
   -3.1180   24.5480  -29.8680 C   0  0  0  0  0  0  0  0  0  0  0  0
   -3.8590   25.4080  -30.6820 O   0  0  0  0  0  0  0  0  0  0  0  0
   -1.9590   25.0110  -29.3440 N   0  0  0  0  0  0  0  0  0  0  0  0
   -1.1510   24.2340  -28.5820 C   0  0  0  0  0  0  0  0  0  0  0  0
   -0.0930   24.7350  -28.1120 O   0  0  0  0  0  0  0  0  0  0  0  0
   -1.4840   22.9300  -28.3320 N   0  0  0  0  0  0  0  0  0  0  0  0
   -0.6130   22.0960  -27.4850 C   0  0  0  0  0  0  0  0  0  0  0  0
   -2.6720   22.4280  -28.8000 C   0  0  0  0  0  0  0  0  0  0  0  0
   -3.0160   21.2500  -28.5040 O   0  0  0  0  0  0  0  0  0  0  0  0
  -10.2477   21.6268  -31.1088 H   0  0  0  0  0  0  0  0  0  0  0  0
   -9.8629   22.6109  -32.5614 H   0  0  0  0  0  0  0  0  0  0  0  0
   -9.5375   20.8443  -32.5614 H   0  0  0  0  0  0  0  0  0  0  0  0
   -7.7558   22.9497  -31.8278 H   0  0  0  0  0  0  0  0  0  0  0  0
   -8.1978   22.0930  -30.3041 H   0  0  0  0  0  0  0  0  0  0  0  0
   -8.8989   20.2288  -32.8785 H   0  0  0  0  0  0  0  0  0  0  0  0
   -7.2965   19.5067  -33.3292 H   0  0  0  0  0  0  0  0  0  0  0  0
   -8.1615   18.9086  -30.5616 H   0  0  0  0  0  0  0  0  0  0  0  0
   -9.2412   18.2393  -31.8316 H   0  0  0  0  0  0  0  0  0  0  0  0
   -7.4925   17.8288  -31.8316 H   0  0  0  0  0  0  0  0  0  0  0  0
   -5.1375   20.8651  -31.8569 H   0  0  0  0  0  0  0  0  0  0  0  0
   -6.0422   21.0937  -33.4460 H   0  0  0  0  0  0  0  0  0  0  0  0
   -4.8293   23.1126  -32.9448 H   0  0  0  0  0  0  0  0  0  0  0  0
   -6.6138   23.3832  -32.7390 H   0  0  0  0  0  0  0  0  0  0  0  0
   -5.2083   21.7548  -29.7128 H   0  0  0  0  0  0  0  0  0  0  0  0
   -4.2900   25.1250  -31.5510 H   0  0  0  0  0  0  0  0  0  0  0  0
   -0.8268   22.3007  -26.4256 H   0  0  0  0  0  0  0  0  0  0  0  0
   -0.8022   21.0336  -27.6986 H   0  0  0  0  0  0  0  0  0  0  0  0
    0.4401   22.3311  -27.6986 H   0  0  0  0  0  0  0  0  0  0  0  0
  1  2  1  0
  2  3  1  0
  3  4  1  0
  4  5  1  0
  3  6  1  0
  6  7  1  0
  7  8  1  0
  8  9  2  3
  9 10  1  0
 10 11  2  0
 11 12  1  0
 11 13  1  0
 13 14  1  0
 14 15  2  0
 14 16  1  0
 16 17  1  0
 16 18  1  0
 18 19  2  0
 18 10  1  0
  1 20  1  0
  1 21  1  0
  1 22  1  0
  2 23  1  0
  2 24  1  0
  4 25  1  0
  4 26  1  0
  5 27  1  0
  5 28  1  0
  5 29  1  0
  6 30  1  0
  6 31  1  0
  7 32  1  0
  7 33  1  0
  9 34  1  0
 12 35  1  0
 17 36  1  0
 17 37  1  0
 17 38  1  0
M  CHG  1  13  -1
M  END
>  <UniqueID>  (26) 
24

>  <SMILES>  (26) 
CCN(CC)CCN=Cc1c(O)[n-]c(=O)n(C)c1=O

>  <Energy>  (26) 
44.10487314803849

>  <Genealogy>  (26) 
CCN(CC)CCN=Cc1c(O)[n-]c(=O)n(C)c1=O (protonated)
CCN(CC)CCN=Cc1c(O)[n-]c(=O)n(C)c1=O (3D coordinates assigned)
CCN(CC)CCN=Cc1c(O)[n-]c(=O)n(C)c1=O (optimized conformer: 44.10487314803849 kcal/mol)

>  <smiles>  (26) 
CCN(CC)CCN=Cc1c(O)[nH]c(=O)n(C)c1=O

>  <score_type>  (26) 
oracle

>  <origin>  (26) 
adg

>  <m_score__min__energy>  (26) 
-7.71

>  <m_primary>  (26) 
energy

$$$$
26:0
     RDKit          3D

 56 59  0  0  0  0  0  0  0  0999 V2000
   -7.3651   23.6409  -29.3091 H   0  0  0  0  0  0  0  0  0  0  0  0
   -7.2550   23.0010  -30.1970 C   0  0  0  0  0  0  0  0  0  0  0  0
   -8.3550   22.2850  -30.6750 C   0  0  0  0  0  0  0  0  0  0  0  0
   -9.3221   22.3608  -30.1563 H   0  0  0  0  0  0  0  0  0  0  0  0
   -8.2370   21.4700  -31.8110 C   0  0  0  0  0  0  0  0  0  0  0  0
   -9.4530   20.7380  -32.3140 C   0  0  0  0  0  0  0  0  0  0  0  0
  -10.0459   20.3811  -31.4590 H   0  0  0  0  0  0  0  0  0  0  0  0
  -10.0639   21.4186  -32.9252 H   0  0  0  0  0  0  0  0  0  0  0  0
   -9.1375   19.8796  -32.9252 H   0  0  0  0  0  0  0  0  0  0  0  0
   -6.9770   21.3440  -32.4420 C   0  0  0  0  0  0  0  0  0  0  0  0
   -6.7890   20.5030  -33.5900 N   0  0  0  0  0  0  0  0  0  0  0  0
   -6.4450   19.2510  -33.5380 C   0  0  0  0  0  0  0  0  0  0  0  0
   -5.4200   18.7730  -34.3000 N   0  0  0  0  0  0  0  0  0  0  0  0
   -5.0460   17.4670  -34.2680 C   0  0  0  0  0  0  0  0  0  0  0  0
   -3.9830   17.0210  -35.0610 C   0  0  0  0  0  0  0  0  0  0  0  0
   -3.4487   17.7276  -35.7132 H   0  0  0  0  0  0  0  0  0  0  0  0
   -3.6000   15.6760  -35.0240 C   0  0  0  0  0  0  0  0  0  0  0  0
   -2.7641   15.3265  -35.6478 H   0  0  0  0  0  0  0  0  0  0  0  0
   -4.2770   14.7740  -34.1960 C   0  0  0  0  0  0  0  0  0  0  0  0
   -3.9725   13.7173  -34.1716 H   0  0  0  0  0  0  0  0  0  0  0  0
   -5.3400   15.2120  -33.3990 C   0  0  0  0  0  0  0  0  0  0  0  0
   -5.8694   14.5008  -32.7479 H   0  0  0  0  0  0  0  0  0  0  0  0
   -5.7300   16.5590  -33.4310 C   0  0  0  0  0  0  0  0  0  0  0  0
   -6.7910   17.0290  -32.6470 C   0  0  0  0  0  0  0  0  0  0  0  0
   -7.3388   16.3380  -31.9894 H   0  0  0  0  0  0  0  0  0  0  0  0
   -7.1520   18.3770  -32.7020 C   0  0  0  0  0  0  0  0  0  0  0  0
   -7.9875   18.7507  -32.0918 H   0  0  0  0  0  0  0  0  0  0  0  0
   -5.8880   22.0880  -31.9730 C   0  0  0  0  0  0  0  0  0  0  0  0
   -4.9234   22.0278  -32.4983 H   0  0  0  0  0  0  0  0  0  0  0  0
   -6.0100   22.9110  -30.8400 C   0  0  0  0  0  0  0  0  0  0  0  0
   -4.8430   23.6850  -30.3500 C   0  0  0  0  0  0  0  0  0  0  0  0
   -4.6090   24.8280  -30.8310 O   0  0  0  0  0  0  0  0  0  0  0  0
   -3.9470   23.1270  -29.3740 N   0  0  0  0  0  0  0  0  0  0  0  0
   -3.8510   22.0880  -29.3320 H   0  0  0  0  0  0  0  0  0  0  0  0
   -3.0610   23.9170  -28.5600 C   0  0  0  0  0  0  0  0  0  0  0  0
   -3.4990   24.5110  -27.3630 C   0  0  0  0  0  0  0  0  0  0  0  0
   -4.5446   24.3904  -27.0433 H   0  0  0  0  0  0  0  0  0  0  0  0
   -2.6130   25.2540  -26.5770 C   0  0  0  0  0  0  0  0  0  0  0  0
   -2.9664   25.7200  -25.6454 H   0  0  0  0  0  0  0  0  0  0  0  0
   -1.2750   25.4080  -26.9710 C   0  0  0  0  0  0  0  0  0  0  0  0
   -0.3090   26.1900  -26.1180 C   0  0  0  0  0  0  0  0  0  0  0  0
    0.2508   25.4940  -25.4760 H   0  0  0  0  0  0  0  0  0  0  0  0
    0.3795   26.7395  -26.7768 H   0  0  0  0  0  0  0  0  0  0  0  0
   -1.0290   27.1600  -25.2690 N   0  0  0  0  0  0  0  0  0  0  0  0
   -0.7860   26.8640  -23.8490 C   0  0  0  0  0  0  0  0  0  0  0  0
   -1.3608   27.5641  -23.2249 H   0  0  0  0  0  0  0  0  0  0  0  0
   -1.1019   25.8334  -23.6300 H   0  0  0  0  0  0  0  0  0  0  0  0
    0.2864   26.9731  -23.6300 H   0  0  0  0  0  0  0  0  0  0  0  0
   -0.5980   28.5380  -25.5650 C   0  0  0  0  0  0  0  0  0  0  0  0
   -0.4286   29.0796  -24.6227 H   0  0  0  0  0  0  0  0  0  0  0  0
    0.3353   28.5133  -26.1466 H   0  0  0  0  0  0  0  0  0  0  0  0
   -1.3791   29.0495  -26.1466 H   0  0  0  0  0  0  0  0  0  0  0  0
   -0.8300   24.7940  -28.1510 C   0  0  0  0  0  0  0  0  0  0  0  0
    0.2207   24.8977  -28.4598 H   0  0  0  0  0  0  0  0  0  0  0  0
   -1.7160   24.0510  -28.9360 C   0  0  0  0  0  0  0  0  0  0  0  0
   -1.3559   23.5674  -29.8560 H   0  0  0  0  0  0  0  0  0  0  0  0
  1  2  1  0
  2  3  2  0
  3  4  1  0
  3  5  1  0
  5  6  1  0
  6  7  1  0
  6  8  1  0
  6  9  1  0
  5 10  2  0
 10 11  1  0
 11 12  2  0
 12 13  1  0
 13 14  1  0
 14 15  2  0
 15 16  1  0
 15 17  1  0
 17 18  1  0
 17 19  2  0
 19 20  1  0
 19 21  1  0
 21 22  1  0
 21 23  2  0
 23 24  1  0
 24 25  1  0
 24 26  2  0
 26 27  1  0
 10 28  1  0
 28 29  1  0
 28 30  2  0
 30 31  1  0
 31 32  2  0
 31 33  1  0
 33 34  1  0
 33 35  1  0
 35 36  2  0
 36 37  1  0
 36 38  1  0
 38 39  1  0
 38 40  2  0
 40 41  1  0
 41 42  1  0
 41 43  1  0
 41 44  1  0
 44 45  1  0
 45 46  1  0
 45 47  1  0
 45 48  1  0
 44 49  1  0
 49 50  1  0
 49 51  1  0
 49 52  1  0
 40 53  1  0
 53 54  1  0
 53 55  2  0
 55 56  1  0
 30  2  1  0
 55 35  1  0
 26 12  1  0
 23 14  1  0
M  CHG  1  13  -1
M  END
>  <UniqueID>  (27) 
25

>  <SMILES>  (27) 
Cc1ccc(C(=O)Nc2ccc(CN(C)C)cc2)cc1/N=c1/ccc2ccccc2[n-]1

>  <Energy>  (27) 
76.74431007441291

>  <Genealogy>  (27) 
Cc1ccc(C(=O)Nc2ccc(CN(C)C)cc2)cc1N=c1ccc2ccccc2[n-]1 (protonated)
Cc1ccc(C(=O)Nc2ccc(CN(C)C)cc2)cc1/N=c1/ccc2ccccc2[n-]1 (cis-trans isomerization)
Cc1ccc(C(=O)Nc2ccc(CN(C)C)cc2)cc1/N=c1/ccc2ccccc2[n-]1 (3D coordinates assigned)
Cc1ccc(C(=O)Nc2ccc(CN(C)C)cc2)cc1/N=c1/ccc2ccccc2[n-]1 (optimized conformer: 76.74431007441291 kcal/mol)

>  <smiles>  (27) 
Cc1ccc(C(=O)Nc2ccc(CN(C)C)cc2)cc1N=c1ccc2ccccc2[nH]1

>  <score_type>  (27) 
oracle

>  <origin>  (27) 
adg

>  <m_score__min__energy>  (27) 
-11.67

>  <m_primary>  (27) 
energy

$$$$
27:0
     RDKit          3D

 29 31  0  0  0  0  0  0  0  0999 V2000
   -5.7300   26.3860  -30.5170 O   0  0  0  0  0  0  0  0  0  0  0  0
   -5.1260   25.2990  -30.7140 C   0  0  0  0  0  0  0  0  0  0  0  0
   -3.7170   25.2370  -30.4560 N   0  0  0  0  0  0  0  0  0  0  0  0
   -3.0870   24.5470  -29.3680 C   0  0  0  0  0  0  0  0  0  0  0  0
   -1.7750   24.8410  -28.9610 C   0  0  0  0  0  0  0  0  0  0  0  0
   -1.2110   24.1560  -27.8850 C   0  0  0  0  0  0  0  0  0  0  0  0
   -1.9670   23.1940  -27.2130 C   0  0  0  0  0  0  0  0  0  0  0  0
   -3.2450   22.9350  -27.6020 N   0  0  0  0  0  0  0  0  0  0  0  0
   -3.8150   23.5920  -28.6500 C   0  0  0  0  0  0  0  0  0  0  0  0
   -5.8930   24.1140  -31.1460 C   0  0  0  0  0  0  0  0  0  0  0  0
   -7.2320   23.8790  -30.8380 C   0  0  0  0  0  0  0  0  0  0  0  0
   -7.5220   22.6630  -31.4180 C   0  0  0  0  0  0  0  0  0  0  0  0
   -8.7060   21.9290  -31.4390 C   0  0  0  0  0  0  0  0  0  0  0  0
   -8.6980   20.6940  -32.1150 C   0  0  0  0  0  0  0  0  0  0  0  0
   -7.5210   20.2290  -32.7430 C   0  0  0  0  0  0  0  0  0  0  0  0
   -6.3400   20.9950  -32.7020 C   0  0  0  0  0  0  0  0  0  0  0  0
   -6.3800   22.2150  -32.0270 C   0  0  0  0  0  0  0  0  0  0  0  0
   -5.3740   23.0890  -31.8650 N   0  0  0  0  0  0  0  0  0  0  0  0
   -1.1934   25.6103  -29.4901 H   0  0  0  0  0  0  0  0  0  0  0  0
   -0.1798   24.3718  -27.5688 H   0  0  0  0  0  0  0  0  0  0  0  0
   -1.5287   22.6441  -26.3671 H   0  0  0  0  0  0  0  0  0  0  0  0
   -3.8020   22.2190  -27.0850 H   0  0  0  0  0  0  0  0  0  0  0  0
   -4.8544   23.3704  -28.9338 H   0  0  0  0  0  0  0  0  0  0  0  0
   -7.9093   24.5235  -30.2585 H   0  0  0  0  0  0  0  0  0  0  0  0
   -9.6154   22.3014  -30.9447 H   0  0  0  0  0  0  0  0  0  0  0  0
   -9.6145   20.0870  -32.1545 H   0  0  0  0  0  0  0  0  0  0  0  0
   -7.5271   19.2621  -33.2675 H   0  0  0  0  0  0  0  0  0  0  0  0
   -5.4170   20.6431  -33.1860 H   0  0  0  0  0  0  0  0  0  0  0  0
   -4.3930   22.9800  -32.2040 H   0  0  0  0  0  0  0  0  0  0  0  0
  1  2  2  0
  2  3  1  0
  3  4  1  0
  4  5  2  0
  5  6  1  0
  6  7  2  0
  7  8  1  0
  8  9  2  0
  2 10  1  0
 10 11  2  0
 11 12  1  0
 12 13  2  0
 13 14  1  0
 14 15  2  0
 15 16  1  0
 16 17  2  0
 17 18  1  0
  9  4  1  0
 18 10  1  0
 17 12  1  0
  5 19  1  0
  6 20  1  0
  7 21  1  0
  8 22  1  0
  9 23  1  0
 11 24  1  0
 13 25  1  0
 14 26  1  0
 15 27  1  0
 16 28  1  0
 18 29  1  0
M  CHG  2   3  -1   8   1
M  END
>  <UniqueID>  (28) 
26

>  <SMILES>  (28) 
O=C([N-]c1ccc[nH+]c1)c1cc2ccccc2[nH]1

>  <Energy>  (28) 
69.21456342080506

>  <Genealogy>  (28) 
O=C([N-]c1ccc[nH+]c1)c1cc2ccccc2[nH]1 (protonated)
O=C([N-]c1ccc[nH+]c1)c1cc2ccccc2[nH]1 (3D coordinates assigned)
O=C([N-]c1ccc[nH+]c1)c1cc2ccccc2[nH]1 (optimized conformer: 69.21456342080506 kcal/mol)

>  <smiles>  (28) 
O=C(Nc1cccnc1)c1cc2ccccc2[nH]1

>  <score_type>  (28) 
oracle

>  <origin>  (28) 
adg

>  <m_score__min__energy>  (28) 
-8.3599999999999994

>  <m_primary>  (28) 
energy

$$$$
28:0
     RDKit          3D

 39 41  0  0  0  0  0  0  0  0999 V2000
   -5.0203   17.2039  -35.6471 H   0  0  0  0  0  0  0  0  0  0  0  0
   -5.5680   17.4930  -34.7380 C   0  0  0  0  0  0  0  0  0  0  0  0
   -6.0800   18.7470  -34.6270 N   0  0  0  0  0  0  0  0  0  0  0  0
   -6.7720   19.1490  -33.5250 C   0  0  0  0  0  0  0  0  0  0  0  0
   -7.3050   20.4410  -33.4380 O   0  0  0  0  0  0  0  0  0  0  0  0
   -6.7760   21.4650  -32.6410 C   0  0  0  0  0  0  0  0  0  0  0  0
   -7.6610   22.2710  -31.9150 C   0  0  0  0  0  0  0  0  0  0  0  0
   -8.7441   22.0910  -31.9824 H   0  0  0  0  0  0  0  0  0  0  0  0
   -7.1780   23.3030  -31.1050 C   0  0  0  0  0  0  0  0  0  0  0  0
   -7.8824   23.9409  -30.5510 H   0  0  0  0  0  0  0  0  0  0  0  0
   -5.7990   23.5270  -30.9970 C   0  0  0  0  0  0  0  0  0  0  0  0
   -5.1890   24.8370  -29.9910 S   0  0  0  0  0  0  0  0  0  0  0  0
   -4.2250   25.6710  -30.7890 O   0  0  0  0  0  0  0  0  0  0  0  0
   -6.3380   25.6960  -29.5420 O   0  0  0  0  0  0  0  0  0  0  0  0
   -4.3840   24.1510  -28.6140 N   0  0  0  0  0  0  0  0  0  0  0  0
   -3.1130   24.2340  -28.3360 C   0  0  0  0  0  0  0  0  0  0  0  0
   -2.4400   23.2490  -27.5820 C   0  0  0  0  0  0  0  0  0  0  0  0
   -2.9856   22.3711  -27.2057 H   0  0  0  0  0  0  0  0  0  0  0  0
   -1.0780   23.3960  -27.3170 C   0  0  0  0  0  0  0  0  0  0  0  0
   -0.5461   22.6331  -26.7296 H   0  0  0  0  0  0  0  0  0  0  0  0
   -0.3920   24.5100  -27.7970 C   0  0  0  0  0  0  0  0  0  0  0  0
    0.9310   24.6620  -27.5460 F   0  0  0  0  0  0  0  0  0  0  0  0
   -1.0830   25.4690  -28.5390 C   0  0  0  0  0  0  0  0  0  0  0  0
   -0.5521   26.3532  -28.9216 H   0  0  0  0  0  0  0  0  0  0  0  0
   -2.4120   25.3140  -28.7910 N   0  0  0  0  0  0  0  0  0  0  0  0
   -2.9010   26.0490  -29.3500 H   0  0  0  0  0  0  0  0  0  0  0  0
   -4.9080   22.7110  -31.7080 C   0  0  0  0  0  0  0  0  0  0  0  0
   -3.8246   22.8834  -31.6275 H   0  0  0  0  0  0  0  0  0  0  0  0
   -5.3900   21.6790  -32.5190 C   0  0  0  0  0  0  0  0  0  0  0  0
   -4.5030   20.8600  -33.1380 F   0  0  0  0  0  0  0  0  0  0  0  0
   -6.9930   18.2460  -32.4820 C   0  0  0  0  0  0  0  0  0  0  0  0
   -7.5687   18.5527  -31.5963 H   0  0  0  0  0  0  0  0  0  0  0  0
   -6.4780   16.9520  -32.5720 C   0  0  0  0  0  0  0  0  0  0  0  0
   -6.6553   16.2337  -31.7579 H   0  0  0  0  0  0  0  0  0  0  0  0
   -5.7350   16.5640  -33.6970 C   0  0  0  0  0  0  0  0  0  0  0  0
   -5.2170   15.1550  -33.8310 C   0  0  0  0  0  0  0  0  0  0  0  0
   -4.8380   14.6900  -32.5860 F   0  0  0  0  0  0  0  0  0  0  0  0
   -6.1950   14.3210  -34.3450 F   0  0  0  0  0  0  0  0  0  0  0  0
   -4.1240   15.1160  -34.6790 F   0  0  0  0  0  0  0  0  0  0  0  0
  1  2  1  0
  2  3  2  0
  3  4  1  0
  4  5  1  0
  5  6  1  0
  6  7  2  0
  7  8  1  0
  7  9  1  0
  9 10  1  0
  9 11  2  0
 11 12  1  0
 12 13  2  0
 12 14  2  0
 12 15  1  0
 15 16  2  0
 16 17  1  0
 17 18  1  0
 17 19  2  0
 19 20  1  0
 19 21  1  0
 21 22  1  0
 21 23  2  0
 23 24  1  0
 23 25  1  0
 25 26  1  0
 11 27  1  0
 27 28  1  0
 27 29  2  0
 29 30  1  0
  4 31  2  0
 31 32  1  0
 31 33  1  0
 33 34  1  0
 33 35  2  0
 35 36  1  0
 36 37  1  0
 36 38  1  0
 36 39  1  0
 35  2  1  0
 29  6  1  0
 25 16  1  0
M  END
>  <UniqueID>  (29) 
27

>  <SMILES>  (29) 
O=S(=O)(/N=c1\ccc(F)c[nH]1)c1ccc(Oc2ccc(C(F)(F)F)cn2)c(F)c1

>  <Energy>  (29) 
55.92128293919694

>  <Genealogy>  (29) 
O=S(=O)(/N=c1\ccc(F)c[nH]1)c1ccc(Oc2ccc(C(F)(F)F)cn2)c(F)c1 (cis-trans isomerization)
O=S(=O)(/N=c1\ccc(F)c[nH]1)c1ccc(Oc2ccc(C(F)(F)F)cn2)c(F)c1 (3D coordinates assigned)
O=S(=O)(/N=c1\ccc(F)c[nH]1)c1ccc(Oc2ccc(C(F)(F)F)cn2)c(F)c1 (optimized conformer: 55.92128293919694 kcal/mol)

>  <smiles>  (29) 
O=S(=O)(N=c1ccc(F)c[nH]1)c1ccc(Oc2ccc(C(F)(F)F)cn2)c(F)c1

>  <score_type>  (29) 
oracle

>  <origin>  (29) 
adg

>  <m_score__min__energy>  (29) 
-8.8499999999999996

>  <m_primary>  (29) 
energy

$$$$
29:0
     RDKit          3D

 45 49  0  0  0  0  0  0  0  0999 V2000
   -5.4890   20.9160  -32.0070 C   0  0  0  0  0  0  0  0  0  0  0  0
   -4.9910   22.1390  -31.7560 C   0  0  0  0  0  0  0  0  0  0  0  0
   -3.6170   22.2440  -31.1950 C   0  0  0  0  0  0  0  0  0  0  0  0
   -3.3990   22.8990  -29.9580 C   0  0  0  0  0  0  0  0  0  0  0  0
   -4.4470   23.5180  -29.2410 C   0  0  0  0  0  0  0  0  0  0  0  0
   -4.1980   24.1520  -28.0220 C   0  0  0  0  0  0  0  0  0  0  0  0
   -2.9060   24.1870  -27.5010 C   0  0  0  0  0  0  0  0  0  0  0  0
   -1.8540   23.5910  -28.1970 C   0  0  0  0  0  0  0  0  0  0  0  0
   -2.0870   22.9480  -29.4250 C   0  0  0  0  0  0  0  0  0  0  0  0
   -1.0490   22.3790  -30.0990 N   0  0  0  0  0  0  0  0  0  0  0  0
   -1.2250   21.7550  -31.2970 C   0  0  0  0  0  0  0  0  0  0  0  0
   -0.1220   21.1890  -31.9580 C   0  0  0  0  0  0  0  0  0  0  0  0
   -0.2860   20.5460  -33.1840 C   0  0  0  0  0  0  0  0  0  0  0  0
   -1.5510   20.4620  -33.7650 C   0  0  0  0  0  0  0  0  0  0  0  0
   -2.6590   21.0190  -33.1220 C   0  0  0  0  0  0  0  0  0  0  0  0
   -2.5140   21.6730  -31.8780 C   0  0  0  0  0  0  0  0  0  0  0  0
   -5.7180   23.4090  -32.0570 C   0  0  0  0  0  0  0  0  0  0  0  0
   -6.9940   23.5030  -31.2320 C   0  0  0  0  0  0  0  0  0  0  0  0
   -8.1480   22.8220  -31.9470 C   0  0  0  0  0  0  0  0  0  0  0  0
   -8.0920   21.3110  -32.0560 C   0  0  0  0  0  0  0  0  0  0  0  0
   -9.3580   20.6960  -32.1700 C   0  0  0  0  0  0  0  0  0  0  0  0
   -9.4880   19.3170  -32.3060 C   0  0  0  0  0  0  0  0  0  0  0  0
   -8.3570   18.5150  -32.3410 C   0  0  0  0  0  0  0  0  0  0  0  0
   -7.0920   19.0900  -32.2470 C   0  0  0  0  0  0  0  0  0  0  0  0
   -6.9180   20.4850  -32.1140 C   0  0  0  0  0  0  0  0  0  0  0  0
   -4.7424   20.1217  -32.1542 H   0  0  0  0  0  0  0  0  0  0  0  0
   -5.4692   23.5004  -29.6469 H   0  0  0  0  0  0  0  0  0  0  0  0
   -5.0243   24.6253  -27.4713 H   0  0  0  0  0  0  0  0  0  0  0  0
   -2.7153   24.6855  -26.5392 H   0  0  0  0  0  0  0  0  0  0  0  0
   -0.8358   23.6245  -27.7822 H   0  0  0  0  0  0  0  0  0  0  0  0
   -0.0890   22.4280  -29.6880 H   0  0  0  0  0  0  0  0  0  0  0  0
    0.8782   21.2537  -31.5049 H   0  0  0  0  0  0  0  0  0  0  0  0
    0.5832   20.1045  -33.6936 H   0  0  0  0  0  0  0  0  0  0  0  0
   -1.6768   19.9553  -34.7332 H   0  0  0  0  0  0  0  0  0  0  0  0
   -3.6528   20.9478  -33.5881 H   0  0  0  0  0  0  0  0  0  0  0  0
   -5.0682   24.2634  -31.8168 H   0  0  0  0  0  0  0  0  0  0  0  0
   -5.9835   23.4218  -33.1244 H   0  0  0  0  0  0  0  0  0  0  0  0
   -6.8323   23.0137  -30.2602 H   0  0  0  0  0  0  0  0  0  0  0  0
   -7.2444   24.5644  -31.0884 H   0  0  0  0  0  0  0  0  0  0  0  0
   -9.0718   23.0823  -31.4096 H   0  0  0  0  0  0  0  0  0  0  0  0
   -8.0977   23.1862  -32.9838 H   0  0  0  0  0  0  0  0  0  0  0  0
  -10.2627   21.3215  -32.1509 H   0  0  0  0  0  0  0  0  0  0  0  0
  -10.4870   18.8635  -32.3857 H   0  0  0  0  0  0  0  0  0  0  0  0
   -8.4591   17.4245  -32.4430 H   0  0  0  0  0  0  0  0  0  0  0  0
   -6.2049   18.4402  -32.2772 H   0  0  0  0  0  0  0  0  0  0  0  0
  1  2  2  0
  2  3  1  0
  3  4  1  0
  4  5  2  0
  5  6  1  0
  6  7  2  0
  7  8  1  0
  8  9  2  0
  9 10  1  0
 10 11  2  0
 11 12  1  0
 12 13  2  0
 13 14  1  0
 14 15  2  0
 15 16  1  0
  2 17  1  0
 17 18  1  0
 18 19  1  0
 19 20  1  0
 20 21  2  0
 21 22  1  0
 22 23  2  0
 23 24  1  0
 24 25  2  0
 25  1  1  0
 16  3  2  0
 25 20  1  0
  9  4  1  0
 16 11  1  0
  1 26  1  0
  5 27  1  0
  6 28  1  0
  7 29  1  0
  8 30  1  0
 10 31  1  0
 12 32  1  0
 13 33  1  0
 14 34  1  0
 15 35  1  0
 17 36  1  0
 17 37  1  0
 18 38  1  0
 18 39  1  0
 19 40  1  0
 19 41  1  0
 21 42  1  0
 22 43  1  0
 23 44  1  0
 24 45  1  0
M  CHG  1  10   1
M  END
>  <UniqueID>  (30) 
28

>  <SMILES>  (30) 
C1=C(c2c3ccccc3[nH+]c3ccccc23)CCCc2ccccc21

>  <Energy>  (30) 
82.44718708389512

>  <Genealogy>  (30) 
C1=C(c2c3ccccc3[nH+]c3ccccc23)CCCc2ccccc21 (protonated)
C1=C(c2c3ccccc3[nH+]c3ccccc23)CCCc2ccccc21 (3D coordinates assigned)
C1=C(c2c3ccccc3[nH+]c3ccccc23)CCCc2ccccc21 (nonaromatic ring conformer: 82.44718708389512 kcal/mol)

>  <smiles>  (30) 
C1=C(c2c3ccccc3nc3ccccc23)CCCc2ccccc21

>  <score_type>  (30) 
oracle

>  <origin>  (30) 
adg

>  <m_score__min__energy>  (30) 
-7.3600000000000003

>  <m_primary>  (30) 
energy

$$$$
30:0
     RDKit          3D

 31 32  0  0  0  0  0  0  0  0999 V2000
   -6.4470   25.5970  -29.3860 C   0  0  0  0  0  0  0  0  0  0  0  0
   -5.4120   25.2590  -30.8440 S   0  0  0  0  0  0  0  0  0  0  0  0
   -6.1110   23.6290  -31.1110 C   0  0  0  0  0  0  0  0  0  0  0  0
   -5.2920   22.4970  -31.0510 C   0  0  0  0  0  0  0  0  0  0  0  0
   -5.8350   21.2260  -31.2590 C   0  0  0  0  0  0  0  0  0  0  0  0
   -7.2120   21.0700  -31.5110 C   0  0  0  0  0  0  0  0  0  0  0  0
   -7.7960   19.6940  -31.7820 C   0  0  2  0  0  0  0  0  0  0  0  0
   -6.9450   18.6650  -31.2460 N   0  0  0  0  0  0  0  0  0  0  0  0
   -6.5890   17.8470  -32.1530 C   0  0  0  0  0  0  0  0  0  0  0  0
   -5.7340   16.6520  -31.8610 C   0  0  0  0  0  0  0  0  0  0  0  0
   -7.1480   18.2050  -33.4850 C   0  0  2  0  0  0  0  0  0  0  0  0
   -6.0880   18.4560  -34.4670 N   0  0  0  0  0  0  0  0  0  0  0  0
   -7.9320   19.4280  -33.2330 N   0  0  0  0  0  0  0  0  0  0  0  0
   -8.0250   22.2170  -31.5850 C   0  0  0  0  0  0  0  0  0  0  0  0
   -9.3490   22.1120  -31.8640 F   0  0  0  0  0  0  0  0  0  0  0  0
   -7.4760   23.4870  -31.3770 C   0  0  0  0  0  0  0  0  0  0  0  0
   -5.8656   25.4071  -28.4717 H   0  0  0  0  0  0  0  0  0  0  0  0
   -6.7717   26.6479  -29.4025 H   0  0  0  0  0  0  0  0  0  0  0  0
   -7.3293   24.9403  -29.4025 H   0  0  0  0  0  0  0  0  0  0  0  0
   -4.2181   22.6071  -30.8397 H   0  0  0  0  0  0  0  0  0  0  0  0
   -5.1823   20.3412  -31.2257 H   0  0  0  0  0  0  0  0  0  0  0  0
   -8.7858   19.6816  -31.3022 H   0  0  0  0  0  0  0  0  0  0  0  0
   -5.6424   16.5239  -30.7723 H   0  0  0  0  0  0  0  0  0  0  0  0
   -6.1964   15.7547  -32.2981 H   0  0  0  0  0  0  0  0  0  0  0  0
   -4.7355   16.7999  -32.2981 H   0  0  0  0  0  0  0  0  0  0  0  0
   -7.7546   17.3913  -33.9093 H   0  0  0  0  0  0  0  0  0  0  0  0
   -5.5630   17.5690  -34.6500 H   0  0  0  0  0  0  0  0  0  0  0  0
   -6.5270   18.7530  -35.3690 H   0  0  0  0  0  0  0  0  0  0  0  0
   -7.5930   20.2310  -33.8160 H   0  0  0  0  0  0  0  0  0  0  0  0
   -8.9390   19.2560  -33.4660 H   0  0  0  0  0  0  0  0  0  0  0  0
   -8.1208   24.3770  -31.4230 H   0  0  0  0  0  0  0  0  0  0  0  0
  1  2  1  0
  2  3  1  0
  3  4  2  0
  4  5  1  0
  5  6  2  0
  6  7  1  0
  7  8  1  0
  8  9  2  0
  9 10  1  0
  9 11  1  0
 11 12  1  0
 11 13  1  0
  6 14  1  0
 14 15  1  0
 14 16  2  0
 16  3  1  0
 13  7  1  0
  1 17  1  0
  1 18  1  0
  1 19  1  0
  4 20  1  0
  5 21  1  0
  7 22  1  1
 10 23  1  0
 10 24  1  0
 10 25  1  0
 11 26  1  6
 12 27  1  0
 12 28  1  0
 13 29  1  0
 13 30  1  0
 16 31  1  0
M  CHG  1  13   1
M  END
>  <UniqueID>  (31) 
29

>  <SMILES>  (31) 
CSc1ccc([C@@H]2N=C(C)[C@H](N)[NH2+]2)c(F)c1

>  <Energy>  (31) 
34.21595808152102

>  <Genealogy>  (31) 
CSc1ccc(C2N=C(C)C(N)[NH2+]2)c(F)c1 (protonated)
CSc1ccc([C@@H]2N=C(C)[C@H](N)[NH2+]2)c(F)c1 (chirality)
CSc1ccc([C@@H]2N=C(C)[C@H](N)[NH2+]2)c(F)c1 (3D coordinates assigned)
CSc1ccc([C@@H]2N=C(C)[C@H](N)[NH2+]2)c(F)c1 (nonaromatic ring conformer: 34.21595808152102 kcal/mol)

>  <smiles>  (31) 
CSc1ccc(C2N=C(C)C(N)N2)c(F)c1

>  <score_type>  (31) 
oracle

>  <origin>  (31) 
adg

>  <m_score__min__energy>  (31) 
-6.0899999999999999

>  <m_primary>  (31) 
energy

$$$$
31:0
     RDKit          3D

 43 44  0  0  0  0  0  0  0  0999 V2000
   -4.4250   14.8230  -34.5880 C   0  0  0  0  0  0  0  0  0  0  0  0
   -4.9960   16.1150  -34.0830 C   0  0  0  0  0  0  0  0  0  0  0  0
   -5.1460   17.2050  -34.9500 C   0  0  0  0  0  0  0  0  0  0  0  0
   -5.7160   18.3940  -34.4940 C   0  0  0  0  0  0  0  0  0  0  0  0
   -6.1500   18.5160  -33.1630 C   0  0  0  0  0  0  0  0  0  0  0  0
   -6.7690   19.7340  -32.7160 N   0  0  0  0  0  0  0  0  0  0  0  0
   -8.1720   19.8470  -32.4270 C   0  0  0  0  0  0  0  0  0  0  0  0
   -8.9520   18.8810  -32.6510 O   0  0  0  0  0  0  0  0  0  0  0  0
   -8.7380   21.1470  -31.9370 C   0  0  0  0  0  0  0  0  0  0  0  0
   -7.6530   22.0780  -31.5670 N   0  0  0  0  0  0  0  0  0  0  0  0
   -7.6090   22.3080  -30.1030 C   0  0  0  0  0  0  0  0  0  0  0  0
   -6.8550   23.6010  -29.7190 C   0  0  0  0  0  0  0  0  0  0  0  0
   -5.9140   24.0540  -30.7630 N   0  0  0  0  0  0  0  0  0  0  0  0
   -4.5930   23.3900  -30.7240 C   0  0  0  0  0  0  0  0  0  0  0  0
   -4.4190   22.3920  -31.7930 C   0  0  0  0  0  0  0  0  0  0  0  0
   -4.2840   21.6050  -32.6300 N   0  0  0  0  0  0  0  0  0  0  0  0
   -6.5080   24.1780  -32.1160 C   0  0  0  0  0  0  0  0  0  0  0  0
   -7.7910   23.3520  -32.2890 C   0  0  0  0  0  0  0  0  0  0  0  0
   -6.0190   17.4130  -32.2890 C   0  0  0  0  0  0  0  0  0  0  0  0
   -6.4910   17.4950  -30.8620 C   0  0  0  0  0  0  0  0  0  0  0  0
   -5.4530   16.2170  -32.7620 C   0  0  0  0  0  0  0  0  0  0  0  0
   -4.1443   14.1879  -33.7349 H   0  0  0  0  0  0  0  0  0  0  0  0
   -5.1775   14.3038  -35.1997 H   0  0  0  0  0  0  0  0  0  0  0  0
   -3.5345   15.0299  -35.1997 H   0  0  0  0  0  0  0  0  0  0  0  0
   -4.8129   17.1231  -35.9951 H   0  0  0  0  0  0  0  0  0  0  0  0
   -5.8268   19.2442  -35.1831 H   0  0  0  0  0  0  0  0  0  0  0  0
   -6.1910   20.6040  -32.6820 H   0  0  0  0  0  0  0  0  0  0  0  0
   -9.3471   21.5995  -32.7334 H   0  0  0  0  0  0  0  0  0  0  0  0
   -9.3575   20.9526  -31.0491 H   0  0  0  0  0  0  0  0  0  0  0  0
   -8.6406   22.3789  -29.7278 H   0  0  0  0  0  0  0  0  0  0  0  0
   -7.0663   21.4637  -29.6527 H   0  0  0  0  0  0  0  0  0  0  0  0
   -7.5929   24.3976  -29.5432 H   0  0  0  0  0  0  0  0  0  0  0  0
   -6.2641   23.3810  -28.8176 H   0  0  0  0  0  0  0  0  0  0  0  0
   -3.8118   24.1571  -30.8300 H   0  0  0  0  0  0  0  0  0  0  0  0
   -4.5196   22.8594  -29.7632 H   0  0  0  0  0  0  0  0  0  0  0  0
   -6.7459   25.2364  -32.2982 H   0  0  0  0  0  0  0  0  0  0  0  0
   -5.7701   23.7919  -32.8347 H   0  0  0  0  0  0  0  0  0  0  0  0
   -8.6460   23.9129  -31.8835 H   0  0  0  0  0  0  0  0  0  0  0  0
   -7.9581   23.1524  -33.3577 H   0  0  0  0  0  0  0  0  0  0  0  0
   -5.6373   17.3467  -30.1843 H   0  0  0  0  0  0  0  0  0  0  0  0
   -6.9366   18.4840  -30.6794 H   0  0  0  0  0  0  0  0  0  0  0  0
   -7.2440   16.7142  -30.6794 H   0  0  0  0  0  0  0  0  0  0  0  0
   -5.3677   15.3516  -32.0883 H   0  0  0  0  0  0  0  0  0  0  0  0
  1  2  1  0
  2  3  2  0
  3  4  1  0
  4  5  2  0
  5  6  1  0
  6  7  1  0
  7  8  2  0
  7  9  1  0
  9 10  1  0
 10 11  1  0
 11 12  1  0
 12 13  1  0
 13 14  1  0
 14 15  1  0
 15 16  3  0
 13 17  1  0
 17 18  1  0
  5 19  1  0
 19 20  1  0
 19 21  2  0
 21  2  1  0
 18 10  1  0
  1 22  1  0
  1 23  1  0
  1 24  1  0
  3 25  1  0
  4 26  1  0
  6 27  1  0
  9 28  1  0
  9 29  1  0
 11 30  1  0
 11 31  1  0
 12 32  1  0
 12 33  1  0
 14 34  1  0
 14 35  1  0
 17 36  1  0
 17 37  1  0
 18 38  1  0
 18 39  1  0
 20 40  1  0
 20 41  1  0
 20 42  1  0
 21 43  1  0
M  END
>  <UniqueID>  (32) 
30

>  <SMILES>  (32) 
Cc1ccc(NC(=O)CN2CCN(CC#N)CC2)c(C)c1

>  <Energy>  (32) 
57.07916712345071

>  <Genealogy>  (32) 
Cc1ccc(NC(=O)CN2CCN(CC#N)CC2)c(C)c1 (3D coordinates assigned)
Cc1ccc(NC(=O)CN2CCN(CC#N)CC2)c(C)c1 (nonaromatic ring conformer: 57.07916712345071 kcal/mol)

>  <smiles>  (32) 
Cc1ccc(NC(=O)CN2CCN(CC#N)CC2)c(C)c1

>  <score_type>  (32) 
oracle

>  <origin>  (32) 
adg

>  <m_score__min__energy>  (32) 
-7.7400000000000002

>  <m_primary>  (32) 
energy

$$$$
32:0
     RDKit          3D

 45 48  0  0  0  0  0  0  0  0999 V2000
   -3.8600   25.4700  -30.9240 O   0  0  0  0  0  0  0  0  0  0  0  0
   -3.8650   24.6200  -29.9960 C   0  0  0  0  0  0  0  0  0  0  0  0
   -3.1760   24.9190  -28.7730 N   0  0  0  0  0  0  0  0  0  0  0  0
   -1.7250   24.9470  -28.5960 C   0  0  0  0  0  0  0  0  0  0  0  0
   -1.3550   25.1580  -27.1500 C   0  0  0  0  0  0  0  0  0  0  0  0
   -0.2330   24.5210  -26.5970 C   0  0  0  0  0  0  0  0  0  0  0  0
    0.1290   24.7720  -25.2730 C   0  0  0  0  0  0  0  0  0  0  0  0
   -0.6420   25.6460  -24.5060 C   0  0  0  0  0  0  0  0  0  0  0  0
   -1.7420   26.2400  -25.0450 N   0  0  0  0  0  0  0  0  0  0  0  0
   -2.1120   26.0140  -26.3350 C   0  0  0  0  0  0  0  0  0  0  0  0
   -4.5160   23.3220  -30.2220 C   0  0  0  0  0  0  0  0  0  0  0  0
   -5.8130   23.1560  -30.6560 C   0  0  0  0  0  0  0  0  0  0  0  0
   -5.9910   21.8550  -30.9720 N   0  0  0  0  0  0  0  0  0  0  0  0
   -7.1720   21.2540  -31.5370 C   0  0  0  0  0  0  0  0  0  0  0  0
   -8.4140   21.9210  -31.5130 C   0  0  0  0  0  0  0  0  0  0  0  0
   -9.5450   21.3290  -32.0850 C   0  0  0  0  0  0  0  0  0  0  0  0
   -9.4520   20.0730  -32.6870 C   0  0  0  0  0  0  0  0  0  0  0  0
   -8.2250   19.4060  -32.7240 C   0  0  0  0  0  0  0  0  0  0  0  0
   -7.0910   19.9930  -32.1570 C   0  0  0  0  0  0  0  0  0  0  0  0
   -4.8690   21.1870  -30.7480 N   0  0  0  0  0  0  0  0  0  0  0  0
   -3.9460   22.0560  -30.2860 C   0  0  0  0  0  0  0  0  0  0  0  0
   -2.5570   21.6640  -29.9610 C   0  0  0  0  0  0  0  0  0  0  0  0
   -1.5750   21.5490  -30.9630 C   0  0  0  0  0  0  0  0  0  0  0  0
   -0.2710   21.1690  -30.6340 C   0  0  0  0  0  0  0  0  0  0  0  0
    0.0690   20.9090  -29.3040 C   0  0  0  0  0  0  0  0  0  0  0  0
   -0.8940   21.0340  -28.3010 C   0  0  0  0  0  0  0  0  0  0  0  0
   -2.1990   21.4140  -28.6250 C   0  0  0  0  0  0  0  0  0  0  0  0
   -1.3035   23.9903  -28.9381 H   0  0  0  0  0  0  0  0  0  0  0  0
   -1.3189   25.7829  -29.1845 H   0  0  0  0  0  0  0  0  0  0  0  0
    0.3606   23.8243  -27.2071 H   0  0  0  0  0  0  0  0  0  0  0  0
    1.0143   24.2852  -24.8379 H   0  0  0  0  0  0  0  0  0  0  0  0
   -0.3604   25.8556  -23.4635 H   0  0  0  0  0  0  0  0  0  0  0  0
   -2.3100   26.8890  -24.4570 H   0  0  0  0  0  0  0  0  0  0  0  0
   -3.0089   26.5047  -26.7410 H   0  0  0  0  0  0  0  0  0  0  0  0
   -6.5732   23.9474  -30.7321 H   0  0  0  0  0  0  0  0  0  0  0  0
   -8.4940   22.9119  -31.0421 H   0  0  0  0  0  0  0  0  0  0  0  0
  -10.5108   21.8549  -32.0603 H   0  0  0  0  0  0  0  0  0  0  0  0
  -10.3444   19.6087  -33.1320 H   0  0  0  0  0  0  0  0  0  0  0  0
   -8.1516   18.4172  -33.2003 H   0  0  0  0  0  0  0  0  0  0  0  0
   -6.1267   19.4652  -32.1955 H   0  0  0  0  0  0  0  0  0  0  0  0
   -1.8355   21.7594  -32.0108 H   0  0  0  0  0  0  0  0  0  0  0  0
    0.4890   21.0744  -31.4235 H   0  0  0  0  0  0  0  0  0  0  0  0
    1.0948   20.6060  -29.0473 H   0  0  0  0  0  0  0  0  0  0  0  0
   -0.6249   20.8329  -27.2536 H   0  0  0  0  0  0  0  0  0  0  0  0
   -2.9512   21.5182  -27.8292 H   0  0  0  0  0  0  0  0  0  0  0  0
  1  2  2  0
  2  3  1  0
  3  4  1  0
  4  5  1  0
  5  6  2  0
  6  7  1  0
  7  8  2  0
  8  9  1  0
  9 10  2  0
  2 11  1  0
 11 12  2  0
 12 13  1  0
 13 14  1  0
 14 15  2  0
 15 16  1  0
 16 17  2  0
 17 18  1  0
 18 19  2  0
 13 20  1  0
 20 21  2  0
 21 22  1  0
 22 23  2  0
 23 24  1  0
 24 25  2  0
 25 26  1  0
 26 27  2  0
 10  5  1  0
 21 11  1  0
 27 22  1  0
 19 14  1  0
  4 28  1  0
  4 29  1  0
  6 30  1  0
  7 31  1  0
  8 32  1  0
  9 33  1  0
 10 34  1  0
 12 35  1  0
 15 36  1  0
 16 37  1  0
 17 38  1  0
 18 39  1  0
 19 40  1  0
 23 41  1  0
 24 42  1  0
 25 43  1  0
 26 44  1  0
 27 45  1  0
M  CHG  2   3  -1   9   1
M  END
>  <UniqueID>  (33) 
31

>  <SMILES>  (33) 
O=C([N-]Cc1ccc[nH+]c1)c1cn(-c2ccccc2)nc1-c1ccccc1

>  <Energy>  (33) 
86.71267043221886

>  <Genealogy>  (33) 
O=C([N-]Cc1ccc[nH+]c1)c1cn(-c2ccccc2)nc1-c1ccccc1 (protonated)
O=C([N-]Cc1ccc[nH+]c1)c1cn(-c2ccccc2)nc1-c1ccccc1 (3D coordinates assigned)
O=C([N-]Cc1ccc[nH+]c1)c1cn(-c2ccccc2)nc1-c1ccccc1 (optimized conformer: 86.71267043221886 kcal/mol)

>  <smiles>  (33) 
O=C(NCc1cccnc1)c1cn(-c2ccccc2)nc1-c1ccccc1

>  <score_type>  (33) 
oracle

>  <origin>  (33) 
adg

>  <m_score__min__energy>  (33) 
-10.359999999999999

>  <m_primary>  (33) 
energy

$$$$
33:0
     RDKit          3D

 50 51  0  0  0  0  0  0  0  0999 V2000
   -5.6130   25.1790  -30.5940 C   0  0  0  0  0  0  0  0  0  0  0  0
   -4.5930   24.5170  -29.6730 C   0  0  0  0  0  0  0  0  0  0  0  0
   -3.2370   24.9020  -30.0510 N   0  0  0  0  0  0  0  0  0  0  0  0
   -2.0400   24.6360  -29.3050 C   0  0  0  0  0  0  0  0  0  0  0  0
   -1.3630   25.6140  -28.8930 O   0  0  0  0  0  0  0  0  0  0  0  0
   -1.5640   23.2310  -28.9960 C   0  0  0  0  0  0  0  0  0  0  0  0
   -2.5250   22.1600  -29.3660 N   0  0  2  0  0  0  0  0  0  0  0  0
   -2.6770   21.1410  -28.3140 C   0  0  0  0  0  0  0  0  0  0  0  0
   -2.2040   21.5330  -30.6400 C   0  0  0  0  0  0  0  0  0  0  0  0
   -1.0390   21.4610  -31.0100 O   0  0  0  0  0  0  0  0  0  0  0  0
   -3.2730   20.8730  -31.4930 C   0  0  0  0  0  0  0  0  0  0  0  0
   -3.6860   21.7840  -32.6560 C   0  0  0  0  0  0  0  0  0  0  0  0
   -4.8350   21.1420  -33.4530 C   0  0  0  0  0  0  0  0  0  0  0  0
   -4.6380   19.7000  -33.7450 N   0  0  0  0  0  0  0  0  0  0  0  0
   -5.8980   18.7080  -33.0430 S   0  0  0  0  0  0  0  0  0  0  0  0
   -6.5050   17.8180  -34.0920 O   0  0  0  0  0  0  0  0  0  0  0  0
   -5.3280   17.8570  -31.9420 O   0  0  0  0  0  0  0  0  0  0  0  0
   -7.1620   19.7480  -32.3930 C   0  0  0  0  0  0  0  0  0  0  0  0
   -6.8480   20.6910  -31.4020 C   0  0  0  0  0  0  0  0  0  0  0  0
   -7.8460   21.5180  -30.8800 C   0  0  0  0  0  0  0  0  0  0  0  0
   -9.1600   21.4120  -31.3450 C   0  0  0  0  0  0  0  0  0  0  0  0
   -9.4760   20.4780  -32.3360 C   0  0  0  0  0  0  0  0  0  0  0  0
   -8.4810   19.6480  -32.8610 C   0  0  0  0  0  0  0  0  0  0  0  0
   -3.2910   19.1810  -33.4350 C   0  0  0  0  0  0  0  0  0  0  0  0
   -2.8530   19.4660  -31.9850 C   0  0  0  0  0  0  0  0  0  0  0  0
   -6.3834   25.6790  -29.9887 H   0  0  0  0  0  0  0  0  0  0  0  0
   -5.1066   25.9211  -31.2287 H   0  0  0  0  0  0  0  0  0  0  0  0
   -6.0845   24.4143  -31.2287 H   0  0  0  0  0  0  0  0  0  0  0  0
   -4.7831   24.8322  -28.6364 H   0  0  0  0  0  0  0  0  0  0  0  0
   -4.6903   23.4249  -29.7613 H   0  0  0  0  0  0  0  0  0  0  0  0
   -0.6271   23.0569  -29.5455 H   0  0  0  0  0  0  0  0  0  0  0  0
   -1.4388   23.1759  -27.9045 H   0  0  0  0  0  0  0  0  0  0  0  0
   -3.4580   22.6260  -29.4560 H   0  0  0  0  0  0  0  0  0  0  0  0
   -2.6055   21.6201  -27.3264 H   0  0  0  0  0  0  0  0  0  0  0  0
   -3.6578   20.6533  -28.4149 H   0  0  0  0  0  0  0  0  0  0  0  0
   -1.8812   20.3883  -28.4149 H   0  0  0  0  0  0  0  0  0  0  0  0
   -4.1539   20.7233  -30.8514 H   0  0  0  0  0  0  0  0  0  0  0  0
   -4.0181   22.7539  -32.2573 H   0  0  0  0  0  0  0  0  0  0  0  0
   -2.8232   21.9272  -33.3231 H   0  0  0  0  0  0  0  0  0  0  0  0
   -5.7626   21.2534  -32.8724 H   0  0  0  0  0  0  0  0  0  0  0  0
   -4.8763   21.6594  -34.4228 H   0  0  0  0  0  0  0  0  0  0  0  0
   -5.8145   20.7792  -31.0357 H   0  0  0  0  0  0  0  0  0  0  0  0
   -7.5971   22.2541  -30.1014 H   0  0  0  0  0  0  0  0  0  0  0  0
   -9.9445   22.0628  -30.9316 H   0  0  0  0  0  0  0  0  0  0  0  0
  -10.5096   20.3960  -32.7034 H   0  0  0  0  0  0  0  0  0  0  0  0
   -8.7325   18.9155  -33.6421 H   0  0  0  0  0  0  0  0  0  0  0  0
   -3.2900   18.0925  -33.5936 H   0  0  0  0  0  0  0  0  0  0  0  0
   -2.5804   19.6943  -34.0995 H   0  0  0  0  0  0  0  0  0  0  0  0
   -3.3101   18.7131  -31.3261 H   0  0  0  0  0  0  0  0  0  0  0  0
   -1.7542   19.4217  -31.9578 H   0  0  0  0  0  0  0  0  0  0  0  0
  1  2  1  0
  2  3  1  0
  3  4  1  0
  4  5  2  0
  4  6  1  0
  6  7  1  0
  7  8  1  0
  7  9  1  0
  9 10  2  0
  9 11  1  0
 11 12  1  0
 12 13  1  0
 13 14  1  0
 14 15  1  0
 15 16  2  0
 15 17  2  0
 15 18  1  0
 18 19  2  0
 19 20  1  0
 20 21  2  0
 21 22  1  0
 22 23  2  0
 14 24  1  0
 24 25  1  0
 25 11  1  0
 23 18  1  0
  1 26  1  0
  1 27  1  0
  1 28  1  0
  2 29  1  0
  2 30  1  0
  6 31  1  0
  6 32  1  0
  7 33  1  6
  8 34  1  0
  8 35  1  0
  8 36  1  0
 11 37  1  0
 12 38  1  0
 12 39  1  0
 13 40  1  0
 13 41  1  0
 19 42  1  0
 20 43  1  0
 21 44  1  0
 22 45  1  0
 23 46  1  0
 24 47  1  0
 24 48  1  0
 25 49  1  0
 25 50  1  0
M  CHG  2   3  -1   7   1
M  END
>  <UniqueID>  (34) 
32

>  <SMILES>  (34) 
CC[N-]C(=O)C[N@H+](C)C(=O)C1CCN(S(=O)(=O)c2ccccc2)CC1

>  <Energy>  (34) 
57.37998706115332

>  <Genealogy>  (34) 
CC[N-]C(=O)C[NH+](C)C(=O)C1CCN(S(=O)(=O)c2ccccc2)CC1 (protonated)
CC[N-]C(=O)C[N@H+](C)C(=O)C1CCN(S(=O)(=O)c2ccccc2)CC1 (chirality)
CC[N-]C(=O)C[N@H+](C)C(=O)C1CCN(S(=O)(=O)c2ccccc2)CC1 (3D coordinates assigned)
CC[N-]C(=O)C[N@H+](C)C(=O)C1CCN(S(=O)(=O)c2ccccc2)CC1 (nonaromatic ring conformer: 57.37998706115332 kcal/mol)

>  <smiles>  (34) 
CCNC(=O)CN(C)C(=O)C1CCN(S(=O)(=O)c2ccccc2)CC1

>  <score_type>  (34) 
oracle

>  <origin>  (34) 
adg

>  <m_score__min__energy>  (34) 
-9.5800000000000001

>  <m_primary>  (34) 
energy

$$$$
34:0
     RDKit          3D

 45 47  0  0  0  0  0  0  0  0999 V2000
   -5.3570   25.5920  -30.4730 C   0  0  0  0  0  0  0  0  0  0  0  0
   -3.9510   25.3670  -30.4860 O   0  0  0  0  0  0  0  0  0  0  0  0
   -3.3450   24.1130  -30.3080 C   0  0  0  0  0  0  0  0  0  0  0  0
   -2.5160   23.9310  -29.2020 C   0  0  0  0  0  0  0  0  0  0  0  0
   -1.8920   22.7050  -28.9770 C   0  0  0  0  0  0  0  0  0  0  0  0
   -2.0870   21.6260  -29.8570 C   0  0  0  0  0  0  0  0  0  0  0  0
   -1.4060   20.3180  -29.5430 C   0  0  0  0  0  0  0  0  0  0  0  0
   -2.9170   21.8010  -30.9980 C   0  0  0  0  0  0  0  0  0  0  0  0
   -3.1630   20.7340  -32.0030 C   0  0  0  0  0  0  0  0  0  0  0  0
   -2.6710   20.7110  -33.2590 N   0  0  0  0  0  0  0  0  0  0  0  0
   -3.1400   19.6130  -33.8310 N   0  0  0  0  0  0  0  0  0  0  0  0
   -3.9020   19.0050  -32.9040 C   0  0  0  0  0  0  0  0  0  0  0  0
   -4.6590   17.7270  -33.1350 C   0  0  0  0  0  0  0  0  0  0  0  0
   -6.1220   17.9290  -33.2270 N   0  0  0  0  0  0  0  0  0  0  0  0
   -6.7950   16.7660  -33.8330 C   0  0  0  0  0  0  0  0  0  0  0  0
   -6.4710   19.1850  -33.9230 C   0  0  0  0  0  0  0  0  0  0  0  0
   -7.1560   20.1370  -32.9780 C   0  0  0  0  0  0  0  0  0  0  0  0
   -6.5460   21.3510  -32.6180 C   0  0  0  0  0  0  0  0  0  0  0  0
   -7.1990   22.2380  -31.7560 C   0  0  0  0  0  0  0  0  0  0  0  0
   -8.4640   21.9230  -31.2540 C   0  0  0  0  0  0  0  0  0  0  0  0
   -9.0800   20.7210  -31.6130 C   0  0  0  0  0  0  0  0  0  0  0  0
   -8.4310   19.8300  -32.4740 C   0  0  0  0  0  0  0  0  0  0  0  0
   -3.9220   19.6860  -31.7850 O   0  0  0  0  0  0  0  0  0  0  0  0
   -3.5430   23.0460  -31.2020 C   0  0  0  0  0  0  0  0  0  0  0  0
   -5.7097   25.6484  -29.4326 H   0  0  0  0  0  0  0  0  0  0  0  0
   -5.5818   26.5375  -30.9882 H   0  0  0  0  0  0  0  0  0  0  0  0
   -5.8656   24.7638  -30.9882 H   0  0  0  0  0  0  0  0  0  0  0  0
   -2.3528   24.7624  -28.5005 H   0  0  0  0  0  0  0  0  0  0  0  0
   -1.2392   22.5802  -28.1005 H   0  0  0  0  0  0  0  0  0  0  0  0
   -1.3401   20.1915  -28.4523 H   0  0  0  0  0  0  0  0  0  0  0  0
   -1.9872   19.4894  -29.9738 H   0  0  0  0  0  0  0  0  0  0  0  0
   -0.3939   20.3189  -29.9738 H   0  0  0  0  0  0  0  0  0  0  0  0
   -4.3077   17.2768  -34.0751 H   0  0  0  0  0  0  0  0  0  0  0  0
   -4.4713   17.0731  -32.2706 H   0  0  0  0  0  0  0  0  0  0  0  0
   -7.1760   16.1077  -33.0383 H   0  0  0  0  0  0  0  0  0  0  0  0
   -7.6330   17.1111  -34.4564 H   0  0  0  0  0  0  0  0  0  0  0  0
   -6.0783   16.2114  -34.4564 H   0  0  0  0  0  0  0  0  0  0  0  0
   -5.5529   19.6536  -34.3070 H   0  0  0  0  0  0  0  0  0  0  0  0
   -7.1540   18.9542  -34.7538 H   0  0  0  0  0  0  0  0  0  0  0  0
   -5.5520   21.6043  -33.0154 H   0  0  0  0  0  0  0  0  0  0  0  0
   -6.7159   23.1848  -31.4730 H   0  0  0  0  0  0  0  0  0  0  0  0
   -8.9756   22.6216  -30.5756 H   0  0  0  0  0  0  0  0  0  0  0  0
  -10.0767   20.4753  -31.2179 H   0  0  0  0  0  0  0  0  0  0  0  0
   -8.9202   18.8864  -32.7573 H   0  0  0  0  0  0  0  0  0  0  0  0
   -4.1975   23.1859  -32.0750 H   0  0  0  0  0  0  0  0  0  0  0  0
  1  2  1  0
  2  3  1  0
  3  4  2  0
  4  5  1  0
  5  6  2  0
  6  7  1  0
  6  8  1  0
  8  9  1  0
  9 10  2  0
 10 11  1  0
 11 12  2  0
 12 13  1  0
 13 14  1  0
 14 15  1  0
 14 16  1  0
 16 17  1  0
 17 18  2  0
 18 19  1  0
 19 20  2  0
 20 21  1  0
 21 22  2  0
 12 23  1  0
  8 24  2  0
 24  3  1  0
 23  9  1  0
 22 17  1  0
  1 25  1  0
  1 26  1  0
  1 27  1  0
  4 28  1  0
  5 29  1  0
  7 30  1  0
  7 31  1  0
  7 32  1  0
 13 33  1  0
 13 34  1  0
 15 35  1  0
 15 36  1  0
 15 37  1  0
 16 38  1  0
 16 39  1  0
 18 40  1  0
 19 41  1  0
 20 42  1  0
 21 43  1  0
 22 44  1  0
 24 45  1  0
M  END
>  <UniqueID>  (35) 
33

>  <SMILES>  (35) 
COc1ccc(C)c(-c2nnc(CN(C)Cc3ccccc3)o2)c1

>  <Energy>  (35) 
85.70863145025282

>  <Genealogy>  (35) 
COc1ccc(C)c(-c2nnc(CN(C)Cc3ccccc3)o2)c1 (3D coordinates assigned)
COc1ccc(C)c(-c2nnc(CN(C)Cc3ccccc3)o2)c1 (optimized conformer: 85.70863145025282 kcal/mol)

>  <smiles>  (35) 
COc1ccc(C)c(-c2nnc(CN(C)Cc3ccccc3)o2)c1

>  <score_type>  (35) 
oracle

>  <origin>  (35) 
adg

>  <m_score__min__energy>  (35) 
-8.6300000000000008

>  <m_primary>  (35) 
energy

$$$$
35:0
     RDKit          3D

 49 52  0  0  0  0  0  0  0  0999 V2000
   -1.6490   22.8160  -30.1480 C   0  0  0  0  0  0  0  0  0  0  0  0
   -1.9650   24.1460  -29.7490 O   0  0  0  0  0  0  0  0  0  0  0  0
   -2.4010   24.5110  -28.4650 C   0  0  0  0  0  0  0  0  0  0  0  0
   -1.4940   24.8750  -27.4490 C   0  0  0  0  0  0  0  0  0  0  0  0
   -1.9600   25.2590  -26.1890 C   0  0  0  0  0  0  0  0  0  0  0  0
   -3.3300   25.2850  -25.9270 C   0  0  0  0  0  0  0  0  0  0  0  0
   -4.2380   24.9230  -26.9220 C   0  0  0  0  0  0  0  0  0  0  0  0
   -3.7850   24.5290  -28.1920 C   0  0  0  0  0  0  0  0  0  0  0  0
   -4.7430   24.1480  -29.1940 N   0  0  0  0  0  0  0  0  0  0  0  0
   -5.0680   22.7380  -29.4220 C   0  0  0  0  0  0  0  0  0  0  0  0
   -6.5690   22.5830  -29.7110 C   0  0  0  0  0  0  0  0  0  0  0  0
   -7.0570   23.5290  -30.7410 N   0  0  0  0  0  0  0  0  0  0  0  0
   -6.6240   23.1840  -32.1130 C   0  0  0  0  0  0  0  0  0  0  0  0
   -6.8150   21.7100  -32.3770 C   0  0  0  0  0  0  0  0  0  0  0  0
   -5.7210   20.9350  -32.8030 C   0  0  0  0  0  0  0  0  0  0  0  0
   -5.8770   19.5680  -33.0400 C   0  0  0  0  0  0  0  0  0  0  0  0
   -7.1160   18.9530  -32.8250 C   0  0  0  0  0  0  0  0  0  0  0  0
   -8.2130   19.7140  -32.4130 C   0  0  0  0  0  0  0  0  0  0  0  0
   -8.0700   21.0880  -32.1850 C   0  0  0  0  0  0  0  0  0  0  0  0
   -9.4790   21.9990  -31.6500 Cl  0  0  0  0  0  0  0  0  0  0  0  0
   -7.2360   17.5740  -33.0240 O   0  0  0  0  0  0  0  0  0  0  0  0
   -6.0790   16.7470  -33.1720 C   0  0  0  0  0  0  0  0  0  0  0  0
   -5.0080   17.4710  -33.9980 C   0  0  0  0  0  0  0  0  0  0  0  0
   -4.8040   18.7930  -33.4920 O   0  0  0  0  0  0  0  0  0  0  0  0
   -6.7390   24.9280  -30.3830 C   0  0  0  0  0  0  0  0  0  0  0  0
   -5.2390   25.1400  -30.1490 C   0  0  0  0  0  0  0  0  0  0  0  0
   -1.5005   22.1908  -29.2552 H   0  0  0  0  0  0  0  0  0  0  0  0
   -2.4750   22.4073  -30.7485 H   0  0  0  0  0  0  0  0  0  0  0  0
   -0.7274   22.8225  -30.7485 H   0  0  0  0  0  0  0  0  0  0  0  0
   -0.4126   24.8566  -27.6495 H   0  0  0  0  0  0  0  0  0  0  0  0
   -1.2452   25.5414  -25.4020 H   0  0  0  0  0  0  0  0  0  0  0  0
   -3.6943   25.5911  -24.9353 H   0  0  0  0  0  0  0  0  0  0  0  0
   -5.3172   24.9462  -26.7106 H   0  0  0  0  0  0  0  0  0  0  0  0
   -4.4915   22.3660  -30.2818 H   0  0  0  0  0  0  0  0  0  0  0  0
   -4.8127   22.1593  -28.5221 H   0  0  0  0  0  0  0  0  0  0  0  0
   -6.7553   21.5567  -30.0602 H   0  0  0  0  0  0  0  0  0  0  0  0
   -7.1097   22.8018  -28.7784 H   0  0  0  0  0  0  0  0  0  0  0  0
   -7.2200   23.7606  -32.8357 H   0  0  0  0  0  0  0  0  0  0  0  0
   -5.5565   23.4273  -32.2191 H   0  0  0  0  0  0  0  0  0  0  0  0
   -4.7388   21.4079  -32.9500 H   0  0  0  0  0  0  0  0  0  0  0  0
   -9.1913   19.2325  -32.2674 H   0  0  0  0  0  0  0  0  0  0  0  0
   -5.6722   16.5111  -32.1776 H   0  0  0  0  0  0  0  0  0  0  0  0
   -6.3657   15.8209  -33.6917 H   0  0  0  0  0  0  0  0  0  0  0  0
   -4.0636   16.9100  -33.9400 H   0  0  0  0  0  0  0  0  0  0  0  0
   -5.3434   17.5347  -35.0437 H   0  0  0  0  0  0  0  0  0  0  0  0
   -7.0662   25.5861  -31.2015 H   0  0  0  0  0  0  0  0  0  0  0  0
   -7.2634   25.1638  -29.4452 H   0  0  0  0  0  0  0  0  0  0  0  0
   -4.7013   25.0304  -31.1023 H   0  0  0  0  0  0  0  0  0  0  0  0
   -5.0728   26.1494  -29.7447 H   0  0  0  0  0  0  0  0  0  0  0  0
  1  2  1  0
  2  3  1  0
  3  4  2  0
  4  5  1  0
  5  6  2  0
  6  7  1  0
  7  8  2  0
  8  9  1  0
  9 10  1  0
 10 11  1  0
 11 12  1  0
 12 13  1  0
 13 14  1  0
 14 15  2  0
 15 16  1  0
 16 17  2  0
 17 18  1  0
 18 19  2  0
 19 20  1  0
 17 21  1  0
 21 22  1  0
 22 23  1  0
 23 24  1  0
 12 25  1  0
 25 26  1  0
  8  3  1  0
 26  9  1  0
 19 14  1  0
 24 16  1  0
  1 27  1  0
  1 28  1  0
  1 29  1  0
  4 30  1  0
  5 31  1  0
  6 32  1  0
  7 33  1  0
 10 34  1  0
 10 35  1  0
 11 36  1  0
 11 37  1  0
 13 38  1  0
 13 39  1  0
 15 40  1  0
 18 41  1  0
 22 42  1  0
 22 43  1  0
 23 44  1  0
 23 45  1  0
 25 46  1  0
 25 47  1  0
 26 48  1  0
 26 49  1  0
M  END
>  <UniqueID>  (36) 
34

>  <SMILES>  (36) 
COc1ccccc1N1CCN(Cc2cc3c(cc2Cl)OCCO3)CC1

>  <Energy>  (36) 
60.683280878242584

>  <Genealogy>  (36) 
COc1ccccc1N1CCN(Cc2cc3c(cc2Cl)OCCO3)CC1 (3D coordinates assigned)
COc1ccccc1N1CCN(Cc2cc3c(cc2Cl)OCCO3)CC1 (nonaromatic ring conformer: 60.683280878242584 kcal/mol)

>  <smiles>  (36) 
COc1ccccc1N1CCN(Cc2cc3c(cc2Cl)OCCO3)CC1

>  <score_type>  (36) 
oracle

>  <origin>  (36) 
adg

>  <m_score__min__energy>  (36) 
-8.1099999999999994

>  <m_primary>  (36) 
energy

$$$$
36:0
     RDKit          3D

 50 53  0  0  1  0  0  0  0  0999 V2000
   -3.9590   25.3510  -30.7160 O   0  0  0  0  0  0  0  0  0  0  0  0
   -5.1940   25.2740  -30.0410 C   0  0  0  0  0  0  0  0  0  0  0  0
   -5.6410   23.8300  -30.1050 C   0  0  1  0  0  0  0  0  0  0  0  0
   -7.1140   23.6910  -30.3020 C   0  0  0  0  0  0  0  0  0  0  0  0
   -7.3330   23.2100  -31.7080 C   0  0  0  0  0  0  0  0  0  0  0  0
   -5.9530   23.3110  -32.3300 C   0  0  0  0  0  0  0  0  0  0  0  0
   -5.0170   23.1440  -31.2460 N   0  0  0  0  0  0  0  0  0  0  0  0
   -3.7570   22.4790  -31.2160 C   0  0  0  0  0  0  0  0  0  0  0  0
   -2.7150   22.9110  -30.4040 C   0  0  0  0  0  0  0  0  0  0  0  0
   -1.5650   22.2070  -30.4540 N   0  0  0  0  0  0  0  0  0  0  0  0
   -1.4010   21.1280  -31.2450 C   0  0  0  0  0  0  0  0  0  0  0  0
   -2.4030   20.6530  -32.0750 C   0  0  0  0  0  0  0  0  0  0  0  0
   -2.2590   19.5010  -32.9350 C   0  0  0  0  0  0  0  0  0  0  0  0
   -3.0460   18.4160  -32.7510 N   0  0  0  0  0  0  0  0  0  0  0  0
   -2.8960   17.3520  -33.5630 C   0  0  0  0  0  0  0  0  0  0  0  0
   -3.6370   16.3210  -33.3950 N   0  0  0  0  0  0  0  0  0  0  0  0
   -4.9550   16.1640  -34.0260 C   0  0  0  0  0  0  0  0  0  0  0  0
   -5.7400   17.3510  -33.5570 C   0  0  0  0  0  0  0  0  0  0  0  0
   -5.7690   18.5310  -34.2800 C   0  0  0  0  0  0  0  0  0  0  0  0
   -6.5190   19.6090  -33.7950 C   0  0  0  0  0  0  0  0  0  0  0  0
   -7.2240   19.5120  -32.6150 C   0  0  0  0  0  0  0  0  0  0  0  0
   -7.9490   20.5810  -32.1640 F   0  0  0  0  0  0  0  0  0  0  0  0
   -7.2010   18.3290  -31.8810 C   0  0  0  0  0  0  0  0  0  0  0  0
   -6.4560   17.2570  -32.3610 C   0  0  0  0  0  0  0  0  0  0  0  0
   -1.9950   17.3070  -34.5620 N   0  0  0  0  0  0  0  0  0  0  0  0
   -1.1880   18.3610  -34.7870 C   0  0  0  0  0  0  0  0  0  0  0  0
   -1.3260   19.4610  -33.9650 C   0  0  0  0  0  0  0  0  0  0  0  0
   -0.2780   20.8230  -34.2620 Cl  0  0  0  0  0  0  0  0  0  0  0  0
   -3.6010   21.3750  -32.0310 C   0  0  0  0  0  0  0  0  0  0  0  0
   -4.1700   25.6830  -31.6410 H   0  0  0  0  0  0  0  0  0  0  0  0
   -5.0725   25.5862  -28.9933 H   0  0  0  0  0  0  0  0  0  0  0  0
   -5.9384   25.9374  -30.5055 H   0  0  0  0  0  0  0  0  0  0  0  0
   -5.3438   23.3906  -29.1414 H   0  0  0  0  0  0  0  0  0  0  0  0
   -7.5223   22.9618  -29.5868 H   0  0  0  0  0  0  0  0  0  0  0  0
   -7.6217   24.6526  -30.1358 H   0  0  0  0  0  0  0  0  0  0  0  0
   -7.6944   22.1711  -31.7173 H   0  0  0  0  0  0  0  0  0  0  0  0
   -8.0929   23.7929  -32.2491 H   0  0  0  0  0  0  0  0  0  0  0  0
   -5.8133   22.5198  -33.0813 H   0  0  0  0  0  0  0  0  0  0  0  0
   -5.8104   24.2743  -32.8415 H   0  0  0  0  0  0  0  0  0  0  0  0
   -2.8231   23.7883  -29.7493 H   0  0  0  0  0  0  0  0  0  0  0  0
   -0.4338   20.6043  -31.2308 H   0  0  0  0  0  0  0  0  0  0  0  0
   -4.8639   16.1667  -35.1222 H   0  0  0  0  0  0  0  0  0  0  0  0
   -5.4362   15.2120  -33.7575 H   0  0  0  0  0  0  0  0  0  0  0  0
   -5.2101   18.6205  -35.2232 H   0  0  0  0  0  0  0  0  0  0  0  0
   -6.5460   20.5492  -34.3654 H   0  0  0  0  0  0  0  0  0  0  0  0
   -7.7619   18.2438  -30.9386 H   0  0  0  0  0  0  0  0  0  0  0  0
   -6.4301   16.3181  -31.7885 H   0  0  0  0  0  0  0  0  0  0  0  0
   -1.8760   16.4850  -35.1940 H   0  0  0  0  0  0  0  0  0  0  0  0
   -0.4446   18.3459  -35.5977 H   0  0  0  0  0  0  0  0  0  0  0  0
   -4.4420   21.0542  -32.6633 H   0  0  0  0  0  0  0  0  0  0  0  0
  1  2  1  0
  2  3  1  0
  3  4  1  0
  4  5  1  0
  5  6  1  0
  6  7  1  0
  7  8  1  0
  8  9  2  0
  9 10  1  0
 10 11  2  0
 11 12  1  0
 12 13  1  0
 13 14  2  0
 14 15  1  0
 15 16  2  0
 16 17  1  0
 17 18  1  0
 18 19  2  0
 19 20  1  0
 20 21  2  0
 21 22  1  0
 21 23  1  0
 23 24  2  0
 15 25  1  0
 25 26  1  0
 26 27  2  0
 27 28  1  0
 12 29  2  0
  7  3  1  0
 29  8  1  0
 27 13  1  0
 24 18  1  0
  1 30  1  0
  2 31  1  0
  2 32  1  0
  3 33  1  1
  4 34  1  0
  4 35  1  0
  5 36  1  0
  5 37  1  0
  6 38  1  0
  6 39  1  0
  9 40  1  0
 11 41  1  0
 17 42  1  0
 17 43  1  0
 19 44  1  0
 20 45  1  0
 23 46  1  0
 24 47  1  0
 25 48  1  0
 26 49  1  0
 29 50  1  0
M  END
>  <smiles>  (37) 
OCC1CCCN1c1cncc(-c2nc(=NCc3ccc(F)cc3)[nH]cc2Cl)c1

>  <score_type>  (37) 
oracle

>  <origin>  (37) 
adg

>  <m_score__min__energy>  (37) 
-9.6099999999999994

>  <m_primary>  (37) 
energy

$$$$
37:0
     RDKit          3D

 54 57  0  0  0  0  0  0  0  0999 V2000
   -6.3780   17.1710  -33.9160 C   0  0  0  0  0  0  0  0  0  0  0  0
   -5.6980   18.3670  -34.5810 C   0  0  0  0  0  0  0  0  0  0  0  0
   -4.2260   18.2040  -34.5910 N   0  0  0  0  0  0  0  0  0  0  0  0
   -3.8130   16.8700  -34.0810 C   0  0  0  0  0  0  0  0  0  0  0  0
   -2.3070   16.8570  -33.8530 C   0  0  0  0  0  0  0  0  0  0  0  0
   -3.5760   19.3030  -33.8420 C   0  0  0  0  0  0  0  0  0  0  0  0
   -4.1980   19.4550  -32.4470 C   0  0  0  0  0  0  0  0  0  0  0  0
   -4.3780   20.8700  -32.1190 N   0  0  0  0  0  0  0  0  0  0  0  0
   -3.5360   21.6670  -31.3990 C   0  0  0  0  0  0  0  0  0  0  0  0
   -2.2710   21.3400  -30.9100 C   0  0  0  0  0  0  0  0  0  0  0  0
   -1.6220   22.2570  -30.0660 C   0  0  0  0  0  0  0  0  0  0  0  0
   -2.2450   23.4770  -29.6860 C   0  0  0  0  0  0  0  0  0  0  0  0
   -1.5640   24.4370  -28.7740 C   0  0  0  0  0  0  0  0  0  0  0  0
   -0.7780   23.9780  -27.5830 C   0  0  0  0  0  0  0  0  0  0  0  0
   -1.6420   25.6750  -28.9980 O   0  0  0  0  0  0  0  0  0  0  0  0
   -3.5400   23.7730  -30.1730 C   0  0  0  0  0  0  0  0  0  0  0  0
   -4.1430   22.8670  -31.0430 C   0  0  0  0  0  0  0  0  0  0  0  0
   -5.4000   22.8040  -31.6010 C   0  0  0  0  0  0  0  0  0  0  0  0
   -5.5070   21.6100  -32.2160 C   0  0  0  0  0  0  0  0  0  0  0  0
   -6.8510   21.3120  -32.2970 C   0  0  0  0  0  0  0  0  0  0  0  0
   -7.5480   20.1690  -32.6910 C   0  0  0  0  0  0  0  0  0  0  0  0
   -8.9430   20.1670  -32.5320 C   0  0  0  0  0  0  0  0  0  0  0  0
   -9.6050   21.2740  -31.9610 C   0  0  0  0  0  0  0  0  0  0  0  0
   -8.8790   22.4010  -31.5350 C   0  0  0  0  0  0  0  0  0  0  0  0
   -7.4930   22.4060  -31.7190 C   0  0  0  0  0  0  0  0  0  0  0  0
   -6.5990   23.3380  -31.2780 N   0  0  0  0  0  0  0  0  0  0  0  0
   -6.8520   24.4760  -30.3960 C   0  0  0  0  0  0  0  0  0  0  0  0
   -6.3181   17.2764  -32.8227 H   0  0  0  0  0  0  0  0  0  0  0  0
   -7.4335   17.1318  -34.2233 H   0  0  0  0  0  0  0  0  0  0  0  0
   -5.8719   16.2439  -34.2233 H   0  0  0  0  0  0  0  0  0  0  0  0
   -6.0571   18.4544  -35.6171 H   0  0  0  0  0  0  0  0  0  0  0  0
   -5.9459   19.2732  -34.0089 H   0  0  0  0  0  0  0  0  0  0  0  0
   -4.3293   16.6646  -33.1316 H   0  0  0  0  0  0  0  0  0  0  0  0
   -4.0788   16.0977  -34.8178 H   0  0  0  0  0  0  0  0  0  0  0  0
   -2.0997   16.8552  -32.7727 H   0  0  0  0  0  0  0  0  0  0  0  0
   -1.8746   15.9551  -34.3108 H   0  0  0  0  0  0  0  0  0  0  0  0
   -1.8591   17.7513  -34.3108 H   0  0  0  0  0  0  0  0  0  0  0  0
   -2.5035   19.0824  -33.7365 H   0  0  0  0  0  0  0  0  0  0  0  0
   -3.7213   20.2417  -34.3968 H   0  0  0  0  0  0  0  0  0  0  0  0
   -5.1760   18.9518  -32.4297 H   0  0  0  0  0  0  0  0  0  0  0  0
   -3.5251   19.0000  -31.7052 H   0  0  0  0  0  0  0  0  0  0  0  0
   -1.7928   20.3866  -31.1789 H   0  0  0  0  0  0  0  0  0  0  0  0
   -0.6133   22.0266  -29.6925 H   0  0  0  0  0  0  0  0  0  0  0  0
   -1.2973   24.2813  -26.6619 H   0  0  0  0  0  0  0  0  0  0  0  0
   -0.6829   22.8824  -27.6065 H   0  0  0  0  0  0  0  0  0  0  0  0
    0.2230   24.4335  -27.6065 H   0  0  0  0  0  0  0  0  0  0  0  0
   -4.0580   24.6956  -29.8722 H   0  0  0  0  0  0  0  0  0  0  0  0
   -7.0223   19.2992  -33.1118 H   0  0  0  0  0  0  0  0  0  0  0  0
   -9.5261   19.2925  -32.8563 H   0  0  0  0  0  0  0  0  0  0  0  0
  -10.6990   21.2558  -31.8478 H   0  0  0  0  0  0  0  0  0  0  0  0
   -9.3889   23.2569  -31.0688 H   0  0  0  0  0  0  0  0  0  0  0  0
   -6.7797   24.1506  -29.3477 H   0  0  0  0  0  0  0  0  0  0  0  0
   -6.1066   25.2618  -30.5883 H   0  0  0  0  0  0  0  0  0  0  0  0
   -7.8601   24.8719  -30.5883 H   0  0  0  0  0  0  0  0  0  0  0  0
  1  2  1  0
  2  3  1  0
  3  4  1  0
  4  5  1  0
  3  6  1  0
  6  7  1  0
  7  8  1  0
  8  9  1  0
  9 10  2  0
 10 11  1  0
 11 12  2  0
 12 13  1  0
 13 14  1  0
 13 15  2  0
 12 16  1  0
 16 17  2  0
 17 18  1  0
 18 19  2  0
 19 20  1  0
 20 21  2  0
 21 22  1  0
 22 23  2  0
 23 24  1  0
 24 25  2  0
 25 26  1  0
 26 27  1  0
 19  8  1  0
 25 20  1  0
 17  9  1  0
 26 18  1  0
  1 28  1  0
  1 29  1  0
  1 30  1  0
  2 31  1  0
  2 32  1  0
  4 33  1  0
  4 34  1  0
  5 35  1  0
  5 36  1  0
  5 37  1  0
  6 38  1  0
  6 39  1  0
  7 40  1  0
  7 41  1  0
 10 42  1  0
 11 43  1  0
 14 44  1  0
 14 45  1  0
 14 46  1  0
 16 47  1  0
 21 48  1  0
 22 49  1  0
 23 50  1  0
 24 51  1  0
 27 52  1  0
 27 53  1  0
 27 54  1  0
M  END
>  <UniqueID>  (38) 
35

>  <SMILES>  (38) 
CCN(CC)CCn1c2ccc(C(C)=O)cc2c2c1c1ccccc1n2C

>  <Energy>  (38) 
154.86869903245244

>  <Genealogy>  (38) 
CCN(CC)CCn1c2ccc(C(C)=O)cc2c2c1c1ccccc1n2C (3D coordinates assigned)
CCN(CC)CCn1c2ccc(C(C)=O)cc2c2c1c1ccccc1n2C (optimized conformer: 154.86869903245244 kcal/mol)

>  <smiles>  (38) 
CCN(CC)CCn1c2ccc(C(C)=O)cc2c2c1c1ccccc1n2C

>  <score_type>  (38) 
oracle

>  <origin>  (38) 
adg

>  <m_score__min__energy>  (38) 
-9.0500000000000007

>  <m_primary>  (38) 
energy

$$$$
38:0
     RDKit          3D

 65 69  0  0  0  0  0  0  0  0999 V2000
   -5.1760   25.3000  -30.7980 C   0  0  0  0  0  0  0  0  0  0  0  0
   -3.8560   24.8400  -30.5220 O   0  0  0  0  0  0  0  0  0  0  0  0
   -3.5260   23.9110  -29.5190 C   0  0  0  0  0  0  0  0  0  0  0  0
   -3.6030   24.2460  -28.1490 C   0  0  0  0  0  0  0  0  0  0  0  0
   -3.2450   23.3190  -27.1660 C   0  0  0  0  0  0  0  0  0  0  0  0
   -2.8090   22.0530  -27.5320 C   0  0  0  0  0  0  0  0  0  0  0  0
   -2.7260   21.7040  -28.8800 C   0  0  0  0  0  0  0  0  0  0  0  0
   -3.0870   22.6170  -29.8900 C   0  0  0  0  0  0  0  0  0  0  0  0
   -2.9430   22.2360  -31.2810 N   0  0  0  0  0  0  0  0  0  0  0  0
   -1.6160   21.8420  -31.7560 C   0  0  0  0  0  0  0  0  0  0  0  0
   -1.6510   21.3050  -33.1950 C   0  0  0  0  0  0  0  0  0  0  0  0
   -2.9460   20.6920  -33.5420 N   0  0  0  0  0  0  0  0  0  0  0  0
   -3.1390   19.2790  -33.1440 C   0  0  0  0  0  0  0  0  0  0  0  0
   -3.8150   18.4120  -34.2260 C   0  0  0  0  0  0  0  0  0  0  0  0
   -5.2970   18.7580  -34.4100 C   0  0  0  0  0  0  0  0  0  0  0  0
   -6.1070   18.2070  -33.3280 N   0  0  0  0  0  0  0  0  0  0  0  0
   -7.0370   18.6960  -32.4740 C   0  0  0  0  0  0  0  0  0  0  0  0
   -7.6450   20.0080  -32.1620 C   0  0  0  0  0  0  0  0  0  0  0  0
   -9.0440   20.1560  -32.2280 C   0  0  0  0  0  0  0  0  0  0  0  0
   -9.6420   21.3910  -31.9520 C   0  0  0  0  0  0  0  0  0  0  0  0
   -8.8480   22.4910  -31.6120 C   0  0  0  0  0  0  0  0  0  0  0  0
   -7.4590   22.3530  -31.5360 C   0  0  0  0  0  0  0  0  0  0  0  0
   -6.8580   21.1180  -31.8070 C   0  0  0  0  0  0  0  0  0  0  0  0
   -7.2370   17.4290  -32.0070 C   0  0  0  0  0  0  0  0  0  0  0  0
   -6.2800   16.9810  -32.8380 N   0  0  0  0  0  0  0  0  0  0  0  0
   -5.7360   15.6870  -33.1200 C   0  0  0  0  0  0  0  0  0  0  0  0
   -6.2500   14.9090  -34.1710 C   0  0  0  0  0  0  0  0  0  0  0  0
   -5.7480   13.6250  -34.4060 C   0  0  0  0  0  0  0  0  0  0  0  0
   -4.7250   13.1130  -33.5960 C   0  0  0  0  0  0  0  0  0  0  0  0
   -4.1890   13.8940  -32.5690 C   0  0  0  0  0  0  0  0  0  0  0  0
   -4.6880   15.1800  -32.3330 C   0  0  0  0  0  0  0  0  0  0  0  0
   -4.1210   21.5780  -33.3900 C   0  0  0  0  0  0  0  0  0  0  0  0
   -3.9700   22.6180  -32.2590 C   0  0  0  0  0  0  0  0  0  0  0  0
   -5.7054   25.4845  -29.8516 H   0  0  0  0  0  0  0  0  0  0  0  0
   -5.1253   26.2334  -31.3778 H   0  0  0  0  0  0  0  0  0  0  0  0
   -5.7164   24.5372  -31.3778 H   0  0  0  0  0  0  0  0  0  0  0  0
   -3.9485   25.2473  -27.8524 H   0  0  0  0  0  0  0  0  0  0  0  0
   -3.3088   23.5927  -26.1025 H   0  0  0  0  0  0  0  0  0  0  0  0
   -2.5285   21.3237  -26.7577 H   0  0  0  0  0  0  0  0  0  0  0  0
   -2.3731   20.7001  -29.1586 H   0  0  0  0  0  0  0  0  0  0  0  0
   -0.9524   22.7186  -31.7210 H   0  0  0  0  0  0  0  0  0  0  0  0
   -1.2491   21.0361  -31.1034 H   0  0  0  0  0  0  0  0  0  0  0  0
   -1.4598   22.1388  -33.8865 H   0  0  0  0  0  0  0  0  0  0  0  0
   -0.8809   20.5238  -33.2770 H   0  0  0  0  0  0  0  0  0  0  0  0
   -2.1538   18.8451  -32.9180 H   0  0  0  0  0  0  0  0  0  0  0  0
   -3.8093   19.2815  -32.2718 H   0  0  0  0  0  0  0  0  0  0  0  0
   -3.2940   18.5700  -35.1818 H   0  0  0  0  0  0  0  0  0  0  0  0
   -3.7532   17.3626  -33.9021 H   0  0  0  0  0  0  0  0  0  0  0  0
   -5.4110   19.8520  -34.4220 H   0  0  0  0  0  0  0  0  0  0  0  0
   -5.6409   18.3212  -35.3592 H   0  0  0  0  0  0  0  0  0  0  0  0
   -9.6717   19.2942  -32.4986 H   0  0  0  0  0  0  0  0  0  0  0  0
  -10.7358   21.4964  -32.0025 H   0  0  0  0  0  0  0  0  0  0  0  0
   -9.3163   23.4644  -31.4045 H   0  0  0  0  0  0  0  0  0  0  0  0
   -6.8363   23.2175  -31.2624 H   0  0  0  0  0  0  0  0  0  0  0  0
   -5.7647   21.0154  -31.7419 H   0  0  0  0  0  0  0  0  0  0  0  0
   -7.9025   16.9678  -31.2625 H   0  0  0  0  0  0  0  0  0  0  0  0
   -7.0495   15.3109  -34.8108 H   0  0  0  0  0  0  0  0  0  0  0  0
   -6.1561   13.0167  -35.2267 H   0  0  0  0  0  0  0  0  0  0  0  0
   -4.3440   12.0957  -33.7690 H   0  0  0  0  0  0  0  0  0  0  0  0
   -3.3741   13.4977  -31.9454 H   0  0  0  0  0  0  0  0  0  0  0  0
   -4.2586   15.7958  -31.5290 H   0  0  0  0  0  0  0  0  0  0  0  0
   -4.2763   22.1149  -34.3374 H   0  0  0  0  0  0  0  0  0  0  0  0
   -4.9755   20.9374  -33.1266 H   0  0  0  0  0  0  0  0  0  0  0  0
   -3.6925   23.5853  -32.7032 H   0  0  0  0  0  0  0  0  0  0  0  0
   -4.9319   22.6793  -31.7289 H   0  0  0  0  0  0  0  0  0  0  0  0
  1  2  1  0
  2  3  1  0
  3  4  2  0
  4  5  1  0
  5  6  2  0
  6  7  1  0
  7  8  2  0
  8  9  1  0
  9 10  1  0
 10 11  1  0
 11 12  1  0
 12 13  1  0
 13 14  1  0
 14 15  1  0
 15 16  1  0
 16 17  1  0
 17 18  1  0
 18 19  2  0
 19 20  1  0
 20 21  2  0
 21 22  1  0
 22 23  2  0
 17 24  2  0
 24 25  1  0
 25 26  1  0
 26 27  2  0
 27 28  1  0
 28 29  2  0
 29 30  1  0
 30 31  2  0
 12 32  1  0
 32 33  1  0
  8  3  1  0
 33  9  1  0
 25 16  1  0
 31 26  1  0
 23 18  1  0
  1 34  1  0
  1 35  1  0
  1 36  1  0
  4 37  1  0
  5 38  1  0
  6 39  1  0
  7 40  1  0
 10 41  1  0
 10 42  1  0
 11 43  1  0
 11 44  1  0
 13 45  1  0
 13 46  1  0
 14 47  1  0
 14 48  1  0
 15 49  1  0
 15 50  1  0
 19 51  1  0
 20 52  1  0
 21 53  1  0
 22 54  1  0
 23 55  1  0
 24 56  1  0
 27 57  1  0
 28 58  1  0
 29 59  1  0
 30 60  1  0
 31 61  1  0
 32 62  1  0
 32 63  1  0
 33 64  1  0
 33 65  1  0
M  END
>  <UniqueID>  (39) 
36

>  <SMILES>  (39) 
COc1ccccc1N1CCN(CCCn2c(-c3ccccc3)cn2-c2ccccc2)CC1

>  <Energy>  (39) 
76.90429490836529

>  <Genealogy>  (39) 
COc1ccccc1N1CCN(CCCn2c(-c3ccccc3)cn2-c2ccccc2)CC1 (3D coordinates assigned)
COc1ccccc1N1CCN(CCCn2c(-c3ccccc3)cn2-c2ccccc2)CC1 (nonaromatic ring conformer: 76.90429490836529 kcal/mol)

>  <smiles>  (39) 
COc1ccccc1N1CCN(CCCn2c(-c3ccccc3)cn2-c2ccccc2)CC1

>  <score_type>  (39) 
oracle

>  <origin>  (39) 
adg

>  <m_score__min__energy>  (39) 
-9.7400000000000002

>  <m_primary>  (39) 
energy

$$$$
39:0
     RDKit          3D

 32 33  0  0  0  0  0  0  0  0999 V2000
  -10.3327   21.7799  -30.9088 H   0  0  0  0  0  0  0  0  0  0  0  0
   -9.4220   21.5420  -31.4780 C   0  0  0  0  0  0  0  0  0  0  0  0
   -9.4630   20.5120  -32.3390 C   0  0  0  0  0  0  0  0  0  0  0  0
  -10.3966   20.3349  -32.8932 H   0  0  0  0  0  0  0  0  0  0  0  0
   -8.3190   19.6000  -32.5840 C   0  0  0  0  0  0  0  0  0  0  0  0
   -7.2670   20.0480  -33.4010 C   0  0  0  0  0  0  0  0  0  0  0  0
   -7.3054   21.0586  -33.8336 H   0  0  0  0  0  0  0  0  0  0  0  0
   -6.1720   19.2210  -33.6690 C   0  0  0  0  0  0  0  0  0  0  0  0
   -5.3568   19.5835  -34.3125 H   0  0  0  0  0  0  0  0  0  0  0  0
   -6.1080   17.9330  -33.1220 C   0  0  0  0  0  0  0  0  0  0  0  0
   -4.9510   17.0320  -33.4430 C   0  0  0  0  0  0  0  0  0  0  0  0
   -4.4934   16.6757  -32.5083 H   0  0  0  0  0  0  0  0  0  0  0  0
   -5.3077   16.1714  -34.0280 H   0  0  0  0  0  0  0  0  0  0  0  0
   -4.2040   17.5887  -34.0280 H   0  0  0  0  0  0  0  0  0  0  0  0
   -7.1690   17.4660  -32.3350 C   0  0  0  0  0  0  0  0  0  0  0  0
   -7.1388   16.4449  -31.9270 H   0  0  0  0  0  0  0  0  0  0  0  0
   -8.2660   18.2900  -32.0650 C   0  0  0  0  0  0  0  0  0  0  0  0
   -9.0925   17.9141  -31.4441 H   0  0  0  0  0  0  0  0  0  0  0  0
   -8.2160   22.3770  -31.2520 C   0  0  0  0  0  0  0  0  0  0  0  0
   -7.6210   23.1440  -32.2740 C   0  0  0  0  0  0  0  0  0  0  0  0
   -8.0598   23.1445  -33.2827 H   0  0  0  0  0  0  0  0  0  0  0  0
   -6.4770   23.9040  -32.0140 C   0  0  0  0  0  0  0  0  0  0  0  0
   -6.0186   24.4950  -32.8206 H   0  0  0  0  0  0  0  0  0  0  0  0
   -5.9100   23.9180  -30.7320 C   0  0  0  0  0  0  0  0  0  0  0  0
   -4.6600   24.7030  -30.4650 C   0  0  0  0  0  0  0  0  0  0  0  0
   -4.5108   24.7967  -29.3792 H   0  0  0  0  0  0  0  0  0  0  0  0
   -3.7986   24.1834  -30.9100 H   0  0  0  0  0  0  0  0  0  0  0  0
   -4.7539   25.7046  -30.9100 H   0  0  0  0  0  0  0  0  0  0  0  0
   -6.4770   23.1290  -29.7220 C   0  0  0  0  0  0  0  0  0  0  0  0
   -6.0206   23.1099  -28.7213 H   0  0  0  0  0  0  0  0  0  0  0  0
   -7.6200   22.3660  -29.9800 C   0  0  0  0  0  0  0  0  0  0  0  0
   -8.0567   21.7512  -29.1792 H   0  0  0  0  0  0  0  0  0  0  0  0
  1  2  1  0
  2  3  2  0
  3  4  1  0
  3  5  1  0
  5  6  2  0
  6  7  1  0
  6  8  1  0
  8  9  1  0
  8 10  2  0
 10 11  1  0
 11 12  1  0
 11 13  1  0
 11 14  1  0
 10 15  1  0
 15 16  1  0
 15 17  2  0
 17 18  1  0
  2 19  1  0
 19 20  2  0
 20 21  1  0
 20 22  1  0
 22 23  1  0
 22 24  2  0
 24 25  1  0
 25 26  1  0
 25 27  1  0
 25 28  1  0
 24 29  1  0
 29 30  1  0
 29 31  2  0
 31 32  1  0
 17  5  1  0
 31 19  1  0
M  END
>  <UniqueID>  (40) 
37

>  <SMILES>  (40) 
Cc1ccc(/C=C/c2ccc(C)cc2)cc1

>  <Energy>  (40) 
35.81090013068058

>  <Genealogy>  (40) 
Cc1ccc(/C=C/c2ccc(C)cc2)cc1 (cis-trans isomerization)
Cc1ccc(/C=C/c2ccc(C)cc2)cc1 (3D coordinates assigned)
Cc1ccc(/C=C/c2ccc(C)cc2)cc1 (optimized conformer: 35.81090013068058 kcal/mol)

>  <smiles>  (40) 
Cc1ccc(C=Cc2ccc(C)cc2)cc1

>  <score_type>  (40) 
oracle

>  <origin>  (40) 
adg

>  <m_score__min__energy>  (40) 
-7.4199999999999999

>  <m_primary>  (40) 
energy

$$$$
40:0
     RDKit          3D

 30 32  0  0  0  0  0  0  0  0999 V2000
   -4.2270   25.4230  -31.5940 H   0  0  0  0  0  0  0  0  0  0  0  0
   -3.8770   25.6710  -30.6790 O   0  0  0  0  0  0  0  0  0  0  0  0
   -3.1490   24.7930  -29.8800 C   0  0  0  0  0  0  0  0  0  0  0  0
   -2.2850   25.2360  -28.9340 N   0  0  0  0  0  0  0  0  0  0  0  0
   -1.7840   24.1140  -28.3800 C   0  0  0  0  0  0  0  0  0  0  0  0
   -0.8440   24.0420  -27.3520 C   0  0  0  0  0  0  0  0  0  0  0  0
   -0.4280   24.9543  -26.8997 H   0  0  0  0  0  0  0  0  0  0  0  0
   -0.4440   22.7670  -26.9110 C   0  0  0  0  0  0  0  0  0  0  0  0
    0.2950   22.6760  -26.1013 H   0  0  0  0  0  0  0  0  0  0  0  0
   -0.9850   21.6030  -27.5010 C   0  0  0  0  0  0  0  0  0  0  0  0
   -0.6639   20.6118  -27.1482 H   0  0  0  0  0  0  0  0  0  0  0  0
   -1.9310   21.7030  -28.5360 C   0  0  0  0  0  0  0  0  0  0  0  0
   -2.3590   20.8046  -29.0046 H   0  0  0  0  0  0  0  0  0  0  0  0
   -2.3080   22.9810  -28.9480 C   0  0  0  0  0  0  0  0  0  0  0  0
   -3.1870   23.3950  -29.9160 C   0  0  0  0  0  0  0  0  0  0  0  0
   -3.9480   22.5240  -30.7590 N   0  0  0  0  0  0  0  0  0  0  0  0
   -4.5180   22.9230  -31.8220 N   0  0  0  0  0  0  0  0  0  0  0  0
   -5.8960   23.3130  -31.8470 C   0  0  0  0  0  0  0  0  0  0  0  0
   -6.1770   24.5350  -31.7260 O   0  0  0  0  0  0  0  0  0  0  0  0
   -6.9970   22.3290  -31.9910 C   0  0  0  0  0  0  0  0  0  0  0  0
   -8.3070   22.6370  -31.5780 C   0  0  0  0  0  0  0  0  0  0  0  0
   -8.5271   23.6251  -31.1477 H   0  0  0  0  0  0  0  0  0  0  0  0
   -9.3300   21.6930  -31.7120 C   0  0  0  0  0  0  0  0  0  0  0  0
  -10.3535   21.9444  -31.3969 H   0  0  0  0  0  0  0  0  0  0  0  0
   -9.0550   20.4320  -32.2450 C   0  0  0  0  0  0  0  0  0  0  0  0
   -9.8622   19.6928  -32.3544 H   0  0  0  0  0  0  0  0  0  0  0  0
   -7.7550   20.1100  -32.6390 C   0  0  0  0  0  0  0  0  0  0  0  0
   -7.5383   19.1142  -33.0530 H   0  0  0  0  0  0  0  0  0  0  0  0
   -6.7280   21.0490  -32.5090 C   0  0  0  0  0  0  0  0  0  0  0  0
   -5.7042   20.7859  -32.8133 H   0  0  0  0  0  0  0  0  0  0  0  0
  1  2  1  0
  2  3  1  0
  3  4  1  0
  4  5  1  0
  5  6  2  0
  6  7  1  0
  6  8  1  0
  8  9  1  0
  8 10  2  0
 10 11  1  0
 10 12  1  0
 12 13  1  0
 12 14  2  0
 14 15  1  0
 15 16  1  0
 16 17  2  0
 17 18  1  0
 18 19  2  0
 18 20  1  0
 20 21  2  0
 21 22  1  0
 21 23  1  0
 23 24  1  0
 23 25  2  0
 25 26  1  0
 25 27  1  0
 27 28  1  0
 27 29  2  0
 29 30  1  0
 15  3  2  0
 29 20  1  0
 14  5  1  0
M  CHG  1   4  -1
M  END
>  <UniqueID>  (41) 
38

>  <SMILES>  (41) 
O=C(/N=N/c1c(O)[n-]c2ccccc12)c1ccccc1

>  <Energy>  (41) 
71.28071990057943

>  <Genealogy>  (41) 
O=C(N=Nc1c(O)[n-]c2ccccc12)c1ccccc1 (protonated)
O=C(/N=N/c1c(O)[n-]c2ccccc12)c1ccccc1 (cis-trans isomerization)
O=C(/N=N/c1c(O)[n-]c2ccccc12)c1ccccc1 (3D coordinates assigned)
O=C(/N=N/c1c(O)[n-]c2ccccc12)c1ccccc1 (optimized conformer: 71.28071990057943 kcal/mol)

>  <smiles>  (41) 
O=C(N=Nc1c(O)[nH]c2ccccc12)c1ccccc1

>  <score_type>  (41) 
oracle

>  <origin>  (41) 
adg

>  <m_score__min__energy>  (41) 
-10.279999999999999

>  <m_primary>  (41) 
energy

$$$$
41:0
     RDKit          3D

 29 30  0  0  0  0  0  0  0  0999 V2000
   -3.1020   21.5360  -29.7720 C   0  0  0  0  0  0  0  0  0  0  0  0
   -3.1580   21.9300  -28.3010 C   0  0  0  0  0  0  0  0  0  0  0  0
   -3.0700   23.7440  -28.0860 S   0  0  0  0  0  0  0  0  0  0  0  0
   -4.2080   24.1000  -29.4210 C   0  0  0  0  0  0  0  0  0  0  0  0
   -3.9330   24.9260  -30.4460 N   0  0  0  0  0  0  0  0  0  0  0  0
   -4.9900   24.8870  -31.2440 N   0  0  0  0  0  0  0  0  0  0  0  0
   -5.8630   24.0390  -30.6670 C   0  0  0  0  0  0  0  0  0  0  0  0
   -7.1670   23.6300  -31.2760 C   0  0  0  0  0  0  0  0  0  0  0  0
   -6.9490   22.7020  -32.3900 N   0  0  0  0  0  0  0  0  0  0  0  0
   -7.3470   21.3190  -32.3480 C   0  0  0  0  0  0  0  0  0  0  0  0
   -8.6860   21.0120  -32.0570 C   0  0  0  0  0  0  0  0  0  0  0  0
   -9.0970   19.6830  -31.9270 C   0  0  0  0  0  0  0  0  0  0  0  0
   -8.1780   18.6470  -32.0990 C   0  0  0  0  0  0  0  0  0  0  0  0
   -6.8490   18.9380  -32.4160 C   0  0  0  0  0  0  0  0  0  0  0  0
   -6.4260   20.2660  -32.5480 C   0  0  0  0  0  0  0  0  0  0  0  0
   -4.7600   20.5600  -33.0270 Cl  0  0  0  0  0  0  0  0  0  0  0  0
   -5.3940   23.5600  -29.5410 O   0  0  0  0  0  0  0  0  0  0  0  0
   -2.9477   20.4501  -29.8551 H   0  0  0  0  0  0  0  0  0  0  0  0
   -4.0482   21.8104  -30.2614 H   0  0  0  0  0  0  0  0  0  0  0  0
   -2.2698   22.0632  -30.2614 H   0  0  0  0  0  0  0  0  0  0  0  0
   -4.1015   21.5647  -27.8693 H   0  0  0  0  0  0  0  0  0  0  0  0
   -2.2928   21.4808  -27.7914 H   0  0  0  0  0  0  0  0  0  0  0  0
   -7.7844   23.1370  -30.5106 H   0  0  0  0  0  0  0  0  0  0  0  0
   -7.6768   24.5272  -31.6570 H   0  0  0  0  0  0  0  0  0  0  0  0
   -6.7970   23.1300  -33.3330 H   0  0  0  0  0  0  0  0  0  0  0  0
   -9.4170   21.8242  -31.9304 H   0  0  0  0  0  0  0  0  0  0  0  0
  -10.1460   19.4531  -31.6888 H   0  0  0  0  0  0  0  0  0  0  0  0
   -8.5001   17.6014  -31.9850 H   0  0  0  0  0  0  0  0  0  0  0  0
   -6.1302   18.1184  -32.5629 H   0  0  0  0  0  0  0  0  0  0  0  0
  1  2  1  0
  2  3  1  0
  3  4  1  0
  4  5  2  0
  5  6  1  0
  6  7  2  0
  7  8  1  0
  8  9  1  0
  9 10  1  0
 10 11  2  0
 11 12  1  0
 12 13  2  0
 13 14  1  0
 14 15  2  0
 15 16  1  0
  7 17  1  0
 17  4  1  0
 15 10  1  0
  1 18  1  0
  1 19  1  0
  1 20  1  0
  2 21  1  0
  2 22  1  0
  8 23  1  0
  8 24  1  0
  9 25  1  0
 11 26  1  0
 12 27  1  0
 13 28  1  0
 14 29  1  0
M  END
>  <UniqueID>  (42) 
39

>  <SMILES>  (42) 
CCSc1nnc(CNc2ccccc2Cl)o1

>  <Energy>  (42) 
60.633751139039816

>  <Genealogy>  (42) 
CCSc1nnc(CNc2ccccc2Cl)o1 (3D coordinates assigned)
CCSc1nnc(CNc2ccccc2Cl)o1 (optimized conformer: 60.633751139039816 kcal/mol)

>  <smiles>  (42) 
CCSc1nnc(CNc2ccccc2Cl)o1

>  <score_type>  (42) 
oracle

>  <origin>  (42) 
adg

>  <m_score__min__energy>  (42) 
-7.4500000000000002

>  <m_primary>  (42) 
energy

$$$$
42:0
     RDKit          3D

 48 51  0  0  0  0  0  0  0  0999 V2000
   -5.1080   24.5290  -29.3350 C   0  0  0  0  0  0  0  0  0  0  0  0
   -3.6920   24.0270  -29.3660 C   0  0  0  0  0  0  0  0  0  0  0  0
   -2.7510   24.6010  -28.4910 C   0  0  0  0  0  0  0  0  0  0  0  0
   -1.4230   24.1660  -28.4880 C   0  0  0  0  0  0  0  0  0  0  0  0
   -0.1610   24.9590  -27.2930 Br  0  0  0  0  0  0  0  0  0  0  0  0
   -1.0190   23.1530  -29.3560 C   0  0  0  0  0  0  0  0  0  0  0  0
   -1.9400   22.5730  -30.2290 C   0  0  0  0  0  0  0  0  0  0  0  0
   -3.2780   22.9960  -30.2490 C   0  0  0  0  0  0  0  0  0  0  0  0
   -4.1800   22.3620  -31.1710 N   0  0  0  0  0  0  0  0  0  0  0  0
   -4.7620   21.0340  -31.4630 C   0  0  0  0  0  0  0  0  0  0  0  0
   -5.5780   21.4680  -32.6390 C   0  0  0  0  0  0  0  0  0  0  0  0
   -7.0740   21.3610  -32.4130 C   0  0  0  0  0  0  0  0  0  0  0  0
   -7.7880   22.4560  -32.0210 N   0  0  0  0  0  0  0  0  0  0  0  0
   -9.1250   22.3930  -31.7950 C   0  0  0  0  0  0  0  0  0  0  0  0
   -9.7930   21.1820  -31.9630 C   0  0  0  0  0  0  0  0  0  0  0  0
   -9.0920   20.0800  -32.3340 N   0  0  0  0  0  0  0  0  0  0  0  0
   -7.7510   20.1320  -32.5560 C   0  0  0  0  0  0  0  0  0  0  0  0
   -7.0550   18.9360  -32.9240 N   0  0  0  0  0  0  0  0  0  0  0  0
   -7.1540   17.7490  -32.0680 C   0  0  0  0  0  0  0  0  0  0  0  0
   -5.8030   17.0280  -32.0210 C   0  0  0  0  0  0  0  0  0  0  0  0
   -5.2520   16.6870  -33.4320 C   0  0  0  0  0  0  0  0  0  0  0  0
   -5.3690   15.2440  -33.7020 C   0  0  0  0  0  0  0  0  0  0  0  0
   -5.4620   14.1090  -33.9150 N   0  0  0  0  0  0  0  0  0  0  0  0
   -5.9310   17.4810  -34.5700 C   0  0  0  0  0  0  0  0  0  0  0  0
   -6.2440   18.9190  -34.1470 C   0  0  0  0  0  0  0  0  0  0  0  0
   -4.9730   22.8050  -32.3340 C   0  0  0  0  0  0  0  0  0  0  0  0
   -5.4333   24.6443  -28.2906 H   0  0  0  0  0  0  0  0  0  0  0  0
   -5.1635   25.5016  -29.8459 H   0  0  0  0  0  0  0  0  0  0  0  0
   -5.7637   23.8085  -29.8459 H   0  0  0  0  0  0  0  0  0  0  0  0
   -3.0639   25.3999  -27.8027 H   0  0  0  0  0  0  0  0  0  0  0  0
    0.0264   22.8107  -29.3528 H   0  0  0  0  0  0  0  0  0  0  0  0
   -1.6131   21.7738  -30.9105 H   0  0  0  0  0  0  0  0  0  0  0  0
   -4.0000   20.2864  -31.7286 H   0  0  0  0  0  0  0  0  0  0  0  0
   -5.2960   20.5318  -30.6429 H   0  0  0  0  0  0  0  0  0  0  0  0
   -5.5455   21.0031  -33.6354 H   0  0  0  0  0  0  0  0  0  0  0  0
   -9.6769   23.2914  -31.4815 H   0  0  0  0  0  0  0  0  0  0  0  0
  -10.8785   21.1192  -31.7966 H   0  0  0  0  0  0  0  0  0  0  0  0
   -7.4399   18.0552  -31.0509 H   0  0  0  0  0  0  0  0  0  0  0  0
   -7.9145   17.0683  -32.4781 H   0  0  0  0  0  0  0  0  0  0  0  0
   -5.0770   17.6755  -31.5075 H   0  0  0  0  0  0  0  0  0  0  0  0
   -5.9535   16.0784  -31.4865 H   0  0  0  0  0  0  0  0  0  0  0  0
   -4.1933   16.9853  -33.4184 H   0  0  0  0  0  0  0  0  0  0  0  0
   -5.2582   17.5035  -35.4400 H   0  0  0  0  0  0  0  0  0  0  0  0
   -6.8793   16.9820  -34.8186 H   0  0  0  0  0  0  0  0  0  0  0  0
   -5.3009   19.4542  -33.9622 H   0  0  0  0  0  0  0  0  0  0  0  0
   -6.8099   19.4091  -34.9530 H   0  0  0  0  0  0  0  0  0  0  0  0
   -4.3462   23.1837  -33.1548 H   0  0  0  0  0  0  0  0  0  0  0  0
   -5.6680   23.6426  -32.1744 H   0  0  0  0  0  0  0  0  0  0  0  0
  1  2  1  0
  2  3  2  0
  3  4  1  0
  4  5  1  0
  4  6  2  0
  6  7  1  0
  7  8  2  0
  8  9  1  0
  9 10  1  0
 10 11  1  0
 11 12  1  0
 12 13  2  0
 13 14  1  0
 14 15  2  0
 15 16  1  0
 16 17  2  0
 17 18  1  0
 18 19  1  0
 19 20  1  0
 20 21  1  0
 21 22  1  0
 22 23  3  0
 21 24  1  0
 24 25  1  0
 11 26  1  0
  8  2  1  0
 26  9  1  0
 17 12  1  0
 25 18  1  0
  1 27  1  0
  1 28  1  0
  1 29  1  0
  3 30  1  0
  6 31  1  0
  7 32  1  0
 10 33  1  0
 10 34  1  0
 11 35  1  0
 14 36  1  0
 15 37  1  0
 19 38  1  0
 19 39  1  0
 20 40  1  0
 20 41  1  0
 21 42  1  0
 24 43  1  0
 24 44  1  0
 25 45  1  0
 25 46  1  0
 26 47  1  0
 26 48  1  0
M  END
>  <UniqueID>  (43) 
40

>  <SMILES>  (43) 
Cc1cc(Br)ccc1N1CC(c2nccnc2N2CCC(C#N)CC2)C1

>  <Energy>  (43) 
106.0821282747639

>  <Genealogy>  (43) 
Cc1cc(Br)ccc1N1CC(c2nccnc2N2CCC(C#N)CC2)C1 (3D coordinates assigned)
Cc1cc(Br)ccc1N1CC(c2nccnc2N2CCC(C#N)CC2)C1 (nonaromatic ring conformer: 106.0821282747639 kcal/mol)

>  <smiles>  (43) 
Cc1cc(Br)ccc1N1CC(c2nccnc2N2CCC(C#N)CC2)C1

>  <score_type>  (43) 
oracle

>  <origin>  (43) 
adg

>  <m_score__min__energy>  (43) 
-8.5299999999999994

>  <m_primary>  (43) 
energy

$$$$
43:0
     RDKit          3D

 73 77  0  0  0  0  0  0  0  0999 V2000
    0.2510   23.2290  -26.8080 C   0  0  0  0  0  0  0  0  0  0  0  0
   -1.0730   23.4680  -26.0820 C   0  0  0  0  0  0  0  0  0  0  0  0
   -1.2470   24.9350  -25.6770 C   0  0  0  0  0  0  0  0  0  0  0  0
   -2.1550   25.6180  -26.6080 N   0  0  0  0  0  0  0  0  0  0  0  0
   -2.6980   24.7040  -27.6250 C   0  0  0  0  0  0  0  0  0  0  0  0
   -4.2250   24.5350  -27.5110 C   0  0  0  0  0  0  0  0  0  0  0  0
   -4.7900   24.0790  -28.7870 N   0  0  0  0  0  0  0  0  0  0  0  0
   -5.7320   24.7190  -29.5190 C   0  0  0  0  0  0  0  0  0  0  0  0
   -6.3340   25.9250  -29.1640 O   0  0  0  0  0  0  0  0  0  0  0  0
   -6.0110   24.0380  -30.6830 C   0  0  0  0  0  0  0  0  0  0  0  0
   -5.1830   22.9310  -30.6800 C   0  0  0  0  0  0  0  0  0  0  0  0
   -4.4460   22.9760  -29.4980 C   0  0  0  0  0  0  0  0  0  0  0  0
   -3.4250   21.9680  -29.1020 C   0  0  0  0  0  0  0  0  0  0  0  0
   -3.4880   21.3480  -27.8460 C   0  0  0  0  0  0  0  0  0  0  0  0
   -2.5840   20.3260  -27.4990 C   0  0  0  0  0  0  0  0  0  0  0  0
   -2.6140   19.7020  -26.2420 O   0  0  0  0  0  0  0  0  0  0  0  0
   -3.4400   18.5900  -25.9110 C   0  0  0  0  0  0  0  0  0  0  0  0
   -1.6250   19.9000  -28.4300 C   0  0  0  0  0  0  0  0  0  0  0  0
   -0.7530   18.8640  -28.0660 O   0  0  0  0  0  0  0  0  0  0  0  0
    0.2740   18.3430  -28.9050 C   0  0  0  0  0  0  0  0  0  0  0  0
   -1.5670   20.5130  -29.6950 C   0  0  0  0  0  0  0  0  0  0  0  0
   -2.4530   21.5410  -30.0260 C   0  0  0  0  0  0  0  0  0  0  0  0
   -2.3490   22.2920  -31.6490 S   0  0  0  0  0  0  0  0  0  0  0  0
   -3.8450   21.4410  -32.1910 C   0  0  0  0  0  0  0  0  0  0  0  0
   -3.7590   20.3350  -33.0590 C   0  0  0  0  0  0  0  0  0  0  0  0
   -2.4450   19.7990  -33.4600 C   0  0  0  0  0  0  0  0  0  0  0  0
   -2.0490   18.5220  -33.0330 C   0  0  0  0  0  0  0  0  0  0  0  0
   -0.7930   18.0230  -33.3870 C   0  0  0  0  0  0  0  0  0  0  0  0
    0.0710   18.7920  -34.1740 C   0  0  0  0  0  0  0  0  0  0  0  0
   -0.3220   20.0620  -34.6060 C   0  0  0  0  0  0  0  0  0  0  0  0
   -1.5760   20.5670  -34.2510 C   0  0  0  0  0  0  0  0  0  0  0  0
   -4.9300   19.7150  -33.5270 C   0  0  0  0  0  0  0  0  0  0  0  0
   -4.8110   18.6190  -34.3980 O   0  0  0  0  0  0  0  0  0  0  0  0
   -5.8180   17.6350  -34.6070 C   0  0  0  0  0  0  0  0  0  0  0  0
   -6.1830   20.2050  -33.1170 C   0  0  0  0  0  0  0  0  0  0  0  0
   -6.2790   21.2770  -32.2120 C   0  0  0  0  0  0  0  0  0  0  0  0
   -7.5230   21.7390  -31.7480 O   0  0  0  0  0  0  0  0  0  0  0  0
   -8.4160   20.9870  -30.9330 C   0  0  0  0  0  0  0  0  0  0  0  0
   -5.1030   21.8890  -31.7350 C   0  0  0  0  0  0  0  0  0  0  0  0
    1.0532   23.0842  -26.0694 H   0  0  0  0  0  0  0  0  0  0  0  0
    0.1667   22.3316  -27.4385 H   0  0  0  0  0  0  0  0  0  0  0  0
    0.4858   24.0993  -27.4385 H   0  0  0  0  0  0  0  0  0  0  0  0
   -1.9003   23.1828  -26.7485 H   0  0  0  0  0  0  0  0  0  0  0  0
   -1.0734   22.8595  -25.1656 H   0  0  0  0  0  0  0  0  0  0  0  0
   -1.6657   24.9835  -24.6610 H   0  0  0  0  0  0  0  0  0  0  0  0
   -0.2662   25.4322  -25.7052 H   0  0  0  0  0  0  0  0  0  0  0  0
   -2.9450   26.0430  -26.0670 H   0  0  0  0  0  0  0  0  0  0  0  0
   -2.4608   25.1043  -28.6218 H   0  0  0  0  0  0  0  0  0  0  0  0
   -2.2396   23.7168  -27.4661 H   0  0  0  0  0  0  0  0  0  0  0  0
   -4.4496   23.7933  -26.7303 H   0  0  0  0  0  0  0  0  0  0  0  0
   -4.6714   25.5064  -27.2519 H   0  0  0  0  0  0  0  0  0  0  0  0
   -5.7970   26.7260  -28.8580 H   0  0  0  0  0  0  0  0  0  0  0  0
   -6.7421   24.3174  -31.4559 H   0  0  0  0  0  0  0  0  0  0  0  0
   -4.2537   21.6642  -27.1223 H   0  0  0  0  0  0  0  0  0  0  0  0
   -3.5089   18.4972  -24.8171 H   0  0  0  0  0  0  0  0  0  0  0  0
   -4.4455   18.7425  -26.3301 H   0  0  0  0  0  0  0  0  0  0  0  0
   -3.0035   17.6714  -26.3301 H   0  0  0  0  0  0  0  0  0  0  0  0
    1.0829   17.9326  -28.2827 H   0  0  0  0  0  0  0  0  0  0  0  0
   -0.1404   17.5461  -29.5400 H   0  0  0  0  0  0  0  0  0  0  0  0
    0.6723   19.1480  -29.5400 H   0  0  0  0  0  0  0  0  0  0  0  0
   -0.8183   20.1803  -30.4290 H   0  0  0  0  0  0  0  0  0  0  0  0
   -2.7286   17.9131  -32.4187 H   0  0  0  0  0  0  0  0  0  0  0  0
   -0.4830   17.0240  -33.0464 H   0  0  0  0  0  0  0  0  0  0  0  0
    1.0592   18.3974  -34.4527 H   0  0  0  0  0  0  0  0  0  0  0  0
    0.3570   20.6652  -35.2266 H   0  0  0  0  0  0  0  0  0  0  0  0
   -1.8822   21.5671  -34.5917 H   0  0  0  0  0  0  0  0  0  0  0  0
   -6.1863   17.2751  -33.6350 H   0  0  0  0  0  0  0  0  0  0  0  0
   -6.6507   18.0771  -35.1738 H   0  0  0  0  0  0  0  0  0  0  0  0
   -5.3952   16.7924  -35.1738 H   0  0  0  0  0  0  0  0  0  0  0  0
   -7.1008   19.7431  -33.5098 H   0  0  0  0  0  0  0  0  0  0  0  0
   -8.1919   21.1757  -29.8727 H   0  0  0  0  0  0  0  0  0  0  0  0
   -9.4515   21.2891  -31.1483 H   0  0  0  0  0  0  0  0  0  0  0  0
   -8.2945   19.9151  -31.1483 H   0  0  0  0  0  0  0  0  0  0  0  0
  1  2  1  0
  2  3  1  0
  3  4  1  0
  4  5  1  0
  5  6  1  0
  6  7  1  0
  7  8  1  0
  8  9  1  0
  8 10  2  0
 10 11  1  0
 11 12  2  0
 12 13  1  0
 13 14  2  0
 14 15  1  0
 15 16  1  0
 16 17  1  0
 15 18  2  0
 18 19  1  0
 19 20  1  0
 18 21  1  0
 21 22  2  0
 22 23  1  0
 23 24  1  0
 24 25  2  0
 25 26  1  0
 26 27  2  0
 27 28  1  0
 28 29  2  0
 29 30  1  0
 30 31  2  0
 25 32  1  0
 32 33  1  0
 33 34  1  0
 32 35  2  0
 35 36  1  0
 36 37  1  0
 37 38  1  0
 36 39  2  0
 12  7  1  0
 22 13  1  0
 39 24  1  0
 39 11  1  0
 31 26  1  0
  1 40  1  0
  1 41  1  0
  1 42  1  0
  2 43  1  0
  2 44  1  0
  3 45  1  0
  3 46  1  0
  4 47  1  0
  5 48  1  0
  5 49  1  0
  6 50  1  0
  6 51  1  0
  9 52  1  0
 10 53  1  0
 14 54  1  0
 17 55  1  0
 17 56  1  0
 17 57  1  0
 20 58  1  0
 20 59  1  0
 20 60  1  0
 21 61  1  0
 27 62  1  0
 28 63  1  0
 29 64  1  0
 30 65  1  0
 31 66  1  0
 34 67  1  0
 34 68  1  0
 34 69  1  0
 35 70  1  0
 38 71  1  0
 38 72  1  0
 38 73  1  0
M  END
>  <UniqueID>  (44) 
41

>  <SMILES>  (44) 
CCCNCCn1c(O)cc2c1-c1cc(OC)c(OC)cc1Sc1c(-c3ccccc3)c(OC)cc(OC)c1-2

>  <Energy>  (44) 
117.21136863121167

>  <Genealogy>  (44) 
CCCNCCn1c(O)cc2c1-c1cc(OC)c(OC)cc1Sc1c(-c3ccccc3)c(OC)cc(OC)c1-2 (3D coordinates assigned)
CCCNCCn1c(O)cc2c1-c1cc(OC)c(OC)cc1Sc1c(-c3ccccc3)c(OC)cc(OC)c1-2 (nonaromatic ring conformer: 117.21136863121167 kcal/mol)

>  <smiles>  (44) 
CCCNCCn1c(O)cc2c1-c1cc(OC)c(OC)cc1Sc1c(-c3ccccc3)c(OC)cc(OC)c1-2

>  <score_type>  (44) 
oracle

>  <origin>  (44) 
adg

>  <m_score__min__energy>  (44) 
-9.2100000000000009

>  <m_primary>  (44) 
energy

$$$$
44:0
     RDKit          3D

 51 53  0  0  0  0  0  0  0  0999 V2000
   -1.9690   24.9160  -28.8470 C   0  0  0  0  0  0  0  0  0  0  0  0
   -3.2750   24.2510  -28.8070 N   0  0  0  0  0  0  0  0  0  0  0  0
   -3.6400   23.4170  -27.6560 C   0  0  0  0  0  0  0  0  0  0  0  0
   -4.1940   24.4480  -29.9040 C   0  0  0  0  0  0  0  0  0  0  0  0
   -3.9200   25.2910  -30.8030 O   0  0  0  0  0  0  0  0  0  0  0  0
   -5.4590   23.6460  -30.0410 C   0  0  0  0  0  0  0  0  0  0  0  0
   -6.2210   23.9020  -31.6810 S   0  0  0  0  0  0  0  0  0  0  0  0
   -6.2060   22.1600  -32.1240 C   0  0  0  0  0  0  0  0  0  0  0  0
   -7.2840   21.3590  -31.9360 N   0  0  0  0  0  0  0  0  0  0  0  0
   -6.8600   20.1740  -32.4170 C   0  0  0  0  0  0  0  0  0  0  0  0
   -5.5890   20.2670  -32.8760 C   0  0  0  0  0  0  0  0  0  0  0  0
   -4.9690   19.1590  -33.4470 C   0  0  0  0  0  0  0  0  0  0  0  0
   -3.8020   19.2440  -33.9170 O   0  0  0  0  0  0  0  0  0  0  0  0
   -5.6650   17.9710  -33.4900 N   0  0  0  0  0  0  0  0  0  0  0  0
   -5.0470   16.7820  -34.0990 C   0  0  0  0  0  0  0  0  0  0  0  0
   -6.9690   17.9100  -33.0240 C   0  0  0  0  0  0  0  0  0  0  0  0
   -7.6080   16.8210  -33.0910 O   0  0  0  0  0  0  0  0  0  0  0  0
   -7.5810   19.0220  -32.4900 N   0  0  0  0  0  0  0  0  0  0  0  0
   -8.9480   18.9520  -31.9590 C   0  0  0  0  0  0  0  0  0  0  0  0
   -5.1450   21.5250  -32.6890 N   0  0  0  0  0  0  0  0  0  0  0  0
   -3.8670   22.1180  -33.0890 C   0  0  0  0  0  0  0  0  0  0  0  0
   -2.8490   21.9940  -31.9540 C   0  0  0  0  0  0  0  0  0  0  0  0
   -1.5980   21.3120  -32.4370 C   0  0  0  0  0  0  0  0  0  0  0  0
   -1.3380   21.2020  -33.8130 C   0  0  0  0  0  0  0  0  0  0  0  0
   -0.1930   20.5380  -34.2630 C   0  0  0  0  0  0  0  0  0  0  0  0
    0.6940   19.9710  -33.3430 C   0  0  0  0  0  0  0  0  0  0  0  0
    0.4350   20.0640  -31.9720 C   0  0  0  0  0  0  0  0  0  0  0  0
   -0.7090   20.7290  -31.5190 C   0  0  0  0  0  0  0  0  0  0  0  0
   -1.6172   25.0952  -27.8203 H   0  0  0  0  0  0  0  0  0  0  0  0
   -1.2474   24.2755  -29.3754 H   0  0  0  0  0  0  0  0  0  0  0  0
   -2.0625   25.8763  -29.3754 H   0  0  0  0  0  0  0  0  0  0  0  0
   -3.4051   23.9538  -26.7251 H   0  0  0  0  0  0  0  0  0  0  0  0
   -4.7171   23.1961  -27.6901 H   0  0  0  0  0  0  0  0  0  0  0  0
   -3.0715   22.4759  -27.6901 H   0  0  0  0  0  0  0  0  0  0  0  0
   -5.2237   22.5787  -29.9162 H   0  0  0  0  0  0  0  0  0  0  0  0
   -6.1692   23.9766  -29.2688 H   0  0  0  0  0  0  0  0  0  0  0  0
   -4.6952   16.1051  -33.3065 H   0  0  0  0  0  0  0  0  0  0  0  0
   -5.7889   16.2620  -34.7228 H   0  0  0  0  0  0  0  0  0  0  0  0
   -4.1951   17.0904  -34.7228 H   0  0  0  0  0  0  0  0  0  0  0  0
   -8.9148   18.9537  -30.8595 H   0  0  0  0  0  0  0  0  0  0  0  0
   -9.5226   19.8219  -32.3098 H   0  0  0  0  0  0  0  0  0  0  0  0
   -9.4308   18.0280  -32.3098 H   0  0  0  0  0  0  0  0  0  0  0  0
   -3.4857   21.5941  -33.9779 H   0  0  0  0  0  0  0  0  0  0  0  0
   -4.0214   23.1828  -33.3180 H   0  0  0  0  0  0  0  0  0  0  0  0
   -2.5939   22.9987  -31.5858 H   0  0  0  0  0  0  0  0  0  0  0  0
   -3.2908   21.3932  -31.1454 H   0  0  0  0  0  0  0  0  0  0  0  0
   -2.0382   21.6401  -34.5395 H   0  0  0  0  0  0  0  0  0  0  0  0
    0.0101   20.4616  -35.3414 H   0  0  0  0  0  0  0  0  0  0  0  0
    1.5962   19.4514  -33.6979 H   0  0  0  0  0  0  0  0  0  0  0  0
    1.1315   19.6138  -31.2493 H   0  0  0  0  0  0  0  0  0  0  0  0
   -0.9132   20.7957  -30.4402 H   0  0  0  0  0  0  0  0  0  0  0  0
  1  2  1  0
  2  3  1  0
  2  4  1  0
  4  5  2  0
  4  6  1  0
  6  7  1  0
  7  8  1  0
  8  9  2  0
  9 10  1  0
 10 11  2  0
 11 12  1  0
 12 13  2  0
 12 14  1  0
 14 15  1  0
 14 16  1  0
 16 17  2  0
 16 18  1  0
 18 19  1  0
 11 20  1  0
 20 21  1  0
 21 22  1  0
 22 23  1  0
 23 24  2  0
 24 25  1  0
 25 26  2  0
 26 27  1  0
 27 28  2  0
 20  8  1  0
 28 23  1  0
 18 10  1  0
  1 29  1  0
  1 30  1  0
  1 31  1  0
  3 32  1  0
  3 33  1  0
  3 34  1  0
  6 35  1  0
  6 36  1  0
 15 37  1  0
 15 38  1  0
 15 39  1  0
 19 40  1  0
 19 41  1  0
 19 42  1  0
 21 43  1  0
 21 44  1  0
 22 45  1  0
 22 46  1  0
 24 47  1  0
 25 48  1  0
 26 49  1  0
 27 50  1  0
 28 51  1  0
M  END
>  <UniqueID>  (45) 
42

>  <SMILES>  (45) 
CN(C)C(=O)CSc1nc2c(c(=O)n(C)c(=O)n2C)n1CCc1ccccc1

>  <Energy>  (45) 
87.4967886231857

>  <Genealogy>  (45) 
CN(C)C(=O)CSc1nc2c(c(=O)n(C)c(=O)n2C)n1CCc1ccccc1 (3D coordinates assigned)
CN(C)C(=O)CSc1nc2c(c(=O)n(C)c(=O)n2C)n1CCc1ccccc1 (optimized conformer: 87.4967886231857 kcal/mol)

>  <smiles>  (45) 
CN(C)C(=O)CSc1nc2c(c(=O)n(C)c(=O)n2C)n1CCc1ccccc1

>  <score_type>  (45) 
oracle

>  <origin>  (45) 
adg

>  <m_score__min__energy>  (45) 
-8.4499999999999993

>  <m_primary>  (45) 
energy

$$$$
45:0
     RDKit          3D

 23 24  0  0  0  0  0  0  0  0999 V2000
   -9.0890   18.9350  -32.6650 C   0  0  0  0  0  0  0  0  0  0  0  0
   -8.3640   20.1660  -32.1940 C   0  0  0  0  0  0  0  0  0  0  0  0
   -9.0030   21.0660  -31.3290 C   0  0  0  0  0  0  0  0  0  0  0  0
   -8.3420   22.2130  -30.8840 C   0  0  0  0  0  0  0  0  0  0  0  0
   -7.0260   22.4860  -31.2950 C   0  0  0  0  0  0  0  0  0  0  0  0
   -6.3430   23.6700  -30.8350 N   0  0  0  0  0  0  0  0  0  0  0  0
   -5.0550   23.9990  -31.0690 C   0  0  0  0  0  0  0  0  0  0  0  0
   -4.7590   25.2050  -30.4680 C   0  0  0  0  0  0  0  0  0  0  0  0
   -5.9150   25.6280  -29.8450 C   0  0  0  0  0  0  0  0  0  0  0  0
   -6.8710   24.6640  -30.0880 C   0  0  0  0  0  0  0  0  0  0  0  0
   -6.3880   21.5820  -32.1630 C   0  0  0  0  0  0  0  0  0  0  0  0
   -7.0450   20.4320  -32.6120 C   0  0  0  0  0  0  0  0  0  0  0  0
   -6.1910   19.3450  -33.7030 Cl  0  0  0  0  0  0  0  0  0  0  0  0
   -9.4305   18.3551  -31.7949 H   0  0  0  0  0  0  0  0  0  0  0  0
   -9.9572   19.2306  -33.2723 H   0  0  0  0  0  0  0  0  0  0  0  0
   -8.4094   18.3191  -33.2723 H   0  0  0  0  0  0  0  0  0  0  0  0
  -10.0331   20.8670  -30.9983 H   0  0  0  0  0  0  0  0  0  0  0  0
   -8.8563   22.9094  -30.2054 H   0  0  0  0  0  0  0  0  0  0  0  0
   -4.3456   23.3944  -31.6531 H   0  0  0  0  0  0  0  0  0  0  0  0
   -3.7909   25.7271  -30.4827 H   0  0  0  0  0  0  0  0  0  0  0  0
   -6.0483   26.5542  -29.2668 H   0  0  0  0  0  0  0  0  0  0  0  0
   -7.9095   24.6993  -29.7270 H   0  0  0  0  0  0  0  0  0  0  0  0
   -5.3580   21.7822  -32.4933 H   0  0  0  0  0  0  0  0  0  0  0  0
  1  2  1  0
  2  3  2  0
  3  4  1  0
  4  5  2  0
  5  6  1  0
  6  7  1  0
  7  8  2  0
  8  9  1  0
  9 10  2  0
  5 11  1  0
 11 12  2  0
 12 13  1  0
 12  2  1  0
 10  6  1  0
  1 14  1  0
  1 15  1  0
  1 16  1  0
  3 17  1  0
  4 18  1  0
  7 19  1  0
  8 20  1  0
  9 21  1  0
 10 22  1  0
 11 23  1  0
M  END
>  <UniqueID>  (46) 
43

>  <SMILES>  (46) 
Cc1ccc(-n2cccc2)cc1Cl

>  <Energy>  (46) 
52.85393821512398

>  <Genealogy>  (46) 
Cc1ccc(-n2cccc2)cc1Cl (3D coordinates assigned)
Cc1ccc(-n2cccc2)cc1Cl (optimized conformer: 52.85393821512398 kcal/mol)

>  <smiles>  (46) 
Cc1ccc(-n2cccc2)cc1Cl

>  <score_type>  (46) 
oracle

>  <origin>  (46) 
adg

>  <m_score__min__energy>  (46) 
-6.1200000000000001

>  <m_primary>  (46) 
energy

$$$$
46:0
     RDKit          3D

 35 38  0  0  0  0  0  0  0  0999 V2000
   -7.9560   22.9060  -30.6510 N   0  0  0  0  0  0  0  0  0  0  0  0
   -8.2020   21.8930  -31.4010 C   0  0  0  0  0  0  0  0  0  0  0  0
   -9.4910   21.5640  -31.5840 N   0  0  0  0  0  0  0  0  0  0  0  0
   -9.8410   20.4960  -32.3380 C   0  0  0  0  0  0  0  0  0  0  0  0
   -8.9170   19.7140  -32.9410 N   0  0  0  0  0  0  0  0  0  0  0  0
   -7.6130   20.0450  -32.7590 C   0  0  0  0  0  0  0  0  0  0  0  0
   -6.7050   19.2740  -33.3330 N   0  0  0  0  0  0  0  0  0  0  0  0
   -5.3890   19.5140  -33.1960 C   0  0  0  0  0  0  0  0  0  0  0  0
   -4.4480   18.6220  -33.8550 C   0  0  0  0  0  0  0  0  0  0  0  0
   -4.8390   17.5870  -34.6890 C   0  0  0  0  0  0  0  0  0  0  0  0
   -3.9050   16.7520  -35.3030 C   0  0  0  0  0  0  0  0  0  0  0  0
   -2.5830   16.9220  -35.1050 N   0  0  0  0  0  0  0  0  0  0  0  0
   -2.1740   17.9230  -34.2950 C   0  0  0  0  0  0  0  0  0  0  0  0
   -3.0880   18.7720  -33.6690 C   0  0  0  0  0  0  0  0  0  0  0  0
   -4.9900   20.5920  -32.4370 C   0  0  0  0  0  0  0  0  0  0  0  0
   -5.9140   21.4400  -31.8110 C   0  0  0  0  0  0  0  0  0  0  0  0
   -5.4070   22.5810  -31.0850 C   0  0  0  0  0  0  0  0  0  0  0  0
   -4.9480   22.5630  -29.7890 C   0  0  0  0  0  0  0  0  0  0  0  0
   -4.4710   23.7230  -29.1990 C   0  0  0  0  0  0  0  0  0  0  0  0
   -4.4540   24.9130  -29.9080 C   0  0  0  0  0  0  0  0  0  0  0  0
   -4.9100   24.9060  -31.1760 N   0  0  0  0  0  0  0  0  0  0  0  0
   -5.3780   23.7960  -31.7760 C   0  0  0  0  0  0  0  0  0  0  0  0
   -7.2340   21.1280  -31.9960 C   0  0  0  0  0  0  0  0  0  0  0  0
   -7.7500   22.7840  -29.6420 H   0  0  0  0  0  0  0  0  0  0  0  0
  -10.9074   20.2572  -32.4639 H   0  0  0  0  0  0  0  0  0  0  0  0
   -9.2320   18.9120  -33.5050 H   0  0  0  0  0  0  0  0  0  0  0  0
   -5.9108   17.4197  -34.8713 H   0  0  0  0  0  0  0  0  0  0  0  0
   -4.2536   15.9413  -35.9597 H   0  0  0  0  0  0  0  0  0  0  0  0
   -1.0975   18.0721  -34.1252 H   0  0  0  0  0  0  0  0  0  0  0  0
   -2.7180   19.5756  -33.0153 H   0  0  0  0  0  0  0  0  0  0  0  0
   -3.9151   20.7932  -32.3187 H   0  0  0  0  0  0  0  0  0  0  0  0
   -4.9594   21.6232  -29.2175 H   0  0  0  0  0  0  0  0  0  0  0  0
   -4.1040   23.6985  -28.1623 H   0  0  0  0  0  0  0  0  0  0  0  0
   -4.0783   25.8389  -29.4482 H   0  0  0  0  0  0  0  0  0  0  0  0
   -5.7390   23.8449  -32.8139 H   0  0  0  0  0  0  0  0  0  0  0  0
  1  2  2  3
  2  3  1  0
  3  4  2  0
  4  5  1  0
  5  6  1  0
  6  7  2  0
  7  8  1  0
  8  9  1  0
  9 10  2  0
 10 11  1  0
 11 12  2  0
 12 13  1  0
 13 14  2  0
  8 15  2  0
 15 16  1  0
 16 17  1  0
 17 18  2  0
 18 19  1  0
 19 20  2  0
 20 21  1  0
 21 22  2  0
 16 23  2  0
 23  2  1  0
 23  6  1  0
 14  9  1  0
 22 17  1  0
  1 24  1  0
  4 25  1  0
  5 26  1  0
 10 27  1  0
 11 28  1  0
 13 29  1  0
 14 30  1  0
 15 31  1  0
 18 32  1  0
 19 33  1  0
 20 34  1  0
 22 35  1  0
M  END
>  <smiles>  (47) 
N=c1nc[nH]c2nc(-c3ccncc3)cc(-c3cccnc3)c12

>  <score_type>  (47) 
oracle

>  <origin>  (47) 
adg

>  <m_score__min__energy>  (47) 
-7.5700000000000003

>  <m_primary>  (47) 
energy

$$$$
47:0
     RDKit          3D

 21 21  0  0  0  0  0  0  0  0999 V2000
   -2.9560   24.1760  -29.3620 C   0  0  0  0  0  0  0  0  0  0  0  0
   -3.6570   24.4630  -30.5680 O   0  0  0  0  0  0  0  0  0  0  0  0
   -4.6140   23.6180  -31.1550 C   0  0  0  0  0  0  0  0  0  0  0  0
   -4.2400   22.4620  -31.8690 C   0  0  0  0  0  0  0  0  0  0  0  0
   -5.2120   21.6500  -32.4580 C   0  0  0  0  0  0  0  0  0  0  0  0
   -4.8420   20.5410  -33.1440 F   0  0  0  0  0  0  0  0  0  0  0  0
   -6.5620   21.9810  -32.3500 C   0  0  0  0  0  0  0  0  0  0  0  0
   -6.9490   23.1240  -31.6450 C   0  0  0  0  0  0  0  0  0  0  0  0
   -8.2680   23.4330  -31.5680 F   0  0  0  0  0  0  0  0  0  0  0  0
   -5.9830   23.9410  -31.0280 C   0  0  0  0  0  0  0  0  0  0  0  0
   -6.4130   25.1890  -30.2960 C   0  0  0  0  0  0  0  0  0  0  0  0
   -5.4110   26.2350  -30.4660 N   0  0  0  0  0  0  0  0  0  0  0  0
   -3.5883   24.4349  -28.4999 H   0  0  0  0  0  0  0  0  0  0  0  0
   -2.7094   23.1046  -29.3273 H   0  0  0  0  0  0  0  0  0  0  0  0
   -2.0288   24.7669  -29.3273 H   0  0  0  0  0  0  0  0  0  0  0  0
   -3.1764   22.1976  -31.9630 H   0  0  0  0  0  0  0  0  0  0  0  0
   -7.3236   21.3417  -32.8203 H   0  0  0  0  0  0  0  0  0  0  0  0
   -7.3749   25.5362  -30.7012 H   0  0  0  0  0  0  0  0  0  0  0  0
   -6.5206   24.9615  -29.2252 H   0  0  0  0  0  0  0  0  0  0  0  0
   -4.9030   26.0590  -31.3640 H   0  0  0  0  0  0  0  0  0  0  0  0
   -4.7060   26.1290  -29.7010 H   0  0  0  0  0  0  0  0  0  0  0  0
  1  2  1  0
  2  3  1  0
  3  4  2  0
  4  5  1  0
  5  6  1  0
  5  7  2  0
  7  8  1  0
  8  9  1  0
  8 10  2  0
 10 11  1  0
 11 12  1  0
 10  3  1  0
  1 13  1  0
  1 14  1  0
  1 15  1  0
  4 16  1  0
  7 17  1  0
 11 18  1  0
 11 19  1  0
 12 20  1  0
 12 21  1  0
M  END
>  <UniqueID>  (48) 
44

>  <SMILES>  (48) 
COc1cc(F)cc(F)c1CN

>  <Energy>  (48) 
18.052792880341627

>  <Genealogy>  (48) 
COc1cc(F)cc(F)c1CN (3D coordinates assigned)
COc1cc(F)cc(F)c1CN (optimized conformer: 18.052792880341627 kcal/mol)

>  <smiles>  (48) 
COc1cc(F)cc(F)c1CN

>  <score_type>  (48) 
oracle

>  <origin>  (48) 
adg

>  <m_score__min__energy>  (48) 
-4.4900000000000002

>  <m_primary>  (48) 
energy

$$$$
48:0
     RDKit          3D

 28 29  0  0  0  0  0  0  0  0999 V2000
   -6.8590   18.8320  -35.6510 H   0  0  0  0  0  0  0  0  0  0  0  0
   -6.0150   18.5960  -35.1900 O   0  0  0  0  0  0  0  0  0  0  0  0
   -6.4910   17.7320  -33.8300 S   0  0  0  0  0  0  0  0  0  0  0  0
   -7.3850   18.7550  -32.7190 C   0  0  0  0  0  0  0  0  0  0  0  0
   -8.7690   18.3200  -31.8990 S   0  0  0  0  0  0  0  0  0  0  0  0
   -9.1060   19.7990  -31.2250 N   0  0  0  0  0  0  0  0  0  0  0  0
   -8.1630   20.6470  -31.6270 N   0  0  0  0  0  0  0  0  0  0  0  0
   -8.1690   21.6490  -31.3340 H   0  0  0  0  0  0  0  0  0  0  0  0
   -7.1980   20.1100  -32.4350 C   0  0  0  0  0  0  0  0  0  0  0  0
   -6.1150   20.9460  -32.9910 C   0  0  0  0  0  0  0  0  0  0  0  0
   -6.0842   21.0761  -34.0828 H   0  0  0  0  0  0  0  0  0  0  0  0
   -5.1660   21.5590  -32.2680 C   0  0  0  0  0  0  0  0  0  0  0  0
   -4.1654   21.1022  -32.2581 H   0  0  0  0  0  0  0  0  0  0  0  0
   -5.3540   22.8000  -31.4820 C   0  0  0  0  0  0  0  0  0  0  0  0
   -6.6270   23.3700  -31.2900 C   0  0  0  0  0  0  0  0  0  0  0  0
   -7.5150   22.8869  -31.7236 H   0  0  0  0  0  0  0  0  0  0  0  0
   -6.7660   24.5480  -30.5500 C   0  0  0  0  0  0  0  0  0  0  0  0
   -7.7651   24.9782  -30.3863 H   0  0  0  0  0  0  0  0  0  0  0  0
   -5.6400   25.1800  -30.0180 C   0  0  0  0  0  0  0  0  0  0  0  0
   -5.7529   26.1035  -29.4311 H   0  0  0  0  0  0  0  0  0  0  0  0
   -4.3690   24.6380  -30.2320 C   0  0  0  0  0  0  0  0  0  0  0  0
   -3.2750   25.2570  -29.7240 F   0  0  0  0  0  0  0  0  0  0  0  0
   -4.2250   23.4580  -30.9700 C   0  0  0  0  0  0  0  0  0  0  0  0
   -3.2219   23.0440  -31.1498 H   0  0  0  0  0  0  0  0  0  0  0  0
   -5.1110   16.9460  -33.0340 C   0  0  0  0  0  0  0  0  0  0  0  0
   -5.2300   17.0138  -31.9426 H   0  0  0  0  0  0  0  0  0  0  0  0
   -5.0688   15.8883  -33.3333 H   0  0  0  0  0  0  0  0  0  0  0  0
   -4.1798   17.4492  -33.3333 H   0  0  0  0  0  0  0  0  0  0  0  0
  1  2  1  0
  3  2  1  6
  3  4  1  0
  4  5  1  0
  5  6  1  0
  6  7  2  0
  7  8  1  0
  7  9  1  0
  9 10  1  0
 10 11  1  0
 10 12  2  0
 12 13  1  0
 12 14  1  0
 14 15  2  0
 15 16  1  0
 15 17  1  0
 17 18  1  0
 17 19  2  0
 19 20  1  0
 19 21  1  0
 21 22  1  0
 21 23  2  0
 23 24  1  0
  3 25  1  0
 25 26  1  0
 25 27  1  0
 25 28  1  0
  9  4  2  0
 23 14  1  0
M  CHG  2   3   1   7   1
M  END
>  <UniqueID>  (49) 
45

>  <SMILES>  (49) 
C[S@+](O)c1sn[nH+]c1/C=C\c1cccc(F)c1

>  <Energy>  (49) 
70.3122076229591

>  <Genealogy>  (49) 
C[S+](O)c1sn[nH+]c1C=Cc1cccc(F)c1 (protonated)
C[S@+](O)c1sn[nH+]c1C=Cc1cccc(F)c1 (chirality)
C[S@+](O)c1sn[nH+]c1/C=C\c1cccc(F)c1 (cis-trans isomerization)
C[S@+](O)c1sn[nH+]c1/C=C\c1cccc(F)c1 (3D coordinates assigned)
C[S@+](O)c1sn[nH+]c1/C=C\c1cccc(F)c1 (optimized conformer: 70.3122076229591 kcal/mol)

>  <smiles>  (49) 
C[S+]([O-])c1snnc1C=Cc1cccc(F)c1

>  <score_type>  (49) 
oracle

>  <origin>  (49) 
adg

>  <m_score__min__energy>  (49) 
-6.3799999999999999

>  <m_primary>  (49) 
energy

$$$$
