0:0
     RDKit          3D

 75 78  0  0  0  0  0  0  0  0999 V2000
   -1.1290   25.9100  -27.7960 C   0  0  0  0  0  0  0  0  0  0  0  0
   -1.0040   24.6770  -28.6990 C   0  0  0  0  0  0  0  0  0  0  0  0
   -2.2940   24.0010  -28.9820 N   0  0  0  0  0  0  0  0  0  0  0  0
   -2.1800   22.5590  -29.3060 C   0  0  0  0  0  0  0  0  0  0  0  0
   -1.0980   22.2990  -30.3530 C   0  0  0  0  0  0  0  0  0  0  0  0
   -3.3210   24.2600  -27.9460 C   0  0  0  0  0  0  0  0  0  0  0  0
   -4.6020   23.5040  -28.2910 C   0  0  0  0  0  0  0  0  0  0  0  0
   -5.3400   24.2220  -29.2730 O   0  0  0  0  0  0  0  0  0  0  0  0
   -5.0470   24.1750  -30.6380 C   0  0  0  0  0  0  0  0  0  0  0  0
   -4.4830   25.1540  -31.2020 O   0  0  0  0  0  0  0  0  0  0  0  0
   -5.3150   22.9340  -31.4030 C   0  0  0  0  0  0  0  0  0  0  0  0
   -4.2100   22.1980  -31.8570 C   0  0  0  0  0  0  0  0  0  0  0  0
   -4.3660   20.9400  -32.4480 C   0  0  0  0  0  0  0  0  0  0  0  0
   -3.1470   20.1800  -32.9050 C   0  0  0  0  0  0  0  0  0  0  0  0
   -5.6550   20.3940  -32.5990 C   0  0  0  0  0  0  0  0  0  0  0  0
   -5.8100   19.0810  -33.1660 N   0  0  0  0  0  0  0  0  0  0  0  0
   -6.0060   18.9160  -34.6060 C   0  0  0  0  0  0  0  0  0  0  0  0
   -5.2940   17.6390  -35.0570 C   0  0  0  0  0  0  0  0  0  0  0  0
   -5.7840   16.4300  -34.3440 N   0  0  0  0  0  0  0  0  0  0  0  0
   -4.7340   15.3920  -34.2850 C   0  0  0  0  0  0  0  0  0  0  0  0
   -3.3680   16.0270  -34.2580 C   0  0  0  0  0  0  0  0  0  0  0  0
   -2.5590   15.9950  -35.4020 C   0  0  0  0  0  0  0  0  0  0  0  0
   -1.2830   16.5640  -35.3830 C   0  0  0  0  0  0  0  0  0  0  0  0
   -0.7960   17.1740  -34.2110 C   0  0  0  0  0  0  0  0  0  0  0  0
    0.4780   17.7550  -34.1390 O   0  0  0  0  0  0  0  0  0  0  0  0
    0.7300   19.0920  -33.7200 C   0  0  0  0  0  0  0  0  0  0  0  0
   -1.6070   17.2030  -33.0700 C   0  0  0  0  0  0  0  0  0  0  0  0
   -2.8840   16.6360  -33.0900 C   0  0  0  0  0  0  0  0  0  0  0  0
   -6.3930   16.6910  -33.0120 C   0  0  0  0  0  0  0  0  0  0  0  0
   -5.7850   17.9040  -32.2940 C   0  0  0  0  0  0  0  0  0  0  0  0
   -6.7890   21.1370  -32.1950 C   0  0  0  0  0  0  0  0  0  0  0  0
   -8.0900   20.6220  -32.3710 C   0  0  0  0  0  0  0  0  0  0  0  0
   -9.2070   21.3710  -32.0070 C   0  0  0  0  0  0  0  0  0  0  0  0
   -9.0510   22.6500  -31.4830 C   0  0  0  0  0  0  0  0  0  0  0  0
   -7.7750   23.1820  -31.2990 C   0  0  0  0  0  0  0  0  0  0  0  0
   -6.6230   22.4270  -31.6150 C   0  0  0  0  0  0  0  0  0  0  0  0
   -1.0973   25.5972  -26.7419 H   0  0  0  0  0  0  0  0  0  0  0  0
   -0.2961   26.5992  -27.9992 H   0  0  0  0  0  0  0  0  0  0  0  0
   -2.0833   26.4181  -27.9992 H   0  0  0  0  0  0  0  0  0  0  0  0
   -0.5621   24.9926  -29.6556 H   0  0  0  0  0  0  0  0  0  0  0  0
   -0.3767   23.9514  -28.1605 H   0  0  0  0  0  0  0  0  0  0  0  0
   -1.9287   22.0063  -28.3887 H   0  0  0  0  0  0  0  0  0  0  0  0
   -3.1432   22.2227  -29.7174 H   0  0  0  0  0  0  0  0  0  0  0  0
   -0.1474   22.0706  -29.8489 H   0  0  0  0  0  0  0  0  0  0  0  0
   -1.3937   21.4463  -30.9819 H   0  0  0  0  0  0  0  0  0  0  0  0
   -0.9740   23.1929  -30.9819 H   0  0  0  0  0  0  0  0  0  0  0  0
   -2.9480   23.9205  -26.9684 H   0  0  0  0  0  0  0  0  0  0  0  0
   -3.5340   25.3384  -27.9058 H   0  0  0  0  0  0  0  0  0  0  0  0
   -4.3438   22.5096  -28.6840 H   0  0  0  0  0  0  0  0  0  0  0  0
   -5.2150   23.3983  -27.3837 H   0  0  0  0  0  0  0  0  0  0  0  0
   -3.1999   22.6192  -31.7458 H   0  0  0  0  0  0  0  0  0  0  0  0
   -2.5837   19.8288  -32.0279 H   0  0  0  0  0  0  0  0  0  0  0  0
   -3.4591   19.3162  -33.5103 H   0  0  0  0  0  0  0  0  0  0  0  0
   -2.5087   20.8405  -33.5103 H   0  0  0  0  0  0  0  0  0  0  0  0
   -7.0809   18.8376  -34.8263 H   0  0  0  0  0  0  0  0  0  0  0  0
   -5.5928   19.7835  -35.1414 H   0  0  0  0  0  0  0  0  0  0  0  0
   -5.4617   17.5042  -36.1358 H   0  0  0  0  0  0  0  0  0  0  0  0
   -4.2250   17.7532  -34.8242 H   0  0  0  0  0  0  0  0  0  0  0  0
   -4.8713   14.7890  -33.3753 H   0  0  0  0  0  0  0  0  0  0  0  0
   -4.8130   14.7537  -35.1774 H   0  0  0  0  0  0  0  0  0  0  0  0
   -2.9311   15.5187  -36.3211 H   0  0  0  0  0  0  0  0  0  0  0  0
   -0.6566   16.5353  -36.2868 H   0  0  0  0  0  0  0  0  0  0  0  0
    0.7384   19.1364  -32.6209 H   0  0  0  0  0  0  0  0  0  0  0  0
    1.7058   19.4200  -34.1077 H   0  0  0  0  0  0  0  0  0  0  0  0
   -0.0594   19.7527  -34.1077 H   0  0  0  0  0  0  0  0  0  0  0  0
   -1.2354   17.6765  -32.1493 H   0  0  0  0  0  0  0  0  0  0  0  0
   -3.5119   16.6671  -32.1873 H   0  0  0  0  0  0  0  0  0  0  0  0
   -7.4696   16.8699  -33.1493 H   0  0  0  0  0  0  0  0  0  0  0  0
   -6.1963   15.8088  -32.3851 H   0  0  0  0  0  0  0  0  0  0  0  0
   -6.3660   18.1150  -31.3841 H   0  0  0  0  0  0  0  0  0  0  0  0
   -4.7410   17.6766  -32.0325 H   0  0  0  0  0  0  0  0  0  0  0  0
   -8.2243   19.6182  -32.8003 H   0  0  0  0  0  0  0  0  0  0  0  0
  -10.2151   20.9497  -32.1344 H   0  0  0  0  0  0  0  0  0  0  0  0
   -9.9368   23.2437  -31.2129 H   0  0  0  0  0  0  0  0  0  0  0  0
   -7.6639   24.2022  -30.9029 H   0  0  0  0  0  0  0  0  0  0  0  0
  1  2  1  0
  2  3  1  0
  3  4  1  0
  4  5  1  0
  3  6  1  0
  6  7  1  0
  7  8  1  0
  8  9  1  0
  9 10  2  0
  9 11  1  0
 11 12  2  0
 12 13  1  0
 13 14  1  0
 13 15  2  0
 15 16  1  0
 16 17  1  0
 17 18  1  0
 18 19  1  0
 19 20  1  0
 20 21  1  0
 21 22  2  0
 22 23  1  0
 23 24  2  0
 24 25  1  0
 25 26  1  0
 24 27  1  0
 27 28  2  0
 19 29  1  0
 29 30  1  0
 15 31  1  0
 31 32  2  0
 32 33  1  0
 33 34  2  0
 34 35  1  0
 35 36  2  0
 36 11  1  0
 30 16  1  0
 36 31  1  0
 28 21  1  0
  1 37  1  0
  1 38  1  0
  1 39  1  0
  2 40  1  0
  2 41  1  0
  4 42  1  0
  4 43  1  0
  5 44  1  0
  5 45  1  0
  5 46  1  0
  6 47  1  0
  6 48  1  0
  7 49  1  0
  7 50  1  0
 12 51  1  0
 14 52  1  0
 14 53  1  0
 14 54  1  0
 17 55  1  0
 17 56  1  0
 18 57  1  0
 18 58  1  0
 20 59  1  0
 20 60  1  0
 22 61  1  0
 23 62  1  0
 26 63  1  0
 26 64  1  0
 26 65  1  0
 27 66  1  0
 28 67  1  0
 29 68  1  0
 29 69  1  0
 30 70  1  0
 30 71  1  0
 32 72  1  0
 33 73  1  0
 34 74  1  0
 35 75  1  0
M  END
>  <UniqueID>  (1) 
1

>  <SMILES>  (1) 
CCN(CC)CCOC(=O)c1cc(C)c(N2CCN(Cc3ccc(OC)cc3)CC2)c2ccccc12

>  <Energy>  (1) 
98.17834872110252

>  <Genealogy>  (1) 
CCN(CC)CCOC(=O)c1cc(C)c(N2CCN(Cc3ccc(OC)cc3)CC2)c2ccccc12 (3D coordinates assigned)
CCN(CC)CCOC(=O)c1cc(C)c(N2CCN(Cc3ccc(OC)cc3)CC2)c2ccccc12 (nonaromatic ring conformer: 98.17834872110252 kcal/mol)

>  <smiles>  (1) 
CCN(CC)CCOC(=O)c1cc(C)c(N2CCN(Cc3ccc(OC)cc3)CC2)c2ccccc12

>  <score_type>  (1) 
oracle

>  <origin>  (1) 
adg

>  <m_score__min__energy>  (1) 
-9.1999999999999993

>  <m_primary>  (1) 
energy

$$$$
1:0
     RDKit          3D

 36 37  0  0  0  0  0  0  0  0999 V2000
   -7.9710   19.1020  -31.7770 C   0  0  0  0  0  0  0  0  0  0  0  0
   -6.5750   18.7280  -32.0490 N   0  0  0  0  0  0  0  0  0  0  0  0
   -6.4760   18.1480  -33.4010 C   0  0  0  0  0  0  0  0  0  0  0  0
   -5.6860   19.9010  -31.9050 C   0  0  0  0  0  0  0  0  0  0  0  0
   -5.8310   20.8580  -33.0950 C   0  0  0  0  0  0  0  0  0  0  0  0
   -5.2000   22.1440  -32.8080 N   0  0  0  0  0  0  0  0  0  0  0  0
   -5.2460   22.7380  -31.5050 C   0  0  0  0  0  0  0  0  0  0  0  0
   -4.1990   23.1690  -30.8420 O   0  0  0  0  0  0  0  0  0  0  0  0
   -4.6380   23.6340  -29.6890 C   0  0  0  0  0  0  0  0  0  0  0  0
   -3.7450   24.2020  -28.6530 C   0  0  0  0  0  0  0  0  0  0  0  0
   -2.4110   24.5520  -28.9390 C   0  0  0  0  0  0  0  0  0  0  0  0
   -1.5920   25.0920  -27.9410 C   0  0  0  0  0  0  0  0  0  0  0  0
   -2.0920   25.2890  -26.6510 C   0  0  0  0  0  0  0  0  0  0  0  0
   -0.9720   26.0260  -25.2930 Br  0  0  0  0  0  0  0  0  0  0  0  0
   -3.4150   24.9460  -26.3580 C   0  0  0  0  0  0  0  0  0  0  0  0
   -4.2370   24.4050  -27.3510 C   0  0  0  0  0  0  0  0  0  0  0  0
   -5.9830   23.5180  -29.5820 N   0  0  0  0  0  0  0  0  0  0  0  0
   -6.3670   22.9500  -30.7380 C   0  0  0  0  0  0  0  0  0  0  0  0
   -7.7260   22.6220  -31.0770 C   0  0  0  0  0  0  0  0  0  0  0  0
   -8.8190   22.3580  -31.3490 N   0  0  0  0  0  0  0  0  0  0  0  0
   -8.1338   19.1456  -30.6900 H   0  0  0  0  0  0  0  0  0  0  0  0
   -8.1793   20.0876  -32.2188 H   0  0  0  0  0  0  0  0  0  0  0  0
   -8.6441   18.3525  -32.2188 H   0  0  0  0  0  0  0  0  0  0  0  0
   -6.2914   17.0664  -33.3234 H   0  0  0  0  0  0  0  0  0  0  0  0
   -7.4167   18.3213  -33.9441 H   0  0  0  0  0  0  0  0  0  0  0  0
   -5.6460   18.6236  -33.9441 H   0  0  0  0  0  0  0  0  0  0  0  0
   -5.9463   20.4368  -30.9802 H   0  0  0  0  0  0  0  0  0  0  0  0
   -4.6454   19.5463  -31.8688 H   0  0  0  0  0  0  0  0  0  0  0  0
   -5.3515   20.4104  -33.9780 H   0  0  0  0  0  0  0  0  0  0  0  0
   -6.9017   21.0255  -33.2836 H   0  0  0  0  0  0  0  0  0  0  0  0
   -4.6740   22.6260  -33.5710 H   0  0  0  0  0  0  0  0  0  0  0  0
   -2.0108   24.4001  -29.9523 H   0  0  0  0  0  0  0  0  0  0  0  0
   -0.5512   25.3623  -28.1727 H   0  0  0  0  0  0  0  0  0  0  0  0
   -3.8104   25.1022  -25.3435 H   0  0  0  0  0  0  0  0  0  0  0  0
   -5.2765   24.1360  -27.1123 H   0  0  0  0  0  0  0  0  0  0  0  0
   -6.6050   23.7980  -28.7920 H   0  0  0  0  0  0  0  0  0  0  0  0
  1  2  1  0
  2  3  1  0
  2  4  1  0
  4  5  1  0
  5  6  1  0
  6  7  1  0
  7  8  1  0
  8  9  1  0
  9 10  1  0
 10 11  2  0
 11 12  1  0
 12 13  2  0
 13 14  1  0
 13 15  1  0
 15 16  2  0
  9 17  2  0
 17 18  1  0
 18 19  1  0
 19 20  3  0
 18  7  2  0
 16 10  1  0
  1 21  1  0
  1 22  1  0
  1 23  1  0
  3 24  1  0
  3 25  1  0
  3 26  1  0
  4 27  1  0
  4 28  1  0
  5 29  1  0
  5 30  1  0
  6 31  1  0
 11 32  1  0
 12 33  1  0
 15 34  1  0
 16 35  1  0
 17 36  1  0
M  CHG  1  17   1
M  END
>  <UniqueID>  (2) 
2

>  <SMILES>  (2) 
CN(C)CCNc1oc(-c2ccc(Br)cc2)[nH+]c1C#N

>  <Energy>  (2) 
63.65469173095918

>  <Genealogy>  (2) 
CN(C)CCNc1oc(-c2ccc(Br)cc2)[nH+]c1C#N (protonated)
CN(C)CCNc1oc(-c2ccc(Br)cc2)[nH+]c1C#N (3D coordinates assigned)
CN(C)CCNc1oc(-c2ccc(Br)cc2)[nH+]c1C#N (optimized conformer: 63.65469173095918 kcal/mol)

>  <smiles>  (2) 
CN(C)CCNc1oc(-c2ccc(Br)cc2)nc1C#N

>  <score_type>  (2) 
oracle

>  <origin>  (2) 
adg

>  <m_score__min__energy>  (2) 
-6.1299999999999999

>  <m_primary>  (2) 
energy

$$$$
2:0
     RDKit          3D

 34 36  0  0  0  0  0  0  0  0999 V2000
   -9.4170   18.3760  -31.9600 C   0  0  0  0  0  0  0  0  0  0  0  0
   -9.2570   19.6480  -32.5790 O   0  0  0  0  0  0  0  0  0  0  0  0
   -8.2980   20.6010  -32.2010 C   0  0  0  0  0  0  0  0  0  0  0  0
   -8.6590   21.8880  -31.7590 C   0  0  0  0  0  0  0  0  0  0  0  0
   -7.6780   22.8110  -31.3910 C   0  0  0  0  0  0  0  0  0  0  0  0
   -6.3200   22.4670  -31.4570 C   0  0  0  0  0  0  0  0  0  0  0  0
   -5.2790   23.4400  -31.0690 C   0  0  0  0  0  0  0  0  0  0  0  0
   -5.3630   24.7710  -31.2690 N   0  0  0  0  0  0  0  0  0  0  0  0
   -4.2440   25.2940  -30.7900 N   0  0  0  0  0  0  0  0  0  0  0  0
   -3.5250   24.2600  -30.3180 C   0  0  0  0  0  0  0  0  0  0  0  0
   -2.2350   24.4120  -29.7120 N   0  0  0  0  0  0  0  0  0  0  0  0
   -1.9840   25.0490  -28.6060 C   0  0  0  0  0  0  0  0  0  0  0  0
   -2.5570   24.6720  -27.4270 N   0  0  0  0  0  0  0  0  0  0  0  0
   -2.2920   25.3380  -26.2730 C   0  0  0  0  0  0  0  0  0  0  0  0
   -1.4230   26.4270  -26.2840 C   0  0  0  0  0  0  0  0  0  0  0  0
   -0.8440   26.8010  -27.4960 C   0  0  0  0  0  0  0  0  0  0  0  0
   -1.1340   26.1090  -28.6290 N   0  0  0  0  0  0  0  0  0  0  0  0
   -4.1490   23.1190  -30.4840 O   0  0  0  0  0  0  0  0  0  0  0  0
   -5.9570   21.1850  -31.8980 C   0  0  0  0  0  0  0  0  0  0  0  0
   -6.9410   20.2490  -32.2710 C   0  0  0  0  0  0  0  0  0  0  0  0
   -6.6110   18.9580  -32.7160 O   0  0  0  0  0  0  0  0  0  0  0  0
   -6.0910   18.6580  -34.0080 C   0  0  0  0  0  0  0  0  0  0  0  0
   -9.4019   18.4958  -30.8666 H   0  0  0  0  0  0  0  0  0  0  0  0
  -10.3775   17.9368  -32.2675 H   0  0  0  0  0  0  0  0  0  0  0  0
   -8.5952   17.7126  -32.2675 H   0  0  0  0  0  0  0  0  0  0  0  0
   -9.7212   22.1684  -31.7032 H   0  0  0  0  0  0  0  0  0  0  0  0
   -7.9720   23.8137  -31.0473 H   0  0  0  0  0  0  0  0  0  0  0  0
   -2.7626   25.0181  -25.3316 H   0  0  0  0  0  0  0  0  0  0  0  0
   -1.1991   26.9784  -25.3589 H   0  0  0  0  0  0  0  0  0  0  0  0
   -0.1528   27.6558  -27.5350 H   0  0  0  0  0  0  0  0  0  0  0  0
   -4.8937   20.9086  -31.9528 H   0  0  0  0  0  0  0  0  0  0  0  0
   -5.1425   18.1108  -33.9035 H   0  0  0  0  0  0  0  0  0  0  0  0
   -6.8133   18.0378  -34.5590 H   0  0  0  0  0  0  0  0  0  0  0  0
   -5.9157   19.5937  -34.5590 H   0  0  0  0  0  0  0  0  0  0  0  0
  1  2  1  0
  2  3  1  0
  3  4  2  0
  4  5  1  0
  5  6  2  0
  6  7  1  0
  7  8  2  0
  8  9  1  0
  9 10  2  0
 10 11  1  0
 11 12  2  3
 12 13  1  0
 13 14  2  0
 14 15  1  0
 15 16  2  0
 16 17  1  0
 10 18  1  0
  6 19  1  0
 19 20  2  0
 20 21  1  0
 21 22  1  0
 20  3  1  0
 18  7  1  0
 17 12  1  0
  1 23  1  0
  1 24  1  0
  1 25  1  0
  4 26  1  0
  5 27  1  0
 14 28  1  0
 15 29  1  0
 16 30  1  0
 19 31  1  0
 22 32  1  0
 22 33  1  0
 22 34  1  0
M  CHG  1  17  -1
M  END
>  <UniqueID>  (3) 
3

>  <SMILES>  (3) 
COc1ccc(-c2nnc(N=c3nccc[n-]3)o2)cc1OC

>  <Energy>  (3) 
73.11446435682926

>  <Genealogy>  (3) 
COc1ccc(-c2nnc(N=c3nccc[n-]3)o2)cc1OC (protonated)
COc1ccc(-c2nnc(N=c3nccc[n-]3)o2)cc1OC (3D coordinates assigned)
COc1ccc(-c2nnc(N=c3nccc[n-]3)o2)cc1OC (optimized conformer: 73.11446435682926 kcal/mol)

>  <smiles>  (3) 
COc1ccc(-c2nnc(N=c3nccc[nH]3)o2)cc1OC

>  <score_type>  (3) 
oracle

>  <origin>  (3) 
adg

>  <m_score__min__energy>  (3) 
-8.1099999999999994

>  <m_primary>  (3) 
energy

$$$$
3:0
     RDKit          3D

 35 36  0  0  0  0  0  0  0  0999 V2000
   -8.2220   18.2220  -31.4220 C   0  0  0  0  0  0  0  0  0  0  0  0
   -8.7670   18.6650  -32.6450 O   0  0  0  0  0  0  0  0  0  0  0  0
   -8.7470   20.0790  -32.7050 C   0  0  0  0  0  0  0  0  0  0  0  0
   -7.3380   20.5890  -32.6100 C   0  0  0  0  0  0  0  0  0  0  0  0
   -6.3040   19.9590  -33.3040 C   0  0  0  0  0  0  0  0  0  0  0  0
   -4.9980   20.4410  -33.1870 C   0  0  0  0  0  0  0  0  0  0  0  0
   -4.0830   19.8620  -33.8300 O   0  0  0  0  0  0  0  0  0  0  0  0
   -4.7270   21.5580  -32.3590 C   0  0  0  0  0  0  0  0  0  0  0  0
   -3.4470   22.1270  -32.2200 O   0  0  0  0  0  0  0  0  0  0  0  0
   -2.2540   21.4420  -31.8560 C   0  0  0  0  0  0  0  0  0  0  0  0
   -5.8020   22.1440  -31.6540 C   0  0  0  0  0  0  0  0  0  0  0  0
   -5.5990   23.2610  -30.7650 N   0  0  0  0  0  0  0  0  0  0  0  0
   -6.1020   24.5990  -31.1060 C   0  0  0  0  0  0  0  0  0  0  0  0
   -5.2160   25.6730  -30.4680 C   0  0  0  0  0  0  0  0  0  0  0  0
   -3.8660   25.2600  -30.5150 O   0  0  0  0  0  0  0  0  0  0  0  0
   -3.6360   24.2100  -29.5860 C   0  0  0  0  0  0  0  0  0  0  0  0
   -4.7340   23.1210  -29.5880 C   0  0  0  0  0  0  0  0  0  0  0  0
   -7.0600   21.6470  -31.8070 N   0  0  0  0  0  0  0  0  0  0  0  0
   -8.7782   18.6741  -30.5876 H   0  0  0  0  0  0  0  0  0  0  0  0
   -8.2979   17.1262  -31.3623 H   0  0  0  0  0  0  0  0  0  0  0  0
   -7.1649   18.5201  -31.3623 H   0  0  0  0  0  0  0  0  0  0  0  0
   -9.1874   20.4072  -33.6581 H   0  0  0  0  0  0  0  0  0  0  0  0
   -9.3281   20.4793  -31.8612 H   0  0  0  0  0  0  0  0  0  0  0  0
   -6.5163   19.0871  -33.9401 H   0  0  0  0  0  0  0  0  0  0  0  0
   -2.1767   21.3976  -30.7596 H   0  0  0  0  0  0  0  0  0  0  0  0
   -2.2788   20.4206  -32.2635 H   0  0  0  0  0  0  0  0  0  0  0  0
   -1.3843   21.9783  -32.2635 H   0  0  0  0  0  0  0  0  0  0  0  0
   -6.0941   24.7230  -32.1990 H   0  0  0  0  0  0  0  0  0  0  0  0
   -7.1282   24.7057  -30.7245 H   0  0  0  0  0  0  0  0  0  0  0  0
   -5.3297   26.6175  -31.0203 H   0  0  0  0  0  0  0  0  0  0  0  0
   -5.5173   25.8216  -29.4205 H   0  0  0  0  0  0  0  0  0  0  0  0
   -2.6754   23.7339  -29.8320 H   0  0  0  0  0  0  0  0  0  0  0  0
   -3.6376   24.6637  -28.5839 H   0  0  0  0  0  0  0  0  0  0  0  0
   -4.2590   22.1290  -29.6045 H   0  0  0  0  0  0  0  0  0  0  0  0
   -5.3474   23.2346  -28.6820 H   0  0  0  0  0  0  0  0  0  0  0  0
  1  2  1  0
  2  3  1  0
  3  4  1  0
  4  5  2  0
  5  6  1  0
  6  7  2  0
  6  8  1  0
  8  9  1  0
  9 10  1  0
  8 11  2  0
 11 12  1  0
 12 13  1  0
 13 14  1  0
 14 15  1  0
 15 16  1  0
 16 17  1  0
 11 18  1  0
 18  4  1  0
 17 12  1  0
  1 19  1  0
  1 20  1  0
  1 21  1  0
  3 22  1  0
  3 23  1  0
  5 24  1  0
 10 25  1  0
 10 26  1  0
 10 27  1  0
 13 28  1  0
 13 29  1  0
 14 30  1  0
 14 31  1  0
 16 32  1  0
 16 33  1  0
 17 34  1  0
 17 35  1  0
M  CHG  1  18  -1
M  END
>  <UniqueID>  (4) 
4

>  <SMILES>  (4) 
COCc1cc(=O)c(OC)c(N2CCOCC2)[n-]1

>  <Energy>  (4) 
49.277326537591634

>  <Genealogy>  (4) 
COCc1cc(=O)c(OC)c(N2CCOCC2)[n-]1 (protonated)
COCc1cc(=O)c(OC)c(N2CCOCC2)[n-]1 (3D coordinates assigned)
COCc1cc(=O)c(OC)c(N2CCOCC2)[n-]1 (nonaromatic ring conformer: 49.277326537591634 kcal/mol)

>  <smiles>  (4) 
COCc1cc(=O)c(OC)c(N2CCOCC2)[nH]1

>  <score_type>  (4) 
oracle

>  <origin>  (4) 
adg

>  <m_score__min__energy>  (4) 
-6.6500000000000004

>  <m_primary>  (4) 
energy

$$$$
4:0
     RDKit          3D

 60 62  0  0  0  0  0  0  0  0999 V2000
   -4.5930   14.0210  -32.1080 C   0  0  0  0  0  0  0  0  0  0  0  0
   -3.7620   14.9350  -33.0060 C   0  0  0  0  0  0  0  0  0  0  0  0
   -4.4150   15.1060  -34.3220 N   0  0  0  0  0  0  0  0  0  0  0  0
   -3.7770   16.1650  -35.1260 C   0  0  0  0  0  0  0  0  0  0  0  0
   -5.8800   15.2930  -34.2090 C   0  0  0  0  0  0  0  0  0  0  0  0
   -6.3120   16.7680  -34.0890 C   0  0  0  0  0  0  0  0  0  0  0  0
   -5.8570   17.3660  -32.7530 C   0  0  0  0  0  0  0  0  0  0  0  0
   -6.2100   18.8000  -32.6770 N   0  0  0  0  0  0  0  0  0  0  0  0
   -5.3400   19.7710  -33.1220 C   0  0  0  0  0  0  0  0  0  0  0  0
   -3.7060   19.3640  -33.7800 S   0  0  0  0  0  0  0  0  0  0  0  0
   -2.7700   20.1480  -32.4200 C   0  0  0  0  0  0  0  0  0  0  0  0
   -2.6340   21.6480  -32.6790 C   0  0  0  0  0  0  0  0  0  0  0  0
   -3.5980   22.3780  -31.9200 O   0  0  0  0  0  0  0  0  0  0  0  0
   -3.5580   22.6160  -30.5360 C   0  0  0  0  0  0  0  0  0  0  0  0
   -3.2060   21.5940  -29.6260 C   0  0  0  0  0  0  0  0  0  0  0  0
   -3.1630   21.8460  -28.2550 C   0  0  0  0  0  0  0  0  0  0  0  0
   -3.4640   23.1150  -27.7680 C   0  0  0  0  0  0  0  0  0  0  0  0
   -3.8090   24.1370  -28.6510 C   0  0  0  0  0  0  0  0  0  0  0  0
   -3.8660   23.9090  -30.0330 C   0  0  0  0  0  0  0  0  0  0  0  0
   -4.2320   25.0020  -30.8400 O   0  0  0  0  0  0  0  0  0  0  0  0
   -5.4910   25.6650  -30.8440 C   0  0  0  0  0  0  0  0  0  0  0  0
   -5.6920   21.0850  -33.0720 N   0  0  0  0  0  0  0  0  0  0  0  0
   -6.8830   21.4820  -32.5550 C   0  0  0  0  0  0  0  0  0  0  0  0
   -7.2190   22.8450  -32.5030 C   0  0  0  0  0  0  0  0  0  0  0  0
   -8.4430   23.2470  -31.9640 C   0  0  0  0  0  0  0  0  0  0  0  0
   -9.3380   22.2960  -31.4700 C   0  0  0  0  0  0  0  0  0  0  0  0
   -9.0140   20.9370  -31.5180 C   0  0  0  0  0  0  0  0  0  0  0  0
   -7.7830   20.5200  -32.0610 C   0  0  0  0  0  0  0  0  0  0  0  0
   -7.4180   19.1660  -32.1310 C   0  0  0  0  0  0  0  0  0  0  0  0
   -8.2060   18.2860  -31.6850 O   0  0  0  0  0  0  0  0  0  0  0  0
   -4.3823   14.2528  -31.0535 H   0  0  0  0  0  0  0  0  0  0  0  0
   -5.6622   14.1801  -32.3118 H   0  0  0  0  0  0  0  0  0  0  0  0
   -4.3331   12.9718  -32.3118 H   0  0  0  0  0  0  0  0  0  0  0  0
   -3.6579   15.9181  -32.5237 H   0  0  0  0  0  0  0  0  0  0  0  0
   -2.7727   14.4787  -33.1578 H   0  0  0  0  0  0  0  0  0  0  0  0
   -3.3266   16.9126  -34.4565 H   0  0  0  0  0  0  0  0  0  0  0  0
   -2.9949   15.7227  -35.7606 H   0  0  0  0  0  0  0  0  0  0  0  0
   -4.5336   16.6496  -35.7606 H   0  0  0  0  0  0  0  0  0  0  0  0
   -6.3543   14.8645  -35.1042 H   0  0  0  0  0  0  0  0  0  0  0  0
   -6.1965   14.7903  -33.2832 H   0  0  0  0  0  0  0  0  0  0  0  0
   -5.8625   17.3427  -34.9122 H   0  0  0  0  0  0  0  0  0  0  0  0
   -7.4097   16.8172  -34.1396 H   0  0  0  0  0  0  0  0  0  0  0  0
   -6.3500   16.8283  -31.9297 H   0  0  0  0  0  0  0  0  0  0  0  0
   -4.7645   17.2652  -32.6733 H   0  0  0  0  0  0  0  0  0  0  0  0
   -3.3031   19.9886  -31.4711 H   0  0  0  0  0  0  0  0  0  0  0  0
   -1.7678   19.6980  -32.3637 H   0  0  0  0  0  0  0  0  0  0  0  0
   -1.6240   21.9746  -32.3905 H   0  0  0  0  0  0  0  0  0  0  0  0
   -2.8049   21.8403  -33.7485 H   0  0  0  0  0  0  0  0  0  0  0  0
   -2.9634   20.5894  -30.0028 H   0  0  0  0  0  0  0  0  0  0  0  0
   -2.8907   21.0405  -27.5571 H   0  0  0  0  0  0  0  0  0  0  0  0
   -3.4296   23.3113  -26.6862 H   0  0  0  0  0  0  0  0  0  0  0  0
   -4.0401   25.1378  -28.2573 H   0  0  0  0  0  0  0  0  0  0  0  0
   -5.8180   25.8372  -29.8079 H   0  0  0  0  0  0  0  0  0  0  0  0
   -5.3957   26.6299  -31.3636 H   0  0  0  0  0  0  0  0  0  0  0  0
   -6.2326   25.0405  -31.3636 H   0  0  0  0  0  0  0  0  0  0  0  0
   -5.0200   21.8000  -33.4320 H   0  0  0  0  0  0  0  0  0  0  0  0
   -6.5157   23.5981  -32.8881 H   0  0  0  0  0  0  0  0  0  0  0  0
   -8.7026   24.3153  -31.9286 H   0  0  0  0  0  0  0  0  0  0  0  0
  -10.2994   22.6166  -31.0424 H   0  0  0  0  0  0  0  0  0  0  0  0
   -9.7229   20.1906  -31.1303 H   0  0  0  0  0  0  0  0  0  0  0  0
  1  2  1  0
  2  3  1  0
  3  4  1  0
  3  5  1  0
  5  6  1  0
  6  7  1  0
  7  8  1  0
  8  9  1  0
  9 10  1  0
 10 11  1  0
 11 12  1  0
 12 13  1  0
 13 14  1  0
 14 15  2  0
 15 16  1  0
 16 17  2  0
 17 18  1  0
 18 19  2  0
 19 20  1  0
 20 21  1  0
  9 22  2  0
 22 23  1  0
 23 24  2  0
 24 25  1  0
 25 26  2  0
 26 27  1  0
 27 28  2  0
 28 29  1  0
 29 30  2  0
 29  8  1  0
 19 14  1  0
 28 23  1  0
  1 31  1  0
  1 32  1  0
  1 33  1  0
  2 34  1  0
  2 35  1  0
  4 36  1  0
  4 37  1  0
  4 38  1  0
  5 39  1  0
  5 40  1  0
  6 41  1  0
  6 42  1  0
  7 43  1  0
  7 44  1  0
 11 45  1  0
 11 46  1  0
 12 47  1  0
 12 48  1  0
 15 49  1  0
 16 50  1  0
 17 51  1  0
 18 52  1  0
 21 53  1  0
 21 54  1  0
 21 55  1  0
 22 56  1  0
 24 57  1  0
 25 58  1  0
 26 59  1  0
 27 60  1  0
M  CHG  1  22   1
M  END
>  <UniqueID>  (5) 
5

>  <SMILES>  (5) 
CCN(C)CCCn1c(SCCOc2ccccc2OC)[nH+]c2ccccc2c1=O

>  <Energy>  (5) 
65.23024656629777

>  <Genealogy>  (5) 
CCN(C)CCCn1c(SCCOc2ccccc2OC)[nH+]c2ccccc2c1=O (protonated)
CCN(C)CCCn1c(SCCOc2ccccc2OC)[nH+]c2ccccc2c1=O (3D coordinates assigned)
CCN(C)CCCn1c(SCCOc2ccccc2OC)[nH+]c2ccccc2c1=O (optimized conformer: 65.23024656629777 kcal/mol)

>  <smiles>  (5) 
CCN(C)CCCn1c(SCCOc2ccccc2OC)nc2ccccc2c1=O

>  <score_type>  (5) 
oracle

>  <origin>  (5) 
adg

>  <m_score__min__energy>  (5) 
-8.2699999999999996

>  <m_primary>  (5) 
energy

$$$$
5:0
     RDKit          3D

 43 45  0  0  0  0  0  0  0  0999 V2000
   -3.0280   23.6420  -28.0170 C   0  0  0  0  0  0  0  0  0  0  0  0
   -2.2350   24.3430  -29.1160 C   0  0  0  0  0  0  0  0  0  0  0  0
   -3.1350   24.9310  -30.1100 N   0  0  0  0  0  0  0  0  0  0  0  0
   -4.5200   24.5680  -30.2830 C   0  0  0  0  0  0  0  0  0  0  0  0
   -5.5050   25.2820  -29.5820 C   0  0  0  0  0  0  0  0  0  0  0  0
   -6.8550   24.9610  -29.7320 C   0  0  0  0  0  0  0  0  0  0  0  0
   -7.2400   23.9200  -30.5770 C   0  0  0  0  0  0  0  0  0  0  0  0
   -6.2740   23.1810  -31.2740 C   0  0  0  0  0  0  0  0  0  0  0  0
   -6.6700   22.1080  -32.1500 N   0  0  0  0  0  0  0  0  0  0  0  0
   -5.6410   21.3170  -32.8390 C   0  0  0  0  0  0  0  0  0  0  0  0
   -6.2440   20.0900  -33.5340 C   0  0  0  0  0  0  0  0  0  0  0  0
   -7.2240   19.4360  -32.6480 N   0  0  0  0  0  0  0  0  0  0  0  0
   -7.2550   18.0030  -32.4690 C   0  0  0  0  0  0  0  0  0  0  0  0
   -8.2810   17.4550  -31.9830 O   0  0  0  0  0  0  0  0  0  0  0  0
   -6.0980   17.1320  -32.8730 C   0  0  0  0  0  0  0  0  0  0  0  0
   -5.7760   17.1340  -34.3620 C   0  0  0  0  0  0  0  0  0  0  0  0
   -6.4830   15.9420  -33.7410 C   0  0  0  0  0  0  0  0  0  0  0  0
   -8.2610   20.2510  -31.9910 C   0  0  0  0  0  0  0  0  0  0  0  0
   -8.0850   21.7420  -32.2930 C   0  0  0  0  0  0  0  0  0  0  0  0
   -4.9160   23.5110  -31.1270 C   0  0  0  0  0  0  0  0  0  0  0  0
   -2.6589   23.9683  -27.0335 H   0  0  0  0  0  0  0  0  0  0  0  0
   -4.0933   23.8991  -28.1126 H   0  0  0  0  0  0  0  0  0  0  0  0
   -2.9036   22.5533  -28.1126 H   0  0  0  0  0  0  0  0  0  0  0  0
   -1.6229   25.1393  -28.6675 H   0  0  0  0  0  0  0  0  0  0  0  0
   -1.5926   23.6026  -29.6152 H   0  0  0  0  0  0  0  0  0  0  0  0
   -2.7370   25.6740  -30.7280 H   0  0  0  0  0  0  0  0  0  0  0  0
   -5.2104   26.1009  -28.9092 H   0  0  0  0  0  0  0  0  0  0  0  0
   -7.6182   25.5310  -29.1819 H   0  0  0  0  0  0  0  0  0  0  0  0
   -8.3063   23.6779  -30.6969 H   0  0  0  0  0  0  0  0  0  0  0  0
   -5.1501   21.9494  -33.5934 H   0  0  0  0  0  0  0  0  0  0  0  0
   -4.9167   20.9665  -32.0890 H   0  0  0  0  0  0  0  0  0  0  0  0
   -6.7456   20.4066  -34.4604 H   0  0  0  0  0  0  0  0  0  0  0  0
   -5.4393   19.3776  -33.7685 H   0  0  0  0  0  0  0  0  0  0  0  0
   -5.5140   17.2767  -31.9521 H   0  0  0  0  0  0  0  0  0  0  0  0
   -6.3223   17.8044  -35.0418 H   0  0  0  0  0  0  0  0  0  0  0  0
   -4.8629   17.2715  -34.9598 H   0  0  0  0  0  0  0  0  0  0  0  0
   -7.5412   15.7493  -33.9715 H   0  0  0  0  0  0  0  0  0  0  0  0
   -6.2934   14.8591  -33.7034 H   0  0  0  0  0  0  0  0  0  0  0  0
   -9.2491   19.9285  -32.3510 H   0  0  0  0  0  0  0  0  0  0  0  0
   -8.1718   20.1083  -30.9039 H   0  0  0  0  0  0  0  0  0  0  0  0
   -8.4149   21.9489  -33.3218 H   0  0  0  0  0  0  0  0  0  0  0  0
   -8.6889   22.3321  -31.5880 H   0  0  0  0  0  0  0  0  0  0  0  0
   -4.1542   22.9384  -31.6763 H   0  0  0  0  0  0  0  0  0  0  0  0
  1  2  1  0
  2  3  1  0
  3  4  1  0
  4  5  2  0
  5  6  1  0
  6  7  2  0
  7  8  1  0
  8  9  1  0
  9 10  1  0
 10 11  1  0
 11 12  1  0
 12 13  1  0
 13 14  2  0
 13 15  1  0
 15 16  1  0
 16 17  1  0
 12 18  1  0
 18 19  1  0
  8 20  2  0
 20  4  1  0
 19  9  1  0
 17 15  1  0
  1 21  1  0
  1 22  1  0
  1 23  1  0
  2 24  1  0
  2 25  1  0
  3 26  1  0
  5 27  1  0
  6 28  1  0
  7 29  1  0
 10 30  1  0
 10 31  1  0
 11 32  1  0
 11 33  1  0
 15 34  1  0
 16 35  1  0
 16 36  1  0
 17 37  1  0
 17 38  1  0
 18 39  1  0
 18 40  1  0
 19 41  1  0
 19 42  1  0
 20 43  1  0
M  END
>  <UniqueID>  (6) 
6

>  <SMILES>  (6) 
CCNc1cccc(N2CCN(C(=O)C3CC3)CC2)c1

>  <Energy>  (6) 
307.88271382255454

>  <Genealogy>  (6) 
CCNc1cccc(N2CCN(C(=O)C3CC3)CC2)c1 (3D coordinates assigned)
CCNc1cccc(N2CCN(C(=O)C3CC3)CC2)c1 (nonaromatic ring conformer: 307.88271382255454 kcal/mol)

>  <smiles>  (6) 
CCNc1cccc(N2CCN(C(=O)C3CC3)CC2)c1

>  <score_type>  (6) 
oracle

>  <origin>  (6) 
adg

>  <m_score__min__energy>  (6) 
-7.8600000000000003

>  <m_primary>  (6) 
energy

$$$$
6:0
     RDKit          3D

 54 56  0  0  0  0  0  0  0  0999 V2000
   -2.8210   20.5010  -29.1390 C   0  0  0  0  0  0  0  0  0  0  0  0
   -1.7030   21.4860  -28.7990 C   0  0  0  0  0  0  0  0  0  0  0  0
   -1.8940   22.1020  -27.4650 N   0  0  0  0  0  0  0  0  0  0  0  0
   -0.6340   22.1250  -26.6900 C   0  0  0  0  0  0  0  0  0  0  0  0
    0.5500   21.7920  -27.5940 C   0  0  0  0  0  0  0  0  0  0  0  0
   -2.5550   23.4310  -27.5010 C   0  0  0  0  0  0  0  0  0  0  0  0
   -1.8550   24.4570  -28.4060 C   0  0  0  0  0  0  0  0  0  0  0  0
   -2.8410   25.1890  -29.1320 O   0  0  0  0  0  0  0  0  0  0  0  0
   -3.8690   24.6030  -29.8840 C   0  0  0  0  0  0  0  0  0  0  0  0
   -5.2160   24.9590  -29.7240 C   0  0  0  0  0  0  0  0  0  0  0  0
   -6.2030   24.3400  -30.4880 C   0  0  0  0  0  0  0  0  0  0  0  0
   -5.8770   23.3510  -31.4360 C   0  0  0  0  0  0  0  0  0  0  0  0
   -4.5080   23.0040  -31.6220 C   0  0  0  0  0  0  0  0  0  0  0  0
   -3.5300   23.6300  -30.8260 C   0  0  0  0  0  0  0  0  0  0  0  0
   -4.0430   21.9740  -32.6330 C   0  0  0  0  0  0  0  0  0  0  0  0
   -4.6950   20.6020  -32.4110 C   0  0  0  0  0  0  0  0  0  0  0  0
   -6.0880   20.5150  -33.0420 C   0  0  0  0  0  0  0  0  0  0  0  0
   -7.0850   21.2720  -32.2780 N   0  0  0  0  0  0  0  0  0  0  0  0
   -8.2900   20.6110  -31.7620 C   0  0  0  0  0  0  0  0  0  0  0  0
   -7.9840   19.1400  -31.4520 C   0  0  0  0  0  0  0  0  0  0  0  0
   -9.1640   18.1840  -31.5600 C   0  0  0  0  0  0  0  0  0  0  0  0
   -8.0920   18.1960  -32.6390 C   0  0  0  0  0  0  0  0  0  0  0  0
   -6.9890   22.6980  -32.1830 C   0  0  0  0  0  0  0  0  0  0  0  0
   -7.9050   23.4020  -32.6890 O   0  0  0  0  0  0  0  0  0  0  0  0
   -3.2623   20.1122  -28.2095 H   0  0  0  0  0  0  0  0  0  0  0  0
   -3.5964   21.0148  -29.7261 H   0  0  0  0  0  0  0  0  0  0  0  0
   -2.4089   19.6670  -29.7261 H   0  0  0  0  0  0  0  0  0  0  0  0
   -0.7423   20.9503  -28.8087 H   0  0  0  0  0  0  0  0  0  0  0  0
   -1.7175   22.2896  -29.5500 H   0  0  0  0  0  0  0  0  0  0  0  0
   -0.4911   23.1270  -26.2592 H   0  0  0  0  0  0  0  0  0  0  0  0
   -0.6937   21.3749  -25.8876 H   0  0  0  0  0  0  0  0  0  0  0  0
    1.4257   21.5457  -26.9755 H   0  0  0  0  0  0  0  0  0  0  0  0
    0.2956   20.9306  -28.2290 H   0  0  0  0  0  0  0  0  0  0  0  0
    0.7820   22.6598  -28.2290 H   0  0  0  0  0  0  0  0  0  0  0  0
   -3.5841   23.2950  -27.8650 H   0  0  0  0  0  0  0  0  0  0  0  0
   -2.5152   23.8323  -26.4776 H   0  0  0  0  0  0  0  0  0  0  0  0
   -1.2628   25.1489  -27.7890 H   0  0  0  0  0  0  0  0  0  0  0  0
   -1.1878   23.9366  -29.1089 H   0  0  0  0  0  0  0  0  0  0  0  0
   -5.4947   25.7309  -28.9915 H   0  0  0  0  0  0  0  0  0  0  0  0
   -7.2552   24.6288  -30.3483 H   0  0  0  0  0  0  0  0  0  0  0  0
   -2.4745   23.3459  -30.9491 H   0  0  0  0  0  0  0  0  0  0  0  0
   -4.2998   22.3283  -33.6422 H   0  0  0  0  0  0  0  0  0  0  0  0
   -2.9563   21.8528  -32.5135 H   0  0  0  0  0  0  0  0  0  0  0  0
   -4.0541   19.8284  -32.8591 H   0  0  0  0  0  0  0  0  0  0  0  0
   -4.8051   20.4517  -31.3269 H   0  0  0  0  0  0  0  0  0  0  0  0
   -6.0411   20.9198  -34.0637 H   0  0  0  0  0  0  0  0  0  0  0  0
   -6.3937   19.4584  -33.0466 H   0  0  0  0  0  0  0  0  0  0  0  0
   -8.6187   21.1172  -30.8424 H   0  0  0  0  0  0  0  0  0  0  0  0
   -9.0859   20.6644  -32.5194 H   0  0  0  0  0  0  0  0  0  0  0  0
   -7.2236   19.3509  -30.6856 H   0  0  0  0  0  0  0  0  0  0  0  0
   -9.2436   17.3285  -30.8731 H   0  0  0  0  0  0  0  0  0  0  0  0
  -10.2584   18.2943  -31.5491 H   0  0  0  0  0  0  0  0  0  0  0  0
   -7.3967   17.3488  -32.7327 H   0  0  0  0  0  0  0  0  0  0  0  0
   -8.0907   18.3184  -33.7322 H   0  0  0  0  0  0  0  0  0  0  0  0
  1  2  1  0
  2  3  1  0
  3  4  1  0
  4  5  1  0
  3  6  1  0
  6  7  1  0
  7  8  1  0
  8  9  1  0
  9 10  2  0
 10 11  1  0
 11 12  2  0
 12 13  1  0
 13 14  2  0
 13 15  1  0
 15 16  1  0
 16 17  1  0
 17 18  1  0
 18 19  1  0
 19 20  1  0
 20 21  1  0
 21 22  1  0
 18 23  1  0
 23 24  2  0
 14  9  1  0
 22 20  1  0
 23 12  1  0
  1 25  1  0
  1 26  1  0
  1 27  1  0
  2 28  1  0
  2 29  1  0
  4 30  1  0
  4 31  1  0
  5 32  1  0
  5 33  1  0
  5 34  1  0
  6 35  1  0
  6 36  1  0
  7 37  1  0
  7 38  1  0
 10 39  1  0
 11 40  1  0
 14 41  1  0
 15 42  1  0
 15 43  1  0
 16 44  1  0
 16 45  1  0
 17 46  1  0
 17 47  1  0
 19 48  1  0
 19 49  1  0
 20 50  1  0
 21 51  1  0
 21 52  1  0
 22 53  1  0
 22 54  1  0
M  END
>  <UniqueID>  (7) 
7

>  <SMILES>  (7) 
CCN(CC)CCOc1ccc2c(c1)CCCN(CC1CC1)C2=O

>  <Energy>  (7) 
325.5011414060784

>  <Genealogy>  (7) 
CCN(CC)CCOc1ccc2c(c1)CCCN(CC1CC1)C2=O (3D coordinates assigned)
CCN(CC)CCOc1ccc2c(c1)CCCN(CC1CC1)C2=O (nonaromatic ring conformer: 325.5011414060784 kcal/mol)

>  <smiles>  (7) 
CCN(CC)CCOc1ccc2c(c1)CCCN(CC1CC1)C2=O

>  <score_type>  (7) 
oracle

>  <origin>  (7) 
adg

>  <m_score__min__energy>  (7) 
-7.0199999999999996

>  <m_primary>  (7) 
energy

$$$$
7:0
     RDKit          3D

 42 44  0  0  0  0  0  0  0  0999 V2000
   -3.0700   15.6080  -35.5690 C   0  0  0  0  0  0  0  0  0  0  0  0
   -3.3170   15.8980  -34.1950 O   0  0  0  0  0  0  0  0  0  0  0  0
   -4.3040   16.7820  -33.7300 C   0  0  0  0  0  0  0  0  0  0  0  0
   -3.9830   17.9820  -33.0720 C   0  0  0  0  0  0  0  0  0  0  0  0
   -4.9960   18.8330  -32.5970 C   0  0  0  0  0  0  0  0  0  0  0  0
   -6.3460   18.4930  -32.8070 C   0  0  0  0  0  0  0  0  0  0  0  0
   -6.6630   17.2990  -33.4750 C   0  0  0  0  0  0  0  0  0  0  0  0
   -5.6490   16.4360  -33.9280 C   0  0  0  0  0  0  0  0  0  0  0  0
   -5.9350   15.2250  -34.5740 O   0  0  0  0  0  0  0  0  0  0  0  0
   -7.1850   14.5490  -34.5070 C   0  0  0  0  0  0  0  0  0  0  0  0
   -7.4510   19.3980  -32.3160 C   0  0  0  0  0  0  0  0  0  0  0  0
   -7.4690   20.7560  -33.0600 C   0  0  0  0  0  0  0  0  0  0  0  0
   -6.4790   21.7580  -32.5770 N   0  0  0  0  0  0  0  0  0  0  0  0
   -6.7420   22.2630  -31.2340 C   0  0  0  0  0  0  0  0  0  0  0  0
   -7.5150   21.6480  -30.4490 O   0  0  0  0  0  0  0  0  0  0  0  0
   -6.2130   23.5690  -30.7960 C   0  0  0  0  0  0  0  0  0  0  0  0
   -6.7770   24.3830  -29.8330 C   0  0  0  0  0  0  0  0  0  0  0  0
   -5.9560   25.4890  -29.7570 C   0  0  0  0  0  0  0  0  0  0  0  0
   -4.9490   25.2840  -30.6790 C   0  0  0  0  0  0  0  0  0  0  0  0
   -5.1300   24.1300  -31.2810 O   0  0  0  0  0  0  0  0  0  0  0  0
   -5.0680   21.3350  -32.7830 C   0  0  0  0  0  0  0  0  0  0  0  0
   -4.6310   20.1330  -31.9230 C   0  0  0  0  0  0  0  0  0  0  0  0
   -2.3585   14.7726  -35.6453 H   0  0  0  0  0  0  0  0  0  0  0  0
   -4.0142   15.3315  -36.0609 H   0  0  0  0  0  0  0  0  0  0  0  0
   -2.6467   16.4962  -36.0609 H   0  0  0  0  0  0  0  0  0  0  0  0
   -2.9281   18.2580  -32.9273 H   0  0  0  0  0  0  0  0  0  0  0  0
   -7.7172   17.0355  -33.6460 H   0  0  0  0  0  0  0  0  0  0  0  0
   -7.4642   14.3980  -33.4538 H   0  0  0  0  0  0  0  0  0  0  0  0
   -7.9559   15.1532  -35.0077 H   0  0  0  0  0  0  0  0  0  0  0  0
   -7.1014   13.5731  -35.0077 H   0  0  0  0  0  0  0  0  0  0  0  0
   -8.4167   18.8952  -32.4730 H   0  0  0  0  0  0  0  0  0  0  0  0
   -7.2734   19.5997  -31.2493 H   0  0  0  0  0  0  0  0  0  0  0  0
   -7.2667   20.5636  -34.1240 H   0  0  0  0  0  0  0  0  0  0  0  0
   -8.4610   21.1929  -32.8727 H   0  0  0  0  0  0  0  0  0  0  0  0
   -6.6130   22.5880  -33.2040 H   0  0  0  0  0  0  0  0  0  0  0  0
   -7.6892   24.1899  -29.2493 H   0  0  0  0  0  0  0  0  0  0  0  0
   -6.0789   26.3590  -29.0951 H   0  0  0  0  0  0  0  0  0  0  0  0
   -4.1214   25.9804  -30.8791 H   0  0  0  0  0  0  0  0  0  0  0  0
   -4.9411   21.0647  -33.8417 H   0  0  0  0  0  0  0  0  0  0  0  0
   -4.4384   22.1840  -32.4784 H   0  0  0  0  0  0  0  0  0  0  0  0
   -3.5413   20.1706  -31.7774 H   0  0  0  0  0  0  0  0  0  0  0  0
   -5.1481   20.1857  -30.9535 H   0  0  0  0  0  0  0  0  0  0  0  0
  1  2  1  0
  2  3  1  0
  3  4  2  0
  4  5  1  0
  5  6  2  0
  6  7  1  0
  7  8  2  0
  8  9  1  0
  9 10  1  0
  6 11  1  0
 11 12  1  0
 12 13  1  0
 13 14  1  0
 14 15  2  0
 14 16  1  0
 16 17  2  0
 17 18  1  0
 18 19  2  0
 19 20  1  0
 13 21  1  0
 21 22  1  0
  8  3  1  0
 20 16  1  0
 22  5  1  0
  1 23  1  0
  1 24  1  0
  1 25  1  0
  4 26  1  0
  7 27  1  0
 10 28  1  0
 10 29  1  0
 10 30  1  0
 11 31  1  0
 11 32  1  0
 12 33  1  0
 12 34  1  0
 13 35  1  0
 17 36  1  0
 18 37  1  0
 19 38  1  0
 21 39  1  0
 21 40  1  0
 22 41  1  0
 22 42  1  0
M  CHG  1  13   1
M  END
>  <UniqueID>  (8) 
8

>  <SMILES>  (8) 
COc1cc2c(cc1OC)CC[NH+](C(=O)c1ccco1)CC2

>  <Energy>  (8) 
82.55980626488993

>  <Genealogy>  (8) 
COc1cc2c(cc1OC)CC[NH+](C(=O)c1ccco1)CC2 (protonated)
COc1cc2c(cc1OC)CC[NH+](C(=O)c1ccco1)CC2 (3D coordinates assigned)
COc1cc2c(cc1OC)CC[NH+](C(=O)c1ccco1)CC2 (nonaromatic ring conformer: 82.55980626488993 kcal/mol)

>  <smiles>  (8) 
COc1cc2c(cc1OC)CCN(C(=O)c1ccco1)CC2

>  <score_type>  (8) 
oracle

>  <origin>  (8) 
adg

>  <m_score__min__energy>  (8) 
-5.0999999999999996

>  <m_primary>  (8) 
energy

$$$$
8:0
     RDKit          3D

 43 46  0  0  0  0  0  0  0  0999 V2000
   -9.3275   18.7235  -32.9329 H   0  0  0  0  0  0  0  0  0  0  0  0
   -8.5200   19.4200  -32.6630 C   0  0  0  0  0  0  0  0  0  0  0  0
   -7.1890   18.9980  -32.7180 C   0  0  0  0  0  0  0  0  0  0  0  0
   -6.9525   17.9713  -33.0341 H   0  0  0  0  0  0  0  0  0  0  0  0
   -6.1570   19.8750  -32.3730 C   0  0  0  0  0  0  0  0  0  0  0  0
   -5.1109   19.5387  -32.4240 H   0  0  0  0  0  0  0  0  0  0  0  0
   -6.4530   21.1860  -31.9610 C   0  0  0  0  0  0  0  0  0  0  0  0
   -5.4270   22.0740  -31.6070 C   0  0  0  0  0  0  0  0  0  0  0  0
   -4.3794   21.7412  -31.6483 H   0  0  0  0  0  0  0  0  0  0  0  0
   -5.7250   23.3820  -31.2010 C   0  0  0  0  0  0  0  0  0  0  0  0
   -4.6560   24.2240  -30.8560 O   0  0  0  0  0  0  0  0  0  0  0  0
   -3.4800   23.8190  -30.1560 C   0  0  0  0  0  0  0  0  0  0  0  0
   -2.7985   24.6783  -30.0709 H   0  0  0  0  0  0  0  0  0  0  0  0
   -3.0029   23.0019  -30.7170 H   0  0  0  0  0  0  0  0  0  0  0  0
   -3.8150   23.3220  -28.7830 C   0  0  0  0  0  0  0  0  0  0  0  0
   -4.2030   22.1340  -28.6180 O   0  0  0  0  0  0  0  0  0  0  0  0
   -3.7410   24.2180  -27.6730 N   0  0  0  0  0  0  0  0  0  0  0  0
   -2.7040   24.2790  -26.9410 N   0  0  0  0  0  0  0  0  0  0  0  0
   -1.8440   25.4230  -26.9380 C   0  0  0  0  0  0  0  0  0  0  0  0
   -1.3420   26.0490  -28.0660 C   0  0  0  0  0  0  0  0  0  0  0  0
   -1.6010   25.6640  -29.3750 O   0  0  0  0  0  0  0  0  0  0  0  0
   -0.5670   27.1030  -27.7370 N   0  0  0  0  0  0  0  0  0  0  0  0
   -0.0790   27.7500  -28.3980 H   0  0  0  0  0  0  0  0  0  0  0  0
   -0.5690   27.1460  -26.3890 C   0  0  0  0  0  0  0  0  0  0  0  0
    0.0940   28.0710  -25.5710 C   0  0  0  0  0  0  0  0  0  0  0  0
    0.9430   29.1610  -26.1570 C   0  0  0  0  0  0  0  0  0  0  0  0
    1.3993   29.7468  -25.3454 H   0  0  0  0  0  0  0  0  0  0  0  0
    1.7346   28.7157  -26.7776 H   0  0  0  0  0  0  0  0  0  0  0  0
    0.3174   29.8195  -26.7776 H   0  0  0  0  0  0  0  0  0  0  0  0
   -0.0600   27.9320  -24.1740 C   0  0  0  0  0  0  0  0  0  0  0  0
    0.4528   28.6314  -23.4973 H   0  0  0  0  0  0  0  0  0  0  0  0
   -0.8650   26.9050  -23.6380 C   0  0  0  0  0  0  0  0  0  0  0  0
   -0.9872   26.8224  -22.5479 H   0  0  0  0  0  0  0  0  0  0  0  0
   -1.5120   25.9870  -24.4810 C   0  0  0  0  0  0  0  0  0  0  0  0
   -2.1335   25.1782  -24.0691 H   0  0  0  0  0  0  0  0  0  0  0  0
   -1.3410   26.1340  -25.8580 C   0  0  0  0  0  0  0  0  0  0  0  0
   -7.0690   23.8010  -31.1540 C   0  0  0  0  0  0  0  0  0  0  0  0
   -7.3106   24.8258  -30.8356 H   0  0  0  0  0  0  0  0  0  0  0  0
   -8.0980   22.9240  -31.5090 C   0  0  0  0  0  0  0  0  0  0  0  0
   -9.1440   23.2621  -31.4697 H   0  0  0  0  0  0  0  0  0  0  0  0
   -7.8020   21.6150  -31.9150 C   0  0  0  0  0  0  0  0  0  0  0  0
   -8.8290   20.7250  -32.2660 C   0  0  0  0  0  0  0  0  0  0  0  0
   -9.8779   21.0542  -32.2288 H   0  0  0  0  0  0  0  0  0  0  0  0
  1  2  1  0
  2  3  2  0
  3  4  1  0
  3  5  1  0
  5  6  1  0
  5  7  2  0
  7  8  1  0
  8  9  1  0
  8 10  2  0
 10 11  1  0
 11 12  1  0
 12 13  1  0
 12 14  1  0
 12 15  1  0
 15 16  2  0
 15 17  1  0
 17 18  2  0
 18 19  1  0
 19 20  2  0
 20 21  1  0
 20 22  1  0
 22 23  1  0
 22 24  1  0
 24 25  2  0
 25 26  1  0
 26 27  1  0
 26 28  1  0
 26 29  1  0
 25 30  1  0
 30 31  1  0
 30 32  2  0
 32 33  1  0
 32 34  1  0
 34 35  1  0
 34 36  2  0
 10 37  1  0
 37 38  1  0
 37 39  2  0
 39 40  1  0
 39 41  1  0
 41 42  2  0
 42 43  1  0
 42  2  1  0
 41  7  1  0
 36 19  1  0
 36 24  1  0
M  CHG  1  21  -1
M  END
>  <UniqueID>  (9) 
9

>  <SMILES>  (9) 
Cc1cccc2c(/N=N/C(=O)COc3ccc4ccccc4c3)c([O-])[nH]c12

>  <Energy>  (9) 
84.1280027459139

>  <Genealogy>  (9) 
Cc1cccc2c(N=NC(=O)COc3ccc4ccccc4c3)c([O-])[nH]c12 (protonated)
Cc1cccc2c(/N=N/C(=O)COc3ccc4ccccc4c3)c([O-])[nH]c12 (cis-trans isomerization)
Cc1cccc2c(/N=N/C(=O)COc3ccc4ccccc4c3)c([O-])[nH]c12 (3D coordinates assigned)
Cc1cccc2c(/N=N/C(=O)COc3ccc4ccccc4c3)c([O-])[nH]c12 (optimized conformer: 84.1280027459139 kcal/mol)

>  <smiles>  (9) 
Cc1cccc2c(N=NC(=O)COc3ccc4ccccc4c3)c(O)[nH]c12

>  <score_type>  (9) 
oracle

>  <origin>  (9) 
adg

>  <m_score__min__energy>  (9) 
-12.51

>  <m_primary>  (9) 
energy

$$$$
9:0
     RDKit          3D

 43 45  0  0  0  0  0  0  0  0999 V2000
   -1.7710   25.2540  -28.0480 C   0  0  0  0  0  0  0  0  0  0  0  0
   -2.3760   25.2940  -29.3370 O   0  0  0  0  0  0  0  0  0  0  0  0
   -3.3130   24.3600  -29.8080 C   0  0  0  0  0  0  0  0  0  0  0  0
   -4.5940   24.7400  -30.2390 C   0  0  0  0  0  0  0  0  0  0  0  0
   -5.5050   23.7830  -30.7080 C   0  0  0  0  0  0  0  0  0  0  0  0
   -6.7930   24.1830  -31.0820 C   0  0  0  0  0  0  0  0  0  0  0  0
   -7.7290   23.2440  -31.4980 C   0  0  0  0  0  0  0  0  0  0  0  0
   -7.3850   21.8880  -31.5950 C   0  0  0  0  0  0  0  0  0  0  0  0
   -6.0610   21.4700  -31.3110 C   0  0  0  0  0  0  0  0  0  0  0  0
   -5.1330   22.4170  -30.7850 C   0  0  0  0  0  0  0  0  0  0  0  0
   -3.8550   22.0450  -30.3120 C   0  0  0  0  0  0  0  0  0  0  0  0
   -2.9460   23.0100  -29.8350 C   0  0  0  0  0  0  0  0  0  0  0  0
   -1.6650   22.6630  -29.3740 O   0  0  0  0  0  0  0  0  0  0  0  0
   -0.7440   21.8380  -30.0790 C   0  0  0  0  0  0  0  0  0  0  0  0
   -5.7190   20.0630  -31.4610 N   0  0  0  0  0  0  0  0  0  0  0  0
   -6.4770   19.3830  -32.5460 C   0  0  0  0  0  0  0  0  0  0  0  0
   -6.2570   17.8590  -32.4440 C   0  0  0  0  0  0  0  0  0  0  0  0
   -5.9890   19.8610  -33.9320 C   0  0  0  0  0  0  0  0  0  0  0  0
   -7.9570   19.6730  -32.4250 C   0  0  0  0  0  0  0  0  0  0  0  0
   -8.3870   20.8710  -32.0130 C   0  0  0  0  0  0  0  0  0  0  0  0
   -9.8620   21.1720  -31.9930 C   0  0  0  0  0  0  0  0  0  0  0  0
   -2.5517   25.3056  -27.2748 H   0  0  0  0  0  0  0  0  0  0  0  0
   -1.2063   24.3166  -27.9369 H   0  0  0  0  0  0  0  0  0  0  0  0
   -1.0878   26.1089  -27.9369 H   0  0  0  0  0  0  0  0  0  0  0  0
   -4.8861   25.8001  -30.2084 H   0  0  0  0  0  0  0  0  0  0  0  0
   -7.0662   25.2479  -31.0464 H   0  0  0  0  0  0  0  0  0  0  0  0
   -8.7489   23.5672  -31.7535 H   0  0  0  0  0  0  0  0  0  0  0  0
   -3.5646   20.9840  -30.3162 H   0  0  0  0  0  0  0  0  0  0  0  0
   -0.1241   21.2827  -29.3597 H   0  0  0  0  0  0  0  0  0  0  0  0
   -1.2973   21.1278  -30.7111 H   0  0  0  0  0  0  0  0  0  0  0  0
   -0.0988   22.4658  -30.7111 H   0  0  0  0  0  0  0  0  0  0  0  0
   -5.9050   19.5940  -30.5440 H   0  0  0  0  0  0  0  0  0  0  0  0
   -4.7050   19.9530  -31.6890 H   0  0  0  0  0  0  0  0  0  0  0  0
   -6.2145   17.5647  -31.3849 H   0  0  0  0  0  0  0  0  0  0  0  0
   -7.0888   17.3346  -32.9372 H   0  0  0  0  0  0  0  0  0  0  0  0
   -5.3109   17.5913  -32.9372 H   0  0  0  0  0  0  0  0  0  0  0  0
   -5.2086   20.6254  -33.8024 H   0  0  0  0  0  0  0  0  0  0  0  0
   -5.5770   19.0073  -34.4901 H   0  0  0  0  0  0  0  0  0  0  0  0
   -6.8340   20.2906  -34.4901 H   0  0  0  0  0  0  0  0  0  0  0  0
   -8.6873   18.8904  -32.6785 H   0  0  0  0  0  0  0  0  0  0  0  0
  -10.2077   21.2426  -30.9511 H   0  0  0  0  0  0  0  0  0  0  0  0
  -10.0484   22.1267  -32.5066 H   0  0  0  0  0  0  0  0  0  0  0  0
  -10.4076   20.3667  -32.5066 H   0  0  0  0  0  0  0  0  0  0  0  0
  1  2  1  0
  2  3  1  0
  3  4  2  0
  4  5  1  0
  5  6  2  0
  6  7  1  0
  7  8  2  0
  8  9  1  0
  9 10  2  0
 10 11  1  0
 11 12  2  0
 12 13  1  0
 13 14  1  0
  9 15  1  0
 15 16  1  0
 16 17  1  0
 16 18  1  0
 16 19  1  0
 19 20  2  0
 20 21  1  0
 12  3  1  0
 10  5  1  0
 20  8  1  0
  1 22  1  0
  1 23  1  0
  1 24  1  0
  4 25  1  0
  6 26  1  0
  7 27  1  0
 11 28  1  0
 14 29  1  0
 14 30  1  0
 14 31  1  0
 15 32  1  0
 15 33  1  0
 17 34  1  0
 17 35  1  0
 17 36  1  0
 18 37  1  0
 18 38  1  0
 18 39  1  0
 19 40  1  0
 21 41  1  0
 21 42  1  0
 21 43  1  0
M  CHG  1  15   1
M  END
>  <UniqueID>  (10) 
10

>  <SMILES>  (10) 
COc1cc2ccc3c(c2cc1OC)[NH2+]C(C)(C)C=C3C

>  <Energy>  (10) 
54.871672329210696

>  <Genealogy>  (10) 
COc1cc2ccc3c(c2cc1OC)[NH2+]C(C)(C)C=C3C (protonated)
COc1cc2ccc3c(c2cc1OC)[NH2+]C(C)(C)C=C3C (3D coordinates assigned)
COc1cc2ccc3c(c2cc1OC)[NH2+]C(C)(C)C=C3C (nonaromatic ring conformer: 54.871672329210696 kcal/mol)

>  <smiles>  (10) 
COc1cc2ccc3c(c2cc1OC)NC(C)(C)C=C3C

>  <score_type>  (10) 
oracle

>  <origin>  (10) 
adg

>  <m_score__min__energy>  (10) 
-7.8300000000000001

>  <m_primary>  (10) 
energy

$$$$
10:0
     RDKit          3D

 37 40  0  0  0  0  0  0  0  0999 V2000
   -0.8724   22.6493  -35.1886 H   0  0  0  0  0  0  0  0  0  0  0  0
    0.0800   22.1260  -35.0180 C   0  0  0  0  0  0  0  0  0  0  0  0
    1.2490   22.7150  -35.3850 N   0  0  0  0  0  0  0  0  0  0  0  0
    2.4560   22.1140  -35.2100 C   0  0  0  0  0  0  0  0  0  0  0  0
    3.5290   22.7480  -35.5900 N   0  0  0  0  0  0  0  0  0  0  0  0
    3.6700   24.1940  -35.7280 C   0  0  0  0  0  0  0  0  0  0  0  0
    3.7149   24.6549  -34.7302 H   0  0  0  0  0  0  0  0  0  0  0  0
    4.5946   24.4213  -36.2789 H   0  0  0  0  0  0  0  0  0  0  0  0
    2.8068   24.5957  -36.2789 H   0  0  0  0  0  0  0  0  0  0  0  0
    2.5020   20.8320  -34.6290 C   0  0  0  0  0  0  0  0  0  0  0  0
    3.4673   20.3256  -34.4811 H   0  0  0  0  0  0  0  0  0  0  0  0
    1.3150   20.2080  -34.2420 C   0  0  0  0  0  0  0  0  0  0  0  0
    1.3460   19.2044  -33.7929 H   0  0  0  0  0  0  0  0  0  0  0  0
    0.0800   20.8550  -34.4230 C   0  0  0  0  0  0  0  0  0  0  0  0
   -1.2020   20.2140  -34.0310 C   0  0  0  0  0  0  0  0  0  0  0  0
   -2.3210   20.9950  -33.8960 N   0  0  0  0  0  0  0  0  0  0  0  0
   -3.4970   20.4270  -33.5350 C   0  0  0  0  0  0  0  0  0  0  0  0
   -3.6070   19.0800  -33.2920 C   0  0  0  0  0  0  0  0  0  0  0  0
   -2.5100   18.2370  -33.4000 C   0  0  0  0  0  0  0  0  0  0  0  0
   -2.5958   17.1587  -33.2000 H   0  0  0  0  0  0  0  0  0  0  0  0
   -1.2850   18.8150  -33.7750 C   0  0  0  0  0  0  0  0  0  0  0  0
   -0.3880   18.1856  -33.8711 H   0  0  0  0  0  0  0  0  0  0  0  0
   -4.9220   18.8660  -32.9490 C   0  0  0  0  0  0  0  0  0  0  0  0
   -5.6110   17.7130  -32.5850 C   0  0  0  0  0  0  0  0  0  0  0  0
   -5.1041   16.7378  -32.5400 H   0  0  0  0  0  0  0  0  0  0  0  0
   -6.9760   17.8370  -32.2770 C   0  0  0  0  0  0  0  0  0  0  0  0
   -7.5462   16.9467  -31.9734 H   0  0  0  0  0  0  0  0  0  0  0  0
   -7.6310   19.0960  -32.3520 C   0  0  0  0  0  0  0  0  0  0  0  0
   -9.0840   19.2170  -31.9690 C   0  0  0  0  0  0  0  0  0  0  0  0
   -9.4870   18.1170  -31.2320 F   0  0  0  0  0  0  0  0  0  0  0  0
   -9.8830   19.2990  -33.0970 F   0  0  0  0  0  0  0  0  0  0  0  0
   -9.2600   20.3580  -31.2090 F   0  0  0  0  0  0  0  0  0  0  0  0
   -6.8890   20.2490  -32.7030 C   0  0  0  0  0  0  0  0  0  0  0  0
   -7.3681   21.2386  -32.7371 H   0  0  0  0  0  0  0  0  0  0  0  0
   -5.5380   20.1000  -33.0040 C   0  0  0  0  0  0  0  0  0  0  0  0
   -4.6700   21.0730  -33.3640 N   0  0  0  0  0  0  0  0  0  0  0  0
   -4.8610   22.0930  -33.4810 H   0  0  0  0  0  0  0  0  0  0  0  0
  1  2  1  0
  2  3  1  0
  3  4  1  0
  4  5  2  0
  5  6  1  0
  6  7  1  0
  6  8  1  0
  6  9  1  0
  4 10  1  0
 10 11  1  0
 10 12  2  0
 12 13  1  0
 12 14  1  0
 14 15  1  0
 15 16  2  0
 16 17  1  0
 17 18  2  0
 18 19  1  0
 19 20  1  0
 19 21  2  0
 21 22  1  0
 18 23  1  0
 23 24  2  0
 24 25  1  0
 24 26  1  0
 26 27  1  0
 26 28  2  0
 28 29  1  0
 29 30  1  0
 29 31  1  0
 29 32  1  0
 28 33  1  0
 33 34  1  0
 33 35  2  0
 35 36  1  0
 36 37  1  0
 14  2  2  0
 21 15  1  0
 35 23  1  0
 36 17  1  0
M  CHG  1   3  -1
M  END
>  <UniqueID>  (11) 
11

>  <SMILES>  (11) 
C/N=c1\ccc(-c2ccc3c(n2)[nH]c2cc(C(F)(F)F)ccc23)c[n-]1

>  <Energy>  (11) 
89.96161760033236

>  <Genealogy>  (11) 
CN=c1ccc(-c2ccc3c(n2)[nH]c2cc(C(F)(F)F)ccc23)c[n-]1 (protonated)
C/N=c1\ccc(-c2ccc3c(n2)[nH]c2cc(C(F)(F)F)ccc23)c[n-]1 (cis-trans isomerization)
C/N=c1\ccc(-c2ccc3c(n2)[nH]c2cc(C(F)(F)F)ccc23)c[n-]1 (3D coordinates assigned)
C/N=c1\ccc(-c2ccc3c(n2)[nH]c2cc(C(F)(F)F)ccc23)c[n-]1 (optimized conformer: 89.96161760033236 kcal/mol)

>  <smiles>  (11) 
CN=c1ccc(-c2ccc3c(n2)[nH]c2cc(C(F)(F)F)ccc23)c[nH]1

>  <score_type>  (11) 
oracle

>  <origin>  (11) 
adg

>  <m_score__min__energy>  (11) 
-7.7300000000000004

>  <m_primary>  (11) 
energy

$$$$
11:0
     RDKit          3D

 60 63  0  0  0  0  0  0  0  0999 V2000
   -4.6040   24.0800  -28.5590 C   0  0  0  0  0  0  0  0  0  0  0  0
   -5.1520   24.8080  -29.7830 C   0  0  0  0  0  0  0  0  0  0  0  0
   -4.6090   24.2580  -30.9840 O   0  0  0  0  0  0  0  0  0  0  0  0
   -4.9220   22.9970  -31.5200 C   0  0  0  0  0  0  0  0  0  0  0  0
   -6.1560   22.4280  -31.1880 C   0  0  0  0  0  0  0  0  0  0  0  0
   -6.5260   21.1810  -31.6980 C   0  0  0  0  0  0  0  0  0  0  0  0
   -5.6600   20.4780  -32.5510 C   0  0  0  0  0  0  0  0  0  0  0  0
   -6.0500   19.2010  -33.0890 N   0  0  0  0  0  0  0  0  0  0  0  0
   -6.7640   18.2630  -32.2050 C   0  0  0  0  0  0  0  0  0  0  0  0
   -5.9240   17.0360  -31.7880 C   0  0  0  0  0  0  0  0  0  0  0  0
   -5.6980   15.9570  -32.8740 C   0  0  0  0  0  0  0  0  0  0  0  0
   -5.2960   16.5110  -34.1790 N   0  0  0  0  0  0  0  0  0  0  0  0
   -3.9000   16.5130  -34.5660 C   0  0  0  0  0  0  0  0  0  0  0  0
   -3.5760   16.0620  -35.7000 O   0  0  0  0  0  0  0  0  0  0  0  0
   -2.8210   17.0280  -33.6830 C   0  0  0  0  0  0  0  0  0  0  0  0
   -2.6910   18.3900  -33.3930 C   0  0  0  0  0  0  0  0  0  0  0  0
   -1.6960   18.8360  -32.5240 C   0  0  0  0  0  0  0  0  0  0  0  0
   -0.8250   17.9120  -31.9240 C   0  0  0  0  0  0  0  0  0  0  0  0
    0.2050   18.3540  -31.0100 N   0  0  0  0  0  0  0  0  0  0  0  0
   -0.0540   19.1300  -29.8060 C   0  0  0  0  0  0  0  0  0  0  0  0
    1.2740   19.2050  -29.0650 C   0  0  0  0  0  0  0  0  0  0  0  0
    2.3420   18.8400  -30.0900 C   0  0  0  0  0  0  0  0  0  0  0  0
    1.6200   18.0620  -31.1810 C   0  0  0  0  0  0  0  0  0  0  0  0
   -0.9690   16.5830  -32.2170 N   0  0  0  0  0  0  0  0  0  0  0  0
   -1.9350   16.1330  -33.0630 C   0  0  0  0  0  0  0  0  0  0  0  0
   -6.1870   17.4720  -34.8570 C   0  0  0  0  0  0  0  0  0  0  0  0
   -5.8730   18.9350  -34.5220 C   0  0  0  0  0  0  0  0  0  0  0  0
   -4.4160   21.0400  -32.8750 C   0  0  0  0  0  0  0  0  0  0  0  0
   -4.0470   22.2880  -32.3640 C   0  0  0  0  0  0  0  0  0  0  0  0
   -4.9726   24.5697  -27.6456 H   0  0  0  0  0  0  0  0  0  0  0  0
   -4.9397   23.0326  -28.5745 H   0  0  0  0  0  0  0  0  0  0  0  0
   -3.5046   24.1129  -28.5745 H   0  0  0  0  0  0  0  0  0  0  0  0
   -6.2472   24.7069  -29.8027 H   0  0  0  0  0  0  0  0  0  0  0  0
   -4.8671   25.8686  -29.7200 H   0  0  0  0  0  0  0  0  0  0  0  0
   -6.8420   22.9678  -30.5186 H   0  0  0  0  0  0  0  0  0  0  0  0
   -7.5008   20.7476  -31.4299 H   0  0  0  0  0  0  0  0  0  0  0  0
   -7.0631   18.8038  -31.2950 H   0  0  0  0  0  0  0  0  0  0  0  0
   -7.6265   17.8826  -32.7720 H   0  0  0  0  0  0  0  0  0  0  0  0
   -4.9368   17.3996  -31.4666 H   0  0  0  0  0  0  0  0  0  0  0  0
   -6.5050   16.5385  -30.9975 H   0  0  0  0  0  0  0  0  0  0  0  0
   -4.9081   15.2744  -32.5274 H   0  0  0  0  0  0  0  0  0  0  0  0
   -6.6586   15.4423  -33.0233 H   0  0  0  0  0  0  0  0  0  0  0  0
   -3.3786   19.1145  -33.8538 H   0  0  0  0  0  0  0  0  0  0  0  0
   -1.5934   19.9098  -32.3087 H   0  0  0  0  0  0  0  0  0  0  0  0
   -0.4031   20.1394  -30.0690 H   0  0  0  0  0  0  0  0  0  0  0  0
   -0.8365   18.6667  -29.1871 H   0  0  0  0  0  0  0  0  0  0  0  0
    1.4422   20.2224  -28.6821 H   0  0  0  0  0  0  0  0  0  0  0  0
    1.2940   18.5261  -28.1997 H   0  0  0  0  0  0  0  0  0  0  0  0
    2.7998   19.7493  -30.5068 H   0  0  0  0  0  0  0  0  0  0  0  0
    3.1516   18.2479  -29.6383 H   0  0  0  0  0  0  0  0  0  0  0  0
    1.9609   18.3899  -32.1741 H   0  0  0  0  0  0  0  0  0  0  0  0
    1.8212   16.9830  -31.1078 H   0  0  0  0  0  0  0  0  0  0  0  0
   -0.3400   15.8720  -31.7820 H   0  0  0  0  0  0  0  0  0  0  0  0
   -2.0227   15.0550  -33.2635 H   0  0  0  0  0  0  0  0  0  0  0  0
   -6.0864   17.3339  -35.9436 H   0  0  0  0  0  0  0  0  0  0  0  0
   -7.2095   17.2707  -34.5050 H   0  0  0  0  0  0  0  0  0  0  0  0
   -4.8313   19.1515  -34.8012 H   0  0  0  0  0  0  0  0  0  0  0  0
   -6.5666   19.5778  -35.0840 H   0  0  0  0  0  0  0  0  0  0  0  0
   -3.7260   20.4948  -33.5358 H   0  0  0  0  0  0  0  0  0  0  0  0
   -3.0681   22.7178  -32.6229 H   0  0  0  0  0  0  0  0  0  0  0  0
  1  2  1  0
  2  3  1  0
  3  4  1  0
  4  5  2  0
  5  6  1  0
  6  7  2  0
  7  8  1  0
  8  9  1  0
  9 10  1  0
 10 11  1  0
 11 12  1  0
 12 13  1  0
 13 14  2  0
 13 15  1  0
 15 16  2  0
 16 17  1  0
 17 18  2  0
 18 19  1  0
 19 20  1  0
 20 21  1  0
 21 22  1  0
 22 23  1  0
 18 24  1  0
 24 25  2  0
 12 26  1  0
 26 27  1  0
  7 28  1  0
 28 29  2  0
 29  4  1  0
 27  8  1  0
 25 15  1  0
 23 19  1  0
  1 30  1  0
  1 31  1  0
  1 32  1  0
  2 33  1  0
  2 34  1  0
  5 35  1  0
  6 36  1  0
  9 37  1  0
  9 38  1  0
 10 39  1  0
 10 40  1  0
 11 41  1  0
 11 42  1  0
 16 43  1  0
 17 44  1  0
 20 45  1  0
 20 46  1  0
 21 47  1  0
 21 48  1  0
 22 49  1  0
 22 50  1  0
 23 51  1  0
 23 52  1  0
 24 53  1  0
 25 54  1  0
 26 55  1  0
 26 56  1  0
 27 57  1  0
 27 58  1  0
 28 59  1  0
 29 60  1  0
M  CHG  1  24   1
M  END
>  <UniqueID>  (12) 
12

>  <SMILES>  (12) 
CCOc1ccc(N2CCCN(C(=O)c3ccc(N4CCCC4)[nH+]c3)CC2)cc1

>  <Energy>  (12) 
77.71173043335159

>  <Genealogy>  (12) 
CCOc1ccc(N2CCCN(C(=O)c3ccc(N4CCCC4)[nH+]c3)CC2)cc1 (protonated)
CCOc1ccc(N2CCCN(C(=O)c3ccc(N4CCCC4)[nH+]c3)CC2)cc1 (3D coordinates assigned)
CCOc1ccc(N2CCCN(C(=O)c3ccc(N4CCCC4)[nH+]c3)CC2)cc1 (nonaromatic ring conformer: 77.71173043335159 kcal/mol)

>  <smiles>  (12) 
CCOc1ccc(N2CCCN(C(=O)c3ccc(N4CCCC4)nc3)CC2)cc1

>  <score_type>  (12) 
oracle

>  <origin>  (12) 
adg

>  <m_score__min__energy>  (12) 
-5.71

>  <m_primary>  (12) 
energy

$$$$
12:0
     RDKit          3D

 52 54  0  0  0  0  0  0  0  0999 V2000
   -2.4890   22.5640  -30.0560 C   0  0  0  0  0  0  0  0  0  0  0  0
   -3.8650   22.4170  -29.4000 C   0  0  0  0  0  0  0  0  0  0  0  0
   -4.7260   23.6200  -29.5050 N   0  0  0  0  0  0  0  0  0  0  0  0
   -4.6260   24.5550  -28.3570 C   0  0  0  0  0  0  0  0  0  0  0  0
   -3.8250   24.0140  -27.1600 C   0  0  0  0  0  0  0  0  0  0  0  0
   -4.7820   24.2590  -30.8380 C   0  0  0  0  0  0  0  0  0  0  0  0
   -6.2280   24.4020  -31.3280 C   0  0  0  0  0  0  0  0  0  0  0  0
   -6.5110   23.4190  -32.3740 N   0  0  0  0  0  0  0  0  0  0  0  0
   -7.2940   22.2430  -32.1260 C   0  0  0  0  0  0  0  0  0  0  0  0
   -8.6100   22.4080  -31.6580 C   0  0  0  0  0  0  0  0  0  0  0  0
   -9.4800   21.3250  -31.5690 C   0  0  0  0  0  0  0  0  0  0  0  0
   -9.0610   20.0610  -31.9650 C   0  0  0  0  0  0  0  0  0  0  0  0
   -7.7560   19.8600  -32.4180 C   0  0  0  0  0  0  0  0  0  0  0  0
   -7.3870   18.6130  -32.8050 N   0  0  0  0  0  0  0  0  0  0  0  0
   -6.1370   18.3160  -33.2420 C   0  0  0  0  0  0  0  0  0  0  0  0
   -5.8250   16.9240  -33.6570 C   0  0  0  0  0  0  0  0  0  0  0  0
   -6.8460   15.9780  -33.8800 C   0  0  0  0  0  0  0  0  0  0  0  0
   -6.5300   14.6700  -34.2620 C   0  0  0  0  0  0  0  0  0  0  0  0
   -5.1950   14.2880  -34.4170 C   0  0  0  0  0  0  0  0  0  0  0  0
   -4.1740   15.2130  -34.1900 C   0  0  0  0  0  0  0  0  0  0  0  0
   -4.4840   16.5220  -33.8080 C   0  0  0  0  0  0  0  0  0  0  0  0
   -5.1620   19.3230  -33.2420 C   0  0  0  0  0  0  0  0  0  0  0  0
   -5.4800   20.6270  -32.8280 C   0  0  0  0  0  0  0  0  0  0  0  0
   -4.3400   21.6110  -32.7240 C   0  0  0  0  0  0  0  0  0  0  0  0
   -6.8280   20.9370  -32.4690 C   0  0  0  0  0  0  0  0  0  0  0  0
   -1.7178   22.6464  -29.2759 H   0  0  0  0  0  0  0  0  0  0  0  0
   -2.2850   21.6825  -30.6816 H   0  0  0  0  0  0  0  0  0  0  0  0
   -2.4758   23.4687  -30.6816 H   0  0  0  0  0  0  0  0  0  0  0  0
   -4.3875   21.5771  -29.8812 H   0  0  0  0  0  0  0  0  0  0  0  0
   -3.6852   22.2526  -28.3273 H   0  0  0  0  0  0  0  0  0  0  0  0
   -4.1396   25.4775  -28.7069 H   0  0  0  0  0  0  0  0  0  0  0  0
   -5.6525   24.7190  -27.9974 H   0  0  0  0  0  0  0  0  0  0  0  0
   -4.3028   24.3367  -26.2232 H   0  0  0  0  0  0  0  0  0  0  0  0
   -3.8025   22.9150  -27.2005 H   0  0  0  0  0  0  0  0  0  0  0  0
   -2.7971   24.4035  -27.2005 H   0  0  0  0  0  0  0  0  0  0  0  0
   -4.3244   25.2574  -30.7761 H   0  0  0  0  0  0  0  0  0  0  0  0
   -4.2356   23.6235  -31.5505 H   0  0  0  0  0  0  0  0  0  0  0  0
   -6.9145   24.2409  -30.4837 H   0  0  0  0  0  0  0  0  0  0  0  0
   -6.3670   25.4123  -31.7404 H   0  0  0  0  0  0  0  0  0  0  0  0
   -6.3850   23.7070  -33.3700 H   0  0  0  0  0  0  0  0  0  0  0  0
   -8.9569   23.4078  -31.3578 H   0  0  0  0  0  0  0  0  0  0  0  0
  -10.5004   21.4702  -31.1847 H   0  0  0  0  0  0  0  0  0  0  0  0
   -9.7614   19.2139  -31.9213 H   0  0  0  0  0  0  0  0  0  0  0  0
   -7.8987   16.2705  -33.7527 H   0  0  0  0  0  0  0  0  0  0  0  0
   -7.3340   13.9408  -34.4407 H   0  0  0  0  0  0  0  0  0  0  0  0
   -4.9484   13.2590  -34.7177 H   0  0  0  0  0  0  0  0  0  0  0  0
   -3.1232   14.9113  -34.3120 H   0  0  0  0  0  0  0  0  0  0  0  0
   -3.6740   17.2432  -33.6241 H   0  0  0  0  0  0  0  0  0  0  0  0
   -4.1380   19.0898  -33.5693 H   0  0  0  0  0  0  0  0  0  0  0  0
   -4.1172   21.8033  -31.6641 H   0  0  0  0  0  0  0  0  0  0  0  0
   -3.4492   21.1935  -33.2161 H   0  0  0  0  0  0  0  0  0  0  0  0
   -4.6229   22.5533  -33.2161 H   0  0  0  0  0  0  0  0  0  0  0  0
  1  2  1  0
  2  3  1  0
  3  4  1  0
  4  5  1  0
  3  6  1  0
  6  7  1  0
  7  8  1  0
  8  9  1  0
  9 10  2  0
 10 11  1  0
 11 12  2  0
 12 13  1  0
 13 14  2  0
 14 15  1  0
 15 16  1  0
 16 17  2  0
 17 18  1  0
 18 19  2  0
 19 20  1  0
 20 21  2  0
 15 22  2  0
 22 23  1  0
 23 24  1  0
 23 25  2  0
 25  9  1  0
 25 13  1  0
 21 16  1  0
  1 26  1  0
  1 27  1  0
  1 28  1  0
  2 29  1  0
  2 30  1  0
  4 31  1  0
  4 32  1  0
  5 33  1  0
  5 34  1  0
  5 35  1  0
  6 36  1  0
  6 37  1  0
  7 38  1  0
  7 39  1  0
  8 40  1  0
 10 41  1  0
 11 42  1  0
 12 43  1  0
 17 44  1  0
 18 45  1  0
 19 46  1  0
 20 47  1  0
 21 48  1  0
 22 49  1  0
 24 50  1  0
 24 51  1  0
 24 52  1  0
M  END
>  <UniqueID>  (13) 
13

>  <SMILES>  (13) 
CCN(CC)CCNc1cccc2nc(-c3ccccc3)cc(C)c12

>  <Energy>  (13) 
76.84144103153176

>  <Genealogy>  (13) 
CCN(CC)CCNc1cccc2nc(-c3ccccc3)cc(C)c12 (3D coordinates assigned)
CCN(CC)CCNc1cccc2nc(-c3ccccc3)cc(C)c12 (optimized conformer: 76.84144103153176 kcal/mol)

>  <smiles>  (13) 
CCN(CC)CCNc1cccc2nc(-c3ccccc3)cc(C)c12

>  <score_type>  (13) 
oracle

>  <origin>  (13) 
adg

>  <m_score__min__energy>  (13) 
-8.7100000000000009

>  <m_primary>  (13) 
energy

$$$$
13:0
     RDKit          3D

 33 35  0  0  0  0  0  0  0  0999 V2000
   -5.7870   25.3190  -29.1360 N   0  0  0  0  0  0  0  0  0  0  0  0
   -5.0730   24.8860  -30.2940 C   0  0  0  0  0  0  0  0  0  0  0  0
   -4.2570   25.6700  -30.8460 O   0  0  0  0  0  0  0  0  0  0  0  0
   -5.2360   23.5200  -30.8250 C   0  0  0  0  0  0  0  0  0  0  0  0
   -6.4610   22.9100  -31.0200 C   0  0  0  0  0  0  0  0  0  0  0  0
   -6.1960   21.6190  -31.4510 C   0  0  0  0  0  0  0  0  0  0  0  0
   -7.1950   20.5690  -31.7750 C   0  0  0  0  0  0  0  0  0  0  0  0
   -8.5320   20.9110  -32.0500 C   0  0  0  0  0  0  0  0  0  0  0  0
   -9.4570   19.9090  -32.3540 C   0  0  0  0  0  0  0  0  0  0  0  0
   -9.0690   18.6080  -32.3830 N   0  0  0  0  0  0  0  0  0  0  0  0
   -7.7870   18.2420  -32.1230 C   0  0  0  0  0  0  0  0  0  0  0  0
   -6.8290   19.2120  -31.8160 C   0  0  0  0  0  0  0  0  0  0  0  0
   -4.8160   21.4930  -31.4840 C   0  0  0  0  0  0  0  0  0  0  0  0
   -4.2350   22.6510  -31.1070 N   0  0  0  0  0  0  0  0  0  0  0  0
   -2.7980   22.8190  -30.8710 C   0  0  0  0  0  0  0  0  0  0  0  0
   -2.5620   23.4680  -29.5450 C   0  0  0  0  0  0  0  0  0  0  0  0
   -2.7480   22.8730  -28.3130 C   0  0  0  0  0  0  0  0  0  0  0  0
   -2.4350   23.8430  -27.3840 C   0  0  0  0  0  0  0  0  0  0  0  0
   -2.0800   24.9650  -28.1060 C   0  0  0  0  0  0  0  0  0  0  0  0
   -2.1670   24.7100  -29.3920 O   0  0  0  0  0  0  0  0  0  0  0  0
   -6.2670   24.6330  -28.5130 H   0  0  0  0  0  0  0  0  0  0  0  0
   -5.7240   26.3140  -28.8240 H   0  0  0  0  0  0  0  0  0  0  0  0
   -7.4522   23.3606  -30.8638 H   0  0  0  0  0  0  0  0  0  0  0  0
   -8.8480   21.9643  -32.0257 H   0  0  0  0  0  0  0  0  0  0  0  0
  -10.5023   20.1747  -32.5704 H   0  0  0  0  0  0  0  0  0  0  0  0
   -7.5023   17.1799  -32.1542 H   0  0  0  0  0  0  0  0  0  0  0  0
   -5.7908   18.9146  -31.6069 H   0  0  0  0  0  0  0  0  0  0  0  0
   -4.2734   20.5815  -31.7752 H   0  0  0  0  0  0  0  0  0  0  0  0
   -2.3104   21.8330  -30.8843 H   0  0  0  0  0  0  0  0  0  0  0  0
   -2.3780   23.4580  -31.6618 H   0  0  0  0  0  0  0  0  0  0  0  0
   -3.0767   21.8422  -28.1143 H   0  0  0  0  0  0  0  0  0  0  0  0
   -2.4626   23.7430  -26.2889 H   0  0  0  0  0  0  0  0  0  0  0  0
   -1.7711   25.9268  -27.6706 H   0  0  0  0  0  0  0  0  0  0  0  0
  1  2  1  0
  2  3  2  0
  2  4  1  0
  4  5  2  0
  5  6  1  0
  6  7  1  0
  7  8  2  0
  8  9  1  0
  9 10  2  0
 10 11  1  0
 11 12  2  0
  6 13  2  0
 13 14  1  0
 14 15  1  0
 15 16  1  0
 16 17  2  0
 17 18  1  0
 18 19  2  0
 19 20  1  0
 14  4  1  0
 20 16  1  0
 12  7  1  0
  1 21  1  0
  1 22  1  0
  5 23  1  0
  8 24  1  0
  9 25  1  0
 11 26  1  0
 12 27  1  0
 13 28  1  0
 15 29  1  0
 15 30  1  0
 17 31  1  0
 18 32  1  0
 19 33  1  0
M  END
>  <UniqueID>  (14) 
14

>  <SMILES>  (14) 
NC(=O)c1cc(-c2ccncc2)cn1Cc1ccco1

>  <Energy>  (14) 
91.96114719113416

>  <Genealogy>  (14) 
NC(=O)c1cc(-c2ccncc2)cn1Cc1ccco1 (3D coordinates assigned)
NC(=O)c1cc(-c2ccncc2)cn1Cc1ccco1 (optimized conformer: 91.96114719113416 kcal/mol)

>  <smiles>  (14) 
NC(=O)c1cc(-c2ccncc2)cn1Cc1ccco1

>  <score_type>  (14) 
oracle

>  <origin>  (14) 
adg

>  <m_score__min__energy>  (14) 
-8.5199999999999996

>  <m_primary>  (14) 
energy

$$$$
14:0
     RDKit          3D

 49 52  0  0  0  0  0  0  0  0999 V2000
   -8.1270   20.0380  -32.7940 C   0  0  0  0  0  0  0  0  0  0  0  0
   -6.8080   20.0050  -33.5640 C   0  0  0  0  0  0  0  0  0  0  0  0
   -5.6770   19.6900  -32.6690 N   0  0  0  0  0  0  0  0  0  0  0  0
   -6.0460   18.7430  -31.5980 C   0  0  0  0  0  0  0  0  0  0  0  0
   -4.4660   19.2660  -33.4080 C   0  0  0  0  0  0  0  0  0  0  0  0
   -3.3380   20.3300  -33.4680 C   0  0  0  0  0  0  0  0  0  0  0  0
   -3.8810   21.6910  -33.5840 N   0  0  0  0  0  0  0  0  0  0  0  0
   -3.9460   22.3050  -32.2870 C   0  0  0  0  0  0  0  0  0  0  0  0
   -2.8750   22.4540  -31.4730 N   0  0  0  0  0  0  0  0  0  0  0  0
   -3.3490   23.1530  -30.4120 C   0  0  0  0  0  0  0  0  0  0  0  0
   -2.5180   23.4950  -29.2360 C   0  0  0  0  0  0  0  0  0  0  0  0
   -2.0620   24.7710  -29.1000 N   0  0  0  0  0  0  0  0  0  0  0  0
   -1.3200   25.1540  -28.0310 C   0  0  0  0  0  0  0  0  0  0  0  0
   -0.8610   26.4710  -27.9160 C   0  0  0  0  0  0  0  0  0  0  0  0
   -0.0970   26.8470  -26.8050 C   0  0  0  0  0  0  0  0  0  0  0  0
    0.2050   25.9110  -25.8100 C   0  0  0  0  0  0  0  0  0  0  0  0
   -0.2520   24.5930  -25.9210 C   0  0  0  0  0  0  0  0  0  0  0  0
   -1.0160   24.2130  -27.0310 C   0  0  0  0  0  0  0  0  0  0  0  0
   -1.4670   22.9390  -27.1590 N   0  0  0  0  0  0  0  0  0  0  0  0
   -2.2110   22.5520  -28.2300 C   0  0  0  0  0  0  0  0  0  0  0  0
   -2.7040   20.8680  -28.3300 Cl  0  0  0  0  0  0  0  0  0  0  0  0
   -4.6650   23.4480  -30.5450 N   0  0  0  0  0  0  0  0  0  0  0  0
   -5.5110   24.1640  -29.7540 C   0  0  0  0  0  0  0  0  0  0  0  0
   -6.8360   24.3380  -30.1810 C   0  0  0  0  0  0  0  0  0  0  0  0
   -7.2480   23.7880  -31.4080 C   0  0  0  0  0  0  0  0  0  0  0  0
   -6.3410   23.0710  -32.2030 C   0  0  0  0  0  0  0  0  0  0  0  0
   -5.0390   22.9250  -31.7230 C   0  0  0  0  0  0  0  0  0  0  0  0
   -7.9210   20.0328  -31.7135 H   0  0  0  0  0  0  0  0  0  0  0  0
   -8.6824   20.9503  -33.0570 H   0  0  0  0  0  0  0  0  0  0  0  0
   -8.7273   19.1546  -33.0570 H   0  0  0  0  0  0  0  0  0  0  0  0
   -6.8695   19.2368  -34.3490 H   0  0  0  0  0  0  0  0  0  0  0  0
   -6.6371   20.9975  -34.0064 H   0  0  0  0  0  0  0  0  0  0  0  0
   -5.8645   19.2088  -30.6181 H   0  0  0  0  0  0  0  0  0  0  0  0
   -7.1111   18.4834  -31.6890 H   0  0  0  0  0  0  0  0  0  0  0  0
   -5.4373   17.8313  -31.6890 H   0  0  0  0  0  0  0  0  0  0  0  0
   -4.0633   18.3668  -32.9189 H   0  0  0  0  0  0  0  0  0  0  0  0
   -4.7817   19.0887  -34.4467 H   0  0  0  0  0  0  0  0  0  0  0  0
   -2.7357   20.2634  -32.5499 H   0  0  0  0  0  0  0  0  0  0  0  0
   -2.7233   20.1287  -34.3577 H   0  0  0  0  0  0  0  0  0  0  0  0
   -4.8500   21.6530  -33.9800 H   0  0  0  0  0  0  0  0  0  0  0  0
   -3.2850   22.2750  -34.2130 H   0  0  0  0  0  0  0  0  0  0  0  0
   -1.0999   27.2086  -28.6964 H   0  0  0  0  0  0  0  0  0  0  0  0
    0.2669   27.8811  -26.7140 H   0  0  0  0  0  0  0  0  0  0  0  0
    0.8036   26.2121  -24.9376 H   0  0  0  0  0  0  0  0  0  0  0  0
   -0.0118   23.8579  -25.1387 H   0  0  0  0  0  0  0  0  0  0  0  0
   -5.1640   24.5954  -28.8035 H   0  0  0  0  0  0  0  0  0  0  0  0
   -7.5482   24.9011  -29.5599 H   0  0  0  0  0  0  0  0  0  0  0  0
   -8.2863   23.9205  -31.7461 H   0  0  0  0  0  0  0  0  0  0  0  0
   -6.6450   22.6402  -33.1684 H   0  0  0  0  0  0  0  0  0  0  0  0
  1  2  1  0
  2  3  1  0
  3  4  1  0
  3  5  1  0
  5  6  1  0
  6  7  1  0
  7  8  1  0
  8  9  1  0
  9 10  2  0
 10 11  1  0
 11 12  2  0
 12 13  1  0
 13 14  2  0
 14 15  1  0
 15 16  2  0
 16 17  1  0
 17 18  2  0
 18 19  1  0
 19 20  2  0
 20 21  1  0
 10 22  1  0
 22 23  1  0
 23 24  2  0
 24 25  1  0
 25 26  2  0
 26 27  1  0
 27  8  2  0
 20 11  1  0
 27 22  1  0
 18 13  1  0
  1 28  1  0
  1 29  1  0
  1 30  1  0
  2 31  1  0
  2 32  1  0
  4 33  1  0
  4 34  1  0
  4 35  1  0
  5 36  1  0
  5 37  1  0
  6 38  1  0
  6 39  1  0
  7 40  1  0
  7 41  1  0
 14 42  1  0
 15 43  1  0
 16 44  1  0
 17 45  1  0
 23 46  1  0
 24 47  1  0
 25 48  1  0
 26 49  1  0
M  CHG  1   7   1
M  END
>  <UniqueID>  (15) 
15

>  <SMILES>  (15) 
CCN(C)CC[NH2+]c1nc(-c2nc3ccccc3nc2Cl)n2ccccc12

>  <Energy>  (15) 
101.18612789466822

>  <Genealogy>  (15) 
CCN(C)CC[NH2+]c1nc(-c2nc3ccccc3nc2Cl)n2ccccc12 (protonated)
CCN(C)CC[NH2+]c1nc(-c2nc3ccccc3nc2Cl)n2ccccc12 (3D coordinates assigned)
CCN(C)CC[NH2+]c1nc(-c2nc3ccccc3nc2Cl)n2ccccc12 (optimized conformer: 101.18612789466822 kcal/mol)

>  <smiles>  (15) 
CCN(C)CCNc1nc(-c2nc3ccccc3nc2Cl)n2ccccc12

>  <score_type>  (15) 
oracle

>  <origin>  (15) 
adg

>  <m_score__min__energy>  (15) 
-7.7599999999999998

>  <m_primary>  (15) 
energy

$$$$
15:0
     RDKit          3D

 41 42  0  0  0  0  0  0  0  0999 V2000
   -5.3540   25.7400  -30.4670 C   0  0  0  0  0  0  0  0  0  0  0  0
   -3.9960   25.3190  -30.5450 O   0  0  0  0  0  0  0  0  0  0  0  0
   -3.4900   24.1410  -29.9770 C   0  0  0  0  0  0  0  0  0  0  0  0
   -2.2780   24.1290  -29.2560 C   0  0  0  0  0  0  0  0  0  0  0  0
   -1.7960   22.9420  -28.6950 C   0  0  0  0  0  0  0  0  0  0  0  0
   -0.5570   22.9390  -27.9620 C   0  0  0  0  0  0  0  0  0  0  0  0
    0.4390   22.9370  -27.3720 N   0  0  0  0  0  0  0  0  0  0  0  0
   -2.5170   21.7550  -28.8510 C   0  0  0  0  0  0  0  0  0  0  0  0
   -3.7160   21.7530  -29.5630 C   0  0  0  0  0  0  0  0  0  0  0  0
   -4.2170   22.9400  -30.1260 C   0  0  0  0  0  0  0  0  0  0  0  0
   -5.4370   22.8990  -30.8990 N   0  0  0  0  0  0  0  0  0  0  0  0
   -6.7240   22.6720  -30.2190 C   0  0  0  0  0  0  0  0  0  0  0  0
   -7.9100   22.7130  -31.1970 C   0  0  0  0  0  0  0  0  0  0  0  0
   -8.7920   21.4620  -31.1350 C   0  0  0  0  0  0  0  0  0  0  0  0
   -7.9940   20.3550  -30.9080 F   0  0  0  0  0  0  0  0  0  0  0  0
   -9.4600   21.2830  -32.3310 F   0  0  0  0  0  0  0  0  0  0  0  0
   -9.7120   21.5650  -30.1070 F   0  0  0  0  0  0  0  0  0  0  0  0
   -5.3770   22.8400  -32.3690 C   0  0  0  0  0  0  0  0  0  0  0  0
   -5.0180   21.4520  -32.8320 C   0  0  0  0  0  0  0  0  0  0  0  0
   -3.6720   21.0760  -32.9810 C   0  0  0  0  0  0  0  0  0  0  0  0
   -3.3440   19.7720  -33.3590 C   0  0  0  0  0  0  0  0  0  0  0  0
   -4.3540   18.8330  -33.5860 C   0  0  0  0  0  0  0  0  0  0  0  0
   -5.6950   19.1970  -33.4310 C   0  0  0  0  0  0  0  0  0  0  0  0
   -6.6740   18.2830  -33.6440 F   0  0  0  0  0  0  0  0  0  0  0  0
   -6.0270   20.5010  -33.0520 C   0  0  0  0  0  0  0  0  0  0  0  0
   -5.6494   25.8316  -29.4114 H   0  0  0  0  0  0  0  0  0  0  0  0
   -5.4649   26.7147  -30.9647 H   0  0  0  0  0  0  0  0  0  0  0  0
   -5.9968   24.9990  -30.9647 H   0  0  0  0  0  0  0  0  0  0  0  0
   -1.7069   25.0612  -29.1338 H   0  0  0  0  0  0  0  0  0  0  0  0
   -2.1380   20.8206  -28.4113 H   0  0  0  0  0  0  0  0  0  0  0  0
   -4.2753   20.8137  -29.6854 H   0  0  0  0  0  0  0  0  0  0  0  0
   -6.6991   21.6856  -29.7328 H   0  0  0  0  0  0  0  0  0  0  0  0
   -6.8645   23.4767  -29.4823 H   0  0  0  0  0  0  0  0  0  0  0  0
   -8.5301   23.5893  -30.9569 H   0  0  0  0  0  0  0  0  0  0  0  0
   -7.4919   22.7660  -32.2131 H   0  0  0  0  0  0  0  0  0  0  0  0
   -6.3586   23.1158  -32.7818 H   0  0  0  0  0  0  0  0  0  0  0  0
   -4.6050   23.5406  -32.7199 H   0  0  0  0  0  0  0  0  0  0  0  0
   -2.8742   21.8112  -32.7993 H   0  0  0  0  0  0  0  0  0  0  0  0
   -2.2892   19.4836  -33.4782 H   0  0  0  0  0  0  0  0  0  0  0  0
   -4.0938   17.8074  -33.8867 H   0  0  0  0  0  0  0  0  0  0  0  0
   -7.0827   20.7830  -32.9257 H   0  0  0  0  0  0  0  0  0  0  0  0
  1  2  1  0
  2  3  1  0
  3  4  2  0
  4  5  1  0
  5  6  1  0
  6  7  3  0
  5  8  2  0
  8  9  1  0
  9 10  2  0
 10 11  1  0
 11 12  1  0
 12 13  1  0
 13 14  1  0
 14 15  1  0
 14 16  1  0
 14 17  1  0
 11 18  1  0
 18 19  1  0
 19 20  2  0
 20 21  1  0
 21 22  2  0
 22 23  1  0
 23 24  1  0
 23 25  2  0
 10  3  1  0
 25 19  1  0
  1 26  1  0
  1 27  1  0
  1 28  1  0
  4 29  1  0
  8 30  1  0
  9 31  1  0
 12 32  1  0
 12 33  1  0
 13 34  1  0
 13 35  1  0
 18 36  1  0
 18 37  1  0
 20 38  1  0
 21 39  1  0
 22 40  1  0
 25 41  1  0
M  END
>  <UniqueID>  (16) 
16

>  <SMILES>  (16) 
COc1cc(C#N)ccc1N(CCC(F)(F)F)Cc1cccc(F)c1

>  <Energy>  (16) 
39.21006729069292

>  <Genealogy>  (16) 
COc1cc(C#N)ccc1N(CCC(F)(F)F)Cc1cccc(F)c1 (3D coordinates assigned)
COc1cc(C#N)ccc1N(CCC(F)(F)F)Cc1cccc(F)c1 (optimized conformer: 39.21006729069292 kcal/mol)

>  <smiles>  (16) 
COc1cc(C#N)ccc1N(CCC(F)(F)F)Cc1cccc(F)c1

>  <score_type>  (16) 
oracle

>  <origin>  (16) 
adg

>  <m_score__min__energy>  (16) 
-6.6600000000000001

>  <m_primary>  (16) 
energy

$$$$
16:0
     RDKit          3D

 41 41  0  0  0  0  0  0  0  0999 V2000
   -2.8520   21.1480  -32.2320 C   0  0  0  0  0  0  0  0  0  0  0  0
   -3.0400   22.3980  -31.3780 C   0  0  0  0  0  0  0  0  0  0  0  0
   -3.4210   22.0230  -29.9970 N   0  0  0  0  0  0  0  0  0  0  0  0
   -2.2690   21.4490  -29.2630 C   0  0  0  0  0  0  0  0  0  0  0  0
   -2.7350   20.8320  -27.9470 C   0  0  0  0  0  0  0  0  0  0  0  0
   -3.9930   23.1800  -29.2690 C   0  0  0  0  0  0  0  0  0  0  0  0
   -3.1710   24.4410  -29.5530 C   0  0  0  0  0  0  0  0  0  0  0  0
   -3.8640   25.2950  -30.4590 O   0  0  0  0  0  0  0  0  0  0  0  0
   -5.2590   25.3340  -30.5640 C   0  0  0  0  0  0  0  0  0  0  0  0
   -5.9480   26.0310  -29.7690 O   0  0  0  0  0  0  0  0  0  0  0  0
   -5.9400   24.5030  -31.6040 C   0  0  0  0  0  0  0  0  0  0  0  0
   -7.1830   23.8310  -31.0160 C   0  0  0  0  0  0  0  0  0  0  0  0
   -7.2600   22.3910  -31.4480 C   0  0  0  0  0  0  0  0  0  0  0  0
   -8.3480   21.5920  -31.0600 C   0  0  0  0  0  0  0  0  0  0  0  0
   -8.4020   20.2460  -31.4330 C   0  0  0  0  0  0  0  0  0  0  0  0
   -7.3670   19.6850  -32.1880 C   0  0  0  0  0  0  0  0  0  0  0  0
   -7.4420   17.8450  -32.6960 Br  0  0  0  0  0  0  0  0  0  0  0  0
   -6.2740   20.4720  -32.5670 C   0  0  0  0  0  0  0  0  0  0  0  0
   -6.2170   21.8180  -32.1950 C   0  0  0  0  0  0  0  0  0  0  0  0
   -2.7205   20.2734  -31.5779 H   0  0  0  0  0  0  0  0  0  0  0  0
   -3.7381   21.0010  -32.8669 H   0  0  0  0  0  0  0  0  0  0  0  0
   -1.9618   21.2682  -32.8669 H   0  0  0  0  0  0  0  0  0  0  0  0
   -2.0983   22.9659  -31.3533 H   0  0  0  0  0  0  0  0  0  0  0  0
   -3.8395   23.0140  -31.8155 H   0  0  0  0  0  0  0  0  0  0  0  0
   -1.7956   20.6717  -29.8809 H   0  0  0  0  0  0  0  0  0  0  0  0
   -1.5466   22.2500  -29.0472 H   0  0  0  0  0  0  0  0  0  0  0  0
   -2.3080   21.3973  -27.1055 H   0  0  0  0  0  0  0  0  0  0  0  0
   -3.8331   20.8683  -27.8935 H   0  0  0  0  0  0  0  0  0  0  0  0
   -2.3997   19.7857  -27.8935 H   0  0  0  0  0  0  0  0  0  0  0  0
   -5.0302   23.3402  -29.5985 H   0  0  0  0  0  0  0  0  0  0  0  0
   -3.9706   22.9720  -28.1891 H   0  0  0  0  0  0  0  0  0  0  0  0
   -2.9964   24.9794  -28.6098 H   0  0  0  0  0  0  0  0  0  0  0  0
   -2.2122   24.1464  -30.0046 H   0  0  0  0  0  0  0  0  0  0  0  0
   -6.2387   25.1466  -32.4446 H   0  0  0  0  0  0  0  0  0  0  0  0
   -5.2443   23.7259  -31.9534 H   0  0  0  0  0  0  0  0  0  0  0  0
   -7.1339   23.8771  -29.9181 H   0  0  0  0  0  0  0  0  0  0  0  0
   -8.0772   24.3589  -31.3789 H   0  0  0  0  0  0  0  0  0  0  0  0
   -9.1609   22.0272  -30.4602 H   0  0  0  0  0  0  0  0  0  0  0  0
   -9.2600   19.6269  -31.1322 H   0  0  0  0  0  0  0  0  0  0  0  0
   -5.4584   20.0307  -33.1586 H   0  0  0  0  0  0  0  0  0  0  0  0
   -5.3521   22.4312  -32.4882 H   0  0  0  0  0  0  0  0  0  0  0  0
  1  2  1  0
  2  3  1  0
  3  4  1  0
  4  5  1  0
  3  6  1  0
  6  7  1  0
  7  8  1  0
  8  9  1  0
  9 10  2  0
  9 11  1  0
 11 12  1  0
 12 13  1  0
 13 14  2  0
 14 15  1  0
 15 16  2  0
 16 17  1  0
 16 18  1  0
 18 19  2  0
 19 13  1  0
  1 20  1  0
  1 21  1  0
  1 22  1  0
  2 23  1  0
  2 24  1  0
  4 25  1  0
  4 26  1  0
  5 27  1  0
  5 28  1  0
  5 29  1  0
  6 30  1  0
  6 31  1  0
  7 32  1  0
  7 33  1  0
 11 34  1  0
 11 35  1  0
 12 36  1  0
 12 37  1  0
 14 38  1  0
 15 39  1  0
 18 40  1  0
 19 41  1  0
M  END
>  <UniqueID>  (17) 
17

>  <SMILES>  (17) 
CCN(CC)CCOC(=O)CCc1ccc(Br)cc1

>  <Energy>  (17) 
29.804981682862277

>  <Genealogy>  (17) 
CCN(CC)CCOC(=O)CCc1ccc(Br)cc1 (3D coordinates assigned)
CCN(CC)CCOC(=O)CCc1ccc(Br)cc1 (optimized conformer: 29.804981682862277 kcal/mol)

>  <smiles>  (17) 
CCN(CC)CCOC(=O)CCc1ccc(Br)cc1

>  <score_type>  (17) 
oracle

>  <origin>  (17) 
adg

>  <m_score__min__energy>  (17) 
-7.3399999999999999

>  <m_primary>  (17) 
energy

$$$$
17:0
     RDKit          3D

 38 39  0  0  0  0  0  0  0  0999 V2000
   -1.3580   20.4710  -33.6190 C   0  0  0  0  0  0  0  0  0  0  0  0
   -1.7590   21.2730  -32.4070 C   0  0  0  0  0  0  0  0  0  0  0  0
   -0.8080   21.4950  -31.3980 C   0  0  0  0  0  0  0  0  0  0  0  0
   -1.1340   22.2400  -30.2670 C   0  0  0  0  0  0  0  0  0  0  0  0
   -2.4120   22.7720  -30.1240 C   0  0  0  0  0  0  0  0  0  0  0  0
   -3.3910   22.5500  -31.1050 C   0  0  0  0  0  0  0  0  0  0  0  0
   -4.6860   23.1530  -30.9570 N   0  0  0  0  0  0  0  0  0  0  0  0
   -4.8620   24.5450  -30.6530 C   0  0  0  0  0  0  0  0  0  0  0  0
   -3.8610   25.2950  -30.4930 O   0  0  0  0  0  0  0  0  0  0  0  0
   -6.2320   25.0980  -30.4110 C   0  0  0  0  0  0  0  0  0  0  0  0
   -7.1860   24.0410  -30.4480 O   0  0  0  0  0  0  0  0  0  0  0  0
   -7.5140   23.3440  -31.6160 C   0  0  0  0  0  0  0  0  0  0  0  0
   -6.7530   23.3730  -32.6220 O   0  0  0  0  0  0  0  0  0  0  0  0
   -8.7590   22.5190  -31.6550 C   0  0  0  0  0  0  0  0  0  0  0  0
   -8.4000   21.0710  -31.8060 C   0  0  0  0  0  0  0  0  0  0  0  0
   -9.3140   20.0940  -32.2300 C   0  0  0  0  0  0  0  0  0  0  0  0
   -8.7540   18.8310  -32.3600 C   0  0  0  0  0  0  0  0  0  0  0  0
   -7.1240   18.9390  -31.9650 S   0  0  0  0  0  0  0  0  0  0  0  0
   -7.1100   20.5830  -31.6190 C   0  0  0  0  0  0  0  0  0  0  0  0
   -3.0770   21.7760  -32.2510 C   0  0  0  0  0  0  0  0  0  0  0  0
   -4.1310   21.5150  -33.3020 C   0  0  0  0  0  0  0  0  0  0  0  0
   -0.8876   19.5302  -33.2970 H   0  0  0  0  0  0  0  0  0  0  0  0
   -2.2502   20.2471  -34.2222 H   0  0  0  0  0  0  0  0  0  0  0  0
   -0.6436   21.0505  -34.2222 H   0  0  0  0  0  0  0  0  0  0  0  0
    0.2040   21.0766  -31.5017 H   0  0  0  0  0  0  0  0  0  0  0  0
   -0.3792   22.4083  -29.4847 H   0  0  0  0  0  0  0  0  0  0  0  0
   -2.6569   23.3714  -29.2348 H   0  0  0  0  0  0  0  0  0  0  0  0
   -5.5280   22.5370  -30.9860 H   0  0  0  0  0  0  0  0  0  0  0  0
   -6.2619   25.5841  -29.4247 H   0  0  0  0  0  0  0  0  0  0  0  0
   -6.4721   25.8350  -31.1914 H   0  0  0  0  0  0  0  0  0  0  0  0
   -9.3214   22.6609  -30.7203 H   0  0  0  0  0  0  0  0  0  0  0  0
   -9.3776   22.8324  -32.5089 H   0  0  0  0  0  0  0  0  0  0  0  0
  -10.3724   20.3087  -32.4391 H   0  0  0  0  0  0  0  0  0  0  0  0
   -9.2846   17.9180  -32.6680 H   0  0  0  0  0  0  0  0  0  0  0  0
   -6.2358   21.1700  -31.3009 H   0  0  0  0  0  0  0  0  0  0  0  0
   -5.0869   21.2783  -32.8118 H   0  0  0  0  0  0  0  0  0  0  0  0
   -4.2526   22.4102  -33.9296 H   0  0  0  0  0  0  0  0  0  0  0  0
   -3.8208   20.6665  -33.9296 H   0  0  0  0  0  0  0  0  0  0  0  0
  1  2  1  0
  2  3  2  0
  3  4  1  0
  4  5  2  0
  5  6  1  0
  6  7  1  0
  7  8  1  0
  8  9  2  0
  8 10  1  0
 10 11  1  0
 11 12  1  0
 12 13  2  0
 12 14  1  0
 14 15  1  0
 15 16  1  0
 16 17  2  0
 17 18  1  0
 18 19  1  0
  6 20  2  0
 20 21  1  0
 20  2  1  0
 19 15  2  0
  1 22  1  0
  1 23  1  0
  1 24  1  0
  3 25  1  0
  4 26  1  0
  5 27  1  0
  7 28  1  0
 10 29  1  0
 10 30  1  0
 14 31  1  0
 14 32  1  0
 16 33  1  0
 17 34  1  0
 19 35  1  0
 21 36  1  0
 21 37  1  0
 21 38  1  0
M  END
>  <UniqueID>  (18) 
18

>  <SMILES>  (18) 
Cc1cccc(NC(=O)COC(=O)Cc2ccsc2)c1C

>  <Energy>  (18) 
62.09529870924312

>  <Genealogy>  (18) 
Cc1cccc(NC(=O)COC(=O)Cc2ccsc2)c1C (3D coordinates assigned)
Cc1cccc(NC(=O)COC(=O)Cc2ccsc2)c1C (optimized conformer: 62.09529870924312 kcal/mol)

>  <smiles>  (18) 
Cc1cccc(NC(=O)COC(=O)Cc2ccsc2)c1C

>  <score_type>  (18) 
oracle

>  <origin>  (18) 
adg

>  <m_score__min__energy>  (18) 
-8.0299999999999994

>  <m_primary>  (18) 
energy

$$$$
18:0
     RDKit          3D

 32 33  0  0  0  0  0  0  0  0999 V2000
   -2.5050   20.1290  -33.4270 C   0  0  0  0  0  0  0  0  0  0  0  0
   -2.6660   21.5790  -33.3020 N   0  0  0  0  0  0  0  0  0  0  0  0
   -3.8710   21.8810  -32.5760 C   0  0  0  0  0  0  0  0  0  0  0  0
   -4.9840   21.0330  -32.6530 C   0  0  0  0  0  0  0  0  0  0  0  0
   -6.1710   21.3510  -31.9660 C   0  0  0  0  0  0  0  0  0  0  0  0
   -7.3190   20.4670  -32.0500 N   0  0  0  0  0  0  0  0  0  0  0  0
   -7.2280   19.0160  -31.9430 C   0  0  0  0  0  0  0  0  0  0  0  0
   -8.6600   18.5040  -31.9510 C   0  0  0  0  0  0  0  0  0  0  0  0
   -9.4910   19.6320  -32.5450 C   0  0  0  0  0  0  0  0  0  0  0  0
   -8.6860   20.9010  -32.3020 C   0  0  0  0  0  0  0  0  0  0  0  0
   -6.2020   22.5430  -31.2050 C   0  0  0  0  0  0  0  0  0  0  0  0
   -7.3030   22.8980  -30.4970 F   0  0  0  0  0  0  0  0  0  0  0  0
   -5.0710   23.3740  -31.1620 C   0  0  0  0  0  0  0  0  0  0  0  0
   -5.0850   24.6480  -30.3650 C   0  0  0  0  0  0  0  0  0  0  0  0
   -5.3250   24.3620  -29.0340 F   0  0  0  0  0  0  0  0  0  0  0  0
   -6.0770   25.4850  -30.8390 F   0  0  0  0  0  0  0  0  0  0  0  0
   -3.8670   25.3000  -30.4670 F   0  0  0  0  0  0  0  0  0  0  0  0
   -3.9490   23.0240  -31.8470 N   0  0  0  0  0  0  0  0  0  0  0  0
   -2.4549   19.6779  -32.4250 H   0  0  0  0  0  0  0  0  0  0  0  0
   -3.3622   19.7108  -33.9750 H   0  0  0  0  0  0  0  0  0  0  0  0
   -1.5769   19.9090  -33.9750 H   0  0  0  0  0  0  0  0  0  0  0  0
   -2.7200   22.0010  -34.2590 H   0  0  0  0  0  0  0  0  0  0  0  0
   -1.8350   21.9820  -32.8110 H   0  0  0  0  0  0  0  0  0  0  0  0
   -4.9299   20.1132  -33.2539 H   0  0  0  0  0  0  0  0  0  0  0  0
   -6.6701   18.6041  -32.7969 H   0  0  0  0  0  0  0  0  0  0  0  0
   -6.6968   18.7121  -31.0290 H   0  0  0  0  0  0  0  0  0  0  0  0
   -8.7413   17.5989  -32.5708 H   0  0  0  0  0  0  0  0  0  0  0  0
   -9.0023   18.2325  -30.9415 H   0  0  0  0  0  0  0  0  0  0  0  0
   -9.6412   19.4724  -33.6229 H   0  0  0  0  0  0  0  0  0  0  0  0
  -10.4897   19.6881  -32.0873 H   0  0  0  0  0  0  0  0  0  0  0  0
   -8.7231   21.5526  -33.1875 H   0  0  0  0  0  0  0  0  0  0  0  0
   -9.0882   21.4775  -31.4559 H   0  0  0  0  0  0  0  0  0  0  0  0
  1  2  1  0
  2  3  1  0
  3  4  2  0
  4  5  1  0
  5  6  1  0
  6  7  1  0
  7  8  1  0
  8  9  1  0
  9 10  1  0
  5 11  2  0
 11 12  1  0
 11 13  1  0
 13 14  1  0
 14 15  1  0
 14 16  1  0
 14 17  1  0
 13 18  2  0
 18  3  1  0
 10  6  1  0
  1 19  1  0
  1 20  1  0
  1 21  1  0
  2 22  1  0
  2 23  1  0
  4 24  1  0
  7 25  1  0
  7 26  1  0
  8 27  1  0
  8 28  1  0
  9 29  1  0
  9 30  1  0
 10 31  1  0
 10 32  1  0
M  CHG  1   2   1
M  END
>  <UniqueID>  (19) 
19

>  <SMILES>  (19) 
C[NH2+]c1cc(N2CCCC2)c(F)c(C(F)(F)F)n1

>  <Energy>  (19) 
33.836366391634115

>  <Genealogy>  (19) 
C[NH2+]c1cc(N2CCCC2)c(F)c(C(F)(F)F)n1 (protonated)
C[NH2+]c1cc(N2CCCC2)c(F)c(C(F)(F)F)n1 (3D coordinates assigned)
C[NH2+]c1cc(N2CCCC2)c(F)c(C(F)(F)F)n1 (nonaromatic ring conformer: 33.836366391634115 kcal/mol)

>  <smiles>  (19) 
CNc1cc(N2CCCC2)c(F)c(C(F)(F)F)n1

>  <score_type>  (19) 
oracle

>  <origin>  (19) 
adg

>  <m_score__min__energy>  (19) 
-5.3300000000000001

>  <m_primary>  (19) 
energy

$$$$
19:0
     RDKit          3D

 61 65  0  0  0  0  0  0  0  0999 V2000
   -2.1320   19.9050  -27.1680 C   0  0  0  0  0  0  0  0  0  0  0  0
   -2.9010   20.9950  -27.9150 C   0  0  0  0  0  0  0  0  0  0  0  0
   -2.0280   21.6450  -28.9180 N   0  0  0  0  0  0  0  0  0  0  0  0
   -1.9330   20.8110  -30.1360 C   0  0  0  0  0  0  0  0  0  0  0  0
   -2.5200   23.0030  -29.2450 C   0  0  0  0  0  0  0  0  0  0  0  0
   -3.9200   23.2420  -28.6600 C   0  0  0  0  0  0  0  0  0  0  0  0
   -4.3520   24.5670  -28.9210 O   0  0  0  0  0  0  0  0  0  0  0  0
   -5.7000   24.6010  -29.3540 C   0  0  0  0  0  0  0  0  0  0  0  0
   -5.7950   24.9560  -30.8470 C   0  0  0  0  0  0  0  0  0  0  0  0
   -4.9960   24.0870  -31.6530 O   0  0  0  0  0  0  0  0  0  0  0  0
   -5.3620   22.8090  -32.1090 C   0  0  0  0  0  0  0  0  0  0  0  0
   -4.4150   21.7990  -32.3650 C   0  0  0  0  0  0  0  0  0  0  0  0
   -4.8300   20.5340  -32.7880 C   0  0  0  0  0  0  0  0  0  0  0  0
   -3.9110   19.5340  -32.9610 N   0  0  0  0  0  0  0  0  0  0  0  0
   -4.3370   18.3150  -33.3700 C   0  0  0  0  0  0  0  0  0  0  0  0
   -5.6750   18.0830  -33.6130 C   0  0  0  0  0  0  0  0  0  0  0  0
   -6.6210   19.0360  -33.4280 N   0  0  0  0  0  0  0  0  0  0  0  0
   -6.2170   20.2780  -33.0130 C   0  0  0  0  0  0  0  0  0  0  0  0
   -7.1530   21.2950  -32.7830 C   0  0  0  0  0  0  0  0  0  0  0  0
   -6.7310   22.5560  -32.3170 C   0  0  0  0  0  0  0  0  0  0  0  0
   -7.6450   23.5910  -32.0540 O   0  0  0  0  0  0  0  0  0  0  0  0
   -9.0620   23.4290  -32.0140 C   0  0  0  0  0  0  0  0  0  0  0  0
   -5.7930   16.6930  -33.9580 C   0  0  0  0  0  0  0  0  0  0  0  0
   -6.8140   15.7690  -34.1340 C   0  0  0  0  0  0  0  0  0  0  0  0
   -6.1270   14.5550  -34.2030 C   0  0  0  0  0  0  0  0  0  0  0  0
   -6.6090   13.2530  -34.3180 C   0  0  0  0  0  0  0  0  0  0  0  0
   -5.6750   12.2000  -34.2800 C   0  0  0  0  0  0  0  0  0  0  0  0
   -4.2940   12.4650  -34.1150 C   0  0  0  0  0  0  0  0  0  0  0  0
   -3.8290   13.7870  -33.9920 C   0  0  0  0  0  0  0  0  0  0  0  0
   -4.7750   14.8060  -34.0550 C   0  0  0  0  0  0  0  0  0  0  0  0
   -4.5920   16.1250  -33.9260 N   0  0  0  0  0  0  0  0  0  0  0  0
   -3.5290   17.0500  -33.5410 C   0  0  0  0  0  0  0  0  0  0  0  0
   -2.2397   20.0576  -26.0840 H   0  0  0  0  0  0  0  0  0  0  0  0
   -2.5354   18.9188  -27.4413 H   0  0  0  0  0  0  0  0  0  0  0  0
   -1.0676   19.9543  -27.4413 H   0  0  0  0  0  0  0  0  0  0  0  0
   -3.7658   20.5447  -28.4243 H   0  0  0  0  0  0  0  0  0  0  0  0
   -3.2407   21.7518  -27.1926 H   0  0  0  0  0  0  0  0  0  0  0  0
   -1.8128   19.7558  -29.8494 H   0  0  0  0  0  0  0  0  0  0  0  0
   -2.8501   20.9268  -30.7322 H   0  0  0  0  0  0  0  0  0  0  0  0
   -1.0654   21.1301  -30.7322 H   0  0  0  0  0  0  0  0  0  0  0  0
   -1.8250   23.7466  -28.8278 H   0  0  0  0  0  0  0  0  0  0  0  0
   -2.5787   23.0983  -30.3393 H   0  0  0  0  0  0  0  0  0  0  0  0
   -4.6279   22.5347  -29.1167 H   0  0  0  0  0  0  0  0  0  0  0  0
   -3.8791   23.0910  -27.5712 H   0  0  0  0  0  0  0  0  0  0  0  0
   -6.1546   23.6128  -29.1904 H   0  0  0  0  0  0  0  0  0  0  0  0
   -6.2319   25.3724  -28.7778 H   0  0  0  0  0  0  0  0  0  0  0  0
   -6.8443   24.8725  -31.1664 H   0  0  0  0  0  0  0  0  0  0  0  0
   -5.4212   25.9822  -30.9780 H   0  0  0  0  0  0  0  0  0  0  0  0
   -3.3432   22.0071  -32.2313 H   0  0  0  0  0  0  0  0  0  0  0  0
   -7.6310   18.8160  -33.5910 H   0  0  0  0  0  0  0  0  0  0  0  0
   -8.2213   21.1083  -32.9669 H   0  0  0  0  0  0  0  0  0  0  0  0
   -9.3973   23.3907  -30.9670 H   0  0  0  0  0  0  0  0  0  0  0  0
   -9.5426   24.2781  -32.5221 H   0  0  0  0  0  0  0  0  0  0  0  0
   -9.3386   22.4934  -32.5221 H   0  0  0  0  0  0  0  0  0  0  0  0
   -7.8971   15.9487  -34.2023 H   0  0  0  0  0  0  0  0  0  0  0  0
   -7.6845   13.0540  -34.4347 H   0  0  0  0  0  0  0  0  0  0  0  0
   -6.0218   11.1609  -34.3795 H   0  0  0  0  0  0  0  0  0  0  0  0
   -3.5786   11.6301  -34.0827 H   0  0  0  0  0  0  0  0  0  0  0  0
   -2.7603   14.0066  -33.8516 H   0  0  0  0  0  0  0  0  0  0  0  0
   -3.0422   16.7458  -32.6027 H   0  0  0  0  0  0  0  0  0  0  0  0
   -2.6956   17.1237  -34.2552 H   0  0  0  0  0  0  0  0  0  0  0  0
  1  2  1  0
  2  3  1  0
  3  4  1  0
  3  5  1  0
  5  6  1  0
  6  7  1  0
  7  8  1  0
  8  9  1  0
  9 10  1  0
 10 11  1  0
 11 12  2  0
 12 13  1  0
 13 14  2  0
 14 15  1  0
 15 16  2  0
 16 17  1  0
 17 18  2  0
 18 19  1  0
 19 20  2  0
 20 21  1  0
 21 22  1  0
 16 23  1  0
 23 24  2  0
 24 25  1  0
 25 26  2  0
 26 27  1  0
 27 28  2  0
 28 29  1  0
 29 30  2  0
 30 31  1  0
 31 32  1  0
 20 11  1  0
 31 23  1  0
 18 13  1  0
 30 25  1  0
 32 15  1  0
  1 33  1  0
  1 34  1  0
  1 35  1  0
  2 36  1  0
  2 37  1  0
  4 38  1  0
  4 39  1  0
  4 40  1  0
  5 41  1  0
  5 42  1  0
  6 43  1  0
  6 44  1  0
  8 45  1  0
  8 46  1  0
  9 47  1  0
  9 48  1  0
 12 49  1  0
 17 50  1  0
 19 51  1  0
 22 52  1  0
 22 53  1  0
 22 54  1  0
 24 55  1  0
 26 56  1  0
 27 57  1  0
 28 58  1  0
 29 59  1  0
 32 60  1  0
 32 61  1  0
M  CHG  1  17   1
M  END
>  <UniqueID>  (20) 
20

>  <SMILES>  (20) 
CCN(C)CCOCCOc1cc2nc3c([nH+]c2cc1OC)-c1cc2ccccc2n1C3

>  <Energy>  (20) 
149.5513351896461

>  <Genealogy>  (20) 
CCN(C)CCOCCOc1cc2nc3c([nH+]c2cc1OC)-c1cc2ccccc2n1C3 (protonated)
CCN(C)CCOCCOc1cc2nc3c([nH+]c2cc1OC)-c1cc2ccccc2n1C3 (3D coordinates assigned)
CCN(C)CCOCCOc1cc2nc3c([nH+]c2cc1OC)-c1cc2ccccc2n1C3 (nonaromatic ring conformer: 149.5513351896461 kcal/mol)

>  <smiles>  (20) 
CCN(C)CCOCCOc1cc2nc3c(nc2cc1OC)-c1cc2ccccc2n1C3

>  <score_type>  (20) 
oracle

>  <origin>  (20) 
adg

>  <m_score__min__energy>  (20) 
-7.7199999999999998

>  <m_primary>  (20) 
energy

$$$$
20:0
     RDKit          3D

 30 31  0  0  0  0  0  0  0  0999 V2000
   -3.7730   24.1030  -28.2720 C   0  0  0  0  0  0  0  0  0  0  0  0
   -3.0200   24.1230  -29.5980 C   0  0  0  0  0  0  0  0  0  0  0  0
   -3.5610   25.1160  -30.4680 O   0  0  0  0  0  0  0  0  0  0  0  0
   -4.9350   25.3050  -30.6640 C   0  0  0  0  0  0  0  0  0  0  0  0
   -5.4580   26.4380  -30.4730 O   0  0  0  0  0  0  0  0  0  0  0  0
   -5.7630   24.1680  -31.1020 C   0  0  0  0  0  0  0  0  0  0  0  0
   -7.1460   24.1360  -30.8640 C   0  0  0  0  0  0  0  0  0  0  0  0
   -7.8880   23.0370  -31.2980 C   0  0  0  0  0  0  0  0  0  0  0  0
   -7.2560   21.9840  -31.9600 C   0  0  0  0  0  0  0  0  0  0  0  0
   -5.8720   22.0440  -32.1830 C   0  0  0  0  0  0  0  0  0  0  0  0
   -5.1680   20.9510  -32.8790 C   0  0  0  0  0  0  0  0  0  0  0  0
   -3.7940   20.8110  -32.9880 C   0  0  0  0  0  0  0  0  0  0  0  0
   -3.6220   19.6480  -33.7070 C   0  0  0  0  0  0  0  0  0  0  0  0
   -4.8350   19.1500  -34.0080 N   0  0  0  0  0  0  0  0  0  0  0  0
   -5.0950   17.8960  -34.7000 C   0  0  0  0  0  0  0  0  0  0  0  0
   -5.7820   19.9250  -33.5000 N   0  0  0  0  0  0  0  0  0  0  0  0
   -5.1710   23.1270  -31.7500 N   0  0  0  0  0  0  0  0  0  0  0  0
   -3.0526   24.1221  -27.4409 H   0  0  0  0  0  0  0  0  0  0  0  0
   -4.4286   24.9841  -28.2093 H   0  0  0  0  0  0  0  0  0  0  0  0
   -4.3809   23.1884  -28.2093 H   0  0  0  0  0  0  0  0  0  0  0  0
   -1.9599   24.3473  -29.4084 H   0  0  0  0  0  0  0  0  0  0  0  0
   -3.1208   23.1383  -30.0778 H   0  0  0  0  0  0  0  0  0  0  0  0
   -7.6395   24.9684  -30.3410 H   0  0  0  0  0  0  0  0  0  0  0  0
   -8.9726   23.0007  -31.1180 H   0  0  0  0  0  0  0  0  0  0  0  0
   -7.8369   21.1154  -32.3037 H   0  0  0  0  0  0  0  0  0  0  0  0
   -3.0153   21.4783  -32.5900 H   0  0  0  0  0  0  0  0  0  0  0  0
   -2.6562   19.2022  -33.9874 H   0  0  0  0  0  0  0  0  0  0  0  0
   -5.2606   17.0974  -33.9619 H   0  0  0  0  0  0  0  0  0  0  0  0
   -5.9899   18.0038  -35.3305 H   0  0  0  0  0  0  0  0  0  0  0  0
   -4.2310   17.6392  -35.3305 H   0  0  0  0  0  0  0  0  0  0  0  0
  1  2  1  0
  2  3  1  0
  3  4  1  0
  4  5  2  0
  4  6  1  0
  6  7  2  0
  7  8  1  0
  8  9  2  0
  9 10  1  0
 10 11  1  0
 11 12  1  0
 12 13  2  0
 13 14  1  0
 14 15  1  0
 14 16  1  0
 10 17  2  0
 17  6  1  0
 16 11  2  0
  1 18  1  0
  1 19  1  0
  1 20  1  0
  2 21  1  0
  2 22  1  0
  7 23  1  0
  8 24  1  0
  9 25  1  0
 12 26  1  0
 13 27  1  0
 15 28  1  0
 15 29  1  0
 15 30  1  0
M  END
>  <UniqueID>  (21) 
21

>  <SMILES>  (21) 
CCOC(=O)c1cccc(-c2ccn(C)n2)n1

>  <Energy>  (21) 
54.588054039653116

>  <Genealogy>  (21) 
CCOC(=O)c1cccc(-c2ccn(C)n2)n1 (3D coordinates assigned)
CCOC(=O)c1cccc(-c2ccn(C)n2)n1 (optimized conformer: 54.588054039653116 kcal/mol)

>  <smiles>  (21) 
CCOC(=O)c1cccc(-c2ccn(C)n2)n1

>  <score_type>  (21) 
oracle

>  <origin>  (21) 
adg

>  <m_score__min__energy>  (21) 
-6.5300000000000002

>  <m_primary>  (21) 
energy

$$$$
21:0
     RDKit          3D

 46 49  0  0  0  0  0  0  0  0999 V2000
   -6.8061   18.5956  -33.6333 H   0  0  0  0  0  0  0  0  0  0  0  0
   -6.3890   19.4930  -33.1530 C   0  0  0  0  0  0  0  0  0  0  0  0
   -5.0120   19.7250  -33.1840 C   0  0  0  0  0  0  0  0  0  0  0  0
   -4.1110   18.7960  -33.8040 N   0  0  0  0  0  0  0  0  0  0  0  0
   -4.5090   17.6180  -34.2590 N   0  0  0  0  0  0  0  0  0  0  0  0
   -3.4280   16.9820  -34.7490 C   0  0  0  0  0  0  0  0  0  0  0  0
   -3.4760   15.6470  -35.4130 C   0  0  0  0  0  0  0  0  0  0  0  0
   -3.5044   14.8576  -34.6475 H   0  0  0  0  0  0  0  0  0  0  0  0
   -4.3771   15.5818  -36.0406 H   0  0  0  0  0  0  0  0  0  0  0  0
   -2.5819   15.5173  -36.0406 H   0  0  0  0  0  0  0  0  0  0  0  0
   -2.3070   17.7770  -34.6120 C   0  0  0  0  0  0  0  0  0  0  0  0
   -1.2776   17.5545  -34.9294 H   0  0  0  0  0  0  0  0  0  0  0  0
   -2.7740   18.9140  -33.9860 C   0  0  0  0  0  0  0  0  0  0  0  0
   -1.9170   20.0660  -33.5550 C   0  0  0  0  0  0  0  0  0  0  0  0
   -1.8854   20.1085  -32.4563 H   0  0  0  0  0  0  0  0  0  0  0  0
   -0.8978   19.9313  -33.9462 H   0  0  0  0  0  0  0  0  0  0  0  0
   -2.3390   21.0035  -33.9462 H   0  0  0  0  0  0  0  0  0  0  0  0
   -4.5090   20.8210  -32.5640 N   0  0  0  0  0  0  0  0  0  0  0  0
   -5.2860   21.7410  -31.9320 C   0  0  0  0  0  0  0  0  0  0  0  0
   -4.5950   22.9050  -31.3380 C   0  0  0  0  0  0  0  0  0  0  0  0
   -5.0150   24.1770  -31.5360 N   0  0  0  0  0  0  0  0  0  0  0  0
   -4.3310   25.0820  -30.8390 N   0  0  0  0  0  0  0  0  0  0  0  0
   -3.3730   24.5300  -30.0630 C   0  0  0  0  0  0  0  0  0  0  0  0
   -2.5810   25.2100  -29.2910 N   0  0  0  0  0  0  0  0  0  0  0  0
   -2.2770   24.8280  -27.9150 C   0  0  0  0  0  0  0  0  0  0  0  0
   -1.7454   25.6516  -27.4159 H   0  0  0  0  0  0  0  0  0  0  0  0
   -1.6445   23.9280  -27.9184 H   0  0  0  0  0  0  0  0  0  0  0  0
   -3.5680   24.5330  -27.1670 C   0  0  0  0  0  0  0  0  0  0  0  0
   -3.3820   24.5755  -26.0837 H   0  0  0  0  0  0  0  0  0  0  0  0
   -4.3279   25.2806  -27.4382 H   0  0  0  0  0  0  0  0  0  0  0  0
   -3.9278   23.5295  -27.4382 H   0  0  0  0  0  0  0  0  0  0  0  0
   -3.3380   22.8590  -30.2050 S   0  0  0  0  0  0  0  0  0  0  0  0
   -6.6900   21.5360  -31.8580 C   0  0  0  0  0  0  0  0  0  0  0  0
   -7.2390   20.4020  -32.5110 C   0  0  0  0  0  0  0  0  0  0  0  0
   -8.7110   20.0640  -32.4350 C   0  0  0  0  0  0  0  0  0  0  0  0
   -8.8479   19.2536  -31.7039 H   0  0  0  0  0  0  0  0  0  0  0  0
   -9.0337   19.7642  -33.4430 H   0  0  0  0  0  0  0  0  0  0  0  0
   -9.5720   21.2530  -32.0120 C   0  0  0  0  0  0  0  0  0  0  0  0
  -10.5859   20.9010  -31.7708 H   0  0  0  0  0  0  0  0  0  0  0  0
   -9.6154   21.9789  -32.8373 H   0  0  0  0  0  0  0  0  0  0  0  0
   -8.9660   21.9260  -30.7850 C   0  0  0  0  0  0  0  0  0  0  0  0
   -8.8546   21.1834  -29.9812 H   0  0  0  0  0  0  0  0  0  0  0  0
   -9.6308   22.7385  -30.4566 H   0  0  0  0  0  0  0  0  0  0  0  0
   -7.5940   22.5110  -31.1260 C   0  0  0  0  0  0  0  0  0  0  0  0
   -7.0996   22.8099  -30.1899 H   0  0  0  0  0  0  0  0  0  0  0  0
   -7.7624   23.3658  -31.7975 H   0  0  0  0  0  0  0  0  0  0  0  0
  1  2  1  0
  2  3  2  0
  3  4  1  0
  4  5  1  0
  5  6  2  0
  6  7  1  0
  7  8  1  0
  7  9  1  0
  7 10  1  0
  6 11  1  0
 11 12  1  0
 11 13  2  0
 13 14  1  0
 14 15  1  0
 14 16  1  0
 14 17  1  0
  3 18  1  0
 18 19  2  0
 19 20  1  0
 20 21  2  0
 21 22  1  0
 22 23  1  0
 23 24  2  0
 24 25  1  0
 25 26  1  0
 25 27  1  0
 25 28  1  0
 28 29  1  0
 28 30  1  0
 28 31  1  0
 23 32  1  0
 19 33  1  0
 33 34  2  0
 34 35  1  0
 35 36  1  0
 35 37  1  0
 35 38  1  0
 38 39  1  0
 38 40  1  0
 38 41  1  0
 41 42  1  0
 41 43  1  0
 41 44  1  0
 44 45  1  0
 44 46  1  0
 34  2  1  0
 13  4  1  0
 32 20  1  0
 44 33  1  0
M  CHG  1  22  -1
M  END
>  <UniqueID>  (22) 
22

>  <SMILES>  (22) 
CC/N=c1\[n-]nc(-c2nc(-n3nc(C)cc3C)cc3c2CCCC3)s1

>  <Energy>  (22) 
117.18542541564645

>  <Genealogy>  (22) 
CCN=c1[n-]nc(-c2nc(-n3nc(C)cc3C)cc3c2CCCC3)s1 (protonated)
CC/N=c1\[n-]nc(-c2nc(-n3nc(C)cc3C)cc3c2CCCC3)s1 (cis-trans isomerization)
CC/N=c1\[n-]nc(-c2nc(-n3nc(C)cc3C)cc3c2CCCC3)s1 (3D coordinates assigned)
CC/N=c1\[n-]nc(-c2nc(-n3nc(C)cc3C)cc3c2CCCC3)s1 (nonaromatic ring conformer: 117.18542541564645 kcal/mol)

>  <smiles>  (22) 
CCN=c1[nH]nc(-c2nc(-n3nc(C)cc3C)cc3c2CCCC3)s1

>  <score_type>  (22) 
oracle

>  <origin>  (22) 
adg

>  <m_score__min__energy>  (22) 
-11.35

>  <m_primary>  (22) 
energy

$$$$
22:0
     RDKit          3D

 40 42  0  0  0  0  0  0  0  0999 V2000
   -3.1080   19.1480  -26.7090 C   0  0  0  0  0  0  0  0  0  0  0  0
   -2.3390   20.3970  -27.0210 C   0  0  0  0  0  0  0  0  0  0  0  0
   -1.2570   20.6030  -26.4060 O   0  0  0  0  0  0  0  0  0  0  0  0
   -2.8180   21.3850  -28.0240 C   0  0  0  0  0  0  0  0  0  0  0  0
   -2.2670   21.4440  -29.3180 C   0  0  0  0  0  0  0  0  0  0  0  0
   -2.7300   22.3800  -30.2460 C   0  0  0  0  0  0  0  0  0  0  0  0
   -3.7510   23.2730  -29.9100 C   0  0  0  0  0  0  0  0  0  0  0  0
   -4.1820   24.1870  -30.8850 O   0  0  0  0  0  0  0  0  0  0  0  0
   -5.5450   24.4790  -31.2040 C   0  0  0  0  0  0  0  0  0  0  0  0
   -6.3260   23.2140  -31.5470 C   0  0  0  0  0  0  0  0  0  0  0  0
   -7.6150   23.1040  -31.0210 C   0  0  0  0  0  0  0  0  0  0  0  0
   -8.3250   21.9270  -31.1740 C   0  0  0  0  0  0  0  0  0  0  0  0
   -9.5070   21.8740  -30.7320 O   0  0  0  0  0  0  0  0  0  0  0  0
   -7.7380   20.8390  -31.7600 N   0  0  0  0  0  0  0  0  0  0  0  0
   -8.4350   19.6570  -31.8440 C   0  0  0  0  0  0  0  0  0  0  0  0
   -7.8420   18.5070  -32.3540 C   0  0  0  0  0  0  0  0  0  0  0  0
   -6.5200   18.5490  -32.7670 C   0  0  0  0  0  0  0  0  0  0  0  0
   -5.8120   19.7430  -32.7030 C   0  0  0  0  0  0  0  0  0  0  0  0
   -6.4400   20.9270  -32.2350 C   0  0  0  0  0  0  0  0  0  0  0  0
   -5.7730   22.1430  -32.2210 N   0  0  0  0  0  0  0  0  0  0  0  0
   -4.4750   22.2990  -32.9140 C   0  0  0  0  0  0  0  0  0  0  0  0
   -4.3060   23.2230  -28.6200 C   0  0  0  0  0  0  0  0  0  0  0  0
   -3.8450   22.2880  -27.6880 C   0  0  0  0  0  0  0  0  0  0  0  0
   -3.1829   19.0263  -25.6183 H   0  0  0  0  0  0  0  0  0  0  0  0
   -4.1174   19.2216  -27.1399 H   0  0  0  0  0  0  0  0  0  0  0  0
   -2.5878   18.2798  -27.1399 H   0  0  0  0  0  0  0  0  0  0  0  0
   -1.4646   20.7468  -29.6010 H   0  0  0  0  0  0  0  0  0  0  0  0
   -2.2861   22.4144  -31.2519 H   0  0  0  0  0  0  0  0  0  0  0  0
   -6.0175   24.9663  -30.3384 H   0  0  0  0  0  0  0  0  0  0  0  0
   -5.5581   25.1400  -32.0832 H   0  0  0  0  0  0  0  0  0  0  0  0
   -8.0652   23.9528  -30.4854 H   0  0  0  0  0  0  0  0  0  0  0  0
   -9.4798   19.6202  -31.5019 H   0  0  0  0  0  0  0  0  0  0  0  0
   -8.4173   17.5724  -32.4288 H   0  0  0  0  0  0  0  0  0  0  0  0
   -6.0317   17.6386  -33.1449 H   0  0  0  0  0  0  0  0  0  0  0  0
   -4.7581   19.7709  -33.0170 H   0  0  0  0  0  0  0  0  0  0  0  0
   -3.6711   22.3956  -32.1694 H   0  0  0  0  0  0  0  0  0  0  0  0
   -4.2873   21.4169  -33.5439 H   0  0  0  0  0  0  0  0  0  0  0  0
   -4.5016   23.2004  -33.5439 H   0  0  0  0  0  0  0  0  0  0  0  0
   -5.1075   23.9232  -28.3418 H   0  0  0  0  0  0  0  0  0  0  0  0
   -4.2891   22.2575  -26.6821 H   0  0  0  0  0  0  0  0  0  0  0  0
  1  2  1  0
  2  3  2  0
  2  4  1  0
  4  5  2  0
  5  6  1  0
  6  7  2  0
  7  8  1  0
  8  9  1  0
  9 10  1  0
 10 11  2  0
 11 12  1  0
 12 13  2  0
 12 14  1  0
 14 15  1  0
 15 16  2  0
 16 17  1  0
 17 18  2  0
 18 19  1  0
 19 20  2  0
 20 21  1  0
  7 22  1  0
 22 23  2  0
 23  4  1  0
 20 10  1  0
 19 14  1  0
  1 24  1  0
  1 25  1  0
  1 26  1  0
  5 27  1  0
  6 28  1  0
  9 29  1  0
  9 30  1  0
 11 31  1  0
 15 32  1  0
 16 33  1  0
 17 34  1  0
 18 35  1  0
 21 36  1  0
 21 37  1  0
 21 38  1  0
 22 39  1  0
 23 40  1  0
M  CHG  1  20   1
M  END
>  <UniqueID>  (23) 
23

>  <SMILES>  (23) 
CC(=O)c1ccc(OCc2cc(=O)n3ccccc3[n+]2C)cc1

>  <Energy>  (23) 
62.057896194101666

>  <Genealogy>  (23) 
CC(=O)c1ccc(OCc2cc(=O)n3ccccc3[n+]2C)cc1 (3D coordinates assigned)
CC(=O)c1ccc(OCc2cc(=O)n3ccccc3[n+]2C)cc1 (optimized conformer: 62.057896194101666 kcal/mol)

>  <smiles>  (23) 
CC(=O)c1ccc(OCc2cc(=O)n3ccccc3[n+]2C)cc1

>  <score_type>  (23) 
oracle

>  <origin>  (23) 
adg

>  <m_score__min__energy>  (23) 
-7.46

>  <m_primary>  (23) 
energy

$$$$
23:0
     RDKit          3D

 65 67  0  0  0  0  0  0  0  0999 V2000
   -5.4590   25.2700  -30.7590 C   0  0  0  0  0  0  0  0  0  0  0  0
   -5.0640   24.1140  -31.4860 O   0  0  0  0  0  0  0  0  0  0  0  0
   -5.9190   23.0290  -31.6890 C   0  0  0  0  0  0  0  0  0  0  0  0
   -7.2040   22.9960  -31.2450 N   0  0  0  0  0  0  0  0  0  0  0  0
   -7.6270   21.7860  -31.6560 C   0  0  0  0  0  0  0  0  0  0  0  0
   -8.8920   21.2290  -31.4820 C   0  0  0  0  0  0  0  0  0  0  0  0
   -9.1240   19.9490  -32.0160 C   0  0  0  0  0  0  0  0  0  0  0  0
   -8.0940   19.2610  -32.6970 C   0  0  0  0  0  0  0  0  0  0  0  0
   -6.8260   19.8500  -32.8550 C   0  0  0  0  0  0  0  0  0  0  0  0
   -6.6300   21.1240  -32.3190 C   0  0  0  0  0  0  0  0  0  0  0  0
   -5.5370   21.9060  -32.3470 N   0  0  0  0  0  0  0  0  0  0  0  0
   -4.2350   21.6450  -32.9640 C   0  0  0  0  0  0  0  0  0  0  0  0
   -3.0800   22.0730  -32.0450 C   0  0  0  0  0  0  0  0  0  0  0  0
   -1.8990   21.1890  -32.1530 N   0  0  0  0  0  0  0  0  0  0  0  0
   -1.2080   21.2850  -33.4540 C   0  0  0  0  0  0  0  0  0  0  0  0
   -0.3410   20.0570  -33.7730 C   0  0  0  0  0  0  0  0  0  0  0  0
   -0.8770   18.9060  -33.1510 O   0  0  0  0  0  0  0  0  0  0  0  0
    0.1520   18.1920  -32.4960 C   0  0  0  0  0  0  0  0  0  0  0  0
   -0.1060   18.2280  -30.9910 C   0  0  0  0  0  0  0  0  0  0  0  0
   -0.6590   19.4740  -30.6030 O   0  0  0  0  0  0  0  0  0  0  0  0
   -0.6010   19.6580  -29.2000 C   0  0  0  0  0  0  0  0  0  0  0  0
   -0.4890   21.1510  -28.8380 C   0  0  0  0  0  0  0  0  0  0  0  0
   -1.5870   21.9530  -29.4220 N   0  0  0  0  0  0  0  0  0  0  0  0
   -2.9100   21.4160  -29.0080 C   0  0  0  0  0  0  0  0  0  0  0  0
   -3.5220   22.2170  -27.8470 C   0  0  0  0  0  0  0  0  0  0  0  0
   -3.7590   23.6260  -28.2360 N   0  0  0  0  0  0  0  0  0  0  0  0
   -3.8350   24.4850  -27.0460 C   0  0  0  0  0  0  0  0  0  0  0  0
   -2.7710   24.1440  -29.2160 C   0  0  0  0  0  0  0  0  0  0  0  0
   -1.4310   23.4010  -29.1310 C   0  0  0  0  0  0  0  0  0  0  0  0
   -5.3894   25.0663  -29.6803 H   0  0  0  0  0  0  0  0  0  0  0  0
   -4.7967   26.1095  -31.0171 H   0  0  0  0  0  0  0  0  0  0  0  0
   -6.4965   25.5287  -31.0171 H   0  0  0  0  0  0  0  0  0  0  0  0
   -9.6832   21.7725  -30.9447 H   0  0  0  0  0  0  0  0  0  0  0  0
  -10.1128   19.4804  -31.9031 H   0  0  0  0  0  0  0  0  0  0  0  0
   -8.2851   18.2580  -33.1063 H   0  0  0  0  0  0  0  0  0  0  0  0
   -6.0166   19.3245  -33.3829 H   0  0  0  0  0  0  0  0  0  0  0  0
   -4.1469   20.5682  -33.1708 H   0  0  0  0  0  0  0  0  0  0  0  0
   -4.1706   22.2291  -33.8939 H   0  0  0  0  0  0  0  0  0  0  0  0
   -2.7782   23.0960  -32.3142 H   0  0  0  0  0  0  0  0  0  0  0  0
   -3.4436   22.0121  -31.0086 H   0  0  0  0  0  0  0  0  0  0  0  0
   -2.1920   20.2010  -31.9860 H   0  0  0  0  0  0  0  0  0  0  0  0
   -1.2080   21.4140  -31.4000 H   0  0  0  0  0  0  0  0  0  0  0  0
   -1.9652   21.3928  -34.2446 H   0  0  0  0  0  0  0  0  0  0  0  0
   -0.5359   22.1543  -33.4030 H   0  0  0  0  0  0  0  0  0  0  0  0
   -0.3156   19.9031  -34.8619 H   0  0  0  0  0  0  0  0  0  0  0  0
    0.6774   20.2284  -33.3941 H   0  0  0  0  0  0  0  0  0  0  0  0
    0.1586   17.1489  -32.8453 H   0  0  0  0  0  0  0  0  0  0  0  0
    1.1264   18.6508  -32.7196 H   0  0  0  0  0  0  0  0  0  0  0  0
   -0.8086   17.4240  -30.7266 H   0  0  0  0  0  0  0  0  0  0  0  0
    0.8510   18.0893  -30.4666 H   0  0  0  0  0  0  0  0  0  0  0  0
   -1.5145   19.2463  -28.7461 H   0  0  0  0  0  0  0  0  0  0  0  0
    0.2902   19.1391  -28.8173 H   0  0  0  0  0  0  0  0  0  0  0  0
   -0.5197   21.2531  -27.7432 H   0  0  0  0  0  0  0  0  0  0  0  0
    0.4592   21.5274  -29.2495 H   0  0  0  0  0  0  0  0  0  0  0  0
   -3.5948   21.4583  -29.8678 H   0  0  0  0  0  0  0  0  0  0  0  0
   -2.7632   20.3812  -28.6651 H   0  0  0  0  0  0  0  0  0  0  0  0
   -4.4795   21.7580  -27.5597 H   0  0  0  0  0  0  0  0  0  0  0  0
   -2.8166   22.2022  -27.0031 H   0  0  0  0  0  0  0  0  0  0  0  0
   -3.7800   23.8628  -26.1405 H   0  0  0  0  0  0  0  0  0  0  0  0
   -2.9963   25.1967  -27.0534 H   0  0  0  0  0  0  0  0  0  0  0  0
   -4.7856   25.0384  -27.0534 H   0  0  0  0  0  0  0  0  0  0  0  0
   -3.1801   24.0232  -30.2299 H   0  0  0  0  0  0  0  0  0  0  0  0
   -2.5867   25.2034  -28.9841 H   0  0  0  0  0  0  0  0  0  0  0  0
   -0.7339   23.8383  -29.8609 H   0  0  0  0  0  0  0  0  0  0  0  0
   -1.0451   23.5054  -28.1062 H   0  0  0  0  0  0  0  0  0  0  0  0
  1  2  1  0
  2  3  1  0
  3  4  2  0
  4  5  1  0
  5  6  2  0
  6  7  1  0
  7  8  2  0
  8  9  1  0
  9 10  2  0
 10 11  1  0
 11 12  1  0
 12 13  1  0
 13 14  1  0
 14 15  1  0
 15 16  1  0
 16 17  1  0
 17 18  1  0
 18 19  1  0
 19 20  1  0
 20 21  1  0
 21 22  1  0
 22 23  1  0
 23 24  1  0
 24 25  1  0
 25 26  1  0
 26 27  1  0
 26 28  1  0
 28 29  1  0
 11  3  1  0
 29 23  1  0
 10  5  1  0
  1 30  1  0
  1 31  1  0
  1 32  1  0
  6 33  1  0
  7 34  1  0
  8 35  1  0
  9 36  1  0
 12 37  1  0
 12 38  1  0
 13 39  1  0
 13 40  1  0
 14 41  1  0
 14 42  1  0
 15 43  1  0
 15 44  1  0
 16 45  1  0
 16 46  1  0
 18 47  1  0
 18 48  1  0
 19 49  1  0
 19 50  1  0
 21 51  1  0
 21 52  1  0
 22 53  1  0
 22 54  1  0
 24 55  1  0
 24 56  1  0
 25 57  1  0
 25 58  1  0
 27 59  1  0
 27 60  1  0
 27 61  1  0
 28 62  1  0
 28 63  1  0
 29 64  1  0
 29 65  1  0
M  CHG  1  14   1
M  END
>  <UniqueID>  (24) 
24

>  <SMILES>  (24) 
COc1nc2ccccc2n1CC[NH2+]CCOCCOCCN1CCN(C)CC1

>  <Energy>  (24) 
113.77126083467596

>  <Genealogy>  (24) 
COc1nc2ccccc2n1CC[NH2+]CCOCCOCCN1CCN(C)CC1 (protonated)
COc1nc2ccccc2n1CC[NH2+]CCOCCOCCN1CCN(C)CC1 (3D coordinates assigned)
COc1nc2ccccc2n1CC[NH2+]CCOCCOCCN1CCN(C)CC1 (nonaromatic ring conformer: 113.77126083467596 kcal/mol)

>  <smiles>  (24) 
COc1nc2ccccc2n1CCNCCOCCOCCN1CCN(C)CC1

>  <score_type>  (24) 
oracle

>  <origin>  (24) 
adg

>  <m_score__min__energy>  (24) 
-6.8399999999999999

>  <m_primary>  (24) 
energy

$$$$
24:0
     RDKit          3D

 36 38  0  0  0  0  0  0  0  0999 V2000
   -3.2533   19.5772  -31.0393 H   0  0  0  0  0  0  0  0  0  0  0  0
   -3.4340   20.6620  -31.0170 C   0  0  0  0  0  0  0  0  0  0  0  0
   -3.1070   21.3980  -29.8750 C   0  0  0  0  0  0  0  0  0  0  0  0
   -2.3230   20.5260  -28.3680 Br  0  0  0  0  0  0  0  0  0  0  0  0
   -3.3580   22.7740  -29.8340 C   0  0  0  0  0  0  0  0  0  0  0  0
   -3.0890   23.3516  -28.9373 H   0  0  0  0  0  0  0  0  0  0  0  0
   -3.9490   23.4210  -30.9260 C   0  0  0  0  0  0  0  0  0  0  0  0
   -4.1940   24.7990  -30.8310 O   0  0  0  0  0  0  0  0  0  0  0  0
   -5.4490   25.3700  -30.4720 C   0  0  0  0  0  0  0  0  0  0  0  0
   -5.5341   25.4087  -29.3760 H   0  0  0  0  0  0  0  0  0  0  0  0
   -5.5190   26.3886  -30.8814 H   0  0  0  0  0  0  0  0  0  0  0  0
   -6.2629   24.7536  -30.8814 H   0  0  0  0  0  0  0  0  0  0  0  0
   -4.2770   22.6730  -32.0740 C   0  0  0  0  0  0  0  0  0  0  0  0
   -4.7602   23.1675  -32.9295 H   0  0  0  0  0  0  0  0  0  0  0  0
   -3.9900   21.2980  -32.1320 C   0  0  0  0  0  0  0  0  0  0  0  0
   -4.3660   20.5080  -33.2710 N   0  0  0  0  0  0  0  0  0  0  0  0
   -5.1030   19.4270  -33.2900 C   0  0  0  0  0  0  0  0  0  0  0  0
   -4.6030   18.1940  -33.7560 C   0  0  0  0  0  0  0  0  0  0  0  0
   -3.5687   18.1246  -34.1241 H   0  0  0  0  0  0  0  0  0  0  0  0
   -5.4170   17.0630  -33.7510 C   0  0  0  0  0  0  0  0  0  0  0  0
   -5.0236   16.1056  -34.1233 H   0  0  0  0  0  0  0  0  0  0  0  0
   -6.6920   17.1340  -33.2900 N   0  0  0  0  0  0  0  0  0  0  0  0
   -7.2720   16.2640  -33.3030 H   0  0  0  0  0  0  0  0  0  0  0  0
   -7.2130   18.2980  -32.8080 C   0  0  0  0  0  0  0  0  0  0  0  0
   -8.5330   18.3340  -32.3360 C   0  0  0  0  0  0  0  0  0  0  0  0
   -9.1459   17.4209  -32.3581 H   0  0  0  0  0  0  0  0  0  0  0  0
   -9.0750   19.5210  -31.8380 C   0  0  0  0  0  0  0  0  0  0  0  0
  -10.1160   19.5388  -31.4830 H   0  0  0  0  0  0  0  0  0  0  0  0
   -8.3020   20.6910  -31.7870 C   0  0  0  0  0  0  0  0  0  0  0  0
   -8.9060   21.9830  -31.2950 C   0  0  0  0  0  0  0  0  0  0  0  0
   -7.9390   22.7940  -30.7270 F   0  0  0  0  0  0  0  0  0  0  0  0
   -9.4890   22.6770  -32.3420 F   0  0  0  0  0  0  0  0  0  0  0  0
   -9.8710   21.7020  -30.3470 F   0  0  0  0  0  0  0  0  0  0  0  0
   -6.9890   20.6680  -32.2870 C   0  0  0  0  0  0  0  0  0  0  0  0
   -6.3918   21.5917  -32.2856 H   0  0  0  0  0  0  0  0  0  0  0  0
   -6.4260   19.4760  -32.7910 C   0  0  0  0  0  0  0  0  0  0  0  0
  1  2  1  0
  2  3  2  0
  3  4  1  0
  3  5  1  0
  5  6  1  0
  5  7  2  0
  7  8  1  0
  8  9  1  0
  9 10  1  0
  9 11  1  0
  9 12  1  0
  7 13  1  0
 13 14  1  0
 13 15  2  0
 15 16  1  0
 16 17  2  0
 17 18  1  0
 18 19  1  0
 18 20  2  0
 20 21  1  0
 20 22  1  0
 22 23  1  0
 22 24  1  0
 24 25  2  0
 25 26  1  0
 25 27  1  0
 27 28  1  0
 27 29  2  0
 29 30  1  0
 30 31  1  0
 30 32  1  0
 30 33  1  0
 29 34  1  0
 34 35  1  0
 34 36  2  0
 15  2  1  0
 36 17  1  0
 36 24  1  0
M  END
>  <UniqueID>  (25) 
25

>  <SMILES>  (25) 
COc1cc(Br)cc(/N=c2\cc[nH]c3ccc(C(F)(F)F)cc23)c1

>  <Energy>  (25) 
52.71710019798441

>  <Genealogy>  (25) 
COc1cc(Br)cc(/N=c2\cc[nH]c3ccc(C(F)(F)F)cc23)c1 (cis-trans isomerization)
COc1cc(Br)cc(/N=c2\cc[nH]c3ccc(C(F)(F)F)cc23)c1 (3D coordinates assigned)
COc1cc(Br)cc(/N=c2\cc[nH]c3ccc(C(F)(F)F)cc23)c1 (optimized conformer: 52.71710019798441 kcal/mol)

>  <smiles>  (25) 
COc1cc(Br)cc(N=c2cc[nH]c3ccc(C(F)(F)F)cc23)c1

>  <score_type>  (25) 
oracle

>  <origin>  (25) 
adg

>  <m_score__min__energy>  (25) 
-8.1899999999999995

>  <m_primary>  (25) 
energy

$$$$
25:0
     RDKit          3D

 60 62  0  0  0  0  0  0  0  0999 V2000
   -5.6420   25.2830  -30.6190 C   0  0  0  0  0  0  0  0  0  0  0  0
   -4.6100   24.2210  -30.2560 C   0  0  0  0  0  0  0  0  0  0  0  0
   -4.2970   23.4100  -31.3890 O   0  0  0  0  0  0  0  0  0  0  0  0
   -5.0780   22.3490  -31.8820 C   0  0  0  0  0  0  0  0  0  0  0  0
   -6.4040   22.1280  -31.4610 C   0  0  0  0  0  0  0  0  0  0  0  0
   -7.1470   21.0550  -31.9740 C   0  0  0  0  0  0  0  0  0  0  0  0
   -8.5740   20.8440  -31.5440 C   0  0  0  0  0  0  0  0  0  0  0  0
   -9.0640   19.4610  -31.9600 C   0  0  0  0  0  0  0  0  0  0  0  0
   -6.5670   20.2120  -32.9320 C   0  0  0  0  0  0  0  0  0  0  0  0
   -5.2550   20.4250  -33.3560 C   0  0  0  0  0  0  0  0  0  0  0  0
   -4.5010   21.4950  -32.8370 C   0  0  0  0  0  0  0  0  0  0  0  0
   -3.1770   21.7470  -33.2360 O   0  0  0  0  0  0  0  0  0  0  0  0
   -2.0360   21.7600  -32.3780 C   0  0  0  0  0  0  0  0  0  0  0  0
   -2.2700   20.8420  -31.1570 C   0  0  0  0  0  0  0  0  0  0  0  0
   -2.3770   21.5540  -29.8590 N   0  0  0  0  0  0  0  0  0  0  0  0
   -1.1720   22.3750  -29.5640 C   0  0  0  0  0  0  0  0  0  0  0  0
   -0.9220   22.5600  -28.0500 C   0  0  0  0  0  0  0  0  0  0  0  0
   -2.1780   22.6550  -27.2830 N   0  0  0  0  0  0  0  0  0  0  0  0
   -2.8710   23.9430  -27.5030 C   0  0  0  0  0  0  0  0  0  0  0  0
   -2.0370   25.0820  -26.9750 C   0  0  0  0  0  0  0  0  0  0  0  0
   -1.9710   25.3370  -25.5940 C   0  0  0  0  0  0  0  0  0  0  0  0
   -1.1880   26.3870  -25.1070 C   0  0  0  0  0  0  0  0  0  0  0  0
   -0.4640   27.1890  -25.9920 C   0  0  0  0  0  0  0  0  0  0  0  0
   -0.5220   26.9440  -27.3670 C   0  0  0  0  0  0  0  0  0  0  0  0
   -1.3040   25.8940  -27.8610 C   0  0  0  0  0  0  0  0  0  0  0  0
   -1.3490   25.6710  -29.1990 F   0  0  0  0  0  0  0  0  0  0  0  0
   -3.0640   21.4770  -27.4750 C   0  0  0  0  0  0  0  0  0  0  0  0
   -2.7330   20.6580  -28.7400 C   0  0  0  0  0  0  0  0  0  0  0  0
   -6.0623   25.7155  -29.6990 H   0  0  0  0  0  0  0  0  0  0  0  0
   -5.1600   26.0758  -31.2099 H   0  0  0  0  0  0  0  0  0  0  0  0
   -6.4483   24.8239  -31.2099 H   0  0  0  0  0  0  0  0  0  0  0  0
   -3.6933   24.7151  -29.9019 H   0  0  0  0  0  0  0  0  0  0  0  0
   -5.0278   23.5784  -29.4670 H   0  0  0  0  0  0  0  0  0  0  0  0
   -6.8610   22.8035  -30.7228 H   0  0  0  0  0  0  0  0  0  0  0  0
   -8.6386   20.9358  -30.4497 H   0  0  0  0  0  0  0  0  0  0  0  0
   -9.2052   21.6032  -32.0289 H   0  0  0  0  0  0  0  0  0  0  0  0
   -9.2763   18.8618  -31.0623 H   0  0  0  0  0  0  0  0  0  0  0  0
   -9.9812   19.5618  -32.5589 H   0  0  0  0  0  0  0  0  0  0  0  0
   -8.2880   18.9619  -32.5589 H   0  0  0  0  0  0  0  0  0  0  0  0
   -7.1492   19.3783  -33.3516 H   0  0  0  0  0  0  0  0  0  0  0  0
   -4.8062   19.7520  -34.1014 H   0  0  0  0  0  0  0  0  0  0  0  0
   -1.1582   21.4033  -32.9368 H   0  0  0  0  0  0  0  0  0  0  0  0
   -1.8669   22.7879  -32.0246 H   0  0  0  0  0  0  0  0  0  0  0  0
   -3.2044   20.2851  -31.3207 H   0  0  0  0  0  0  0  0  0  0  0  0
   -1.3864   20.1910  -31.0831 H   0  0  0  0  0  0  0  0  0  0  0  0
   -3.1800   22.2180  -29.9770 H   0  0  0  0  0  0  0  0  0  0  0  0
   -0.2944   21.8807  -30.0062 H   0  0  0  0  0  0  0  0  0  0  0  0
   -1.3414   23.3734  -29.9935 H   0  0  0  0  0  0  0  0  0  0  0  0
   -0.3451   21.7000  -27.6790 H   0  0  0  0  0  0  0  0  0  0  0  0
   -0.3715   23.5024  -27.9124 H   0  0  0  0  0  0  0  0  0  0  0  0
   -3.0390   24.0853  -28.5807 H   0  0  0  0  0  0  0  0  0  0  0  0
   -3.8335   23.9272  -26.9707 H   0  0  0  0  0  0  0  0  0  0  0  0
   -2.5385   24.7069  -24.8934 H   0  0  0  0  0  0  0  0  0  0  0  0
   -1.1418   26.5821  -24.0254 H   0  0  0  0  0  0  0  0  0  0  0  0
    0.1526   28.0144  -25.6066 H   0  0  0  0  0  0  0  0  0  0  0  0
    0.0482   27.5779  -28.0620 H   0  0  0  0  0  0  0  0  0  0  0  0
   -2.9642   20.8197  -26.5986 H   0  0  0  0  0  0  0  0  0  0  0  0
   -4.0886   21.8588  -27.5955 H   0  0  0  0  0  0  0  0  0  0  0  0
   -1.8851   19.9904  -28.5272 H   0  0  0  0  0  0  0  0  0  0  0  0
   -3.6178   20.0693  -29.0238 H   0  0  0  0  0  0  0  0  0  0  0  0
  1  2  1  0
  2  3  1  0
  3  4  1  0
  4  5  2  0
  5  6  1  0
  6  7  1  0
  7  8  1  0
  6  9  2  0
  9 10  1  0
 10 11  2  0
 11 12  1  0
 12 13  1  0
 13 14  1  0
 14 15  1  0
 15 16  1  0
 16 17  1  0
 17 18  1  0
 18 19  1  0
 19 20  1  0
 20 21  2  0
 21 22  1  0
 22 23  2  0
 23 24  1  0
 24 25  2  0
 25 26  1  0
 18 27  1  0
 27 28  1  0
 11  4  1  0
 28 15  1  0
 25 20  1  0
  1 29  1  0
  1 30  1  0
  1 31  1  0
  2 32  1  0
  2 33  1  0
  5 34  1  0
  7 35  1  0
  7 36  1  0
  8 37  1  0
  8 38  1  0
  8 39  1  0
  9 40  1  0
 10 41  1  0
 13 42  1  0
 13 43  1  0
 14 44  1  0
 14 45  1  0
 15 46  1  0
 16 47  1  0
 16 48  1  0
 17 49  1  0
 17 50  1  0
 19 51  1  0
 19 52  1  0
 21 53  1  0
 22 54  1  0
 23 55  1  0
 24 56  1  0
 27 57  1  0
 27 58  1  0
 28 59  1  0
 28 60  1  0
M  CHG  1  15   1
M  END
>  <UniqueID>  (26) 
26

>  <SMILES>  (26) 
CCOc1cc(CC)ccc1OCC[NH+]1CCN(Cc2ccccc2F)CC1

>  <Energy>  (26) 
70.89018062130769

>  <Genealogy>  (26) 
CCOc1cc(CC)ccc1OCC[NH+]1CCN(Cc2ccccc2F)CC1 (protonated)
CCOc1cc(CC)ccc1OCC[NH+]1CCN(Cc2ccccc2F)CC1 (3D coordinates assigned)
CCOc1cc(CC)ccc1OCC[NH+]1CCN(Cc2ccccc2F)CC1 (nonaromatic ring conformer: 70.89018062130769 kcal/mol)

>  <smiles>  (26) 
CCOc1cc(CC)ccc1OCCN1CCN(Cc2ccccc2F)CC1

>  <score_type>  (26) 
oracle

>  <origin>  (26) 
adg

>  <m_score__min__energy>  (26) 
-8.3399999999999999

>  <m_primary>  (26) 
energy

$$$$
26:0
     RDKit          3D

 51 53  0  0  0  0  0  0  0  0999 V2000
   -1.8580   21.5910  -29.4580 C   0  0  0  0  0  0  0  0  0  0  0  0
   -1.2270   21.9760  -30.7940 C   0  0  0  0  0  0  0  0  0  0  0  0
   -1.2940   20.8380  -31.7400 N   0  0  0  0  0  0  0  0  0  0  0  0
   -0.0310   20.0650  -31.7350 C   0  0  0  0  0  0  0  0  0  0  0  0
    0.6560   20.1530  -33.0960 C   0  0  0  0  0  0  0  0  0  0  0  0
   -1.6280   21.3060  -33.1070 C   0  0  0  0  0  0  0  0  0  0  0  0
   -3.1270   21.1460  -33.3870 C   0  0  0  0  0  0  0  0  0  0  0  0
   -3.8340   20.6390  -32.2110 N   0  0  0  0  0  0  0  0  0  0  0  0
   -5.2010   21.0010  -31.9730 C   0  0  0  0  0  0  0  0  0  0  0  0
   -6.2290   20.0860  -32.2500 C   0  0  0  0  0  0  0  0  0  0  0  0
   -5.9320   18.8010  -32.7520 C   0  0  0  0  0  0  0  0  0  0  0  0
   -6.9450   17.8720  -32.9690 C   0  0  0  0  0  0  0  0  0  0  0  0
   -8.2640   18.1990  -32.6790 C   0  0  0  0  0  0  0  0  0  0  0  0
   -8.5830   19.4690  -32.1950 C   0  0  0  0  0  0  0  0  0  0  0  0
   -7.5790   20.4530  -32.0050 C   0  0  0  0  0  0  0  0  0  0  0  0
   -7.8840   21.7320  -31.5750 N   0  0  0  0  0  0  0  0  0  0  0  0
   -9.2880   22.2010  -31.5850 C   0  0  0  0  0  0  0  0  0  0  0  0
   -6.8730   22.5840  -31.1660 C   0  0  0  0  0  0  0  0  0  0  0  0
   -7.1490   23.8010  -30.4910 C   0  0  0  0  0  0  0  0  0  0  0  0
   -6.1240   24.6810  -30.1440 C   0  0  0  0  0  0  0  0  0  0  0  0
   -4.7980   24.3760  -30.4480 C   0  0  0  0  0  0  0  0  0  0  0  0
   -3.7530   25.2900  -30.1020 N   0  0  0  0  0  0  0  0  0  0  0  0
   -4.4960   23.1640  -31.0730 C   0  0  0  0  0  0  0  0  0  0  0  0
   -5.5150   22.2480  -31.4060 C   0  0  0  0  0  0  0  0  0  0  0  0
   -1.2349   21.9712  -28.6351 H   0  0  0  0  0  0  0  0  0  0  0  0
   -2.8647   22.0289  -29.3882 H   0  0  0  0  0  0  0  0  0  0  0  0
   -1.9291   20.4955  -29.3882 H   0  0  0  0  0  0  0  0  0  0  0  0
   -1.7700   22.8333  -31.2184 H   0  0  0  0  0  0  0  0  0  0  0  0
   -0.1727   22.2428  -30.6286 H   0  0  0  0  0  0  0  0  0  0  0  0
    0.6396   20.4724  -30.9641 H   0  0  0  0  0  0  0  0  0  0  0  0
   -0.2602   19.0109  -31.5200 H   0  0  0  0  0  0  0  0  0  0  0  0
    1.7377   20.2916  -32.9524 H   0  0  0  0  0  0  0  0  0  0  0  0
    0.4767   19.2245  -33.6580 H   0  0  0  0  0  0  0  0  0  0  0  0
    0.2484   21.0063  -33.6580 H   0  0  0  0  0  0  0  0  0  0  0  0
   -1.3549   22.3674  -33.2014 H   0  0  0  0  0  0  0  0  0  0  0  0
   -1.0672   20.6998  -33.8337 H   0  0  0  0  0  0  0  0  0  0  0  0
   -3.5467   22.1244  -33.6637 H   0  0  0  0  0  0  0  0  0  0  0  0
   -3.2529   20.4238  -34.2071 H   0  0  0  0  0  0  0  0  0  0  0  0
   -3.3240   20.1150  -31.4640 H   0  0  0  0  0  0  0  0  0  0  0  0
   -4.8890   18.5310  -32.9740 H   0  0  0  0  0  0  0  0  0  0  0  0
   -6.7013   16.8774  -33.3707 H   0  0  0  0  0  0  0  0  0  0  0  0
   -9.0595   17.4547  -32.8313 H   0  0  0  0  0  0  0  0  0  0  0  0
   -9.6295   19.7105  -31.9572 H   0  0  0  0  0  0  0  0  0  0  0  0
   -9.6424   22.3194  -30.5504 H   0  0  0  0  0  0  0  0  0  0  0  0
   -9.3479   23.1679  -32.1060 H   0  0  0  0  0  0  0  0  0  0  0  0
   -9.9170   21.4642  -32.1060 H   0  0  0  0  0  0  0  0  0  0  0  0
   -8.1888   24.0548  -30.2371 H   0  0  0  0  0  0  0  0  0  0  0  0
   -6.3634   25.6220  -29.6270 H   0  0  0  0  0  0  0  0  0  0  0  0
   -3.6050   25.5850  -29.1110 H   0  0  0  0  0  0  0  0  0  0  0  0
   -3.1180   25.6780  -30.8340 H   0  0  0  0  0  0  0  0  0  0  0  0
   -3.4494   22.9208  -31.3086 H   0  0  0  0  0  0  0  0  0  0  0  0
  1  2  1  0
  2  3  1  0
  3  4  1  0
  4  5  1  0
  3  6  1  0
  6  7  1  0
  7  8  1  0
  8  9  1  0
  9 10  2  0
 10 11  1  0
 11 12  2  0
 12 13  1  0
 13 14  2  0
 14 15  1  0
 15 16  2  0
 16 17  1  0
 16 18  1  0
 18 19  2  0
 19 20  1  0
 20 21  2  0
 21 22  1  0
 21 23  1  0
 23 24  2  0
 24  9  1  0
 15 10  1  0
 24 18  1  0
  1 25  1  0
  1 26  1  0
  1 27  1  0
  2 28  1  0
  2 29  1  0
  4 30  1  0
  4 31  1  0
  5 32  1  0
  5 33  1  0
  5 34  1  0
  6 35  1  0
  6 36  1  0
  7 37  1  0
  7 38  1  0
  8 39  1  0
 11 40  1  0
 12 41  1  0
 13 42  1  0
 14 43  1  0
 17 44  1  0
 17 45  1  0
 17 46  1  0
 19 47  1  0
 20 48  1  0
 22 49  1  0
 22 50  1  0
 23 51  1  0
M  CHG  1  16   1
M  END
>  <UniqueID>  (27) 
27

>  <SMILES>  (27) 
CCN(CC)CCNc1c2ccccc2[n+](C)c2ccc(N)cc12

>  <Energy>  (27) 
73.66124400536887

>  <Genealogy>  (27) 
CCN(CC)CCNc1c2ccccc2[n+](C)c2ccc(N)cc12 (3D coordinates assigned)
CCN(CC)CCNc1c2ccccc2[n+](C)c2ccc(N)cc12 (optimized conformer: 73.66124400536887 kcal/mol)

>  <smiles>  (27) 
CCN(CC)CCNc1c2ccccc2[n+](C)c2ccc(N)cc12

>  <score_type>  (27) 
oracle

>  <origin>  (27) 
adg

>  <m_score__min__energy>  (27) 
-8.2699999999999996

>  <m_primary>  (27) 
energy

$$$$
27:0
     RDKit          3D

 61 63  0  0  0  0  0  0  0  0999 V2000
   -2.7000   24.5020  -27.2640 C   0  0  0  0  0  0  0  0  0  0  0  0
   -4.2340   24.5280  -27.3050 C   0  0  0  0  0  0  0  0  0  0  0  0
   -4.7950   23.9750  -28.5680 N   0  0  0  0  0  0  0  0  0  0  0  0
   -5.3390   25.0160  -29.4930 C   0  0  0  0  0  0  0  0  0  0  0  0
   -6.7390   24.7330  -30.0680 C   0  0  0  0  0  0  0  0  0  0  0  0
   -3.9150   22.9910  -29.2570 C   0  0  0  0  0  0  0  0  0  0  0  0
   -4.5530   22.2930  -30.4770 C   0  0  0  0  0  0  0  0  0  0  0  0
   -3.8140   22.6230  -31.7880 C   0  0  0  0  0  0  0  0  0  0  0  0
   -4.4710   22.0370  -32.9630 N   0  0  0  0  0  0  0  0  0  0  0  0
   -5.1230   20.7560  -32.9240 C   0  0  0  0  0  0  0  0  0  0  0  0
   -6.4990   20.6930  -32.6400 C   0  0  0  0  0  0  0  0  0  0  0  0
   -7.1820   21.8210  -32.1360 C   0  0  0  0  0  0  0  0  0  0  0  0
   -8.5580   21.7850  -31.9220 C   0  0  0  0  0  0  0  0  0  0  0  0
   -9.2760   20.6320  -32.2090 C   0  0  0  0  0  0  0  0  0  0  0  0
   -8.6170   19.4950  -32.6780 C   0  0  0  0  0  0  0  0  0  0  0  0
   -7.2100   19.4870  -32.8660 C   0  0  0  0  0  0  0  0  0  0  0  0
   -6.5400   18.3540  -33.2870 N   0  0  0  0  0  0  0  0  0  0  0  0
   -7.2370   17.0470  -33.2900 C   0  0  0  0  0  0  0  0  0  0  0  0
   -5.2090   18.4290  -33.6550 C   0  0  0  0  0  0  0  0  0  0  0  0
   -4.5790   17.3730  -34.3580 C   0  0  0  0  0  0  0  0  0  0  0  0
   -3.2190   17.4110  -34.6460 C   0  0  0  0  0  0  0  0  0  0  0  0
   -2.4450   18.4780  -34.2190 C   0  0  0  0  0  0  0  0  0  0  0  0
   -3.0300   19.5670  -33.5630 C   0  0  0  0  0  0  0  0  0  0  0  0
   -2.1620   20.5610  -32.9840 N   0  0  0  0  0  0  0  0  0  0  0  0
   -1.3480   21.4160  -33.8490 C   0  0  0  0  0  0  0  0  0  0  0  0
   -1.7060   20.3640  -31.6070 C   0  0  0  0  0  0  0  0  0  0  0  0
   -4.4440   19.5950  -33.3620 C   0  0  0  0  0  0  0  0  0  0  0  0
   -2.3612   24.4963  -26.2175 H   0  0  0  0  0  0  0  0  0  0  0  0
   -2.3349   23.5975  -27.7726 H   0  0  0  0  0  0  0  0  0  0  0  0
   -2.3044   25.3936  -27.7726 H   0  0  0  0  0  0  0  0  0  0  0  0
   -4.6166   23.9334  -26.4624 H   0  0  0  0  0  0  0  0  0  0  0  0
   -4.5455   25.5811  -27.2418 H   0  0  0  0  0  0  0  0  0  0  0  0
   -5.6340   23.4150  -28.2790 H   0  0  0  0  0  0  0  0  0  0  0  0
   -5.3860   25.9666  -28.9416 H   0  0  0  0  0  0  0  0  0  0  0  0
   -4.6583   25.0344  -30.3569 H   0  0  0  0  0  0  0  0  0  0  0  0
   -7.4520   24.5889  -29.2429 H   0  0  0  0  0  0  0  0  0  0  0  0
   -7.0605   25.5843  -30.6860 H   0  0  0  0  0  0  0  0  0  0  0  0
   -6.7046   23.8236  -30.6860 H   0  0  0  0  0  0  0  0  0  0  0  0
   -3.0128   23.5196  -29.5986 H   0  0  0  0  0  0  0  0  0  0  0  0
   -3.7034   22.1990  -28.5235 H   0  0  0  0  0  0  0  0  0  0  0  0
   -4.5239   21.2049  -30.3180 H   0  0  0  0  0  0  0  0  0  0  0  0
   -5.5871   22.6560  -30.5714 H   0  0  0  0  0  0  0  0  0  0  0  0
   -3.7813   23.7158  -31.9097 H   0  0  0  0  0  0  0  0  0  0  0  0
   -2.8030   22.1948  -31.7203 H   0  0  0  0  0  0  0  0  0  0  0  0
   -4.3060   22.4830  -33.8910 H   0  0  0  0  0  0  0  0  0  0  0  0
   -6.6208   22.7396  -31.9095 H   0  0  0  0  0  0  0  0  0  0  0  0
   -9.0760   22.6707  -31.5254 H   0  0  0  0  0  0  0  0  0  0  0  0
  -10.3666   20.6147  -32.0664 H   0  0  0  0  0  0  0  0  0  0  0  0
   -9.1979   18.5891  -32.9060 H   0  0  0  0  0  0  0  0  0  0  0  0
   -7.4105   16.7216  -32.2537 H   0  0  0  0  0  0  0  0  0  0  0  0
   -8.2015   17.1470  -33.8093 H   0  0  0  0  0  0  0  0  0  0  0  0
   -6.6165   16.3018  -33.8093 H   0  0  0  0  0  0  0  0  0  0  0  0
   -5.1759   16.5077  -34.6818 H   0  0  0  0  0  0  0  0  0  0  0  0
   -2.7561   16.5911  -35.2148 H   0  0  0  0  0  0  0  0  0  0  0  0
   -1.3596   18.4690  -34.3975 H   0  0  0  0  0  0  0  0  0  0  0  0
   -0.7214   22.0742  -33.2292 H   0  0  0  0  0  0  0  0  0  0  0  0
   -0.7049   20.7889  -34.4840 H   0  0  0  0  0  0  0  0  0  0  0  0
   -2.0059   22.0275  -34.4840 H   0  0  0  0  0  0  0  0  0  0  0  0
   -2.4873   20.7016  -30.9102 H   0  0  0  0  0  0  0  0  0  0  0  0
   -1.5002   19.2967  -31.4380 H   0  0  0  0  0  0  0  0  0  0  0  0
   -0.7878   20.9457  -31.4380 H   0  0  0  0  0  0  0  0  0  0  0  0
  1  2  1  0
  2  3  1  0
  3  4  1  0
  4  5  1  0
  3  6  1  0
  6  7  1  0
  7  8  1  0
  8  9  1  0
  9 10  1  0
 10 11  2  0
 11 12  1  0
 12 13  2  0
 13 14  1  0
 14 15  2  0
 15 16  1  0
 16 17  2  0
 17 18  1  0
 17 19  1  0
 19 20  2  0
 20 21  1  0
 21 22  2  0
 22 23  1  0
 23 24  1  0
 24 25  1  0
 24 26  1  0
 23 27  2  0
 27 10  1  0
 16 11  1  0
 27 19  1  0
  1 28  1  0
  1 29  1  0
  1 30  1  0
  2 31  1  0
  2 32  1  0
  3 33  1  0
  4 34  1  0
  4 35  1  0
  5 36  1  0
  5 37  1  0
  5 38  1  0
  6 39  1  0
  6 40  1  0
  7 41  1  0
  7 42  1  0
  8 43  1  0
  8 44  1  0
  9 45  1  0
 12 46  1  0
 13 47  1  0
 14 48  1  0
 15 49  1  0
 18 50  1  0
 18 51  1  0
 18 52  1  0
 20 53  1  0
 21 54  1  0
 22 55  1  0
 25 56  1  0
 25 57  1  0
 25 58  1  0
 26 59  1  0
 26 60  1  0
 26 61  1  0
M  CHG  2   3   1  17   1
M  END
>  <UniqueID>  (28) 
28

>  <SMILES>  (28) 
CC[NH+](CC)CCCNc1c2ccccc2[n+](C)c2cccc(N(C)C)c12

>  <Energy>  (28) 
101.30339678671537

>  <Genealogy>  (28) 
CC[NH+](CC)CCCNc1c2ccccc2[n+](C)c2cccc(N(C)C)c12 (protonated)
CC[NH+](CC)CCCNc1c2ccccc2[n+](C)c2cccc(N(C)C)c12 (3D coordinates assigned)
CC[NH+](CC)CCCNc1c2ccccc2[n+](C)c2cccc(N(C)C)c12 (optimized conformer: 101.30339678671537 kcal/mol)

>  <smiles>  (28) 
CCN(CC)CCCNc1c2ccccc2[n+](C)c2cccc(N(C)C)c12

>  <score_type>  (28) 
oracle

>  <origin>  (28) 
adg

>  <m_score__min__energy>  (28) 
-7.0499999999999998

>  <m_primary>  (28) 
energy

$$$$
28:0
     RDKit          3D

 41 43  0  0  0  0  0  0  0  0999 V2000
   -2.4690   14.4690  -37.2310 C   0  0  0  0  0  0  0  0  0  0  0  0
   -1.9900   14.9780  -35.9910 O   0  0  0  0  0  0  0  0  0  0  0  0
   -2.4750   16.1380  -35.3700 C   0  0  0  0  0  0  0  0  0  0  0  0
   -1.6220   17.0990  -34.7940 C   0  0  0  0  0  0  0  0  0  0  0  0
   -2.1540   18.2400  -34.1840 C   0  0  0  0  0  0  0  0  0  0  0  0
   -3.5440   18.4440  -34.1410 C   0  0  0  0  0  0  0  0  0  0  0  0
   -4.1080   19.6560  -33.4930 C   0  0  0  0  0  0  0  0  0  0  0  0
   -3.2760   20.7300  -33.1450 C   0  0  0  0  0  0  0  0  0  0  0  0
   -3.8020   21.8680  -32.5330 C   0  0  0  0  0  0  0  0  0  0  0  0
   -5.1760   21.9570  -32.2410 C   0  0  0  0  0  0  0  0  0  0  0  0
   -5.7290   23.0940  -31.6120 C   0  0  0  0  0  0  0  0  0  0  0  0
   -4.8970   24.1730  -31.1540 N   0  0  0  0  0  0  0  0  0  0  0  0
   -5.2980   25.3530  -31.2390 O   0  0  0  0  0  0  0  0  0  0  0  0
   -3.5870   23.9350  -30.8080 O   0  0  0  0  0  0  0  0  0  0  0  0
   -7.1200   23.1600  -31.4150 C   0  0  0  0  0  0  0  0  0  0  0  0
   -7.6100   24.1710  -30.8390 O   0  0  0  0  0  0  0  0  0  0  0  0
   -7.9380   22.1350  -31.8190 N   0  0  0  0  0  0  0  0  0  0  0  0
   -9.3890   22.2290  -31.5920 C   0  0  0  0  0  0  0  0  0  0  0  0
   -7.4100   20.9920  -32.3640 C   0  0  0  0  0  0  0  0  0  0  0  0
   -8.2490   19.9200  -32.6910 O   0  0  0  0  0  0  0  0  0  0  0  0
   -8.4120   18.8160  -31.8090 C   0  0  0  0  0  0  0  0  0  0  0  0
   -6.0270   20.8910  -32.6090 C   0  0  0  0  0  0  0  0  0  0  0  0
   -5.4840   19.7480  -33.2270 C   0  0  0  0  0  0  0  0  0  0  0  0
   -4.3910   17.4810  -34.7190 C   0  0  0  0  0  0  0  0  0  0  0  0
   -3.8580   16.3410  -35.3260 C   0  0  0  0  0  0  0  0  0  0  0  0
   -3.2115   13.6800  -37.0412 H   0  0  0  0  0  0  0  0  0  0  0  0
   -2.9369   15.2824  -37.8050 H   0  0  0  0  0  0  0  0  0  0  0  0
   -1.6287   14.0513  -37.8050 H   0  0  0  0  0  0  0  0  0  0  0  0
   -0.5323   16.9518  -34.8238 H   0  0  0  0  0  0  0  0  0  0  0  0
   -1.4792   18.9834  -33.7345 H   0  0  0  0  0  0  0  0  0  0  0  0
   -2.1980   20.6746  -33.3567 H   0  0  0  0  0  0  0  0  0  0  0  0
   -3.1358   22.7047  -32.2759 H   0  0  0  0  0  0  0  0  0  0  0  0
   -9.5909   22.2421  -30.5108 H   0  0  0  0  0  0  0  0  0  0  0  0
   -9.7723   23.1539  -32.0478 H   0  0  0  0  0  0  0  0  0  0  0  0
   -9.8884   21.3613  -32.0478 H   0  0  0  0  0  0  0  0  0  0  0  0
   -8.3601   19.1676  -30.7680 H   0  0  0  0  0  0  0  0  0  0  0  0
   -9.3895   18.3445  -31.9885 H   0  0  0  0  0  0  0  0  0  0  0  0
   -7.6125   18.0821  -31.9885 H   0  0  0  0  0  0  0  0  0  0  0  0
   -6.1469   18.9155  -33.5053 H   0  0  0  0  0  0  0  0  0  0  0  0
   -5.4810   17.6266  -34.6929 H   0  0  0  0  0  0  0  0  0  0  0  0
   -4.5325   15.5962  -35.7735 H   0  0  0  0  0  0  0  0  0  0  0  0
  1  2  1  0
  2  3  1  0
  3  4  2  0
  4  5  1  0
  5  6  2  0
  6  7  1  0
  7  8  1  0
  8  9  2  0
  9 10  1  0
 10 11  2  0
 11 12  1  0
 12 13  2  0
 12 14  1  0
 11 15  1  0
 15 16  2  0
 15 17  1  0
 17 18  1  0
 17 19  1  0
 19 20  1  0
 20 21  1  0
 19 22  2  0
 22 23  1  0
  6 24  1  0
 24 25  2  0
 25  3  1  0
 23  7  2  0
 22 10  1  0
  1 26  1  0
  1 27  1  0
  1 28  1  0
  4 29  1  0
  5 30  1  0
  8 31  1  0
  9 32  1  0
 18 33  1  0
 18 34  1  0
 18 35  1  0
 21 36  1  0
 21 37  1  0
 21 38  1  0
 23 39  1  0
 24 40  1  0
 25 41  1  0
M  CHG  2  12   1  14  -1
M  END
>  <UniqueID>  (29) 
29

>  <SMILES>  (29) 
COc1ccc(-c2ccc3c([N+](=O)[O-])c(=O)n(C)c(OC)c3c2)cc1

>  <Energy>  (29) 
69.48840327823012

>  <Genealogy>  (29) 
COc1ccc(-c2ccc3c([N+](=O)[O-])c(=O)n(C)c(OC)c3c2)cc1 (3D coordinates assigned)
COc1ccc(-c2ccc3c([N+](=O)[O-])c(=O)n(C)c(OC)c3c2)cc1 (optimized conformer: 69.48840327823012 kcal/mol)

>  <smiles>  (29) 
COc1ccc(-c2ccc3c([N+](=O)[O-])c(=O)n(C)c(OC)c3c2)cc1

>  <score_type>  (29) 
oracle

>  <origin>  (29) 
adg

>  <m_score__min__energy>  (29) 
-7.7999999999999998

>  <m_primary>  (29) 
energy

$$$$
29:0
     RDKit          3D

 28 29  0  0  0  0  0  0  0  0999 V2000
   -2.3140   25.6910  -25.6830 C   0  0  0  0  0  0  0  0  0  0  0  0
   -1.6580   25.4850  -26.6720 C   0  0  0  0  0  0  0  0  0  0  0  0
   -0.8580   25.2300  -27.8770 C   0  0  0  0  0  0  0  0  0  0  0  0
   -1.6930   25.2960  -29.0760 N   0  0  0  0  0  0  0  0  0  0  0  0
   -2.4940   24.1990  -29.5620 C   0  0  0  0  0  0  0  0  0  0  0  0
   -2.1550   22.8990  -29.1590 C   0  0  0  0  0  0  0  0  0  0  0  0
   -2.8960   21.7820  -29.5700 C   0  0  0  0  0  0  0  0  0  0  0  0
   -2.5200   20.4830  -29.0780 N   0  0  0  0  0  0  0  0  0  0  0  0
   -3.0190   20.0080  -27.9090 O   0  0  0  0  0  0  0  0  0  0  0  0
   -4.0000   21.9640  -30.4420 C   0  0  0  0  0  0  0  0  0  0  0  0
   -4.7450   20.8710  -30.9420 C   0  0  0  0  0  0  0  0  0  0  0  0
   -5.8240   21.0800  -31.8040 C   0  0  0  0  0  0  0  0  0  0  0  0
   -6.1770   22.3710  -32.1910 C   0  0  0  0  0  0  0  0  0  0  0  0
   -5.4450   23.4640  -31.7270 C   0  0  0  0  0  0  0  0  0  0  0  0
   -4.3490   23.2780  -30.8610 C   0  0  0  0  0  0  0  0  0  0  0  0
   -3.5920   24.3850  -30.4270 C   0  0  0  0  0  0  0  0  0  0  0  0
   -3.9200   25.6610  -30.8800 O   0  0  0  0  0  0  0  0  0  0  0  0
   -2.9131   25.8791  -24.7798 H   0  0  0  0  0  0  0  0  0  0  0  0
   -0.0626   25.9864  -27.9490 H   0  0  0  0  0  0  0  0  0  0  0  0
   -0.4218   24.2227  -27.8051 H   0  0  0  0  0  0  0  0  0  0  0  0
   -1.5980   26.1320  -29.7000 H   0  0  0  0  0  0  0  0  0  0  0  0
   -1.2844   22.7519  -28.5029 H   0  0  0  0  0  0  0  0  0  0  0  0
   -1.9140   19.8450  -29.6390 H   0  0  0  0  0  0  0  0  0  0  0  0
   -3.4300   20.7970  -27.4720 H   0  0  0  0  0  0  0  0  0  0  0  0
   -4.4722   19.8464  -30.6493 H   0  0  0  0  0  0  0  0  0  0  0  0
   -6.3984   20.2203  -32.1795 H   0  0  0  0  0  0  0  0  0  0  0  0
   -7.0336   22.5285  -32.8629 H   0  0  0  0  0  0  0  0  0  0  0  0
   -5.7259   24.4804  -32.0400 H   0  0  0  0  0  0  0  0  0  0  0  0
  1  2  3  0
  2  3  1  0
  3  4  1  0
  4  5  1  0
  5  6  2  0
  6  7  1  0
  7  8  1  0
  8  9  1  0
  7 10  2  0
 10 11  1  0
 11 12  2  0
 12 13  1  0
 13 14  2  0
 14 15  1  0
 15 16  2  0
 16 17  1  0
 16  5  1  0
 15 10  1  0
  1 18  1  0
  3 19  1  0
  3 20  1  0
  4 21  1  0
  6 22  1  0
  8 23  1  0
  9 24  1  0
 11 25  1  0
 12 26  1  0
 13 27  1  0
 14 28  1  0
M  CHG  1  17  -1
M  END
>  <UniqueID>  (30) 
30

>  <SMILES>  (30) 
C#CCNc1cc(NO)c2ccccc2c1[O-]

>  <Energy>  (30) 
36.65753050261235

>  <Genealogy>  (30) 
C#CCNc1cc(NO)c2ccccc2c1[O-] (protonated)
C#CCNc1cc(NO)c2ccccc2c1[O-] (3D coordinates assigned)
C#CCNc1cc(NO)c2ccccc2c1[O-] (optimized conformer: 36.65753050261235 kcal/mol)

>  <smiles>  (30) 
C#CCNc1cc(NO)c2ccccc2c1O

>  <score_type>  (30) 
oracle

>  <origin>  (30) 
adg

>  <m_score__min__energy>  (30) 
-8.1899999999999995

>  <m_primary>  (30) 
energy

$$$$
30:0
     RDKit          3D

 51 52  0  0  0  0  0  0  0  0999 V2000
   -4.5180   20.6030  -32.4090 C   0  0  0  0  0  0  0  0  0  0  0  0
   -4.0600   21.9290  -33.0260 C   0  0  0  0  0  0  0  0  0  0  0  0
   -4.9850   23.0400  -32.7280 N   0  0  0  0  0  0  0  0  0  0  0  0
   -6.1520   22.6390  -31.9180 C   0  0  0  0  0  0  0  0  0  0  0  0
   -6.8680   23.8490  -31.2820 C   0  0  0  0  0  0  0  0  0  0  0  0
   -6.1270   24.3740  -30.0400 C   0  0  0  0  0  0  0  0  0  0  0  0
   -5.1540   25.5070  -30.3780 C   0  0  0  0  0  0  0  0  0  0  0  0
   -3.8190   24.9420  -30.6350 N   0  0  0  0  0  0  0  0  0  0  0  0
   -3.5640   23.7430  -29.8160 C   0  0  1  0  0  0  0  0  0  0  0  0
   -2.4230   22.8820  -30.4180 C   0  0  0  0  0  0  0  0  0  0  0  0
   -1.3860   22.8180  -29.2710 C   0  0  1  0  0  0  0  0  0  0  0  0
   -0.7280   24.2180  -29.2010 C   0  0  0  0  0  0  0  0  0  0  0  0
   -1.8320   25.0870  -28.5660 C   0  0  0  0  0  0  0  0  0  0  0  0
   -2.9990   24.0740  -28.3940 C   0  0  1  0  0  0  0  0  0  0  0  0
   -4.0660   24.5370  -27.3930 C   0  0  0  0  0  0  0  0  0  0  0  0
   -2.2580   22.7690  -28.0080 C   0  0  0  0  0  0  0  0  0  0  0  0
   -3.1430   21.4880  -27.9070 C   0  0  0  0  0  0  0  0  0  0  0  0
   -1.4340   22.8170  -26.6840 C   0  0  0  0  0  0  0  0  0  0  0  0
   -4.4913   20.6804  -31.3121 H   0  0  0  0  0  0  0  0  0  0  0  0
   -5.5447   20.3816  -32.7360 H   0  0  0  0  0  0  0  0  0  0  0  0
   -3.8468   19.7952  -32.7360 H   0  0  0  0  0  0  0  0  0  0  0  0
   -3.0666   22.1799  -32.6257 H   0  0  0  0  0  0  0  0  0  0  0  0
   -4.0347   21.7987  -34.1180 H   0  0  0  0  0  0  0  0  0  0  0  0
   -4.4580   23.7930  -32.2290 H   0  0  0  0  0  0  0  0  0  0  0  0
   -5.3260   23.4590  -33.6250 H   0  0  0  0  0  0  0  0  0  0  0  0
   -6.8648   22.1060  -32.5644 H   0  0  0  0  0  0  0  0  0  0  0  0
   -5.7901   21.9957  -31.1024 H   0  0  0  0  0  0  0  0  0  0  0  0
   -6.9285   24.6566  -32.0264 H   0  0  0  0  0  0  0  0  0  0  0  0
   -7.8692   23.5215  -30.9653 H   0  0  0  0  0  0  0  0  0  0  0  0
   -6.8679   24.7479  -29.3181 H   0  0  0  0  0  0  0  0  0  0  0  0
   -5.5416   23.5421  -29.6214 H   0  0  0  0  0  0  0  0  0  0  0  0
   -5.5065   26.0389  -31.2740 H   0  0  0  0  0  0  0  0  0  0  0  0
   -5.1000   26.2102  -29.5339 H   0  0  0  0  0  0  0  0  0  0  0  0
   -3.1110   25.6710  -30.3880 H   0  0  0  0  0  0  0  0  0  0  0  0
   -4.5440   23.2447  -29.7785 H   0  0  0  0  0  0  0  0  0  0  0  0
   -2.7838   21.8765  -30.6802 H   0  0  0  0  0  0  0  0  0  0  0  0
   -2.0119   23.3002  -31.3486 H   0  0  0  0  0  0  0  0  0  0  0  0
   -0.6586   22.0007  -29.3842 H   0  0  0  0  0  0  0  0  0  0  0  0
    0.1733   24.2005  -28.5706 H   0  0  0  0  0  0  0  0  0  0  0  0
   -0.3927   24.5895  -30.1806 H   0  0  0  0  0  0  0  0  0  0  0  0
   -1.5103   25.4917  -27.5951 H   0  0  0  0  0  0  0  0  0  0  0  0
   -2.0998   25.9667  -29.1697 H   0  0  0  0  0  0  0  0  0  0  0  0
   -3.7004   24.3783  -26.3678 H   0  0  0  0  0  0  0  0  0  0  0  0
   -4.2737   25.6062  -27.5469 H   0  0  0  0  0  0  0  0  0  0  0  0
   -4.9888   23.9584  -27.5469 H   0  0  0  0  0  0  0  0  0  0  0  0
   -3.3128   21.2422  -26.8483 H   0  0  0  0  0  0  0  0  0  0  0  0
   -4.1090   21.6699  -28.4007 H   0  0  0  0  0  0  0  0  0  0  0  0
   -2.6311   20.6488  -28.4007 H   0  0  0  0  0  0  0  0  0  0  0  0
   -2.1189   22.7771  -25.8242 H   0  0  0  0  0  0  0  0  0  0  0  0
   -0.7488   21.9572  -26.6472 H   0  0  0  0  0  0  0  0  0  0  0  0
   -0.8533   23.7505  -26.6472 H   0  0  0  0  0  0  0  0  0  0  0  0
  1  2  1  0
  2  3  1  0
  3  4  1  0
  4  5  1  0
  5  6  1  0
  6  7  1  0
  7  8  1  0
  8  9  1  0
  9 10  1  0
 10 11  1  0
 11 12  1  0
 12 13  1  0
 13 14  1  0
 14 15  1  1
 14 16  1  0
 16 17  1  0
 16 18  1  0
 14  9  1  0
 16 11  1  0
  1 19  1  0
  1 20  1  0
  1 21  1  0
  2 22  1  0
  2 23  1  0
  3 24  1  0
  3 25  1  0
  4 26  1  0
  4 27  1  0
  5 28  1  0
  5 29  1  0
  6 30  1  0
  6 31  1  0
  7 32  1  0
  7 33  1  0
  8 34  1  0
  9 35  1  1
 10 36  1  0
 10 37  1  0
 11 38  1  6
 12 39  1  0
 12 40  1  0
 13 41  1  0
 13 42  1  0
 15 43  1  0
 15 44  1  0
 15 45  1  0
 17 46  1  0
 17 47  1  0
 17 48  1  0
 18 49  1  0
 18 50  1  0
 18 51  1  0
M  CHG  1   3   1
M  END
>  <UniqueID>  (31) 
31

>  <SMILES>  (31) 
CC[NH2+]CCCCN[C@H]1C[C@H]2CCC1(C)C2(C)C

>  <Energy>  (31) 
79.53637149327301

>  <Genealogy>  (31) 
CC[NH2+]CCCCNC1CC2CCC1(C)C2(C)C (protonated)
CC[NH2+]CCCCN[C@H]1C[C@H]2CCC1(C)C2(C)C (chirality)
CC[NH2+]CCCCN[C@H]1C[C@H]2CCC1(C)C2(C)C (3D coordinates assigned)
CC[NH2+]CCCCN[C@H]1C[C@H]2CCC1(C)C2(C)C (nonaromatic ring conformer: 79.53637149327301 kcal/mol)

>  <smiles>  (31) 
CCNCCCCNC1CC2CCC1(C)C2(C)C

>  <score_type>  (31) 
oracle

>  <origin>  (31) 
adg

>  <m_score__min__energy>  (31) 
-6.4800000000000004

>  <m_primary>  (31) 
energy

$$$$
31:0
     RDKit          3D

 59 61  0  0  0  0  0  0  0  0999 V2000
   -2.8610   19.6930  -27.0880 C   0  0  0  0  0  0  0  0  0  0  0  0
   -3.0310   20.8040  -28.1300 C   0  0  0  0  0  0  0  0  0  0  0  0
   -1.7310   21.4080  -28.5250 N   0  0  0  0  0  0  0  0  0  0  0  0
   -1.3960   22.7080  -27.8680 C   0  0  0  0  0  0  0  0  0  0  0  0
   -2.5960   23.5970  -27.4890 C   0  0  0  0  0  0  0  0  0  0  0  0
   -0.6140   20.4220  -28.5050 C   0  0  0  0  0  0  0  0  0  0  0  0
   -0.5310   19.4950  -29.7270 C   0  0  0  0  0  0  0  0  0  0  0  0
   -1.3170   20.0200  -30.7910 O   0  0  0  0  0  0  0  0  0  0  0  0
   -0.9170   21.1110  -31.5660 C   0  0  0  0  0  0  0  0  0  0  0  0
   -0.3140   22.0830  -31.0360 O   0  0  0  0  0  0  0  0  0  0  0  0
   -1.1550   21.0590  -33.0500 C   0  0  1  0  0  0  0  0  0  0  0  0
    0.1000   21.2860  -33.8990 C   0  0  0  0  0  0  0  0  0  0  0  0
   -0.0800   20.3780  -35.1140 C   0  0  0  0  0  0  0  0  0  0  0  0
   -0.9870   19.2430  -34.6430 C   0  0  0  0  0  0  0  0  0  0  0  0
   -1.6490   19.7510  -33.4520 N   0  0  0  0  0  0  0  0  0  0  0  0
   -2.8820   19.1990  -32.9710 C   0  0  0  0  0  0  0  0  0  0  0  0
   -2.9370   17.9650  -32.7090 O   0  0  0  0  0  0  0  0  0  0  0  0
   -4.0760   20.0580  -32.7650 C   0  0  0  0  0  0  0  0  0  0  0  0
   -5.3480   19.6140  -33.1650 C   0  0  0  0  0  0  0  0  0  0  0  0
   -6.4760   20.4190  -32.9730 C   0  0  0  0  0  0  0  0  0  0  0  0
   -6.3490   21.6740  -32.3770 C   0  0  0  0  0  0  0  0  0  0  0  0
   -5.0850   22.1430  -31.9760 C   0  0  0  0  0  0  0  0  0  0  0  0
   -4.9450   23.4260  -31.3390 N   0  0  0  0  0  0  0  0  0  0  0  0
   -6.0020   24.4290  -31.2200 C   0  0  0  0  0  0  0  0  0  0  0  0
   -5.3230   25.6820  -30.6200 C   0  0  0  0  0  0  0  0  0  0  0  0
   -3.9480   25.2950  -30.3020 N   0  0  0  0  0  0  0  0  0  0  0  0
   -3.7740   23.9700  -30.7580 C   0  0  0  0  0  0  0  0  0  0  0  0
   -2.7030   23.3270  -30.5930 O   0  0  0  0  0  0  0  0  0  0  0  0
   -3.9580   21.3290  -32.1770 C   0  0  0  0  0  0  0  0  0  0  0  0
   -2.9270   20.1242  -26.0782 H   0  0  0  0  0  0  0  0  0  0  0  0
   -3.6548   18.9429  -27.2190 H   0  0  0  0  0  0  0  0  0  0  0  0
   -1.8792   19.2146  -27.2190 H   0  0  0  0  0  0  0  0  0  0  0  0
   -3.5109   20.3802  -29.0245 H   0  0  0  0  0  0  0  0  0  0  0  0
   -3.6486   21.5960  -27.6812 H   0  0  0  0  0  0  0  0  0  0  0  0
   -1.8250   21.6370  -29.5450 H   0  0  0  0  0  0  0  0  0  0  0  0
   -0.8362   22.4864  -26.9474 H   0  0  0  0  0  0  0  0  0  0  0  0
   -0.8239   23.2804  -28.6130 H   0  0  0  0  0  0  0  0  0  0  0  0
   -2.6766   23.6567  -26.3936 H   0  0  0  0  0  0  0  0  0  0  0  0
   -2.4494   24.6062  -27.9014 H   0  0  0  0  0  0  0  0  0  0  0  0
   -3.5187   23.1628  -27.9014 H   0  0  0  0  0  0  0  0  0  0  0  0
    0.3310   20.9811  -28.4385 H   0  0  0  0  0  0  0  0  0  0  0  0
   -0.8027   19.7680  -27.6409 H   0  0  0  0  0  0  0  0  0  0  0  0
    0.5165   19.4152  -30.0531 H   0  0  0  0  0  0  0  0  0  0  0  0
   -0.9133   18.5008  -29.4524 H   0  0  0  0  0  0  0  0  0  0  0  0
   -1.8770   21.8698  -33.2270 H   0  0  0  0  0  0  0  0  0  0  0  0
    0.1723   22.3388  -34.2096 H   0  0  0  0  0  0  0  0  0  0  0  0
    1.0225   21.0589  -33.3445 H   0  0  0  0  0  0  0  0  0  0  0  0
   -0.5521   20.9300  -35.9401 H   0  0  0  0  0  0  0  0  0  0  0  0
    0.8832   20.0022  -35.4895 H   0  0  0  0  0  0  0  0  0  0  0  0
   -1.7264   18.9935  -35.4182 H   0  0  0  0  0  0  0  0  0  0  0  0
   -0.4200   18.3232  -34.4367 H   0  0  0  0  0  0  0  0  0  0  0  0
   -5.4577   18.6247  -33.6332 H   0  0  0  0  0  0  0  0  0  0  0  0
   -7.4659   20.0614  -33.2929 H   0  0  0  0  0  0  0  0  0  0  0  0
   -7.2405   22.2990  -32.2201 H   0  0  0  0  0  0  0  0  0  0  0  0
   -6.4260   24.6587  -32.2087 H   0  0  0  0  0  0  0  0  0  0  0  0
   -6.8299   24.0739  -30.5887 H   0  0  0  0  0  0  0  0  0  0  0  0
   -5.3274   26.5039  -31.3511 H   0  0  0  0  0  0  0  0  0  0  0  0
   -5.8555   26.0334  -29.7240 H   0  0  0  0  0  0  0  0  0  0  0  0
   -2.9665   21.6925  -31.8690 H   0  0  0  0  0  0  0  0  0  0  0  0
  1  2  1  0
  2  3  1  0
  3  4  1  0
  4  5  1  0
  3  6  1  0
  6  7  1  0
  7  8  1  0
  8  9  1  0
  9 10  2  0
  9 11  1  0
 11 12  1  0
 12 13  1  0
 13 14  1  0
 14 15  1  0
 15 16  1  0
 16 17  2  0
 16 18  1  0
 18 19  2  0
 19 20  1  0
 20 21  2  0
 21 22  1  0
 22 23  1  0
 23 24  1  0
 24 25  1  0
 25 26  1  0
 26 27  1  0
 27 28  2  0
 22 29  2  0
 15 11  1  0
 29 18  1  0
 27 23  1  0
  1 30  1  0
  1 31  1  0
  1 32  1  0
  2 33  1  0
  2 34  1  0
  3 35  1  0
  4 36  1  0
  4 37  1  0
  5 38  1  0
  5 39  1  0
  5 40  1  0
  6 41  1  0
  6 42  1  0
  7 43  1  0
  7 44  1  0
 11 45  1  6
 12 46  1  0
 12 47  1  0
 13 48  1  0
 13 49  1  0
 14 50  1  0
 14 51  1  0
 19 52  1  0
 20 53  1  0
 21 54  1  0
 24 55  1  0
 24 56  1  0
 25 57  1  0
 25 58  1  0
 29 59  1  0
M  CHG  2   3   1  26  -1
M  END
>  <UniqueID>  (32) 
32

>  <SMILES>  (32) 
CC[NH+](CC)CCOC(=O)[C@H]1CCCN1C(=O)c1cccc(N2CC[N-]C2=O)c1

>  <Energy>  (32) 
88.03413641933078

>  <Genealogy>  (32) 
CC[NH+](CC)CCOC(=O)C1CCCN1C(=O)c1cccc(N2CC[N-]C2=O)c1 (protonated)
CC[NH+](CC)CCOC(=O)[C@H]1CCCN1C(=O)c1cccc(N2CC[N-]C2=O)c1 (chirality)
CC[NH+](CC)CCOC(=O)[C@H]1CCCN1C(=O)c1cccc(N2CC[N-]C2=O)c1 (3D coordinates assigned)
CC[NH+](CC)CCOC(=O)[C@H]1CCCN1C(=O)c1cccc(N2CC[N-]C2=O)c1 (nonaromatic ring conformer: 88.03413641933078 kcal/mol)

>  <smiles>  (32) 
CCN(CC)CCOC(=O)C1CCCN1C(=O)c1cccc(N2CCNC2=O)c1

>  <score_type>  (32) 
oracle

>  <origin>  (32) 
adg

>  <m_score__min__energy>  (32) 
-8.5

>  <m_primary>  (32) 
energy

$$$$
32:0
     RDKit          3D

 46 49  0  0  0  0  0  0  0  0999 V2000
   -0.7910   25.9100  -27.7150 C   0  0  0  0  0  0  0  0  0  0  0  0
   -0.5480   24.8690  -28.6610 O   0  0  0  0  0  0  0  0  0  0  0  0
   -0.6850   23.5510  -28.2360 C   0  0  0  0  0  0  0  0  0  0  0  0
    0.3710   22.8930  -27.5850 C   0  0  0  0  0  0  0  0  0  0  0  0
    0.2200   21.5820  -27.1660 C   0  0  0  0  0  0  0  0  0  0  0  0
   -0.9730   20.8980  -27.3840 C   0  0  0  0  0  0  0  0  0  0  0  0
   -2.0030   21.5510  -28.0240 C   0  0  0  0  0  0  0  0  0  0  0  0
   -1.8540   22.8640  -28.4430 C   0  0  0  0  0  0  0  0  0  0  0  0
   -2.9720   23.4200  -29.1430 N   0  0  0  0  0  0  0  0  0  0  0  0
   -3.0520   23.1240  -30.4650 C   0  0  0  0  0  0  0  0  0  0  0  0
   -1.7180   22.1940  -31.1670 S   0  0  0  0  0  0  0  0  0  0  0  0
   -2.1830   21.0570  -32.4540 C   0  0  0  0  0  0  0  0  0  0  0  0
   -3.5660   20.5720  -32.4350 C   0  0  0  0  0  0  0  0  0  0  0  0
   -3.7630   19.3790  -32.1100 O   0  0  0  0  0  0  0  0  0  0  0  0
   -4.6540   21.4580  -32.7810 N   0  0  0  0  0  0  0  0  0  0  0  0
   -5.9470   20.8740  -32.7090 C   0  0  0  0  0  0  0  0  0  0  0  0
   -6.2650   19.6420  -33.2310 C   0  0  0  0  0  0  0  0  0  0  0  0
   -7.5680   19.2190  -33.0830 C   0  0  0  0  0  0  0  0  0  0  0  0
   -8.5340   19.9910  -32.4350 C   0  0  0  0  0  0  0  0  0  0  0  0
   -9.8110   19.5860  -32.2820 F   0  0  0  0  0  0  0  0  0  0  0  0
   -8.2060   21.2270  -31.9130 C   0  0  0  0  0  0  0  0  0  0  0  0
   -6.9150   21.6500  -32.0590 C   0  0  0  0  0  0  0  0  0  0  0  0
   -4.1070   23.5590  -31.2210 N   0  0  0  0  0  0  0  0  0  0  0  0
   -5.0860   24.2950  -30.6520 C   0  0  0  0  0  0  0  0  0  0  0  0
   -6.2200   24.8770  -31.0740 N   0  0  0  0  0  0  0  0  0  0  0  0
   -6.8160   25.4970  -30.0870 N   0  0  0  0  0  0  0  0  0  0  0  0
   -6.1110   25.3590  -28.9670 C   0  0  0  0  0  0  0  0  0  0  0  0
   -4.9980   24.5910  -29.3170 C   0  0  0  0  0  0  0  0  0  0  0  0
   -3.9250   24.1500  -28.5390 C   0  0  0  0  0  0  0  0  0  0  0  0
   -3.8250   24.4110  -27.3180 O   0  0  0  0  0  0  0  0  0  0  0  0
   -0.6972   25.5081  -26.6954 H   0  0  0  0  0  0  0  0  0  0  0  0
   -0.0569   26.7162  -27.8603 H   0  0  0  0  0  0  0  0  0  0  0  0
   -1.8062   26.3079  -27.8603 H   0  0  0  0  0  0  0  0  0  0  0  0
    1.3200   23.4201  -27.4076 H   0  0  0  0  0  0  0  0  0  0  0  0
    1.0519   21.0751  -26.6551 H   0  0  0  0  0  0  0  0  0  0  0  0
   -1.0906   19.8561  -27.0515 H   0  0  0  0  0  0  0  0  0  0  0  0
   -2.9526   21.0259  -28.2043 H   0  0  0  0  0  0  0  0  0  0  0  0
   -2.0193   21.5600  -33.4185 H   0  0  0  0  0  0  0  0  0  0  0  0
   -1.5611   20.1646  -32.2902 H   0  0  0  0  0  0  0  0  0  0  0  0
   -4.4860   22.4460  -33.0650 H   0  0  0  0  0  0  0  0  0  0  0  0
   -5.5137   19.0228  -33.7431 H   0  0  0  0  0  0  0  0  0  0  0  0
   -7.8572   18.2387  -33.4897 H   0  0  0  0  0  0  0  0  0  0  0  0
   -8.9555   21.8471  -31.3994 H   0  0  0  0  0  0  0  0  0  0  0  0
   -6.6268   22.6310  -31.6532 H   0  0  0  0  0  0  0  0  0  0  0  0
   -6.5370   24.8080  -32.0610 H   0  0  0  0  0  0  0  0  0  0  0  0
   -6.3538   25.7646  -27.9738 H   0  0  0  0  0  0  0  0  0  0  0  0
  1  2  1  0
  2  3  1  0
  3  4  2  0
  4  5  1  0
  5  6  2  0
  6  7  1  0
  7  8  2  0
  8  9  1  0
  9 10  1  0
 10 11  1  0
 11 12  1  0
 12 13  1  0
 13 14  2  0
 13 15  1  0
 15 16  1  0
 16 17  2  0
 17 18  1  0
 18 19  2  0
 19 20  1  0
 19 21  1  0
 21 22  2  0
 10 23  2  0
 23 24  1  0
 24 25  1  0
 25 26  1  0
 26 27  2  0
 27 28  1  0
 28 29  1  0
 29 30  2  0
  8  3  1  0
 29  9  1  0
 22 16  1  0
 28 24  2  0
  1 31  1  0
  1 32  1  0
  1 33  1  0
  4 34  1  0
  5 35  1  0
  6 36  1  0
  7 37  1  0
 12 38  1  0
 12 39  1  0
 15 40  1  0
 17 41  1  0
 18 42  1  0
 21 43  1  0
 22 44  1  0
 25 45  1  0
 27 46  1  0
M  END
>  <smiles>  (33) 
COc1ccccc1-n1c(SCC(=O)Nc2ccc(F)cc2)nc2[nH]ncc2c1=O

>  <score_type>  (33) 
oracle

>  <origin>  (33) 
adg

>  <m_score__min__energy>  (33) 
-8.6400000000000006

>  <m_primary>  (33) 
energy

$$$$
33:0
     RDKit          3D

 29 30  0  0  0  0  0  0  0  0999 V2000
   -6.9892   22.6987  -32.4877 H   0  0  0  0  0  0  0  0  0  0  0  0
   -6.5200   23.4590  -31.8460 C   0  0  0  0  0  0  0  0  0  0  0  0
   -6.0060   24.2920  -31.1430 C   0  0  0  0  0  0  0  0  0  0  0  0
   -5.3820   25.3090  -30.2890 C   0  0  0  0  0  0  0  0  0  0  0  0
   -5.7671   26.3011  -30.5672 H   0  0  0  0  0  0  0  0  0  0  0  0
   -5.6242   25.0887  -29.2389 H   0  0  0  0  0  0  0  0  0  0  0  0
   -3.9290   25.2940  -30.4520 N   0  0  0  0  0  0  0  0  0  0  0  0
   -3.1260   24.4580  -29.8620 C   0  0  0  0  0  0  0  0  0  0  0  0
   -2.7920   23.3000  -30.4840 N   0  0  0  0  0  0  0  0  0  0  0  0
   -1.9580   22.4010  -29.8990 C   0  0  0  0  0  0  0  0  0  0  0  0
   -1.6340   21.1200  -30.6000 C   0  0  0  0  0  0  0  0  0  0  0  0
   -1.4354   20.3348  -29.8557 H   0  0  0  0  0  0  0  0  0  0  0  0
   -2.4849   20.8214  -31.2299 H   0  0  0  0  0  0  0  0  0  0  0  0
   -0.7434   21.2618  -31.2299 H   0  0  0  0  0  0  0  0  0  0  0  0
   -1.4390   22.6620  -28.6270 C   0  0  0  0  0  0  0  0  0  0  0  0
   -0.7751   21.9370  -28.1334 H   0  0  0  0  0  0  0  0  0  0  0  0
   -1.7810   23.8670  -27.9910 C   0  0  0  0  0  0  0  0  0  0  0  0
   -1.2740   24.2130  -26.6380 C   0  0  0  0  0  0  0  0  0  0  0  0
   -0.5820   23.2500  -25.8830 C   0  0  0  0  0  0  0  0  0  0  0  0
   -0.4114   22.2445  -26.2952 H   0  0  0  0  0  0  0  0  0  0  0  0
   -0.1120   23.5730  -24.6090 C   0  0  0  0  0  0  0  0  0  0  0  0
    0.4347   22.8216  -24.0203 H   0  0  0  0  0  0  0  0  0  0  0  0
   -0.3270   24.8130  -24.0920 N   0  0  0  0  0  0  0  0  0  0  0  0
    0.0290   25.0380  -23.1370 H   0  0  0  0  0  0  0  0  0  0  0  0
   -1.0030   25.7620  -24.7920 C   0  0  0  0  0  0  0  0  0  0  0  0
   -1.1674   26.7554  -24.3492 H   0  0  0  0  0  0  0  0  0  0  0  0
   -1.4900   25.4820  -26.0710 C   0  0  0  0  0  0  0  0  0  0  0  0
   -2.0404   26.2511  -26.6327 H   0  0  0  0  0  0  0  0  0  0  0  0
   -2.6190   24.7300  -28.6270 N   0  0  0  0  0  0  0  0  0  0  0  0
  1  2  1  0
  2  3  3  0
  3  4  1  0
  4  5  1  0
  4  6  1  0
  4  7  1  0
  7  8  2  0
  8  9  1  0
  9 10  2  0
 10 11  1  0
 11 12  1  0
 11 13  1  0
 11 14  1  0
 10 15  1  0
 15 16  1  0
 15 17  2  0
 17 18  1  0
 18 19  2  0
 19 20  1  0
 19 21  1  0
 21 22  1  0
 21 23  2  0
 23 24  1  0
 23 25  1  0
 25 26  1  0
 25 27  2  0
 27 28  1  0
 17 29  1  0
 29  8  1  0
 27 18  1  0
M  CHG  2  23   1  29  -1
M  END
>  <UniqueID>  (34) 
33

>  <SMILES>  (34) 
C#CC/N=c1/nc(C)cc(-c2cc[nH+]cc2)[n-]1

>  <Energy>  (34) 
29.52074479786447

>  <Genealogy>  (34) 
C#CCN=c1nc(C)cc(-c2cc[nH+]cc2)[n-]1 (protonated)
C#CC/N=c1/nc(C)cc(-c2cc[nH+]cc2)[n-]1 (cis-trans isomerization)
C#CC/N=c1/nc(C)cc(-c2cc[nH+]cc2)[n-]1 (3D coordinates assigned)
C#CC/N=c1/nc(C)cc(-c2cc[nH+]cc2)[n-]1 (optimized conformer: 29.52074479786447 kcal/mol)

>  <smiles>  (34) 
C#CCN=c1nc(C)cc(-c2ccncc2)[nH]1

>  <score_type>  (34) 
oracle

>  <origin>  (34) 
adg

>  <m_score__min__energy>  (34) 
-7.4199999999999999

>  <m_primary>  (34) 
energy

$$$$
34:0
     RDKit          3D

 48 51  0  0  0  0  0  0  0  0999 V2000
   -0.8960   20.7320  -30.4120 C   0  0  0  0  0  0  0  0  0  0  0  0
   -1.6460   20.5790  -29.1280 C   0  0  0  0  0  0  0  0  0  0  0  0
   -1.6200   19.4570  -28.3830 N   0  0  0  0  0  0  0  0  0  0  0  0
   -2.3350   19.6600  -27.2880 N   0  0  0  0  0  0  0  0  0  0  0  0
   -2.5880   18.6480  -26.2720 C   0  0  0  0  0  0  0  0  0  0  0  0
   -2.8550   20.9020  -27.3160 C   0  0  0  0  0  0  0  0  0  0  0  0
   -2.4460   21.5210  -28.4850 C   0  0  0  0  0  0  0  0  0  0  0  0
   -2.7840   22.9000  -28.8880 C   0  0  0  0  0  0  0  0  0  0  0  0
   -2.1920   24.0630  -28.4140 C   0  0  0  0  0  0  0  0  0  0  0  0
   -2.7980   25.1500  -28.9560 N   0  0  0  0  0  0  0  0  0  0  0  0
   -3.7540   24.6160  -29.7420 C   0  0  0  0  0  0  0  0  0  0  0  0
   -4.6980   25.3130  -30.4850 C   0  0  0  0  0  0  0  0  0  0  0  0
   -5.6520   24.5590  -31.1850 C   0  0  0  0  0  0  0  0  0  0  0  0
   -5.6300   23.1450  -31.1120 C   0  0  0  0  0  0  0  0  0  0  0  0
   -6.6080   22.3440  -31.8010 N   0  0  0  0  0  0  0  0  0  0  0  0
   -8.0200   22.7700  -31.8450 C   0  0  0  0  0  0  0  0  0  0  0  0
   -9.0050   21.6380  -31.4730 C   0  0  0  0  0  0  0  0  0  0  0  0
   -8.7610   20.2960  -32.1840 C   0  0  0  0  0  0  0  0  0  0  0  0
   -7.8000   19.4310  -31.4650 N   0  0  0  0  0  0  0  0  0  0  0  0
   -7.9940   18.0260  -31.8590 C   0  0  0  0  0  0  0  0  0  0  0  0
   -6.3780   19.8340  -31.5900 C   0  0  0  0  0  0  0  0  0  0  0  0
   -6.1490   21.0980  -32.4460 C   0  0  0  0  0  0  0  0  0  0  0  0
   -4.6780   22.5370  -30.3440 N   0  0  0  0  0  0  0  0  0  0  0  0
   -3.7680   23.2770  -29.7160 N   0  0  0  0  0  0  0  0  0  0  0  0
    0.1608   20.9476  -30.1959 H   0  0  0  0  0  0  0  0  0  0  0  0
   -0.9689   19.8005  -30.9925 H   0  0  0  0  0  0  0  0  0  0  0  0
   -1.3280   21.5605  -30.9925 H   0  0  0  0  0  0  0  0  0  0  0  0
   -1.1170   18.5700  -28.6120 H   0  0  0  0  0  0  0  0  0  0  0  0
   -2.4762   19.0952  -25.2732 H   0  0  0  0  0  0  0  0  0  0  0  0
   -3.6108   18.2600  -26.3876 H   0  0  0  0  0  0  0  0  0  0  0  0
   -1.8681   17.8243  -26.3876 H   0  0  0  0  0  0  0  0  0  0  0  0
   -3.4959   21.3488  -26.5416 H   0  0  0  0  0  0  0  0  0  0  0  0
   -1.3537   24.0984  -27.7026 H   0  0  0  0  0  0  0  0  0  0  0  0
   -4.6977   26.4123  -30.5231 H   0  0  0  0  0  0  0  0  0  0  0  0
   -6.4173   25.0664  -31.7907 H   0  0  0  0  0  0  0  0  0  0  0  0
   -8.1576   23.6008  -31.1373 H   0  0  0  0  0  0  0  0  0  0  0  0
   -8.2405   23.0708  -32.8798 H   0  0  0  0  0  0  0  0  0  0  0  0
   -8.9323   21.4666  -30.3889 H   0  0  0  0  0  0  0  0  0  0  0  0
   -9.9986   21.9793  -31.7990 H   0  0  0  0  0  0  0  0  0  0  0  0
   -9.7197   19.7629  -32.2666 H   0  0  0  0  0  0  0  0  0  0  0  0
   -8.3306   20.5186  -33.1715 H   0  0  0  0  0  0  0  0  0  0  0  0
   -8.0803   17.4011  -30.9579 H   0  0  0  0  0  0  0  0  0  0  0  0
   -8.9130   17.9364  -32.4568 H   0  0  0  0  0  0  0  0  0  0  0  0
   -7.1336   17.6907  -32.4568 H   0  0  0  0  0  0  0  0  0  0  0  0
   -5.9841   20.0253  -30.5809 H   0  0  0  0  0  0  0  0  0  0  0  0
   -5.8605   19.0090  -32.1016 H   0  0  0  0  0  0  0  0  0  0  0  0
   -5.0718   21.1889  -32.6494 H   0  0  0  0  0  0  0  0  0  0  0  0
   -6.7413   20.9751  -33.3647 H   0  0  0  0  0  0  0  0  0  0  0  0
  1  2  1  0
  2  3  2  0
  3  4  1  0
  4  5  1  0
  4  6  1  0
  6  7  2  0
  7  8  1  0
  8  9  2  0
  9 10  1  0
 10 11  2  0
 11 12  1  0
 12 13  2  0
 13 14  1  0
 14 15  1  0
 15 16  1  0
 16 17  1  0
 17 18  1  0
 18 19  1  0
 19 20  1  0
 19 21  1  0
 21 22  1  0
 14 23  2  0
 23 24  1  0
  7  2  1  0
 24  8  1  0
 24 11  1  0
 22 15  1  0
  1 25  1  0
  1 26  1  0
  1 27  1  0
  3 28  1  0
  5 29  1  0
  5 30  1  0
  5 31  1  0
  6 32  1  0
  9 33  1  0
 12 34  1  0
 13 35  1  0
 16 36  1  0
 16 37  1  0
 17 38  1  0
 17 39  1  0
 18 40  1  0
 18 41  1  0
 20 42  1  0
 20 43  1  0
 20 44  1  0
 21 45  1  0
 21 46  1  0
 22 47  1  0
 22 48  1  0
M  CHG  1   3   1
M  END
>  <UniqueID>  (35) 
34

>  <SMILES>  (35) 
Cc1[nH+]n(C)cc1-c1cnc2ccc(N3CCCN(C)CC3)nn12

>  <Energy>  (35) 
133.39510943960613

>  <Genealogy>  (35) 
Cc1[nH+]n(C)cc1-c1cnc2ccc(N3CCCN(C)CC3)nn12 (protonated)
Cc1[nH+]n(C)cc1-c1cnc2ccc(N3CCCN(C)CC3)nn12 (3D coordinates assigned)
Cc1[nH+]n(C)cc1-c1cnc2ccc(N3CCCN(C)CC3)nn12 (nonaromatic ring conformer: 133.39510943960613 kcal/mol)

>  <smiles>  (35) 
Cc1nn(C)cc1-c1cnc2ccc(N3CCCN(C)CC3)nn12

>  <score_type>  (35) 
oracle

>  <origin>  (35) 
adg

>  <m_score__min__energy>  (35) 
-5.3799999999999999

>  <m_primary>  (35) 
energy

$$$$
35:0
     RDKit          3D

 50 52  0  0  0  0  0  0  0  0999 V2000
   -6.6750   17.6430  -33.4330 C   0  0  0  0  0  0  0  0  0  0  0  0
   -5.7180   18.2570  -34.4480 C   0  0  0  0  0  0  0  0  0  0  0  0
   -5.4860   19.6330  -34.1530 O   0  0  0  0  0  0  0  0  0  0  0  0
   -5.4520   20.1500  -32.8520 C   0  0  0  0  0  0  0  0  0  0  0  0
   -4.5760   19.7450  -32.0390 O   0  0  0  0  0  0  0  0  0  0  0  0
   -6.4550   21.1680  -32.4390 C   0  0  0  0  0  0  0  0  0  0  0  0
   -7.8100   20.7900  -32.3510 C   0  0  0  0  0  0  0  0  0  0  0  0
   -8.7840   21.7110  -31.9680 C   0  0  0  0  0  0  0  0  0  0  0  0
   -8.4270   23.0230  -31.6670 C   0  0  0  0  0  0  0  0  0  0  0  0
   -7.0920   23.4210  -31.7480 C   0  0  0  0  0  0  0  0  0  0  0  0
   -6.0900   22.5030  -32.1330 C   0  0  0  0  0  0  0  0  0  0  0  0
   -4.7390   22.8890  -32.2160 O   0  0  0  0  0  0  0  0  0  0  0  0
   -3.7190   22.5510  -31.2770 C   0  0  0  0  0  0  0  0  0  0  0  0
   -3.3520   23.7440  -30.4370 C   0  0  0  0  0  0  0  0  0  0  0  0
   -3.8800   24.8580  -30.7020 O   0  0  0  0  0  0  0  0  0  0  0  0
   -2.4220   23.6410  -29.3400 N   0  0  0  0  0  0  0  0  0  0  0  0
   -2.1600   22.3500  -28.6830 C   0  0  0  0  0  0  0  0  0  0  0  0
   -1.9490   22.5350  -27.1730 C   0  0  0  0  0  0  0  0  0  0  0  0
   -1.1050   23.7000  -26.8730 N   0  0  0  0  0  0  0  0  0  0  0  0
   -0.7810   23.9910  -25.5030 C   0  0  0  0  0  0  0  0  0  0  0  0
   -0.5100   23.0460  -24.7140 O   0  0  0  0  0  0  0  0  0  0  0  0
   -0.8080   25.3710  -24.9870 C   0  0  0  0  0  0  0  0  0  0  0  0
   -0.3320   25.7850  -23.7590 C   0  0  0  0  0  0  0  0  0  0  0  0
   -0.5800   27.1390  -23.7000 C   0  0  0  0  0  0  0  0  0  0  0  0
   -1.1950   27.4680  -24.8910 C   0  0  0  0  0  0  0  0  0  0  0  0
   -1.3180   26.3940  -25.6360 O   0  0  0  0  0  0  0  0  0  0  0  0
   -0.5370   24.4900  -27.9710 C   0  0  0  0  0  0  0  0  0  0  0  0
   -1.6380   24.8310  -28.9740 C   0  0  0  0  0  0  0  0  0  0  0  0
   -6.3239   17.8682  -32.4151 H   0  0  0  0  0  0  0  0  0  0  0  0
   -7.6809   18.0648  -33.5757 H   0  0  0  0  0  0  0  0  0  0  0  0
   -6.7109   16.5529  -33.5757 H   0  0  0  0  0  0  0  0  0  0  0  0
   -4.7615   17.7146  -34.4167 H   0  0  0  0  0  0  0  0  0  0  0  0
   -6.1671   18.1805  -35.4492 H   0  0  0  0  0  0  0  0  0  0  0  0
   -8.1024   19.7562  -32.5873 H   0  0  0  0  0  0  0  0  0  0  0  0
   -9.8373   21.4005  -31.9034 H   0  0  0  0  0  0  0  0  0  0  0  0
   -9.1985   23.7466  -31.3650 H   0  0  0  0  0  0  0  0  0  0  0  0
   -6.8175   24.4592  -31.5098 H   0  0  0  0  0  0  0  0  0  0  0  0
   -4.0840   21.7466  -30.6215 H   0  0  0  0  0  0  0  0  0  0  0  0
   -2.8269   22.2193  -31.8285 H   0  0  0  0  0  0  0  0  0  0  0  0
   -3.0182   21.6818  -28.8473 H   0  0  0  0  0  0  0  0  0  0  0  0
   -1.2461   21.9157  -29.1145 H   0  0  0  0  0  0  0  0  0  0  0  0
   -2.9286   22.6730  -26.6920 H   0  0  0  0  0  0  0  0  0  0  0  0
   -1.4395   21.6389  -26.7892 H   0  0  0  0  0  0  0  0  0  0  0  0
    0.1460   25.1630  -22.9878 H   0  0  0  0  0  0  0  0  0  0  0  0
   -0.3370   27.8202  -22.8712 H   0  0  0  0  0  0  0  0  0  0  0  0
   -1.5310   28.4767  -25.1731 H   0  0  0  0  0  0  0  0  0  0  0  0
   -0.1057   25.4189  -27.5697 H   0  0  0  0  0  0  0  0  0  0  0  0
    0.2499   23.9081  -28.4732 H   0  0  0  0  0  0  0  0  0  0  0  0
   -2.3101   25.5780  -28.5266 H   0  0  0  0  0  0  0  0  0  0  0  0
   -1.1645   25.2257  -29.8850 H   0  0  0  0  0  0  0  0  0  0  0  0
  1  2  1  0
  2  3  1  0
  3  4  1  0
  4  5  2  0
  4  6  1  0
  6  7  2  0
  7  8  1  0
  8  9  2  0
  9 10  1  0
 10 11  2  0
 11 12  1  0
 12 13  1  0
 13 14  1  0
 14 15  2  0
 14 16  1  0
 16 17  1  0
 17 18  1  0
 18 19  1  0
 19 20  1  0
 20 21  2  0
 20 22  1  0
 22 23  2  0
 23 24  1  0
 24 25  2  0
 25 26  1  0
 19 27  1  0
 27 28  1  0
 11  6  1  0
 28 16  1  0
 26 22  1  0
  1 29  1  0
  1 30  1  0
  1 31  1  0
  2 32  1  0
  2 33  1  0
  7 34  1  0
  8 35  1  0
  9 36  1  0
 10 37  1  0
 13 38  1  0
 13 39  1  0
 17 40  1  0
 17 41  1  0
 18 42  1  0
 18 43  1  0
 23 44  1  0
 24 45  1  0
 25 46  1  0
 27 47  1  0
 27 48  1  0
 28 49  1  0
 28 50  1  0
M  END
>  <UniqueID>  (36) 
35

>  <SMILES>  (36) 
CCOC(=O)c1ccccc1OCC(=O)N1CCN(C(=O)c2ccco2)CC1

>  <Energy>  (36) 
78.18550907461288

>  <Genealogy>  (36) 
CCOC(=O)c1ccccc1OCC(=O)N1CCN(C(=O)c2ccco2)CC1 (3D coordinates assigned)
CCOC(=O)c1ccccc1OCC(=O)N1CCN(C(=O)c2ccco2)CC1 (nonaromatic ring conformer: 78.18550907461288 kcal/mol)

>  <smiles>  (36) 
CCOC(=O)c1ccccc1OCC(=O)N1CCN(C(=O)c2ccco2)CC1

>  <score_type>  (36) 
oracle

>  <origin>  (36) 
adg

>  <m_score__min__energy>  (36) 
-7.7400000000000002

>  <m_primary>  (36) 
energy

$$$$
36:0
     RDKit          3D

 37 39  0  0  0  0  0  0  0  0999 V2000
   -0.9590   26.0840  -27.8220 C   0  0  0  0  0  0  0  0  0  0  0  0
   -1.6670   25.6570  -28.9820 O   0  0  0  0  0  0  0  0  0  0  0  0
   -2.1090   24.3430  -29.2060 C   0  0  0  0  0  0  0  0  0  0  0  0
   -1.4550   23.2270  -28.6470 C   0  0  0  0  0  0  0  0  0  0  0  0
   -1.9190   21.9230  -28.8910 C   0  0  0  0  0  0  0  0  0  0  0  0
   -1.2130   20.7620  -28.2910 C   0  0  0  0  0  0  0  0  0  0  0  0
   -1.7320   19.8340  -27.4070 C   0  0  0  0  0  0  0  0  0  0  0  0
   -0.7650   18.9520  -27.1130 N   0  0  0  0  0  0  0  0  0  0  0  0
    0.3110   19.3500  -27.8140 C   0  0  0  0  0  0  0  0  0  0  0  0
    0.0760   20.4560  -28.5490 N   0  0  0  0  0  0  0  0  0  0  0  0
   -3.0520   21.7480  -29.7030 C   0  0  0  0  0  0  0  0  0  0  0  0
   -3.7040   22.8490  -30.2590 C   0  0  0  0  0  0  0  0  0  0  0  0
   -3.2370   24.1530  -30.0190 C   0  0  0  0  0  0  0  0  0  0  0  0
   -3.8610   25.2880  -30.5650 O   0  0  0  0  0  0  0  0  0  0  0  0
   -5.2430   25.6210  -30.4220 C   0  0  0  0  0  0  0  0  0  0  0  0
   -6.1160   24.4400  -30.7520 C   0  0  0  0  0  0  0  0  0  0  0  0
   -6.8010   23.7530  -29.7360 C   0  0  0  0  0  0  0  0  0  0  0  0
   -7.6180   22.6620  -30.0510 C   0  0  0  0  0  0  0  0  0  0  0  0
   -7.7620   22.2560  -31.3800 C   0  0  0  0  0  0  0  0  0  0  0  0
   -7.0940   22.9420  -32.3980 C   0  0  0  0  0  0  0  0  0  0  0  0
   -6.2760   24.0330  -32.0860 C   0  0  0  0  0  0  0  0  0  0  0  0
   -1.4999   25.7578  -26.9215 H   0  0  0  0  0  0  0  0  0  0  0  0
    0.0487   25.6429  -27.8244 H   0  0  0  0  0  0  0  0  0  0  0  0
   -0.8790   27.1811  -27.8244 H   0  0  0  0  0  0  0  0  0  0  0  0
   -0.5700   23.3784  -28.0115 H   0  0  0  0  0  0  0  0  0  0  0  0
   -2.7591   19.8212  -27.0134 H   0  0  0  0  0  0  0  0  0  0  0  0
   -0.8340   18.1290  -26.4750 H   0  0  0  0  0  0  0  0  0  0  0  0
    1.2796   18.8291  -27.7905 H   0  0  0  0  0  0  0  0  0  0  0  0
   -3.4284   20.7338  -29.9022 H   0  0  0  0  0  0  0  0  0  0  0  0
   -4.5913   22.6953  -30.8907 H   0  0  0  0  0  0  0  0  0  0  0  0
   -5.4334   25.9309  -29.3839 H   0  0  0  0  0  0  0  0  0  0  0  0
   -5.4814   26.4398  -31.1168 H   0  0  0  0  0  0  0  0  0  0  0  0
   -6.6946   24.0740  -28.6893 H   0  0  0  0  0  0  0  0  0  0  0  0
   -8.1476   22.1232  -29.2515 H   0  0  0  0  0  0  0  0  0  0  0  0
   -8.4018   21.3955  -31.6254 H   0  0  0  0  0  0  0  0  0  0  0  0
   -7.2115   22.6241  -33.4445 H   0  0  0  0  0  0  0  0  0  0  0  0
   -5.7557   24.5746  -32.8897 H   0  0  0  0  0  0  0  0  0  0  0  0
  1  2  1  0
  2  3  1  0
  3  4  2  0
  4  5  1  0
  5  6  1  0
  6  7  2  0
  7  8  1  0
  8  9  1  0
  9 10  2  0
  5 11  2  0
 11 12  1  0
 12 13  2  0
 13 14  1  0
 14 15  1  0
 15 16  1  0
 16 17  2  0
 17 18  1  0
 18 19  2  0
 19 20  1  0
 20 21  2  0
 13  3  1  0
 21 16  1  0
 10  6  1  0
  1 22  1  0
  1 23  1  0
  1 24  1  0
  4 25  1  0
  7 26  1  0
  8 27  1  0
  9 28  1  0
 11 29  1  0
 12 30  1  0
 15 31  1  0
 15 32  1  0
 17 33  1  0
 18 34  1  0
 19 35  1  0
 20 36  1  0
 21 37  1  0
M  END
>  <UniqueID>  (37) 
36

>  <SMILES>  (37) 
COc1cc(-c2c[nH]cn2)ccc1OCc1ccccc1

>  <Energy>  (37) 
68.88097531700276

>  <Genealogy>  (37) 
COc1cc(-c2c[nH]cn2)ccc1OCc1ccccc1 (3D coordinates assigned)
COc1cc(-c2c[nH]cn2)ccc1OCc1ccccc1 (optimized conformer: 68.88097531700276 kcal/mol)

>  <smiles>  (37) 
COc1cc(-c2c[nH]cn2)ccc1OCc1ccccc1

>  <score_type>  (37) 
oracle

>  <origin>  (37) 
adg

>  <m_score__min__energy>  (37) 
-7.96

>  <m_primary>  (37) 
energy

$$$$
37:0
     RDKit          3D

 40 41  0  0  0  0  0  0  0  0999 V2000
   -6.4750   16.4450  -33.8910 C   0  0  0  0  0  0  0  0  0  0  0  0
   -6.0560   17.9170  -34.0240 C   0  0  0  0  0  0  0  0  0  0  0  0
   -6.6930   18.8170  -33.0320 N   0  0  0  0  0  0  0  0  0  0  0  0
   -7.7360   18.1760  -32.1990 C   0  0  0  0  0  0  0  0  0  0  0  0
   -9.0380   18.9740  -32.2140 C   0  0  0  0  0  0  0  0  0  0  0  0
   -5.7060   19.5670  -32.2190 C   0  0  0  0  0  0  0  0  0  0  0  0
   -5.4320   20.9340  -32.8520 C   0  0  0  0  0  0  0  0  0  0  0  0
   -6.2590   22.0140  -32.2190 C   0  0  0  0  0  0  0  0  0  0  0  0
   -7.6480   22.0850  -32.1950 C   0  0  0  0  0  0  0  0  0  0  0  0
   -8.0530   23.1400  -31.4510 N   0  0  0  0  0  0  0  0  0  0  0  0
   -6.9310   23.7260  -30.9970 C   0  0  0  0  0  0  0  0  0  0  0  0
   -6.8390   24.8360  -30.1630 C   0  0  0  0  0  0  0  0  0  0  0  0
   -5.5570   25.2700  -29.7800 C   0  0  0  0  0  0  0  0  0  0  0  0
   -4.3940   24.5840  -30.2340 C   0  0  0  0  0  0  0  0  0  0  0  0
   -3.1010   24.9830  -29.8700 O   0  0  0  0  0  0  0  0  0  0  0  0
   -2.2620   24.2670  -28.9700 C   0  0  0  0  0  0  0  0  0  0  0  0
   -4.5320   23.4630  -31.0750 C   0  0  0  0  0  0  0  0  0  0  0  0
   -5.8170   23.0660  -31.4400 C   0  0  0  0  0  0  0  0  0  0  0  0
   -6.5504   16.1800  -32.8261 H   0  0  0  0  0  0  0  0  0  0  0  0
   -7.4511   16.2964  -34.3759 H   0  0  0  0  0  0  0  0  0  0  0  0
   -5.7235   15.8046  -34.3759 H   0  0  0  0  0  0  0  0  0  0  0  0
   -4.9651   17.9790  -33.8971 H   0  0  0  0  0  0  0  0  0  0  0  0
   -6.3864   18.2536  -35.0177 H   0  0  0  0  0  0  0  0  0  0  0  0
   -7.9322   17.1658  -32.5877 H   0  0  0  0  0  0  0  0  0  0  0  0
   -7.3704   18.1345  -31.1624 H   0  0  0  0  0  0  0  0  0  0  0  0
   -9.3593   19.1709  -31.1806 H   0  0  0  0  0  0  0  0  0  0  0  0
   -8.8769   19.9287  -32.7361 H   0  0  0  0  0  0  0  0  0  0  0  0
   -9.8156   18.3972  -32.7361 H   0  0  0  0  0  0  0  0  0  0  0  0
   -6.1045   19.7096  -31.2037 H   0  0  0  0  0  0  0  0  0  0  0  0
   -4.7670   18.9957  -32.1761 H   0  0  0  0  0  0  0  0  0  0  0  0
   -4.3673   21.1791  -32.7243 H   0  0  0  0  0  0  0  0  0  0  0  0
   -5.6983   20.8781  -33.9178 H   0  0  0  0  0  0  0  0  0  0  0  0
   -8.3216   21.3829  -32.7082 H   0  0  0  0  0  0  0  0  0  0  0  0
   -9.0390   23.4230  -31.2530 H   0  0  0  0  0  0  0  0  0  0  0  0
   -7.7418   25.3585  -29.8137 H   0  0  0  0  0  0  0  0  0  0  0  0
   -5.4516   26.1468  -29.1242 H   0  0  0  0  0  0  0  0  0  0  0  0
   -2.5446   24.5082  -27.9347 H   0  0  0  0  0  0  0  0  0  0  0  0
   -2.3796   23.1866  -29.1400 H   0  0  0  0  0  0  0  0  0  0  0  0
   -1.2135   24.5530  -29.1400 H   0  0  0  0  0  0  0  0  0  0  0  0
   -3.6486   22.9150  -31.4345 H   0  0  0  0  0  0  0  0  0  0  0  0
  1  2  1  0
  2  3  1  0
  3  4  1  0
  4  5  1  0
  3  6  1  0
  6  7  1  0
  7  8  1  0
  8  9  2  0
  9 10  1  0
 10 11  1  0
 11 12  2  0
 12 13  1  0
 13 14  2  0
 14 15  1  0
 15 16  1  0
 14 17  1  0
 17 18  2  0
 18  8  1  0
 18 11  1  0
  1 19  1  0
  1 20  1  0
  1 21  1  0
  2 22  1  0
  2 23  1  0
  4 24  1  0
  4 25  1  0
  5 26  1  0
  5 27  1  0
  5 28  1  0
  6 29  1  0
  6 30  1  0
  7 31  1  0
  7 32  1  0
  9 33  1  0
 10 34  1  0
 12 35  1  0
 13 36  1  0
 16 37  1  0
 16 38  1  0
 16 39  1  0
 17 40  1  0
M  END
>  <UniqueID>  (38) 
37

>  <SMILES>  (38) 
CCN(CC)CCc1c[nH]c2ccc(OC)cc12

>  <Energy>  (38) 
70.34533360076338

>  <Genealogy>  (38) 
CCN(CC)CCc1c[nH]c2ccc(OC)cc12 (3D coordinates assigned)
CCN(CC)CCc1c[nH]c2ccc(OC)cc12 (optimized conformer: 70.34533360076338 kcal/mol)

>  <smiles>  (38) 
CCN(CC)CCc1c[nH]c2ccc(OC)cc12

>  <score_type>  (38) 
oracle

>  <origin>  (38) 
adg

>  <m_score__min__energy>  (38) 
-7.0599999999999996

>  <m_primary>  (38) 
energy

$$$$
38:0
     RDKit          3D

 63 66  0  0  0  0  0  0  0  0999 V2000
   -8.6734   23.5707  -30.9805 H   0  0  0  0  0  0  0  0  0  0  0  0
   -8.3160   22.5750  -31.2820 C   0  0  0  0  0  0  0  0  0  0  0  0
   -9.2680   21.3280  -31.8870 S   0  0  0  0  0  0  0  0  0  0  0  0
   -7.9650   20.2710  -32.0450 C   0  0  0  0  0  0  0  0  0  0  0  0
   -8.0060   19.0650  -32.5330 N   0  0  0  0  0  0  0  0  0  0  0  0
   -6.9150   18.3500  -33.1350 C   0  0  0  0  0  0  0  0  0  0  0  0
   -6.0990   18.9430  -34.1150 C   0  0  0  0  0  0  0  0  0  0  0  0
   -6.2686   19.9888  -34.4111 H   0  0  0  0  0  0  0  0  0  0  0  0
   -5.0740   18.2070  -34.7130 C   0  0  0  0  0  0  0  0  0  0  0  0
   -4.4281   18.6790  -35.4681 H   0  0  0  0  0  0  0  0  0  0  0  0
   -4.8670   16.8740  -34.3550 C   0  0  0  0  0  0  0  0  0  0  0  0
   -4.0513   16.3035  -34.8232 H   0  0  0  0  0  0  0  0  0  0  0  0
   -5.6900   16.2570  -33.4040 C   0  0  0  0  0  0  0  0  0  0  0  0
   -5.4480   14.9130  -33.0850 O   0  0  0  0  0  0  0  0  0  0  0  0
   -4.5910   14.4760  -32.0370 C   0  0  0  0  0  0  0  0  0  0  0  0
   -5.0507   14.7104  -31.0656 H   0  0  0  0  0  0  0  0  0  0  0  0
   -4.4378   13.3897  -32.1175 H   0  0  0  0  0  0  0  0  0  0  0  0
   -3.6218   14.9900  -32.1175 H   0  0  0  0  0  0  0  0  0  0  0  0
   -6.7240   17.0030  -32.8050 C   0  0  0  0  0  0  0  0  0  0  0  0
   -7.3876   16.5225  -32.0710 H   0  0  0  0  0  0  0  0  0  0  0  0
   -6.8090   20.8490  -31.6620 N   0  0  0  0  0  0  0  0  0  0  0  0
   -6.9900   22.1280  -31.2280 C   0  0  0  0  0  0  0  0  0  0  0  0
   -5.8540   22.9590  -30.7520 C   0  0  0  0  0  0  0  0  0  0  0  0
   -4.5590   22.4170  -30.6560 C   0  0  0  0  0  0  0  0  0  0  0  0
   -4.3830   21.3710  -30.9475 H   0  0  0  0  0  0  0  0  0  0  0  0
   -3.4950   23.1950  -30.1940 C   0  0  0  0  0  0  0  0  0  0  0  0
   -2.4889   22.7554  -30.1270 H   0  0  0  0  0  0  0  0  0  0  0  0
   -3.6940   24.5250  -29.8160 C   0  0  0  0  0  0  0  0  0  0  0  0
   -2.5860   25.2550  -29.3510 O   0  0  0  0  0  0  0  0  0  0  0  0
   -2.0280   25.1750  -28.0390 C   0  0  0  0  0  0  0  0  0  0  0  0
   -2.5993   24.4446  -27.4472 H   0  0  0  0  0  0  0  0  0  0  0  0
   -2.0801   26.1689  -27.5705 H   0  0  0  0  0  0  0  0  0  0  0  0
   -0.5610   24.7350  -28.1020 C   0  0  0  0  0  0  0  0  0  0  0  0
   -0.2217   24.4662  -27.0907 H   0  0  0  0  0  0  0  0  0  0  0  0
    0.0390   25.5668  -28.4997 H   0  0  0  0  0  0  0  0  0  0  0  0
   -0.3920   23.5150  -29.0330 C   0  0  0  0  0  0  0  0  0  0  0  0
    0.5064   23.6721  -29.6480 H   0  0  0  0  0  0  0  0  0  0  0  0
   -1.3117   23.4448  -29.6324 H   0  0  0  0  0  0  0  0  0  0  0  0
   -0.2480   22.2250  -28.3220 N   0  0  0  0  0  0  0  0  0  0  0  0
   -0.9900   22.1750  -27.0430 C   0  0  0  0  0  0  0  0  0  0  0  0
   -2.0078   22.5602  -27.2030 H   0  0  0  0  0  0  0  0  0  0  0  0
   -0.4550   22.7904  -26.3047 H   0  0  0  0  0  0  0  0  0  0  0  0
   -1.0760   20.7380  -26.5090 C   0  0  0  0  0  0  0  0  0  0  0  0
   -1.6456   20.7455  -25.5680 H   0  0  0  0  0  0  0  0  0  0  0  0
   -0.0479   20.3768  -26.3586 H   0  0  0  0  0  0  0  0  0  0  0  0
   -1.7440   19.8110  -27.4630 N   0  0  0  0  0  0  0  0  0  0  0  0
   -3.1250   19.4820  -27.0520 C   0  0  0  0  0  0  0  0  0  0  0  0
   -3.6421   18.9856  -27.8863 H   0  0  0  0  0  0  0  0  0  0  0  0
   -3.6461   20.4122  -26.7815 H   0  0  0  0  0  0  0  0  0  0  0  0
   -3.1170   18.5520  -25.8420 C   0  0  0  0  0  0  0  0  0  0  0  0
   -3.1222   19.1508  -24.9193 H   0  0  0  0  0  0  0  0  0  0  0  0
   -4.0097   17.9097  -25.8673 H   0  0  0  0  0  0  0  0  0  0  0  0
   -2.2134   17.9252  -25.8673 H   0  0  0  0  0  0  0  0  0  0  0  0
   -1.7130   20.2780  -28.8690 C   0  0  0  0  0  0  0  0  0  0  0  0
   -2.5634   20.9542  -29.0411 H   0  0  0  0  0  0  0  0  0  0  0  0
   -1.7754   19.4000  -29.5287 H   0  0  0  0  0  0  0  0  0  0  0  0
   -0.4080   21.0260  -29.1780 C   0  0  0  0  0  0  0  0  0  0  0  0
   -0.4177   21.3394  -30.2324 H   0  0  0  0  0  0  0  0  0  0  0  0
    0.4330   20.3461  -28.9768 H   0  0  0  0  0  0  0  0  0  0  0  0
   -4.9840   25.0790  -29.9170 C   0  0  0  0  0  0  0  0  0  0  0  0
   -5.1518   26.1287  -29.6340 H   0  0  0  0  0  0  0  0  0  0  0  0
   -6.0540   24.3030  -30.3750 C   0  0  0  0  0  0  0  0  0  0  0  0
   -7.2790   24.8810  -30.4690 F   0  0  0  0  0  0  0  0  0  0  0  0
  1  2  1  0
  2  3  1  0
  3  4  1  0
  4  5  2  0
  5  6  1  0
  6  7  2  0
  7  8  1  0
  7  9  1  0
  9 10  1  0
  9 11  2  0
 11 12  1  0
 11 13  1  0
 13 14  1  0
 14 15  1  0
 15 16  1  0
 15 17  1  0
 15 18  1  0
 13 19  2  0
 19 20  1  0
  4 21  1  0
 21 22  1  0
 22 23  1  0
 23 24  2  0
 24 25  1  0
 24 26  1  0
 26 27  1  0
 26 28  2  0
 28 29  1  0
 29 30  1  0
 30 31  1  0
 30 32  1  0
 30 33  1  0
 33 34  1  0
 33 35  1  0
 33 36  1  0
 36 37  1  0
 36 38  1  0
 36 39  1  0
 39 40  1  0
 40 41  1  0
 40 42  1  0
 40 43  1  0
 43 44  1  0
 43 45  1  0
 43 46  1  0
 46 47  1  0
 47 48  1  0
 47 49  1  0
 47 50  1  0
 50 51  1  0
 50 52  1  0
 50 53  1  0
 46 54  1  0
 54 55  1  0
 54 56  1  0
 54 57  1  0
 57 58  1  0
 57 59  1  0
 28 60  1  0
 60 61  1  0
 60 62  2  0
 62 63  1  0
 22  2  2  0
 62 23  1  0
 19  6  1  0
 57 39  1  0
M  CHG  1  21  -1
M  END
>  <UniqueID>  (39) 
38

>  <SMILES>  (39) 
CCN1CCN(CCCOc2ccc(-c3cs/c(=N\c4cccc(OC)c4)[n-]3)c(F)c2)CC1

>  <Energy>  (39) 
116.78603900799827

>  <Genealogy>  (39) 
CCN1CCN(CCCOc2ccc(-c3csc(=Nc4cccc(OC)c4)[n-]3)c(F)c2)CC1 (protonated)
CCN1CCN(CCCOc2ccc(-c3cs/c(=N\c4cccc(OC)c4)[n-]3)c(F)c2)CC1 (cis-trans isomerization)
CCN1CCN(CCCOc2ccc(-c3cs/c(=N\c4cccc(OC)c4)[n-]3)c(F)c2)CC1 (3D coordinates assigned)
CCN1CCN(CCCOc2ccc(-c3cs/c(=N\c4cccc(OC)c4)[n-]3)c(F)c2)CC1 (nonaromatic ring conformer: 116.78603900799827 kcal/mol)

>  <smiles>  (39) 
CCN1CCN(CCCOc2ccc(-c3csc(=Nc4cccc(OC)c4)[nH]3)c(F)c2)CC1

>  <score_type>  (39) 
oracle

>  <origin>  (39) 
adg

>  <m_score__min__energy>  (39) 
-10.779999999999999

>  <m_primary>  (39) 
energy

$$$$
39:0
     RDKit          3D

 68 71  0  0  0  0  0  0  0  0999 V2000
   -8.3250   22.2960  -29.8730 C   0  0  0  0  0  0  0  0  0  0  0  0
   -6.9330   22.1190  -30.4750 C   0  0  0  0  0  0  0  0  0  0  0  0
   -6.9610   22.4640  -31.9220 N   0  0  0  0  0  0  0  0  0  0  0  0
   -7.0820   21.2210  -32.7390 C   0  0  0  0  0  0  0  0  0  0  0  0
   -7.7320   20.0380  -31.9840 C   0  0  0  0  0  0  0  0  0  0  0  0
   -7.3290   18.7390  -32.5710 N   0  0  0  0  0  0  0  0  0  0  0  0
   -6.6770   17.8550  -31.5650 C   0  0  0  0  0  0  0  0  0  0  0  0
   -5.5580   16.9970  -32.1650 C   0  0  0  0  0  0  0  0  0  0  0  0
   -4.5090   17.8670  -32.7340 N   0  0  0  0  0  0  0  0  0  0  0  0
   -3.4260   17.1230  -33.4110 C   0  0  0  0  0  0  0  0  0  0  0  0
   -2.7010   17.9320  -34.5070 C   0  0  0  0  0  0  0  0  0  0  0  0
   -1.7820   18.9470  -33.8820 C   0  0  0  0  0  0  0  0  0  0  0  0
   -1.7420   20.2660  -34.3700 C   0  0  0  0  0  0  0  0  0  0  0  0
   -0.8620   21.1980  -33.8120 C   0  0  0  0  0  0  0  0  0  0  0  0
   -0.0100   20.8190  -32.7710 C   0  0  0  0  0  0  0  0  0  0  0  0
   -0.0320   19.5070  -32.2880 C   0  0  0  0  0  0  0  0  0  0  0  0
   -0.9110   18.5710  -32.8450 C   0  0  0  0  0  0  0  0  0  0  0  0
   -5.0160   19.0350  -33.4940 C   0  0  0  0  0  0  0  0  0  0  0  0
   -6.5200   18.9290  -33.8010 C   0  0  0  0  0  0  0  0  0  0  0  0
   -5.8650   23.3910  -32.3610 C   0  0  1  0  0  0  0  0  0  0  0  0
   -5.6970   24.5880  -31.3560 C   0  0  0  0  0  0  0  0  0  0  0  0
   -4.3410   24.8550  -30.9930 O   0  0  0  0  0  0  0  0  0  0  0  0
   -3.4910   23.8010  -30.6680 C   0  0  0  0  0  0  0  0  0  0  0  0
   -3.6250   22.6170  -31.3890 C   0  0  0  0  0  0  0  0  0  0  0  0
   -2.8090   21.5190  -31.0880 C   0  0  0  0  0  0  0  0  0  0  0  0
   -1.8790   21.6100  -30.0490 C   0  0  0  0  0  0  0  0  0  0  0  0
   -1.7370   22.8040  -29.3320 C   0  0  0  0  0  0  0  0  0  0  0  0
   -2.5410   23.9190  -29.6450 C   0  0  0  0  0  0  0  0  0  0  0  0
   -2.4370   25.1390  -28.9600 O   0  0  0  0  0  0  0  0  0  0  0  0
   -1.9670   25.2730  -27.6210 C   0  0  0  0  0  0  0  0  0  0  0  0
   -4.5000   22.6590  -32.6060 C   0  0  0  0  0  0  0  0  0  0  0  0
   -8.2536   22.2869  -28.7754 H   0  0  0  0  0  0  0  0  0  0  0  0
   -8.7488   23.2553  -30.2050 H   0  0  0  0  0  0  0  0  0  0  0  0
   -8.9754   21.4733  -30.2050 H   0  0  0  0  0  0  0  0  0  0  0  0
   -6.2239   22.7805  -29.9557 H   0  0  0  0  0  0  0  0  0  0  0  0
   -6.6176   21.0717  -30.3578 H   0  0  0  0  0  0  0  0  0  0  0  0
   -7.6950   21.4462  -33.6242 H   0  0  0  0  0  0  0  0  0  0  0  0
   -6.0602   20.9101  -33.0022 H   0  0  0  0  0  0  0  0  0  0  0  0
   -7.4168   20.0685  -30.9306 H   0  0  0  0  0  0  0  0  0  0  0  0
   -8.8249   20.1321  -32.0658 H   0  0  0  0  0  0  0  0  0  0  0  0
   -6.2500   18.4832  -30.7693 H   0  0  0  0  0  0  0  0  0  0  0  0
   -7.4464   17.1715  -31.1766 H   0  0  0  0  0  0  0  0  0  0  0  0
   -5.1207   16.3651  -31.3779 H   0  0  0  0  0  0  0  0  0  0  0  0
   -5.9747   16.3630  -32.9615 H   0  0  0  0  0  0  0  0  0  0  0  0
   -2.6856   16.8243  -32.6543 H   0  0  0  0  0  0  0  0  0  0  0  0
   -3.8939   16.2605  -33.9081 H   0  0  0  0  0  0  0  0  0  0  0  0
   -2.1124   17.2469  -35.1349 H   0  0  0  0  0  0  0  0  0  0  0  0
   -3.4490   18.4551  -35.1209 H   0  0  0  0  0  0  0  0  0  0  0  0
   -2.4061   20.5652  -35.1943 H   0  0  0  0  0  0  0  0  0  0  0  0
   -0.8402   22.2299  -34.1924 H   0  0  0  0  0  0  0  0  0  0  0  0
    0.6794   21.5544  -32.3307 H   0  0  0  0  0  0  0  0  0  0  0  0
    0.6414   19.2105  -31.4703 H   0  0  0  0  0  0  0  0  0  0  0  0
   -0.9202   17.5370  -32.4697 H   0  0  0  0  0  0  0  0  0  0  0  0
   -4.8399   19.9450  -32.9016 H   0  0  0  0  0  0  0  0  0  0  0  0
   -4.4799   19.0680  -34.4540 H   0  0  0  0  0  0  0  0  0  0  0  0
   -6.8460   19.8531  -34.3007 H   0  0  0  0  0  0  0  0  0  0  0  0
   -6.6730   18.0512  -34.4460 H   0  0  0  0  0  0  0  0  0  0  0  0
   -6.1755   23.7966  -33.3352 H   0  0  0  0  0  0  0  0  0  0  0  0
   -6.1150   25.4925  -31.8221 H   0  0  0  0  0  0  0  0  0  0  0  0
   -6.2243   24.3054  -30.4329 H   0  0  0  0  0  0  0  0  0  0  0  0
   -2.8999   20.5884  -31.6674 H   0  0  0  0  0  0  0  0  0  0  0  0
   -1.2561   20.7401  -29.7935 H   0  0  0  0  0  0  0  0  0  0  0  0
   -0.9959   22.8724  -28.5220 H   0  0  0  0  0  0  0  0  0  0  0  0
   -2.7830   25.0404  -26.9210 H   0  0  0  0  0  0  0  0  0  0  0  0
   -1.1314   24.5773  -27.4544 H   0  0  0  0  0  0  0  0  0  0  0  0
   -1.6239   26.3048  -27.4544 H   0  0  0  0  0  0  0  0  0  0  0  0
   -3.9599   23.1854  -33.4068 H   0  0  0  0  0  0  0  0  0  0  0  0
   -4.7314   21.6186  -32.8780 H   0  0  0  0  0  0  0  0  0  0  0  0
  1  2  1  0
  2  3  1  0
  3  4  1  0
  4  5  1  0
  5  6  1  0
  6  7  1  0
  7  8  1  0
  8  9  1  0
  9 10  1  0
 10 11  1  0
 11 12  1  0
 12 13  2  0
 13 14  1  0
 14 15  2  0
 15 16  1  0
 16 17  2  0
  9 18  1  0
 18 19  1  0
  3 20  1  0
 20 21  1  0
 21 22  1  0
 22 23  1  0
 23 24  2  0
 24 25  1  0
 25 26  2  0
 26 27  1  0
 27 28  2  0
 28 29  1  0
 29 30  1  0
 24 31  1  0
 19  6  1  0
 31 20  1  0
 17 12  1  0
 28 23  1  0
  1 32  1  0
  1 33  1  0
  1 34  1  0
  2 35  1  0
  2 36  1  0
  4 37  1  0
  4 38  1  0
  5 39  1  0
  5 40  1  0
  7 41  1  0
  7 42  1  0
  8 43  1  0
  8 44  1  0
 10 45  1  0
 10 46  1  0
 11 47  1  0
 11 48  1  0
 13 49  1  0
 14 50  1  0
 15 51  1  0
 16 52  1  0
 17 53  1  0
 18 54  1  0
 18 55  1  0
 19 56  1  0
 19 57  1  0
 20 58  1  6
 21 59  1  0
 21 60  1  0
 25 61  1  0
 26 62  1  0
 27 63  1  0
 30 64  1  0
 30 65  1  0
 30 66  1  0
 31 67  1  0
 31 68  1  0
M  END
>  <UniqueID>  (40) 
39

>  <SMILES>  (40) 
CCN(CCN1CCN(CCc2ccccc2)CC1)[C@H]1COc2c(cccc2OC)C1

>  <Energy>  (40) 
105.64140309523818

>  <Genealogy>  (40) 
CCN(CCN1CCN(CCc2ccccc2)CC1)[C@H]1COc2c(cccc2OC)C1 (chirality)
CCN(CCN1CCN(CCc2ccccc2)CC1)[C@H]1COc2c(cccc2OC)C1 (3D coordinates assigned)
CCN(CCN1CCN(CCc2ccccc2)CC1)[C@H]1COc2c(cccc2OC)C1 (nonaromatic ring conformer: 105.64140309523818 kcal/mol)

>  <smiles>  (40) 
CCN(CCN1CCN(CCc2ccccc2)CC1)C1COc2c(cccc2OC)C1

>  <score_type>  (40) 
oracle

>  <origin>  (40) 
adg

>  <m_score__min__energy>  (40) 
-9.6799999999999997

>  <m_primary>  (40) 
energy

$$$$
40:0
     RDKit          3D

 33 35  0  0  0  0  0  0  0  0999 V2000
   -1.3100   25.8720  -29.9320 H   0  0  0  0  0  0  0  0  0  0  0  0
   -1.8820   25.2920  -29.2790 N   0  0  0  0  0  0  0  0  0  0  0  0
   -2.8520   24.5510  -29.7070 C   0  0  0  0  0  0  0  0  0  0  0  0
   -2.8660   23.2140  -29.4050 N   0  0  0  0  0  0  0  0  0  0  0  0
   -3.8710   22.3970  -29.8370 C   0  0  0  0  0  0  0  0  0  0  0  0
   -3.8700   21.1750  -29.5370 O   0  0  0  0  0  0  0  0  0  0  0  0
   -4.8850   22.9600  -30.6040 C   0  0  0  0  0  0  0  0  0  0  0  0
   -6.0230   22.4510  -31.1990 C   0  0  0  0  0  0  0  0  0  0  0  0
   -6.5760   20.7420  -31.2010 S   0  0  0  0  0  0  0  0  0  0  0  0
   -5.3190   20.2290  -32.3720 C   0  0  0  0  0  0  0  0  0  0  0  0
   -5.5790   19.1960  -33.2800 C   0  0  0  0  0  0  0  0  0  0  0  0
   -6.5605   18.6994  -33.2803 H   0  0  0  0  0  0  0  0  0  0  0  0
   -4.5950   18.7950  -34.1850 C   0  0  0  0  0  0  0  0  0  0  0  0
   -4.8013   17.9791  -34.8934 H   0  0  0  0  0  0  0  0  0  0  0  0
   -3.3480   19.4270  -34.1940 C   0  0  0  0  0  0  0  0  0  0  0  0
   -2.5743   19.1044  -34.9063 H   0  0  0  0  0  0  0  0  0  0  0  0
   -3.0800   20.4770  -33.2920 C   0  0  0  0  0  0  0  0  0  0  0  0
   -1.8490   21.1480  -33.2620 O   0  0  0  0  0  0  0  0  0  0  0  0
   -1.1690   21.5240  -32.0690 C   0  0  0  0  0  0  0  0  0  0  0  0
   -1.7544   21.2003  -31.1957 H   0  0  0  0  0  0  0  0  0  0  0  0
   -0.1790   21.0451  -32.0448 H   0  0  0  0  0  0  0  0  0  0  0  0
   -1.0482   22.6171  -32.0448 H   0  0  0  0  0  0  0  0  0  0  0  0
   -4.0750   20.8720  -32.3890 C   0  0  0  0  0  0  0  0  0  0  0  0
   -3.8775   21.6951  -31.6865 H   0  0  0  0  0  0  0  0  0  0  0  0
   -6.6460   23.5460  -31.8040 C   0  0  0  0  0  0  0  0  0  0  0  0
   -7.8970   23.5040  -32.6230 C   0  0  0  0  0  0  0  0  0  0  0  0
   -8.7712   23.4747  -31.9559 H   0  0  0  0  0  0  0  0  0  0  0  0
   -7.9500   24.4009  -33.2577 H   0  0  0  0  0  0  0  0  0  0  0  0
   -7.8898   22.6056  -33.2577 H   0  0  0  0  0  0  0  0  0  0  0  0
   -5.9160   24.6720  -31.6200 N   0  0  0  0  0  0  0  0  0  0  0  0
   -6.1280   25.6310  -31.9760 H   0  0  0  0  0  0  0  0  0  0  0  0
   -4.8570   24.2940  -30.8860 C   0  0  0  0  0  0  0  0  0  0  0  0
   -3.8580   25.1000  -30.4540 N   0  0  0  0  0  0  0  0  0  0  0  0
  1  2  1  0
  2  3  2  0
  3  4  1  0
  4  5  1  0
  5  6  2  0
  5  7  1  0
  7  8  1  0
  8  9  1  0
  9 10  1  0
 10 11  2  0
 11 12  1  0
 11 13  1  0
 13 14  1  0
 13 15  2  0
 15 16  1  0
 15 17  1  0
 17 18  1  0
 18 19  1  0
 19 20  1  0
 19 21  1  0
 19 22  1  0
 17 23  2  0
 23 24  1  0
  8 25  2  0
 25 26  1  0
 26 27  1  0
 26 28  1  0
 26 29  1  0
 25 30  1  0
 30 31  1  0
 30 32  1  0
 32 33  1  0
 33  3  1  0
 32  7  2  0
 23 10  1  0
M  CHG  2   4  -1  33  -1
M  END
>  <UniqueID>  (41) 
40

>  <SMILES>  (41) 
[H]/N=c1/[n-]c(=O)c2c(Sc3cccc(OC)c3)c(C)[nH]c2[n-]1

>  <Energy>  (41) 
65.51333370603761

>  <Genealogy>  (41) 
COc1cccc(Sc2c(C)[nH]c3[n-]c(=N)[n-]c(=O)c23)c1 (protonated)
[H]/N=c1/[n-]c(=O)c2c(Sc3cccc(OC)c3)c(C)[nH]c2[n-]1 (cis-trans isomerization)
[H]/N=c1/[n-]c(=O)c2c(Sc3cccc(OC)c3)c(C)[nH]c2[n-]1 (3D coordinates assigned)
[H]/N=c1/[n-]c(=O)c2c(Sc3cccc(OC)c3)c(C)[nH]c2[n-]1 (optimized conformer: 65.51333370603761 kcal/mol)

>  <smiles>  (41) 
COc1cccc(Sc2c(C)[nH]c3[nH]c(=N)[nH]c(=O)c23)c1

>  <score_type>  (41) 
oracle

>  <origin>  (41) 
adg

>  <m_score__min__energy>  (41) 
-9.3699999999999992

>  <m_primary>  (41) 
energy

$$$$
41:0
     RDKit          3D

 51 52  0  0  0  0  0  0  0  0999 V2000
   -0.8910   26.7950  -23.7750 C   0  0  0  0  0  0  0  0  0  0  0  0
   -1.5250   26.4090  -25.1170 C   0  0  0  0  0  0  0  0  0  0  0  0
   -1.0080   25.1170  -25.6430 N   0  0  0  0  0  0  0  0  0  0  0  0
    0.0120   24.5460  -24.7230 C   0  0  0  0  0  0  0  0  0  0  0  0
   -0.1470   23.0340  -24.5030 C   0  0  0  0  0  0  0  0  0  0  0  0
   -0.4210   25.2850  -27.0100 C   0  0  0  0  0  0  0  0  0  0  0  0
   -1.2260   26.2810  -27.8610 C   0  0  0  0  0  0  0  0  0  0  0  0
   -1.9940   25.5930  -28.8470 O   0  0  0  0  0  0  0  0  0  0  0  0
   -2.8850   24.5540  -28.5480 C   0  0  0  0  0  0  0  0  0  0  0  0
   -2.8100   23.9550  -27.4390 O   0  0  0  0  0  0  0  0  0  0  0  0
   -3.9180   24.1640  -29.5330 C   0  0  0  0  0  0  0  0  0  0  0  0
   -5.2400   24.6160  -29.3900 C   0  0  0  0  0  0  0  0  0  0  0  0
   -6.2170   24.2510  -30.3190 C   0  0  0  0  0  0  0  0  0  0  0  0
   -5.8980   23.4280  -31.4090 C   0  0  0  0  0  0  0  0  0  0  0  0
   -6.9290   23.0700  -32.3480 N   0  0  0  0  0  0  0  0  0  0  0  0
   -8.0180   22.1430  -32.0310 C   0  0  0  0  0  0  0  0  0  0  0  0
   -7.6270   20.7300  -32.3700 C   0  0  0  0  0  0  0  0  0  0  0  0
   -8.4470   19.6560  -31.9830 C   0  0  0  0  0  0  0  0  0  0  0  0
   -8.1020   18.3460  -32.3310 C   0  0  0  0  0  0  0  0  0  0  0  0
   -6.9440   18.1000  -33.0760 C   0  0  0  0  0  0  0  0  0  0  0  0
   -6.4770   16.3100  -33.5510 Br  0  0  0  0  0  0  0  0  0  0  0  0
   -6.1330   19.1660  -33.4770 C   0  0  0  0  0  0  0  0  0  0  0  0
   -6.4750   20.4760  -33.1320 C   0  0  0  0  0  0  0  0  0  0  0  0
   -4.5740   22.9750  -31.5530 C   0  0  0  0  0  0  0  0  0  0  0  0
   -3.5940   23.3400  -30.6240 C   0  0  0  0  0  0  0  0  0  0  0  0
   -1.5146   26.4153  -22.9522 H   0  0  0  0  0  0  0  0  0  0  0  0
    0.1152   26.3561  -23.7051 H   0  0  0  0  0  0  0  0  0  0  0  0
   -0.8189   27.8904  -23.7051 H   0  0  0  0  0  0  0  0  0  0  0  0
   -2.6133   26.3239  -24.9811 H   0  0  0  0  0  0  0  0  0  0  0  0
   -1.2672   27.1923  -25.8450 H   0  0  0  0  0  0  0  0  0  0  0  0
   -1.8060   24.4390  -25.6790 H   0  0  0  0  0  0  0  0  0  0  0  0
    1.0093   24.7342  -25.1473 H   0  0  0  0  0  0  0  0  0  0  0  0
   -0.1213   25.0333  -23.7459 H   0  0  0  0  0  0  0  0  0  0  0  0
   -0.1694   22.8208  -23.4241 H   0  0  0  0  0  0  0  0  0  0  0  0
   -1.0859   22.6932  -24.9637 H   0  0  0  0  0  0  0  0  0  0  0  0
    0.7005   22.5053  -24.9637 H   0  0  0  0  0  0  0  0  0  0  0  0
    0.6105   25.6540  -26.9112 H   0  0  0  0  0  0  0  0  0  0  0  0
   -0.4458   24.3077  -27.5142 H   0  0  0  0  0  0  0  0  0  0  0  0
   -1.9034   26.8501  -27.2073 H   0  0  0  0  0  0  0  0  0  0  0  0
   -0.5258   26.9613  -28.3679 H   0  0  0  0  0  0  0  0  0  0  0  0
   -5.5078   25.2618  -28.5407 H   0  0  0  0  0  0  0  0  0  0  0  0
   -7.2482   24.6131  -30.1944 H   0  0  0  0  0  0  0  0  0  0  0  0
   -6.8940   23.4960  -33.3030 H   0  0  0  0  0  0  0  0  0  0  0  0
   -8.2460   22.2071  -30.9568 H   0  0  0  0  0  0  0  0  0  0  0  0
   -8.9020   22.4183  -32.6250 H   0  0  0  0  0  0  0  0  0  0  0  0
   -9.3631   19.8464  -31.4046 H   0  0  0  0  0  0  0  0  0  0  0  0
   -8.7423   17.5080  -32.0184 H   0  0  0  0  0  0  0  0  0  0  0  0
   -5.2238   18.9729  -34.0653 H   0  0  0  0  0  0  0  0  0  0  0  0
   -5.8392   21.3121  -33.4587 H   0  0  0  0  0  0  0  0  0  0  0  0
   -4.3074   22.3290  -32.4024 H   0  0  0  0  0  0  0  0  0  0  0  0
   -2.5623   22.9793  -30.7485 H   0  0  0  0  0  0  0  0  0  0  0  0
  1  2  1  0
  2  3  1  0
  3  4  1  0
  4  5  1  0
  3  6  1  0
  6  7  1  0
  7  8  1  0
  8  9  1  0
  9 10  2  0
  9 11  1  0
 11 12  2  0
 12 13  1  0
 13 14  2  0
 14 15  1  0
 15 16  1  0
 16 17  1  0
 17 18  2  0
 18 19  1  0
 19 20  2  0
 20 21  1  0
 20 22  1  0
 22 23  2  0
 14 24  1  0
 24 25  2  0
 25 11  1  0
 23 17  1  0
  1 26  1  0
  1 27  1  0
  1 28  1  0
  2 29  1  0
  2 30  1  0
  3 31  1  0
  4 32  1  0
  4 33  1  0
  5 34  1  0
  5 35  1  0
  5 36  1  0
  6 37  1  0
  6 38  1  0
  7 39  1  0
  7 40  1  0
 12 41  1  0
 13 42  1  0
 15 43  1  0
 16 44  1  0
 16 45  1  0
 18 46  1  0
 19 47  1  0
 22 48  1  0
 23 49  1  0
 24 50  1  0
 25 51  1  0
M  CHG  1   3   1
M  END
>  <UniqueID>  (42) 
41

>  <SMILES>  (42) 
CC[NH+](CC)CCOC(=O)c1ccc(NCc2ccc(Br)cc2)cc1

>  <Energy>  (42) 
52.03517756696688

>  <Genealogy>  (42) 
CC[NH+](CC)CCOC(=O)c1ccc(NCc2ccc(Br)cc2)cc1 (protonated)
CC[NH+](CC)CCOC(=O)c1ccc(NCc2ccc(Br)cc2)cc1 (3D coordinates assigned)
CC[NH+](CC)CCOC(=O)c1ccc(NCc2ccc(Br)cc2)cc1 (optimized conformer: 52.03517756696688 kcal/mol)

>  <smiles>  (42) 
CCN(CC)CCOC(=O)c1ccc(NCc2ccc(Br)cc2)cc1

>  <score_type>  (42) 
oracle

>  <origin>  (42) 
adg

>  <m_score__min__energy>  (42) 
-7.75

>  <m_primary>  (42) 
energy

$$$$
42:0
     RDKit          3D

 39 38  0  0  0  0  0  0  0  0999 V2000
   -8.3520   18.5520  -31.9630 C   0  0  0  0  0  0  0  0  0  0  0  0
   -9.1070   19.8100  -32.3920 C   0  0  0  0  0  0  0  0  0  0  0  0
   -8.7970   21.0270  -31.5050 C   0  0  0  0  0  0  0  0  0  0  0  0
   -7.6210   21.9000  -31.9900 C   0  0  0  0  0  0  0  0  0  0  0  0
   -7.6970   23.3860  -31.5930 C   0  0  0  0  0  0  0  0  0  0  0  0
   -6.3410   24.1090  -31.4750 C   0  0  0  0  0  0  0  0  0  0  0  0
   -5.8490   24.2860  -30.0260 C   0  0  0  0  0  0  0  0  0  0  0  0
   -4.3710   24.5840  -29.9540 C   0  0  0  0  0  0  0  0  0  0  0  0
   -3.8760   25.3310  -30.8420 O   0  0  0  0  0  0  0  0  0  0  0  0
   -3.5120   24.0390  -28.9250 N   0  0  0  0  0  0  0  0  0  0  0  0
   -4.0260   23.6460  -27.6020 C   0  0  0  0  0  0  0  0  0  0  0  0
   -4.1880   24.8630  -26.6920 C   0  0  0  0  0  0  0  0  0  0  0  0
   -2.0700   23.9160  -29.1910 C   0  0  0  0  0  0  0  0  0  0  0  0
   -1.3110   25.0870  -28.5780 C   0  0  0  0  0  0  0  0  0  0  0  0
   -8.3207   18.4998  -30.8647 H   0  0  0  0  0  0  0  0  0  0  0  0
   -8.8661   17.6633  -32.3578 H   0  0  0  0  0  0  0  0  0  0  0  0
   -7.3259   18.5876  -32.3578 H   0  0  0  0  0  0  0  0  0  0  0  0
   -8.8272   20.0508  -33.4282 H   0  0  0  0  0  0  0  0  0  0  0  0
  -10.1821   19.5978  -32.2964 H   0  0  0  0  0  0  0  0  0  0  0  0
   -9.6970   21.6581  -31.4636 H   0  0  0  0  0  0  0  0  0  0  0  0
   -8.5010   20.6270  -30.5240 H   0  0  0  0  0  0  0  0  0  0  0  0
   -6.6931   21.4834  -31.5711 H   0  0  0  0  0  0  0  0  0  0  0  0
   -7.6578   21.8765  -33.0891 H   0  0  0  0  0  0  0  0  0  0  0  0
   -8.2960   23.9099  -32.3524 H   0  0  0  0  0  0  0  0  0  0  0  0
   -8.1410   23.4085  -30.5868 H   0  0  0  0  0  0  0  0  0  0  0  0
   -5.5890   23.5259  -32.0268 H   0  0  0  0  0  0  0  0  0  0  0  0
   -6.4817   25.1185  -31.8888 H   0  0  0  0  0  0  0  0  0  0  0  0
   -6.4004   25.1185  -29.5646 H   0  0  0  0  0  0  0  0  0  0  0  0
   -6.0275   23.3406  -29.4927 H   0  0  0  0  0  0  0  0  0  0  0  0
   -5.0038   23.1578  -27.7268 H   0  0  0  0  0  0  0  0  0  0  0  0
   -3.3061   22.9557  -27.1380 H   0  0  0  0  0  0  0  0  0  0  0  0
   -4.1454   24.5428  -25.6405 H   0  0  0  0  0  0  0  0  0  0  0  0
   -3.3773   25.5796  -26.8902 H   0  0  0  0  0  0  0  0  0  0  0  0
   -5.1579   25.3426  -26.8902 H   0  0  0  0  0  0  0  0  0  0  0  0
   -1.7003   22.9767  -28.7539 H   0  0  0  0  0  0  0  0  0  0  0  0
   -1.9080   23.9182  -30.2790 H   0  0  0  0  0  0  0  0  0  0  0  0
   -1.3553   25.0187  -27.4810 H   0  0  0  0  0  0  0  0  0  0  0  0
   -0.2613   25.0552  -28.9053 H   0  0  0  0  0  0  0  0  0  0  0  0
   -1.7687   26.0322  -28.9053 H   0  0  0  0  0  0  0  0  0  0  0  0
  1  2  1  0
  2  3  1  0
  3  4  1  0
  4  5  1  0
  5  6  1  0
  6  7  1  0
  7  8  1  0
  8  9  2  0
  8 10  1  0
 10 11  1  0
 11 12  1  0
 10 13  1  0
 13 14  1  0
  1 15  1  0
  1 16  1  0
  1 17  1  0
  2 18  1  0
  2 19  1  0
  3 20  1  0
  3 21  1  0
  4 22  1  0
  4 23  1  0
  5 24  1  0
  5 25  1  0
  6 26  1  0
  6 27  1  0
  7 28  1  0
  7 29  1  0
 11 30  1  0
 11 31  1  0
 12 32  1  0
 12 33  1  0
 12 34  1  0
 13 35  1  0
 13 36  1  0
 14 37  1  0
 14 38  1  0
 14 39  1  0
M  END
>  <UniqueID>  (43) 
42

>  <SMILES>  (43) 
CCCCCCCC(=O)N(CC)CC

>  <Energy>  (43) 
19.903234820731004

>  <Genealogy>  (43) 
CCCCCCCC(=O)N(CC)CC (3D coordinates assigned)
CCCCCCCC(=O)N(CC)CC (optimized conformer: 19.903234820731004 kcal/mol)

>  <smiles>  (43) 
CCCCCCCC(=O)N(CC)CC

>  <score_type>  (43) 
oracle

>  <origin>  (43) 
adg

>  <m_score__min__energy>  (43) 
-5.9299999999999997

>  <m_primary>  (43) 
energy

$$$$
43:0
     RDKit          3D

 42 44  0  0  0  0  0  0  0  0999 V2000
   -3.0970   22.8240  -30.8420 C   0  0  0  0  0  0  0  0  0  0  0  0
   -3.8930   23.9320  -31.2010 O   0  0  0  0  0  0  0  0  0  0  0  0
   -4.3470   24.6220  -30.0460 C   0  0  0  0  0  0  0  0  0  0  0  0
   -5.4220   25.6670  -30.4330 C   0  0  0  0  0  0  0  0  0  0  0  0
   -6.8620   25.2750  -30.0410 C   0  0  0  0  0  0  0  0  0  0  0  0
   -7.1420   23.8310  -30.1910 N   0  0  0  0  0  0  0  0  0  0  0  0
   -7.7630   23.4190  -31.4690 C   0  0  0  0  0  0  0  0  0  0  0  0
   -7.2800   22.0750  -31.9680 C   0  0  0  0  0  0  0  0  0  0  0  0
   -8.0820   20.9310  -31.8740 C   0  0  0  0  0  0  0  0  0  0  0  0
   -7.6070   19.7320  -32.2950 N   0  0  0  0  0  0  0  0  0  0  0  0
   -6.3620   19.6080  -32.8300 C   0  0  0  0  0  0  0  0  0  0  0  0
   -5.8520   18.2790  -33.2640 C   0  0  0  0  0  0  0  0  0  0  0  0
   -5.2530   18.1390  -34.5330 C   0  0  0  0  0  0  0  0  0  0  0  0
   -4.7650   16.9000  -34.9580 C   0  0  0  0  0  0  0  0  0  0  0  0
   -4.8620   15.7840  -34.1250 C   0  0  0  0  0  0  0  0  0  0  0  0
   -4.2470   14.2320  -34.6600 Cl  0  0  0  0  0  0  0  0  0  0  0  0
   -5.4490   15.9070  -32.8640 C   0  0  0  0  0  0  0  0  0  0  0  0
   -5.9420   17.1420  -32.4290 C   0  0  0  0  0  0  0  0  0  0  0  0
   -6.4920   17.2170  -31.1910 F   0  0  0  0  0  0  0  0  0  0  0  0
   -5.5870   20.7180  -32.9700 N   0  0  0  0  0  0  0  0  0  0  0  0
   -6.0210   21.9400  -32.5640 C   0  0  0  0  0  0  0  0  0  0  0  0
   -6.1380   22.8930  -29.6390 C   0  0  0  0  0  0  0  0  0  0  0  0
   -4.9060   23.5980  -29.0540 C   0  0  0  0  0  0  0  0  0  0  0  0
   -3.0441   22.7504  -29.7457 H   0  0  0  0  0  0  0  0  0  0  0  0
   -3.5425   21.9048  -31.2502 H   0  0  0  0  0  0  0  0  0  0  0  0
   -2.0837   22.9529  -31.2502 H   0  0  0  0  0  0  0  0  0  0  0  0
   -3.5122   25.1634  -29.5769 H   0  0  0  0  0  0  0  0  0  0  0  0
   -5.1755   26.6154  -29.9333 H   0  0  0  0  0  0  0  0  0  0  0  0
   -5.4050   25.7434  -31.5302 H   0  0  0  0  0  0  0  0  0  0  0  0
   -7.0246   25.5537  -28.9894 H   0  0  0  0  0  0  0  0  0  0  0  0
   -7.5397   25.8085  -30.7238 H   0  0  0  0  0  0  0  0  0  0  0  0
   -8.8524   23.3665  -31.3259 H   0  0  0  0  0  0  0  0  0  0  0  0
   -7.4773   24.1665  -32.2238 H   0  0  0  0  0  0  0  0  0  0  0  0
   -9.0979   21.0046  -31.4585 H   0  0  0  0  0  0  0  0  0  0  0  0
   -5.1690   19.0135  -35.1950 H   0  0  0  0  0  0  0  0  0  0  0  0
   -4.3032   16.8041  -35.9517 H   0  0  0  0  0  0  0  0  0  0  0  0
   -5.5243   15.0270  -32.2083 H   0  0  0  0  0  0  0  0  0  0  0  0
   -5.3819   22.8243  -32.7040 H   0  0  0  0  0  0  0  0  0  0  0  0
   -6.6132   22.3019  -28.8423 H   0  0  0  0  0  0  0  0  0  0  0  0
   -5.7889   22.2628  -30.4703 H   0  0  0  0  0  0  0  0  0  0  0  0
   -5.1919   24.1136  -28.1253 H   0  0  0  0  0  0  0  0  0  0  0  0
   -4.1312   22.8445  -28.8489 H   0  0  0  0  0  0  0  0  0  0  0  0
  1  2  1  0
  2  3  1  0
  3  4  1  0
  4  5  1  0
  5  6  1  0
  6  7  1  0
  7  8  1  0
  8  9  2  0
  9 10  1  0
 10 11  2  0
 11 12  1  0
 12 13  2  0
 13 14  1  0
 14 15  2  0
 15 16  1  0
 15 17  1  0
 17 18  2  0
 18 19  1  0
 11 20  1  0
 20 21  2  0
  6 22  1  0
 22 23  1  0
 23  3  1  0
 21  8  1  0
 18 12  1  0
  1 24  1  0
  1 25  1  0
  1 26  1  0
  3 27  1  0
  4 28  1  0
  4 29  1  0
  5 30  1  0
  5 31  1  0
  7 32  1  0
  7 33  1  0
  9 34  1  0
 13 35  1  0
 14 36  1  0
 17 37  1  0
 21 38  1  0
 22 39  1  0
 22 40  1  0
 23 41  1  0
 23 42  1  0
M  END
>  <UniqueID>  (44) 
43

>  <SMILES>  (44) 
COC1CCN(Cc2cnc(-c3ccc(Cl)cc3F)nc2)CC1

>  <Energy>  (44) 
60.95637544041466

>  <Genealogy>  (44) 
COC1CCN(Cc2cnc(-c3ccc(Cl)cc3F)nc2)CC1 (3D coordinates assigned)
COC1CCN(Cc2cnc(-c3ccc(Cl)cc3F)nc2)CC1 (nonaromatic ring conformer: 60.95637544041466 kcal/mol)

>  <smiles>  (44) 
COC1CCN(Cc2cnc(-c3ccc(Cl)cc3F)nc2)CC1

>  <score_type>  (44) 
oracle

>  <origin>  (44) 
adg

>  <m_score__min__energy>  (44) 
-7.6699999999999999

>  <m_primary>  (44) 
energy

$$$$
44:0
     RDKit          3D

 55 58  0  0  0  0  0  0  0  0999 V2000
    2.7730   25.6390  -27.2420 C   0  0  0  0  0  0  0  0  0  0  0  0
    1.5060   25.2960  -26.6900 O   0  0  0  0  0  0  0  0  0  0  0  0
    0.9150   25.9430  -25.5930 C   0  0  0  0  0  0  0  0  0  0  0  0
    1.6760   26.4190  -24.5070 C   0  0  0  0  0  0  0  0  0  0  0  0
    1.0470   27.0360  -23.4220 C   0  0  0  0  0  0  0  0  0  0  0  0
   -0.3410   27.1850  -23.4090 C   0  0  0  0  0  0  0  0  0  0  0  0
   -1.1050   26.7200  -24.4800 C   0  0  0  0  0  0  0  0  0  0  0  0
   -0.4830   26.1060  -25.5770 C   0  0  0  0  0  0  0  0  0  0  0  0
   -1.2820   25.6310  -26.6680 N   0  0  0  0  0  0  0  0  0  0  0  0
   -2.4790   24.8280  -26.3870 C   0  0  0  0  0  0  0  0  0  0  0  0
   -3.2630   24.5270  -27.6680 C   0  0  0  0  0  0  0  0  0  0  0  0
   -2.3570   24.0650  -28.7260 N   0  0  0  0  0  0  0  0  0  0  0  0
   -2.8450   23.1480  -29.7210 C   0  0  0  0  0  0  0  0  0  0  0  0
   -2.4700   21.7970  -29.6620 C   0  0  0  0  0  0  0  0  0  0  0  0
   -2.9480   20.8860  -30.6050 C   0  0  0  0  0  0  0  0  0  0  0  0
   -3.7980   21.3100  -31.6380 C   0  0  0  0  0  0  0  0  0  0  0  0
   -4.2930   20.3430  -32.6500 C   0  0  0  0  0  0  0  0  0  0  0  0
   -5.6550   20.3000  -32.9990 C   0  0  0  0  0  0  0  0  0  0  0  0
   -6.0970   19.3810  -33.9540 C   0  0  0  0  0  0  0  0  0  0  0  0
   -5.2150   18.5310  -34.5430 N   0  0  0  0  0  0  0  0  0  0  0  0
   -3.8930   18.5470  -34.2270 C   0  0  0  0  0  0  0  0  0  0  0  0
   -3.4080   19.4500  -33.2790 C   0  0  0  0  0  0  0  0  0  0  0  0
   -4.1640   22.6660  -31.7050 C   0  0  0  0  0  0  0  0  0  0  0  0
   -3.7120   23.5840  -30.7410 C   0  0  0  0  0  0  0  0  0  0  0  0
   -4.0380   24.9770  -30.8450 N   0  0  0  0  0  0  0  0  0  0  0  0
   -5.2860   25.5870  -30.4860 C   0  0  0  0  0  0  0  0  0  0  0  0
   -6.4890   24.7750  -30.1140 C   0  0  0  0  0  0  0  0  0  0  0  0
   -5.3620   26.8420  -30.4510 O   0  0  0  0  0  0  0  0  0  0  0  0
   -1.0570   24.7210  -28.9360 C   0  0  0  0  0  0  0  0  0  0  0  0
   -0.8980   25.9540  -28.0440 C   0  0  0  0  0  0  0  0  0  0  0  0
    3.4873   25.8324  -26.4281 H   0  0  0  0  0  0  0  0  0  0  0  0
    3.1399   24.8079  -27.8621 H   0  0  0  0  0  0  0  0  0  0  0  0
    2.6705   26.5417  -27.8621 H   0  0  0  0  0  0  0  0  0  0  0  0
    2.7700   26.3045  -24.5131 H   0  0  0  0  0  0  0  0  0  0  0  0
    1.6467   27.4048  -22.5768 H   0  0  0  0  0  0  0  0  0  0  0  0
   -0.8332   27.6698  -22.5530 H   0  0  0  0  0  0  0  0  0  0  0  0
   -2.1988   26.8353  -24.4639 H   0  0  0  0  0  0  0  0  0  0  0  0
   -2.1725   23.8787  -25.9235 H   0  0  0  0  0  0  0  0  0  0  0  0
   -3.1292   25.4009  -25.7095 H   0  0  0  0  0  0  0  0  0  0  0  0
   -4.0079   23.7444  -27.4615 H   0  0  0  0  0  0  0  0  0  0  0  0
   -3.7641   25.4468  -28.0040 H   0  0  0  0  0  0  0  0  0  0  0  0
   -1.7935   21.4531  -28.8657 H   0  0  0  0  0  0  0  0  0  0  0  0
   -2.6563   19.8275  -30.5380 H   0  0  0  0  0  0  0  0  0  0  0  0
   -6.3692   20.9872  -32.5219 H   0  0  0  0  0  0  0  0  0  0  0  0
   -7.1613   19.3453  -34.2298 H   0  0  0  0  0  0  0  0  0  0  0  0
   -3.2031   17.8462  -34.7198 H   0  0  0  0  0  0  0  0  0  0  0  0
   -2.3377   19.4626  -33.0253 H   0  0  0  0  0  0  0  0  0  0  0  0
   -4.8127   23.0132  -32.5227 H   0  0  0  0  0  0  0  0  0  0  0  0
   -6.5700   24.7203  -29.0183 H   0  0  0  0  0  0  0  0  0  0  0  0
   -7.3926   25.2487  -30.5253 H   0  0  0  0  0  0  0  0  0  0  0  0
   -6.3876   23.7598  -30.5253 H   0  0  0  0  0  0  0  0  0  0  0  0
   -0.2544   24.0058  -28.7029 H   0  0  0  0  0  0  0  0  0  0  0  0
   -1.0009   25.0459  -29.9854 H   0  0  0  0  0  0  0  0  0  0  0  0
    0.1515   26.2831  -28.0614 H   0  0  0  0  0  0  0  0  0  0  0  0
   -1.5478   26.7577  -28.4205 H   0  0  0  0  0  0  0  0  0  0  0  0
  1  2  1  0
  2  3  1  0
  3  4  2  0
  4  5  1  0
  5  6  2  0
  6  7  1  0
  7  8  2  0
  8  9  1  0
  9 10  1  0
 10 11  1  0
 11 12  1  0
 12 13  1  0
 13 14  2  0
 14 15  1  0
 15 16  2  0
 16 17  1  0
 17 18  2  0
 18 19  1  0
 19 20  2  0
 20 21  1  0
 21 22  2  0
 16 23  1  0
 23 24  2  0
 24 25  1  0
 25 26  1  0
 26 27  1  0
 26 28  2  0
 12 29  1  0
 29 30  1  0
  8  3  1  0
 30  9  1  0
 24 13  1  0
 22 17  1  0
  1 31  1  0
  1 32  1  0
  1 33  1  0
  4 34  1  0
  5 35  1  0
  6 36  1  0
  7 37  1  0
 10 38  1  0
 10 39  1  0
 11 40  1  0
 11 41  1  0
 14 42  1  0
 15 43  1  0
 18 44  1  0
 19 45  1  0
 21 46  1  0
 22 47  1  0
 23 48  1  0
 27 49  1  0
 27 50  1  0
 27 51  1  0
 29 52  1  0
 29 53  1  0
 30 54  1  0
 30 55  1  0
M  CHG  1  25  -1
M  END
>  <UniqueID>  (45) 
44

>  <SMILES>  (45) 
COc1ccccc1N1CCN(c2ccc(-c3ccncc3)cc2[N-]C(C)=O)CC1

>  <Energy>  (45) 
77.44160552442068

>  <Genealogy>  (45) 
COc1ccccc1N1CCN(c2ccc(-c3ccncc3)cc2[N-]C(C)=O)CC1 (protonated)
COc1ccccc1N1CCN(c2ccc(-c3ccncc3)cc2[N-]C(C)=O)CC1 (3D coordinates assigned)
COc1ccccc1N1CCN(c2ccc(-c3ccncc3)cc2[N-]C(C)=O)CC1 (nonaromatic ring conformer: 77.44160552442068 kcal/mol)

>  <smiles>  (45) 
COc1ccccc1N1CCN(c2ccc(-c3ccncc3)cc2NC(C)=O)CC1

>  <score_type>  (45) 
oracle

>  <origin>  (45) 
adg

>  <m_score__min__energy>  (45) 
-10.41

>  <m_primary>  (45) 
energy

$$$$
