0:0
     RDKit          3D

 29 30  0  0  0  0  0  0  0  0999 V2000
   -4.2410   20.8530  -31.3490 C   0  0  0  0  0  0  0  0  0  0  0  0
   -5.3470   21.8750  -31.3390 C   0  0  0  0  0  0  0  0  0  0  0  0
   -5.1500   23.2270  -30.9800 C   0  0  0  0  0  0  0  0  0  0  0  0
   -3.8750   23.9190  -30.7080 C   0  0  0  0  0  0  0  0  0  0  0  0
   -3.8670   25.3280  -30.4950 N   0  0  0  0  0  0  0  0  0  0  0  0
   -2.7850   23.2870  -30.6980 O   0  0  0  0  0  0  0  0  0  0  0  0
   -6.6420   24.0190  -30.9400 S   0  0  0  0  0  0  0  0  0  0  0  0
   -7.5340   22.6870  -31.4140 C   0  0  0  0  0  0  0  0  0  0  0  0
   -8.8770   22.6440  -31.5900 N   0  0  0  0  0  0  0  0  0  0  0  0
   -9.4680   21.4880  -32.0010 C   0  0  0  0  0  0  0  0  0  0  0  0
   -8.6910   20.3490  -32.2640 C   0  0  0  0  0  0  0  0  0  0  0  0
   -7.2930   20.3910  -32.0920 C   0  0  0  0  0  0  0  0  0  0  0  0
   -6.5050   19.2540  -32.4710 N   0  0  0  0  0  0  0  0  0  0  0  0
   -6.0650   19.1440  -33.8620 C   0  0  0  0  0  0  0  0  0  0  0  0
   -6.5810   18.0360  -31.6660 C   0  0  0  0  0  0  0  0  0  0  0  0
   -6.7070   21.5910  -31.6300 C   0  0  0  0  0  0  0  0  0  0  0  0
   -3.9667   20.5995  -30.3144 H   0  0  0  0  0  0  0  0  0  0  0  0
   -4.5838   19.9469  -31.8700 H   0  0  0  0  0  0  0  0  0  0  0  0
   -3.3647   21.2661  -31.8700 H   0  0  0  0  0  0  0  0  0  0  0  0
   -3.4990   25.9790  -31.2220 H   0  0  0  0  0  0  0  0  0  0  0  0
   -9.4610   23.4920  -31.4130 H   0  0  0  0  0  0  0  0  0  0  0  0
  -10.5599   21.4466  -32.1275 H   0  0  0  0  0  0  0  0  0  0  0  0
   -9.1744   19.4216  -32.6051 H   0  0  0  0  0  0  0  0  0  0  0  0
   -4.9982   18.8773  -33.8891 H   0  0  0  0  0  0  0  0  0  0  0  0
   -6.6508   18.3647  -34.3714 H   0  0  0  0  0  0  0  0  0  0  0  0
   -6.2152   20.1073  -34.3714 H   0  0  0  0  0  0  0  0  0  0  0  0
   -6.5645   18.3005  -30.5984 H   0  0  0  0  0  0  0  0  0  0  0  0
   -7.5142   17.5015  -31.8970 H   0  0  0  0  0  0  0  0  0  0  0  0
   -5.7214   17.3896  -31.8970 H   0  0  0  0  0  0  0  0  0  0  0  0
  1  2  1  0
  2  3  2  0
  3  4  1  0
  4  5  1  0
  4  6  2  0
  3  7  1  0
  7  8  1  0
  8  9  2  0
  9 10  1  0
 10 11  2  0
 11 12  1  0
 12 13  1  0
 13 14  1  0
 13 15  1  0
 12 16  2  0
 16  2  1  0
 16  8  1  0
  1 17  1  0
  1 18  1  0
  1 19  1  0
  5 20  1  0
  9 21  1  0
 10 22  1  0
 11 23  1  0
 14 24  1  0
 14 25  1  0
 14 26  1  0
 15 27  1  0
 15 28  1  0
 15 29  1  0
M  CHG  2   5  -1   9   1
M  END
>  <UniqueID>  (1) 
1

>  <SMILES>  (1) 
Cc1c(C([NH-])=O)sc2[nH+]ccc(N(C)C)c12

>  <Energy>  (1) 
68.11486594589793

>  <Genealogy>  (1) 
Cc1c(C([NH-])=O)sc2[nH+]ccc(N(C)C)c12 (protonated)
Cc1c(C([NH-])=O)sc2[nH+]ccc(N(C)C)c12 (3D coordinates assigned)
Cc1c(C([NH-])=O)sc2[nH+]ccc(N(C)C)c12 (optimized conformer: 68.11486594589793 kcal/mol)

>  <smiles>  (1) 
Cc1c(C(N)=O)sc2nccc(N(C)C)c12

>  <score_type>  (1) 
oracle

>  <origin>  (1) 
adg

>  <m_score__min__energy>  (1) 
-8.6400000000000006

>  <m_primary>  (1) 
energy

$$$$
1:0
     RDKit          3D

 40 42  0  0  0  0  0  0  0  0999 V2000
   -6.4040   24.9270  -29.7020 C   0  0  0  0  0  0  0  0  0  0  0  0
   -5.5630   25.8110  -30.6280 C   0  0  0  0  0  0  0  0  0  0  0  0
   -4.2090   25.2700  -30.8350 N   0  0  0  0  0  0  0  0  0  0  0  0
   -3.8280   24.2810  -29.8150 C   0  0  0  0  0  0  0  0  0  0  0  0
   -3.7920   22.8710  -30.4130 C   0  0  0  0  0  0  0  0  0  0  0  0
   -4.5080   22.8150  -31.6890 N   0  0  0  0  0  0  0  0  0  0  0  0
   -5.0030   21.5790  -32.2320 C   0  0  0  0  0  0  0  0  0  0  0  0
   -6.3730   21.2380  -32.1410 C   0  0  0  0  0  0  0  0  0  0  0  0
   -7.2810   22.0750  -31.4630 C   0  0  0  0  0  0  0  0  0  0  0  0
   -8.6320   21.7450  -31.3870 C   0  0  0  0  0  0  0  0  0  0  0  0
   -9.1020   20.5780  -31.9780 C   0  0  0  0  0  0  0  0  0  0  0  0
   -8.2250   19.7260  -32.6510 C   0  0  0  0  0  0  0  0  0  0  0  0
   -6.8460   20.0320  -32.7520 C   0  0  0  0  0  0  0  0  0  0  0  0
   -5.9660   19.1940  -33.4170 N   0  0  0  0  0  0  0  0  0  0  0  0
   -6.4360   17.9580  -34.0690 C   0  0  0  0  0  0  0  0  0  0  0  0
   -4.6390   19.5270  -33.4400 C   0  0  0  0  0  0  0  0  0  0  0  0
   -3.3550   18.6470  -34.0950 S   0  0  0  0  0  0  0  0  0  0  0  0
   -2.1500   19.7300  -33.6320 C   0  0  0  0  0  0  0  0  0  0  0  0
   -2.7400   20.7920  -32.9550 C   0  0  0  0  0  0  0  0  0  0  0  0
   -4.1390   20.6820  -32.8620 C   0  0  0  0  0  0  0  0  0  0  0  0
   -6.1732   25.1696  -28.6542 H   0  0  0  0  0  0  0  0  0  0  0  0
   -7.4721   25.1073  -29.8934 H   0  0  0  0  0  0  0  0  0  0  0  0
   -6.1707   23.8692  -29.8934 H   0  0  0  0  0  0  0  0  0  0  0  0
   -6.0679   25.8844  -31.6025 H   0  0  0  0  0  0  0  0  0  0  0  0
   -5.4632   26.7983  -30.1534 H   0  0  0  0  0  0  0  0  0  0  0  0
   -3.5120   26.0510  -30.8370 H   0  0  0  0  0  0  0  0  0  0  0  0
   -2.8314   24.5324  -29.4231 H   0  0  0  0  0  0  0  0  0  0  0  0
   -4.5733   24.3027  -29.0063 H   0  0  0  0  0  0  0  0  0  0  0  0
   -2.7445   22.5781  -30.5769 H   0  0  0  0  0  0  0  0  0  0  0  0
   -4.2833   22.1831  -29.7091 H   0  0  0  0  0  0  0  0  0  0  0  0
   -4.5680   23.6810  -32.2700 H   0  0  0  0  0  0  0  0  0  0  0  0
   -6.9191   22.9991  -30.9885 H   0  0  0  0  0  0  0  0  0  0  0  0
   -9.3296   22.4104  -30.8573 H   0  0  0  0  0  0  0  0  0  0  0  0
  -10.1706   20.3247  -31.9150 H   0  0  0  0  0  0  0  0  0  0  0  0
   -8.6105   18.8035  -33.1096 H   0  0  0  0  0  0  0  0  0  0  0  0
   -6.7159   17.2219  -33.3010 H   0  0  0  0  0  0  0  0  0  0  0  0
   -7.3109   18.1842  -34.6962 H   0  0  0  0  0  0  0  0  0  0  0  0
   -5.6319   17.5457  -34.6962 H   0  0  0  0  0  0  0  0  0  0  0  0
   -1.0744   19.6159  -33.8321 H   0  0  0  0  0  0  0  0  0  0  0  0
   -2.1697   21.6334  -32.5345 H   0  0  0  0  0  0  0  0  0  0  0  0
  1  2  1  0
  2  3  1  0
  3  4  1  0
  4  5  1  0
  5  6  1  0
  6  7  1  0
  7  8  2  0
  8  9  1  0
  9 10  2  0
 10 11  1  0
 11 12  2  0
 12 13  1  0
 13 14  2  0
 14 15  1  0
 14 16  1  0
 16 17  1  0
 17 18  1  0
 18 19  2  0
 19 20  1  0
 20  7  1  0
 13  8  1  0
 20 16  2  0
  1 21  1  0
  1 22  1  0
  1 23  1  0
  2 24  1  0
  2 25  1  0
  3 26  1  0
  4 27  1  0
  4 28  1  0
  5 29  1  0
  5 30  1  0
  6 31  1  0
  9 32  1  0
 10 33  1  0
 11 34  1  0
 12 35  1  0
 15 36  1  0
 15 37  1  0
 15 38  1  0
 18 39  1  0
 19 40  1  0
M  CHG  1  14   1
M  END
>  <UniqueID>  (2) 
2

>  <SMILES>  (2) 
CCNCCNc1c2ccccc2[n+](C)c2sccc12

>  <Energy>  (2) 
84.54166551730052

>  <Genealogy>  (2) 
CCNCCNc1c2ccccc2[n+](C)c2sccc12 (3D coordinates assigned)
CCNCCNc1c2ccccc2[n+](C)c2sccc12 (optimized conformer: 84.54166551730052 kcal/mol)

>  <smiles>  (2) 
CCNCCNc1c2ccccc2[n+](C)c2sccc12

>  <score_type>  (2) 
oracle

>  <origin>  (2) 
adg

>  <m_score__min__energy>  (2) 
-8.3100000000000005

>  <m_primary>  (2) 
energy

$$$$
2:0
     RDKit          3D

 46 49  0  0  0  0  0  0  0  0999 V2000
   -4.1860   24.4630  -29.3050 C   0  0  0  0  0  0  0  0  0  0  0  0
   -4.2880   24.3940  -30.7710 N   0  0  0  0  0  0  0  0  0  0  0  0
   -3.9290   23.0420  -31.2310 C   0  0  0  0  0  0  0  0  0  0  0  0
   -5.6470   24.7680  -31.2160 C   0  0  0  0  0  0  0  0  0  0  0  0
   -6.6360   23.6070  -31.0470 C   0  0  0  0  0  0  0  0  0  0  0  0
   -6.8720   22.9280  -32.3210 N   0  0  0  0  0  0  0  0  0  0  0  0
   -7.3510   21.5760  -32.3820 C   0  0  0  0  0  0  0  0  0  0  0  0
   -8.6680   21.3030  -31.9950 C   0  0  0  0  0  0  0  0  0  0  0  0
   -9.1430   19.9960  -31.9870 C   0  0  0  0  0  0  0  0  0  0  0  0
   -8.3120   18.9390  -32.3570 C   0  0  0  0  0  0  0  0  0  0  0  0
   -6.9750   19.1680  -32.7600 C   0  0  0  0  0  0  0  0  0  0  0  0
   -6.4960   20.5170  -32.7730 C   0  0  0  0  0  0  0  0  0  0  0  0
   -5.1580   20.7700  -33.1160 C   0  0  0  0  0  0  0  0  0  0  0  0
   -4.3180   19.7010  -33.4050 C   0  0  0  0  0  0  0  0  0  0  0  0
   -2.9450   19.7560  -33.7020 C   0  0  0  0  0  0  0  0  0  0  0  0
   -2.1300   20.8960  -33.7760 C   0  0  0  0  0  0  0  0  0  0  0  0
   -0.7690   20.7370  -34.0860 C   0  0  0  0  0  0  0  0  0  0  0  0
   -0.2300   19.4560  -34.3100 C   0  0  0  0  0  0  0  0  0  0  0  0
   -1.0470   18.3190  -34.2280 C   0  0  0  0  0  0  0  0  0  0  0  0
   -2.3940   18.4970  -33.9250 C   0  0  0  0  0  0  0  0  0  0  0  0
   -3.5770   17.3110  -33.7620 S   0  0  0  0  0  0  0  0  0  0  0  0
   -4.8240   18.4060  -33.3980 C   0  0  0  0  0  0  0  0  0  0  0  0
   -6.1330   18.1240  -33.1120 N   0  0  0  0  0  0  0  0  0  0  0  0
   -6.6130   16.7310  -33.1410 C   0  0  0  0  0  0  0  0  0  0  0  0
   -5.0166   23.9011  -28.8528 H   0  0  0  0  0  0  0  0  0  0  0  0
   -3.2293   24.0258  -28.9830 H   0  0  0  0  0  0  0  0  0  0  0  0
   -4.2358   25.5136  -28.9830 H   0  0  0  0  0  0  0  0  0  0  0  0
   -3.7565   22.3922  -30.3604 H   0  0  0  0  0  0  0  0  0  0  0  0
   -4.7492   22.6314  -31.8381 H   0  0  0  0  0  0  0  0  0  0  0  0
   -3.0131   23.0924  -31.8381 H   0  0  0  0  0  0  0  0  0  0  0  0
   -5.9954   25.6236  -30.6188 H   0  0  0  0  0  0  0  0  0  0  0  0
   -5.6002   25.0275  -32.2839 H   0  0  0  0  0  0  0  0  0  0  0  0
   -6.2237   22.8856  -30.3262 H   0  0  0  0  0  0  0  0  0  0  0  0
   -7.5922   24.0119  -30.6840 H   0  0  0  0  0  0  0  0  0  0  0  0
   -6.7420   23.4580  -33.2140 H   0  0  0  0  0  0  0  0  0  0  0  0
   -9.3316   22.1275  -31.6953 H   0  0  0  0  0  0  0  0  0  0  0  0
  -10.1818   19.7945  -31.6866 H   0  0  0  0  0  0  0  0  0  0  0  0
   -8.7021   17.9107  -32.3352 H   0  0  0  0  0  0  0  0  0  0  0  0
   -4.7792   21.8020  -33.1555 H   0  0  0  0  0  0  0  0  0  0  0  0
   -2.5494   21.8966  -33.5945 H   0  0  0  0  0  0  0  0  0  0  0  0
   -0.1186   21.6215  -34.1543 H   0  0  0  0  0  0  0  0  0  0  0  0
    0.8377   19.3462  -34.5507 H   0  0  0  0  0  0  0  0  0  0  0  0
   -0.6345   17.3136  -34.3985 H   0  0  0  0  0  0  0  0  0  0  0  0
   -6.7391   16.3651  -32.1113 H   0  0  0  0  0  0  0  0  0  0  0  0
   -7.5783   16.6866  -33.6667 H   0  0  0  0  0  0  0  0  0  0  0  0
   -5.8800   16.1015  -33.6667 H   0  0  0  0  0  0  0  0  0  0  0  0
  1  2  1  0
  2  3  1  0
  2  4  1  0
  4  5  1  0
  5  6  1  0
  6  7  1  0
  7  8  2  0
  8  9  1  0
  9 10  2  0
 10 11  1  0
 11 12  2  0
 12 13  1  0
 13 14  2  0
 14 15  1  0
 15 16  2  0
 16 17  1  0
 17 18  2  0
 18 19  1  0
 19 20  2  0
 20 21  1  0
 21 22  1  0
 22 23  2  0
 23 24  1  0
 12  7  1  0
 22 14  1  0
 23 11  1  0
 20 15  1  0
  1 25  1  0
  1 26  1  0
  1 27  1  0
  3 28  1  0
  3 29  1  0
  3 30  1  0
  4 31  1  0
  4 32  1  0
  5 33  1  0
  5 34  1  0
  6 35  1  0
  8 36  1  0
  9 37  1  0
 10 38  1  0
 13 39  1  0
 16 40  1  0
 17 41  1  0
 18 42  1  0
 19 43  1  0
 24 44  1  0
 24 45  1  0
 24 46  1  0
M  CHG  1  23   1
M  END
>  <UniqueID>  (3) 
3

>  <SMILES>  (3) 
CN(C)CCNc1cccc2c1cc1c3ccccc3sc1[n+]2C

>  <Energy>  (3) 
97.32206738716496

>  <Genealogy>  (3) 
CN(C)CCNc1cccc2c1cc1c3ccccc3sc1[n+]2C (3D coordinates assigned)
CN(C)CCNc1cccc2c1cc1c3ccccc3sc1[n+]2C (optimized conformer: 97.32206738716496 kcal/mol)

>  <smiles>  (3) 
CN(C)CCNc1cccc2c1cc1c3ccccc3sc1[n+]2C

>  <score_type>  (3) 
oracle

>  <origin>  (3) 
adg

>  <m_score__min__energy>  (3) 
-8.5500000000000007

>  <m_primary>  (3) 
energy

$$$$
3:0
     RDKit          3D

 51 55  0  0  0  0  0  0  0  0999 V2000
   -1.2420   19.4210  -30.0650 O   0  0  0  0  0  0  0  0  0  0  0  0
   -1.3220   20.2740  -30.9930 C   0  0  0  0  0  0  0  0  0  0  0  0
   -2.0060   21.5630  -30.7070 C   0  0  0  0  0  0  0  0  0  0  0  0
   -1.3390   22.5540  -29.9610 C   0  0  0  0  0  0  0  0  0  0  0  0
   -1.9510   23.7850  -29.7030 C   0  0  0  0  0  0  0  0  0  0  0  0
   -3.2320   24.0410  -30.1920 C   0  0  0  0  0  0  0  0  0  0  0  0
   -3.9160   23.0570  -30.9160 C   0  0  0  0  0  0  0  0  0  0  0  0
   -3.3020   21.8320  -31.1910 C   0  0  0  0  0  0  0  0  0  0  0  0
   -5.2160   23.3220  -31.3610 O   0  0  0  0  0  0  0  0  0  0  0  0
   -5.9490   24.4470  -30.8690 C   0  0  0  0  0  0  0  0  0  0  0  0
   -5.0180   25.6560  -30.7050 C   0  0  0  0  0  0  0  0  0  0  0  0
   -3.8480   25.2780  -29.9750 O   0  0  0  0  0  0  0  0  0  0  0  0
   -0.7110   20.0040  -32.2840 N   0  0  2  0  0  0  0  0  0  0  0  0
   -1.3840   20.7260  -33.4000 C   0  0  0  0  0  0  0  0  0  0  0  0
   -2.7980   20.2010  -33.7490 C   0  0  0  0  0  0  0  0  0  0  0  0
   -2.8710   18.7120  -33.6140 C   0  0  0  0  0  0  0  0  0  0  0  0
   -1.8990   17.9720  -32.9980 C   0  0  0  0  0  0  0  0  0  0  0  0
   -2.3150   16.6560  -32.9950 C   0  0  0  0  0  0  0  0  0  0  0  0
   -3.5660   16.6590  -33.5920 C   0  0  0  0  0  0  0  0  0  0  0  0
   -3.9070   17.9170  -33.9560 N   0  0  0  0  0  0  0  0  0  0  0  0
   -5.1430   18.3040  -34.6360 C   0  0  0  0  0  0  0  0  0  0  0  0
   -6.0560   19.0300  -33.6850 C   0  0  0  0  0  0  0  0  0  0  0  0
   -5.9070   20.4110  -33.4630 C   0  0  0  0  0  0  0  0  0  0  0  0
   -6.7760   21.0830  -32.5970 C   0  0  0  0  0  0  0  0  0  0  0  0
   -7.7990   20.3820  -31.9480 C   0  0  0  0  0  0  0  0  0  0  0  0
   -8.8870   21.2260  -30.8610 Cl  0  0  0  0  0  0  0  0  0  0  0  0
   -7.9530   19.0070  -32.1640 C   0  0  0  0  0  0  0  0  0  0  0  0
   -7.0880   18.3330  -33.0310 C   0  0  0  0  0  0  0  0  0  0  0  0
   -0.5990   18.5450  -32.5290 C   0  0  0  0  0  0  0  0  0  0  0  0
   -0.3268   22.3580  -29.5775 H   0  0  0  0  0  0  0  0  0  0  0  0
   -1.4228   24.5502  -29.1152 H   0  0  0  0  0  0  0  0  0  0  0  0
   -3.8323   21.0750  -31.7874 H   0  0  0  0  0  0  0  0  0  0  0  0
   -6.7492   24.6986  -31.5806 H   0  0  0  0  0  0  0  0  0  0  0  0
   -6.3825   24.1927  -29.8905 H   0  0  0  0  0  0  0  0  0  0  0  0
   -4.7237   26.0263  -31.6981 H   0  0  0  0  0  0  0  0  0  0  0  0
   -5.5475   26.4467  -30.1533 H   0  0  0  0  0  0  0  0  0  0  0  0
    0.2640   20.3840  -32.2680 H   0  0  0  0  0  0  0  0  0  0  0  0
   -1.4715   21.7860  -33.1192 H   0  0  0  0  0  0  0  0  0  0  0  0
   -0.7631   20.5655  -34.2937 H   0  0  0  0  0  0  0  0  0  0  0  0
   -3.5294   20.6594  -33.0671 H   0  0  0  0  0  0  0  0  0  0  0  0
   -3.0208   20.4675  -34.7927 H   0  0  0  0  0  0  0  0  0  0  0  0
   -1.7682   15.7866  -32.6012 H   0  0  0  0  0  0  0  0  0  0  0  0
   -4.1913   15.7675  -33.7474 H   0  0  0  0  0  0  0  0  0  0  0  0
   -4.9006   18.9642  -35.4818 H   0  0  0  0  0  0  0  0  0  0  0  0
   -5.6508   17.3983  -34.9990 H   0  0  0  0  0  0  0  0  0  0  0  0
   -5.1043   20.9645  -33.9722 H   0  0  0  0  0  0  0  0  0  0  0  0
   -6.6553   22.1629  -32.4260 H   0  0  0  0  0  0  0  0  0  0  0  0
   -8.7555   18.4567  -31.6509 H   0  0  0  0  0  0  0  0  0  0  0  0
   -7.2148   17.2539  -33.2024 H   0  0  0  0  0  0  0  0  0  0  0  0
   -0.3039   18.0461  -31.5941 H   0  0  0  0  0  0  0  0  0  0  0  0
    0.1558   18.3810  -33.3122 H   0  0  0  0  0  0  0  0  0  0  0  0
  1  2  2  0
  2  3  1  0
  3  4  2  0
  4  5  1  0
  5  6  2  0
  6  7  1  0
  7  8  2  0
  7  9  1  0
  9 10  1  0
 10 11  1  0
 11 12  1  0
  2 13  1  0
 13 14  1  0
 14 15  1  0
 15 16  1  0
 16 17  2  0
 17 18  1  0
 18 19  2  0
 19 20  1  0
 20 21  1  0
 21 22  1  0
 22 23  2  0
 23 24  1  0
 24 25  2  0
 25 26  1  0
 25 27  1  0
 27 28  2  0
 17 29  1  0
  8  3  1  0
 29 13  1  0
 12  6  1  0
 20 16  1  0
 28 22  1  0
  4 30  1  0
  5 31  1  0
  8 32  1  0
 10 33  1  0
 10 34  1  0
 11 35  1  0
 11 36  1  0
 13 37  1  1
 14 38  1  0
 14 39  1  0
 15 40  1  0
 15 41  1  0
 18 42  1  0
 19 43  1  0
 21 44  1  0
 21 45  1  0
 23 46  1  0
 24 47  1  0
 27 48  1  0
 28 49  1  0
 29 50  1  0
 29 51  1  0
M  CHG  1  13   1
M  END
>  <UniqueID>  (4) 
4

>  <SMILES>  (4) 
O=C(c1ccc2c(c1)OCCO2)[N@@H+]1CCc2c(ccn2Cc2ccc(Cl)cc2)C1

>  <Energy>  (4) 
93.96838212389564

>  <Genealogy>  (4) 
O=C(c1ccc2c(c1)OCCO2)[NH+]1CCc2c(ccn2Cc2ccc(Cl)cc2)C1 (protonated)
O=C(c1ccc2c(c1)OCCO2)[N@@H+]1CCc2c(ccn2Cc2ccc(Cl)cc2)C1 (chirality)
O=C(c1ccc2c(c1)OCCO2)[N@@H+]1CCc2c(ccn2Cc2ccc(Cl)cc2)C1 (3D coordinates assigned)
O=C(c1ccc2c(c1)OCCO2)[N@@H+]1CCc2c(ccn2Cc2ccc(Cl)cc2)C1 (nonaromatic ring conformer: 93.96838212389564 kcal/mol)

>  <smiles>  (4) 
O=C(c1ccc2c(c1)OCCO2)N1CCc2c(ccn2Cc2ccc(Cl)cc2)C1

>  <score_type>  (4) 
oracle

>  <origin>  (4) 
adg

>  <m_score__min__energy>  (4) 
-8.2400000000000002

>  <m_primary>  (4) 
energy

$$$$
4:0
     RDKit          3D

 42 44  0  0  0  0  0  0  0  0999 V2000
   -6.1530   15.4370  -33.8810 C   0  0  0  0  0  0  0  0  0  0  0  0
   -6.5200   16.7220  -34.3720 O   0  0  0  0  0  0  0  0  0  0  0  0
   -6.0210   17.9370  -33.8750 C   0  0  0  0  0  0  0  0  0  0  0  0
   -4.7130   18.3760  -34.1530 C   0  0  0  0  0  0  0  0  0  0  0  0
   -4.2490   19.5900  -33.6400 C   0  0  0  0  0  0  0  0  0  0  0  0
   -2.9900   20.0080  -33.9280 N   0  0  0  0  0  0  0  0  0  0  0  0
   -2.5170   21.1860  -33.4500 C   0  0  0  0  0  0  0  0  0  0  0  0
   -3.3000   21.9690  -32.6630 N   0  0  0  0  0  0  0  0  0  0  0  0
   -4.5680   21.5960  -32.3340 C   0  0  0  0  0  0  0  0  0  0  0  0
   -5.3460   22.4420  -31.4760 N   0  0  0  0  0  0  0  0  0  0  0  0
   -6.7060   22.8110  -31.8830 C   0  0  0  0  0  0  0  0  0  0  0  0
   -7.3150   23.8360  -30.9180 C   0  0  0  0  0  0  0  0  0  0  0  0
   -6.3200   24.9740  -30.6600 C   0  0  0  0  0  0  0  0  0  0  0  0
   -4.9560   24.4750  -30.1080 C   0  0  2  0  0  0  0  0  0  0  0  0
   -3.8630   25.1800  -30.7830 N   0  0  0  0  0  0  0  0  0  0  0  0
   -4.7760   22.9420  -30.2200 C   0  0  0  0  0  0  0  0  0  0  0  0
   -5.0850   20.3830  -32.8320 C   0  0  0  0  0  0  0  0  0  0  0  0
   -6.3970   19.9530  -32.5650 C   0  0  0  0  0  0  0  0  0  0  0  0
   -6.8670   18.7290  -33.0820 C   0  0  0  0  0  0  0  0  0  0  0  0
   -8.1680   18.2660  -32.8300 O   0  0  0  0  0  0  0  0  0  0  0  0
   -9.0980   18.9020  -31.9580 C   0  0  0  0  0  0  0  0  0  0  0  0
   -6.1567   15.4500  -32.7811 H   0  0  0  0  0  0  0  0  0  0  0  0
   -6.8730   14.6875  -34.2413 H   0  0  0  0  0  0  0  0  0  0  0  0
   -5.1458   15.1808  -34.2413 H   0  0  0  0  0  0  0  0  0  0  0  0
   -4.0513   17.7590  -34.7786 H   0  0  0  0  0  0  0  0  0  0  0  0
   -1.4956   21.5085  -33.7005 H   0  0  0  0  0  0  0  0  0  0  0  0
   -2.9130   22.8690  -32.2990 H   0  0  0  0  0  0  0  0  0  0  0  0
   -6.6729   23.2449  -32.8933 H   0  0  0  0  0  0  0  0  0  0  0  0
   -7.3311   21.9060  -31.8698 H   0  0  0  0  0  0  0  0  0  0  0  0
   -8.2340   24.2494  -31.3590 H   0  0  0  0  0  0  0  0  0  0  0  0
   -7.5477   23.3387  -29.9648 H   0  0  0  0  0  0  0  0  0  0  0  0
   -6.1418   25.5051  -31.6067 H   0  0  0  0  0  0  0  0  0  0  0  0
   -6.7628   25.6313  -29.8972 H   0  0  0  0  0  0  0  0  0  0  0  0
   -4.9370   24.7031  -29.0321 H   0  0  0  0  0  0  0  0  0  0  0  0
   -3.1650   24.4770  -31.1200 H   0  0  0  0  0  0  0  0  0  0  0  0
   -4.2390   25.6750  -31.6250 H   0  0  0  0  0  0  0  0  0  0  0  0
   -3.7030   22.7015  -30.1897 H   0  0  0  0  0  0  0  0  0  0  0  0
   -5.2991   22.4627  -29.3794 H   0  0  0  0  0  0  0  0  0  0  0  0
   -7.0611   20.5764  -31.9483 H   0  0  0  0  0  0  0  0  0  0  0  0
   -8.8134   18.7074  -30.9134 H   0  0  0  0  0  0  0  0  0  0  0  0
   -9.0923   19.9862  -32.1437 H   0  0  0  0  0  0  0  0  0  0  0  0
  -10.1063   18.5035  -32.1437 H   0  0  0  0  0  0  0  0  0  0  0  0
  1  2  1  0
  2  3  1  0
  3  4  2  0
  4  5  1  0
  5  6  2  0
  6  7  1  0
  7  8  2  0
  8  9  1  0
  9 10  1  0
 10 11  1  0
 11 12  1  0
 12 13  1  0
 13 14  1  0
 14 15  1  0
 14 16  1  0
  9 17  2  0
 17 18  1  0
 18 19  2  0
 19 20  1  0
 20 21  1  0
 19  3  1  0
 17  5  1  0
 16 10  1  0
  1 22  1  0
  1 23  1  0
  1 24  1  0
  4 25  1  0
  7 26  1  0
  8 27  1  0
 11 28  1  0
 11 29  1  0
 12 30  1  0
 12 31  1  0
 13 32  1  0
 13 33  1  0
 14 34  1  1
 15 35  1  0
 15 36  1  0
 16 37  1  0
 16 38  1  0
 18 39  1  0
 21 40  1  0
 21 41  1  0
 21 42  1  0
M  CHG  1   8   1
M  END
>  <UniqueID>  (5) 
5

>  <SMILES>  (5) 
COc1cc2nc[nH+]c(N3CCC[C@H](N)C3)c2cc1OC

>  <Energy>  (5) 
52.15763096268759

>  <Genealogy>  (5) 
COc1cc2nc[nH+]c(N3CCCC(N)C3)c2cc1OC (protonated)
COc1cc2nc[nH+]c(N3CCC[C@H](N)C3)c2cc1OC (chirality)
COc1cc2nc[nH+]c(N3CCC[C@H](N)C3)c2cc1OC (3D coordinates assigned)
COc1cc2nc[nH+]c(N3CCC[C@H](N)C3)c2cc1OC (nonaromatic ring conformer: 52.15763096268759 kcal/mol)

>  <smiles>  (5) 
COc1cc2ncnc(N3CCCC(N)C3)c2cc1OC

>  <score_type>  (5) 
oracle

>  <origin>  (5) 
adg

>  <m_score__min__energy>  (5) 
-7.3399999999999999

>  <m_primary>  (5) 
energy

$$$$
5:0
     RDKit          3D

 49 52  0  0  0  0  0  0  0  0999 V2000
   -7.0490   22.4660  -32.4030 C   0  0  0  0  0  0  0  0  0  0  0  0
   -7.5870   21.0660  -32.3640 C   0  0  0  0  0  0  0  0  0  0  0  0
   -8.9200   20.8910  -32.1420 N   0  0  0  0  0  0  0  0  0  0  0  0
   -9.4900   19.6590  -32.0890 C   0  0  0  0  0  0  0  0  0  0  0  0
   -8.7050   18.5200  -32.2570 C   0  0  0  0  0  0  0  0  0  0  0  0
   -7.3360   18.6590  -32.4770 C   0  0  0  0  0  0  0  0  0  0  0  0
   -6.7540   19.9360  -32.5380 C   0  0  0  0  0  0  0  0  0  0  0  0
   -5.2940   20.0610  -32.7470 C   0  0  0  0  0  0  0  0  0  0  0  0
   -4.5310   20.9430  -32.0640 N   0  0  0  0  0  0  0  0  0  0  0  0
   -3.2770   20.7200  -32.5160 C   0  0  0  0  0  0  0  0  0  0  0  0
   -2.0510   21.4990  -32.1020 C   0  0  2  0  0  0  0  0  0  0  0  0
   -0.9460   20.6140  -31.4700 C   0  0  0  0  0  0  0  0  0  0  0  0
   -0.8630   20.7480  -29.9410 C   0  0  0  0  0  0  0  0  0  0  0  0
   -2.2460   20.9970  -29.3360 C   0  0  0  0  0  0  0  0  0  0  0  0
   -2.8390   22.2690  -29.8070 N   0  0  0  0  0  0  0  0  0  0  0  0
   -4.3040   22.2740  -29.6210 C   0  0  0  0  0  0  0  0  0  0  0  0
   -4.8670   23.6230  -29.9410 C   0  0  0  0  0  0  0  0  0  0  0  0
   -6.1670   24.0280  -29.7170 C   0  0  0  0  0  0  0  0  0  0  0  0
   -6.2260   25.3360  -30.1480 C   0  0  0  0  0  0  0  0  0  0  0  0
   -4.9600   25.6450  -30.6060 C   0  0  0  0  0  0  0  0  0  0  0  0
   -4.1730   24.6040  -30.4690 O   0  0  0  0  0  0  0  0  0  0  0  0
   -2.4330   22.6780  -31.1790 C   0  0  0  0  0  0  0  0  0  0  0  0
   -3.2980   19.7220  -33.4670 C   0  0  0  0  0  0  0  0  0  0  0  0
   -4.5690   19.3170  -33.6150 N   0  0  0  0  0  0  0  0  0  0  0  0
   -5.0350   18.2840  -34.5370 C   0  0  0  0  0  0  0  0  0  0  0  0
   -6.9078   22.8333  -31.3758 H   0  0  0  0  0  0  0  0  0  0  0  0
   -6.0840   22.4734  -32.9309 H   0  0  0  0  0  0  0  0  0  0  0  0
   -7.7607   23.1177  -32.9309 H   0  0  0  0  0  0  0  0  0  0  0  0
  -10.5714   19.5605  -31.9134 H   0  0  0  0  0  0  0  0  0  0  0  0
   -9.1619   17.5202  -32.2163 H   0  0  0  0  0  0  0  0  0  0  0  0
   -6.7082   17.7646  -32.6035 H   0  0  0  0  0  0  0  0  0  0  0  0
   -1.6138   21.9077  -33.0250 H   0  0  0  0  0  0  0  0  0  0  0  0
   -1.1556   19.5630  -31.7179 H   0  0  0  0  0  0  0  0  0  0  0  0
    0.0172   20.9514  -31.8803 H   0  0  0  0  0  0  0  0  0  0  0  0
   -0.4484   19.8199  -29.5206 H   0  0  0  0  0  0  0  0  0  0  0  0
   -0.2157   21.6038  -29.6991 H   0  0  0  0  0  0  0  0  0  0  0  0
   -2.9118   20.1687  -29.6200 H   0  0  0  0  0  0  0  0  0  0  0  0
   -2.1315   21.0605  -28.2438 H   0  0  0  0  0  0  0  0  0  0  0  0
   -4.7564   21.5252  -30.2878 H   0  0  0  0  0  0  0  0  0  0  0  0
   -4.5308   22.0329  -28.5720 H   0  0  0  0  0  0  0  0  0  0  0  0
   -6.9846   23.4321  -29.2851 H   0  0  0  0  0  0  0  0  0  0  0  0
   -7.1034   25.9993  -30.1307 H   0  0  0  0  0  0  0  0  0  0  0  0
   -4.6573   26.6170  -31.0227 H   0  0  0  0  0  0  0  0  0  0  0  0
   -3.2717   23.2200  -31.6402 H   0  0  0  0  0  0  0  0  0  0  0  0
   -1.5327   23.3007  -31.0709 H   0  0  0  0  0  0  0  0  0  0  0  0
   -2.4262   19.3271  -34.0092 H   0  0  0  0  0  0  0  0  0  0  0  0
   -5.4211   17.4281  -33.9639 H   0  0  0  0  0  0  0  0  0  0  0  0
   -5.8361   18.6924  -35.1706 H   0  0  0  0  0  0  0  0  0  0  0  0
   -4.1987   17.9537  -35.1706 H   0  0  0  0  0  0  0  0  0  0  0  0
  1  2  1  0
  2  3  2  0
  3  4  1  0
  4  5  2  0
  5  6  1  0
  6  7  2  0
  7  8  1  0
  8  9  2  0
  9 10  1  0
 10 11  1  0
 11 12  1  0
 12 13  1  0
 13 14  1  0
 14 15  1  0
 15 16  1  0
 16 17  1  0
 17 18  2  0
 18 19  1  0
 19 20  2  0
 20 21  1  0
 15 22  1  0
 10 23  2  0
 23 24  1  0
 24 25  1  0
  7  2  1  0
 24  8  1  0
 22 11  1  0
 21 17  1  0
  1 26  1  0
  1 27  1  0
  1 28  1  0
  4 29  1  0
  5 30  1  0
  6 31  1  0
 11 32  1  6
 12 33  1  0
 12 34  1  0
 13 35  1  0
 13 36  1  0
 14 37  1  0
 14 38  1  0
 16 39  1  0
 16 40  1  0
 18 41  1  0
 19 42  1  0
 20 43  1  0
 22 44  1  0
 22 45  1  0
 23 46  1  0
 25 47  1  0
 25 48  1  0
 25 49  1  0
M  END
>  <UniqueID>  (6) 
6

>  <SMILES>  (6) 
Cc1ncccc1-c1nc([C@@H]2CCCN(Cc3ccco3)C2)cn1C

>  <Energy>  (6) 
119.41660290869143

>  <Genealogy>  (6) 
Cc1ncccc1-c1nc([C@@H]2CCCN(Cc3ccco3)C2)cn1C (chirality)
Cc1ncccc1-c1nc([C@@H]2CCCN(Cc3ccco3)C2)cn1C (3D coordinates assigned)
Cc1ncccc1-c1nc([C@@H]2CCCN(Cc3ccco3)C2)cn1C (nonaromatic ring conformer: 119.41660290869143 kcal/mol)

>  <smiles>  (6) 
Cc1ncccc1-c1nc(C2CCCN(Cc3ccco3)C2)cn1C

>  <score_type>  (6) 
oracle

>  <origin>  (6) 
adg

>  <m_score__min__energy>  (6) 
-8.2400000000000002

>  <m_primary>  (6) 
energy

$$$$
6:0
     RDKit          3D

 40 43  0  0  0  0  0  0  0  0999 V2000
   -0.8580   17.6830  -26.7090 N   0  0  0  0  0  0  0  0  0  0  0  0
   -0.0050   18.4230  -28.0170 S   0  0  0  0  0  0  0  0  0  0  0  0
    1.3110   18.9530  -27.5210 O   0  0  0  0  0  0  0  0  0  0  0  0
    0.2600   17.4040  -29.0900 O   0  0  0  0  0  0  0  0  0  0  0  0
   -0.9700   19.7410  -28.6720 C   0  0  0  0  0  0  0  0  0  0  0  0
   -0.5960   20.3560  -29.8740 C   0  0  0  0  0  0  0  0  0  0  0  0
   -1.3680   21.3940  -30.4030 C   0  0  0  0  0  0  0  0  0  0  0  0
   -2.5260   21.8230  -29.7380 C   0  0  0  0  0  0  0  0  0  0  0  0
   -3.3040   22.9100  -30.2660 N   0  0  0  0  0  0  0  0  0  0  0  0
   -3.3110   24.2060  -29.8790 C   0  0  0  0  0  0  0  0  0  0  0  0
   -2.4890   24.7900  -28.8030 C   0  0  0  0  0  0  0  0  0  0  0  0
   -2.5100   24.4010  -27.4790 C   0  0  0  0  0  0  0  0  0  0  0  0
   -1.5840   25.1980  -26.8410 C   0  0  0  0  0  0  0  0  0  0  0  0
   -1.0530   26.0200  -27.8130 C   0  0  0  0  0  0  0  0  0  0  0  0
   -1.6110   25.7520  -28.9720 O   0  0  0  0  0  0  0  0  0  0  0  0
   -4.2520   24.9070  -30.5420 N   0  0  0  0  0  0  0  0  0  0  0  0
   -4.8650   24.0640  -31.3600 N   0  0  0  0  0  0  0  0  0  0  0  0
   -4.2880   22.8590  -31.1920 C   0  0  0  0  0  0  0  0  0  0  0  0
   -4.7170   21.6520  -31.9280 C   0  0  0  0  0  0  0  0  0  0  0  0
   -6.0330   21.1860  -31.7790 C   0  0  0  0  0  0  0  0  0  0  0  0
   -6.4570   20.0400  -32.4560 C   0  0  0  0  0  0  0  0  0  0  0  0
   -5.5770   19.3570  -33.3000 C   0  0  0  0  0  0  0  0  0  0  0  0
   -6.1120   17.9190  -34.1510 Cl  0  0  0  0  0  0  0  0  0  0  0  0
   -4.2720   19.8290  -33.4750 C   0  0  0  0  0  0  0  0  0  0  0  0
   -3.8420   20.9750  -32.7990 C   0  0  0  0  0  0  0  0  0  0  0  0
   -2.5900   21.4460  -33.0330 F   0  0  0  0  0  0  0  0  0  0  0  0
   -2.8980   21.2080  -28.5340 C   0  0  0  0  0  0  0  0  0  0  0  0
   -2.1280   20.1670  -28.0070 C   0  0  0  0  0  0  0  0  0  0  0  0
   -1.8630   17.6310  -26.9890 H   0  0  0  0  0  0  0  0  0  0  0  0
   -0.5140   16.6990  -26.6370 H   0  0  0  0  0  0  0  0  0  0  0  0
    0.3082   20.0208  -30.4031 H   0  0  0  0  0  0  0  0  0  0  0  0
   -1.0663   21.8763  -31.3444 H   0  0  0  0  0  0  0  0  0  0  0  0
   -3.1358   23.6175  -27.0268 H   0  0  0  0  0  0  0  0  0  0  0  0
   -1.3216   25.1818  -25.7729 H   0  0  0  0  0  0  0  0  0  0  0  0
   -0.2798   26.7839  -27.6436 H   0  0  0  0  0  0  0  0  0  0  0  0
   -6.7339   21.7262  -31.1257 H   0  0  0  0  0  0  0  0  0  0  0  0
   -7.4860   19.6743  -32.3245 H   0  0  0  0  0  0  0  0  0  0  0  0
   -3.5819   19.2971  -34.1464 H   0  0  0  0  0  0  0  0  0  0  0  0
   -3.7995   21.5461  -28.0020 H   0  0  0  0  0  0  0  0  0  0  0  0
   -2.4317   19.6810  -27.0681 H   0  0  0  0  0  0  0  0  0  0  0  0
  1  2  1  0
  2  3  2  0
  2  4  2  0
  2  5  1  0
  5  6  2  0
  6  7  1  0
  7  8  2  0
  8  9  1  0
  9 10  1  0
 10 11  1  0
 11 12  2  0
 12 13  1  0
 13 14  2  0
 14 15  1  0
 10 16  2  0
 16 17  1  0
 17 18  2  0
 18 19  1  0
 19 20  2  0
 20 21  1  0
 21 22  2  0
 22 23  1  0
 22 24  1  0
 24 25  2  0
 25 26  1  0
  8 27  1  0
 27 28  2  0
 28  5  1  0
 18  9  1  0
 25 19  1  0
 15 11  1  0
  1 29  1  0
  1 30  1  0
  6 31  1  0
  7 32  1  0
 12 33  1  0
 13 34  1  0
 14 35  1  0
 20 36  1  0
 21 37  1  0
 24 38  1  0
 27 39  1  0
 28 40  1  0
M  END
>  <UniqueID>  (7) 
7

>  <SMILES>  (7) 
NS(=O)(=O)c1ccc(-n2c(-c3ccco3)nnc2-c2ccc(Cl)cc2F)cc1

>  <Energy>  (7) 
114.86034856302912

>  <Genealogy>  (7) 
NS(=O)(=O)c1ccc(-n2c(-c3ccco3)nnc2-c2ccc(Cl)cc2F)cc1 (3D coordinates assigned)
NS(=O)(=O)c1ccc(-n2c(-c3ccco3)nnc2-c2ccc(Cl)cc2F)cc1 (optimized conformer: 114.86034856302912 kcal/mol)

>  <smiles>  (7) 
NS(=O)(=O)c1ccc(-n2c(-c3ccco3)nnc2-c2ccc(Cl)cc2F)cc1

>  <score_type>  (7) 
oracle

>  <origin>  (7) 
adg

>  <m_score__min__energy>  (7) 
-9.6099999999999994

>  <m_primary>  (7) 
energy

$$$$
7:0
     RDKit          3D

 37 40  0  0  0  0  0  0  0  0999 V2000
   -1.7940   21.4810  -27.2670 C   0  0  0  0  0  0  0  0  0  0  0  0
   -2.2300   20.6480  -28.3000 C   0  0  0  0  0  0  0  0  0  0  0  0
   -3.1130   21.1330  -29.2700 C   0  0  0  0  0  0  0  0  0  0  0  0
   -3.5710   22.4640  -29.2160 C   0  0  0  0  0  0  0  0  0  0  0  0
   -4.5090   23.0000  -30.2320 C   0  0  0  0  0  0  0  0  0  0  0  0
   -4.3480   24.1940  -30.8420 N   0  0  0  0  0  0  0  0  0  0  0  0
   -5.3600   24.3100  -31.6510 O   0  0  0  0  0  0  0  0  0  0  0  0
   -6.1210   23.2460  -31.5620 C   0  0  0  0  0  0  0  0  0  0  0  0
   -7.3810   23.0430  -32.3390 C   0  0  0  0  0  0  0  0  0  0  0  0
   -7.8480   21.6670  -32.1820 N   0  0  0  0  0  0  0  0  0  0  0  0
   -9.0470   21.2760  -31.4420 C   0  0  0  0  0  0  0  0  0  0  0  0
   -9.0990   19.7290  -31.5050 C   0  0  0  0  0  0  0  0  0  0  0  0
   -7.8880   19.3730  -32.2970 C   0  0  0  0  0  0  0  0  0  0  0  0
   -7.4370   18.1030  -32.6590 C   0  0  0  0  0  0  0  0  0  0  0  0
   -6.2590   18.0000  -33.4170 C   0  0  0  0  0  0  0  0  0  0  0  0
   -5.5580   19.1620  -33.7980 C   0  0  0  0  0  0  0  0  0  0  0  0
   -6.0320   20.4290  -33.4210 C   0  0  0  0  0  0  0  0  0  0  0  0
   -7.2050   20.5000  -32.6640 C   0  0  0  0  0  0  0  0  0  0  0  0
   -5.6220   22.3740  -30.6690 N   0  0  0  0  0  0  0  0  0  0  0  0
   -3.1260   23.2920  -28.1670 C   0  0  0  0  0  0  0  0  0  0  0  0
   -2.2420   22.8010  -27.2010 C   0  0  0  0  0  0  0  0  0  0  0  0
   -1.0983   21.0970  -26.5064 H   0  0  0  0  0  0  0  0  0  0  0  0
   -1.8777   19.6072  -28.3507 H   0  0  0  0  0  0  0  0  0  0  0  0
   -3.4520   20.4709  -30.0803 H   0  0  0  0  0  0  0  0  0  0  0  0
   -8.1526   23.7342  -31.9690 H   0  0  0  0  0  0  0  0  0  0  0  0
   -7.1847   23.2388  -33.4035 H   0  0  0  0  0  0  0  0  0  0  0  0
   -8.9794   21.6144  -30.3975 H   0  0  0  0  0  0  0  0  0  0  0  0
   -9.9527   21.7284  -31.8722 H   0  0  0  0  0  0  0  0  0  0  0  0
   -9.0517   19.2925  -30.4964 H   0  0  0  0  0  0  0  0  0  0  0  0
  -10.0300   19.3491  -31.9510 H   0  0  0  0  0  0  0  0  0  0  0  0
   -7.9919   17.2024  -32.3574 H   0  0  0  0  0  0  0  0  0  0  0  0
   -5.8826   17.0100  -33.7140 H   0  0  0  0  0  0  0  0  0  0  0  0
   -4.6366   19.0761  -34.3926 H   0  0  0  0  0  0  0  0  0  0  0  0
   -5.4938   21.3425  -33.7140 H   0  0  0  0  0  0  0  0  0  0  0  0
   -6.0160   21.4480  -30.3990 H   0  0  0  0  0  0  0  0  0  0  0  0
   -3.4765   24.3329  -28.1072 H   0  0  0  0  0  0  0  0  0  0  0  0
   -1.8990   23.4568  -26.3872 H   0  0  0  0  0  0  0  0  0  0  0  0
  1  2  2  0
  2  3  1  0
  3  4  2  0
  4  5  1  0
  5  6  2  0
  6  7  1  0
  7  8  1  0
  8  9  1  0
  9 10  1  0
 10 11  1  0
 11 12  1  0
 12 13  1  0
 13 14  2  0
 14 15  1  0
 15 16  2  0
 16 17  1  0
 17 18  2  0
  8 19  2  0
  4 20  1  0
 20 21  2  0
 21  1  1  0
 19  5  1  0
 18 10  1  0
 18 13  1  0
  1 22  1  0
  2 23  1  0
  3 24  1  0
  9 25  1  0
  9 26  1  0
 11 27  1  0
 11 28  1  0
 12 29  1  0
 12 30  1  0
 14 31  1  0
 15 32  1  0
 16 33  1  0
 17 34  1  0
 19 35  1  0
 20 36  1  0
 21 37  1  0
M  CHG  1  19   1
M  END
>  <UniqueID>  (8) 
8

>  <SMILES>  (8) 
c1ccc(-c2noc(CN3CCc4ccccc43)[nH+]2)cc1

>  <Energy>  (8) 
88.32918415511479

>  <Genealogy>  (8) 
c1ccc(-c2noc(CN3CCc4ccccc43)[nH+]2)cc1 (protonated)
c1ccc(-c2noc(CN3CCc4ccccc43)[nH+]2)cc1 (3D coordinates assigned)
c1ccc(-c2noc(CN3CCc4ccccc43)[nH+]2)cc1 (nonaromatic ring conformer: 88.32918415511479 kcal/mol)

>  <smiles>  (8) 
c1ccc(-c2noc(CN3CCc4ccccc43)n2)cc1

>  <score_type>  (8) 
oracle

>  <origin>  (8) 
adg

>  <m_score__min__energy>  (8) 
-7.6100000000000003

>  <m_primary>  (8) 
energy

$$$$
8:0
     RDKit          3D

 54 56  0  0  0  0  0  0  0  0999 V2000
   -1.2230   26.0830  -26.7500 C   0  0  0  0  0  0  0  0  0  0  0  0
   -0.8820   26.1730  -28.2320 C   0  0  0  0  0  0  0  0  0  0  0  0
   -1.6550   25.1810  -28.9880 N   0  0  0  0  0  0  0  0  0  0  0  0
   -2.7240   24.6230  -28.1500 C   0  0  0  0  0  0  0  0  0  0  0  0
   -4.0200   24.5060  -28.9560 C   0  0  0  0  0  0  0  0  0  0  0  0
   -3.7450   24.2970  -30.3420 O   0  0  0  0  0  0  0  0  0  0  0  0
   -3.9660   23.1040  -31.0500 C   0  0  0  0  0  0  0  0  0  0  0  0
   -5.1340   22.3350  -30.9030 C   0  0  0  0  0  0  0  0  0  0  0  0
   -5.3070   21.1620  -31.6420 C   0  0  0  0  0  0  0  0  0  0  0  0
   -4.3230   20.7450  -32.5590 C   0  0  0  0  0  0  0  0  0  0  0  0
   -3.1330   21.4830  -32.6670 C   0  0  0  0  0  0  0  0  0  0  0  0
   -2.9740   22.6720  -31.9360 C   0  0  0  0  0  0  0  0  0  0  0  0
   -2.0940   21.0150  -33.5470 N   0  0  0  0  0  0  0  0  0  0  0  0
   -1.9490   19.5610  -33.3990 C   0  0  0  0  0  0  0  0  0  0  0  0
   -3.2460   18.8280  -33.7950 C   0  0  0  0  0  0  0  0  0  0  0  0
   -4.4670   19.5420  -33.3570 N   0  0  0  0  0  0  0  0  0  0  0  0
   -5.8140   19.0580  -33.7560 C   0  0  0  0  0  0  0  0  0  0  0  0
   -6.5860   18.4800  -32.5510 C   0  0  0  0  0  0  0  0  0  0  0  0
   -6.2210   17.0200  -32.1970 C   0  0  0  0  0  0  0  0  0  0  0  0
   -5.4180   16.3560  -33.2450 N   0  0  0  0  0  0  0  0  0  0  0  0
   -5.3430   14.9100  -32.9900 C   0  0  0  0  0  0  0  0  0  0  0  0
   -5.9800   16.6150  -34.5790 C   0  0  0  0  0  0  0  0  0  0  0  0
   -5.7780   18.0880  -34.9660 C   0  0  0  0  0  0  0  0  0  0  0  0
   -0.3296   26.3188  -26.1532 H   0  0  0  0  0  0  0  0  0  0  0  0
   -2.0220   26.8010  -26.5133 H   0  0  0  0  0  0  0  0  0  0  0  0
   -1.5636   25.0642  -26.5133 H   0  0  0  0  0  0  0  0  0  0  0  0
   -1.1240   27.1808  -28.6006 H   0  0  0  0  0  0  0  0  0  0  0  0
    0.1911   25.9729  -28.3675 H   0  0  0  0  0  0  0  0  0  0  0  0
   -2.1060   25.6740  -29.7950 H   0  0  0  0  0  0  0  0  0  0  0  0
   -2.4249   23.6254  -27.7958 H   0  0  0  0  0  0  0  0  0  0  0  0
   -2.8935   25.2905  -27.2923 H   0  0  0  0  0  0  0  0  0  0  0  0
   -4.6057   23.6570  -28.5737 H   0  0  0  0  0  0  0  0  0  0  0  0
   -4.5847   25.4439  -28.8488 H   0  0  0  0  0  0  0  0  0  0  0  0
   -5.9168   22.6591  -30.2014 H   0  0  0  0  0  0  0  0  0  0  0  0
   -6.2178   20.5603  -31.5066 H   0  0  0  0  0  0  0  0  0  0  0  0
   -2.0592   23.2698  -32.0619 H   0  0  0  0  0  0  0  0  0  0  0  0
   -1.1780   21.4650  -33.3110 H   0  0  0  0  0  0  0  0  0  0  0  0
   -2.3450   21.2530  -34.5340 H   0  0  0  0  0  0  0  0  0  0  0  0
   -1.1294   19.2145  -34.0457 H   0  0  0  0  0  0  0  0  0  0  0  0
   -1.7314   19.3384  -32.3440 H   0  0  0  0  0  0  0  0  0  0  0  0
   -3.2720   18.7271  -34.8900 H   0  0  0  0  0  0  0  0  0  0  0  0
   -3.2382   17.8486  -33.2942 H   0  0  0  0  0  0  0  0  0  0  0  0
   -6.3742   19.9371  -34.1071 H   0  0  0  0  0  0  0  0  0  0  0  0
   -6.3751   19.1093  -31.6738 H   0  0  0  0  0  0  0  0  0  0  0  0
   -7.6494   18.4774  -32.8325 H   0  0  0  0  0  0  0  0  0  0  0  0
   -5.6441   17.0200  -31.2604 H   0  0  0  0  0  0  0  0  0  0  0  0
   -7.1625   16.4596  -32.0989 H   0  0  0  0  0  0  0  0  0  0  0  0
   -5.3336   14.7290  -31.9050 H   0  0  0  0  0  0  0  0  0  0  0  0
   -6.2166   14.4130  -33.4371 H   0  0  0  0  0  0  0  0  0  0  0  0
   -4.4227   14.5061  -33.4371 H   0  0  0  0  0  0  0  0  0  0  0  0
   -5.4750   15.9736  -35.3163 H   0  0  0  0  0  0  0  0  0  0  0  0
   -7.0574   16.3940  -34.5624 H   0  0  0  0  0  0  0  0  0  0  0  0
   -4.8011   18.1866  -35.4619 H   0  0  0  0  0  0  0  0  0  0  0  0
   -6.6123   18.3654  -35.6270 H   0  0  0  0  0  0  0  0  0  0  0  0
  1  2  1  0
  2  3  1  0
  3  4  1  0
  4  5  1  0
  5  6  1  0
  6  7  1  0
  7  8  2  0
  8  9  1  0
  9 10  2  0
 10 11  1  0
 11 12  2  0
 11 13  1  0
 13 14  1  0
 14 15  1  0
 15 16  1  0
 16 17  1  0
 17 18  1  0
 18 19  1  0
 19 20  1  0
 20 21  1  0
 20 22  1  0
 22 23  1  0
 12  7  1  0
 23 17  1  0
 16 10  1  0
  1 24  1  0
  1 25  1  0
  1 26  1  0
  2 27  1  0
  2 28  1  0
  3 29  1  0
  4 30  1  0
  4 31  1  0
  5 32  1  0
  5 33  1  0
  8 34  1  0
  9 35  1  0
 12 36  1  0
 13 37  1  0
 13 38  1  0
 14 39  1  0
 14 40  1  0
 15 41  1  0
 15 42  1  0
 17 43  1  0
 18 44  1  0
 18 45  1  0
 19 46  1  0
 19 47  1  0
 21 48  1  0
 21 49  1  0
 21 50  1  0
 22 51  1  0
 22 52  1  0
 23 53  1  0
 23 54  1  0
M  CHG  1  13   1
M  END
>  <UniqueID>  (9) 
9

>  <SMILES>  (9) 
CCNCCOc1ccc2c(c1)[NH2+]CCN2C1CCN(C)CC1

>  <Energy>  (9) 
64.31025669612373

>  <Genealogy>  (9) 
CCNCCOc1ccc2c(c1)[NH2+]CCN2C1CCN(C)CC1 (protonated)
CCNCCOc1ccc2c(c1)[NH2+]CCN2C1CCN(C)CC1 (3D coordinates assigned)
CCNCCOc1ccc2c(c1)[NH2+]CCN2C1CCN(C)CC1 (nonaromatic ring conformer: 64.31025669612373 kcal/mol)

>  <smiles>  (9) 
CCNCCOc1ccc2c(c1)NCCN2C1CCN(C)CC1

>  <score_type>  (9) 
oracle

>  <origin>  (9) 
adg

>  <m_score__min__energy>  (9) 
-7.6200000000000001

>  <m_primary>  (9) 
energy

$$$$
9:0
     RDKit          3D

 41 42  0  0  0  0  0  0  0  0999 V2000
   -7.7850   23.5120  -32.1310 C   0  0  0  0  0  0  0  0  0  0  0  0
   -6.5470   23.2550  -31.3520 N   0  0  0  0  0  0  0  0  0  0  0  0
   -5.4000   23.0970  -32.2810 C   0  0  0  0  0  0  0  0  0  0  0  0
   -6.3030   24.3810  -30.3890 C   0  0  0  0  0  0  0  0  0  0  0  0
   -5.3560   25.5120  -30.8670 C   0  0  0  0  0  0  0  0  0  0  0  0
   -4.0050   25.2770  -30.4630 O   0  0  0  0  0  0  0  0  0  0  0  0
   -3.5540   24.1880  -29.6980 C   0  0  0  0  0  0  0  0  0  0  0  0
   -3.8570   24.1720  -28.3310 C   0  0  0  0  0  0  0  0  0  0  0  0
   -3.4320   23.1160  -27.5210 C   0  0  0  0  0  0  0  0  0  0  0  0
   -2.7000   22.0620  -28.0730 C   0  0  0  0  0  0  0  0  0  0  0  0
   -2.3940   22.0620  -29.4370 C   0  0  0  0  0  0  0  0  0  0  0  0
   -1.4760   20.7360  -30.1290 Cl  0  0  0  0  0  0  0  0  0  0  0  0
   -2.8180   23.1190  -30.2500 C   0  0  0  0  0  0  0  0  0  0  0  0
   -6.7120   22.0120  -30.5270 C   0  0  0  0  0  0  0  0  0  0  0  0
   -7.2120   20.7890  -31.2800 C   0  0  0  0  0  0  0  0  0  0  0  0
   -8.5820   20.4770  -31.3020 C   0  0  0  0  0  0  0  0  0  0  0  0
   -9.0430   19.3630  -32.0110 C   0  0  0  0  0  0  0  0  0  0  0  0
   -8.1420   18.5610  -32.7160 C   0  0  0  0  0  0  0  0  0  0  0  0
   -6.7800   18.8740  -32.7160 C   0  0  0  0  0  0  0  0  0  0  0  0
   -6.3160   19.9860  -32.0090 C   0  0  0  0  0  0  0  0  0  0  0  0
   -8.6233   23.6860  -31.4404 H   0  0  0  0  0  0  0  0  0  0  0  0
   -7.6418   24.3996  -32.7648 H   0  0  0  0  0  0  0  0  0  0  0  0
   -8.0069   22.6408  -32.7648 H   0  0  0  0  0  0  0  0  0  0  0  0
   -4.4737   22.9694  -31.7016 H   0  0  0  0  0  0  0  0  0  0  0  0
   -5.5607   22.2125  -32.9149 H   0  0  0  0  0  0  0  0  0  0  0  0
   -5.3156   23.9920  -32.9149 H   0  0  0  0  0  0  0  0  0  0  0  0
   -7.2764   24.8373  -30.1559 H   0  0  0  0  0  0  0  0  0  0  0  0
   -5.7939   23.9213  -29.5290 H   0  0  0  0  0  0  0  0  0  0  0  0
   -5.3949   25.5692  -31.9648 H   0  0  0  0  0  0  0  0  0  0  0  0
   -5.6910   26.4552  -30.4108 H   0  0  0  0  0  0  0  0  0  0  0  0
   -4.4348   24.9982  -27.8910 H   0  0  0  0  0  0  0  0  0  0  0  0
   -3.6739   23.1145  -26.4479 H   0  0  0  0  0  0  0  0  0  0  0  0
   -2.3643   21.2318  -27.4342 H   0  0  0  0  0  0  0  0  0  0  0  0
   -2.5765   23.1162  -31.3232 H   0  0  0  0  0  0  0  0  0  0  0  0
   -5.7342   21.7638  -30.0885 H   0  0  0  0  0  0  0  0  0  0  0  0
   -7.4859   22.2449  -29.7808 H   0  0  0  0  0  0  0  0  0  0  0  0
   -9.2962   21.1128  -30.7583 H   0  0  0  0  0  0  0  0  0  0  0  0
  -10.1154   19.1182  -32.0136 H   0  0  0  0  0  0  0  0  0  0  0  0
   -8.5047   17.6833  -33.2710 H   0  0  0  0  0  0  0  0  0  0  0  0
   -6.0719   18.2436  -33.2738 H   0  0  0  0  0  0  0  0  0  0  0  0
   -5.2446   20.2350  -32.0224 H   0  0  0  0  0  0  0  0  0  0  0  0
  1  2  1  0
  2  3  1  0
  2  4  1  0
  4  5  1  0
  5  6  1  0
  6  7  1  0
  7  8  2  0
  8  9  1  0
  9 10  2  0
 10 11  1  0
 11 12  1  0
 11 13  2  0
  2 14  1  0
 14 15  1  0
 15 16  2  0
 16 17  1  0
 17 18  2  0
 18 19  1  0
 19 20  2  0
 13  7  1  0
 20 15  1  0
  1 21  1  0
  1 22  1  0
  1 23  1  0
  3 24  1  0
  3 25  1  0
  3 26  1  0
  4 27  1  0
  4 28  1  0
  5 29  1  0
  5 30  1  0
  8 31  1  0
  9 32  1  0
 10 33  1  0
 13 34  1  0
 14 35  1  0
 14 36  1  0
 16 37  1  0
 17 38  1  0
 18 39  1  0
 19 40  1  0
 20 41  1  0
M  CHG  1   2   1
M  END
>  <UniqueID>  (10) 
10

>  <SMILES>  (10) 
C[N+](C)(CCOc1cccc(Cl)c1)Cc1ccccc1

>  <Energy>  (10) 
53.55277734413712

>  <Genealogy>  (10) 
C[N+](C)(CCOc1cccc(Cl)c1)Cc1ccccc1 (3D coordinates assigned)
C[N+](C)(CCOc1cccc(Cl)c1)Cc1ccccc1 (optimized conformer: 53.55277734413712 kcal/mol)

>  <smiles>  (10) 
C[N+](C)(CCOc1cccc(Cl)c1)Cc1ccccc1

>  <score_type>  (10) 
oracle

>  <origin>  (10) 
adg

>  <m_score__min__energy>  (10) 
-6.7599999999999998

>  <m_primary>  (10) 
energy

$$$$
10:0
     RDKit          3D

 30 31  0  0  0  0  0  0  0  0999 V2000
   -9.1140   18.2220  -31.5560 C   0  0  0  0  0  0  0  0  0  0  0  0
   -7.9700   18.0790  -31.9090 C   0  0  0  0  0  0  0  0  0  0  0  0
   -6.5770   17.9040  -32.3420 C   0  0  0  0  0  0  0  0  0  0  0  0
   -6.1600   18.9770  -33.3630 C   0  0  0  0  0  0  0  0  0  0  0  0
   -7.2360   19.9360  -33.6760 N   0  0  0  0  0  0  0  0  0  0  0  0
   -7.2050   21.0830  -32.8000 C   0  0  0  0  0  0  0  0  0  0  0  0
   -8.3600   21.4800  -32.1030 C   0  0  0  0  0  0  0  0  0  0  0  0
   -8.3270   22.5840  -31.2480 C   0  0  0  0  0  0  0  0  0  0  0  0
   -7.1350   23.2970  -31.0580 C   0  0  0  0  0  0  0  0  0  0  0  0
   -5.9770   22.9080  -31.7590 C   0  0  0  0  0  0  0  0  0  0  0  0
   -6.0140   21.8100  -32.6230 C   0  0  0  0  0  0  0  0  0  0  0  0
   -4.7560   23.6310  -31.5790 N   0  0  0  0  0  0  0  0  0  0  0  0
   -4.6410   24.6210  -30.5550 C   0  0  0  0  0  0  0  0  0  0  0  0
   -3.5860   25.2990  -30.4530 O   0  0  0  0  0  0  0  0  0  0  0  0
   -5.7500   24.7870  -29.5570 C   0  0  0  0  0  0  0  0  0  0  0  0
   -7.1180   24.5490  -30.2120 C   0  0  0  0  0  0  0  0  0  0  0  0
  -10.1577   18.3525  -31.2340 H   0  0  0  0  0  0  0  0  0  0  0  0
   -5.9190   17.9731  -31.4632 H   0  0  0  0  0  0  0  0  0  0  0  0
   -6.4885   16.9191  -32.8238 H   0  0  0  0  0  0  0  0  0  0  0  0
   -5.3043   19.5341  -32.9538 H   0  0  0  0  0  0  0  0  0  0  0  0
   -5.9072   18.4554  -34.2979 H   0  0  0  0  0  0  0  0  0  0  0  0
   -8.1690   19.4620  -33.6360 H   0  0  0  0  0  0  0  0  0  0  0  0
   -7.1090   20.2650  -34.6620 H   0  0  0  0  0  0  0  0  0  0  0  0
   -9.2962   20.9171  -32.2321 H   0  0  0  0  0  0  0  0  0  0  0  0
   -9.2409   22.8956  -30.7211 H   0  0  0  0  0  0  0  0  0  0  0  0
   -5.1060   21.5125  -33.1680 H   0  0  0  0  0  0  0  0  0  0  0  0
   -5.6109   24.0630  -28.7406 H   0  0  0  0  0  0  0  0  0  0  0  0
   -5.7212   25.8156  -29.1681 H   0  0  0  0  0  0  0  0  0  0  0  0
   -7.8773   24.4531  -29.4219 H   0  0  0  0  0  0  0  0  0  0  0  0
   -7.3311   25.4044  -30.8699 H   0  0  0  0  0  0  0  0  0  0  0  0
  1  2  3  0
  2  3  1  0
  3  4  1  0
  4  5  1  0
  5  6  1  0
  6  7  2  0
  7  8  1  0
  8  9  2  0
  9 10  1  0
 10 11  2  0
 10 12  1  0
 12 13  1  0
 13 14  2  0
 13 15  1  0
 15 16  1  0
 11  6  1  0
 16  9  1  0
  1 17  1  0
  3 18  1  0
  3 19  1  0
  4 20  1  0
  4 21  1  0
  5 22  1  0
  5 23  1  0
  7 24  1  0
  8 25  1  0
 11 26  1  0
 15 27  1  0
 15 28  1  0
 16 29  1  0
 16 30  1  0
M  CHG  2   5   1  12  -1
M  END
>  <UniqueID>  (11) 
11

>  <SMILES>  (11) 
C#CCC[NH2+]c1ccc2c(c1)[N-]C(=O)CC2

>  <Energy>  (11) 
27.316904513821346

>  <Genealogy>  (11) 
C#CCC[NH2+]c1ccc2c(c1)[N-]C(=O)CC2 (protonated)
C#CCC[NH2+]c1ccc2c(c1)[N-]C(=O)CC2 (3D coordinates assigned)
C#CCC[NH2+]c1ccc2c(c1)[N-]C(=O)CC2 (nonaromatic ring conformer: 27.316904513821346 kcal/mol)

>  <smiles>  (11) 
C#CCCNc1ccc2c(c1)NC(=O)CC2

>  <score_type>  (11) 
oracle

>  <origin>  (11) 
adg

>  <m_score__min__energy>  (11) 
-7.9400000000000004

>  <m_primary>  (11) 
energy

$$$$
11:0
     RDKit          3D

 45 48  0  0  0  0  0  0  0  0999 V2000
   -5.6180   25.6900  -30.1210 C   0  0  0  0  0  0  0  0  0  0  0  0
   -4.6440   24.9240  -30.8220 O   0  0  0  0  0  0  0  0  0  0  0  0
   -4.8180   23.5900  -31.2250 C   0  0  0  0  0  0  0  0  0  0  0  0
   -5.6780   23.2350  -32.2830 C   0  0  0  0  0  0  0  0  0  0  0  0
   -5.8410   21.8950  -32.6400 C   0  0  0  0  0  0  0  0  0  0  0  0
   -5.1510   20.8970  -31.9510 C   0  0  0  0  0  0  0  0  0  0  0  0
   -4.2950   21.2360  -30.9020 C   0  0  0  0  0  0  0  0  0  0  0  0
   -4.1190   22.5790  -30.5360 C   0  0  0  0  0  0  0  0  0  0  0  0
   -3.2310   22.9150  -29.4580 N   0  0  0  0  0  0  0  0  0  0  0  0
   -3.7780   23.1300  -28.1140 C   0  0  0  0  0  0  0  0  0  0  0  0
   -2.6700   23.4100  -27.0900 C   0  0  0  0  0  0  0  0  0  0  0  0
   -1.7010   24.3840  -27.6190 N   0  0  0  0  0  0  0  0  0  0  0  0
   -1.0750   25.3300  -26.7210 C   0  0  0  0  0  0  0  0  0  0  0  0
   -0.8700   26.6700  -27.0860 C   0  0  0  0  0  0  0  0  0  0  0  0
   -0.2600   27.5420  -26.1880 C   0  0  0  0  0  0  0  0  0  0  0  0
    0.1380   27.0700  -24.9320 C   0  0  0  0  0  0  0  0  0  0  0  0
    0.7890   27.9460  -23.9360 C   0  0  0  0  0  0  0  0  0  0  0  0
    1.1260   29.2810  -24.0790 C   0  0  0  0  0  0  0  0  0  0  0  0
    1.7010   29.6190  -22.8700 C   0  0  0  0  0  0  0  0  0  0  0  0
    1.6960   28.5590  -22.0930 O   0  0  0  0  0  0  0  0  0  0  0  0
    1.1570   27.5460  -22.7030 N   0  0  0  0  0  0  0  0  0  0  0  0
   -0.0860   25.7640  -24.6240 N   0  0  0  0  0  0  0  0  0  0  0  0
   -0.6680   24.9280  -25.4850 N   0  0  0  0  0  0  0  0  0  0  0  0
   -1.2440   24.2780  -29.0170 C   0  0  0  0  0  0  0  0  0  0  0  0
   -1.7890   23.0200  -29.6980 C   0  0  0  0  0  0  0  0  0  0  0  0
   -5.4675   25.5716  -29.0378 H   0  0  0  0  0  0  0  0  0  0  0  0
   -5.5143   26.7511  -30.3918 H   0  0  0  0  0  0  0  0  0  0  0  0
   -6.6248   25.3391  -30.3918 H   0  0  0  0  0  0  0  0  0  0  0  0
   -6.2238   24.0175  -32.8306 H   0  0  0  0  0  0  0  0  0  0  0  0
   -6.5150   21.6255  -33.4665 H   0  0  0  0  0  0  0  0  0  0  0  0
   -5.2817   19.8423  -32.2347 H   0  0  0  0  0  0  0  0  0  0  0  0
   -3.7554   20.4459  -30.3592 H   0  0  0  0  0  0  0  0  0  0  0  0
   -4.4640   23.9894  -28.1413 H   0  0  0  0  0  0  0  0  0  0  0  0
   -4.3058   22.2149  -27.8075 H   0  0  0  0  0  0  0  0  0  0  0  0
   -3.1216   23.8134  -26.1717 H   0  0  0  0  0  0  0  0  0  0  0  0
   -2.1421   22.4688  -26.8766 H   0  0  0  0  0  0  0  0  0  0  0  0
   -1.1894   27.0290  -28.0755 H   0  0  0  0  0  0  0  0  0  0  0  0
   -0.0922   28.5936  -26.4636 H   0  0  0  0  0  0  0  0  0  0  0  0
    0.9709   29.9260  -24.9564 H   0  0  0  0  0  0  0  0  0  0  0  0
    2.0970   30.6096  -22.6020 H   0  0  0  0  0  0  0  0  0  0  0  0
    1.0410   26.5960  -22.2890 H   0  0  0  0  0  0  0  0  0  0  0  0
   -1.5895   25.1621  -29.5728 H   0  0  0  0  0  0  0  0  0  0  0  0
   -0.1457   24.2176  -29.0146 H   0  0  0  0  0  0  0  0  0  0  0  0
   -1.6016   23.0795  -30.7803 H   0  0  0  0  0  0  0  0  0  0  0  0
   -1.2850   22.1340  -29.2846 H   0  0  0  0  0  0  0  0  0  0  0  0
  1  2  1  0
  2  3  1  0
  3  4  2  0
  4  5  1  0
  5  6  2  0
  6  7  1  0
  7  8  2  0
  8  9  1  0
  9 10  1  0
 10 11  1  0
 11 12  1  0
 12 13  1  0
 13 14  2  0
 14 15  1  0
 15 16  2  0
 16 17  1  0
 17 18  1  0
 18 19  2  0
 19 20  1  0
 20 21  1  0
 16 22  1  0
 22 23  2  0
 12 24  1  0
 24 25  1  0
  8  3  1  0
 25  9  1  0
 23 13  1  0
 21 17  2  0
  1 26  1  0
  1 27  1  0
  1 28  1  0
  4 29  1  0
  5 30  1  0
  6 31  1  0
  7 32  1  0
 10 33  1  0
 10 34  1  0
 11 35  1  0
 11 36  1  0
 14 37  1  0
 15 38  1  0
 18 39  1  0
 19 40  1  0
 21 41  1  0
 24 42  1  0
 24 43  1  0
 25 44  1  0
 25 45  1  0
M  CHG  1  21   1
M  END
>  <UniqueID>  (12) 
12

>  <SMILES>  (12) 
COc1ccccc1N1CCN(c2ccc(-c3cco[nH+]3)nn2)CC1

>  <Energy>  (12) 
87.22470802200161

>  <Genealogy>  (12) 
COc1ccccc1N1CCN(c2ccc(-c3cco[nH+]3)nn2)CC1 (protonated)
COc1ccccc1N1CCN(c2ccc(-c3cco[nH+]3)nn2)CC1 (3D coordinates assigned)
COc1ccccc1N1CCN(c2ccc(-c3cco[nH+]3)nn2)CC1 (nonaromatic ring conformer: 87.22470802200161 kcal/mol)

>  <smiles>  (12) 
COc1ccccc1N1CCN(c2ccc(-c3ccon3)nn2)CC1

>  <score_type>  (12) 
oracle

>  <origin>  (12) 
adg

>  <m_score__min__energy>  (12) 
-8.1600000000000001

>  <m_primary>  (12) 
energy

$$$$
12:0
     RDKit          3D

 40 42  0  0  0  0  0  0  0  0999 V2000
   -2.0370   12.9260  -33.4160 C   0  0  0  0  0  0  0  0  0  0  0  0
   -2.3840   14.0980  -34.1470 O   0  0  0  0  0  0  0  0  0  0  0  0
   -3.3260   15.0460  -33.7220 C   0  0  0  0  0  0  0  0  0  0  0  0
   -3.4280   16.2470  -34.4330 C   0  0  0  0  0  0  0  0  0  0  0  0
   -4.3530   17.2220  -34.0510 C   0  0  0  0  0  0  0  0  0  0  0  0
   -5.2030   17.0080  -32.9540 C   0  0  0  0  0  0  0  0  0  0  0  0
   -6.1860   18.0490  -32.5750 C   0  0  0  0  0  0  0  0  0  0  0  0
   -6.6360   18.0690  -31.3980 O   0  0  0  0  0  0  0  0  0  0  0  0
   -6.5860   19.1530  -33.5160 C   0  0  0  0  0  0  0  0  0  0  0  0
   -7.1520   20.2700  -32.7560 N   0  0  0  0  0  0  0  0  0  0  0  0
   -8.4020   20.3760  -32.2270 C   0  0  0  0  0  0  0  0  0  0  0  0
   -9.4880   19.3620  -32.4120 C   0  0  0  0  0  0  0  0  0  0  0  0
   -8.5660   21.5110  -31.5030 N   0  0  0  0  0  0  0  0  0  0  0  0
   -7.3730   22.1250  -31.5740 C   0  0  0  0  0  0  0  0  0  0  0  0
   -6.9900   23.3250  -30.9810 C   0  0  0  0  0  0  0  0  0  0  0  0
   -5.6610   23.7700  -31.1780 C   0  0  0  0  0  0  0  0  0  0  0  0
   -5.2180   25.0040  -30.5870 N   0  0  0  0  0  0  0  0  0  0  0  0
   -6.0420   25.8240  -30.1310 O   0  0  0  0  0  0  0  0  0  0  0  0
   -3.8760   25.3020  -30.5120 O   0  0  0  0  0  0  0  0  0  0  0  0
   -4.7720   22.9860  -31.9650 C   0  0  0  0  0  0  0  0  0  0  0  0
   -5.1970   21.7770  -32.5470 C   0  0  0  0  0  0  0  0  0  0  0  0
   -6.5150   21.3780  -32.3270 C   0  0  0  0  0  0  0  0  0  0  0  0
   -5.0900   15.8090  -32.2290 C   0  0  0  0  0  0  0  0  0  0  0  0
   -4.1620   14.8340  -32.6110 C   0  0  0  0  0  0  0  0  0  0  0  0
   -2.0988   13.1347  -32.3377 H   0  0  0  0  0  0  0  0  0  0  0  0
   -2.7333   12.1141  -33.6728 H   0  0  0  0  0  0  0  0  0  0  0  0
   -1.0109   12.6240  -33.6728 H   0  0  0  0  0  0  0  0  0  0  0  0
   -2.7745   16.4249  -35.2998 H   0  0  0  0  0  0  0  0  0  0  0  0
   -4.4159   18.1648  -34.6141 H   0  0  0  0  0  0  0  0  0  0  0  0
   -5.7012   19.4992  -34.0703 H   0  0  0  0  0  0  0  0  0  0  0  0
   -7.3398   18.7742  -34.2219 H   0  0  0  0  0  0  0  0  0  0  0  0
   -9.8476   19.0262  -31.4282 H   0  0  0  0  0  0  0  0  0  0  0  0
  -10.3201   19.8139  -32.9719 H   0  0  0  0  0  0  0  0  0  0  0  0
   -9.0942   18.5009  -32.9719 H   0  0  0  0  0  0  0  0  0  0  0  0
   -9.4190   21.8310  -30.9940 H   0  0  0  0  0  0  0  0  0  0  0  0
   -7.6994   23.9100  -30.3772 H   0  0  0  0  0  0  0  0  0  0  0  0
   -3.7386   23.3294  -32.1207 H   0  0  0  0  0  0  0  0  0  0  0  0
   -4.5125   21.1673  -33.1550 H   0  0  0  0  0  0  0  0  0  0  0  0
   -5.7356   15.6361  -31.3553 H   0  0  0  0  0  0  0  0  0  0  0  0
   -4.0859   13.8971  -32.0396 H   0  0  0  0  0  0  0  0  0  0  0  0
  1  2  1  0
  2  3  1  0
  3  4  2  0
  4  5  1  0
  5  6  2  0
  6  7  1  0
  7  8  2  0
  7  9  1  0
  9 10  1  0
 10 11  1  0
 11 12  1  0
 11 13  2  0
 13 14  1  0
 14 15  2  0
 15 16  1  0
 16 17  1  0
 17 18  2  0
 17 19  1  0
 16 20  2  0
 20 21  1  0
 21 22  2  0
  6 23  1  0
 23 24  2  0
 24  3  1  0
 22 10  1  0
 22 14  1  0
  1 25  1  0
  1 26  1  0
  1 27  1  0
  4 28  1  0
  5 29  1  0
  9 30  1  0
  9 31  1  0
 12 32  1  0
 12 33  1  0
 12 34  1  0
 13 35  1  0
 15 36  1  0
 20 37  1  0
 21 38  1  0
 23 39  1  0
 24 40  1  0
M  CHG  3  13   1  17   1  19  -1
M  END
>  <UniqueID>  (13) 
13

>  <SMILES>  (13) 
COc1ccc(C(=O)Cn2c(C)[nH+]c3cc([N+](=O)[O-])ccc32)cc1

>  <Energy>  (13) 
82.02785495927596

>  <Genealogy>  (13) 
COc1ccc(C(=O)Cn2c(C)[nH+]c3cc([N+](=O)[O-])ccc32)cc1 (protonated)
COc1ccc(C(=O)Cn2c(C)[nH+]c3cc([N+](=O)[O-])ccc32)cc1 (3D coordinates assigned)
COc1ccc(C(=O)Cn2c(C)[nH+]c3cc([N+](=O)[O-])ccc32)cc1 (optimized conformer: 82.02785495927596 kcal/mol)

>  <smiles>  (13) 
COc1ccc(C(=O)Cn2c(C)nc3cc([N+](=O)[O-])ccc32)cc1

>  <score_type>  (13) 
oracle

>  <origin>  (13) 
adg

>  <m_score__min__energy>  (13) 
-7.6399999999999997

>  <m_primary>  (13) 
energy

$$$$
13:0
     RDKit          3D

 49 52  0  0  0  0  0  0  0  0999 V2000
   -3.2350   21.5260  -33.4630 C   0  0  0  0  0  0  0  0  0  0  0  0
   -3.3030   20.1130  -33.2950 O   0  0  0  0  0  0  0  0  0  0  0  0
   -2.3050   19.2140  -33.7040 C   0  0  0  0  0  0  0  0  0  0  0  0
   -0.9620   19.6090  -33.8600 C   0  0  0  0  0  0  0  0  0  0  0  0
   -0.0020   18.6920  -34.2960 C   0  0  0  0  0  0  0  0  0  0  0  0
   -0.3690   17.3760  -34.5810 C   0  0  0  0  0  0  0  0  0  0  0  0
   -1.6960   16.9710  -34.4250 C   0  0  0  0  0  0  0  0  0  0  0  0
   -2.6680   17.8800  -33.9790 C   0  0  0  0  0  0  0  0  0  0  0  0
   -4.0310   17.4530  -33.8200 N   0  0  0  0  0  0  0  0  0  0  0  0
   -4.3770   16.4650  -32.7890 C   0  0  0  0  0  0  0  0  0  0  0  0
   -5.6860   16.8420  -32.0540 C   0  0  0  0  0  0  0  0  0  0  0  0
   -6.4600   17.8890  -32.7640 N   0  0  0  0  0  0  0  0  0  0  0  0
   -7.8140   18.1240  -32.1970 C   0  0  0  0  0  0  0  0  0  0  0  0
   -8.5760   19.3900  -32.6710 C   0  0  0  0  0  0  0  0  0  0  0  0
   -8.1180   20.6340  -32.0280 N   0  0  0  0  0  0  0  0  0  0  0  0
   -8.8340   21.1440  -30.9700 C   0  0  0  0  0  0  0  0  0  0  0  0
   -8.4470   22.2930  -30.3510 N   0  0  0  0  0  0  0  0  0  0  0  0
   -7.3330   22.9390  -30.7640 C   0  0  0  0  0  0  0  0  0  0  0  0
   -6.8550   24.1140  -30.2040 C   0  0  0  0  0  0  0  0  0  0  0  0
   -5.4490   24.5120  -31.0440 S   0  0  0  0  0  0  0  0  0  0  0  0
   -5.4430   23.2060  -32.1110 C   0  0  0  0  0  0  0  0  0  0  0  0
   -6.5630   22.4370  -31.8130 C   0  0  0  0  0  0  0  0  0  0  0  0
   -6.9610   21.2560  -32.4400 C   0  0  0  0  0  0  0  0  0  0  0  0
   -6.2590   20.7710  -33.3700 O   0  0  0  0  0  0  0  0  0  0  0  0
   -6.4590   17.6670  -34.2270 C   0  0  0  0  0  0  0  0  0  0  0  0
   -5.0460   17.8900  -34.7860 C   0  0  0  0  0  0  0  0  0  0  0  0
   -3.2116   22.0118  -32.4764 H   0  0  0  0  0  0  0  0  0  0  0  0
   -2.3233   21.7854  -34.0212 H   0  0  0  0  0  0  0  0  0  0  0  0
   -4.1175   21.8718  -34.0212 H   0  0  0  0  0  0  0  0  0  0  0  0
   -0.6673   20.6451  -33.6374 H   0  0  0  0  0  0  0  0  0  0  0  0
    1.0449   19.0080  -34.4148 H   0  0  0  0  0  0  0  0  0  0  0  0
    0.3877   16.6574  -34.9288 H   0  0  0  0  0  0  0  0  0  0  0  0
   -1.9814   15.9334  -34.6530 H   0  0  0  0  0  0  0  0  0  0  0  0
   -4.5058   15.4820  -33.2656 H   0  0  0  0  0  0  0  0  0  0  0  0
   -3.5627   16.4399  -32.0499 H   0  0  0  0  0  0  0  0  0  0  0  0
   -6.3115   15.9415  -31.9650 H   0  0  0  0  0  0  0  0  0  0  0  0
   -5.4095   17.2443  -31.0683 H   0  0  0  0  0  0  0  0  0  0  0  0
   -5.9520   18.7930  -32.5990 H   0  0  0  0  0  0  0  0  0  0  0  0
   -8.4340   17.2514  -32.4503 H   0  0  0  0  0  0  0  0  0  0  0  0
   -7.6453   18.2829  -31.1217 H   0  0  0  0  0  0  0  0  0  0  0  0
   -8.4395   19.4906  -33.7579 H   0  0  0  0  0  0  0  0  0  0  0  0
   -9.6308   19.2534  -32.3906 H   0  0  0  0  0  0  0  0  0  0  0  0
   -9.7326   20.6156  -30.6189 H   0  0  0  0  0  0  0  0  0  0  0  0
   -7.3057   24.6768  -29.3733 H   0  0  0  0  0  0  0  0  0  0  0  0
   -4.6965   23.0016  -32.8927 H   0  0  0  0  0  0  0  0  0  0  0  0
   -6.7775   16.6359  -34.4401 H   0  0  0  0  0  0  0  0  0  0  0  0
   -7.1536   18.3752  -34.7023 H   0  0  0  0  0  0  0  0  0  0  0  0
   -4.9307   17.3144  -35.7162 H   0  0  0  0  0  0  0  0  0  0  0  0
   -4.9086   18.9636  -34.9821 H   0  0  0  0  0  0  0  0  0  0  0  0
  1  2  1  0
  2  3  1  0
  3  4  2  0
  4  5  1  0
  5  6  2  0
  6  7  1  0
  7  8  2  0
  8  9  1  0
  9 10  1  0
 10 11  1  0
 11 12  1  0
 12 13  1  0
 13 14  1  0
 14 15  1  0
 15 16  1  0
 16 17  2  0
 17 18  1  0
 18 19  2  0
 19 20  1  0
 20 21  1  0
 21 22  2  0
 22 23  1  0
 23 24  2  0
 12 25  1  0
 25 26  1  0
  8  3  1  0
 26  9  1  0
 23 15  1  0
 22 18  1  0
  1 27  1  0
  1 28  1  0
  1 29  1  0
  4 30  1  0
  5 31  1  0
  6 32  1  0
  7 33  1  0
 10 34  1  0
 10 35  1  0
 11 36  1  0
 11 37  1  0
 12 38  1  0
 13 39  1  0
 13 40  1  0
 14 41  1  0
 14 42  1  0
 16 43  1  0
 19 44  1  0
 21 45  1  0
 25 46  1  0
 25 47  1  0
 26 48  1  0
 26 49  1  0
M  CHG  1  12   1
M  END
>  <UniqueID>  (14) 
14

>  <SMILES>  (14) 
COc1ccccc1N1CC[NH+](CCn2cnc3cscc3c2=O)CC1

>  <Energy>  (14) 
100.82967787218614

>  <Genealogy>  (14) 
COc1ccccc1N1CC[NH+](CCn2cnc3cscc3c2=O)CC1 (protonated)
COc1ccccc1N1CC[NH+](CCn2cnc3cscc3c2=O)CC1 (3D coordinates assigned)
COc1ccccc1N1CC[NH+](CCn2cnc3cscc3c2=O)CC1 (nonaromatic ring conformer: 100.82967787218614 kcal/mol)

>  <smiles>  (14) 
COc1ccccc1N1CCN(CCn2cnc3cscc3c2=O)CC1

>  <score_type>  (14) 
oracle

>  <origin>  (14) 
adg

>  <m_score__min__energy>  (14) 
-7.5499999999999998

>  <m_primary>  (14) 
energy

$$$$
14:0
     RDKit          3D

 51 53  0  0  0  0  0  0  0  0999 V2000
   -4.9900   25.1150  -30.5780 C   0  0  0  0  0  0  0  0  0  0  0  0
   -3.6160   24.7640  -30.4590 O   0  0  0  0  0  0  0  0  0  0  0  0
   -3.0740   24.0230  -29.3970 C   0  0  0  0  0  0  0  0  0  0  0  0
   -2.9650   24.5490  -28.0940 C   0  0  0  0  0  0  0  0  0  0  0  0
   -2.4180   23.7760  -27.0650 C   0  0  0  0  0  0  0  0  0  0  0  0
   -1.9740   22.4780  -27.3230 C   0  0  0  0  0  0  0  0  0  0  0  0
   -2.0780   21.9460  -28.6110 C   0  0  0  0  0  0  0  0  0  0  0  0
   -2.6250   22.7120  -29.6470 C   0  0  0  0  0  0  0  0  0  0  0  0
   -2.7210   22.1490  -30.9610 N   0  0  0  0  0  0  0  0  0  0  0  0
   -1.6660   21.2460  -31.4160 C   0  0  0  0  0  0  0  0  0  0  0  0
   -1.5750   21.2890  -32.9430 C   0  0  0  0  0  0  0  0  0  0  0  0
   -2.8810   21.0040  -33.5790 N   0  0  0  0  0  0  0  0  0  0  0  0
   -3.2280   19.5880  -33.4640 C   0  0  0  0  0  0  0  0  0  0  0  0
   -2.3830   18.8150  -33.0310 O   0  0  0  0  0  0  0  0  0  0  0  0
   -4.5830   19.0050  -33.8280 C   0  0  0  0  0  0  0  0  0  0  0  0
   -5.3800   18.7480  -32.6280 N   0  0  0  0  0  0  0  0  0  0  0  0
   -6.6990   19.2880  -32.3990 C   0  0  0  0  0  0  0  0  0  0  0  0
   -6.9110   20.6710  -32.2270 C   0  0  0  0  0  0  0  0  0  0  0  0
   -8.2020   21.1740  -32.0010 C   0  0  0  0  0  0  0  0  0  0  0  0
   -8.4210   22.6530  -31.8580 C   0  0  0  0  0  0  0  0  0  0  0  0
   -9.2920   20.2950  -31.9760 C   0  0  0  0  0  0  0  0  0  0  0  0
   -9.0920   18.9240  -32.1450 C   0  0  0  0  0  0  0  0  0  0  0  0
   -7.8050   18.4200  -32.3520 C   0  0  0  0  0  0  0  0  0  0  0  0
   -7.6410   17.0820  -32.5160 F   0  0  0  0  0  0  0  0  0  0  0  0
   -3.9040   21.9820  -33.1300 C   0  0  0  0  0  0  0  0  0  0  0  0
   -4.0370   22.0740  -31.5970 C   0  0  0  0  0  0  0  0  0  0  0  0
   -5.4280   25.2269  -29.5752 H   0  0  0  0  0  0  0  0  0  0  0  0
   -5.0797   26.0649  -31.1254 H   0  0  0  0  0  0  0  0  0  0  0  0
   -5.5243   24.3245  -31.1254 H   0  0  0  0  0  0  0  0  0  0  0  0
   -3.3117   25.5719  -27.8856 H   0  0  0  0  0  0  0  0  0  0  0  0
   -2.3374   24.1918  -26.0498 H   0  0  0  0  0  0  0  0  0  0  0  0
   -1.5420   21.8735  -26.5119 H   0  0  0  0  0  0  0  0  0  0  0  0
   -1.7290   20.9223  -28.8113 H   0  0  0  0  0  0  0  0  0  0  0  0
   -0.7045   21.5593  -30.9832 H   0  0  0  0  0  0  0  0  0  0  0  0
   -1.8992   20.2206  -31.0932 H   0  0  0  0  0  0  0  0  0  0  0  0
   -1.2393   22.2900  -33.2518 H   0  0  0  0  0  0  0  0  0  0  0  0
   -0.8615   20.5163  -33.2652 H   0  0  0  0  0  0  0  0  0  0  0  0
   -2.7540   21.1760  -34.6050 H   0  0  0  0  0  0  0  0  0  0  0  0
   -5.1203   19.7170  -34.4716 H   0  0  0  0  0  0  0  0  0  0  0  0
   -4.4257   18.0530  -34.3561 H   0  0  0  0  0  0  0  0  0  0  0  0
   -4.9520   18.1340  -31.8980 H   0  0  0  0  0  0  0  0  0  0  0  0
   -6.0567   21.3626  -32.2703 H   0  0  0  0  0  0  0  0  0  0  0  0
   -8.4600   22.9164  -30.7907 H   0  0  0  0  0  0  0  0  0  0  0  0
   -7.5932   23.1945  -32.3393 H   0  0  0  0  0  0  0  0  0  0  0  0
   -9.3702   22.9313  -32.3393 H   0  0  0  0  0  0  0  0  0  0  0  0
  -10.3086   20.6862  -31.8227 H   0  0  0  0  0  0  0  0  0  0  0  0
   -9.9509   18.2374  -32.1151 H   0  0  0  0  0  0  0  0  0  0  0  0
   -3.6292   22.9748  -33.5157 H   0  0  0  0  0  0  0  0  0  0  0  0
   -4.8735   21.6367  -33.5183 H   0  0  0  0  0  0  0  0  0  0  0  0
   -4.6132   22.9748  -31.3391 H   0  0  0  0  0  0  0  0  0  0  0  0
   -4.5510   21.1715  -31.2346 H   0  0  0  0  0  0  0  0  0  0  0  0
  1  2  1  0
  2  3  1  0
  3  4  2  0
  4  5  1  0
  5  6  2  0
  6  7  1  0
  7  8  2  0
  8  9  1  0
  9 10  1  0
 10 11  1  0
 11 12  1  0
 12 13  1  0
 13 14  2  0
 13 15  1  0
 15 16  1  0
 16 17  1  0
 17 18  2  0
 18 19  1  0
 19 20  1  0
 19 21  2  0
 21 22  1  0
 22 23  2  0
 23 24  1  0
 12 25  1  0
 25 26  1  0
  8  3  1  0
 26  9  1  0
 23 17  1  0
  1 27  1  0
  1 28  1  0
  1 29  1  0
  4 30  1  0
  5 31  1  0
  6 32  1  0
  7 33  1  0
 10 34  1  0
 10 35  1  0
 11 36  1  0
 11 37  1  0
 12 38  1  0
 15 39  1  0
 15 40  1  0
 16 41  1  0
 18 42  1  0
 20 43  1  0
 20 44  1  0
 20 45  1  0
 21 46  1  0
 22 47  1  0
 25 48  1  0
 25 49  1  0
 26 50  1  0
 26 51  1  0
M  CHG  1  12   1
M  END
>  <UniqueID>  (15) 
15

>  <SMILES>  (15) 
COc1ccccc1N1CC[NH+](C(=O)CNc2cc(C)ccc2F)CC1

>  <Energy>  (15) 
64.41557026195069

>  <Genealogy>  (15) 
COc1ccccc1N1CC[NH+](C(=O)CNc2cc(C)ccc2F)CC1 (protonated)
COc1ccccc1N1CC[NH+](C(=O)CNc2cc(C)ccc2F)CC1 (3D coordinates assigned)
COc1ccccc1N1CC[NH+](C(=O)CNc2cc(C)ccc2F)CC1 (nonaromatic ring conformer: 64.41557026195069 kcal/mol)

>  <smiles>  (15) 
COc1ccccc1N1CCN(C(=O)CNc2cc(C)ccc2F)CC1

>  <score_type>  (15) 
oracle

>  <origin>  (15) 
adg

>  <m_score__min__energy>  (15) 
-8.25

>  <m_primary>  (15) 
energy

$$$$
15:0
     RDKit          3D

 40 42  0  0  0  0  0  0  0  0999 V2000
   -9.1350   19.0150  -31.9800 C   0  0  0  0  0  0  0  0  0  0  0  0
   -9.1510   20.4060  -32.2840 O   0  0  0  0  0  0  0  0  0  0  0  0
   -8.1710   21.3250  -31.8720 C   0  0  0  0  0  0  0  0  0  0  0  0
   -8.4050   22.2300  -30.8180 C   0  0  0  0  0  0  0  0  0  0  0  0
   -7.4100   23.1230  -30.4160 C   0  0  0  0  0  0  0  0  0  0  0  0
   -6.1740   23.1380  -31.0690 C   0  0  0  0  0  0  0  0  0  0  0  0
   -4.8960   24.2380  -30.5570 S   0  0  0  0  0  0  0  0  0  0  0  0
   -4.9630   24.4390  -28.8410 N   0  0  0  0  0  0  0  0  0  0  0  0
   -3.5620   23.6690  -30.9470 O   0  0  0  0  0  0  0  0  0  0  0  0
   -5.0650   25.5760  -31.2180 O   0  0  0  0  0  0  0  0  0  0  0  0
   -5.9370   22.2500  -32.1230 C   0  0  0  0  0  0  0  0  0  0  0  0
   -6.9210   21.3280  -32.5260 C   0  0  0  0  0  0  0  0  0  0  0  0
   -6.6620   20.3830  -33.5850 N   0  0  0  0  0  0  0  0  0  0  0  0
   -5.3560   19.7680  -33.8360 C   0  0  0  0  0  0  0  0  0  0  0  0
   -5.4760   18.2650  -33.8840 C   0  0  0  0  0  0  0  0  0  0  0  0
   -6.7060   17.6400  -33.5830 C   0  0  0  0  0  0  0  0  0  0  0  0
   -6.8270   16.2340  -33.6040 C   0  0  0  0  0  0  0  0  0  0  0  0
   -5.7240   15.4290  -33.9320 C   0  0  0  0  0  0  0  0  0  0  0  0
   -4.5220   16.0630  -34.2390 C   0  0  0  0  0  0  0  0  0  0  0  0
   -3.3640   15.4760  -34.5810 N   0  0  0  0  0  0  0  0  0  0  0  0
   -2.4860   16.4810  -34.7900 C   0  0  0  0  0  0  0  0  0  0  0  0
   -3.0920   17.7140  -34.5800 C   0  0  0  0  0  0  0  0  0  0  0  0
   -4.3980   17.4300  -34.2240 C   0  0  0  0  0  0  0  0  0  0  0  0
   -9.1334   18.8782  -30.8885 H   0  0  0  0  0  0  0  0  0  0  0  0
  -10.0277   18.5358  -32.4083 H   0  0  0  0  0  0  0  0  0  0  0  0
   -8.2315   18.5564  -32.4083 H   0  0  0  0  0  0  0  0  0  0  0  0
   -9.3795   22.2331  -30.3077 H   0  0  0  0  0  0  0  0  0  0  0  0
   -7.5990   23.8165  -29.5834 H   0  0  0  0  0  0  0  0  0  0  0  0
   -4.8470   25.4590  -28.6480 H   0  0  0  0  0  0  0  0  0  0  0  0
   -5.9300   24.1840  -28.5400 H   0  0  0  0  0  0  0  0  0  0  0  0
   -4.9685   22.2724  -32.6441 H   0  0  0  0  0  0  0  0  0  0  0  0
   -7.4600   20.0450  -34.1700 H   0  0  0  0  0  0  0  0  0  0  0  0
   -4.9651   20.1301  -34.7983 H   0  0  0  0  0  0  0  0  0  0  0  0
   -4.6723   20.0428  -33.0192 H   0  0  0  0  0  0  0  0  0  0  0  0
   -7.5807   18.2567  -33.3290 H   0  0  0  0  0  0  0  0  0  0  0  0
   -7.7922   15.7653  -33.3617 H   0  0  0  0  0  0  0  0  0  0  0  0
   -5.8065   14.3322  -33.9461 H   0  0  0  0  0  0  0  0  0  0  0  0
   -3.1760   14.4520  -34.6690 H   0  0  0  0  0  0  0  0  0  0  0  0
   -1.4356   16.3426  -35.0858 H   0  0  0  0  0  0  0  0  0  0  0  0
   -2.6298   18.7075  -34.6767 H   0  0  0  0  0  0  0  0  0  0  0  0
  1  2  1  0
  2  3  1  0
  3  4  2  0
  4  5  1  0
  5  6  2  0
  6  7  1  0
  7  8  1  0
  7  9  2  0
  7 10  2  0
  6 11  1  0
 11 12  2  0
 12 13  1  0
 13 14  1  0
 14 15  1  0
 15 16  2  0
 16 17  1  0
 17 18  2  0
 18 19  1  0
 19 20  1  0
 20 21  1  0
 21 22  2  0
 22 23  1  0
 12  3  1  0
 23 15  1  0
 23 19  2  0
  1 24  1  0
  1 25  1  0
  1 26  1  0
  4 27  1  0
  5 28  1  0
  8 29  1  0
  8 30  1  0
 11 31  1  0
 13 32  1  0
 14 33  1  0
 14 34  1  0
 16 35  1  0
 17 36  1  0
 18 37  1  0
 20 38  1  0
 21 39  1  0
 22 40  1  0
M  END
>  <UniqueID>  (16) 
16

>  <SMILES>  (16) 
COc1ccc(S(N)(=O)=O)cc1NCc1cccc2[nH]ccc12

>  <Energy>  (16) 
71.53459182715622

>  <Genealogy>  (16) 
COc1ccc(S(N)(=O)=O)cc1NCc1cccc2[nH]ccc12 (3D coordinates assigned)
COc1ccc(S(N)(=O)=O)cc1NCc1cccc2[nH]ccc12 (optimized conformer: 71.53459182715622 kcal/mol)

>  <smiles>  (16) 
COc1ccc(S(N)(=O)=O)cc1NCc1cccc2[nH]ccc12

>  <score_type>  (16) 
oracle

>  <origin>  (16) 
adg

>  <m_score__min__energy>  (16) 
-8.7100000000000009

>  <m_primary>  (16) 
energy

$$$$
16:0
     RDKit          3D

 67 71  0  0  0  0  0  0  0  0999 V2000
   -4.8572   15.1901  -34.5004 H   0  0  0  0  0  0  0  0  0  0  0  0
   -5.0220   16.2240  -34.1630 C   0  0  0  0  0  0  0  0  0  0  0  0
   -6.2710   16.6360  -33.8180 N   0  0  0  0  0  0  0  0  0  0  0  0
   -6.5200   17.9050  -33.3990 C   0  0  0  0  0  0  0  0  0  0  0  0
   -7.7770   18.2490  -33.0460 N   0  0  0  0  0  0  0  0  0  0  0  0
   -8.0980   19.4980  -32.6310 C   0  0  0  0  0  0  0  0  0  0  0  0
   -9.4340   19.7680  -32.3170 C   0  0  0  0  0  0  0  0  0  0  0  0
  -10.1783   18.9588  -32.3527 H   0  0  0  0  0  0  0  0  0  0  0  0
   -9.8270   21.0530  -31.9600 C   0  0  0  0  0  0  0  0  0  0  0  0
  -10.8742   21.2546  -31.6902 H   0  0  0  0  0  0  0  0  0  0  0  0
   -8.8930   22.0820  -31.9450 C   0  0  0  0  0  0  0  0  0  0  0  0
   -9.2090   23.1031  -31.6850 H   0  0  0  0  0  0  0  0  0  0  0  0
   -7.5550   21.8280  -32.2580 C   0  0  0  0  0  0  0  0  0  0  0  0
   -6.8380   22.6620  -32.2772 H   0  0  0  0  0  0  0  0  0  0  0  0
   -7.1040   20.5180  -32.5510 C   0  0  0  0  0  0  0  0  0  0  0  0
   -5.7400   20.1580  -32.8310 C   0  0  0  0  0  0  0  0  0  0  0  0
   -4.6870   20.9130  -32.6150 N   0  0  0  0  0  0  0  0  0  0  0  0
   -3.7480   21.6860  -33.4300 C   0  0  0  0  0  0  0  0  0  0  0  0
   -3.8076   22.7420  -33.1278 H   0  0  0  0  0  0  0  0  0  0  0  0
   -4.0315   21.5453  -34.4835 H   0  0  0  0  0  0  0  0  0  0  0  0
   -2.2900   21.2120  -33.2760 C   0  0  0  0  0  0  0  0  0  0  0  0
   -1.6669   22.1004  -33.0957 H   0  0  0  0  0  0  0  0  0  0  0  0
   -2.0588   20.6735  -34.2069 H   0  0  0  0  0  0  0  0  0  0  0  0
   -2.0080   20.1960  -32.1310 C   0  0  0  0  0  0  0  0  0  0  0  0
   -2.3889   19.2183  -32.4611 H   0  0  0  0  0  0  0  0  0  0  0  0
   -2.5038   20.6317  -31.2510 H   0  0  0  0  0  0  0  0  0  0  0  0
   -0.5780   19.9950  -31.6940 N   0  0  0  0  0  0  0  0  0  0  0  0
    0.3870   20.0100  -32.8250 C   0  0  0  0  0  0  0  0  0  0  0  0
    1.4138   20.0260  -32.4307 H   0  0  0  0  0  0  0  0  0  0  0  0
    0.2445   19.1095  -33.4405 H   0  0  0  0  0  0  0  0  0  0  0  0
    0.2166   20.9056  -33.4405 H   0  0  0  0  0  0  0  0  0  0  0  0
   -0.4630   18.6760  -31.0160 C   0  0  0  0  0  0  0  0  0  0  0  0
   -0.4757   18.8218  -29.9258 H   0  0  0  0  0  0  0  0  0  0  0  0
   -1.3089   18.0374  -31.3104 H   0  0  0  0  0  0  0  0  0  0  0  0
    0.4806   18.1934  -31.3104 H   0  0  0  0  0  0  0  0  0  0  0  0
   -0.2160   21.0420  -30.6720 C   0  0  0  0  0  0  0  0  0  0  0  0
    0.8137   21.3685  -30.8796 H   0  0  0  0  0  0  0  0  0  0  0  0
   -0.9778   21.8280  -30.7809 H   0  0  0  0  0  0  0  0  0  0  0  0
   -0.2820   20.6140  -29.1840 C   0  0  0  0  0  0  0  0  0  0  0  0
   -1.3311   20.4265  -28.9114 H   0  0  0  0  0  0  0  0  0  0  0  0
    0.3220   19.7033  -29.0578 H   0  0  0  0  0  0  0  0  0  0  0  0
    0.2420   21.6180  -28.3360 O   0  0  0  0  0  0  0  0  0  0  0  0
   -0.7320   22.5980  -28.0280 C   0  0  0  0  0  0  0  0  0  0  0  0
   -1.6966   22.1007  -27.8483 H   0  0  0  0  0  0  0  0  0  0  0  0
   -0.4037   23.1448  -27.1318 H   0  0  0  0  0  0  0  0  0  0  0  0
   -0.8930   23.5990  -29.1730 C   0  0  0  0  0  0  0  0  0  0  0  0
   -0.4665   24.5675  -28.8730 H   0  0  0  0  0  0  0  0  0  0  0  0
   -0.3672   23.2193  -30.0615 H   0  0  0  0  0  0  0  0  0  0  0  0
   -2.3080   23.7710  -29.4900 N   0  0  0  0  0  0  0  0  0  0  0  0
   -2.8440   24.9290  -29.8660 N   0  0  0  0  0  0  0  0  0  0  0  0
   -4.1700   24.7120  -29.9960 C   0  0  0  0  0  0  0  0  0  0  0  0
   -5.1480   25.6270  -30.3750 C   0  0  0  0  0  0  0  0  0  0  0  0
   -4.8901   26.6683  -30.6182 H   0  0  0  0  0  0  0  0  0  0  0  0
   -6.4800   25.1720  -30.4360 C   0  0  0  0  0  0  0  0  0  0  0  0
   -7.2802   25.8667  -30.7311 H   0  0  0  0  0  0  0  0  0  0  0  0
   -6.7980   23.8290  -30.1210 C   0  0  0  0  0  0  0  0  0  0  0  0
   -7.8422   23.4877  -30.1763 H   0  0  0  0  0  0  0  0  0  0  0  0
   -5.7860   22.9260  -29.7370 C   0  0  0  0  0  0  0  0  0  0  0  0
   -6.0172   21.8805  -29.4848 H   0  0  0  0  0  0  0  0  0  0  0  0
   -4.4830   23.4110  -29.6900 C   0  0  0  0  0  0  0  0  0  0  0  0
   -3.2800   22.8380  -29.3640 C   0  0  0  0  0  0  0  0  0  0  0  0
   -3.0950   21.6480  -28.9950 O   0  0  0  0  0  0  0  0  0  0  0  0
   -5.4750   18.8480  -33.3090 C   0  0  0  0  0  0  0  0  0  0  0  0
   -4.1740   18.4210  -33.6600 C   0  0  0  0  0  0  0  0  0  0  0  0
   -3.3316   19.1254  -33.5945 H   0  0  0  0  0  0  0  0  0  0  0  0
   -3.9510   17.1120  -34.0890 C   0  0  0  0  0  0  0  0  0  0  0  0
   -2.9383   16.7841  -34.3664 H   0  0  0  0  0  0  0  0  0  0  0  0
  1  2  1  0
  2  3  2  0
  3  4  1  0
  4  5  1  0
  5  6  1  0
  6  7  2  0
  7  8  1  0
  7  9  1  0
  9 10  1  0
  9 11  2  0
 11 12  1  0
 11 13  1  0
 13 14  1  0
 13 15  2  0
 15 16  1  0
 16 17  2  0
 17 18  1  0
 18 19  1  0
 18 20  1  0
 18 21  1  0
 21 22  1  0
 21 23  1  0
 21 24  1  0
 24 25  1  0
 24 26  1  0
 24 27  1  0
 27 28  1  0
 28 29  1  0
 28 30  1  0
 28 31  1  0
 27 32  1  0
 32 33  1  0
 32 34  1  0
 32 35  1  0
 27 36  1  0
 36 37  1  0
 36 38  1  0
 36 39  1  0
 39 40  1  0
 39 41  1  0
 39 42  1  0
 42 43  1  0
 43 44  1  0
 43 45  1  0
 43 46  1  0
 46 47  1  0
 46 48  1  0
 46 49  1  0
 49 50  1  0
 50 51  1  0
 51 52  2  0
 52 53  1  0
 52 54  1  0
 54 55  1  0
 54 56  2  0
 56 57  1  0
 56 58  1  0
 58 59  1  0
 58 60  2  0
 60 61  1  0
 61 62  2  0
 16 63  1  0
 63 64  1  0
 64 65  1  0
 64 66  2  0
 66 67  1  0
 66  2  1  0
 63  4  2  0
 15  6  1  0
 61 49  1  0
 60 51  1  0
M  CHG  3   5  -1  27   1  50  -1
M  END
>  <UniqueID>  (17) 
17

>  <SMILES>  (17) 
C[N+](C)(CCC/N=c1\c2ccccc2[n-]c2ncccc12)CCOCCn1[n-]c2ccccc2c1=O

>  <Energy>  (17) 
157.87854875870846

>  <Genealogy>  (17) 
C[N+](C)(CCCN=c1c2ccccc2[n-]c2ncccc12)CCOCCn1[n-]c2ccccc2c1=O (protonated)
C[N+](C)(CCC/N=c1\c2ccccc2[n-]c2ncccc12)CCOCCn1[n-]c2ccccc2c1=O (cis-trans isomerization)
C[N+](C)(CCC/N=c1\c2ccccc2[n-]c2ncccc12)CCOCCn1[n-]c2ccccc2c1=O (3D coordinates assigned)
C[N+](C)(CCC/N=c1\c2ccccc2[n-]c2ncccc12)CCOCCn1[n-]c2ccccc2c1=O (optimized conformer: 157.87854875870846 kcal/mol)

>  <smiles>  (17) 
C[N+](C)(CCCN=c1c2ccccc2[nH]c2ncccc12)CCOCCn1[nH]c2ccccc2c1=O

>  <score_type>  (17) 
oracle

>  <origin>  (17) 
adg

>  <m_score__min__energy>  (17) 
-10.460000000000001

>  <m_primary>  (17) 
energy

$$$$
17:0
     RDKit          3D

 69 74  0  0  0  0  0  0  0  0999 V2000
   -1.3410   26.4850  -25.2240 C   0  0  0  0  0  0  0  0  0  0  0  0
   -0.8820   25.7550  -26.3570 O   0  0  0  0  0  0  0  0  0  0  0  0
   -1.0800   24.3800  -26.5480 C   0  0  0  0  0  0  0  0  0  0  0  0
   -0.0440   23.4380  -26.3900 C   0  0  0  0  0  0  0  0  0  0  0  0
   -0.3010   22.0730  -26.5520 C   0  0  0  0  0  0  0  0  0  0  0  0
   -1.5950   21.6290  -26.8690 C   0  0  0  0  0  0  0  0  0  0  0  0
   -1.8790   20.1540  -26.9720 C   0  0  0  0  0  0  0  0  0  0  0  0
   -1.7900   19.6900  -28.3700 N   0  0  0  0  0  0  0  0  0  0  0  0
   -2.0630   20.8050  -29.3220 C   0  0  0  0  0  0  0  0  0  0  0  0
   -0.9440   21.0310  -30.3490 C   0  0  0  0  0  0  0  0  0  0  0  0
   -0.5770   19.7540  -30.9590 N   0  0  0  0  0  0  0  0  0  0  0  0
   -0.5420   19.6600  -32.3930 C   0  0  0  0  0  0  0  0  0  0  0  0
   -1.1880   20.5310  -33.1540 C   0  0  0  0  0  0  0  0  0  0  0  0
   -0.4810   20.8790  -34.4060 C   0  0  0  0  0  0  0  0  0  0  0  0
    0.1900   21.9400  -34.4700 O   0  0  0  0  0  0  0  0  0  0  0  0
   -0.3880   19.8680  -35.5140 C   0  0  0  0  0  0  0  0  0  0  0  0
    0.7680   18.8500  -35.3000 C   0  0  0  0  0  0  0  0  0  0  0  0
    0.9140   18.2360  -33.8750 C   0  0  0  0  0  0  0  0  0  0  0  0
   -0.3270   18.3730  -33.0480 C   0  0  0  0  0  0  0  0  0  0  0  0
   -1.3490   17.6340  -33.3540 N   0  0  0  0  0  0  0  0  0  0  0  0
   -2.7240   17.8690  -33.0010 C   0  0  0  0  0  0  0  0  0  0  0  0
   -3.5000   16.7220  -32.7760 C   0  0  0  0  0  0  0  0  0  0  0  0
   -4.8500   16.8200  -32.4560 C   0  0  0  0  0  0  0  0  0  0  0  0
   -5.4490   18.0690  -32.3470 C   0  0  0  0  0  0  0  0  0  0  0  0
   -4.7090   19.2250  -32.5730 C   0  0  0  0  0  0  0  0  0  0  0  0
   -3.3410   19.1730  -32.9320 C   0  0  0  0  0  0  0  0  0  0  0  0
   -2.6260   20.4230  -33.2270 N   0  0  0  0  0  0  0  0  0  0  0  0
   -3.3470   21.6380  -33.6470 C   0  0  0  0  0  0  0  0  0  0  0  0
   -3.9130   22.3630  -32.4620 C   0  0  0  0  0  0  0  0  0  0  0  0
   -5.2520   22.5010  -32.1630 C   0  0  0  0  0  0  0  0  0  0  0  0
   -5.2960   23.2250  -30.9920 C   0  0  0  0  0  0  0  0  0  0  0  0
   -3.9830   23.4850  -30.6500 C   0  0  0  0  0  0  0  0  0  0  0  0
   -3.1820   22.9530  -31.5430 O   0  0  0  0  0  0  0  0  0  0  0  0
   -0.3790   18.5880  -30.0930 C   0  0  0  0  0  0  0  0  0  0  0  0
   -0.5170   18.9730  -28.6150 C   0  0  0  0  0  0  0  0  0  0  0  0
   -2.6240   22.5700  -27.0510 C   0  0  0  0  0  0  0  0  0  0  0  0
   -2.3640   23.9360  -26.8950 C   0  0  0  0  0  0  0  0  0  0  0  0
   -1.0199   25.9744  -24.3041 H   0  0  0  0  0  0  0  0  0  0  0  0
   -0.9185   27.5004  -25.2463 H   0  0  0  0  0  0  0  0  0  0  0  0
   -2.4392   26.5442  -25.2463 H   0  0  0  0  0  0  0  0  0  0  0  0
    0.9714   23.7779  -26.1381 H   0  0  0  0  0  0  0  0  0  0  0  0
    0.5138   21.3441  -26.4306 H   0  0  0  0  0  0  0  0  0  0  0  0
   -1.1456   19.6040  -26.3640 H   0  0  0  0  0  0  0  0  0  0  0  0
   -2.9005   19.9696  -26.6081 H   0  0  0  0  0  0  0  0  0  0  0  0
   -2.9918   20.5773  -29.8656 H   0  0  0  0  0  0  0  0  0  0  0  0
   -2.1398   21.7252  -28.7242 H   0  0  0  0  0  0  0  0  0  0  0  0
   -1.2963   21.7221  -31.1289 H   0  0  0  0  0  0  0  0  0  0  0  0
   -0.0662   21.4626  -29.8458 H   0  0  0  0  0  0  0  0  0  0  0  0
   -1.3380   19.3160  -35.5678 H   0  0  0  0  0  0  0  0  0  0  0  0
   -0.1824   20.4140  -36.4465 H   0  0  0  0  0  0  0  0  0  0  0  0
    0.6141   18.0198  -36.0051 H   0  0  0  0  0  0  0  0  0  0  0  0
    1.6907   19.4274  -35.4587 H   0  0  0  0  0  0  0  0  0  0  0  0
    1.1509   17.1667  -33.9768 H   0  0  0  0  0  0  0  0  0  0  0  0
    1.7146   18.7872  -33.3601 H   0  0  0  0  0  0  0  0  0  0  0  0
   -3.0331   15.7290  -32.8539 H   0  0  0  0  0  0  0  0  0  0  0  0
   -5.4434   15.9089  -32.2892 H   0  0  0  0  0  0  0  0  0  0  0  0
   -6.5136   18.1440  -32.0807 H   0  0  0  0  0  0  0  0  0  0  0  0
   -5.1994   20.2042  -32.4701 H   0  0  0  0  0  0  0  0  0  0  0  0
   -2.6509   22.3042  -34.1776 H   0  0  0  0  0  0  0  0  0  0  0  0
   -4.1763   21.3433  -34.3068 H   0  0  0  0  0  0  0  0  0  0  0  0
   -6.1058   22.1141  -32.7387 H   0  0  0  0  0  0  0  0  0  0  0  0
   -6.1959   23.5341  -30.4400 H   0  0  0  0  0  0  0  0  0  0  0  0
   -3.6586   24.0513  -29.7646 H   0  0  0  0  0  0  0  0  0  0  0  0
   -1.1328   17.8254  -30.3382 H   0  0  0  0  0  0  0  0  0  0  0  0
    0.6346   18.1948  -30.2601 H   0  0  0  0  0  0  0  0  0  0  0  0
   -0.4945   18.0600  -28.0018 H   0  0  0  0  0  0  0  0  0  0  0  0
    0.3171   19.6380  -28.3466 H   0  0  0  0  0  0  0  0  0  0  0  0
   -3.6362   22.2313  -27.3168 H   0  0  0  0  0  0  0  0  0  0  0  0
   -3.1724   24.6666  -27.0456 H   0  0  0  0  0  0  0  0  0  0  0  0
  1  2  1  0
  2  3  1  0
  3  4  2  0
  4  5  1  0
  5  6  2  0
  6  7  1  0
  7  8  1  0
  8  9  1  0
  9 10  1  0
 10 11  1  0
 11 12  1  0
 12 13  2  0
 13 14  1  0
 14 15  2  0
 14 16  1  0
 16 17  1  0
 17 18  1  0
 18 19  1  0
 19 20  2  0
 20 21  1  0
 21 22  2  0
 22 23  1  0
 23 24  2  0
 24 25  1  0
 25 26  2  0
 26 27  1  0
 27 28  1  0
 28 29  1  0
 29 30  2  0
 30 31  1  0
 31 32  2  0
 32 33  1  0
 11 34  1  0
 34 35  1  0
  6 36  1  0
 36 37  2  0
 37  3  1  0
 35  8  1  0
 19 12  1  0
 26 21  1  0
 33 29  1  0
 27 13  1  0
  1 38  1  0
  1 39  1  0
  1 40  1  0
  4 41  1  0
  5 42  1  0
  7 43  1  0
  7 44  1  0
  9 45  1  0
  9 46  1  0
 10 47  1  0
 10 48  1  0
 16 49  1  0
 16 50  1  0
 17 51  1  0
 17 52  1  0
 18 53  1  0
 18 54  1  0
 22 55  1  0
 23 56  1  0
 24 57  1  0
 25 58  1  0
 28 59  1  0
 28 60  1  0
 30 61  1  0
 31 62  1  0
 32 63  1  0
 34 64  1  0
 34 65  1  0
 35 66  1  0
 35 67  1  0
 36 68  1  0
 37 69  1  0
M  END
>  <UniqueID>  (18) 
18

>  <SMILES>  (18) 
COc1ccc(CN2CCN(C3=C4C(=O)CCCC3=Nc3ccccc3N4Cc3ccco3)CC2)cc1

>  <Energy>  (18) 
186.73937407416514

>  <Genealogy>  (18) 
COc1ccc(CN2CCN(C3=C4C(=O)CCCC3=Nc3ccccc3N4Cc3ccco3)CC2)cc1 (3D coordinates assigned)
COc1ccc(CN2CCN(C3=C4C(=O)CCCC3=Nc3ccccc3N4Cc3ccco3)CC2)cc1 (nonaromatic ring conformer: 186.73937407416514 kcal/mol)

>  <smiles>  (18) 
COc1ccc(CN2CCN(C3=C4C(=O)CCCC3=Nc3ccccc3N4Cc3ccco3)CC2)cc1

>  <score_type>  (18) 
oracle

>  <origin>  (18) 
adg

>  <m_score__min__energy>  (18) 
-4.0700000000000003

>  <m_primary>  (18) 
energy

$$$$
18:0
     RDKit          3D

 46 48  0  0  0  0  0  0  0  0999 V2000
   -2.7400   20.8330  -28.6050 C   0  0  0  0  0  0  0  0  0  0  0  0
   -2.4910   22.0280  -27.6920 C   0  0  0  0  0  0  0  0  0  0  0  0
   -3.6240   22.8740  -27.6840 O   0  0  0  0  0  0  0  0  0  0  0  0
   -3.2490   24.2090  -27.4190 C   0  0  0  0  0  0  0  0  0  0  0  0
   -2.3680   24.7350  -28.5530 C   0  0  0  0  0  0  0  0  0  0  0  0
   -3.1270   24.9280  -29.7460 O   0  0  0  0  0  0  0  0  0  0  0  0
   -3.6440   23.8790  -30.5220 C   0  0  0  0  0  0  0  0  0  0  0  0
   -2.8060   23.0420  -31.1920 N   0  0  0  0  0  0  0  0  0  0  0  0
   -3.2490   22.0080  -31.9540 C   0  0  0  0  0  0  0  0  0  0  0  0
   -2.2550   21.1350  -32.6310 C   0  0  0  0  0  0  0  0  0  0  0  0
   -0.8990   21.5170  -32.6660 C   0  0  0  0  0  0  0  0  0  0  0  0
    0.0530   20.7000  -33.2820 C   0  0  0  0  0  0  0  0  0  0  0  0
   -0.3310   19.4900  -33.8630 C   0  0  0  0  0  0  0  0  0  0  0  0
   -1.6680   19.0920  -33.8250 C   0  0  0  0  0  0  0  0  0  0  0  0
   -2.6270   19.9040  -33.2110 C   0  0  0  0  0  0  0  0  0  0  0  0
   -4.6320   21.8020  -32.0820 C   0  0  0  0  0  0  0  0  0  0  0  0
   -5.5340   22.6360  -31.4040 C   0  0  0  0  0  0  0  0  0  0  0  0
   -6.9890   22.3860  -31.5450 C   0  0  0  0  0  0  0  0  0  0  0  0
   -7.5350   21.1320  -31.2190 C   0  0  0  0  0  0  0  0  0  0  0  0
   -8.9050   20.8980  -31.3690 C   0  0  0  0  0  0  0  0  0  0  0  0
   -9.7400   21.9090  -31.8510 C   0  0  0  0  0  0  0  0  0  0  0  0
   -9.2050   23.1560  -32.1890 C   0  0  0  0  0  0  0  0  0  0  0  0
   -7.8350   23.3940  -32.0400 C   0  0  0  0  0  0  0  0  0  0  0  0
   -5.0310   23.6940  -30.6130 C   0  0  0  0  0  0  0  0  0  0  0  0
   -5.9140   24.6190  -29.9390 C   0  0  0  0  0  0  0  0  0  0  0  0
   -6.6200   25.3590  -29.3990 N   0  0  0  0  0  0  0  0  0  0  0  0
   -2.9266   19.9375  -27.9941 H   0  0  0  0  0  0  0  0  0  0  0  0
   -3.6158   21.0328  -29.2399 H   0  0  0  0  0  0  0  0  0  0  0  0
   -1.8573   20.6664  -29.2399 H   0  0  0  0  0  0  0  0  0  0  0  0
   -2.2954   21.6713  -26.6700 H   0  0  0  0  0  0  0  0  0  0  0  0
   -1.6220   22.5913  -28.0629 H   0  0  0  0  0  0  0  0  0  0  0  0
   -4.1516   24.8326  -27.3386 H   0  0  0  0  0  0  0  0  0  0  0  0
   -2.6863   24.2473  -26.4746 H   0  0  0  0  0  0  0  0  0  0  0  0
   -1.9263   25.6954  -28.2489 H   0  0  0  0  0  0  0  0  0  0  0  0
   -1.5805   23.9943  -28.7559 H   0  0  0  0  0  0  0  0  0  0  0  0
   -0.5873   22.4658  -32.2048 H   0  0  0  0  0  0  0  0  0  0  0  0
    1.1077   21.0112  -33.3091 H   0  0  0  0  0  0  0  0  0  0  0  0
    0.4199   18.8508  -34.3504 H   0  0  0  0  0  0  0  0  0  0  0  0
   -1.9686   18.1364  -34.2795 H   0  0  0  0  0  0  0  0  0  0  0  0
   -3.6780   19.5807  -33.1801 H   0  0  0  0  0  0  0  0  0  0  0  0
   -5.0091   20.9852  -32.7150 H   0  0  0  0  0  0  0  0  0  0  0  0
   -6.8809   20.3311  -30.8440 H   0  0  0  0  0  0  0  0  0  0  0  0
   -9.3263   19.9162  -31.1071 H   0  0  0  0  0  0  0  0  0  0  0  0
  -10.8184   21.7241  -31.9647 H   0  0  0  0  0  0  0  0  0  0  0  0
   -9.8623   23.9504  -32.5724 H   0  0  0  0  0  0  0  0  0  0  0  0
   -7.4172   24.3747  -32.3114 H   0  0  0  0  0  0  0  0  0  0  0  0
  1  2  1  0
  2  3  1  0
  3  4  1  0
  4  5  1  0
  5  6  1  0
  6  7  1  0
  7  8  2  0
  8  9  1  0
  9 10  1  0
 10 11  2  0
 11 12  1  0
 12 13  2  0
 13 14  1  0
 14 15  2  0
  9 16  2  0
 16 17  1  0
 17 18  1  0
 18 19  2  0
 19 20  1  0
 20 21  2  0
 21 22  1  0
 22 23  2  0
 17 24  2  0
 24 25  1  0
 25 26  3  0
 24  7  1  0
 15 10  1  0
 23 18  1  0
  1 27  1  0
  1 28  1  0
  1 29  1  0
  2 30  1  0
  2 31  1  0
  4 32  1  0
  4 33  1  0
  5 34  1  0
  5 35  1  0
 11 36  1  0
 12 37  1  0
 13 38  1  0
 14 39  1  0
 15 40  1  0
 16 41  1  0
 19 42  1  0
 20 43  1  0
 21 44  1  0
 22 45  1  0
 23 46  1  0
M  END
>  <UniqueID>  (19) 
19

>  <SMILES>  (19) 
CCOCCOc1nc(-c2ccccc2)cc(-c2ccccc2)c1C#N

>  <Energy>  (19) 
55.82073150929585

>  <Genealogy>  (19) 
CCOCCOc1nc(-c2ccccc2)cc(-c2ccccc2)c1C#N (3D coordinates assigned)
CCOCCOc1nc(-c2ccccc2)cc(-c2ccccc2)c1C#N (optimized conformer: 55.82073150929585 kcal/mol)

>  <smiles>  (19) 
CCOCCOc1nc(-c2ccccc2)cc(-c2ccccc2)c1C#N

>  <score_type>  (19) 
oracle

>  <origin>  (19) 
adg

>  <m_score__min__energy>  (19) 
-8.5299999999999994

>  <m_primary>  (19) 
energy

$$$$
19:0
     RDKit          3D

 52 54  0  0  0  0  0  0  0  0999 V2000
   -5.1580   15.1380  -33.2550 C   0  0  0  0  0  0  0  0  0  0  0  0
   -5.6830   16.5310  -33.0690 C   0  0  0  0  0  0  0  0  0  0  0  0
   -5.9410   17.0290  -31.7870 C   0  0  0  0  0  0  0  0  0  0  0  0
   -6.4590   18.3140  -31.6300 C   0  0  0  0  0  0  0  0  0  0  0  0
   -6.7290   19.0950  -32.7630 C   0  0  0  0  0  0  0  0  0  0  0  0
   -7.2600   20.4260  -32.6190 N   0  0  0  0  0  0  0  0  0  0  0  0
   -8.6630   20.6240  -32.2340 C   0  0  0  0  0  0  0  0  0  0  0  0
   -8.7180   21.5210  -30.9980 C   0  0  0  0  0  0  0  0  0  0  0  0
   -8.0080   22.8830  -31.2320 C   0  0  0  0  0  0  0  0  0  0  0  0
   -7.2400   23.3090  -30.0100 C   0  0  0  0  0  0  0  0  0  0  0  0
   -6.6970   22.4450  -29.2680 O   0  0  0  0  0  0  0  0  0  0  0  0
   -7.1270   24.6710  -29.7130 O   0  0  0  0  0  0  0  0  0  0  0  0
   -5.8980   25.2950  -29.3470 C   0  0  0  0  0  0  0  0  0  0  0  0
   -4.8740   25.1540  -30.4310 C   0  0  0  0  0  0  0  0  0  0  0  0
   -5.2430   24.9220  -31.6140 O   0  0  0  0  0  0  0  0  0  0  0  0
   -3.4860   25.2910  -30.1010 N   0  0  0  0  0  0  0  0  0  0  0  0
   -2.6970   24.4570  -29.2320 C   0  0  0  0  0  0  0  0  0  0  0  0
   -2.2120   24.9260  -27.9940 C   0  0  0  0  0  0  0  0  0  0  0  0
   -1.4410   24.0960  -27.1760 C   0  0  0  0  0  0  0  0  0  0  0  0
   -0.8270   24.6950  -25.6470 Cl  0  0  0  0  0  0  0  0  0  0  0  0
   -1.1680   22.7840  -27.5690 C   0  0  0  0  0  0  0  0  0  0  0  0
   -1.6720   22.2950  -28.7760 C   0  0  0  0  0  0  0  0  0  0  0  0
   -2.4450   23.1210  -29.6100 C   0  0  0  0  0  0  0  0  0  0  0  0
   -2.9850   22.5780  -30.9060 C   0  0  0  0  0  0  0  0  0  0  0  0
   -7.1030   22.9080  -32.4900 C   0  0  0  0  0  0  0  0  0  0  0  0
   -6.3580   21.5830  -32.7190 C   0  0  0  0  0  0  0  0  0  0  0  0
   -6.4930   18.5810  -34.0050 N   0  0  0  0  0  0  0  0  0  0  0  0
   -5.9870   17.3300  -34.1780 C   0  0  0  0  0  0  0  0  0  0  0  0
   -4.9843   14.6772  -32.2714 H   0  0  0  0  0  0  0  0  0  0  0  0
   -5.8928   14.5409  -33.8150 H   0  0  0  0  0  0  0  0  0  0  0  0
   -4.2119   15.1744  -33.8150 H   0  0  0  0  0  0  0  0  0  0  0  0
   -5.7352   16.4070  -30.9034 H   0  0  0  0  0  0  0  0  0  0  0  0
   -6.6547   18.7127  -30.6236 H   0  0  0  0  0  0  0  0  0  0  0  0
   -9.2085   21.1019  -33.0611 H   0  0  0  0  0  0  0  0  0  0  0  0
   -9.1273   19.6525  -32.0090 H   0  0  0  0  0  0  0  0  0  0  0  0
   -9.7713   21.7093  -30.7431 H   0  0  0  0  0  0  0  0  0  0  0  0
   -8.1958   21.0030  -30.1801 H   0  0  0  0  0  0  0  0  0  0  0  0
   -8.8109   23.6105  -31.4222 H   0  0  0  0  0  0  0  0  0  0  0  0
   -6.0797   26.3640  -29.1621 H   0  0  0  0  0  0  0  0  0  0  0  0
   -5.5149   24.8038  -28.4404 H   0  0  0  0  0  0  0  0  0  0  0  0
   -2.4420   25.9517  -27.6700 H   0  0  0  0  0  0  0  0  0  0  0  0
   -0.5549   22.1347  -26.9267 H   0  0  0  0  0  0  0  0  0  0  0  0
   -1.4628   21.2575  -29.0757 H   0  0  0  0  0  0  0  0  0  0  0  0
   -3.7461   21.8126  -30.6941 H   0  0  0  0  0  0  0  0  0  0  0  0
   -3.4386   23.3956  -31.4855 H   0  0  0  0  0  0  0  0  0  0  0  0
   -2.1649   22.1290  -31.4855 H   0  0  0  0  0  0  0  0  0  0  0  0
   -7.7306   23.1140  -33.3696 H   0  0  0  0  0  0  0  0  0  0  0  0
   -6.3449   23.6898  -32.3351 H   0  0  0  0  0  0  0  0  0  0  0  0
   -5.9064   21.5970  -33.7219 H   0  0  0  0  0  0  0  0  0  0  0  0
   -5.5874   21.4846  -31.9402 H   0  0  0  0  0  0  0  0  0  0  0  0
   -6.7240   19.1440  -34.8540 H   0  0  0  0  0  0  0  0  0  0  0  0
   -5.8159   16.9444  -35.1939 H   0  0  0  0  0  0  0  0  0  0  0  0
  1  2  1  0
  2  3  2  0
  3  4  1  0
  4  5  2  0
  5  6  1  0
  6  7  1  0
  7  8  1  0
  8  9  1  0
  9 10  1  0
 10 11  2  0
 10 12  1  0
 12 13  1  0
 13 14  1  0
 14 15  2  0
 14 16  1  0
 16 17  1  0
 17 18  2  0
 18 19  1  0
 19 20  1  0
 19 21  2  0
 21 22  1  0
 22 23  2  0
 23 24  1  0
  9 25  1  0
 25 26  1  0
  5 27  1  0
 27 28  2  0
 28  2  1  0
 26  6  1  0
 23 17  1  0
  1 29  1  0
  1 30  1  0
  1 31  1  0
  3 32  1  0
  4 33  1  0
  7 34  1  0
  7 35  1  0
  8 36  1  0
  8 37  1  0
  9 38  1  0
 13 39  1  0
 13 40  1  0
 18 41  1  0
 21 42  1  0
 22 43  1  0
 24 44  1  0
 24 45  1  0
 24 46  1  0
 25 47  1  0
 25 48  1  0
 26 49  1  0
 26 50  1  0
 27 51  1  0
 28 52  1  0
M  CHG  2  16  -1  27   1
M  END
>  <UniqueID>  (20) 
20

>  <SMILES>  (20) 
Cc1ccc(N2CCC(C(=O)OCC(=O)[N-]c3cc(Cl)ccc3C)CC2)[nH+]c1

>  <Energy>  (20) 
60.24215344169042

>  <Genealogy>  (20) 
Cc1ccc(N2CCC(C(=O)OCC(=O)[N-]c3cc(Cl)ccc3C)CC2)[nH+]c1 (protonated)
Cc1ccc(N2CCC(C(=O)OCC(=O)[N-]c3cc(Cl)ccc3C)CC2)[nH+]c1 (3D coordinates assigned)
Cc1ccc(N2CCC(C(=O)OCC(=O)[N-]c3cc(Cl)ccc3C)CC2)[nH+]c1 (nonaromatic ring conformer: 60.24215344169042 kcal/mol)

>  <smiles>  (20) 
Cc1ccc(N2CCC(C(=O)OCC(=O)Nc3cc(Cl)ccc3C)CC2)nc1

>  <score_type>  (20) 
oracle

>  <origin>  (20) 
adg

>  <m_score__min__energy>  (20) 
-10.49

>  <m_primary>  (20) 
energy

$$$$
20:0
     RDKit          3D

 51 53  0  0  0  0  0  0  0  0999 V2000
   -1.8460   25.6680  -26.5710 C   0  0  0  0  0  0  0  0  0  0  0  0
   -1.2210   26.3000  -27.8090 C   0  0  0  0  0  0  0  0  0  0  0  0
   -1.5650   25.5620  -28.9790 O   0  0  0  0  0  0  0  0  0  0  0  0
   -1.0380   24.2990  -29.2790 C   0  0  0  0  0  0  0  0  0  0  0  0
    0.1490   24.0170  -28.9610 O   0  0  0  0  0  0  0  0  0  0  0  0
   -1.8770   23.2980  -29.9770 C   0  0  0  0  0  0  0  0  0  0  0  0
   -1.3120   22.1100  -30.4700 C   0  0  0  0  0  0  0  0  0  0  0  0
   -2.1070   21.1700  -31.1290 C   0  0  0  0  0  0  0  0  0  0  0  0
   -3.4710   21.4030  -31.3050 C   0  0  0  0  0  0  0  0  0  0  0  0
   -4.0580   22.5830  -30.8210 C   0  0  0  0  0  0  0  0  0  0  0  0
   -5.4680   22.8260  -31.0030 N   0  0  0  0  0  0  0  0  0  0  0  0
   -5.9950   23.0680  -32.3490 C   0  0  0  0  0  0  0  0  0  0  0  0
   -7.4930   23.4170  -32.3200 C   0  0  0  0  0  0  0  0  0  0  0  0
   -8.2900   22.5580  -31.4030 N   0  0  0  0  0  0  0  0  0  0  0  0
   -8.7450   21.3280  -32.0310 C   0  0  0  0  0  0  0  0  0  0  0  0
   -9.9660   21.1990  -32.3180 O   0  0  0  0  0  0  0  0  0  0  0  0
   -7.8340   20.2140  -32.3670 C   0  0  0  0  0  0  0  0  0  0  0  0
   -7.8770   19.0400  -31.6010 C   0  0  0  0  0  0  0  0  0  0  0  0
   -7.0340   17.9670  -31.9040 C   0  0  0  0  0  0  0  0  0  0  0  0
   -6.1170   18.0650  -32.9620 C   0  0  0  0  0  0  0  0  0  0  0  0
   -5.2480   16.8950  -33.3160 C   0  0  0  0  0  0  0  0  0  0  0  0
   -6.0680   19.2410  -33.7240 C   0  0  0  0  0  0  0  0  0  0  0  0
   -6.9100   20.3140  -33.4210 C   0  0  0  0  0  0  0  0  0  0  0  0
   -7.6750   22.2980  -30.0700 C   0  0  0  0  0  0  0  0  0  0  0  0
   -6.3460   23.0250  -29.8470 C   0  0  0  0  0  0  0  0  0  0  0  0
   -3.2520   23.5260  -30.1580 C   0  0  0  0  0  0  0  0  0  0  0  0
   -1.4040   26.1150  -25.6683 H   0  0  0  0  0  0  0  0  0  0  0  0
   -2.9312   25.8480  -26.5756 H   0  0  0  0  0  0  0  0  0  0  0  0
   -1.6539   24.5849  -26.5756 H   0  0  0  0  0  0  0  0  0  0  0  0
   -1.5878   27.3319  -27.9120 H   0  0  0  0  0  0  0  0  0  0  0  0
   -0.1269   26.2937  -27.6955 H   0  0  0  0  0  0  0  0  0  0  0  0
   -0.2370   21.9191  -30.3361 H   0  0  0  0  0  0  0  0  0  0  0  0
   -1.6559   20.2422  -31.5108 H   0  0  0  0  0  0  0  0  0  0  0  0
   -4.0903   20.6580  -31.8260 H   0  0  0  0  0  0  0  0  0  0  0  0
   -5.4430   23.9043  -32.8028 H   0  0  0  0  0  0  0  0  0  0  0  0
   -5.8691   22.1469  -32.9370 H   0  0  0  0  0  0  0  0  0  0  0  0
   -7.5996   24.4629  -31.9963 H   0  0  0  0  0  0  0  0  0  0  0  0
   -7.8815   23.2500  -33.3355 H   0  0  0  0  0  0  0  0  0  0  0  0
   -9.1590   23.1160  -31.2170 H   0  0  0  0  0  0  0  0  0  0  0  0
   -8.5782   18.9632  -30.7569 H   0  0  0  0  0  0  0  0  0  0  0  0
   -7.0895   17.0422  -31.3110 H   0  0  0  0  0  0  0  0  0  0  0  0
   -4.8896   16.4125  -32.3948 H   0  0  0  0  0  0  0  0  0  0  0  0
   -5.8295   16.1717  -33.9064 H   0  0  0  0  0  0  0  0  0  0  0  0
   -4.3875   17.2427  -33.9064 H   0  0  0  0  0  0  0  0  0  0  0  0
   -5.3630   19.3192  -34.5647 H   0  0  0  0  0  0  0  0  0  0  0  0
   -6.8494   21.2410  -34.0100 H   0  0  0  0  0  0  0  0  0  0  0  0
   -8.3823   22.6234  -29.2929 H   0  0  0  0  0  0  0  0  0  0  0  0
   -7.4611   21.2201  -30.0220 H   0  0  0  0  0  0  0  0  0  0  0  0
   -6.5363   24.1003  -29.7145 H   0  0  0  0  0  0  0  0  0  0  0  0
   -5.8583   22.6199  -28.9481 H   0  0  0  0  0  0  0  0  0  0  0  0
   -3.7035   24.4536  -29.7764 H   0  0  0  0  0  0  0  0  0  0  0  0
  1  2  1  0
  2  3  1  0
  3  4  1  0
  4  5  2  0
  4  6  1  0
  6  7  2  0
  7  8  1  0
  8  9  2  0
  9 10  1  0
 10 11  1  0
 11 12  1  0
 12 13  1  0
 13 14  1  0
 14 15  1  0
 15 16  2  0
 15 17  1  0
 17 18  2  0
 18 19  1  0
 19 20  2  0
 20 21  1  0
 20 22  1  0
 22 23  2  0
 14 24  1  0
 24 25  1  0
 10 26  2  0
 26  6  1  0
 25 11  1  0
 23 17  1  0
  1 27  1  0
  1 28  1  0
  1 29  1  0
  2 30  1  0
  2 31  1  0
  7 32  1  0
  8 33  1  0
  9 34  1  0
 12 35  1  0
 12 36  1  0
 13 37  1  0
 13 38  1  0
 14 39  1  0
 18 40  1  0
 19 41  1  0
 21 42  1  0
 21 43  1  0
 21 44  1  0
 22 45  1  0
 23 46  1  0
 24 47  1  0
 24 48  1  0
 25 49  1  0
 25 50  1  0
 26 51  1  0
M  CHG  1  14   1
M  END
>  <UniqueID>  (21) 
21

>  <SMILES>  (21) 
CCOC(=O)c1cccc(N2CC[NH+](C(=O)c3ccc(C)cc3)CC2)c1

>  <Energy>  (21) 
69.0252141467153

>  <Genealogy>  (21) 
CCOC(=O)c1cccc(N2CC[NH+](C(=O)c3ccc(C)cc3)CC2)c1 (protonated)
CCOC(=O)c1cccc(N2CC[NH+](C(=O)c3ccc(C)cc3)CC2)c1 (3D coordinates assigned)
CCOC(=O)c1cccc(N2CC[NH+](C(=O)c3ccc(C)cc3)CC2)c1 (nonaromatic ring conformer: 69.0252141467153 kcal/mol)

>  <smiles>  (21) 
CCOC(=O)c1cccc(N2CCN(C(=O)c3ccc(C)cc3)CC2)c1

>  <score_type>  (21) 
oracle

>  <origin>  (21) 
adg

>  <m_score__min__energy>  (21) 
-8.7100000000000009

>  <m_primary>  (21) 
energy

$$$$
21:0
     RDKit          3D

 53 55  0  0  0  0  0  0  0  0999 V2000
   -4.0990   18.3880  -34.0900 C   0  0  0  0  0  0  0  0  0  0  0  0
   -2.9420   18.9850  -33.5140 O   0  0  0  0  0  0  0  0  0  0  0  0
   -2.9530   20.1680  -32.7600 C   0  0  0  0  0  0  0  0  0  0  0  0
   -3.9590   21.1050  -33.0140 C   0  0  0  0  0  0  0  0  0  0  0  0
   -4.0220   22.2990  -32.2920 C   0  0  0  0  0  0  0  0  0  0  0  0
   -3.0700   22.5830  -31.2950 C   0  0  0  0  0  0  0  0  0  0  0  0
   -3.1320   23.7860  -30.5520 C   0  0  0  0  0  0  0  0  0  0  0  0
   -4.1850   24.6800  -30.8420 O   0  0  0  0  0  0  0  0  0  0  0  0
   -5.4590   24.7630  -30.2020 C   0  0  0  0  0  0  0  0  0  0  0  0
   -5.9440   23.3770  -29.7570 C   0  0  0  0  0  0  0  0  0  0  0  0
   -7.4000   23.1140  -30.1730 C   0  0  0  0  0  0  0  0  0  0  0  0
   -7.4930   22.4730  -31.5050 N   0  0  0  0  0  0  0  0  0  0  0  0
   -6.7920   21.1640  -31.5320 C   0  0  0  0  0  0  0  0  0  0  0  0
   -7.3130   20.2600  -32.6590 C   0  0  0  0  0  0  0  0  0  0  0  0
   -8.7620   19.9680  -32.5240 N   0  0  0  0  0  0  0  0  0  0  0  0
   -8.9910   18.6350  -31.9450 C   0  0  0  0  0  0  0  0  0  0  0  0
   -9.5050   20.9980  -31.7610 C   0  0  0  0  0  0  0  0  0  0  0  0
   -8.9010   22.3930  -31.9750 C   0  0  0  0  0  0  0  0  0  0  0  0
   -2.1420   24.0500  -29.5700 C   0  0  0  0  0  0  0  0  0  0  0  0
   -2.1530   25.2710  -28.8760 O   0  0  0  0  0  0  0  0  0  0  0  0
   -1.6540   25.4660  -27.5560 C   0  0  0  0  0  0  0  0  0  0  0  0
   -1.1450   23.0890  -29.3200 C   0  0  0  0  0  0  0  0  0  0  0  0
   -1.1010   21.8990  -30.0420 C   0  0  0  0  0  0  0  0  0  0  0  0
   -2.0500   21.6380  -31.0340 C   0  0  0  0  0  0  0  0  0  0  0  0
   -1.9960   20.4390  -31.7660 C   0  0  0  0  0  0  0  0  0  0  0  0
   -4.7699   18.0418  -33.2899 H   0  0  0  0  0  0  0  0  0  0  0  0
   -4.6224   19.1286  -34.7126 H   0  0  0  0  0  0  0  0  0  0  0  0
   -3.7987   17.5323  -34.7126 H   0  0  0  0  0  0  0  0  0  0  0  0
   -4.7096   20.8995  -33.7914 H   0  0  0  0  0  0  0  0  0  0  0  0
   -4.8222   23.0233  -32.5043 H   0  0  0  0  0  0  0  0  0  0  0  0
   -5.3763   25.4151  -29.3200 H   0  0  0  0  0  0  0  0  0  0  0  0
   -6.1847   25.1738  -30.9194 H   0  0  0  0  0  0  0  0  0  0  0  0
   -5.3002   22.6118  -30.2152 H   0  0  0  0  0  0  0  0  0  0  0  0
   -5.8923   23.3360  -28.6590 H   0  0  0  0  0  0  0  0  0  0  0  0
   -7.8676   22.4532  -29.4282 H   0  0  0  0  0  0  0  0  0  0  0  0
   -7.9166   24.0836  -30.2275 H   0  0  0  0  0  0  0  0  0  0  0  0
   -5.7168   21.3392  -31.6846 H   0  0  0  0  0  0  0  0  0  0  0  0
   -6.9784   20.6570  -30.5738 H   0  0  0  0  0  0  0  0  0  0  0  0
   -7.1418   20.7621  -33.6227 H   0  0  0  0  0  0  0  0  0  0  0  0
   -6.7709   19.3046  -32.6012 H   0  0  0  0  0  0  0  0  0  0  0  0
   -8.9790   18.7050  -30.8473 H   0  0  0  0  0  0  0  0  0  0  0  0
   -9.9678   18.2537  -32.2774 H   0  0  0  0  0  0  0  0  0  0  0  0
   -8.1974   17.9496  -32.2774 H   0  0  0  0  0  0  0  0  0  0  0  0
  -10.5528   21.0058  -32.0957 H   0  0  0  0  0  0  0  0  0  0  0  0
   -9.4407   20.7517  -30.6909 H   0  0  0  0  0  0  0  0  0  0  0  0
   -8.9302   22.6309  -33.0486 H   0  0  0  0  0  0  0  0  0  0  0  0
   -9.4939   23.1113  -31.3897 H   0  0  0  0  0  0  0  0  0  0  0  0
   -2.4206   25.1664  -26.8262 H   0  0  0  0  0  0  0  0  0  0  0  0
   -0.7511   24.8545  -27.4113 H   0  0  0  0  0  0  0  0  0  0  0  0
   -1.4049   26.5276  -27.4113 H   0  0  0  0  0  0  0  0  0  0  0  0
   -0.3898   23.2804  -28.5434 H   0  0  0  0  0  0  0  0  0  0  0  0
   -0.3143   21.1599  -29.8301 H   0  0  0  0  0  0  0  0  0  0  0  0
   -1.2001   19.7082  -31.5599 H   0  0  0  0  0  0  0  0  0  0  0  0
  1  2  1  0
  2  3  1  0
  3  4  2  0
  4  5  1  0
  5  6  2  0
  6  7  1  0
  7  8  1  0
  8  9  1  0
  9 10  1  0
 10 11  1  0
 11 12  1  0
 12 13  1  0
 13 14  1  0
 14 15  1  0
 15 16  1  0
 15 17  1  0
 17 18  1  0
  7 19  2  0
 19 20  1  0
 20 21  1  0
 19 22  1  0
 22 23  2  0
 23 24  1  0
 24 25  2  0
 25  3  1  0
 24  6  1  0
 18 12  1  0
  1 26  1  0
  1 27  1  0
  1 28  1  0
  4 29  1  0
  5 30  1  0
  9 31  1  0
  9 32  1  0
 10 33  1  0
 10 34  1  0
 11 35  1  0
 11 36  1  0
 13 37  1  0
 13 38  1  0
 14 39  1  0
 14 40  1  0
 16 41  1  0
 16 42  1  0
 16 43  1  0
 17 44  1  0
 17 45  1  0
 18 46  1  0
 18 47  1  0
 21 48  1  0
 21 49  1  0
 21 50  1  0
 22 51  1  0
 23 52  1  0
 25 53  1  0
M  END
>  <UniqueID>  (22) 
22

>  <SMILES>  (22) 
COc1ccc2c(OCCCN3CCN(C)CC3)c(OC)ccc2c1

>  <Energy>  (22) 
70.21152237876454

>  <Genealogy>  (22) 
COc1ccc2c(OCCCN3CCN(C)CC3)c(OC)ccc2c1 (3D coordinates assigned)
COc1ccc2c(OCCCN3CCN(C)CC3)c(OC)ccc2c1 (nonaromatic ring conformer: 70.21152237876454 kcal/mol)

>  <smiles>  (22) 
COc1ccc2c(OCCCN3CCN(C)CC3)c(OC)ccc2c1

>  <score_type>  (22) 
oracle

>  <origin>  (22) 
adg

>  <m_score__min__energy>  (22) 
-8.2400000000000002

>  <m_primary>  (22) 
energy

$$$$
22:0
     RDKit          3D

 53 56  0  0  0  0  0  0  0  0999 V2000
   -2.0000   21.2040  -31.7310 C   0  0  0  0  0  0  0  0  0  0  0  0
   -2.5280   21.0750  -33.0460 O   0  0  0  0  0  0  0  0  0  0  0  0
   -3.5180   20.1660  -33.4770 C   0  0  0  0  0  0  0  0  0  0  0  0
   -3.2160   18.9530  -34.1520 C   0  0  0  0  0  0  0  0  0  0  0  0
   -1.8800   18.6100  -34.4140 O   0  0  0  0  0  0  0  0  0  0  0  0
   -0.9420   18.0920  -33.4690 C   0  0  0  0  0  0  0  0  0  0  0  0
    0.4610   18.6520  -33.7190 C   0  0  0  0  0  0  0  0  0  0  0  0
    0.4120   19.9000  -34.4780 N   0  0  0  0  0  0  0  0  0  0  0  0
    0.2930   20.0330  -35.8090 C   0  0  0  0  0  0  0  0  0  0  0  0
    0.2440   21.3790  -36.0940 C   0  0  0  0  0  0  0  0  0  0  0  0
    0.3320   22.0890  -34.9500 N   0  0  0  0  0  0  0  0  0  0  0  0
    0.4350   21.1520  -33.9830 C   0  0  0  0  0  0  0  0  0  0  0  0
   -4.2690   18.1130  -34.5620 C   0  0  0  0  0  0  0  0  0  0  0  0
   -5.5940   18.4420  -34.2920 C   0  0  0  0  0  0  0  0  0  0  0  0
   -5.9050   19.6230  -33.6130 C   0  0  0  0  0  0  0  0  0  0  0  0
   -7.2050   19.9370  -33.3470 N   0  0  0  0  0  0  0  0  0  0  0  0
   -7.5430   21.0770  -32.6880 C   0  0  0  0  0  0  0  0  0  0  0  0
   -6.5590   21.9730  -32.2530 C   0  0  0  0  0  0  0  0  0  0  0  0
   -6.9580   23.1630  -31.5410 N   0  0  0  0  0  0  0  0  0  0  0  0
   -6.5760   23.4780  -30.1560 C   0  0  0  0  0  0  0  0  0  0  0  0
   -6.6840   24.9920  -29.8830 C   0  0  0  0  0  0  0  0  0  0  0  0
   -5.5550   25.7830  -30.5640 C   0  0  0  0  0  0  0  0  0  0  0  0
   -4.2330   25.2650  -30.1880 N   0  0  0  0  0  0  0  0  0  0  0  0
   -4.0970   23.8500  -30.5580 C   0  0  0  0  0  0  0  0  0  0  0  0
   -5.1490   22.9850  -29.8510 C   0  0  0  0  0  0  0  0  0  0  0  0
   -5.2130   21.6650  -32.5130 C   0  0  0  0  0  0  0  0  0  0  0  0
   -4.8680   20.4900  -33.2040 C   0  0  0  0  0  0  0  0  0  0  0  0
   -2.7950   21.0098  -30.9960 H   0  0  0  0  0  0  0  0  0  0  0  0
   -1.1852   20.4785  -31.5902 H   0  0  0  0  0  0  0  0  0  0  0  0
   -1.6116   22.2235  -31.5902 H   0  0  0  0  0  0  0  0  0  0  0  0
   -1.2639   18.3698  -32.4545 H   0  0  0  0  0  0  0  0  0  0  0  0
   -0.9053   16.9980  -33.5778 H   0  0  0  0  0  0  0  0  0  0  0  0
    0.9481   18.8412  -32.7510 H   0  0  0  0  0  0  0  0  0  0  0  0
    1.0280   17.9137  -34.3049 H   0  0  0  0  0  0  0  0  0  0  0  0
    0.2435   19.2131  -36.5407 H   0  0  0  0  0  0  0  0  0  0  0  0
    0.1477   21.8102  -37.1014 H   0  0  0  0  0  0  0  0  0  0  0  0
    0.5273   21.3852  -32.9120 H   0  0  0  0  0  0  0  0  0  0  0  0
   -4.0410   17.1831  -35.1036 H   0  0  0  0  0  0  0  0  0  0  0  0
   -6.4013   17.7683  -34.6150 H   0  0  0  0  0  0  0  0  0  0  0  0
   -7.9720   19.2950  -33.6500 H   0  0  0  0  0  0  0  0  0  0  0  0
   -8.6029   21.2983  -32.4941 H   0  0  0  0  0  0  0  0  0  0  0  0
   -7.6050   23.8190  -32.0380 H   0  0  0  0  0  0  0  0  0  0  0  0
   -7.2768   22.9525  -29.4906 H   0  0  0  0  0  0  0  0  0  0  0  0
   -7.6505   25.3534  -30.2642 H   0  0  0  0  0  0  0  0  0  0  0  0
   -6.6005   25.1479  -28.7973 H   0  0  0  0  0  0  0  0  0  0  0  0
   -5.6722   25.7059  -31.6550 H   0  0  0  0  0  0  0  0  0  0  0  0
   -5.6213   26.8310  -30.2364 H   0  0  0  0  0  0  0  0  0  0  0  0
   -4.1140   25.3600  -29.1520 H   0  0  0  0  0  0  0  0  0  0  0  0
   -4.2238   23.7504  -31.6461 H   0  0  0  0  0  0  0  0  0  0  0  0
   -3.0993   23.5048  -30.2491 H   0  0  0  0  0  0  0  0  0  0  0  0
   -5.0480   21.9452  -30.1952 H   0  0  0  0  0  0  0  0  0  0  0  0
   -4.9825   23.0537  -28.7658 H   0  0  0  0  0  0  0  0  0  0  0  0
   -4.4218   22.3494  -32.1729 H   0  0  0  0  0  0  0  0  0  0  0  0
  1  2  1  0
  2  3  1  0
  3  4  2  0
  4  5  1  0
  5  6  1  0
  6  7  1  0
  7  8  1  0
  8  9  1  0
  9 10  2  0
 10 11  1  0
 11 12  2  0
  4 13  1  0
 13 14  2  0
 14 15  1  0
 15 16  2  0
 16 17  1  0
 17 18  2  0
 18 19  1  0
 19 20  1  0
 20 21  1  0
 21 22  1  0
 22 23  1  0
 23 24  1  0
 24 25  1  0
 18 26  1  0
 26 27  2  0
 27  3  1  0
 12  8  1  0
 27 15  1  0
 25 20  1  0
  1 28  1  0
  1 29  1  0
  1 30  1  0
  6 31  1  0
  6 32  1  0
  7 33  1  0
  7 34  1  0
  9 35  1  0
 10 36  1  0
 12 37  1  0
 13 38  1  0
 14 39  1  0
 16 40  1  0
 17 41  1  0
 19 42  1  0
 20 43  1  0
 21 44  1  0
 21 45  1  0
 22 46  1  0
 22 47  1  0
 23 48  1  0
 24 49  1  0
 24 50  1  0
 25 51  1  0
 25 52  1  0
 26 53  1  0
M  CHG  1  16   1
M  END
>  <UniqueID>  (23) 
23

>  <SMILES>  (23) 
COc1c(OCCn2ccnc2)ccc2[nH+]cc(NC3CCNCC3)cc12

>  <Energy>  (23) 
86.22088478905164

>  <Genealogy>  (23) 
COc1c(OCCn2ccnc2)ccc2[nH+]cc(NC3CCNCC3)cc12 (protonated)
COc1c(OCCn2ccnc2)ccc2[nH+]cc(NC3CCNCC3)cc12 (3D coordinates assigned)
COc1c(OCCn2ccnc2)ccc2[nH+]cc(NC3CCNCC3)cc12 (nonaromatic ring conformer: 86.22088478905164 kcal/mol)

>  <smiles>  (23) 
COc1c(OCCn2ccnc2)ccc2ncc(NC3CCNCC3)cc12

>  <score_type>  (23) 
oracle

>  <origin>  (23) 
adg

>  <m_score__min__energy>  (23) 
-7.6500000000000004

>  <m_primary>  (23) 
energy

$$$$
23:0
     RDKit          3D

 45 46  0  0  0  0  0  0  0  0999 V2000
   -3.4000   24.4580  -27.1460 C   0  0  0  0  0  0  0  0  0  0  0  0
   -2.3960   24.5950  -28.2870 C   0  0  0  0  0  0  0  0  0  0  0  0
   -2.8820   23.8980  -29.4860 N   0  0  0  0  0  0  0  0  0  0  0  0
   -2.0710   22.8300  -30.0810 C   0  0  0  0  0  0  0  0  0  0  0  0
   -4.1500   24.2710  -30.0740 C   0  0  0  0  0  0  0  0  0  0  0  0
   -4.2120   25.2780  -30.8340 O   0  0  0  0  0  0  0  0  0  0  0  0
   -5.4020   23.4720  -29.7900 C   0  0  0  0  0  0  0  0  0  0  0  0
   -6.6700   24.1020  -30.3850 C   0  0  0  0  0  0  0  0  0  0  0  0
   -6.8330   23.7810  -31.8780 C   0  0  0  0  0  0  0  0  0  0  0  0
   -6.9460   22.3340  -32.1060 N   0  0  0  0  0  0  0  0  0  0  0  0
   -8.0580   21.5610  -31.9670 C   0  0  0  0  0  0  0  0  0  0  0  0
   -9.4190   22.0910  -31.6160 C   0  0  0  0  0  0  0  0  0  0  0  0
   -7.7560   20.2230  -32.2350 C   0  0  0  0  0  0  0  0  0  0  0  0
   -8.7080   19.0650  -32.2250 C   0  0  0  0  0  0  0  0  0  0  0  0
   -6.4110   20.2020  -32.5610 C   0  0  0  0  0  0  0  0  0  0  0  0
   -5.5740   19.1490  -32.9350 C   0  0  0  0  0  0  0  0  0  0  0  0
   -4.2290   19.4400  -33.2210 C   0  0  0  0  0  0  0  0  0  0  0  0
   -3.3700   18.4090  -33.5960 O   0  0  0  0  0  0  0  0  0  0  0  0
   -3.7540   20.7700  -33.1310 C   0  0  0  0  0  0  0  0  0  0  0  0
   -4.6190   21.8120  -32.7560 C   0  0  0  0  0  0  0  0  0  0  0  0
   -5.9520   21.4940  -32.4700 C   0  0  0  0  0  0  0  0  0  0  0  0
   -2.8729   24.5299  -26.1832 H   0  0  0  0  0  0  0  0  0  0  0  0
   -4.1468   25.2626  -27.2162 H   0  0  0  0  0  0  0  0  0  0  0  0
   -3.9040   23.4828  -27.2162 H   0  0  0  0  0  0  0  0  0  0  0  0
   -2.2556   25.6609  -28.5197 H   0  0  0  0  0  0  0  0  0  0  0  0
   -1.4410   24.1459  -27.9767 H   0  0  0  0  0  0  0  0  0  0  0  0
   -1.6139   22.2281  -29.2817 H   0  0  0  0  0  0  0  0  0  0  0  0
   -2.7108   22.1874  -30.7037 H   0  0  0  0  0  0  0  0  0  0  0  0
   -1.2802   23.2737  -30.7037 H   0  0  0  0  0  0  0  0  0  0  0  0
   -5.2786   22.4655  -30.2164 H   0  0  0  0  0  0  0  0  0  0  0  0
   -5.5319   23.4452  -28.6980 H   0  0  0  0  0  0  0  0  0  0  0  0
   -7.5454   23.7158  -29.8422 H   0  0  0  0  0  0  0  0  0  0  0  0
   -6.5841   25.1938  -30.2823 H   0  0  0  0  0  0  0  0  0  0  0  0
   -7.7418   24.2744  -32.2530 H   0  0  0  0  0  0  0  0  0  0  0  0
   -5.9424   24.1468  -32.4100 H   0  0  0  0  0  0  0  0  0  0  0  0
   -9.5254   22.1324  -30.5219 H   0  0  0  0  0  0  0  0  0  0  0  0
   -9.5382   23.1013  -32.0345 H   0  0  0  0  0  0  0  0  0  0  0  0
  -10.1900   21.4274  -32.0345 H   0  0  0  0  0  0  0  0  0  0  0  0
   -8.9365   18.7871  -31.1855 H   0  0  0  0  0  0  0  0  0  0  0  0
   -9.6368   19.3495  -32.7411 H   0  0  0  0  0  0  0  0  0  0  0  0
   -8.2493   18.2087  -32.7411 H   0  0  0  0  0  0  0  0  0  0  0  0
   -5.9566   18.1200  -33.0039 H   0  0  0  0  0  0  0  0  0  0  0  0
   -3.3660   18.0410  -34.5410 H   0  0  0  0  0  0  0  0  0  0  0  0
   -2.7000   20.9897  -33.3562 H   0  0  0  0  0  0  0  0  0  0  0  0
   -4.2586   22.8491  -32.6890 H   0  0  0  0  0  0  0  0  0  0  0  0
  1  2  1  0
  2  3  1  0
  3  4  1  0
  3  5  1  0
  5  6  2  0
  5  7  1  0
  7  8  1  0
  8  9  1  0
  9 10  1  0
 10 11  1  0
 11 12  1  0
 11 13  2  0
 13 14  1  0
 13 15  1  0
 15 16  2  0
 16 17  1  0
 17 18  1  0
 17 19  2  0
 19 20  1  0
 20 21  2  0
 21 10  1  0
 21 15  1  0
  1 22  1  0
  1 23  1  0
  1 24  1  0
  2 25  1  0
  2 26  1  0
  4 27  1  0
  4 28  1  0
  4 29  1  0
  7 30  1  0
  7 31  1  0
  8 32  1  0
  8 33  1  0
  9 34  1  0
  9 35  1  0
 12 36  1  0
 12 37  1  0
 12 38  1  0
 14 39  1  0
 14 40  1  0
 14 41  1  0
 16 42  1  0
 18 43  1  0
 19 44  1  0
 20 45  1  0
M  END
>  <UniqueID>  (24) 
24

>  <SMILES>  (24) 
CCN(C)C(=O)CCCn1c(C)c(C)c2cc(O)ccc21

>  <Energy>  (24) 
68.07689697958749

>  <Genealogy>  (24) 
CCN(C)C(=O)CCCn1c(C)c(C)c2cc(O)ccc21 (3D coordinates assigned)
CCN(C)C(=O)CCCn1c(C)c(C)c2cc(O)ccc21 (optimized conformer: 68.07689697958749 kcal/mol)

>  <smiles>  (24) 
CCN(C)C(=O)CCCn1c(C)c(C)c2cc(O)ccc21

>  <score_type>  (24) 
oracle

>  <origin>  (24) 
adg

>  <m_score__min__energy>  (24) 
-7.8700000000000001

>  <m_primary>  (24) 
energy

$$$$
24:0
     RDKit          3D

 47 49  0  0  0  0  0  0  0  0999 V2000
   -2.0250   24.8550  -28.1790 C   0  0  0  0  0  0  0  0  0  0  0  0
   -2.7400   25.2470  -29.3460 O   0  0  0  0  0  0  0  0  0  0  0  0
   -3.9430   24.6650  -29.7700 C   0  0  0  0  0  0  0  0  0  0  0  0
   -4.3080   23.4250  -29.2340 C   0  0  0  0  0  0  0  0  0  0  0  0
   -5.5020   22.8090  -29.6170 C   0  0  0  0  0  0  0  0  0  0  0  0
   -6.3710   23.4380  -30.5240 C   0  0  0  0  0  0  0  0  0  0  0  0
   -7.6630   22.7610  -30.9530 C   0  0  0  0  0  0  0  0  0  0  0  0
   -7.7350   21.2840  -30.7930 N   0  0  0  0  0  0  0  0  0  0  0  0
   -8.6360   20.5820  -31.7160 C   0  0  0  0  0  0  0  0  0  0  0  0
   -7.5020   19.7350  -32.3090 C   0  0  0  0  0  0  0  0  0  0  0  0
   -7.6100   18.2130  -32.0020 C   0  0  0  0  0  0  0  0  0  0  0  0
   -7.2730   17.3500  -33.2300 C   0  0  0  0  0  0  0  0  0  0  0  0
   -6.0430   17.7860  -33.9320 N   0  0  0  0  0  0  0  0  0  0  0  0
   -4.5940   17.3180  -33.0640 S   0  0  0  0  0  0  0  0  0  0  0  0
   -3.3750   16.6160  -34.1590 C   0  0  0  0  0  0  0  0  0  0  0  0
   -3.9950   18.5390  -32.4220 O   0  0  0  0  0  0  0  0  0  0  0  0
   -4.9210   16.3190  -31.9890 O   0  0  0  0  0  0  0  0  0  0  0  0
   -6.0090   19.2360  -34.2840 C   0  0  0  0  0  0  0  0  0  0  0  0
   -7.2290   20.0320  -33.7950 C   0  0  0  0  0  0  0  0  0  0  0  0
   -6.6050   20.5190  -31.3380 C   0  0  0  0  0  0  0  0  0  0  0  0
   -5.9800   24.6600  -31.0990 C   0  0  0  0  0  0  0  0  0  0  0  0
   -4.7870   25.2780  -30.7150 C   0  0  0  0  0  0  0  0  0  0  0  0
   -2.5863   25.1627  -27.2844 H   0  0  0  0  0  0  0  0  0  0  0  0
   -1.8999   23.7621  -28.1754 H   0  0  0  0  0  0  0  0  0  0  0  0
   -1.0363   25.3372  -28.1754 H   0  0  0  0  0  0  0  0  0  0  0  0
   -3.6491   22.9310  -28.5048 H   0  0  0  0  0  0  0  0  0  0  0  0
   -5.7638   21.8233  -29.2049 H   0  0  0  0  0  0  0  0  0  0  0  0
   -8.4801   23.1994  -30.3612 H   0  0  0  0  0  0  0  0  0  0  0  0
   -7.7314   22.9353  -32.0369 H   0  0  0  0  0  0  0  0  0  0  0  0
   -9.4061   19.9851  -31.2055 H   0  0  0  0  0  0  0  0  0  0  0  0
   -9.2643   21.1758  -32.3962 H   0  0  0  0  0  0  0  0  0  0  0  0
   -6.9101   17.9642  -31.1907 H   0  0  0  0  0  0  0  0  0  0  0  0
   -8.6492   17.9987  -31.7121 H   0  0  0  0  0  0  0  0  0  0  0  0
   -7.1363   16.3099  -32.8991 H   0  0  0  0  0  0  0  0  0  0  0  0
   -8.1073   17.4525  -33.9396 H   0  0  0  0  0  0  0  0  0  0  0  0
   -6.0110   17.2460  -34.8290 H   0  0  0  0  0  0  0  0  0  0  0  0
   -2.5722   16.1537  -33.5659 H   0  0  0  0  0  0  0  0  0  0  0  0
   -3.8485   15.8523  -34.7934 H   0  0  0  0  0  0  0  0  0  0  0  0
   -2.9521   17.4089  -34.7934 H   0  0  0  0  0  0  0  0  0  0  0  0
   -5.1067   19.6784  -33.8367 H   0  0  0  0  0  0  0  0  0  0  0  0
   -6.0131   19.2946  -35.3824 H   0  0  0  0  0  0  0  0  0  0  0  0
   -7.0342   21.1074  -33.9200 H   0  0  0  0  0  0  0  0  0  0  0  0
   -8.1086   19.7365  -34.3858 H   0  0  0  0  0  0  0  0  0  0  0  0
   -6.1071   19.8825  -30.5917 H   0  0  0  0  0  0  0  0  0  0  0  0
   -5.7391   21.0656  -31.7398 H   0  0  0  0  0  0  0  0  0  0  0  0
   -6.6193   25.1341  -31.8583 H   0  0  0  0  0  0  0  0  0  0  0  0
   -4.5064   26.2473  -31.1529 H   0  0  0  0  0  0  0  0  0  0  0  0
  1  2  1  0
  2  3  1  0
  3  4  2  0
  4  5  1  0
  5  6  2  0
  6  7  1  0
  7  8  1  0
  8  9  1  0
  9 10  1  0
 10 11  1  0
 11 12  1  0
 12 13  1  0
 13 14  1  0
 14 15  1  0
 14 16  2  0
 14 17  2  0
 13 18  1  0
 18 19  1  0
 10 20  1  0
  6 21  1  0
 21 22  2  0
 22  3  1  0
 20  8  1  0
 19 10  1  0
  1 23  1  0
  1 24  1  0
  1 25  1  0
  4 26  1  0
  5 27  1  0
  7 28  1  0
  7 29  1  0
  9 30  1  0
  9 31  1  0
 11 32  1  0
 11 33  1  0
 12 34  1  0
 12 35  1  0
 13 36  1  0
 15 37  1  0
 15 38  1  0
 15 39  1  0
 18 40  1  0
 18 41  1  0
 19 42  1  0
 19 43  1  0
 20 44  1  0
 20 45  1  0
 21 46  1  0
 22 47  1  0
M  CHG  1  13   1
M  END
>  <UniqueID>  (25) 
25

>  <SMILES>  (25) 
COc1ccc(CN2CC3(CC[NH+](S(C)(=O)=O)CC3)C2)cc1

>  <Energy>  (25) 
129.36313871603247

>  <Genealogy>  (25) 
COc1ccc(CN2CC3(CC[NH+](S(C)(=O)=O)CC3)C2)cc1 (protonated)
COc1ccc(CN2CC3(CC[NH+](S(C)(=O)=O)CC3)C2)cc1 (3D coordinates assigned)
COc1ccc(CN2CC3(CC[NH+](S(C)(=O)=O)CC3)C2)cc1 (nonaromatic ring conformer: 129.36313871603247 kcal/mol)

>  <smiles>  (25) 
COc1ccc(CN2CC3(CCN(S(C)(=O)=O)CC3)C2)cc1

>  <score_type>  (25) 
oracle

>  <origin>  (25) 
adg

>  <m_score__min__energy>  (25) 
-7.5800000000000001

>  <m_primary>  (25) 
energy

$$$$
25:0
     RDKit          3D

 29 31  0  0  0  0  0  0  0  0999 V2000
   -6.1170   25.6270  -29.0210 C   0  0  0  0  0  0  0  0  0  0  0  0
   -6.3280   25.2880  -30.4920 C   0  0  0  0  0  0  0  0  0  0  0  0
   -5.6400   24.0370  -30.8300 N   0  0  0  0  0  0  0  0  0  0  0  0
   -4.2090   23.9050  -30.7090 C   0  0  0  0  0  0  0  0  0  0  0  0
   -3.4930   24.9160  -30.4680 O   0  0  0  0  0  0  0  0  0  0  0  0
   -3.5580   22.5430  -30.7840 C   0  0  0  0  0  0  0  0  0  0  0  0
   -4.3000   21.6010  -31.7500 C   0  0  0  0  0  0  0  0  0  0  0  0
   -5.7450   21.7300  -31.5720 N   0  0  0  0  0  0  0  0  0  0  0  0
   -6.3760   22.8650  -31.2030 C   0  0  0  0  0  0  0  0  0  0  0  0
   -7.7320   22.7860  -31.2500 N   0  0  0  0  0  0  0  0  0  0  0  0
   -7.9300   21.5270  -31.6920 C   0  0  0  0  0  0  0  0  0  0  0  0
   -9.1460   20.9020  -31.9570 C   0  0  0  0  0  0  0  0  0  0  0  0
   -9.1120   19.5850  -32.4540 C   0  0  0  0  0  0  0  0  0  0  0  0
   -7.8770   18.9350  -32.6780 C   0  0  0  0  0  0  0  0  0  0  0  0
   -6.6630   19.5930  -32.4040 C   0  0  0  0  0  0  0  0  0  0  0  0
   -6.7360   20.8910  -31.9010 C   0  0  0  0  0  0  0  0  0  0  0  0
   -6.5951   24.8588  -28.3955 H   0  0  0  0  0  0  0  0  0  0  0  0
   -5.0393   25.6588  -28.8030 H   0  0  0  0  0  0  0  0  0  0  0  0
   -6.5643   26.6080  -28.8030 H   0  0  0  0  0  0  0  0  0  0  0  0
   -7.4045   25.1743  -30.6874 H   0  0  0  0  0  0  0  0  0  0  0  0
   -5.9168   26.1005  -31.1090 H   0  0  0  0  0  0  0  0  0  0  0  0
   -2.5214   22.6636  -31.1318 H   0  0  0  0  0  0  0  0  0  0  0  0
   -3.5914   22.0949  -29.7800 H   0  0  0  0  0  0  0  0  0  0  0  0
   -4.0369   21.8622  -32.7857 H   0  0  0  0  0  0  0  0  0  0  0  0
   -4.0038   20.5633  -31.5370 H   0  0  0  0  0  0  0  0  0  0  0  0
  -10.1009   21.4198  -31.7839 H   0  0  0  0  0  0  0  0  0  0  0  0
  -10.0533   19.0582  -32.6695 H   0  0  0  0  0  0  0  0  0  0  0  0
   -7.8644   17.9071  -33.0694 H   0  0  0  0  0  0  0  0  0  0  0  0
   -5.6945   19.1020  -32.5800 H   0  0  0  0  0  0  0  0  0  0  0  0
  1  2  1  0
  2  3  1  0
  3  4  1  0
  4  5  2  0
  4  6  1  0
  6  7  1  0
  7  8  1  0
  8  9  1  0
  9 10  2  0
 10 11  1  0
 11 12  2  0
 12 13  1  0
 13 14  2  0
 14 15  1  0
 15 16  2  0
  9  3  1  0
 16 11  1  0
 16  8  1  0
  1 17  1  0
  1 18  1  0
  1 19  1  0
  2 20  1  0
  2 21  1  0
  6 22  1  0
  6 23  1  0
  7 24  1  0
  7 25  1  0
 12 26  1  0
 13 27  1  0
 14 28  1  0
 15 29  1  0
M  END
>  <UniqueID>  (26) 
26

>  <SMILES>  (26) 
CCN1C(=O)CCn2c1nc1ccccc12

>  <Energy>  (26) 
66.46350278984892

>  <Genealogy>  (26) 
CCN1C(=O)CCn2c1nc1ccccc12 (3D coordinates assigned)
CCN1C(=O)CCn2c1nc1ccccc12 (nonaromatic ring conformer: 66.46350278984892 kcal/mol)

>  <smiles>  (26) 
CCN1C(=O)CCn2c1nc1ccccc12

>  <score_type>  (26) 
oracle

>  <origin>  (26) 
adg

>  <m_score__min__energy>  (26) 
-7.1100000000000003

>  <m_primary>  (26) 
energy

$$$$
26:0
     RDKit          3D

 21 21  0  0  0  0  0  0  0  0999 V2000
   -9.2877   21.5566  -32.1643 H   0  0  0  0  0  0  0  0  0  0  0  0
   -8.2800   21.9480  -31.9610 C   0  0  0  0  0  0  0  0  0  0  0  0
   -7.0770   21.3390  -32.2500 C   0  0  0  0  0  0  0  0  0  0  0  0
   -6.8660   19.6400  -33.0880 Br  0  0  0  0  0  0  0  0  0  0  0  0
   -6.0810   22.1010  -31.8640 O   0  0  0  0  0  0  0  0  0  0  0  0
   -6.5760   23.1940  -31.3290 C   0  0  0  0  0  0  0  0  0  0  0  0
   -5.7600   24.2910  -30.7780 C   0  0  0  0  0  0  0  0  0  0  0  0
   -4.5470   24.4600  -31.2100 N   0  0  0  0  0  0  0  0  0  0  0  0
   -3.5510   24.9770  -30.4120 O   0  0  0  0  0  0  0  0  0  0  0  0
   -2.7630   24.1200  -29.6040 C   0  0  0  0  0  0  0  0  0  0  0  0
   -3.3456   23.8049  -28.7258 H   0  0  0  0  0  0  0  0  0  0  0  0
   -2.4699   23.2331  -30.1849 H   0  0  0  0  0  0  0  0  0  0  0  0
   -1.5420   24.8490  -29.1560 C   0  0  0  0  0  0  0  0  0  0  0  0
   -1.5820   26.0930  -28.9670 O   0  0  0  0  0  0  0  0  0  0  0  0
   -0.3420   24.1670  -28.9980 O   0  0  0  0  0  0  0  0  0  0  0  0
   -6.3500   25.2400  -29.7710 C   0  0  0  0  0  0  0  0  0  0  0  0
   -6.1272   24.8817  -28.7551 H   0  0  0  0  0  0  0  0  0  0  0  0
   -5.9143   26.2403  -29.9107 H   0  0  0  0  0  0  0  0  0  0  0  0
   -7.4399   25.2919  -29.9107 H   0  0  0  0  0  0  0  0  0  0  0  0
   -7.9590   23.1480  -31.3650 C   0  0  0  0  0  0  0  0  0  0  0  0
   -8.6579   23.9122  -30.9941 H   0  0  0  0  0  0  0  0  0  0  0  0
  1  2  1  0
  2  3  2  0
  3  4  1  0
  3  5  1  0
  5  6  1  0
  6  7  1  0
  7  8  2  0
  8  9  1  0
  9 10  1  0
 10 11  1  0
 10 12  1  0
 10 13  1  0
 13 14  2  0
 13 15  1  0
  7 16  1  0
 16 17  1  0
 16 18  1  0
 16 19  1  0
  6 20  2  0
 20 21  1  0
 20  2  1  0
M  CHG  1  15  -1
M  END
>  <UniqueID>  (27) 
27

>  <SMILES>  (27) 
C/C(=N\OCC(=O)[O-])c1ccc(Br)o1

>  <Energy>  (27) 
38.76104466217057

>  <Genealogy>  (27) 
CC(=NOCC(=O)[O-])c1ccc(Br)o1 (protonated)
C/C(=N\OCC(=O)[O-])c1ccc(Br)o1 (cis-trans isomerization)
C/C(=N\OCC(=O)[O-])c1ccc(Br)o1 (3D coordinates assigned)
C/C(=N\OCC(=O)[O-])c1ccc(Br)o1 (optimized conformer: 38.76104466217057 kcal/mol)

>  <smiles>  (27) 
CC(=NOCC(=O)O)c1ccc(Br)o1

>  <score_type>  (27) 
oracle

>  <origin>  (27) 
adg

>  <m_score__min__energy>  (27) 
-8.5899999999999999

>  <m_primary>  (27) 
energy

$$$$
27:0
     RDKit          3D

 49 51  0  0  0  0  0  0  0  0999 V2000
   -1.1360   18.8880  -32.0070 C   0  0  0  0  0  0  0  0  0  0  0  0
   -1.4840   19.3290  -33.4260 C   0  0  0  0  0  0  0  0  0  0  0  0
   -1.6110   20.8010  -33.5030 N   0  0  0  0  0  0  0  0  0  0  0  0
   -0.5430   21.5350  -34.2290 C   0  0  0  0  0  0  0  0  0  0  0  0
   -0.0920   20.8940  -35.5510 C   0  0  0  0  0  0  0  0  0  0  0  0
   -2.0660   21.4390  -32.2480 C   0  0  0  0  0  0  0  0  0  0  0  0
   -3.5210   21.9430  -32.3080 C   0  0  0  0  0  0  0  0  0  0  0  0
   -4.2320   21.4530  -33.5040 N   0  0  0  0  0  0  0  0  0  0  0  0
   -5.4540   20.7330  -33.1570 C   0  0  0  0  0  0  0  0  0  0  0  0
   -5.5630   19.3400  -33.4300 C   0  0  0  0  0  0  0  0  0  0  0  0
   -4.5100   18.6140  -34.0460 C   0  0  0  0  0  0  0  0  0  0  0  0
   -4.6560   17.2690  -34.3750 C   0  0  0  0  0  0  0  0  0  0  0  0
   -5.8480   16.6130  -34.1080 C   0  0  0  0  0  0  0  0  0  0  0  0
   -6.8880   17.2860  -33.4750 C   0  0  0  0  0  0  0  0  0  0  0  0
   -6.7550   18.6430  -33.0810 C   0  0  0  0  0  0  0  0  0  0  0  0
   -7.7570   19.2850  -32.3850 N   0  0  0  0  0  0  0  0  0  0  0  0
   -8.8340   18.4940  -31.7450 C   0  0  0  0  0  0  0  0  0  0  0  0
   -7.7390   20.6570  -32.2510 C   0  0  0  0  0  0  0  0  0  0  0  0
   -8.8800   21.3660  -31.7950 C   0  0  0  0  0  0  0  0  0  0  0  0
   -8.8360   22.7040  -31.5920 N   0  0  0  0  0  0  0  0  0  0  0  0
   -7.7150   23.4190  -31.8210 C   0  0  0  0  0  0  0  0  0  0  0  0
   -6.5760   22.7950  -32.3170 C   0  0  0  0  0  0  0  0  0  0  0  0
   -6.5720   21.4030  -32.5800 C   0  0  0  0  0  0  0  0  0  0  0  0
   -1.6497   19.5390  -31.2843 H   0  0  0  0  0  0  0  0  0  0  0  0
   -1.4588   17.8472  -31.8569 H   0  0  0  0  0  0  0  0  0  0  0  0
   -0.0487   18.9599  -31.8569 H   0  0  0  0  0  0  0  0  0  0  0  0
   -0.6891   18.9994  -34.1111 H   0  0  0  0  0  0  0  0  0  0  0  0
   -2.4460   18.8770  -33.7095 H   0  0  0  0  0  0  0  0  0  0  0  0
   -0.9150   22.5462  -34.4505 H   0  0  0  0  0  0  0  0  0  0  0  0
    0.3370   21.5257  -33.5691 H   0  0  0  0  0  0  0  0  0  0  0  0
    0.5289   20.0115  -35.3375 H   0  0  0  0  0  0  0  0  0  0  0  0
   -0.9756   20.5890  -36.1308 H   0  0  0  0  0  0  0  0  0  0  0  0
    0.4935   21.6227  -36.1308 H   0  0  0  0  0  0  0  0  0  0  0  0
   -1.9855   20.7033  -31.4342 H   0  0  0  0  0  0  0  0  0  0  0  0
   -1.4256   22.3175  -32.0806 H   0  0  0  0  0  0  0  0  0  0  0  0
   -4.0540   21.5939  -31.4113 H   0  0  0  0  0  0  0  0  0  0  0  0
   -3.4959   23.0416  -32.3568 H   0  0  0  0  0  0  0  0  0  0  0  0
   -4.3830   22.2320  -34.1770 H   0  0  0  0  0  0  0  0  0  0  0  0
   -3.5990   20.8280  -34.0510 H   0  0  0  0  0  0  0  0  0  0  0  0
   -3.5607   19.1237  -34.2676 H   0  0  0  0  0  0  0  0  0  0  0  0
   -3.8243   16.7259  -34.8475 H   0  0  0  0  0  0  0  0  0  0  0  0
   -5.9715   15.5589  -34.3971 H   0  0  0  0  0  0  0  0  0  0  0  0
   -7.8314   16.7564  -33.2760 H   0  0  0  0  0  0  0  0  0  0  0  0
   -8.7395   18.5634  -30.6513 H   0  0  0  0  0  0  0  0  0  0  0  0
   -9.8127   18.8895  -32.0543 H   0  0  0  0  0  0  0  0  0  0  0  0
   -8.7494   17.4418  -32.0543 H   0  0  0  0  0  0  0  0  0  0  0  0
   -9.8155   20.8200  -31.6033 H   0  0  0  0  0  0  0  0  0  0  0  0
   -7.7022   24.4994  -31.6145 H   0  0  0  0  0  0  0  0  0  0  0  0
   -5.6691   23.3879  -32.5071 H   0  0  0  0  0  0  0  0  0  0  0  0
  1  2  1  0
  2  3  1  0
  3  4  1  0
  4  5  1  0
  3  6  1  0
  6  7  1  0
  7  8  1  0
  8  9  1  0
  9 10  2  0
 10 11  1  0
 11 12  2  0
 12 13  1  0
 13 14  2  0
 14 15  1  0
 15 16  2  0
 16 17  1  0
 16 18  1  0
 18 19  2  0
 19 20  1  0
 20 21  2  0
 21 22  1  0
 22 23  2  0
 23  9  1  0
 15 10  1  0
 23 18  1  0
  1 24  1  0
  1 25  1  0
  1 26  1  0
  2 27  1  0
  2 28  1  0
  4 29  1  0
  4 30  1  0
  5 31  1  0
  5 32  1  0
  5 33  1  0
  6 34  1  0
  6 35  1  0
  7 36  1  0
  7 37  1  0
  8 38  1  0
  8 39  1  0
 11 40  1  0
 12 41  1  0
 13 42  1  0
 14 43  1  0
 17 44  1  0
 17 45  1  0
 17 46  1  0
 19 47  1  0
 21 48  1  0
 22 49  1  0
M  CHG  2   8   1  16   1
M  END
>  <UniqueID>  (28) 
28

>  <SMILES>  (28) 
CCN(CC)CC[NH2+]c1c2ccccc2[n+](C)c2cnccc12

>  <Energy>  (28) 
86.02818363301509

>  <Genealogy>  (28) 
CCN(CC)CC[NH2+]c1c2ccccc2[n+](C)c2cnccc12 (protonated)
CCN(CC)CC[NH2+]c1c2ccccc2[n+](C)c2cnccc12 (3D coordinates assigned)
CCN(CC)CC[NH2+]c1c2ccccc2[n+](C)c2cnccc12 (optimized conformer: 86.02818363301509 kcal/mol)

>  <smiles>  (28) 
CCN(CC)CCNc1c2ccccc2[n+](C)c2cnccc12

>  <score_type>  (28) 
oracle

>  <origin>  (28) 
adg

>  <m_score__min__energy>  (28) 
-7.7000000000000002

>  <m_primary>  (28) 
energy

$$$$
28:0
     RDKit          3D

 76 80  0  0  0  0  0  0  0  0999 V2000
   -0.8963   24.5735  -24.6335 H   0  0  0  0  0  0  0  0  0  0  0  0
   -0.4760   24.4110  -25.6370 C   0  0  0  0  0  0  0  0  0  0  0  0
   -1.3290   24.1690  -26.7160 C   0  0  0  0  0  0  0  0  0  0  0  0
   -2.4162   24.1188  -26.5565 H   0  0  0  0  0  0  0  0  0  0  0  0
   -0.8010   23.9900  -28.0020 C   0  0  0  0  0  0  0  0  0  0  0  0
   -1.7010   23.7420  -29.1410 C   0  0  0  0  0  0  0  0  0  0  0  0
   -2.5990   24.7030  -29.4760 N   0  0  0  0  0  0  0  0  0  0  0  0
   -3.4940   24.5200  -30.4860 C   0  0  0  0  0  0  0  0  0  0  0  0
   -4.3720   25.4320  -30.7760 N   0  0  0  0  0  0  0  0  0  0  0  0
   -5.8260   25.2600  -30.6820 C   0  0  0  0  0  0  0  0  0  0  0  0
   -6.2771   26.2612  -30.7460 H   0  0  0  0  0  0  0  0  0  0  0  0
   -6.1700   24.5350  -29.3900 C   0  0  0  0  0  0  0  0  0  0  0  0
   -5.4535   24.8010  -28.5989 H   0  0  0  0  0  0  0  0  0  0  0  0
   -7.1710   24.8093  -29.0257 H   0  0  0  0  0  0  0  0  0  0  0  0
   -6.0780   23.0510  -29.7110 C   0  0  0  0  0  0  0  0  0  0  0  0
   -5.0983   22.6564  -29.4036 H   0  0  0  0  0  0  0  0  0  0  0  0
   -6.8505   22.4809  -29.1742 H   0  0  0  0  0  0  0  0  0  0  0  0
   -6.2480   22.9190  -31.2230 C   0  0  0  0  0  0  0  0  0  0  0  0
   -5.3867   22.3888  -31.6555 H   0  0  0  0  0  0  0  0  0  0  0  0
   -7.1541   22.3456  -31.4685 H   0  0  0  0  0  0  0  0  0  0  0  0
   -6.3290   24.3350  -31.7860 C   0  0  0  0  0  0  0  0  0  0  0  0
   -5.6943   24.4272  -32.6797 H   0  0  0  0  0  0  0  0  0  0  0  0
   -7.3563   24.5895  -32.0859 H   0  0  0  0  0  0  0  0  0  0  0  0
   -3.4870   23.3590  -31.1850 N   0  0  0  0  0  0  0  0  0  0  0  0
   -2.6050   22.3630  -30.9040 C   0  0  0  0  0  0  0  0  0  0  0  0
   -1.6720   22.5320  -29.8630 C   0  0  0  0  0  0  0  0  0  0  0  0
   -0.7570   21.3840  -29.4890 C   0  0  0  0  0  0  0  0  0  0  0  0
    0.1491   21.7904  -29.0159 H   0  0  0  0  0  0  0  0  0  0  0  0
   -1.3015   20.7238  -28.7979 H   0  0  0  0  0  0  0  0  0  0  0  0
   -0.3490   20.5580  -30.7160 C   0  0  0  0  0  0  0  0  0  0  0  0
    0.3615   21.1426  -31.3188 H   0  0  0  0  0  0  0  0  0  0  0  0
    0.1096   19.6228  -30.3623 H   0  0  0  0  0  0  0  0  0  0  0  0
   -1.5400   20.2030  -31.5720 C   0  0  0  0  0  0  0  0  0  0  0  0
   -1.5370   19.0210  -32.3290 C   0  0  0  0  0  0  0  0  0  0  0  0
   -0.6958   18.3177  -32.2414 H   0  0  0  0  0  0  0  0  0  0  0  0
   -2.5950   18.7330  -33.1920 C   0  0  0  0  0  0  0  0  0  0  0  0
   -2.5967   17.7910  -33.7599 H   0  0  0  0  0  0  0  0  0  0  0  0
   -3.6540   19.6360  -33.3390 C   0  0  0  0  0  0  0  0  0  0  0  0
   -4.7320   19.3010  -34.2240 N   0  0  0  0  0  0  0  0  0  0  0  0
   -6.0900   19.0380  -33.8460 C   0  0  0  0  0  0  0  0  0  0  0  0
   -6.5800   17.9040  -34.0890 O   0  0  0  0  0  0  0  0  0  0  0  0
   -6.9520   20.0820  -33.1870 C   0  0  0  0  0  0  0  0  0  0  0  0
   -6.4143   20.5028  -32.3245 H   0  0  0  0  0  0  0  0  0  0  0  0
   -7.1743   20.8719  -33.9195 H   0  0  0  0  0  0  0  0  0  0  0  0
   -8.2250   19.4900  -32.7240 N   0  0  0  0  0  0  0  0  0  0  0  0
   -9.1530   20.5370  -32.2610 C   0  0  0  0  0  0  0  0  0  0  0  0
   -9.1678   20.5537  -31.1612 H   0  0  0  0  0  0  0  0  0  0  0  0
   -8.8198   21.5152  -32.6381 H   0  0  0  0  0  0  0  0  0  0  0  0
  -10.1641   20.3237  -32.6381 H   0  0  0  0  0  0  0  0  0  0  0  0
   -7.9720   18.5390  -31.6300 C   0  0  0  0  0  0  0  0  0  0  0  0
   -8.1072   19.0472  -30.6638 H   0  0  0  0  0  0  0  0  0  0  0  0
   -8.6778   17.6986  -31.7042 H   0  0  0  0  0  0  0  0  0  0  0  0
   -6.9419   18.1604  -31.7042 H   0  0  0  0  0  0  0  0  0  0  0  0
   -3.6700   20.8150  -32.5750 C   0  0  0  0  0  0  0  0  0  0  0  0
   -4.5179   21.5103  -32.6623 H   0  0  0  0  0  0  0  0  0  0  0  0
   -2.6110   21.1130  -31.7000 C   0  0  0  0  0  0  0  0  0  0  0  0
    0.5840   24.0590  -28.2020 C   0  0  0  0  0  0  0  0  0  0  0  0
    0.9997   23.9379  -29.2132 H   0  0  0  0  0  0  0  0  0  0  0  0
    1.4400   24.2820  -27.1160 C   0  0  0  0  0  0  0  0  0  0  0  0
    2.5276   24.3272  -27.2744 H   0  0  0  0  0  0  0  0  0  0  0  0
    0.9120   24.4480  -25.8250 C   0  0  0  0  0  0  0  0  0  0  0  0
    1.7570   24.7110  -24.6960 N   0  0  0  0  0  0  0  0  0  0  0  0
    2.3660   25.9680  -24.3880 C   0  0  0  0  0  0  0  0  0  0  0  0
    3.6030   26.1380  -24.5670 O   0  0  0  0  0  0  0  0  0  0  0  0
    1.5350   27.0470  -23.7430 C   0  0  0  0  0  0  0  0  0  0  0  0
    2.0444   28.0105  -23.8919 H   0  0  0  0  0  0  0  0  0  0  0  0
    1.4356   26.7779  -22.6811 H   0  0  0  0  0  0  0  0  0  0  0  0
    0.1610   27.1590  -24.2850 N   0  0  0  0  0  0  0  0  0  0  0  0
   -0.8690   26.7360  -23.3200 C   0  0  0  0  0  0  0  0  0  0  0  0
   -0.4970   26.8888  -22.2961 H   0  0  0  0  0  0  0  0  0  0  0  0
   -1.7807   27.3325  -23.4717 H   0  0  0  0  0  0  0  0  0  0  0  0
   -1.0983   25.6709  -23.4717 H   0  0  0  0  0  0  0  0  0  0  0  0
   -0.1380   28.4940  -24.8340 C   0  0  0  0  0  0  0  0  0  0  0  0
   -0.2968   29.2030  -24.0081 H   0  0  0  0  0  0  0  0  0  0  0  0
    0.7063   28.8339  -25.4518 H   0  0  0  0  0  0  0  0  0  0  0  0
   -1.0466   28.4413  -25.4518 H   0  0  0  0  0  0  0  0  0  0  0  0
  1  2  1  0
  2  3  2  0
  3  4  1  0
  3  5  1  0
  5  6  1  0
  6  7  2  0
  7  8  1  0
  8  9  2  0
  9 10  1  0
 10 11  1  0
 10 12  1  0
 12 13  1  0
 12 14  1  0
 12 15  1  0
 15 16  1  0
 15 17  1  0
 15 18  1  0
 18 19  1  0
 18 20  1  0
 18 21  1  0
 21 22  1  0
 21 23  1  0
  8 24  1  0
 24 25  1  0
 25 26  2  0
 26 27  1  0
 27 28  1  0
 27 29  1  0
 27 30  1  0
 30 31  1  0
 30 32  1  0
 30 33  1  0
 33 34  2  0
 34 35  1  0
 34 36  1  0
 36 37  1  0
 36 38  2  0
 38 39  1  0
 39 40  1  0
 40 41  2  0
 40 42  1  0
 42 43  1  0
 42 44  1  0
 42 45  1  0
 45 46  1  0
 46 47  1  0
 46 48  1  0
 46 49  1  0
 45 50  1  0
 50 51  1  0
 50 52  1  0
 50 53  1  0
 38 54  1  0
 54 55  1  0
 54 56  2  0
  5 57  2  0
 57 58  1  0
 57 59  1  0
 59 60  1  0
 59 61  2  0
 61 62  1  0
 62 63  1  0
 63 64  2  0
 63 65  1  0
 65 66  1  0
 65 67  1  0
 65 68  1  0
 68 69  1  0
 69 70  1  0
 69 71  1  0
 69 72  1  0
 68 73  1  0
 73 74  1  0
 73 75  1  0
 73 76  1  0
 61  2  1  0
 26  6  1  0
 56 33  1  0
 21 10  1  0
 56 25  1  0
M  CHG  3  24  -1  39  -1  62  -1
M  END
>  <UniqueID>  (29) 
29

>  <SMILES>  (29) 
CN(C)CC(=O)[N-]c1ccc(-c2n/c(=N\C3CCCC3)[n-]c3c2CCc2ccc([N-]C(=O)CN(C)C)cc2-3)cc1

>  <Energy>  (29) 
101.92823594874137

>  <Genealogy>  (29) 
CN(C)CC(=O)[N-]c1ccc(-c2nc(=NC3CCCC3)[n-]c3c2CCc2ccc([N-]C(=O)CN(C)C)cc2-3)cc1 (protonated)
CN(C)CC(=O)[N-]c1ccc(-c2n/c(=N\C3CCCC3)[n-]c3c2CCc2ccc([N-]C(=O)CN(C)C)cc2-3)cc1 (cis-trans isomerization)
CN(C)CC(=O)[N-]c1ccc(-c2n/c(=N\C3CCCC3)[n-]c3c2CCc2ccc([N-]C(=O)CN(C)C)cc2-3)cc1 (3D coordinates assigned)
CN(C)CC(=O)[N-]c1ccc(-c2n/c(=N\C3CCCC3)[n-]c3c2CCc2ccc([N-]C(=O)CN(C)C)cc2-3)cc1 (nonaromatic ring conformer: 101.92823594874137 kcal/mol)

>  <smiles>  (29) 
CN(C)CC(=O)Nc1ccc(-c2nc(=NC3CCCC3)[nH]c3c2CCc2ccc(NC(=O)CN(C)C)cc2-3)cc1

>  <score_type>  (29) 
oracle

>  <origin>  (29) 
adg

>  <m_score__min__energy>  (29) 
-11.289999999999999

>  <m_primary>  (29) 
energy

$$$$
29:0
     RDKit          3D

 37 38  0  0  0  0  0  0  0  0999 V2000
   -1.8190   24.9440  -28.2060 C   0  0  0  0  0  0  0  0  0  0  0  0
   -2.6040   25.2900  -29.3440 O   0  0  0  0  0  0  0  0  0  0  0  0
   -3.7850   24.6350  -29.7200 C   0  0  0  0  0  0  0  0  0  0  0  0
   -4.0420   23.2910  -29.3870 C   0  0  0  0  0  0  0  0  0  0  0  0
   -5.2350   22.6800  -29.7870 C   0  0  0  0  0  0  0  0  0  0  0  0
   -6.1860   23.4000  -30.5280 C   0  0  0  0  0  0  0  0  0  0  0  0
   -7.4630   22.7370  -30.9800 C   0  0  0  0  0  0  0  0  0  0  0  0
   -7.4440   22.4030  -32.4130 N   0  0  0  0  0  0  0  0  0  0  0  0
   -7.6760   20.9720  -32.6980 C   0  0  0  0  0  0  0  0  0  0  0  0
   -8.9040   20.4110  -31.9290 C   0  0  0  0  0  0  0  0  0  0  0  0
   -8.7710   18.9070  -31.6150 C   0  0  0  0  0  0  0  0  0  0  0  0
   -7.9690   18.2200  -32.6370 N   0  0  0  0  0  0  0  0  0  0  0  0
   -6.5650   18.6810  -32.6430 C   0  0  0  0  0  0  0  0  0  0  0  0
   -6.4120   20.1850  -32.3300 C   0  0  0  0  0  0  0  0  0  0  0  0
   -5.9320   24.7410  -30.8520 C   0  0  0  0  0  0  0  0  0  0  0  0
   -4.7390   25.3500  -30.4520 C   0  0  0  0  0  0  0  0  0  0  0  0
   -2.3748   25.1890  -27.2889 H   0  0  0  0  0  0  0  0  0  0  0  0
   -1.6004   23.8661  -28.2253 H   0  0  0  0  0  0  0  0  0  0  0  0
   -0.8759   25.5098  -28.2253 H   0  0  0  0  0  0  0  0  0  0  0  0
   -3.3009   22.7189  -28.8095 H   0  0  0  0  0  0  0  0  0  0  0  0
   -5.4291   21.6307  -29.5199 H   0  0  0  0  0  0  0  0  0  0  0  0
   -7.6038   21.8110  -30.4031 H   0  0  0  0  0  0  0  0  0  0  0  0
   -8.2872   23.4457  -30.8114 H   0  0  0  0  0  0  0  0  0  0  0  0
   -6.5690   22.7580  -32.8660 H   0  0  0  0  0  0  0  0  0  0  0  0
   -7.8965   20.8629  -33.7701 H   0  0  0  0  0  0  0  0  0  0  0  0
   -9.0077   20.9607  -30.9819 H   0  0  0  0  0  0  0  0  0  0  0  0
   -9.7871   20.5401  -32.5721 H   0  0  0  0  0  0  0  0  0  0  0  0
   -8.2842   18.7865  -30.6360 H   0  0  0  0  0  0  0  0  0  0  0  0
   -9.7773   18.4628  -31.6050 H   0  0  0  0  0  0  0  0  0  0  0  0
   -7.9870   17.1910  -32.4440 H   0  0  0  0  0  0  0  0  0  0  0  0
   -8.3980   18.3760  -33.5800 H   0  0  0  0  0  0  0  0  0  0  0  0
   -6.0070   18.1090  -31.8870 H   0  0  0  0  0  0  0  0  0  0  0  0
   -6.1746   18.5194  -33.6586 H   0  0  0  0  0  0  0  0  0  0  0  0
   -6.2163   20.3073  -31.2545 H   0  0  0  0  0  0  0  0  0  0  0  0
   -5.5771   20.5770  -32.9294 H   0  0  0  0  0  0  0  0  0  0  0  0
   -6.6752   25.3162  -31.4236 H   0  0  0  0  0  0  0  0  0  0  0  0
   -4.5486   26.4009  -30.7152 H   0  0  0  0  0  0  0  0  0  0  0  0
  1  2  1  0
  2  3  1  0
  3  4  2  0
  4  5  1  0
  5  6  2  0
  6  7  1  0
  7  8  1  0
  8  9  1  0
  9 10  1  0
 10 11  1  0
 11 12  1  0
 12 13  1  0
 13 14  1  0
  6 15  1  0
 15 16  2  0
 16  3  1  0
 14  9  1  0
  1 17  1  0
  1 18  1  0
  1 19  1  0
  4 20  1  0
  5 21  1  0
  7 22  1  0
  7 23  1  0
  8 24  1  0
  9 25  1  0
 10 26  1  0
 10 27  1  0
 11 28  1  0
 11 29  1  0
 12 30  1  0
 12 31  1  0
 13 32  1  0
 13 33  1  0
 14 34  1  0
 14 35  1  0
 15 36  1  0
 16 37  1  0
M  CHG  1  12   1
M  END
>  <UniqueID>  (30) 
30

>  <SMILES>  (30) 
COc1ccc(CNC2CC[NH2+]CC2)cc1

>  <Energy>  (30) 
40.9188542474638

>  <Genealogy>  (30) 
COc1ccc(CNC2CC[NH2+]CC2)cc1 (protonated)
COc1ccc(CNC2CC[NH2+]CC2)cc1 (3D coordinates assigned)
COc1ccc(CNC2CC[NH2+]CC2)cc1 (nonaromatic ring conformer: 40.9188542474638 kcal/mol)

>  <smiles>  (30) 
COc1ccc(CNC2CCNCC2)cc1

>  <score_type>  (30) 
oracle

>  <origin>  (30) 
adg

>  <m_score__min__energy>  (30) 
-6.3200000000000003

>  <m_primary>  (30) 
energy

$$$$
30:0
     RDKit          3D

 43 45  0  0  0  0  0  0  0  0999 V2000
   -2.4940   18.2330  -34.1320 C   0  0  0  0  0  0  0  0  0  0  0  0
   -2.5050   16.8220  -33.5300 C   0  0  0  0  0  0  0  0  0  0  0  0
   -3.2980   15.8650  -34.3450 N   0  0  1  0  0  0  0  0  0  0  0  0
   -2.4530   15.3260  -35.4290 C   0  0  0  0  0  0  0  0  0  0  0  0
   -3.8300   14.7630  -33.5020 C   0  0  0  0  0  0  0  0  0  0  0  0
   -5.3690   14.7190  -33.4920 C   0  0  0  0  0  0  0  0  0  0  0  0
   -5.9090   15.8540  -34.1680 O   0  0  0  0  0  0  0  0  0  0  0  0
   -5.9900   17.1550  -33.6410 C   0  0  0  0  0  0  0  0  0  0  0  0
   -5.8390   18.2330  -34.5190 C   0  0  0  0  0  0  0  0  0  0  0  0
   -5.9100   19.5480  -34.0520 C   0  0  0  0  0  0  0  0  0  0  0  0
   -6.1350   19.8100  -32.6890 C   0  0  0  0  0  0  0  0  0  0  0  0
   -6.2140   21.2070  -32.1910 C   0  0  0  0  0  0  0  0  0  0  0  0
   -7.4660   21.8800  -32.1310 C   0  0  0  0  0  0  0  0  0  0  0  0
   -7.5480   23.2030  -31.6590 C   0  0  0  0  0  0  0  0  0  0  0  0
   -8.7380   23.8510  -31.6030 F   0  0  0  0  0  0  0  0  0  0  0  0
   -6.3700   23.8240  -31.2560 C   0  0  0  0  0  0  0  0  0  0  0  0
   -6.2180   25.0670  -30.7760 N   0  0  0  0  0  0  0  0  0  0  0  0
   -4.8800   25.1340  -30.5500 C   0  0  0  0  0  0  0  0  0  0  0  0
   -4.1990   24.0020  -30.8640 N   0  0  0  0  0  0  0  0  0  0  0  0
   -5.1690   23.1910  -31.3090 C   0  0  0  0  0  0  0  0  0  0  0  0
   -5.0420   21.8830  -31.7690 C   0  0  0  0  0  0  0  0  0  0  0  0
   -6.2840   18.7260  -31.8060 C   0  0  0  0  0  0  0  0  0  0  0  0
   -6.2110   17.4110  -32.2750 C   0  0  0  0  0  0  0  0  0  0  0  0
   -2.4882   18.9772  -33.3220 H   0  0  0  0  0  0  0  0  0  0  0  0
   -1.5948   18.3598  -34.7528 H   0  0  0  0  0  0  0  0  0  0  0  0
   -3.3911   18.3738  -34.7528 H   0  0  0  0  0  0  0  0  0  0  0  0
   -1.4692   16.4574  -33.4653 H   0  0  0  0  0  0  0  0  0  0  0  0
   -2.9728   16.8847  -32.5364 H   0  0  0  0  0  0  0  0  0  0  0  0
   -4.0920   16.3810  -34.7930 H   0  0  0  0  0  0  0  0  0  0  0  0
   -1.6011   14.7826  -34.9942 H   0  0  0  0  0  0  0  0  0  0  0  0
   -3.0471   14.6397  -36.0503 H   0  0  0  0  0  0  0  0  0  0  0  0
   -2.0811   16.1541  -36.0503 H   0  0  0  0  0  0  0  0  0  0  0  0
   -3.4522   13.8064  -33.8922 H   0  0  0  0  0  0  0  0  0  0  0  0
   -3.4938   14.9396  -32.4696 H   0  0  0  0  0  0  0  0  0  0  0  0
   -5.7076   13.8025  -33.9973 H   0  0  0  0  0  0  0  0  0  0  0  0
   -5.7170   14.7293  -32.4486 H   0  0  0  0  0  0  0  0  0  0  0  0
   -5.6625   18.0438  -35.5881 H   0  0  0  0  0  0  0  0  0  0  0  0
   -5.7890   20.3845  -34.7559 H   0  0  0  0  0  0  0  0  0  0  0  0
   -8.3793   21.3607  -32.4570 H   0  0  0  0  0  0  0  0  0  0  0  0
   -4.3888   26.0314  -30.1459 H   0  0  0  0  0  0  0  0  0  0  0  0
   -4.0601   21.3884  -31.8039 H   0  0  0  0  0  0  0  0  0  0  0  0
   -6.4596   18.9143  -30.7366 H   0  0  0  0  0  0  0  0  0  0  0  0
   -6.3269   16.5723  -31.5728 H   0  0  0  0  0  0  0  0  0  0  0  0
  1  2  1  0
  2  3  1  0
  3  4  1  0
  3  5  1  0
  5  6  1  0
  6  7  1  0
  7  8  1  0
  8  9  2  0
  9 10  1  0
 10 11  2  0
 11 12  1  0
 12 13  2  0
 13 14  1  0
 14 15  1  0
 14 16  2  0
 16 17  1  0
 17 18  1  0
 18 19  2  0
 19 20  1  0
 20 21  2  0
 11 22  1  0
 22 23  2  0
 23  8  1  0
 21 12  1  0
 20 16  1  0
  1 24  1  0
  1 25  1  0
  1 26  1  0
  2 27  1  0
  2 28  1  0
  3 29  1  6
  4 30  1  0
  4 31  1  0
  4 32  1  0
  5 33  1  0
  5 34  1  0
  6 35  1  0
  6 36  1  0
  9 37  1  0
 10 38  1  0
 13 39  1  0
 18 40  1  0
 21 41  1  0
 22 42  1  0
 23 43  1  0
M  CHG  2   3   1  17  -1
M  END
>  <UniqueID>  (31) 
31

>  <SMILES>  (31) 
CC[N@@H+](C)CCOc1ccc(-c2cc(F)c3[n-]cnc3c2)cc1

>  <Energy>  (31) 
85.64544297136408

>  <Genealogy>  (31) 
CC[NH+](C)CCOc1ccc(-c2cc(F)c3[n-]cnc3c2)cc1 (protonated)
CC[N@@H+](C)CCOc1ccc(-c2cc(F)c3[n-]cnc3c2)cc1 (chirality)
CC[N@@H+](C)CCOc1ccc(-c2cc(F)c3[n-]cnc3c2)cc1 (3D coordinates assigned)
CC[N@@H+](C)CCOc1ccc(-c2cc(F)c3[n-]cnc3c2)cc1 (optimized conformer: 85.64544297136408 kcal/mol)

>  <smiles>  (31) 
CCN(C)CCOc1ccc(-c2cc(F)c3[nH]cnc3c2)cc1

>  <score_type>  (31) 
oracle

>  <origin>  (31) 
adg

>  <m_score__min__energy>  (31) 
-7.6500000000000004

>  <m_primary>  (31) 
energy

$$$$
31:0
     RDKit          3D

 45 47  0  0  0  0  0  0  0  0999 V2000
   -3.6580   21.6120  -33.0540 C   0  0  0  0  0  0  0  0  0  0  0  0
   -4.8890   22.4250  -32.6620 C   0  0  0  0  0  0  0  0  0  0  0  0
   -4.6190   23.1940  -31.4270 N   0  0  0  0  0  0  0  0  0  0  0  0
   -5.7180   24.1290  -31.0780 C   0  0  0  0  0  0  0  0  0  0  0  0
   -5.2660   25.5660  -30.7380 C   0  0  0  0  0  0  0  0  0  0  0  0
   -3.8690   25.6740  -30.7250 O   0  0  0  0  0  0  0  0  0  0  0  0
   -4.1910   22.3240  -30.3100 C   0  0  0  0  0  0  0  0  0  0  0  0
   -3.4420   23.1110  -29.2660 C   0  0  0  0  0  0  0  0  0  0  0  0
   -4.1150   23.5900  -28.1360 C   0  0  0  0  0  0  0  0  0  0  0  0
   -3.4330   24.3160  -27.1570 C   0  0  0  0  0  0  0  0  0  0  0  0
   -2.0550   24.5920  -27.2960 C   0  0  0  0  0  0  0  0  0  0  0  0
   -1.3270   25.3460  -26.3370 C   0  0  0  0  0  0  0  0  0  0  0  0
    0.0790   25.4770  -26.5010 C   0  0  0  0  0  0  0  0  0  0  0  0
    0.6900   24.9570  -27.6560 C   0  0  0  0  0  0  0  0  0  0  0  0
    1.9260   25.1040  -27.8510 O   0  0  0  0  0  0  0  0  0  0  0  0
   -0.0450   24.2880  -28.5780 N   0  0  0  0  0  0  0  0  0  0  0  0
   -1.3770   24.0860  -28.4310 C   0  0  0  0  0  0  0  0  0  0  0  0
   -2.0710   23.3630  -29.4080 C   0  0  0  0  0  0  0  0  0  0  0  0
    0.9180   26.2380  -25.4990 C   0  0  0  0  0  0  0  0  0  0  0  0
    0.1920   26.4270  -24.1720 C   0  0  0  0  0  0  0  0  0  0  0  0
   -1.2300   26.9040  -24.4390 C   0  0  0  0  0  0  0  0  0  0  0  0
   -1.9990   25.8810  -25.1620 N   0  0  0  0  0  0  0  0  0  0  0  0
   -3.1401   21.2699  -32.1459 H   0  0  0  0  0  0  0  0  0  0  0  0
   -3.9684   20.7406  -33.6493 H   0  0  0  0  0  0  0  0  0  0  0  0
   -2.9785   22.2395  -33.6493 H   0  0  0  0  0  0  0  0  0  0  0  0
   -5.1398   23.1208  -33.4762 H   0  0  0  0  0  0  0  0  0  0  0  0
   -5.7305   21.7397  -32.4824 H   0  0  0  0  0  0  0  0  0  0  0  0
   -6.4070   24.1811  -31.9339 H   0  0  0  0  0  0  0  0  0  0  0  0
   -6.1855   23.7289  -30.1662 H   0  0  0  0  0  0  0  0  0  0  0  0
   -5.6711   26.2564  -31.4925 H   0  0  0  0  0  0  0  0  0  0  0  0
   -5.6416   25.8185  -29.7354 H   0  0  0  0  0  0  0  0  0  0  0  0
   -3.5190   24.9280  -31.2780 H   0  0  0  0  0  0  0  0  0  0  0  0
   -5.0796   21.8691  -29.8481 H   0  0  0  0  0  0  0  0  0  0  0  0
   -3.5220   21.5471  -30.7087 H   0  0  0  0  0  0  0  0  0  0  0  0
   -5.1907   23.3929  -28.0180 H   0  0  0  0  0  0  0  0  0  0  0  0
   -3.9741   24.6761  -26.2696 H   0  0  0  0  0  0  0  0  0  0  0  0
   -1.5362   22.9899  -30.2939 H   0  0  0  0  0  0  0  0  0  0  0  0
    1.8485   25.6798  -25.3183 H   0  0  0  0  0  0  0  0  0  0  0  0
    1.1260   27.2340  -25.9171 H   0  0  0  0  0  0  0  0  0  0  0  0
    0.1629   25.4704  -23.6297 H   0  0  0  0  0  0  0  0  0  0  0  0
    0.7233   27.1746  -23.5647 H   0  0  0  0  0  0  0  0  0  0  0  0
   -1.7250   27.1157  -23.4798 H   0  0  0  0  0  0  0  0  0  0  0  0
   -1.1858   27.8128  -25.0571 H   0  0  0  0  0  0  0  0  0  0  0  0
   -2.8920   26.3410  -25.4500 H   0  0  0  0  0  0  0  0  0  0  0  0
   -2.2150   25.0920  -24.5110 H   0  0  0  0  0  0  0  0  0  0  0  0
  1  2  1  0
  2  3  1  0
  3  4  1  0
  4  5  1  0
  5  6  1  0
  3  7  1  0
  7  8  1  0
  8  9  2  0
  9 10  1  0
 10 11  2  0
 11 12  1  0
 12 13  2  0
 13 14  1  0
 14 15  2  0
 14 16  1  0
 16 17  1  0
 17 18  2  0
 13 19  1  0
 19 20  1  0
 20 21  1  0
 21 22  1  0
 18  8  1  0
 17 11  1  0
 22 12  1  0
  1 23  1  0
  1 24  1  0
  1 25  1  0
  2 26  1  0
  2 27  1  0
  4 28  1  0
  4 29  1  0
  5 30  1  0
  5 31  1  0
  6 32  1  0
  7 33  1  0
  7 34  1  0
  9 35  1  0
 10 36  1  0
 18 37  1  0
 19 38  1  0
 19 39  1  0
 20 40  1  0
 20 41  1  0
 21 42  1  0
 21 43  1  0
 22 44  1  0
 22 45  1  0
M  CHG  2  16  -1  22   1
M  END
>  <UniqueID>  (32) 
32

>  <SMILES>  (32) 
CCN(CCO)Cc1ccc2c3c(c(=O)[n-]c2c1)CCC[NH2+]3

>  <Energy>  (32) 
57.73938019919477

>  <Genealogy>  (32) 
CCN(CCO)Cc1ccc2c3c(c(=O)[n-]c2c1)CCC[NH2+]3 (protonated)
CCN(CCO)Cc1ccc2c3c(c(=O)[n-]c2c1)CCC[NH2+]3 (3D coordinates assigned)
CCN(CCO)Cc1ccc2c3c(c(=O)[n-]c2c1)CCC[NH2+]3 (nonaromatic ring conformer: 57.73938019919477 kcal/mol)

>  <smiles>  (32) 
CCN(CCO)Cc1ccc2c3c(c(=O)[nH]c2c1)CCCN3

>  <score_type>  (32) 
oracle

>  <origin>  (32) 
adg

>  <m_score__min__energy>  (32) 
-8.1799999999999997

>  <m_primary>  (32) 
energy

$$$$
32:0
     RDKit          3D

 44 46  0  0  0  0  0  0  0  0999 V2000
   -2.4650   22.6960  -28.7350 C   0  0  0  0  0  0  0  0  0  0  0  0
   -2.6860   23.9330  -29.1920 C   0  0  0  0  0  0  0  0  0  0  0  0
   -4.0800   24.4960  -29.3190 C   0  0  0  0  0  0  0  0  0  0  0  0
   -4.2670   25.2040  -30.5930 N   0  0  0  0  0  0  0  0  0  0  0  0
   -5.5630   24.8840  -31.2080 C   0  0  0  0  0  0  0  0  0  0  0  0
   -5.5930   23.4270  -31.5950 C   0  0  0  0  0  0  0  0  0  0  0  0
   -4.3980   22.7590  -31.8830 C   0  0  0  0  0  0  0  0  0  0  0  0
   -4.3920   21.4460  -32.2600 N   0  0  0  0  0  0  0  0  0  0  0  0
   -3.1100   20.8360  -32.4960 C   0  0  0  0  0  0  0  0  0  0  0  0
   -2.2900   20.4780  -31.4180 C   0  0  0  0  0  0  0  0  0  0  0  0
   -1.0500   19.8780  -31.6470 C   0  0  0  0  0  0  0  0  0  0  0  0
   -0.6140   19.6220  -32.9530 C   0  0  0  0  0  0  0  0  0  0  0  0
    0.6400   19.0180  -33.1310 O   0  0  0  0  0  0  0  0  0  0  0  0
    1.5830   18.8010  -32.0870 C   0  0  0  0  0  0  0  0  0  0  0  0
   -1.4420   19.9760  -34.0370 C   0  0  0  0  0  0  0  0  0  0  0  0
   -2.6830   20.5760  -33.8070 C   0  0  0  0  0  0  0  0  0  0  0  0
   -5.5700   20.7450  -32.3970 C   0  0  0  0  0  0  0  0  0  0  0  0
   -5.5860   19.3960  -32.8220 C   0  0  0  0  0  0  0  0  0  0  0  0
   -6.7930   18.7040  -32.9560 C   0  0  0  0  0  0  0  0  0  0  0  0
   -6.7880   17.0300  -33.4820 Cl  0  0  0  0  0  0  0  0  0  0  0  0
   -8.0010   19.3400  -32.6770 C   0  0  0  0  0  0  0  0  0  0  0  0
   -8.0120   20.6730  -32.2680 C   0  0  0  0  0  0  0  0  0  0  0  0
   -6.8080   21.3890  -32.1270 C   0  0  0  0  0  0  0  0  0  0  0  0
   -6.8080   22.7380  -31.7300 C   0  0  0  0  0  0  0  0  0  0  0  0
   -7.8970   23.3350  -31.4990 O   0  0  0  0  0  0  0  0  0  0  0  0
   -1.4362   22.3151  -28.6544 H   0  0  0  0  0  0  0  0  0  0  0  0
   -3.3120   22.0593  -28.4396 H   0  0  0  0  0  0  0  0  0  0  0  0
   -1.8283   24.5571  -29.4832 H   0  0  0  0  0  0  0  0  0  0  0  0
   -4.8045   23.6703  -29.2605 H   0  0  0  0  0  0  0  0  0  0  0  0
   -4.2347   25.2154  -28.5014 H   0  0  0  0  0  0  0  0  0  0  0  0
   -3.5010   24.9310  -31.2540 H   0  0  0  0  0  0  0  0  0  0  0  0
   -6.3699   25.0885  -30.4889 H   0  0  0  0  0  0  0  0  0  0  0  0
   -5.7043   25.5035  -32.1059 H   0  0  0  0  0  0  0  0  0  0  0  0
   -3.4444   23.3017  -31.8043 H   0  0  0  0  0  0  0  0  0  0  0  0
   -2.6240   20.6702  -30.3877 H   0  0  0  0  0  0  0  0  0  0  0  0
   -0.4106   19.6043  -30.7948 H   0  0  0  0  0  0  0  0  0  0  0  0
    1.0847   18.9157  -31.1131 H   0  0  0  0  0  0  0  0  0  0  0  0
    1.9951   17.7845  -32.1706 H   0  0  0  0  0  0  0  0  0  0  0  0
    2.3979   19.5351  -32.1706 H   0  0  0  0  0  0  0  0  0  0  0  0
   -1.1105   19.7795  -35.0673 H   0  0  0  0  0  0  0  0  0  0  0  0
   -3.3274   20.8454  -34.6568 H   0  0  0  0  0  0  0  0  0  0  0  0
   -4.6383   18.8860  -33.0495 H   0  0  0  0  0  0  0  0  0  0  0  0
   -8.9478   18.7894  -32.7796 H   0  0  0  0  0  0  0  0  0  0  0  0
   -8.9698   21.1696  -32.0536 H   0  0  0  0  0  0  0  0  0  0  0  0
  1  2  2  0
  2  3  1  0
  3  4  1  0
  4  5  1  0
  5  6  1  0
  6  7  2  0
  7  8  1  0
  8  9  1  0
  9 10  2  0
 10 11  1  0
 11 12  2  0
 12 13  1  0
 13 14  1  0
 12 15  1  0
 15 16  2  0
  8 17  1  0
 17 18  2  0
 18 19  1  0
 19 20  1  0
 19 21  2  0
 21 22  1  0
 22 23  2  0
 23 24  1  0
 24 25  2  0
 24  6  1  0
 16  9  1  0
 23 17  1  0
  1 26  1  0
  1 27  1  0
  2 28  1  0
  3 29  1  0
  3 30  1  0
  4 31  1  0
  5 32  1  0
  5 33  1  0
  7 34  1  0
 10 35  1  0
 11 36  1  0
 14 37  1  0
 14 38  1  0
 14 39  1  0
 15 40  1  0
 16 41  1  0
 18 42  1  0
 21 43  1  0
 22 44  1  0
M  END
>  <UniqueID>  (33) 
33

>  <SMILES>  (33) 
C=CCNCc1cn(-c2ccc(OC)cc2)c2cc(Cl)ccc2c1=O

>  <Energy>  (33) 
58.84038961288507

>  <Genealogy>  (33) 
C=CCNCc1cn(-c2ccc(OC)cc2)c2cc(Cl)ccc2c1=O (3D coordinates assigned)
C=CCNCc1cn(-c2ccc(OC)cc2)c2cc(Cl)ccc2c1=O (optimized conformer: 58.84038961288507 kcal/mol)

>  <smiles>  (33) 
C=CCNCc1cn(-c2ccc(OC)cc2)c2cc(Cl)ccc2c1=O

>  <score_type>  (33) 
oracle

>  <origin>  (33) 
adg

>  <m_score__min__energy>  (33) 
-8.4399999999999995

>  <m_primary>  (33) 
energy

$$$$
33:0
     RDKit          3D

 42 44  0  0  0  0  0  0  0  0999 V2000
   -1.7470   23.1990  -27.3000 C   0  0  0  0  0  0  0  0  0  0  0  0
   -3.1750   23.0480  -27.6290 N   0  0  0  0  0  0  0  0  0  0  0  0
   -3.7780   24.3240  -28.0840 C   0  0  0  0  0  0  0  0  0  0  0  0
   -3.1220   24.8970  -29.3100 C   0  0  0  0  0  0  0  0  0  0  0  0
   -1.9160   25.2590  -29.2600 O   0  0  0  0  0  0  0  0  0  0  0  0
   -3.8600   24.9850  -30.5350 N   0  0  0  0  0  0  0  0  0  0  0  0
   -4.8840   24.0800  -30.9710 C   0  0  0  0  0  0  0  0  0  0  0  0
   -6.2520   24.3610  -30.7870 C   0  0  0  0  0  0  0  0  0  0  0  0
   -7.2230   23.4460  -31.2080 C   0  0  0  0  0  0  0  0  0  0  0  0
   -6.8340   22.2430  -31.8020 C   0  0  0  0  0  0  0  0  0  0  0  0
   -5.4750   21.9360  -31.9400 C   0  0  0  0  0  0  0  0  0  0  0  0
   -4.5030   22.8540  -31.5340 C   0  0  0  0  0  0  0  0  0  0  0  0
   -5.1090   20.7020  -32.4890 O   0  0  0  0  0  0  0  0  0  0  0  0
   -6.0670   19.6530  -32.6510 C   0  0  0  0  0  0  0  0  0  0  0  0
   -7.4170   20.2310  -33.0970 C   0  0  0  0  0  0  0  0  0  0  0  0
   -7.7880   21.3270  -32.2580 O   0  0  0  0  0  0  0  0  0  0  0  0
   -3.3810   21.9270  -28.5720 C   0  0  0  0  0  0  0  0  0  0  0  0
   -2.4860   20.7530  -28.2360 C   0  0  0  0  0  0  0  0  0  0  0  0
   -2.7580   20.0100  -27.0720 C   0  0  0  0  0  0  0  0  0  0  0  0
   -1.9540   18.9250  -26.7170 C   0  0  0  0  0  0  0  0  0  0  0  0
   -0.8600   18.5770  -27.5080 C   0  0  0  0  0  0  0  0  0  0  0  0
   -0.5610   19.3190  -28.6520 C   0  0  0  0  0  0  0  0  0  0  0  0
   -1.3600   20.4090  -29.0210 C   0  0  0  0  0  0  0  0  0  0  0  0
   -0.8370   21.3920  -30.5860 Br  0  0  0  0  0  0  0  0  0  0  0  0
   -1.6219   23.2122  -26.2072 H   0  0  0  0  0  0  0  0  0  0  0  0
   -1.1820   22.3556  -27.7236 H   0  0  0  0  0  0  0  0  0  0  0  0
   -1.3709   24.1419  -27.7236 H   0  0  0  0  0  0  0  0  0  0  0  0
   -4.8399   24.1460  -28.3089 H   0  0  0  0  0  0  0  0  0  0  0  0
   -3.6386   25.0538  -27.2728 H   0  0  0  0  0  0  0  0  0  0  0  0
   -6.5581   25.3039  -30.3103 H   0  0  0  0  0  0  0  0  0  0  0  0
   -8.2906   23.6734  -31.0716 H   0  0  0  0  0  0  0  0  0  0  0  0
   -3.4365   22.6142  -31.6564 H   0  0  0  0  0  0  0  0  0  0  0  0
   -5.7057   18.9455  -33.4118 H   0  0  0  0  0  0  0  0  0  0  0  0
   -6.1986   19.1359  -31.6891 H   0  0  0  0  0  0  0  0  0  0  0  0
   -7.3364   20.5808  -34.1368 H   0  0  0  0  0  0  0  0  0  0  0  0
   -8.1847   19.4468  -33.0221 H   0  0  0  0  0  0  0  0  0  0  0  0
   -4.4310   21.6034  -28.5198 H   0  0  0  0  0  0  0  0  0  0  0  0
   -3.1306   22.2753  -29.5849 H   0  0  0  0  0  0  0  0  0  0  0  0
   -3.6119   20.2866  -26.4361 H   0  0  0  0  0  0  0  0  0  0  0  0
   -2.1842   18.3439  -25.8118 H   0  0  0  0  0  0  0  0  0  0  0  0
   -0.2322   17.7174  -27.2306 H   0  0  0  0  0  0  0  0  0  0  0  0
    0.3083   19.0459  -29.2682 H   0  0  0  0  0  0  0  0  0  0  0  0
  1  2  1  0
  2  3  1  0
  3  4  1  0
  4  5  2  0
  4  6  1  0
  6  7  1  0
  7  8  2  0
  8  9  1  0
  9 10  2  0
 10 11  1  0
 11 12  2  0
 11 13  1  0
 13 14  1  0
 14 15  1  0
 15 16  1  0
  2 17  1  0
 17 18  1  0
 18 19  2  0
 19 20  1  0
 20 21  2  0
 21 22  1  0
 22 23  2  0
 23 24  1  0
 12  7  1  0
 23 18  1  0
 16 10  1  0
  1 25  1  0
  1 26  1  0
  1 27  1  0
  3 28  1  0
  3 29  1  0
  8 30  1  0
  9 31  1  0
 12 32  1  0
 14 33  1  0
 14 34  1  0
 15 35  1  0
 15 36  1  0
 17 37  1  0
 17 38  1  0
 19 39  1  0
 20 40  1  0
 21 41  1  0
 22 42  1  0
M  CHG  1   6  -1
M  END
>  <UniqueID>  (34) 
34

>  <SMILES>  (34) 
CN(CC(=O)[N-]c1ccc2c(c1)OCCO2)Cc1ccccc1Br

>  <Energy>  (34) 
52.012229828073366

>  <Genealogy>  (34) 
CN(CC(=O)[N-]c1ccc2c(c1)OCCO2)Cc1ccccc1Br (protonated)
CN(CC(=O)[N-]c1ccc2c(c1)OCCO2)Cc1ccccc1Br (3D coordinates assigned)
CN(CC(=O)[N-]c1ccc2c(c1)OCCO2)Cc1ccccc1Br (nonaromatic ring conformer: 52.012229828073366 kcal/mol)

>  <smiles>  (34) 
CN(CC(=O)Nc1ccc2c(c1)OCCO2)Cc1ccccc1Br

>  <score_type>  (34) 
oracle

>  <origin>  (34) 
adg

>  <m_score__min__energy>  (34) 
-10.01

>  <m_primary>  (34) 
energy

$$$$
34:0
     RDKit          3D

 25 26  0  0  0  0  0  0  0  0999 V2000
   -2.5060   24.5580  -29.3460 C   0  0  0  0  0  0  0  0  0  0  0  0
   -3.4810   25.0280  -30.2710 O   0  0  0  0  0  0  0  0  0  0  0  0
   -4.7000   24.3850  -30.5320 C   0  0  0  0  0  0  0  0  0  0  0  0
   -5.9410   24.9430  -30.1680 C   0  0  0  0  0  0  0  0  0  0  0  0
   -7.1310   24.2670  -30.4490 C   0  0  0  0  0  0  0  0  0  0  0  0
   -7.0990   23.0230  -31.0960 C   0  0  0  0  0  0  0  0  0  0  0  0
   -8.2800   22.3280  -31.3870 C   0  0  0  0  0  0  0  0  0  0  0  0
   -8.2360   21.1100  -32.0070 N   0  0  0  0  0  0  0  0  0  0  0  0
   -9.4840   20.4190  -32.3350 C   0  0  0  0  0  0  0  0  0  0  0  0
   -7.0420   20.5640  -32.3860 C   0  0  0  0  0  0  0  0  0  0  0  0
   -5.8390   21.2210  -32.1160 C   0  0  0  0  0  0  0  0  0  0  0  0
   -5.8600   22.4580  -31.4640 C   0  0  0  0  0  0  0  0  0  0  0  0
   -4.6690   23.1430  -31.1800 C   0  0  0  0  0  0  0  0  0  0  0  0
   -2.8618   24.7295  -28.3194 H   0  0  0  0  0  0  0  0  0  0  0  0
   -2.3414   23.4816  -29.5020 H   0  0  0  0  0  0  0  0  0  0  0  0
   -1.5614   25.0997  -29.5020 H   0  0  0  0  0  0  0  0  0  0  0  0
   -5.9735   25.9176  -29.6590 H   0  0  0  0  0  0  0  0  0  0  0  0
   -8.0954   24.7115  -30.1621 H   0  0  0  0  0  0  0  0  0  0  0  0
   -9.2515   22.7660  -31.1143 H   0  0  0  0  0  0  0  0  0  0  0  0
   -9.9999   20.1333  -31.4064 H   0  0  0  0  0  0  0  0  0  0  0  0
  -10.1300   21.0879  -32.9225 H   0  0  0  0  0  0  0  0  0  0  0  0
   -9.2599   19.5164  -32.9225 H   0  0  0  0  0  0  0  0  0  0  0  0
   -7.0279   19.5966  -32.9094 H   0  0  0  0  0  0  0  0  0  0  0  0
   -4.8818   20.7684  -32.4142 H   0  0  0  0  0  0  0  0  0  0  0  0
   -3.7035   22.7017  -31.4682 H   0  0  0  0  0  0  0  0  0  0  0  0
  1  2  1  0
  2  3  1  0
  3  4  2  0
  4  5  1  0
  5  6  2  0
  6  7  1  0
  7  8  2  0
  8  9  1  0
  8 10  1  0
 10 11  2  0
 11 12  1  0
 12 13  2  0
 13  3  1  0
 12  6  1  0
  1 14  1  0
  1 15  1  0
  1 16  1  0
  4 17  1  0
  5 18  1  0
  7 19  1  0
  9 20  1  0
  9 21  1  0
  9 22  1  0
 10 23  1  0
 11 24  1  0
 13 25  1  0
M  CHG  1   8   1
M  END
>  <UniqueID>  (35) 
35

>  <SMILES>  (35) 
COc1ccc2c[n+](C)ccc2c1

>  <Energy>  (35) 
28.016053917412997

>  <Genealogy>  (35) 
COc1ccc2c[n+](C)ccc2c1 (3D coordinates assigned)
COc1ccc2c[n+](C)ccc2c1 (optimized conformer: 28.016053917412997 kcal/mol)

>  <smiles>  (35) 
COc1ccc2c[n+](C)ccc2c1

>  <score_type>  (35) 
oracle

>  <origin>  (35) 
adg

>  <m_score__min__energy>  (35) 
-5.5199999999999996

>  <m_primary>  (35) 
energy

$$$$
35:0
     RDKit          3D

 44 45  0  0  0  0  0  0  0  0999 V2000
   -9.4720   21.9700  -31.5730 C   0  0  0  0  0  0  0  0  0  0  0  0
   -8.2540   22.8320  -31.8910 C   0  0  0  0  0  0  0  0  0  0  0  0
   -7.0150   22.1650  -31.4590 N   0  0  0  0  0  0  0  0  0  0  0  0
   -6.8730   20.7050  -31.6030 C   0  0  0  0  0  0  0  0  0  0  0  0
   -7.1760   20.2370  -33.0370 C   0  0  0  0  0  0  0  0  0  0  0  0
   -5.9770   20.1370  -33.8860 N   0  0  0  0  0  0  0  0  0  0  0  0
   -5.0220   19.0990  -33.4580 C   0  0  0  0  0  0  0  0  0  0  0  0
   -3.6390   19.6530  -33.2370 C   0  0  0  0  0  0  0  0  0  0  0  0
   -2.5440   18.8000  -33.0270 C   0  0  0  0  0  0  0  0  0  0  0  0
   -1.2740   19.3480  -32.8440 C   0  0  0  0  0  0  0  0  0  0  0  0
   -1.1020   20.7320  -32.8810 C   0  0  0  0  0  0  0  0  0  0  0  0
   -2.2100   21.5520  -33.1060 C   0  0  0  0  0  0  0  0  0  0  0  0
   -3.4400   21.0000  -33.2800 N   0  0  0  0  0  0  0  0  0  0  0  0
   -5.9280   22.9490  -30.9230 C   0  0  0  0  0  0  0  0  0  0  0  0
   -6.0890   24.3250  -30.6900 C   0  0  0  0  0  0  0  0  0  0  0  0
   -5.0350   25.0820  -30.1730 C   0  0  0  0  0  0  0  0  0  0  0  0
   -3.8050   24.4840  -29.8810 C   0  0  0  0  0  0  0  0  0  0  0  0
   -2.7780   25.2880  -29.3640 O   0  0  0  0  0  0  0  0  0  0  0  0
   -1.9860   24.9510  -28.2300 C   0  0  0  0  0  0  0  0  0  0  0  0
   -3.6390   23.1050  -30.1140 C   0  0  0  0  0  0  0  0  0  0  0  0
   -4.6940   22.3470  -30.6300 C   0  0  0  0  0  0  0  0  0  0  0  0
   -9.5883   21.8877  -30.4823 H   0  0  0  0  0  0  0  0  0  0  0  0
  -10.3718   22.4335  -32.0037 H   0  0  0  0  0  0  0  0  0  0  0  0
   -9.3341   20.9673  -32.0037 H   0  0  0  0  0  0  0  0  0  0  0  0
   -8.2097   23.0076  -32.9760 H   0  0  0  0  0  0  0  0  0  0  0  0
   -8.3470   23.7866  -31.3524 H   0  0  0  0  0  0  0  0  0  0  0  0
   -5.8416   20.4212  -31.3469 H   0  0  0  0  0  0  0  0  0  0  0  0
   -7.5962   20.2242  -30.9279 H   0  0  0  0  0  0  0  0  0  0  0  0
   -7.6514   19.2463  -32.9872 H   0  0  0  0  0  0  0  0  0  0  0  0
   -7.8339   20.9919  -33.4924 H   0  0  0  0  0  0  0  0  0  0  0  0
   -5.5170   21.0690  -34.0060 H   0  0  0  0  0  0  0  0  0  0  0  0
   -5.3799   18.6548  -32.5175 H   0  0  0  0  0  0  0  0  0  0  0  0
   -4.9601   18.3471  -34.2585 H   0  0  0  0  0  0  0  0  0  0  0  0
   -2.6860   17.7094  -33.0069 H   0  0  0  0  0  0  0  0  0  0  0  0
   -0.4098   18.6899  -32.6708 H   0  0  0  0  0  0  0  0  0  0  0  0
   -0.1048   21.1725  -32.7346 H   0  0  0  0  0  0  0  0  0  0  0  0
   -2.0873   22.6445  -33.1424 H   0  0  0  0  0  0  0  0  0  0  0  0
   -7.0506   24.8091  -30.9160 H   0  0  0  0  0  0  0  0  0  0  0  0
   -5.1738   26.1584  -29.9939 H   0  0  0  0  0  0  0  0  0  0  0  0
   -2.5422   25.1876  -27.3109 H   0  0  0  0  0  0  0  0  0  0  0  0
   -1.7536   23.8760  -28.2514 H   0  0  0  0  0  0  0  0  0  0  0  0
   -1.0503   25.5289  -28.2514 H   0  0  0  0  0  0  0  0  0  0  0  0
   -2.6761   22.6230  -29.8892 H   0  0  0  0  0  0  0  0  0  0  0  0
   -4.5563   21.2703  -30.8079 H   0  0  0  0  0  0  0  0  0  0  0  0
  1  2  1  0
  2  3  1  0
  3  4  1  0
  4  5  1  0
  5  6  1  0
  6  7  1  0
  7  8  1  0
  8  9  2  0
  9 10  1  0
 10 11  2  0
 11 12  1  0
 12 13  2  0
  3 14  1  0
 14 15  2  0
 15 16  1  0
 16 17  2  0
 17 18  1  0
 18 19  1  0
 17 20  1  0
 20 21  2  0
 13  8  1  0
 21 14  1  0
  1 22  1  0
  1 23  1  0
  1 24  1  0
  2 25  1  0
  2 26  1  0
  4 27  1  0
  4 28  1  0
  5 29  1  0
  5 30  1  0
  6 31  1  0
  7 32  1  0
  7 33  1  0
  9 34  1  0
 10 35  1  0
 11 36  1  0
 12 37  1  0
 15 38  1  0
 16 39  1  0
 19 40  1  0
 19 41  1  0
 19 42  1  0
 20 43  1  0
 21 44  1  0
M  END
>  <UniqueID>  (36) 
36

>  <SMILES>  (36) 
CCN(CCNCc1ccccn1)c1ccc(OC)cc1

>  <Energy>  (36) 
42.7374161746671

>  <Genealogy>  (36) 
CCN(CCNCc1ccccn1)c1ccc(OC)cc1 (3D coordinates assigned)
CCN(CCNCc1ccccn1)c1ccc(OC)cc1 (optimized conformer: 42.7374161746671 kcal/mol)

>  <smiles>  (36) 
CCN(CCNCc1ccccn1)c1ccc(OC)cc1

>  <score_type>  (36) 
oracle

>  <origin>  (36) 
adg

>  <m_score__min__energy>  (36) 
-7.2000000000000002

>  <m_primary>  (36) 
energy

$$$$
36:0
     RDKit          3D

 42 44  0  0  0  0  0  0  0  0999 V2000
   -5.7570   17.9770  -34.5130 C   0  0  0  0  0  0  0  0  0  0  0  0
   -6.7210   17.2520  -33.5770 C   0  0  0  0  0  0  0  0  0  0  0  0
   -6.9470   18.0530  -32.3550 N   0  0  0  0  0  0  0  0  0  0  0  0
   -6.2830   17.4190  -31.2020 C   0  0  0  0  0  0  0  0  0  0  0  0
   -8.3900   18.2480  -32.0850 C   0  0  0  0  0  0  0  0  0  0  0  0
   -8.8060   19.7040  -32.3370 C   0  0  0  0  0  0  0  0  0  0  0  0
   -7.7350   20.4510  -33.0020 N   0  0  0  0  0  0  0  0  0  0  0  0
   -6.7880   21.3020  -32.3300 C   0  0  0  0  0  0  0  0  0  0  0  0
   -6.9860   22.6870  -32.3440 C   0  0  0  0  0  0  0  0  0  0  0  0
   -6.0700   23.5460  -31.7300 C   0  0  0  0  0  0  0  0  0  0  0  0
   -4.9250   23.0450  -31.0720 C   0  0  0  0  0  0  0  0  0  0  0  0
   -4.0000   23.9520  -30.4640 C   0  0  0  0  0  0  0  0  0  0  0  0
   -4.2510   25.1890  -30.5450 O   0  0  0  0  0  0  0  0  0  0  0  0
   -2.8090   23.5620  -29.7710 C   0  0  0  0  0  0  0  0  0  0  0  0
   -1.9660   24.5500  -29.2100 C   0  0  0  0  0  0  0  0  0  0  0  0
   -0.7970   24.1990  -28.5280 C   0  0  0  0  0  0  0  0  0  0  0  0
   -0.4400   22.8580  -28.3890 C   0  0  0  0  0  0  0  0  0  0  0  0
   -1.2520   21.8630  -28.9320 C   0  0  0  0  0  0  0  0  0  0  0  0
   -2.4220   22.2100  -29.6150 C   0  0  0  0  0  0  0  0  0  0  0  0
   -3.4010   21.0100  -30.2710 S   0  0  0  0  0  0  0  0  0  0  0  0
   -4.7520   21.6430  -31.0470 C   0  0  0  0  0  0  0  0  0  0  0  0
   -5.6730   20.7830  -31.6550 C   0  0  0  0  0  0  0  0  0  0  0  0
   -5.0174   18.5333  -33.9184 H   0  0  0  0  0  0  0  0  0  0  0  0
   -5.2397   17.2422  -35.1475 H   0  0  0  0  0  0  0  0  0  0  0  0
   -6.3194   18.6778  -35.1475 H   0  0  0  0  0  0  0  0  0  0  0  0
   -7.6804   17.0973  -34.0925 H   0  0  0  0  0  0  0  0  0  0  0  0
   -6.2853   16.2823  -33.2946 H   0  0  0  0  0  0  0  0  0  0  0  0
   -6.7046   17.8216  -30.2692 H   0  0  0  0  0  0  0  0  0  0  0  0
   -6.4447   16.3315  -31.2382 H   0  0  0  0  0  0  0  0  0  0  0  0
   -5.2042   17.6307  -31.2382 H   0  0  0  0  0  0  0  0  0  0  0  0
   -8.9717   17.5884  -32.7457 H   0  0  0  0  0  0  0  0  0  0  0  0
   -8.5845   18.0060  -31.0297 H   0  0  0  0  0  0  0  0  0  0  0  0
   -9.7022   19.7164  -32.9747 H   0  0  0  0  0  0  0  0  0  0  0  0
   -9.0147   20.1805  -31.3678 H   0  0  0  0  0  0  0  0  0  0  0  0
   -7.6040   20.2790  -34.0250 H   0  0  0  0  0  0  0  0  0  0  0  0
   -7.8725   23.1046  -32.8438 H   0  0  0  0  0  0  0  0  0  0  0  0
   -6.2440   24.6317  -31.7598 H   0  0  0  0  0  0  0  0  0  0  0  0
   -2.2347   25.6118  -29.3120 H   0  0  0  0  0  0  0  0  0  0  0  0
   -0.1563   24.9837  -28.0993 H   0  0  0  0  0  0  0  0  0  0  0  0
    0.4806   22.5857  -27.8519 H   0  0  0  0  0  0  0  0  0  0  0  0
   -0.9722   20.8048  -28.8231 H   0  0  0  0  0  0  0  0  0  0  0  0
   -5.5221   19.6946  -31.6035 H   0  0  0  0  0  0  0  0  0  0  0  0
  1  2  1  0
  2  3  1  0
  3  4  1  0
  3  5  1  0
  5  6  1  0
  6  7  1  0
  7  8  1  0
  8  9  2  0
  9 10  1  0
 10 11  2  0
 11 12  1  0
 12 13  2  0
 12 14  1  0
 14 15  2  0
 15 16  1  0
 16 17  2  0
 17 18  1  0
 18 19  2  0
 19 20  1  0
 20 21  1  0
 21 22  2  0
 22  8  1  0
 21 11  1  0
 19 14  1  0
  1 23  1  0
  1 24  1  0
  1 25  1  0
  2 26  1  0
  2 27  1  0
  4 28  1  0
  4 29  1  0
  4 30  1  0
  5 31  1  0
  5 32  1  0
  6 33  1  0
  6 34  1  0
  7 35  1  0
  9 36  1  0
 10 37  1  0
 15 38  1  0
 16 39  1  0
 17 40  1  0
 18 41  1  0
 22 42  1  0
M  END
>  <UniqueID>  (37) 
37

>  <SMILES>  (37) 
CCN(C)CCNc1ccc2c(=O)c3ccccc3sc2c1

>  <Energy>  (37) 
52.66883264099397

>  <Genealogy>  (37) 
CCN(C)CCNc1ccc2c(=O)c3ccccc3sc2c1 (3D coordinates assigned)
CCN(C)CCNc1ccc2c(=O)c3ccccc3sc2c1 (optimized conformer: 52.66883264099397 kcal/mol)

>  <smiles>  (37) 
CCN(C)CCNc1ccc2c(=O)c3ccccc3sc2c1

>  <score_type>  (37) 
oracle

>  <origin>  (37) 
adg

>  <m_score__min__energy>  (37) 
-8.5800000000000001

>  <m_primary>  (37) 
energy

$$$$
37:0
     RDKit          3D

 54 57  0  0  0  0  0  0  0  0999 V2000
   -1.7300   16.8120  -32.9140 C   0  0  0  0  0  0  0  0  0  0  0  0
   -2.9450   17.3590  -33.4810 N   0  0  0  0  0  0  0  0  0  0  0  0
   -2.8100   18.8180  -33.5150 C   0  0  0  0  0  0  0  0  0  0  0  0
   -3.1420   16.9320  -34.8490 C   0  0  0  0  0  0  0  0  0  0  0  0
   -3.9010   15.6500  -34.9580 C   0  0  0  0  0  0  0  0  0  0  0  0
   -4.7490   15.3900  -33.8200 N   0  0  0  0  0  0  0  0  0  0  0  0
   -6.0670   15.9780  -33.9890 C   0  0  0  0  0  0  0  0  0  0  0  0
   -6.1270   17.3780  -33.5240 C   0  0  0  0  0  0  0  0  0  0  0  0
   -6.1290   18.4690  -34.3630 C   0  0  0  0  0  0  0  0  0  0  0  0
   -6.1870   19.7780  -33.8810 C   0  0  0  0  0  0  0  0  0  0  0  0
   -6.2450   20.0330  -32.5380 C   0  0  0  0  0  0  0  0  0  0  0  0
   -6.3090   21.3730  -31.9660 C   0  0  0  0  0  0  0  0  0  0  0  0
   -7.4100   22.1460  -32.3470 C   0  0  0  0  0  0  0  0  0  0  0  0
   -7.5560   23.4270  -31.8520 C   0  0  0  0  0  0  0  0  0  0  0  0
   -6.5920   23.8960  -30.9850 C   0  0  0  0  0  0  0  0  0  0  0  0
   -5.4960   23.1570  -30.5910 C   0  0  0  0  0  0  0  0  0  0  0  0
   -4.4930   23.7080  -29.6640 C   0  0  0  0  0  0  0  0  0  0  0  0
   -3.2260   24.0090  -30.0480 N   0  0  0  0  0  0  0  0  0  0  0  0
   -2.5540   24.4900  -28.9890 C   0  0  0  0  0  0  0  0  0  0  0  0
   -1.2500   24.9160  -28.9160 C   0  0  0  0  0  0  0  0  0  0  0  0
   -0.8010   25.3640  -27.6960 C   0  0  0  0  0  0  0  0  0  0  0  0
   -1.6520   25.3760  -26.5930 C   0  0  0  0  0  0  0  0  0  0  0  0
   -2.9600   24.9380  -26.7100 C   0  0  0  0  0  0  0  0  0  0  0  0
   -3.4280   24.4810  -27.9410 C   0  0  0  0  0  0  0  0  0  0  0  0
   -4.6290   23.9970  -28.3580 N   0  0  0  0  0  0  0  0  0  0  0  0
   -5.3610   21.8730  -31.0960 C   0  0  0  0  0  0  0  0  0  0  0  0
   -6.2440   18.9210  -31.6810 C   0  0  0  0  0  0  0  0  0  0  0  0
   -6.1860   17.6310  -32.1630 C   0  0  0  0  0  0  0  0  0  0  0  0
   -1.7926   16.8402  -31.8161 H   0  0  0  0  0  0  0  0  0  0  0  0
   -1.6059   15.7712  -33.2476 H   0  0  0  0  0  0  0  0  0  0  0  0
   -0.8685   17.4091  -33.2476 H   0  0  0  0  0  0  0  0  0  0  0  0
   -2.7740   19.2070  -32.4867 H   0  0  0  0  0  0  0  0  0  0  0  0
   -1.8830   19.0883  -34.0419 H   0  0  0  0  0  0  0  0  0  0  0  0
   -3.6717   19.2538  -34.0419 H   0  0  0  0  0  0  0  0  0  0  0  0
   -3.6990   17.7154  -35.3837 H   0  0  0  0  0  0  0  0  0  0  0  0
   -2.1472   16.7630  -35.2869 H   0  0  0  0  0  0  0  0  0  0  0  0
   -4.5298   15.6922  -35.8595 H   0  0  0  0  0  0  0  0  0  0  0  0
   -3.1617   14.8369  -35.0058 H   0  0  0  0  0  0  0  0  0  0  0  0
   -4.3220   15.8070  -32.9720 H   0  0  0  0  0  0  0  0  0  0  0  0
   -6.3315   15.9495  -35.0564 H   0  0  0  0  0  0  0  0  0  0  0  0
   -6.7733   15.3939  -33.3807 H   0  0  0  0  0  0  0  0  0  0  0  0
   -6.0834   18.3041  -35.4496 H   0  0  0  0  0  0  0  0  0  0  0  0
   -6.1861   20.6174  -34.5920 H   0  0  0  0  0  0  0  0  0  0  0  0
   -8.1587   21.7345  -33.0399 H   0  0  0  0  0  0  0  0  0  0  0  0
   -8.4135   24.0528  -32.1401 H   0  0  0  0  0  0  0  0  0  0  0  0
   -6.7030   24.9150  -30.5858 H   0  0  0  0  0  0  0  0  0  0  0  0
   -0.5920   24.8994  -29.7974 H   0  0  0  0  0  0  0  0  0  0  0  0
    0.2361   25.7150  -27.5903 H   0  0  0  0  0  0  0  0  0  0  0  0
   -1.2818   25.7362  -25.6218 H   0  0  0  0  0  0  0  0  0  0  0  0
   -3.6271   24.9505  -25.8355 H   0  0  0  0  0  0  0  0  0  0  0  0
   -5.4920   23.8710  -27.7840 H   0  0  0  0  0  0  0  0  0  0  0  0
   -4.5000   21.2537  -30.8040 H   0  0  0  0  0  0  0  0  0  0  0  0
   -6.2908   19.0838  -30.5941 H   0  0  0  0  0  0  0  0  0  0  0  0
   -6.1866   16.7886  -31.4556 H   0  0  0  0  0  0  0  0  0  0  0  0
  1  2  1  0
  2  3  1  0
  2  4  1  0
  4  5  1  0
  5  6  1  0
  6  7  1  0
  7  8  1  0
  8  9  2  0
  9 10  1  0
 10 11  2  0
 11 12  1  0
 12 13  2  0
 13 14  1  0
 14 15  2  0
 15 16  1  0
 16 17  1  0
 17 18  2  0
 18 19  1  0
 19 20  2  0
 20 21  1  0
 21 22  2  0
 22 23  1  0
 23 24  2  0
 24 25  1  0
 16 26  2  0
 11 27  1  0
 27 28  2  0
 28  8  1  0
 26 12  1  0
 25 17  1  0
 24 19  1  0
  1 29  1  0
  1 30  1  0
  1 31  1  0
  3 32  1  0
  3 33  1  0
  3 34  1  0
  4 35  1  0
  4 36  1  0
  5 37  1  0
  5 38  1  0
  6 39  1  0
  7 40  1  0
  7 41  1  0
  9 42  1  0
 10 43  1  0
 13 44  1  0
 14 45  1  0
 15 46  1  0
 20 47  1  0
 21 48  1  0
 22 49  1  0
 23 50  1  0
 25 51  1  0
 26 52  1  0
 27 53  1  0
 28 54  1  0
M  END
>  <smiles>  (38) 
CN(C)CCNCc1ccc(-c2cccc(-c3nc4ccccc4[nH]3)c2)cc1

>  <score_type>  (38) 
oracle

>  <origin>  (38) 
adg

>  <m_score__min__energy>  (38) 
-8.8599999999999994

>  <m_primary>  (38) 
energy

$$$$
38:0
     RDKit          3D

 51 53  0  0  0  0  0  0  0  0999 V2000
    0.9050   23.5750  -27.4620 C   0  0  0  0  0  0  0  0  0  0  0  0
    0.3270   24.1380  -28.6340 O   0  0  0  0  0  0  0  0  0  0  0  0
   -0.9350   23.7930  -29.1450 C   0  0  0  0  0  0  0  0  0  0  0  0
   -1.2250   22.4950  -29.6060 C   0  0  0  0  0  0  0  0  0  0  0  0
   -2.4970   22.1800  -30.1040 C   0  0  0  0  0  0  0  0  0  0  0  0
   -3.4830   23.1810  -30.1780 C   0  0  0  0  0  0  0  0  0  0  0  0
   -3.2000   24.4700  -29.7040 C   0  0  0  0  0  0  0  0  0  0  0  0
   -1.9270   24.7830  -29.1920 C   0  0  0  0  0  0  0  0  0  0  0  0
   -1.6100   26.0660  -28.7180 O   0  0  0  0  0  0  0  0  0  0  0  0
   -1.1970   26.3560  -27.3870 C   0  0  0  0  0  0  0  0  0  0  0  0
   -4.8780   22.8580  -30.6620 C   0  0  0  0  0  0  0  0  0  0  0  0
   -4.9100   21.6540  -31.5210 N   0  0  2  0  0  0  0  0  0  0  0  0
   -6.3150   21.3250  -31.8650 C   0  0  0  0  0  0  0  0  0  0  0  0
   -6.4450   19.9460  -32.4810 C   0  0  0  0  0  0  0  0  0  0  0  0
   -7.4900   19.1060  -32.0680 C   0  0  0  0  0  0  0  0  0  0  0  0
   -7.6210   17.8290  -32.6030 C   0  0  0  0  0  0  0  0  0  0  0  0
   -6.7150   17.3730  -33.5570 C   0  0  0  0  0  0  0  0  0  0  0  0
   -5.6560   18.1930  -33.9940 C   0  0  0  0  0  0  0  0  0  0  0  0
   -4.7460   17.7330  -34.9590 O   0  0  0  0  0  0  0  0  0  0  0  0
   -3.9140   16.5860  -34.8180 C   0  0  0  0  0  0  0  0  0  0  0  0
   -5.5180   19.4970  -33.4490 C   0  0  0  0  0  0  0  0  0  0  0  0
   -4.4940   20.3900  -33.8250 O   0  0  0  0  0  0  0  0  0  0  0  0
   -3.0980   20.1180  -33.8670 C   0  0  0  0  0  0  0  0  0  0  0  0
   -4.2520   20.5230  -30.8290 C   0  0  0  0  0  0  0  0  0  0  0  0
   -2.7560   20.7970  -30.6400 C   0  0  0  0  0  0  0  0  0  0  0  0
    0.4420   24.0260  -26.5719 H   0  0  0  0  0  0  0  0  0  0  0  0
    0.7332   22.4885  -27.4540 H   0  0  0  0  0  0  0  0  0  0  0  0
    1.9866   23.7753  -27.4540 H   0  0  0  0  0  0  0  0  0  0  0  0
   -0.4453   21.7197  -29.5752 H   0  0  0  0  0  0  0  0  0  0  0  0
   -3.9808   25.2443  -29.7326 H   0  0  0  0  0  0  0  0  0  0  0  0
   -1.8842   25.8734  -26.6765 H   0  0  0  0  0  0  0  0  0  0  0  0
   -0.1777   25.9743  -27.2280 H   0  0  0  0  0  0  0  0  0  0  0  0
   -1.2099   27.4444  -27.2280 H   0  0  0  0  0  0  0  0  0  0  0  0
   -5.5245   22.6867  -29.7887 H   0  0  0  0  0  0  0  0  0  0  0  0
   -5.2311   23.7092  -31.2627 H   0  0  0  0  0  0  0  0  0  0  0  0
   -4.3850   21.8690  -32.4040 H   0  0  0  0  0  0  0  0  0  0  0  0
   -6.9223   21.3625  -30.9486 H   0  0  0  0  0  0  0  0  0  0  0  0
   -6.6628   22.0602  -32.6056 H   0  0  0  0  0  0  0  0  0  0  0  0
   -8.2106   19.4598  -31.3160 H   0  0  0  0  0  0  0  0  0  0  0  0
   -8.4428   17.1772  -32.2715 H   0  0  0  0  0  0  0  0  0  0  0  0
   -6.8274   16.3613  -33.9740 H   0  0  0  0  0  0  0  0  0  0  0  0
   -3.7601   16.3738  -33.7497 H   0  0  0  0  0  0  0  0  0  0  0  0
   -4.3966   15.7217  -35.2977 H   0  0  0  0  0  0  0  0  0  0  0  0
   -2.9426   16.7764  -35.2977 H   0  0  0  0  0  0  0  0  0  0  0  0
   -2.7082   20.0421  -32.8412 H   0  0  0  0  0  0  0  0  0  0  0  0
   -2.9250   19.1693  -34.3961 H   0  0  0  0  0  0  0  0  0  0  0  0
   -2.5815   20.9324  -34.3961 H   0  0  0  0  0  0  0  0  0  0  0  0
   -4.7201   20.3815  -29.8437 H   0  0  0  0  0  0  0  0  0  0  0  0
   -4.3700   19.6175  -31.4424 H   0  0  0  0  0  0  0  0  0  0  0  0
   -2.3470   20.0602  -29.9330 H   0  0  0  0  0  0  0  0  0  0  0  0
   -2.2702   20.7184  -31.6238 H   0  0  0  0  0  0  0  0  0  0  0  0
  1  2  1  0
  2  3  1  0
  3  4  2  0
  4  5  1  0
  5  6  2  0
  6  7  1  0
  7  8  2  0
  8  9  1  0
  9 10  1  0
  6 11  1  0
 11 12  1  0
 12 13  1  0
 13 14  1  0
 14 15  2  0
 15 16  1  0
 16 17  2  0
 17 18  1  0
 18 19  1  0
 19 20  1  0
 18 21  2  0
 21 22  1  0
 22 23  1  0
 12 24  1  0
 24 25  1  0
  8  3  1  0
 21 14  1  0
 25  5  1  0
  1 26  1  0
  1 27  1  0
  1 28  1  0
  4 29  1  0
  7 30  1  0
 10 31  1  0
 10 32  1  0
 10 33  1  0
 11 34  1  0
 11 35  1  0
 12 36  1  6
 13 37  1  0
 13 38  1  0
 15 39  1  0
 16 40  1  0
 17 41  1  0
 20 42  1  0
 20 43  1  0
 20 44  1  0
 23 45  1  0
 23 46  1  0
 23 47  1  0
 24 48  1  0
 24 49  1  0
 25 50  1  0
 25 51  1  0
M  CHG  1  12   1
M  END
>  <UniqueID>  (39) 
38

>  <SMILES>  (39) 
COc1cc2c(cc1OC)C[N@H+](Cc1cccc(OC)c1OC)CC2

>  <Energy>  (39) 
57.7140258196653

>  <Genealogy>  (39) 
COc1cc2c(cc1OC)C[NH+](Cc1cccc(OC)c1OC)CC2 (protonated)
COc1cc2c(cc1OC)C[N@H+](Cc1cccc(OC)c1OC)CC2 (chirality)
COc1cc2c(cc1OC)C[N@H+](Cc1cccc(OC)c1OC)CC2 (3D coordinates assigned)
COc1cc2c(cc1OC)C[N@H+](Cc1cccc(OC)c1OC)CC2 (nonaromatic ring conformer: 57.7140258196653 kcal/mol)

>  <smiles>  (39) 
COc1cc2c(cc1OC)CN(Cc1cccc(OC)c1OC)CC2

>  <score_type>  (39) 
oracle

>  <origin>  (39) 
adg

>  <m_score__min__energy>  (39) 
-6.9699999999999998

>  <m_primary>  (39) 
energy

$$$$
39:0
     RDKit          3D

 44 45  0  0  0  0  0  0  0  0999 V2000
   -6.4740   24.5940  -30.4390 C   0  0  0  0  0  0  0  0  0  0  0  0
   -5.7230   23.9530  -31.6040 C   0  0  0  0  0  0  0  0  0  0  0  0
   -4.3320   23.6360  -31.2060 N   0  0  0  0  0  0  0  0  0  0  0  0
   -4.1990   23.5720  -29.7330 C   0  0  0  0  0  0  0  0  0  0  0  0
   -3.1320   24.5520  -29.2540 C   0  0  0  0  0  0  0  0  0  0  0  0
   -3.8660   22.3810  -31.8400 C   0  0  0  0  0  0  0  0  0  0  0  0
   -2.4220   22.0690  -31.4330 C   0  0  0  0  0  0  0  0  0  0  0  0
   -1.6530   20.9580  -32.5990 S   0  0  0  0  0  0  0  0  0  0  0  0
   -1.0180   21.7770  -33.9240 O   0  0  0  0  0  0  0  0  0  0  0  0
   -2.7720   19.7200  -33.1210 C   0  0  0  0  0  0  0  0  0  0  0  0
   -4.0190   19.9830  -33.5620 N   0  0  0  0  0  0  0  0  0  0  0  0
   -4.6830   18.8400  -33.8890 C   0  0  0  0  0  0  0  0  0  0  0  0
   -6.1070   18.8640  -34.3500 C   0  0  0  0  0  0  0  0  0  0  0  0
   -6.9910   19.3950  -33.2550 C   0  0  0  0  0  0  0  0  0  0  0  0
   -6.9760   20.7610  -32.9310 C   0  0  0  0  0  0  0  0  0  0  0  0
   -7.8270   21.2590  -31.9390 C   0  0  0  0  0  0  0  0  0  0  0  0
   -8.7040   20.3990  -31.2720 C   0  0  0  0  0  0  0  0  0  0  0  0
   -8.7350   19.0400  -31.5990 C   0  0  0  0  0  0  0  0  0  0  0  0
   -7.8860   18.5390  -32.5890 C   0  0  0  0  0  0  0  0  0  0  0  0
   -3.9680   17.6610  -33.6880 C   0  0  0  0  0  0  0  0  0  0  0  0
   -2.4470   18.0740  -33.0980 S   0  0  0  0  0  0  0  0  0  0  0  0
   -6.0525   24.2343  -29.4888 H   0  0  0  0  0  0  0  0  0  0  0  0
   -6.3721   25.6879  -30.4945 H   0  0  0  0  0  0  0  0  0  0  0  0
   -7.5383   24.3216  -30.4945 H   0  0  0  0  0  0  0  0  0  0  0  0
   -6.2359   23.0262  -31.9005 H   0  0  0  0  0  0  0  0  0  0  0  0
   -5.7021   24.6583  -32.4479 H   0  0  0  0  0  0  0  0  0  0  0  0
   -5.1629   23.8303  -29.2702 H   0  0  0  0  0  0  0  0  0  0  0  0
   -3.9034   22.5525  -29.4446 H   0  0  0  0  0  0  0  0  0  0  0  0
   -3.1154   24.5673  -28.1542 H   0  0  0  0  0  0  0  0  0  0  0  0
   -2.1482   24.2361  -29.6312 H   0  0  0  0  0  0  0  0  0  0  0  0
   -3.3633   25.5591  -29.6312 H   0  0  0  0  0  0  0  0  0  0  0  0
   -4.5170   21.5532  -31.5224 H   0  0  0  0  0  0  0  0  0  0  0  0
   -3.9059   22.5021  -32.9326 H   0  0  0  0  0  0  0  0  0  0  0  0
   -1.8479   23.0066  -31.3976 H   0  0  0  0  0  0  0  0  0  0  0  0
   -2.4336   21.5859  -30.4448 H   0  0  0  0  0  0  0  0  0  0  0  0
   -1.6940   21.6650  -34.6380 H   0  0  0  0  0  0  0  0  0  0  0  0
   -6.1930   19.5120  -35.2347 H   0  0  0  0  0  0  0  0  0  0  0  0
   -6.4220   17.8416  -34.6058 H   0  0  0  0  0  0  0  0  0  0  0  0
   -6.2925   21.4420  -33.4592 H   0  0  0  0  0  0  0  0  0  0  0  0
   -7.8061   22.3287  -31.6835 H   0  0  0  0  0  0  0  0  0  0  0  0
   -9.3701   20.7915  -30.4895 H   0  0  0  0  0  0  0  0  0  0  0  0
   -9.4284   18.3647  -31.0764 H   0  0  0  0  0  0  0  0  0  0  0  0
   -7.9178   17.4705  -32.8485 H   0  0  0  0  0  0  0  0  0  0  0  0
   -4.3330   16.6414  -33.8808 H   0  0  0  0  0  0  0  0  0  0  0  0
  1  2  1  0
  2  3  1  0
  3  4  1  0
  4  5  1  0
  3  6  1  0
  6  7  1  0
  7  8  1  0
  8  9  1  6
  8 10  1  0
 10 11  2  0
 11 12  1  0
 12 13  1  0
 13 14  1  0
 14 15  2  0
 15 16  1  0
 16 17  2  0
 17 18  1  0
 18 19  2  0
 12 20  2  0
 20 21  1  0
 21 10  1  0
 19 14  1  0
  1 22  1  0
  1 23  1  0
  1 24  1  0
  2 25  1  0
  2 26  1  0
  4 27  1  0
  4 28  1  0
  5 29  1  0
  5 30  1  0
  5 31  1  0
  6 32  1  0
  6 33  1  0
  7 34  1  0
  7 35  1  0
  9 36  1  0
 13 37  1  0
 13 38  1  0
 15 39  1  0
 16 40  1  0
 17 41  1  0
 18 42  1  0
 19 43  1  0
 20 44  1  0
M  CHG  1   8   1
M  END
>  <UniqueID>  (40) 
39

>  <SMILES>  (40) 
CCN(CC)CC[S@+](O)c1nc(Cc2ccccc2)cs1

>  <Energy>  (40) 
62.98709569720783

>  <Genealogy>  (40) 
CCN(CC)CC[S+](O)c1nc(Cc2ccccc2)cs1 (protonated)
CCN(CC)CC[S@+](O)c1nc(Cc2ccccc2)cs1 (chirality)
CCN(CC)CC[S@+](O)c1nc(Cc2ccccc2)cs1 (3D coordinates assigned)
CCN(CC)CC[S@+](O)c1nc(Cc2ccccc2)cs1 (optimized conformer: 62.98709569720783 kcal/mol)

>  <smiles>  (40) 
CCN(CC)CC[S+]([O-])c1nc(Cc2ccccc2)cs1

>  <score_type>  (40) 
oracle

>  <origin>  (40) 
adg

>  <m_score__min__energy>  (40) 
-6.8399999999999999

>  <m_primary>  (40) 
energy

$$$$
40:0
     RDKit          3D

 43 45  0  0  0  0  0  0  0  0999 V2000
   -9.0430   21.3730  -32.1210 C   0  0  0  0  0  0  0  0  0  0  0  0
   -7.7670   22.1090  -31.8030 C   0  0  0  0  0  0  0  0  0  0  0  0
   -7.8510   23.3780  -31.2080 C   0  0  0  0  0  0  0  0  0  0  0  0
   -6.6960   24.0960  -30.8950 C   0  0  0  0  0  0  0  0  0  0  0  0
   -5.4290   23.5620  -31.1700 C   0  0  0  0  0  0  0  0  0  0  0  0
   -4.2350   24.2960  -30.8380 N   0  0  0  0  0  0  0  0  0  0  0  0
   -3.1580   23.7000  -30.6280 O   0  0  0  0  0  0  0  0  0  0  0  0
   -4.2610   25.6690  -30.7430 O   0  0  0  0  0  0  0  0  0  0  0  0
   -5.3400   22.2990  -31.7770 C   0  0  0  0  0  0  0  0  0  0  0  0
   -6.4940   21.5740  -32.1170 C   0  0  0  0  0  0  0  0  0  0  0  0
   -6.3070   19.9920  -32.8970 S   0  0  0  0  0  0  0  0  0  0  0  0
   -4.8440   19.6760  -33.0550 O   0  0  0  0  0  0  0  0  0  0  0  0
   -6.9540   20.0510  -34.2520 O   0  0  0  0  0  0  0  0  0  0  0  0
   -7.0660   18.7460  -31.9240 N   0  0  0  0  0  0  0  0  0  0  0  0
   -6.0690   18.0070  -31.1080 C   0  0  0  0  0  0  0  0  0  0  0  0
   -5.7730   16.5840  -31.6160 C   0  0  0  0  0  0  0  0  0  0  0  0
   -5.8830   16.5310  -33.0780 N   0  0  0  0  0  0  0  0  0  0  0  0
   -4.8630   15.9270  -33.8950 C   0  0  0  0  0  0  0  0  0  0  0  0
   -3.9960   16.7120  -34.6750 C   0  0  0  0  0  0  0  0  0  0  0  0
   -3.0350   16.0880  -35.4740 C   0  0  0  0  0  0  0  0  0  0  0  0
   -2.9500   14.6960  -35.5000 C   0  0  0  0  0  0  0  0  0  0  0  0
   -3.8380   13.9440  -34.7280 C   0  0  0  0  0  0  0  0  0  0  0  0
   -4.7660   14.5690  -33.9560 N   0  0  0  0  0  0  0  0  0  0  0  0
   -7.1250   16.9920  -33.7030 C   0  0  0  0  0  0  0  0  0  0  0  0
   -7.9350   17.8680  -32.7340 C   0  0  0  0  0  0  0  0  0  0  0  0
   -9.5430   21.0846  -31.1846 H   0  0  0  0  0  0  0  0  0  0  0  0
   -9.7074   22.0266  -32.7052 H   0  0  0  0  0  0  0  0  0  0  0  0
   -8.8099   20.4706  -32.7052 H   0  0  0  0  0  0  0  0  0  0  0  0
   -8.8377   23.8108  -30.9862 H   0  0  0  0  0  0  0  0  0  0  0  0
   -6.7802   25.0888  -30.4288 H   0  0  0  0  0  0  0  0  0  0  0  0
   -4.3497   21.8700  -31.9899 H   0  0  0  0  0  0  0  0  0  0  0  0
   -5.1286   18.5777  -31.1110 H   0  0  0  0  0  0  0  0  0  0  0  0
   -6.4982   17.9018  -30.1007 H   0  0  0  0  0  0  0  0  0  0  0  0
   -4.7536   16.2974  -31.3184 H   0  0  0  0  0  0  0  0  0  0  0  0
   -6.5038   15.8887  -31.1772 H   0  0  0  0  0  0  0  0  0  0  0  0
   -4.0738   17.8091  -34.6563 H   0  0  0  0  0  0  0  0  0  0  0  0
   -2.3464   16.6934  -36.0817 H   0  0  0  0  0  0  0  0  0  0  0  0
   -2.1922   14.1964  -36.1214 H   0  0  0  0  0  0  0  0  0  0  0  0
   -3.7865   12.8453  -34.7446 H   0  0  0  0  0  0  0  0  0  0  0  0
   -6.8801   17.5793  -34.6003 H   0  0  0  0  0  0  0  0  0  0  0  0
   -7.7301   16.1135  -33.9717 H   0  0  0  0  0  0  0  0  0  0  0  0
   -8.6285   18.4932  -33.3155 H   0  0  0  0  0  0  0  0  0  0  0  0
   -8.4794   17.2023  -32.0482 H   0  0  0  0  0  0  0  0  0  0  0  0
  1  2  1  0
  2  3  2  0
  3  4  1  0
  4  5  2  0
  5  6  1  0
  6  7  2  0
  6  8  1  0
  5  9  1  0
  9 10  2  0
 10 11  1  0
 11 12  2  0
 11 13  2  0
 11 14  1  0
 14 15  1  0
 15 16  1  0
 16 17  1  0
 17 18  1  0
 18 19  2  0
 19 20  1  0
 20 21  2  0
 21 22  1  0
 22 23  2  0
 17 24  1  0
 24 25  1  0
 10  2  1  0
 25 14  1  0
 23 18  1  0
  1 26  1  0
  1 27  1  0
  1 28  1  0
  3 29  1  0
  4 30  1  0
  9 31  1  0
 15 32  1  0
 15 33  1  0
 16 34  1  0
 16 35  1  0
 19 36  1  0
 20 37  1  0
 21 38  1  0
 22 39  1  0
 24 40  1  0
 24 41  1  0
 25 42  1  0
 25 43  1  0
M  CHG  2   6   1   8  -1
M  END
>  <UniqueID>  (41) 
40

>  <SMILES>  (41) 
Cc1ccc([N+](=O)[O-])cc1S(=O)(=O)N1CCN(c2ccccn2)CC1

>  <Energy>  (41) 
57.80137469538081

>  <Genealogy>  (41) 
Cc1ccc([N+](=O)[O-])cc1S(=O)(=O)N1CCN(c2ccccn2)CC1 (3D coordinates assigned)
Cc1ccc([N+](=O)[O-])cc1S(=O)(=O)N1CCN(c2ccccn2)CC1 (nonaromatic ring conformer: 57.80137469538081 kcal/mol)

>  <smiles>  (41) 
Cc1ccc([N+](=O)[O-])cc1S(=O)(=O)N1CCN(c2ccccn2)CC1

>  <score_type>  (41) 
oracle

>  <origin>  (41) 
adg

>  <m_score__min__energy>  (41) 
-8.9100000000000001

>  <m_primary>  (41) 
energy

$$$$
41:0
     RDKit          3D

 49 51  0  0  0  0  0  0  0  0999 V2000
   -9.5499   22.8809  -31.5290 H   0  0  0  0  0  0  0  0  0  0  0  0
   -8.5060   22.6090  -31.7440 C   0  0  0  0  0  0  0  0  0  0  0  0
   -7.5280   23.5440  -31.6340 N   0  0  0  0  0  0  0  0  0  0  0  0
   -6.2220   23.2570  -31.8920 C   0  0  0  0  0  0  0  0  0  0  0  0
   -5.2940   24.1650  -31.7840 N   0  0  0  0  0  0  0  0  0  0  0  0
   -4.8970   24.8570  -30.5880 C   0  0  0  0  0  0  0  0  0  0  0  0
   -3.7220   25.2930  -30.4420 O   0  0  0  0  0  0  0  0  0  0  0  0
   -5.8780   25.0130  -29.4760 C   0  0  0  0  0  0  0  0  0  0  0  0
   -5.3554   24.9299  -28.5116 H   0  0  0  0  0  0  0  0  0  0  0  0
   -6.3601   25.9991  -29.5480 H   0  0  0  0  0  0  0  0  0  0  0  0
   -6.6422   24.2251  -29.5480 H   0  0  0  0  0  0  0  0  0  0  0  0
   -5.8660   21.9610  -32.2810 C   0  0  0  0  0  0  0  0  0  0  0  0
   -4.8147   21.7210  -32.4981 H   0  0  0  0  0  0  0  0  0  0  0  0
   -6.8500   20.9680  -32.3940 C   0  0  0  0  0  0  0  0  0  0  0  0
   -6.4550   19.5990  -32.7930 C   0  0  0  0  0  0  0  0  0  0  0  0
   -6.1070   19.3160  -34.1240 C   0  0  0  0  0  0  0  0  0  0  0  0
   -6.1268   20.1175  -34.8771 H   0  0  0  0  0  0  0  0  0  0  0  0
   -5.7360   18.0220  -34.4960 C   0  0  0  0  0  0  0  0  0  0  0  0
   -5.4692   17.8082  -35.5415 H   0  0  0  0  0  0  0  0  0  0  0  0
   -5.7020   16.9940  -33.5430 C   0  0  0  0  0  0  0  0  0  0  0  0
   -5.2990   15.6270  -33.9290 C   0  0  0  0  0  0  0  0  0  0  0  0
   -6.3040   14.6880  -34.2110 C   0  0  0  0  0  0  0  0  0  0  0  0
   -7.3613   14.9852  -34.1499 H   0  0  0  0  0  0  0  0  0  0  0  0
   -5.9720   13.3810  -34.5680 C   0  0  0  0  0  0  0  0  0  0  0  0
   -6.7664   12.6549  -34.7953 H   0  0  0  0  0  0  0  0  0  0  0  0
   -4.6340   12.9940  -34.6370 C   0  0  0  0  0  0  0  0  0  0  0  0
   -4.3748   11.9631  -34.9198 H   0  0  0  0  0  0  0  0  0  0  0  0
   -3.6230   13.9120  -34.3480 C   0  0  0  0  0  0  0  0  0  0  0  0
   -2.5706   13.5949  -34.3914 H   0  0  0  0  0  0  0  0  0  0  0  0
   -3.9370   15.2380  -34.0020 C   0  0  0  0  0  0  0  0  0  0  0  0
   -2.8100   16.1780  -33.6240 C   0  0  0  0  0  0  0  0  0  0  0  0
   -1.9048   15.5901  -33.4119 H   0  0  0  0  0  0  0  0  0  0  0  0
   -3.1094   16.7505  -32.7337 H   0  0  0  0  0  0  0  0  0  0  0  0
   -2.5300   17.1180  -34.7200 N   0  0  0  0  0  0  0  0  0  0  0  0
   -3.4360   17.4450  -35.1310 H   0  0  0  0  0  0  0  0  0  0  0  0
   -1.9700   16.6340  -35.4610 H   0  0  0  0  0  0  0  0  0  0  0  0
   -1.7720   18.2770  -34.2280 C   0  0  0  0  0  0  0  0  0  0  0  0
   -1.2049   18.7167  -35.0617 H   0  0  0  0  0  0  0  0  0  0  0  0
   -1.0891   17.9391  -33.4346 H   0  0  0  0  0  0  0  0  0  0  0  0
   -2.7080   19.3340  -33.6480 C   0  0  0  0  0  0  0  0  0  0  0  0
   -2.6716   19.2929  -32.5494 H   0  0  0  0  0  0  0  0  0  0  0  0
   -2.3911   20.3309  -33.9883 H   0  0  0  0  0  0  0  0  0  0  0  0
   -3.7359   19.1400  -33.9883 H   0  0  0  0  0  0  0  0  0  0  0  0
   -6.0820   17.2660  -32.2200 C   0  0  0  0  0  0  0  0  0  0  0  0
   -6.0855   16.4582  -31.4734 H   0  0  0  0  0  0  0  0  0  0  0  0
   -6.4560   18.5600  -31.8480 C   0  0  0  0  0  0  0  0  0  0  0  0
   -6.7529   18.7660  -30.8091 H   0  0  0  0  0  0  0  0  0  0  0  0
   -8.1930   21.3030  -32.1290 C   0  0  0  0  0  0  0  0  0  0  0  0
   -9.5070   20.1450  -32.3290 Cl  0  0  0  0  0  0  0  0  0  0  0  0
  1  2  1  0
  2  3  1  0
  3  4  1  0
  4  5  2  0
  5  6  1  0
  6  7  2  0
  6  8  1  0
  8  9  1  0
  8 10  1  0
  8 11  1  0
  4 12  1  0
 12 13  1  0
 12 14  2  0
 14 15  1  0
 15 16  2  0
 16 17  1  0
 16 18  1  0
 18 19  1  0
 18 20  2  0
 20 21  1  0
 21 22  2  0
 22 23  1  0
 22 24  1  0
 24 25  1  0
 24 26  2  0
 26 27  1  0
 26 28  1  0
 28 29  1  0
 28 30  2  0
 30 31  1  0
 31 32  1  0
 31 33  1  0
 31 34  1  0
 34 35  1  0
 34 36  1  0
 34 37  1  0
 37 38  1  0
 37 39  1  0
 37 40  1  0
 40 41  1  0
 40 42  1  0
 40 43  1  0
 20 44  1  0
 44 45  1  0
 44 46  2  0
 46 47  1  0
 14 48  1  0
 48 49  1  0
 48  2  2  0
 46 15  1  0
 30 21  1  0
M  CHG  2   3  -1  34   1
M  END
>  <UniqueID>  (42) 
41

>  <SMILES>  (42) 
CC[NH2+]Cc1ccccc1-c1ccc(-c2c/c(=N/C(C)=O)[n-]cc2Cl)cc1

>  <Energy>  (42) 
63.695659834495714

>  <Genealogy>  (42) 
CC[NH2+]Cc1ccccc1-c1ccc(-c2cc(=NC(C)=O)[n-]cc2Cl)cc1 (protonated)
CC[NH2+]Cc1ccccc1-c1ccc(-c2c/c(=N/C(C)=O)[n-]cc2Cl)cc1 (cis-trans isomerization)
CC[NH2+]Cc1ccccc1-c1ccc(-c2c/c(=N/C(C)=O)[n-]cc2Cl)cc1 (3D coordinates assigned)
CC[NH2+]Cc1ccccc1-c1ccc(-c2c/c(=N/C(C)=O)[n-]cc2Cl)cc1 (optimized conformer: 63.695659834495714 kcal/mol)

>  <smiles>  (42) 
CCNCc1ccccc1-c1ccc(-c2cc(=NC(C)=O)[nH]cc2Cl)cc1

>  <score_type>  (42) 
oracle

>  <origin>  (42) 
adg

>  <m_score__min__energy>  (42) 
-9.4399999999999995

>  <m_primary>  (42) 
energy

$$$$
42:0
     RDKit          3D

 53 55  0  0  0  0  0  0  0  0999 V2000
   -4.2120   24.5340  -26.8900 C   0  0  0  0  0  0  0  0  0  0  0  0
   -3.9160   24.1700  -28.3490 C   0  0  0  0  0  0  0  0  0  0  0  0
   -5.1470   23.8320  -29.1100 N   0  0  1  0  0  0  0  0  0  0  0  0
   -5.7320   25.0140  -29.7700 C   0  0  0  0  0  0  0  0  0  0  0  0
   -4.9200   22.7220  -30.0720 C   0  0  0  0  0  0  0  0  0  0  0  0
   -3.8300   22.9980  -31.1420 C   0  0  0  0  0  0  0  0  0  0  0  0
   -3.6000   21.7940  -32.0650 C   0  0  0  0  0  0  0  0  0  0  0  0
   -4.6360   21.7170  -33.0950 N   0  0  0  0  0  0  0  0  0  0  0  0
   -5.7950   20.8770  -32.9510 C   0  0  0  0  0  0  0  0  0  0  0  0
   -7.0170   21.4160  -32.5170 C   0  0  0  0  0  0  0  0  0  0  0  0
   -7.1730   22.8080  -32.3460 C   0  0  0  0  0  0  0  0  0  0  0  0
   -8.3920   23.3430  -31.9400 C   0  0  0  0  0  0  0  0  0  0  0  0
   -9.4820   22.5070  -31.7260 C   0  0  0  0  0  0  0  0  0  0  0  0
   -9.3580   21.1300  -31.9080 C   0  0  0  0  0  0  0  0  0  0  0  0
   -8.1180   20.5500  -32.2810 C   0  0  0  0  0  0  0  0  0  0  0  0
   -7.9720   19.1830  -32.4380 N   0  0  0  0  0  0  0  0  0  0  0  0
   -9.0150   18.2660  -31.9260 C   0  0  0  0  0  0  0  0  0  0  0  0
   -6.8410   18.6750  -33.0520 C   0  0  0  0  0  0  0  0  0  0  0  0
   -6.7600   17.3220  -33.4670 C   0  0  0  0  0  0  0  0  0  0  0  0
   -5.5930   16.8070  -34.0270 C   0  0  0  0  0  0  0  0  0  0  0  0
   -4.4780   17.6250  -34.2150 C   0  0  0  0  0  0  0  0  0  0  0  0
   -3.2010   17.0600  -34.7670 C   0  0  0  0  0  0  0  0  0  0  0  0
   -4.5440   18.9710  -33.8450 C   0  0  0  0  0  0  0  0  0  0  0  0
   -5.7200   19.5140  -33.2860 C   0  0  0  0  0  0  0  0  0  0  0  0
   -3.6599   23.8551  -26.2235 H   0  0  0  0  0  0  0  0  0  0  0  0
   -3.8974   25.5707  -26.6997 H   0  0  0  0  0  0  0  0  0  0  0  0
   -5.2911   24.4374  -26.6997 H   0  0  0  0  0  0  0  0  0  0  0  0
   -3.4249   25.0265  -28.8340 H   0  0  0  0  0  0  0  0  0  0  0  0
   -3.2680   23.2811  -28.3479 H   0  0  0  0  0  0  0  0  0  0  0  0
   -5.8610   23.4760  -28.4310 H   0  0  0  0  0  0  0  0  0  0  0  0
   -6.0833   25.7238  -29.0067 H   0  0  0  0  0  0  0  0  0  0  0  0
   -4.9696   25.4983  -30.3978 H   0  0  0  0  0  0  0  0  0  0  0  0
   -6.5795   24.7015  -30.3978 H   0  0  0  0  0  0  0  0  0  0  0  0
   -4.6206   21.8307  -29.5011 H   0  0  0  0  0  0  0  0  0  0  0  0
   -5.8645   22.5905  -30.6202 H   0  0  0  0  0  0  0  0  0  0  0  0
   -4.1441   23.8570  -31.7531 H   0  0  0  0  0  0  0  0  0  0  0  0
   -2.8863   23.2025  -30.6152 H   0  0  0  0  0  0  0  0  0  0  0  0
   -2.6177   21.8949  -32.5497 H   0  0  0  0  0  0  0  0  0  0  0  0
   -3.6389   20.8763  -31.4598 H   0  0  0  0  0  0  0  0  0  0  0  0
   -4.4770   22.2000  -34.0080 H   0  0  0  0  0  0  0  0  0  0  0  0
   -6.3214   23.4779  -32.5358 H   0  0  0  0  0  0  0  0  0  0  0  0
   -8.4931   24.4278  -31.7884 H   0  0  0  0  0  0  0  0  0  0  0  0
  -10.4461   22.9334  -31.4119 H   0  0  0  0  0  0  0  0  0  0  0  0
  -10.2354   20.4832  -31.7601 H   0  0  0  0  0  0  0  0  0  0  0  0
   -9.0040   18.2757  -30.8261 H   0  0  0  0  0  0  0  0  0  0  0  0
  -10.0011   18.5949  -32.2857 H   0  0  0  0  0  0  0  0  0  0  0  0
   -8.8150   17.2459  -32.2857 H   0  0  0  0  0  0  0  0  0  0  0  0
   -7.6349   16.6665  -33.3446 H   0  0  0  0  0  0  0  0  0  0  0  0
   -5.5501   15.7484  -34.3230 H   0  0  0  0  0  0  0  0  0  0  0  0
   -2.5405   16.7678  -33.9373 H   0  0  0  0  0  0  0  0  0  0  0  0
   -3.4269   16.1778  -35.3840 H   0  0  0  0  0  0  0  0  0  0  0  0
   -2.7001   17.8205  -35.3840 H   0  0  0  0  0  0  0  0  0  0  0  0
   -3.6658   19.6168  -33.9918 H   0  0  0  0  0  0  0  0  0  0  0  0
  1  2  1  0
  2  3  1  0
  3  4  1  0
  3  5  1  0
  5  6  1  0
  6  7  1  0
  7  8  1  0
  8  9  1  0
  9 10  2  0
 10 11  1  0
 11 12  2  0
 12 13  1  0
 13 14  2  0
 14 15  1  0
 15 16  2  0
 16 17  1  0
 16 18  1  0
 18 19  2  0
 19 20  1  0
 20 21  2  0
 21 22  1  0
 21 23  1  0
 23 24  2  0
 24  9  1  0
 15 10  1  0
 24 18  1  0
  1 25  1  0
  1 26  1  0
  1 27  1  0
  2 28  1  0
  2 29  1  0
  3 30  1  1
  4 31  1  0
  4 32  1  0
  4 33  1  0
  5 34  1  0
  5 35  1  0
  6 36  1  0
  6 37  1  0
  7 38  1  0
  7 39  1  0
  8 40  1  0
 11 41  1  0
 12 42  1  0
 13 43  1  0
 14 44  1  0
 17 45  1  0
 17 46  1  0
 17 47  1  0
 19 48  1  0
 20 49  1  0
 22 50  1  0
 22 51  1  0
 22 52  1  0
 23 53  1  0
M  CHG  2   3   1  16   1
M  END
>  <UniqueID>  (43) 
42

>  <SMILES>  (43) 
CC[N@@H+](C)CCCNc1c2ccccc2[n+](C)c2ccc(C)cc12

>  <Energy>  (43) 
81.14231765302942

>  <Genealogy>  (43) 
CC[NH+](C)CCCNc1c2ccccc2[n+](C)c2ccc(C)cc12 (protonated)
CC[N@@H+](C)CCCNc1c2ccccc2[n+](C)c2ccc(C)cc12 (chirality)
CC[N@@H+](C)CCCNc1c2ccccc2[n+](C)c2ccc(C)cc12 (3D coordinates assigned)
CC[N@@H+](C)CCCNc1c2ccccc2[n+](C)c2ccc(C)cc12 (optimized conformer: 81.14231765302942 kcal/mol)

>  <smiles>  (43) 
CCN(C)CCCNc1c2ccccc2[n+](C)c2ccc(C)cc12

>  <score_type>  (43) 
oracle

>  <origin>  (43) 
adg

>  <m_score__min__energy>  (43) 
-7.5

>  <m_primary>  (43) 
energy

$$$$
