0:0
     RDKit          3D

 36 38  0  0  0  0  0  0  0  0999 V2000
   -6.8590   14.8900  -34.2270 C   0  0  0  0  0  0  0  0  0  0  0  0
   -6.3620   16.2680  -33.8040 C   0  0  0  0  0  0  0  0  0  0  0  0
   -6.2430   17.1490  -34.9760 N   0  0  0  0  0  0  0  0  0  0  0  0
   -4.8510   17.5420  -35.2570 C   0  0  0  0  0  0  0  0  0  0  0  0
   -4.1280   18.1150  -34.0260 C   0  0  0  0  0  0  0  0  0  0  0  0
   -4.8990   19.1970  -33.4180 N   0  0  0  0  0  0  0  0  0  0  0  0
   -4.3870   20.3380  -32.8990 C   0  0  0  0  0  0  0  0  0  0  0  0
   -5.4450   21.0760  -32.4060 C   0  0  0  0  0  0  0  0  0  0  0  0
   -6.5590   20.3160  -32.6620 C   0  0  0  0  0  0  0  0  0  0  0  0
   -6.2180   19.1700  -33.2780 N   0  0  0  0  0  0  0  0  0  0  0  0
   -7.8380   20.7340  -32.2990 C   0  0  0  0  0  0  0  0  0  0  0  0
   -9.2490   19.7450  -32.6330 Cl  0  0  0  0  0  0  0  0  0  0  0  0
   -7.9670   21.9760  -31.6530 C   0  0  0  0  0  0  0  0  0  0  0  0
   -6.8280   22.7680  -31.3840 C   0  0  0  0  0  0  0  0  0  0  0  0
   -6.9700   23.9640  -30.7570 N   0  0  0  0  0  0  0  0  0  0  0  0
   -5.8940   24.7520  -30.4920 C   0  0  0  0  0  0  0  0  0  0  0  0
   -6.0780   26.0440  -29.7690 C   0  0  0  0  0  0  0  0  0  0  0  0
   -4.6450   24.3360  -30.8310 N   0  0  0  0  0  0  0  0  0  0  0  0
   -4.4370   23.1500  -31.4600 C   0  0  0  0  0  0  0  0  0  0  0  0
   -3.2610   22.8130  -31.7590 O   0  0  0  0  0  0  0  0  0  0  0  0
   -5.5330   22.3220  -31.7610 C   0  0  0  0  0  0  0  0  0  0  0  0
   -7.0761   14.2880  -33.3323 H   0  0  0  0  0  0  0  0  0  0  0  0
   -7.7746   14.9987  -34.8269 H   0  0  0  0  0  0  0  0  0  0  0  0
   -6.0848   14.3892  -34.8269 H   0  0  0  0  0  0  0  0  0  0  0  0
   -7.0744   16.7075  -33.0903 H   0  0  0  0  0  0  0  0  0  0  0  0
   -5.3735   16.1631  -33.3330 H   0  0  0  0  0  0  0  0  0  0  0  0
   -6.8350   17.9980  -34.8330 H   0  0  0  0  0  0  0  0  0  0  0  0
   -4.3003   16.6561  -35.6061 H   0  0  0  0  0  0  0  0  0  0  0  0
   -4.8803   18.3341  -36.0197 H   0  0  0  0  0  0  0  0  0  0  0  0
   -3.9890   17.3133  -33.2858 H   0  0  0  0  0  0  0  0  0  0  0  0
   -3.1562   18.5174  -34.3481 H   0  0  0  0  0  0  0  0  0  0  0  0
   -3.3251   20.6241  -32.8746 H   0  0  0  0  0  0  0  0  0  0  0  0
   -8.9632   22.3344  -31.3544 H   0  0  0  0  0  0  0  0  0  0  0  0
   -6.0524   25.8640  -28.6841 H   0  0  0  0  0  0  0  0  0  0  0  0
   -5.2695   26.7369  -30.0449 H   0  0  0  0  0  0  0  0  0  0  0  0
   -7.0478   26.4837  -30.0449 H   0  0  0  0  0  0  0  0  0  0  0  0
  1  2  1  0
  2  3  1  0
  3  4  1  0
  4  5  1  0
  5  6  1  0
  6  7  1  0
  7  8  2  0
  8  9  1  0
  9 10  2  0
  9 11  1  0
 11 12  1  0
 11 13  2  0
 13 14  1  0
 14 15  1  0
 15 16  1  0
 16 17  1  0
 16 18  2  0
 18 19  1  0
 19 20  2  0
 19 21  1  0
 10  6  1  0
 21 14  2  0
 21  8  1  0
  1 22  1  0
  1 23  1  0
  1 24  1  0
  2 25  1  0
  2 26  1  0
  3 27  1  0
  4 28  1  0
  4 29  1  0
  5 30  1  0
  5 31  1  0
  7 32  1  0
 13 33  1  0
 17 34  1  0
 17 35  1  0
 17 36  1  0
M  CHG  1  15  -1
M  END
>  <UniqueID>  (1) 
1

>  <SMILES>  (1) 
CCNCCn1cc2c(n1)c(Cl)cc1[n-]c(C)nc(=O)c12

>  <Energy>  (1) 
76.51732044633627

>  <Genealogy>  (1) 
CCNCCn1cc2c(n1)c(Cl)cc1[n-]c(C)nc(=O)c12 (protonated)
CCNCCn1cc2c(n1)c(Cl)cc1[n-]c(C)nc(=O)c12 (3D coordinates assigned)
CCNCCn1cc2c(n1)c(Cl)cc1[n-]c(C)nc(=O)c12 (optimized conformer: 76.51732044633627 kcal/mol)

>  <smiles>  (1) 
CCNCCn1cc2c(n1)c(Cl)cc1[nH]c(C)nc(=O)c12

>  <score_type>  (1) 
oracle

>  <origin>  (1) 
adg

>  <m_score__min__energy>  (1) 
-7.9299999999999997

>  <m_primary>  (1) 
energy

$$$$
1:0
     RDKit          3D

 61 63  0  0  0  0  0  0  0  0999 V2000
   -1.0490   18.6600  -32.9080 C   0  0  0  0  0  0  0  0  0  0  0  0
   -1.1210   19.3450  -34.2690 C   0  0  0  0  0  0  0  0  0  0  0  0
   -1.2440   20.8110  -34.0980 N   0  0  0  0  0  0  0  0  0  0  0  0
   -0.1110   21.5000  -34.7460 C   0  0  0  0  0  0  0  0  0  0  0  0
   -1.3070   21.1850  -32.6690 C   0  0  0  0  0  0  0  0  0  0  0  0
   -2.7590   21.3790  -32.2240 C   0  0  0  0  0  0  0  0  0  0  0  0
   -3.6740   21.0740  -33.3220 N   0  0  0  0  0  0  0  0  0  0  0  0
   -4.9710   20.5000  -33.0830 C   0  0  0  0  0  0  0  0  0  0  0  0
   -5.2640   19.2010  -33.5340 C   0  0  0  0  0  0  0  0  0  0  0  0
   -4.3360   18.4810  -34.3160 C   0  0  0  0  0  0  0  0  0  0  0  0
   -4.6450   17.2100  -34.7950 C   0  0  0  0  0  0  0  0  0  0  0  0
   -5.8860   16.6460  -34.5240 C   0  0  0  0  0  0  0  0  0  0  0  0
   -6.8200   17.3410  -33.7590 C   0  0  0  0  0  0  0  0  0  0  0  0
   -6.5240   18.6210  -33.2240 C   0  0  0  0  0  0  0  0  0  0  0  0
   -7.4290   19.3110  -32.4400 N   0  0  0  0  0  0  0  0  0  0  0  0
   -8.6060   18.6100  -31.8800 C   0  0  0  0  0  0  0  0  0  0  0  0
   -7.2250   20.6500  -32.1650 C   0  0  0  0  0  0  0  0  0  0  0  0
   -8.2450   21.4610  -31.6090 C   0  0  0  0  0  0  0  0  0  0  0  0
   -8.0060   22.7930  -31.2760 C   0  0  0  0  0  0  0  0  0  0  0  0
   -6.7580   23.3690  -31.4910 C   0  0  0  0  0  0  0  0  0  0  0  0
   -6.5700   24.7030  -31.0980 O   0  0  0  0  0  0  0  0  0  0  0  0
   -5.6850   25.1540  -30.0700 C   0  0  0  0  0  0  0  0  0  0  0  0
   -4.2190   24.9370  -30.4690 C   0  0  0  0  0  0  0  0  0  0  0  0
   -3.3900   24.5780  -29.2990 N   0  0  0  0  0  0  0  0  0  0  0  0
   -2.4430   23.4980  -29.6280 C   0  0  0  0  0  0  0  0  0  0  0  0
   -4.2500   24.1540  -28.1810 C   0  0  0  0  0  0  0  0  0  0  0  0
   -5.7490   22.6040  -32.0990 C   0  0  0  0  0  0  0  0  0  0  0  0
   -5.9740   21.2560  -32.4520 C   0  0  0  0  0  0  0  0  0  0  0  0
   -1.1284   19.4156  -32.1126 H   0  0  0  0  0  0  0  0  0  0  0  0
   -1.8766   17.9413  -32.8150 H   0  0  0  0  0  0  0  0  0  0  0  0
   -0.0901   18.1291  -32.8150 H   0  0  0  0  0  0  0  0  0  0  0  0
   -0.2062   19.1210  -34.8374 H   0  0  0  0  0  0  0  0  0  0  0  0
   -2.0016   18.9719  -34.8124 H   0  0  0  0  0  0  0  0  0  0  0  0
    0.5595   21.9078  -33.9752 H   0  0  0  0  0  0  0  0  0  0  0  0
    0.4426   20.7855  -35.3729 H   0  0  0  0  0  0  0  0  0  0  0  0
   -0.4907   22.3203  -35.3729 H   0  0  0  0  0  0  0  0  0  0  0  0
   -0.8481   20.3873  -32.0664 H   0  0  0  0  0  0  0  0  0  0  0  0
   -0.7641   22.1310  -32.5267 H   0  0  0  0  0  0  0  0  0  0  0  0
   -2.9715   20.7084  -31.3784 H   0  0  0  0  0  0  0  0  0  0  0  0
   -2.9022   22.4267  -31.9211 H   0  0  0  0  0  0  0  0  0  0  0  0
   -3.3990   21.3150  -34.3010 H   0  0  0  0  0  0  0  0  0  0  0  0
   -3.3585   18.9280  -34.5498 H   0  0  0  0  0  0  0  0  0  0  0  0
   -3.9058   16.6520  -35.3885 H   0  0  0  0  0  0  0  0  0  0  0  0
   -6.1315   15.6475  -34.9149 H   0  0  0  0  0  0  0  0  0  0  0  0
   -7.8043   16.8893  -33.5664 H   0  0  0  0  0  0  0  0  0  0  0  0
   -8.5604   18.6371  -30.7813 H   0  0  0  0  0  0  0  0  0  0  0  0
   -9.5258   19.1076  -32.2212 H   0  0  0  0  0  0  0  0  0  0  0  0
   -8.6066   17.5643  -32.2212 H   0  0  0  0  0  0  0  0  0  0  0  0
   -9.2431   21.0318  -31.4371 H   0  0  0  0  0  0  0  0  0  0  0  0
   -8.8144   23.3966  -30.8376 H   0  0  0  0  0  0  0  0  0  0  0  0
   -5.8547   26.2266  -29.8948 H   0  0  0  0  0  0  0  0  0  0  0  0
   -5.8877   24.5763  -29.1561 H   0  0  0  0  0  0  0  0  0  0  0  0
   -4.1657   24.1244  -31.2085 H   0  0  0  0  0  0  0  0  0  0  0  0
   -3.8325   25.8757  -30.8927 H   0  0  0  0  0  0  0  0  0  0  0  0
   -2.0547   23.0552  -28.6990 H   0  0  0  0  0  0  0  0  0  0  0  0
   -2.9590   22.7242  -30.2153 H   0  0  0  0  0  0  0  0  0  0  0  0
   -1.6084   23.9085  -30.2153 H   0  0  0  0  0  0  0  0  0  0  0  0
   -3.7580   24.3966  -27.2275 H   0  0  0  0  0  0  0  0  0  0  0  0
   -5.2143   24.6799  -28.2403 H   0  0  0  0  0  0  0  0  0  0  0  0
   -4.4200   23.0688  -28.2403 H   0  0  0  0  0  0  0  0  0  0  0  0
   -4.7698   23.0618  -32.3029 H   0  0  0  0  0  0  0  0  0  0  0  0
  1  2  1  0
  2  3  1  0
  3  4  1  0
  3  5  1  0
  5  6  1  0
  6  7  1  0
  7  8  1  0
  8  9  2  0
  9 10  1  0
 10 11  2  0
 11 12  1  0
 12 13  2  0
 13 14  1  0
 14 15  2  0
 15 16  1  0
 15 17  1  0
 17 18  2  0
 18 19  1  0
 19 20  2  0
 20 21  1  0
 21 22  1  0
 22 23  1  0
 23 24  1  0
 24 25  1  0
 24 26  1  0
 20 27  1  0
 27 28  2  0
 28  8  1  0
 14  9  1  0
 28 17  1  0
  1 29  1  0
  1 30  1  0
  1 31  1  0
  2 32  1  0
  2 33  1  0
  4 34  1  0
  4 35  1  0
  4 36  1  0
  5 37  1  0
  5 38  1  0
  6 39  1  0
  6 40  1  0
  7 41  1  0
 10 42  1  0
 11 43  1  0
 12 44  1  0
 13 45  1  0
 16 46  1  0
 16 47  1  0
 16 48  1  0
 18 49  1  0
 19 50  1  0
 22 51  1  0
 22 52  1  0
 23 53  1  0
 23 54  1  0
 25 55  1  0
 25 56  1  0
 25 57  1  0
 26 58  1  0
 26 59  1  0
 26 60  1  0
 27 61  1  0
M  CHG  1  15   1
M  END
>  <UniqueID>  (2) 
2

>  <SMILES>  (2) 
CCN(C)CCNc1c2ccccc2[n+](C)c2ccc(OCCN(C)C)cc12

>  <Energy>  (2) 
82.96429142354806

>  <Genealogy>  (2) 
CCN(C)CCNc1c2ccccc2[n+](C)c2ccc(OCCN(C)C)cc12 (3D coordinates assigned)
CCN(C)CCNc1c2ccccc2[n+](C)c2ccc(OCCN(C)C)cc12 (optimized conformer: 82.96429142354806 kcal/mol)

>  <smiles>  (2) 
CCN(C)CCNc1c2ccccc2[n+](C)c2ccc(OCCN(C)C)cc12

>  <score_type>  (2) 
oracle

>  <origin>  (2) 
adg

>  <m_score__min__energy>  (2) 
-8.7699999999999996

>  <m_primary>  (2) 
energy

$$$$
2:0
     RDKit          3D

 57 60  0  0  0  0  0  0  0  0999 V2000
   -5.5770   16.2640  -34.2010 C   0  0  0  0  0  0  0  0  0  0  0  0
   -6.8100   16.8280  -33.4810 C   0  0  0  0  0  0  0  0  0  0  0  0
   -6.6890   18.2770  -33.1740 N   0  0  2  0  0  0  0  0  0  0  0  0
   -5.3210   18.8020  -33.4650 C   0  0  0  0  0  0  0  0  0  0  0  0
   -5.2100   20.3040  -33.8360 C   0  0  0  0  0  0  0  0  0  0  0  0
   -4.4590   21.1240  -32.8310 C   0  0  0  0  0  0  0  0  0  0  0  0
   -4.9870   22.1220  -32.0170 C   0  0  0  0  0  0  0  0  0  0  0  0
   -4.0130   22.6500  -31.2420 N   0  0  0  0  0  0  0  0  0  0  0  0
   -4.2020   23.9600  -30.1210 S   0  0  0  0  0  0  0  0  0  0  0  0
   -3.9020   25.2520  -30.8310 O   0  0  0  0  0  0  0  0  0  0  0  0
   -5.6180   23.9980  -29.6130 O   0  0  0  0  0  0  0  0  0  0  0  0
   -3.1080   23.7280  -28.7610 C   0  0  0  0  0  0  0  0  0  0  0  0
   -3.0230   22.4730  -28.1400 C   0  0  0  0  0  0  0  0  0  0  0  0
   -2.1350   22.2740  -27.0800 C   0  0  0  0  0  0  0  0  0  0  0  0
   -1.3280   23.3280  -26.6340 C   0  0  0  0  0  0  0  0  0  0  0  0
   -0.1120   23.0540  -25.1910 Br  0  0  0  0  0  0  0  0  0  0  0  0
   -1.4130   24.5810  -27.2480 C   0  0  0  0  0  0  0  0  0  0  0  0
   -2.3020   24.7830  -28.3070 C   0  0  0  0  0  0  0  0  0  0  0  0
   -2.8780   21.9870  -31.5390 C   0  0  0  0  0  0  0  0  0  0  0  0
   -1.5990   22.1860  -31.0120 C   0  0  0  0  0  0  0  0  0  0  0  0
   -0.5550   21.3780  -31.4950 C   0  0  0  0  0  0  0  0  0  0  0  0
   -0.8030   20.4010  -32.4850 C   0  0  0  0  0  0  0  0  0  0  0  0
    0.2150   19.6320  -32.9430 F   0  0  0  0  0  0  0  0  0  0  0  0
   -2.0990   20.2240  -33.0020 C   0  0  0  0  0  0  0  0  0  0  0  0
   -3.1160   21.0400  -32.5040 C   0  0  0  0  0  0  0  0  0  0  0  0
   -7.1600   18.5860  -31.7970 C   0  0  0  0  0  0  0  0  0  0  0  0
   -7.9700   19.8650  -31.7220 C   0  0  0  0  0  0  0  0  0  0  0  0
   -9.1830   19.9800  -32.4270 C   0  0  0  0  0  0  0  0  0  0  0  0
   -9.9390   21.1520  -32.3460 C   0  0  0  0  0  0  0  0  0  0  0  0
   -9.4810   22.2280  -31.5810 C   0  0  0  0  0  0  0  0  0  0  0  0
   -8.2620   22.1380  -30.9030 C   0  0  0  0  0  0  0  0  0  0  0  0
   -7.5060   20.9640  -30.9770 C   0  0  0  0  0  0  0  0  0  0  0  0
   -4.8402   15.9270  -33.4570 H   0  0  0  0  0  0  0  0  0  0  0  0
   -5.8773   15.4137  -34.8309 H   0  0  0  0  0  0  0  0  0  0  0  0
   -5.1301   17.0472  -34.8309 H   0  0  0  0  0  0  0  0  0  0  0  0
   -7.6905   16.6777  -34.1230 H   0  0  0  0  0  0  0  0  0  0  0  0
   -6.9053   16.2949  -32.5235 H   0  0  0  0  0  0  0  0  0  0  0  0
   -7.3250   18.7790  -33.8380 H   0  0  0  0  0  0  0  0  0  0  0  0
   -4.7034   18.6342  -32.5704 H   0  0  0  0  0  0  0  0  0  0  0  0
   -4.9908   18.2596  -34.3632 H   0  0  0  0  0  0  0  0  0  0  0  0
   -4.6937   20.3844  -34.8039 H   0  0  0  0  0  0  0  0  0  0  0  0
   -6.2353   20.7011  -33.8699 H   0  0  0  0  0  0  0  0  0  0  0  0
   -6.0415   22.4351  -32.0059 H   0  0  0  0  0  0  0  0  0  0  0  0
   -3.6567   21.6441  -28.4883 H   0  0  0  0  0  0  0  0  0  0  0  0
   -2.0697   21.2887  -26.5954 H   0  0  0  0  0  0  0  0  0  0  0  0
   -0.7794   25.4089  -26.8971 H   0  0  0  0  0  0  0  0  0  0  0  0
   -2.3701   25.7710  -28.7857 H   0  0  0  0  0  0  0  0  0  0  0  0
   -1.4150   22.9510  -30.2433 H   0  0  0  0  0  0  0  0  0  0  0  0
    0.4631   21.5074  -31.0990 H   0  0  0  0  0  0  0  0  0  0  0  0
   -2.3044   19.4673  -33.7735 H   0  0  0  0  0  0  0  0  0  0  0  0
   -7.7865   17.7530  -31.4455 H   0  0  0  0  0  0  0  0  0  0  0  0
   -6.2687   18.7232  -31.1671 H   0  0  0  0  0  0  0  0  0  0  0  0
   -9.5377   19.1422  -33.0453 H   0  0  0  0  0  0  0  0  0  0  0  0
  -10.8951   21.2279  -32.8846 H   0  0  0  0  0  0  0  0  0  0  0  0
  -10.0809   23.1475  -31.5123 H   0  0  0  0  0  0  0  0  0  0  0  0
   -7.8974   22.9906  -30.3113 H   0  0  0  0  0  0  0  0  0  0  0  0
   -6.5429   20.8996  -30.4495 H   0  0  0  0  0  0  0  0  0  0  0  0
  1  2  1  0
  2  3  1  0
  3  4  1  0
  4  5  1  0
  5  6  1  0
  6  7  2  0
  7  8  1  0
  8  9  1  0
  9 10  2  0
  9 11  2  0
  9 12  1  0
 12 13  2  0
 13 14  1  0
 14 15  2  0
 15 16  1  0
 15 17  1  0
 17 18  2  0
  8 19  1  0
 19 20  2  0
 20 21  1  0
 21 22  2  0
 22 23  1  0
 22 24  1  0
 24 25  2  0
  3 26  1  0
 26 27  1  0
 27 28  2  0
 28 29  1  0
 29 30  2  0
 30 31  1  0
 31 32  2  0
 25  6  1  0
 32 27  1  0
 18 12  1  0
 25 19  1  0
  1 33  1  0
  1 34  1  0
  1 35  1  0
  2 36  1  0
  2 37  1  0
  3 38  1  6
  4 39  1  0
  4 40  1  0
  5 41  1  0
  5 42  1  0
  7 43  1  0
 13 44  1  0
 14 45  1  0
 17 46  1  0
 18 47  1  0
 20 48  1  0
 21 49  1  0
 24 50  1  0
 26 51  1  0
 26 52  1  0
 28 53  1  0
 29 54  1  0
 30 55  1  0
 31 56  1  0
 32 57  1  0
M  CHG  1   3   1
M  END
>  <UniqueID>  (3) 
3

>  <SMILES>  (3) 
CC[N@H+](CCc1cn(S(=O)(=O)c2ccc(Br)cc2)c2ccc(F)cc12)Cc1ccccc1

>  <Energy>  (3) 
98.94523726343972

>  <Genealogy>  (3) 
CC[NH+](CCc1cn(S(=O)(=O)c2ccc(Br)cc2)c2ccc(F)cc12)Cc1ccccc1 (protonated)
CC[N@H+](CCc1cn(S(=O)(=O)c2ccc(Br)cc2)c2ccc(F)cc12)Cc1ccccc1 (chirality)
CC[N@H+](CCc1cn(S(=O)(=O)c2ccc(Br)cc2)c2ccc(F)cc12)Cc1ccccc1 (3D coordinates assigned)
CC[N@H+](CCc1cn(S(=O)(=O)c2ccc(Br)cc2)c2ccc(F)cc12)Cc1ccccc1 (optimized conformer: 98.94523726343972 kcal/mol)

>  <smiles>  (3) 
CCN(CCc1cn(S(=O)(=O)c2ccc(Br)cc2)c2ccc(F)cc12)Cc1ccccc1

>  <score_type>  (3) 
oracle

>  <origin>  (3) 
adg

>  <m_score__min__energy>  (3) 
-9.5999999999999996

>  <m_primary>  (3) 
energy

$$$$
3:0
     RDKit          3D

 36 37  0  0  0  0  0  0  0  0999 V2000
   -5.8278   24.6472  -32.5737 H   0  0  0  0  0  0  0  0  0  0  0  0
   -6.1060   24.5390  -31.5150 C   0  0  0  0  0  0  0  0  0  0  0  0
   -5.3480   25.3420  -30.5350 C   0  0  0  0  0  0  0  0  0  0  0  0
   -5.9890   26.0630  -29.7230 O   0  0  0  0  0  0  0  0  0  0  0  0
   -3.9510   25.2720  -30.4660 O   0  0  0  0  0  0  0  0  0  0  0  0
   -3.2300   24.1160  -30.0430 C   0  0  0  0  0  0  0  0  0  0  0  0
   -2.2454   24.1062  -30.5333 H   0  0  0  0  0  0  0  0  0  0  0  0
   -3.8063   23.2211  -30.3207 H   0  0  0  0  0  0  0  0  0  0  0  0
   -3.0340   24.1200  -28.5250 C   0  0  0  0  0  0  0  0  0  0  0  0
   -3.1046   23.0869  -28.1538 H   0  0  0  0  0  0  0  0  0  0  0  0
   -3.8158   24.7532  -28.0801 H   0  0  0  0  0  0  0  0  0  0  0  0
   -1.6920   24.6880  -28.1370 C   0  0  0  0  0  0  0  0  0  0  0  0
   -1.6550   25.9260  -27.5740 N   0  0  0  0  0  0  0  0  0  0  0  0
   -0.4920   26.4930  -27.1640 C   0  0  0  0  0  0  0  0  0  0  0  0
   -0.4914   27.4981  -26.7170 H   0  0  0  0  0  0  0  0  0  0  0  0
    0.7020   25.7890  -27.3150 C   0  0  0  0  0  0  0  0  0  0  0  0
    1.6534   26.2334  -26.9874 H   0  0  0  0  0  0  0  0  0  0  0  0
    0.6800   24.5500  -27.8700 N   0  0  0  0  0  0  0  0  0  0  0  0
   -0.4800   23.9700  -28.2810 C   0  0  0  0  0  0  0  0  0  0  0  0
   -0.4200   22.6010  -28.8950 C   0  0  0  0  0  0  0  0  0  0  0  0
   -0.3868   21.8431  -28.0985 H   0  0  0  0  0  0  0  0  0  0  0  0
   -1.3119   22.4392  -29.5181 H   0  0  0  0  0  0  0  0  0  0  0  0
    0.4827   22.5179  -29.5181 H   0  0  0  0  0  0  0  0  0  0  0  0
   -7.1040   23.6890  -31.2290 C   0  0  0  0  0  0  0  0  0  0  0  0
   -7.9773   24.0935  -30.6963 H   0  0  0  0  0  0  0  0  0  0  0  0
   -7.1220   22.2540  -31.5730 C   0  0  0  0  0  0  0  0  0  0  0  0
   -8.3110   21.5240  -31.4270 C   0  0  0  0  0  0  0  0  0  0  0  0
   -9.2141   22.0181  -31.0393 H   0  0  0  0  0  0  0  0  0  0  0  0
   -8.3510   20.1700  -31.7730 C   0  0  0  0  0  0  0  0  0  0  0  0
   -9.2811   19.5974  -31.6423 H   0  0  0  0  0  0  0  0  0  0  0  0
   -7.2110   19.5420  -32.2850 C   0  0  0  0  0  0  0  0  0  0  0  0
   -7.2680   17.6920  -32.7530 Br  0  0  0  0  0  0  0  0  0  0  0  0
   -6.0320   20.2740  -32.4610 C   0  0  0  0  0  0  0  0  0  0  0  0
   -5.1371   19.7831  -32.8711 H   0  0  0  0  0  0  0  0  0  0  0  0
   -5.9890   21.6270  -32.1170 C   0  0  0  0  0  0  0  0  0  0  0  0
   -5.0650   22.2033  -32.2726 H   0  0  0  0  0  0  0  0  0  0  0  0
  1  2  1  0
  2  3  1  0
  3  4  2  0
  3  5  1  0
  5  6  1  0
  6  7  1  0
  6  8  1  0
  6  9  1  0
  9 10  1  0
  9 11  1  0
  9 12  1  0
 12 13  2  0
 13 14  1  0
 14 15  1  0
 14 16  2  0
 16 17  1  0
 16 18  1  0
 18 19  2  0
 19 20  1  0
 20 21  1  0
 20 22  1  0
 20 23  1  0
  2 24  2  0
 24 25  1  0
 24 26  1  0
 26 27  2  0
 27 28  1  0
 27 29  1  0
 29 30  1  0
 29 31  2  0
 31 32  1  0
 31 33  1  0
 33 34  1  0
 33 35  2  0
 35 36  1  0
 19 12  1  0
 35 26  1  0
M  END
>  <UniqueID>  (4) 
4

>  <SMILES>  (4) 
Cc1nccnc1CCOC(=O)/C=C\c1ccc(Br)cc1

>  <Energy>  (4) 
40.21489088064901

>  <Genealogy>  (4) 
Cc1nccnc1CCOC(=O)/C=C\c1ccc(Br)cc1 (cis-trans isomerization)
Cc1nccnc1CCOC(=O)/C=C\c1ccc(Br)cc1 (3D coordinates assigned)
Cc1nccnc1CCOC(=O)/C=C\c1ccc(Br)cc1 (optimized conformer: 40.21489088064901 kcal/mol)

>  <smiles>  (4) 
Cc1nccnc1CCOC(=O)C=Cc1ccc(Br)cc1

>  <score_type>  (4) 
oracle

>  <origin>  (4) 
adg

>  <m_score__min__energy>  (4) 
-8.2899999999999991

>  <m_primary>  (4) 
energy

$$$$
4:0
     RDKit          3D

 52 51  0  0  0  0  0  0  0  0999 V2000
   -2.5470   22.8430  -29.8730 C   0  0  0  0  0  0  0  0  0  0  0  0
   -3.7300   21.9050  -29.6660 C   0  0  0  0  0  0  0  0  0  0  0  0
   -4.9500   22.5030  -30.2220 N   0  0  0  0  0  0  0  0  0  0  0  0
   -4.8430   23.9680  -30.2210 C   0  0  0  0  0  0  0  0  0  0  0  0
   -5.9150   24.5990  -31.1220 C   0  0  0  0  0  0  0  0  0  0  0  0
   -6.3070   23.7530  -32.3550 C   0  0  0  0  0  0  0  0  0  0  0  0
   -7.0070   22.4970  -32.0360 N   0  0  0  0  0  0  0  0  0  0  0  0
   -7.9870   22.6240  -30.9460 C   0  0  0  0  0  0  0  0  0  0  0  0
   -9.2440   21.8050  -31.2660 C   0  0  0  0  0  0  0  0  0  0  0  0
   -8.9850   20.2890  -31.3030 C   0  0  0  0  0  0  0  0  0  0  0  0
   -8.7160   19.7490  -32.7160 C   0  0  0  0  0  0  0  0  0  0  0  0
   -7.3080   19.9480  -33.0880 N   0  0  0  0  0  0  0  0  0  0  0  0
   -6.6520   18.6760  -33.4210 C   0  0  0  0  0  0  0  0  0  0  0  0
   -5.2290   18.9340  -33.9350 C   0  0  0  0  0  0  0  0  0  0  0  0
   -4.3280   19.5400  -32.8570 C   0  0  0  0  0  0  0  0  0  0  0  0
   -4.7230   20.9350  -32.5890 N   0  0  0  0  0  0  0  0  0  0  0  0
   -3.7630   21.8870  -33.1590 C   0  0  0  0  0  0  0  0  0  0  0  0
   -2.4370   21.1900  -33.4410 C   0  0  0  0  0  0  0  0  0  0  0  0
   -2.1520   23.1562  -28.8953 H   0  0  0  0  0  0  0  0  0  0  0  0
   -1.7595   22.3212  -30.4365 H   0  0  0  0  0  0  0  0  0  0  0  0
   -2.8756   23.7287  -30.4365 H   0  0  0  0  0  0  0  0  0  0  0  0
   -3.5297   20.9492  -30.1724 H   0  0  0  0  0  0  0  0  0  0  0  0
   -3.8708   21.7348  -28.5884 H   0  0  0  0  0  0  0  0  0  0  0  0
   -5.0380   22.1900  -31.2180 H   0  0  0  0  0  0  0  0  0  0  0  0
   -4.9740   24.3375  -29.1932 H   0  0  0  0  0  0  0  0  0  0  0  0
   -3.8517   24.2472  -30.6076 H   0  0  0  0  0  0  0  0  0  0  0  0
   -6.8190   24.7602  -30.5164 H   0  0  0  0  0  0  0  0  0  0  0  0
   -5.4812   25.5315  -31.5121 H   0  0  0  0  0  0  0  0  0  0  0  0
   -6.9651   24.3606  -32.9935 H   0  0  0  0  0  0  0  0  0  0  0  0
   -5.3674   23.4701  -32.8520 H   0  0  0  0  0  0  0  0  0  0  0  0
   -6.3230   21.7390  -31.8200 H   0  0  0  0  0  0  0  0  0  0  0  0
   -7.5406   22.2543  -30.0111 H   0  0  0  0  0  0  0  0  0  0  0  0
   -8.2664   23.6822  -30.8359 H   0  0  0  0  0  0  0  0  0  0  0  0
  -10.0017   22.0118  -30.4958 H   0  0  0  0  0  0  0  0  0  0  0  0
   -9.5829   22.1038  -32.2689 H   0  0  0  0  0  0  0  0  0  0  0  0
   -8.1099   20.0695  -30.6737 H   0  0  0  0  0  0  0  0  0  0  0  0
   -9.8967   19.7953  -30.9354 H   0  0  0  0  0  0  0  0  0  0  0  0
   -8.9481   18.6741  -32.7422 H   0  0  0  0  0  0  0  0  0  0  0  0
   -9.3512   20.2937  -33.4300 H   0  0  0  0  0  0  0  0  0  0  0  0
   -6.8160   20.3610  -32.2610 H   0  0  0  0  0  0  0  0  0  0  0  0
   -6.6048   18.0447  -32.5214 H   0  0  0  0  0  0  0  0  0  0  0  0
   -7.2311   18.1674  -34.2058 H   0  0  0  0  0  0  0  0  0  0  0  0
   -4.7932   17.9798  -34.2661 H   0  0  0  0  0  0  0  0  0  0  0  0
   -5.2941   19.6528  -34.7651 H   0  0  0  0  0  0  0  0  0  0  0  0
   -4.4216   18.9517  -31.9322 H   0  0  0  0  0  0  0  0  0  0  0  0
   -3.2859   19.5231  -33.2088 H   0  0  0  0  0  0  0  0  0  0  0  0
   -5.6570   21.1060  -33.0320 H   0  0  0  0  0  0  0  0  0  0  0  0
   -4.1673   22.2929  -34.0980 H   0  0  0  0  0  0  0  0  0  0  0  0
   -3.5949   22.7022  -32.4399 H   0  0  0  0  0  0  0  0  0  0  0  0
   -1.9482   20.9331  -32.4896 H   0  0  0  0  0  0  0  0  0  0  0  0
   -2.6208   20.2720  -34.0184 H   0  0  0  0  0  0  0  0  0  0  0  0
   -1.7851   21.8620  -34.0184 H   0  0  0  0  0  0  0  0  0  0  0  0
  1  2  1  0
  2  3  1  0
  3  4  1  0
  4  5  1  0
  5  6  1  0
  6  7  1  0
  7  8  1  0
  8  9  1  0
  9 10  1  0
 10 11  1  0
 11 12  1  0
 12 13  1  0
 13 14  1  0
 14 15  1  0
 15 16  1  0
 16 17  1  0
 17 18  1  0
  1 19  1  0
  1 20  1  0
  1 21  1  0
  2 22  1  0
  2 23  1  0
  3 24  1  0
  4 25  1  0
  4 26  1  0
  5 27  1  0
  5 28  1  0
  6 29  1  0
  6 30  1  0
  7 31  1  0
  8 32  1  0
  8 33  1  0
  9 34  1  0
  9 35  1  0
 10 36  1  0
 10 37  1  0
 11 38  1  0
 11 39  1  0
 12 40  1  0
 13 41  1  0
 13 42  1  0
 14 43  1  0
 14 44  1  0
 15 45  1  0
 15 46  1  0
 16 47  1  0
 17 48  1  0
 17 49  1  0
 18 50  1  0
 18 51  1  0
 18 52  1  0
M  END
>  <UniqueID>  (5) 
5

>  <SMILES>  (5) 
CCNCCCNCCCCNCCCNCC

>  <Energy>  (5) 
30.701219514808336

>  <Genealogy>  (5) 
CCNCCCNCCCCNCCCNCC (3D coordinates assigned)
CCNCCCNCCCCNCCCNCC (optimized conformer: 30.701219514808336 kcal/mol)

>  <smiles>  (5) 
CCNCCCNCCCCNCCCNCC

>  <score_type>  (5) 
oracle

>  <origin>  (5) 
adg

>  <m_score__min__energy>  (5) 
-4.6900000000000004

>  <m_primary>  (5) 
energy

$$$$
5:0
     RDKit          3D

 42 43  0  0  0  0  0  0  0  0999 V2000
   -1.0030   22.3500  -35.2630 H   0  0  0  0  0  0  0  0  0  0  0  0
   -0.0070   22.6460  -35.3490 N   0  0  0  0  0  0  0  0  0  0  0  0
    1.0000   21.9020  -35.0100 C   0  0  0  0  0  0  0  0  0  0  0  0
    1.1060   21.3060  -33.7430 O   0  0  0  0  0  0  0  0  0  0  0  0
    1.4430   19.9400  -33.4790 C   0  0  1  0  0  0  0  0  0  0  0  0
    2.4864   19.7523  -33.7725 H   0  0  0  0  0  0  0  0  0  0  0  0
    1.3270   19.6410  -31.9770 C   0  0  0  0  0  0  0  0  0  0  0  0
    1.6661   20.5152  -31.4019 H   0  0  0  0  0  0  0  0  0  0  0  0
    0.2785   19.4217  -31.7267 H   0  0  0  0  0  0  0  0  0  0  0  0
    1.9532   18.7720  -31.7267 H   0  0  0  0  0  0  0  0  0  0  0  0
    0.5280   19.0220  -34.3080 C   0  0  0  0  0  0  0  0  0  0  0  0
    0.6011   19.3142  -35.3660 H   0  0  0  0  0  0  0  0  0  0  0  0
    0.8629   17.9864  -34.1489 H   0  0  0  0  0  0  0  0  0  0  0  0
   -0.9120   19.1050  -33.8840 C   0  0  0  0  0  0  0  0  0  0  0  0
   -1.4870   18.0710  -33.4480 O   0  0  0  0  0  0  0  0  0  0  0  0
   -1.5960   20.3690  -33.9050 N   0  0  0  0  0  0  0  0  0  0  0  0
   -1.0250   21.2280  -34.0740 H   0  0  0  0  0  0  0  0  0  0  0  0
   -2.9810   20.5420  -33.5650 C   0  0  0  0  0  0  0  0  0  0  0  0
   -3.8840   19.4990  -33.8100 C   0  0  0  0  0  0  0  0  0  0  0  0
   -3.5275   18.5669  -34.2727 H   0  0  0  0  0  0  0  0  0  0  0  0
   -5.2330   19.6320  -33.4720 C   0  0  0  0  0  0  0  0  0  0  0  0
   -5.9326   18.8100  -33.6838 H   0  0  0  0  0  0  0  0  0  0  0  0
   -5.7030   20.8090  -32.8630 C   0  0  0  0  0  0  0  0  0  0  0  0
   -7.1360   20.9510  -32.4980 C   0  0  0  0  0  0  0  0  0  0  0  0
   -8.0290   19.8750  -32.6720 C   0  0  0  0  0  0  0  0  0  0  0  0
   -7.6625   18.9210  -33.0789 H   0  0  0  0  0  0  0  0  0  0  0  0
   -9.3770   20.0120  -32.3310 C   0  0  0  0  0  0  0  0  0  0  0  0
  -10.0665   19.1660  -32.4684 H   0  0  0  0  0  0  0  0  0  0  0  0
   -9.8510   21.2210  -31.8160 C   0  0  0  0  0  0  0  0  0  0  0  0
  -10.9136   21.3279  -31.5524 H   0  0  0  0  0  0  0  0  0  0  0  0
   -8.9750   22.2940  -31.6360 C   0  0  0  0  0  0  0  0  0  0  0  0
   -9.3477   23.2443  -31.2261 H   0  0  0  0  0  0  0  0  0  0  0  0
   -7.6250   22.1620  -31.9760 C   0  0  0  0  0  0  0  0  0  0  0  0
   -6.9406   23.0114  -31.8342 H   0  0  0  0  0  0  0  0  0  0  0  0
   -4.7910   21.8460  -32.5950 C   0  0  0  0  0  0  0  0  0  0  0  0
   -5.1421   22.7700  -32.1124 H   0  0  0  0  0  0  0  0  0  0  0  0
   -3.4420   21.7120  -32.9370 C   0  0  0  0  0  0  0  0  0  0  0  0
   -2.7375   22.5267  -32.7134 H   0  0  0  0  0  0  0  0  0  0  0  0
    2.0810   21.6460  -36.0070 C   0  0  0  0  0  0  0  0  0  0  0  0
    3.0206   21.4235  -35.4801 H   0  0  0  0  0  0  0  0  0  0  0  0
    1.8025   20.7890  -36.6378 H   0  0  0  0  0  0  0  0  0  0  0  0
    2.2165   22.5369  -36.6378 H   0  0  0  0  0  0  0  0  0  0  0  0
  1  2  1  0
  2  3  2  0
  3  4  1  0
  4  5  1  0
  5  6  1  6
  5  7  1  0
  7  8  1  0
  7  9  1  0
  7 10  1  0
  5 11  1  0
 11 12  1  0
 11 13  1  0
 11 14  1  0
 14 15  2  0
 14 16  1  0
 16 17  1  0
 16 18  1  0
 18 19  2  0
 19 20  1  0
 19 21  1  0
 21 22  1  0
 21 23  2  0
 23 24  1  0
 24 25  2  0
 25 26  1  0
 25 27  1  0
 27 28  1  0
 27 29  2  0
 29 30  1  0
 29 31  1  0
 31 32  1  0
 31 33  2  0
 33 34  1  0
 23 35  1  0
 35 36  1  0
 35 37  2  0
 37 38  1  0
  3 39  1  0
 39 40  1  0
 39 41  1  0
 39 42  1  0
 37 18  1  0
 33 24  1  0
M  END
>  <UniqueID>  (6) 
6

>  <SMILES>  (6) 
[H]/N=C(/C)O[C@@H](C)CC(=O)Nc1ccc(-c2ccccc2)cc1

>  <Energy>  (6) 
44.69963978171913

>  <Genealogy>  (6) 
CC(=N)O[C@@H](C)CC(=O)Nc1ccc(-c2ccccc2)cc1 (chirality)
[H]/N=C(/C)O[C@@H](C)CC(=O)Nc1ccc(-c2ccccc2)cc1 (cis-trans isomerization)
[H]/N=C(/C)O[C@@H](C)CC(=O)Nc1ccc(-c2ccccc2)cc1 (3D coordinates assigned)
[H]/N=C(/C)O[C@@H](C)CC(=O)Nc1ccc(-c2ccccc2)cc1 (optimized conformer: 44.69963978171913 kcal/mol)

>  <smiles>  (6) 
CC(=N)OC(C)CC(=O)Nc1ccc(-c2ccccc2)cc1

>  <score_type>  (6) 
oracle

>  <origin>  (6) 
adg

>  <m_score__min__energy>  (6) 
-7.1500000000000004

>  <m_primary>  (6) 
energy

$$$$
6:0
     RDKit          3D

 68 71  0  0  0  0  0  0  0  0999 V2000
   -6.1440   17.4850  -31.3020 C   0  0  0  0  0  0  0  0  0  0  0  0
   -5.0250   17.2090  -32.3180 C   0  0  0  0  0  0  0  0  0  0  0  0
   -5.0340   18.1330  -33.4760 N   0  0  0  0  0  0  0  0  0  0  0  0
   -6.1380   17.8460  -34.4180 C   0  0  0  0  0  0  0  0  0  0  0  0
   -6.6240   16.4060  -34.2720 C   0  0  0  0  0  0  0  0  0  0  0  0
   -3.7090   18.2420  -34.1320 C   0  0  0  0  0  0  0  0  0  0  0  0
   -2.6170   17.7740  -33.1680 C   0  0  0  0  0  0  0  0  0  0  0  0
   -2.2890   18.8130  -32.2620 O   0  0  0  0  0  0  0  0  0  0  0  0
   -0.9280   18.7470  -31.8710 C   0  0  0  0  0  0  0  0  0  0  0  0
   -0.2080   20.0650  -32.1890 C   0  0  0  0  0  0  0  0  0  0  0  0
   -0.2890   20.4030  -33.6890 C   0  0  0  0  0  0  0  0  0  0  0  0
   -1.1580   21.5610  -33.9620 N   0  0  0  0  0  0  0  0  0  0  0  0
   -2.5900   21.2740  -33.7800 C   0  0  0  0  0  0  0  0  0  0  0  0
   -3.0570   21.6230  -32.3630 C   0  0  0  0  0  0  0  0  0  0  0  0
   -4.1960   20.8000  -31.9530 N   0  0  0  0  0  0  0  0  0  0  0  0
   -5.3610   21.4080  -31.3890 C   0  0  0  0  0  0  0  0  0  0  0  0
   -5.4230   22.5140  -30.5420 C   0  0  0  0  0  0  0  0  0  0  0  0
   -4.2820   23.1620  -29.8680 C   0  0  0  0  0  0  0  0  0  0  0  0
   -3.4220   22.6300  -29.0070 C   0  0  0  0  0  0  0  0  0  0  0  0
   -3.4070   21.3470  -28.4470 C   0  0  0  0  0  0  0  0  0  0  0  0
   -2.3850   21.0290  -27.5360 C   0  0  0  0  0  0  0  0  0  0  0  0
   -2.3270   19.2930  -26.7420 Br  0  0  0  0  0  0  0  0  0  0  0  0
   -1.4020   21.9850  -27.2040 C   0  0  0  0  0  0  0  0  0  0  0  0
   -1.4350   23.2690  -27.7720 C   0  0  0  0  0  0  0  0  0  0  0  0
   -2.4580   23.5710  -28.6710 C   0  0  0  0  0  0  0  0  0  0  0  0
   -2.6100   24.7130  -29.2640 N   0  0  0  0  0  0  0  0  0  0  0  0
   -3.7710   24.5140  -30.0610 C   0  0  0  0  0  0  0  0  0  0  0  0
   -4.2380   25.3800  -30.8460 O   0  0  0  0  0  0  0  0  0  0  0  0
   -6.7110   22.8830  -30.3260 N   0  0  0  0  0  0  0  0  0  0  0  0
   -7.4460   22.0090  -31.0430 C   0  0  0  0  0  0  0  0  0  0  0  0
   -8.8350   21.9920  -31.1640 C   0  0  0  0  0  0  0  0  0  0  0  0
   -9.4140   21.0100  -31.9890 C   0  0  0  0  0  0  0  0  0  0  0  0
   -8.6010   20.0770  -32.6700 C   0  0  0  0  0  0  0  0  0  0  0  0
   -7.2020   20.1170  -32.5320 C   0  0  0  0  0  0  0  0  0  0  0  0
   -6.6620   21.0940  -31.6980 C   0  0  0  0  0  0  0  0  0  0  0  0
   -5.7452   17.3866  -30.2816 H   0  0  0  0  0  0  0  0  0  0  0  0
   -6.5289   18.5050  -31.4485 H   0  0  0  0  0  0  0  0  0  0  0  0
   -6.9591   16.7610  -31.4485 H   0  0  0  0  0  0  0  0  0  0  0  0
   -4.0572   17.3050  -31.8040 H   0  0  0  0  0  0  0  0  0  0  0  0
   -5.1905   16.1957  -32.7127 H   0  0  0  0  0  0  0  0  0  0  0  0
   -6.9741   18.5302  -34.2110 H   0  0  0  0  0  0  0  0  0  0  0  0
   -5.7678   17.9877  -35.4441 H   0  0  0  0  0  0  0  0  0  0  0  0
   -6.7090   16.1541  -33.2046 H   0  0  0  0  0  0  0  0  0  0  0  0
   -7.6076   16.3004  -34.7531 H   0  0  0  0  0  0  0  0  0  0  0  0
   -5.9056   15.7260  -34.7531 H   0  0  0  0  0  0  0  0  0  0  0  0
   -3.6947   17.6128  -35.0342 H   0  0  0  0  0  0  0  0  0  0  0  0
   -3.5250   19.2902  -34.4101 H   0  0  0  0  0  0  0  0  0  0  0  0
   -2.9786   16.9010  -32.6049 H   0  0  0  0  0  0  0  0  0  0  0  0
   -1.7202   17.5026  -33.7443 H   0  0  0  0  0  0  0  0  0  0  0  0
   -0.8719   18.5567  -30.7890 H   0  0  0  0  0  0  0  0  0  0  0  0
   -0.4391   17.9336  -32.4272 H   0  0  0  0  0  0  0  0  0  0  0  0
   -0.6771   20.8767  -31.6136 H   0  0  0  0  0  0  0  0  0  0  0  0
    0.8519   19.9545  -31.9163 H   0  0  0  0  0  0  0  0  0  0  0  0
    0.7237   20.6283  -34.0547 H   0  0  0  0  0  0  0  0  0  0  0  0
   -0.7216   19.5326  -34.2041 H   0  0  0  0  0  0  0  0  0  0  0  0
   -0.9990   21.8940  -34.9410 H   0  0  0  0  0  0  0  0  0  0  0  0
   -3.1683   21.8677  -34.5033 H   0  0  0  0  0  0  0  0  0  0  0  0
   -2.7494   20.1975  -33.9406 H   0  0  0  0  0  0  0  0  0  0  0  0
   -2.2257   21.4567  -31.6621 H   0  0  0  0  0  0  0  0  0  0  0  0
   -3.3731   22.6766  -32.3546 H   0  0  0  0  0  0  0  0  0  0  0  0
   -4.2980   19.8370  -32.3450 H   0  0  0  0  0  0  0  0  0  0  0  0
   -4.1756   20.6065  -28.7132 H   0  0  0  0  0  0  0  0  0  0  0  0
   -0.6033   21.7226  -26.4946 H   0  0  0  0  0  0  0  0  0  0  0  0
   -0.6724   24.0186  -27.5141 H   0  0  0  0  0  0  0  0  0  0  0  0
   -9.4593   22.7240  -30.6307 H   0  0  0  0  0  0  0  0  0  0  0  0
  -10.5072   20.9687  -32.1044 H   0  0  0  0  0  0  0  0  0  0  0  0
   -9.0651   19.3142  -33.3124 H   0  0  0  0  0  0  0  0  0  0  0  0
   -6.5568   19.4022  -33.0637 H   0  0  0  0  0  0  0  0  0  0  0  0
  1  2  1  0
  2  3  1  0
  3  4  1  0
  4  5  1  0
  3  6  1  0
  6  7  1  0
  7  8  1  0
  8  9  1  0
  9 10  1  0
 10 11  1  0
 11 12  1  0
 12 13  1  0
 13 14  1  0
 14 15  1  0
 15 16  1  0
 16 17  2  0
 17 18  1  0
 18 19  2  0
 19 20  1  0
 20 21  2  0
 21 22  1  0
 21 23  1  0
 23 24  2  0
 24 25  1  0
 25 26  2  0
 26 27  1  0
 27 28  2  0
 17 29  1  0
 29 30  1  0
 30 31  2  0
 31 32  1  0
 32 33  2  0
 33 34  1  0
 34 35  2  0
 35 16  1  0
 27 18  1  0
 35 30  1  0
 25 19  1  0
  1 36  1  0
  1 37  1  0
  1 38  1  0
  2 39  1  0
  2 40  1  0
  4 41  1  0
  4 42  1  0
  5 43  1  0
  5 44  1  0
  5 45  1  0
  6 46  1  0
  6 47  1  0
  7 48  1  0
  7 49  1  0
  9 50  1  0
  9 51  1  0
 10 52  1  0
 10 53  1  0
 11 54  1  0
 11 55  1  0
 12 56  1  0
 13 57  1  0
 13 58  1  0
 14 59  1  0
 14 60  1  0
 15 61  1  0
 20 62  1  0
 23 63  1  0
 24 64  1  0
 31 65  1  0
 32 66  1  0
 33 67  1  0
 34 68  1  0
M  CHG  1  29  -1
M  END
>  <UniqueID>  (7) 
7

>  <SMILES>  (7) 
CCN(CC)CCOCCCNCCNc1c(C2=c3cc(Br)ccc3=NC2=O)[n-]c2ccccc12

>  <Energy>  (7) 
142.83966749878766

>  <Genealogy>  (7) 
CCN(CC)CCOCCCNCCNc1c(C2=c3cc(Br)ccc3=NC2=O)[n-]c2ccccc12 (protonated)
CCN(CC)CCOCCCNCCNc1c(C2=c3cc(Br)ccc3=NC2=O)[n-]c2ccccc12 (3D coordinates assigned)
CCN(CC)CCOCCCNCCNc1c(C2=c3cc(Br)ccc3=NC2=O)[n-]c2ccccc12 (nonaromatic ring conformer: 142.83966749878766 kcal/mol)

>  <smiles>  (7) 
CCN(CC)CCOCCCNCCNc1c(C2=c3cc(Br)ccc3=NC2=O)[nH]c2ccccc12

>  <score_type>  (7) 
oracle

>  <origin>  (7) 
adg

>  <m_score__min__energy>  (7) 
-10.77

>  <m_primary>  (7) 
energy

$$$$
7:0
     RDKit          3D

 30 32  0  0  0  0  0  0  0  0999 V2000
   -6.3440   22.7070  -29.4150 C   0  0  0  0  0  0  0  0  0  0  0  0
   -5.7240   23.8830  -30.0160 N   0  0  0  0  0  0  0  0  0  0  0  0
   -6.2400   25.1220  -30.0890 C   0  0  0  0  0  0  0  0  0  0  0  0
   -5.3420   25.9920  -30.5900 N   0  0  0  0  0  0  0  0  0  0  0  0
   -4.2300   25.3120  -30.8330 N   0  0  0  0  0  0  0  0  0  0  0  0
   -4.4680   24.0370  -30.4780 C   0  0  0  0  0  0  0  0  0  0  0  0
   -3.2440   22.7290  -30.5990 S   0  0  0  0  0  0  0  0  0  0  0  0
   -3.7070   22.2380  -32.2980 C   0  0  0  0  0  0  0  0  0  0  0  0
   -4.8180   21.2190  -32.2780 C   0  0  0  0  0  0  0  0  0  0  0  0
   -4.5090   19.8620  -32.1020 C   0  0  0  0  0  0  0  0  0  0  0  0
   -5.4700   18.9480  -32.0250 O   0  0  0  0  0  0  0  0  0  0  0  0
   -6.7600   19.2560  -32.1030 C   0  0  0  0  0  0  0  0  0  0  0  0
   -7.7210   18.2440  -32.0080 C   0  0  0  0  0  0  0  0  0  0  0  0
   -9.0800   18.5580  -32.0830 C   0  0  0  0  0  0  0  0  0  0  0  0
   -9.4870   19.8840  -32.2560 C   0  0  0  0  0  0  0  0  0  0  0  0
   -8.5360   20.9030  -32.3550 C   0  0  0  0  0  0  0  0  0  0  0  0
   -7.1640   20.5990  -32.2810 C   0  0  0  0  0  0  0  0  0  0  0  0
   -6.1710   21.5890  -32.3710 C   0  0  0  0  0  0  0  0  0  0  0  0
   -6.4910   22.8000  -32.5300 O   0  0  0  0  0  0  0  0  0  0  0  0
   -6.3006   22.7894  -28.3189 H   0  0  0  0  0  0  0  0  0  0  0  0
   -7.3939   22.6414  -29.7365 H   0  0  0  0  0  0  0  0  0  0  0  0
   -5.8049   21.8036  -29.7365 H   0  0  0  0  0  0  0  0  0  0  0  0
   -7.2612   25.3902  -29.7803 H   0  0  0  0  0  0  0  0  0  0  0  0
   -4.0435   23.1273  -32.8511 H   0  0  0  0  0  0  0  0  0  0  0  0
   -2.8287   21.7917  -32.7873 H   0  0  0  0  0  0  0  0  0  0  0  0
   -3.4567   19.5505  -32.0267 H   0  0  0  0  0  0  0  0  0  0  0  0
   -7.4058   17.1987  -31.8739 H   0  0  0  0  0  0  0  0  0  0  0  0
   -9.8323   17.7592  -32.0057 H   0  0  0  0  0  0  0  0  0  0  0  0
  -10.5585   20.1259  -32.3143 H   0  0  0  0  0  0  0  0  0  0  0  0
   -8.8606   21.9452  -32.4911 H   0  0  0  0  0  0  0  0  0  0  0  0
  1  2  1  0
  2  3  1  0
  3  4  2  0
  4  5  1  0
  5  6  2  0
  6  7  1  0
  7  8  1  0
  8  9  1  0
  9 10  2  0
 10 11  1  0
 11 12  1  0
 12 13  2  0
 13 14  1  0
 14 15  2  0
 15 16  1  0
 16 17  2  0
 17 18  1  0
 18 19  2  0
  6  2  1  0
 18  9  1  0
 17 12  1  0
  1 20  1  0
  1 21  1  0
  1 22  1  0
  3 23  1  0
  8 24  1  0
  8 25  1  0
 10 26  1  0
 13 27  1  0
 14 28  1  0
 15 29  1  0
 16 30  1  0
M  END
>  <UniqueID>  (8) 
8

>  <SMILES>  (8) 
Cn1cnnc1SCc1coc2ccccc2c1=O

>  <Energy>  (8) 
66.82020198427658

>  <Genealogy>  (8) 
Cn1cnnc1SCc1coc2ccccc2c1=O (3D coordinates assigned)
Cn1cnnc1SCc1coc2ccccc2c1=O (optimized conformer: 66.82020198427658 kcal/mol)

>  <smiles>  (8) 
Cn1cnnc1SCc1coc2ccccc2c1=O

>  <score_type>  (8) 
oracle

>  <origin>  (8) 
adg

>  <m_score__min__energy>  (8) 
-7.4100000000000001

>  <m_primary>  (8) 
energy

$$$$
8:0
     RDKit          3D

 48 48  0  0  0  0  0  0  0  0999 V2000
   -5.2460   17.1320  -34.2950 C   0  0  0  0  0  0  0  0  0  0  0  0
   -5.8140   18.5050  -34.6830 C   0  0  0  0  0  0  0  0  0  0  0  0
   -6.0720   19.4230  -33.5430 N   0  0  0  0  0  0  0  0  0  0  0  0
   -7.3760   19.2340  -32.8690 C   0  0  0  0  0  0  0  0  0  0  0  0
   -7.3330   18.2280  -31.7190 C   0  0  0  0  0  0  0  0  0  0  0  0
   -4.9430   19.6840  -32.6250 C   0  0  0  0  0  0  0  0  0  0  0  0
   -3.7950   20.4150  -33.3450 C   0  0  0  0  0  0  0  0  0  0  0  0
   -3.0490   21.2280  -32.4560 O   0  0  0  0  0  0  0  0  0  0  0  0
   -2.2890   20.4520  -31.5450 C   0  0  0  0  0  0  0  0  0  0  0  0
   -1.8590   21.3340  -30.3740 C   0  0  0  0  0  0  0  0  0  0  0  0
   -2.0790   22.7450  -30.7070 N   0  0  0  0  0  0  0  0  0  0  0  0
   -1.8440   23.6090  -29.5430 C   0  0  0  0  0  0  0  0  0  0  0  0
   -3.0840   24.4670  -29.2780 C   0  0  0  0  0  0  0  0  0  0  0  0
   -3.8690   24.6090  -30.4640 O   0  0  0  0  0  0  0  0  0  0  0  0
   -5.0800   23.9490  -30.7270 C   0  0  0  0  0  0  0  0  0  0  0  0
   -5.3530   23.3170  -31.9560 C   0  0  0  0  0  0  0  0  0  0  0  0
   -6.5770   22.6700  -32.1580 C   0  0  0  0  0  0  0  0  0  0  0  0
   -7.5380   22.6510  -31.1420 C   0  0  0  0  0  0  0  0  0  0  0  0
   -9.2160   21.7850  -31.4250 Br  0  0  0  0  0  0  0  0  0  0  0  0
   -7.2740   23.2790  -29.9220 C   0  0  0  0  0  0  0  0  0  0  0  0
   -6.0520   23.9280  -29.7190 C   0  0  0  0  0  0  0  0  0  0  0  0
   -5.2105   17.0463  -33.1989 H   0  0  0  0  0  0  0  0  0  0  0  0
   -5.8902   16.3398  -34.7041 H   0  0  0  0  0  0  0  0  0  0  0  0
   -4.2304   17.0264  -34.7041 H   0  0  0  0  0  0  0  0  0  0  0  0
   -5.0957   18.9930  -35.3582 H   0  0  0  0  0  0  0  0  0  0  0  0
   -6.7912   18.3126  -35.1500 H   0  0  0  0  0  0  0  0  0  0  0  0
   -7.7042   20.2048  -32.4691 H   0  0  0  0  0  0  0  0  0  0  0  0
   -8.0715   18.8331  -33.6210 H   0  0  0  0  0  0  0  0  0  0  0  0
   -7.3560   18.7662  -30.7600 H   0  0  0  0  0  0  0  0  0  0  0  0
   -8.2034   17.5585  -31.7847 H   0  0  0  0  0  0  0  0  0  0  0  0
   -6.4087   17.6353  -31.7847 H   0  0  0  0  0  0  0  0  0  0  0  0
   -5.2965   20.3067  -31.7900 H   0  0  0  0  0  0  0  0  0  0  0  0
   -4.5640   18.7191  -32.2572 H   0  0  0  0  0  0  0  0  0  0  0  0
   -3.1232   19.6682  -33.7933 H   0  0  0  0  0  0  0  0  0  0  0  0
   -4.2342   21.0653  -34.1159 H   0  0  0  0  0  0  0  0  0  0  0  0
   -2.9010   19.6175  -31.1722 H   0  0  0  0  0  0  0  0  0  0  0  0
   -1.3995   20.0505  -32.0526 H   0  0  0  0  0  0  0  0  0  0  0  0
   -2.4500   21.0726  -29.4838 H   0  0  0  0  0  0  0  0  0  0  0  0
   -0.7902   21.1715  -30.1706 H   0  0  0  0  0  0  0  0  0  0  0  0
   -3.0750   22.8640  -31.0100 H   0  0  0  0  0  0  0  0  0  0  0  0
   -1.6356   22.9855  -28.6611 H   0  0  0  0  0  0  0  0  0  0  0  0
   -0.9838   24.2645  -29.7438 H   0  0  0  0  0  0  0  0  0  0  0  0
   -3.6936   23.9877  -28.4979 H   0  0  0  0  0  0  0  0  0  0  0  0
   -2.7573   25.4652  -28.9512 H   0  0  0  0  0  0  0  0  0  0  0  0
   -4.6016   23.3322  -32.7593 H   0  0  0  0  0  0  0  0  0  0  0  0
   -6.7840   22.1750  -33.1183 H   0  0  0  0  0  0  0  0  0  0  0  0
   -8.0277   23.2629  -29.1209 H   0  0  0  0  0  0  0  0  0  0  0  0
   -5.8525   24.4265  -28.7589 H   0  0  0  0  0  0  0  0  0  0  0  0
  1  2  1  0
  2  3  1  0
  3  4  1  0
  4  5  1  0
  3  6  1  0
  6  7  1  0
  7  8  1  0
  8  9  1  0
  9 10  1  0
 10 11  1  0
 11 12  1  0
 12 13  1  0
 13 14  1  0
 14 15  1  0
 15 16  2  0
 16 17  1  0
 17 18  2  0
 18 19  1  0
 18 20  1  0
 20 21  2  0
 21 15  1  0
  1 22  1  0
  1 23  1  0
  1 24  1  0
  2 25  1  0
  2 26  1  0
  4 27  1  0
  4 28  1  0
  5 29  1  0
  5 30  1  0
  5 31  1  0
  6 32  1  0
  6 33  1  0
  7 34  1  0
  7 35  1  0
  9 36  1  0
  9 37  1  0
 10 38  1  0
 10 39  1  0
 11 40  1  0
 12 41  1  0
 12 42  1  0
 13 43  1  0
 13 44  1  0
 16 45  1  0
 17 46  1  0
 20 47  1  0
 21 48  1  0
M  END
>  <UniqueID>  (9) 
9

>  <SMILES>  (9) 
CCN(CC)CCOCCNCCOc1ccc(Br)cc1

>  <Energy>  (9) 
45.72673284612128

>  <Genealogy>  (9) 
CCN(CC)CCOCCNCCOc1ccc(Br)cc1 (3D coordinates assigned)
CCN(CC)CCOCCNCCOc1ccc(Br)cc1 (optimized conformer: 45.72673284612128 kcal/mol)

>  <smiles>  (9) 
CCN(CC)CCOCCNCCOc1ccc(Br)cc1

>  <score_type>  (9) 
oracle

>  <origin>  (9) 
adg

>  <m_score__min__energy>  (9) 
-7.5499999999999998

>  <m_primary>  (9) 
energy

$$$$
9:0
     RDKit          3D

 38 39  0  0  0  0  0  0  0  0999 V2000
   -1.3130   25.7820  -29.7080 H   0  0  0  0  0  0  0  0  0  0  0  0
   -2.0800   25.2980  -29.1880 N   0  0  0  0  0  0  0  0  0  0  0  0
   -2.8200   24.3860  -29.7330 C   0  0  0  0  0  0  0  0  0  0  0  0
   -3.9260   24.7560  -30.4410 N   0  0  0  0  0  0  0  0  0  0  0  0
   -4.7070   23.8090  -31.0150 C   0  0  0  0  0  0  0  0  0  0  0  0
   -6.0880   24.0670  -31.9260 S   0  0  0  0  0  0  0  0  0  0  0  0
   -6.3700   22.4250  -32.2200 C   0  0  0  0  0  0  0  0  0  0  0  0
   -7.2058   22.0204  -32.8097 H   0  0  0  0  0  0  0  0  0  0  0  0
   -5.3770   21.6610  -31.5980 C   0  0  0  0  0  0  0  0  0  0  0  0
   -5.3350   20.1550  -31.7100 C   0  0  0  0  0  0  0  0  0  0  0  0
   -4.3409   19.8519  -32.0706 H   0  0  0  0  0  0  0  0  0  0  0  0
   -5.5397   19.7314  -30.7157 H   0  0  0  0  0  0  0  0  0  0  0  0
   -6.3630   19.6460  -32.6500 N   0  0  1  0  0  0  0  0  0  0  0  0
   -7.0170   20.4340  -32.8740 H   0  0  0  0  0  0  0  0  0  0  0  0
   -5.7680   19.2080  -33.9290 C   0  0  0  0  0  0  0  0  0  0  0  0
   -4.8971   18.5669  -33.7277 H   0  0  0  0  0  0  0  0  0  0  0  0
   -6.5143   18.6422  -34.5059 H   0  0  0  0  0  0  0  0  0  0  0  0
   -5.4495   20.0888  -34.5059 H   0  0  0  0  0  0  0  0  0  0  0  0
   -7.2050   18.5870  -32.0370 C   0  0  0  0  0  0  0  0  0  0  0  0
   -6.9890   17.6375  -32.5486 H   0  0  0  0  0  0  0  0  0  0  0  0
   -6.9516   18.5669  -30.9668 H   0  0  0  0  0  0  0  0  0  0  0  0
   -8.7250   18.8460  -32.1230 C   0  0  0  0  0  0  0  0  0  0  0  0
   -9.2218   17.9613  -32.5477 H   0  0  0  0  0  0  0  0  0  0  0  0
   -9.1152   19.0445  -31.1139 H   0  0  0  0  0  0  0  0  0  0  0  0
   -8.9890   20.0120  -32.9810 N   0  0  0  0  0  0  0  0  0  0  0  0
   -9.5040   19.6750  -33.8290 H   0  0  0  0  0  0  0  0  0  0  0  0
   -9.8490   20.9930  -32.3050 C   0  0  0  0  0  0  0  0  0  0  0  0
  -10.0025   21.8594  -32.9652 H   0  0  0  0  0  0  0  0  0  0  0  0
  -10.8173   20.5257  -32.0726 H   0  0  0  0  0  0  0  0  0  0  0  0
   -9.1920   21.4550  -31.0100 C   0  0  0  0  0  0  0  0  0  0  0  0
   -9.7549   21.0592  -30.1518 H   0  0  0  0  0  0  0  0  0  0  0  0
   -8.1568   21.0850  -30.9717 H   0  0  0  0  0  0  0  0  0  0  0  0
   -9.1901   22.5543  -30.9717 H   0  0  0  0  0  0  0  0  0  0  0  0
   -4.4330   22.4570  -30.9190 C   0  0  0  0  0  0  0  0  0  0  0  0
   -3.3050   22.0420  -30.2030 C   0  0  0  0  0  0  0  0  0  0  0  0
   -3.0608   20.9734  -30.1113 H   0  0  0  0  0  0  0  0  0  0  0  0
   -2.4910   23.0160  -29.6040 C   0  0  0  0  0  0  0  0  0  0  0  0
   -1.5989   22.7147  -29.0353 H   0  0  0  0  0  0  0  0  0  0  0  0
  1  2  1  0
  2  3  2  0
  3  4  1  0
  4  5  1  0
  5  6  1  0
  6  7  1  0
  7  8  1  0
  7  9  2  0
  9 10  1  0
 10 11  1  0
 10 12  1  0
 10 13  1  0
 13 14  1  6
 13 15  1  0
 15 16  1  0
 15 17  1  0
 15 18  1  0
 13 19  1  0
 19 20  1  0
 19 21  1  0
 19 22  1  0
 22 23  1  0
 22 24  1  0
 22 25  1  0
 25 26  1  0
 25 27  1  0
 27 28  1  0
 27 29  1  0
 27 30  1  0
 30 31  1  0
 30 32  1  0
 30 33  1  0
  9 34  1  0
 34 35  1  0
 35 36  1  0
 35 37  2  0
 37 38  1  0
 37  3  1  0
 34  5  2  0
M  CHG  2   4  -1  13   1
M  END
>  <UniqueID>  (10) 
10

>  <SMILES>  (10) 
[H]/N=c1\ccc2c(C[N@@H+](C)CCNCC)csc2[n-]1

>  <Energy>  (10) 
69.80729227011638

>  <Genealogy>  (10) 
CCNCC[NH+](C)Cc1csc2[n-]c(=N)ccc12 (protonated)
CCNCC[N@H+](C)Cc1csc2[n-]c(=N)ccc12 (chirality)
[H]/N=c1\ccc2c(C[N@@H+](C)CCNCC)csc2[n-]1 (cis-trans isomerization)
[H]/N=c1\ccc2c(C[N@@H+](C)CCNCC)csc2[n-]1 (3D coordinates assigned)
[H]/N=c1\ccc2c(C[N@@H+](C)CCNCC)csc2[n-]1 (optimized conformer: 69.80729227011638 kcal/mol)

>  <smiles>  (10) 
CCNCCN(C)Cc1csc2[nH]c(=N)ccc12

>  <score_type>  (10) 
oracle

>  <origin>  (10) 
adg

>  <m_score__min__energy>  (10) 
-8.0800000000000001

>  <m_primary>  (10) 
energy

$$$$
10:0
     RDKit          3D

 50 52  0  0  0  0  0  0  0  0999 V2000
   -6.0190   25.6660  -30.1000 C   0  0  0  0  0  0  0  0  0  0  0  0
   -4.8100   25.0650  -30.8350 C   0  0  0  0  0  0  0  0  0  0  0  0
   -4.7910   23.5810  -30.8630 N   0  0  0  0  0  0  0  0  0  0  0  0
   -5.5180   22.9560  -29.7330 C   0  0  0  0  0  0  0  0  0  0  0  0
   -4.5830   22.8080  -28.5390 C   0  0  0  0  0  0  0  0  0  0  0  0
   -3.4330   23.0370  -31.0680 C   0  0  0  0  0  0  0  0  0  0  0  0
   -3.3750   22.0870  -32.2810 C   0  0  0  0  0  0  0  0  0  0  0  0
   -4.5600   22.2120  -33.1630 N   0  0  0  0  0  0  0  0  0  0  0  0
   -5.5080   21.1270  -32.9330 C   0  0  0  0  0  0  0  0  0  0  0  0
   -5.1090   19.7720  -33.1330 C   0  0  0  0  0  0  0  0  0  0  0  0
   -3.8270   19.4340  -33.6440 C   0  0  0  0  0  0  0  0  0  0  0  0
   -3.4390   18.1070  -33.8180 C   0  0  0  0  0  0  0  0  0  0  0  0
   -4.3040   17.0790  -33.4800 C   0  0  0  0  0  0  0  0  0  0  0  0
   -5.5710   17.3710  -32.9840 C   0  0  0  0  0  0  0  0  0  0  0  0
   -6.0220   18.7130  -32.8320 C   0  0  0  0  0  0  0  0  0  0  0  0
   -7.2990   19.0000  -32.3920 N   0  0  0  0  0  0  0  0  0  0  0  0
   -8.3200   17.9230  -32.3170 C   0  0  0  0  0  0  0  0  0  0  0  0
   -7.6570   20.2930  -32.0770 C   0  0  0  0  0  0  0  0  0  0  0  0
   -8.8510   20.5670  -31.3600 C   0  0  0  0  0  0  0  0  0  0  0  0
   -9.2980   21.8710  -31.1650 C   0  0  0  0  0  0  0  0  0  0  0  0
   -8.5740   22.9310  -31.6860 C   0  0  0  0  0  0  0  0  0  0  0  0
   -7.3610   22.7080  -32.3340 C   0  0  0  0  0  0  0  0  0  0  0  0
   -6.7660   23.8060  -32.8700 F   0  0  0  0  0  0  0  0  0  0  0  0
   -6.8250   21.3910  -32.4560 C   0  0  0  0  0  0  0  0  0  0  0  0
   -5.8633   25.5886  -29.0138 H   0  0  0  0  0  0  0  0  0  0  0  0
   -6.1296   26.7240  -30.3801 H   0  0  0  0  0  0  0  0  0  0  0  0
   -6.9292   25.1155  -30.3801 H   0  0  0  0  0  0  0  0  0  0  0  0
   -4.8211   25.4295  -31.8728 H   0  0  0  0  0  0  0  0  0  0  0  0
   -3.9139   25.3822  -30.2814 H   0  0  0  0  0  0  0  0  0  0  0  0
   -6.3719   23.5901  -29.4522 H   0  0  0  0  0  0  0  0  0  0  0  0
   -5.8795   21.9627  -30.0376 H   0  0  0  0  0  0  0  0  0  0  0  0
   -5.1607   22.8994  -27.6074 H   0  0  0  0  0  0  0  0  0  0  0  0
   -4.0971   21.8218  -28.5738 H   0  0  0  0  0  0  0  0  0  0  0  0
   -3.8162   23.5960  -28.5738 H   0  0  0  0  0  0  0  0  0  0  0  0
   -2.7364   23.8717  -31.2356 H   0  0  0  0  0  0  0  0  0  0  0  0
   -3.1546   22.4644  -30.1710 H   0  0  0  0  0  0  0  0  0  0  0  0
   -2.4738   22.3196  -32.8673 H   0  0  0  0  0  0  0  0  0  0  0  0
   -3.3550   21.0569  -31.8955 H   0  0  0  0  0  0  0  0  0  0  0  0
   -5.0230   23.1350  -32.9990 H   0  0  0  0  0  0  0  0  0  0  0  0
   -4.3080   22.2900  -34.1720 H   0  0  0  0  0  0  0  0  0  0  0  0
   -3.1247   20.2383  -33.9083 H   0  0  0  0  0  0  0  0  0  0  0  0
   -2.4436   17.8752  -34.2247 H   0  0  0  0  0  0  0  0  0  0  0  0
   -3.9894   16.0322  -33.6037 H   0  0  0  0  0  0  0  0  0  0  0  0
   -6.2405   16.5448  -32.7025 H   0  0  0  0  0  0  0  0  0  0  0  0
   -8.5359   17.6952  -31.2627 H   0  0  0  0  0  0  0  0  0  0  0  0
   -9.2418   18.2562  -32.8164 H   0  0  0  0  0  0  0  0  0  0  0  0
   -7.9381   17.0203  -32.8164 H   0  0  0  0  0  0  0  0  0  0  0  0
   -9.4359   19.7307  -30.9494 H   0  0  0  0  0  0  0  0  0  0  0  0
  -10.2225   22.0589  -30.5994 H   0  0  0  0  0  0  0  0  0  0  0  0
   -8.9597   23.9564  -31.5873 H   0  0  0  0  0  0  0  0  0  0  0  0
  1  2  1  0
  2  3  1  0
  3  4  1  0
  4  5  1  0
  3  6  1  0
  6  7  1  0
  7  8  1  0
  8  9  1  0
  9 10  2  0
 10 11  1  0
 11 12  2  0
 12 13  1  0
 13 14  2  0
 14 15  1  0
 15 16  2  0
 16 17  1  0
 16 18  1  0
 18 19  2  0
 19 20  1  0
 20 21  2  0
 21 22  1  0
 22 23  1  0
 22 24  2  0
 24  9  1  0
 15 10  1  0
 24 18  1  0
  1 25  1  0
  1 26  1  0
  1 27  1  0
  2 28  1  0
  2 29  1  0
  4 30  1  0
  4 31  1  0
  5 32  1  0
  5 33  1  0
  5 34  1  0
  6 35  1  0
  6 36  1  0
  7 37  1  0
  7 38  1  0
  8 39  1  0
  8 40  1  0
 11 41  1  0
 12 42  1  0
 13 43  1  0
 14 44  1  0
 17 45  1  0
 17 46  1  0
 17 47  1  0
 19 48  1  0
 20 49  1  0
 21 50  1  0
M  CHG  2   8   1  16   1
M  END
>  <UniqueID>  (11) 
11

>  <SMILES>  (11) 
CCN(CC)CC[NH2+]c1c2ccccc2[n+](C)c2cccc(F)c12

>  <Energy>  (11) 
87.29227705590013

>  <Genealogy>  (11) 
CCN(CC)CC[NH2+]c1c2ccccc2[n+](C)c2cccc(F)c12 (protonated)
CCN(CC)CC[NH2+]c1c2ccccc2[n+](C)c2cccc(F)c12 (3D coordinates assigned)
CCN(CC)CC[NH2+]c1c2ccccc2[n+](C)c2cccc(F)c12 (optimized conformer: 87.29227705590013 kcal/mol)

>  <smiles>  (11) 
CCN(CC)CCNc1c2ccccc2[n+](C)c2cccc(F)c12

>  <score_type>  (11) 
oracle

>  <origin>  (11) 
adg

>  <m_score__min__energy>  (11) 
-8.0399999999999991

>  <m_primary>  (11) 
energy

$$$$
11:0
     RDKit          3D

 75 78  0  0  0  0  0  0  0  0999 V2000
   -7.2430   17.2000  -32.9940 C   0  0  0  0  0  0  0  0  0  0  0  0
   -6.1150   17.4920  -33.9860 C   0  0  0  0  0  0  0  0  0  0  0  0
   -4.8150   17.6680  -33.2930 N   0  0  0  0  0  0  0  0  0  0  0  0
   -4.1520   16.3680  -33.0700 C   0  0  0  0  0  0  0  0  0  0  0  0
   -3.9320   18.5780  -34.0590 C   0  0  0  0  0  0  0  0  0  0  0  0
   -3.6940   19.8840  -33.2940 C   0  0  0  0  0  0  0  0  0  0  0  0
   -4.3830   19.8790  -32.0010 N   0  0  0  0  0  0  0  0  0  0  0  0
   -5.0350   21.0590  -31.5160 C   0  0  0  0  0  0  0  0  0  0  0  0
   -6.3990   21.2640  -31.7660 C   0  0  0  0  0  0  0  0  0  0  0  0
   -7.1460   20.3240  -32.5080 C   0  0  0  0  0  0  0  0  0  0  0  0
   -8.4960   20.5370  -32.7710 C   0  0  0  0  0  0  0  0  0  0  0  0
   -9.1200   21.6960  -32.3210 C   0  0  0  0  0  0  0  0  0  0  0  0
   -8.4000   22.6400  -31.5890 C   0  0  0  0  0  0  0  0  0  0  0  0
   -7.0290   22.4390  -31.2790 C   0  0  0  0  0  0  0  0  0  0  0  0
   -6.3080   23.3580  -30.5400 N   0  0  0  0  0  0  0  0  0  0  0  0
   -7.0120   24.4370  -29.8160 C   0  0  0  0  0  0  0  0  0  0  0  0
   -4.9330   23.2490  -30.4550 C   0  0  0  0  0  0  0  0  0  0  0  0
   -4.1260   24.3030  -29.9640 C   0  0  0  0  0  0  0  0  0  0  0  0
   -2.7440   24.1550  -29.7980 C   0  0  0  0  0  0  0  0  0  0  0  0
   -2.0150   25.2670  -29.3490 O   0  0  0  0  0  0  0  0  0  0  0  0
   -1.7070   25.5720  -27.9870 C   0  0  0  0  0  0  0  0  0  0  0  0
   -0.2600   25.1280  -27.6610 C   0  0  0  0  0  0  0  0  0  0  0  0
    0.4470   25.8910  -26.5710 N   0  0  0  0  0  0  0  0  0  0  0  0
    1.8260   26.2410  -27.0150 C   0  0  0  0  0  0  0  0  0  0  0  0
    0.5700   25.0800  -25.3130 C   0  0  0  0  0  0  0  0  0  0  0  0
   -0.6560   25.0750  -24.3660 C   0  0  0  0  0  0  0  0  0  0  0  0
   -0.9170   26.3820  -23.5900 C   0  0  0  0  0  0  0  0  0  0  0  0
    0.1540   27.4640  -23.7970 C   0  0  0  0  0  0  0  0  0  0  0  0
    0.2150   28.0810  -25.2190 C   0  0  0  0  0  0  0  0  0  0  0  0
   -0.3080   27.1780  -26.3620 C   0  0  0  0  0  0  0  0  0  0  0  0
   -2.1420   22.9290  -30.1250 C   0  0  0  0  0  0  0  0  0  0  0  0
   -2.9010   21.9070  -30.6870 C   0  0  0  0  0  0  0  0  0  0  0  0
   -4.2860   22.0640  -30.8870 C   0  0  0  0  0  0  0  0  0  0  0  0
   -6.8624   17.2985  -31.9666 H   0  0  0  0  0  0  0  0  0  0  0  0
   -8.0638   17.9153  -33.1511 H   0  0  0  0  0  0  0  0  0  0  0  0
   -7.6136   16.1763  -33.1511 H   0  0  0  0  0  0  0  0  0  0  0  0
   -6.0332   16.6523  -34.6919 H   0  0  0  0  0  0  0  0  0  0  0  0
   -6.3536   18.4261  -34.5155 H   0  0  0  0  0  0  0  0  0  0  0  0
   -4.0585   16.1847  -31.9894 H   0  0  0  0  0  0  0  0  0  0  0  0
   -4.7518   15.5673  -33.5272 H   0  0  0  0  0  0  0  0  0  0  0  0
   -3.1516   16.3834  -33.5272 H   0  0  0  0  0  0  0  0  0  0  0  0
   -2.9660   18.0810  -34.2317 H   0  0  0  0  0  0  0  0  0  0  0  0
   -4.4192   18.8160  -35.0161 H   0  0  0  0  0  0  0  0  0  0  0  0
   -2.6143   20.0075  -33.1238 H   0  0  0  0  0  0  0  0  0  0  0  0
   -4.0918   20.7149  -33.8952 H   0  0  0  0  0  0  0  0  0  0  0  0
   -4.5930   18.9740  -31.5200 H   0  0  0  0  0  0  0  0  0  0  0  0
   -6.6559   19.4132  -32.8825 H   0  0  0  0  0  0  0  0  0  0  0  0
   -9.0704   19.7878  -33.3355 H   0  0  0  0  0  0  0  0  0  0  0  0
  -10.1835   21.8683  -32.5429 H   0  0  0  0  0  0  0  0  0  0  0  0
   -8.9030   23.5561  -31.2459 H   0  0  0  0  0  0  0  0  0  0  0  0
   -6.9090   24.2792  -28.7323 H   0  0  0  0  0  0  0  0  0  0  0  0
   -6.5733   25.4082  -30.0884 H   0  0  0  0  0  0  0  0  0  0  0  0
   -8.0777   24.4267  -30.0884 H   0  0  0  0  0  0  0  0  0  0  0  0
   -4.5969   25.2631  -29.7062 H   0  0  0  0  0  0  0  0  0  0  0  0
   -1.8008   26.6561  -27.8259 H   0  0  0  0  0  0  0  0  0  0  0  0
   -2.4069   25.0361  -27.3290 H   0  0  0  0  0  0  0  0  0  0  0  0
   -0.2944   24.0704  -27.3605 H   0  0  0  0  0  0  0  0  0  0  0  0
    0.3182   25.3239  -28.5761 H   0  0  0  0  0  0  0  0  0  0  0  0
    2.4647   26.4031  -26.1342 H   0  0  0  0  0  0  0  0  0  0  0  0
    2.2365   25.4186  -27.6192 H   0  0  0  0  0  0  0  0  0  0  0  0
    1.7946   27.1596  -27.6192 H   0  0  0  0  0  0  0  0  0  0  0  0
    0.7692   24.0386  -25.6059 H   0  0  0  0  0  0  0  0  0  0  0  0
    1.3772   25.5580  -24.7385 H   0  0  0  0  0  0  0  0  0  0  0  0
   -1.5484   24.8597  -24.9721 H   0  0  0  0  0  0  0  0  0  0  0  0
   -0.4367   24.3152  -23.6014 H   0  0  0  0  0  0  0  0  0  0  0  0
   -1.8855   26.7889  -23.9162 H   0  0  0  0  0  0  0  0  0  0  0  0
   -0.9008   26.1227  -22.5211 H   0  0  0  0  0  0  0  0  0  0  0  0
   -0.0436   28.2772  -23.0831 H   0  0  0  0  0  0  0  0  0  0  0  0
    1.1216   26.9639  -23.6434 H   0  0  0  0  0  0  0  0  0  0  0  0
   -0.3853   29.0028  -25.2141 H   0  0  0  0  0  0  0  0  0  0  0  0
    1.2818   28.2465  -25.4300 H   0  0  0  0  0  0  0  0  0  0  0  0
   -1.3552   26.9241  -26.1408 H   0  0  0  0  0  0  0  0  0  0  0  0
   -0.1774   27.7577  -27.2877 H   0  0  0  0  0  0  0  0  0  0  0  0
   -1.0690   22.7764  -29.9366 H   0  0  0  0  0  0  0  0  0  0  0  0
   -2.4132   20.9652  -30.9785 H   0  0  0  0  0  0  0  0  0  0  0  0
  1  2  1  0
  2  3  1  0
  3  4  1  0
  3  5  1  0
  5  6  1  0
  6  7  1  0
  7  8  1  0
  8  9  2  0
  9 10  1  0
 10 11  2  0
 11 12  1  0
 12 13  2  0
 13 14  1  0
 14 15  2  0
 15 16  1  0
 15 17  1  0
 17 18  2  0
 18 19  1  0
 19 20  1  0
 20 21  1  0
 21 22  1  0
 22 23  1  0
 23 24  1  0
 23 25  1  0
 25 26  1  0
 26 27  1  0
 27 28  1  0
 28 29  1  0
 29 30  1  0
 19 31  2  0
 31 32  1  0
 32 33  2  0
 33  8  1  0
 14  9  1  0
 33 17  1  0
 30 23  1  0
  1 34  1  0
  1 35  1  0
  1 36  1  0
  2 37  1  0
  2 38  1  0
  4 39  1  0
  4 40  1  0
  4 41  1  0
  5 42  1  0
  5 43  1  0
  6 44  1  0
  6 45  1  0
  7 46  1  0
 10 47  1  0
 11 48  1  0
 12 49  1  0
 13 50  1  0
 16 51  1  0
 16 52  1  0
 16 53  1  0
 18 54  1  0
 21 55  1  0
 21 56  1  0
 22 57  1  0
 22 58  1  0
 24 59  1  0
 24 60  1  0
 24 61  1  0
 25 62  1  0
 25 63  1  0
 26 64  1  0
 26 65  1  0
 27 66  1  0
 27 67  1  0
 28 68  1  0
 28 69  1  0
 29 70  1  0
 29 71  1  0
 30 72  1  0
 30 73  1  0
 31 74  1  0
 32 75  1  0
M  CHG  2  15   1  23   1
M  END
>  <UniqueID>  (12) 
12

>  <SMILES>  (12) 
CCN(C)CCNc1c2ccccc2[n+](C)c2cc(OCC[N+]3(C)CCCCCC3)ccc12

>  <Energy>  (12) 
129.23433039578055

>  <Genealogy>  (12) 
CCN(C)CCNc1c2ccccc2[n+](C)c2cc(OCC[N+]3(C)CCCCCC3)ccc12 (3D coordinates assigned)
CCN(C)CCNc1c2ccccc2[n+](C)c2cc(OCC[N+]3(C)CCCCCC3)ccc12 (nonaromatic ring conformer: 129.23433039578055 kcal/mol)

>  <smiles>  (12) 
CCN(C)CCNc1c2ccccc2[n+](C)c2cc(OCC[N+]3(C)CCCCCC3)ccc12

>  <score_type>  (12) 
oracle

>  <origin>  (12) 
adg

>  <m_score__min__energy>  (12) 
-6.3700000000000001

>  <m_primary>  (12) 
energy

$$$$
12:0
     RDKit          3D

 60 63  0  0  0  0  0  0  0  0999 V2000
   -6.0350   25.2120  -30.4710 C   0  0  0  0  0  0  0  0  0  0  0  0
   -5.8930   23.7140  -30.2180 C   0  0  0  0  0  0  0  0  0  0  0  0
   -4.4880   23.3690  -29.9460 N   0  0  0  0  0  0  0  0  0  0  0  0
   -3.8190   23.7060  -28.8150 C   0  0  0  0  0  0  0  0  0  0  0  0
   -4.2700   24.5320  -27.7760 C   0  0  0  0  0  0  0  0  0  0  0  0
   -3.3930   24.8170  -26.7170 C   0  0  0  0  0  0  0  0  0  0  0  0
   -2.0870   24.2960  -26.7180 C   0  0  0  0  0  0  0  0  0  0  0  0
   -1.6500   23.4650  -27.7610 C   0  0  0  0  0  0  0  0  0  0  0  0
   -2.5560   23.1490  -28.7840 C   0  0  0  0  0  0  0  0  0  0  0  0
   -2.4460   22.3900  -29.9470 C   0  0  0  0  0  0  0  0  0  0  0  0
   -3.6250   22.5740  -30.6520 C   0  0  0  0  0  0  0  0  0  0  0  0
   -3.7790   21.9920  -31.9250 C   0  0  0  0  0  0  0  0  0  0  0  0
   -4.9530   22.2050  -32.7160 N   0  0  0  0  0  0  0  0  0  0  0  0
   -6.1960   21.4890  -32.4230 C   0  0  0  0  0  0  0  0  0  0  0  0
   -6.4780   20.3570  -33.4380 C   0  0  0  0  0  0  0  0  0  0  0  0
   -7.6650   19.5250  -33.0820 N   0  0  0  0  0  0  0  0  0  0  0  0
   -8.2960   20.0220  -31.8290 C   0  0  0  0  0  0  0  0  0  0  0  0
   -9.4790   20.9610  -32.0990 C   0  0  0  0  0  0  0  0  0  0  0  0
   -7.2650   18.0990  -32.9270 C   0  0  0  0  0  0  0  0  0  0  0  0
   -6.5070   17.8480  -31.6170 C   0  0  0  0  0  0  0  0  0  0  0  0
   -2.6760   21.2870  -32.4670 C   0  0  0  0  0  0  0  0  0  0  0  0
   -2.7130   20.7930  -33.7880 C   0  0  0  0  0  0  0  0  0  0  0  0
   -1.6170   20.1330  -34.3350 C   0  0  0  0  0  0  0  0  0  0  0  0
   -0.4550   19.9700  -33.5890 C   0  0  0  0  0  0  0  0  0  0  0  0
   -0.3860   20.4510  -32.2820 C   0  0  0  0  0  0  0  0  0  0  0  0
   -1.4940   21.0970  -31.6810 C   0  0  0  0  0  0  0  0  0  0  0  0
   -1.4400   21.5650  -30.3810 N   0  0  0  0  0  0  0  0  0  0  0  0
   -0.3830   21.1240  -29.4540 C   0  0  0  0  0  0  0  0  0  0  0  0
   -6.0854   25.7432  -29.5091 H   0  0  0  0  0  0  0  0  0  0  0  0
   -5.1669   25.5711  -31.0432 H   0  0  0  0  0  0  0  0  0  0  0  0
   -6.9551   25.4016  -31.0432 H   0  0  0  0  0  0  0  0  0  0  0  0
   -6.5093   23.4331  -29.3512 H   0  0  0  0  0  0  0  0  0  0  0  0
   -6.2269   23.1684  -31.1129 H   0  0  0  0  0  0  0  0  0  0  0  0
   -5.2883   24.9477  -27.7900 H   0  0  0  0  0  0  0  0  0  0  0  0
   -3.7292   25.4506  -25.8830 H   0  0  0  0  0  0  0  0  0  0  0  0
   -1.4015   24.5421  -25.8936 H   0  0  0  0  0  0  0  0  0  0  0  0
   -0.6229   23.0714  -27.7759 H   0  0  0  0  0  0  0  0  0  0  0  0
   -4.8940   22.8920  -33.5010 H   0  0  0  0  0  0  0  0  0  0  0  0
   -6.1224   21.0508  -31.4167 H   0  0  0  0  0  0  0  0  0  0  0  0
   -7.0226   22.2117  -32.4887 H   0  0  0  0  0  0  0  0  0  0  0  0
   -6.6525   20.8093  -34.4254 H   0  0  0  0  0  0  0  0  0  0  0  0
   -5.6019   19.6918  -33.4349 H   0  0  0  0  0  0  0  0  0  0  0  0
   -8.3720   19.5870  -33.8540 H   0  0  0  0  0  0  0  0  0  0  0  0
   -8.6557   19.1593  -31.2490 H   0  0  0  0  0  0  0  0  0  0  0  0
   -7.5358   20.5929  -31.2757 H   0  0  0  0  0  0  0  0  0  0  0  0
   -9.9047   21.2989  -31.1426 H   0  0  0  0  0  0  0  0  0  0  0  0
   -9.1319   21.8321  -32.6740 H   0  0  0  0  0  0  0  0  0  0  0  0
  -10.2486   20.4252  -32.6740 H   0  0  0  0  0  0  0  0  0  0  0  0
   -8.1702   17.4742  -32.9376 H   0  0  0  0  0  0  0  0  0  0  0  0
   -6.5928   17.8448  -33.7597 H   0  0  0  0  0  0  0  0  0  0  0  0
   -7.1665   18.0664  -30.7641 H   0  0  0  0  0  0  0  0  0  0  0  0
   -6.1878   16.7962  -31.5738 H   0  0  0  0  0  0  0  0  0  0  0  0
   -5.6232   18.5014  -31.5738 H   0  0  0  0  0  0  0  0  0  0  0  0
   -3.6207   20.9315  -34.3938 H   0  0  0  0  0  0  0  0  0  0  0  0
   -1.6700   19.7390  -35.3607 H   0  0  0  0  0  0  0  0  0  0  0  0
    0.4132   19.4597  -34.0316 H   0  0  0  0  0  0  0  0  0  0  0  0
    0.5442   20.3267  -31.7083 H   0  0  0  0  0  0  0  0  0  0  0  0
   -0.7221   21.2655  -28.4172 H   0  0  0  0  0  0  0  0  0  0  0  0
   -0.1647   20.0597  -29.6264 H   0  0  0  0  0  0  0  0  0  0  0  0
    0.5269   21.7175  -29.6264 H   0  0  0  0  0  0  0  0  0  0  0  0
  1  2  1  0
  2  3  1  0
  3  4  1  0
  4  5  2  0
  5  6  1  0
  6  7  2  0
  7  8  1  0
  8  9  2  0
  9 10  1  0
 10 11  2  0
 11 12  1  0
 12 13  1  0
 13 14  1  0
 14 15  1  0
 15 16  1  0
 16 17  1  0
 17 18  1  0
 16 19  1  0
 19 20  1  0
 12 21  2  0
 21 22  1  0
 22 23  2  0
 23 24  1  0
 24 25  2  0
 25 26  1  0
 26 27  2  0
 27 28  1  0
 11  3  1  0
 26 21  1  0
  9  4  1  0
 27 10  1  0
  1 29  1  0
  1 30  1  0
  1 31  1  0
  2 32  1  0
  2 33  1  0
  5 34  1  0
  6 35  1  0
  7 36  1  0
  8 37  1  0
 13 38  1  0
 14 39  1  0
 14 40  1  0
 15 41  1  0
 15 42  1  0
 16 43  1  0
 17 44  1  0
 17 45  1  0
 18 46  1  0
 18 47  1  0
 18 48  1  0
 19 49  1  0
 19 50  1  0
 20 51  1  0
 20 52  1  0
 20 53  1  0
 22 54  1  0
 23 55  1  0
 24 56  1  0
 25 57  1  0
 28 58  1  0
 28 59  1  0
 28 60  1  0
M  CHG  2  16   1  27   1
M  END
>  <UniqueID>  (13) 
13

>  <SMILES>  (13) 
CCn1c2ccccc2c2c1c(NCC[NH+](CC)CC)c1ccccc1[n+]2C

>  <Energy>  (13) 
130.44464605245972

>  <Genealogy>  (13) 
CCn1c2ccccc2c2c1c(NCC[NH+](CC)CC)c1ccccc1[n+]2C (protonated)
CCn1c2ccccc2c2c1c(NCC[NH+](CC)CC)c1ccccc1[n+]2C (3D coordinates assigned)
CCn1c2ccccc2c2c1c(NCC[NH+](CC)CC)c1ccccc1[n+]2C (optimized conformer: 130.44464605245972 kcal/mol)

>  <smiles>  (13) 
CCN(CC)CCNc1c2ccccc2[n+](C)c2c3ccccc3n(CC)c12

>  <score_type>  (13) 
oracle

>  <origin>  (13) 
adg

>  <m_score__min__energy>  (13) 
-7.9500000000000002

>  <m_primary>  (13) 
energy

$$$$
13:0
     RDKit          3D

 38 41  0  0  0  0  0  0  0  0999 V2000
   -4.0570   13.0240  -33.7410 C   0  0  0  0  0  0  0  0  0  0  0  0
   -5.0770   14.1200  -33.7730 C   0  0  0  0  0  0  0  0  0  0  0  0
   -4.9310   15.3620  -33.1810 C   0  0  0  0  0  0  0  0  0  0  0  0
   -6.0920   16.0560  -33.4660 C   0  0  0  0  0  0  0  0  0  0  0  0
   -6.4140   17.4240  -33.0400 C   0  0  0  0  0  0  0  0  0  0  0  0
   -5.4870   18.2900  -32.5470 N   0  0  0  0  0  0  0  0  0  0  0  0
   -6.2510   19.3700  -32.3120 C   0  0  0  0  0  0  0  0  0  0  0  0
   -5.8250   20.5510  -31.8030 N   0  0  0  0  0  0  0  0  0  0  0  0
   -6.7340   21.5640  -31.6140 C   0  0  0  0  0  0  0  0  0  0  0  0
   -6.2930   22.8690  -31.0640 C   0  0  0  0  0  0  0  0  0  0  0  0
   -4.9260   23.2070  -31.0210 C   0  0  0  0  0  0  0  0  0  0  0  0
   -4.5180   24.4400  -30.5030 C   0  0  0  0  0  0  0  0  0  0  0  0
   -5.4640   25.3480  -30.0240 C   0  0  0  0  0  0  0  0  0  0  0  0
   -6.8230   25.0250  -30.0630 C   0  0  0  0  0  0  0  0  0  0  0  0
   -7.2370   23.7930  -30.5800 C   0  0  0  0  0  0  0  0  0  0  0  0
   -8.0960   21.3530  -31.9550 C   0  0  0  0  0  0  0  0  0  0  0  0
   -8.4840   20.1130  -32.4780 C   0  0  0  0  0  0  0  0  0  0  0  0
   -7.5280   19.1700  -32.6330 N   0  0  0  0  0  0  0  0  0  0  0  0
   -7.6650   17.9460  -33.0980 N   0  0  0  0  0  0  0  0  0  0  0  0
   -6.8960   15.2210  -34.2190 C   0  0  0  0  0  0  0  0  0  0  0  0
   -6.2640   14.0470  -34.4130 N   0  0  0  0  0  0  0  0  0  0  0  0
   -6.8040   12.8940  -35.1270 C   0  0  0  0  0  0  0  0  0  0  0  0
   -3.8224   12.7719  -32.6963 H   0  0  0  0  0  0  0  0  0  0  0  0
   -4.4572   12.1357  -34.2516 H   0  0  0  0  0  0  0  0  0  0  0  0
   -3.1422   13.3594  -34.2516 H   0  0  0  0  0  0  0  0  0  0  0  0
   -4.0681   15.7231  -32.6023 H   0  0  0  0  0  0  0  0  0  0  0  0
   -4.8200   20.6680  -31.5420 H   0  0  0  0  0  0  0  0  0  0  0  0
   -4.1751   22.4966  -31.3972 H   0  0  0  0  0  0  0  0  0  0  0  0
   -3.4485   24.6953  -30.4728 H   0  0  0  0  0  0  0  0  0  0  0  0
   -5.1399   26.3169  -29.6162 H   0  0  0  0  0  0  0  0  0  0  0  0
   -7.5685   25.7409  -29.6865 H   0  0  0  0  0  0  0  0  0  0  0  0
   -8.3083   23.5449  -30.6083 H   0  0  0  0  0  0  0  0  0  0  0  0
   -8.8369   22.1531  -31.8103 H   0  0  0  0  0  0  0  0  0  0  0  0
   -9.5302   19.9135  -32.7530 H   0  0  0  0  0  0  0  0  0  0  0  0
   -7.8959   15.4753  -34.6004 H   0  0  0  0  0  0  0  0  0  0  0  0
   -7.1548   12.1450  -34.4018 H   0  0  0  0  0  0  0  0  0  0  0  0
   -7.6454   13.2150  -35.7586 H   0  0  0  0  0  0  0  0  0  0  0  0
   -6.0187   12.4531  -35.7586 H   0  0  0  0  0  0  0  0  0  0  0  0
  1  2  1  0
  2  3  2  0
  3  4  1  0
  4  5  1  0
  5  6  1  0
  6  7  2  0
  7  8  1  0
  8  9  2  0
  9 10  1  0
 10 11  2  0
 11 12  1  0
 12 13  2  0
 13 14  1  0
 14 15  2  0
  9 16  1  0
 16 17  2  0
 17 18  1  0
 18 19  1  0
  4 20  2  0
 20 21  1  0
 21 22  1  0
 21  2  1  0
 19  5  2  0
 18  7  1  0
 15 10  1  0
  1 23  1  0
  1 24  1  0
  1 25  1  0
  3 26  1  0
  8 27  1  0
 11 28  1  0
 12 29  1  0
 13 30  1  0
 14 31  1  0
 15 32  1  0
 16 33  1  0
 17 34  1  0
 20 35  1  0
 22 36  1  0
 22 37  1  0
 22 38  1  0
M  CHG  1   8   1
M  END
>  <UniqueID>  (14) 
14

>  <SMILES>  (14) 
Cc1cc(-c2nc3[nH+]c(-c4ccccc4)ccn3n2)cn1C

>  <Energy>  (14) 
109.88670032891102

>  <Genealogy>  (14) 
Cc1cc(-c2nc3[nH+]c(-c4ccccc4)ccn3n2)cn1C (protonated)
Cc1cc(-c2nc3[nH+]c(-c4ccccc4)ccn3n2)cn1C (3D coordinates assigned)
Cc1cc(-c2nc3[nH+]c(-c4ccccc4)ccn3n2)cn1C (optimized conformer: 109.88670032891102 kcal/mol)

>  <smiles>  (14) 
Cc1cc(-c2nc3nc(-c4ccccc4)ccn3n2)cn1C

>  <score_type>  (14) 
oracle

>  <origin>  (14) 
adg

>  <m_score__min__energy>  (14) 
-6.96

>  <m_primary>  (14) 
energy

$$$$
14:0
     RDKit          3D

 35 37  0  0  0  0  0  0  0  0999 V2000
   -3.1900   24.1720  -27.7470 C   0  0  0  0  0  0  0  0  0  0  0  0
   -2.3740   24.6550  -28.9420 C   0  0  0  0  0  0  0  0  0  0  0  0
   -3.2410   24.9530  -30.0850 N   0  0  0  0  0  0  0  0  0  0  0  0
   -4.5140   24.3130  -30.2990 C   0  0  0  0  0  0  0  0  0  0  0  0
   -5.7240   24.9990  -30.1100 C   0  0  0  0  0  0  0  0  0  0  0  0
   -6.9390   24.3660  -30.3560 C   0  0  0  0  0  0  0  0  0  0  0  0
   -6.9730   23.0310  -30.7820 C   0  0  0  0  0  0  0  0  0  0  0  0
   -8.1930   22.4300  -31.0760 C   0  0  0  0  0  0  0  0  0  0  0  0
   -8.2270   21.1340  -31.5840 C   0  0  0  0  0  0  0  0  0  0  0  0
   -9.4540   20.5660  -31.9650 C   0  0  0  0  0  0  0  0  0  0  0  0
   -9.4940   19.2900  -32.5230 C   0  0  0  0  0  0  0  0  0  0  0  0
   -8.3140   18.5780  -32.7180 C   0  0  0  0  0  0  0  0  0  0  0  0
   -7.0870   19.1250  -32.3350 C   0  0  0  0  0  0  0  0  0  0  0  0
   -7.0190   20.4050  -31.7280 C   0  0  0  0  0  0  0  0  0  0  0  0
   -5.8230   20.9570  -31.2970 N   0  0  0  0  0  0  0  0  0  0  0  0
   -4.6110   20.1150  -31.2010 C   0  0  0  0  0  0  0  0  0  0  0  0
   -5.7720   22.2930  -30.9320 C   0  0  0  0  0  0  0  0  0  0  0  0
   -4.5470   22.9730  -30.7160 C   0  0  0  0  0  0  0  0  0  0  0  0
   -2.6870   24.4697  -26.8151 H   0  0  0  0  0  0  0  0  0  0  0  0
   -4.1932   24.6219  -27.7821 H   0  0  0  0  0  0  0  0  0  0  0  0
   -3.2782   23.0761  -27.7821 H   0  0  0  0  0  0  0  0  0  0  0  0
   -1.8265   25.5661  -28.6589 H   0  0  0  0  0  0  0  0  0  0  0  0
   -1.6733   23.8583  -29.2324 H   0  0  0  0  0  0  0  0  0  0  0  0
   -2.9230   25.6640  -30.7830 H   0  0  0  0  0  0  0  0  0  0  0  0
   -5.7119   26.0435  -29.7653 H   0  0  0  0  0  0  0  0  0  0  0  0
   -7.8801   24.9178  -30.2150 H   0  0  0  0  0  0  0  0  0  0  0  0
   -9.1311   22.9790  -30.9070 H   0  0  0  0  0  0  0  0  0  0  0  0
  -10.3870   21.1309  -31.8222 H   0  0  0  0  0  0  0  0  0  0  0  0
  -10.4584   18.8451  -32.8095 H   0  0  0  0  0  0  0  0  0  0  0  0
   -8.3478   17.5786  -33.1764 H   0  0  0  0  0  0  0  0  0  0  0  0
   -6.1616   18.5556  -32.5064 H   0  0  0  0  0  0  0  0  0  0  0  0
   -4.3658   19.9447  -30.1423 H   0  0  0  0  0  0  0  0  0  0  0  0
   -4.7953   19.1494  -31.6947 H   0  0  0  0  0  0  0  0  0  0  0  0
   -3.7704   20.6246  -31.6947 H   0  0  0  0  0  0  0  0  0  0  0  0
   -3.5998   22.4379  -30.8790 H   0  0  0  0  0  0  0  0  0  0  0  0
  1  2  1  0
  2  3  1  0
  3  4  1  0
  4  5  2  0
  5  6  1  0
  6  7  2  0
  7  8  1  0
  8  9  2  0
  9 10  1  0
 10 11  2  0
 11 12  1  0
 12 13  2  0
 13 14  1  0
 14 15  2  0
 15 16  1  0
 15 17  1  0
 17 18  2  0
 18  4  1  0
 17  7  1  0
 14  9  1  0
  1 19  1  0
  1 20  1  0
  1 21  1  0
  2 22  1  0
  2 23  1  0
  3 24  1  0
  5 25  1  0
  6 26  1  0
  8 27  1  0
 10 28  1  0
 11 29  1  0
 12 30  1  0
 13 31  1  0
 16 32  1  0
 16 33  1  0
 16 34  1  0
 18 35  1  0
M  CHG  1  15   1
M  END
>  <UniqueID>  (15) 
15

>  <SMILES>  (15) 
CCNc1ccc2cc3ccccc3[n+](C)c2c1

>  <Energy>  (15) 
52.13714153715009

>  <Genealogy>  (15) 
CCNc1ccc2cc3ccccc3[n+](C)c2c1 (3D coordinates assigned)
CCNc1ccc2cc3ccccc3[n+](C)c2c1 (optimized conformer: 52.13714153715009 kcal/mol)

>  <smiles>  (15) 
CCNc1ccc2cc3ccccc3[n+](C)c2c1

>  <score_type>  (15) 
oracle

>  <origin>  (15) 
adg

>  <m_score__min__energy>  (15) 
-7.5800000000000001

>  <m_primary>  (15) 
energy

$$$$
15:0
     RDKit          3D

 57 59  0  0  0  0  0  0  0  0999 V2000
   -6.8640   24.9530  -29.9310 C   0  0  0  0  0  0  0  0  0  0  0  0
   -5.4170   25.4510  -30.0710 C   0  0  0  0  0  0  0  0  0  0  0  0
   -4.5430   24.5370  -30.8440 N   0  0  0  0  0  0  0  0  0  0  0  0
   -3.4880   23.9160  -30.0060 C   0  0  0  0  0  0  0  0  0  0  0  0
   -3.7830   24.1760  -28.5340 C   0  0  0  0  0  0  0  0  0  0  0  0
   -5.3180   23.5580  -31.6410 C   0  0  0  0  0  0  0  0  0  0  0  0
   -4.5570   22.2350  -31.8510 C   0  0  0  0  0  0  0  0  0  0  0  0
   -4.7110   21.6590  -33.2090 N   0  0  0  0  0  0  0  0  0  0  0  0
   -5.1530   20.2680  -33.1780 C   0  0  0  0  0  0  0  0  0  0  0  0
   -6.4840   19.9510  -32.7660 C   0  0  0  0  0  0  0  0  0  0  0  0
   -7.3830   20.9330  -32.2720 C   0  0  0  0  0  0  0  0  0  0  0  0
   -8.6550   20.5930  -31.8190 C   0  0  0  0  0  0  0  0  0  0  0  0
   -9.0710   19.2740  -31.8390 C   0  0  0  0  0  0  0  0  0  0  0  0
   -8.2290   18.2900  -32.3450 C   0  0  0  0  0  0  0  0  0  0  0  0
   -6.9430   18.6100  -32.8530 C   0  0  0  0  0  0  0  0  0  0  0  0
   -6.1490   17.6410  -33.4180 N   0  0  0  0  0  0  0  0  0  0  0  0
   -6.7540   16.3630  -33.8600 C   0  0  0  0  0  0  0  0  0  0  0  0
   -4.8010   17.8670  -33.5990 C   0  0  0  0  0  0  0  0  0  0  0  0
   -3.9290   16.7780  -33.8380 C   0  0  0  0  0  0  0  0  0  0  0  0
   -2.5820   16.9660  -34.1140 C   0  0  0  0  0  0  0  0  0  0  0  0
   -1.6820   15.7850  -34.3410 C   0  0  0  0  0  0  0  0  0  0  0  0
   -2.0590   18.2510  -34.1040 C   0  0  0  0  0  0  0  0  0  0  0  0
   -2.8630   19.3670  -33.8160 C   0  0  0  0  0  0  0  0  0  0  0  0
   -2.2700   20.6400  -33.7970 O   0  0  0  0  0  0  0  0  0  0  0  0
   -0.8720   20.9130  -33.8110 C   0  0  0  0  0  0  0  0  0  0  0  0
   -4.2650   19.1910  -33.5330 C   0  0  0  0  0  0  0  0  0  0  0  0
   -7.1199   24.8649  -28.8648 H   0  0  0  0  0  0  0  0  0  0  0  0
   -7.5462   25.6681  -30.4140 H   0  0  0  0  0  0  0  0  0  0  0  0
   -6.9617   23.9695  -30.4140 H   0  0  0  0  0  0  0  0  0  0  0  0
   -5.4334   26.4269  -30.5782 H   0  0  0  0  0  0  0  0  0  0  0  0
   -4.9990   25.5120  -29.0553 H   0  0  0  0  0  0  0  0  0  0  0  0
   -3.4668   22.8315  -30.1888 H   0  0  0  0  0  0  0  0  0  0  0  0
   -2.5123   24.3531  -30.2650 H   0  0  0  0  0  0  0  0  0  0  0  0
   -3.1023   23.5761  -27.9121 H   0  0  0  0  0  0  0  0  0  0  0  0
   -3.6360   25.2436  -28.3136 H   0  0  0  0  0  0  0  0  0  0  0  0
   -4.8237   23.8960  -28.3136 H   0  0  0  0  0  0  0  0  0  0  0  0
   -6.2608   23.3434  -31.1165 H   0  0  0  0  0  0  0  0  0  0  0  0
   -5.4985   24.0010  -32.6315 H   0  0  0  0  0  0  0  0  0  0  0  0
   -3.4873   22.4193  -31.6728 H   0  0  0  0  0  0  0  0  0  0  0  0
   -4.9847   21.5067  -31.1462 H   0  0  0  0  0  0  0  0  0  0  0  0
   -3.8140   21.7190  -33.7370 H   0  0  0  0  0  0  0  0  0  0  0  0
   -5.3090   22.2600  -33.8100 H   0  0  0  0  0  0  0  0  0  0  0  0
   -7.0673   21.9864  -32.2466 H   0  0  0  0  0  0  0  0  0  0  0  0
   -9.3310   21.3756  -31.4441 H   0  0  0  0  0  0  0  0  0  0  0  0
  -10.0660   19.0041  -31.4554 H   0  0  0  0  0  0  0  0  0  0  0  0
   -8.5662   17.2430  -32.3517 H   0  0  0  0  0  0  0  0  0  0  0  0
   -7.0361   15.7670  -32.9795 H   0  0  0  0  0  0  0  0  0  0  0  0
   -7.6493   16.5708  -34.4643 H   0  0  0  0  0  0  0  0  0  0  0  0
   -6.0258   15.8022  -34.4643 H   0  0  0  0  0  0  0  0  0  0  0  0
   -4.3301   15.7543  -33.8040 H   0  0  0  0  0  0  0  0  0  0  0  0
   -1.3673   15.3721  -33.3712 H   0  0  0  0  0  0  0  0  0  0  0  0
   -2.2242   15.0147  -34.9090 H   0  0  0  0  0  0  0  0  0  0  0  0
   -0.7954   16.1034  -34.9090 H   0  0  0  0  0  0  0  0  0  0  0  0
   -0.9920   18.3995  -34.3263 H   0  0  0  0  0  0  0  0  0  0  0  0
   -0.5021   20.9852  -32.7776 H   0  0  0  0  0  0  0  0  0  0  0  0
   -0.3450   20.1008  -34.3331 H   0  0  0  0  0  0  0  0  0  0  0  0
   -0.6893   21.8638  -34.3331 H   0  0  0  0  0  0  0  0  0  0  0  0
  1  2  1  0
  2  3  1  0
  3  4  1  0
  4  5  1  0
  3  6  1  0
  6  7  1  0
  7  8  1  0
  8  9  1  0
  9 10  2  0
 10 11  1  0
 11 12  2  0
 12 13  1  0
 13 14  2  0
 14 15  1  0
 15 16  2  0
 16 17  1  0
 16 18  1  0
 18 19  2  0
 19 20  1  0
 20 21  1  0
 20 22  2  0
 22 23  1  0
 23 24  1  0
 24 25  1  0
 23 26  2  0
 26  9  1  0
 15 10  1  0
 26 18  1  0
  1 27  1  0
  1 28  1  0
  1 29  1  0
  2 30  1  0
  2 31  1  0
  4 32  1  0
  4 33  1  0
  5 34  1  0
  5 35  1  0
  5 36  1  0
  6 37  1  0
  6 38  1  0
  7 39  1  0
  7 40  1  0
  8 41  1  0
  8 42  1  0
 11 43  1  0
 12 44  1  0
 13 45  1  0
 14 46  1  0
 17 47  1  0
 17 48  1  0
 17 49  1  0
 19 50  1  0
 21 51  1  0
 21 52  1  0
 21 53  1  0
 22 54  1  0
 25 55  1  0
 25 56  1  0
 25 57  1  0
M  CHG  2   8   1  16   1
M  END
>  <UniqueID>  (16) 
16

>  <SMILES>  (16) 
CCN(CC)CC[NH2+]c1c2ccccc2[n+](C)c2cc(C)cc(OC)c12

>  <Energy>  (16) 
95.2363366906747

>  <Genealogy>  (16) 
CCN(CC)CC[NH2+]c1c2ccccc2[n+](C)c2cc(C)cc(OC)c12 (protonated)
CCN(CC)CC[NH2+]c1c2ccccc2[n+](C)c2cc(C)cc(OC)c12 (3D coordinates assigned)
CCN(CC)CC[NH2+]c1c2ccccc2[n+](C)c2cc(C)cc(OC)c12 (optimized conformer: 95.2363366906747 kcal/mol)

>  <smiles>  (16) 
CCN(CC)CCNc1c2ccccc2[n+](C)c2cc(C)cc(OC)c12

>  <score_type>  (16) 
oracle

>  <origin>  (16) 
adg

>  <m_score__min__energy>  (16) 
-7.9299999999999997

>  <m_primary>  (16) 
energy

$$$$
16:0
     RDKit          3D

 60 63  0  0  0  0  0  0  0  0999 V2000
   -5.7880   17.5450  -33.5700 C   0  0  0  0  0  0  0  0  0  0  0  0
   -4.9870   18.4090  -32.5920 C   0  0  0  0  0  0  0  0  0  0  0  0
   -4.6100   19.7160  -33.1690 N   0  0  0  0  0  0  0  0  0  0  0  0
   -3.8030   20.5080  -32.2620 C   0  0  0  0  0  0  0  0  0  0  0  0
   -4.3360   20.9090  -31.0260 C   0  0  0  0  0  0  0  0  0  0  0  0
   -3.6520   21.8250  -30.2190 C   0  0  0  0  0  0  0  0  0  0  0  0
   -2.3900   22.2990  -30.6080 C   0  0  0  0  0  0  0  0  0  0  0  0
   -1.8140   21.8360  -31.7960 C   0  0  0  0  0  0  0  0  0  0  0  0
   -2.5140   20.9590  -32.6300 C   0  0  0  0  0  0  0  0  0  0  0  0
   -1.9310   20.5630  -33.8360 O   0  0  0  0  0  0  0  0  0  0  0  0
   -0.6120   20.9650  -34.1830 C   0  0  0  0  0  0  0  0  0  0  0  0
   -1.7020   23.4120  -29.8470 C   0  0  0  0  0  0  0  0  0  0  0  0
   -2.5280   23.9950  -28.6680 C   0  0  0  0  0  0  0  0  0  0  0  0
   -3.9860   23.8270  -28.8230 N   0  0  0  0  0  0  0  0  0  0  0  0
   -4.5310   24.6900  -29.9000 C   0  0  0  0  0  0  0  0  0  0  0  0
   -6.0340   24.9410  -29.7360 C   0  0  0  0  0  0  0  0  0  0  0  0
   -6.7970   23.9630  -30.5450 N   0  0  0  0  0  0  0  0  0  0  0  0
   -6.0070   23.4680  -31.6870 C   0  0  0  0  0  0  0  0  0  0  0  0
   -6.9310   22.7920  -32.6970 C   0  0  0  0  0  0  0  0  0  0  0  0
   -7.8510   21.7430  -32.0390 C   0  0  2  0  0  0  0  0  0  0  0  0
   -7.9890   20.3650  -32.7120 C   0  0  0  0  0  0  0  0  0  0  0  0
   -7.1080   20.2690  -33.7970 O   0  0  0  0  0  0  0  0  0  0  0  0
   -9.1320   22.3130  -31.4210 C   0  0  0  0  0  0  0  0  0  0  0  0
   -8.0280   21.7640  -30.5200 C   0  0  2  0  0  0  0  0  0  0  0  0
   -7.2630   22.8310  -29.7180 C   0  0  0  0  0  0  0  0  0  0  0  0
   -4.3050   22.3900  -28.9870 C   0  0  0  0  0  0  0  0  0  0  0  0
   -6.4302   16.8523  -33.0062 H   0  0  0  0  0  0  0  0  0  0  0  0
   -6.4133   18.1916  -34.2032 H   0  0  0  0  0  0  0  0  0  0  0  0
   -5.0960   16.9704  -34.2032 H   0  0  0  0  0  0  0  0  0  0  0  0
   -5.5974   18.5830  -31.6936 H   0  0  0  0  0  0  0  0  0  0  0  0
   -4.0589   17.8694  -32.3524 H   0  0  0  0  0  0  0  0  0  0  0  0
   -4.0700   19.5480  -34.0500 H   0  0  0  0  0  0  0  0  0  0  0  0
   -5.4870   20.2130  -33.4380 H   0  0  0  0  0  0  0  0  0  0  0  0
   -5.2998   20.4993  -30.6893 H   0  0  0  0  0  0  0  0  0  0  0  0
   -0.8023   22.1646  -32.0761 H   0  0  0  0  0  0  0  0  0  0  0  0
   -0.0298   21.1424  -33.2667 H   0  0  0  0  0  0  0  0  0  0  0  0
   -0.1311   20.1726  -34.7753 H   0  0  0  0  0  0  0  0  0  0  0  0
   -0.6548   21.8909  -34.7753 H   0  0  0  0  0  0  0  0  0  0  0  0
   -0.7575   23.0187  -29.4429 H   0  0  0  0  0  0  0  0  0  0  0  0
   -1.5555   24.2348  -30.5622 H   0  0  0  0  0  0  0  0  0  0  0  0
   -2.2168   23.4885  -27.7424 H   0  0  0  0  0  0  0  0  0  0  0  0
   -2.3307   25.0768  -28.6421 H   0  0  0  0  0  0  0  0  0  0  0  0
   -4.0061   25.6565  -29.8792 H   0  0  0  0  0  0  0  0  0  0  0  0
   -4.3778   24.1717  -30.8581 H   0  0  0  0  0  0  0  0  0  0  0  0
   -6.3090   24.8321  -28.6765 H   0  0  0  0  0  0  0  0  0  0  0  0
   -6.2717   25.9592  -30.0778 H   0  0  0  0  0  0  0  0  0  0  0  0
   -5.4930   24.3124  -32.1696 H   0  0  0  0  0  0  0  0  0  0  0  0
   -5.2644   22.7401  -31.3282 H   0  0  0  0  0  0  0  0  0  0  0  0
   -7.5562   23.5610  -33.1743 H   0  0  0  0  0  0  0  0  0  0  0  0
   -6.3010   22.2719  -33.4336 H   0  0  0  0  0  0  0  0  0  0  0  0
   -7.7530   19.5777  -31.9809 H   0  0  0  0  0  0  0  0  0  0  0  0
   -9.0206   20.2426  -33.0738 H   0  0  0  0  0  0  0  0  0  0  0  0
   -7.6610   20.0610  -34.5980 H   0  0  0  0  0  0  0  0  0  0  0  0
   -9.3255   23.3953  -31.4566 H   0  0  0  0  0  0  0  0  0  0  0  0
  -10.2077   22.1167  -31.5410 H   0  0  0  0  0  0  0  0  0  0  0  0
   -7.9468   20.9967  -29.7360 H   0  0  0  0  0  0  0  0  0  0  0  0
   -7.9285   23.2222  -28.9344 H   0  0  0  0  0  0  0  0  0  0  0  0
   -6.3696   22.3447  -29.2994 H   0  0  0  0  0  0  0  0  0  0  0  0
   -3.9447   21.8396  -28.1054 H   0  0  0  0  0  0  0  0  0  0  0  0
   -5.3950   22.2848  -29.0911 H   0  0  0  0  0  0  0  0  0  0  0  0
  1  2  1  0
  2  3  1  0
  3  4  1  0
  4  5  2  0
  5  6  1  0
  6  7  2  0
  7  8  1  0
  8  9  2  0
  9 10  1  0
 10 11  1  0
  7 12  1  0
 12 13  1  0
 13 14  1  0
 14 15  1  0
 15 16  1  0
 16 17  1  0
 17 18  1  0
 18 19  1  0
 19 20  1  0
 20 21  1  6
 21 22  1  0
 20 23  1  0
 23 24  1  0
 24 25  1  0
 14 26  1  0
  9  4  1  0
 25 17  1  0
 26  6  1  0
 24 20  1  0
  1 27  1  0
  1 28  1  0
  1 29  1  0
  2 30  1  0
  2 31  1  0
  3 32  1  0
  3 33  1  0
  5 34  1  0
  8 35  1  0
 11 36  1  0
 11 37  1  0
 11 38  1  0
 12 39  1  0
 12 40  1  0
 13 41  1  0
 13 42  1  0
 15 43  1  0
 15 44  1  0
 16 45  1  0
 16 46  1  0
 18 47  1  0
 18 48  1  0
 19 49  1  0
 19 50  1  0
 21 51  1  0
 21 52  1  0
 22 53  1  0
 23 54  1  0
 23 55  1  0
 24 56  1  1
 25 57  1  0
 25 58  1  0
 26 59  1  0
 26 60  1  0
M  CHG  1   3   1
M  END
>  <UniqueID>  (17) 
17

>  <SMILES>  (17) 
CC[NH2+]c1cc2c(cc1OC)CCN(CCN1CC[C@]3(CO)C[C@@H]3C1)C2

>  <Energy>  (17) 
348.4986657360594

>  <Genealogy>  (17) 
CC[NH2+]c1cc2c(cc1OC)CCN(CCN1CCC3(CO)CC3C1)C2 (protonated)
CC[NH2+]c1cc2c(cc1OC)CCN(CCN1CC[C@]3(CO)C[C@@H]3C1)C2 (chirality)
CC[NH2+]c1cc2c(cc1OC)CCN(CCN1CC[C@]3(CO)C[C@@H]3C1)C2 (3D coordinates assigned)
CC[NH2+]c1cc2c(cc1OC)CCN(CCN1CC[C@]3(CO)C[C@@H]3C1)C2 (nonaromatic ring conformer: 348.4986657360594 kcal/mol)

>  <smiles>  (17) 
CCNc1cc2c(cc1OC)CCN(CCN1CCC3(CO)CC3C1)C2

>  <score_type>  (17) 
oracle

>  <origin>  (17) 
adg

>  <m_score__min__energy>  (17) 
-7.9299999999999997

>  <m_primary>  (17) 
energy

$$$$
17:0
     RDKit          3D

 34 36  0  0  0  0  0  0  0  0999 V2000
   -9.2020   19.6120  -32.6960 C   0  0  0  0  0  0  0  0  0  0  0  0
   -7.8350   20.1210  -32.7040 N   0  0  0  0  0  0  0  0  0  0  0  0
   -6.7960   19.6290  -33.4200 C   0  0  0  0  0  0  0  0  0  0  0  0
   -5.6440   20.3710  -33.1800 C   0  0  0  0  0  0  0  0  0  0  0  0
   -6.0200   21.3470  -32.2810 C   0  0  0  0  0  0  0  0  0  0  0  0
   -5.2780   22.3670  -31.6920 C   0  0  0  0  0  0  0  0  0  0  0  0
   -5.9340   23.2290  -30.7890 C   0  0  0  0  0  0  0  0  0  0  0  0
   -5.0430   24.5440  -30.0170 S   0  0  0  0  0  0  0  0  0  0  0  0
   -6.0210   25.4890  -29.3760 O   0  0  0  0  0  0  0  0  0  0  0  0
   -4.2850   25.3050  -31.0690 O   0  0  0  0  0  0  0  0  0  0  0  0
   -3.9190   23.9820  -28.8030 N   0  0  0  0  0  0  0  0  0  0  0  0
   -4.2060   24.5430  -27.4840 C   0  0  0  0  0  0  0  0  0  0  0  0
   -2.8950   24.5230  -26.7140 C   0  0  0  0  0  0  0  0  0  0  0  0
   -1.8070   24.4120  -27.7730 C   0  0  0  0  0  0  0  0  0  0  0  0
   -2.5420   24.3750  -29.1030 C   0  0  0  0  0  0  0  0  0  0  0  0
   -7.3140   23.0510  -30.5200 C   0  0  0  0  0  0  0  0  0  0  0  0
   -8.0360   22.0110  -31.1320 C   0  0  0  0  0  0  0  0  0  0  0  0
   -7.3530   21.1710  -32.0120 C   0  0  0  0  0  0  0  0  0  0  0  0
   -9.5403   19.4860  -31.6569 H   0  0  0  0  0  0  0  0  0  0  0  0
   -9.8617   20.3248  -33.2125 H   0  0  0  0  0  0  0  0  0  0  0  0
   -9.2349   18.6414  -33.2125 H   0  0  0  0  0  0  0  0  0  0  0  0
   -6.8548   18.7637  -34.0966 H   0  0  0  0  0  0  0  0  0  0  0  0
   -4.6459   20.2130  -33.6146 H   0  0  0  0  0  0  0  0  0  0  0  0
   -4.2107   22.4969  -31.9243 H   0  0  0  0  0  0  0  0  0  0  0  0
   -4.5742   25.5750  -27.5815 H   0  0  0  0  0  0  0  0  0  0  0  0
   -4.9824   23.9625  -26.9643 H   0  0  0  0  0  0  0  0  0  0  0  0
   -2.7748   25.4500  -26.1342 H   0  0  0  0  0  0  0  0  0  0  0  0
   -2.8543   23.6904  -25.9963 H   0  0  0  0  0  0  0  0  0  0  0  0
   -1.1358   25.2823  -27.7281 H   0  0  0  0  0  0  0  0  0  0  0  0
   -1.1817   23.5191  -27.6257 H   0  0  0  0  0  0  0  0  0  0  0  0
   -2.5241   25.3683  -29.5753 H   0  0  0  0  0  0  0  0  0  0  0  0
   -2.0686   23.6686  -29.8008 H   0  0  0  0  0  0  0  0  0  0  0  0
   -7.8256   23.7334  -29.8253 H   0  0  0  0  0  0  0  0  0  0  0  0
   -9.1060   21.8643  -30.9234 H   0  0  0  0  0  0  0  0  0  0  0  0
  1  2  1  0
  2  3  1  0
  3  4  2  0
  4  5  1  0
  5  6  2  0
  6  7  1  0
  7  8  1  0
  8  9  2  0
  8 10  2  0
  8 11  1  0
 11 12  1  0
 12 13  1  0
 13 14  1  0
 14 15  1  0
  7 16  2  0
 16 17  1  0
 17 18  2  0
 18  2  1  0
 18  5  1  0
 15 11  1  0
  1 19  1  0
  1 20  1  0
  1 21  1  0
  3 22  1  0
  4 23  1  0
  6 24  1  0
 12 25  1  0
 12 26  1  0
 13 27  1  0
 13 28  1  0
 14 29  1  0
 14 30  1  0
 15 31  1  0
 15 32  1  0
 16 33  1  0
 17 34  1  0
M  END
>  <UniqueID>  (18) 
18

>  <SMILES>  (18) 
Cn1ccc2cc(S(=O)(=O)N3CCCC3)ccc21

>  <Energy>  (18) 
68.54815975665775

>  <Genealogy>  (18) 
Cn1ccc2cc(S(=O)(=O)N3CCCC3)ccc21 (3D coordinates assigned)
Cn1ccc2cc(S(=O)(=O)N3CCCC3)ccc21 (nonaromatic ring conformer: 68.54815975665775 kcal/mol)

>  <smiles>  (18) 
Cn1ccc2cc(S(=O)(=O)N3CCCC3)ccc21

>  <score_type>  (18) 
oracle

>  <origin>  (18) 
adg

>  <m_score__min__energy>  (18) 
-7.9500000000000002

>  <m_primary>  (18) 
energy

$$$$
18:0
     RDKit          3D

 59 61  0  0  0  0  0  0  0  0999 V2000
   -2.3560   20.2850  -27.4770 C   0  0  0  0  0  0  0  0  0  0  0  0
   -2.4340   21.2080  -28.6930 C   0  0  0  0  0  0  0  0  0  0  0  0
   -1.1960   22.0100  -28.8130 N   0  0  0  0  0  0  0  0  0  0  0  0
   -0.8630   22.2650  -30.2350 C   0  0  0  0  0  0  0  0  0  0  0  0
   -1.7270   21.3970  -31.1460 C   0  0  0  0  0  0  0  0  0  0  0  0
   -1.3020   23.2780  -28.0530 C   0  0  0  0  0  0  0  0  0  0  0  0
   -0.8860   24.4600  -28.9420 C   0  0  0  0  0  0  0  0  0  0  0  0
   -2.0000   25.2510  -29.3120 O   0  0  0  0  0  0  0  0  0  0  0  0
   -3.2210   24.5560  -29.1190 C   0  0  0  0  0  0  0  0  0  0  0  0
   -3.7620   24.1020  -30.4710 C   0  0  0  0  0  0  0  0  0  0  0  0
   -4.7340   25.0270  -30.9290 O   0  0  0  0  0  0  0  0  0  0  0  0
   -5.7320   25.2710  -29.9570 C   0  0  0  0  0  0  0  0  0  0  0  0
   -6.8700   24.2550  -30.1070 C   0  0  0  0  0  0  0  0  0  0  0  0
   -7.1830   24.0220  -31.5250 N   0  0  0  0  0  0  0  0  0  0  0  0
   -7.1950   22.6020  -31.7980 C   0  0  0  0  0  0  0  0  0  0  0  0
   -8.3390   21.8340  -31.5180 C   0  0  0  0  0  0  0  0  0  0  0  0
   -9.4300   22.4050  -30.9520 F   0  0  0  0  0  0  0  0  0  0  0  0
   -8.3690   20.4700  -31.8160 C   0  0  0  0  0  0  0  0  0  0  0  0
   -7.2650   19.8230  -32.4150 C   0  0  0  0  0  0  0  0  0  0  0  0
   -7.3360   18.4220  -32.6970 C   0  0  0  0  0  0  0  0  0  0  0  0
   -8.3950   17.8100  -32.3830 O   0  0  0  0  0  0  0  0  0  0  0  0
   -6.2920   17.6640  -33.3140 C   0  0  0  0  0  0  0  0  0  0  0  0
   -6.4580   16.2780  -33.5460 C   0  0  0  0  0  0  0  0  0  0  0  0
   -5.4460   15.5270  -34.1460 C   0  0  0  0  0  0  0  0  0  0  0  0
   -4.2640   16.1550  -34.5300 C   0  0  0  0  0  0  0  0  0  0  0  0
   -4.0990   17.4840  -34.3110 N   0  0  0  0  0  0  0  0  0  0  0  0
   -5.0680   18.2360  -33.7230 C   0  0  0  0  0  0  0  0  0  0  0  0
   -4.8110   19.8750  -33.4590 S   0  0  0  0  0  0  0  0  0  0  0  0
   -6.1290   20.6140  -32.7160 C   0  0  0  0  0  0  0  0  0  0  0  0
   -6.0940   21.9820  -32.4110 C   0  0  0  0  0  0  0  0  0  0  0  0
   -4.9850   22.7110  -32.7080 F   0  0  0  0  0  0  0  0  0  0  0  0
   -2.4068   20.8857  -26.5569 H   0  0  0  0  0  0  0  0  0  0  0  0
   -3.1975   19.5769  -27.4995 H   0  0  0  0  0  0  0  0  0  0  0  0
   -1.4076   19.7282  -27.4995 H   0  0  0  0  0  0  0  0  0  0  0  0
   -2.5618   20.6007  -29.6012 H   0  0  0  0  0  0  0  0  0  0  0  0
   -3.2892   21.8887  -28.5697 H   0  0  0  0  0  0  0  0  0  0  0  0
   -1.0442   23.3252  -30.4655 H   0  0  0  0  0  0  0  0  0  0  0  0
    0.1954   22.0178  -30.4042 H   0  0  0  0  0  0  0  0  0  0  0  0
   -2.3712   20.7498  -30.5327 H   0  0  0  0  0  0  0  0  0  0  0  0
   -2.3528   22.0414  -31.7809 H   0  0  0  0  0  0  0  0  0  0  0  0
   -1.0797   20.7742  -31.7809 H   0  0  0  0  0  0  0  0  0  0  0  0
   -2.3417   23.4189  -27.7227 H   0  0  0  0  0  0  0  0  0  0  0  0
   -0.6358   23.2317  -27.1789 H   0  0  0  0  0  0  0  0  0  0  0  0
   -0.1704   25.0872  -28.3902 H   0  0  0  0  0  0  0  0  0  0  0  0
   -0.4302   24.0574  -29.8586 H   0  0  0  0  0  0  0  0  0  0  0  0
   -3.0470   23.6782  -28.4793 H   0  0  0  0  0  0  0  0  0  0  0  0
   -3.9510   25.2212  -28.6346 H   0  0  0  0  0  0  0  0  0  0  0  0
   -2.9368   24.0488  -31.1964 H   0  0  0  0  0  0  0  0  0  0  0  0
   -4.2237   23.1092  -30.3651 H   0  0  0  0  0  0  0  0  0  0  0  0
   -5.2924   25.1798  -28.9528 H   0  0  0  0  0  0  0  0  0  0  0  0
   -6.1330   26.2855  -30.0982 H   0  0  0  0  0  0  0  0  0  0  0  0
   -6.5670   23.3042  -29.6443 H   0  0  0  0  0  0  0  0  0  0  0  0
   -7.7662   24.6558  -29.6109 H   0  0  0  0  0  0  0  0  0  0  0  0
   -8.1170   24.4340  -31.7490 H   0  0  0  0  0  0  0  0  0  0  0  0
   -6.4760   24.4950  -32.1320 H   0  0  0  0  0  0  0  0  0  0  0  0
   -9.2713   19.8870  -31.5794 H   0  0  0  0  0  0  0  0  0  0  0  0
   -7.3963   15.7863  -33.2498 H   0  0  0  0  0  0  0  0  0  0  0  0
   -5.5810   14.4483  -34.3141 H   0  0  0  0  0  0  0  0  0  0  0  0
   -3.4637   15.5736  -35.0111 H   0  0  0  0  0  0  0  0  0  0  0  0
  1  2  1  0
  2  3  1  0
  3  4  1  0
  4  5  1  0
  3  6  1  0
  6  7  1  0
  7  8  1  0
  8  9  1  0
  9 10  1  0
 10 11  1  0
 11 12  1  0
 12 13  1  0
 13 14  1  0
 14 15  1  0
 15 16  2  0
 16 17  1  0
 16 18  1  0
 18 19  2  0
 19 20  1  0
 20 21  2  0
 20 22  1  0
 22 23  2  0
 23 24  1  0
 24 25  2  0
 25 26  1  0
 26 27  2  0
 27 28  1  0
 28 29  1  0
 29 30  2  0
 30 31  1  0
 30 15  1  0
 29 19  1  0
 27 22  1  0
  1 32  1  0
  1 33  1  0
  1 34  1  0
  2 35  1  0
  2 36  1  0
  4 37  1  0
  4 38  1  0
  5 39  1  0
  5 40  1  0
  5 41  1  0
  6 42  1  0
  6 43  1  0
  7 44  1  0
  7 45  1  0
  9 46  1  0
  9 47  1  0
 10 48  1  0
 10 49  1  0
 12 50  1  0
 12 51  1  0
 13 52  1  0
 13 53  1  0
 14 54  1  0
 14 55  1  0
 18 56  1  0
 23 57  1  0
 24 58  1  0
 25 59  1  0
M  CHG  1  14   1
M  END
>  <UniqueID>  (19) 
19

>  <SMILES>  (19) 
CCN(CC)CCOCCOCC[NH2+]c1c(F)cc2c(=O)c3cccnc3sc2c1F

>  <Energy>  (19) 
76.52443243083975

>  <Genealogy>  (19) 
CCN(CC)CCOCCOCC[NH2+]c1c(F)cc2c(=O)c3cccnc3sc2c1F (protonated)
CCN(CC)CCOCCOCC[NH2+]c1c(F)cc2c(=O)c3cccnc3sc2c1F (3D coordinates assigned)
CCN(CC)CCOCCOCC[NH2+]c1c(F)cc2c(=O)c3cccnc3sc2c1F (optimized conformer: 76.52443243083975 kcal/mol)

>  <smiles>  (19) 
CCN(CC)CCOCCOCCNc1c(F)cc2c(=O)c3cccnc3sc2c1F

>  <score_type>  (19) 
oracle

>  <origin>  (19) 
adg

>  <m_score__min__energy>  (19) 
-8.1199999999999992

>  <m_primary>  (19) 
energy

$$$$
19:0
     RDKit          3D

 61 63  0  0  0  0  0  0  0  0999 V2000
   -6.5840   25.6770  -29.4820 C   0  0  0  0  0  0  0  0  0  0  0  0
   -5.3010   24.9170  -29.8620 C   0  0  0  0  0  0  0  0  0  0  0  0
   -5.0020   23.7520  -28.9890 N   0  0  0  0  0  0  0  0  0  0  0  0
   -4.1420   24.1470  -27.8430 C   0  0  0  0  0  0  0  0  0  0  0  0
   -2.6550   24.1720  -28.2070 C   0  0  0  0  0  0  0  0  0  0  0  0
   -4.4300   22.6110  -29.7700 C   0  0  0  0  0  0  0  0  0  0  0  0
   -4.0110   23.0180  -31.1990 C   0  0  0  0  0  0  0  0  0  0  0  0
   -3.6460   21.8010  -32.0620 C   0  0  0  0  0  0  0  0  0  0  0  0
   -4.6330   21.6180  -33.1210 N   0  0  0  0  0  0  0  0  0  0  0  0
   -5.7970   20.8050  -32.9140 C   0  0  0  0  0  0  0  0  0  0  0  0
   -7.0040   21.3920  -32.4990 C   0  0  0  0  0  0  0  0  0  0  0  0
   -7.1030   22.7890  -32.3180 C   0  0  0  0  0  0  0  0  0  0  0  0
   -8.3160   23.3740  -31.9630 C   0  0  0  0  0  0  0  0  0  0  0  0
   -9.4460   22.5840  -31.7930 C   0  0  0  0  0  0  0  0  0  0  0  0
   -9.3660   21.1990  -31.9430 C   0  0  0  0  0  0  0  0  0  0  0  0
   -8.1360   20.5690  -32.2630 C   0  0  0  0  0  0  0  0  0  0  0  0
   -8.0250   19.1940  -32.3610 N   0  0  0  0  0  0  0  0  0  0  0  0
   -9.0950   18.3270  -31.8220 C   0  0  0  0  0  0  0  0  0  0  0  0
   -6.9030   18.6310  -32.9420 C   0  0  0  0  0  0  0  0  0  0  0  0
   -6.8650   17.2660  -33.3210 C   0  0  0  0  0  0  0  0  0  0  0  0
   -5.7080   16.6900  -33.8750 C   0  0  0  0  0  0  0  0  0  0  0  0
   -5.6460   15.3340  -34.2340 O   0  0  0  0  0  0  0  0  0  0  0  0
   -4.9000   14.3430  -33.5360 C   0  0  0  0  0  0  0  0  0  0  0  0
   -4.5740   17.4780  -34.0850 C   0  0  0  0  0  0  0  0  0  0  0  0
   -3.4300   16.8690  -34.6260 O   0  0  0  0  0  0  0  0  0  0  0  0
   -2.1140   17.4090  -34.5450 C   0  0  0  0  0  0  0  0  0  0  0  0
   -4.6100   18.8420  -33.7630 C   0  0  0  0  0  0  0  0  0  0  0  0
   -5.7600   19.4280  -33.1980 C   0  0  0  0  0  0  0  0  0  0  0  0
   -6.6694   25.7276  -28.3865 H   0  0  0  0  0  0  0  0  0  0  0  0
   -6.5421   26.6961  -29.8939 H   0  0  0  0  0  0  0  0  0  0  0  0
   -7.4576   25.1506  -29.8939 H   0  0  0  0  0  0  0  0  0  0  0  0
   -5.4075   24.5554  -30.8954 H   0  0  0  0  0  0  0  0  0  0  0  0
   -4.4672   25.6244  -29.7418 H   0  0  0  0  0  0  0  0  0  0  0  0
   -5.9300   23.4730  -28.5890 H   0  0  0  0  0  0  0  0  0  0  0  0
   -4.4401   25.1515  -27.5080 H   0  0  0  0  0  0  0  0  0  0  0  0
   -4.2791   23.3985  -27.0487 H   0  0  0  0  0  0  0  0  0  0  0  0
   -2.0524   24.1821  -27.2868 H   0  0  0  0  0  0  0  0  0  0  0  0
   -2.4071   23.2779  -28.7979 H   0  0  0  0  0  0  0  0  0  0  0  0
   -2.4373   25.0739  -28.7979 H   0  0  0  0  0  0  0  0  0  0  0  0
   -3.5454   22.2295  -29.2391 H   0  0  0  0  0  0  0  0  0  0  0  0
   -5.2131   21.8437  -29.8592 H   0  0  0  0  0  0  0  0  0  0  0  0
   -4.8462   23.5528  -31.6749 H   0  0  0  0  0  0  0  0  0  0  0  0
   -3.1199   23.6583  -31.1216 H   0  0  0  0  0  0  0  0  0  0  0  0
   -2.6551   21.9595  -32.5126 H   0  0  0  0  0  0  0  0  0  0  0  0
   -3.6313   20.9030  -31.4269 H   0  0  0  0  0  0  0  0  0  0  0  0
   -4.5720   22.1910  -34.0010 H   0  0  0  0  0  0  0  0  0  0  0  0
   -6.2138   23.4210  -32.4587 H   0  0  0  0  0  0  0  0  0  0  0  0
   -8.3794   24.4624  -31.8171 H   0  0  0  0  0  0  0  0  0  0  0  0
  -10.4083   23.0525  -31.5390 H   0  0  0  0  0  0  0  0  0  0  0  0
  -10.2702   20.5866  -31.8111 H   0  0  0  0  0  0  0  0  0  0  0  0
   -9.0666   18.3500  -30.7226 H   0  0  0  0  0  0  0  0  0  0  0  0
  -10.0726   18.6909  -32.1712 H   0  0  0  0  0  0  0  0  0  0  0  0
   -8.9417   17.2952  -32.1712 H   0  0  0  0  0  0  0  0  0  0  0  0
   -7.7605   16.6432  -33.1786 H   0  0  0  0  0  0  0  0  0  0  0  0
   -5.0137   14.4940  -32.4524 H   0  0  0  0  0  0  0  0  0  0  0  0
   -5.2724   13.3444  -33.8081 H   0  0  0  0  0  0  0  0  0  0  0  0
   -3.8373   14.4247  -33.8081 H   0  0  0  0  0  0  0  0  0  0  0  0
   -1.8299   17.5256  -33.4887 H   0  0  0  0  0  0  0  0  0  0  0  0
   -1.4071   16.7282  -35.0419 H   0  0  0  0  0  0  0  0  0  0  0  0
   -2.0890   18.3901  -35.0419 H   0  0  0  0  0  0  0  0  0  0  0  0
   -3.7246   19.4659  -33.9549 H   0  0  0  0  0  0  0  0  0  0  0  0
  1  2  1  0
  2  3  1  0
  3  4  1  0
  4  5  1  0
  3  6  1  0
  6  7  1  0
  7  8  1  0
  8  9  1  0
  9 10  1  0
 10 11  2  0
 11 12  1  0
 12 13  2  0
 13 14  1  0
 14 15  2  0
 15 16  1  0
 16 17  2  0
 17 18  1  0
 17 19  1  0
 19 20  2  0
 20 21  1  0
 21 22  1  0
 22 23  1  0
 21 24  2  0
 24 25  1  0
 25 26  1  0
 24 27  1  0
 27 28  2  0
 28 10  1  0
 16 11  1  0
 28 19  1  0
  1 29  1  0
  1 30  1  0
  1 31  1  0
  2 32  1  0
  2 33  1  0
  3 34  1  0
  4 35  1  0
  4 36  1  0
  5 37  1  0
  5 38  1  0
  5 39  1  0
  6 40  1  0
  6 41  1  0
  7 42  1  0
  7 43  1  0
  8 44  1  0
  8 45  1  0
  9 46  1  0
 12 47  1  0
 13 48  1  0
 14 49  1  0
 15 50  1  0
 18 51  1  0
 18 52  1  0
 18 53  1  0
 20 54  1  0
 23 55  1  0
 23 56  1  0
 23 57  1  0
 26 58  1  0
 26 59  1  0
 26 60  1  0
 27 61  1  0
M  CHG  2   3   1  17   1
M  END
>  <UniqueID>  (20) 
20

>  <SMILES>  (20) 
CC[NH+](CC)CCCNc1c2ccccc2[n+](C)c2cc(OC)c(OC)cc12

>  <Energy>  (20) 
87.60539786246999

>  <Genealogy>  (20) 
CC[NH+](CC)CCCNc1c2ccccc2[n+](C)c2cc(OC)c(OC)cc12 (protonated)
CC[NH+](CC)CCCNc1c2ccccc2[n+](C)c2cc(OC)c(OC)cc12 (3D coordinates assigned)
CC[NH+](CC)CCCNc1c2ccccc2[n+](C)c2cc(OC)c(OC)cc12 (optimized conformer: 87.60539786246999 kcal/mol)

>  <smiles>  (20) 
CCN(CC)CCCNc1c2ccccc2[n+](C)c2cc(OC)c(OC)cc12

>  <score_type>  (20) 
oracle

>  <origin>  (20) 
adg

>  <m_score__min__energy>  (20) 
-7.2599999999999998

>  <m_primary>  (20) 
energy

$$$$
20:0
     RDKit          3D

 40 42  0  0  0  0  0  0  0  0999 V2000
   -2.8630   24.6440  -26.9570 C   0  0  0  0  0  0  0  0  0  0  0  0
   -4.2260   24.3030  -27.5480 C   0  0  0  0  0  0  0  0  0  0  0  0
   -4.0830   23.7630  -28.9040 N   0  0  0  0  0  0  0  0  0  0  0  0
   -3.1250   22.7290  -29.1910 C   0  0  0  0  0  0  0  0  0  0  0  0
   -2.1960   22.8950  -30.2310 C   0  0  0  0  0  0  0  0  0  0  0  0
   -1.2710   21.8870  -30.5190 C   0  0  0  0  0  0  0  0  0  0  0  0
   -1.2680   20.7060  -29.7730 C   0  0  0  0  0  0  0  0  0  0  0  0
   -2.1900   20.5310  -28.7380 C   0  0  0  0  0  0  0  0  0  0  0  0
   -3.1170   21.5360  -28.4470 C   0  0  0  0  0  0  0  0  0  0  0  0
   -5.0930   24.3880  -30.1770 S   0  0  0  0  0  0  0  0  0  0  0  0
   -6.2080   25.2160  -29.6010 O   0  0  0  0  0  0  0  0  0  0  0  0
   -4.2560   25.2490  -31.0820 O   0  0  0  0  0  0  0  0  0  0  0  0
   -5.8000   23.0500  -31.0740 C   0  0  0  0  0  0  0  0  0  0  0  0
   -5.0090   22.3290  -31.9920 C   0  0  0  0  0  0  0  0  0  0  0  0
   -5.5610   21.2630  -32.7180 C   0  0  0  0  0  0  0  0  0  0  0  0
   -6.9020   20.9310  -32.5100 C   0  0  0  0  0  0  0  0  0  0  0  0
   -7.6660   21.6270  -31.6170 C   0  0  0  0  0  0  0  0  0  0  0  0
   -7.1470   22.6930  -30.8800 C   0  0  0  0  0  0  0  0  0  0  0  0
   -9.0340   21.0820  -31.5840 C   0  0  0  0  0  0  0  0  0  0  0  0
   -8.9650   19.9340  -32.6130 C   0  0  0  0  0  0  0  0  0  0  0  0
   -7.5960   19.8780  -33.1700 N   0  0  0  0  0  0  0  0  0  0  0  0
   -2.9252   24.6284  -25.8589 H   0  0  0  0  0  0  0  0  0  0  0  0
   -2.1221   23.9035  -27.2928 H   0  0  0  0  0  0  0  0  0  0  0  0
   -2.5581   25.6461  -27.2928 H   0  0  0  0  0  0  0  0  0  0  0  0
   -4.7184   23.5535  -26.9110 H   0  0  0  0  0  0  0  0  0  0  0  0
   -4.8306   25.2207  -27.5949 H   0  0  0  0  0  0  0  0  0  0  0  0
   -2.1961   23.8228  -30.8220 H   0  0  0  0  0  0  0  0  0  0  0  0
   -0.5449   22.0240  -31.3338 H   0  0  0  0  0  0  0  0  0  0  0  0
   -0.5396   19.9137  -30.0005 H   0  0  0  0  0  0  0  0  0  0  0  0
   -2.1864   19.6007  -28.1510 H   0  0  0  0  0  0  0  0  0  0  0  0
   -3.8429   21.3930  -27.6330 H   0  0  0  0  0  0  0  0  0  0  0  0
   -3.9541   22.6037  -32.1396 H   0  0  0  0  0  0  0  0  0  0  0  0
   -4.9493   20.6991  -33.4376 H   0  0  0  0  0  0  0  0  0  0  0  0
   -7.7768   23.2413  -30.1640 H   0  0  0  0  0  0  0  0  0  0  0  0
   -9.2862   20.7029  -30.5827 H   0  0  0  0  0  0  0  0  0  0  0  0
   -9.8079   21.8292  -31.8139 H   0  0  0  0  0  0  0  0  0  0  0  0
   -9.2032   18.9801  -32.1198 H   0  0  0  0  0  0  0  0  0  0  0  0
   -9.6911   20.1102  -33.4203 H   0  0  0  0  0  0  0  0  0  0  0  0
   -7.1400   18.9620  -32.9490 H   0  0  0  0  0  0  0  0  0  0  0  0
   -7.6060   20.0550  -34.2020 H   0  0  0  0  0  0  0  0  0  0  0  0
  1  2  1  0
  2  3  1  0
  3  4  1  0
  4  5  2  0
  5  6  1  0
  6  7  2  0
  7  8  1  0
  8  9  2  0
  3 10  1  0
 10 11  2  0
 10 12  2  0
 10 13  1  0
 13 14  2  0
 14 15  1  0
 15 16  2  0
 16 17  1  0
 17 18  2  0
 17 19  1  0
 19 20  1  0
 20 21  1  0
  9  4  1  0
 18 13  1  0
 21 16  1  0
  1 22  1  0
  1 23  1  0
  1 24  1  0
  2 25  1  0
  2 26  1  0
  5 27  1  0
  6 28  1  0
  7 29  1  0
  8 30  1  0
  9 31  1  0
 14 32  1  0
 15 33  1  0
 18 34  1  0
 19 35  1  0
 19 36  1  0
 20 37  1  0
 20 38  1  0
 21 39  1  0
 21 40  1  0
M  CHG  1  21   1
M  END
>  <UniqueID>  (21) 
21

>  <SMILES>  (21) 
CCN(c1ccccc1)S(=O)(=O)c1ccc2c(c1)CC[NH2+]2

>  <Energy>  (21) 
52.876737129450795

>  <Genealogy>  (21) 
CCN(c1ccccc1)S(=O)(=O)c1ccc2c(c1)CC[NH2+]2 (protonated)
CCN(c1ccccc1)S(=O)(=O)c1ccc2c(c1)CC[NH2+]2 (3D coordinates assigned)
CCN(c1ccccc1)S(=O)(=O)c1ccc2c(c1)CC[NH2+]2 (nonaromatic ring conformer: 52.876737129450795 kcal/mol)

>  <smiles>  (21) 
CCN(c1ccccc1)S(=O)(=O)c1ccc2c(c1)CCN2

>  <score_type>  (21) 
oracle

>  <origin>  (21) 
adg

>  <m_score__min__energy>  (21) 
-8.0800000000000001

>  <m_primary>  (21) 
energy

$$$$
21:0
     RDKit          3D

 56 58  0  0  0  0  0  0  0  0999 V2000
   -5.3660   25.7370  -30.5940 C   0  0  0  0  0  0  0  0  0  0  0  0
   -5.0660   24.5440  -29.6880 C   0  0  0  0  0  0  0  0  0  0  0  0
   -3.8580   23.8230  -30.1460 N   0  0  0  0  0  0  0  0  0  0  0  0
   -2.6610   24.4150  -29.5210 C   0  0  0  0  0  0  0  0  0  0  0  0
   -3.9360   22.3640  -29.8660 C   0  0  0  0  0  0  0  0  0  0  0  0
   -3.4070   21.5610  -31.0650 C   0  0  0  0  0  0  0  0  0  0  0  0
   -3.5530   22.2800  -32.4260 C   0  0  0  0  0  0  0  0  0  0  0  0
   -4.3820   21.5340  -33.3950 N   0  0  0  0  0  0  0  0  0  0  0  0
   -5.4340   20.7550  -32.7400 C   0  0  0  0  0  0  0  0  0  0  0  0
   -6.6150   21.4060  -32.2960 C   0  0  0  0  0  0  0  0  0  0  0  0
   -6.6040   22.7630  -31.8890 C   0  0  0  0  0  0  0  0  0  0  0  0
   -7.7870   23.4300  -31.5850 C   0  0  0  0  0  0  0  0  0  0  0  0
   -9.0010   22.7670  -31.6690 C   0  0  0  0  0  0  0  0  0  0  0  0
   -9.0340   21.4130  -31.9950 C   0  0  0  0  0  0  0  0  0  0  0  0
   -7.8410   20.6860  -32.2500 C   0  0  0  0  0  0  0  0  0  0  0  0
   -7.8620   19.3270  -32.4930 N   0  0  0  0  0  0  0  0  0  0  0  0
   -9.1000   18.5520  -32.2360 C   0  0  0  0  0  0  0  0  0  0  0  0
   -6.7150   18.6750  -32.8990 C   0  0  0  0  0  0  0  0  0  0  0  0
   -6.7660   17.3520  -33.4040 C   0  0  0  0  0  0  0  0  0  0  0  0
   -5.6040   16.6500  -33.7250 C   0  0  0  0  0  0  0  0  0  0  0  0
   -5.6760   15.2430  -34.2420 C   0  0  0  0  0  0  0  0  0  0  0  0
   -4.3660   17.2230  -33.4510 C   0  0  0  0  0  0  0  0  0  0  0  0
   -4.2710   18.5350  -32.9710 C   0  0  0  0  0  0  0  0  0  0  0  0
   -2.9210   18.9670  -32.4620 C   0  0  0  0  0  0  0  0  0  0  0  0
   -5.4540   19.3330  -32.8520 C   0  0  0  0  0  0  0  0  0  0  0  0
   -5.5880   26.6198  -29.9764 H   0  0  0  0  0  0  0  0  0  0  0  0
   -4.4920   25.9441  -31.2290 H   0  0  0  0  0  0  0  0  0  0  0  0
   -6.2340   25.5061  -31.2290 H   0  0  0  0  0  0  0  0  0  0  0  0
   -4.9030   24.9036  -28.6613 H   0  0  0  0  0  0  0  0  0  0  0  0
   -5.9214   23.8532  -29.7223 H   0  0  0  0  0  0  0  0  0  0  0  0
   -2.7574   24.3673  -28.4263 H   0  0  0  0  0  0  0  0  0  0  0  0
   -1.7681   23.8546  -29.8352 H   0  0  0  0  0  0  0  0  0  0  0  0
   -2.5645   25.4647  -29.8352 H   0  0  0  0  0  0  0  0  0  0  0  0
   -3.3295   22.1321  -28.9781 H   0  0  0  0  0  0  0  0  0  0  0  0
   -4.9862   22.0899  -29.6875 H   0  0  0  0  0  0  0  0  0  0  0  0
   -2.3397   21.3542  -30.8973 H   0  0  0  0  0  0  0  0  0  0  0  0
   -4.0152   20.6464  -31.1249 H   0  0  0  0  0  0  0  0  0  0  0  0
   -4.0163   23.2627  -32.2538 H   0  0  0  0  0  0  0  0  0  0  0  0
   -2.5453   22.3670  -32.8583 H   0  0  0  0  0  0  0  0  0  0  0  0
   -3.7410   20.9530  -33.9680 H   0  0  0  0  0  0  0  0  0  0  0  0
   -4.7740   22.1920  -34.0940 H   0  0  0  0  0  0  0  0  0  0  0  0
   -5.6457   23.2976  -31.8121 H   0  0  0  0  0  0  0  0  0  0  0  0
   -7.7584   24.4857  -31.2774 H   0  0  0  0  0  0  0  0  0  0  0  0
   -9.9385   23.3098  -31.4783 H   0  0  0  0  0  0  0  0  0  0  0  0
  -10.0034   20.8967  -32.0561 H   0  0  0  0  0  0  0  0  0  0  0  0
   -9.2537   18.4558  -31.1511 H   0  0  0  0  0  0  0  0  0  0  0  0
   -9.9588   19.0740  -32.6832 H   0  0  0  0  0  0  0  0  0  0  0  0
   -9.0057   17.5514  -32.6832 H   0  0  0  0  0  0  0  0  0  0  0  0
   -7.7434   16.8678  -33.5460 H   0  0  0  0  0  0  0  0  0  0  0  0
   -5.7119   14.5424  -33.3947 H   0  0  0  0  0  0  0  0  0  0  0  0
   -6.5814   15.1235  -34.8551 H   0  0  0  0  0  0  0  0  0  0  0  0
   -4.7875   15.0317  -34.8551 H   0  0  0  0  0  0  0  0  0  0  0  0
   -3.4493   16.6372  -33.6137 H   0  0  0  0  0  0  0  0  0  0  0  0
   -2.9262   18.9653  -31.3620 H   0  0  0  0  0  0  0  0  0  0  0  0
   -2.1517   18.2702  -32.8261 H   0  0  0  0  0  0  0  0  0  0  0  0
   -2.6991   19.9810  -32.8261 H   0  0  0  0  0  0  0  0  0  0  0  0
  1  2  1  0
  2  3  1  0
  3  4  1  0
  3  5  1  0
  5  6  1  0
  6  7  1  0
  7  8  1  0
  8  9  1  0
  9 10  2  0
 10 11  1  0
 11 12  2  0
 12 13  1  0
 13 14  2  0
 14 15  1  0
 15 16  2  0
 16 17  1  0
 16 18  1  0
 18 19  2  0
 19 20  1  0
 20 21  1  0
 20 22  2  0
 22 23  1  0
 23 24  1  0
 23 25  2  0
 25  9  1  0
 15 10  1  0
 25 18  1  0
  1 26  1  0
  1 27  1  0
  1 28  1  0
  2 29  1  0
  2 30  1  0
  4 31  1  0
  4 32  1  0
  4 33  1  0
  5 34  1  0
  5 35  1  0
  6 36  1  0
  6 37  1  0
  7 38  1  0
  7 39  1  0
  8 40  1  0
  8 41  1  0
 11 42  1  0
 12 43  1  0
 13 44  1  0
 14 45  1  0
 17 46  1  0
 17 47  1  0
 17 48  1  0
 19 49  1  0
 21 50  1  0
 21 51  1  0
 21 52  1  0
 22 53  1  0
 24 54  1  0
 24 55  1  0
 24 56  1  0
M  CHG  2   8   1  16   1
M  END
>  <UniqueID>  (22) 
22

>  <SMILES>  (22) 
CCN(C)CCC[NH2+]c1c2ccccc2[n+](C)c2cc(C)cc(C)c12

>  <Energy>  (22) 
100.8615504532331

>  <Genealogy>  (22) 
CCN(C)CCC[NH2+]c1c2ccccc2[n+](C)c2cc(C)cc(C)c12 (protonated)
CCN(C)CCC[NH2+]c1c2ccccc2[n+](C)c2cc(C)cc(C)c12 (3D coordinates assigned)
CCN(C)CCC[NH2+]c1c2ccccc2[n+](C)c2cc(C)cc(C)c12 (optimized conformer: 100.8615504532331 kcal/mol)

>  <smiles>  (22) 
CCN(C)CCCNc1c2ccccc2[n+](C)c2cc(C)cc(C)c12

>  <score_type>  (22) 
oracle

>  <origin>  (22) 
adg

>  <m_score__min__energy>  (22) 
-7.9900000000000002

>  <m_primary>  (22) 
energy

$$$$
22:0
     RDKit          3D

 43 43  0  0  0  0  0  0  0  0999 V2000
   -7.0197   23.1685  -32.1583 H   0  0  0  0  0  0  0  0  0  0  0  0
   -6.8440   22.0950  -32.3220 C   0  0  0  0  0  0  0  0  0  0  0  0
   -5.5730   21.6440  -32.6920 C   0  0  0  0  0  0  0  0  0  0  0  0
   -4.7505   22.3649  -32.8094 H   0  0  0  0  0  0  0  0  0  0  0  0
   -5.3390   20.2760  -32.9150 C   0  0  0  0  0  0  0  0  0  0  0  0
   -3.9490   19.8200  -33.2910 C   0  0  0  0  0  0  0  0  0  0  0  0
   -4.0102   19.1608  -34.1694 H   0  0  0  0  0  0  0  0  0  0  0  0
   -3.5109   19.2796  -32.4389 H   0  0  0  0  0  0  0  0  0  0  0  0
   -3.0990   20.9660  -33.6090 N   0  0  0  0  0  0  0  0  0  0  0  0
   -2.9130   21.1920  -34.6130 H   0  0  0  0  0  0  0  0  0  0  0  0
   -2.1570   21.4630  -32.6490 C   0  0  0  0  0  0  0  0  0  0  0  0
   -0.7630   21.2460  -32.8800 N   0  0  0  0  0  0  0  0  0  0  0  0
   -0.0420   21.6120  -32.2190 H   0  0  0  0  0  0  0  0  0  0  0  0
   -0.4470   20.7110  -33.7200 H   0  0  0  0  0  0  0  0  0  0  0  0
   -2.5420   22.1320  -31.5940 N   0  0  0  0  0  0  0  0  0  0  0  0
   -2.2530   23.1330  -31.5090 H   0  0  0  0  0  0  0  0  0  0  0  0
   -3.3230   21.5560  -30.4940 C   0  0  0  0  0  0  0  0  0  0  0  0
   -2.6357   21.2099  -29.7079 H   0  0  0  0  0  0  0  0  0  0  0  0
   -3.9143   20.7159  -30.8873 H   0  0  0  0  0  0  0  0  0  0  0  0
   -4.2820   22.5900  -29.9000 C   0  0  0  0  0  0  0  0  0  0  0  0
   -4.2814   22.5017  -28.8035 H   0  0  0  0  0  0  0  0  0  0  0  0
   -5.2965   22.4090  -30.2847 H   0  0  0  0  0  0  0  0  0  0  0  0
   -3.8470   23.9550  -30.2850 N   0  0  0  0  0  0  0  0  0  0  0  0
   -2.9120   24.5460  -29.3000 C   0  0  0  0  0  0  0  0  0  0  0  0
   -2.9351   25.6411  -29.4010 H   0  0  0  0  0  0  0  0  0  0  0  0
   -1.9069   24.1488  -29.5047 H   0  0  0  0  0  0  0  0  0  0  0  0
   -3.2830   24.1750  -27.8650 C   0  0  0  0  0  0  0  0  0  0  0  0
   -2.6833   24.7747  -27.1645 H   0  0  0  0  0  0  0  0  0  0  0  0
   -4.3515   24.3767  -27.6987 H   0  0  0  0  0  0  0  0  0  0  0  0
   -3.0813   23.1065  -27.6987 H   0  0  0  0  0  0  0  0  0  0  0  0
   -4.9820   24.8300  -30.6680 C   0  0  0  0  0  0  0  0  0  0  0  0
   -4.7116   25.8700  -30.4330 H   0  0  0  0  0  0  0  0  0  0  0  0
   -5.1585   24.6707  -31.7420 H   0  0  0  0  0  0  0  0  0  0  0  0
   -6.2980   24.4980  -29.9470 C   0  0  0  0  0  0  0  0  0  0  0  0
   -6.1402   24.5378  -28.8591 H   0  0  0  0  0  0  0  0  0  0  0  0
   -7.0676   25.2301  -30.2329 H   0  0  0  0  0  0  0  0  0  0  0  0
   -6.6282   23.4884  -30.2329 H   0  0  0  0  0  0  0  0  0  0  0  0
   -6.3950   19.3580  -32.7310 C   0  0  0  0  0  0  0  0  0  0  0  0
   -6.1680   17.6260  -32.9500 Cl  0  0  0  0  0  0  0  0  0  0  0  0
   -7.6650   19.8200  -32.3600 C   0  0  0  0  0  0  0  0  0  0  0  0
   -8.4892   19.1040  -32.2254 H   0  0  0  0  0  0  0  0  0  0  0  0
   -7.8910   21.1840  -32.1600 C   0  0  0  0  0  0  0  0  0  0  0  0
   -9.4850   21.7530  -31.6950 Cl  0  0  0  0  0  0  0  0  0  0  0  0
  1  2  1  0
  2  3  2  0
  3  4  1  0
  3  5  1  0
  5  6  1  0
  6  7  1  0
  6  8  1  0
  6  9  1  0
  9 10  1  0
  9 11  1  0
 11 12  1  0
 12 13  1  0
 12 14  1  0
 11 15  2  0
 15 16  1  0
 15 17  1  0
 17 18  1  0
 17 19  1  0
 17 20  1  0
 20 21  1  0
 20 22  1  0
 20 23  1  0
 23 24  1  0
 24 25  1  0
 24 26  1  0
 24 27  1  0
 27 28  1  0
 27 29  1  0
 27 30  1  0
 23 31  1  0
 31 32  1  0
 31 33  1  0
 31 34  1  0
 34 35  1  0
 34 36  1  0
 34 37  1  0
  5 38  2  0
 38 39  1  0
 38 40  1  0
 40 41  1  0
 40 42  2  0
 42 43  1  0
 42  2  1  0
M  CHG  1  15   1
M  END
>  <UniqueID>  (23) 
23

>  <SMILES>  (23) 
CCN(CC)CC/[NH+]=C(/N)NCc1ccc(Cl)cc1Cl

>  <Energy>  (23) 
45.70495673656702

>  <Genealogy>  (23) 
CCN(CC)CC[NH+]=C(N)NCc1ccc(Cl)cc1Cl (protonated)
CCN(CC)CC/[NH+]=C(/N)NCc1ccc(Cl)cc1Cl (cis-trans isomerization)
CCN(CC)CC/[NH+]=C(/N)NCc1ccc(Cl)cc1Cl (3D coordinates assigned)
CCN(CC)CC/[NH+]=C(/N)NCc1ccc(Cl)cc1Cl (optimized conformer: 45.70495673656702 kcal/mol)

>  <smiles>  (23) 
CCN(CC)CCN=C(N)NCc1ccc(Cl)cc1Cl

>  <score_type>  (23) 
oracle

>  <origin>  (23) 
adg

>  <m_score__min__energy>  (23) 
-6.5300000000000002

>  <m_primary>  (23) 
energy

$$$$
23:0
     RDKit          3D

 29 29  0  0  0  0  0  0  0  0999 V2000
   -7.5950   18.2320  -32.3370 C   0  0  0  0  0  0  0  0  0  0  0  0
   -8.6890   18.9880  -32.2130 C   0  0  0  0  0  0  0  0  0  0  0  0
   -8.7540   20.1400  -31.2450 C   0  0  0  0  0  0  0  0  0  0  0  0
   -8.8920   21.4860  -31.9730 C   0  0  0  0  0  0  0  0  0  0  0  0
   -8.2590   22.6670  -31.2150 C   0  0  0  0  0  0  0  0  0  0  0  0
   -6.7540   22.7230  -31.3840 C   0  0  0  0  0  0  0  0  0  0  0  0
   -6.1180   21.7250  -32.1360 C   0  0  0  0  0  0  0  0  0  0  0  0
   -4.7320   21.7670  -32.3270 C   0  0  0  0  0  0  0  0  0  0  0  0
   -4.0610   20.7220  -33.1700 C   0  0  0  0  0  0  0  0  0  0  0  0
   -4.0080   22.7950  -31.8040 N   0  0  0  0  0  0  0  0  0  0  0  0
   -4.5900   23.7800  -31.0650 C   0  0  0  0  0  0  0  0  0  0  0  0
   -3.8760   24.7060  -30.5920 O   0  0  0  0  0  0  0  0  0  0  0  0
   -5.9780   23.7660  -30.8370 C   0  0  0  0  0  0  0  0  0  0  0  0
   -6.5850   24.8170  -30.0470 C   0  0  0  0  0  0  0  0  0  0  0  0
   -7.0690   25.6560  -29.4150 N   0  0  0  0  0  0  0  0  0  0  0  0
   -7.5812   17.3979  -33.0540 H   0  0  0  0  0  0  0  0  0  0  0  0
   -6.7078   18.4434  -31.7221 H   0  0  0  0  0  0  0  0  0  0  0  0
   -9.5675   18.7629  -32.8355 H   0  0  0  0  0  0  0  0  0  0  0  0
   -9.6221   20.0016  -30.5837 H   0  0  0  0  0  0  0  0  0  0  0  0
   -7.8178   20.1564  -30.6677 H   0  0  0  0  0  0  0  0  0  0  0  0
   -8.4033   21.4015  -32.9549 H   0  0  0  0  0  0  0  0  0  0  0  0
   -9.9682   21.6974  -32.0568 H   0  0  0  0  0  0  0  0  0  0  0  0
   -8.6922   23.6037  -31.5956 H   0  0  0  0  0  0  0  0  0  0  0  0
   -8.4710   22.5302  -30.1443 H   0  0  0  0  0  0  0  0  0  0  0  0
   -6.7088   20.9083  -32.5763 H   0  0  0  0  0  0  0  0  0  0  0  0
   -3.5824   19.9766  -32.5179 H   0  0  0  0  0  0  0  0  0  0  0  0
   -4.8102   20.2265  -33.8050 H   0  0  0  0  0  0  0  0  0  0  0  0
   -3.2987   21.1971  -33.8050 H   0  0  0  0  0  0  0  0  0  0  0  0
   -2.9760   22.8330  -31.9690 H   0  0  0  0  0  0  0  0  0  0  0  0
  1  2  2  0
  2  3  1  0
  3  4  1  0
  4  5  1  0
  5  6  1  0
  6  7  1  0
  7  8  2  0
  8  9  1  0
  8 10  1  0
 10 11  1  0
 11 12  2  0
 11 13  1  0
 13 14  1  0
 14 15  3  0
 13  6  2  0
  1 16  1  0
  1 17  1  0
  2 18  1  0
  3 19  1  0
  3 20  1  0
  4 21  1  0
  4 22  1  0
  5 23  1  0
  5 24  1  0
  7 25  1  0
  9 26  1  0
  9 27  1  0
  9 28  1  0
 10 29  1  0
M  END
>  <UniqueID>  (24) 
24

>  <SMILES>  (24) 
C=CCCCc1cc(C)[nH]c(=O)c1C#N

>  <Energy>  (24) 
21.7073052024625

>  <Genealogy>  (24) 
C=CCCCc1cc(C)[nH]c(=O)c1C#N (3D coordinates assigned)
C=CCCCc1cc(C)[nH]c(=O)c1C#N (optimized conformer: 21.7073052024625 kcal/mol)

>  <smiles>  (24) 
C=CCCCc1cc(C)[nH]c(=O)c1C#N

>  <score_type>  (24) 
oracle

>  <origin>  (24) 
adg

>  <m_score__min__energy>  (24) 
-6.2800000000000002

>  <m_primary>  (24) 
energy

$$$$
24:0
     RDKit          3D

 79 82  0  0  0  0  0  0  0  0999 V2000
   -3.6540   24.1130  -28.2230 C   0  0  0  0  0  0  0  0  0  0  0  0
   -3.3000   24.5300  -29.6520 C   0  0  0  0  0  0  0  0  0  0  0  0
   -4.4340   24.3170  -30.5830 N   0  0  0  0  0  0  0  0  0  0  0  0
   -5.3760   25.4600  -30.6510 C   0  0  0  0  0  0  0  0  0  0  0  0
   -6.5740   25.3530  -29.6970 C   0  0  0  0  0  0  0  0  0  0  0  0
   -5.1210   23.0310  -30.3220 C   0  0  0  0  0  0  0  0  0  0  0  0
   -4.2550   21.8660  -30.8130 C   0  0  0  0  0  0  0  0  0  0  0  0
   -3.6940   22.1520  -32.2140 C   0  0  0  0  0  0  0  0  0  0  0  0
   -4.6510   21.8320  -33.2940 N   0  0  0  0  0  0  0  0  0  0  0  0
   -5.1570   20.4640  -33.2130 C   0  0  0  0  0  0  0  0  0  0  0  0
   -6.4990   20.2210  -32.8020 C   0  0  0  0  0  0  0  0  0  0  0  0
   -7.3540   21.2720  -32.3780 C   0  0  0  0  0  0  0  0  0  0  0  0
   -8.6480   21.0140  -31.9330 C   0  0  0  0  0  0  0  0  0  0  0  0
   -9.1240   19.7140  -31.8870 C   0  0  0  0  0  0  0  0  0  0  0  0
   -8.3200   18.6630  -32.3160 C   0  0  0  0  0  0  0  0  0  0  0  0
   -7.0100   18.8930  -32.8140 C   0  0  0  0  0  0  0  0  0  0  0  0
   -6.2390   17.8550  -33.2930 N   0  0  0  0  0  0  0  0  0  0  0  0
   -6.8760   16.5590  -33.6190 C   0  0  0  0  0  0  0  0  0  0  0  0
   -4.8880   18.0350  -33.5020 C   0  0  0  0  0  0  0  0  0  0  0  0
   -4.0280   16.9270  -33.6950 C   0  0  0  0  0  0  0  0  0  0  0  0
   -2.6780   17.0980  -33.9780 C   0  0  0  0  0  0  0  0  0  0  0  0
   -2.1320   18.3700  -34.0680 C   0  0  0  0  0  0  0  0  0  0  0  0
   -0.7680   18.4860  -34.3850 O   0  0  0  0  0  0  0  0  0  0  0  0
    0.2730   17.7010  -33.8070 C   0  0  0  0  0  0  0  0  0  0  0  0
    0.1110   17.6180  -32.2730 C   0  0  0  0  0  0  0  0  0  0  0  0
    0.5270   18.8230  -31.4760 N   0  0  0  0  0  0  0  0  0  0  0  0
    1.7830   18.4360  -30.7730 C   0  0  0  0  0  0  0  0  0  0  0  0
   -0.5030   19.1430  -30.4280 C   0  0  0  0  0  0  0  0  0  0  0  0
   -0.4410   20.6060  -29.9580 C   0  0  0  0  0  0  0  0  0  0  0  0
   -0.7070   21.5820  -31.1190 C   0  0  0  0  0  0  0  0  0  0  0  0
   -0.3150   21.0040  -32.4890 C   0  0  0  0  0  0  0  0  0  0  0  0
    0.8450   19.9980  -32.3600 C   0  0  0  0  0  0  0  0  0  0  0  0
   -2.9510   19.4860  -33.8330 C   0  0  0  0  0  0  0  0  0  0  0  0
   -4.3280   19.3450  -33.5180 C   0  0  0  0  0  0  0  0  0  0  0  0
   -3.1120   24.7515  -27.5098 H   0  0  0  0  0  0  0  0  0  0  0  0
   -4.7369   24.2251  -28.0659 H   0  0  0  0  0  0  0  0  0  0  0  0
   -3.3675   23.0626  -28.0659 H   0  0  0  0  0  0  0  0  0  0  0  0
   -3.0314   25.5967  -29.6557 H   0  0  0  0  0  0  0  0  0  0  0  0
   -2.4572   23.9097  -29.9911 H   0  0  0  0  0  0  0  0  0  0  0  0
   -4.8215   26.3777  -30.4052 H   0  0  0  0  0  0  0  0  0  0  0  0
   -5.7872   25.4672  -31.6712 H   0  0  0  0  0  0  0  0  0  0  0  0
   -6.2182   25.3848  -28.6566 H   0  0  0  0  0  0  0  0  0  0  0  0
   -7.2610   26.1934  -29.8754 H   0  0  0  0  0  0  0  0  0  0  0  0
   -7.1012   24.4042  -29.8754 H   0  0  0  0  0  0  0  0  0  0  0  0
   -5.2966   22.9244  -29.2413 H   0  0  0  0  0  0  0  0  0  0  0  0
   -6.0812   23.0188  -30.8586 H   0  0  0  0  0  0  0  0  0  0  0  0
   -3.4189   21.7190  -30.1134 H   0  0  0  0  0  0  0  0  0  0  0  0
   -4.8786   20.9612  -30.8623 H   0  0  0  0  0  0  0  0  0  0  0  0
   -3.4371   23.2197  -32.2778 H   0  0  0  0  0  0  0  0  0  0  0  0
   -2.8123   21.5093  -32.3536 H   0  0  0  0  0  0  0  0  0  0  0  0
   -4.2470   22.0660  -34.2250 H   0  0  0  0  0  0  0  0  0  0  0  0
   -5.4560   22.4940  -33.2370 H   0  0  0  0  0  0  0  0  0  0  0  0
   -6.9877   22.3089  -32.4014 H   0  0  0  0  0  0  0  0  0  0  0  0
   -9.2947   21.8458  -31.6168 H   0  0  0  0  0  0  0  0  0  0  0  0
  -10.1380   19.5127  -31.5111 H   0  0  0  0  0  0  0  0  0  0  0  0
   -8.7062   17.6341  -32.2686 H   0  0  0  0  0  0  0  0  0  0  0  0
   -7.1345   16.0331  -32.6881 H   0  0  0  0  0  0  0  0  0  0  0  0
   -7.7894   16.7367  -34.2056 H   0  0  0  0  0  0  0  0  0  0  0  0
   -6.1774   15.9443  -34.2056 H   0  0  0  0  0  0  0  0  0  0  0  0
   -4.4371   15.9087  -33.6193 H   0  0  0  0  0  0  0  0  0  0  0  0
   -2.0372   16.2173  -34.1319 H   0  0  0  0  0  0  0  0  0  0  0  0
    0.2357   16.6858  -34.2289 H   0  0  0  0  0  0  0  0  0  0  0  0
    1.2393   18.1751  -34.0341 H   0  0  0  0  0  0  0  0  0  0  0  0
   -0.9521   17.4312  -32.0613 H   0  0  0  0  0  0  0  0  0  0  0  0
    0.7949   16.8166  -31.9567 H   0  0  0  0  0  0  0  0  0  0  0  0
    1.6245   18.4848  -29.6856 H   0  0  0  0  0  0  0  0  0  0  0  0
    2.0613   17.4105  -31.0573 H   0  0  0  0  0  0  0  0  0  0  0  0
    2.5902   19.1271  -31.0573 H   0  0  0  0  0  0  0  0  0  0  0  0
   -1.5018   18.9505  -30.8467 H   0  0  0  0  0  0  0  0  0  0  0  0
   -0.2963   18.5060  -29.5554 H   0  0  0  0  0  0  0  0  0  0  0  0
   -1.1999   20.7634  -29.1774 H   0  0  0  0  0  0  0  0  0  0  0  0
    0.5684   20.8010  -29.5668 H   0  0  0  0  0  0  0  0  0  0  0  0
   -1.7798   21.8248  -31.1345 H   0  0  0  0  0  0  0  0  0  0  0  0
   -0.0874   22.4747  -30.9481 H   0  0  0  0  0  0  0  0  0  0  0  0
   -1.1860   20.4928  -32.9250 H   0  0  0  0  0  0  0  0  0  0  0  0
    0.0131   21.8320  -33.1346 H   0  0  0  0  0  0  0  0  0  0  0  0
    1.0921   19.6215  -33.3636 H   0  0  0  0  0  0  0  0  0  0  0  0
    1.6863   20.5332  -31.8954 H   0  0  0  0  0  0  0  0  0  0  0  0
   -2.5150   20.4940  -33.8945 H   0  0  0  0  0  0  0  0  0  0  0  0
  1  2  1  0
  2  3  1  0
  3  4  1  0
  4  5  1  0
  3  6  1  0
  6  7  1  0
  7  8  1  0
  8  9  1  0
  9 10  1  0
 10 11  2  0
 11 12  1  0
 12 13  2  0
 13 14  1  0
 14 15  2  0
 15 16  1  0
 16 17  2  0
 17 18  1  0
 17 19  1  0
 19 20  2  0
 20 21  1  0
 21 22  2  0
 22 23  1  0
 23 24  1  0
 24 25  1  0
 25 26  1  0
 26 27  1  0
 26 28  1  0
 28 29  1  0
 29 30  1  0
 30 31  1  0
 31 32  1  0
 22 33  1  0
 33 34  2  0
 34 10  1  0
 16 11  1  0
 34 19  1  0
 32 26  1  0
  1 35  1  0
  1 36  1  0
  1 37  1  0
  2 38  1  0
  2 39  1  0
  4 40  1  0
  4 41  1  0
  5 42  1  0
  5 43  1  0
  5 44  1  0
  6 45  1  0
  6 46  1  0
  7 47  1  0
  7 48  1  0
  8 49  1  0
  8 50  1  0
  9 51  1  0
  9 52  1  0
 12 53  1  0
 13 54  1  0
 14 55  1  0
 15 56  1  0
 18 57  1  0
 18 58  1  0
 18 59  1  0
 20 60  1  0
 21 61  1  0
 24 62  1  0
 24 63  1  0
 25 64  1  0
 25 65  1  0
 27 66  1  0
 27 67  1  0
 27 68  1  0
 28 69  1  0
 28 70  1  0
 29 71  1  0
 29 72  1  0
 30 73  1  0
 30 74  1  0
 31 75  1  0
 31 76  1  0
 32 77  1  0
 32 78  1  0
 33 79  1  0
M  CHG  3   9   1  17   1  26   1
M  END
>  <UniqueID>  (25) 
25

>  <SMILES>  (25) 
CCN(CC)CCC[NH2+]c1c2ccccc2[n+](C)c2ccc(OCC[N+]3(C)CCCCC3)cc12

>  <Energy>  (25) 
125.40941199695585

>  <Genealogy>  (25) 
CCN(CC)CCC[NH2+]c1c2ccccc2[n+](C)c2ccc(OCC[N+]3(C)CCCCC3)cc12 (protonated)
CCN(CC)CCC[NH2+]c1c2ccccc2[n+](C)c2ccc(OCC[N+]3(C)CCCCC3)cc12 (3D coordinates assigned)
CCN(CC)CCC[NH2+]c1c2ccccc2[n+](C)c2ccc(OCC[N+]3(C)CCCCC3)cc12 (nonaromatic ring conformer: 125.40941199695585 kcal/mol)

>  <smiles>  (25) 
CCN(CC)CCCNc1c2ccccc2[n+](C)c2ccc(OCC[N+]3(C)CCCCC3)cc12

>  <score_type>  (25) 
oracle

>  <origin>  (25) 
adg

>  <m_score__min__energy>  (25) 
-7.8700000000000001

>  <m_primary>  (25) 
energy

$$$$
25:0
     RDKit          3D

 53 55  0  0  0  0  0  0  0  0999 V2000
   -7.6612   20.8409  -33.8785 H   0  0  0  0  0  0  0  0  0  0  0  0
   -7.1000   20.8740  -32.9330 C   0  0  0  0  0  0  0  0  0  0  0  0
   -5.9700   20.1390  -32.8540 C   0  0  0  0  0  0  0  0  0  0  0  0
   -5.9490   18.6940  -33.1760 C   0  0  0  0  0  0  0  0  0  0  0  0
   -7.1320   17.9170  -33.0790 C   0  0  0  0  0  0  0  0  0  0  0  0
   -8.0665   18.3888  -32.7412 H   0  0  0  0  0  0  0  0  0  0  0  0
   -7.1230   16.5500  -33.4100 C   0  0  0  0  0  0  0  0  0  0  0  0
   -8.0346   15.9401  -33.3257 H   0  0  0  0  0  0  0  0  0  0  0  0
   -5.9210   15.9910  -33.8490 C   0  0  0  0  0  0  0  0  0  0  0  0
   -4.7830   16.7470  -33.9690 C   0  0  0  0  0  0  0  0  0  0  0  0
   -4.7590   18.1010  -33.6490 C   0  0  0  0  0  0  0  0  0  0  0  0
   -3.8384   18.6924  -33.7616 H   0  0  0  0  0  0  0  0  0  0  0  0
   -3.7860   15.9270  -34.4550 C   0  0  0  0  0  0  0  0  0  0  0  0
   -2.7434   16.2014  -34.6733 H   0  0  0  0  0  0  0  0  0  0  0  0
   -4.3800   14.6800  -34.6100 C   0  0  0  0  0  0  0  0  0  0  0  0
   -3.8659   13.7841  -34.9882 H   0  0  0  0  0  0  0  0  0  0  0  0
   -5.6790   14.7210  -34.2310 N   0  0  0  0  0  0  0  0  0  0  0  0
   -6.6330   13.6140  -34.3160 C   0  0  0  0  0  0  0  0  0  0  0  0
   -6.7928   13.3531  -35.3726 H   0  0  0  0  0  0  0  0  0  0  0  0
   -7.5830   13.9245  -33.8564 H   0  0  0  0  0  0  0  0  0  0  0  0
   -6.0980   12.3960  -33.5730 C   0  0  0  0  0  0  0  0  0  0  0  0
   -6.1726   12.5659  -32.4888 H   0  0  0  0  0  0  0  0  0  0  0  0
   -6.6899   11.5102  -33.8469 H   0  0  0  0  0  0  0  0  0  0  0  0
   -5.0453   12.2326  -33.8469 H   0  0  0  0  0  0  0  0  0  0  0  0
   -4.6970   20.7810  -32.4270 C   0  0  0  0  0  0  0  0  0  0  0  0
   -3.6500   20.9660  -33.3460 C   0  0  0  0  0  0  0  0  0  0  0  0
   -3.7757   20.6480  -34.3915 H   0  0  0  0  0  0  0  0  0  0  0  0
   -2.4530   21.5510  -32.9370 C   0  0  0  0  0  0  0  0  0  0  0  0
   -1.6343   21.7001  -33.6563 H   0  0  0  0  0  0  0  0  0  0  0  0
   -2.3020   21.9460  -31.6070 C   0  0  0  0  0  0  0  0  0  0  0  0
   -1.3621   22.4115  -31.2755 H   0  0  0  0  0  0  0  0  0  0  0  0
   -3.3160   21.7560  -30.7200 N   0  0  0  0  0  0  0  0  0  0  0  0
   -3.1840   22.0480  -29.7260 H   0  0  0  0  0  0  0  0  0  0  0  0
   -4.4940   21.1870  -31.0950 C   0  0  0  0  0  0  0  0  0  0  0  0
   -5.2925   21.0435  -30.3522 H   0  0  0  0  0  0  0  0  0  0  0  0
   -7.6530   21.7370  -31.8260 C   0  0  0  0  0  0  0  0  0  0  0  0
   -8.7182   21.5013  -31.6853 H   0  0  0  0  0  0  0  0  0  0  0  0
   -7.0855   21.5304  -30.9066 H   0  0  0  0  0  0  0  0  0  0  0  0
   -7.5100   23.2280  -32.1610 C   0  0  0  0  0  0  0  0  0  0  0  0
   -7.6213   23.3513  -33.2484 H   0  0  0  0  0  0  0  0  0  0  0  0
   -8.2891   23.7595  -31.5948 H   0  0  0  0  0  0  0  0  0  0  0  0
   -6.1590   23.8330  -31.7400 C   0  0  0  0  0  0  0  0  0  0  0  0
   -5.4650   23.0131  -31.5031 H   0  0  0  0  0  0  0  0  0  0  0  0
   -5.7947   24.4460  -32.5775 H   0  0  0  0  0  0  0  0  0  0  0  0
   -6.2750   24.7500  -30.5100 C   0  0  0  0  0  0  0  0  0  0  0  0
   -5.9824   25.7700  -30.7999 H   0  0  0  0  0  0  0  0  0  0  0  0
   -7.3176   24.7161  -30.1611 H   0  0  0  0  0  0  0  0  0  0  0  0
   -5.3770   24.2880  -29.3550 C   0  0  0  0  0  0  0  0  0  0  0  0
   -5.5922   24.9039  -28.4693 H   0  0  0  0  0  0  0  0  0  0  0  0
   -5.5902   23.2262  -29.1620 H   0  0  0  0  0  0  0  0  0  0  0  0
   -3.9220   24.4150  -29.6910 C   0  0  0  0  0  0  0  0  0  0  0  0
   -3.0640   23.7440  -29.0600 O   0  0  0  0  0  0  0  0  0  0  0  0
   -3.5120   25.2940  -30.6840 O   0  0  0  0  0  0  0  0  0  0  0  0
  1  2  1  0
  2  3  2  0
  3  4  1  0
  4  5  2  0
  5  6  1  0
  5  7  1  0
  7  8  1  0
  7  9  2  0
  9 10  1  0
 10 11  2  0
 11 12  1  0
 10 13  1  0
 13 14  1  0
 13 15  2  0
 15 16  1  0
 15 17  1  0
 17 18  1  0
 18 19  1  0
 18 20  1  0
 18 21  1  0
 21 22  1  0
 21 23  1  0
 21 24  1  0
  3 25  1  0
 25 26  2  0
 26 27  1  0
 26 28  1  0
 28 29  1  0
 28 30  2  0
 30 31  1  0
 30 32  1  0
 32 33  1  0
 32 34  2  0
 34 35  1  0
  2 36  1  0
 36 37  1  0
 36 38  1  0
 36 39  1  0
 39 40  1  0
 39 41  1  0
 39 42  1  0
 42 43  1  0
 42 44  1  0
 42 45  1  0
 45 46  1  0
 45 47  1  0
 45 48  1  0
 48 49  1  0
 48 50  1  0
 48 51  1  0
 51 52  2  0
 51 53  1  0
 11  4  1  0
 34 25  1  0
 17  9  1  0
M  CHG  2  32   1  53  -1
M  END
>  <UniqueID>  (26) 
26

>  <SMILES>  (26) 
CCn1ccc2cc(/C(=C\CCCCCC(=O)[O-])c3ccc[nH+]c3)ccc21

>  <Energy>  (26) 
85.18840551515515

>  <Genealogy>  (26) 
CCn1ccc2cc(C(=CCCCCCC(=O)[O-])c3ccc[nH+]c3)ccc21 (protonated)
CCn1ccc2cc(/C(=C\CCCCCC(=O)[O-])c3ccc[nH+]c3)ccc21 (cis-trans isomerization)
CCn1ccc2cc(/C(=C\CCCCCC(=O)[O-])c3ccc[nH+]c3)ccc21 (3D coordinates assigned)
CCn1ccc2cc(/C(=C\CCCCCC(=O)[O-])c3ccc[nH+]c3)ccc21 (optimized conformer: 85.18840551515515 kcal/mol)

>  <smiles>  (26) 
CCn1ccc2cc(C(=CCCCCCC(=O)O)c3cccnc3)ccc21

>  <score_type>  (26) 
oracle

>  <origin>  (26) 
adg

>  <m_score__min__energy>  (26) 
-10.210000000000001

>  <m_primary>  (26) 
energy

$$$$
26:0
     RDKit          3D

 46 48  0  0  0  0  0  0  0  0999 V2000
   -0.8150   18.9120  -34.5370 C   0  0  0  0  0  0  0  0  0  0  0  0
   -2.1020   18.8690  -34.2080 C   0  0  0  0  0  0  0  0  0  0  0  0
   -2.8460   20.0310  -33.8800 N   0  0  0  0  0  0  0  0  0  0  0  0
   -4.1890   19.6880  -33.5530 C   0  0  0  0  0  0  0  0  0  0  0  0
   -5.1770   20.6120  -33.1690 C   0  0  0  0  0  0  0  0  0  0  0  0
   -4.8440   22.0260  -33.0930 N   0  0  0  0  0  0  0  0  0  0  0  0
   -3.8740   22.3070  -32.0170 C   0  0  0  0  0  0  0  0  0  0  0  0
   -4.4540   23.2520  -30.9390 C   0  0  0  0  0  0  0  0  0  0  0  0
   -5.4450   24.2330  -31.4470 N   0  0  0  0  0  0  0  0  0  0  0  0
   -5.2930   25.5540  -30.8130 C   0  0  0  0  0  0  0  0  0  0  0  0
   -6.8550   23.7880  -31.3910 C   0  0  0  0  0  0  0  0  0  0  0  0
   -7.1990   23.1170  -30.0590 C   0  0  0  0  0  0  0  0  0  0  0  0
   -6.4700   20.1010  -32.8530 C   0  0  0  0  0  0  0  0  0  0  0  0
   -7.5300   20.9430  -32.4330 C   0  0  0  0  0  0  0  0  0  0  0  0
   -8.7840   20.4240  -32.1260 C   0  0  0  0  0  0  0  0  0  0  0  0
   -9.0210   19.0620  -32.2240 C   0  0  0  0  0  0  0  0  0  0  0  0
   -8.0040   18.2030  -32.6290 C   0  0  0  0  0  0  0  0  0  0  0  0
   -6.7120   18.6910  -32.9520 C   0  0  0  0  0  0  0  0  0  0  0  0
   -5.7030   17.8300  -33.3510 N   0  0  0  0  0  0  0  0  0  0  0  0
   -5.9570   16.3790  -33.4620 C   0  0  0  0  0  0  0  0  0  0  0  0
   -4.4600   18.3330  -33.6350 C   0  0  0  0  0  0  0  0  0  0  0  0
   -3.0300   17.3410  -34.1370 S   0  0  0  0  0  0  0  0  0  0  0  0
   -0.2791   17.9836  -34.7839 H   0  0  0  0  0  0  0  0  0  0  0  0
   -0.2857   19.8760  -34.5624 H   0  0  0  0  0  0  0  0  0  0  0  0
   -2.4350   20.9900  -33.8670 H   0  0  0  0  0  0  0  0  0  0  0  0
   -5.6790   22.6430  -33.0060 H   0  0  0  0  0  0  0  0  0  0  0  0
   -4.4220   22.3210  -34.0040 H   0  0  0  0  0  0  0  0  0  0  0  0
   -3.5896   21.3576  -31.5398 H   0  0  0  0  0  0  0  0  0  0  0  0
   -3.0034   22.8047  -32.4690 H   0  0  0  0  0  0  0  0  0  0  0  0
   -4.9436   22.6362  -30.1702 H   0  0  0  0  0  0  0  0  0  0  0  0
   -3.6080   23.8367  -30.5486 H   0  0  0  0  0  0  0  0  0  0  0  0
   -5.3062   25.4394  -29.7191 H   0  0  0  0  0  0  0  0  0  0  0  0
   -4.3374   26.0018  -31.1233 H   0  0  0  0  0  0  0  0  0  0  0  0
   -6.1219   26.2072  -31.1233 H   0  0  0  0  0  0  0  0  0  0  0  0
   -7.5079   24.6630  -31.5255 H   0  0  0  0  0  0  0  0  0  0  0  0
   -7.0066   23.0476  -32.1903 H   0  0  0  0  0  0  0  0  0  0  0  0
   -6.8697   23.7594  -29.2290 H   0  0  0  0  0  0  0  0  0  0  0  0
   -8.2865   22.9644  -29.9954 H   0  0  0  0  0  0  0  0  0  0  0  0
   -6.6880   22.1450  -29.9954 H   0  0  0  0  0  0  0  0  0  0  0  0
   -7.3582   22.0262  -32.3482 H   0  0  0  0  0  0  0  0  0  0  0  0
   -9.5913   21.0981  -31.8039 H   0  0  0  0  0  0  0  0  0  0  0  0
  -10.0153   18.6591  -31.9811 H   0  0  0  0  0  0  0  0  0  0  0  0
   -8.2060   17.1241  -32.7001 H   0  0  0  0  0  0  0  0  0  0  0  0
   -6.0335   15.9421  -32.4554 H   0  0  0  0  0  0  0  0  0  0  0  0
   -6.8980   16.2121  -34.0066 H   0  0  0  0  0  0  0  0  0  0  0  0
   -5.1286   15.9024  -34.0066 H   0  0  0  0  0  0  0  0  0  0  0  0
  1  2  2  0
  2  3  1  0
  3  4  1  0
  4  5  2  0
  5  6  1  0
  6  7  1  0
  7  8  1  0
  8  9  1  0
  9 10  1  0
  9 11  1  0
 11 12  1  0
  5 13  1  0
 13 14  2  0
 14 15  1  0
 15 16  2  0
 16 17  1  0
 17 18  2  0
 18 19  1  0
 19 20  1  0
 19 21  2  0
 21 22  1  0
 22  2  1  0
 21  4  1  0
 18 13  1  0
  1 23  1  0
  1 24  1  0
  3 25  1  0
  6 26  1  0
  6 27  1  0
  7 28  1  0
  7 29  1  0
  8 30  1  0
  8 31  1  0
 10 32  1  0
 10 33  1  0
 10 34  1  0
 11 35  1  0
 11 36  1  0
 12 37  1  0
 12 38  1  0
 12 39  1  0
 14 40  1  0
 15 41  1  0
 16 42  1  0
 17 43  1  0
 20 44  1  0
 20 45  1  0
 20 46  1  0
M  CHG  2   6   1  19   1
M  END
>  <UniqueID>  (27) 
27

>  <SMILES>  (27) 
C=C1Nc2c([NH2+]CCN(C)CC)c3ccccc3[n+](C)c2S1

>  <Energy>  (27) 
84.35060252889582

>  <Genealogy>  (27) 
C=C1Nc2c([NH2+]CCN(C)CC)c3ccccc3[n+](C)c2S1 (protonated)
C=C1Nc2c([NH2+]CCN(C)CC)c3ccccc3[n+](C)c2S1 (3D coordinates assigned)
C=C1Nc2c([NH2+]CCN(C)CC)c3ccccc3[n+](C)c2S1 (nonaromatic ring conformer: 84.35060252889582 kcal/mol)

>  <smiles>  (27) 
C=C1Nc2c(NCCN(C)CC)c3ccccc3[n+](C)c2S1

>  <score_type>  (27) 
oracle

>  <origin>  (27) 
adg

>  <m_score__min__energy>  (27) 
-7.0099999999999998

>  <m_primary>  (27) 
energy

$$$$
