0:0
     RDKit          3D

 41 43  0  0  0  0  0  0  0  0999 V2000
   -3.1100   21.1780  -33.4660 C   0  0  0  0  0  0  0  0  0  0  0  0
   -4.5070   21.0250  -32.9580 C   0  0  0  0  0  0  0  0  0  0  0  0
   -5.1600   19.8470  -33.1340 N   0  0  0  0  0  0  0  0  0  0  0  0
   -6.4190   19.6630  -32.6610 C   0  0  0  0  0  0  0  0  0  0  0  0
   -7.0570   18.4310  -32.8460 C   0  0  0  0  0  0  0  0  0  0  0  0
   -8.3480   18.2310  -32.3520 C   0  0  0  0  0  0  0  0  0  0  0  0
   -9.0110   19.2640  -31.6850 C   0  0  0  0  0  0  0  0  0  0  0  0
   -8.3840   20.5000  -31.5000 C   0  0  0  0  0  0  0  0  0  0  0  0
   -7.0730   20.7060  -31.9700 C   0  0  0  0  0  0  0  0  0  0  0  0
   -6.3640   21.9100  -31.7710 C   0  0  0  0  0  0  0  0  0  0  0  0
   -7.0830   23.3040  -30.8780 S   0  0  0  0  0  0  0  0  0  0  0  0
   -5.9620   24.5780  -31.5670 C   0  0  0  0  0  0  0  0  0  0  0  0
   -5.2550   25.3760  -30.4710 C   0  0  0  0  0  0  0  0  0  0  0  0
   -3.8690   25.0430  -30.4530 O   0  0  0  0  0  0  0  0  0  0  0  0
   -3.3250   23.8570  -29.9330 C   0  0  0  0  0  0  0  0  0  0  0  0
   -2.6430   22.9320  -30.7480 C   0  0  0  0  0  0  0  0  0  0  0  0
   -2.0770   21.7830  -30.1920 C   0  0  0  0  0  0  0  0  0  0  0  0
   -2.1920   21.5360  -28.8240 C   0  0  0  0  0  0  0  0  0  0  0  0
   -2.8820   22.4340  -28.0080 C   0  0  0  0  0  0  0  0  0  0  0  0
   -3.4480   23.5990  -28.5500 C   0  0  0  0  0  0  0  0  0  0  0  0
   -4.2310   24.5110  -27.6460 C   0  0  0  0  0  0  0  0  0  0  0  0
   -5.1060   22.0400  -32.2750 N   0  0  0  0  0  0  0  0  0  0  0  0
   -2.4168   21.2539  -32.6153 H   0  0  0  0  0  0  0  0  0  0  0  0
   -2.8447   20.3035  -34.0783 H   0  0  0  0  0  0  0  0  0  0  0  0
   -3.0402   22.0892  -34.0783 H   0  0  0  0  0  0  0  0  0  0  0  0
   -6.5413   17.6198  -33.3808 H   0  0  0  0  0  0  0  0  0  0  0  0
   -8.8435   17.2585  -32.4884 H   0  0  0  0  0  0  0  0  0  0  0  0
  -10.0304   19.1044  -31.3038 H   0  0  0  0  0  0  0  0  0  0  0  0
   -8.9165   21.3137  -30.9858 H   0  0  0  0  0  0  0  0  0  0  0  0
   -5.2032   24.0828  -32.1907 H   0  0  0  0  0  0  0  0  0  0  0  0
   -6.5692   25.2792  -32.1583 H   0  0  0  0  0  0  0  0  0  0  0  0
   -5.3701   26.4518  -30.6697 H   0  0  0  0  0  0  0  0  0  0  0  0
   -5.7015   25.1309  -29.4960 H   0  0  0  0  0  0  0  0  0  0  0  0
   -2.5559   23.1161  -31.8290 H   0  0  0  0  0  0  0  0  0  0  0  0
   -1.5389   21.0706  -30.8346 H   0  0  0  0  0  0  0  0  0  0  0  0
   -1.7389   20.6334  -28.3882 H   0  0  0  0  0  0  0  0  0  0  0  0
   -2.9831   22.2274  -26.9323 H   0  0  0  0  0  0  0  0  0  0  0  0
   -4.0158   24.2604  -26.5968 H   0  0  0  0  0  0  0  0  0  0  0  0
   -3.9435   25.5549  -27.8400 H   0  0  0  0  0  0  0  0  0  0  0  0
   -5.3064   24.3848  -27.8400 H   0  0  0  0  0  0  0  0  0  0  0  0
   -4.5870   22.9350  -32.1270 H   0  0  0  0  0  0  0  0  0  0  0  0
  1  2  1  0
  2  3  2  0
  3  4  1  0
  4  5  2  0
  5  6  1  0
  6  7  2  0
  7  8  1  0
  8  9  2  0
  9 10  1  0
 10 11  1  0
 11 12  1  0
 12 13  1  0
 13 14  1  0
 14 15  1  0
 15 16  2  0
 16 17  1  0
 17 18  2  0
 18 19  1  0
 19 20  2  0
 20 21  1  0
 10 22  2  0
 22  2  1  0
  9  4  1  0
 20 15  1  0
  1 23  1  0
  1 24  1  0
  1 25  1  0
  5 26  1  0
  6 27  1  0
  7 28  1  0
  8 29  1  0
 12 30  1  0
 12 31  1  0
 13 32  1  0
 13 33  1  0
 16 34  1  0
 17 35  1  0
 18 36  1  0
 19 37  1  0
 21 38  1  0
 21 39  1  0
 21 40  1  0
 22 41  1  0
M  CHG  1  22   1
M  END
>  <UniqueID>  (1) 
1

>  <SMILES>  (1) 
Cc1nc2ccccc2c(SCCOc2ccccc2C)[nH+]1

>  <Energy>  (1) 
36.61188776423273

>  <Genealogy>  (1) 
Cc1nc2ccccc2c(SCCOc2ccccc2C)[nH+]1 (protonated)
Cc1nc2ccccc2c(SCCOc2ccccc2C)[nH+]1 (3D coordinates assigned)
Cc1nc2ccccc2c(SCCOc2ccccc2C)[nH+]1 (optimized conformer: 36.61188776423273 kcal/mol)

>  <smiles>  (1) 
Cc1nc(SCCOc2ccccc2C)c2ccccc2n1

>  <score_type>  (1) 
oracle

>  <origin>  (1) 
adg

>  <m_score__min__energy>  (1) 
-8.2799999999999994

>  <m_primary>  (1) 
energy

$$$$
1:0
     RDKit          3D

 63 67  0  0  0  0  0  0  0  0999 V2000
   -0.8610   26.5530  -24.0430 C   0  0  0  0  0  0  0  0  0  0  0  0
   -1.2990   26.9310  -25.3300 O   0  0  0  0  0  0  0  0  0  0  0  0
   -1.5280   26.0770  -26.3770 C   0  0  0  0  0  0  0  0  0  0  0  0
   -2.5780   25.1830  -26.2620 C   0  0  0  0  0  0  0  0  0  0  0  0
   -2.8890   24.2820  -27.2630 C   0  0  0  0  0  0  0  0  0  0  0  0
   -2.1240   24.2780  -28.4120 C   0  0  0  0  0  0  0  0  0  0  0  0
   -2.3730   23.3920  -29.5080 N   0  0  0  0  0  0  0  0  0  0  0  0
   -3.3240   23.7190  -30.4140 C   0  0  0  0  0  0  0  0  0  0  0  0
   -4.2200   25.2370  -30.1240 S   0  0  0  0  0  0  0  0  0  0  0  0
   -5.6440   25.3300  -31.1900 C   0  0  0  0  0  0  0  0  0  0  0  0
   -6.5960   24.2220  -31.1030 C   0  0  0  0  0  0  0  0  0  0  0  0
   -7.6050   24.3750  -30.3450 O   0  0  0  0  0  0  0  0  0  0  0  0
   -6.3610   23.0430  -31.8470 N   0  0  0  0  0  0  0  0  0  0  0  0
   -7.2170   21.9040  -31.8180 C   0  0  0  0  0  0  0  0  0  0  0  0
   -8.5680   21.9410  -31.9800 C   0  0  0  0  0  0  0  0  0  0  0  0
   -9.2660   20.7480  -31.9280 C   0  0  0  0  0  0  0  0  0  0  0  0
   -8.6180   19.5330  -31.7180 C   0  0  0  0  0  0  0  0  0  0  0  0
   -9.4780   18.0130  -31.6460 Cl  0  0  0  0  0  0  0  0  0  0  0  0
   -7.2470   19.4890  -31.5550 C   0  0  0  0  0  0  0  0  0  0  0  0
   -6.5670   20.6810  -31.6080 C   0  0  0  0  0  0  0  0  0  0  0  0
   -3.5930   22.9200  -31.4720 N   0  0  0  0  0  0  0  0  0  0  0  0
   -2.8740   21.7810  -31.5870 C   0  0  0  0  0  0  0  0  0  0  0  0
   -1.9000   21.4280  -30.6760 C   0  0  0  0  0  0  0  0  0  0  0  0
   -1.3390   20.2270  -31.0430 C   0  0  0  0  0  0  0  0  0  0  0  0
   -0.2600   19.4400  -30.3930 C   0  0  0  0  0  0  0  0  0  0  0  0
   -2.0040   19.8840  -32.1870 N   0  0  0  0  0  0  0  0  0  0  0  0
   -2.9020   20.7970  -32.5010 N   0  0  0  0  0  0  0  0  0  0  0  0
   -3.7570   20.6640  -33.6820 C   0  0  0  0  0  0  0  0  0  0  0  0
   -4.5130   19.3670  -33.5720 C   0  0  0  0  0  0  0  0  0  0  0  0
   -4.3300   18.5180  -32.4830 C   0  0  0  0  0  0  0  0  0  0  0  0
   -5.0180   17.3210  -32.3660 C   0  0  0  0  0  0  0  0  0  0  0  0
   -5.9160   16.9340  -33.3450 C   0  0  0  0  0  0  0  0  0  0  0  0
   -6.1000   17.7780  -34.4320 C   0  0  0  0  0  0  0  0  0  0  0  0
   -5.4130   18.9660  -34.5400 C   0  0  0  0  0  0  0  0  0  0  0  0
   -1.6390   22.2520  -29.6060 C   0  0  0  0  0  0  0  0  0  0  0  0
   -0.7760   22.0470  -28.7040 N   0  0  0  0  0  0  0  0  0  0  0  0
   -1.0530   25.1660  -28.5720 C   0  0  0  0  0  0  0  0  0  0  0  0
   -0.7880   26.0470  -27.5330 C   0  0  0  0  0  0  0  0  0  0  0  0
   -1.4633   27.0728  -23.2834 H   0  0  0  0  0  0  0  0  0  0  0  0
   -0.9759   25.4658  -23.9212 H   0  0  0  0  0  0  0  0  0  0  0  0
    0.1977   26.8257  -23.9212 H   0  0  0  0  0  0  0  0  0  0  0  0
   -3.1847   25.1896  -25.3444 H   0  0  0  0  0  0  0  0  0  0  0  0
   -3.7295   23.5820  -27.1463 H   0  0  0  0  0  0  0  0  0  0  0  0
   -6.1851   26.2560  -30.9455 H   0  0  0  0  0  0  0  0  0  0  0  0
   -5.2449   25.2922  -32.2143 H   0  0  0  0  0  0  0  0  0  0  0  0
   -5.5200   22.9660  -32.4630 H   0  0  0  0  0  0  0  0  0  0  0  0
   -9.0907   22.8942  -32.1478 H   0  0  0  0  0  0  0  0  0  0  0  0
  -10.3585   20.7590  -32.0555 H   0  0  0  0  0  0  0  0  0  0  0  0
   -6.7209   18.5373  -31.3894 H   0  0  0  0  0  0  0  0  0  0  0  0
   -5.4743   20.6752  -31.4812 H   0  0  0  0  0  0  0  0  0  0  0  0
   -0.3603   19.5132  -29.3000 H   0  0  0  0  0  0  0  0  0  0  0  0
   -0.3396   18.3864  -30.6988 H   0  0  0  0  0  0  0  0  0  0  0  0
    0.7190   19.8376  -30.6988 H   0  0  0  0  0  0  0  0  0  0  0  0
   -4.4648   21.5049  -33.7259 H   0  0  0  0  0  0  0  0  0  0  0  0
   -3.1455   20.6709  -34.5964 H   0  0  0  0  0  0  0  0  0  0  0  0
   -3.6196   18.8058  -31.6940 H   0  0  0  0  0  0  0  0  0  0  0  0
   -4.8496   16.6757  -31.4912 H   0  0  0  0  0  0  0  0  0  0  0  0
   -6.4677   15.9858  -33.2645 H   0  0  0  0  0  0  0  0  0  0  0  0
   -6.8090   17.4916  -35.2228 H   0  0  0  0  0  0  0  0  0  0  0  0
   -5.5844   19.6094  -35.4156 H   0  0  0  0  0  0  0  0  0  0  0  0
    0.1990   22.3010  -28.7710 H   0  0  0  0  0  0  0  0  0  0  0  0
   -0.4439   25.1652  -29.4880 H   0  0  0  0  0  0  0  0  0  0  0  0
    0.0504   26.7510  -27.6402 H   0  0  0  0  0  0  0  0  0  0  0  0
  1  2  1  0
  2  3  1  0
  3  4  2  0
  4  5  1  0
  5  6  2  0
  6  7  1  0
  7  8  1  0
  8  9  1  0
  9 10  1  0
 10 11  1  0
 11 12  2  0
 11 13  1  0
 13 14  1  0
 14 15  2  0
 15 16  1  0
 16 17  2  0
 17 18  1  0
 17 19  1  0
 19 20  2  0
  8 21  2  0
 21 22  1  0
 22 23  2  0
 23 24  1  0
 24 25  1  0
 24 26  2  0
 26 27  1  0
 27 28  1  0
 28 29  1  0
 29 30  2  0
 30 31  1  0
 31 32  2  0
 32 33  1  0
 33 34  2  0
 23 35  1  0
 35 36  2  3
  6 37  1  0
 37 38  2  0
 38  3  1  0
 35  7  1  0
 20 14  1  0
 27 22  1  0
 34 29  1  0
  1 39  1  0
  1 40  1  0
  1 41  1  0
  4 42  1  0
  5 43  1  0
 10 44  1  0
 10 45  1  0
 13 46  1  0
 15 47  1  0
 16 48  1  0
 19 49  1  0
 20 50  1  0
 25 51  1  0
 25 52  1  0
 25 53  1  0
 28 54  1  0
 28 55  1  0
 30 56  1  0
 31 57  1  0
 32 58  1  0
 33 59  1  0
 34 60  1  0
 36 61  1  0
 37 62  1  0
 38 63  1  0
M  END
>  <smiles>  (2) 
COc1ccc(-n2c(SCC(=O)Nc3ccc(Cl)cc3)nc3c(c(C)nn3Cc3ccccc3)c2=N)cc1

>  <score_type>  (2) 
oracle

>  <origin>  (2) 
adg

>  <m_score__min__energy>  (2) 
-9.9600000000000009

>  <m_primary>  (2) 
energy

$$$$
2:0
     RDKit          3D

 52 56  0  0  0  0  0  0  0  0999 V2000
   -3.8160   18.2220  -33.1170 C   0  0  0  0  0  0  0  0  0  0  0  0
   -4.3510   19.5390  -33.6870 C   0  0  0  0  0  0  0  0  0  0  0  0
   -4.3870   20.6540  -32.6410 C   0  0  0  0  0  0  0  0  0  0  0  0
   -3.1700   21.2970  -32.2240 C   0  0  0  0  0  0  0  0  0  0  0  0
   -3.2160   22.2260  -31.2140 N   0  0  0  0  0  0  0  0  0  0  0  0
   -4.3790   22.8570  -30.9120 C   0  0  0  0  0  0  0  0  0  0  0  0
   -5.5910   22.3710  -31.3890 C   0  0  0  0  0  0  0  0  0  0  0  0
   -6.7650   23.0900  -31.1320 C   0  0  0  0  0  0  0  0  0  0  0  0
   -7.9970   22.5820  -31.5140 C   0  0  0  0  0  0  0  0  0  0  0  0
   -8.0930   21.2780  -32.0040 C   0  0  0  0  0  0  0  0  0  0  0  0
   -9.3620   20.7140  -32.2110 C   0  0  0  0  0  0  0  0  0  0  0  0
   -9.4880   19.3600  -32.5120 C   0  0  0  0  0  0  0  0  0  0  0  0
   -8.3550   18.5530  -32.5580 C   0  0  0  0  0  0  0  0  0  0  0  0
   -7.0870   19.1090  -32.3770 C   0  0  0  0  0  0  0  0  0  0  0  0
   -6.9140   20.5030  -32.2100 C   0  0  0  0  0  0  0  0  0  0  0  0
   -5.6280   21.1360  -32.0860 C   0  0  0  0  0  0  0  0  0  0  0  0
   -1.9890   22.6180  -30.4960 C   0  0  0  0  0  0  0  0  0  0  0  0
   -1.0240   21.4260  -30.3950 C   0  0  0  0  0  0  0  0  0  0  0  0
   -0.7570   20.9080  -31.7810 C   0  0  0  0  0  0  0  0  0  0  0  0
    0.5330   20.5230  -32.1660 C   0  0  0  0  0  0  0  0  0  0  0  0
    0.8200   20.2560  -33.5170 C   0  0  0  0  0  0  0  0  0  0  0  0
    2.0930   19.8470  -33.9430 O   0  0  0  0  0  0  0  0  0  0  0  0
    2.9930   19.0670  -33.1620 C   0  0  0  0  0  0  0  0  0  0  0  0
   -0.1810   20.4380  -34.4820 C   0  0  0  0  0  0  0  0  0  0  0  0
    0.1540   20.2480  -35.8320 O   0  0  0  0  0  0  0  0  0  0  0  0
    0.6360   19.0260  -36.3800 C   0  0  0  0  0  0  0  0  0  0  0  0
   -1.4760   20.8180  -34.0800 C   0  0  0  0  0  0  0  0  0  0  0  0
   -1.8050   20.9200  -32.7180 C   0  0  0  0  0  0  0  0  0  0  0  0
   -3.8332   18.2643  -32.0179 H   0  0  0  0  0  0  0  0  0  0  0  0
   -4.4474   17.3899  -33.4618 H   0  0  0  0  0  0  0  0  0  0  0  0
   -2.7832   18.0659  -33.4618 H   0  0  0  0  0  0  0  0  0  0  0  0
   -3.7021   19.8542  -34.5174 H   0  0  0  0  0  0  0  0  0  0  0  0
   -5.3825   19.3636  -34.0264 H   0  0  0  0  0  0  0  0  0  0  0  0
   -4.3625   23.7604  -30.2846 H   0  0  0  0  0  0  0  0  0  0  0  0
   -6.7092   24.0640  -30.6238 H   0  0  0  0  0  0  0  0  0  0  0  0
   -8.8990   23.2062  -31.4311 H   0  0  0  0  0  0  0  0  0  0  0  0
  -10.2604   21.3441  -32.1351 H   0  0  0  0  0  0  0  0  0  0  0  0
  -10.4802   18.9296  -32.7128 H   0  0  0  0  0  0  0  0  0  0  0  0
   -8.4589   17.4728  -32.7377 H   0  0  0  0  0  0  0  0  0  0  0  0
   -6.2059   18.4505  -32.3640 H   0  0  0  0  0  0  0  0  0  0  0  0
   -1.4969   23.4378  -31.0399 H   0  0  0  0  0  0  0  0  0  0  0  0
   -2.2585   22.9462  -29.4813 H   0  0  0  0  0  0  0  0  0  0  0  0
   -0.0804   21.7510  -29.9324 H   0  0  0  0  0  0  0  0  0  0  0  0
   -1.4689   20.6330  -29.7760 H   0  0  0  0  0  0  0  0  0  0  0  0
    1.3254   20.4289  -31.4088 H   0  0  0  0  0  0  0  0  0  0  0  0
    2.7949   19.2387  -32.0937 H   0  0  0  0  0  0  0  0  0  0  0  0
    2.8514   18.0012  -33.3946 H   0  0  0  0  0  0  0  0  0  0  0  0
    4.0278   19.3587  -33.3946 H   0  0  0  0  0  0  0  0  0  0  0  0
    0.9067   18.3398  -35.5640 H   0  0  0  0  0  0  0  0  0  0  0  0
   -0.1486   18.5674  -36.9997 H   0  0  0  0  0  0  0  0  0  0  0  0
    1.5224   19.2265  -36.9997 H   0  0  0  0  0  0  0  0  0  0  0  0
   -2.2390   21.0376  -34.8414 H   0  0  0  0  0  0  0  0  0  0  0  0
  1  2  1  0
  2  3  1  0
  3  4  2  0
  4  5  1  0
  5  6  2  0
  6  7  1  0
  7  8  2  0
  8  9  1  0
  9 10  2  0
 10 11  1  0
 11 12  2  0
 12 13  1  0
 13 14  2  0
 14 15  1  0
 15 16  2  0
  5 17  1  0
 17 18  1  0
 18 19  1  0
 19 20  2  0
 20 21  1  0
 21 22  1  0
 22 23  1  0
 21 24  2  0
 24 25  1  0
 25 26  1  0
 24 27  1  0
 27 28  2  0
 16  3  1  0
 28 19  1  0
 28  4  1  0
 16  7  1  0
 15 10  1  0
  1 29  1  0
  1 30  1  0
  1 31  1  0
  2 32  1  0
  2 33  1  0
  6 34  1  0
  8 35  1  0
  9 36  1  0
 11 37  1  0
 12 38  1  0
 13 39  1  0
 14 40  1  0
 17 41  1  0
 17 42  1  0
 18 43  1  0
 18 44  1  0
 20 45  1  0
 23 46  1  0
 23 47  1  0
 23 48  1  0
 26 49  1  0
 26 50  1  0
 26 51  1  0
 27 52  1  0
M  CHG  1   5   1
M  END
>  <UniqueID>  (3) 
2

>  <SMILES>  (3) 
CCc1c2[n+](cc3ccc4ccccc4c13)CCc1cc(OC)c(OC)cc1-2

>  <Energy>  (3) 
103.57562210705775

>  <Genealogy>  (3) 
CCc1c2[n+](cc3ccc4ccccc4c13)CCc1cc(OC)c(OC)cc1-2 (3D coordinates assigned)
CCc1c2[n+](cc3ccc4ccccc4c13)CCc1cc(OC)c(OC)cc1-2 (nonaromatic ring conformer: 103.57562210705775 kcal/mol)

>  <smiles>  (3) 
CCc1c2[n+](cc3ccc4ccccc4c13)CCc1cc(OC)c(OC)cc1-2

>  <score_type>  (3) 
oracle

>  <origin>  (3) 
adg

>  <m_score__min__energy>  (3) 
-7.7800000000000002

>  <m_primary>  (3) 
energy

$$$$
3:0
     RDKit          3D

 56 58  0  0  0  0  0  0  0  0999 V2000
   -5.7180   25.9630  -30.3320 C   0  0  0  0  0  0  0  0  0  0  0  0
   -4.4250   25.3840  -30.6820 N   0  0  0  0  0  0  0  0  0  0  0  0
   -3.9670   24.1490  -30.1090 C   0  0  0  0  0  0  0  0  0  0  0  0
   -3.2200   24.1890  -28.9250 C   0  0  0  0  0  0  0  0  0  0  0  0
   -2.7060   23.0170  -28.3690 C   0  0  0  0  0  0  0  0  0  0  0  0
   -2.9380   21.7780  -28.9860 C   0  0  0  0  0  0  0  0  0  0  0  0
   -2.3940   20.5680  -28.4270 N   0  0  0  0  0  0  0  0  0  0  0  0
   -1.2370   19.9160  -29.0570 C   0  0  0  0  0  0  0  0  0  0  0  0
   -0.3240   19.2440  -28.0040 C   0  0  0  0  0  0  0  0  0  0  0  0
   -0.8590   19.2560  -26.6920 O   0  0  0  0  0  0  0  0  0  0  0  0
   -2.1990   18.8140  -26.7110 C   0  0  0  0  0  0  0  0  0  0  0  0
   -3.0840   19.9060  -27.3140 C   0  0  0  0  0  0  0  0  0  0  0  0
   -3.7030   21.7320  -30.1620 C   0  0  0  0  0  0  0  0  0  0  0  0
   -4.2480   22.9000  -30.7130 C   0  0  0  0  0  0  0  0  0  0  0  0
   -5.0760   22.7910  -31.8820 N   0  0  0  0  0  0  0  0  0  0  0  0
   -6.3650   22.1520  -31.8980 C   0  0  0  0  0  0  0  0  0  0  0  0
   -7.5450   22.8790  -31.6670 C   0  0  0  0  0  0  0  0  0  0  0  0
   -8.7830   22.2360  -31.6890 C   0  0  0  0  0  0  0  0  0  0  0  0
   -8.8580   20.8610  -31.9260 C   0  0  0  0  0  0  0  0  0  0  0  0
   -7.6870   20.1100  -32.1310 C   0  0  0  0  0  0  0  0  0  0  0  0
   -7.7460   18.6500  -32.3850 C   0  0  0  0  0  0  0  0  0  0  0  0
   -8.5550   17.9420  -31.7260 O   0  0  0  0  0  0  0  0  0  0  0  0
   -6.9080   18.0320  -33.3780 N   0  0  0  0  0  0  0  0  0  0  0  0
   -6.8760   16.5850  -33.5820 C   0  0  0  0  0  0  0  0  0  0  0  0
   -5.5460   16.1600  -34.2100 C   0  0  0  0  0  0  0  0  0  0  0  0
   -4.9830   17.2370  -34.9360 O   0  0  0  0  0  0  0  0  0  0  0  0
   -3.8810   17.7760  -34.2390 C   0  0  0  0  0  0  0  0  0  0  0  0
   -6.4440   20.7690  -32.1180 C   0  0  0  0  0  0  0  0  0  0  0  0
   -5.8159   26.0068  -29.2372 H   0  0  0  0  0  0  0  0  0  0  0  0
   -5.7893   26.9790  -30.7475 H   0  0  0  0  0  0  0  0  0  0  0  0
   -6.5235   25.3396  -30.7475 H   0  0  0  0  0  0  0  0  0  0  0  0
   -4.0120   25.6820  -31.5950 H   0  0  0  0  0  0  0  0  0  0  0  0
   -3.0368   25.1534  -28.4287 H   0  0  0  0  0  0  0  0  0  0  0  0
   -2.1157   23.0644  -27.4420 H   0  0  0  0  0  0  0  0  0  0  0  0
   -1.5968   19.1499  -29.7596 H   0  0  0  0  0  0  0  0  0  0  0  0
   -0.6511   20.6842  -29.5829 H   0  0  0  0  0  0  0  0  0  0  0  0
   -0.1617   18.1979  -28.3028 H   0  0  0  0  0  0  0  0  0  0  0  0
    0.6107   19.8232  -27.9741 H   0  0  0  0  0  0  0  0  0  0  0  0
   -2.2760   17.9010  -27.3198 H   0  0  0  0  0  0  0  0  0  0  0  0
   -2.5297   18.5973  -25.6845 H   0  0  0  0  0  0  0  0  0  0  0  0
   -4.0164   19.4539  -27.6832 H   0  0  0  0  0  0  0  0  0  0  0  0
   -3.3071   20.6530  -26.5380 H   0  0  0  0  0  0  0  0  0  0  0  0
   -3.8773   20.7658  -30.6581 H   0  0  0  0  0  0  0  0  0  0  0  0
   -4.6830   23.1310  -32.7890 H   0  0  0  0  0  0  0  0  0  0  0  0
   -7.4925   23.9596  -31.4680 H   0  0  0  0  0  0  0  0  0  0  0  0
   -9.7035   22.8137  -31.5191 H   0  0  0  0  0  0  0  0  0  0  0  0
   -9.8386   20.3632  -31.9524 H   0  0  0  0  0  0  0  0  0  0  0  0
   -6.3070   18.6210  -33.9950 H   0  0  0  0  0  0  0  0  0  0  0  0
   -6.9957   16.0802  -32.6120 H   0  0  0  0  0  0  0  0  0  0  0  0
   -7.6950   16.3037  -34.2603 H   0  0  0  0  0  0  0  0  0  0  0  0
   -4.8499   15.8541  -33.4151 H   0  0  0  0  0  0  0  0  0  0  0  0
   -5.7250   15.3189  -34.8959 H   0  0  0  0  0  0  0  0  0  0  0  0
   -4.0548   17.6910  -33.1562 H   0  0  0  0  0  0  0  0  0  0  0  0
   -2.9699   17.2218  -34.5087 H   0  0  0  0  0  0  0  0  0  0  0  0
   -3.7591   18.8354  -34.5087 H   0  0  0  0  0  0  0  0  0  0  0  0
   -5.5220   20.1920  -32.2825 H   0  0  0  0  0  0  0  0  0  0  0  0
  1  2  1  0
  2  3  1  0
  3  4  2  0
  4  5  1  0
  5  6  2  0
  6  7  1  0
  7  8  1  0
  8  9  1  0
  9 10  1  0
 10 11  1  0
 11 12  1  0
  6 13  1  0
 13 14  2  0
 14 15  1  0
 15 16  1  0
 16 17  2  0
 17 18  1  0
 18 19  2  0
 19 20  1  0
 20 21  1  0
 21 22  2  0
 21 23  1  0
 23 24  1  0
 24 25  1  0
 25 26  1  0
 26 27  1  0
 20 28  2  0
 14  3  1  0
 28 16  1  0
 12  7  1  0
  1 29  1  0
  1 30  1  0
  1 31  1  0
  2 32  1  0
  4 33  1  0
  5 34  1  0
  8 35  1  0
  8 36  1  0
  9 37  1  0
  9 38  1  0
 11 39  1  0
 11 40  1  0
 12 41  1  0
 12 42  1  0
 13 43  1  0
 15 44  1  0
 17 45  1  0
 18 46  1  0
 19 47  1  0
 23 48  1  0
 24 49  1  0
 24 50  1  0
 25 51  1  0
 25 52  1  0
 27 53  1  0
 27 54  1  0
 27 55  1  0
 28 56  1  0
M  END
>  <UniqueID>  (4) 
3

>  <SMILES>  (4) 
CNc1ccc(N2CCOCC2)cc1Nc1cccc(C(=O)NCCOC)c1

>  <Energy>  (4) 
77.48751903661648

>  <Genealogy>  (4) 
CNc1ccc(N2CCOCC2)cc1Nc1cccc(C(=O)NCCOC)c1 (3D coordinates assigned)
CNc1ccc(N2CCOCC2)cc1Nc1cccc(C(=O)NCCOC)c1 (nonaromatic ring conformer: 77.48751903661648 kcal/mol)

>  <smiles>  (4) 
CNc1ccc(N2CCOCC2)cc1Nc1cccc(C(=O)NCCOC)c1

>  <score_type>  (4) 
oracle

>  <origin>  (4) 
adg

>  <m_score__min__energy>  (4) 
-9.3300000000000001

>  <m_primary>  (4) 
energy

$$$$
4:0
     RDKit          3D

 50 52  0  0  0  0  0  0  0  0999 V2000
   -9.2680   19.9470  -32.3320 C   0  0  0  0  0  0  0  0  0  0  0  0
   -7.8280   20.3030  -32.7030 C   0  0  0  0  0  0  0  0  0  0  0  0
   -6.9890   19.1080  -32.9630 N   0  0  0  0  0  0  0  0  0  0  0  0
   -6.8250   18.3020  -31.7320 C   0  0  0  0  0  0  0  0  0  0  0  0
   -5.9260   17.0880  -31.9660 C   0  0  0  0  0  0  0  0  0  0  0  0
   -5.7170   19.3790  -33.6890 C   0  0  0  0  0  0  0  0  0  0  0  0
   -4.9730   20.6720  -33.2840 C   0  0  0  0  0  0  0  0  0  0  0  0
   -4.5380   20.6450  -31.8840 N   0  0  0  0  0  0  0  0  0  0  0  0
   -4.0740   21.8420  -31.2370 C   0  0  0  0  0  0  0  0  0  0  0  0
   -2.7060   21.9830  -30.9330 C   0  0  0  0  0  0  0  0  0  0  0  0
   -1.7300   20.9190  -31.2450 C   0  0  0  0  0  0  0  0  0  0  0  0
   -1.0350   20.2790  -30.2070 C   0  0  0  0  0  0  0  0  0  0  0  0
   -0.1170   19.2650  -30.4960 C   0  0  0  0  0  0  0  0  0  0  0  0
    0.1160   18.8890  -31.8220 C   0  0  0  0  0  0  0  0  0  0  0  0
   -0.5640   19.5300  -32.8620 C   0  0  0  0  0  0  0  0  0  0  0  0
   -1.4820   20.5460  -32.5750 C   0  0  0  0  0  0  0  0  0  0  0  0
   -2.2570   23.1560  -30.3170 C   0  0  0  0  0  0  0  0  0  0  0  0
   -3.1200   24.1590  -30.0110 N   0  0  0  0  0  0  0  0  0  0  0  0
   -2.6110   25.2970  -29.4230 O   0  0  0  0  0  0  0  0  0  0  0  0
   -4.4620   24.0430  -30.2530 C   0  0  0  0  0  0  0  0  0  0  0  0
   -5.3490   25.0760  -29.8920 C   0  0  0  0  0  0  0  0  0  0  0  0
   -6.7220   24.9320  -30.0930 C   0  0  0  0  0  0  0  0  0  0  0  0
   -7.2300   23.7550  -30.6410 C   0  0  0  0  0  0  0  0  0  0  0  0
   -6.3680   22.7230  -31.0120 C   0  0  0  0  0  0  0  0  0  0  0  0
   -4.9740   22.8620  -30.8540 C   0  0  0  0  0  0  0  0  0  0  0  0
   -9.3690   19.9220  -31.2369 H   0  0  0  0  0  0  0  0  0  0  0  0
   -9.9510   20.7033  -32.7461 H   0  0  0  0  0  0  0  0  0  0  0  0
   -9.5199   18.9595  -32.7461 H   0  0  0  0  0  0  0  0  0  0  0  0
   -7.8424   20.9262  -33.6093 H   0  0  0  0  0  0  0  0  0  0  0  0
   -7.3880   20.8367  -31.8476 H   0  0  0  0  0  0  0  0  0  0  0  0
   -6.3761   18.9325  -30.9504 H   0  0  0  0  0  0  0  0  0  0  0  0
   -7.8172   17.9396  -31.4250 H   0  0  0  0  0  0  0  0  0  0  0  0
   -5.6159   16.6692  -30.9973 H   0  0  0  0  0  0  0  0  0  0  0  0
   -6.4794   16.3261  -32.5346 H   0  0  0  0  0  0  0  0  0  0  0  0
   -5.0358   17.3951  -32.5346 H   0  0  0  0  0  0  0  0  0  0  0  0
   -5.0399   18.5305  -33.5116 H   0  0  0  0  0  0  0  0  0  0  0  0
   -5.9983   19.5144  -34.7438 H   0  0  0  0  0  0  0  0  0  0  0  0
   -4.0886   20.7883  -33.9276 H   0  0  0  0  0  0  0  0  0  0  0  0
   -5.6696   21.5146  -33.4051 H   0  0  0  0  0  0  0  0  0  0  0  0
   -4.2440   19.7330  -31.4670 H   0  0  0  0  0  0  0  0  0  0  0  0
   -1.2132   20.5762  -29.1630 H   0  0  0  0  0  0  0  0  0  0  0  0
    0.4223   18.7627  -29.6794 H   0  0  0  0  0  0  0  0  0  0  0  0
    0.8352   18.0878  -32.0475 H   0  0  0  0  0  0  0  0  0  0  0  0
   -0.3773   19.2356  -33.9053 H   0  0  0  0  0  0  0  0  0  0  0  0
   -2.0112   21.0542  -33.3946 H   0  0  0  0  0  0  0  0  0  0  0  0
   -1.1893   23.2676  -30.0770 H   0  0  0  0  0  0  0  0  0  0  0  0
   -4.9563   26.0028  -29.4484 H   0  0  0  0  0  0  0  0  0  0  0  0
   -7.4054   25.7491  -29.8185 H   0  0  0  0  0  0  0  0  0  0  0  0
   -8.3149   23.6397  -30.7814 H   0  0  0  0  0  0  0  0  0  0  0  0
   -6.7793   21.7930  -31.4313 H   0  0  0  0  0  0  0  0  0  0  0  0
  1  2  1  0
  2  3  1  0
  3  4  1  0
  4  5  1  0
  3  6  1  0
  6  7  1  0
  7  8  1  0
  8  9  1  0
  9 10  2  0
 10 11  1  0
 11 12  2  0
 12 13  1  0
 13 14  2  0
 14 15  1  0
 15 16  2  0
 10 17  1  0
 17 18  2  0
 18 19  1  0
 18 20  1  0
 20 21  2  0
 21 22  1  0
 22 23  2  0
 23 24  1  0
 24 25  2  0
 25  9  1  0
 16 11  1  0
 25 20  1  0
  1 26  1  0
  1 27  1  0
  1 28  1  0
  2 29  1  0
  2 30  1  0
  4 31  1  0
  4 32  1  0
  5 33  1  0
  5 34  1  0
  5 35  1  0
  6 36  1  0
  6 37  1  0
  7 38  1  0
  7 39  1  0
  8 40  1  0
 12 41  1  0
 13 42  1  0
 14 43  1  0
 15 44  1  0
 16 45  1  0
 17 46  1  0
 21 47  1  0
 22 48  1  0
 23 49  1  0
 24 50  1  0
M  CHG  2  18   1  19  -1
M  END
>  <UniqueID>  (5) 
4

>  <SMILES>  (5) 
CCN(CC)CCNc1c(-c2ccccc2)c[n+]([O-])c2ccccc12

>  <Energy>  (5) 
72.73489246130534

>  <Genealogy>  (5) 
CCN(CC)CCNc1c(-c2ccccc2)c[n+]([O-])c2ccccc12 (3D coordinates assigned)
CCN(CC)CCNc1c(-c2ccccc2)c[n+]([O-])c2ccccc12 (optimized conformer: 72.73489246130534 kcal/mol)

>  <smiles>  (5) 
CCN(CC)CCNc1c(-c2ccccc2)c[n+]([O-])c2ccccc12

>  <score_type>  (5) 
oracle

>  <origin>  (5) 
adg

>  <m_score__min__energy>  (5) 
-8.6600000000000001

>  <m_primary>  (5) 
energy

$$$$
5:0
     RDKit          3D

 54 57  0  0  0  0  0  0  0  0999 V2000
   -4.3780   16.4430  -34.5220 C   0  0  0  0  0  0  0  0  0  0  0  0
   -4.0780   17.7640  -34.9520 O   0  0  0  0  0  0  0  0  0  0  0  0
   -3.7780   18.7740  -34.0370 C   0  0  0  0  0  0  0  0  0  0  0  0
   -2.4430   19.0490  -33.7080 C   0  0  0  0  0  0  0  0  0  0  0  0
   -1.1360   18.1290  -34.4370 Cl  0  0  0  0  0  0  0  0  0  0  0  0
   -2.1400   20.0630  -32.7930 C   0  0  0  0  0  0  0  0  0  0  0  0
   -3.1660   20.8130  -32.1880 C   0  0  0  0  0  0  0  0  0  0  0  0
   -2.8440   21.8890  -31.2180 C   0  0  0  0  0  0  0  0  0  0  0  0
   -1.9130   21.6850  -30.2480 N   0  0  0  0  0  0  0  0  0  0  0  0
   -1.5910   22.6530  -29.3510 C   0  0  0  0  0  0  0  0  0  0  0  0
   -2.2630   23.8930  -29.3940 C   0  0  0  0  0  0  0  0  0  0  0  0
   -3.2090   24.0920  -30.4110 C   0  0  0  0  0  0  0  0  0  0  0  0
   -3.8670   25.3220  -30.5210 O   0  0  0  0  0  0  0  0  0  0  0  0
   -5.2850   25.4360  -30.5990 C   0  0  0  0  0  0  0  0  0  0  0  0
   -5.9390   24.3650  -29.7210 C   0  0  0  0  0  0  0  0  0  0  0  0
   -6.2140   23.1260  -30.4800 N   0  0  0  0  0  0  0  0  0  0  0  0
   -6.3770   23.4000  -31.9280 C   0  0  0  0  0  0  0  0  0  0  0  0
   -7.8590   23.4220  -32.3440 C   0  0  0  0  0  0  0  0  0  0  0  0
   -8.5420   22.2040  -32.0840 O   0  0  0  0  0  0  0  0  0  0  0  0
   -8.0230   21.4830  -30.9740 C   0  0  0  0  0  0  0  0  0  0  0  0
   -7.3630   22.3780  -29.9130 C   0  0  0  0  0  0  0  0  0  0  0  0
   -3.4780   23.0890  -31.2890 N   0  0  0  0  0  0  0  0  0  0  0  0
   -1.9000   25.0250  -28.4590 C   0  0  0  0  0  0  0  0  0  0  0  0
   -1.1400   24.5460  -27.2190 C   0  0  0  0  0  0  0  0  0  0  0  0
   -0.0150   23.5880  -27.6140 C   0  0  0  0  0  0  0  0  0  0  0  0
   -0.5940   22.3310  -28.2690 C   0  0  0  0  0  0  0  0  0  0  0  0
   -4.5030   20.5230  -32.5170 C   0  0  0  0  0  0  0  0  0  0  0  0
   -4.8080   19.5110  -33.4330 C   0  0  0  0  0  0  0  0  0  0  0  0
   -6.4920   19.1650  -33.8020 Cl  0  0  0  0  0  0  0  0  0  0  0  0
   -4.3859   16.4082  -33.4226 H   0  0  0  0  0  0  0  0  0  0  0  0
   -5.3660   16.1481  -34.9053 H   0  0  0  0  0  0  0  0  0  0  0  0
   -3.6143   15.7503  -34.9053 H   0  0  0  0  0  0  0  0  0  0  0  0
   -1.0900   20.2762  -32.5440 H   0  0  0  0  0  0  0  0  0  0  0  0
   -5.5913   26.4328  -30.2488 H   0  0  0  0  0  0  0  0  0  0  0  0
   -5.6045   25.2962  -31.6423 H   0  0  0  0  0  0  0  0  0  0  0  0
   -5.2638   24.1284  -28.8855 H   0  0  0  0  0  0  0  0  0  0  0  0
   -6.8974   24.7615  -29.3545 H   0  0  0  0  0  0  0  0  0  0  0  0
   -5.9284   24.3777  -32.1578 H   0  0  0  0  0  0  0  0  0  0  0  0
   -5.8778   22.5942  -32.4861 H   0  0  0  0  0  0  0  0  0  0  0  0
   -8.3633   24.2281  -31.7909 H   0  0  0  0  0  0  0  0  0  0  0  0
   -7.8857   23.5802  -33.4322 H   0  0  0  0  0  0  0  0  0  0  0  0
   -8.8491   20.9328  -30.4998 H   0  0  0  0  0  0  0  0  0  0  0  0
   -7.2418   20.8126  -31.3616 H   0  0  0  0  0  0  0  0  0  0  0  0
   -8.1068   23.0952  -29.5358 H   0  0  0  0  0  0  0  0  0  0  0  0
   -6.9934   21.7375  -29.0987 H   0  0  0  0  0  0  0  0  0  0  0  0
   -1.2686   25.7425  -29.0035 H   0  0  0  0  0  0  0  0  0  0  0  0
   -2.8377   25.4869  -28.1164 H   0  0  0  0  0  0  0  0  0  0  0  0
   -0.7092   25.4154  -26.7007 H   0  0  0  0  0  0  0  0  0  0  0  0
   -1.8404   24.0166  -26.5563 H   0  0  0  0  0  0  0  0  0  0  0  0
    0.6572   24.0909  -28.3248 H   0  0  0  0  0  0  0  0  0  0  0  0
    0.5415   23.2973  -26.7108 H   0  0  0  0  0  0  0  0  0  0  0  0
    0.2302   21.7510  -28.7097 H   0  0  0  0  0  0  0  0  0  0  0  0
   -1.1188   21.7589  -27.4897 H   0  0  0  0  0  0  0  0  0  0  0  0
   -5.3161   21.0977  -32.0493 H   0  0  0  0  0  0  0  0  0  0  0  0
  1  2  1  0
  2  3  1  0
  3  4  2  0
  4  5  1  0
  4  6  1  0
  6  7  2  0
  7  8  1  0
  8  9  2  0
  9 10  1  0
 10 11  2  0
 11 12  1  0
 12 13  1  0
 13 14  1  0
 14 15  1  0
 15 16  1  0
 16 17  1  0
 17 18  1  0
 18 19  1  0
 19 20  1  0
 20 21  1  0
 12 22  2  0
 11 23  1  0
 23 24  1  0
 24 25  1  0
 25 26  1  0
  7 27  1  0
 27 28  2  0
 28 29  1  0
 28  3  1  0
 22  8  1  0
 26 10  1  0
 21 16  1  0
  1 30  1  0
  1 31  1  0
  1 32  1  0
  6 33  1  0
 14 34  1  0
 14 35  1  0
 15 36  1  0
 15 37  1  0
 17 38  1  0
 17 39  1  0
 18 40  1  0
 18 41  1  0
 20 42  1  0
 20 43  1  0
 21 44  1  0
 21 45  1  0
 23 46  1  0
 23 47  1  0
 24 48  1  0
 24 49  1  0
 25 50  1  0
 25 51  1  0
 26 52  1  0
 26 53  1  0
 27 54  1  0
M  END
>  <UniqueID>  (6) 
5

>  <SMILES>  (6) 
COc1c(Cl)cc(-c2nc3c(c(OCCN4CCOCC4)n2)CCCC3)cc1Cl

>  <Energy>  (6) 
74.45212410689933

>  <Genealogy>  (6) 
COc1c(Cl)cc(-c2nc3c(c(OCCN4CCOCC4)n2)CCCC3)cc1Cl (3D coordinates assigned)
COc1c(Cl)cc(-c2nc3c(c(OCCN4CCOCC4)n2)CCCC3)cc1Cl (nonaromatic ring conformer: 74.45212410689933 kcal/mol)

>  <smiles>  (6) 
COc1c(Cl)cc(-c2nc3c(c(OCCN4CCOCC4)n2)CCCC3)cc1Cl

>  <score_type>  (6) 
oracle

>  <origin>  (6) 
adg

>  <m_score__min__energy>  (6) 
-9.7200000000000006

>  <m_primary>  (6) 
energy

$$$$
6:0
     RDKit          3D

 42 44  0  0  0  0  0  0  0  0999 V2000
   -0.5110   24.9070  -28.6870 O   0  0  0  0  0  0  0  0  0  0  0  0
   -1.6040   24.3060  -28.8690 C   0  0  0  0  0  0  0  0  0  0  0  0
   -2.7290   25.0580  -29.3450 N   0  0  0  0  0  0  0  0  0  0  0  0
   -3.8520   24.5300  -30.0640 C   0  0  0  0  0  0  0  0  0  0  0  0
   -5.1310   25.1030  -29.9550 C   0  0  0  0  0  0  0  0  0  0  0  0
   -6.2090   24.5600  -30.6600 C   0  0  0  0  0  0  0  0  0  0  0  0
   -6.0270   23.4270  -31.4690 C   0  0  0  0  0  0  0  0  0  0  0  0
   -7.1750   22.8540  -32.2560 C   0  0  0  0  0  0  0  0  0  0  0  0
   -7.4260   21.4480  -31.8720 N   0  0  0  0  0  0  0  0  0  0  0  0
   -8.8830   21.1760  -31.7810 C   0  0  0  0  0  0  0  0  0  0  0  0
   -9.3030   19.7930  -32.3210 C   0  0  0  0  0  0  0  0  0  0  0  0
   -8.6490   18.6200  -31.5520 C   0  0  0  0  0  0  0  0  0  0  0  0
   -7.4620   18.1800  -32.1860 O   0  0  0  0  0  0  0  0  0  0  0  0
   -6.4060   19.1080  -32.0080 C   0  0  0  0  0  0  0  0  0  0  0  0
   -6.6310   20.4850  -32.6770 C   0  0  0  0  0  0  0  0  0  0  0  0
   -4.7540   22.8390  -31.5540 C   0  0  0  0  0  0  0  0  0  0  0  0
   -3.6780   23.3830  -30.8470 C   0  0  0  0  0  0  0  0  0  0  0  0
   -1.7190   22.8730  -28.5180 C   0  0  0  0  0  0  0  0  0  0  0  0
   -2.7640   22.4040  -27.7080 C   0  0  0  0  0  0  0  0  0  0  0  0
   -2.8430   21.0790  -27.4160 N   0  0  0  0  0  0  0  0  0  0  0  0
   -1.9310   20.1950  -27.8960 C   0  0  0  0  0  0  0  0  0  0  0  0
   -0.8950   20.6540  -28.7090 C   0  0  0  0  0  0  0  0  0  0  0  0
   -0.8140   21.9770  -29.0040 N   0  0  0  0  0  0  0  0  0  0  0  0
   -5.2842   25.9824  -29.3122 H   0  0  0  0  0  0  0  0  0  0  0  0
   -7.2040   25.0223  -30.5806 H   0  0  0  0  0  0  0  0  0  0  0  0
   -8.0794   23.4484  -32.0591 H   0  0  0  0  0  0  0  0  0  0  0  0
   -6.9201   22.8869  -33.3255 H   0  0  0  0  0  0  0  0  0  0  0  0
   -9.1802   21.2384  -30.7238 H   0  0  0  0  0  0  0  0  0  0  0  0
   -9.3846   21.9265  -32.4096 H   0  0  0  0  0  0  0  0  0  0  0  0
  -10.3960   19.7011  -32.2373 H   0  0  0  0  0  0  0  0  0  0  0  0
   -8.9648   19.7309  -33.3659 H   0  0  0  0  0  0  0  0  0  0  0  0
   -8.4069   18.9526  -30.5318 H   0  0  0  0  0  0  0  0  0  0  0  0
   -9.3605   17.7813  -31.5327 H   0  0  0  0  0  0  0  0  0  0  0  0
   -6.2716   19.2702  -30.9284 H   0  0  0  0  0  0  0  0  0  0  0  0
   -5.5229   18.6685  -32.4947 H   0  0  0  0  0  0  0  0  0  0  0  0
   -5.6465   20.9346  -32.8736 H   0  0  0  0  0  0  0  0  0  0  0  0
   -7.2118   20.2931  -33.5913 H   0  0  0  0  0  0  0  0  0  0  0  0
   -4.6034   21.9468  -32.1795 H   0  0  0  0  0  0  0  0  0  0  0  0
   -2.6882   22.9067  -30.9063 H   0  0  0  0  0  0  0  0  0  0  0  0
   -3.5144   23.1040  -27.3119 H   0  0  0  0  0  0  0  0  0  0  0  0
   -2.0086   19.1266  -27.6459 H   0  0  0  0  0  0  0  0  0  0  0  0
   -0.1497   19.9502  -29.1080 H   0  0  0  0  0  0  0  0  0  0  0  0
  1  2  2  0
  2  3  1  0
  3  4  1  0
  4  5  2  0
  5  6  1  0
  6  7  2  0
  7  8  1  0
  8  9  1  0
  9 10  1  0
 10 11  1  0
 11 12  1  0
 12 13  1  0
 13 14  1  0
 14 15  1  0
  7 16  1  0
 16 17  2  0
  2 18  1  0
 18 19  2  0
 19 20  1  0
 20 21  2  0
 21 22  1  0
 22 23  2  0
 17  4  1  0
 23 18  1  0
 15  9  1  0
  5 24  1  0
  6 25  1  0
  8 26  1  0
  8 27  1  0
 10 28  1  0
 10 29  1  0
 11 30  1  0
 11 31  1  0
 12 32  1  0
 12 33  1  0
 14 34  1  0
 14 35  1  0
 15 36  1  0
 15 37  1  0
 16 38  1  0
 17 39  1  0
 19 40  1  0
 21 41  1  0
 22 42  1  0
M  CHG  1   3  -1
M  END
>  <UniqueID>  (7) 
6

>  <SMILES>  (7) 
O=C([N-]c1ccc(CN2CCCOCC2)cc1)c1cnccn1

>  <Energy>  (7) 
68.24449058739971

>  <Genealogy>  (7) 
O=C([N-]c1ccc(CN2CCCOCC2)cc1)c1cnccn1 (protonated)
O=C([N-]c1ccc(CN2CCCOCC2)cc1)c1cnccn1 (3D coordinates assigned)
O=C([N-]c1ccc(CN2CCCOCC2)cc1)c1cnccn1 (nonaromatic ring conformer: 68.24449058739971 kcal/mol)

>  <smiles>  (7) 
O=C(Nc1ccc(CN2CCCOCC2)cc1)c1cnccn1

>  <score_type>  (7) 
oracle

>  <origin>  (7) 
adg

>  <m_score__min__energy>  (7) 
-7.6399999999999997

>  <m_primary>  (7) 
energy

$$$$
7:0
     RDKit          3D

 87 92  0  0  0  0  0  0  0  0999 V2000
    1.4580   28.7870  -23.5700 C   0  0  0  0  0  0  0  0  0  0  0  0
    0.5420   28.3790  -24.6420 N   0  0  0  0  0  0  0  0  0  0  0  0
    0.4520   29.4020  -25.6980 C   0  0  0  0  0  0  0  0  0  0  0  0
   -0.7800   27.9350  -24.1450 C   0  0  0  0  0  0  0  0  0  0  0  0
   -0.7870   26.5600  -23.4240 C   0  0  0  0  0  0  0  0  0  0  0  0
    0.3580   25.7250  -23.8220 N   0  0  0  0  0  0  0  0  0  0  0  0
   -0.0770   24.6740  -24.7160 C   0  0  0  0  0  0  0  0  0  0  0  0
   -0.0640   23.3240  -24.2630 C   0  0  0  0  0  0  0  0  0  0  0  0
   -0.4510   22.2660  -25.1080 C   0  0  0  0  0  0  0  0  0  0  0  0
   -0.8480   22.5620  -26.4110 C   0  0  0  0  0  0  0  0  0  0  0  0
   -0.8400   23.8480  -26.8490 C   0  0  0  0  0  0  0  0  0  0  0  0
   -1.2190   23.9500  -28.1540 C   0  0  0  0  0  0  0  0  0  0  0  0
   -1.2510   25.1960  -28.7790 C   0  0  0  0  0  0  0  0  0  0  0  0
   -0.8870   26.3320  -28.0300 C   0  0  0  0  0  0  0  0  0  0  0  0
   -0.4950   26.2090  -26.6770 C   0  0  0  0  0  0  0  0  0  0  0  0
   -0.4650   24.9370  -26.0610 C   0  0  0  0  0  0  0  0  0  0  0  0
   -1.5230   22.5990  -28.7210 C   0  0  0  0  0  0  0  0  0  0  0  0
   -1.2930   21.6380  -27.5090 C   0  0  2  0  0  0  0  0  0  0  0  0
   -2.5480   20.8190  -27.1360 C   0  0  0  0  0  0  0  0  0  0  0  0
   -2.2420   19.4450  -26.5080 C   0  0  0  0  0  0  0  0  0  0  0  0
   -1.6240   18.5550  -27.5030 N   0  0  0  0  0  0  0  0  0  0  0  0
   -0.1580   18.6470  -27.4630 C   0  0  0  0  0  0  0  0  0  0  0  0
    0.4390   18.0270  -28.7330 C   0  0  0  0  0  0  0  0  0  0  0  0
    0.4460   19.0010  -29.9280 C   0  0  0  0  0  0  0  0  0  0  0  0
   -0.7980   19.7750  -30.0670 N   0  0  0  0  0  0  0  0  0  0  0  0
   -1.1670   20.0020  -31.4700 C   0  0  0  0  0  0  0  0  0  0  0  0
   -1.7510   21.4090  -31.6510 C   0  0  0  0  0  0  0  0  0  0  0  0
   -2.6020   21.5590  -32.9240 C   0  0  0  0  0  0  0  0  0  0  0  0
   -4.0030   21.1750  -32.6840 N   0  0  0  0  0  0  0  0  0  0  0  0
   -4.9650   22.1410  -32.2180 C   0  0  0  0  0  0  0  0  0  0  0  0
   -4.6040   23.3220  -31.9580 O   0  0  0  0  0  0  0  0  0  0  0  0
   -6.3810   21.7470  -32.0370 C   0  0  0  0  0  0  0  0  0  0  0  0
   -7.3340   22.6880  -31.6040 C   0  0  0  0  0  0  0  0  0  0  0  0
   -8.6660   22.3140  -31.4190 C   0  0  0  0  0  0  0  0  0  0  0  0
   -9.0690   21.0010  -31.6630 C   0  0  0  0  0  0  0  0  0  0  0  0
   -8.1380   20.0470  -32.0970 C   0  0  0  0  0  0  0  0  0  0  0  0
   -8.5440   18.7260  -32.3380 C   0  0  0  0  0  0  0  0  0  0  0  0
   -7.6180   17.7750  -32.7680 C   0  0  0  0  0  0  0  0  0  0  0  0
   -6.2830   18.1310  -32.9640 C   0  0  0  0  0  0  0  0  0  0  0  0
   -5.8530   19.4490  -32.7300 C   0  0  0  0  0  0  0  0  0  0  0  0
   -6.7830   20.4170  -32.2910 C   0  0  0  0  0  0  0  0  0  0  0  0
   -4.4360   19.8250  -32.9410 C   0  0  0  0  0  0  0  0  0  0  0  0
   -3.6080   18.9600  -33.3400 O   0  0  0  0  0  0  0  0  0  0  0  0
    0.9949   28.5807  -22.5938 H   0  0  0  0  0  0  0  0  0  0  0  0
    2.3982   28.2226  -23.6565 H   0  0  0  0  0  0  0  0  0  0  0  0
    1.6673   29.8634  -23.6565 H   0  0  0  0  0  0  0  0  0  0  0  0
    0.3644   30.3973  -25.2378 H   0  0  0  0  0  0  0  0  0  0  0  0
    1.3569   29.3650  -26.3224 H   0  0  0  0  0  0  0  0  0  0  0  0
   -0.4325   29.2076  -26.3224 H   0  0  0  0  0  0  0  0  0  0  0  0
   -1.1495   28.6921  -23.4377 H   0  0  0  0  0  0  0  0  0  0  0  0
   -1.4167   27.8168  -25.0342 H   0  0  0  0  0  0  0  0  0  0  0  0
   -0.7440   26.7280  -22.3378 H   0  0  0  0  0  0  0  0  0  0  0  0
   -1.7090   26.0314  -23.7076 H   0  0  0  0  0  0  0  0  0  0  0  0
    1.0690   26.3160  -24.3130 H   0  0  0  0  0  0  0  0  0  0  0  0
    0.8310   25.3180  -22.9850 H   0  0  0  0  0  0  0  0  0  0  0  0
    0.2544   23.1034  -23.2335 H   0  0  0  0  0  0  0  0  0  0  0  0
   -0.4402   21.2270  -24.7471 H   0  0  0  0  0  0  0  0  0  0  0  0
   -1.5535   25.2896  -29.8324 H   0  0  0  0  0  0  0  0  0  0  0  0
   -0.9079   27.3251  -28.5025 H   0  0  0  0  0  0  0  0  0  0  0  0
   -0.2131   27.1041  -26.1031 H   0  0  0  0  0  0  0  0  0  0  0  0
   -2.5634   22.5452  -29.0742 H   0  0  0  0  0  0  0  0  0  0  0  0
   -0.9000   22.3485  -29.5923 H   0  0  0  0  0  0  0  0  0  0  0  0
   -0.5512   20.8563  -27.7296 H   0  0  0  0  0  0  0  0  0  0  0  0
   -3.1398   21.4033  -26.4160 H   0  0  0  0  0  0  0  0  0  0  0  0
   -3.0889   20.6245  -28.0739 H   0  0  0  0  0  0  0  0  0  0  0  0
   -1.5517   19.5783  -25.6620 H   0  0  0  0  0  0  0  0  0  0  0  0
   -3.1825   18.9935  -26.1594 H   0  0  0  0  0  0  0  0  0  0  0  0
   -1.9320   18.8730  -28.4520 H   0  0  0  0  0  0  0  0  0  0  0  0
    0.1395   19.7041  -27.3986 H   0  0  0  0  0  0  0  0  0  0  0  0
    0.2152   18.1014  -26.5838 H   0  0  0  0  0  0  0  0  0  0  0  0
    1.4747   17.7226  -28.5219 H   0  0  0  0  0  0  0  0  0  0  0  0
   -0.1908   17.1686  -29.0096 H   0  0  0  0  0  0  0  0  0  0  0  0
    1.2806   19.7054  -29.7971 H   0  0  0  0  0  0  0  0  0  0  0  0
    0.5497   18.3924  -30.8384 H   0  0  0  0  0  0  0  0  0  0  0  0
   -1.5860   19.2980  -29.5710 H   0  0  0  0  0  0  0  0  0  0  0  0
   -0.2721   19.8975  -32.1011 H   0  0  0  0  0  0  0  0  0  0  0  0
   -1.9259   19.2614  -31.7626 H   0  0  0  0  0  0  0  0  0  0  0  0
   -2.3828   21.6388  -30.7803 H   0  0  0  0  0  0  0  0  0  0  0  0
   -0.9026   22.1029  -31.7443 H   0  0  0  0  0  0  0  0  0  0  0  0
   -2.5702   22.6079  -33.2538 H   0  0  0  0  0  0  0  0  0  0  0  0
   -2.1888   20.8934  -33.6962 H   0  0  0  0  0  0  0  0  0  0  0  0
   -7.0267   23.7262  -31.4099 H   0  0  0  0  0  0  0  0  0  0  0  0
   -9.4014   23.0581  -31.0792 H   0  0  0  0  0  0  0  0  0  0  0  0
  -10.1203   20.7134  -31.5144 H   0  0  0  0  0  0  0  0  0  0  0  0
   -9.5952   18.4391  -32.1876 H   0  0  0  0  0  0  0  0  0  0  0  0
   -7.9417   16.7402  -32.9533 H   0  0  0  0  0  0  0  0  0  0  0  0
   -5.5610   17.3741  -33.3044 H   0  0  0  0  0  0  0  0  0  0  0  0
  1  2  1  0
  2  3  1  0
  2  4  1  0
  4  5  1  0
  5  6  1  0
  6  7  1  0
  7  8  2  0
  8  9  1  0
  9 10  2  0
 10 11  1  0
 11 12  2  0
 12 13  1  0
 13 14  2  0
 14 15  1  0
 15 16  2  0
 12 17  1  0
 17 18  1  0
 18 19  1  0
 19 20  1  0
 20 21  1  0
 21 22  1  0
 22 23  1  0
 23 24  1  0
 24 25  1  0
 25 26  1  0
 26 27  1  0
 27 28  1  0
 28 29  1  0
 29 30  1  0
 30 31  2  0
 30 32  1  0
 32 33  2  0
 33 34  1  0
 34 35  2  0
 35 36  1  0
 36 37  2  0
 37 38  1  0
 38 39  2  0
 39 40  1  0
 40 41  2  0
 40 42  1  0
 42 43  2  0
 16  7  1  0
 42 29  1  0
 18 10  1  0
 41 32  1  0
 16 11  1  0
 41 36  1  0
  1 44  1  0
  1 45  1  0
  1 46  1  0
  3 47  1  0
  3 48  1  0
  3 49  1  0
  4 50  1  0
  4 51  1  0
  5 52  1  0
  5 53  1  0
  6 54  1  0
  6 55  1  0
  8 56  1  0
  9 57  1  0
 13 58  1  0
 14 59  1  0
 15 60  1  0
 17 61  1  0
 17 62  1  0
 18 63  1  6
 19 64  1  0
 19 65  1  0
 20 66  1  0
 20 67  1  0
 21 68  1  0
 22 69  1  0
 22 70  1  0
 23 71  1  0
 23 72  1  0
 24 73  1  0
 24 74  1  0
 25 75  1  0
 26 76  1  0
 26 77  1  0
 27 78  1  0
 27 79  1  0
 28 80  1  0
 28 81  1  0
 33 82  1  0
 34 83  1  0
 35 84  1  0
 37 85  1  0
 38 86  1  0
 39 87  1  0
M  CHG  1   6   1
M  END
>  <UniqueID>  (8) 
7

>  <SMILES>  (8) 
CN(C)CC[NH2+]c1ccc2c3c(cccc13)C[C@@H]2CCNCCCNCCCN1C(=O)c2cccc3cccc(c23)C1=O

>  <Energy>  (8) 
118.09559111422325

>  <Genealogy>  (8) 
CN(C)CC[NH2+]c1ccc2c3c(cccc13)CC2CCNCCCNCCCN1C(=O)c2cccc3cccc(c23)C1=O (protonated)
CN(C)CC[NH2+]c1ccc2c3c(cccc13)C[C@@H]2CCNCCCNCCCN1C(=O)c2cccc3cccc(c23)C1=O (chirality)
CN(C)CC[NH2+]c1ccc2c3c(cccc13)C[C@@H]2CCNCCCNCCCN1C(=O)c2cccc3cccc(c23)C1=O (3D coordinates assigned)
CN(C)CC[NH2+]c1ccc2c3c(cccc13)C[C@@H]2CCNCCCNCCCN1C(=O)c2cccc3cccc(c23)C1=O (nonaromatic ring conformer: 118.09559111422325 kcal/mol)

>  <smiles>  (8) 
CN(C)CCNc1ccc2c3c(cccc13)CC2CCNCCCNCCCN1C(=O)c2cccc3cccc(c23)C1=O

>  <score_type>  (8) 
oracle

>  <origin>  (8) 
adg

>  <m_score__min__energy>  (8) 
-12.17

>  <m_primary>  (8) 
energy

$$$$
8:0
     RDKit          3D

 87 89  0  0  0  0  0  0  0  0999 V2000
    0.6240   22.7780  -36.0710 C   0  0  0  0  0  0  0  0  0  0  0  0
    0.3490   21.4730  -36.1980 C   0  0  0  0  0  0  0  0  0  0  0  0
    0.3240   20.5200  -35.0220 C   0  0  1  0  0  0  0  0  0  0  0  0
    1.1830   21.0300  -33.8460 C   0  0  0  0  0  0  0  0  0  0  0  0
    1.2280   20.0520  -32.6600 C   0  0  0  0  0  0  0  0  0  0  0  0
    0.2110   20.4150  -31.5700 C   0  0  0  0  0  0  0  0  0  0  0  0
   -1.0680   19.7360  -31.7930 N   0  0  0  0  0  0  0  0  0  0  0  0
   -2.3190   20.4490  -31.8590 C   0  0  0  0  0  0  0  0  0  0  0  0
   -2.4030   21.7870  -31.4390 C   0  0  0  0  0  0  0  0  0  0  0  0
   -3.6280   22.4750  -31.4680 C   0  0  0  0  0  0  0  0  0  0  0  0
   -3.7580   23.7950  -31.0120 O   0  0  0  0  0  0  0  0  0  0  0  0
   -3.7140   24.1790  -29.6410 C   0  0  0  0  0  0  0  0  0  0  0  0
   -4.7660   21.8350  -31.9620 C   0  0  0  0  0  0  0  0  0  0  0  0
   -4.7040   20.5030  -32.4030 C   0  0  0  0  0  0  0  0  0  0  0  0
   -5.8380   19.8500  -32.9210 C   0  0  0  0  0  0  0  0  0  0  0  0
   -7.0140   20.5790  -33.1510 O   0  0  0  0  0  0  0  0  0  0  0  0
   -8.2270   20.3290  -32.4330 C   0  0  0  0  0  0  0  0  0  0  0  0
   -8.3550   21.2520  -31.2110 C   0  0  0  0  0  0  0  0  0  0  0  0
   -7.4390   22.4150  -31.3250 N   0  0  0  0  0  0  0  0  0  0  0  0
   -7.9440   23.4090  -32.3080 C   0  0  0  0  0  0  0  0  0  0  0  0
   -9.4680   23.3960  -32.3350 C   0  0  0  0  0  0  0  0  0  0  0  0
   -7.2150   23.0210  -29.9900 C   0  0  0  0  0  0  0  0  0  0  0  0
   -6.8770   24.5080  -30.0880 C   0  0  0  0  0  0  0  0  0  0  0  0
   -5.7690   18.4750  -33.2210 C   0  0  0  0  0  0  0  0  0  0  0  0
   -6.9030   17.7370  -33.6040 C   0  0  0  0  0  0  0  0  0  0  0  0
   -6.7890   16.3750  -33.8990 C   0  0  0  0  0  0  0  0  0  0  0  0
   -5.5490   15.7390  -33.8170 C   0  0  0  0  0  0  0  0  0  0  0  0
   -4.4190   16.4540  -33.4170 C   0  0  0  0  0  0  0  0  0  0  0  0
   -4.5250   17.8160  -33.1110 C   0  0  0  0  0  0  0  0  0  0  0  0
   -3.4270   18.4950  -32.6940 N   0  0  0  0  0  0  0  0  0  0  0  0
   -3.4770   19.8060  -32.3360 C   0  0  0  0  0  0  0  0  0  0  0  0
   -1.1280   20.2510  -34.5820 C   0  0  0  0  0  0  0  0  0  0  0  0
   -1.4130   18.8040  -34.6100 N   0  0  0  0  0  0  0  0  0  0  0  0
   -0.3890   18.0600  -35.3620 C   0  0  0  0  0  0  0  0  0  0  0  0
   -0.7640   16.5710  -35.4920 C   0  0  0  0  0  0  0  0  0  0  0  0
   -1.8220   16.1310  -34.5670 N   0  0  0  0  0  0  0  0  0  0  0  0
   -1.3570   15.1190  -33.6080 C   0  0  0  0  0  0  0  0  0  0  0  0
   -0.6680   15.7940  -32.4170 C   0  0  0  0  0  0  0  0  0  0  0  0
   -0.8090   17.2490  -32.4570 N   0  0  0  0  0  0  0  0  0  0  0  0
    0.6292   23.4279  -36.9585 H   0  0  0  0  0  0  0  0  0  0  0  0
    0.8446   23.1996  -35.0792 H   0  0  0  0  0  0  0  0  0  0  0  0
    0.1318   21.0765  -37.2008 H   0  0  0  0  0  0  0  0  0  0  0  0
    0.7706   19.5697  -35.3497 H   0  0  0  0  0  0  0  0  0  0  0  0
    2.2099   21.1898  -34.2066 H   0  0  0  0  0  0  0  0  0  0  0  0
    0.7225   21.9613  -33.4845 H   0  0  0  0  0  0  0  0  0  0  0  0
    1.0068   19.0391  -33.0276 H   0  0  0  0  0  0  0  0  0  0  0  0
    2.2328   20.1063  -32.2157 H   0  0  0  0  0  0  0  0  0  0  0  0
    0.6114   20.1138  -30.5907 H   0  0  0  0  0  0  0  0  0  0  0  0
    0.0394   21.5011  -31.6008 H   0  0  0  0  0  0  0  0  0  0  0  0
   -1.0890   18.7090  -31.5970 H   0  0  0  0  0  0  0  0  0  0  0  0
   -1.4988   22.3024  -31.0831 H   0  0  0  0  0  0  0  0  0  0  0  0
   -3.8163   23.2862  -29.0067 H   0  0  0  0  0  0  0  0  0  0  0  0
   -2.7536   24.6715  -29.4288 H   0  0  0  0  0  0  0  0  0  0  0  0
   -4.5382   24.8759  -29.4288 H   0  0  0  0  0  0  0  0  0  0  0  0
   -5.7208   22.3794  -32.0063 H   0  0  0  0  0  0  0  0  0  0  0  0
   -9.0819   20.5018  -33.1033 H   0  0  0  0  0  0  0  0  0  0  0  0
   -8.2123   19.2872  -32.0802 H   0  0  0  0  0  0  0  0  0  0  0  0
   -9.3909   21.6154  -31.1415 H   0  0  0  0  0  0  0  0  0  0  0  0
   -8.0860   20.6807  -30.3103 H   0  0  0  0  0  0  0  0  0  0  0  0
   -7.5943   24.4121  -32.0226 H   0  0  0  0  0  0  0  0  0  0  0  0
   -7.5653   23.1493  -33.3076 H   0  0  0  0  0  0  0  0  0  0  0  0
   -9.8530   23.3927  -31.3046 H   0  0  0  0  0  0  0  0  0  0  0  0
   -9.8331   24.2911  -32.8600 H   0  0  0  0  0  0  0  0  0  0  0  0
   -9.8178   22.4948  -32.8600 H   0  0  0  0  0  0  0  0  0  0  0  0
   -8.1282   22.9029  -29.3882 H   0  0  0  0  0  0  0  0  0  0  0  0
   -6.3620   22.5079  -29.5218 H   0  0  0  0  0  0  0  0  0  0  0  0
   -6.7812   24.9297  -29.0766 H   0  0  0  0  0  0  0  0  0  0  0  0
   -5.9275   24.6333  -30.6290 H   0  0  0  0  0  0  0  0  0  0  0  0
   -7.6791   25.0315  -30.6290 H   0  0  0  0  0  0  0  0  0  0  0  0
   -7.8827   18.2326  -33.6717 H   0  0  0  0  0  0  0  0  0  0  0  0
   -7.6798   15.8025  -34.1968 H   0  0  0  0  0  0  0  0  0  0  0  0
   -5.4623   14.6716  -34.0683 H   0  0  0  0  0  0  0  0  0  0  0  0
   -3.4454   15.9475  -33.3422 H   0  0  0  0  0  0  0  0  0  0  0  0
   -1.2731   20.6295  -33.5594 H   0  0  0  0  0  0  0  0  0  0  0  0
   -1.8119   20.7633  -35.2747 H   0  0  0  0  0  0  0  0  0  0  0  0
   -1.4180   18.4540  -33.6230 H   0  0  0  0  0  0  0  0  0  0  0  0
   -0.2956   18.4955  -36.3678 H   0  0  0  0  0  0  0  0  0  0  0  0
    0.5640   18.1326  -34.8174 H   0  0  0  0  0  0  0  0  0  0  0  0
   -1.1088   16.3908  -36.5209 H   0  0  0  0  0  0  0  0  0  0  0  0
    0.1378   15.9950  -35.2371 H   0  0  0  0  0  0  0  0  0  0  0  0
   -2.2100   16.9540  -34.0490 H   0  0  0  0  0  0  0  0  0  0  0  0
   -2.2183   14.5375  -33.2475 H   0  0  0  0  0  0  0  0  0  0  0  0
   -0.6376   14.4544  -34.1088 H   0  0  0  0  0  0  0  0  0  0  0  0
   -1.1185   15.4187  -31.4863 H   0  0  0  0  0  0  0  0  0  0  0  0
    0.4046   15.5545  -32.4637 H   0  0  0  0  0  0  0  0  0  0  0  0
   -1.7670   17.4840  -32.8040 H   0  0  0  0  0  0  0  0  0  0  0  0
   -0.1170   17.6410  -33.1330 H   0  0  0  0  0  0  0  0  0  0  0  0
  1  2  2  0
  2  3  1  0
  3  4  1  0
  4  5  1  0
  5  6  1  0
  6  7  1  0
  7  8  1  0
  8  9  2  0
  9 10  1  0
 10 11  1  0
 11 12  1  0
 10 13  2  0
 13 14  1  0
 14 15  2  0
 15 16  1  0
 16 17  1  0
 17 18  1  0
 18 19  1  0
 19 20  1  0
 20 21  1  0
 19 22  1  0
 22 23  1  0
 15 24  1  0
 24 25  2  0
 25 26  1  0
 26 27  2  0
 27 28  1  0
 28 29  2  0
 29 30  1  0
 30 31  2  0
  3 32  1  0
 32 33  1  0
 33 34  1  0
 34 35  1  0
 35 36  1  0
 36 37  1  0
 37 38  1  0
 38 39  1  0
 31  8  1  0
 31 14  1  0
 29 24  1  0
  1 40  1  0
  1 41  1  0
  2 42  1  0
  3 43  1  6
  4 44  1  0
  4 45  1  0
  5 46  1  0
  5 47  1  0
  6 48  1  0
  6 49  1  0
  7 50  1  0
  9 51  1  0
 12 52  1  0
 12 53  1  0
 12 54  1  0
 13 55  1  0
 17 56  1  0
 17 57  1  0
 18 58  1  0
 18 59  1  0
 20 60  1  0
 20 61  1  0
 21 62  1  0
 21 63  1  0
 21 64  1  0
 22 65  1  0
 22 66  1  0
 23 67  1  0
 23 68  1  0
 23 69  1  0
 25 70  1  0
 26 71  1  0
 27 72  1  0
 28 73  1  0
 32 74  1  0
 32 75  1  0
 33 76  1  0
 34 77  1  0
 34 78  1  0
 35 79  1  0
 35 80  1  0
 36 81  1  0
 37 82  1  0
 37 83  1  0
 38 84  1  0
 38 85  1  0
 39 86  1  0
 39 87  1  0
M  END
>  <UniqueID>  (9) 
8

>  <SMILES>  (9) 
C=C[C@@H](CCCNc1cc(OC)cc2c(OCCN(CC)CC)c3ccccc3nc12)CNCCNCCN

>  <Energy>  (9) 
82.0025888928266

>  <Genealogy>  (9) 
C=C[C@@H](CCCNc1cc(OC)cc2c(OCCN(CC)CC)c3ccccc3nc12)CNCCNCCN (chirality)
C=C[C@@H](CCCNc1cc(OC)cc2c(OCCN(CC)CC)c3ccccc3nc12)CNCCNCCN (3D coordinates assigned)
C=C[C@@H](CCCNc1cc(OC)cc2c(OCCN(CC)CC)c3ccccc3nc12)CNCCNCCN (optimized conformer: 82.0025888928266 kcal/mol)

>  <smiles>  (9) 
C=CC(CCCNc1cc(OC)cc2c(OCCN(CC)CC)c3ccccc3nc12)CNCCNCCN

>  <score_type>  (9) 
oracle

>  <origin>  (9) 
adg

>  <m_score__min__energy>  (9) 
-8.4399999999999995

>  <m_primary>  (9) 
energy

$$$$
9:0
     RDKit          3D

 35 37  0  0  0  0  0  0  0  0999 V2000
   -6.0781   25.4573  -28.9117 H   0  0  0  0  0  0  0  0  0  0  0  0
   -5.9100   24.8510  -29.8140 C   0  0  0  0  0  0  0  0  0  0  0  0
   -4.5120   24.5150  -30.1550 C   0  0  0  0  0  0  0  0  0  0  0  0
   -3.8560   25.3420  -30.8440 O   0  0  0  0  0  0  0  0  0  0  0  0
   -3.8420   23.2810  -29.6740 C   0  0  0  0  0  0  0  0  0  0  0  0
   -3.9060   22.9300  -28.3130 C   0  0  0  0  0  0  0  0  0  0  0  0
   -4.4674   23.5641  -27.6111 H   0  0  0  0  0  0  0  0  0  0  0  0
   -3.2610   21.7810  -27.8470 C   0  0  0  0  0  0  0  0  0  0  0  0
   -3.3105   21.5183  -26.7800 H   0  0  0  0  0  0  0  0  0  0  0  0
   -2.5540   20.9660  -28.7330 C   0  0  0  0  0  0  0  0  0  0  0  0
   -2.0428   20.0650  -28.3631 H   0  0  0  0  0  0  0  0  0  0  0  0
   -2.4960   21.2950  -30.0890 C   0  0  0  0  0  0  0  0  0  0  0  0
   -1.9419   20.6501  -30.7869 H   0  0  0  0  0  0  0  0  0  0  0  0
   -3.1400   22.4410  -30.5610 C   0  0  0  0  0  0  0  0  0  0  0  0
   -3.0989   22.6893  -31.6318 H   0  0  0  0  0  0  0  0  0  0  0  0
   -6.9910   24.4770  -30.5150 C   0  0  0  0  0  0  0  0  0  0  0  0
   -7.7417   25.2494  -30.7383 H   0  0  0  0  0  0  0  0  0  0  0  0
   -7.2530   23.1130  -31.0100 C   0  0  0  0  0  0  0  0  0  0  0  0
   -6.1990   22.2480  -31.9890 S   0  0  0  0  0  0  0  0  0  0  0  0
   -7.1200   20.8360  -32.0670 C   0  0  0  0  0  0  0  0  0  0  0  0
   -6.7570   19.6090  -32.8210 C   0  0  0  0  0  0  0  0  0  0  0  0
   -7.2610   18.3580  -32.4190 C   0  0  0  0  0  0  0  0  0  0  0  0
   -7.9250   18.2844  -31.5451 H   0  0  0  0  0  0  0  0  0  0  0  0
   -6.9140   17.2110  -33.1350 C   0  0  0  0  0  0  0  0  0  0  0  0
   -7.3068   16.2304  -32.8283 H   0  0  0  0  0  0  0  0  0  0  0  0
   -6.0700   17.3100  -34.2380 C   0  0  0  0  0  0  0  0  0  0  0  0
   -5.7927   16.4112  -34.8083 H   0  0  0  0  0  0  0  0  0  0  0  0
   -5.5800   18.5610  -34.6120 C   0  0  0  0  0  0  0  0  0  0  0  0
   -4.9113   18.6499  -35.4808 H   0  0  0  0  0  0  0  0  0  0  0  0
   -5.9260   19.6730  -33.9060 N   0  0  0  0  0  0  0  0  0  0  0  0
   -5.5200   20.5840  -34.2140 H   0  0  0  0  0  0  0  0  0  0  0  0
   -8.2650   21.0290  -31.2930 C   0  0  0  0  0  0  0  0  0  0  0  0
   -9.0420   20.2609  -31.1652 H   0  0  0  0  0  0  0  0  0  0  0  0
   -8.3310   22.2940  -30.6940 C   0  0  0  0  0  0  0  0  0  0  0  0
   -9.1557   22.6085  -30.0375 H   0  0  0  0  0  0  0  0  0  0  0  0
  1  2  1  0
  2  3  1  0
  3  4  2  0
  3  5  1  0
  5  6  2  0
  6  7  1  0
  6  8  1  0
  8  9  1  0
  8 10  2  0
 10 11  1  0
 10 12  1  0
 12 13  1  0
 12 14  2  0
 14 15  1  0
  2 16  2  0
 16 17  1  0
 16 18  1  0
 18 19  1  0
 19 20  1  0
 20 21  1  0
 21 22  2  0
 22 23  1  0
 22 24  1  0
 24 25  1  0
 24 26  2  0
 26 27  1  0
 26 28  1  0
 28 29  1  0
 28 30  2  0
 30 31  1  0
 20 32  2  0
 32 33  1  0
 32 34  1  0
 34 35  1  0
 14  5  1  0
 34 18  2  0
 30 21  1  0
M  CHG  1  30   1
M  END
>  <UniqueID>  (10) 
9

>  <SMILES>  (10) 
O=C(/C=C\c1ccc(-c2cccc[nH+]2)s1)c1ccccc1

>  <Energy>  (10) 
74.9627758230643

>  <Genealogy>  (10) 
O=C(C=Cc1ccc(-c2cccc[nH+]2)s1)c1ccccc1 (protonated)
O=C(/C=C\c1ccc(-c2cccc[nH+]2)s1)c1ccccc1 (cis-trans isomerization)
O=C(/C=C\c1ccc(-c2cccc[nH+]2)s1)c1ccccc1 (3D coordinates assigned)
O=C(/C=C\c1ccc(-c2cccc[nH+]2)s1)c1ccccc1 (optimized conformer: 74.9627758230643 kcal/mol)

>  <smiles>  (10) 
O=C(C=Cc1ccc(-c2ccccn2)s1)c1ccccc1

>  <score_type>  (10) 
oracle

>  <origin>  (10) 
adg

>  <m_score__min__energy>  (10) 
-8.3300000000000001

>  <m_primary>  (10) 
energy

$$$$
10:0
     RDKit          3D

 41 43  0  0  0  0  0  0  0  0999 V2000
   -4.3350   21.7800  -32.6830 C   0  0  0  0  0  0  0  0  0  0  0  0
   -5.1690   21.4090  -31.4620 C   0  0  0  0  0  0  0  0  0  0  0  0
   -6.5980   21.4230  -31.7900 N   0  0  0  0  0  0  0  0  0  0  0  0
   -7.5390   22.2390  -31.2690 C   0  0  0  0  0  0  0  0  0  0  0  0
   -7.2120   23.6340  -30.1850 S   0  0  0  0  0  0  0  0  0  0  0  0
   -6.0470   24.4440  -31.3350 C   0  0  0  0  0  0  0  0  0  0  0  0
   -5.1960   25.4470  -30.6090 C   0  0  0  0  0  0  0  0  0  0  0  0
   -5.7490   26.4430  -30.0730 O   0  0  0  0  0  0  0  0  0  0  0  0
   -3.7790   25.2850  -30.4690 N   0  0  0  0  0  0  0  0  0  0  0  0
   -3.1190   24.1820  -29.7700 C   0  0  0  0  0  0  0  0  0  0  0  0
   -4.1220   23.4780  -28.8680 C   0  0  0  0  0  0  0  0  0  0  0  0
   -4.0310   24.1880  -27.5300 C   0  0  0  0  0  0  0  0  0  0  0  0
   -2.5880   24.6530  -27.4130 C   0  0  0  0  0  0  0  0  0  0  0  0
   -2.0280   24.7120  -28.8340 C   0  0  0  0  0  0  0  0  0  0  0  0
   -8.7810   21.8530  -31.6120 N   0  0  0  0  0  0  0  0  0  0  0  0
   -8.6530   20.7650  -32.3560 N   0  0  0  0  0  0  0  0  0  0  0  0
   -7.3350   20.5090  -32.4650 C   0  0  0  0  0  0  0  0  0  0  0  0
   -6.8280   19.3160  -33.1650 C   0  0  0  0  0  0  0  0  0  0  0  0
   -7.0440   17.9920  -32.8320 C   0  0  0  0  0  0  0  0  0  0  0  0
   -6.3400   17.2550  -33.7610 C   0  0  0  0  0  0  0  0  0  0  0  0
   -5.7320   18.1690  -34.5950 C   0  0  0  0  0  0  0  0  0  0  0  0
   -6.0370   19.3870  -34.2110 O   0  0  0  0  0  0  0  0  0  0  0  0
   -3.3755   22.2068  -32.3557 H   0  0  0  0  0  0  0  0  0  0  0  0
   -4.1488   20.8798  -33.2872 H   0  0  0  0  0  0  0  0  0  0  0  0
   -4.8789   22.5210  -33.2872 H   0  0  0  0  0  0  0  0  0  0  0  0
   -4.8857   20.4016  -31.1231 H   0  0  0  0  0  0  0  0  0  0  0  0
   -4.9803   22.1449  -30.6665 H   0  0  0  0  0  0  0  0  0  0  0  0
   -5.3979   23.6806  -31.7887 H   0  0  0  0  0  0  0  0  0  0  0  0
   -6.6232   24.9660  -32.1131 H   0  0  0  0  0  0  0  0  0  0  0  0
   -2.6998   23.5112  -30.5344 H   0  0  0  0  0  0  0  0  0  0  0  0
   -5.1378   23.5648  -29.2811 H   0  0  0  0  0  0  0  0  0  0  0  0
   -3.9046   22.4036  -28.7758 H   0  0  0  0  0  0  0  0  0  0  0  0
   -4.7154   25.0488  -27.5044 H   0  0  0  0  0  0  0  0  0  0  0  0
   -4.3152   23.5273  -26.6977 H   0  0  0  0  0  0  0  0  0  0  0  0
   -2.5474   25.6491  -26.9480 H   0  0  0  0  0  0  0  0  0  0  0  0
   -2.0012   23.9665  -26.7850 H   0  0  0  0  0  0  0  0  0  0  0  0
   -1.7760   25.7498  -29.0976 H   0  0  0  0  0  0  0  0  0  0  0  0
   -1.1119   24.1092  -28.9193 H   0  0  0  0  0  0  0  0  0  0  0  0
   -7.6509   17.6065  -31.9995 H   0  0  0  0  0  0  0  0  0  0  0  0
   -6.2764   16.1586  -33.8239 H   0  0  0  0  0  0  0  0  0  0  0  0
   -5.0895   17.9164  -35.4514 H   0  0  0  0  0  0  0  0  0  0  0  0
  1  2  1  0
  2  3  1  0
  3  4  1  0
  4  5  1  0
  5  6  1  0
  6  7  1  0
  7  8  2  0
  7  9  1  0
  9 10  1  0
 10 11  1  0
 11 12  1  0
 12 13  1  0
 13 14  1  0
  4 15  2  0
 15 16  1  0
 16 17  2  0
 17 18  1  0
 18 19  2  0
 19 20  1  0
 20 21  2  0
 21 22  1  0
 17  3  1  0
 22 18  1  0
 14 10  1  0
  1 23  1  0
  1 24  1  0
  1 25  1  0
  2 26  1  0
  2 27  1  0
  6 28  1  0
  6 29  1  0
 10 30  1  0
 11 31  1  0
 11 32  1  0
 12 33  1  0
 12 34  1  0
 13 35  1  0
 13 36  1  0
 14 37  1  0
 14 38  1  0
 19 39  1  0
 20 40  1  0
 21 41  1  0
M  CHG  1   9  -1
M  END
>  <UniqueID>  (11) 
10

>  <SMILES>  (11) 
CCn1c(SCC(=O)[N-]C2CCCC2)nnc1-c1ccco1

>  <Energy>  (11) 
97.2732542274304

>  <Genealogy>  (11) 
CCn1c(SCC(=O)[N-]C2CCCC2)nnc1-c1ccco1 (protonated)
CCn1c(SCC(=O)[N-]C2CCCC2)nnc1-c1ccco1 (3D coordinates assigned)
CCn1c(SCC(=O)[N-]C2CCCC2)nnc1-c1ccco1 (nonaromatic ring conformer: 97.2732542274304 kcal/mol)

>  <smiles>  (11) 
CCn1c(SCC(=O)NC2CCCC2)nnc1-c1ccco1

>  <score_type>  (11) 
oracle

>  <origin>  (11) 
adg

>  <m_score__min__energy>  (11) 
-9.6199999999999992

>  <m_primary>  (11) 
energy

$$$$
11:0
     RDKit          3D

 40 41  0  0  0  0  0  0  0  0999 V2000
   -6.1950   24.8880  -29.8470 C   0  0  0  0  0  0  0  0  0  0  0  0
   -5.0810   25.2310  -30.8310 C   0  0  0  0  0  0  0  0  0  0  0  0
   -3.9360   24.3090  -30.6570 N   0  0  0  0  0  0  0  0  0  0  0  0
   -3.2560   24.5340  -29.3610 C   0  0  0  0  0  0  0  0  0  0  0  0
   -1.9260   23.7850  -29.3240 C   0  0  0  0  0  0  0  0  0  0  0  0
   -4.3360   22.8900  -30.8340 C   0  0  0  0  0  0  0  0  0  0  0  0
   -3.6230   22.2980  -32.0510 C   0  0  0  0  0  0  0  0  0  0  0  0
   -4.5800   21.9350  -33.0980 N   0  0  0  0  0  0  0  0  0  0  0  0
   -5.5530   20.8830  -32.9420 C   0  0  0  0  0  0  0  0  0  0  0  0
   -5.2000   19.5520  -33.2370 C   0  0  0  0  0  0  0  0  0  0  0  0
   -6.1310   18.5210  -33.1160 C   0  0  0  0  0  0  0  0  0  0  0  0
   -7.4340   18.7950  -32.7030 C   0  0  0  0  0  0  0  0  0  0  0  0
   -7.8180   20.1080  -32.4090 C   0  0  0  0  0  0  0  0  0  0  0  0
   -9.1270   20.3810  -31.9920 C   0  0  0  0  0  0  0  0  0  0  0  0
   -9.4920   21.6910  -31.6910 C   0  0  0  0  0  0  0  0  0  0  0  0
   -8.5870   22.6980  -31.8000 N   0  0  0  0  0  0  0  0  0  0  0  0
   -7.3070   22.4700  -32.2030 C   0  0  0  0  0  0  0  0  0  0  0  0
   -6.8810   21.1670  -32.5270 C   0  0  0  0  0  0  0  0  0  0  0  0
   -5.8234   25.0024  -28.8180 H   0  0  0  0  0  0  0  0  0  0  0  0
   -7.0468   25.5655  -30.0067 H   0  0  0  0  0  0  0  0  0  0  0  0
   -6.5182   23.8487  -30.0067 H   0  0  0  0  0  0  0  0  0  0  0  0
   -5.4648   25.1423  -31.8581 H   0  0  0  0  0  0  0  0  0  0  0  0
   -4.7421   26.2602  -30.6413 H   0  0  0  0  0  0  0  0  0  0  0  0
   -3.0702   25.6103  -29.2306 H   0  0  0  0  0  0  0  0  0  0  0  0
   -3.8991   24.1619  -28.5499 H   0  0  0  0  0  0  0  0  0  0  0  0
   -1.6285   23.6175  -28.2783 H   0  0  0  0  0  0  0  0  0  0  0  0
   -2.0364   22.8164  -29.8335 H   0  0  0  0  0  0  0  0  0  0  0  0
   -1.1549   24.3815  -29.8335 H   0  0  0  0  0  0  0  0  0  0  0  0
   -4.0605   22.3182  -29.9356 H   0  0  0  0  0  0  0  0  0  0  0  0
   -5.4237   22.8361  -30.9888 H   0  0  0  0  0  0  0  0  0  0  0  0
   -2.9178   23.0415  -32.4510 H   0  0  0  0  0  0  0  0  0  0  0  0
   -3.0893   21.3894  -31.7353 H   0  0  0  0  0  0  0  0  0  0  0  0
   -4.4220   22.3300  -34.0520 H   0  0  0  0  0  0  0  0  0  0  0  0
   -4.1761   19.3226  -33.5673 H   0  0  0  0  0  0  0  0  0  0  0  0
   -5.8360   17.4869  -33.3475 H   0  0  0  0  0  0  0  0  0  0  0  0
   -8.1626   17.9764  -32.6079 H   0  0  0  0  0  0  0  0  0  0  0  0
   -9.8613   19.5668  -31.9029 H   0  0  0  0  0  0  0  0  0  0  0  0
  -10.5187   21.9113  -31.3632 H   0  0  0  0  0  0  0  0  0  0  0  0
   -8.8800   23.6720  -31.5630 H   0  0  0  0  0  0  0  0  0  0  0  0
   -6.6000   23.3095  -32.2762 H   0  0  0  0  0  0  0  0  0  0  0  0
  1  2  1  0
  2  3  1  0
  3  4  1  0
  4  5  1  0
  3  6  1  0
  6  7  1  0
  7  8  1  0
  8  9  1  0
  9 10  2  0
 10 11  1  0
 11 12  2  0
 12 13  1  0
 13 14  2  0
 14 15  1  0
 15 16  2  0
 16 17  1  0
 17 18  2  0
 18  9  1  0
 18 13  1  0
  1 19  1  0
  1 20  1  0
  1 21  1  0
  2 22  1  0
  2 23  1  0
  4 24  1  0
  4 25  1  0
  5 26  1  0
  5 27  1  0
  5 28  1  0
  6 29  1  0
  6 30  1  0
  7 31  1  0
  7 32  1  0
  8 33  1  0
 10 34  1  0
 11 35  1  0
 12 36  1  0
 14 37  1  0
 15 38  1  0
 16 39  1  0
 17 40  1  0
M  CHG  1  16   1
M  END
>  <UniqueID>  (12) 
11

>  <SMILES>  (12) 
CCN(CC)CCNc1cccc2cc[nH+]cc12

>  <Energy>  (12) 
43.82818460500596

>  <Genealogy>  (12) 
CCN(CC)CCNc1cccc2cc[nH+]cc12 (protonated)
CCN(CC)CCNc1cccc2cc[nH+]cc12 (3D coordinates assigned)
CCN(CC)CCNc1cccc2cc[nH+]cc12 (optimized conformer: 43.82818460500596 kcal/mol)

>  <smiles>  (12) 
CCN(CC)CCNc1cccc2ccncc12

>  <score_type>  (12) 
oracle

>  <origin>  (12) 
adg

>  <m_score__min__energy>  (12) 
-6.6699999999999999

>  <m_primary>  (12) 
energy

$$$$
12:0
     RDKit          3D

 61 64  0  0  0  0  0  0  0  0999 V2000
   -0.3320   21.1820  -33.0350 C   0  0  0  0  0  0  0  0  0  0  0  0
   -1.6450   21.0010  -32.3950 N   0  0  0  0  0  0  0  0  0  0  0  0
   -2.7310   21.0460  -33.3870 C   0  0  0  0  0  0  0  0  0  0  0  0
   -1.7050   19.8040  -31.5290 C   0  0  0  0  0  0  0  0  0  0  0  0
   -1.2550   20.0460  -30.0750 C   0  0  0  0  0  0  0  0  0  0  0  0
   -0.3620   21.1580  -30.0130 O   0  0  0  0  0  0  0  0  0  0  0  0
   -0.4720   22.2550  -29.1390 C   0  0  0  0  0  0  0  0  0  0  0  0
    0.5470   22.5880  -28.2260 C   0  0  0  0  0  0  0  0  0  0  0  0
    0.4310   23.7180  -27.4150 C   0  0  0  0  0  0  0  0  0  0  0  0
   -0.6990   24.5460  -27.5000 C   0  0  0  0  0  0  0  0  0  0  0  0
   -0.8150   25.7570  -26.6470 C   0  0  0  0  0  0  0  0  0  0  0  0
   -0.4900   27.0270  -27.1600 C   0  0  0  0  0  0  0  0  0  0  0  0
   -0.6020   28.1650  -26.3550 C   0  0  0  0  0  0  0  0  0  0  0  0
   -1.0390   28.0490  -25.0340 C   0  0  0  0  0  0  0  0  0  0  0  0
   -1.3650   26.7950  -24.5140 C   0  0  0  0  0  0  0  0  0  0  0  0
   -1.2540   25.6540  -25.3140 C   0  0  0  0  0  0  0  0  0  0  0  0
   -1.7200   24.2100  -28.4050 C   0  0  0  0  0  0  0  0  0  0  0  0
   -1.6260   23.0620  -29.2050 C   0  0  0  0  0  0  0  0  0  0  0  0
   -2.6980   22.7550  -30.1110 N   0  0  0  0  0  0  0  0  0  0  0  0
   -3.7060   23.7100  -30.4800 C   0  0  0  0  0  0  0  0  0  0  0  0
   -3.4900   24.9420  -30.3100 O   0  0  0  0  0  0  0  0  0  0  0  0
   -4.9840   23.2690  -31.0910 C   0  0  0  0  0  0  0  0  0  0  0  0
   -6.0560   24.1700  -31.2120 C   0  0  0  0  0  0  0  0  0  0  0  0
   -7.2620   23.7610  -31.7830 C   0  0  0  0  0  0  0  0  0  0  0  0
   -7.4170   22.4500  -32.2360 C   0  0  0  0  0  0  0  0  0  0  0  0
   -6.3650   21.5260  -32.1130 C   0  0  0  0  0  0  0  0  0  0  0  0
   -6.5340   20.1260  -32.5790 C   0  0  0  0  0  0  0  0  0  0  0  0
   -5.7880   19.6380  -33.6680 C   0  0  0  0  0  0  0  0  0  0  0  0
   -5.9510   18.3200  -34.1050 C   0  0  0  0  0  0  0  0  0  0  0  0
   -6.8600   17.4760  -33.4630 C   0  0  0  0  0  0  0  0  0  0  0  0
   -7.6060   17.9480  -32.3810 C   0  0  0  0  0  0  0  0  0  0  0  0
   -7.4460   19.2640  -31.9390 C   0  0  0  0  0  0  0  0  0  0  0  0
   -5.1510   21.9460  -31.5380 C   0  0  0  0  0  0  0  0  0  0  0  0
    0.4418   21.2887  -32.2605 H   0  0  0  0  0  0  0  0  0  0  0  0
   -0.1056   20.3066  -33.6614 H   0  0  0  0  0  0  0  0  0  0  0  0
   -0.3509   22.0860  -33.6614 H   0  0  0  0  0  0  0  0  0  0  0  0
   -3.7001   21.0862  -32.8682 H   0  0  0  0  0  0  0  0  0  0  0  0
   -2.6152   21.9401  -34.0172 H   0  0  0  0  0  0  0  0  0  0  0  0
   -2.6895   20.1454  -34.0172 H   0  0  0  0  0  0  0  0  0  0  0  0
   -2.7442   19.4436  -31.5119 H   0  0  0  0  0  0  0  0  0  0  0  0
   -1.0039   19.0721  -31.9566 H   0  0  0  0  0  0  0  0  0  0  0  0
   -2.1372   20.2535  -29.4515 H   0  0  0  0  0  0  0  0  0  0  0  0
   -0.7365   19.1488  -29.7061 H   0  0  0  0  0  0  0  0  0  0  0  0
    1.4417   21.9524  -28.1513 H   0  0  0  0  0  0  0  0  0  0  0  0
    1.2328   23.9619  -26.7025 H   0  0  0  0  0  0  0  0  0  0  0  0
   -0.1459   27.1248  -28.2002 H   0  0  0  0  0  0  0  0  0  0  0  0
   -0.3453   29.1536  -26.7634 H   0  0  0  0  0  0  0  0  0  0  0  0
   -1.1264   28.9457  -24.4029 H   0  0  0  0  0  0  0  0  0  0  0  0
   -1.7097   26.7047  -23.4733 H   0  0  0  0  0  0  0  0  0  0  0  0
   -1.5117   24.6686  -24.8985 H   0  0  0  0  0  0  0  0  0  0  0  0
   -2.6059   24.8568  -28.4872 H   0  0  0  0  0  0  0  0  0  0  0  0
   -2.6400   21.8640  -30.6530 H   0  0  0  0  0  0  0  0  0  0  0  0
   -5.9437   25.2041  -30.8543 H   0  0  0  0  0  0  0  0  0  0  0  0
   -8.0937   24.4748  -31.8764 H   0  0  0  0  0  0  0  0  0  0  0  0
   -8.3682   22.1380  -32.6920 H   0  0  0  0  0  0  0  0  0  0  0  0
   -5.0717   20.2982  -34.1789 H   0  0  0  0  0  0  0  0  0  0  0  0
   -5.3622   17.9470  -34.9560 H   0  0  0  0  0  0  0  0  0  0  0  0
   -6.9882   16.4399  -33.8096 H   0  0  0  0  0  0  0  0  0  0  0  0
   -8.3212   17.2824  -31.8755 H   0  0  0  0  0  0  0  0  0  0  0  0
   -8.0362   19.6292  -31.0856 H   0  0  0  0  0  0  0  0  0  0  0  0
   -4.3219   21.2301  -31.4369 H   0  0  0  0  0  0  0  0  0  0  0  0
  1  2  1  0
  2  3  1  0
  2  4  1  0
  4  5  1  0
  5  6  1  0
  6  7  1  0
  7  8  2  0
  8  9  1  0
  9 10  2  0
 10 11  1  0
 11 12  2  0
 12 13  1  0
 13 14  2  0
 14 15  1  0
 15 16  2  0
 10 17  1  0
 17 18  2  0
 18 19  1  0
 19 20  1  0
 20 21  2  0
 20 22  1  0
 22 23  2  0
 23 24  1  0
 24 25  2  0
 25 26  1  0
 26 27  1  0
 27 28  2  0
 28 29  1  0
 29 30  2  0
 30 31  1  0
 31 32  2  0
 26 33  2  0
 18  7  1  0
 33 22  1  0
 16 11  1  0
 32 27  1  0
  1 34  1  0
  1 35  1  0
  1 36  1  0
  3 37  1  0
  3 38  1  0
  3 39  1  0
  4 40  1  0
  4 41  1  0
  5 42  1  0
  5 43  1  0
  8 44  1  0
  9 45  1  0
 12 46  1  0
 13 47  1  0
 14 48  1  0
 15 49  1  0
 16 50  1  0
 17 51  1  0
 19 52  1  0
 23 53  1  0
 24 54  1  0
 25 55  1  0
 28 56  1  0
 29 57  1  0
 30 58  1  0
 31 59  1  0
 32 60  1  0
 33 61  1  0
M  END
>  <UniqueID>  (13) 
12

>  <SMILES>  (13) 
CN(C)CCOc1ccc(-c2ccccc2)cc1NC(=O)c1cccc(-c2ccccc2)c1

>  <Energy>  (13) 
84.21861001246849

>  <Genealogy>  (13) 
CN(C)CCOc1ccc(-c2ccccc2)cc1NC(=O)c1cccc(-c2ccccc2)c1 (3D coordinates assigned)
CN(C)CCOc1ccc(-c2ccccc2)cc1NC(=O)c1cccc(-c2ccccc2)c1 (optimized conformer: 84.21861001246849 kcal/mol)

>  <smiles>  (13) 
CN(C)CCOc1ccc(-c2ccccc2)cc1NC(=O)c1cccc(-c2ccccc2)c1

>  <score_type>  (13) 
oracle

>  <origin>  (13) 
adg

>  <m_score__min__energy>  (13) 
-10.220000000000001

>  <m_primary>  (13) 
energy

$$$$
13:0
     RDKit          3D

 40 41  0  0  0  0  0  0  0  0999 V2000
   -6.0560   17.3310  -33.7110 C   0  0  0  0  0  0  0  0  0  0  0  0
   -6.7050   18.0200  -32.5050 C   0  0  0  0  0  0  0  0  0  0  0  0
   -7.7600   18.9880  -32.9090 N   0  0  0  0  0  0  0  0  0  0  0  0
   -8.4050   19.5860  -31.7080 C   0  0  0  0  0  0  0  0  0  0  0  0
   -9.4870   20.6080  -32.0780 C   0  0  0  0  0  0  0  0  0  0  0  0
   -7.1780   20.0580  -33.7620 C   0  0  0  0  0  0  0  0  0  0  0  0
   -6.2110   20.9330  -32.9940 C   0  0  0  0  0  0  0  0  0  0  0  0
   -4.8540   20.5870  -32.9300 C   0  0  0  0  0  0  0  0  0  0  0  0
   -3.9370   21.3790  -32.2120 C   0  0  0  0  0  0  0  0  0  0  0  0
   -2.5750   21.0410  -32.1360 O   0  0  0  0  0  0  0  0  0  0  0  0
   -1.6870   20.9980  -33.2490 C   0  0  0  0  0  0  0  0  0  0  0  0
   -4.3960   22.5390  -31.5540 C   0  0  0  0  0  0  0  0  0  0  0  0
   -3.5130   23.3580  -30.8240 C   0  0  0  0  0  0  0  0  0  0  0  0
   -3.9830   24.5040  -30.1770 C   0  0  0  0  0  0  0  0  0  0  0  0
   -3.1230   25.2850  -29.4760 F   0  0  0  0  0  0  0  0  0  0  0  0
   -5.3340   24.8460  -30.2470 C   0  0  0  0  0  0  0  0  0  0  0  0
   -6.2240   24.0460  -30.9660 C   0  0  0  0  0  0  0  0  0  0  0  0
   -5.7670   22.8920  -31.6220 C   0  0  0  0  0  0  0  0  0  0  0  0
   -6.6610   22.0890  -32.3420 C   0  0  0  0  0  0  0  0  0  0  0  0
   -5.3414   16.5724  -33.3591 H   0  0  0  0  0  0  0  0  0  0  0  0
   -6.8342   16.8473  -34.3196 H   0  0  0  0  0  0  0  0  0  0  0  0
   -5.5267   18.0790  -34.3196 H   0  0  0  0  0  0  0  0  0  0  0  0
   -7.1573   17.2523  -31.8600 H   0  0  0  0  0  0  0  0  0  0  0  0
   -5.9205   18.5790  -31.9739 H   0  0  0  0  0  0  0  0  0  0  0  0
   -8.4880   18.4760  -33.4630 H   0  0  0  0  0  0  0  0  0  0  0  0
   -8.8657   18.7814  -31.1161 H   0  0  0  0  0  0  0  0  0  0  0  0
   -7.6273   20.1113  -31.1342 H   0  0  0  0  0  0  0  0  0  0  0  0
   -9.9276   21.0241  -31.1600 H   0  0  0  0  0  0  0  0  0  0  0  0
   -9.0380   21.4194  -32.6697 H   0  0  0  0  0  0  0  0  0  0  0  0
  -10.2715   20.1135  -32.6697 H   0  0  0  0  0  0  0  0  0  0  0  0
   -6.6435   19.5908  -34.6023 H   0  0  0  0  0  0  0  0  0  0  0  0
   -8.0018   20.6939  -34.1183 H   0  0  0  0  0  0  0  0  0  0  0  0
   -4.5002   19.6835  -33.4482 H   0  0  0  0  0  0  0  0  0  0  0  0
   -0.6491   20.9477  -32.8882 H   0  0  0  0  0  0  0  0  0  0  0  0
   -1.9065   20.1094  -33.8591 H   0  0  0  0  0  0  0  0  0  0  0  0
   -1.8197   21.9036  -33.8591 H   0  0  0  0  0  0  0  0  0  0  0  0
   -2.4469   23.0940  -30.7627 H   0  0  0  0  0  0  0  0  0  0  0  0
   -5.6987   25.7483  -29.7343 H   0  0  0  0  0  0  0  0  0  0  0  0
   -7.2878   24.3210  -31.0187 H   0  0  0  0  0  0  0  0  0  0  0  0
   -7.7237   22.3678  -32.3960 H   0  0  0  0  0  0  0  0  0  0  0  0
  1  2  1  0
  2  3  1  0
  3  4  1  0
  4  5  1  0
  3  6  1  0
  6  7  1  0
  7  8  2  0
  8  9  1  0
  9 10  1  0
 10 11  1  0
  9 12  2  0
 12 13  1  0
 13 14  2  0
 14 15  1  0
 14 16  1  0
 16 17  2  0
 17 18  1  0
 18 19  2  0
 19  7  1  0
 18 12  1  0
  1 20  1  0
  1 21  1  0
  1 22  1  0
  2 23  1  0
  2 24  1  0
  3 25  1  0
  4 26  1  0
  4 27  1  0
  5 28  1  0
  5 29  1  0
  5 30  1  0
  6 31  1  0
  6 32  1  0
  8 33  1  0
 11 34  1  0
 11 35  1  0
 11 36  1  0
 13 37  1  0
 16 38  1  0
 17 39  1  0
 19 40  1  0
M  CHG  1   3   1
M  END
>  <UniqueID>  (14) 
13

>  <SMILES>  (14) 
CC[NH+](CC)Cc1cc(OC)c2cc(F)ccc2c1

>  <Energy>  (14) 
44.28040557145544

>  <Genealogy>  (14) 
CC[NH+](CC)Cc1cc(OC)c2cc(F)ccc2c1 (protonated)
CC[NH+](CC)Cc1cc(OC)c2cc(F)ccc2c1 (3D coordinates assigned)
CC[NH+](CC)Cc1cc(OC)c2cc(F)ccc2c1 (optimized conformer: 44.28040557145544 kcal/mol)

>  <smiles>  (14) 
CCN(CC)Cc1cc(OC)c2cc(F)ccc2c1

>  <score_type>  (14) 
oracle

>  <origin>  (14) 
adg

>  <m_score__min__energy>  (14) 
-6.0099999999999998

>  <m_primary>  (14) 
energy

$$$$
14:0
     RDKit          3D

 45 48  0  0  1  0  0  0  0  0999 V2000
   -5.9600   14.8970  -34.1330 C   0  0  0  0  0  0  0  0  0  0  0  0
   -6.8320   15.9920  -34.2100 O   0  0  0  0  0  0  0  0  0  0  0  0
   -6.6730   17.2180  -33.6220 C   0  0  0  0  0  0  0  0  0  0  0  0
   -7.6150   17.6240  -32.6950 C   0  0  0  0  0  0  0  0  0  0  0  0
   -7.5120   18.8540  -32.0640 C   0  0  0  0  0  0  0  0  0  0  0  0
   -6.4450   19.6870  -32.3720 C   0  0  0  0  0  0  0  0  0  0  0  0
   -6.3780   20.9070  -31.7210 C   0  0  0  0  0  0  0  0  0  0  0  0
   -5.3330   21.7600  -32.0000 C   0  0  0  0  0  0  0  0  0  0  0  0
   -5.1650   23.0640  -31.3750 C   0  0  0  0  0  0  0  0  0  0  0  0
   -6.0810   24.0850  -31.5200 C   0  0  0  0  0  0  0  0  0  0  0  0
   -5.9040   25.3220  -30.9170 C   0  0  0  0  0  0  0  0  0  0  0  0
   -4.8090   25.5430  -30.1640 N   0  0  0  0  0  0  0  0  0  0  0  0
   -3.9280   24.5360  -30.0340 C   0  0  0  0  0  0  0  0  0  0  0  0
   -2.8900   24.7540  -29.3170 N   0  0  0  0  0  0  0  0  0  0  0  0
   -2.6840   24.2000  -27.9920 C   0  0  0  0  0  0  0  0  0  0  0  0
   -1.6930   23.0460  -28.1870 C   0  0  0  0  0  0  0  0  0  0  0  0
   -0.6060   23.6260  -29.0990 C   0  0  0  0  0  0  0  0  0  0  0  0
   -0.0150   24.7270  -28.5280 O   0  0  0  0  0  0  0  0  0  0  0  0
   -0.8660   25.7730  -28.2470 C   0  0  0  0  0  0  0  0  0  0  0  0
   -1.8900   25.2580  -27.2280 C   0  0  0  0  0  0  0  0  0  0  0  0
   -4.0840   23.3310  -30.6120 N   0  0  0  0  0  0  0  0  0  0  0  0
   -4.4030   21.3380  -32.9260 C   0  0  0  0  0  0  0  0  0  0  0  0
   -4.4960   20.1450  -33.5430 N   0  0  0  0  0  0  0  0  0  0  0  0
   -5.5030   19.2900  -33.2930 C   0  0  0  0  0  0  0  0  0  0  0  0
   -5.6070   18.0540  -33.9260 C   0  0  0  0  0  0  0  0  0  0  0  0
   -5.7674   14.6552  -33.0773 H   0  0  0  0  0  0  0  0  0  0  0  0
   -6.4168   14.0288  -34.6306 H   0  0  0  0  0  0  0  0  0  0  0  0
   -5.0116   15.1478  -34.6306 H   0  0  0  0  0  0  0  0  0  0  0  0
   -8.4591   16.9609  -32.4545 H   0  0  0  0  0  0  0  0  0  0  0  0
   -8.2671   19.1664  -31.3276 H   0  0  0  0  0  0  0  0  0  0  0  0
   -7.1494   21.1915  -30.9903 H   0  0  0  0  0  0  0  0  0  0  0  0
   -6.9787   23.9134  -32.1320 H   0  0  0  0  0  0  0  0  0  0  0  0
   -6.6524   26.1166  -31.0528 H   0  0  0  0  0  0  0  0  0  0  0  0
   -4.6840   26.4680  -29.7180 H   0  0  0  0  0  0  0  0  0  0  0  0
   -3.6213   23.9053  -27.4975 H   0  0  0  0  0  0  0  0  0  0  0  0
   -1.2658   22.7328  -27.2229 H   0  0  0  0  0  0  0  0  0  0  0  0
   -2.1692   22.1531  -28.6182 H   0  0  0  0  0  0  0  0  0  0  0  0
    0.1614   22.8580  -29.2762 H   0  0  0  0  0  0  0  0  0  0  0  0
   -1.0729   23.9329  -30.0465 H   0  0  0  0  0  0  0  0  0  0  0  0
   -0.3011   26.6156  -27.8217 H   0  0  0  0  0  0  0  0  0  0  0  0
   -1.3660   26.1279  -29.1603 H   0  0  0  0  0  0  0  0  0  0  0  0
   -1.3843   24.8130  -26.3583 H   0  0  0  0  0  0  0  0  0  0  0  0
   -2.5306   26.0606  -26.8337 H   0  0  0  0  0  0  0  0  0  0  0  0
   -3.5570   21.9978  -33.1688 H   0  0  0  0  0  0  0  0  0  0  0  0
   -4.8504   17.7424  -34.6612 H   0  0  0  0  0  0  0  0  0  0  0  0
  1  2  1  0
  2  3  1  0
  3  4  2  0
  4  5  1  0
  5  6  2  0
  6  7  1  0
  7  8  2  0
  8  9  1  0
  9 10  1  0
 10 11  2  0
 11 12  1  0
 12 13  1  0
 13 14  2  0
 14 15  1  0
 15 16  1  0
 16 17  1  0
 17 18  1  0
 18 19  1  0
 19 20  1  0
 13 21  1  0
  8 22  1  0
 22 23  2  0
 23 24  1  0
 24 25  2  0
 25  3  1  0
 24  6  1  0
 21  9  2  0
 20 15  1  0
  1 26  1  0
  1 27  1  0
  1 28  1  0
  4 29  1  0
  5 30  1  0
  7 31  1  0
 10 32  1  0
 11 33  1  0
 12 34  1  0
 15 35  1  0
 16 36  1  0
 16 37  1  0
 17 38  1  0
 17 39  1  0
 19 40  1  0
 19 41  1  0
 20 42  1  0
 20 43  1  0
 22 44  1  0
 25 45  1  0
M  END
>  <smiles>  (15) 
COc1ccc2cc(-c3cc[nH]c(=NC4CCOCC4)n3)cnc2c1

>  <score_type>  (15) 
oracle

>  <origin>  (15) 
adg

>  <m_score__min__energy>  (15) 
-8.8200000000000003

>  <m_primary>  (15) 
energy

$$$$
15:0
     RDKit          3D

 44 45  0  0  0  0  0  0  0  0999 V2000
   -3.5280   24.2690  -29.5850 C   0  0  0  0  0  0  0  0  0  0  0  0
   -3.8840   25.2910  -30.4900 O   0  0  0  0  0  0  0  0  0  0  0  0
   -5.2870   25.4890  -30.4870 C   0  0  0  0  0  0  0  0  0  0  0  0
   -6.0180   24.3020  -29.8370 C   0  0  0  0  0  0  0  0  0  0  0  0
   -6.2310   23.2080  -30.8120 N   0  0  0  0  0  0  0  0  0  0  0  0
   -5.7570   23.5940  -32.1660 C   0  0  0  0  0  0  0  0  0  0  0  0
   -4.6330   22.6720  -32.6520 C   0  0  0  0  0  0  0  0  0  0  0  0
   -4.3000   21.7470  -31.6390 O   0  0  0  0  0  0  0  0  0  0  0  0
   -3.1180   21.0660  -31.9980 C   0  0  0  0  0  0  0  0  0  0  0  0
   -7.6400   22.7410  -30.8260 C   0  0  0  0  0  0  0  0  0  0  0  0
   -7.7330   21.4170  -31.5220 C   0  0  0  0  0  0  0  0  0  0  0  0
   -8.8910   20.7700  -31.8940 C   0  0  0  0  0  0  0  0  0  0  0  0
   -8.5490   19.6320  -32.4500 O   0  0  0  0  0  0  0  0  0  0  0  0
   -7.2350   19.5490  -32.4150 C   0  0  0  0  0  0  0  0  0  0  0  0
   -6.4770   18.4070  -32.9730 C   0  0  0  0  0  0  0  0  0  0  0  0
   -6.1060   18.4350  -34.3290 C   0  0  0  0  0  0  0  0  0  0  0  0
   -5.3820   17.3790  -34.8890 C   0  0  0  0  0  0  0  0  0  0  0  0
   -5.0280   16.2790  -34.1050 C   0  0  0  0  0  0  0  0  0  0  0  0
   -5.4040   16.2310  -32.7610 C   0  0  0  0  0  0  0  0  0  0  0  0
   -6.1280   17.2840  -32.1920 C   0  0  0  0  0  0  0  0  0  0  0  0
   -6.5210   17.1750  -30.8990 F   0  0  0  0  0  0  0  0  0  0  0  0
   -6.6840   20.6380  -31.8370 N   0  0  0  0  0  0  0  0  0  0  0  0
   -3.6543   24.6316  -28.5542 H   0  0  0  0  0  0  0  0  0  0  0  0
   -4.1742   23.3938  -29.7476 H   0  0  0  0  0  0  0  0  0  0  0  0
   -2.4779   23.9847  -29.7476 H   0  0  0  0  0  0  0  0  0  0  0  0
   -5.5184   26.4046  -29.9229 H   0  0  0  0  0  0  0  0  0  0  0  0
   -5.6272   25.5774  -31.5293 H   0  0  0  0  0  0  0  0  0  0  0  0
   -5.4143   23.9237  -28.9989 H   0  0  0  0  0  0  0  0  0  0  0  0
   -6.9994   24.6487  -29.4812 H   0  0  0  0  0  0  0  0  0  0  0  0
   -6.5995   23.5325  -32.8706 H   0  0  0  0  0  0  0  0  0  0  0  0
   -5.3636   24.6200  -32.1144 H   0  0  0  0  0  0  0  0  0  0  0  0
   -4.9687   22.1278  -33.5471 H   0  0  0  0  0  0  0  0  0  0  0  0
   -3.7474   23.2772  -32.8958 H   0  0  0  0  0  0  0  0  0  0  0  0
   -2.5821   20.7572  -31.0884 H   0  0  0  0  0  0  0  0  0  0  0  0
   -3.3735   20.1766  -32.5928 H   0  0  0  0  0  0  0  0  0  0  0  0
   -2.4767   21.7331  -32.5928 H   0  0  0  0  0  0  0  0  0  0  0  0
   -7.9992   22.6351  -29.7917 H   0  0  0  0  0  0  0  0  0  0  0  0
   -8.2591   23.4755  -31.3619 H   0  0  0  0  0  0  0  0  0  0  0  0
   -9.9168   21.1405  -31.7508 H   0  0  0  0  0  0  0  0  0  0  0  0
   -6.3879   19.2951  -34.9541 H   0  0  0  0  0  0  0  0  0  0  0  0
   -5.0905   17.4143  -35.9491 H   0  0  0  0  0  0  0  0  0  0  0  0
   -4.4534   15.4510  -34.5458 H   0  0  0  0  0  0  0  0  0  0  0  0
   -5.1295   15.3608  -32.1467 H   0  0  0  0  0  0  0  0  0  0  0  0
   -5.6740   20.8640  -31.7050 H   0  0  0  0  0  0  0  0  0  0  0  0
  1  2  1  0
  2  3  1  0
  3  4  1  0
  4  5  1  0
  5  6  1  0
  6  7  1  0
  7  8  1  0
  8  9  1  0
  5 10  1  0
 10 11  1  0
 11 12  2  0
 12 13  1  0
 13 14  1  0
 14 15  1  0
 15 16  2  0
 16 17  1  0
 17 18  2  0
 18 19  1  0
 19 20  2  0
 20 21  1  0
 14 22  2  0
 22 11  1  0
 20 15  1  0
  1 23  1  0
  1 24  1  0
  1 25  1  0
  3 26  1  0
  3 27  1  0
  4 28  1  0
  4 29  1  0
  6 30  1  0
  6 31  1  0
  7 32  1  0
  7 33  1  0
  9 34  1  0
  9 35  1  0
  9 36  1  0
 10 37  1  0
 10 38  1  0
 12 39  1  0
 16 40  1  0
 17 41  1  0
 18 42  1  0
 19 43  1  0
 22 44  1  0
M  CHG  1  22   1
M  END
>  <UniqueID>  (16) 
14

>  <SMILES>  (16) 
COCCN(CCOC)Cc1coc(-c2ccccc2F)[nH+]1

>  <Energy>  (16) 
80.19604052213289

>  <Genealogy>  (16) 
COCCN(CCOC)Cc1coc(-c2ccccc2F)[nH+]1 (protonated)
COCCN(CCOC)Cc1coc(-c2ccccc2F)[nH+]1 (3D coordinates assigned)
COCCN(CCOC)Cc1coc(-c2ccccc2F)[nH+]1 (optimized conformer: 80.19604052213289 kcal/mol)

>  <smiles>  (16) 
COCCN(CCOC)Cc1coc(-c2ccccc2F)n1

>  <score_type>  (16) 
oracle

>  <origin>  (16) 
adg

>  <m_score__min__energy>  (16) 
-5.8099999999999996

>  <m_primary>  (16) 
energy

$$$$
16:0
     RDKit          3D

 58 60  0  0  0  0  0  0  0  0999 V2000
   -3.7950   25.0080  -26.3440 C   0  0  0  0  0  0  0  0  0  0  0  0
   -2.3190   24.9710  -25.9550 C   0  0  0  0  0  0  0  0  0  0  0  0
   -1.5680   26.0080  -26.6990 N   0  0  0  0  0  0  0  0  0  0  0  0
   -1.1530   27.1340  -25.8250 C   0  0  0  0  0  0  0  0  0  0  0  0
   -1.0610   26.7750  -24.3340 C   0  0  0  0  0  0  0  0  0  0  0  0
   -0.4620   25.4210  -27.4910 C   0  0  0  0  0  0  0  0  0  0  0  0
   -0.9550   24.8920  -28.8450 C   0  0  0  0  0  0  0  0  0  0  0  0
   -2.4000   25.0840  -28.9760 N   0  0  0  0  0  0  0  0  0  0  0  0
   -3.2880   24.1760  -29.6580 C   0  0  0  0  0  0  0  0  0  0  0  0
   -4.3490   24.6340  -30.4620 C   0  0  0  0  0  0  0  0  0  0  0  0
   -5.1920   23.7240  -31.1060 C   0  0  0  0  0  0  0  0  0  0  0  0
   -5.0030   22.3430  -30.9470 C   0  0  0  0  0  0  0  0  0  0  0  0
   -5.8630   21.4010  -31.6110 N   0  0  0  0  0  0  0  0  0  0  0  0
   -7.1680   21.3290  -31.3950 N   0  0  0  0  0  0  0  0  0  0  0  0
   -7.6650   20.2880  -32.0900 C   0  0  0  0  0  0  0  0  0  0  0  0
   -9.1190   19.9370  -32.1620 C   0  0  0  0  0  0  0  0  0  0  0  0
   -9.4800   19.6670  -33.4700 F   0  0  0  0  0  0  0  0  0  0  0  0
   -9.3740   18.8200  -31.3890 F   0  0  0  0  0  0  0  0  0  0  0  0
   -9.8700   20.9980  -31.6920 F   0  0  0  0  0  0  0  0  0  0  0  0
   -6.6440   19.6840  -32.8010 C   0  0  0  0  0  0  0  0  0  0  0  0
   -5.5120   20.4140  -32.4730 C   0  0  0  0  0  0  0  0  0  0  0  0
   -4.1700   20.2010  -33.0610 C   0  0  0  0  0  0  0  0  0  0  0  0
   -3.2890   21.2780  -33.2470 C   0  0  0  0  0  0  0  0  0  0  0  0
   -2.0350   21.0700  -33.8220 C   0  0  0  0  0  0  0  0  0  0  0  0
   -1.6480   19.7890  -34.2230 C   0  0  0  0  0  0  0  0  0  0  0  0
   -2.5120   18.6970  -34.0390 C   0  0  0  0  0  0  0  0  0  0  0  0
   -2.1210   17.3220  -34.5210 C   0  0  0  0  0  0  0  0  0  0  0  0
   -3.1350   16.7590  -35.2760 F   0  0  0  0  0  0  0  0  0  0  0  0
   -1.8690   16.5120  -33.4310 F   0  0  0  0  0  0  0  0  0  0  0  0
   -0.9820   17.3870  -35.3070 F   0  0  0  0  0  0  0  0  0  0  0  0
   -3.7850   18.9170  -33.4820 C   0  0  0  0  0  0  0  0  0  0  0  0
   -3.9410   21.8850  -30.1540 C   0  0  0  0  0  0  0  0  0  0  0  0
   -3.0970   22.7940  -29.5110 C   0  0  0  0  0  0  0  0  0  0  0  0
   -4.4136   25.0235  -25.4345 H   0  0  0  0  0  0  0  0  0  0  0  0
   -3.9949   25.9114  -26.9389 H   0  0  0  0  0  0  0  0  0  0  0  0
   -4.0399   24.1157  -26.9389 H   0  0  0  0  0  0  0  0  0  0  0  0
   -2.2230   25.1574  -24.8752 H   0  0  0  0  0  0  0  0  0  0  0  0
   -1.9070   23.9818  -26.2034 H   0  0  0  0  0  0  0  0  0  0  0  0
   -0.1638   27.4819  -26.1574 H   0  0  0  0  0  0  0  0  0  0  0  0
   -1.9303   27.9070  -25.9160 H   0  0  0  0  0  0  0  0  0  0  0  0
   -1.2889   27.6643  -23.7280 H   0  0  0  0  0  0  0  0  0  0  0  0
   -1.7841   25.9789  -24.1032 H   0  0  0  0  0  0  0  0  0  0  0  0
   -0.0441   26.4248  -24.1032 H   0  0  0  0  0  0  0  0  0  0  0  0
    0.3009   26.1939  -27.6661 H   0  0  0  0  0  0  0  0  0  0  0  0
   -0.0432   24.5767  -26.9237 H   0  0  0  0  0  0  0  0  0  0  0  0
   -0.4431   25.4345  -29.6535 H   0  0  0  0  0  0  0  0  0  0  0  0
   -0.7322   23.8167  -28.9089 H   0  0  0  0  0  0  0  0  0  0  0  0
   -2.8080   25.9400  -28.5350 H   0  0  0  0  0  0  0  0  0  0  0  0
   -4.5155   25.7144  -30.5841 H   0  0  0  0  0  0  0  0  0  0  0  0
   -6.0098   24.0934  -31.7423 H   0  0  0  0  0  0  0  0  0  0  0  0
   -7.7080   21.9680  -30.7700 H   0  0  0  0  0  0  0  0  0  0  0  0
   -6.7144   18.8181  -33.4758 H   0  0  0  0  0  0  0  0  0  0  0  0
   -3.5887   22.2903  -32.9381 H   0  0  0  0  0  0  0  0  0  0  0  0
   -1.3482   21.9181  -33.9602 H   0  0  0  0  0  0  0  0  0  0  0  0
   -0.6618   19.6348  -34.6851 H   0  0  0  0  0  0  0  0  0  0  0  0
   -4.4856   18.0758  -33.3751 H   0  0  0  0  0  0  0  0  0  0  0  0
   -3.7715   20.8044  -30.0376 H   0  0  0  0  0  0  0  0  0  0  0  0
   -2.2741   22.4221  -28.8829 H   0  0  0  0  0  0  0  0  0  0  0  0
  1  2  1  0
  2  3  1  0
  3  4  1  0
  4  5  1  0
  3  6  1  0
  6  7  1  0
  7  8  1  0
  8  9  1  0
  9 10  2  0
 10 11  1  0
 11 12  2  0
 12 13  1  0
 13 14  1  0
 14 15  2  0
 15 16  1  0
 16 17  1  0
 16 18  1  0
 16 19  1  0
 15 20  1  0
 20 21  2  0
 21 22  1  0
 22 23  2  0
 23 24  1  0
 24 25  2  0
 25 26  1  0
 26 27  1  0
 27 28  1  0
 27 29  1  0
 27 30  1  0
 26 31  2  0
 12 32  1  0
 32 33  2  0
 33  9  1  0
 21 13  1  0
 31 22  1  0
  1 34  1  0
  1 35  1  0
  1 36  1  0
  2 37  1  0
  2 38  1  0
  4 39  1  0
  4 40  1  0
  5 41  1  0
  5 42  1  0
  5 43  1  0
  6 44  1  0
  6 45  1  0
  7 46  1  0
  7 47  1  0
  8 48  1  0
 10 49  1  0
 11 50  1  0
 14 51  1  0
 20 52  1  0
 23 53  1  0
 24 54  1  0
 25 55  1  0
 31 56  1  0
 32 57  1  0
 33 58  1  0
M  CHG  1  14   1
M  END
>  <UniqueID>  (17) 
15

>  <SMILES>  (17) 
CCN(CC)CCNc1ccc(-n2[nH+]c(C(F)(F)F)cc2-c2cccc(C(F)(F)F)c2)cc1

>  <Energy>  (17) 
98.02369170365395

>  <Genealogy>  (17) 
CCN(CC)CCNc1ccc(-n2[nH+]c(C(F)(F)F)cc2-c2cccc(C(F)(F)F)c2)cc1 (protonated)
CCN(CC)CCNc1ccc(-n2[nH+]c(C(F)(F)F)cc2-c2cccc(C(F)(F)F)c2)cc1 (3D coordinates assigned)
CCN(CC)CCNc1ccc(-n2[nH+]c(C(F)(F)F)cc2-c2cccc(C(F)(F)F)c2)cc1 (optimized conformer: 98.02369170365395 kcal/mol)

>  <smiles>  (17) 
CCN(CC)CCNc1ccc(-n2nc(C(F)(F)F)cc2-c2cccc(C(F)(F)F)c2)cc1

>  <score_type>  (17) 
oracle

>  <origin>  (17) 
adg

>  <m_score__min__energy>  (17) 
-7.2199999999999998

>  <m_primary>  (17) 
energy

$$$$
17:0
     RDKit          3D

 52 54  0  0  0  0  0  0  0  0999 V2000
   -3.7389   16.1306  -34.9102 H   0  0  0  0  0  0  0  0  0  0  0  0
   -4.6150   16.6070  -34.4460 C   0  0  0  0  0  0  0  0  0  0  0  0
   -5.7470   15.8490  -34.1590 C   0  0  0  0  0  0  0  0  0  0  0  0
   -5.7640   14.7749  -34.3955 H   0  0  0  0  0  0  0  0  0  0  0  0
   -6.8590   16.4510  -33.5720 C   0  0  0  0  0  0  0  0  0  0  0  0
   -7.7514   15.8483  -33.3476 H   0  0  0  0  0  0  0  0  0  0  0  0
   -6.8480   17.8220  -33.2650 C   0  0  0  0  0  0  0  0  0  0  0  0
   -5.7080   18.6040  -33.5510 C   0  0  0  0  0  0  0  0  0  0  0  0
   -4.5890   17.9710  -34.1460 C   0  0  0  0  0  0  0  0  0  0  0  0
   -3.6889   18.5606  -34.3745 H   0  0  0  0  0  0  0  0  0  0  0  0
   -5.7060   19.9910  -33.2470 C   0  0  0  0  0  0  0  0  0  0  0  0
   -4.5850   20.6290  -33.4980 N   0  0  0  0  0  0  0  0  0  0  0  0
   -3.5160   21.2780  -32.7360 C   0  0  0  0  0  0  0  0  0  0  0  0
   -2.6245   21.3738  -33.3732 H   0  0  0  0  0  0  0  0  0  0  0  0
   -3.2874   20.6645  -31.8521 H   0  0  0  0  0  0  0  0  0  0  0  0
   -3.9560   22.6740  -32.2700 C   0  0  0  0  0  0  0  0  0  0  0  0
   -5.0536   22.6874  -32.1982 H   0  0  0  0  0  0  0  0  0  0  0  0
   -3.5779   23.3962  -33.0085 H   0  0  0  0  0  0  0  0  0  0  0  0
   -3.3700   23.0780  -30.8960 C   0  0  0  0  0  0  0  0  0  0  0  0
   -2.2783   23.1651  -30.9992 H   0  0  0  0  0  0  0  0  0  0  0  0
   -3.6711   22.2963  -30.1831 H   0  0  0  0  0  0  0  0  0  0  0  0
   -3.8900   24.3610  -30.3640 N   0  0  0  0  0  0  0  0  0  0  0  0
   -3.6970   24.5490  -28.9050 C   0  0  0  0  0  0  0  0  0  0  0  0
   -4.4263   25.2943  -28.5546 H   0  0  0  0  0  0  0  0  0  0  0  0
   -2.6545   24.8707  -28.7650 H   0  0  0  0  0  0  0  0  0  0  0  0
   -3.8770   23.2750  -28.0740 C   0  0  0  0  0  0  0  0  0  0  0  0
   -3.8414   23.5272  -27.0039 H   0  0  0  0  0  0  0  0  0  0  0  0
   -4.8488   22.8171  -28.3107 H   0  0  0  0  0  0  0  0  0  0  0  0
   -3.0701   22.5658  -28.3107 H   0  0  0  0  0  0  0  0  0  0  0  0
   -5.2060   24.7820  -30.8930 C   0  0  0  0  0  0  0  0  0  0  0  0
   -5.0541   25.5625  -31.6531 H   0  0  0  0  0  0  0  0  0  0  0  0
   -5.7018   23.9039  -31.3324 H   0  0  0  0  0  0  0  0  0  0  0  0
   -6.0970   25.3350  -29.7820 C   0  0  0  0  0  0  0  0  0  0  0  0
   -5.6700   25.0700  -28.8035 H   0  0  0  0  0  0  0  0  0  0  0  0
   -6.1576   26.4297  -29.8713 H   0  0  0  0  0  0  0  0  0  0  0  0
   -7.1049   24.9035  -29.8713 H   0  0  0  0  0  0  0  0  0  0  0  0
   -6.8950   20.5750  -32.6860 C   0  0  0  0  0  0  0  0  0  0  0  0
   -7.9870   19.7130  -32.3730 C   0  0  0  0  0  0  0  0  0  0  0  0
   -7.9350   18.3910  -32.6890 N   0  0  0  0  0  0  0  0  0  0  0  0
   -8.7690   17.7930  -32.4810 H   0  0  0  0  0  0  0  0  0  0  0  0
   -9.2710   20.2230  -31.7570 C   0  0  0  0  0  0  0  0  0  0  0  0
  -10.0172   20.3501  -32.5552 H   0  0  0  0  0  0  0  0  0  0  0  0
   -9.5946   19.4847  -31.0086 H   0  0  0  0  0  0  0  0  0  0  0  0
   -9.0950   21.5540  -31.0400 C   0  0  0  0  0  0  0  0  0  0  0  0
  -10.0793   21.9489  -30.7482 H   0  0  0  0  0  0  0  0  0  0  0  0
   -8.4815   21.4125  -30.1380 H   0  0  0  0  0  0  0  0  0  0  0  0
   -8.4110   22.5330  -31.9780 C   0  0  0  0  0  0  0  0  0  0  0  0
   -8.9989   22.6186  -32.9038 H   0  0  0  0  0  0  0  0  0  0  0  0
   -8.3413   23.5123  -31.4819 H   0  0  0  0  0  0  0  0  0  0  0  0
   -7.0000   22.0490  -32.3200 C   0  0  0  0  0  0  0  0  0  0  0  0
   -6.6346   22.6391  -33.1734 H   0  0  0  0  0  0  0  0  0  0  0  0
   -6.4004   22.1820  -31.4074 H   0  0  0  0  0  0  0  0  0  0  0  0
  1  2  1  0
  2  3  2  0
  3  4  1  0
  3  5  1  0
  5  6  1  0
  5  7  2  0
  7  8  1  0
  8  9  2  0
  9 10  1  0
  8 11  1  0
 11 12  2  0
 12 13  1  0
 13 14  1  0
 13 15  1  0
 13 16  1  0
 16 17  1  0
 16 18  1  0
 16 19  1  0
 19 20  1  0
 19 21  1  0
 19 22  1  0
 22 23  1  0
 23 24  1  0
 23 25  1  0
 23 26  1  0
 26 27  1  0
 26 28  1  0
 26 29  1  0
 22 30  1  0
 30 31  1  0
 30 32  1  0
 30 33  1  0
 33 34  1  0
 33 35  1  0
 33 36  1  0
 11 37  1  0
 37 38  2  0
 38 39  1  0
 39 40  1  0
 38 41  1  0
 41 42  1  0
 41 43  1  0
 41 44  1  0
 44 45  1  0
 44 46  1  0
 44 47  1  0
 47 48  1  0
 47 49  1  0
 47 50  1  0
 50 51  1  0
 50 52  1  0
  9  2  1  0
 50 37  1  0
 39  7  1  0
M  END
>  <UniqueID>  (18) 
16

>  <SMILES>  (18) 
CCN(CC)CCC/N=c1\c2c([nH]c3ccccc13)CCCC2

>  <Energy>  (18) 
79.63933466181466

>  <Genealogy>  (18) 
CCN(CC)CCC/N=c1\c2c([nH]c3ccccc13)CCCC2 (cis-trans isomerization)
CCN(CC)CCC/N=c1\c2c([nH]c3ccccc13)CCCC2 (3D coordinates assigned)
CCN(CC)CCC/N=c1\c2c([nH]c3ccccc13)CCCC2 (nonaromatic ring conformer: 79.63933466181466 kcal/mol)

>  <smiles>  (18) 
CCN(CC)CCCN=c1c2c([nH]c3ccccc13)CCCC2

>  <score_type>  (18) 
oracle

>  <origin>  (18) 
adg

>  <m_score__min__energy>  (18) 
-8.8699999999999992

>  <m_primary>  (18) 
energy

$$$$
18:0
     RDKit          3D

 32 33  0  0  0  0  0  0  0  0999 V2000
   -6.5370   25.6740  -29.3390 C   0  0  0  0  0  0  0  0  0  0  0  0
   -6.3650   24.6960  -30.0240 C   0  0  0  0  0  0  0  0  0  0  0  0
   -6.1610   23.5280  -30.8440 C   0  0  0  0  0  0  0  0  0  0  0  0
   -7.2640   22.7570  -31.2230 C   0  0  0  0  0  0  0  0  0  0  0  0
   -7.1000   21.6070  -32.0200 C   0  0  0  0  0  0  0  0  0  0  0  0
   -8.1940   20.8000  -32.3740 O   0  0  0  0  0  0  0  0  0  0  0  0
   -8.7120   19.7380  -31.5800 C   0  0  0  0  0  0  0  0  0  0  0  0
   -5.8050   21.2450  -32.4500 C   0  0  0  0  0  0  0  0  0  0  0  0
   -5.5810   20.0560  -33.3090 C   0  0  0  0  0  0  0  0  0  0  0  0
   -6.4630   19.4690  -34.2040 C   0  0  0  0  0  0  0  0  0  0  0  0
   -5.8540   18.4390  -34.8230 N   0  0  0  0  0  0  0  0  0  0  0  0
   -4.6260   18.3520  -34.3380 N   0  0  0  0  0  0  0  0  0  0  0  0
   -3.6320   17.3970  -34.8090 C   0  0  0  0  0  0  0  0  0  0  0  0
   -4.4150   19.3240  -33.4330 C   0  0  0  0  0  0  0  0  0  0  0  0
   -4.7020   22.0210  -32.0530 C   0  0  0  0  0  0  0  0  0  0  0  0
   -4.8700   23.1640  -31.2520 C   0  0  0  0  0  0  0  0  0  0  0  0
   -3.7820   23.9580  -30.8490 O   0  0  0  0  0  0  0  0  0  0  0  0
   -2.9620   23.6900  -29.7160 C   0  0  0  0  0  0  0  0  0  0  0  0
   -6.6938   26.5658  -28.7144 H   0  0  0  0  0  0  0  0  0  0  0  0
   -8.2717   23.0518  -30.8950 H   0  0  0  0  0  0  0  0  0  0  0  0
   -8.5918   19.9844  -30.5147 H   0  0  0  0  0  0  0  0  0  0  0  0
   -9.7794   19.5983  -31.8059 H   0  0  0  0  0  0  0  0  0  0  0  0
   -8.1650   18.8108  -31.8059 H   0  0  0  0  0  0  0  0  0  0  0  0
   -7.4989   19.7940  -34.3809 H   0  0  0  0  0  0  0  0  0  0  0  0
   -3.1400   16.9243  -33.9462 H   0  0  0  0  0  0  0  0  0  0  0  0
   -4.1250   16.6251  -35.4182 H   0  0  0  0  0  0  0  0  0  0  0  0
   -2.8804   17.9204  -35.4182 H   0  0  0  0  0  0  0  0  0  0  0  0
   -3.4777   19.5051  -32.8865 H   0  0  0  0  0  0  0  0  0  0  0  0
   -3.6913   21.7291  -32.3743 H   0  0  0  0  0  0  0  0  0  0  0  0
   -3.5352   23.8773  -28.7960 H   0  0  0  0  0  0  0  0  0  0  0  0
   -2.6377   22.6391  -29.7384 H   0  0  0  0  0  0  0  0  0  0  0  0
   -2.0797   24.3465  -29.7384 H   0  0  0  0  0  0  0  0  0  0  0  0
  1  2  3  0
  2  3  1  0
  3  4  2  0
  4  5  1  0
  5  6  1  0
  6  7  1  0
  5  8  2  0
  8  9  1  0
  9 10  1  0
 10 11  2  0
 11 12  1  0
 12 13  1  0
 12 14  1  0
  8 15  1  0
 15 16  2  0
 16 17  1  0
 17 18  1  0
 16  3  1  0
 14  9  2  0
  1 19  1  0
  4 20  1  0
  7 21  1  0
  7 22  1  0
  7 23  1  0
 10 24  1  0
 13 25  1  0
 13 26  1  0
 13 27  1  0
 14 28  1  0
 15 29  1  0
 18 30  1  0
 18 31  1  0
 18 32  1  0
M  END
>  <UniqueID>  (19) 
17

>  <SMILES>  (19) 
C#Cc1cc(OC)c(-c2cnn(C)c2)cc1OC

>  <Energy>  (19) 
62.76785079851011

>  <Genealogy>  (19) 
C#Cc1cc(OC)c(-c2cnn(C)c2)cc1OC (3D coordinates assigned)
C#Cc1cc(OC)c(-c2cnn(C)c2)cc1OC (optimized conformer: 62.76785079851011 kcal/mol)

>  <smiles>  (19) 
C#Cc1cc(OC)c(-c2cnn(C)c2)cc1OC

>  <score_type>  (19) 
oracle

>  <origin>  (19) 
adg

>  <m_score__min__energy>  (19) 
-6.1600000000000001

>  <m_primary>  (19) 
energy

$$$$
19:0
     RDKit          3D

 25 26  0  0  0  0  0  0  0  0999 V2000
   -3.3650   25.2400  -29.7650 F   0  0  0  0  0  0  0  0  0  0  0  0
   -4.5620   24.7710  -30.1990 C   0  0  0  0  0  0  0  0  0  0  0  0
   -5.7470   25.2630  -29.6420 C   0  0  0  0  0  0  0  0  0  0  0  0
   -6.9800   24.7870  -30.0930 C   0  0  0  0  0  0  0  0  0  0  0  0
   -7.0340   23.8180  -31.0980 C   0  0  0  0  0  0  0  0  0  0  0  0
   -5.8480   23.3080  -31.6570 C   0  0  0  0  0  0  0  0  0  0  0  0
   -5.9010   22.3300  -32.7150 N   0  0  0  0  0  0  0  0  0  0  0  0
   -5.7720   20.9770  -32.1580 C   0  0  0  0  0  0  0  0  0  0  0  0
   -7.0990   20.2760  -32.1690 C   0  0  0  0  0  0  0  0  0  0  0  0
   -8.3220   20.9470  -32.3210 C   0  0  0  0  0  0  0  0  0  0  0  0
   -9.4270   20.1110  -32.2490 C   0  0  0  0  0  0  0  0  0  0  0  0
   -8.8780   18.5440  -31.9800 S   0  0  0  0  0  0  0  0  0  0  0  0
   -7.2370   18.9080  -31.9560 C   0  0  0  0  0  0  0  0  0  0  0  0
   -4.6100   23.8020  -31.2050 C   0  0  0  0  0  0  0  0  0  0  0  0
   -5.7077   26.0245  -28.8491 H   0  0  0  0  0  0  0  0  0  0  0  0
   -7.9113   25.1761  -29.6557 H   0  0  0  0  0  0  0  0  0  0  0  0
   -8.0084   23.4521  -31.4539 H   0  0  0  0  0  0  0  0  0  0  0  0
   -5.1260   22.5070  -33.3980 H   0  0  0  0  0  0  0  0  0  0  0  0
   -6.8100   22.4150  -33.2290 H   0  0  0  0  0  0  0  0  0  0  0  0
   -5.0544   20.4033  -32.7629 H   0  0  0  0  0  0  0  0  0  0  0  0
   -5.4175   21.0519  -31.1194 H   0  0  0  0  0  0  0  0  0  0  0  0
   -8.3975   22.0325  -32.4819 H   0  0  0  0  0  0  0  0  0  0  0  0
  -10.4781   20.4191  -32.3501 H   0  0  0  0  0  0  0  0  0  0  0  0
   -6.4173   18.1914  -31.7996 H   0  0  0  0  0  0  0  0  0  0  0  0
   -3.6758   23.4236  -31.6456 H   0  0  0  0  0  0  0  0  0  0  0  0
  1  2  1  0
  2  3  2  0
  3  4  1  0
  4  5  2  0
  5  6  1  0
  6  7  1  0
  7  8  1  0
  8  9  1  0
  9 10  1  0
 10 11  2  0
 11 12  1  0
 12 13  1  0
  6 14  2  0
 14  2  1  0
 13  9  2  0
  3 15  1  0
  4 16  1  0
  5 17  1  0
  7 18  1  0
  7 19  1  0
  8 20  1  0
  8 21  1  0
 10 22  1  0
 11 23  1  0
 13 24  1  0
 14 25  1  0
M  CHG  1   7   1
M  END
>  <UniqueID>  (20) 
18

>  <SMILES>  (20) 
Fc1cccc([NH2+]Cc2ccsc2)c1

>  <Energy>  (20) 
50.4526189702202

>  <Genealogy>  (20) 
Fc1cccc([NH2+]Cc2ccsc2)c1 (protonated)
Fc1cccc([NH2+]Cc2ccsc2)c1 (3D coordinates assigned)
Fc1cccc([NH2+]Cc2ccsc2)c1 (optimized conformer: 50.4526189702202 kcal/mol)

>  <smiles>  (20) 
Fc1cccc(NCc2ccsc2)c1

>  <score_type>  (20) 
oracle

>  <origin>  (20) 
adg

>  <m_score__min__energy>  (20) 
-5.5999999999999996

>  <m_primary>  (20) 
energy

$$$$
20:0
     RDKit          3D

 31 33  0  0  0  0  0  0  0  0999 V2000
   -1.1940   25.6430  -27.6070 C   0  0  0  0  0  0  0  0  0  0  0  0
   -1.6320   25.5390  -28.9580 O   0  0  0  0  0  0  0  0  0  0  0  0
   -2.5070   24.5510  -29.4320 C   0  0  0  0  0  0  0  0  0  0  0  0
   -2.1030   23.2150  -29.6220 C   0  0  0  0  0  0  0  0  0  0  0  0
   -3.0110   22.2650  -30.0970 C   0  0  0  0  0  0  0  0  0  0  0  0
   -4.3270   22.6320  -30.3880 C   0  0  0  0  0  0  0  0  0  0  0  0
   -5.2040   21.7000  -30.8480 N   0  0  0  0  0  0  0  0  0  0  0  0
   -6.5000   21.9980  -31.1430 C   0  0  0  0  0  0  0  0  0  0  0  0
   -7.3940   20.9230  -31.6470 C   0  0  0  0  0  0  0  0  0  0  0  0
   -6.9030   19.6310  -31.9260 C   0  0  0  0  0  0  0  0  0  0  0  0
   -7.7610   18.6370  -32.4070 C   0  0  0  0  0  0  0  0  0  0  0  0
   -9.1120   18.9180  -32.6220 C   0  0  0  0  0  0  0  0  0  0  0  0
   -9.6070   20.1970  -32.3590 C   0  0  0  0  0  0  0  0  0  0  0  0
   -8.7550   21.1960  -31.8790 C   0  0  0  0  0  0  0  0  0  0  0  0
   -6.9520   23.3200  -30.9840 C   0  0  0  0  0  0  0  0  0  0  0  0
   -6.0770   24.3040  -30.5110 C   0  0  0  0  0  0  0  0  0  0  0  0
   -6.4940   25.4860  -30.3710 O   0  0  0  0  0  0  0  0  0  0  0  0
   -4.7470   23.9670  -30.2030 C   0  0  0  0  0  0  0  0  0  0  0  0
   -3.8270   24.9180  -29.7250 C   0  0  0  0  0  0  0  0  0  0  0  0
   -2.0385   25.4425  -26.9313 H   0  0  0  0  0  0  0  0  0  0  0  0
   -0.3951   24.9096  -27.4231 H   0  0  0  0  0  0  0  0  0  0  0  0
   -0.8101   26.6573  -27.4231 H   0  0  0  0  0  0  0  0  0  0  0  0
   -1.0683   22.9183  -29.3955 H   0  0  0  0  0  0  0  0  0  0  0  0
   -2.6880   21.2236  -30.2424 H   0  0  0  0  0  0  0  0  0  0  0  0
   -5.8390   19.4037  -31.7644 H   0  0  0  0  0  0  0  0  0  0  0  0
   -7.3704   17.6303  -32.6167 H   0  0  0  0  0  0  0  0  0  0  0  0
   -9.7850   18.1332  -32.9978 H   0  0  0  0  0  0  0  0  0  0  0  0
  -10.6707   20.4191  -32.5301 H   0  0  0  0  0  0  0  0  0  0  0  0
   -9.1513   22.2029  -31.6812 H   0  0  0  0  0  0  0  0  0  0  0  0
   -7.9918   23.5801  -31.2311 H   0  0  0  0  0  0  0  0  0  0  0  0
   -4.1473   25.9603  -29.5798 H   0  0  0  0  0  0  0  0  0  0  0  0
  1  2  1  0
  2  3  1  0
  3  4  2  0
  4  5  1  0
  5  6  2  0
  6  7  1  0
  7  8  1  0
  8  9  1  0
  9 10  2  0
 10 11  1  0
 11 12  2  0
 12 13  1  0
 13 14  2  0
  8 15  2  0
 15 16  1  0
 16 17  2  0
 16 18  1  0
 18 19  2  0
 19  3  1  0
 18  6  1  0
 14  9  1  0
  1 20  1  0
  1 21  1  0
  1 22  1  0
  4 23  1  0
  5 24  1  0
 10 25  1  0
 11 26  1  0
 12 27  1  0
 13 28  1  0
 14 29  1  0
 15 30  1  0
 19 31  1  0
M  CHG  1   7  -1
M  END
>  <UniqueID>  (21) 
19

>  <SMILES>  (21) 
COc1ccc2[n-]c(-c3ccccc3)cc(=O)c2c1

>  <Energy>  (21) 
41.71924874463279

>  <Genealogy>  (21) 
COc1ccc2[n-]c(-c3ccccc3)cc(=O)c2c1 (protonated)
COc1ccc2[n-]c(-c3ccccc3)cc(=O)c2c1 (3D coordinates assigned)
COc1ccc2[n-]c(-c3ccccc3)cc(=O)c2c1 (optimized conformer: 41.71924874463279 kcal/mol)

>  <smiles>  (21) 
COc1ccc2[nH]c(-c3ccccc3)cc(=O)c2c1

>  <score_type>  (21) 
oracle

>  <origin>  (21) 
adg

>  <m_score__min__energy>  (21) 
-7.3799999999999999

>  <m_primary>  (21) 
energy

$$$$
21:0
     RDKit          3D

 58 60  0  0  0  0  0  0  0  0999 V2000
   -5.7800   24.4770  -29.7130 C   0  0  0  0  0  0  0  0  0  0  0  0
   -4.2920   24.5660  -29.9000 C   0  0  0  0  0  0  0  0  0  0  0  0
   -3.8510   25.3090  -30.8210 O   0  0  0  0  0  0  0  0  0  0  0  0
   -3.3620   23.8250  -29.0710 N   0  0  0  0  0  0  0  0  0  0  0  0
   -3.8070   22.9680  -27.9590 C   0  0  0  0  0  0  0  0  0  0  0  0
   -3.1120   21.5990  -28.0220 C   0  0  0  0  0  0  0  0  0  0  0  0
   -1.5880   21.6770  -28.3440 C   0  0  0  0  0  0  0  0  0  0  0  0
   -1.2460   20.9540  -29.6720 C   0  0  0  0  0  0  0  0  0  0  0  0
   -2.2040   21.2980  -30.7400 N   0  0  0  0  0  0  0  0  0  0  0  0
   -2.0050   20.4770  -31.9480 C   0  0  0  0  0  0  0  0  0  0  0  0
   -3.3130   20.1190  -32.6110 C   0  0  0  0  0  0  0  0  0  0  0  0
   -3.3550   19.1250  -33.5990 C   0  0  0  0  0  0  0  0  0  0  0  0
   -4.5600   18.8110  -34.2300 C   0  0  0  0  0  0  0  0  0  0  0  0
   -5.7320   19.4910  -33.8860 C   0  0  0  0  0  0  0  0  0  0  0  0
   -5.7080   20.4930  -32.9010 C   0  0  0  0  0  0  0  0  0  0  0  0
   -6.9470   21.2290  -32.5490 C   0  0  0  0  0  0  0  0  0  0  0  0
   -6.8940   22.6220  -32.3530 C   0  0  0  0  0  0  0  0  0  0  0  0
   -8.0400   23.3320  -31.9930 C   0  0  0  0  0  0  0  0  0  0  0  0
   -9.2540   22.6640  -31.8260 C   0  0  0  0  0  0  0  0  0  0  0  0
   -9.3270   21.2830  -32.0260 C   0  0  0  0  0  0  0  0  0  0  0  0
   -8.1790   20.5520  -32.3930 C   0  0  0  0  0  0  0  0  0  0  0  0
   -8.2290   19.1660  -32.6230 O   0  0  0  0  0  0  0  0  0  0  0  0
   -8.1610   18.1720  -31.6050 C   0  0  0  0  0  0  0  0  0  0  0  0
   -6.8180   17.4620  -31.6810 C   0  0  0  0  0  0  0  0  0  0  0  0
   -5.8750   18.1510  -30.9360 F   0  0  0  0  0  0  0  0  0  0  0  0
   -4.4890   20.8070  -32.2740 C   0  0  0  0  0  0  0  0  0  0  0  0
   -1.0750   23.1330  -28.3600 C   0  0  0  0  0  0  0  0  0  0  0  0
   -1.9170   24.0110  -29.2960 C   0  0  0  0  0  0  0  0  0  0  0  0
   -6.0143   24.4630  -28.6383 H   0  0  0  0  0  0  0  0  0  0  0  0
   -6.2612   25.3480  -30.1819 H   0  0  0  0  0  0  0  0  0  0  0  0
   -6.1540   23.5549  -30.1819 H   0  0  0  0  0  0  0  0  0  0  0  0
   -3.5594   23.4559  -27.0047 H   0  0  0  0  0  0  0  0  0  0  0  0
   -4.8939   22.8187  -28.0383 H   0  0  0  0  0  0  0  0  0  0  0  0
   -3.2350   21.1032  -27.0478 H   0  0  0  0  0  0  0  0  0  0  0  0
   -3.5833   21.0397  -28.8437 H   0  0  0  0  0  0  0  0  0  0  0  0
   -1.0657   21.1517  -27.5308 H   0  0  0  0  0  0  0  0  0  0  0  0
   -0.2355   21.2504  -29.9898 H   0  0  0  0  0  0  0  0  0  0  0  0
   -1.3005   19.8694  -29.4972 H   0  0  0  0  0  0  0  0  0  0  0  0
   -3.1820   21.1730  -30.3880 H   0  0  0  0  0  0  0  0  0  0  0  0
   -2.0850   22.3000  -31.0160 H   0  0  0  0  0  0  0  0  0  0  0  0
   -1.3874   21.0408  -32.6626 H   0  0  0  0  0  0  0  0  0  0  0  0
   -1.5107   19.5421  -31.6454 H   0  0  0  0  0  0  0  0  0  0  0  0
   -2.4349   18.5906  -33.8780 H   0  0  0  0  0  0  0  0  0  0  0  0
   -4.5874   18.0261  -35.0002 H   0  0  0  0  0  0  0  0  0  0  0  0
   -6.6777   19.2405  -34.3889 H   0  0  0  0  0  0  0  0  0  0  0  0
   -5.9410   23.1553  -32.4848 H   0  0  0  0  0  0  0  0  0  0  0  0
   -7.9865   24.4201  -31.8406 H   0  0  0  0  0  0  0  0  0  0  0  0
  -10.1546   23.2254  -31.5365 H   0  0  0  0  0  0  0  0  0  0  0  0
  -10.2873   20.7625  -31.8961 H   0  0  0  0  0  0  0  0  0  0  0  0
   -8.2691   18.6482  -30.6193 H   0  0  0  0  0  0  0  0  0  0  0  0
   -8.9712   17.4421  -31.7495 H   0  0  0  0  0  0  0  0  0  0  0  0
   -6.9222   16.4419  -31.2829 H   0  0  0  0  0  0  0  0  0  0  0  0
   -6.4899   17.4214  -32.7301 H   0  0  0  0  0  0  0  0  0  0  0  0
   -4.4569   21.5996  -31.5119 H   0  0  0  0  0  0  0  0  0  0  0  0
   -1.1279   23.5427  -27.3405 H   0  0  0  0  0  0  0  0  0  0  0  0
   -0.0375   23.1315  -28.7256 H   0  0  0  0  0  0  0  0  0  0  0  0
   -1.6623   25.0663  -29.1186 H   0  0  0  0  0  0  0  0  0  0  0  0
   -1.6926   23.7180  -30.3322 H   0  0  0  0  0  0  0  0  0  0  0  0
  1  2  1  0
  2  3  2  0
  2  4  1  0
  4  5  1  0
  5  6  1  0
  6  7  1  0
  7  8  1  0
  8  9  1  0
  9 10  1  0
 10 11  1  0
 11 12  2  0
 12 13  1  0
 13 14  2  0
 14 15  1  0
 15 16  1  0
 16 17  2  0
 17 18  1  0
 18 19  2  0
 19 20  1  0
 20 21  2  0
 21 22  1  0
 22 23  1  0
 23 24  1  0
 24 25  1  0
 15 26  2  0
  7 27  1  0
 27 28  1  0
 28  4  1  0
 26 11  1  0
 21 16  1  0
  1 29  1  0
  1 30  1  0
  1 31  1  0
  5 32  1  0
  5 33  1  0
  6 34  1  0
  6 35  1  0
  7 36  1  0
  8 37  1  0
  8 38  1  0
  9 39  1  0
  9 40  1  0
 10 41  1  0
 10 42  1  0
 12 43  1  0
 13 44  1  0
 14 45  1  0
 17 46  1  0
 18 47  1  0
 19 48  1  0
 20 49  1  0
 23 50  1  0
 23 51  1  0
 24 52  1  0
 24 53  1  0
 26 54  1  0
 27 55  1  0
 27 56  1  0
 28 57  1  0
 28 58  1  0
M  CHG  1   9   1
M  END
>  <UniqueID>  (22) 
20

>  <SMILES>  (22) 
CC(=O)N1CCC(C[NH2+]Cc2cccc(-c3ccccc3OCCF)c2)CC1

>  <Energy>  (22) 
62.437445216396426

>  <Genealogy>  (22) 
CC(=O)N1CCC(C[NH2+]Cc2cccc(-c3ccccc3OCCF)c2)CC1 (protonated)
CC(=O)N1CCC(C[NH2+]Cc2cccc(-c3ccccc3OCCF)c2)CC1 (3D coordinates assigned)
CC(=O)N1CCC(C[NH2+]Cc2cccc(-c3ccccc3OCCF)c2)CC1 (nonaromatic ring conformer: 62.437445216396426 kcal/mol)

>  <smiles>  (22) 
CC(=O)N1CCC(CNCc2cccc(-c3ccccc3OCCF)c2)CC1

>  <score_type>  (22) 
oracle

>  <origin>  (22) 
adg

>  <m_score__min__energy>  (22) 
-8.6999999999999993

>  <m_primary>  (22) 
energy

$$$$
22:0
     RDKit          3D

 58 60  0  0  0  0  0  0  0  0999 V2000
   -2.8800   20.9150  -32.1750 C   0  0  0  0  0  0  0  0  0  0  0  0
   -3.8900   20.0020  -32.5930 O   0  0  0  0  0  0  0  0  0  0  0  0
   -3.6630   18.8820  -33.4080 C   0  0  0  0  0  0  0  0  0  0  0  0
   -2.3890   18.2960  -33.5320 C   0  0  0  0  0  0  0  0  0  0  0  0
   -2.2030   17.1770  -34.3460 C   0  0  0  0  0  0  0  0  0  0  0  0
   -3.2860   16.6170  -35.0350 C   0  0  0  0  0  0  0  0  0  0  0  0
   -3.0770   15.4350  -35.9360 C   0  0  0  0  0  0  0  0  0  0  0  0
   -4.5520   17.2090  -34.9310 C   0  0  0  0  0  0  0  0  0  0  0  0
   -4.7490   18.3380  -34.1100 C   0  0  0  0  0  0  0  0  0  0  0  0
   -6.0000   18.9620  -33.9660 O   0  0  0  0  0  0  0  0  0  0  0  0
   -7.1900   18.3750  -33.4330 C   0  0  0  0  0  0  0  0  0  0  0  0
   -7.4650   18.8420  -31.9900 C   0  0  1  0  0  0  0  0  0  0  0  0
   -6.2990   18.7770  -31.2080 O   0  0  0  0  0  0  0  0  0  0  0  0
   -8.0990   20.2460  -31.9280 C   0  0  0  0  0  0  0  0  0  0  0  0
   -7.1250   21.2160  -31.3730 N   0  0  0  0  0  0  0  0  0  0  0  0
   -7.7750   22.2800  -30.5890 C   0  0  0  0  0  0  0  0  0  0  0  0
   -6.7180   22.9860  -29.7360 C   0  0  0  0  0  0  0  0  0  0  0  0
   -5.4400   23.0720  -30.4550 N   0  0  0  0  0  0  0  0  0  0  0  0
   -4.2130   23.2360  -29.7240 C   0  0  0  0  0  0  0  0  0  0  0  0
   -3.7090   22.1610  -28.9750 C   0  0  0  0  0  0  0  0  0  0  0  0
   -2.5270   22.3000  -28.2460 C   0  0  0  0  0  0  0  0  0  0  0  0
   -1.8380   23.5130  -28.2580 C   0  0  0  0  0  0  0  0  0  0  0  0
   -2.3240   24.5890  -29.0050 C   0  0  0  0  0  0  0  0  0  0  0  0
   -3.5140   24.4600  -29.7480 C   0  0  0  0  0  0  0  0  0  0  0  0
   -4.0170   25.5130  -30.5290 O   0  0  0  0  0  0  0  0  0  0  0  0
   -5.3530   26.0020  -30.4640 C   0  0  0  0  0  0  0  0  0  0  0  0
   -5.4180   22.9850  -31.9190 C   0  0  0  0  0  0  0  0  0  0  0  0
   -6.2500   21.7860  -32.4230 C   0  0  0  0  0  0  0  0  0  0  0  0
   -2.8458   20.9459  -31.0760 H   0  0  0  0  0  0  0  0  0  0  0  0
   -1.9048   20.5858  -32.5631 H   0  0  0  0  0  0  0  0  0  0  0  0
   -3.1094   21.9184  -32.5631 H   0  0  0  0  0  0  0  0  0  0  0  0
   -1.5353   18.7221  -32.9845 H   0  0  0  0  0  0  0  0  0  0  0  0
   -1.2015   16.7333  -34.4466 H   0  0  0  0  0  0  0  0  0  0  0  0
   -2.9175   14.5332  -35.3267 H   0  0  0  0  0  0  0  0  0  0  0  0
   -3.9646   15.2964  -36.5708 H   0  0  0  0  0  0  0  0  0  0  0  0
   -2.1957   15.6092  -36.5708 H   0  0  0  0  0  0  0  0  0  0  0  0
   -5.3986   16.7895  -35.4943 H   0  0  0  0  0  0  0  0  0  0  0  0
   -8.0421   18.6601  -34.0675 H   0  0  0  0  0  0  0  0  0  0  0  0
   -7.0544   17.2835  -33.4180 H   0  0  0  0  0  0  0  0  0  0  0  0
   -8.2052   18.1457  -31.5689 H   0  0  0  0  0  0  0  0  0  0  0  0
   -5.6900   19.5020  -31.5040 H   0  0  0  0  0  0  0  0  0  0  0  0
   -8.3893   20.5601  -32.9415 H   0  0  0  0  0  0  0  0  0  0  0  0
   -8.9871   20.2138  -31.2797 H   0  0  0  0  0  0  0  0  0  0  0  0
   -8.2445   23.0054  -31.2697 H   0  0  0  0  0  0  0  0  0  0  0  0
   -8.5473   21.8437  -29.9384 H   0  0  0  0  0  0  0  0  0  0  0  0
   -7.0666   24.0016  -29.4974 H   0  0  0  0  0  0  0  0  0  0  0  0
   -6.5652   22.4070  -28.8133 H   0  0  0  0  0  0  0  0  0  0  0  0
   -4.2492   21.2029  -28.9626 H   0  0  0  0  0  0  0  0  0  0  0  0
   -2.1385   21.4528  -27.6618 H   0  0  0  0  0  0  0  0  0  0  0  0
   -0.9098   23.6225  -27.6779 H   0  0  0  0  0  0  0  0  0  0  0  0
   -1.7746   25.5419  -29.0130 H   0  0  0  0  0  0  0  0  0  0  0  0
   -5.6525   26.1116  -29.4113 H   0  0  0  0  0  0  0  0  0  0  0  0
   -5.4105   26.9795  -30.9653 H   0  0  0  0  0  0  0  0  0  0  0  0
   -6.0279   25.2926  -30.9653 H   0  0  0  0  0  0  0  0  0  0  0  0
   -5.8349   23.9122  -32.3392 H   0  0  0  0  0  0  0  0  0  0  0  0
   -4.3761   22.8447  -32.2425 H   0  0  0  0  0  0  0  0  0  0  0  0
   -6.8786   22.1213  -33.2611 H   0  0  0  0  0  0  0  0  0  0  0  0
   -5.5459   20.9994  -32.7319 H   0  0  0  0  0  0  0  0  0  0  0  0
  1  2  1  0
  2  3  1  0
  3  4  2  0
  4  5  1  0
  5  6  2  0
  6  7  1  0
  6  8  1  0
  8  9  2  0
  9 10  1  0
 10 11  1  0
 11 12  1  0
 12 13  1  0
 12 14  1  0
 14 15  1  0
 15 16  1  0
 16 17  1  0
 17 18  1  0
 18 19  1  0
 19 20  2  0
 20 21  1  0
 21 22  2  0
 22 23  1  0
 23 24  2  0
 24 25  1  0
 25 26  1  0
 18 27  1  0
 27 28  1  0
  9  3  1  0
 28 15  1  0
 24 19  1  0
  1 29  1  0
  1 30  1  0
  1 31  1  0
  4 32  1  0
  5 33  1  0
  7 34  1  0
  7 35  1  0
  7 36  1  0
  8 37  1  0
 11 38  1  0
 11 39  1  0
 12 40  1  1
 13 41  1  0
 14 42  1  0
 14 43  1  0
 16 44  1  0
 16 45  1  0
 17 46  1  0
 17 47  1  0
 20 48  1  0
 21 49  1  0
 22 50  1  0
 23 51  1  0
 26 52  1  0
 26 53  1  0
 26 54  1  0
 27 55  1  0
 27 56  1  0
 28 57  1  0
 28 58  1  0
M  END
>  <UniqueID>  (23) 
21

>  <SMILES>  (23) 
COc1ccc(C)cc1OC[C@@H](O)CN1CCN(c2ccccc2OC)CC1

>  <Energy>  (23) 
69.86394086976817

>  <Genealogy>  (23) 
COc1ccc(C)cc1OC[C@@H](O)CN1CCN(c2ccccc2OC)CC1 (chirality)
COc1ccc(C)cc1OC[C@@H](O)CN1CCN(c2ccccc2OC)CC1 (3D coordinates assigned)
COc1ccc(C)cc1OC[C@@H](O)CN1CCN(c2ccccc2OC)CC1 (nonaromatic ring conformer: 69.86394086976817 kcal/mol)

>  <smiles>  (23) 
COc1ccc(C)cc1OCC(O)CN1CCN(c2ccccc2OC)CC1

>  <score_type>  (23) 
oracle

>  <origin>  (23) 
adg

>  <m_score__min__energy>  (23) 
-8.6099999999999994

>  <m_primary>  (23) 
energy

$$$$
23:0
     RDKit          3D

 38 39  0  0  0  0  0  0  0  0999 V2000
   -6.5720   25.2560  -29.7140 C   0  0  0  0  0  0  0  0  0  0  0  0
   -5.5470   26.0120  -30.5550 C   0  0  0  0  0  0  0  0  0  0  0  0
   -4.5840   25.0800  -31.1580 N   0  0  0  0  0  0  0  0  0  0  0  0
   -3.9710   24.2110  -30.1450 C   0  0  0  0  0  0  0  0  0  0  0  0
   -4.4270   22.7650  -30.3560 C   0  0  0  0  0  0  0  0  0  0  0  0
   -4.1770   22.3100  -31.8030 C   0  0  0  0  0  0  0  0  0  0  0  0
   -5.2480   22.7400  -32.7210 N   0  0  0  0  0  0  0  0  0  0  0  0
   -6.5160   22.1070  -32.4070 C   0  0  0  0  0  0  0  0  0  0  0  0
   -7.5600   22.9190  -31.9220 C   0  0  0  0  0  0  0  0  0  0  0  0
   -8.8020   22.3820  -31.5970 C   0  0  0  0  0  0  0  0  0  0  0  0
   -9.0370   21.0200  -31.7440 C   0  0  0  0  0  0  0  0  0  0  0  0
   -8.0250   20.1740  -32.2160 C   0  0  0  0  0  0  0  0  0  0  0  0
   -8.2800   18.8000  -32.3520 C   0  0  0  0  0  0  0  0  0  0  0  0
   -7.2840   17.9420  -32.8120 C   0  0  0  0  0  0  0  0  0  0  0  0
   -6.0270   18.4430  -33.1410 C   0  0  0  0  0  0  0  0  0  0  0  0
   -5.7530   19.8070  -33.0140 C   0  0  0  0  0  0  0  0  0  0  0  0
   -6.7460   20.7040  -32.5520 C   0  0  0  0  0  0  0  0  0  0  0  0
   -6.3583   25.4136  -28.6465 H   0  0  0  0  0  0  0  0  0  0  0  0
   -7.5813   25.6276  -29.9447 H   0  0  0  0  0  0  0  0  0  0  0  0
   -6.5151   24.1820  -29.9447 H   0  0  0  0  0  0  0  0  0  0  0  0
   -6.0683   26.5601  -31.3537 H   0  0  0  0  0  0  0  0  0  0  0  0
   -5.0027   26.7129  -29.9050 H   0  0  0  0  0  0  0  0  0  0  0  0
   -3.8180   25.6520  -31.5890 H   0  0  0  0  0  0  0  0  0  0  0  0
   -2.8758   24.2648  -30.2325 H   0  0  0  0  0  0  0  0  0  0  0  0
   -4.2804   24.5465  -29.1441 H   0  0  0  0  0  0  0  0  0  0  0  0
   -3.8687   22.1090  -29.6719 H   0  0  0  0  0  0  0  0  0  0  0  0
   -5.5066   22.7067  -30.1536 H   0  0  0  0  0  0  0  0  0  0  0  0
   -3.2237   22.7371  -32.1478 H   0  0  0  0  0  0  0  0  0  0  0  0
   -4.1519   21.2103  -31.8090 H   0  0  0  0  0  0  0  0  0  0  0  0
   -5.3640   23.7740  -32.6090 H   0  0  0  0  0  0  0  0  0  0  0  0
   -4.9620   22.6110  -33.7140 H   0  0  0  0  0  0  0  0  0  0  0  0
   -7.3901   23.9987  -31.7978 H   0  0  0  0  0  0  0  0  0  0  0  0
   -9.6012   23.0383  -31.2221 H   0  0  0  0  0  0  0  0  0  0  0  0
  -10.0228   20.6042  -31.4884 H   0  0  0  0  0  0  0  0  0  0  0  0
   -9.2714   18.3992  -32.0940 H   0  0  0  0  0  0  0  0  0  0  0  0
   -7.4907   16.8666  -32.9156 H   0  0  0  0  0  0  0  0  0  0  0  0
   -5.2445   17.7601  -33.5033 H   0  0  0  0  0  0  0  0  0  0  0  0
   -4.7549   20.1881  -33.2758 H   0  0  0  0  0  0  0  0  0  0  0  0
  1  2  1  0
  2  3  1  0
  3  4  1  0
  4  5  1  0
  5  6  1  0
  6  7  1  0
  7  8  1  0
  8  9  2  0
  9 10  1  0
 10 11  2  0
 11 12  1  0
 12 13  2  0
 13 14  1  0
 14 15  2  0
 15 16  1  0
 16 17  2  0
 17  8  1  0
 17 12  1  0
  1 18  1  0
  1 19  1  0
  1 20  1  0
  2 21  1  0
  2 22  1  0
  3 23  1  0
  4 24  1  0
  4 25  1  0
  5 26  1  0
  5 27  1  0
  6 28  1  0
  6 29  1  0
  7 30  1  0
  7 31  1  0
  9 32  1  0
 10 33  1  0
 11 34  1  0
 13 35  1  0
 14 36  1  0
 15 37  1  0
 16 38  1  0
M  CHG  1   7   1
M  END
>  <UniqueID>  (24) 
22

>  <SMILES>  (24) 
CCNCCC[NH2+]c1cccc2ccccc12

>  <Energy>  (24) 
39.150478333084344

>  <Genealogy>  (24) 
CCNCCC[NH2+]c1cccc2ccccc12 (protonated)
CCNCCC[NH2+]c1cccc2ccccc12 (3D coordinates assigned)
CCNCCC[NH2+]c1cccc2ccccc12 (optimized conformer: 39.150478333084344 kcal/mol)

>  <smiles>  (24) 
CCNCCCNc1cccc2ccccc12

>  <score_type>  (24) 
oracle

>  <origin>  (24) 
adg

>  <m_score__min__energy>  (24) 
-7.4299999999999997

>  <m_primary>  (24) 
energy

$$$$
24:0
     RDKit          3D

 32 34  0  0  0  0  0  0  0  0999 V2000
   -7.8610   18.4730  -32.1710 C   0  0  0  0  0  0  0  0  0  0  0  0
   -7.3060   19.4280  -33.0670 O   0  0  0  0  0  0  0  0  0  0  0  0
   -5.9340   19.7030  -33.1930 C   0  0  0  0  0  0  0  0  0  0  0  0
   -5.0510   18.7950  -33.8070 C   0  0  0  0  0  0  0  0  0  0  0  0
   -3.6970   19.1050  -33.9450 C   0  0  0  0  0  0  0  0  0  0  0  0
   -3.1970   20.3200  -33.4620 C   0  0  0  0  0  0  0  0  0  0  0  0
   -1.7490   20.6690  -33.6470 C   0  0  0  0  0  0  0  0  0  0  0  0
   -4.0720   21.2350  -32.8620 C   0  0  0  0  0  0  0  0  0  0  0  0
   -5.4360   20.9330  -32.7130 C   0  0  0  0  0  0  0  0  0  0  0  0
   -6.3100   21.8800  -32.0720 N   0  0  0  0  0  0  0  0  0  0  0  0
   -7.6630   21.8100  -31.9430 C   0  0  0  0  0  0  0  0  0  0  0  0
   -8.1760   22.8620  -31.2550 N   0  0  0  0  0  0  0  0  0  0  0  0
   -7.1030   23.6090  -30.9420 C   0  0  0  0  0  0  0  0  0  0  0  0
   -7.0430   24.8130  -30.2500 C   0  0  0  0  0  0  0  0  0  0  0  0
   -5.7710   25.3910  -30.0830 C   0  0  0  0  0  0  0  0  0  0  0  0
   -4.6260   24.7460  -30.6140 C   0  0  0  0  0  0  0  0  0  0  0  0
   -3.4890   25.2650  -30.4680 O   0  0  0  0  0  0  0  0  0  0  0  0
   -4.7480   23.5610  -31.2880 N   0  0  0  0  0  0  0  0  0  0  0  0
   -5.9830   23.0160  -31.4300 C   0  0  0  0  0  0  0  0  0  0  0  0
   -7.6758   18.7917  -31.1346 H   0  0  0  0  0  0  0  0  0  0  0  0
   -8.9448   18.3956  -32.3427 H   0  0  0  0  0  0  0  0  0  0  0  0
   -7.3917   17.4931  -32.3427 H   0  0  0  0  0  0  0  0  0  0  0  0
   -5.4311   17.8330  -34.1812 H   0  0  0  0  0  0  0  0  0  0  0  0
   -3.0194   18.3909  -34.4358 H   0  0  0  0  0  0  0  0  0  0  0  0
   -1.2710   20.7842  -32.6630 H   0  0  0  0  0  0  0  0  0  0  0  0
   -1.2469   19.8661  -34.2068 H   0  0  0  0  0  0  0  0  0  0  0  0
   -1.6678   21.6124  -34.2068 H   0  0  0  0  0  0  0  0  0  0  0  0
   -3.6867   22.2009  -32.5035 H   0  0  0  0  0  0  0  0  0  0  0  0
   -8.2737   20.9912  -32.3512 H   0  0  0  0  0  0  0  0  0  0  0  0
   -9.1760   23.0450  -31.0190 H   0  0  0  0  0  0  0  0  0  0  0  0
   -7.9491   25.2924  -29.8509 H   0  0  0  0  0  0  0  0  0  0  0  0
   -5.6653   26.3423  -29.5410 H   0  0  0  0  0  0  0  0  0  0  0  0
  1  2  1  0
  2  3  1  0
  3  4  2  0
  4  5  1  0
  5  6  2  0
  6  7  1  0
  6  8  1  0
  8  9  2  0
  9 10  1  0
 10 11  1  0
 11 12  2  0
 12 13  1  0
 13 14  1  0
 14 15  2  0
 15 16  1  0
 16 17  2  0
 16 18  1  0
 18 19  1  0
  9  3  1  0
 19 10  1  0
 19 13  2  0
  1 20  1  0
  1 21  1  0
  1 22  1  0
  4 23  1  0
  5 24  1  0
  7 25  1  0
  7 26  1  0
  7 27  1  0
  8 28  1  0
 11 29  1  0
 12 30  1  0
 14 31  1  0
 15 32  1  0
M  CHG  2  12   1  18  -1
M  END
>  <UniqueID>  (25) 
23

>  <SMILES>  (25) 
COc1ccc(C)cc1-n1c[nH+]c2ccc(=O)[n-]c21

>  <Energy>  (25) 
79.87054741177461

>  <Genealogy>  (25) 
COc1ccc(C)cc1-n1c[nH+]c2ccc(=O)[n-]c21 (protonated)
COc1ccc(C)cc1-n1c[nH+]c2ccc(=O)[n-]c21 (3D coordinates assigned)
COc1ccc(C)cc1-n1c[nH+]c2ccc(=O)[n-]c21 (optimized conformer: 79.87054741177461 kcal/mol)

>  <smiles>  (25) 
COc1ccc(C)cc1-n1cnc2ccc(=O)[nH]c21

>  <score_type>  (25) 
oracle

>  <origin>  (25) 
adg

>  <m_score__min__energy>  (25) 
-7.54

>  <m_primary>  (25) 
energy

$$$$
25:0
     RDKit          3D

 55 59  0  0  0  0  0  0  0  0999 V2000
   -0.7387   22.9329  -29.0426 H   0  0  0  0  0  0  0  0  0  0  0  0
   -1.6750   22.3560  -29.0190 C   0  0  0  0  0  0  0  0  0  0  0  0
   -2.7300   22.8610  -29.6710 C   0  0  0  0  0  0  0  0  0  0  0  0
   -3.3238   22.2061  -30.3256 H   0  0  0  0  0  0  0  0  0  0  0  0
   -3.1190   24.3090  -29.5250 C   0  0  0  0  0  0  0  0  0  0  0  0
   -2.4122   24.7982  -28.8386 H   0  0  0  0  0  0  0  0  0  0  0  0
   -3.0902   24.7689  -30.5238 H   0  0  0  0  0  0  0  0  0  0  0  0
   -4.4970   24.4690  -28.9880 N   0  0  0  0  0  0  0  0  0  0  0  0
   -4.4180   24.9730  -28.0710 H   0  0  0  0  0  0  0  0  0  0  0  0
   -5.1350   23.1580  -28.6910 C   0  0  0  0  0  0  0  0  0  0  0  0
   -4.3464   22.4407  -28.4199 H   0  0  0  0  0  0  0  0  0  0  0  0
   -5.8484   23.3243  -27.8704 H   0  0  0  0  0  0  0  0  0  0  0  0
   -5.9350   22.5790  -29.8770 C   0  0  0  0  0  0  0  0  0  0  0  0
   -5.8067   21.4868  -29.9014 H   0  0  0  0  0  0  0  0  0  0  0  0
   -6.9974   22.8331  -29.7475 H   0  0  0  0  0  0  0  0  0  0  0  0
   -5.4600   23.1510  -31.1470 N   0  0  0  0  0  0  0  0  0  0  0  0
   -5.9240   22.4530  -32.3730 C   0  0  0  0  0  0  0  0  0  0  0  0
   -6.0787   23.2758  -33.0865 H   0  0  0  0  0  0  0  0  0  0  0  0
   -4.9310   21.3900  -32.7600 C   0  0  0  0  0  0  0  0  0  0  0  0
   -3.5790   21.5570  -33.0610 C   0  0  0  0  0  0  0  0  0  0  0  0
   -3.1212   22.5572  -33.0533 H   0  0  0  0  0  0  0  0  0  0  0  0
   -2.8150   20.4210  -33.3740 C   0  0  0  0  0  0  0  0  0  0  0  0
   -1.7475   20.5301  -33.6161 H   0  0  0  0  0  0  0  0  0  0  0  0
   -3.4070   19.1420  -33.3800 C   0  0  0  0  0  0  0  0  0  0  0  0
   -2.7992   18.2586  -33.6256 H   0  0  0  0  0  0  0  0  0  0  0  0
   -4.7690   18.9900  -33.0740 C   0  0  0  0  0  0  0  0  0  0  0  0
   -5.2411   17.9965  -33.0764 H   0  0  0  0  0  0  0  0  0  0  0  0
   -5.5070   20.1330  -32.7670 C   0  0  0  0  0  0  0  0  0  0  0  0
   -6.9050   20.2690  -32.4170 C   0  0  0  0  0  0  0  0  0  0  0  0
   -7.9000   19.2950  -32.3220 C   0  0  0  0  0  0  0  0  0  0  0  0
   -7.6690   18.2338  -32.4966 H   0  0  0  0  0  0  0  0  0  0  0  0
   -9.2030   19.7040  -31.9980 C   0  0  0  0  0  0  0  0  0  0  0  0
  -10.0042   18.9562  -31.9039 H   0  0  0  0  0  0  0  0  0  0  0  0
   -9.4890   21.0670  -31.7930 C   0  0  0  0  0  0  0  0  0  0  0  0
  -10.5152   21.3789  -31.5489 H   0  0  0  0  0  0  0  0  0  0  0  0
   -8.4730   22.0320  -31.8980 C   0  0  0  0  0  0  0  0  0  0  0  0
   -8.6958   23.0990  -31.7501 H   0  0  0  0  0  0  0  0  0  0  0  0
   -7.1740   21.6100  -32.1940 C   0  0  0  0  0  0  0  0  0  0  0  0
   -5.6790   24.6090  -31.2100 C   0  0  0  0  0  0  0  0  0  0  0  0
   -5.0256   25.0341  -31.9861 H   0  0  0  0  0  0  0  0  0  0  0  0
   -6.7388   24.7860  -31.4455 H   0  0  0  0  0  0  0  0  0  0  0  0
   -5.3650   25.2950  -29.8600 C   0  0  0  0  0  0  0  0  0  0  0  0
   -4.8566   26.2497  -30.0601 H   0  0  0  0  0  0  0  0  0  0  0  0
   -6.3190   25.4452  -29.3334 H   0  0  0  0  0  0  0  0  0  0  0  0
   -1.6740   21.0750  -28.2660 C   0  0  0  0  0  0  0  0  0  0  0  0
   -2.7560   20.6470  -27.4660 C   0  0  0  0  0  0  0  0  0  0  0  0
   -3.6582   21.2715  -27.3876 H   0  0  0  0  0  0  0  0  0  0  0  0
   -2.6880   19.4330  -26.7720 C   0  0  0  0  0  0  0  0  0  0  0  0
   -3.5349   19.1097  -26.1489 H   0  0  0  0  0  0  0  0  0  0  0  0
   -1.5500   18.6320  -26.8680 C   0  0  0  0  0  0  0  0  0  0  0  0
   -1.4996   17.6795  -26.3201 H   0  0  0  0  0  0  0  0  0  0  0  0
   -0.4750   19.0400  -27.6600 C   0  0  0  0  0  0  0  0  0  0  0  0
    0.4218   18.4077  -27.7368 H   0  0  0  0  0  0  0  0  0  0  0  0
   -0.5370   20.2520  -28.3560 C   0  0  0  0  0  0  0  0  0  0  0  0
    0.3128   20.5647  -28.9805 H   0  0  0  0  0  0  0  0  0  0  0  0
  1  2  1  0
  2  3  2  0
  3  4  1  0
  3  5  1  0
  5  6  1  0
  5  7  1  0
  5  8  1  0
  8  9  1  0
  8 10  1  0
 10 11  1  0
 10 12  1  0
 10 13  1  0
 13 14  1  0
 13 15  1  0
 13 16  1  0
 16 17  1  0
 17 18  1  0
 17 19  1  0
 19 20  2  0
 20 21  1  0
 20 22  1  0
 22 23  1  0
 22 24  2  0
 24 25  1  0
 24 26  1  0
 26 27  1  0
 26 28  2  0
 28 29  1  0
 29 30  2  0
 30 31  1  0
 30 32  1  0
 32 33  1  0
 32 34  2  0
 34 35  1  0
 34 36  1  0
 36 37  1  0
 36 38  2  0
 16 39  1  0
 39 40  1  0
 39 41  1  0
 39 42  1  0
 42 43  1  0
 42 44  1  0
  2 45  1  0
 45 46  2  0
 46 47  1  0
 46 48  1  0
 48 49  1  0
 48 50  2  0
 50 51  1  0
 50 52  1  0
 52 53  1  0
 52 54  2  0
 54 55  1  0
 42  8  1  0
 54 45  1  0
 38 17  1  0
 28 19  1  0
 38 29  1  0
M  CHG  1   8   1
M  END
>  <UniqueID>  (26) 
24

>  <SMILES>  (26) 
C(=C/c1ccccc1)\C[NH+]1CCN(C2c3ccccc3-c3ccccc32)CC1

>  <Energy>  (26) 
99.85307750910553

>  <Genealogy>  (26) 
C(=Cc1ccccc1)C[NH+]1CCN(C2c3ccccc3-c3ccccc32)CC1 (protonated)
C(=C/c1ccccc1)\C[NH+]1CCN(C2c3ccccc3-c3ccccc32)CC1 (cis-trans isomerization)
C(=C/c1ccccc1)\C[NH+]1CCN(C2c3ccccc3-c3ccccc32)CC1 (3D coordinates assigned)
C(=C/c1ccccc1)\C[NH+]1CCN(C2c3ccccc3-c3ccccc32)CC1 (nonaromatic ring conformer: 99.85307750910553 kcal/mol)

>  <smiles>  (26) 
C(=Cc1ccccc1)CN1CCN(C2c3ccccc3-c3ccccc32)CC1

>  <score_type>  (26) 
oracle

>  <origin>  (26) 
adg

>  <m_score__min__energy>  (26) 
-8.8499999999999996

>  <m_primary>  (26) 
energy

$$$$
26:0
     RDKit          3D

 67 70  0  0  0  0  0  0  0  0999 V2000
   -4.9820   18.0090  -32.3470 C   0  0  0  0  0  0  0  0  0  0  0  0
   -4.7930   18.8170  -33.5670 N   0  0  0  0  0  0  0  0  0  0  0  0
   -6.0880   19.0910  -34.2290 C   0  0  0  0  0  0  0  0  0  0  0  0
   -7.1190   19.4870  -33.2070 C   0  0  0  0  0  0  0  0  0  0  0  0
   -7.2610   20.8370  -32.8420 C   0  0  0  0  0  0  0  0  0  0  0  0
   -8.2280   21.2150  -31.9070 C   0  0  0  0  0  0  0  0  0  0  0  0
   -9.0620   20.2520  -31.3310 C   0  0  0  0  0  0  0  0  0  0  0  0
   -8.9290   18.9070  -31.6920 C   0  0  0  0  0  0  0  0  0  0  0  0
   -7.9630   18.5250  -32.6280 C   0  0  0  0  0  0  0  0  0  0  0  0
   -3.9600   20.0230  -33.3020 C   0  0  2  0  0  0  0  0  0  0  0  0
   -2.4230   19.7900  -33.4100 C   0  0  0  0  0  0  0  0  0  0  0  0
   -1.7210   19.7520  -32.0400 C   0  0  0  0  0  0  0  0  0  0  0  0
   -2.0080   20.9370  -31.1750 N   0  0  1  0  0  0  0  0  0  0  0  0
   -0.8720   21.8930  -31.1560 C   0  0  0  0  0  0  0  0  0  0  0  0
   -0.6970   22.5850  -29.7830 C   0  0  0  0  0  0  0  0  0  0  0  0
   -1.8550   22.3220  -28.8080 C   0  0  0  0  0  0  0  0  0  0  0  0
   -2.7100   23.5070  -28.6160 N   0  0  0  0  0  0  0  0  0  0  0  0
   -2.2110   24.5780  -27.7980 C   0  0  0  0  0  0  0  0  0  0  0  0
   -2.7460   24.8150  -26.5230 C   0  0  0  0  0  0  0  0  0  0  0  0
   -2.2630   25.8700  -25.7440 C   0  0  0  0  0  0  0  0  0  0  0  0
   -1.2430   26.6930  -26.2340 C   0  0  0  0  0  0  0  0  0  0  0  0
   -0.7770   27.7160  -25.4780 F   0  0  0  0  0  0  0  0  0  0  0  0
   -0.7080   26.4610  -27.5040 C   0  0  0  0  0  0  0  0  0  0  0  0
   -1.1930   25.4090  -28.2870 C   0  0  0  0  0  0  0  0  0  0  0  0
   -3.9930   23.6650  -29.2700 C   0  0  0  0  0  0  0  0  0  0  0  0
   -4.2140   24.7560  -30.1340 C   0  0  0  0  0  0  0  0  0  0  0  0
   -5.4480   24.9300  -30.7650 C   0  0  0  0  0  0  0  0  0  0  0  0
   -6.4760   24.0100  -30.5550 C   0  0  0  0  0  0  0  0  0  0  0  0
   -7.6730   24.1790  -31.1690 F   0  0  0  0  0  0  0  0  0  0  0  0
   -6.2680   22.9100  -29.7200 C   0  0  0  0  0  0  0  0  0  0  0  0
   -5.0350   22.7330  -29.0840 C   0  0  0  0  0  0  0  0  0  0  0  0
   -3.2600   21.6540  -31.5300 C   0  0  0  0  0  0  0  0  0  0  0  0
   -4.3590   20.6850  -31.9690 C   0  0  0  0  0  0  0  0  0  0  0  0
   -4.8337   18.6432  -31.4606 H   0  0  0  0  0  0  0  0  0  0  0  0
   -6.0012   17.5953  -32.3354 H   0  0  0  0  0  0  0  0  0  0  0  0
   -4.2521   17.1861  -32.3354 H   0  0  0  0  0  0  0  0  0  0  0  0
   -5.9604   19.9095  -34.9527 H   0  0  0  0  0  0  0  0  0  0  0  0
   -6.4263   18.1816  -34.7473 H   0  0  0  0  0  0  0  0  0  0  0  0
   -6.6085   21.5985  -33.2941 H   0  0  0  0  0  0  0  0  0  0  0  0
   -8.3334   22.2726  -31.6235 H   0  0  0  0  0  0  0  0  0  0  0  0
   -9.8221   20.5517  -30.5945 H   0  0  0  0  0  0  0  0  0  0  0  0
   -9.5851   18.1491  -31.2390 H   0  0  0  0  0  0  0  0  0  0  0  0
   -7.8636   17.4670  -32.9120 H   0  0  0  0  0  0  0  0  0  0  0  0
   -4.1826   20.7241  -34.1199 H   0  0  0  0  0  0  0  0  0  0  0  0
   -2.2491   18.8307  -33.9194 H   0  0  0  0  0  0  0  0  0  0  0  0
   -2.0012   20.6365  -33.9718 H   0  0  0  0  0  0  0  0  0  0  0  0
   -2.0507   18.8476  -31.5077 H   0  0  0  0  0  0  0  0  0  0  0  0
   -0.6389   19.7575  -32.2374 H   0  0  0  0  0  0  0  0  0  0  0  0
   -2.1420   20.5780  -30.2020 H   0  0  0  0  0  0  0  0  0  0  0  0
    0.0521   21.3463  -31.3949 H   0  0  0  0  0  0  0  0  0  0  0  0
   -1.0845   22.6764  -31.8983 H   0  0  0  0  0  0  0  0  0  0  0  0
    0.2332   22.2178  -29.3249 H   0  0  0  0  0  0  0  0  0  0  0  0
   -0.6730   23.6688  -29.9695 H   0  0  0  0  0  0  0  0  0  0  0  0
   -2.4717   21.5024  -29.2054 H   0  0  0  0  0  0  0  0  0  0  0  0
   -1.4185   22.0626  -27.8322 H   0  0  0  0  0  0  0  0  0  0  0  0
   -3.5475   24.1689  -26.1355 H   0  0  0  0  0  0  0  0  0  0  0  0
   -2.6850   26.0535  -24.7449 H   0  0  0  0  0  0  0  0  0  0  0  0
    0.0955   27.1067  -27.8881 H   0  0  0  0  0  0  0  0  0  0  0  0
   -0.7749   25.2329  -29.2891 H   0  0  0  0  0  0  0  0  0  0  0  0
   -3.4050   25.4794  -30.3137 H   0  0  0  0  0  0  0  0  0  0  0  0
   -5.6095   25.7928  -31.4279 H   0  0  0  0  0  0  0  0  0  0  0  0
   -7.0762   22.1807  -29.5621 H   0  0  0  0  0  0  0  0  0  0  0  0
   -4.8767   21.8601  -28.4337 H   0  0  0  0  0  0  0  0  0  0  0  0
   -3.6102   22.2168  -30.6522 H   0  0  0  0  0  0  0  0  0  0  0  0
   -3.0426   22.3307  -32.3696 H   0  0  0  0  0  0  0  0  0  0  0  0
   -4.4923   19.9096  -31.2003 H   0  0  0  0  0  0  0  0  0  0  0  0
   -5.3015   21.2364  -32.1019 H   0  0  0  0  0  0  0  0  0  0  0  0
  1  2  1  0
  2  3  1  0
  3  4  1  0
  4  5  2  0
  5  6  1  0
  6  7  2  0
  7  8  1  0
  8  9  2  0
  2 10  1  0
 10 11  1  0
 11 12  1  0
 12 13  1  0
 13 14  1  0
 14 15  1  0
 15 16  1  0
 16 17  1  0
 17 18  1  0
 18 19  2  0
 19 20  1  0
 20 21  2  0
 21 22  1  0
 21 23  1  0
 23 24  2  0
 17 25  1  0
 25 26  2  0
 26 27  1  0
 27 28  2  0
 28 29  1  0
 28 30  1  0
 30 31  2  0
 13 32  1  0
 32 33  1  0
  9  4  1  0
 33 10  1  0
 24 18  1  0
 31 25  1  0
  1 34  1  0
  1 35  1  0
  1 36  1  0
  3 37  1  0
  3 38  1  0
  5 39  1  0
  6 40  1  0
  7 41  1  0
  8 42  1  0
  9 43  1  0
 10 44  1  6
 11 45  1  0
 11 46  1  0
 12 47  1  0
 12 48  1  0
 13 49  1  1
 14 50  1  0
 14 51  1  0
 15 52  1  0
 15 53  1  0
 16 54  1  0
 16 55  1  0
 19 56  1  0
 20 57  1  0
 23 58  1  0
 24 59  1  0
 26 60  1  0
 27 61  1  0
 30 62  1  0
 31 63  1  0
 32 64  1  0
 32 65  1  0
 33 66  1  0
 33 67  1  0
M  CHG  1  13   1
M  END
>  <UniqueID>  (27) 
25

>  <SMILES>  (27) 
CN(Cc1ccccc1)C1CC[NH+](CCCN(c2ccc(F)cc2)c2ccc(F)cc2)CC1

>  <Energy>  (27) 
94.08300841810359

>  <Genealogy>  (27) 
CN(Cc1ccccc1)C1CC[NH+](CCCN(c2ccc(F)cc2)c2ccc(F)cc2)CC1 (protonated)
CN(Cc1ccccc1)C1CC[NH+](CCCN(c2ccc(F)cc2)c2ccc(F)cc2)CC1 (3D coordinates assigned)
CN(Cc1ccccc1)C1CC[NH+](CCCN(c2ccc(F)cc2)c2ccc(F)cc2)CC1 (nonaromatic ring conformer: 94.08300841810359 kcal/mol)

>  <smiles>  (27) 
CN(Cc1ccccc1)C1CCN(CCCN(c2ccc(F)cc2)c2ccc(F)cc2)CC1

>  <score_type>  (27) 
oracle

>  <origin>  (27) 
adg

>  <m_score__min__energy>  (27) 
-8.75

>  <m_primary>  (27) 
energy

$$$$
27:0
     RDKit          3D

 51 53  0  0  0  0  0  0  0  0999 V2000
   -0.7610   22.8110  -26.0900 C   0  0  0  0  0  0  0  0  0  0  0  0
    0.1150   23.9640  -26.5670 C   0  0  0  0  0  0  0  0  0  0  0  0
   -0.5680   25.2640  -26.4440 N   0  0  0  0  0  0  0  0  0  0  0  0
   -1.6600   25.3220  -25.4450 C   0  0  0  0  0  0  0  0  0  0  0  0
   -3.0760   25.3110  -26.0400 C   0  0  0  0  0  0  0  0  0  0  0  0
   -0.7950   26.0460  -27.6840 C   0  0  0  0  0  0  0  0  0  0  0  0
   -1.0440   25.2120  -28.9490 C   0  0  0  0  0  0  0  0  0  0  0  0
   -2.4480   25.2650  -29.3440 N   0  0  0  0  0  0  0  0  0  0  0  0
   -3.3520   24.1650  -29.1950 C   0  0  0  0  0  0  0  0  0  0  0  0
   -3.0430   23.2060  -28.4330 O   0  0  0  0  0  0  0  0  0  0  0  0
   -4.6080   24.1040  -29.9640 C   0  0  0  0  0  0  0  0  0  0  0  0
   -5.5950   25.0260  -29.5850 C   0  0  0  0  0  0  0  0  0  0  0  0
   -6.8850   24.9450  -30.0950 C   0  0  0  0  0  0  0  0  0  0  0  0
   -7.2240   23.9310  -30.9830 C   0  0  0  0  0  0  0  0  0  0  0  0
   -6.2610   23.0020  -31.4000 C   0  0  0  0  0  0  0  0  0  0  0  0
   -6.6520   21.9820  -32.2830 C   0  0  0  0  0  0  0  0  0  0  0  0
   -5.7110   21.0590  -32.7140 C   0  0  0  0  0  0  0  0  0  0  0  0
   -4.3970   21.1500  -32.3410 C   0  0  0  0  0  0  0  0  0  0  0  0
   -3.9390   22.1730  -31.4790 C   0  0  0  0  0  0  0  0  0  0  0  0
   -2.4550   22.2920  -31.2190 C   0  0  0  0  0  0  0  0  0  0  0  0
   -4.9070   23.0930  -30.9380 C   0  0  0  0  0  0  0  0  0  0  0  0
   -3.5930   20.0620  -32.9710 C   0  0  0  0  0  0  0  0  0  0  0  0
   -4.6100   19.2300  -33.7780 C   0  0  0  0  0  0  0  0  0  0  0  0
   -5.9790   19.9090  -33.6100 C   0  0  0  0  0  0  0  0  0  0  0  0
   -0.7754   22.7921  -24.9903 H   0  0  0  0  0  0  0  0  0  0  0  0
   -1.7850   22.9479  -26.4678 H   0  0  0  0  0  0  0  0  0  0  0  0
   -0.3547   21.8612  -26.4678 H   0  0  0  0  0  0  0  0  0  0  0  0
    1.0331   23.9865  -25.9615 H   0  0  0  0  0  0  0  0  0  0  0  0
    0.3435   23.7996  -27.6304 H   0  0  0  0  0  0  0  0  0  0  0  0
   -1.5615   24.4521  -24.7790 H   0  0  0  0  0  0  0  0  0  0  0  0
   -1.5508   26.2830  -24.9211 H   0  0  0  0  0  0  0  0  0  0  0  0
   -3.8158   25.3053  -25.2259 H   0  0  0  0  0  0  0  0  0  0  0  0
   -3.2201   26.2081  -26.6601 H   0  0  0  0  0  0  0  0  0  0  0  0
   -3.2062   24.4118  -26.6601 H   0  0  0  0  0  0  0  0  0  0  0  0
   -1.6719   26.6904  -27.5237 H   0  0  0  0  0  0  0  0  0  0  0  0
    0.1349   26.6047  -27.8660 H   0  0  0  0  0  0  0  0  0  0  0  0
   -0.4250   25.6074  -29.7679 H   0  0  0  0  0  0  0  0  0  0  0  0
   -0.7798   24.1657  -28.7359 H   0  0  0  0  0  0  0  0  0  0  0  0
   -5.3437   25.8258  -28.8728 H   0  0  0  0  0  0  0  0  0  0  0  0
   -7.6405   25.6860  -29.7949 H   0  0  0  0  0  0  0  0  0  0  0  0
   -8.2544   23.8571  -31.3608 H   0  0  0  0  0  0  0  0  0  0  0  0
   -7.6940   21.9160  -32.6291 H   0  0  0  0  0  0  0  0  0  0  0  0
   -2.2728   22.3066  -30.1343 H   0  0  0  0  0  0  0  0  0  0  0  0
   -1.9342   21.4327  -31.6667 H   0  0  0  0  0  0  0  0  0  0  0  0
   -2.0778   23.2233  -31.6667 H   0  0  0  0  0  0  0  0  0  0  0  0
   -2.8249   20.4842  -33.6356 H   0  0  0  0  0  0  0  0  0  0  0  0
   -3.0628   19.4541  -32.2231 H   0  0  0  0  0  0  0  0  0  0  0  0
   -4.3251   19.2117  -34.8403 H   0  0  0  0  0  0  0  0  0  0  0  0
   -4.6402   18.1906  -33.4191 H   0  0  0  0  0  0  0  0  0  0  0  0
   -6.3648   20.2533  -34.5809 H   0  0  0  0  0  0  0  0  0  0  0  0
   -6.7389   19.2266  -33.2015 H   0  0  0  0  0  0  0  0  0  0  0  0
  1  2  1  0
  2  3  1  0
  3  4  1  0
  4  5  1  0
  3  6  1  0
  6  7  1  0
  7  8  1  0
  8  9  1  0
  9 10  2  0
  9 11  1  0
 11 12  2  0
 12 13  1  0
 13 14  2  0
 14 15  1  0
 15 16  2  0
 16 17  1  0
 17 18  2  0
 18 19  1  0
 19 20  1  0
 19 21  2  0
 18 22  1  0
 22 23  1  0
 23 24  1  0
 21 11  1  0
 21 15  1  0
 24 17  1  0
  1 25  1  0
  1 26  1  0
  1 27  1  0
  2 28  1  0
  2 29  1  0
  4 30  1  0
  4 31  1  0
  5 32  1  0
  5 33  1  0
  5 34  1  0
  6 35  1  0
  6 36  1  0
  7 37  1  0
  7 38  1  0
 12 39  1  0
 13 40  1  0
 14 41  1  0
 16 42  1  0
 20 43  1  0
 20 44  1  0
 20 45  1  0
 22 46  1  0
 22 47  1  0
 23 48  1  0
 23 49  1  0
 24 50  1  0
 24 51  1  0
M  CHG  1   8  -1
M  END
>  <UniqueID>  (28) 
26

>  <SMILES>  (28) 
CCN(CC)CC[N-]C(=O)c1cccc2cc3c(c(C)c12)CCC3

>  <Energy>  (28) 
81.99486616514206

>  <Genealogy>  (28) 
CCN(CC)CC[N-]C(=O)c1cccc2cc3c(c(C)c12)CCC3 (protonated)
CCN(CC)CC[N-]C(=O)c1cccc2cc3c(c(C)c12)CCC3 (3D coordinates assigned)
CCN(CC)CC[N-]C(=O)c1cccc2cc3c(c(C)c12)CCC3 (nonaromatic ring conformer: 81.99486616514206 kcal/mol)

>  <smiles>  (28) 
CCN(CC)CCNC(=O)c1cccc2cc3c(c(C)c12)CCC3

>  <score_type>  (28) 
oracle

>  <origin>  (28) 
adg

>  <m_score__min__energy>  (28) 
-9.9499999999999993

>  <m_primary>  (28) 
energy

$$$$
28:0
     RDKit          3D

 31 32  0  0  0  0  0  0  0  0999 V2000
   -7.9833   19.5171  -32.6320 H   0  0  0  0  0  0  0  0  0  0  0  0
   -7.6580   20.5050  -32.2740 C   0  0  0  0  0  0  0  0  0  0  0  0
   -8.4210   21.1900  -31.3240 C   0  0  0  0  0  0  0  0  0  0  0  0
   -9.3479   20.7415  -30.9370 H   0  0  0  0  0  0  0  0  0  0  0  0
   -8.0080   22.4440  -30.8650 C   0  0  0  0  0  0  0  0  0  0  0  0
   -8.6123   22.9809  -30.1190 H   0  0  0  0  0  0  0  0  0  0  0  0
   -6.8240   23.0210  -31.3530 C   0  0  0  0  0  0  0  0  0  0  0  0
   -6.3980   24.3840  -30.8750 C   0  0  0  0  0  0  0  0  0  0  0  0
   -6.5428   24.4469  -29.7864 H   0  0  0  0  0  0  0  0  0  0  0  0
   -7.0074   25.1449  -31.3846 H   0  0  0  0  0  0  0  0  0  0  0  0
   -4.9890   24.6220  -31.1870 N   0  0  0  0  0  0  0  0  0  0  0  0
   -3.9850   24.1590  -30.5000 C   0  0  0  0  0  0  0  0  0  0  0  0
   -3.6660   22.8370  -30.5400 N   0  0  0  0  0  0  0  0  0  0  0  0
   -2.6150   22.3400  -29.8390 C   0  0  0  0  0  0  0  0  0  0  0  0
   -2.2850   20.8830  -29.9250 C   0  0  0  0  0  0  0  0  0  0  0  0
   -2.1910   20.4679  -28.9107 H   0  0  0  0  0  0  0  0  0  0  0  0
   -3.0867   20.3566  -30.4638 H   0  0  0  0  0  0  0  0  0  0  0  0
   -1.3348   20.7534  -30.4638 H   0  0  0  0  0  0  0  0  0  0  0  0
   -1.8430   23.1980  -29.0540 C   0  0  0  0  0  0  0  0  0  0  0  0
   -0.9799   22.8169  -28.4885 H   0  0  0  0  0  0  0  0  0  0  0  0
   -2.1890   24.5520  -29.0010 C   0  0  0  0  0  0  0  0  0  0  0  0
   -1.3580   25.5090  -28.1980 C   0  0  0  0  0  0  0  0  0  0  0  0
   -1.5188   25.3238  -27.1257 H   0  0  0  0  0  0  0  0  0  0  0  0
   -0.2948   25.3635  -28.4398 H   0  0  0  0  0  0  0  0  0  0  0  0
   -1.6511   26.5413  -28.4398 H   0  0  0  0  0  0  0  0  0  0  0  0
   -3.2430   25.0090  -29.7350 N   0  0  0  0  0  0  0  0  0  0  0  0
   -3.4870   26.0260  -29.7150 H   0  0  0  0  0  0  0  0  0  0  0  0
   -6.0640   22.3290  -32.3120 C   0  0  0  0  0  0  0  0  0  0  0  0
   -5.1380   22.7750  -32.7040 H   0  0  0  0  0  0  0  0  0  0  0  0
   -6.4820   21.0750  -32.7690 C   0  0  0  0  0  0  0  0  0  0  0  0
   -5.8842   20.5366  -33.5192 H   0  0  0  0  0  0  0  0  0  0  0  0
  1  2  1  0
  2  3  2  0
  3  4  1  0
  3  5  1  0
  5  6  1  0
  5  7  2  0
  7  8  1  0
  8  9  1  0
  8 10  1  0
  8 11  1  0
 11 12  2  0
 12 13  1  0
 13 14  2  0
 14 15  1  0
 15 16  1  0
 15 17  1  0
 15 18  1  0
 14 19  1  0
 19 20  1  0
 19 21  2  0
 21 22  1  0
 22 23  1  0
 22 24  1  0
 22 25  1  0
 21 26  1  0
 26 27  1  0
  7 28  1  0
 28 29  1  0
 28 30  2  0
 30 31  1  0
 30  2  1  0
 26 12  1  0
M  END
>  <UniqueID>  (29) 
27

>  <SMILES>  (29) 
Cc1cc(C)[nH]/c(=N/Cc2ccccc2)n1

>  <Energy>  (29) 
28.328373171447563

>  <Genealogy>  (29) 
Cc1cc(C)[nH]/c(=N/Cc2ccccc2)n1 (cis-trans isomerization)
Cc1cc(C)[nH]/c(=N/Cc2ccccc2)n1 (3D coordinates assigned)
Cc1cc(C)[nH]/c(=N/Cc2ccccc2)n1 (optimized conformer: 28.328373171447563 kcal/mol)

>  <smiles>  (29) 
Cc1cc(C)[nH]c(=NCc2ccccc2)n1

>  <score_type>  (29) 
oracle

>  <origin>  (29) 
adg

>  <m_score__min__energy>  (29) 
-6.7300000000000004

>  <m_primary>  (29) 
energy

$$$$
29:0
     RDKit          3D

 39 40  0  0  0  0  0  0  0  0999 V2000
   -9.8250   21.5510  -31.5880 C   0  0  0  0  0  0  0  0  0  0  0  0
   -8.7160   20.6320  -31.9890 C   0  0  0  0  0  0  0  0  0  0  0  0
   -8.7400   19.2850  -31.6230 C   0  0  0  0  0  0  0  0  0  0  0  0
   -7.6750   18.4620  -31.9810 C   0  0  0  0  0  0  0  0  0  0  0  0
   -6.5890   19.0090  -32.6850 C   0  0  0  0  0  0  0  0  0  0  0  0
   -5.4520   18.2650  -33.0440 O   0  0  0  0  0  0  0  0  0  0  0  0
   -4.4300   18.6680  -33.9580 C   0  0  0  0  0  0  0  0  0  0  0  0
   -3.3400   19.5070  -33.2640 C   0  0  0  0  0  0  0  0  0  0  0  0
   -3.8670   20.3710  -32.1910 N   0  0  0  0  0  0  0  0  0  0  0  0
   -3.8640   21.7930  -32.5720 C   0  0  0  0  0  0  0  0  0  0  0  0
   -4.5120   22.6670  -31.4800 C   0  0  2  0  0  0  0  0  0  0  0  0
   -5.7110   23.4490  -32.0380 C   0  0  0  0  0  0  0  0  0  0  0  0
   -6.3520   24.3070  -30.9370 C   0  0  0  0  0  0  0  0  0  0  0  0
   -5.3030   24.8070  -29.9280 C   0  0  0  0  0  0  0  0  0  0  0  0
   -4.0360   24.9270  -30.5440 O   0  0  0  0  0  0  0  0  0  0  0  0
   -3.4940   23.6440  -30.8220 C   0  0  0  0  0  0  0  0  0  0  0  0
   -6.6330   20.3220  -33.0320 N   0  0  0  0  0  0  0  0  0  0  0  0
   -7.6560   21.1090  -32.6920 N   0  0  0  0  0  0  0  0  0  0  0  0
   -9.8828   21.5989  -30.4906 H   0  0  0  0  0  0  0  0  0  0  0  0
   -9.6310   22.5567  -31.9892 H   0  0  0  0  0  0  0  0  0  0  0  0
  -10.7771   21.1736  -31.9892 H   0  0  0  0  0  0  0  0  0  0  0  0
   -9.5913   18.8779  -31.0577 H   0  0  0  0  0  0  0  0  0  0  0  0
   -7.6840   17.3946  -31.7153 H   0  0  0  0  0  0  0  0  0  0  0  0
   -3.9659   17.7699  -34.3917 H   0  0  0  0  0  0  0  0  0  0  0  0
   -4.8945   19.2890  -34.7381 H   0  0  0  0  0  0  0  0  0  0  0  0
   -2.5965   18.8231  -32.8287 H   0  0  0  0  0  0  0  0  0  0  0  0
   -2.8990   20.1654  -34.0269 H   0  0  0  0  0  0  0  0  0  0  0  0
   -4.8240   20.0570  -31.9100 H   0  0  0  0  0  0  0  0  0  0  0  0
   -2.8251   22.1210  -32.7238 H   0  0  0  0  0  0  0  0  0  0  0  0
   -4.4470   21.9055  -33.4980 H   0  0  0  0  0  0  0  0  0  0  0  0
   -4.8664   21.9801  -30.6973 H   0  0  0  0  0  0  0  0  0  0  0  0
   -5.3689   24.1029  -32.8537 H   0  0  0  0  0  0  0  0  0  0  0  0
   -6.4585   22.7347  -32.4134 H   0  0  0  0  0  0  0  0  0  0  0  0
   -6.8435   25.1748  -31.4010 H   0  0  0  0  0  0  0  0  0  0  0  0
   -7.0815   23.6859  -30.3967 H   0  0  0  0  0  0  0  0  0  0  0  0
   -5.6120   25.7899  -29.5428 H   0  0  0  0  0  0  0  0  0  0  0  0
   -5.2292   24.0811  -29.1048 H   0  0  0  0  0  0  0  0  0  0  0  0
   -2.6398   23.7676  -31.5040 H   0  0  0  0  0  0  0  0  0  0  0  0
   -3.1994   23.2024  -29.8586 H   0  0  0  0  0  0  0  0  0  0  0  0
  1  2  1  0
  2  3  2  0
  3  4  1  0
  4  5  2  0
  5  6  1  0
  6  7  1  0
  7  8  1  0
  8  9  1  0
  9 10  1  0
 10 11  1  0
 11 12  1  0
 12 13  1  0
 13 14  1  0
 14 15  1  0
 15 16  1  0
  5 17  1  0
 17 18  2  0
 18  2  1  0
 16 11  1  0
  1 19  1  0
  1 20  1  0
  1 21  1  0
  3 22  1  0
  4 23  1  0
  7 24  1  0
  7 25  1  0
  8 26  1  0
  8 27  1  0
  9 28  1  0
 10 29  1  0
 10 30  1  0
 11 31  1  1
 12 32  1  0
 12 33  1  0
 13 34  1  0
 13 35  1  0
 14 36  1  0
 14 37  1  0
 16 38  1  0
 16 39  1  0
M  END
>  <UniqueID>  (30) 
28

>  <SMILES>  (30) 
Cc1ccc(OCCNC[C@@H]2CCCOC2)nn1

>  <Energy>  (30) 
44.05183851413558

>  <Genealogy>  (30) 
Cc1ccc(OCCNC[C@@H]2CCCOC2)nn1 (chirality)
Cc1ccc(OCCNC[C@@H]2CCCOC2)nn1 (3D coordinates assigned)
Cc1ccc(OCCNC[C@@H]2CCCOC2)nn1 (nonaromatic ring conformer: 44.05183851413558 kcal/mol)

>  <smiles>  (30) 
Cc1ccc(OCCNCC2CCCOC2)nn1

>  <score_type>  (30) 
oracle

>  <origin>  (30) 
adg

>  <m_score__min__energy>  (30) 
-6.7000000000000002

>  <m_primary>  (30) 
energy

$$$$
31:0
     RDKit          3D

 33 34  0  0  0  0  0  0  0  0999 V2000
   -5.2420   25.6630  -30.4950 C   0  0  0  0  0  0  0  0  0  0  0  0
   -3.8660   25.2980  -30.5050 O   0  0  0  0  0  0  0  0  0  0  0  0
   -3.3420   24.1490  -29.8900 C   0  0  0  0  0  0  0  0  0  0  0  0
   -2.4700   24.2290  -28.7850 C   0  0  0  0  0  0  0  0  0  0  0  0
   -1.9660   23.0670  -28.1960 C   0  0  0  0  0  0  0  0  0  0  0  0
   -2.3170   21.8170  -28.7050 C   0  0  0  0  0  0  0  0  0  0  0  0
   -3.1790   21.7230  -29.7980 C   0  0  0  0  0  0  0  0  0  0  0  0
   -3.7110   22.8830  -30.3900 C   0  0  0  0  0  0  0  0  0  0  0  0
   -4.5770   22.7930  -31.5350 N   0  0  0  0  0  0  0  0  0  0  0  0
   -5.9960   22.5920  -31.4470 C   0  0  0  0  0  0  0  0  0  0  0  0
   -6.6020   22.7690  -30.3550 O   0  0  0  0  0  0  0  0  0  0  0  0
   -6.7730   22.1870  -32.6640 C   0  0  0  0  0  0  0  0  0  0  0  0
   -7.2030   20.7440  -32.5540 C   0  0  0  0  0  0  0  0  0  0  0  0
   -6.3730   19.7220  -33.0590 C   0  0  0  0  0  0  0  0  0  0  0  0
   -5.1990   20.0200  -33.6720 F   0  0  0  0  0  0  0  0  0  0  0  0
   -6.7470   18.3810  -32.9360 C   0  0  0  0  0  0  0  0  0  0  0  0
   -7.9420   18.0410  -32.3040 C   0  0  0  0  0  0  0  0  0  0  0  0
   -8.7700   19.0400  -31.7900 C   0  0  0  0  0  0  0  0  0  0  0  0
   -8.4090   20.3880  -31.9060 C   0  0  0  0  0  0  0  0  0  0  0  0
   -9.4900   21.5980  -31.2220 Cl  0  0  0  0  0  0  0  0  0  0  0  0
   -5.5894   25.7551  -29.4554 H   0  0  0  0  0  0  0  0  0  0  0  0
   -5.3696   26.6261  -31.0110 H   0  0  0  0  0  0  0  0  0  0  0  0
   -5.8302   24.8898  -31.0110 H   0  0  0  0  0  0  0  0  0  0  0  0
   -2.1847   25.2128  -28.3841 H   0  0  0  0  0  0  0  0  0  0  0  0
   -1.2916   23.1380  -27.3299 H   0  0  0  0  0  0  0  0  0  0  0  0
   -1.9135   20.9035  -28.2439 H   0  0  0  0  0  0  0  0  0  0  0  0
   -3.4447   20.7342  -30.2000 H   0  0  0  0  0  0  0  0  0  0  0  0
   -4.1630   22.9280  -32.4840 H   0  0  0  0  0  0  0  0  0  0  0  0
   -7.6642   22.8254  -32.7548 H   0  0  0  0  0  0  0  0  0  0  0  0
   -6.1343   22.3037  -33.5519 H   0  0  0  0  0  0  0  0  0  0  0  0
   -6.0962   17.5912  -33.3393 H   0  0  0  0  0  0  0  0  0  0  0  0
   -8.2327   16.9843  -32.2103 H   0  0  0  0  0  0  0  0  0  0  0  0
   -9.7115   18.7669  -31.2910 H   0  0  0  0  0  0  0  0  0  0  0  0
  1  2  1  0
  2  3  1  0
  3  4  2  0
  4  5  1  0
  5  6  2  0
  6  7  1  0
  7  8  2  0
  8  9  1  0
  9 10  1  0
 10 11  2  0
 10 12  1  0
 12 13  1  0
 13 14  2  0
 14 15  1  0
 14 16  1  0
 16 17  2  0
 17 18  1  0
 18 19  2  0
 19 20  1  0
  8  3  1  0
 19 13  1  0
  1 21  1  0
  1 22  1  0
  1 23  1  0
  4 24  1  0
  5 25  1  0
  6 26  1  0
  7 27  1  0
  9 28  1  0
 12 29  1  0
 12 30  1  0
 16 31  1  0
 17 32  1  0
 18 33  1  0
M  END
>  <UniqueID>  (31) 
29

>  <SMILES>  (31) 
COc1ccccc1NC(=O)Cc1c(F)cccc1Cl

>  <Energy>  (31) 
36.50012922295602

>  <Genealogy>  (31) 
COc1ccccc1NC(=O)Cc1c(F)cccc1Cl (3D coordinates assigned)
COc1ccccc1NC(=O)Cc1c(F)cccc1Cl (optimized conformer: 36.50012922295602 kcal/mol)

>  <smiles>  (31) 
COc1ccccc1NC(=O)Cc1c(F)cccc1Cl

>  <score_type>  (31) 
oracle

>  <origin>  (31) 
adg

>  <m_score__min__energy>  (31) 
-7.8300000000000001

>  <m_primary>  (31) 
energy

$$$$
32:0
     RDKit          3D

 42 43  0  0  0  0  0  0  0  0999 V2000
   -2.9100   19.8660  -33.4040 C   0  0  0  0  0  0  0  0  0  0  0  0
   -3.8120   20.4120  -32.4460 O   0  0  0  0  0  0  0  0  0  0  0  0
   -3.4910   21.4350  -31.5400 C   0  0  0  0  0  0  0  0  0  0  0  0
   -2.4930   21.2720  -30.5610 C   0  0  0  0  0  0  0  0  0  0  0  0
   -2.2030   22.3030  -29.6690 C   0  0  0  0  0  0  0  0  0  0  0  0
   -2.8920   23.5130  -29.7470 C   0  0  0  0  0  0  0  0  0  0  0  0
   -3.8890   23.7050  -30.7230 C   0  0  0  0  0  0  0  0  0  0  0  0
   -4.5650   24.9280  -30.8510 O   0  0  0  0  0  0  0  0  0  0  0  0
   -5.7500   25.2790  -30.1440 C   0  0  0  0  0  0  0  0  0  0  0  0
   -4.2000   22.6510  -31.6120 C   0  0  0  0  0  0  0  0  0  0  0  0
   -5.2140   22.8170  -32.6180 N   0  0  0  0  0  0  0  0  0  0  0  0
   -6.6360   22.7360  -32.2830 C   0  0  0  0  0  0  0  0  0  0  0  0
   -7.0020   21.3830  -31.6300 C   0  0  0  0  0  0  0  0  0  0  0  0
   -6.4800   20.1610  -32.3000 N   0  0  0  0  0  0  0  0  0  0  0  0
   -6.8200   18.9090  -31.5870 C   0  0  0  0  0  0  0  0  0  0  0  0
   -6.4420   17.6690  -32.4270 C   0  0  0  0  0  0  0  0  0  0  0  0
   -5.5080   18.0030  -33.4330 O   0  0  0  0  0  0  0  0  0  0  0  0
   -6.1070   18.8670  -34.3850 C   0  0  0  0  0  0  0  0  0  0  0  0
   -6.8330   20.0670  -33.7290 C   0  0  0  0  0  0  0  0  0  0  0  0
   -2.0812   19.3643  -32.8830 H   0  0  0  0  0  0  0  0  0  0  0  0
   -3.4412   19.1377  -34.0344 H   0  0  0  0  0  0  0  0  0  0  0  0
   -2.5111   20.6744  -34.0344 H   0  0  0  0  0  0  0  0  0  0  0  0
   -1.9380   20.3243  -30.4994 H   0  0  0  0  0  0  0  0  0  0  0  0
   -1.4282   22.1618  -28.9011 H   0  0  0  0  0  0  0  0  0  0  0  0
   -2.6551   24.3230  -29.0414 H   0  0  0  0  0  0  0  0  0  0  0  0
   -5.5614   25.2231  -29.0617 H   0  0  0  0  0  0  0  0  0  0  0  0
   -6.0470   26.3037  -30.4120 H   0  0  0  0  0  0  0  0  0  0  0  0
   -6.5571   24.5814  -30.4120 H   0  0  0  0  0  0  0  0  0  0  0  0
   -4.9490   22.5990  -33.6050 H   0  0  0  0  0  0  0  0  0  0  0  0
   -6.8822   23.5468  -31.5816 H   0  0  0  0  0  0  0  0  0  0  0  0
   -7.2104   22.8287  -33.2165 H   0  0  0  0  0  0  0  0  0  0  0  0
   -6.6132   21.3922  -30.6010 H   0  0  0  0  0  0  0  0  0  0  0  0
   -8.0972   21.3106  -31.7032 H   0  0  0  0  0  0  0  0  0  0  0  0
   -5.4360   20.2570  -32.2550 H   0  0  0  0  0  0  0  0  0  0  0  0
   -6.2712   18.8781  -30.6342 H   0  0  0  0  0  0  0  0  0  0  0  0
   -7.9054   18.8924  -31.4094 H   0  0  0  0  0  0  0  0  0  0  0  0
   -6.0018   16.9077  -31.7662 H   0  0  0  0  0  0  0  0  0  0  0  0
   -7.3520   17.2822  -32.9089 H   0  0  0  0  0  0  0  0  0  0  0  0
   -5.3227   19.2525  -35.0529 H   0  0  0  0  0  0  0  0  0  0  0  0
   -6.8597   18.2839  -34.9358 H   0  0  0  0  0  0  0  0  0  0  0  0
   -6.5334   20.9948  -34.2384 H   0  0  0  0  0  0  0  0  0  0  0  0
   -7.9194   19.9206  -33.8199 H   0  0  0  0  0  0  0  0  0  0  0  0
  1  2  1  0
  2  3  1  0
  3  4  2  0
  4  5  1  0
  5  6  2  0
  6  7  1  0
  7  8  1  0
  8  9  1  0
  7 10  2  0
 10 11  1  0
 11 12  1  0
 12 13  1  0
 13 14  1  0
 14 15  1  0
 15 16  1  0
 16 17  1  0
 17 18  1  0
 18 19  1  0
 10  3  1  0
 19 14  1  0
  1 20  1  0
  1 21  1  0
  1 22  1  0
  4 23  1  0
  5 24  1  0
  6 25  1  0
  9 26  1  0
  9 27  1  0
  9 28  1  0
 11 29  1  0
 12 30  1  0
 12 31  1  0
 13 32  1  0
 13 33  1  0
 14 34  1  0
 15 35  1  0
 15 36  1  0
 16 37  1  0
 16 38  1  0
 18 39  1  0
 18 40  1  0
 19 41  1  0
 19 42  1  0
M  CHG  1  14   1
M  END
>  <UniqueID>  (32) 
30

>  <SMILES>  (32) 
COc1cccc(OC)c1NCC[NH+]1CCOCC1

>  <Energy>  (32) 
56.7413217235853

>  <Genealogy>  (32) 
COc1cccc(OC)c1NCC[NH+]1CCOCC1 (protonated)
COc1cccc(OC)c1NCC[NH+]1CCOCC1 (3D coordinates assigned)
COc1cccc(OC)c1NCC[NH+]1CCOCC1 (nonaromatic ring conformer: 56.7413217235853 kcal/mol)

>  <smiles>  (32) 
COc1cccc(OC)c1NCCN1CCOCC1

>  <score_type>  (32) 
oracle

>  <origin>  (32) 
adg

>  <m_score__min__energy>  (32) 
-5.2599999999999998

>  <m_primary>  (32) 
energy

$$$$
33:0
     RDKit          3D

 52 54  0  0  0  0  0  0  0  0999 V2000
    1.9110   26.0790  -24.0750 C   0  0  0  0  0  0  0  0  0  0  0  0
    0.9340   26.7790  -23.2210 N   0  0  0  0  0  0  0  0  0  0  0  0
    1.0720   28.2400  -23.3440 C   0  0  0  0  0  0  0  0  0  0  0  0
   -0.4600   26.3000  -23.4120 C   0  0  0  0  0  0  0  0  0  0  0  0
   -1.2590   26.9450  -24.5740 C   0  0  0  0  0  0  0  0  0  0  0  0
   -1.3320   26.0960  -25.8180 C   0  0  0  0  0  0  0  0  0  0  0  0
   -0.2050   25.9550  -26.6590 C   0  0  0  0  0  0  0  0  0  0  0  0
   -0.2650   25.1550  -27.8190 C   0  0  0  0  0  0  0  0  0  0  0  0
   -1.4530   24.4940  -28.1690 C   0  0  0  0  0  0  0  0  0  0  0  0
   -2.5610   24.6620  -27.3400 C   0  0  0  0  0  0  0  0  0  0  0  0
   -3.8580   24.1950  -27.4520 C   0  0  0  0  0  0  0  0  0  0  0  0
   -4.4530   23.3820  -28.5640 C   0  0  0  0  0  0  0  0  0  0  0  0
   -5.0560   24.2670  -29.6680 C   0  0  0  0  0  0  0  0  0  0  0  0
   -4.3340   24.1670  -30.9530 N   0  0  0  0  0  0  0  0  0  0  0  0
   -4.5450   22.8810  -31.6340 C   0  0  0  0  0  0  0  0  0  0  0  0
   -6.0130   22.5530  -31.6970 C   0  0  0  0  0  0  0  0  0  0  0  0
   -6.9520   23.5710  -31.9300 C   0  0  0  0  0  0  0  0  0  0  0  0
   -8.3150   23.2680  -32.0030 C   0  0  0  0  0  0  0  0  0  0  0  0
   -8.7490   21.9480  -31.8480 C   0  0  0  0  0  0  0  0  0  0  0  0
   -7.8200   20.9300  -31.6190 C   0  0  0  0  0  0  0  0  0  0  0  0
   -6.4560   21.2280  -31.5460 C   0  0  0  0  0  0  0  0  0  0  0  0
   -4.5460   24.7360  -26.3730 C   0  0  0  0  0  0  0  0  0  0  0  0
   -3.7220   25.4940  -25.6180 N   0  0  0  0  0  0  0  0  0  0  0  0
   -2.5110   25.4410  -26.2090 C   0  0  0  0  0  0  0  0  0  0  0  0
    2.6423   25.5551  -23.4420 H   0  0  0  0  0  0  0  0  0  0  0  0
    1.3867   25.3498  -24.7101 H   0  0  0  0  0  0  0  0  0  0  0  0
    2.4329   26.8099  -24.7101 H   0  0  0  0  0  0  0  0  0  0  0  0
    1.1880   26.5380  -22.2330 H   0  0  0  0  0  0  0  0  0  0  0  0
    1.1145   28.6900  -22.3412 H   0  0  0  0  0  0  0  0  0  0  0  0
    1.9965   28.4762  -23.8914 H   0  0  0  0  0  0  0  0  0  0  0  0
    0.2081   28.6451  -23.8914 H   0  0  0  0  0  0  0  0  0  0  0  0
   -0.4190   25.2162  -23.5955 H   0  0  0  0  0  0  0  0  0  0  0  0
   -0.9954   26.5876  -22.4951 H   0  0  0  0  0  0  0  0  0  0  0  0
   -2.2847   27.1342  -24.2245 H   0  0  0  0  0  0  0  0  0  0  0  0
   -0.7270   27.8672  -24.8507 H   0  0  0  0  0  0  0  0  0  0  0  0
    0.7304   26.4755  -26.4058 H   0  0  0  0  0  0  0  0  0  0  0  0
    0.6264   25.0481  -28.4547 H   0  0  0  0  0  0  0  0  0  0  0  0
   -1.5078   23.8636  -29.0688 H   0  0  0  0  0  0  0  0  0  0  0  0
   -3.6654   22.7528  -29.0042 H   0  0  0  0  0  0  0  0  0  0  0  0
   -5.2625   22.7694  -28.1405 H   0  0  0  0  0  0  0  0  0  0  0  0
   -6.1005   23.9620  -29.8291 H   0  0  0  0  0  0  0  0  0  0  0  0
   -4.9780   25.3107  -29.3295 H   0  0  0  0  0  0  0  0  0  0  0  0
   -4.6140   24.9440  -31.5950 H   0  0  0  0  0  0  0  0  0  0  0  0
   -4.1435   22.9424  -32.6563 H   0  0  0  0  0  0  0  0  0  0  0  0
   -4.0275   22.0906  -31.0705 H   0  0  0  0  0  0  0  0  0  0  0  0
   -6.6140   24.6102  -32.0555 H   0  0  0  0  0  0  0  0  0  0  0  0
   -9.0469   24.0693  -32.1826 H   0  0  0  0  0  0  0  0  0  0  0  0
   -9.8216   21.7111  -31.9063 H   0  0  0  0  0  0  0  0  0  0  0  0
   -8.1624   19.8919  -31.4959 H   0  0  0  0  0  0  0  0  0  0  0  0
   -5.7274   20.4229  -31.3698 H   0  0  0  0  0  0  0  0  0  0  0  0
   -5.6129   24.5701  -26.1630 H   0  0  0  0  0  0  0  0  0  0  0  0
   -3.9960   26.0390  -24.7720 H   0  0  0  0  0  0  0  0  0  0  0  0
  1  2  1  0
  2  3  1  0
  2  4  1  0
  4  5  1  0
  5  6  1  0
  6  7  2  0
  7  8  1  0
  8  9  2  0
  9 10  1  0
 10 11  1  0
 11 12  1  0
 12 13  1  0
 13 14  1  0
 14 15  1  0
 15 16  1  0
 16 17  2  0
 17 18  1  0
 18 19  2  0
 19 20  1  0
 20 21  2  0
 11 22  2  0
 22 23  1  0
 23 24  1  0
 24  6  1  0
 24 10  2  0
 21 16  1  0
  1 25  1  0
  1 26  1  0
  1 27  1  0
  2 28  1  0
  3 29  1  0
  3 30  1  0
  3 31  1  0
  4 32  1  0
  4 33  1  0
  5 34  1  0
  5 35  1  0
  7 36  1  0
  8 37  1  0
  9 38  1  0
 12 39  1  0
 12 40  1  0
 13 41  1  0
 13 42  1  0
 14 43  1  0
 15 44  1  0
 15 45  1  0
 17 46  1  0
 18 47  1  0
 19 48  1  0
 20 49  1  0
 21 50  1  0
 22 51  1  0
 23 52  1  0
M  CHG  1   2   1
M  END
>  <UniqueID>  (33) 
31

>  <SMILES>  (33) 
C[NH+](C)CCc1cccc2c(CCNCc3ccccc3)c[nH]c12

>  <Energy>  (33) 
87.6873168090018

>  <Genealogy>  (33) 
C[NH+](C)CCc1cccc2c(CCNCc3ccccc3)c[nH]c12 (protonated)
C[NH+](C)CCc1cccc2c(CCNCc3ccccc3)c[nH]c12 (3D coordinates assigned)
C[NH+](C)CCc1cccc2c(CCNCc3ccccc3)c[nH]c12 (optimized conformer: 87.6873168090018 kcal/mol)

>  <smiles>  (33) 
CN(C)CCc1cccc2c(CCNCc3ccccc3)c[nH]c12

>  <score_type>  (33) 
oracle

>  <origin>  (33) 
adg

>  <m_score__min__energy>  (33) 
-8.7599999999999998

>  <m_primary>  (33) 
energy

$$$$
34:0
     RDKit          3D

 40 39  0  0  0  0  0  0  0  0999 V2000
   -5.7420   18.3640  -34.9640 C   0  0  0  0  0  0  0  0  0  0  0  0
   -6.4660   18.5770  -33.6350 C   0  0  0  0  0  0  0  0  0  0  0  0
   -6.8840   20.0430  -33.3640 C   0  0  0  0  0  0  0  0  0  0  0  0
   -7.2840   20.3750  -31.9720 N   0  0  2  0  0  0  0  0  0  0  0  0
   -8.2990   19.4560  -31.4200 C   0  0  0  0  0  0  0  0  0  0  0  0
   -7.5950   21.7830  -31.7850 C   0  0  0  0  0  0  0  0  0  0  0  0
   -9.1410   22.3490  -31.9330 S   0  0  0  0  0  0  0  0  0  0  0  0
   -6.5090   22.7080  -31.5810 N   0  0  0  0  0  0  0  0  0  0  0  0
   -6.6870   24.1280  -31.2700 C   0  0  0  0  0  0  0  0  0  0  0  0
   -5.3710   24.7660  -30.9520 C   0  0  0  0  0  0  0  0  0  0  0  0
   -5.3040   26.0170  -30.8070 O   0  0  0  0  0  0  0  0  0  0  0  0
   -4.2220   23.9750  -30.8550 O   0  0  0  0  0  0  0  0  0  0  0  0
   -4.0100   23.0530  -29.7920 C   0  0  0  0  0  0  0  0  0  0  0  0
   -3.4660   21.7440  -30.3570 C   0  0  0  0  0  0  0  0  0  0  0  0
   -4.4630   21.0810  -31.1120 O   0  0  0  0  0  0  0  0  0  0  0  0
   -3.9150   20.4670  -32.2650 C   0  0  0  0  0  0  0  0  0  0  0  0
   -3.5980   21.5160  -33.3250 C   0  0  0  0  0  0  0  0  0  0  0  0
   -4.7031   18.0584  -34.7707 H   0  0  0  0  0  0  0  0  0  0  0  0
   -6.2544   17.5785  -35.5389 H   0  0  0  0  0  0  0  0  0  0  0  0
   -5.7474   19.3018  -35.5389 H   0  0  0  0  0  0  0  0  0  0  0  0
   -7.3729   17.9544  -33.6333 H   0  0  0  0  0  0  0  0  0  0  0  0
   -5.7556   18.3006  -32.8419 H   0  0  0  0  0  0  0  0  0  0  0  0
   -6.0326   20.6871  -33.6290 H   0  0  0  0  0  0  0  0  0  0  0  0
   -7.7871   20.2037  -33.9711 H   0  0  0  0  0  0  0  0  0  0  0  0
   -6.4350   20.1950  -31.3850 H   0  0  0  0  0  0  0  0  0  0  0  0
   -8.2636   19.4880  -30.3210 H   0  0  0  0  0  0  0  0  0  0  0  0
   -9.2976   19.7634  -31.7638 H   0  0  0  0  0  0  0  0  0  0  0  0
   -8.0920   18.4318  -31.7638 H   0  0  0  0  0  0  0  0  0  0  0  0
   -5.5310   22.3420  -31.6250 H   0  0  0  0  0  0  0  0  0  0  0  0
   -7.1343   24.6349  -32.1377 H   0  0  0  0  0  0  0  0  0  0  0  0
   -7.3466   24.2196  -30.3945 H   0  0  0  0  0  0  0  0  0  0  0  0
   -3.2854   23.4745  -29.0797 H   0  0  0  0  0  0  0  0  0  0  0  0
   -4.9624   22.8625  -29.2756 H   0  0  0  0  0  0  0  0  0  0  0  0
   -2.6037   21.9594  -31.0051 H   0  0  0  0  0  0  0  0  0  0  0  0
   -3.1591   21.0954  -29.5233 H   0  0  0  0  0  0  0  0  0  0  0  0
   -2.9902   19.9388  -31.9897 H   0  0  0  0  0  0  0  0  0  0  0  0
   -4.6483   19.7564  -32.6739 H   0  0  0  0  0  0  0  0  0  0  0  0
   -3.3132   22.4585  -32.8345 H   0  0  0  0  0  0  0  0  0  0  0  0
   -2.7663   21.1634  -33.9526 H   0  0  0  0  0  0  0  0  0  0  0  0
   -4.4858   21.6830  -33.9526 H   0  0  0  0  0  0  0  0  0  0  0  0
  1  2  1  0
  2  3  1  0
  3  4  1  0
  4  5  1  0
  4  6  1  0
  6  7  2  0
  6  8  1  0
  8  9  1  0
  9 10  1  0
 10 11  2  0
 10 12  1  0
 12 13  1  0
 13 14  1  0
 14 15  1  0
 15 16  1  0
 16 17  1  0
  1 18  1  0
  1 19  1  0
  1 20  1  0
  2 21  1  0
  2 22  1  0
  3 23  1  0
  3 24  1  0
  4 25  1  1
  5 26  1  0
  5 27  1  0
  5 28  1  0
  8 29  1  0
  9 30  1  0
  9 31  1  0
 13 32  1  0
 13 33  1  0
 14 34  1  0
 14 35  1  0
 16 36  1  0
 16 37  1  0
 17 38  1  0
 17 39  1  0
 17 40  1  0
M  CHG  1   4   1
M  END
>  <UniqueID>  (34) 
32

>  <SMILES>  (34) 
CCC[N@H+](C)C(=S)NCC(=O)OCCOCC

>  <Energy>  (34) 
36.27270709401984

>  <Genealogy>  (34) 
CCC[NH+](C)C(=S)NCC(=O)OCCOCC (protonated)
CCC[N@H+](C)C(=S)NCC(=O)OCCOCC (chirality)
CCC[N@H+](C)C(=S)NCC(=O)OCCOCC (3D coordinates assigned)
CCC[N@H+](C)C(=S)NCC(=O)OCCOCC (optimized conformer: 36.27270709401984 kcal/mol)

>  <smiles>  (34) 
CCCN(C)C(=S)NCC(=O)OCCOCC

>  <score_type>  (34) 
oracle

>  <origin>  (34) 
adg

>  <m_score__min__energy>  (34) 
-5.75

>  <m_primary>  (34) 
energy

$$$$
35:0
     RDKit          3D

 37 40  0  0  0  0  0  0  0  0999 V2000
   -8.8620   18.5410  -31.4570 C   0  0  0  0  0  0  0  0  0  0  0  0
   -9.0620   19.8240  -32.7310 S   0  0  0  0  0  0  0  0  0  0  0  0
   -7.3440   20.3660  -32.6180 C   0  0  0  0  0  0  0  0  0  0  0  0
   -6.9810   21.6320  -32.0990 C   0  0  0  0  0  0  0  0  0  0  0  0
   -7.9280   22.5640  -31.6380 C   0  0  0  0  0  0  0  0  0  0  0  0
   -7.5150   23.7990  -31.1330 C   0  0  0  0  0  0  0  0  0  0  0  0
   -6.1520   24.1230  -31.0670 C   0  0  0  0  0  0  0  0  0  0  0  0
   -5.7210   25.4680  -30.5590 C   0  0  0  0  0  0  0  0  0  0  0  0
   -5.1980   23.2100  -31.5400 C   0  0  0  0  0  0  0  0  0  0  0  0
   -5.5970   21.9700  -32.0480 C   0  0  0  0  0  0  0  0  0  0  0  0
   -4.6540   21.0910  -32.4940 N   0  0  0  0  0  0  0  0  0  0  0  0
   -5.0470   19.8930  -32.9850 C   0  0  0  0  0  0  0  0  0  0  0  0
   -4.2130   18.9450  -33.4510 N   0  0  0  0  0  0  0  0  0  0  0  0
   -5.0540   17.9460  -33.8230 C   0  0  0  0  0  0  0  0  0  0  0  0
   -4.5890   16.6620  -34.4050 C   0  0  0  0  0  0  0  0  0  0  0  0
   -5.2040   15.4550  -34.0230 C   0  0  0  0  0  0  0  0  0  0  0  0
   -4.7770   14.2380  -34.5630 C   0  0  0  0  0  0  0  0  0  0  0  0
   -3.7320   14.2100  -35.4880 C   0  0  0  0  0  0  0  0  0  0  0  0
   -3.1130   15.4000  -35.8770 C   0  0  0  0  0  0  0  0  0  0  0  0
   -3.5350   16.6200  -35.3390 C   0  0  0  0  0  0  0  0  0  0  0  0
   -6.3720   18.3180  -33.5700 C   0  0  0  0  0  0  0  0  0  0  0  0
   -6.3410   19.5520  -33.0420 N   0  0  0  0  0  0  0  0  0  0  0  0
   -8.9336   19.0000  -30.4599 H   0  0  0  0  0  0  0  0  0  0  0  0
   -9.6532   17.7852  -31.5703 H   0  0  0  0  0  0  0  0  0  0  0  0
   -7.8783   18.0619  -31.5703 H   0  0  0  0  0  0  0  0  0  0  0  0
   -8.9997   22.3190  -31.6754 H   0  0  0  0  0  0  0  0  0  0  0  0
   -8.2652   24.5238  -30.7840 H   0  0  0  0  0  0  0  0  0  0  0  0
   -5.7228   25.4623  -29.4590 H   0  0  0  0  0  0  0  0  0  0  0  0
   -4.7069   25.6896  -30.9228 H   0  0  0  0  0  0  0  0  0  0  0  0
   -6.4175   26.2378  -30.9228 H   0  0  0  0  0  0  0  0  0  0  0  0
   -4.1298   23.4711  -31.5111 H   0  0  0  0  0  0  0  0  0  0  0  0
   -6.0273   15.4692  -33.2937 H   0  0  0  0  0  0  0  0  0  0  0  0
   -5.2656   13.3007  -34.2583 H   0  0  0  0  0  0  0  0  0  0  0  0
   -3.3963   13.2514  -35.9103 H   0  0  0  0  0  0  0  0  0  0  0  0
   -2.2916   15.3776  -36.6083 H   0  0  0  0  0  0  0  0  0  0  0  0
   -3.0407   17.5531  -35.6472 H   0  0  0  0  0  0  0  0  0  0  0  0
   -7.2702   17.7139  -33.7660 H   0  0  0  0  0  0  0  0  0  0  0  0
  1  2  1  0
  2  3  1  0
  3  4  2  0
  4  5  1  0
  5  6  2  0
  6  7  1  0
  7  8  1  0
  7  9  2  0
  9 10  1  0
 10 11  2  0
 11 12  1  0
 12 13  2  0
 13 14  1  0
 14 15  1  0
 15 16  2  0
 16 17  1  0
 17 18  2  0
 18 19  1  0
 19 20  2  0
 14 21  2  0
 21 22  1  0
 22  3  1  0
 10  4  1  0
 22 12  1  0
 20 15  1  0
  1 23  1  0
  1 24  1  0
  1 25  1  0
  5 26  1  0
  6 27  1  0
  8 28  1  0
  8 29  1  0
  8 30  1  0
  9 31  1  0
 16 32  1  0
 17 33  1  0
 18 34  1  0
 19 35  1  0
 20 36  1  0
 21 37  1  0
M  END
>  <UniqueID>  (35) 
33

>  <SMILES>  (35) 
CSc1c2ccc(C)cc2nc2nc(-c3ccccc3)cn12

>  <Energy>  (35) 
77.75467674273672

>  <Genealogy>  (35) 
CSc1c2ccc(C)cc2nc2nc(-c3ccccc3)cn12 (3D coordinates assigned)
CSc1c2ccc(C)cc2nc2nc(-c3ccccc3)cn12 (optimized conformer: 77.75467674273672 kcal/mol)

>  <smiles>  (35) 
CSc1c2ccc(C)cc2nc2nc(-c3ccccc3)cn12

>  <score_type>  (35) 
oracle

>  <origin>  (35) 
adg

>  <m_score__min__energy>  (35) 
-7.7300000000000004

>  <m_primary>  (35) 
energy

$$$$
36:0
     RDKit          3D

 54 56  0  0  0  0  0  0  0  0999 V2000
   -7.1000   18.0570  -32.2850 C   0  0  0  0  0  0  0  0  0  0  0  0
   -6.6140   19.3470  -31.6130 C   0  0  0  0  0  0  0  0  0  0  0  0
   -7.1950   20.5710  -32.2190 N   0  0  0  0  0  0  0  0  0  0  0  0
   -8.6280   20.3710  -32.5710 C   0  0  0  0  0  0  0  0  0  0  0  0
   -9.5600   21.4280  -31.9700 C   0  0  0  0  0  0  0  0  0  0  0  0
   -6.9320   21.7590  -31.3580 C   0  0  0  0  0  0  0  0  0  0  0  0
   -6.4990   23.0470  -32.1100 C   0  0  0  0  0  0  0  0  0  0  0  0
   -5.1120   23.0010  -32.6000 N   0  0  0  0  0  0  0  0  0  0  0  0
   -3.9600   22.6380  -31.8070 C   0  0  0  0  0  0  0  0  0  0  0  0
   -3.4800   23.5450  -30.8390 C   0  0  0  0  0  0  0  0  0  0  0  0
   -4.1940   24.7300  -30.5950 O   0  0  0  0  0  0  0  0  0  0  0  0
   -5.2890   24.8540  -29.6950 C   0  0  0  0  0  0  0  0  0  0  0  0
   -2.3120   23.2510  -30.1330 C   0  0  0  0  0  0  0  0  0  0  0  0
   -1.6450   22.0530  -30.3310 C   0  0  0  0  0  0  0  0  0  0  0  0
   -2.1390   21.0720  -31.2190 C   0  0  0  0  0  0  0  0  0  0  0  0
   -3.3000   21.3760  -31.9900 C   0  0  0  0  0  0  0  0  0  0  0  0
   -3.7350   20.4180  -32.9370 C   0  0  0  0  0  0  0  0  0  0  0  0
   -4.8050   20.5830  -33.5830 O   0  0  0  0  0  0  0  0  0  0  0  0
   -2.9650   19.2750  -33.1930 C   0  0  0  0  0  0  0  0  0  0  0  0
   -3.3230   18.3840  -34.2270 C   0  0  0  0  0  0  0  0  0  0  0  0
   -2.5280   17.2790  -34.5210 C   0  0  0  0  0  0  0  0  0  0  0  0
   -1.3600   17.0510  -33.8000 C   0  0  0  0  0  0  0  0  0  0  0  0
   -0.3390   15.6810  -34.2020 Cl  0  0  0  0  0  0  0  0  0  0  0  0
   -0.9980   17.9130  -32.7630 C   0  0  0  0  0  0  0  0  0  0  0  0
   -1.8110   19.0230  -32.4160 C   0  0  0  0  0  0  0  0  0  0  0  0
   -1.5000   19.8520  -31.3570 N   0  0  0  0  0  0  0  0  0  0  0  0
   -0.5030   19.4180  -30.3530 C   0  0  0  0  0  0  0  0  0  0  0  0
   -7.3764   17.3233  -31.5134 H   0  0  0  0  0  0  0  0  0  0  0  0
   -7.9766   18.2778  -32.9118 H   0  0  0  0  0  0  0  0  0  0  0  0
   -6.2956   17.6446  -32.9118 H   0  0  0  0  0  0  0  0  0  0  0  0
   -6.8941   19.3154  -30.5497 H   0  0  0  0  0  0  0  0  0  0  0  0
   -5.5236   19.3982  -31.7490 H   0  0  0  0  0  0  0  0  0  0  0  0
   -6.6810   20.7520  -33.1150 H   0  0  0  0  0  0  0  0  0  0  0  0
   -8.7250   20.4040  -33.6662 H   0  0  0  0  0  0  0  0  0  0  0  0
   -8.9303   19.3992  -32.1535 H   0  0  0  0  0  0  0  0  0  0  0  0
   -9.5140   21.3758  -30.8722 H   0  0  0  0  0  0  0  0  0  0  0  0
   -9.2439   22.4276  -32.3031 H   0  0  0  0  0  0  0  0  0  0  0  0
  -10.5913   21.2396  -32.3031 H   0  0  0  0  0  0  0  0  0  0  0  0
   -7.8536   21.9850  -30.8016 H   0  0  0  0  0  0  0  0  0  0  0  0
   -6.0824   21.4843  -30.7156 H   0  0  0  0  0  0  0  0  0  0  0  0
   -7.1683   23.1892  -32.9713 H   0  0  0  0  0  0  0  0  0  0  0  0
   -6.5617   23.8781  -31.3921 H   0  0  0  0  0  0  0  0  0  0  0  0
   -4.9870   23.0730  -33.6350 H   0  0  0  0  0  0  0  0  0  0  0  0
   -4.9193   24.8121  -28.6598 H   0  0  0  0  0  0  0  0  0  0  0  0
   -5.7960   25.8153  -29.8647 H   0  0  0  0  0  0  0  0  0  0  0  0
   -5.9982   24.0304  -29.8647 H   0  0  0  0  0  0  0  0  0  0  0  0
   -1.9163   23.9798  -29.4103 H   0  0  0  0  0  0  0  0  0  0  0  0
   -0.7098   21.8615  -29.7844 H   0  0  0  0  0  0  0  0  0  0  0  0
   -4.2400   18.5642  -34.8072 H   0  0  0  0  0  0  0  0  0  0  0  0
   -2.8234   16.5866  -35.3231 H   0  0  0  0  0  0  0  0  0  0  0  0
   -0.0675   17.7287  -32.2060 H   0  0  0  0  0  0  0  0  0  0  0  0
   -0.9011   19.5913  -29.3423 H   0  0  0  0  0  0  0  0  0  0  0  0
   -0.2919   18.3466  -30.4852 H   0  0  0  0  0  0  0  0  0  0  0  0
    0.4250   19.9936  -30.4852 H   0  0  0  0  0  0  0  0  0  0  0  0
  1  2  1  0
  2  3  1  0
  3  4  1  0
  4  5  1  0
  3  6  1  0
  6  7  1  0
  7  8  1  0
  8  9  1  0
  9 10  2  0
 10 11  1  0
 11 12  1  0
 10 13  1  0
 13 14  2  0
 14 15  1  0
 15 16  2  0
 16 17  1  0
 17 18  2  0
 17 19  1  0
 19 20  2  0
 20 21  1  0
 21 22  2  0
 22 23  1  0
 22 24  1  0
 24 25  2  0
 25 26  1  0
 26 27  1  0
 16  9  1  0
 25 19  1  0
 26 15  1  0
  1 28  1  0
  1 29  1  0
  1 30  1  0
  2 31  1  0
  2 32  1  0
  3 33  1  0
  4 34  1  0
  4 35  1  0
  5 36  1  0
  5 37  1  0
  5 38  1  0
  6 39  1  0
  6 40  1  0
  7 41  1  0
  7 42  1  0
  8 43  1  0
 12 44  1  0
 12 45  1  0
 12 46  1  0
 13 47  1  0
 14 48  1  0
 20 49  1  0
 21 50  1  0
 24 51  1  0
 27 52  1  0
 27 53  1  0
 27 54  1  0
M  CHG  1   3   1
M  END
>  <UniqueID>  (36) 
34

>  <SMILES>  (36) 
CC[NH+](CC)CCNc1c(OC)ccc2c1c(=O)c1ccc(Cl)cc1n2C

>  <Energy>  (36) 
90.63431229232786

>  <Genealogy>  (36) 
CC[NH+](CC)CCNc1c(OC)ccc2c1c(=O)c1ccc(Cl)cc1n2C (protonated)
CC[NH+](CC)CCNc1c(OC)ccc2c1c(=O)c1ccc(Cl)cc1n2C (3D coordinates assigned)
CC[NH+](CC)CCNc1c(OC)ccc2c1c(=O)c1ccc(Cl)cc1n2C (optimized conformer: 90.63431229232786 kcal/mol)

>  <smiles>  (36) 
CCN(CC)CCNc1c(OC)ccc2c1c(=O)c1ccc(Cl)cc1n2C

>  <score_type>  (36) 
oracle

>  <origin>  (36) 
adg

>  <m_score__min__energy>  (36) 
-6.8700000000000001

>  <m_primary>  (36) 
energy

$$$$
37:0
     RDKit          3D

 62 66  0  0  0  0  0  0  0  0999 V2000
   -5.3880   25.6720  -30.7940 C   0  0  0  0  0  0  0  0  0  0  0  0
   -4.3670   24.6840  -30.8780 O   0  0  0  0  0  0  0  0  0  0  0  0
   -4.0120   23.8100  -29.8370 C   0  0  0  0  0  0  0  0  0  0  0  0
   -4.4270   24.0380  -28.5090 C   0  0  0  0  0  0  0  0  0  0  0  0
   -4.0640   23.1530  -27.4920 C   0  0  0  0  0  0  0  0  0  0  0  0
   -3.2850   22.0340  -27.7840 C   0  0  0  0  0  0  0  0  0  0  0  0
   -2.8670   21.7950  -29.0930 C   0  0  0  0  0  0  0  0  0  0  0  0
   -3.2200   22.6770  -30.1280 C   0  0  0  0  0  0  0  0  0  0  0  0
   -2.7810   22.3590  -31.5360 C   0  0  0  0  0  0  0  0  0  0  0  0
   -3.8370   21.5800  -32.2180 N   0  0  0  0  0  0  0  0  0  0  0  0
   -3.3340   20.3540  -32.8840 C   0  0  0  0  0  0  0  0  0  0  0  0
   -1.8470   20.3790  -33.1850 C   0  0  0  0  0  0  0  0  0  0  0  0
   -0.9830   19.3920  -32.6390 C   0  0  0  0  0  0  0  0  0  0  0  0
    0.3950   19.4120  -32.9140 C   0  0  0  0  0  0  0  0  0  0  0  0
    0.8820   20.4350  -33.7190 C   0  0  0  0  0  0  0  0  0  0  0  0
    0.0700   21.3940  -34.2300 C   0  0  0  0  0  0  0  0  0  0  0  0
   -1.2990   21.4110  -33.9830 C   0  0  0  0  0  0  0  0  0  0  0  0
    0.8200   22.2810  -34.9780 O   0  0  0  0  0  0  0  0  0  0  0  0
    2.1870   21.8490  -34.9380 C   0  0  0  0  0  0  0  0  0  0  0  0
    2.1830   20.6680  -34.1230 O   0  0  0  0  0  0  0  0  0  0  0  0
   -5.0250   21.3440  -31.3750 C   0  0  0  0  0  0  0  0  0  0  0  0
   -6.1720   22.2000  -31.8290 C   0  0  0  0  0  0  0  0  0  0  0  0
   -6.0420   23.3660  -32.4840 N   0  0  0  0  0  0  0  0  0  0  0  0
   -7.2700   23.7980  -32.7240 N   0  0  0  0  0  0  0  0  0  0  0  0
   -8.1430   22.9260  -32.2350 N   0  0  0  0  0  0  0  0  0  0  0  0
   -7.4820   21.9220  -31.6800 N   0  0  0  0  0  0  0  0  0  0  0  0
   -8.1130   20.7890  -31.0030 C   0  0  0  0  0  0  0  0  0  0  0  0
   -8.6210   19.7530  -32.0120 C   0  0  0  0  0  0  0  0  0  0  0  0
   -7.4840   19.0220  -32.6780 C   0  0  0  0  0  0  0  0  0  0  0  0
   -7.1170   17.7360  -32.2440 C   0  0  0  0  0  0  0  0  0  0  0  0
   -6.0860   17.0440  -32.8880 C   0  0  0  0  0  0  0  0  0  0  0  0
   -5.4200   17.6270  -33.9700 C   0  0  0  0  0  0  0  0  0  0  0  0
   -5.7870   18.9010  -34.4130 C   0  0  0  0  0  0  0  0  0  0  0  0
   -6.8170   19.5960  -33.7720 C   0  0  0  0  0  0  0  0  0  0  0  0
   -5.6070   25.8840  -29.7371 H   0  0  0  0  0  0  0  0  0  0  0  0
   -5.0485   26.5932  -31.2900 H   0  0  0  0  0  0  0  0  0  0  0  0
   -6.2976   25.3024  -31.2900 H   0  0  0  0  0  0  0  0  0  0  0  0
   -5.0411   24.9194  -28.2725 H   0  0  0  0  0  0  0  0  0  0  0  0
   -4.3930   23.3388  -26.4589 H   0  0  0  0  0  0  0  0  0  0  0  0
   -2.9997   21.3387  -26.9808 H   0  0  0  0  0  0  0  0  0  0  0  0
   -2.2557   20.9083  -29.3169 H   0  0  0  0  0  0  0  0  0  0  0  0
   -2.6039   23.2955  -32.0851 H   0  0  0  0  0  0  0  0  0  0  0  0
   -1.8525   21.7700  -31.5062 H   0  0  0  0  0  0  0  0  0  0  0  0
   -3.5394   19.4953  -32.2279 H   0  0  0  0  0  0  0  0  0  0  0  0
   -3.8526   20.2827  -33.8514 H   0  0  0  0  0  0  0  0  0  0  0  0
   -1.3974   18.6033  -31.9938 H   0  0  0  0  0  0  0  0  0  0  0  0
    1.0666   18.6427  -32.5053 H   0  0  0  0  0  0  0  0  0  0  0  0
   -1.9380   22.2050  -34.3968 H   0  0  0  0  0  0  0  0  0  0  0  0
    2.5486   21.6179  -35.9508 H   0  0  0  0  0  0  0  0  0  0  0  0
    2.8527   22.6259  -34.5340 H   0  0  0  0  0  0  0  0  0  0  0  0
   -5.3139   20.2850  -31.4454 H   0  0  0  0  0  0  0  0  0  0  0  0
   -4.7791   21.6023  -30.3344 H   0  0  0  0  0  0  0  0  0  0  0  0
   -5.1630   23.8550  -32.7630 H   0  0  0  0  0  0  0  0  0  0  0  0
   -7.3767   20.3123  -30.3393 H   0  0  0  0  0  0  0  0  0  0  0  0
   -8.9714   21.1626  -30.4254 H   0  0  0  0  0  0  0  0  0  0  0  0
   -9.2547   19.0237  -31.4861 H   0  0  0  0  0  0  0  0  0  0  0  0
   -9.1919   20.2818  -32.7895 H   0  0  0  0  0  0  0  0  0  0  0  0
   -7.6421   17.2728  -31.3957 H   0  0  0  0  0  0  0  0  0  0  0  0
   -5.7989   16.0399  -32.5426 H   0  0  0  0  0  0  0  0  0  0  0  0
   -4.6069   17.0831  -34.4730 H   0  0  0  0  0  0  0  0  0  0  0  0
   -5.2648   19.3573  -35.2669 H   0  0  0  0  0  0  0  0  0  0  0  0
   -7.1059   20.5965  -34.1262 H   0  0  0  0  0  0  0  0  0  0  0  0
  1  2  1  0
  2  3  1  0
  3  4  2  0
  4  5  1  0
  5  6  2  0
  6  7  1  0
  7  8  2  0
  8  9  1  0
  9 10  1  0
 10 11  1  0
 11 12  1  0
 12 13  2  0
 13 14  1  0
 14 15  2  0
 15 16  1  0
 16 17  2  0
 16 18  1  0
 18 19  1  0
 19 20  1  0
 10 21  1  0
 21 22  1  0
 22 23  2  0
 23 24  1  0
 24 25  2  0
 25 26  1  0
 26 27  1  0
 27 28  1  0
 28 29  1  0
 29 30  2  0
 30 31  1  0
 31 32  2  0
 32 33  1  0
 33 34  2  0
  8  3  1  0
 17 12  1  0
 26 22  1  0
 34 29  1  0
 20 15  1  0
  1 35  1  0
  1 36  1  0
  1 37  1  0
  4 38  1  0
  5 39  1  0
  6 40  1  0
  7 41  1  0
  9 42  1  0
  9 43  1  0
 11 44  1  0
 11 45  1  0
 13 46  1  0
 14 47  1  0
 17 48  1  0
 19 49  1  0
 19 50  1  0
 21 51  1  0
 21 52  1  0
 23 53  1  0
 27 54  1  0
 27 55  1  0
 28 56  1  0
 28 57  1  0
 30 58  1  0
 31 59  1  0
 32 60  1  0
 33 61  1  0
 34 62  1  0
M  CHG  1  23   1
M  END
>  <UniqueID>  (37) 
35

>  <SMILES>  (37) 
COc1ccccc1CN(Cc1ccc2c(c1)OCO2)Cc1[nH+]nnn1CCc1ccccc1

>  <Energy>  (37) 
134.76932520016925

>  <Genealogy>  (37) 
COc1ccccc1CN(Cc1ccc2c(c1)OCO2)Cc1[nH+]nnn1CCc1ccccc1 (protonated)
COc1ccccc1CN(Cc1ccc2c(c1)OCO2)Cc1[nH+]nnn1CCc1ccccc1 (3D coordinates assigned)
COc1ccccc1CN(Cc1ccc2c(c1)OCO2)Cc1[nH+]nnn1CCc1ccccc1 (nonaromatic ring conformer: 134.76932520016925 kcal/mol)

>  <smiles>  (37) 
COc1ccccc1CN(Cc1ccc2c(c1)OCO2)Cc1nnnn1CCc1ccccc1

>  <score_type>  (37) 
oracle

>  <origin>  (37) 
adg

>  <m_score__min__energy>  (37) 
-10.210000000000001

>  <m_primary>  (37) 
energy

$$$$
38:0
     RDKit          3D

 50 52  0  0  0  0  0  0  0  0999 V2000
   -0.5597   18.0472  -26.5859 H   0  0  0  0  0  0  0  0  0  0  0  0
   -1.1160   18.8330  -27.1180 C   0  0  0  0  0  0  0  0  0  0  0  0
   -2.3730   19.2330  -26.6560 C   0  0  0  0  0  0  0  0  0  0  0  0
   -2.8050   18.7622  -25.7606 H   0  0  0  0  0  0  0  0  0  0  0  0
   -3.0820   20.2320  -27.3320 C   0  0  0  0  0  0  0  0  0  0  0  0
   -4.0730   20.5418  -26.9688 H   0  0  0  0  0  0  0  0  0  0  0  0
   -2.5330   20.8410  -28.4730 C   0  0  0  0  0  0  0  0  0  0  0  0
   -3.3100   21.8990  -29.2150 C   0  0  0  0  0  0  0  0  0  0  0  0
   -4.3825   21.7536  -29.0184 H   0  0  0  0  0  0  0  0  0  0  0  0
   -3.0809   21.7964  -30.2860 H   0  0  0  0  0  0  0  0  0  0  0  0
   -2.9160   23.3220  -28.7830 C   0  0  0  0  0  0  0  0  0  0  0  0
   -2.5316   23.8551  -29.6651 H   0  0  0  0  0  0  0  0  0  0  0  0
   -2.1649   23.2113  -27.9871 H   0  0  0  0  0  0  0  0  0  0  0  0
   -4.0710   24.1500  -28.1850 C   0  0  0  0  0  0  0  0  0  0  0  0
   -3.7871   25.2127  -28.1918 H   0  0  0  0  0  0  0  0  0  0  0  0
   -4.2504   23.7933  -27.1600 H   0  0  0  0  0  0  0  0  0  0  0  0
   -5.3200   23.9860  -28.9500 N   0  0  0  0  0  0  0  0  0  0  0  0
   -5.2450   23.1650  -29.5940 H   0  0  0  0  0  0  0  0  0  0  0  0
   -6.1040   23.8070  -28.2830 H   0  0  0  0  0  0  0  0  0  0  0  0
   -5.6670   25.2010  -29.7130 C   0  0  0  0  0  0  0  0  0  0  0  0
   -4.8744   25.9492  -29.5652 H   0  0  0  0  0  0  0  0  0  0  0  0
   -6.6376   25.5632  -29.3432 H   0  0  0  0  0  0  0  0  0  0  0  0
   -5.8120   24.9270  -31.2170 C   0  0  0  0  0  0  0  0  0  0  0  0
   -5.4752   25.8057  -31.7866 H   0  0  0  0  0  0  0  0  0  0  0  0
   -6.8656   24.7236  -31.4588 H   0  0  0  0  0  0  0  0  0  0  0  0
   -4.9930   23.7730  -31.5680 N   0  0  0  0  0  0  0  0  0  0  0  0
   -5.2840   22.5680  -31.9930 C   0  0  0  0  0  0  0  0  0  0  0  0
   -4.2260   21.8860  -32.5920 C   0  0  0  0  0  0  0  0  0  0  0  0
   -3.2149   22.3178  -32.5558 H   0  0  0  0  0  0  0  0  0  0  0  0
   -4.4260   20.6740  -33.2320 C   0  0  0  0  0  0  0  0  0  0  0  0
   -3.5698   20.1594  -33.6926 H   0  0  0  0  0  0  0  0  0  0  0  0
   -5.6630   20.1070  -33.3020 N   0  0  0  0  0  0  0  0  0  0  0  0
   -5.7950   18.8380  -34.0370 C   0  0  0  0  0  0  0  0  0  0  0  0
   -5.8814   18.0071  -33.3214 H   0  0  0  0  0  0  0  0  0  0  0  0
   -6.6944   18.8724  -34.6694 H   0  0  0  0  0  0  0  0  0  0  0  0
   -4.9078   18.6865  -34.6694 H   0  0  0  0  0  0  0  0  0  0  0  0
   -6.7410   20.7030  -32.6760 C   0  0  0  0  0  0  0  0  0  0  0  0
   -8.0210   20.0980  -32.7140 C   0  0  0  0  0  0  0  0  0  0  0  0
   -8.1650   19.1722  -33.2903 H   0  0  0  0  0  0  0  0  0  0  0  0
   -9.0980   20.6550  -32.0350 C   0  0  0  0  0  0  0  0  0  0  0  0
  -10.0894   20.1822  -32.0948 H   0  0  0  0  0  0  0  0  0  0  0  0
   -8.9240   21.8050  -31.2830 C   0  0  0  0  0  0  0  0  0  0  0  0
   -9.7724   22.2256  -30.7233 H   0  0  0  0  0  0  0  0  0  0  0  0
   -7.6820   22.4320  -31.2310 C   0  0  0  0  0  0  0  0  0  0  0  0
   -7.5586   23.3307  -30.6088 H   0  0  0  0  0  0  0  0  0  0  0  0
   -6.5720   21.9370  -31.9630 C   0  0  0  0  0  0  0  0  0  0  0  0
   -1.2700   20.4300  -28.9320 C   0  0  0  0  0  0  0  0  0  0  0  0
   -0.8341   20.8969  -29.8276 H   0  0  0  0  0  0  0  0  0  0  0  0
   -0.5650   19.4300  -28.2550 C   0  0  0  0  0  0  0  0  0  0  0  0
    0.4240   19.1131  -28.6177 H   0  0  0  0  0  0  0  0  0  0  0  0
  1  2  1  0
  2  3  2  0
  3  4  1  0
  3  5  1  0
  5  6  1  0
  5  7  2  0
  7  8  1  0
  8  9  1  0
  8 10  1  0
  8 11  1  0
 11 12  1  0
 11 13  1  0
 11 14  1  0
 14 15  1  0
 14 16  1  0
 14 17  1  0
 17 18  1  0
 17 19  1  0
 17 20  1  0
 20 21  1  0
 20 22  1  0
 20 23  1  0
 23 24  1  0
 23 25  1  0
 23 26  1  0
 26 27  2  0
 27 28  1  0
 28 29  1  0
 28 30  2  0
 30 31  1  0
 30 32  1  0
 32 33  1  0
 33 34  1  0
 33 35  1  0
 33 36  1  0
 32 37  1  0
 37 38  2  0
 38 39  1  0
 38 40  1  0
 40 41  1  0
 40 42  2  0
 42 43  1  0
 42 44  1  0
 44 45  1  0
 44 46  2  0
  7 47  1  0
 47 48  1  0
 47 49  2  0
 49 50  1  0
 49  2  1  0
 46 27  1  0
 46 37  1  0
M  CHG  1  17   1
M  END
>  <UniqueID>  (38) 
36

>  <SMILES>  (38) 
Cn1cc/c(=N/CC[NH2+]CCCc2ccccc2)c2ccccc21

>  <Energy>  (38) 
70.24712934743582

>  <Genealogy>  (38) 
Cn1ccc(=NCC[NH2+]CCCc2ccccc2)c2ccccc21 (protonated)
Cn1cc/c(=N/CC[NH2+]CCCc2ccccc2)c2ccccc21 (cis-trans isomerization)
Cn1cc/c(=N/CC[NH2+]CCCc2ccccc2)c2ccccc21 (3D coordinates assigned)
Cn1cc/c(=N/CC[NH2+]CCCc2ccccc2)c2ccccc21 (optimized conformer: 70.24712934743582 kcal/mol)

>  <smiles>  (38) 
Cn1ccc(=NCCNCCCc2ccccc2)c2ccccc21

>  <score_type>  (38) 
oracle

>  <origin>  (38) 
adg

>  <m_score__min__energy>  (38) 
-7.9199999999999999

>  <m_primary>  (38) 
energy

$$$$
39:0
     RDKit          3D

 38 40  0  0  0  0  0  0  0  0999 V2000
   -4.6061   21.5467  -34.0595 H   0  0  0  0  0  0  0  0  0  0  0  0
   -4.0970   21.5130  -33.0850 C   0  0  0  0  0  0  0  0  0  0  0  0
   -2.7510   21.6780  -33.0090 N   0  0  0  0  0  0  0  0  0  0  0  0
   -2.0950   21.6400  -31.8220 C   0  0  0  0  0  0  0  0  0  0  0  0
   -1.0039   21.7755  -31.7872 H   0  0  0  0  0  0  0  0  0  0  0  0
   -2.8210   21.4260  -30.6360 C   0  0  0  0  0  0  0  0  0  0  0  0
   -2.2560   21.3780  -29.4640 N   0  0  0  0  0  0  0  0  0  0  0  0
   -2.9180   21.0500  -28.2020 C   0  0  0  0  0  0  0  0  0  0  0  0
   -3.3341   20.0334  -28.2599 H   0  0  0  0  0  0  0  0  0  0  0  0
   -3.7296   21.7690  -28.0165 H   0  0  0  0  0  0  0  0  0  0  0  0
   -1.9060   21.1210  -27.0620 C   0  0  0  0  0  0  0  0  0  0  0  0
   -1.4087   20.1457  -26.9549 H   0  0  0  0  0  0  0  0  0  0  0  0
   -2.4299   21.3767  -26.1292 H   0  0  0  0  0  0  0  0  0  0  0  0
   -0.9000   22.1510  -27.3480 N   0  0  0  0  0  0  0  0  0  0  0  0
   -0.5670   22.0060  -28.3290 H   0  0  0  0  0  0  0  0  0  0  0  0
   -1.4860   23.4980  -27.2780 C   0  0  0  0  0  0  0  0  0  0  0  0
   -1.0586   24.0328  -26.4170 H   0  0  0  0  0  0  0  0  0  0  0  0
   -2.5762   23.4025  -27.1672 H   0  0  0  0  0  0  0  0  0  0  0  0
   -1.1950   24.2750  -28.5360 C   0  0  0  0  0  0  0  0  0  0  0  0
   -0.0630   24.1660  -29.0770 O   0  0  0  0  0  0  0  0  0  0  0  0
   -2.1530   25.1740  -29.1190 N   0  0  0  0  0  0  0  0  0  0  0  0
   -3.3790   24.9100  -29.4620 C   0  0  0  0  0  0  0  0  0  0  0  0
   -3.8850   25.2930  -30.6530 N   0  0  0  0  0  0  0  0  0  0  0  0
   -5.1670   24.8690  -30.8180 C   0  0  0  0  0  0  0  0  0  0  0  0
   -5.7493   25.0929  -31.7240 H   0  0  0  0  0  0  0  0  0  0  0  0
   -5.6890   24.1330  -29.7610 C   0  0  0  0  0  0  0  0  0  0  0  0
   -6.7018   23.7072  -29.7072 H   0  0  0  0  0  0  0  0  0  0  0  0
   -4.5000   24.0080  -28.5790 S   0  0  0  0  0  0  0  0  0  0  0  0
   -4.1680   21.2630  -30.7210 N   0  0  0  0  0  0  0  0  0  0  0  0
   -4.8330   21.2990  -31.9080 C   0  0  0  0  0  0  0  0  0  0  0  0
   -6.2610   21.1180  -31.9210 N   0  0  0  0  0  0  0  0  0  0  0  0
   -6.8350   19.9250  -31.9640 N   0  0  0  0  0  0  0  0  0  0  0  0
   -8.1680   20.1080  -31.9640 C   0  0  0  0  0  0  0  0  0  0  0  0
   -8.9186   19.3045  -31.9951 H   0  0  0  0  0  0  0  0  0  0  0  0
   -8.4490   21.4580  -31.9190 C   0  0  0  0  0  0  0  0  0  0  0  0
   -9.4387   21.9380  -31.9066 H   0  0  0  0  0  0  0  0  0  0  0  0
   -7.2160   22.0720  -31.8930 C   0  0  0  0  0  0  0  0  0  0  0  0
   -7.0393   23.1571  -31.8557 H   0  0  0  0  0  0  0  0  0  0  0  0
  1  2  1  0
  2  3  1  0
  3  4  2  0
  4  5  1  0
  4  6  1  0
  6  7  2  3
  7  8  1  0
  8  9  1  0
  8 10  1  0
  8 11  1  0
 11 12  1  0
 11 13  1  0
 11 14  1  0
 14 15  1  0
 14 16  1  0
 16 17  1  0
 16 18  1  0
 16 19  1  0
 19 20  2  0
 19 21  1  0
 21 22  2  0
 22 23  1  0
 23 24  1  0
 24 25  1  0
 24 26  2  0
 26 27  1  0
 26 28  1  0
  6 29  1  0
 29 30  1  0
 30 31  1  0
 31 32  1  0
 32 33  2  0
 33 34  1  0
 33 35  1  0
 35 36  1  0
 35 37  2  0
 37 38  1  0
 30  2  2  0
 37 31  1  0
 28 22  1  0
M  CHG  2  23  -1  29  -1
M  END
>  <UniqueID>  (39) 
37

>  <SMILES>  (39) 
O=C(CNCCN=c1cncc(-n2cccn2)[n-]1)/N=c1/[n-]ccs1

>  <Energy>  (39) 
106.97676993964676

>  <Genealogy>  (39) 
O=C(CNCCN=c1cncc(-n2cccn2)[n-]1)N=c1[n-]ccs1 (protonated)
O=C(CNCCN=c1cncc(-n2cccn2)[n-]1)/N=c1/[n-]ccs1 (cis-trans isomerization)
O=C(CNCCN=c1cncc(-n2cccn2)[n-]1)/N=c1/[n-]ccs1 (3D coordinates assigned)
O=C(CNCCN=c1cncc(-n2cccn2)[n-]1)/N=c1/[n-]ccs1 (optimized conformer: 106.97676993964676 kcal/mol)

>  <smiles>  (39) 
O=C(CNCCN=c1cncc(-n2cccn2)[nH]1)N=c1[nH]ccs1

>  <score_type>  (39) 
oracle

>  <origin>  (39) 
adg

>  <m_score__min__energy>  (39) 
-8.8499999999999996

>  <m_primary>  (39) 
energy

$$$$
40:0
     RDKit          3D

 32 34  0  0  1  0  0  0  0  0999 V2000
   -6.4900   25.6930  -29.3920 C   0  0  0  0  0  0  0  0  0  0  0  0
   -5.5010   24.7140  -29.9620 C   0  0  0  0  0  0  0  0  0  0  0  0
   -5.9040   23.9590  -31.0390 C   0  0  0  0  0  0  0  0  0  0  0  0
   -4.9640   23.0560  -31.5490 C   0  0  0  0  0  0  0  0  0  0  0  0
   -5.3430   22.3540  -32.5530 N   0  0  0  0  0  0  0  0  0  0  0  0
   -5.2600   20.9670  -32.7210 C   0  0  0  0  0  0  0  0  0  0  0  0
   -6.6450   20.4270  -32.4770 C   0  0  0  0  0  0  0  0  0  0  0  0
   -7.7100   21.2550  -32.1930 C   0  0  0  0  0  0  0  0  0  0  0  0
   -8.9520   20.6810  -31.9810 C   0  0  0  0  0  0  0  0  0  0  0  0
   -9.1140   19.3180  -32.0530 C   0  0  0  0  0  0  0  0  0  0  0  0
   -8.0320   18.4800  -32.3430 C   0  0  0  0  0  0  0  0  0  0  0  0
   -6.7810   19.0610  -32.5550 C   0  0  0  0  0  0  0  0  0  0  0  0
   -3.7410   22.9310  -31.0220 N   0  0  0  0  0  0  0  0  0  0  0  0
   -2.7530   22.1400  -31.3800 N   0  0  0  0  0  0  0  0  0  0  0  0
   -1.7150   22.3660  -30.5550 C   0  0  0  0  0  0  0  0  0  0  0  0
   -2.0930   23.3530  -29.6420 C   0  0  0  0  0  0  0  0  0  0  0  0
   -3.4010   23.6960  -29.9680 C   0  0  0  0  0  0  0  0  0  0  0  0
   -4.2560   24.5940  -29.4160 N   0  0  0  0  0  0  0  0  0  0  0  0
   -6.4518   25.6552  -28.2933 H   0  0  0  0  0  0  0  0  0  0  0  0
   -6.2390   26.7083  -29.7329 H   0  0  0  0  0  0  0  0  0  0  0  0
   -7.5027   25.4317  -29.7329 H   0  0  0  0  0  0  0  0  0  0  0  0
   -6.9089   24.0593  -31.4751 H   0  0  0  0  0  0  0  0  0  0  0  0
   -4.9321   20.7262  -33.7430 H   0  0  0  0  0  0  0  0  0  0  0  0
   -4.5305   20.5236  -32.0274 H   0  0  0  0  0  0  0  0  0  0  0  0
   -7.5763   22.3454  -32.1362 H   0  0  0  0  0  0  0  0  0  0  0  0
   -9.8168   21.3215  -31.7529 H   0  0  0  0  0  0  0  0  0  0  0  0
  -10.1082   18.8801  -31.8802 H   0  0  0  0  0  0  0  0  0  0  0  0
   -8.1641   17.3896  -32.4025 H   0  0  0  0  0  0  0  0  0  0  0  0
   -5.9092   18.4301  -32.7831 H   0  0  0  0  0  0  0  0  0  0  0  0
   -0.7384   21.8613  -30.5928 H   0  0  0  0  0  0  0  0  0  0  0  0
   -1.4810   23.7735  -28.8304 H   0  0  0  0  0  0  0  0  0  0  0  0
   -3.9800   25.1900  -28.5900 H   0  0  0  0  0  0  0  0  0  0  0  0
  1  2  1  0
  2  3  2  0
  3  4  1  0
  4  5  2  0
  5  6  1  0
  6  7  1  0
  7  8  2  0
  8  9  1  0
  9 10  2  0
 10 11  1  0
 11 12  2  0
  4 13  1  0
 13 14  1  0
 14 15  2  0
 15 16  1  0
 16 17  2  0
 17 18  1  0
 18  2  1  0
 12  7  1  0
 17 13  1  0
  1 19  1  0
  1 20  1  0
  1 21  1  0
  3 22  1  0
  6 23  1  0
  6 24  1  0
  8 25  1  0
  9 26  1  0
 10 27  1  0
 11 28  1  0
 12 29  1  0
 15 30  1  0
 16 31  1  0
 18 32  1  0
M  END
>  <smiles>  (40) 
Cc1cc(=NCc2ccccc2)n2nccc2[nH]1

>  <score_type>  (40) 
oracle

>  <origin>  (40) 
adg

>  <m_score__min__energy>  (40) 
-6.9500000000000002

>  <m_primary>  (40) 
energy

$$$$
41:0
     RDKit          3D

 51 54  0  0  0  0  0  0  0  0999 V2000
   -8.8770   20.7050  -31.4890 C   0  0  0  0  0  0  0  0  0  0  0  0
   -7.6720   19.9960  -31.2260 O   0  0  0  0  0  0  0  0  0  0  0  0
   -7.0360   19.1430  -32.1420 C   0  0  0  0  0  0  0  0  0  0  0  0
   -7.5470   17.8710  -32.4660 C   0  0  0  0  0  0  0  0  0  0  0  0
   -6.8870   17.0620  -33.3950 C   0  0  0  0  0  0  0  0  0  0  0  0
   -5.7130   17.5090  -34.0050 C   0  0  0  0  0  0  0  0  0  0  0  0
   -5.1960   18.7670  -33.6880 C   0  0  0  0  0  0  0  0  0  0  0  0
   -5.8510   19.5820  -32.7560 C   0  0  0  0  0  0  0  0  0  0  0  0
   -5.3200   20.8730  -32.4420 N   0  0  0  0  0  0  0  0  0  0  0  0
   -6.1460   22.0640  -32.6790 C   0  0  0  0  0  0  0  0  0  0  0  0
   -5.4090   23.3370  -32.2560 C   0  0  0  0  0  0  0  0  0  0  0  0
   -4.7760   23.1310  -30.9460 N   0  0  0  0  0  0  0  0  0  0  0  0
   -5.1640   23.9420  -29.8220 C   0  0  0  0  0  0  0  0  0  0  0  0
   -6.3650   24.3090  -29.7060 O   0  0  0  0  0  0  0  0  0  0  0  0
   -4.1870   24.3350  -28.7830 C   0  0  0  0  0  0  0  0  0  0  0  0
   -2.8410   24.5490  -29.1170 C   0  0  0  0  0  0  0  0  0  0  0  0
   -1.9220   24.9340  -28.1350 C   0  0  0  0  0  0  0  0  0  0  0  0
   -2.3290   25.1130  -26.8020 C   0  0  0  0  0  0  0  0  0  0  0  0
   -1.3410   25.5340  -25.7780 C   0  0  0  0  0  0  0  0  0  0  0  0
   -0.1080   24.8740  -25.6240 C   0  0  0  0  0  0  0  0  0  0  0  0
    0.7900   25.3100  -24.6460 C   0  0  0  0  0  0  0  0  0  0  0  0
    0.4610   26.3960  -23.8350 C   0  0  0  0  0  0  0  0  0  0  0  0
   -0.7640   27.0380  -24.0180 C   0  0  0  0  0  0  0  0  0  0  0  0
   -1.6250   26.5990  -24.9740 N   0  0  0  0  0  0  0  0  0  0  0  0
   -3.6850   24.9180  -26.4760 C   0  0  0  0  0  0  0  0  0  0  0  0
   -4.6030   24.5360  -27.4580 C   0  0  0  0  0  0  0  0  0  0  0  0
   -3.9260   21.9480  -30.7230 C   0  0  0  0  0  0  0  0  0  0  0  0
   -3.9520   20.9950  -31.9250 C   0  0  0  0  0  0  0  0  0  0  0  0
   -9.3528   20.9850  -30.5376 H   0  0  0  0  0  0  0  0  0  0  0  0
   -8.6495   21.6132  -32.0664 H   0  0  0  0  0  0  0  0  0  0  0  0
   -9.5604   20.0650  -32.0664 H   0  0  0  0  0  0  0  0  0  0  0  0
   -8.4695   17.5129  -31.9857 H   0  0  0  0  0  0  0  0  0  0  0  0
   -7.2931   16.0711  -33.6462 H   0  0  0  0  0  0  0  0  0  0  0  0
   -5.1953   16.8700  -34.7355 H   0  0  0  0  0  0  0  0  0  0  0  0
   -4.2725   19.1185  -34.1712 H   0  0  0  0  0  0  0  0  0  0  0  0
   -6.3867   22.1272  -33.7505 H   0  0  0  0  0  0  0  0  0  0  0  0
   -7.0654   21.9769  -32.0814 H   0  0  0  0  0  0  0  0  0  0  0  0
   -4.6367   23.5772  -33.0015 H   0  0  0  0  0  0  0  0  0  0  0  0
   -6.1269   24.1676  -32.1870 H   0  0  0  0  0  0  0  0  0  0  0  0
   -2.5068   24.4134  -30.1562 H   0  0  0  0  0  0  0  0  0  0  0  0
   -0.8695   25.0984  -28.4093 H   0  0  0  0  0  0  0  0  0  0  0  0
    0.1475   24.0205  -26.2691 H   0  0  0  0  0  0  0  0  0  0  0  0
    1.7546   24.7976  -24.5160 H   0  0  0  0  0  0  0  0  0  0  0  0
    1.1599   26.7426  -23.0595 H   0  0  0  0  0  0  0  0  0  0  0  0
   -1.0331   27.8992  -23.3889 H   0  0  0  0  0  0  0  0  0  0  0  0
   -4.0243   25.0675  -25.4404 H   0  0  0  0  0  0  0  0  0  0  0  0
   -5.6601   24.3917  -27.1902 H   0  0  0  0  0  0  0  0  0  0  0  0
   -2.8910   22.2797  -30.5535 H   0  0  0  0  0  0  0  0  0  0  0  0
   -4.3151   21.4066  -29.8481 H   0  0  0  0  0  0  0  0  0  0  0  0
   -3.2978   21.3895  -32.7164 H   0  0  0  0  0  0  0  0  0  0  0  0
   -3.5977   20.0036  -31.6063 H   0  0  0  0  0  0  0  0  0  0  0  0
  1  2  1  0
  2  3  1  0
  3  4  2  0
  4  5  1  0
  5  6  2  0
  6  7  1  0
  7  8  2  0
  8  9  1  0
  9 10  1  0
 10 11  1  0
 11 12  1  0
 12 13  1  0
 13 14  2  0
 13 15  1  0
 15 16  2  0
 16 17  1  0
 17 18  2  0
 18 19  1  0
 19 20  2  0
 20 21  1  0
 21 22  2  0
 22 23  1  0
 23 24  2  0
 18 25  1  0
 25 26  2  0
 12 27  1  0
 27 28  1  0
  8  3  1  0
 28  9  1  0
 26 15  1  0
 24 19  1  0
  1 29  1  0
  1 30  1  0
  1 31  1  0
  4 32  1  0
  5 33  1  0
  6 34  1  0
  7 35  1  0
 10 36  1  0
 10 37  1  0
 11 38  1  0
 11 39  1  0
 16 40  1  0
 17 41  1  0
 20 42  1  0
 21 43  1  0
 22 44  1  0
 23 45  1  0
 25 46  1  0
 26 47  1  0
 27 48  1  0
 27 49  1  0
 28 50  1  0
 28 51  1  0
M  END
>  <UniqueID>  (41) 
38

>  <SMILES>  (41) 
COc1ccccc1N1CCN(C(=O)c2ccc(-c3ccccn3)cc2)CC1

>  <Energy>  (41) 
70.1039279515986

>  <Genealogy>  (41) 
COc1ccccc1N1CCN(C(=O)c2ccc(-c3ccccn3)cc2)CC1 (3D coordinates assigned)
COc1ccccc1N1CCN(C(=O)c2ccc(-c3ccccn3)cc2)CC1 (nonaromatic ring conformer: 70.1039279515986 kcal/mol)

>  <smiles>  (41) 
COc1ccccc1N1CCN(C(=O)c2ccc(-c3ccccn3)cc2)CC1

>  <score_type>  (41) 
oracle

>  <origin>  (41) 
adg

>  <m_score__min__energy>  (41) 
-8.1899999999999995

>  <m_primary>  (41) 
energy

$$$$
42:0
     RDKit          3D

 30 31  0  0  0  0  0  0  0  0999 V2000
   -2.6980   20.4050  -27.5300 C   0  0  0  0  0  0  0  0  0  0  0  0
   -1.9450   21.5020  -27.6460 C   0  0  0  0  0  0  0  0  0  0  0  0
   -2.4280   22.8510  -27.1930 C   0  0  0  0  0  0  0  0  0  0  0  0
   -2.9600   23.5990  -28.3360 N   0  0  0  0  0  0  0  0  0  0  0  0
   -2.3440   24.5280  -29.1100 C   0  0  0  0  0  0  0  0  0  0  0  0
   -1.1050   24.9850  -28.9250 C   0  0  0  0  0  0  0  0  0  0  0  0
   -3.1170   24.9380  -30.0980 O   0  0  0  0  0  0  0  0  0  0  0  0
   -4.2570   24.2860  -30.0040 C   0  0  0  0  0  0  0  0  0  0  0  0
   -5.2990   24.4090  -30.8380 C   0  0  0  0  0  0  0  0  0  0  0  0
   -6.1670   23.2820  -31.2490 C   0  0  0  0  0  0  0  0  0  0  0  0
   -7.5190   23.2990  -30.8730 C   0  0  0  0  0  0  0  0  0  0  0  0
   -8.3750   22.2640  -31.2530 C   0  0  0  0  0  0  0  0  0  0  0  0
   -7.8970   21.2010  -32.0270 C   0  0  0  0  0  0  0  0  0  0  0  0
   -9.0050   19.9140  -32.4860 Cl  0  0  0  0  0  0  0  0  0  0  0  0
   -6.5530   21.1840  -32.4310 C   0  0  0  0  0  0  0  0  0  0  0  0
   -5.9170   19.8800  -33.4260 Cl  0  0  0  0  0  0  0  0  0  0  0  0
   -5.6960   22.2230  -32.0480 C   0  0  0  0  0  0  0  0  0  0  0  0
   -4.1630   23.4410  -28.9170 C   0  0  0  0  0  0  0  0  0  0  0  0
   -5.0500   22.6360  -28.5210 O   0  0  0  0  0  0  0  0  0  0  0  0
   -2.3114   19.4338  -27.8725 H   0  0  0  0  0  0  0  0  0  0  0  0
   -3.7047   20.4727  -27.0919 H   0  0  0  0  0  0  0  0  0  0  0  0
   -0.9408   21.4154  -28.0865 H   0  0  0  0  0  0  0  0  0  0  0  0
   -3.2203   22.7213  -26.4411 H   0  0  0  0  0  0  0  0  0  0  0  0
   -1.5874   23.4086  -26.7543 H   0  0  0  0  0  0  0  0  0  0  0  0
   -0.6901   25.7413  -29.6075 H   0  0  0  0  0  0  0  0  0  0  0  0
   -0.4978   24.6056  -28.0899 H   0  0  0  0  0  0  0  0  0  0  0  0
   -5.5229   25.4075  -31.2415 H   0  0  0  0  0  0  0  0  0  0  0  0
   -7.9076   24.1354  -30.2735 H   0  0  0  0  0  0  0  0  0  0  0  0
   -9.4301   22.2842  -30.9426 H   0  0  0  0  0  0  0  0  0  0  0  0
   -4.6456   22.2116  -32.3743 H   0  0  0  0  0  0  0  0  0  0  0  0
  1  2  2  0
  2  3  1  0
  3  4  1  0
  4  5  1  0
  5  6  2  0
  5  7  1  0
  7  8  1  0
  8  9  2  3
  9 10  1  0
 10 11  2  0
 11 12  1  0
 12 13  2  0
 13 14  1  0
 13 15  1  0
 15 16  1  0
 15 17  2  0
  8 18  1  0
 18 19  2  0
 18  4  1  0
 17 10  1  0
  1 20  1  0
  1 21  1  0
  2 22  1  0
  3 23  1  0
  3 24  1  0
  6 25  1  0
  6 26  1  0
  9 27  1  0
 11 28  1  0
 12 29  1  0
 17 30  1  0
M  END
>  <UniqueID>  (42) 
39

>  <SMILES>  (42) 
C=CCn1c(=C)oc(=Cc2ccc(Cl)c(Cl)c2)c1=O

>  <Energy>  (42) 
67.46096252530093

>  <Genealogy>  (42) 
C=CCn1c(=C)oc(=Cc2ccc(Cl)c(Cl)c2)c1=O (3D coordinates assigned)
C=CCn1c(=C)oc(=Cc2ccc(Cl)c(Cl)c2)c1=O (optimized conformer: 67.46096252530093 kcal/mol)

>  <smiles>  (42) 
C=CCn1c(=C)oc(=Cc2ccc(Cl)c(Cl)c2)c1=O

>  <score_type>  (42) 
oracle

>  <origin>  (42) 
adg

>  <m_score__min__energy>  (42) 
-7.2400000000000002

>  <m_primary>  (42) 
energy

$$$$
43:0
     RDKit          3D

 37 39  0  0  0  0  0  0  0  0999 V2000
   -6.3940   16.2010  -33.8080 C   0  0  0  0  0  0  0  0  0  0  0  0
   -7.2330   16.7660  -32.8080 O   0  0  0  0  0  0  0  0  0  0  0  0
   -7.4340   18.1440  -32.6290 C   0  0  0  0  0  0  0  0  0  0  0  0
   -8.2940   18.5630  -31.6080 C   0  0  0  0  0  0  0  0  0  0  0  0
   -8.5260   19.9240  -31.3890 C   0  0  0  0  0  0  0  0  0  0  0  0
   -7.8910   20.8900  -32.1860 C   0  0  0  0  0  0  0  0  0  0  0  0
   -8.1480   22.3540  -31.9480 C   0  0  0  0  0  0  0  0  0  0  0  0
   -7.0480   23.1620  -32.4740 N   0  0  0  0  0  0  0  0  0  0  0  0
   -5.9640   23.6580  -31.6640 C   0  0  0  0  0  0  0  0  0  0  0  0
   -6.1160   24.8570  -30.9520 C   0  0  0  0  0  0  0  0  0  0  0  0
   -5.0540   25.3730  -30.2150 C   0  0  0  0  0  0  0  0  0  0  0  0
   -3.8590   24.7290  -30.1740 N   0  0  0  0  0  0  0  0  0  0  0  0
   -2.8410   25.2910  -29.4330 O   0  0  0  0  0  0  0  0  0  0  0  0
   -3.6630   23.5510  -30.8430 C   0  0  0  0  0  0  0  0  0  0  0  0
   -2.4220   22.8890  -30.7820 C   0  0  0  0  0  0  0  0  0  0  0  0
   -2.2300   21.6780  -31.4470 C   0  0  0  0  0  0  0  0  0  0  0  0
   -3.2730   21.1040  -32.1720 C   0  0  0  0  0  0  0  0  0  0  0  0
   -3.0070   19.4310  -33.0580 Br  0  0  0  0  0  0  0  0  0  0  0  0
   -4.5120   21.7440  -32.2500 C   0  0  0  0  0  0  0  0  0  0  0  0
   -4.7220   22.9810  -31.6030 C   0  0  0  0  0  0  0  0  0  0  0  0
   -7.0370   20.4720  -33.2180 C   0  0  0  0  0  0  0  0  0  0  0  0
   -6.8050   19.1100  -33.4370 C   0  0  0  0  0  0  0  0  0  0  0  0
   -5.5729   15.6481  -33.3283 H   0  0  0  0  0  0  0  0  0  0  0  0
   -6.9818   15.5140  -34.4345 H   0  0  0  0  0  0  0  0  0  0  0  0
   -5.9784   17.0040  -34.4345 H   0  0  0  0  0  0  0  0  0  0  0  0
   -8.7915   17.8155  -30.9726 H   0  0  0  0  0  0  0  0  0  0  0  0
   -9.2100   20.2401  -30.5876 H   0  0  0  0  0  0  0  0  0  0  0  0
   -9.0822   22.6436  -32.4515 H   0  0  0  0  0  0  0  0  0  0  0  0
   -8.2296   22.5282  -30.8650 H   0  0  0  0  0  0  0  0  0  0  0  0
   -7.1000   23.4360  -33.4800 H   0  0  0  0  0  0  0  0  0  0  0  0
   -7.0774   25.3910  -30.9762 H   0  0  0  0  0  0  0  0  0  0  0  0
   -5.1841   26.3133  -29.6593 H   0  0  0  0  0  0  0  0  0  0  0  0
   -1.5964   23.3307  -30.2047 H   0  0  0  0  0  0  0  0  0  0  0  0
   -1.2531   21.1747  -31.3992 H   0  0  0  0  0  0  0  0  0  0  0  0
   -5.3306   21.2805  -32.8201 H   0  0  0  0  0  0  0  0  0  0  0  0
   -6.5470   21.2199  -33.8587 H   0  0  0  0  0  0  0  0  0  0  0  0
   -6.1282   18.7925  -34.2440 H   0  0  0  0  0  0  0  0  0  0  0  0
  1  2  1  0
  2  3  1  0
  3  4  2  0
  4  5  1  0
  5  6  2  0
  6  7  1  0
  7  8  1  0
  8  9  1  0
  9 10  2  0
 10 11  1  0
 11 12  2  0
 12 13  1  0
 12 14  1  0
 14 15  2  0
 15 16  1  0
 16 17  2  0
 17 18  1  0
 17 19  1  0
 19 20  2  0
  6 21  1  0
 21 22  2  0
 22  3  1  0
 20  9  1  0
 20 14  1  0
  1 23  1  0
  1 24  1  0
  1 25  1  0
  4 26  1  0
  5 27  1  0
  7 28  1  0
  7 29  1  0
  8 30  1  0
 10 31  1  0
 11 32  1  0
 15 33  1  0
 16 34  1  0
 19 35  1  0
 21 36  1  0
 22 37  1  0
M  CHG  2  12   1  13  -1
M  END
>  <UniqueID>  (43) 
40

>  <SMILES>  (43) 
COc1ccc(CNc2cc[n+]([O-])c3ccc(Br)cc23)cc1

>  <Energy>  (43) 
47.05707076912849

>  <Genealogy>  (43) 
COc1ccc(CNc2cc[n+]([O-])c3ccc(Br)cc23)cc1 (3D coordinates assigned)
COc1ccc(CNc2cc[n+]([O-])c3ccc(Br)cc23)cc1 (optimized conformer: 47.05707076912849 kcal/mol)

>  <smiles>  (43) 
COc1ccc(CNc2cc[n+]([O-])c3ccc(Br)cc23)cc1

>  <score_type>  (43) 
oracle

>  <origin>  (43) 
adg

>  <m_score__min__energy>  (43) 
-9.3599999999999994

>  <m_primary>  (43) 
energy

$$$$
44:0
     RDKit          3D

 40 42  0  0  0  0  0  0  0  0999 V2000
   -0.8880   21.9550  -26.3540 C   0  0  0  0  0  0  0  0  0  0  0  0
   -0.1560   22.0580  -27.6890 C   0  0  0  0  0  0  0  0  0  0  0  0
   -1.1360   22.1270  -28.8420 C   0  0  0  0  0  0  0  0  0  0  0  0
   -1.5370   23.2990  -29.4050 C   0  0  0  0  0  0  0  0  0  0  0  0
   -1.0010   24.6230  -29.0090 C   0  0  0  0  0  0  0  0  0  0  0  0
   -1.6100   25.6730  -29.3400 O   0  0  0  0  0  0  0  0  0  0  0  0
    0.2030   24.7350  -28.3260 O   0  0  0  0  0  0  0  0  0  0  0  0
   -2.6020   23.2500  -30.3590 N   0  0  0  0  0  0  0  0  0  0  0  0
   -3.7160   24.1200  -30.8070 C   0  0  0  0  0  0  0  0  0  0  0  0
   -3.9860   25.3460  -30.7180 O   0  0  0  0  0  0  0  0  0  0  0  0
   -4.4150   22.9230  -31.3680 C   0  0  2  0  0  0  0  0  0  0  0  0
   -5.6270   22.6320  -30.6090 N   0  0  0  0  0  0  0  0  0  0  0  0
   -6.8480   23.3550  -30.7860 C   0  0  0  0  0  0  0  0  0  0  0  0
   -7.1400   24.3140  -30.0210 O   0  0  0  0  0  0  0  0  0  0  0  0
   -7.8030   22.9390  -31.8590 C   0  0  0  0  0  0  0  0  0  0  0  0
   -7.7700   21.4800  -32.0200 N   0  0  0  0  0  0  0  0  0  0  0  0
   -8.7600   20.7130  -31.4680 C   0  0  0  0  0  0  0  0  0  0  0  0
   -8.7600   19.3270  -31.6380 C   0  0  0  0  0  0  0  0  0  0  0  0
   -7.7470   18.7280  -32.3840 C   0  0  0  0  0  0  0  0  0  0  0  0
   -6.7490   19.5180  -32.9530 C   0  0  0  0  0  0  0  0  0  0  0  0
   -6.7790   20.9020  -32.7650 C   0  0  0  0  0  0  0  0  0  0  0  0
   -3.2620   22.1350  -30.9920 C   0  0  2  0  0  0  0  0  0  0  0  0
   -3.4600   20.8240  -29.7370 S   0  0  0  0  0  0  0  0  0  0  0  0
   -1.6580   20.8020  -29.3820 C   0  0  0  0  0  0  0  0  0  0  0  0
   -0.1654   22.0567  -25.5308 H   0  0  0  0  0  0  0  0  0  0  0  0
   -1.6383   22.7564  -26.2844 H   0  0  0  0  0  0  0  0  0  0  0  0
   -1.3880   20.9777  -26.2844 H   0  0  0  0  0  0  0  0  0  0  0  0
    0.4647   22.9662  -27.6897 H   0  0  0  0  0  0  0  0  0  0  0  0
    0.4705   21.1627  -27.8149 H   0  0  0  0  0  0  0  0  0  0  0  0
   -4.8016   22.8729  -32.3966 H   0  0  0  0  0  0  0  0  0  0  0  0
   -8.8206   23.2525  -31.5830 H   0  0  0  0  0  0  0  0  0  0  0  0
   -7.5115   23.4144  -32.8072 H   0  0  0  0  0  0  0  0  0  0  0  0
   -9.5615   21.1918  -30.8862 H   0  0  0  0  0  0  0  0  0  0  0  0
   -9.5533   18.7130  -31.1866 H   0  0  0  0  0  0  0  0  0  0  0  0
   -7.7347   17.6369  -32.5234 H   0  0  0  0  0  0  0  0  0  0  0  0
   -5.9452   19.0557  -33.5447 H   0  0  0  0  0  0  0  0  0  0  0  0
   -5.9999   21.5317  -33.2195 H   0  0  0  0  0  0  0  0  0  0  0  0
   -2.8317   21.5587  -31.8243 H   0  0  0  0  0  0  0  0  0  0  0  0
   -1.4581   20.0179  -28.6369 H   0  0  0  0  0  0  0  0  0  0  0  0
   -1.1400   20.6102  -30.3333 H   0  0  0  0  0  0  0  0  0  0  0  0
  1  2  1  0
  2  3  1  0
  3  4  2  0
  4  5  1  0
  5  6  2  0
  5  7  1  0
  4  8  1  0
  8  9  1  0
  9 10  2  0
  9 11  1  0
 11 12  1  0
 12 13  1  0
 13 14  2  0
 13 15  1  0
 15 16  1  0
 16 17  2  0
 17 18  1  0
 18 19  2  0
 19 20  1  0
 20 21  2  0
 11 22  1  0
 22 23  1  0
 23 24  1  0
 24  3  1  0
 22  8  1  0
 21 16  1  0
  1 25  1  0
  1 26  1  0
  1 27  1  0
  2 28  1  0
  2 29  1  0
 11 30  1  6
 15 31  1  0
 15 32  1  0
 17 33  1  0
 18 34  1  0
 19 35  1  0
 20 36  1  0
 21 37  1  0
 22 38  1  6
 24 39  1  0
 24 40  1  0
M  CHG  3   7  -1  12  -1  16   1
M  END
>  <UniqueID>  (44) 
41

>  <SMILES>  (44) 
CCC1=C(C(=O)[O-])N2C(=O)[C@H]([N-]C(=O)C[n+]3ccccc3)[C@@H]2SC1

>  <Energy>  (44) 
79.98319655295155

>  <Genealogy>  (44) 
CCC1=C(C(=O)[O-])N2C(=O)C([N-]C(=O)C[n+]3ccccc3)C2SC1 (protonated)
CCC1=C(C(=O)[O-])N2C(=O)[C@H]([N-]C(=O)C[n+]3ccccc3)[C@@H]2SC1 (chirality)
CCC1=C(C(=O)[O-])N2C(=O)[C@H]([N-]C(=O)C[n+]3ccccc3)[C@@H]2SC1 (3D coordinates assigned)
CCC1=C(C(=O)[O-])N2C(=O)[C@H]([N-]C(=O)C[n+]3ccccc3)[C@@H]2SC1 (nonaromatic ring conformer: 79.98319655295155 kcal/mol)

>  <smiles>  (44) 
CCC1=C(C(=O)[O-])N2C(=O)C(NC(=O)C[n+]3ccccc3)C2SC1

>  <score_type>  (44) 
oracle

>  <origin>  (44) 
adg

>  <m_score__min__energy>  (44) 
-9.7400000000000002

>  <m_primary>  (44) 
energy

$$$$
