0:0
     RDKit          3D

 33 35  0  0  0  0  0  0  0  0999 V2000
   -5.9850   18.2660  -33.4200 C   0  0  0  0  0  0  0  0  0  0  0  0
   -7.1320   18.7560  -32.6640 N   0  0  0  0  0  0  0  0  0  0  0  0
   -8.0180   18.0160  -31.9610 C   0  0  0  0  0  0  0  0  0  0  0  0
   -8.8890   18.7730  -31.2520 N   0  0  0  0  0  0  0  0  0  0  0  0
   -8.5000   20.0340  -31.5250 C   0  0  0  0  0  0  0  0  0  0  0  0
   -7.4460   20.0310  -32.3880 C   0  0  0  0  0  0  0  0  0  0  0  0
   -6.6940   21.2570  -32.7960 C   0  0  0  0  0  0  0  0  0  0  0  0
   -7.4260   22.5450  -32.3410 C   0  0  0  0  0  0  0  0  0  0  0  0
   -8.1510   22.4120  -31.0500 N   0  0  0  0  0  0  0  0  0  0  0  0
   -7.3490   22.6500  -29.8290 C   0  0  0  0  0  0  0  0  0  0  0  0
   -6.1220   23.5060  -30.0540 C   0  0  0  0  0  0  0  0  0  0  0  0
   -6.2410   24.8860  -30.2740 C   0  0  0  0  0  0  0  0  0  0  0  0
   -5.0920   25.6560  -30.4700 C   0  0  0  0  0  0  0  0  0  0  0  0
   -3.8680   25.0650  -30.4720 N   0  0  0  0  0  0  0  0  0  0  0  0
   -3.7240   23.7260  -30.2880 C   0  0  0  0  0  0  0  0  0  0  0  0
   -4.8470   22.9210  -30.0850 C   0  0  0  0  0  0  0  0  0  0  0  0
   -9.1070   21.2830  -30.9790 C   0  0  0  0  0  0  0  0  0  0  0  0
   -5.2023   17.9316  -32.7232 H   0  0  0  0  0  0  0  0  0  0  0  0
   -6.2967   17.4225  -34.0535 H   0  0  0  0  0  0  0  0  0  0  0  0
   -5.5910   19.0743  -34.0535 H   0  0  0  0  0  0  0  0  0  0  0  0
   -8.0304   16.9161  -31.9643 H   0  0  0  0  0  0  0  0  0  0  0  0
   -5.6940   21.2327  -32.3384 H   0  0  0  0  0  0  0  0  0  0  0  0
   -6.6200   21.2694  -33.8934 H   0  0  0  0  0  0  0  0  0  0  0  0
   -6.6801   23.3467  -32.2364 H   0  0  0  0  0  0  0  0  0  0  0  0
   -8.1841   22.7643  -33.1073 H   0  0  0  0  0  0  0  0  0  0  0  0
   -7.9887   23.1510  -29.0875 H   0  0  0  0  0  0  0  0  0  0  0  0
   -6.9923   21.6673  -29.4868 H   0  0  0  0  0  0  0  0  0  0  0  0
   -7.2337   25.3595  -30.2921 H   0  0  0  0  0  0  0  0  0  0  0  0
   -5.1779   26.7419  -30.6229 H   0  0  0  0  0  0  0  0  0  0  0  0
   -2.7206   23.2754  -30.2990 H   0  0  0  0  0  0  0  0  0  0  0  0
   -4.7327   21.8353  -29.9503 H   0  0  0  0  0  0  0  0  0  0  0  0
   -9.3898   21.1165  -29.9291 H   0  0  0  0  0  0  0  0  0  0  0  0
   -9.9925   21.5349  -31.5810 H   0  0  0  0  0  0  0  0  0  0  0  0
  1  2  1  0
  2  3  1  0
  3  4  2  0
  4  5  1  0
  5  6  2  0
  6  7  1  0
  7  8  1  0
  8  9  1  0
  9 10  1  0
 10 11  1  0
 11 12  2  0
 12 13  1  0
 13 14  2  0
 14 15  1  0
 15 16  2  0
  9 17  1  0
  6  2  1  0
 16 11  1  0
 17  5  1  0
  1 18  1  0
  1 19  1  0
  1 20  1  0
  3 21  1  0
  7 22  1  0
  7 23  1  0
  8 24  1  0
  8 25  1  0
 10 26  1  0
 10 27  1  0
 12 28  1  0
 13 29  1  0
 15 30  1  0
 16 31  1  0
 17 32  1  0
 17 33  1  0
M  END
>  <UniqueID>  (1) 
1

>  <SMILES>  (1) 
Cn1cnc2c1CCN(Cc1ccncc1)C2

>  <Energy>  (1) 
74.68683121564152

>  <Genealogy>  (1) 
Cn1cnc2c1CCN(Cc1ccncc1)C2 (3D coordinates assigned)
Cn1cnc2c1CCN(Cc1ccncc1)C2 (nonaromatic ring conformer: 74.68683121564152 kcal/mol)

>  <smiles>  (1) 
Cn1cnc2c1CCN(Cc1ccncc1)C2

>  <score_type>  (1) 
oracle

>  <origin>  (1) 
adg

>  <m_score__min__energy>  (1) 
-7.3200000000000003

>  <m_primary>  (1) 
energy

$$$$
1:0
     RDKit          3D

 39 39  0  0  0  0  0  0  0  0999 V2000
   -9.4200   22.0170  -31.5770 C   0  0  0  0  0  0  0  0  0  0  0  0
   -7.9360   22.0130  -31.9450 C   0  0  0  0  0  0  0  0  0  0  0  0
   -7.3790   20.6400  -31.9490 N   0  0  0  0  0  0  0  0  0  0  0  0
   -8.4640   19.6320  -31.8910 C   0  0  0  0  0  0  0  0  0  0  0  0
   -7.8900   18.2180  -31.9730 C   0  0  0  0  0  0  0  0  0  0  0  0
   -6.4760   20.4170  -33.1080 C   0  0  0  0  0  0  0  0  0  0  0  0
   -5.0680   20.7420  -32.7140 C   0  0  0  0  0  0  0  0  0  0  0  0
   -4.1190   20.4420  -33.4880 O   0  0  0  0  0  0  0  0  0  0  0  0
   -4.8110   21.3990  -31.4630 N   0  0  0  0  0  0  0  0  0  0  0  0
   -3.4890   21.7390  -31.0140 C   0  0  0  0  0  0  0  0  0  0  0  0
   -2.4760   20.7650  -31.0550 C   0  0  0  0  0  0  0  0  0  0  0  0
   -1.2080   21.0380  -30.5410 C   0  0  0  0  0  0  0  0  0  0  0  0
   -0.9380   22.2800  -29.9690 C   0  0  0  0  0  0  0  0  0  0  0  0
   -1.9340   23.2570  -29.9160 C   0  0  0  0  0  0  0  0  0  0  0  0
   -3.2160   23.0070  -30.4410 C   0  0  0  0  0  0  0  0  0  0  0  0
   -4.2270   24.0940  -30.4190 C   0  0  0  0  0  0  0  0  0  0  0  0
   -3.8560   25.2960  -30.5280 O   0  0  0  0  0  0  0  0  0  0  0  0
   -5.5880   23.7920  -30.3160 O   0  0  0  0  0  0  0  0  0  0  0  0
   -6.5810   24.7850  -30.0830 C   0  0  0  0  0  0  0  0  0  0  0  0
   -9.5263   22.0173  -30.4821 H   0  0  0  0  0  0  0  0  0  0  0  0
   -9.8983   22.9164  -31.9920 H   0  0  0  0  0  0  0  0  0  0  0  0
   -9.9031   21.1202  -31.9920 H   0  0  0  0  0  0  0  0  0  0  0  0
   -7.8155   22.4501  -32.9472 H   0  0  0  0  0  0  0  0  0  0  0  0
   -7.3930   22.6025  -31.1916 H   0  0  0  0  0  0  0  0  0  0  0  0
   -9.0123   19.7452  -30.9441 H   0  0  0  0  0  0  0  0  0  0  0  0
   -9.1405   19.7899  -32.7439 H   0  0  0  0  0  0  0  0  0  0  0  0
   -7.7314   17.8272  -30.9571 H   0  0  0  0  0  0  0  0  0  0  0  0
   -8.5949   17.5667  -32.5105 H   0  0  0  0  0  0  0  0  0  0  0  0
   -6.9306   18.2423  -32.5105 H   0  0  0  0  0  0  0  0  0  0  0  0
   -6.5352   19.3643  -33.4217 H   0  0  0  0  0  0  0  0  0  0  0  0
   -6.7825   21.0660  -33.9416 H   0  0  0  0  0  0  0  0  0  0  0  0
   -5.6250   21.6940  -30.8780 H   0  0  0  0  0  0  0  0  0  0  0  0
   -2.6849   19.7792  -31.4961 H   0  0  0  0  0  0  0  0  0  0  0  0
   -0.4201   20.2718  -30.5873 H   0  0  0  0  0  0  0  0  0  0  0  0
    0.0607   22.4907  -29.5589 H   0  0  0  0  0  0  0  0  0  0  0  0
   -1.7145   24.2331  -29.4588 H   0  0  0  0  0  0  0  0  0  0  0  0
   -6.7167   24.9207  -28.9999 H   0  0  0  0  0  0  0  0  0  0  0  0
   -6.2617   25.7359  -30.5345 H   0  0  0  0  0  0  0  0  0  0  0  0
   -7.5319   24.4657  -30.5345 H   0  0  0  0  0  0  0  0  0  0  0  0
  1  2  1  0
  2  3  1  0
  3  4  1  0
  4  5  1  0
  3  6  1  0
  6  7  1  0
  7  8  2  0
  7  9  1  0
  9 10  1  0
 10 11  2  0
 11 12  1  0
 12 13  2  0
 13 14  1  0
 14 15  2  0
 15 16  1  0
 16 17  2  0
 16 18  1  0
 18 19  1  0
 15 10  1  0
  1 20  1  0
  1 21  1  0
  1 22  1  0
  2 23  1  0
  2 24  1  0
  4 25  1  0
  4 26  1  0
  5 27  1  0
  5 28  1  0
  5 29  1  0
  6 30  1  0
  6 31  1  0
  9 32  1  0
 11 33  1  0
 12 34  1  0
 13 35  1  0
 14 36  1  0
 19 37  1  0
 19 38  1  0
 19 39  1  0
M  END
>  <UniqueID>  (2) 
2

>  <SMILES>  (2) 
CCN(CC)CC(=O)Nc1ccccc1C(=O)OC

>  <Energy>  (2) 
39.4981983732502

>  <Genealogy>  (2) 
CCN(CC)CC(=O)Nc1ccccc1C(=O)OC (3D coordinates assigned)
CCN(CC)CC(=O)Nc1ccccc1C(=O)OC (optimized conformer: 39.4981983732502 kcal/mol)

>  <smiles>  (2) 
CCN(CC)CC(=O)Nc1ccccc1C(=O)OC

>  <score_type>  (2) 
oracle

>  <origin>  (2) 
adg

>  <m_score__min__energy>  (2) 
-6.4000000000000004

>  <m_primary>  (2) 
energy

$$$$
2:0
     RDKit          3D

 64 66  0  0  0  0  0  0  0  0999 V2000
   -2.7520   20.4130  -27.4700 C   0  0  0  0  0  0  0  0  0  0  0  0
   -2.8800   20.5480  -28.9860 C   0  0  0  0  0  0  0  0  0  0  0  0
   -3.0950   21.9530  -29.3920 N   0  0  0  0  0  0  0  0  0  0  0  0
   -4.1990   22.6700  -28.7090 C   0  0  0  0  0  0  0  0  0  0  0  0
   -4.0400   24.1940  -28.6670 C   0  0  0  0  0  0  0  0  0  0  0  0
   -1.9020   22.7630  -29.7490 C   0  0  0  0  0  0  0  0  0  0  0  0
   -0.7270   21.9740  -30.3610 C   0  0  0  0  0  0  0  0  0  0  0  0
   -1.1440   20.9920  -31.2850 O   0  0  0  0  0  0  0  0  0  0  0  0
   -0.4800   21.1280  -32.5270 C   0  0  0  0  0  0  0  0  0  0  0  0
   -1.4040   20.6640  -33.6560 C   0  0  0  0  0  0  0  0  0  0  0  0
   -2.8430   21.2100  -33.5020 C   0  0  0  0  0  0  0  0  0  0  0  0
   -3.4590   20.8760  -32.2000 N   0  0  0  0  0  0  0  0  0  0  0  0
   -4.9010   20.6670  -32.2890 C   0  0  0  0  0  0  0  0  0  0  0  0
   -5.4480   19.3870  -32.5840 C   0  0  0  0  0  0  0  0  0  0  0  0
   -6.8340   19.1730  -32.4320 C   0  0  0  0  0  0  0  0  0  0  0  0
   -7.6970   20.2260  -32.2500 N   0  0  0  0  0  0  0  0  0  0  0  0
   -9.1500   20.0150  -32.4300 C   0  0  0  0  0  0  0  0  0  0  0  0
   -7.2040   21.4790  -31.9460 C   0  0  0  0  0  0  0  0  0  0  0  0
   -8.0630   22.5260  -31.5230 C   0  0  0  0  0  0  0  0  0  0  0  0
   -7.5750   23.8040  -31.2720 C   0  0  0  0  0  0  0  0  0  0  0  0
   -6.2230   24.0740  -31.4280 C   0  0  0  0  0  0  0  0  0  0  0  0
   -5.3440   23.0570  -31.7890 C   0  0  0  0  0  0  0  0  0  0  0  0
   -5.8030   21.7340  -32.0090 C   0  0  0  0  0  0  0  0  0  0  0  0
   -7.2930   17.7220  -32.4180 C   0  0  0  0  0  0  0  0  0  0  0  0
   -6.8240   16.9900  -33.6760 C   0  0  0  0  0  0  0  0  0  0  0  0
   -5.3850   17.3610  -34.0940 C   0  0  0  0  0  0  0  0  0  0  0  0
   -4.6220   18.1880  -33.0430 C   0  0  0  0  0  0  0  0  0  0  0  0
   -3.4295   21.1276  -26.9797 H   0  0  0  0  0  0  0  0  0  0  0  0
   -3.0189   19.3891  -27.1692 H   0  0  0  0  0  0  0  0  0  0  0  0
   -1.7154   20.6251  -27.1692 H   0  0  0  0  0  0  0  0  0  0  0  0
   -1.9570   20.1780  -29.4563 H   0  0  0  0  0  0  0  0  0  0  0  0
   -3.7505   19.9594  -29.3111 H   0  0  0  0  0  0  0  0  0  0  0  0
   -5.1366   22.4372  -29.2350 H   0  0  0  0  0  0  0  0  0  0  0  0
   -4.1942   22.3270  -27.6639 H   0  0  0  0  0  0  0  0  0  0  0  0
   -4.0049   24.5303  -27.6203 H   0  0  0  0  0  0  0  0  0  0  0  0
   -3.1072   24.4795  -29.1753 H   0  0  0  0  0  0  0  0  0  0  0  0
   -4.8938   24.6659  -29.1753 H   0  0  0  0  0  0  0  0  0  0  0  0
   -2.2149   23.5256  -30.4774 H   0  0  0  0  0  0  0  0  0  0  0  0
   -1.5263   23.1827  -28.8042 H   0  0  0  0  0  0  0  0  0  0  0  0
   -0.0612   22.6811  -30.8775 H   0  0  0  0  0  0  0  0  0  0  0  0
   -0.2150   21.4547  -29.5375 H   0  0  0  0  0  0  0  0  0  0  0  0
   -0.2104   22.1827  -32.6846 H   0  0  0  0  0  0  0  0  0  0  0  0
    0.4313   20.5119  -32.5238 H   0  0  0  0  0  0  0  0  0  0  0  0
   -0.9939   21.0144  -34.6147 H   0  0  0  0  0  0  0  0  0  0  0  0
   -1.4559   19.5659  -33.6171 H   0  0  0  0  0  0  0  0  0  0  0  0
   -2.8138   22.3049  -33.6038 H   0  0  0  0  0  0  0  0  0  0  0  0
   -3.4562   20.7373  -34.2834 H   0  0  0  0  0  0  0  0  0  0  0  0
   -3.0110   20.0130  -31.8150 H   0  0  0  0  0  0  0  0  0  0  0  0
   -3.1810   21.6130  -31.5230 H   0  0  0  0  0  0  0  0  0  0  0  0
   -9.6350   19.9446  -31.4452 H   0  0  0  0  0  0  0  0  0  0  0  0
   -9.5768   20.8606  -32.9893 H   0  0  0  0  0  0  0  0  0  0  0  0
   -9.3186   19.0829  -32.9893 H   0  0  0  0  0  0  0  0  0  0  0  0
   -9.1360   22.3230  -31.3910 H   0  0  0  0  0  0  0  0  0  0  0  0
   -8.2612   24.6010  -30.9497 H   0  0  0  0  0  0  0  0  0  0  0  0
   -5.8449   25.0942  -31.2660 H   0  0  0  0  0  0  0  0  0  0  0  0
   -4.2740   23.2839  -31.9057 H   0  0  0  0  0  0  0  0  0  0  0  0
   -6.8753   17.2205  -31.5325 H   0  0  0  0  0  0  0  0  0  0  0  0
   -8.3924   17.7011  -32.3881 H   0  0  0  0  0  0  0  0  0  0  0  0
   -6.8649   15.9073  -33.4863 H   0  0  0  0  0  0  0  0  0  0  0  0
   -7.4910   17.2908  -34.4973 H   0  0  0  0  0  0  0  0  0  0  0  0
   -4.8264   16.4308  -34.2745 H   0  0  0  0  0  0  0  0  0  0  0  0
   -5.4663   17.9873  -34.9946 H   0  0  0  0  0  0  0  0  0  0  0  0
   -4.4011   17.5500  -32.1746 H   0  0  0  0  0  0  0  0  0  0  0  0
   -3.6908   18.5576  -33.4971 H   0  0  0  0  0  0  0  0  0  0  0  0
  1  2  1  0
  2  3  1  0
  3  4  1  0
  4  5  1  0
  3  6  1  0
  6  7  1  0
  7  8  1  0
  8  9  1  0
  9 10  1  0
 10 11  1  0
 11 12  1  0
 12 13  1  0
 13 14  2  0
 14 15  1  0
 15 16  2  0
 16 17  1  0
 16 18  1  0
 18 19  2  0
 19 20  1  0
 20 21  2  0
 21 22  1  0
 22 23  2  0
 15 24  1  0
 24 25  1  0
 25 26  1  0
 26 27  1  0
 23 13  1  0
 27 14  1  0
 23 18  1  0
  1 28  1  0
  1 29  1  0
  1 30  1  0
  2 31  1  0
  2 32  1  0
  4 33  1  0
  4 34  1  0
  5 35  1  0
  5 36  1  0
  5 37  1  0
  6 38  1  0
  6 39  1  0
  7 40  1  0
  7 41  1  0
  9 42  1  0
  9 43  1  0
 10 44  1  0
 10 45  1  0
 11 46  1  0
 11 47  1  0
 12 48  1  0
 12 49  1  0
 17 50  1  0
 17 51  1  0
 17 52  1  0
 19 53  1  0
 20 54  1  0
 21 55  1  0
 22 56  1  0
 24 57  1  0
 24 58  1  0
 25 59  1  0
 25 60  1  0
 26 61  1  0
 26 62  1  0
 27 63  1  0
 27 64  1  0
M  CHG  2  12   1  16   1
M  END
>  <UniqueID>  (3) 
3

>  <SMILES>  (3) 
CCN(CC)CCOCCC[NH2+]c1c2c([n+](C)c3ccccc13)CCCC2

>  <Energy>  (3) 
100.4624871557993

>  <Genealogy>  (3) 
CCN(CC)CCOCCC[NH2+]c1c2c([n+](C)c3ccccc13)CCCC2 (protonated)
CCN(CC)CCOCCC[NH2+]c1c2c([n+](C)c3ccccc13)CCCC2 (3D coordinates assigned)
CCN(CC)CCOCCC[NH2+]c1c2c([n+](C)c3ccccc13)CCCC2 (nonaromatic ring conformer: 100.4624871557993 kcal/mol)

>  <smiles>  (3) 
CCN(CC)CCOCCCNc1c2c([n+](C)c3ccccc13)CCCC2

>  <score_type>  (3) 
oracle

>  <origin>  (3) 
adg

>  <m_score__min__energy>  (3) 
-8.1899999999999995

>  <m_primary>  (3) 
energy

$$$$
3:0
     RDKit          3D

 57 59  0  0  0  0  0  0  0  0999 V2000
   -2.6390   25.2790  -26.3330 C   0  0  0  0  0  0  0  0  0  0  0  0
   -4.1260   24.9240  -26.3250 C   0  0  0  0  0  0  0  0  0  0  0  0
   -4.6230   24.7230  -27.6970 N   0  0  0  0  0  0  0  0  0  0  0  0
   -3.8660   23.6890  -28.4290 C   0  0  0  0  0  0  0  0  0  0  0  0
   -3.8110   23.9250  -29.9450 C   0  0  0  0  0  0  0  0  0  0  0  0
   -3.9420   25.3010  -30.2250 O   0  0  0  0  0  0  0  0  0  0  0  0
   -5.2910   25.6070  -30.5060 C   0  0  0  0  0  0  0  0  0  0  0  0
   -6.1170   24.3170  -30.5210 C   0  0  0  0  0  0  0  0  0  0  0  0
   -6.4740   23.8100  -31.9290 C   0  0  0  0  0  0  0  0  0  0  0  0
   -5.3590   23.0430  -32.6630 C   0  0  0  0  0  0  0  0  0  0  0  0
   -4.9910   21.7810  -32.0030 N   0  0  0  0  0  0  0  0  0  0  0  0
   -5.3150   20.4760  -32.5300 C   0  0  0  0  0  0  0  0  0  0  0  0
   -4.3150   19.7000  -33.1490 C   0  0  0  0  0  0  0  0  0  0  0  0
   -3.0380   20.2420  -33.4170 C   0  0  0  0  0  0  0  0  0  0  0  0
   -2.0220   19.4530  -33.9480 C   0  0  0  0  0  0  0  0  0  0  0  0
   -2.2530   18.1090  -34.2110 C   0  0  0  0  0  0  0  0  0  0  0  0
   -3.5120   17.5560  -33.9830 C   0  0  0  0  0  0  0  0  0  0  0  0
   -4.5860   18.3480  -33.4960 C   0  0  0  0  0  0  0  0  0  0  0  0
   -5.8580   17.8290  -33.3370 N   0  0  0  0  0  0  0  0  0  0  0  0
   -6.1960   16.5100  -33.9210 C   0  0  0  0  0  0  0  0  0  0  0  0
   -6.8340   18.5660  -32.6900 C   0  0  0  0  0  0  0  0  0  0  0  0
   -8.0860   18.0010  -32.3330 C   0  0  0  0  0  0  0  0  0  0  0  0
   -9.1100   18.7900  -31.8110 C   0  0  0  0  0  0  0  0  0  0  0  0
   -8.9190   20.1560  -31.6400 C   0  0  0  0  0  0  0  0  0  0  0  0
   -7.6790   20.7240  -31.9190 C   0  0  0  0  0  0  0  0  0  0  0  0
   -6.6020   19.9290  -32.3630 C   0  0  0  0  0  0  0  0  0  0  0  0
   -2.2771   25.3654  -25.2978 H   0  0  0  0  0  0  0  0  0  0  0  0
   -2.0764   24.4899  -26.8535 H   0  0  0  0  0  0  0  0  0  0  0  0
   -2.4936   26.2371  -26.8535 H   0  0  0  0  0  0  0  0  0  0  0  0
   -4.2727   23.9984  -25.7490 H   0  0  0  0  0  0  0  0  0  0  0  0
   -4.6841   25.7532  -25.8657 H   0  0  0  0  0  0  0  0  0  0  0  0
   -4.5960   25.6250  -28.2240 H   0  0  0  0  0  0  0  0  0  0  0  0
   -5.6210   24.4100  -27.6510 H   0  0  0  0  0  0  0  0  0  0  0  0
   -2.8364   23.6725  -28.0421 H   0  0  0  0  0  0  0  0  0  0  0  0
   -4.3881   22.7339  -28.2700 H   0  0  0  0  0  0  0  0  0  0  0  0
   -2.8478   23.5642  -30.3349 H   0  0  0  0  0  0  0  0  0  0  0  0
   -4.6365   23.3791  -30.4251 H   0  0  0  0  0  0  0  0  0  0  0  0
   -5.6821   26.2834  -29.7317 H   0  0  0  0  0  0  0  0  0  0  0  0
   -5.3581   26.0957  -31.4892 H   0  0  0  0  0  0  0  0  0  0  0  0
   -5.5405   23.5328  -30.0084 H   0  0  0  0  0  0  0  0  0  0  0  0
   -7.0682   24.5462  -30.0182 H   0  0  0  0  0  0  0  0  0  0  0  0
   -7.3417   23.1401  -31.8375 H   0  0  0  0  0  0  0  0  0  0  0  0
   -6.6677   24.7092  -32.5322 H   0  0  0  0  0  0  0  0  0  0  0  0
   -5.7037   22.8164  -33.6827 H   0  0  0  0  0  0  0  0  0  0  0  0
   -4.4657   23.6848  -32.6612 H   0  0  0  0  0  0  0  0  0  0  0  0
   -4.5360   21.8390  -31.0650 H   0  0  0  0  0  0  0  0  0  0  0  0
   -2.8440   21.3034  -33.2028 H   0  0  0  0  0  0  0  0  0  0  0  0
   -1.0365   19.8936  -34.1593 H   0  0  0  0  0  0  0  0  0  0  0  0
   -1.4398   17.4789  -34.6005 H   0  0  0  0  0  0  0  0  0  0  0  0
   -3.6769   16.4871  -34.1838 H   0  0  0  0  0  0  0  0  0  0  0  0
   -6.3811   15.7876  -33.1124 H   0  0  0  0  0  0  0  0  0  0  0  0
   -7.0989   16.6045  -34.5421 H   0  0  0  0  0  0  0  0  0  0  0  0
   -5.3589   16.1586  -34.5421 H   0  0  0  0  0  0  0  0  0  0  0  0
   -8.2512   16.9222  -32.4705 H   0  0  0  0  0  0  0  0  0  0  0  0
  -10.0704   18.3308  -31.5341 H   0  0  0  0  0  0  0  0  0  0  0  0
   -9.7466   20.7875  -31.2847 H   0  0  0  0  0  0  0  0  0  0  0  0
   -7.5373   21.8074  -31.7915 H   0  0  0  0  0  0  0  0  0  0  0  0
  1  2  1  0
  2  3  1  0
  3  4  1  0
  4  5  1  0
  5  6  1  0
  6  7  1  0
  7  8  1  0
  8  9  1  0
  9 10  1  0
 10 11  1  0
 11 12  1  0
 12 13  2  0
 13 14  1  0
 14 15  2  0
 15 16  1  0
 16 17  2  0
 17 18  1  0
 18 19  2  0
 19 20  1  0
 19 21  1  0
 21 22  2  0
 22 23  1  0
 23 24  2  0
 24 25  1  0
 25 26  2  0
 26 12  1  0
 18 13  1  0
 26 21  1  0
  1 27  1  0
  1 28  1  0
  1 29  1  0
  2 30  1  0
  2 31  1  0
  3 32  1  0
  3 33  1  0
  4 34  1  0
  4 35  1  0
  5 36  1  0
  5 37  1  0
  7 38  1  0
  7 39  1  0
  8 40  1  0
  8 41  1  0
  9 42  1  0
  9 43  1  0
 10 44  1  0
 10 45  1  0
 11 46  1  0
 14 47  1  0
 15 48  1  0
 16 49  1  0
 17 50  1  0
 20 51  1  0
 20 52  1  0
 20 53  1  0
 22 54  1  0
 23 55  1  0
 24 56  1  0
 25 57  1  0
M  CHG  2   3   1  19   1
M  END
>  <UniqueID>  (4) 
4

>  <SMILES>  (4) 
CC[NH2+]CCOCCCCNc1c2ccccc2[n+](C)c2ccccc12

>  <Energy>  (4) 
78.53078559444357

>  <Genealogy>  (4) 
CC[NH2+]CCOCCCCNc1c2ccccc2[n+](C)c2ccccc12 (protonated)
CC[NH2+]CCOCCCCNc1c2ccccc2[n+](C)c2ccccc12 (3D coordinates assigned)
CC[NH2+]CCOCCCCNc1c2ccccc2[n+](C)c2ccccc12 (optimized conformer: 78.53078559444357 kcal/mol)

>  <smiles>  (4) 
CCNCCOCCCCNc1c2ccccc2[n+](C)c2ccccc12

>  <score_type>  (4) 
oracle

>  <origin>  (4) 
adg

>  <m_score__min__energy>  (4) 
-8.7799999999999994

>  <m_primary>  (4) 
energy

$$$$
4:0
     RDKit          3D

 59 61  0  0  0  0  0  0  0  0999 V2000
   -3.3650   24.3390  -27.5420 C   0  0  0  0  0  0  0  0  0  0  0  0
   -4.5320   24.1740  -28.5170 C   0  0  0  0  0  0  0  0  0  0  0  0
   -4.1740   24.3780  -29.9410 N   0  0  0  0  0  0  0  0  0  0  0  0
   -3.1740   23.4190  -30.4710 C   0  0  0  0  0  0  0  0  0  0  0  0
   -3.2870   21.9940  -29.9030 C   0  0  0  0  0  0  0  0  0  0  0  0
   -5.2930   24.6800  -30.8610 C   0  0  0  0  0  0  0  0  0  0  0  0
   -6.1990   23.4640  -31.0840 C   0  0  0  0  0  0  0  0  0  0  0  0
   -5.8940   22.8380  -32.3700 N   0  0  0  0  0  0  0  0  0  0  0  0
   -5.8890   21.4080  -32.5190 C   0  0  0  0  0  0  0  0  0  0  0  0
   -7.0790   20.6760  -32.3680 C   0  0  0  0  0  0  0  0  0  0  0  0
   -8.3080   21.3320  -32.1510 C   0  0  0  0  0  0  0  0  0  0  0  0
   -9.4920   20.6060  -32.0390 C   0  0  0  0  0  0  0  0  0  0  0  0
   -9.4740   19.2240  -32.1550 C   0  0  0  0  0  0  0  0  0  0  0  0
   -8.2680   18.5520  -32.3520 C   0  0  0  0  0  0  0  0  0  0  0  0
   -7.0400   19.2570  -32.4290 C   0  0  0  0  0  0  0  0  0  0  0  0
   -5.8310   18.6030  -32.5710 N   0  0  0  0  0  0  0  0  0  0  0  0
   -5.7450   17.1450  -32.3330 C   0  0  0  0  0  0  0  0  0  0  0  0
   -4.6970   19.3160  -32.9160 C   0  0  0  0  0  0  0  0  0  0  0  0
   -3.5160   18.6700  -33.3560 C   0  0  0  0  0  0  0  0  0  0  0  0
   -2.3720   19.3970  -33.6790 C   0  0  0  0  0  0  0  0  0  0  0  0
   -2.3650   20.7920  -33.5800 C   0  0  0  0  0  0  0  0  0  0  0  0
   -1.1940   21.5440  -33.9560 N   0  0  0  0  0  0  0  0  0  0  0  0
   -0.2550   20.6780  -34.6830 C   0  0  0  0  0  0  0  0  0  0  0  0
    0.5960   21.4960  -35.6580 C   0  0  0  0  0  0  0  0  0  0  0  0
    0.3130   22.8620  -35.5160 O   0  0  0  0  0  0  0  0  0  0  0  0
   -3.5350   21.4530  -33.1880 C   0  0  0  0  0  0  0  0  0  0  0  0
   -4.7040   20.7350  -32.8610 C   0  0  0  0  0  0  0  0  0  0  0  0
   -3.7398   24.2860  -26.5092 H   0  0  0  0  0  0  0  0  0  0  0  0
   -2.6322   23.5355  -27.7078 H   0  0  0  0  0  0  0  0  0  0  0  0
   -2.8837   25.3141  -27.7078 H   0  0  0  0  0  0  0  0  0  0  0  0
   -4.9321   23.1554  -28.4054 H   0  0  0  0  0  0  0  0  0  0  0  0
   -5.2657   24.9533  -28.2631 H   0  0  0  0  0  0  0  0  0  0  0  0
   -3.2972   23.3636  -31.5627 H   0  0  0  0  0  0  0  0  0  0  0  0
   -2.1875   23.7981  -30.1659 H   0  0  0  0  0  0  0  0  0  0  0  0
   -3.2837   22.0361  -28.8038 H   0  0  0  0  0  0  0  0  0  0  0  0
   -4.2244   21.5344  -30.2495 H   0  0  0  0  0  0  0  0  0  0  0  0
   -2.4337   21.3924  -30.2495 H   0  0  0  0  0  0  0  0  0  0  0  0
   -5.8936   25.4963  -30.4333 H   0  0  0  0  0  0  0  0  0  0  0  0
   -4.8650   24.9669  -31.8329 H   0  0  0  0  0  0  0  0  0  0  0  0
   -6.0347   22.7351  -30.2767 H   0  0  0  0  0  0  0  0  0  0  0  0
   -7.2487   23.7928  -31.0841 H   0  0  0  0  0  0  0  0  0  0  0  0
   -5.7810   23.4390  -33.2170 H   0  0  0  0  0  0  0  0  0  0  0  0
   -8.3324   22.4287  -32.0692 H   0  0  0  0  0  0  0  0  0  0  0  0
  -10.4423   21.1297  -31.8583 H   0  0  0  0  0  0  0  0  0  0  0  0
  -10.4140   18.6562  -32.0914 H   0  0  0  0  0  0  0  0  0  0  0  0
   -8.2693   17.4563  -32.4493 H   0  0  0  0  0  0  0  0  0  0  0  0
   -5.7335   16.9502  -31.2504 H   0  0  0  0  0  0  0  0  0  0  0  0
   -6.6154   16.6476  -32.7858 H   0  0  0  0  0  0  0  0  0  0  0  0
   -4.8222   16.7534  -32.7858 H   0  0  0  0  0  0  0  0  0  0  0  0
   -3.5015   17.5737  -33.4444 H   0  0  0  0  0  0  0  0  0  0  0  0
   -1.4670   18.8694  -34.0146 H   0  0  0  0  0  0  0  0  0  0  0  0
   -1.4750   22.3500  -34.5610 H   0  0  0  0  0  0  0  0  0  0  0  0
   -0.7280   21.9300  -33.1010 H   0  0  0  0  0  0  0  0  0  0  0  0
    0.4059   20.1764  -33.9608 H   0  0  0  0  0  0  0  0  0  0  0  0
   -0.8309   19.9356  -35.2550 H   0  0  0  0  0  0  0  0  0  0  0  0
    1.6612   21.3212  -35.4461 H   0  0  0  0  0  0  0  0  0  0  0  0
    0.3631   21.1853  -36.6872 H   0  0  0  0  0  0  0  0  0  0  0  0
   -0.4970   23.0390  -36.0630 H   0  0  0  0  0  0  0  0  0  0  0  0
   -3.5428   22.5516  -33.1341 H   0  0  0  0  0  0  0  0  0  0  0  0
  1  2  1  0
  2  3  1  0
  3  4  1  0
  4  5  1  0
  3  6  1  0
  6  7  1  0
  7  8  1  0
  8  9  1  0
  9 10  2  0
 10 11  1  0
 11 12  2  0
 12 13  1  0
 13 14  2  0
 14 15  1  0
 15 16  2  0
 16 17  1  0
 16 18  1  0
 18 19  2  0
 19 20  1  0
 20 21  2  0
 21 22  1  0
 22 23  1  0
 23 24  1  0
 24 25  1  0
 21 26  1  0
 26 27  2  0
 27  9  1  0
 15 10  1  0
 27 18  1  0
  1 28  1  0
  1 29  1  0
  1 30  1  0
  2 31  1  0
  2 32  1  0
  4 33  1  0
  4 34  1  0
  5 35  1  0
  5 36  1  0
  5 37  1  0
  6 38  1  0
  6 39  1  0
  7 40  1  0
  7 41  1  0
  8 42  1  0
 11 43  1  0
 12 44  1  0
 13 45  1  0
 14 46  1  0
 17 47  1  0
 17 48  1  0
 17 49  1  0
 19 50  1  0
 20 51  1  0
 22 52  1  0
 22 53  1  0
 23 54  1  0
 23 55  1  0
 24 56  1  0
 24 57  1  0
 25 58  1  0
 26 59  1  0
M  CHG  2  16   1  22   1
M  END
>  <UniqueID>  (5) 
5

>  <SMILES>  (5) 
CCN(CC)CCNc1c2ccccc2[n+](C)c2ccc([NH2+]CCO)cc12

>  <Energy>  (5) 
89.55917766496074

>  <Genealogy>  (5) 
CCN(CC)CCNc1c2ccccc2[n+](C)c2ccc([NH2+]CCO)cc12 (protonated)
CCN(CC)CCNc1c2ccccc2[n+](C)c2ccc([NH2+]CCO)cc12 (3D coordinates assigned)
CCN(CC)CCNc1c2ccccc2[n+](C)c2ccc([NH2+]CCO)cc12 (optimized conformer: 89.55917766496074 kcal/mol)

>  <smiles>  (5) 
CCN(CC)CCNc1c2ccccc2[n+](C)c2ccc(NCCO)cc12

>  <score_type>  (5) 
oracle

>  <origin>  (5) 
adg

>  <m_score__min__energy>  (5) 
-8.5999999999999996

>  <m_primary>  (5) 
energy

$$$$
5:0
     RDKit          3D

 40 42  0  0  0  0  0  0  0  0999 V2000
   -6.2130   16.1340  -33.8260 C   0  0  0  0  0  0  0  0  0  0  0  0
   -7.0540   16.6060  -32.7770 O   0  0  0  0  0  0  0  0  0  0  0  0
   -7.2910   17.9610  -32.5030 C   0  0  0  0  0  0  0  0  0  0  0  0
   -8.5330   18.4250  -31.9830 C   0  0  0  0  0  0  0  0  0  0  0  0
   -8.7360   19.7940  -31.7280 C   0  0  0  0  0  0  0  0  0  0  0  0
   -7.6840   20.6650  -31.9910 C   0  0  0  0  0  0  0  0  0  0  0  0
   -7.6640   22.0000  -31.8620 N   0  0  0  0  0  0  0  0  0  0  0  0
   -6.4260   22.3630  -32.2820 C   0  0  0  0  0  0  0  0  0  0  0  0
   -5.9690   23.8050  -32.3390 C   0  0  0  0  0  0  0  0  0  0  0  0
   -5.0620   24.1790  -31.2310 N   0  0  0  0  0  0  0  0  0  0  0  0
   -4.8000   23.0720  -30.2850 C   0  0  0  0  0  0  0  0  0  0  0  0
   -4.1160   23.5960  -29.0180 C   0  0  0  0  0  0  0  0  0  0  0  0
   -4.9630   24.5660  -28.2940 N   0  0  0  0  0  0  0  0  0  0  0  0
   -5.9210   25.2880  -29.1550 C   0  0  0  0  0  0  0  0  0  0  0  0
   -5.3890   25.4720  -30.5840 C   0  0  0  0  0  0  0  0  0  0  0  0
   -5.6720   21.2900  -32.6610 N   0  0  0  0  0  0  0  0  0  0  0  0
   -4.3540   21.2850  -33.2970 C   0  0  0  0  0  0  0  0  0  0  0  0
   -6.4880   20.2310  -32.4830 C   0  0  0  0  0  0  0  0  0  0  0  0
   -6.2550   18.8830  -32.7610 C   0  0  0  0  0  0  0  0  0  0  0  0
   -5.3308   15.6389  -33.3940 H   0  0  0  0  0  0  0  0  0  0  0  0
   -6.7691   15.4162  -34.4469 H   0  0  0  0  0  0  0  0  0  0  0  0
   -5.8899   16.9826  -34.4469 H   0  0  0  0  0  0  0  0  0  0  0  0
   -9.3408   17.7069  -31.7789 H   0  0  0  0  0  0  0  0  0  0  0  0
   -9.6945   20.1628  -31.3339 H   0  0  0  0  0  0  0  0  0  0  0  0
   -8.4470   22.6150  -31.5470 H   0  0  0  0  0  0  0  0  0  0  0  0
   -5.4415   23.9661  -33.2907 H   0  0  0  0  0  0  0  0  0  0  0  0
   -6.8671   24.4338  -32.2494 H   0  0  0  0  0  0  0  0  0  0  0  0
   -5.7537   22.5972  -30.0110 H   0  0  0  0  0  0  0  0  0  0  0  0
   -4.1364   22.3408  -30.7697 H   0  0  0  0  0  0  0  0  0  0  0  0
   -3.9007   22.7465  -28.3531 H   0  0  0  0  0  0  0  0  0  0  0  0
   -3.1909   24.1098  -29.3184 H   0  0  0  0  0  0  0  0  0  0  0  0
   -4.3350   25.2660  -27.8350 H   0  0  0  0  0  0  0  0  0  0  0  0
   -6.8602   24.7169  -29.1970 H   0  0  0  0  0  0  0  0  0  0  0  0
   -6.0799   26.2865  -28.7217 H   0  0  0  0  0  0  0  0  0  0  0  0
   -6.1554   25.9844  -31.1840 H   0  0  0  0  0  0  0  0  0  0  0  0
   -4.4637   26.0640  -30.5260 H   0  0  0  0  0  0  0  0  0  0  0  0
   -3.5731   21.2820  -32.5223 H   0  0  0  0  0  0  0  0  0  0  0  0
   -4.2525   20.3865  -33.9234 H   0  0  0  0  0  0  0  0  0  0  0  0
   -4.2457   22.1827  -33.9234 H   0  0  0  0  0  0  0  0  0  0  0  0
   -5.2901   18.5489  -33.1700 H   0  0  0  0  0  0  0  0  0  0  0  0
  1  2  1  0
  2  3  1  0
  3  4  2  0
  4  5  1  0
  5  6  2  0
  6  7  1  0
  7  8  2  0
  8  9  1  0
  9 10  1  0
 10 11  1  0
 11 12  1  0
 12 13  1  0
 13 14  1  0
 14 15  1  0
  8 16  1  0
 16 17  1  0
 16 18  1  0
 18 19  2  0
 19  3  1  0
 18  6  1  0
 15 10  1  0
  1 20  1  0
  1 21  1  0
  1 22  1  0
  4 23  1  0
  5 24  1  0
  7 25  1  0
  9 26  1  0
  9 27  1  0
 11 28  1  0
 11 29  1  0
 12 30  1  0
 12 31  1  0
 13 32  1  0
 14 33  1  0
 14 34  1  0
 15 35  1  0
 15 36  1  0
 17 37  1  0
 17 38  1  0
 17 39  1  0
 19 40  1  0
M  CHG  1   7   1
M  END
>  <UniqueID>  (6) 
6

>  <SMILES>  (6) 
COc1ccc2[nH+]c(CN3CCNCC3)n(C)c2c1

>  <Energy>  (6) 
90.62394276086658

>  <Genealogy>  (6) 
COc1ccc2[nH+]c(CN3CCNCC3)n(C)c2c1 (protonated)
COc1ccc2[nH+]c(CN3CCNCC3)n(C)c2c1 (3D coordinates assigned)
COc1ccc2[nH+]c(CN3CCNCC3)n(C)c2c1 (nonaromatic ring conformer: 90.62394276086658 kcal/mol)

>  <smiles>  (6) 
COc1ccc2nc(CN3CCNCC3)n(C)c2c1

>  <score_type>  (6) 
oracle

>  <origin>  (6) 
adg

>  <m_score__min__energy>  (6) 
-6.4699999999999998

>  <m_primary>  (6) 
energy

$$$$
6:0
     RDKit          3D

 71 74  0  0  0  0  0  0  0  0999 V2000
   -9.1230   21.2880  -31.0290 C   0  0  0  0  0  0  0  0  0  0  0  0
   -9.2270   20.5460  -32.3600 C   0  0  0  0  0  0  0  0  0  0  0  0
   -7.9140   20.0970  -32.8450 N   0  0  0  0  0  0  0  0  0  0  0  0
   -7.2040   19.1600  -31.9530 C   0  0  0  0  0  0  0  0  0  0  0  0
   -5.7530   19.5650  -31.5960 C   0  0  0  0  0  0  0  0  0  0  0  0
   -5.1640   20.5650  -32.5120 N   0  0  0  0  0  0  0  0  0  0  0  0
   -4.5160   21.6560  -31.7900 C   0  0  0  0  0  0  0  0  0  0  0  0
   -5.2920   22.6920  -31.2240 C   0  0  0  0  0  0  0  0  0  0  0  0
   -6.4800   23.1480  -31.8380 C   0  0  0  0  0  0  0  0  0  0  0  0
   -7.2340   24.1670  -31.2630 C   0  0  0  0  0  0  0  0  0  0  0  0
   -6.8110   24.7690  -30.0840 C   0  0  0  0  0  0  0  0  0  0  0  0
   -5.6300   24.3530  -29.4710 C   0  0  0  0  0  0  0  0  0  0  0  0
   -4.8550   23.2990  -30.0180 C   0  0  0  0  0  0  0  0  0  0  0  0
   -3.7030   22.8540  -29.4060 N   0  0  0  0  0  0  0  0  0  0  0  0
   -3.4400   23.1880  -27.9880 C   0  0  0  0  0  0  0  0  0  0  0  0
   -2.7880   22.1140  -30.1300 C   0  0  0  0  0  0  0  0  0  0  0  0
   -1.4780   21.8850  -29.6470 C   0  0  0  0  0  0  0  0  0  0  0  0
   -0.5640   21.1370  -30.3800 C   0  0  0  0  0  0  0  0  0  0  0  0
   -0.8940   20.6720  -31.6440 C   0  0  0  0  0  0  0  0  0  0  0  0
   -2.1610   20.9230  -32.1920 C   0  0  0  0  0  0  0  0  0  0  0  0
   -2.3640   20.7160  -33.6030 N   0  0  0  0  0  0  0  0  0  0  0  0
   -2.3850   19.4040  -34.2550 C   0  0  0  0  0  0  0  0  0  0  0  0
   -2.7510   18.2980  -33.2380 C   0  0  0  0  0  0  0  0  0  0  0  0
   -3.4750   17.1160  -33.8080 N   0  0  0  0  0  0  0  0  0  0  0  0
   -2.4920   16.0720  -34.2040 C   0  0  0  0  0  0  0  0  0  0  0  0
   -4.1920   17.5650  -35.0540 C   0  0  0  0  0  0  0  0  0  0  0  0
   -5.6150   18.0730  -34.7750 C   0  0  0  0  0  0  0  0  0  0  0  0
   -6.4920   16.9540  -34.1900 C   0  0  0  0  0  0  0  0  0  0  0  0
   -5.6710   15.9090  -33.4160 C   0  0  0  0  0  0  0  0  0  0  0  0
   -4.4240   16.5500  -32.7890 C   0  0  0  0  0  0  0  0  0  0  0  0
   -3.1540   21.5670  -31.3950 C   0  0  0  0  0  0  0  0  0  0  0  0
   -9.2235   20.5711  -30.2007 H   0  0  0  0  0  0  0  0  0  0  0  0
   -8.1459   21.7890  -30.9638 H   0  0  0  0  0  0  0  0  0  0  0  0
   -9.9248   22.0383  -30.9638 H   0  0  0  0  0  0  0  0  0  0  0  0
   -9.8757   19.6676  -32.2270 H   0  0  0  0  0  0  0  0  0  0  0  0
   -9.6444   21.2404  -33.1040 H   0  0  0  0  0  0  0  0  0  0  0  0
   -8.0280   19.6660  -33.7910 H   0  0  0  0  0  0  0  0  0  0  0  0
   -7.7760   19.0812  -31.0167 H   0  0  0  0  0  0  0  0  0  0  0  0
   -7.1305   18.2100  -32.5027 H   0  0  0  0  0  0  0  0  0  0  0  0
   -5.7514   19.9844  -30.5791 H   0  0  0  0  0  0  0  0  0  0  0  0
   -5.1394   18.6560  -31.6808 H   0  0  0  0  0  0  0  0  0  0  0  0
   -5.9270   20.8920  -33.1390 H   0  0  0  0  0  0  0  0  0  0  0  0
   -4.4990   20.0850  -33.1500 H   0  0  0  0  0  0  0  0  0  0  0  0
   -6.8131   22.6921  -32.7820 H   0  0  0  0  0  0  0  0  0  0  0  0
   -8.1672   24.4967  -31.7431 H   0  0  0  0  0  0  0  0  0  0  0  0
   -7.4090   25.5750  -29.6337 H   0  0  0  0  0  0  0  0  0  0  0  0
   -5.2942   24.8500  -28.5489 H   0  0  0  0  0  0  0  0  0  0  0  0
   -3.9894   22.4902  -27.3390 H   0  0  0  0  0  0  0  0  0  0  0  0
   -2.3619   23.1053  -27.7857 H   0  0  0  0  0  0  0  0  0  0  0  0
   -3.7732   24.2166  -27.7857 H   0  0  0  0  0  0  0  0  0  0  0  0
   -1.1780   22.3056  -28.6759 H   0  0  0  0  0  0  0  0  0  0  0  0
    0.4257   20.9129  -29.9554 H   0  0  0  0  0  0  0  0  0  0  0  0
   -0.1543   20.1001  -32.2234 H   0  0  0  0  0  0  0  0  0  0  0  0
   -2.4240   21.5590  -34.2190 H   0  0  0  0  0  0  0  0  0  0  0  0
   -3.1312   19.4136  -35.0632 H   0  0  0  0  0  0  0  0  0  0  0  0
   -1.3854   19.1943  -34.6634 H   0  0  0  0  0  0  0  0  0  0  0  0
   -1.8188   17.9364  -32.7794 H   0  0  0  0  0  0  0  0  0  0  0  0
   -3.4446   18.7621  -32.5213 H   0  0  0  0  0  0  0  0  0  0  0  0
   -2.0605   15.6137  -33.3019 H   0  0  0  0  0  0  0  0  0  0  0  0
   -2.9982   15.2995  -34.8014 H   0  0  0  0  0  0  0  0  0  0  0  0
   -1.6904   16.5309  -34.8014 H   0  0  0  0  0  0  0  0  0  0  0  0
   -3.6139   18.3777  -35.5180 H   0  0  0  0  0  0  0  0  0  0  0  0
   -4.2774   16.6923  -35.7182 H   0  0  0  0  0  0  0  0  0  0  0  0
   -5.5661   18.9049  -34.0570 H   0  0  0  0  0  0  0  0  0  0  0  0
   -6.0603   18.4094  -35.7229 H   0  0  0  0  0  0  0  0  0  0  0  0
   -7.2273   17.4027  -33.5059 H   0  0  0  0  0  0  0  0  0  0  0  0
   -6.9832   16.4398  -35.0292 H   0  0  0  0  0  0  0  0  0  0  0  0
   -6.2949   15.4788  -32.6187 H   0  0  0  0  0  0  0  0  0  0  0  0
   -5.3495   15.1241  -34.1164 H   0  0  0  0  0  0  0  0  0  0  0  0
   -4.7464   17.3629  -32.1217 H   0  0  0  0  0  0  0  0  0  0  0  0
   -3.8871   15.7586  -32.2455 H   0  0  0  0  0  0  0  0  0  0  0  0
  1  2  1  0
  2  3  1  0
  3  4  1  0
  4  5  1  0
  5  6  1  0
  6  7  1  0
  7  8  2  0
  8  9  1  0
  9 10  2  0
 10 11  1  0
 11 12  2  0
 12 13  1  0
 13 14  2  0
 14 15  1  0
 14 16  1  0
 16 17  2  0
 17 18  1  0
 18 19  2  0
 19 20  1  0
 20 21  1  0
 21 22  1  0
 22 23  1  0
 23 24  1  0
 24 25  1  0
 24 26  1  0
 26 27  1  0
 27 28  1  0
 28 29  1  0
 29 30  1  0
 20 31  2  0
 31  7  1  0
 13  8  1  0
 31 16  1  0
 30 24  1  0
  1 32  1  0
  1 33  1  0
  1 34  1  0
  2 35  1  0
  2 36  1  0
  3 37  1  0
  4 38  1  0
  4 39  1  0
  5 40  1  0
  5 41  1  0
  6 42  1  0
  6 43  1  0
  9 44  1  0
 10 45  1  0
 11 46  1  0
 12 47  1  0
 15 48  1  0
 15 49  1  0
 15 50  1  0
 17 51  1  0
 18 52  1  0
 19 53  1  0
 21 54  1  0
 22 55  1  0
 22 56  1  0
 23 57  1  0
 23 58  1  0
 25 59  1  0
 25 60  1  0
 25 61  1  0
 26 62  1  0
 26 63  1  0
 27 64  1  0
 27 65  1  0
 28 66  1  0
 28 67  1  0
 29 68  1  0
 29 69  1  0
 30 70  1  0
 30 71  1  0
M  CHG  3   6   1  14   1  24   1
M  END
>  <UniqueID>  (7) 
7

>  <SMILES>  (7) 
CCNCC[NH2+]c1c2ccccc2[n+](C)c2cccc(NCC[N+]3(C)CCCCC3)c12

>  <Energy>  (7) 
128.75487814066835

>  <Genealogy>  (7) 
CCNCC[NH2+]c1c2ccccc2[n+](C)c2cccc(NCC[N+]3(C)CCCCC3)c12 (protonated)
CCNCC[NH2+]c1c2ccccc2[n+](C)c2cccc(NCC[N+]3(C)CCCCC3)c12 (3D coordinates assigned)
CCNCC[NH2+]c1c2ccccc2[n+](C)c2cccc(NCC[N+]3(C)CCCCC3)c12 (nonaromatic ring conformer: 128.75487814066835 kcal/mol)

>  <smiles>  (7) 
CCNCCNc1c2ccccc2[n+](C)c2cccc(NCC[N+]3(C)CCCCC3)c12

>  <score_type>  (7) 
oracle

>  <origin>  (7) 
adg

>  <m_score__min__energy>  (7) 
-8.7400000000000002

>  <m_primary>  (7) 
energy

$$$$
7:0
     RDKit          3D

 36 38  0  0  0  0  0  0  0  0999 V2000
   -3.5690   20.8150  -30.3850 C   0  0  0  0  0  0  0  0  0  0  0  0
   -4.2490   21.9390  -31.0290 N   0  0  0  0  0  0  0  0  0  0  0  0
   -4.3110   23.2350  -30.6400 C   0  0  0  0  0  0  0  0  0  0  0  0
   -3.7330   23.8000  -29.4020 C   0  0  0  0  0  0  0  0  0  0  0  0
   -2.3560   24.0720  -29.3420 C   0  0  0  0  0  0  0  0  0  0  0  0
   -1.7870   24.5910  -28.1750 C   0  0  0  0  0  0  0  0  0  0  0  0
   -2.5850   24.8280  -27.0530 C   0  0  0  0  0  0  0  0  0  0  0  0
   -3.9510   24.5390  -27.0940 C   0  0  0  0  0  0  0  0  0  0  0  0
   -4.5240   24.0210  -28.2600 C   0  0  0  0  0  0  0  0  0  0  0  0
   -4.9970   23.9830  -31.5290 N   0  0  0  0  0  0  0  0  0  0  0  0
   -5.3590   23.1650  -32.5030 N   0  0  0  0  0  0  0  0  0  0  0  0
   -4.9200   21.9330  -32.1990 C   0  0  0  0  0  0  0  0  0  0  0  0
   -5.1130   20.5020  -33.2750 S   0  0  0  0  0  0  0  0  0  0  0  0
   -6.9170   20.1920  -33.0560 C   0  0  0  0  0  0  0  0  0  0  0  0
   -7.2940   18.7850  -32.6190 C   0  0  0  0  0  0  0  0  0  0  0  0
   -8.7030   18.9240  -32.0630 C   0  0  0  0  0  0  0  0  0  0  0  0
   -8.8370   20.3700  -31.5800 C   0  0  0  0  0  0  0  0  0  0  0  0
   -7.5900   21.1160  -32.0520 C   0  0  0  0  0  0  0  0  0  0  0  0
   -3.6349   20.9239  -29.2924 H   0  0  0  0  0  0  0  0  0  0  0  0
   -4.0489   19.8731  -30.6892 H   0  0  0  0  0  0  0  0  0  0  0  0
   -2.5120   20.8029  -30.6892 H   0  0  0  0  0  0  0  0  0  0  0  0
   -1.7214   23.8754  -30.2187 H   0  0  0  0  0  0  0  0  0  0  0  0
   -0.7102   24.8129  -28.1403 H   0  0  0  0  0  0  0  0  0  0  0  0
   -2.1376   25.2421  -26.1374 H   0  0  0  0  0  0  0  0  0  0  0  0
   -4.5772   24.7191  -26.2077 H   0  0  0  0  0  0  0  0  0  0  0  0
   -5.5982   23.7853  -28.2841 H   0  0  0  0  0  0  0  0  0  0  0  0
   -5.8760   23.4560  -33.3620 H   0  0  0  0  0  0  0  0  0  0  0  0
   -7.2734   20.3770  -34.0801 H   0  0  0  0  0  0  0  0  0  0  0  0
   -7.2803   18.0950  -33.4755 H   0  0  0  0  0  0  0  0  0  0  0  0
   -6.5910   18.3741  -31.8795 H   0  0  0  0  0  0  0  0  0  0  0  0
   -9.4441   18.7152  -32.8486 H   0  0  0  0  0  0  0  0  0  0  0  0
   -8.8800   18.2121  -31.2433 H   0  0  0  0  0  0  0  0  0  0  0  0
   -9.7383   20.8303  -32.0110 H   0  0  0  0  0  0  0  0  0  0  0  0
   -8.9279   20.4111  -30.4845 H   0  0  0  0  0  0  0  0  0  0  0  0
   -7.8691   22.0660  -32.5313 H   0  0  0  0  0  0  0  0  0  0  0  0
   -6.9216   21.3631  -31.2141 H   0  0  0  0  0  0  0  0  0  0  0  0
  1  2  1  0
  2  3  1  0
  3  4  1  0
  4  5  2  0
  5  6  1  0
  6  7  2  0
  7  8  1  0
  8  9  2  0
  3 10  2  0
 10 11  1  0
 11 12  2  0
 12 13  1  0
 13 14  1  0
 14 15  1  0
 15 16  1  0
 16 17  1  0
 17 18  1  0
 12  2  1  0
 18 14  1  0
  9  4  1  0
  1 19  1  0
  1 20  1  0
  1 21  1  0
  5 22  1  0
  6 23  1  0
  7 24  1  0
  8 25  1  0
  9 26  1  0
 11 27  1  0
 14 28  1  0
 15 29  1  0
 15 30  1  0
 16 31  1  0
 16 32  1  0
 17 33  1  0
 17 34  1  0
 18 35  1  0
 18 36  1  0
M  CHG  1  11   1
M  END
>  <UniqueID>  (8) 
8

>  <SMILES>  (8) 
Cn1c(-c2ccccc2)n[nH+]c1SC1CCCC1

>  <Energy>  (8) 
76.77214103513208

>  <Genealogy>  (8) 
Cn1c(-c2ccccc2)n[nH+]c1SC1CCCC1 (protonated)
Cn1c(-c2ccccc2)n[nH+]c1SC1CCCC1 (3D coordinates assigned)
Cn1c(-c2ccccc2)n[nH+]c1SC1CCCC1 (nonaromatic ring conformer: 76.77214103513208 kcal/mol)

>  <smiles>  (8) 
Cn1c(SC2CCCC2)nnc1-c1ccccc1

>  <score_type>  (8) 
oracle

>  <origin>  (8) 
adg

>  <m_score__min__energy>  (8) 
-7.1600000000000001

>  <m_primary>  (8) 
energy

$$$$
8:0
     RDKit          3D

 54 53  0  0  0  0  0  0  0  0999 V2000
   -8.8420   22.9880  -31.9590 C   0  0  0  0  0  0  0  0  0  0  0  0
   -9.7850   21.7870  -31.9170 C   0  0  0  0  0  0  0  0  0  0  0  0
   -9.1360   20.4880  -32.4240 C   0  0  0  0  0  0  0  0  0  0  0  0
   -8.7040   19.5330  -31.2920 C   0  0  0  0  0  0  0  0  0  0  0  0
   -8.1920   18.1890  -31.8310 C   0  0  0  0  0  0  0  0  0  0  0  0
   -6.8340   17.8240  -31.2100 C   0  0  0  0  0  0  0  0  0  0  0  0
   -6.0870   16.7540  -32.0350 C   0  0  0  0  0  0  0  0  0  0  0  0
   -6.4730   16.7500  -33.5240 C   0  0  0  0  0  0  0  0  0  0  0  0
   -5.3360   17.2370  -34.4380 C   0  0  0  0  0  0  0  0  0  0  0  0
   -5.6470   18.6080  -35.0740 C   0  0  0  0  0  0  0  0  0  0  0  0
   -6.1060   19.6680  -34.0590 C   0  0  0  0  0  0  0  0  0  0  0  0
   -5.0290   19.9960  -33.0120 C   0  0  0  0  0  0  0  0  0  0  0  0
   -5.4910   21.0470  -31.9870 C   0  0  0  0  0  0  0  0  0  0  0  0
   -5.0440   22.4890  -32.2960 C   0  0  0  0  0  0  0  0  0  0  0  0
   -5.7890   23.5600  -31.4670 C   0  0  0  0  0  0  0  0  0  0  0  0
   -5.0240   23.9570  -30.2000 C   0  0  0  0  0  0  0  0  0  0  0  0
   -3.8820   24.7000  -30.5490 O   0  0  0  0  0  0  0  0  0  0  0  0
   -2.6470   24.3500  -29.4440 S   0  0  0  0  0  0  0  0  0  0  0  0
   -3.2290   24.0890  -28.0830 O   0  0  0  0  0  0  0  0  0  0  0  0
   -1.8590   23.1530  -29.8970 O   0  0  0  0  0  0  0  0  0  0  0  0
   -1.6180   25.6750  -29.3510 O   0  0  0  0  0  0  0  0  0  0  0  0
   -8.5980   23.2987  -30.9324 H   0  0  0  0  0  0  0  0  0  0  0  0
   -7.9180   22.7104  -32.4874 H   0  0  0  0  0  0  0  0  0  0  0  0
   -9.3309   23.8197  -32.4874 H   0  0  0  0  0  0  0  0  0  0  0  0
  -10.1088   21.6331  -30.8770 H   0  0  0  0  0  0  0  0  0  0  0  0
  -10.6301   22.0119  -32.5843 H   0  0  0  0  0  0  0  0  0  0  0  0
   -9.8607   19.9636  -33.0642 H   0  0  0  0  0  0  0  0  0  0  0  0
   -8.2256   20.7736  -32.9713 H   0  0  0  0  0  0  0  0  0  0  0  0
   -7.9009   20.0113  -30.7121 H   0  0  0  0  0  0  0  0  0  0  0  0
   -9.5851   19.3319  -30.6650 H   0  0  0  0  0  0  0  0  0  0  0  0
   -8.9215   17.4028  -31.5868 H   0  0  0  0  0  0  0  0  0  0  0  0
   -8.0659   18.2750  -32.9203 H   0  0  0  0  0  0  0  0  0  0  0  0
   -6.2124   18.7301  -31.1586 H   0  0  0  0  0  0  0  0  0  0  0  0
   -7.0200   17.4103  -30.2079 H   0  0  0  0  0  0  0  0  0  0  0  0
   -5.0065   16.9442  -31.9556 H   0  0  0  0  0  0  0  0  0  0  0  0
   -6.3682   15.7730  -31.6244 H   0  0  0  0  0  0  0  0  0  0  0  0
   -6.7415   15.7235  -33.8143 H   0  0  0  0  0  0  0  0  0  0  0  0
   -7.3170   17.4444  -33.6482 H   0  0  0  0  0  0  0  0  0  0  0  0
   -4.4150   17.3232  -33.8427 H   0  0  0  0  0  0  0  0  0  0  0  0
   -5.2195   16.5057  -35.2514 H   0  0  0  0  0  0  0  0  0  0  0  0
   -4.7373   18.9746  -35.5722 H   0  0  0  0  0  0  0  0  0  0  0  0
   -6.4777   18.4555  -35.7788 H   0  0  0  0  0  0  0  0  0  0  0  0
   -6.3591   20.5897  -34.6035 H   0  0  0  0  0  0  0  0  0  0  0  0
   -6.9752   19.2589  -33.5231 H   0  0  0  0  0  0  0  0  0  0  0  0
   -4.7690   19.0721  -32.4746 H   0  0  0  0  0  0  0  0  0  0  0  0
   -4.1644   20.4149  -33.5477 H   0  0  0  0  0  0  0  0  0  0  0  0
   -6.5903   21.0296  -31.9504 H   0  0  0  0  0  0  0  0  0  0  0  0
   -5.0213   20.7748  -31.0303 H   0  0  0  0  0  0  0  0  0  0  0  0
   -3.9678   22.5722  -32.0843 H   0  0  0  0  0  0  0  0  0  0  0  0
   -5.2788   22.6794  -33.3536 H   0  0  0  0  0  0  0  0  0  0  0  0
   -5.9279   24.4555  -32.0906 H   0  0  0  0  0  0  0  0  0  0  0  0
   -6.7529   23.1313  -31.1554 H   0  0  0  0  0  0  0  0  0  0  0  0
   -5.6745   24.5672  -29.5562 H   0  0  0  0  0  0  0  0  0  0  0  0
   -4.7169   23.0490  -29.6603 H   0  0  0  0  0  0  0  0  0  0  0  0
  1  2  1  0
  2  3  1  0
  3  4  1  0
  4  5  1  0
  5  6  1  0
  6  7  1  0
  7  8  1  0
  8  9  1  0
  9 10  1  0
 10 11  1  0
 11 12  1  0
 12 13  1  0
 13 14  1  0
 14 15  1  0
 15 16  1  0
 16 17  1  0
 17 18  1  0
 18 19  2  0
 18 20  2  0
 18 21  1  0
  1 22  1  0
  1 23  1  0
  1 24  1  0
  2 25  1  0
  2 26  1  0
  3 27  1  0
  3 28  1  0
  4 29  1  0
  4 30  1  0
  5 31  1  0
  5 32  1  0
  6 33  1  0
  6 34  1  0
  7 35  1  0
  7 36  1  0
  8 37  1  0
  8 38  1  0
  9 39  1  0
  9 40  1  0
 10 41  1  0
 10 42  1  0
 11 43  1  0
 11 44  1  0
 12 45  1  0
 12 46  1  0
 13 47  1  0
 13 48  1  0
 14 49  1  0
 14 50  1  0
 15 51  1  0
 15 52  1  0
 16 53  1  0
 16 54  1  0
M  CHG  1  21  -1
M  END
>  <UniqueID>  (9) 
9

>  <SMILES>  (9) 
CCCCCCCCCCCCCCCCOS(=O)(=O)[O-]

>  <Energy>  (9) 
31.342982804196346

>  <Genealogy>  (9) 
CCCCCCCCCCCCCCCCOS(=O)(=O)[O-] (protonated)
CCCCCCCCCCCCCCCCOS(=O)(=O)[O-] (3D coordinates assigned)
CCCCCCCCCCCCCCCCOS(=O)(=O)[O-] (optimized conformer: 31.342982804196346 kcal/mol)

>  <smiles>  (9) 
CCCCCCCCCCCCCCCCOS(=O)(=O)O

>  <score_type>  (9) 
oracle

>  <origin>  (9) 
adg

>  <m_score__min__energy>  (9) 
-9.1199999999999992

>  <m_primary>  (9) 
energy

$$$$
9:0
     RDKit          3D

 39 41  0  0  0  0  0  0  0  0999 V2000
   -7.7720   17.8100  -32.3790 C   0  0  0  0  0  0  0  0  0  0  0  0
   -8.3370   19.1290  -31.8440 C   0  0  0  0  0  0  0  0  0  0  0  0
   -9.4850   19.6300  -32.7270 C   0  0  0  0  0  0  0  0  0  0  0  0
   -7.2490   20.1710  -31.7500 C   0  0  0  0  0  0  0  0  0  0  0  0
   -5.9490   19.8060  -31.9150 N   0  0  0  0  0  0  0  0  0  0  0  0
   -4.9450   20.7120  -31.8280 C   0  0  0  0  0  0  0  0  0  0  0  0
   -5.2340   22.0520  -31.5510 C   0  0  0  0  0  0  0  0  0  0  0  0
   -6.5810   22.4250  -31.4080 C   0  0  0  0  0  0  0  0  0  0  0  0
   -7.5550   21.4750  -31.4940 N   0  0  0  0  0  0  0  0  0  0  0  0
   -6.9600   23.8440  -31.0730 C   0  0  0  0  0  0  0  0  0  0  0  0
   -5.7950   24.8290  -31.2630 C   0  0  0  0  0  0  0  0  0  0  0  0
   -4.5050   24.2940  -30.7730 N   0  0  0  0  0  0  0  0  0  0  0  0
   -4.4680   24.0730  -29.3110 C   0  0  0  0  0  0  0  0  0  0  0  0
   -3.1460   24.4840  -28.7400 C   0  0  0  0  0  0  0  0  0  0  0  0
   -2.6160   24.0540  -27.5400 C   0  0  0  0  0  0  0  0  0  0  0  0
   -1.3870   24.6690  -27.4380 C   0  0  0  0  0  0  0  0  0  0  0  0
   -1.2430   25.4320  -28.5810 C   0  0  0  0  0  0  0  0  0  0  0  0
   -2.3080   25.3000  -29.3380 O   0  0  0  0  0  0  0  0  0  0  0  0
   -4.1290   23.0790  -31.5220 C   0  0  0  0  0  0  0  0  0  0  0  0
   -7.4941   17.1612  -31.5354 H   0  0  0  0  0  0  0  0  0  0  0  0
   -8.5336   17.3071  -32.9930 H   0  0  0  0  0  0  0  0  0  0  0  0
   -6.8825   18.0144  -32.9930 H   0  0  0  0  0  0  0  0  0  0  0  0
   -8.7352   18.9467  -30.8349 H   0  0  0  0  0  0  0  0  0  0  0  0
  -10.3073   19.9889  -32.0906 H   0  0  0  0  0  0  0  0  0  0  0  0
   -9.1266   20.4535  -33.3621 H   0  0  0  0  0  0  0  0  0  0  0  0
   -9.8451   18.8072  -33.3621 H   0  0  0  0  0  0  0  0  0  0  0  0
   -3.9025   20.3934  -31.9753 H   0  0  0  0  0  0  0  0  0  0  0  0
   -8.5540   21.7550  -31.3590 H   0  0  0  0  0  0  0  0  0  0  0  0
   -7.7902   24.1503  -31.7265 H   0  0  0  0  0  0  0  0  0  0  0  0
   -7.2476   23.8697  -30.0116 H   0  0  0  0  0  0  0  0  0  0  0  0
   -5.6972   25.0548  -32.3351 H   0  0  0  0  0  0  0  0  0  0  0  0
   -6.0243   25.7300  -30.6751 H   0  0  0  0  0  0  0  0  0  0  0  0
   -5.2645   24.6656  -28.8372 H   0  0  0  0  0  0  0  0  0  0  0  0
   -4.6169   23.0010  -29.1145 H   0  0  0  0  0  0  0  0  0  0  0  0
   -3.0777   23.3652  -26.8172 H   0  0  0  0  0  0  0  0  0  0  0  0
   -0.6659   24.5720  -26.6130 H   0  0  0  0  0  0  0  0  0  0  0  0
   -0.3689   26.0554  -28.8205 H   0  0  0  0  0  0  0  0  0  0  0  0
   -3.8850   23.3637  -32.5561 H   0  0  0  0  0  0  0  0  0  0  0  0
   -3.2657   22.6263  -31.0122 H   0  0  0  0  0  0  0  0  0  0  0  0
  1  2  1  0
  2  3  1  0
  2  4  1  0
  4  5  2  0
  5  6  1  0
  6  7  2  0
  7  8  1  0
  8  9  2  0
  8 10  1  0
 10 11  1  0
 11 12  1  0
 12 13  1  0
 13 14  1  0
 14 15  2  0
 15 16  1  0
 16 17  2  0
 17 18  1  0
 12 19  1  0
  9  4  1  0
 18 14  1  0
 19  7  1  0
  1 20  1  0
  1 21  1  0
  1 22  1  0
  2 23  1  0
  3 24  1  0
  3 25  1  0
  3 26  1  0
  6 27  1  0
  9 28  1  0
 10 29  1  0
 10 30  1  0
 11 31  1  0
 11 32  1  0
 13 33  1  0
 13 34  1  0
 15 35  1  0
 16 36  1  0
 17 37  1  0
 19 38  1  0
 19 39  1  0
M  CHG  1   9   1
M  END
>  <UniqueID>  (10) 
10

>  <SMILES>  (10) 
CC(C)c1ncc2c([nH+]1)CCN(Cc1ccco1)C2

>  <Energy>  (10) 
67.1228873521555

>  <Genealogy>  (10) 
CC(C)c1ncc2c([nH+]1)CCN(Cc1ccco1)C2 (protonated)
CC(C)c1ncc2c([nH+]1)CCN(Cc1ccco1)C2 (3D coordinates assigned)
CC(C)c1ncc2c([nH+]1)CCN(Cc1ccco1)C2 (nonaromatic ring conformer: 67.1228873521555 kcal/mol)

>  <smiles>  (10) 
CC(C)c1ncc2c(n1)CCN(Cc1ccco1)C2

>  <score_type>  (10) 
oracle

>  <origin>  (10) 
adg

>  <m_score__min__energy>  (10) 
-7.6299999999999999

>  <m_primary>  (10) 
energy

$$$$
10:0
     RDKit          3D

 60 63  0  0  0  0  0  0  0  0999 V2000
   -3.4970   18.6110  -25.9660 C   0  0  0  0  0  0  0  0  0  0  0  0
   -2.3390   19.0420  -26.8740 C   0  0  0  0  0  0  0  0  0  0  0  0
   -2.5000   20.4330  -27.3700 N   0  0  1  0  0  0  0  0  0  0  0  0
   -1.4910   21.3010  -26.7300 C   0  0  0  0  0  0  0  0  0  0  0  0
   -2.3700   20.4950  -28.8500 C   0  0  0  0  0  0  0  0  0  0  0  0
   -3.2420   21.5990  -29.4650 C   0  0  0  0  0  0  0  0  0  0  0  0
   -3.8900   22.3000  -28.4230 O   0  0  0  0  0  0  0  0  0  0  0  0
   -4.9710   23.0640  -28.9280 C   0  0  0  0  0  0  0  0  0  0  0  0
   -4.6850   23.5610  -30.3520 C   0  0  0  0  0  0  0  0  0  0  0  0
   -5.9740   23.8500  -31.1280 C   0  0  0  0  0  0  0  0  0  0  0  0
   -5.8950   23.2660  -32.4660 N   0  0  0  0  0  0  0  0  0  0  0  0
   -5.8220   21.8440  -32.6410 C   0  0  0  0  0  0  0  0  0  0  0  0
   -6.9350   20.9890  -32.4510 C   0  0  0  0  0  0  0  0  0  0  0  0
   -8.1600   21.4920  -31.9710 C   0  0  0  0  0  0  0  0  0  0  0  0
   -9.2400   20.6410  -31.7470 C   0  0  0  0  0  0  0  0  0  0  0  0
   -9.1140   19.2750  -31.9740 C   0  0  0  0  0  0  0  0  0  0  0  0
   -7.9100   18.7440  -32.4370 C   0  0  0  0  0  0  0  0  0  0  0  0
   -6.7990   19.5790  -32.7050 C   0  0  0  0  0  0  0  0  0  0  0  0
   -5.5950   19.0640  -33.1690 N   0  0  0  0  0  0  0  0  0  0  0  0
   -5.4820   17.6910  -33.6850 C   0  0  0  0  0  0  0  0  0  0  0  0
   -4.5070   19.8990  -33.1890 C   0  0  0  0  0  0  0  0  0  0  0  0
   -4.6110   21.2530  -32.9660 C   0  0  0  0  0  0  0  0  0  0  0  0
   -3.4490   21.8550  -33.1040 O   0  0  0  0  0  0  0  0  0  0  0  0
   -2.5680   20.9210  -33.3870 C   0  0  0  0  0  0  0  0  0  0  0  0
   -1.2020   21.0970  -33.5880 C   0  0  0  0  0  0  0  0  0  0  0  0
   -0.4160   19.9580  -33.8260 C   0  0  0  0  0  0  0  0  0  0  0  0
   -1.0030   18.6760  -33.8410 C   0  0  0  0  0  0  0  0  0  0  0  0
   -2.3860   18.5180  -33.6370 C   0  0  0  0  0  0  0  0  0  0  0  0
   -3.1590   19.6700  -33.4450 C   0  0  0  0  0  0  0  0  0  0  0  0
   -3.1983   18.7222  -24.9132 H   0  0  0  0  0  0  0  0  0  0  0  0
   -4.3750   19.2426  -26.1667 H   0  0  0  0  0  0  0  0  0  0  0  0
   -3.7484   17.5591  -26.1667 H   0  0  0  0  0  0  0  0  0  0  0  0
   -1.3998   18.9756  -26.3053 H   0  0  0  0  0  0  0  0  0  0  0  0
   -2.3280   18.3724  -27.7466 H   0  0  0  0  0  0  0  0  0  0  0  0
   -3.4440   20.7860  -27.0780 H   0  0  0  0  0  0  0  0  0  0  0  0
   -1.5812   21.2234  -25.6365 H   0  0  0  0  0  0  0  0  0  0  0  0
   -0.4844   20.9822  -27.0384 H   0  0  0  0  0  0  0  0  0  0  0  0
   -1.6559   22.3439  -27.0384 H   0  0  0  0  0  0  0  0  0  0  0  0
   -1.3182   20.6916  -29.1049 H   0  0  0  0  0  0  0  0  0  0  0  0
   -2.7086   19.5315  -29.2586 H   0  0  0  0  0  0  0  0  0  0  0  0
   -2.6103   22.2921  -30.0400 H   0  0  0  0  0  0  0  0  0  0  0  0
   -3.9897   21.1538  -30.1378 H   0  0  0  0  0  0  0  0  0  0  0  0
   -5.8761   22.4390  -28.9416 H   0  0  0  0  0  0  0  0  0  0  0  0
   -5.1122   23.9390  -28.2765 H   0  0  0  0  0  0  0  0  0  0  0  0
   -4.0910   24.4850  -30.2932 H   0  0  0  0  0  0  0  0  0  0  0  0
   -4.1375   22.7696  -30.8848 H   0  0  0  0  0  0  0  0  0  0  0  0
   -6.8284   23.4135  -30.5901 H   0  0  0  0  0  0  0  0  0  0  0  0
   -6.1051   24.9385  -31.2168 H   0  0  0  0  0  0  0  0  0  0  0  0
   -6.2910   23.8300  -33.2520 H   0  0  0  0  0  0  0  0  0  0  0  0
   -8.2650   22.5685  -31.7708 H   0  0  0  0  0  0  0  0  0  0  0  0
  -10.1959   21.0512  -31.3893 H   0  0  0  0  0  0  0  0  0  0  0  0
   -9.9692   18.6088  -31.7873 H   0  0  0  0  0  0  0  0  0  0  0  0
   -7.8226   17.6591  -32.5963 H   0  0  0  0  0  0  0  0  0  0  0  0
   -5.4240   16.9862  -32.8424 H   0  0  0  0  0  0  0  0  0  0  0  0
   -6.3639   17.4564  -34.2992 H   0  0  0  0  0  0  0  0  0  0  0  0
   -4.5736   17.6037  -34.2992 H   0  0  0  0  0  0  0  0  0  0  0  0
   -0.7510   22.0999  -33.5612 H   0  0  0  0  0  0  0  0  0  0  0  0
    0.6644   20.0665  -34.0018 H   0  0  0  0  0  0  0  0  0  0  0  0
   -0.3734   17.7907  -34.0139 H   0  0  0  0  0  0  0  0  0  0  0  0
   -2.8466   17.5191  -33.6285 H   0  0  0  0  0  0  0  0  0  0  0  0
  1  2  1  0
  2  3  1  0
  3  4  1  0
  3  5  1  0
  5  6  1  0
  6  7  1  0
  7  8  1  0
  8  9  1  0
  9 10  1  0
 10 11  1  0
 11 12  1  0
 12 13  2  0
 13 14  1  0
 14 15  2  0
 15 16  1  0
 16 17  2  0
 17 18  1  0
 18 19  2  0
 19 20  1  0
 19 21  1  0
 21 22  2  0
 22 23  1  0
 23 24  1  0
 24 25  2  0
 25 26  1  0
 26 27  2  0
 27 28  1  0
 28 29  2  0
 22 12  1  0
 29 24  1  0
 18 13  1  0
 29 21  1  0
  1 30  1  0
  1 31  1  0
  1 32  1  0
  2 33  1  0
  2 34  1  0
  3 35  1  6
  4 36  1  0
  4 37  1  0
  4 38  1  0
  5 39  1  0
  5 40  1  0
  6 41  1  0
  6 42  1  0
  8 43  1  0
  8 44  1  0
  9 45  1  0
  9 46  1  0
 10 47  1  0
 10 48  1  0
 11 49  1  0
 14 50  1  0
 15 51  1  0
 16 52  1  0
 17 53  1  0
 20 54  1  0
 20 55  1  0
 20 56  1  0
 25 57  1  0
 26 58  1  0
 27 59  1  0
 28 60  1  0
M  CHG  2   3   1  19   1
M  END
>  <UniqueID>  (11) 
11

>  <SMILES>  (11) 
CC[N@@H+](C)CCOCCCNc1c2ccccc2[n+](C)c2c1oc1ccccc12

>  <Energy>  (11) 
121.68492491153684

>  <Genealogy>  (11) 
CC[NH+](C)CCOCCCNc1c2ccccc2[n+](C)c2c1oc1ccccc12 (protonated)
CC[N@@H+](C)CCOCCCNc1c2ccccc2[n+](C)c2c1oc1ccccc12 (chirality)
CC[N@@H+](C)CCOCCCNc1c2ccccc2[n+](C)c2c1oc1ccccc12 (3D coordinates assigned)
CC[N@@H+](C)CCOCCCNc1c2ccccc2[n+](C)c2c1oc1ccccc12 (optimized conformer: 121.68492491153684 kcal/mol)

>  <smiles>  (11) 
CCN(C)CCOCCCNc1c2ccccc2[n+](C)c2c1oc1ccccc12

>  <score_type>  (11) 
oracle

>  <origin>  (11) 
adg

>  <m_score__min__energy>  (11) 
-8.3399999999999999

>  <m_primary>  (11) 
energy

$$$$
11:0
     RDKit          3D

 70 72  0  0  0  0  0  0  0  0999 V2000
   -1.2420   21.6860  -28.1480 C   0  0  0  0  0  0  0  0  0  0  0  0
   -2.3010   21.0330  -29.0330 C   0  0  0  0  0  0  0  0  0  0  0  0
   -2.4880   21.7940  -30.2900 N   0  0  0  0  0  0  0  0  0  0  0  0
   -1.1940   22.2950  -30.8090 C   0  0  0  0  0  0  0  0  0  0  0  0
   -0.2900   21.1390  -31.2350 C   0  0  0  0  0  0  0  0  0  0  0  0
   -3.2150   20.9960  -31.3150 C   0  0  0  0  0  0  0  0  0  0  0  0
   -3.0580   21.6460  -32.6910 C   0  0  0  0  0  0  0  0  0  0  0  0
   -4.3150   21.6300  -33.4410 N   0  0  0  0  0  0  0  0  0  0  0  0
   -5.4160   20.8560  -32.9530 C   0  0  0  0  0  0  0  0  0  0  0  0
   -5.4620   19.4870  -33.2680 C   0  0  0  0  0  0  0  0  0  0  0  0
   -4.3480   18.8490  -33.8580 C   0  0  0  0  0  0  0  0  0  0  0  0
   -4.4000   17.5020  -34.2060 C   0  0  0  0  0  0  0  0  0  0  0  0
   -5.5660   16.7770  -33.9990 C   0  0  0  0  0  0  0  0  0  0  0  0
   -6.6800   17.3870  -33.4220 C   0  0  0  0  0  0  0  0  0  0  0  0
   -6.6450   18.7470  -33.0180 C   0  0  0  0  0  0  0  0  0  0  0  0
   -7.7370   19.3620  -32.4400 N   0  0  0  0  0  0  0  0  0  0  0  0
   -8.8830   18.5470  -31.9750 C   0  0  0  0  0  0  0  0  0  0  0  0
   -7.7460   20.7330  -32.2540 C   0  0  0  0  0  0  0  0  0  0  0  0
   -8.9450   21.4240  -31.9620 C   0  0  0  0  0  0  0  0  0  0  0  0
   -8.9410   22.7790  -31.6620 C   0  0  0  0  0  0  0  0  0  0  0  0
   -7.7430   23.4740  -31.5950 C   0  0  0  0  0  0  0  0  0  0  0  0
   -6.5280   22.8470  -31.9130 C   0  0  0  0  0  0  0  0  0  0  0  0
   -5.2560   23.6040  -31.5740 C   0  0  0  0  0  0  0  0  0  0  0  0
   -5.2670   23.9690  -30.1530 N   0  0  0  0  0  0  0  0  0  0  0  0
   -5.3950   22.7780  -29.3040 C   0  0  0  0  0  0  0  0  0  0  0  0
   -4.5610   22.9330  -28.0250 C   0  0  0  0  0  0  0  0  0  0  0  0
   -4.3060   24.3510  -27.7220 N   0  0  0  0  0  0  0  0  0  0  0  0
   -2.9230   24.5710  -27.2800 C   0  0  0  0  0  0  0  0  0  0  0  0
   -2.0320   24.8960  -28.4790 C   0  0  0  0  0  0  0  0  0  0  0  0
   -2.8090   24.9160  -29.7150 N   0  0  0  0  0  0  0  0  0  0  0  0
   -6.5440   21.4890  -32.3740 C   0  0  0  0  0  0  0  0  0  0  0  0
   -1.4994   21.5273  -27.0904 H   0  0  0  0  0  0  0  0  0  0  0  0
   -0.2604   21.2361  -28.3580 H   0  0  0  0  0  0  0  0  0  0  0  0
   -1.2032   22.7651  -28.3580 H   0  0  0  0  0  0  0  0  0  0  0  0
   -1.9834   20.0085  -29.2770 H   0  0  0  0  0  0  0  0  0  0  0  0
   -3.2552   21.0218  -28.4859 H   0  0  0  0  0  0  0  0  0  0  0  0
   -1.3816   22.9437  -31.6773 H   0  0  0  0  0  0  0  0  0  0  0  0
   -0.6900   22.8575  -30.0093 H   0  0  0  0  0  0  0  0  0  0  0  0
    0.1050   20.6339  -30.3412 H   0  0  0  0  0  0  0  0  0  0  0  0
   -0.8696   20.4222  -31.8352 H   0  0  0  0  0  0  0  0  0  0  0  0
    0.5454   21.5288  -31.8352 H   0  0  0  0  0  0  0  0  0  0  0  0
   -2.8018   19.9770  -31.3440 H   0  0  0  0  0  0  0  0  0  0  0  0
   -4.2827   20.9578  -31.0530 H   0  0  0  0  0  0  0  0  0  0  0  0
   -2.7347   22.6890  -32.5583 H   0  0  0  0  0  0  0  0  0  0  0  0
   -2.3109   21.0725  -33.2593 H   0  0  0  0  0  0  0  0  0  0  0  0
   -4.4970   22.3330  -34.1910 H   0  0  0  0  0  0  0  0  0  0  0  0
   -3.4286   19.4234  -34.0446 H   0  0  0  0  0  0  0  0  0  0  0  0
   -3.5180   17.0124  -34.6446 H   0  0  0  0  0  0  0  0  0  0  0  0
   -5.6115   15.7175  -34.2911 H   0  0  0  0  0  0  0  0  0  0  0  0
   -7.6014   16.8038  -33.2777 H   0  0  0  0  0  0  0  0  0  0  0  0
   -8.9014   18.5339  -30.8752 H   0  0  0  0  0  0  0  0  0  0  0  0
   -9.8199   18.9828  -32.3522 H   0  0  0  0  0  0  0  0  0  0  0  0
   -8.7788   17.5190  -32.3522 H   0  0  0  0  0  0  0  0  0  0  0  0
   -9.8992   20.8768  -31.9729 H   0  0  0  0  0  0  0  0  0  0  0  0
   -9.8904   23.3029  -31.4769 H   0  0  0  0  0  0  0  0  0  0  0  0
   -7.7448   24.5305  -31.2887 H   0  0  0  0  0  0  0  0  0  0  0  0
   -4.3838   22.9668  -31.7820 H   0  0  0  0  0  0  0  0  0  0  0  0
   -5.1985   24.5162  -32.1860 H   0  0  0  0  0  0  0  0  0  0  0  0
   -4.3510   24.4310  -29.9370 H   0  0  0  0  0  0  0  0  0  0  0  0
   -6.4518   22.6402  -29.0318 H   0  0  0  0  0  0  0  0  0  0  0  0
   -5.0283   21.9040  -29.8622 H   0  0  0  0  0  0  0  0  0  0  0  0
   -5.1063   22.4793  -27.1843 H   0  0  0  0  0  0  0  0  0  0  0  0
   -3.5942   22.4310  -28.1776 H   0  0  0  0  0  0  0  0  0  0  0  0
   -4.4460   24.8910  -28.6080 H   0  0  0  0  0  0  0  0  0  0  0  0
   -2.8975   25.4107  -26.5699 H   0  0  0  0  0  0  0  0  0  0  0  0
   -2.5515   23.6570  -26.7935 H   0  0  0  0  0  0  0  0  0  0  0  0
   -1.5704   25.8829  -28.3277 H   0  0  0  0  0  0  0  0  0  0  0  0
   -1.2581   24.1188  -28.5628 H   0  0  0  0  0  0  0  0  0  0  0  0
   -3.7050   25.4240  -29.5270 H   0  0  0  0  0  0  0  0  0  0  0  0
   -3.0690   23.9290  -29.9400 H   0  0  0  0  0  0  0  0  0  0  0  0
  1  2  1  0
  2  3  1  0
  3  4  1  0
  4  5  1  0
  3  6  1  0
  6  7  1  0
  7  8  1  0
  8  9  1  0
  9 10  2  0
 10 11  1  0
 11 12  2  0
 12 13  1  0
 13 14  2  0
 14 15  1  0
 15 16  2  0
 16 17  1  0
 16 18  1  0
 18 19  2  0
 19 20  1  0
 20 21  2  0
 21 22  1  0
 22 23  1  0
 23 24  1  0
 24 25  1  0
 25 26  1  0
 26 27  1  0
 27 28  1  0
 28 29  1  0
 29 30  1  0
 22 31  2  0
 31  9  1  0
 15 10  1  0
 31 18  1  0
  1 32  1  0
  1 33  1  0
  1 34  1  0
  2 35  1  0
  2 36  1  0
  4 37  1  0
  4 38  1  0
  5 39  1  0
  5 40  1  0
  5 41  1  0
  6 42  1  0
  6 43  1  0
  7 44  1  0
  7 45  1  0
  8 46  1  0
 11 47  1  0
 12 48  1  0
 13 49  1  0
 14 50  1  0
 17 51  1  0
 17 52  1  0
 17 53  1  0
 19 54  1  0
 20 55  1  0
 21 56  1  0
 23 57  1  0
 23 58  1  0
 24 59  1  0
 25 60  1  0
 25 61  1  0
 26 62  1  0
 26 63  1  0
 27 64  1  0
 28 65  1  0
 28 66  1  0
 29 67  1  0
 29 68  1  0
 30 69  1  0
 30 70  1  0
M  CHG  1  16   1
M  END
>  <UniqueID>  (12) 
12

>  <SMILES>  (12) 
CCN(CC)CCNc1c2ccccc2[n+](C)c2cccc(CNCCNCCN)c12

>  <Energy>  (12) 
92.7328327062721

>  <Genealogy>  (12) 
CCN(CC)CCNc1c2ccccc2[n+](C)c2cccc(CNCCNCCN)c12 (3D coordinates assigned)
CCN(CC)CCNc1c2ccccc2[n+](C)c2cccc(CNCCNCCN)c12 (optimized conformer: 92.7328327062721 kcal/mol)

>  <smiles>  (12) 
CCN(CC)CCNc1c2ccccc2[n+](C)c2cccc(CNCCNCCN)c12

>  <score_type>  (12) 
oracle

>  <origin>  (12) 
adg

>  <m_score__min__energy>  (12) 
-7.6799999999999997

>  <m_primary>  (12) 
energy

$$$$
12:0
     RDKit          3D

 34 35  0  0  0  0  0  0  0  0999 V2000
   -8.7340   22.0070  -31.6210 C   0  0  0  0  0  0  0  0  0  0  0  0
   -8.0710   23.3480  -31.9460 C   0  0  0  0  0  0  0  0  0  0  0  0
   -6.8300   23.1860  -32.7230 N   0  0  0  0  0  0  0  0  0  0  0  0
   -5.6530   23.3320  -31.8940 C   0  0  0  0  0  0  0  0  0  0  0  0
   -5.4130   24.5380  -31.2270 C   0  0  0  0  0  0  0  0  0  0  0  0
   -4.3190   24.6700  -30.4360 N   0  0  0  0  0  0  0  0  0  0  0  0
   -3.4340   23.6840  -30.2690 N   0  0  0  0  0  0  0  0  0  0  0  0
   -2.3020   23.9100  -29.3560 C   0  0  2  0  0  0  0  0  0  0  0  0
   -2.6550   23.3540  -27.9470 C   0  0  0  0  0  0  0  0  0  0  0  0
   -2.9400   24.4920  -26.9650 C   0  0  0  0  0  0  0  0  0  0  0  0
   -1.7660   25.4800  -26.9270 C   0  0  0  0  0  0  0  0  0  0  0  0
   -1.0790   25.5950  -28.2990 C   0  0  0  0  0  0  0  0  0  0  0  0
   -1.9900   25.3000  -29.3400 O   0  0  0  0  0  0  0  0  0  0  0  0
   -3.6270   22.4710  -30.8800 C   0  0  0  0  0  0  0  0  0  0  0  0
   -2.8150   21.5230  -30.6960 O   0  0  0  0  0  0  0  0  0  0  0  0
   -4.7390   22.2770  -31.7110 C   0  0  0  0  0  0  0  0  0  0  0  0
   -4.9650   20.7180  -32.5070 Cl  0  0  0  0  0  0  0  0  0  0  0  0
   -8.7952   21.8832  -30.5297 H   0  0  0  0  0  0  0  0  0  0  0  0
   -9.7467   21.9852  -32.0499 H   0  0  0  0  0  0  0  0  0  0  0  0
   -8.1365   21.1891  -32.0499 H   0  0  0  0  0  0  0  0  0  0  0  0
   -8.7760   23.9587  -32.5292 H   0  0  0  0  0  0  0  0  0  0  0  0
   -7.8102   23.8332  -30.9939 H   0  0  0  0  0  0  0  0  0  0  0  0
   -6.8120   23.8770  -33.5100 H   0  0  0  0  0  0  0  0  0  0  0  0
   -6.8280   22.2390  -33.1680 H   0  0  0  0  0  0  0  0  0  0  0  0
   -6.1117   25.3795  -31.3440 H   0  0  0  0  0  0  0  0  0  0  0  0
   -1.4049   23.3736  -29.6987 H   0  0  0  0  0  0  0  0  0  0  0  0
   -3.5466   22.7146  -28.0255 H   0  0  0  0  0  0  0  0  0  0  0  0
   -1.7976   22.7749  -27.5735 H   0  0  0  0  0  0  0  0  0  0  0  0
   -3.8495   25.0234  -27.2817 H   0  0  0  0  0  0  0  0  0  0  0  0
   -3.0780   24.0667  -25.9600 H   0  0  0  0  0  0  0  0  0  0  0  0
   -2.1423   26.4706  -26.6319 H   0  0  0  0  0  0  0  0  0  0  0  0
   -1.0269   25.1089  -26.2017 H   0  0  0  0  0  0  0  0  0  0  0  0
   -0.7014   26.6199  -28.4291 H   0  0  0  0  0  0  0  0  0  0  0  0
   -0.2488   24.8746  -28.3406 H   0  0  0  0  0  0  0  0  0  0  0  0
  1  2  1  0
  2  3  1  0
  3  4  1  0
  4  5  1  0
  5  6  2  0
  6  7  1  0
  7  8  1  0
  8  9  1  0
  9 10  1  0
 10 11  1  0
 11 12  1  0
 12 13  1  0
  7 14  1  0
 14 15  2  0
 14 16  1  0
 16 17  1  0
 16  4  2  0
 13  8  1  0
  1 18  1  0
  1 19  1  0
  1 20  1  0
  2 21  1  0
  2 22  1  0
  3 23  1  0
  3 24  1  0
  5 25  1  0
  8 26  1  6
  9 27  1  0
  9 28  1  0
 10 29  1  0
 10 30  1  0
 11 31  1  0
 11 32  1  0
 12 33  1  0
 12 34  1  0
M  CHG  1   3   1
M  END
>  <UniqueID>  (13) 
13

>  <SMILES>  (13) 
CC[NH2+]c1cnn([C@@H]2CCCCO2)c(=O)c1Cl

>  <Energy>  (13) 
42.42234644045037

>  <Genealogy>  (13) 
CC[NH2+]c1cnn(C2CCCCO2)c(=O)c1Cl (protonated)
CC[NH2+]c1cnn([C@@H]2CCCCO2)c(=O)c1Cl (chirality)
CC[NH2+]c1cnn([C@@H]2CCCCO2)c(=O)c1Cl (3D coordinates assigned)
CC[NH2+]c1cnn([C@@H]2CCCCO2)c(=O)c1Cl (nonaromatic ring conformer: 42.42234644045037 kcal/mol)

>  <smiles>  (13) 
CCNc1cnn(C2CCCCO2)c(=O)c1Cl

>  <score_type>  (13) 
oracle

>  <origin>  (13) 
adg

>  <m_score__min__energy>  (13) 
-6.3899999999999997

>  <m_primary>  (13) 
energy

$$$$
13:0
     RDKit          3D

 57 59  0  0  0  0  0  0  0  0999 V2000
   -6.1440   25.2610  -29.5190 C   0  0  0  0  0  0  0  0  0  0  0  0
   -5.3270   25.5890  -30.7640 C   0  0  0  0  0  0  0  0  0  0  0  0
   -3.9640   25.2670  -30.5550 O   0  0  0  0  0  0  0  0  0  0  0  0
   -3.7900   24.4830  -29.3890 C   0  0  0  0  0  0  0  0  0  0  0  0
   -3.0450   23.1850  -29.7120 C   0  0  0  0  0  0  0  0  0  0  0  0
   -3.9470   22.0920  -29.6890 O   0  0  0  0  0  0  0  0  0  0  0  0
   -3.7850   21.2900  -30.8400 C   0  0  0  0  0  0  0  0  0  0  0  0
   -3.7230   22.1890  -32.0710 C   0  0  0  0  0  0  0  0  0  0  0  0
   -4.6110   21.6950  -33.1200 N   0  0  0  0  0  0  0  0  0  0  0  0
   -5.7060   20.8320  -32.7950 C   0  0  0  0  0  0  0  0  0  0  0  0
   -6.8540   21.3480  -32.1740 C   0  0  0  0  0  0  0  0  0  0  0  0
   -7.9090   20.4800  -31.8360 C   0  0  0  0  0  0  0  0  0  0  0  0
   -7.7800   19.1200  -32.0210 N   0  0  0  0  0  0  0  0  0  0  0  0
   -8.7660   18.1960  -31.4300 C   0  0  0  0  0  0  0  0  0  0  0  0
   -6.7200   18.6250  -32.7520 C   0  0  0  0  0  0  0  0  0  0  0  0
   -5.6480   19.4660  -33.1080 C   0  0  0  0  0  0  0  0  0  0  0  0
   -4.4040   18.8360  -33.6990 C   0  0  0  0  0  0  0  0  0  0  0  0
   -4.7340   17.8150  -34.8020 C   0  0  0  0  0  0  0  0  0  0  0  0
   -6.0710   17.0680  -34.6060 C   0  0  0  0  0  0  0  0  0  0  0  0
   -6.6280   17.1710  -33.1800 C   0  0  0  0  0  0  0  0  0  0  0  0
   -9.1570   21.1110  -31.2430 C   0  0  0  0  0  0  0  0  0  0  0  0
   -9.4960   22.4160  -31.9750 C   0  0  0  0  0  0  0  0  0  0  0  0
   -8.3180   23.4110  -32.0430 C   0  0  0  0  0  0  0  0  0  0  0  0
   -6.9430   22.7940  -31.7350 C   0  0  0  0  0  0  0  0  0  0  0  0
   -5.5546   25.4976  -28.6208 H   0  0  0  0  0  0  0  0  0  0  0  0
   -7.0680   25.8579  -29.5190 H   0  0  0  0  0  0  0  0  0  0  0  0
   -6.3987   24.1909  -29.5190 H   0  0  0  0  0  0  0  0  0  0  0  0
   -5.7114   25.0066  -31.6144 H   0  0  0  0  0  0  0  0  0  0  0  0
   -5.4126   26.6651  -30.9755 H   0  0  0  0  0  0  0  0  0  0  0  0
   -3.2103   25.0575  -28.6515 H   0  0  0  0  0  0  0  0  0  0  0  0
   -4.7807   24.2292  -28.9840 H   0  0  0  0  0  0  0  0  0  0  0  0
   -2.5925   23.2634  -30.7115 H   0  0  0  0  0  0  0  0  0  0  0  0
   -2.2593   23.0218  -28.9596 H   0  0  0  0  0  0  0  0  0  0  0  0
   -2.8522   20.7127  -30.7583 H   0  0  0  0  0  0  0  0  0  0  0  0
   -4.6339   20.5963  -30.9304 H   0  0  0  0  0  0  0  0  0  0  0  0
   -4.0291   23.2074  -31.7895 H   0  0  0  0  0  0  0  0  0  0  0  0
   -2.6919   22.1910  -32.4543 H   0  0  0  0  0  0  0  0  0  0  0  0
   -4.4560   21.9450  -34.1230 H   0  0  0  0  0  0  0  0  0  0  0  0
   -8.7079   18.2505  -30.3329 H   0  0  0  0  0  0  0  0  0  0  0  0
   -9.7769   18.4796  -31.7582 H   0  0  0  0  0  0  0  0  0  0  0  0
   -8.5486   17.1688  -31.7582 H   0  0  0  0  0  0  0  0  0  0  0  0
   -3.7753   19.6299  -34.1285 H   0  0  0  0  0  0  0  0  0  0  0  0
   -3.8812   18.3021  -32.8918 H   0  0  0  0  0  0  0  0  0  0  0  0
   -4.7769   18.3492  -35.7626 H   0  0  0  0  0  0  0  0  0  0  0  0
   -3.9423   17.0521  -34.7681 H   0  0  0  0  0  0  0  0  0  0  0  0
   -6.8115   17.4921  -35.3002 H   0  0  0  0  0  0  0  0  0  0  0  0
   -5.8774   16.0029  -34.8009 H   0  0  0  0  0  0  0  0  0  0  0  0
   -7.6307   16.7198  -33.1490 H   0  0  0  0  0  0  0  0  0  0  0  0
   -5.9529   16.6388  -32.4937 H   0  0  0  0  0  0  0  0  0  0  0  0
   -9.9993   20.4105  -31.3420 H   0  0  0  0  0  0  0  0  0  0  0  0
   -8.9740   21.3344  -30.1816 H   0  0  0  0  0  0  0  0  0  0  0  0
   -9.8021   22.1690  -33.0023 H   0  0  0  0  0  0  0  0  0  0  0  0
  -10.2992   22.9059  -31.4051 H   0  0  0  0  0  0  0  0  0  0  0  0
   -8.2847   23.8352  -33.0574 H   0  0  0  0  0  0  0  0  0  0  0  0
   -8.5024   24.1676  -31.2661 H   0  0  0  0  0  0  0  0  0  0  0  0
   -6.1693   23.3723  -32.2613 H   0  0  0  0  0  0  0  0  0  0  0  0
   -6.7949   22.8259  -30.6455 H   0  0  0  0  0  0  0  0  0  0  0  0
  1  2  1  0
  2  3  1  0
  3  4  1  0
  4  5  1  0
  5  6  1  0
  6  7  1  0
  7  8  1  0
  8  9  1  0
  9 10  1  0
 10 11  2  0
 11 12  1  0
 12 13  2  0
 13 14  1  0
 13 15  1  0
 15 16  2  0
 16 17  1  0
 17 18  1  0
 18 19  1  0
 19 20  1  0
 12 21  1  0
 21 22  1  0
 22 23  1  0
 23 24  1  0
 16 10  1  0
 24 11  1  0
 20 15  1  0
  1 25  1  0
  1 26  1  0
  1 27  1  0
  2 28  1  0
  2 29  1  0
  4 30  1  0
  4 31  1  0
  5 32  1  0
  5 33  1  0
  7 34  1  0
  7 35  1  0
  8 36  1  0
  8 37  1  0
  9 38  1  0
 14 39  1  0
 14 40  1  0
 14 41  1  0
 17 42  1  0
 17 43  1  0
 18 44  1  0
 18 45  1  0
 19 46  1  0
 19 47  1  0
 20 48  1  0
 20 49  1  0
 21 50  1  0
 21 51  1  0
 22 52  1  0
 22 53  1  0
 23 54  1  0
 23 55  1  0
 24 56  1  0
 24 57  1  0
M  CHG  1  13   1
M  END
>  <UniqueID>  (14) 
14

>  <SMILES>  (14) 
CCOCCOCCNc1c2c([n+](C)c3c1CCCC3)CCCC2

>  <Energy>  (14) 
79.47583954986513

>  <Genealogy>  (14) 
CCOCCOCCNc1c2c([n+](C)c3c1CCCC3)CCCC2 (3D coordinates assigned)
CCOCCOCCNc1c2c([n+](C)c3c1CCCC3)CCCC2 (nonaromatic ring conformer: 79.47583954986513 kcal/mol)

>  <smiles>  (14) 
CCOCCOCCNc1c2c([n+](C)c3c1CCCC3)CCCC2

>  <score_type>  (14) 
oracle

>  <origin>  (14) 
adg

>  <m_score__min__energy>  (14) 
-9.3200000000000003

>  <m_primary>  (14) 
energy

$$$$
14:0
     RDKit          3D

 59 61  0  0  0  0  0  0  0  0999 V2000
   -8.3780   23.3010  -31.9280 C   0  0  0  0  0  0  0  0  0  0  0  0
   -7.0330   23.4050  -32.6470 C   0  0  0  0  0  0  0  0  0  0  0  0
   -5.9690   23.8120  -31.7140 N   0  0  0  0  0  0  0  0  0  0  0  0
   -6.5020   24.4630  -30.5030 C   0  0  0  0  0  0  0  0  0  0  0  0
   -5.4350   25.2630  -29.7440 C   0  0  0  0  0  0  0  0  0  0  0  0
   -4.2960   25.4050  -30.5720 O   0  0  0  0  0  0  0  0  0  0  0  0
   -3.7140   24.1800  -30.7860 N   0  0  0  0  0  0  0  0  0  0  0  0
   -2.9190   23.8070  -29.6120 C   0  0  0  0  0  0  0  0  0  0  0  0
   -3.3930   22.4750  -29.0110 C   0  0  0  0  0  0  0  0  0  0  0  0
   -3.1500   21.2710  -29.9300 C   0  0  0  0  0  0  0  0  0  0  0  0
   -3.7330   21.4840  -31.2560 N   0  0  0  0  0  0  0  0  0  0  0  0
   -3.8520   20.4100  -32.2090 C   0  0  0  0  0  0  0  0  0  0  0  0
   -2.7090   19.9230  -32.8690 C   0  0  0  0  0  0  0  0  0  0  0  0
   -1.4360   20.4810  -32.6210 C   0  0  0  0  0  0  0  0  0  0  0  0
   -0.2950   19.9510  -33.2180 C   0  0  0  0  0  0  0  0  0  0  0  0
   -0.3980   18.8490  -34.0580 C   0  0  0  0  0  0  0  0  0  0  0  0
   -1.6450   18.2910  -34.3330 C   0  0  0  0  0  0  0  0  0  0  0  0
   -2.8320   18.8380  -33.7790 C   0  0  0  0  0  0  0  0  0  0  0  0
   -4.0800   18.3280  -34.0860 N   0  0  0  0  0  0  0  0  0  0  0  0
   -4.2380   17.4030  -35.2320 C   0  0  0  0  0  0  0  0  0  0  0  0
   -5.1860   18.7110  -33.3510 C   0  0  0  0  0  0  0  0  0  0  0  0
   -6.4300   18.0390  -33.4690 C   0  0  0  0  0  0  0  0  0  0  0  0
   -7.5600   18.4830  -32.7840 C   0  0  0  0  0  0  0  0  0  0  0  0
   -7.4870   19.5980  -31.9490 C   0  0  0  0  0  0  0  0  0  0  0  0
   -8.7230   20.1050  -31.2640 C   0  0  0  0  0  0  0  0  0  0  0  0
   -6.2650   20.2620  -31.7950 C   0  0  0  0  0  0  0  0  0  0  0  0
   -5.0980   19.7980  -32.4420 C   0  0  0  0  0  0  0  0  0  0  0  0
   -8.2143   23.3137  -30.8403 H   0  0  0  0  0  0  0  0  0  0  0  0
   -9.0130   24.1527  -32.2131 H   0  0  0  0  0  0  0  0  0  0  0  0
   -8.8745   22.3618  -32.2131 H   0  0  0  0  0  0  0  0  0  0  0  0
   -6.7785   22.4257  -33.0785 H   0  0  0  0  0  0  0  0  0  0  0  0
   -7.1154   24.1639  -33.4390 H   0  0  0  0  0  0  0  0  0  0  0  0
   -5.3920   22.9810  -31.4470 H   0  0  0  0  0  0  0  0  0  0  0  0
   -5.3430   24.5020  -32.1940 H   0  0  0  0  0  0  0  0  0  0  0  0
   -7.3114   25.1470  -30.7981 H   0  0  0  0  0  0  0  0  0  0  0  0
   -6.8644   23.6708  -29.8314 H   0  0  0  0  0  0  0  0  0  0  0  0
   -5.8312   26.2564  -29.4868 H   0  0  0  0  0  0  0  0  0  0  0  0
   -5.1606   24.7356  -28.8185 H   0  0  0  0  0  0  0  0  0  0  0  0
   -3.1170   24.1340  -31.6500 H   0  0  0  0  0  0  0  0  0  0  0  0
   -1.8648   23.7094  -29.9105 H   0  0  0  0  0  0  0  0  0  0  0  0
   -3.0393   24.5915  -28.8503 H   0  0  0  0  0  0  0  0  0  0  0  0
   -2.8542   22.3072  -28.0668 H   0  0  0  0  0  0  0  0  0  0  0  0
   -4.4798   22.5549  -28.8612 H   0  0  0  0  0  0  0  0  0  0  0  0
   -2.0663   21.1152  -30.0365 H   0  0  0  0  0  0  0  0  0  0  0  0
   -3.6290   20.3894  -29.4791 H   0  0  0  0  0  0  0  0  0  0  0  0
   -3.9030   22.4610  -31.5810 H   0  0  0  0  0  0  0  0  0  0  0  0
   -1.3443   21.3458  -31.9474 H   0  0  0  0  0  0  0  0  0  0  0  0
    0.6881   20.4049  -33.0245 H   0  0  0  0  0  0  0  0  0  0  0  0
    0.5077   18.4156  -34.5074 H   0  0  0  0  0  0  0  0  0  0  0  0
   -1.7106   17.4117  -34.9906 H   0  0  0  0  0  0  0  0  0  0  0  0
   -4.4122   16.3831  -34.8586 H   0  0  0  0  0  0  0  0  0  0  0  0
   -5.0949   17.7207  -35.8442 H   0  0  0  0  0  0  0  0  0  0  0  0
   -3.3242   17.4183  -35.8442 H   0  0  0  0  0  0  0  0  0  0  0  0
   -6.5042   17.1506  -34.1134 H   0  0  0  0  0  0  0  0  0  0  0  0
   -8.5153   17.9507  -32.9027 H   0  0  0  0  0  0  0  0  0  0  0  0
   -8.5871   20.0492  -30.1739 H   0  0  0  0  0  0  0  0  0  0  0  0
   -8.9029   21.1496  -31.5581 H   0  0  0  0  0  0  0  0  0  0  0  0
   -9.5846   19.4877  -31.5581 H   0  0  0  0  0  0  0  0  0  0  0  0
   -6.2122   21.1590  -31.1605 H   0  0  0  0  0  0  0  0  0  0  0  0
  1  2  1  0
  2  3  1  0
  3  4  1  0
  4  5  1  0
  5  6  1  0
  6  7  1  0
  7  8  1  0
  8  9  1  0
  9 10  1  0
 10 11  1  0
 11 12  1  0
 12 13  2  0
 13 14  1  0
 14 15  2  0
 15 16  1  0
 16 17  2  0
 17 18  1  0
 18 19  2  0
 19 20  1  0
 19 21  1  0
 21 22  2  0
 22 23  1  0
 23 24  2  0
 24 25  1  0
 24 26  1  0
 26 27  2  0
 27 12  1  0
 18 13  1  0
 27 21  1  0
  1 28  1  0
  1 29  1  0
  1 30  1  0
  2 31  1  0
  2 32  1  0
  3 33  1  0
  3 34  1  0
  4 35  1  0
  4 36  1  0
  5 37  1  0
  5 38  1  0
  7 39  1  0
  8 40  1  0
  8 41  1  0
  9 42  1  0
  9 43  1  0
 10 44  1  0
 10 45  1  0
 11 46  1  0
 14 47  1  0
 15 48  1  0
 16 49  1  0
 17 50  1  0
 20 51  1  0
 20 52  1  0
 20 53  1  0
 22 54  1  0
 23 55  1  0
 25 56  1  0
 25 57  1  0
 25 58  1  0
 26 59  1  0
M  CHG  2   3   1  19   1
M  END
>  <UniqueID>  (15) 
15

>  <SMILES>  (15) 
CC[NH2+]CCONCCCNc1c2ccccc2[n+](C)c2ccc(C)cc12

>  <Energy>  (15) 
83.25340447120729

>  <Genealogy>  (15) 
CC[NH2+]CCONCCCNc1c2ccccc2[n+](C)c2ccc(C)cc12 (protonated)
CC[NH2+]CCONCCCNc1c2ccccc2[n+](C)c2ccc(C)cc12 (3D coordinates assigned)
CC[NH2+]CCONCCCNc1c2ccccc2[n+](C)c2ccc(C)cc12 (optimized conformer: 83.25340447120729 kcal/mol)

>  <smiles>  (15) 
CCNCCONCCCNc1c2ccccc2[n+](C)c2ccc(C)cc12

>  <score_type>  (15) 
oracle

>  <origin>  (15) 
adg

>  <m_score__min__energy>  (15) 
-8.2799999999999994

>  <m_primary>  (15) 
energy

$$$$
15:0
     RDKit          3D

 52 54  0  0  0  0  0  0  0  0999 V2000
    1.0300   28.2310  -23.3200 C   0  0  0  0  0  0  0  0  0  0  0  0
    0.5060   26.7960  -23.3380 C   0  0  0  0  0  0  0  0  0  0  0  0
    1.0340   26.0530  -24.5040 N   0  0  0  0  0  0  0  0  0  0  0  0
    2.4940   25.8150  -24.5560 C   0  0  0  0  0  0  0  0  0  0  0  0
    2.8790   24.5790  -23.7450 C   0  0  0  0  0  0  0  0  0  0  0  0
    0.2040   25.6640  -25.4590 C   0  0  0  0  0  0  0  0  0  0  0  0
    0.6510   25.2580  -26.7410 C   0  0  0  0  0  0  0  0  0  0  0  0
   -0.2790   24.8600  -27.7010 C   0  0  0  0  0  0  0  0  0  0  0  0
   -1.6380   24.8650  -27.3890 C   0  0  0  0  0  0  0  0  0  0  0  0
   -2.6080   24.4720  -28.3220 C   0  0  0  0  0  0  0  0  0  0  0  0
   -3.9700   24.4790  -27.9710 C   0  0  0  0  0  0  0  0  0  0  0  0
   -4.9900   24.1020  -28.9120 N   0  0  0  0  0  0  0  0  0  0  0  0
   -5.0060   24.5100  -30.2880 C   0  0  0  0  0  0  0  0  0  0  0  0
   -3.9960   25.0580  -30.8080 O   0  0  0  0  0  0  0  0  0  0  0  0
   -6.1930   24.2000  -31.1480 C   0  0  0  0  0  0  0  0  0  0  0  0
   -6.0590   22.8220  -31.7370 C   0  0  0  0  0  0  0  0  0  0  0  0
   -4.8880   22.4520  -32.4150 C   0  0  0  0  0  0  0  0  0  0  0  0
   -4.7790   21.1830  -32.9890 C   0  0  0  0  0  0  0  0  0  0  0  0
   -5.8400   20.2770  -32.9000 C   0  0  0  0  0  0  0  0  0  0  0  0
   -7.0270   20.6400  -32.2330 C   0  0  0  0  0  0  0  0  0  0  0  0
   -8.1220   19.7710  -32.1210 O   0  0  0  0  0  0  0  0  0  0  0  0
   -9.4660   20.1260  -32.4300 C   0  0  0  0  0  0  0  0  0  0  0  0
   -7.1270   21.9140  -31.6600 C   0  0  0  0  0  0  0  0  0  0  0  0
   -4.3470   24.9190  -26.6920 C   0  0  0  0  0  0  0  0  0  0  0  0
   -3.3810   25.3120  -25.7610 C   0  0  0  0  0  0  0  0  0  0  0  0
   -2.0260   25.2830  -26.1030 C   0  0  0  0  0  0  0  0  0  0  0  0
   -1.1100   25.6570  -25.2140 O   0  0  0  0  0  0  0  0  0  0  0  0
    1.1516   28.5639  -22.2787 H   0  0  0  0  0  0  0  0  0  0  0  0
    2.0015   28.2731  -23.8342 H   0  0  0  0  0  0  0  0  0  0  0  0
    0.3142   28.8892  -23.8342 H   0  0  0  0  0  0  0  0  0  0  0  0
    0.8199   26.2868  -22.4148 H   0  0  0  0  0  0  0  0  0  0  0  0
   -0.5914   26.8246  -23.4084 H   0  0  0  0  0  0  0  0  0  0  0  0
    2.7967   25.6663  -25.6030 H   0  0  0  0  0  0  0  0  0  0  0  0
    3.0059   26.6885  -24.1259 H   0  0  0  0  0  0  0  0  0  0  0  0
    2.8077   24.8080  -22.6715 H   0  0  0  0  0  0  0  0  0  0  0  0
    2.1958   23.7524  -23.9898 H   0  0  0  0  0  0  0  0  0  0  0  0
    3.9108   24.2866  -23.9898 H   0  0  0  0  0  0  0  0  0  0  0  0
    1.7253   25.2568  -26.9775 H   0  0  0  0  0  0  0  0  0  0  0  0
    0.0578   24.5437  -28.6993 H   0  0  0  0  0  0  0  0  0  0  0  0
   -2.3031   24.1574  -29.3310 H   0  0  0  0  0  0  0  0  0  0  0  0
   -5.7150   23.4160  -28.6000 H   0  0  0  0  0  0  0  0  0  0  0  0
   -7.1069   24.2475  -30.5376 H   0  0  0  0  0  0  0  0  0  0  0  0
   -6.2489   24.9362  -31.9634 H   0  0  0  0  0  0  0  0  0  0  0  0
   -4.0528   23.1634  -32.4950 H   0  0  0  0  0  0  0  0  0  0  0  0
   -3.8553   20.8957  -33.5127 H   0  0  0  0  0  0  0  0  0  0  0  0
   -5.7480   19.2783  -33.3518 H   0  0  0  0  0  0  0  0  0  0  0  0
  -10.0296   20.2749  -31.4972 H   0  0  0  0  0  0  0  0  0  0  0  0
   -9.4739   21.0570  -33.0158 H   0  0  0  0  0  0  0  0  0  0  0  0
   -9.9326   19.3203  -33.0158 H   0  0  0  0  0  0  0  0  0  0  0  0
   -8.0531   22.2066  -31.1436 H   0  0  0  0  0  0  0  0  0  0  0  0
   -5.4123   24.9548  -26.4201 H   0  0  0  0  0  0  0  0  0  0  0  0
   -3.6876   25.6444  -24.7582 H   0  0  0  0  0  0  0  0  0  0  0  0
  1  2  1  0
  2  3  1  0
  3  4  1  0
  4  5  1  0
  3  6  2  3
  6  7  1  0
  7  8  2  0
  8  9  1  0
  9 10  2  0
 10 11  1  0
 11 12  1  0
 12 13  1  0
 13 14  2  0
 13 15  1  0
 15 16  1  0
 16 17  2  0
 17 18  1  0
 18 19  2  0
 19 20  1  0
 20 21  1  0
 21 22  1  0
 20 23  2  0
 11 24  2  0
 24 25  1  0
 25 26  2  0
 26 27  1  0
 27  6  1  0
 26  9  1  0
 23 16  1  0
  1 28  1  0
  1 29  1  0
  1 30  1  0
  2 31  1  0
  2 32  1  0
  4 33  1  0
  4 34  1  0
  5 35  1  0
  5 36  1  0
  5 37  1  0
  7 38  1  0
  8 39  1  0
 10 40  1  0
 12 41  1  0
 15 42  1  0
 15 43  1  0
 17 44  1  0
 18 45  1  0
 19 46  1  0
 22 47  1  0
 22 48  1  0
 22 49  1  0
 23 50  1  0
 24 51  1  0
 25 52  1  0
M  CHG  1   3   1
M  END
>  <UniqueID>  (16) 
16

>  <SMILES>  (16) 
CC[N+](CC)=c1ccc2cc(NC(=O)Cc3cccc(OC)c3)ccc2o1

>  <Energy>  (16) 
58.81735589087931

>  <Genealogy>  (16) 
CC[N+](CC)=c1ccc2cc(NC(=O)Cc3cccc(OC)c3)ccc2o1 (3D coordinates assigned)
CC[N+](CC)=c1ccc2cc(NC(=O)Cc3cccc(OC)c3)ccc2o1 (optimized conformer: 58.81735589087931 kcal/mol)

>  <smiles>  (16) 
CC[N+](CC)=c1ccc2cc(NC(=O)Cc3cccc(OC)c3)ccc2o1

>  <score_type>  (16) 
oracle

>  <origin>  (16) 
adg

>  <m_score__min__energy>  (16) 
-7.71

>  <m_primary>  (16) 
energy

$$$$
16:0
     RDKit          3D

 87 90  0  0  0  0  0  0  0  0999 V2000
   -5.4230   15.9450  -32.7790 C   0  0  0  0  0  0  0  0  0  0  0  0
   -6.5490   16.2600  -33.7600 C   0  0  0  0  0  0  0  0  0  0  0  0
   -7.5620   17.1080  -33.1180 N   0  0  0  0  0  0  0  0  0  0  0  0
   -7.0300   17.7850  -31.9230 C   0  0  0  0  0  0  0  0  0  0  0  0
   -7.9590   18.9170  -31.4600 C   0  0  0  0  0  0  0  0  0  0  0  0
   -8.8500   19.3580  -32.5440 N   0  0  0  0  0  0  0  0  0  0  0  0
   -8.9690   20.8240  -32.5760 C   0  0  0  0  0  0  0  0  0  0  0  0
   -7.7610   21.4720  -31.8950 C   0  0  0  0  0  0  0  0  0  0  0  0
   -6.6810   21.7150  -32.8510 N   0  0  0  0  0  0  0  0  0  0  0  0
   -5.3180   21.4540  -32.4840 C   0  0  0  0  0  0  0  0  0  0  0  0
   -4.6420   20.3550  -33.0380 C   0  0  0  0  0  0  0  0  0  0  0  0
   -5.2930   19.4920  -33.9460 C   0  0  0  0  0  0  0  0  0  0  0  0
   -4.6060   18.4350  -34.5380 C   0  0  0  0  0  0  0  0  0  0  0  0
   -3.2610   18.2300  -34.2520 C   0  0  0  0  0  0  0  0  0  0  0  0
   -2.6000   19.0660  -33.3520 C   0  0  0  0  0  0  0  0  0  0  0  0
   -3.2820   20.1250  -32.6980 C   0  0  0  0  0  0  0  0  0  0  0  0
   -2.6550   20.9330  -31.7670 N   0  0  0  0  0  0  0  0  0  0  0  0
   -1.3430   20.5340  -31.2100 C   0  0  0  0  0  0  0  0  0  0  0  0
   -3.2680   22.0930  -31.3300 C   0  0  0  0  0  0  0  0  0  0  0  0
   -2.5650   23.0710  -30.5870 C   0  0  0  0  0  0  0  0  0  0  0  0
   -3.2100   24.2070  -30.0700 C   0  0  0  0  0  0  0  0  0  0  0  0
   -2.5200   25.1810  -29.3280 O   0  0  0  0  0  0  0  0  0  0  0  0
   -1.5460   24.9120  -28.3180 C   0  0  0  0  0  0  0  0  0  0  0  0
   -2.0540   25.3470  -26.9220 C   0  0  0  0  0  0  0  0  0  0  0  0
   -1.0140   25.6330  -25.8730 N   0  0  0  0  0  0  0  0  0  0  0  0
   -0.5690   24.3640  -25.2340 C   0  0  0  0  0  0  0  0  0  0  0  0
   -1.6650   26.4850  -24.8170 C   0  0  0  0  0  0  0  0  0  0  0  0
   -0.6740   27.4460  -24.1280 C   0  0  0  0  0  0  0  0  0  0  0  0
   -0.0820   28.4280  -25.0930 N   0  0  0  0  0  0  0  0  0  0  0  0
    1.2680   28.8180  -24.6150 C   0  0  0  0  0  0  0  0  0  0  0  0
   -0.9190   29.6530  -25.1370 C   0  0  0  0  0  0  0  0  0  0  0  0
    0.0200   27.8590  -26.4750 C   0  0  0  0  0  0  0  0  0  0  0  0
    0.1810   26.3250  -26.4570 C   0  0  0  0  0  0  0  0  0  0  0  0
   -4.5670   24.4100  -30.3280 C   0  0  0  0  0  0  0  0  0  0  0  0
   -5.1800   25.5580  -29.8030 O   0  0  0  0  0  0  0  0  0  0  0  0
   -6.5510   25.6420  -29.4240 C   0  0  0  0  0  0  0  0  0  0  0  0
   -5.2730   23.4740  -31.1020 C   0  0  0  0  0  0  0  0  0  0  0  0
   -4.6300   22.3400  -31.6380 C   0  0  0  0  0  0  0  0  0  0  0  0
   -5.7944   16.0489  -31.7488 H   0  0  0  0  0  0  0  0  0  0  0  0
   -5.0735   14.9146  -32.9406 H   0  0  0  0  0  0  0  0  0  0  0  0
   -4.5896   16.6445  -32.9406 H   0  0  0  0  0  0  0  0  0  0  0  0
   -6.1340   16.7872  -34.6317 H   0  0  0  0  0  0  0  0  0  0  0  0
   -7.0201   15.3184  -34.0783 H   0  0  0  0  0  0  0  0  0  0  0  0
   -7.8280   17.8560  -33.8020 H   0  0  0  0  0  0  0  0  0  0  0  0
   -6.9288   17.0502  -31.1107 H   0  0  0  0  0  0  0  0  0  0  0  0
   -6.0532   18.2215  -32.1785 H   0  0  0  0  0  0  0  0  0  0  0  0
   -8.5698   18.5572  -30.6189 H   0  0  0  0  0  0  0  0  0  0  0  0
   -7.3374   19.7714  -31.1540 H   0  0  0  0  0  0  0  0  0  0  0  0
   -8.4220   19.0570  -33.4520 H   0  0  0  0  0  0  0  0  0  0  0  0
   -9.0194   21.1609  -33.6219 H   0  0  0  0  0  0  0  0  0  0  0  0
   -9.8825   21.1198  -32.0394 H   0  0  0  0  0  0  0  0  0  0  0  0
   -8.0703   22.4302  -31.4521 H   0  0  0  0  0  0  0  0  0  0  0  0
   -7.3905   20.7868  -31.1183 H   0  0  0  0  0  0  0  0  0  0  0  0
   -6.8630   22.2390  -33.7370 H   0  0  0  0  0  0  0  0  0  0  0  0
   -6.3534   19.6560  -34.1883 H   0  0  0  0  0  0  0  0  0  0  0  0
   -5.1285   17.7612  -35.2330 H   0  0  0  0  0  0  0  0  0  0  0  0
   -2.7165   17.4063  -34.7368 H   0  0  0  0  0  0  0  0  0  0  0  0
   -1.5321   18.9017  -33.1457 H   0  0  0  0  0  0  0  0  0  0  0  0
   -1.3914   20.5487  -30.1112 H   0  0  0  0  0  0  0  0  0  0  0  0
   -1.0926   19.5191  -31.5524 H   0  0  0  0  0  0  0  0  0  0  0  0
   -0.5700   21.2377  -31.5524 H   0  0  0  0  0  0  0  0  0  0  0  0
   -1.4874   22.9385  -30.4100 H   0  0  0  0  0  0  0  0  0  0  0  0
   -1.3335   23.8328  -28.3025 H   0  0  0  0  0  0  0  0  0  0  0  0
   -0.6350   25.4828  -28.5511 H   0  0  0  0  0  0  0  0  0  0  0  0
   -2.6496   26.2620  -27.0564 H   0  0  0  0  0  0  0  0  0  0  0  0
   -2.6131   24.4803  -26.5397 H   0  0  0  0  0  0  0  0  0  0  0  0
   -0.6067   24.4715  -24.1399 H   0  0  0  0  0  0  0  0  0  0  0  0
   -1.2333   23.5443  -25.5450 H   0  0  0  0  0  0  0  0  0  0  0  0
    0.4618   24.1387  -25.5450 H   0  0  0  0  0  0  0  0  0  0  0  0
   -2.4617   27.0799  -25.2875 H   0  0  0  0  0  0  0  0  0  0  0  0
   -2.0615   25.8093  -24.0449 H   0  0  0  0  0  0  0  0  0  0  0  0
   -1.2055   27.9991  -23.3396 H   0  0  0  0  0  0  0  0  0  0  0  0
    0.1462   26.8451  -23.7084 H   0  0  0  0  0  0  0  0  0  0  0  0
    1.2806   28.8216  -23.5151 H   0  0  0  0  0  0  0  0  0  0  0  0
    2.0112   28.0978  -24.9878 H   0  0  0  0  0  0  0  0  0  0  0  0
    1.5127   29.8236  -24.9878 H   0  0  0  0  0  0  0  0  0  0  0  0
   -1.1431   29.9810  -24.1112 H   0  0  0  0  0  0  0  0  0  0  0  0
   -0.3755   30.4496  -25.6662 H   0  0  0  0  0  0  0  0  0  0  0  0
   -1.8587   29.4362  -25.6662 H   0  0  0  0  0  0  0  0  0  0  0  0
   -0.8934   28.1139  -27.0325 H   0  0  0  0  0  0  0  0  0  0  0  0
    0.9115   28.2890  -26.9549 H   0  0  0  0  0  0  0  0  0  0  0  0
    0.3243   25.9725  -27.4891 H   0  0  0  0  0  0  0  0  0  0  0  0
    1.0495   26.0857  -25.8258 H   0  0  0  0  0  0  0  0  0  0  0  0
   -6.6285   25.6467  -28.3267 H   0  0  0  0  0  0  0  0  0  0  0  0
   -6.9865   26.5685  -29.8263 H   0  0  0  0  0  0  0  0  0  0  0  0
   -7.0964   24.7756  -29.8263 H   0  0  0  0  0  0  0  0  0  0  0  0
   -6.3452   23.6286  -31.2929 H   0  0  0  0  0  0  0  0  0  0  0  0
  1  2  1  0
  2  3  1  0
  3  4  1  0
  4  5  1  0
  5  6  1  0
  6  7  1  0
  7  8  1  0
  8  9  1  0
  9 10  1  0
 10 11  2  0
 11 12  1  0
 12 13  2  0
 13 14  1  0
 14 15  2  0
 15 16  1  0
 16 17  2  0
 17 18  1  0
 17 19  1  0
 19 20  2  0
 20 21  1  0
 21 22  1  0
 22 23  1  0
 23 24  1  0
 24 25  1  0
 25 26  1  0
 25 27  1  0
 27 28  1  0
 28 29  1  0
 29 30  1  0
 29 31  1  0
 29 32  1  0
 32 33  1  0
 21 34  2  0
 34 35  1  0
 35 36  1  0
 34 37  1  0
 37 38  2  0
 38 10  1  0
 16 11  1  0
 38 19  1  0
 33 25  1  0
  1 39  1  0
  1 40  1  0
  1 41  1  0
  2 42  1  0
  2 43  1  0
  3 44  1  0
  4 45  1  0
  4 46  1  0
  5 47  1  0
  5 48  1  0
  6 49  1  0
  7 50  1  0
  7 51  1  0
  8 52  1  0
  8 53  1  0
  9 54  1  0
 12 55  1  0
 13 56  1  0
 14 57  1  0
 15 58  1  0
 18 59  1  0
 18 60  1  0
 18 61  1  0
 20 62  1  0
 23 63  1  0
 23 64  1  0
 24 65  1  0
 24 66  1  0
 26 67  1  0
 26 68  1  0
 26 69  1  0
 27 70  1  0
 27 71  1  0
 28 72  1  0
 28 73  1  0
 30 74  1  0
 30 75  1  0
 30 76  1  0
 31 77  1  0
 31 78  1  0
 31 79  1  0
 32 80  1  0
 32 81  1  0
 33 82  1  0
 33 83  1  0
 36 84  1  0
 36 85  1  0
 36 86  1  0
 37 87  1  0
M  CHG  3  17   1  25   1  29   1
M  END
>  <UniqueID>  (17) 
17

>  <SMILES>  (17) 
CCNCCNCCNc1c2ccccc2[n+](C)c2cc(OCC[N+]3(C)CC[N+](C)(C)CC3)c(OC)cc12

>  <Energy>  (17) 
138.47240510652637

>  <Genealogy>  (17) 
CCNCCNCCNc1c2ccccc2[n+](C)c2cc(OCC[N+]3(C)CC[N+](C)(C)CC3)c(OC)cc12 (3D coordinates assigned)
CCNCCNCCNc1c2ccccc2[n+](C)c2cc(OCC[N+]3(C)CC[N+](C)(C)CC3)c(OC)cc12 (nonaromatic ring conformer: 138.47240510652637 kcal/mol)

>  <smiles>  (17) 
CCNCCNCCNc1c2ccccc2[n+](C)c2cc(OCC[N+]3(C)CC[N+](C)(C)CC3)c(OC)cc12

>  <score_type>  (17) 
oracle

>  <origin>  (17) 
adg

>  <m_score__min__energy>  (17) 
-8.7599999999999998

>  <m_primary>  (17) 
energy

$$$$
17:0
     RDKit          3D

 31 33  0  0  0  0  0  0  0  0999 V2000
   -2.1910   22.9840  -29.8000 C   0  0  0  0  0  0  0  0  0  0  0  0
   -3.4260   23.7020  -30.2210 C   0  0  0  0  0  0  0  0  0  0  0  0
   -4.6120   23.0990  -30.4290 N   0  0  0  0  0  0  0  0  0  0  0  0
   -5.3720   24.1470  -30.8110 C   0  0  0  0  0  0  0  0  0  0  0  0
   -6.8110   24.0250  -31.2130 C   0  0  0  0  0  0  0  0  0  0  0  0
   -6.9830   23.1530  -32.3840 N   0  0  0  0  0  0  0  0  0  0  0  0
   -7.0930   21.7190  -32.0410 C   0  0  1  0  0  0  0  0  0  0  0  0
   -8.5860   21.3330  -31.9800 C   0  0  0  0  0  0  0  0  0  0  0  0
   -8.7770   19.8740  -31.5330 C   0  0  0  0  0  0  0  0  0  0  0  0
   -7.8300   18.9750  -32.2660 C   0  0  0  0  0  0  0  0  0  0  0  0
   -7.9200   17.6330  -32.3140 N   0  0  0  0  0  0  0  0  0  0  0  0
   -6.8110   17.3060  -33.0200 C   0  0  0  0  0  0  0  0  0  0  0  0
   -6.0790   18.3840  -33.3740 N   0  0  0  0  0  0  0  0  0  0  0  0
   -6.7220   19.4210  -32.8730 N   0  0  0  0  0  0  0  0  0  0  0  0
   -6.3590   20.8210  -33.0710 C   0  0  0  0  0  0  0  0  0  0  0  0
   -4.6840   25.3050  -30.8440 N   0  0  0  0  0  0  0  0  0  0  0  0
   -3.4830   24.9860  -30.4710 O   0  0  0  0  0  0  0  0  0  0  0  0
   -2.1404   22.9546  -28.7016 H   0  0  0  0  0  0  0  0  0  0  0  0
   -2.2116   21.9571  -30.1937 H   0  0  0  0  0  0  0  0  0  0  0  0
   -1.3088   23.5100  -30.1937 H   0  0  0  0  0  0  0  0  0  0  0  0
   -7.3808   23.6054  -30.3708 H   0  0  0  0  0  0  0  0  0  0  0  0
   -7.1759   25.0280  -31.4794 H   0  0  0  0  0  0  0  0  0  0  0  0
   -6.2210   23.3310  -33.0790 H   0  0  0  0  0  0  0  0  0  0  0  0
   -6.6140   21.5583  -31.0639 H   0  0  0  0  0  0  0  0  0  0  0  0
   -9.0967   21.9949  -31.2651 H   0  0  0  0  0  0  0  0  0  0  0  0
   -9.0104   21.4415  -32.9890 H   0  0  0  0  0  0  0  0  0  0  0  0
   -8.5858   19.7980  -30.4524 H   0  0  0  0  0  0  0  0  0  0  0  0
   -9.8085   19.5644  -31.7571 H   0  0  0  0  0  0  0  0  0  0  0  0
   -6.5361   16.2725  -33.2774 H   0  0  0  0  0  0  0  0  0  0  0  0
   -5.2725   20.9356  -32.9430 H   0  0  0  0  0  0  0  0  0  0  0  0
   -6.6535   21.1267  -34.0858 H   0  0  0  0  0  0  0  0  0  0  0  0
  1  2  1  0
  2  3  2  0
  3  4  1  0
  4  5  1  0
  5  6  1  0
  6  7  1  0
  7  8  1  0
  8  9  1  0
  9 10  1  0
 10 11  2  0
 11 12  1  0
 12 13  2  0
 13 14  1  0
 14 15  1  0
  4 16  2  0
 16 17  1  0
 17  2  1  0
 15  7  1  0
 14 10  1  0
  1 18  1  0
  1 19  1  0
  1 20  1  0
  5 21  1  0
  5 22  1  0
  6 23  1  0
  7 24  1  1
  8 25  1  0
  8 26  1  0
  9 27  1  0
  9 28  1  0
 12 29  1  0
 15 30  1  0
 15 31  1  0
M  END
>  <UniqueID>  (18) 
18

>  <SMILES>  (18) 
Cc1nc(CN[C@H]2CCc3ncnn3C2)no1

>  <Energy>  (18) 
96.72421887748368

>  <Genealogy>  (18) 
Cc1nc(CN[C@H]2CCc3ncnn3C2)no1 (chirality)
Cc1nc(CN[C@H]2CCc3ncnn3C2)no1 (3D coordinates assigned)
Cc1nc(CN[C@H]2CCc3ncnn3C2)no1 (nonaromatic ring conformer: 96.72421887748368 kcal/mol)

>  <smiles>  (18) 
Cc1nc(CNC2CCc3ncnn3C2)no1

>  <score_type>  (18) 
oracle

>  <origin>  (18) 
adg

>  <m_score__min__energy>  (18) 
-7.9699999999999998

>  <m_primary>  (18) 
energy

$$$$
18:0
     RDKit          3D

 56 58  0  0  0  0  0  0  0  0999 V2000
   -2.3490   23.7950  -29.4380 C   0  0  0  0  0  0  0  0  0  0  0  0
   -3.7600   24.3590  -29.4100 C   0  0  0  0  0  0  0  0  0  0  0  0
   -3.9170   25.2690  -30.4780 O   0  0  0  0  0  0  0  0  0  0  0  0
   -5.2660   25.3010  -30.9100 C   0  0  0  0  0  0  0  0  0  0  0  0
   -6.2100   25.3590  -29.7110 C   0  0  0  0  0  0  0  0  0  0  0  0
   -6.9580   24.1630  -29.6450 O   0  0  0  0  0  0  0  0  0  0  0  0
   -7.3270   23.7340  -30.9420 C   0  0  0  0  0  0  0  0  0  0  0  0
   -7.8080   22.2840  -30.9100 C   0  0  0  0  0  0  0  0  0  0  0  0
   -8.4250   21.9710  -32.1390 O   0  0  0  0  0  0  0  0  0  0  0  0
   -9.2060   20.8040  -31.9920 C   0  0  0  0  0  0  0  0  0  0  0  0
   -8.3240   19.5720  -32.1920 C   0  0  0  0  0  0  0  0  0  0  0  0
   -7.4880   19.7060  -33.3870 N   0  0  0  0  0  0  0  0  0  0  0  0
   -6.1260   19.2450  -33.4170 C   0  0  0  0  0  0  0  0  0  0  0  0
   -5.0760   20.1270  -33.1140 C   0  0  0  0  0  0  0  0  0  0  0  0
   -5.3390   21.4330  -32.6500 C   0  0  0  0  0  0  0  0  0  0  0  0
   -4.2960   22.2990  -32.3330 C   0  0  0  0  0  0  0  0  0  0  0  0
   -2.9780   21.8750  -32.4510 C   0  0  0  0  0  0  0  0  0  0  0  0
   -2.6930   20.5890  -32.9090 C   0  0  0  0  0  0  0  0  0  0  0  0
   -3.7320   19.6970  -33.2810 C   0  0  0  0  0  0  0  0  0  0  0  0
   -3.4640   18.4360  -33.7820 N   0  0  0  0  0  0  0  0  0  0  0  0
   -2.0970   18.0920  -34.2320 C   0  0  0  0  0  0  0  0  0  0  0  0
   -4.4800   17.5020  -33.8750 C   0  0  0  0  0  0  0  0  0  0  0  0
   -4.2100   16.1280  -34.1030 C   0  0  0  0  0  0  0  0  0  0  0  0
   -5.2460   15.2000  -34.2140 C   0  0  0  0  0  0  0  0  0  0  0  0
   -6.5680   15.6080  -34.0800 C   0  0  0  0  0  0  0  0  0  0  0  0
   -6.8630   16.9440  -33.8210 C   0  0  0  0  0  0  0  0  0  0  0  0
   -5.8340   17.9030  -33.7170 C   0  0  0  0  0  0  0  0  0  0  0  0
   -1.9908   23.6518  -28.4078 H   0  0  0  0  0  0  0  0  0  0  0  0
   -2.3508   22.8285  -29.9632 H   0  0  0  0  0  0  0  0  0  0  0  0
   -1.6841   24.4965  -29.9632 H   0  0  0  0  0  0  0  0  0  0  0  0
   -4.4861   23.5394  -29.5151 H   0  0  0  0  0  0  0  0  0  0  0  0
   -3.9324   24.8766  -28.4548 H   0  0  0  0  0  0  0  0  0  0  0  0
   -5.4239   26.1899  -31.5385 H   0  0  0  0  0  0  0  0  0  0  0  0
   -5.4772   24.3876  -31.4854 H   0  0  0  0  0  0  0  0  0  0  0  0
   -5.6238   25.4767  -28.7877 H   0  0  0  0  0  0  0  0  0  0  0  0
   -6.8930   26.2141  -29.8220 H   0  0  0  0  0  0  0  0  0  0  0  0
   -8.1371   24.3758  -31.3186 H   0  0  0  0  0  0  0  0  0  0  0  0
   -6.4499   23.8032  -31.6023 H   0  0  0  0  0  0  0  0  0  0  0  0
   -6.9495   21.6154  -30.7489 H   0  0  0  0  0  0  0  0  0  0  0  0
   -8.5304   22.1531  -30.0908 H   0  0  0  0  0  0  0  0  0  0  0  0
   -9.6447   20.7810  -30.9835 H   0  0  0  0  0  0  0  0  0  0  0  0
  -10.0106   20.8045  -32.7420 H   0  0  0  0  0  0  0  0  0  0  0  0
   -7.6751   19.4490  -31.3124 H   0  0  0  0  0  0  0  0  0  0  0  0
   -8.9755   18.6949  -32.3199 H   0  0  0  0  0  0  0  0  0  0  0  0
   -7.9170   20.0730  -34.2670 H   0  0  0  0  0  0  0  0  0  0  0  0
   -6.3797   21.7709  -32.5374 H   0  0  0  0  0  0  0  0  0  0  0  0
   -4.5156   23.3204  -31.9886 H   0  0  0  0  0  0  0  0  0  0  0  0
   -2.1569   22.5558  -32.1823 H   0  0  0  0  0  0  0  0  0  0  0  0
   -1.6457   20.2608  -32.9831 H   0  0  0  0  0  0  0  0  0  0  0  0
   -1.4524   17.9298  -33.3555 H   0  0  0  0  0  0  0  0  0  0  0  0
   -2.1304   17.1742  -34.8375 H   0  0  0  0  0  0  0  0  0  0  0  0
   -1.6920   18.9162  -34.8375 H   0  0  0  0  0  0  0  0  0  0  0  0
   -3.1675   15.7889  -34.1937 H   0  0  0  0  0  0  0  0  0  0  0  0
   -5.0158   14.1420  -34.4082 H   0  0  0  0  0  0  0  0  0  0  0  0
   -7.3820   14.8747  -34.1787 H   0  0  0  0  0  0  0  0  0  0  0  0
   -7.9107   17.2551  -33.6961 H   0  0  0  0  0  0  0  0  0  0  0  0
  1  2  1  0
  2  3  1  0
  3  4  1  0
  4  5  1  0
  5  6  1  0
  6  7  1  0
  7  8  1  0
  8  9  1  0
  9 10  1  0
 10 11  1  0
 11 12  1  0
 12 13  1  0
 13 14  2  0
 14 15  1  0
 15 16  2  0
 16 17  1  0
 17 18  2  0
 18 19  1  0
 19 20  2  0
 20 21  1  0
 20 22  1  0
 22 23  2  0
 23 24  1  0
 24 25  2  0
 25 26  1  0
 26 27  2  0
 27 13  1  0
 19 14  1  0
 27 22  1  0
  1 28  1  0
  1 29  1  0
  1 30  1  0
  2 31  1  0
  2 32  1  0
  4 33  1  0
  4 34  1  0
  5 35  1  0
  5 36  1  0
  7 37  1  0
  7 38  1  0
  8 39  1  0
  8 40  1  0
 10 41  1  0
 10 42  1  0
 11 43  1  0
 11 44  1  0
 12 45  1  0
 15 46  1  0
 16 47  1  0
 17 48  1  0
 18 49  1  0
 21 50  1  0
 21 51  1  0
 21 52  1  0
 23 53  1  0
 24 54  1  0
 25 55  1  0
 26 56  1  0
M  CHG  1  20   1
M  END
>  <UniqueID>  (19) 
19

>  <SMILES>  (19) 
CCOCCOCCOCCNc1c2ccccc2[n+](C)c2ccccc12

>  <Energy>  (19) 
77.75839681239128

>  <Genealogy>  (19) 
CCOCCOCCOCCNc1c2ccccc2[n+](C)c2ccccc12 (3D coordinates assigned)
CCOCCOCCOCCNc1c2ccccc2[n+](C)c2ccccc12 (optimized conformer: 77.75839681239128 kcal/mol)

>  <smiles>  (19) 
CCOCCOCCOCCNc1c2ccccc2[n+](C)c2ccccc12

>  <score_type>  (19) 
oracle

>  <origin>  (19) 
adg

>  <m_score__min__energy>  (19) 
-9.2599999999999998

>  <m_primary>  (19) 
energy

$$$$
19:0
     RDKit          3D

 91 94  0  0  0  0  0  0  0  0999 V2000
   -2.7220   19.4450  -26.9520 C   0  0  0  0  0  0  0  0  0  0  0  0
   -3.1040   20.5060  -27.9760 C   0  0  0  0  0  0  0  0  0  0  0  0
   -2.2710   20.3470  -29.1800 N   0  0  0  0  0  0  0  0  0  0  0  0
   -0.9710   19.7230  -28.8950 C   0  0  0  0  0  0  0  0  0  0  0  0
    0.1270   20.2780  -29.8060 C   0  0  0  0  0  0  0  0  0  0  0  0
   -0.4580   20.8440  -30.9580 O   0  0  0  0  0  0  0  0  0  0  0  0
    0.2870   20.4720  -32.0970 C   0  0  0  0  0  0  0  0  0  0  0  0
   -0.2480   19.1510  -32.6640 C   0  0  0  0  0  0  0  0  0  0  0  0
   -1.6790   19.2130  -33.0080 N   0  0  0  0  0  0  0  0  0  0  0  0
   -2.0130   20.3580  -33.8670 C   0  0  0  0  0  0  0  0  0  0  0  0
   -2.4940   21.5540  -33.0140 C   0  0  0  0  0  0  0  0  0  0  0  0
   -2.9310   21.2510  -31.6230 N   0  0  0  0  0  0  0  0  0  0  0  0
   -4.3540   21.3990  -31.3430 C   0  0  0  0  0  0  0  0  0  0  0  0
   -5.2650   20.4040  -31.7900 C   0  0  0  0  0  0  0  0  0  0  0  0
   -4.8110   19.1720  -32.3260 C   0  0  0  0  0  0  0  0  0  0  0  0
   -5.7050   18.2200  -32.8050 C   0  0  0  0  0  0  0  0  0  0  0  0
   -7.0670   18.4710  -32.7780 C   0  0  0  0  0  0  0  0  0  0  0  0
   -7.5480   19.6610  -32.2390 C   0  0  0  0  0  0  0  0  0  0  0  0
   -6.6640   20.6320  -31.6950 C   0  0  0  0  0  0  0  0  0  0  0  0
   -7.1430   21.7870  -31.1150 N   0  0  0  0  0  0  0  0  0  0  0  0
   -8.5820   21.9010  -30.7790 C   0  0  0  0  0  0  0  0  0  0  0  0
   -6.2810   22.8170  -30.8000 C   0  0  0  0  0  0  0  0  0  0  0  0
   -6.7730   24.1130  -30.5130 C   0  0  0  0  0  0  0  0  0  0  0  0
   -5.9280   25.1300  -30.0970 C   0  0  0  0  0  0  0  0  0  0  0  0
   -4.5810   24.8780  -29.9070 C   0  0  0  0  0  0  0  0  0  0  0  0
   -4.0380   23.6150  -30.1970 C   0  0  0  0  0  0  0  0  0  0  0  0
   -2.7040   23.3260  -29.8580 O   0  0  0  0  0  0  0  0  0  0  0  0
   -2.1400   23.3210  -28.5470 C   0  0  0  0  0  0  0  0  0  0  0  0
   -1.8070   24.7680  -28.1170 C   0  0  0  0  0  0  0  0  0  0  0  0
   -1.9490   25.0750  -26.6550 N   0  0  0  0  0  0  0  0  0  0  0  0
   -3.3930   24.9060  -26.3330 C   0  0  0  0  0  0  0  0  0  0  0  0
   -1.5680   26.4930  -26.3350 C   0  0  0  0  0  0  0  0  0  0  0  0
   -0.1380   26.6230  -25.7690 C   0  0  0  0  0  0  0  0  0  0  0  0
    0.0550   25.8460  -24.5040 N   0  0  0  0  0  0  0  0  0  0  0  0
   -0.2460   26.7120  -23.3370 C   0  0  0  0  0  0  0  0  0  0  0  0
    1.4800   25.4350  -24.4090 C   0  0  0  0  0  0  0  0  0  0  0  0
   -0.8190   24.6290  -24.4440 C   0  0  0  0  0  0  0  0  0  0  0  0
   -1.1680   24.0860  -25.8420 C   0  0  0  0  0  0  0  0  0  0  0  0
   -4.8710   22.6030  -30.7750 C   0  0  0  0  0  0  0  0  0  0  0  0
   -2.8662   19.8456  -25.9377 H   0  0  0  0  0  0  0  0  0  0  0  0
   -3.3570   18.5574  -27.0894 H   0  0  0  0  0  0  0  0  0  0  0  0
   -1.6669   19.1659  -27.0894 H   0  0  0  0  0  0  0  0  0  0  0  0
   -4.1642   20.3908  -28.2456 H   0  0  0  0  0  0  0  0  0  0  0  0
   -2.9419   21.5057  -27.5468 H   0  0  0  0  0  0  0  0  0  0  0  0
   -2.0850   21.2960  -29.5810 H   0  0  0  0  0  0  0  0  0  0  0  0
   -0.7009   19.9213  -27.8473 H   0  0  0  0  0  0  0  0  0  0  0  0
   -1.0586   18.6418  -29.0777 H   0  0  0  0  0  0  0  0  0  0  0  0
    0.6953   21.0500  -29.2665 H   0  0  0  0  0  0  0  0  0  0  0  0
    0.8041   19.4631  -30.1018 H   0  0  0  0  0  0  0  0  0  0  0  0
    0.2010   21.2582  -32.8615 H   0  0  0  0  0  0  0  0  0  0  0  0
    1.3417   20.3426  -31.8127 H   0  0  0  0  0  0  0  0  0  0  0  0
    0.3209   18.9028  -33.5721 H   0  0  0  0  0  0  0  0  0  0  0  0
   -0.1287   18.3845  -31.8841 H   0  0  0  0  0  0  0  0  0  0  0  0
   -1.9790   18.3240  -33.4760 H   0  0  0  0  0  0  0  0  0  0  0  0
   -1.1202   20.6556  -34.4365 H   0  0  0  0  0  0  0  0  0  0  0  0
   -2.8206   20.0636  -34.5534 H   0  0  0  0  0  0  0  0  0  0  0  0
   -1.6653   22.2748  -32.9534 H   0  0  0  0  0  0  0  0  0  0  0  0
   -3.3934   21.9295  -33.5241 H   0  0  0  0  0  0  0  0  0  0  0  0
   -2.5920   20.3090  -31.3330 H   0  0  0  0  0  0  0  0  0  0  0  0
   -2.3810   21.8480  -30.9640 H   0  0  0  0  0  0  0  0  0  0  0  0
   -3.7313   18.9653  -32.3637 H   0  0  0  0  0  0  0  0  0  0  0  0
   -5.3299   17.2667  -33.2057 H   0  0  0  0  0  0  0  0  0  0  0  0
   -7.7700   17.7284  -33.1833 H   0  0  0  0  0  0  0  0  0  0  0  0
   -8.6311   19.8532  -32.2340 H   0  0  0  0  0  0  0  0  0  0  0  0
   -8.7036   21.9106  -29.6858 H   0  0  0  0  0  0  0  0  0  0  0  0
   -8.9843   22.8338  -31.2009 H   0  0  0  0  0  0  0  0  0  0  0  0
   -9.1261   21.0431  -31.2009 H   0  0  0  0  0  0  0  0  0  0  0  0
   -7.8483   24.3172  -30.6224 H   0  0  0  0  0  0  0  0  0  0  0  0
   -6.3289   26.1385  -29.9177 H   0  0  0  0  0  0  0  0  0  0  0  0
   -3.9274   25.6758  -29.5244 H   0  0  0  0  0  0  0  0  0  0  0  0
   -2.8621   22.8866  -27.8400 H   0  0  0  0  0  0  0  0  0  0  0  0
   -1.2183   22.7207  -28.5495 H   0  0  0  0  0  0  0  0  0  0  0  0
   -0.7644   24.9713  -28.4027 H   0  0  0  0  0  0  0  0  0  0  0  0
   -2.5481   25.4033  -28.6241 H   0  0  0  0  0  0  0  0  0  0  0  0
   -3.5258   24.8905  -25.2412 H   0  0  0  0  0  0  0  0  0  0  0  0
   -3.9643   25.7434  -26.7600 H   0  0  0  0  0  0  0  0  0  0  0  0
   -3.7555   23.9593  -26.7600 H   0  0  0  0  0  0  0  0  0  0  0  0
   -1.6353   27.0900  -27.2564 H   0  0  0  0  0  0  0  0  0  0  0  0
   -2.2612   26.8518  -25.5600 H   0  0  0  0  0  0  0  0  0  0  0  0
    0.5735   26.2525  -26.5217 H   0  0  0  0  0  0  0  0  0  0  0  0
    0.0323   27.6846  -25.5364 H   0  0  0  0  0  0  0  0  0  0  0  0
   -0.0526   26.1556  -22.4080 H   0  0  0  0  0  0  0  0  0  0  0  0
    0.3941   27.6060  -23.3690 H   0  0  0  0  0  0  0  0  0  0  0  0
   -1.3026   27.0163  -23.3690 H   0  0  0  0  0  0  0  0  0  0  0  0
    1.7679   25.3520  -23.3506 H   0  0  0  0  0  0  0  0  0  0  0  0
    1.6145   24.4614  -24.9030 H   0  0  0  0  0  0  0  0  0  0  0  0
    2.1123   26.1874  -24.9030 H   0  0  0  0  0  0  0  0  0  0  0  0
   -0.2927   23.8437  -23.8815 H   0  0  0  0  0  0  0  0  0  0  0  0
   -1.7599   24.9163  -23.9519 H   0  0  0  0  0  0  0  0  0  0  0  0
   -0.2344   23.8493  -26.3733 H   0  0  0  0  0  0  0  0  0  0  0  0
   -1.7918   23.1896  -25.7101 H   0  0  0  0  0  0  0  0  0  0  0  0
  1  2  1  0
  2  3  1  0
  3  4  1  0
  4  5  1  0
  5  6  1  0
  6  7  1  0
  7  8  1  0
  8  9  1  0
  9 10  1  0
 10 11  1  0
 11 12  1  0
 12 13  1  0
 13 14  2  0
 14 15  1  0
 15 16  2  0
 16 17  1  0
 17 18  2  0
 18 19  1  0
 19 20  2  0
 20 21  1  0
 20 22  1  0
 22 23  2  0
 23 24  1  0
 24 25  2  0
 25 26  1  0
 26 27  1  0
 27 28  1  0
 28 29  1  0
 29 30  1  0
 30 31  1  0
 30 32  1  0
 32 33  1  0
 33 34  1  0
 34 35  1  0
 34 36  1  0
 34 37  1  0
 37 38  1  0
 26 39  2  0
 39 13  1  0
 19 14  1  0
 39 22  1  0
 38 30  1  0
  1 40  1  0
  1 41  1  0
  1 42  1  0
  2 43  1  0
  2 44  1  0
  3 45  1  0
  4 46  1  0
  4 47  1  0
  5 48  1  0
  5 49  1  0
  7 50  1  0
  7 51  1  0
  8 52  1  0
  8 53  1  0
  9 54  1  0
 10 55  1  0
 10 56  1  0
 11 57  1  0
 11 58  1  0
 12 59  1  0
 12 60  1  0
 15 61  1  0
 16 62  1  0
 17 63  1  0
 18 64  1  0
 21 65  1  0
 21 66  1  0
 21 67  1  0
 23 68  1  0
 24 69  1  0
 25 70  1  0
 28 71  1  0
 28 72  1  0
 29 73  1  0
 29 74  1  0
 31 75  1  0
 31 76  1  0
 31 77  1  0
 32 78  1  0
 32 79  1  0
 33 80  1  0
 33 81  1  0
 35 82  1  0
 35 83  1  0
 35 84  1  0
 36 85  1  0
 36 86  1  0
 36 87  1  0
 37 88  1  0
 37 89  1  0
 38 90  1  0
 38 91  1  0
M  CHG  4  12   1  20   1  30   1  34   1
M  END
>  <UniqueID>  (20) 
20

>  <SMILES>  (20) 
CCNCCOCCNCC[NH2+]c1c2ccccc2[n+](C)c2cccc(OCC[N+]3(C)CC[N+](C)(C)CC3)c12

>  <Energy>  (20) 
154.0124619031246

>  <Genealogy>  (20) 
CCNCCOCCNCC[NH2+]c1c2ccccc2[n+](C)c2cccc(OCC[N+]3(C)CC[N+](C)(C)CC3)c12 (protonated)
CCNCCOCCNCC[NH2+]c1c2ccccc2[n+](C)c2cccc(OCC[N+]3(C)CC[N+](C)(C)CC3)c12 (3D coordinates assigned)
CCNCCOCCNCC[NH2+]c1c2ccccc2[n+](C)c2cccc(OCC[N+]3(C)CC[N+](C)(C)CC3)c12 (nonaromatic ring conformer: 154.0124619031246 kcal/mol)

>  <smiles>  (20) 
CCNCCOCCNCCNc1c2ccccc2[n+](C)c2cccc(OCC[N+]3(C)CC[N+](C)(C)CC3)c12

>  <score_type>  (20) 
oracle

>  <origin>  (20) 
adg

>  <m_score__min__energy>  (20) 
-7.1500000000000004

>  <m_primary>  (20) 
energy

$$$$
