0:0
     RDKit          3D

 36 37  0  0  0  0  0  0  0  0999 V2000
   -6.1110   17.0540  -31.2190 C   0  0  0  0  0  0  0  0  0  0  0  0
   -5.9880   17.7870  -32.4750 N   0  0  0  0  0  0  0  0  0  0  0  0
   -4.9660   17.7040  -33.3480 C   0  0  0  0  0  0  0  0  0  0  0  0
   -5.2660   18.4890  -34.4430 C   0  0  0  0  0  0  0  0  0  0  0  0
   -6.4760   19.0490  -34.2540 N   0  0  0  0  0  0  0  0  0  0  0  0
   -6.9000   18.5990  -33.0560 C   0  0  0  0  0  0  0  0  0  0  0  0
   -8.2310   18.9550  -32.4610 C   0  0  0  0  0  0  0  0  0  0  0  0
   -8.7840   20.1480  -33.1250 N   0  0  0  0  0  0  0  0  0  0  0  0
   -9.5070   21.0370  -32.2010 C   0  0  0  0  0  0  0  0  0  0  0  0
   -8.6110   22.1600  -31.6580 C   0  0  0  0  0  0  0  0  0  0  0  0
   -7.2930   22.1540  -32.2990 N   0  0  0  0  0  0  0  0  0  0  0  0
   -6.0740   22.6010  -31.6730 C   0  0  0  0  0  0  0  0  0  0  0  0
   -5.0940   21.6540  -31.3360 C   0  0  0  0  0  0  0  0  0  0  0  0
   -3.9010   22.0520  -30.7260 C   0  0  0  0  0  0  0  0  0  0  0  0
   -3.6780   23.4020  -30.4420 C   0  0  0  0  0  0  0  0  0  0  0  0
   -4.6490   24.3530  -30.7630 C   0  0  0  0  0  0  0  0  0  0  0  0
   -4.4360   25.6610  -30.4770 F   0  0  0  0  0  0  0  0  0  0  0  0
   -5.8450   23.9580  -31.3720 C   0  0  0  0  0  0  0  0  0  0  0  0
   -5.9942   17.7501  -30.3753 H   0  0  0  0  0  0  0  0  0  0  0  0
   -7.1015   16.5784  -31.1675 H   0  0  0  0  0  0  0  0  0  0  0  0
   -5.3300   16.2811  -31.1675 H   0  0  0  0  0  0  0  0  0  0  0  0
   -4.0490   17.1119  -33.2118 H   0  0  0  0  0  0  0  0  0  0  0  0
   -4.6233   18.6332  -35.3240 H   0  0  0  0  0  0  0  0  0  0  0  0
   -6.9820   19.6850  -34.9090 H   0  0  0  0  0  0  0  0  0  0  0  0
   -8.9249   18.1117  -32.5928 H   0  0  0  0  0  0  0  0  0  0  0  0
   -8.0989   19.1698  -31.3903 H   0  0  0  0  0  0  0  0  0  0  0  0
   -9.4750   19.8210  -33.8400 H   0  0  0  0  0  0  0  0  0  0  0  0
  -10.3564   21.4881  -32.7349 H   0  0  0  0  0  0  0  0  0  0  0  0
   -9.8470   20.4328  -31.3470 H   0  0  0  0  0  0  0  0  0  0  0  0
   -9.0967   23.1284  -31.8488 H   0  0  0  0  0  0  0  0  0  0  0  0
   -8.4704   21.9977  -30.5792 H   0  0  0  0  0  0  0  0  0  0  0  0
   -7.2450   21.8210  -33.2880 H   0  0  0  0  0  0  0  0  0  0  0  0
   -5.2664   20.5897  -31.5539 H   0  0  0  0  0  0  0  0  0  0  0  0
   -3.1377   21.3026  -30.4695 H   0  0  0  0  0  0  0  0  0  0  0  0
   -2.7375   23.7156  -29.9655 H   0  0  0  0  0  0  0  0  0  0  0  0
   -6.6096   24.7100  -31.6168 H   0  0  0  0  0  0  0  0  0  0  0  0
  1  2  1  0
  2  3  1  0
  3  4  2  0
  4  5  1  0
  5  6  2  0
  6  7  1  0
  7  8  1  0
  8  9  1  0
  9 10  1  0
 10 11  1  0
 11 12  1  0
 12 13  2  0
 13 14  1  0
 14 15  2  0
 15 16  1  0
 16 17  1  0
 16 18  2  0
  6  2  1  0
 18 12  1  0
  1 19  1  0
  1 20  1  0
  1 21  1  0
  3 22  1  0
  4 23  1  0
  5 24  1  0
  7 25  1  0
  7 26  1  0
  8 27  1  0
  9 28  1  0
  9 29  1  0
 10 30  1  0
 10 31  1  0
 11 32  1  0
 13 33  1  0
 14 34  1  0
 15 35  1  0
 18 36  1  0
M  CHG  1   5   1
M  END
>  <UniqueID>  (1) 
1

>  <SMILES>  (1) 
Cn1cc[nH+]c1CNCCNc1cccc(F)c1

>  <Energy>  (1) 
61.67641862798741

>  <Genealogy>  (1) 
Cn1cc[nH+]c1CNCCNc1cccc(F)c1 (protonated)
Cn1cc[nH+]c1CNCCNc1cccc(F)c1 (3D coordinates assigned)
Cn1cc[nH+]c1CNCCNc1cccc(F)c1 (optimized conformer: 61.67641862798741 kcal/mol)

>  <smiles>  (1) 
Cn1ccnc1CNCCNc1cccc(F)c1

>  <score_type>  (1) 
oracle

>  <origin>  (1) 
adg

>  <m_score__min__energy>  (1) 
-5.6399999999999997

>  <m_primary>  (1) 
energy

$$$$
1:0
     RDKit          3D

 83 88  0  0  0  0  0  0  0  0999 V2000
    1.8430   28.9290  -21.7520 C   0  0  0  0  0  0  0  0  0  0  0  0
    1.6870   29.0470  -23.2790 C   0  0  0  0  0  0  0  0  0  0  0  0
    0.8690   27.9790  -23.9300 N   0  0  2  0  0  0  0  0  0  0  0  0
    1.7040   27.0620  -24.7550 C   0  0  0  0  0  0  0  0  0  0  0  0
    0.8170   26.0010  -25.4580 C   0  0  0  0  0  0  0  0  0  0  0  0
   -0.6190   26.2090  -25.1210 N   0  0  2  0  0  0  0  0  0  0  0  0
   -1.5250   25.2520  -25.8390 C   0  0  0  0  0  0  0  0  0  0  0  0
   -0.8690   24.0420  -26.5560 C   0  0  0  0  0  0  0  0  0  0  0  0
   -1.7040   23.4560  -27.6640 C   0  0  0  0  0  0  0  0  0  0  0  0
   -1.6030   22.0930  -27.9800 C   0  0  0  0  0  0  0  0  0  0  0  0
   -2.3220   21.5630  -29.0520 C   0  0  0  0  0  0  0  0  0  0  0  0
   -3.1280   22.3910  -29.8530 C   0  0  0  0  0  0  0  0  0  0  0  0
   -3.3370   23.7250  -29.4480 C   0  0  0  0  0  0  0  0  0  0  0  0
   -2.6050   24.2610  -28.3780 C   0  0  0  0  0  0  0  0  0  0  0  0
   -4.3610   24.5600  -30.1650 C   0  0  0  0  0  0  0  0  0  0  0  0
   -5.5660   23.6900  -30.5390 C   0  0  0  0  0  0  0  0  0  0  0  0
   -5.1250   22.4770  -31.3390 C   0  0  0  0  0  0  0  0  0  0  0  0
   -5.9540   21.9080  -32.3210 C   0  0  0  0  0  0  0  0  0  0  0  0
   -7.1990   22.5320  -32.6700 N   0  0  0  0  0  0  0  0  0  0  0  0
   -8.4470   22.1770  -31.9920 C   0  0  0  0  0  0  0  0  0  0  0  0
   -8.2190   21.0490  -30.9790 C   0  0  0  0  0  0  0  0  0  0  0  0
   -8.9480   19.8280  -31.3820 N   0  0  0  0  0  0  0  0  0  0  0  0
   -8.0500   18.6620  -31.3330 C   0  0  0  0  0  0  0  0  0  0  0  0
   -9.4970   19.9620  -32.7440 C   0  0  0  0  0  0  0  0  0  0  0  0
   -5.5680   20.7050  -32.9340 C   0  0  0  0  0  0  0  0  0  0  0  0
   -6.4470   20.0130  -33.7930 C   0  0  0  0  0  0  0  0  0  0  0  0
   -6.0450   18.8370  -34.4230 C   0  0  0  0  0  0  0  0  0  0  0  0
   -4.7700   18.3270  -34.2020 C   0  0  0  0  0  0  0  0  0  0  0  0
   -3.8870   18.9900  -33.3470 C   0  0  0  0  0  0  0  0  0  0  0  0
   -4.2660   20.1910  -32.6970 C   0  0  0  0  0  0  0  0  0  0  0  0
   -3.4070   20.8540  -31.8460 N   0  0  0  0  0  0  0  0  0  0  0  0
   -1.9610   20.5530  -31.8900 C   0  0  0  0  0  0  0  0  0  0  0  0
   -3.8870   21.8630  -31.0350 C   0  0  0  0  0  0  0  0  0  0  0  0
   -0.9940   27.5890  -25.5420 C   0  0  0  0  0  0  0  0  0  0  0  0
   -0.1150   28.6410  -24.8290 C   0  0  0  0  0  0  0  0  0  0  0  0
   -0.7880   26.1320  -23.6410 C   0  0  0  0  0  0  0  0  0  0  0  0
    0.1090   27.1800  -22.9300 C   0  0  0  0  0  0  0  0  0  0  0  0
    1.0597   29.5215  -21.2565 H   0  0  0  0  0  0  0  0  0  0  0  0
    1.7485   27.8743  -21.4542 H   0  0  0  0  0  0  0  0  0  0  0  0
    2.8322   29.3069  -21.4542 H   0  0  0  0  0  0  0  0  0  0  0  0
    1.2135   30.0157  -23.4968 H   0  0  0  0  0  0  0  0  0  0  0  0
    2.7007   28.9436  -23.6934 H   0  0  0  0  0  0  0  0  0  0  0  0
    2.2397   27.6476  -25.5167 H   0  0  0  0  0  0  0  0  0  0  0  0
    2.4204   26.5469  -24.0982 H   0  0  0  0  0  0  0  0  0  0  0  0
    0.9482   26.0847  -26.5469 H   0  0  0  0  0  0  0  0  0  0  0  0
    1.1202   25.0015  -25.1130 H   0  0  0  0  0  0  0  0  0  0  0  0
   -2.2335   24.8515  -25.0990 H   0  0  0  0  0  0  0  0  0  0  0  0
   -1.9740   25.8464  -26.6484 H   0  0  0  0  0  0  0  0  0  0  0  0
    0.0893   24.3720  -26.9834 H   0  0  0  0  0  0  0  0  0  0  0  0
   -0.7480   23.2529  -25.7993 H   0  0  0  0  0  0  0  0  0  0  0  0
   -0.9537   21.4387  -27.3797 H   0  0  0  0  0  0  0  0  0  0  0  0
   -2.2576   20.4872  -29.2725 H   0  0  0  0  0  0  0  0  0  0  0  0
   -2.7377   25.3163  -28.0975 H   0  0  0  0  0  0  0  0  0  0  0  0
   -4.6906   25.3784  -29.5080 H   0  0  0  0  0  0  0  0  0  0  0  0
   -3.9151   24.9777  -31.0797 H   0  0  0  0  0  0  0  0  0  0  0  0
   -6.0674   23.3533  -29.6196 H   0  0  0  0  0  0  0  0  0  0  0  0
   -6.2559   24.2870  -31.1535 H   0  0  0  0  0  0  0  0  0  0  0  0
   -7.2310   23.1480  -33.5130 H   0  0  0  0  0  0  0  0  0  0  0  0
   -8.8344   23.0613  -31.4648 H   0  0  0  0  0  0  0  0  0  0  0  0
   -9.1697   21.8311  -32.7457 H   0  0  0  0  0  0  0  0  0  0  0  0
   -7.1434   20.8254  -30.9239 H   0  0  0  0  0  0  0  0  0  0  0  0
   -8.5924   21.3753  -29.9971 H   0  0  0  0  0  0  0  0  0  0  0  0
   -7.8475   18.3990  -30.2843 H   0  0  0  0  0  0  0  0  0  0  0  0
   -8.5274   17.8100  -31.8391 H   0  0  0  0  0  0  0  0  0  0  0  0
   -7.1043   18.9060  -31.8391 H   0  0  0  0  0  0  0  0  0  0  0  0
  -10.5641   20.2225  -32.6852 H   0  0  0  0  0  0  0  0  0  0  0  0
   -8.9552   20.7543  -33.2814 H   0  0  0  0  0  0  0  0  0  0  0  0
   -9.3812   19.0092  -33.2814 H   0  0  0  0  0  0  0  0  0  0  0  0
   -7.4597   20.4055  -33.9673 H   0  0  0  0  0  0  0  0  0  0  0  0
   -6.7374   18.3108  -35.0966 H   0  0  0  0  0  0  0  0  0  0  0  0
   -4.4563   17.3988  -34.7021 H   0  0  0  0  0  0  0  0  0  0  0  0
   -2.8831   18.5742  -33.1756 H   0  0  0  0  0  0  0  0  0  0  0  0
   -1.5720   20.4720  -30.8643 H   0  0  0  0  0  0  0  0  0  0  0  0
   -1.8003   19.6022  -32.4192 H   0  0  0  0  0  0  0  0  0  0  0  0
   -1.4343   21.3608  -32.4192 H   0  0  0  0  0  0  0  0  0  0  0  0
   -0.8579   27.6833  -26.6295 H   0  0  0  0  0  0  0  0  0  0  0  0
   -2.0449   27.7662  -25.2696 H   0  0  0  0  0  0  0  0  0  0  0  0
    0.4251   29.2320  -25.5834 H   0  0  0  0  0  0  0  0  0  0  0  0
   -0.7627   29.2943  -24.2260 H   0  0  0  0  0  0  0  0  0  0  0  0
   -1.8406   26.3264  -23.3874 H   0  0  0  0  0  0  0  0  0  0  0  0
   -0.4928   25.1275  -23.3036 H   0  0  0  0  0  0  0  0  0  0  0  0
   -0.5241   27.8536  -22.3338 H   0  0  0  0  0  0  0  0  0  0  0  0
    0.8221   26.6545  -22.2779 H   0  0  0  0  0  0  0  0  0  0  0  0
  1  2  1  0
  3  2  1  1
  3  4  1  0
  4  5  1  0
  5  6  1  0
  6  7  1  6
  7  8  1  0
  8  9  1  0
  9 10  2  0
 10 11  1  0
 11 12  2  0
 12 13  1  0
 13 14  2  0
 13 15  1  0
 15 16  1  0
 16 17  1  0
 17 18  2  0
 18 19  1  0
 19 20  1  0
 20 21  1  0
 21 22  1  0
 22 23  1  0
 22 24  1  0
 18 25  1  0
 25 26  2  0
 26 27  1  0
 27 28  2  0
 28 29  1  0
 29 30  2  0
 30 31  1  0
 31 32  1  0
 31 33  2  0
  6 34  1  0
 34 35  1  0
  6 36  1  0
 36 37  1  0
 35  3  1  0
 37  3  1  0
 14  9  1  0
 33 17  1  0
 33 12  1  0
 30 25  1  0
  1 38  1  0
  1 39  1  0
  1 40  1  0
  2 41  1  0
  2 42  1  0
  4 43  1  0
  4 44  1  0
  5 45  1  0
  5 46  1  0
  7 47  1  0
  7 48  1  0
  8 49  1  0
  8 50  1  0
 10 51  1  0
 11 52  1  0
 14 53  1  0
 15 54  1  0
 15 55  1  0
 16 56  1  0
 16 57  1  0
 19 58  1  0
 20 59  1  0
 20 60  1  0
 21 61  1  0
 21 62  1  0
 23 63  1  0
 23 64  1  0
 23 65  1  0
 24 66  1  0
 24 67  1  0
 24 68  1  0
 26 69  1  0
 27 70  1  0
 28 71  1  0
 29 72  1  0
 32 73  1  0
 32 74  1  0
 32 75  1  0
 34 76  1  0
 34 77  1  0
 35 78  1  0
 35 79  1  0
 36 80  1  0
 36 81  1  0
 37 82  1  0
 37 83  1  0
M  CHG  3   3   1   6   1  31   1
M  END
>  <UniqueID>  (2) 
2

>  <SMILES>  (2) 
CC[N+]12CC[N+](CCc3ccc4c(c3)CCc3c(NCCN(C)C)c5ccccc5[n+](C)c3-4)(CC1)CC2

>  <Energy>  (2) 
146.13623422237166

>  <Genealogy>  (2) 
CC[N+]12CC[N+](CCc3ccc4c(c3)CCc3c(NCCN(C)C)c5ccccc5[n+](C)c3-4)(CC1)CC2 (3D coordinates assigned)
CC[N+]12CC[N+](CCc3ccc4c(c3)CCc3c(NCCN(C)C)c5ccccc5[n+](C)c3-4)(CC1)CC2 (nonaromatic ring conformer: 146.13623422237166 kcal/mol)

>  <smiles>  (2) 
CC[N+]12CC[N+](CCc3ccc4c(c3)CCc3c(NCCN(C)C)c5ccccc5[n+](C)c3-4)(CC1)CC2

>  <score_type>  (2) 
oracle

>  <origin>  (2) 
adg

>  <m_score__min__energy>  (2) 
-9.4700000000000006

>  <m_primary>  (2) 
energy

$$$$
2:0
     RDKit          3D

 50 51  0  0  0  0  0  0  0  0999 V2000
   -6.7250   24.4720  -30.1380 C   0  0  0  0  0  0  0  0  0  0  0  0
   -5.3330   25.0630  -29.9210 C   0  0  0  0  0  0  0  0  0  0  0  0
   -4.3060   24.0070  -29.9290 N   0  0  0  0  0  0  0  0  0  0  0  0
   -3.1810   24.1530  -28.9900 C   0  0  0  0  0  0  0  0  0  0  0  0
   -3.6750   24.1630  -27.5440 C   0  0  0  0  0  0  0  0  0  0  0  0
   -4.3990   22.8650  -30.8280 C   0  0  0  0  0  0  0  0  0  0  0  0
   -4.6320   23.0420  -32.2100 C   0  0  0  0  0  0  0  0  0  0  0  0
   -4.7220   21.9450  -33.0720 C   0  0  0  0  0  0  0  0  0  0  0  0
   -4.5840   20.6430  -32.5790 C   0  0  0  0  0  0  0  0  0  0  0  0
   -4.6910   19.4540  -33.5000 C   0  0  0  0  0  0  0  0  0  0  0  0
   -6.1090   19.1170  -33.7430 N   0  0  0  0  0  0  0  0  0  0  0  0
   -6.3970   17.6830  -33.4830 C   0  0  0  0  0  0  0  0  0  0  0  0
   -7.0330   17.4570  -32.1110 C   0  0  0  0  0  0  0  0  0  0  0  0
   -8.3300   18.2770  -31.9700 C   0  0  0  0  0  0  0  0  0  0  0  0
   -8.3590   19.4730  -32.8530 N   0  0  1  0  0  0  0  0  0  0  0  0
   -9.2860   20.5080  -32.3340 C   0  0  0  0  0  0  0  0  0  0  0  0
   -8.5510   21.6360  -31.6020 C   0  0  0  0  0  0  0  0  0  0  0  0
   -7.0010   20.0420  -33.0020 C   0  0  0  0  0  0  0  0  0  0  0  0
   -4.3520   20.4500  -31.2120 C   0  0  0  0  0  0  0  0  0  0  0  0
   -4.2600   21.5440  -30.3480 C   0  0  0  0  0  0  0  0  0  0  0  0
   -7.1947   24.2726  -29.1635 H   0  0  0  0  0  0  0  0  0  0  0  0
   -7.3423   25.1857  -30.7034 H   0  0  0  0  0  0  0  0  0  0  0  0
   -6.6403   23.5322  -30.7034 H   0  0  0  0  0  0  0  0  0  0  0  0
   -5.1173   25.7812  -30.7258 H   0  0  0  0  0  0  0  0  0  0  0  0
   -5.3131   25.5649  -28.9424 H   0  0  0  0  0  0  0  0  0  0  0  0
   -2.4859   23.3116  -29.1272 H   0  0  0  0  0  0  0  0  0  0  0  0
   -2.6742   25.1076  -29.1947 H   0  0  0  0  0  0  0  0  0  0  0  0
   -2.8124   24.1455  -26.8617 H   0  0  0  0  0  0  0  0  0  0  0  0
   -4.2659   25.0733  -27.3647 H   0  0  0  0  0  0  0  0  0  0  0  0
   -4.3023   23.2774  -27.3647 H   0  0  0  0  0  0  0  0  0  0  0  0
   -4.7444   24.0588  -32.6142 H   0  0  0  0  0  0  0  0  0  0  0  0
   -4.9025   22.1067  -34.1450 H   0  0  0  0  0  0  0  0  0  0  0  0
   -4.2058   19.6927  -34.4579 H   0  0  0  0  0  0  0  0  0  0  0  0
   -4.1949   18.5923  -33.0295 H   0  0  0  0  0  0  0  0  0  0  0  0
   -7.0863   17.3149  -34.2571 H   0  0  0  0  0  0  0  0  0  0  0  0
   -5.4410   17.1392  -33.5039 H   0  0  0  0  0  0  0  0  0  0  0  0
   -7.2667   16.3886  -31.9929 H   0  0  0  0  0  0  0  0  0  0  0  0
   -6.3239   17.7807  -31.3349 H   0  0  0  0  0  0  0  0  0  0  0  0
   -9.1828   17.6312  -32.2262 H   0  0  0  0  0  0  0  0  0  0  0  0
   -8.3831   18.6334  -30.9307 H   0  0  0  0  0  0  0  0  0  0  0  0
   -8.6930   19.1880  -33.8040 H   0  0  0  0  0  0  0  0  0  0  0  0
   -9.8429   20.9392  -33.1789 H   0  0  0  0  0  0  0  0  0  0  0  0
   -9.9601   20.0232  -31.6125 H   0  0  0  0  0  0  0  0  0  0  0  0
   -8.6456   21.4908  -30.5157 H   0  0  0  0  0  0  0  0  0  0  0  0
   -7.4874   21.6231  -31.8824 H   0  0  0  0  0  0  0  0  0  0  0  0
   -8.9924   22.6037  -31.8824 H   0  0  0  0  0  0  0  0  0  0  0  0
   -7.0687   20.9923  -33.5519 H   0  0  0  0  0  0  0  0  0  0  0  0
   -6.5793   20.2029  -31.9989 H   0  0  0  0  0  0  0  0  0  0  0  0
   -4.2414   19.4300  -30.8154 H   0  0  0  0  0  0  0  0  0  0  0  0
   -4.0764   21.3738  -29.2769 H   0  0  0  0  0  0  0  0  0  0  0  0
  1  2  1  0
  2  3  1  0
  3  4  1  0
  4  5  1  0
  3  6  1  0
  6  7  2  0
  7  8  1  0
  8  9  2  0
  9 10  1  0
 10 11  1  0
 11 12  1  0
 12 13  1  0
 13 14  1  0
 14 15  1  0
 15 16  1  0
 16 17  1  0
 15 18  1  0
  9 19  1  0
 19 20  2  0
 20  6  1  0
 18 11  1  0
  1 21  1  0
  1 22  1  0
  1 23  1  0
  2 24  1  0
  2 25  1  0
  4 26  1  0
  4 27  1  0
  5 28  1  0
  5 29  1  0
  5 30  1  0
  7 31  1  0
  8 32  1  0
 10 33  1  0
 10 34  1  0
 12 35  1  0
 12 36  1  0
 13 37  1  0
 13 38  1  0
 14 39  1  0
 14 40  1  0
 15 41  1  6
 16 42  1  0
 16 43  1  0
 17 44  1  0
 17 45  1  0
 17 46  1  0
 18 47  1  0
 18 48  1  0
 19 49  1  0
 20 50  1  0
M  CHG  1  15   1
M  END
>  <UniqueID>  (3) 
3

>  <SMILES>  (3) 
CCN(CC)c1ccc(CN2CCC[N@@H+](CC)C2)cc1

>  <Energy>  (3) 
56.76304684547793

>  <Genealogy>  (3) 
CCN(CC)c1ccc(CN2CCC[NH+](CC)C2)cc1 (protonated)
CCN(CC)c1ccc(CN2CCC[N@@H+](CC)C2)cc1 (chirality)
CCN(CC)c1ccc(CN2CCC[N@@H+](CC)C2)cc1 (3D coordinates assigned)
CCN(CC)c1ccc(CN2CCC[N@@H+](CC)C2)cc1 (nonaromatic ring conformer: 56.76304684547793 kcal/mol)

>  <smiles>  (3) 
CCN1CCCN(Cc2ccc(N(CC)CC)cc2)C1

>  <score_type>  (3) 
oracle

>  <origin>  (3) 
adg

>  <m_score__min__energy>  (3) 
-6.3600000000000003

>  <m_primary>  (3) 
energy

$$$$
3:0
     RDKit          3D

 67 69  0  0  0  0  0  0  0  0999 V2000
   -0.3960   15.3540  -32.0670 C   0  0  0  0  0  0  0  0  0  0  0  0
   -0.9980   14.2430  -32.4990 C   0  0  0  0  0  0  0  0  0  0  0  0
   -1.9750   14.2650  -33.6410 C   0  0  0  0  0  0  0  0  0  0  0  0
   -3.0570   15.3030  -33.4260 C   0  0  0  0  0  0  0  0  0  0  0  0
   -4.1300   14.9810  -32.5770 C   0  0  0  0  0  0  0  0  0  0  0  0
   -5.1700   15.8850  -32.3620 C   0  0  0  0  0  0  0  0  0  0  0  0
   -5.1710   17.1350  -32.9980 C   0  0  0  0  0  0  0  0  0  0  0  0
   -6.2960   18.0830  -32.7890 C   0  0  0  0  0  0  0  0  0  0  0  0
   -7.2450   17.8540  -31.7780 C   0  0  0  0  0  0  0  0  0  0  0  0
   -8.3260   18.7240  -31.6080 C   0  0  0  0  0  0  0  0  0  0  0  0
   -8.4730   19.8440  -32.4390 C   0  0  0  0  0  0  0  0  0  0  0  0
   -9.6990   20.7140  -32.3340 C   0  0  0  0  0  0  0  0  0  0  0  0
   -9.4050   21.9670  -31.5060 C   0  0  0  0  0  0  0  0  0  0  0  0
   -8.1470   22.5810  -31.9620 N   0  0  0  0  0  0  0  0  0  0  0  0
   -7.1740   22.7640  -30.8750 C   0  0  0  0  0  0  0  0  0  0  0  0
   -5.9680   23.5900  -31.3600 C   0  0  2  0  0  0  0  0  0  0  0  0
   -6.2430   24.1380  -32.6240 O   0  0  0  0  0  0  0  0  0  0  0  0
   -4.7260   22.7130  -31.4390 C   0  0  0  0  0  0  0  0  0  0  0  0
   -4.7720   21.5780  -32.2750 C   0  0  0  0  0  0  0  0  0  0  0  0
   -3.6740   20.7280  -32.3900 C   0  0  0  0  0  0  0  0  0  0  0  0
   -2.5110   20.9890  -31.6730 C   0  0  0  0  0  0  0  0  0  0  0  0
   -2.4430   22.0970  -30.8280 C   0  0  0  0  0  0  0  0  0  0  0  0
   -3.5450   22.9680  -30.6820 C   0  0  0  0  0  0  0  0  0  0  0  0
   -3.4290   24.1590  -29.7470 C   0  0  0  0  0  0  0  0  0  0  0  0
   -2.1110   24.3370  -29.3690 F   0  0  0  0  0  0  0  0  0  0  0  0
   -4.2090   23.9440  -28.6250 F   0  0  0  0  0  0  0  0  0  0  0  0
   -3.8570   25.3310  -30.3480 F   0  0  0  0  0  0  0  0  0  0  0  0
   -7.5210   20.0830  -33.4430 C   0  0  0  0  0  0  0  0  0  0  0  0
   -6.4420   19.2130  -33.6150 C   0  0  0  0  0  0  0  0  0  0  0  0
   -4.1040   17.4650  -33.8500 C   0  0  0  0  0  0  0  0  0  0  0  0
   -3.0420   16.5700  -34.0670 C   0  0  0  0  0  0  0  0  0  0  0  0
   -1.9680   16.9660  -35.0560 C   0  0  0  0  0  0  0  0  0  0  0  0
   -0.8890   17.6860  -34.3790 N   0  0  0  0  0  0  0  0  0  0  0  0
   -0.9580   19.0980  -34.1510 C   0  0  0  0  0  0  0  0  0  0  0  0
    0.1460   19.7870  -33.4160 C   0  0  0  0  0  0  0  0  0  0  0  0
   -1.9440   19.7650  -34.5670 O   0  0  0  0  0  0  0  0  0  0  0  0
    0.3143   15.3042  -31.2286 H   0  0  0  0  0  0  0  0  0  0  0  0
   -0.6104   16.3189  -32.5496 H   0  0  0  0  0  0  0  0  0  0  0  0
   -0.7728   13.2859  -32.0058 H   0  0  0  0  0  0  0  0  0  0  0  0
   -1.4341   14.4996  -34.5697 H   0  0  0  0  0  0  0  0  0  0  0  0
   -2.4530   13.2764  -33.7053 H   0  0  0  0  0  0  0  0  0  0  0  0
   -4.1497   14.0023  -32.0752 H   0  0  0  0  0  0  0  0  0  0  0  0
   -5.9964   15.6154  -31.6880 H   0  0  0  0  0  0  0  0  0  0  0  0
   -7.1363   16.9830  -31.1150 H   0  0  0  0  0  0  0  0  0  0  0  0
   -9.0657   18.5289  -30.8176 H   0  0  0  0  0  0  0  0  0  0  0  0
  -10.0157   21.0147  -33.3436 H   0  0  0  0  0  0  0  0  0  0  0  0
  -10.4967   20.1418  -31.8378 H   0  0  0  0  0  0  0  0  0  0  0  0
  -10.2279   22.6867  -31.6276 H   0  0  0  0  0  0  0  0  0  0  0  0
   -9.3104   21.6885  -30.4460 H   0  0  0  0  0  0  0  0  0  0  0  0
   -8.3710   23.5190  -32.3700 H   0  0  0  0  0  0  0  0  0  0  0  0
   -7.6598   23.2897  -30.0398 H   0  0  0  0  0  0  0  0  0  0  0  0
   -6.8183   21.7759  -30.5475 H   0  0  0  0  0  0  0  0  0  0  0  0
   -5.7844   24.4036  -30.6428 H   0  0  0  0  0  0  0  0  0  0  0  0
   -6.5560   23.3910  -33.1970 H   0  0  0  0  0  0  0  0  0  0  0  0
   -5.6878   21.3608  -32.8443 H   0  0  0  0  0  0  0  0  0  0  0  0
   -3.7270   19.8489  -33.0490 H   0  0  0  0  0  0  0  0  0  0  0  0
   -1.6432   20.3204  -31.7724 H   0  0  0  0  0  0  0  0  0  0  0  0
   -1.5176   22.2951  -30.2673 H   0  0  0  0  0  0  0  0  0  0  0  0
   -7.6256   20.9606  -34.0979 H   0  0  0  0  0  0  0  0  0  0  0  0
   -5.7003   19.4127  -34.4024 H   0  0  0  0  0  0  0  0  0  0  0  0
   -4.0994   18.4414  -34.3565 H   0  0  0  0  0  0  0  0  0  0  0  0
   -1.5587   16.0606  -35.5279 H   0  0  0  0  0  0  0  0  0  0  0  0
   -2.4111   17.6235  -35.8184 H   0  0  0  0  0  0  0  0  0  0  0  0
   -0.0490   17.1660  -34.0360 H   0  0  0  0  0  0  0  0  0  0  0  0
   -0.0158   19.6860  -32.3327 H   0  0  0  0  0  0  0  0  0  0  0  0
    1.1087   19.3291  -33.6872 H   0  0  0  0  0  0  0  0  0  0  0  0
    0.1577   20.8530  -33.6872 H   0  0  0  0  0  0  0  0  0  0  0  0
  1  2  2  0
  2  3  1  0
  3  4  1  0
  4  5  2  0
  5  6  1  0
  6  7  2  0
  7  8  1  0
  8  9  2  0
  9 10  1  0
 10 11  2  0
 11 12  1  0
 12 13  1  0
 13 14  1  0
 14 15  1  0
 15 16  1  0
 16 17  1  0
 16 18  1  0
 18 19  2  0
 19 20  1  0
 20 21  2  0
 21 22  1  0
 22 23  2  0
 23 24  1  0
 24 25  1  0
 24 26  1  0
 24 27  1  0
 11 28  1  0
 28 29  2  0
  7 30  1  0
 30 31  2  0
 31 32  1  0
 32 33  1  0
 33 34  1  0
 34 35  1  0
 34 36  2  0
 31  4  1  0
 29  8  1  0
 23 18  1  0
  1 37  1  0
  1 38  1  0
  2 39  1  0
  3 40  1  0
  3 41  1  0
  5 42  1  0
  6 43  1  0
  9 44  1  0
 10 45  1  0
 12 46  1  0
 12 47  1  0
 13 48  1  0
 13 49  1  0
 14 50  1  0
 15 51  1  0
 15 52  1  0
 16 53  1  1
 17 54  1  0
 19 55  1  0
 20 56  1  0
 21 57  1  0
 22 58  1  0
 28 59  1  0
 29 60  1  0
 30 61  1  0
 32 62  1  0
 32 63  1  0
 33 64  1  0
 35 65  1  0
 35 66  1  0
 35 67  1  0
M  END
>  <UniqueID>  (4) 
4

>  <SMILES>  (4) 
C=CCc1ccc(-c2ccc(CCNC[C@H](O)c3ccccc3C(F)(F)F)cc2)cc1CNC(C)=O

>  <Energy>  (4) 
67.0753494871624

>  <Genealogy>  (4) 
C=CCc1ccc(-c2ccc(CCNC[C@H](O)c3ccccc3C(F)(F)F)cc2)cc1CNC(C)=O (chirality)
C=CCc1ccc(-c2ccc(CCNC[C@H](O)c3ccccc3C(F)(F)F)cc2)cc1CNC(C)=O (3D coordinates assigned)
C=CCc1ccc(-c2ccc(CCNC[C@H](O)c3ccccc3C(F)(F)F)cc2)cc1CNC(C)=O (optimized conformer: 67.0753494871624 kcal/mol)

>  <smiles>  (4) 
C=CCc1ccc(-c2ccc(CCNCC(O)c3ccccc3C(F)(F)F)cc2)cc1CNC(C)=O

>  <score_type>  (4) 
oracle

>  <origin>  (4) 
adg

>  <m_score__min__energy>  (4) 
-9.0500000000000007

>  <m_primary>  (4) 
energy

$$$$
4:0
     RDKit          3D

 64 67  0  0  0  0  0  0  0  0999 V2000
   -6.0990   25.2670  -29.7360 C   0  0  0  0  0  0  0  0  0  0  0  0
   -5.4910   24.7890  -31.0510 C   0  0  0  0  0  0  0  0  0  0  0  0
   -4.1740   24.1550  -30.8080 N   0  0  0  0  0  0  0  0  0  0  0  0
   -3.6340   24.5420  -29.4840 C   0  0  0  0  0  0  0  0  0  0  0  0
   -2.3000   23.8450  -29.2350 C   0  0  0  0  0  0  0  0  0  0  0  0
   -4.2570   22.6820  -30.9410 C   0  0  0  0  0  0  0  0  0  0  0  0
   -3.5940   22.2340  -32.2530 C   0  0  0  0  0  0  0  0  0  0  0  0
   -4.5680   22.0500  -33.3460 N   0  0  0  0  0  0  0  0  0  0  0  0
   -5.5030   20.9660  -33.0670 C   0  0  0  0  0  0  0  0  0  0  0  0
   -6.8300   21.2250  -32.6120 C   0  0  0  0  0  0  0  0  0  0  0  0
   -7.3460   22.5400  -32.4620 C   0  0  0  0  0  0  0  0  0  0  0  0
   -8.6380   22.7610  -31.9880 C   0  0  0  0  0  0  0  0  0  0  0  0
   -9.1040   24.0270  -31.8580 F   0  0  0  0  0  0  0  0  0  0  0  0
   -9.4490   21.6890  -31.6490 C   0  0  0  0  0  0  0  0  0  0  0  0
   -8.9720   20.3890  -31.7720 C   0  0  0  0  0  0  0  0  0  0  0  0
   -7.6610   20.1300  -32.2440 C   0  0  0  0  0  0  0  0  0  0  0  0
   -7.1920   18.8390  -32.3340 N   0  0  0  0  0  0  0  0  0  0  0  0
   -7.7850   17.8080  -31.4500 C   0  0  0  0  0  0  0  0  0  0  0  0
   -6.0490   18.5670  -33.0540 C   0  0  0  0  0  0  0  0  0  0  0  0
   -5.1100   19.6120  -33.2720 C   0  0  0  0  0  0  0  0  0  0  0  0
   -3.8000   19.2670  -33.6770 C   0  0  0  0  0  0  0  0  0  0  0  0
   -3.4530   17.9520  -33.9540 C   0  0  0  0  0  0  0  0  0  0  0  0
   -4.4220   16.9520  -33.9460 C   0  0  0  0  0  0  0  0  0  0  0  0
   -4.0880   15.6560  -34.3690 C   0  0  0  0  0  0  0  0  0  0  0  0
   -5.0780   14.6680  -34.4940 C   0  0  0  0  0  0  0  0  0  0  0  0
   -4.7780   13.3580  -34.9030 O   0  0  0  0  0  0  0  0  0  0  0  0
   -4.5420   12.2690  -34.0170 C   0  0  0  0  0  0  0  0  0  0  0  0
   -6.4130   14.9910  -34.2270 C   0  0  0  0  0  0  0  0  0  0  0  0
   -7.3880   13.9970  -34.4140 O   0  0  0  0  0  0  0  0  0  0  0  0
   -7.6020   13.2920  -35.6330 C   0  0  0  0  0  0  0  0  0  0  0  0
   -6.7430   16.2880  -33.7900 C   0  0  0  0  0  0  0  0  0  0  0  0
   -5.7460   17.2610  -33.5590 C   0  0  0  0  0  0  0  0  0  0  0  0
   -5.5424   24.8294  -28.8942 H   0  0  0  0  0  0  0  0  0  0  0  0
   -6.0414   26.3642  -29.6828 H   0  0  0  0  0  0  0  0  0  0  0  0
   -7.1516   24.9521  -29.6828 H   0  0  0  0  0  0  0  0  0  0  0  0
   -6.1659   24.0564  -31.5177 H   0  0  0  0  0  0  0  0  0  0  0  0
   -5.3545   25.6535  -31.7174 H   0  0  0  0  0  0  0  0  0  0  0  0
   -3.4854   25.6316  -29.4565 H   0  0  0  0  0  0  0  0  0  0  0  0
   -4.3478   24.2406  -28.7032 H   0  0  0  0  0  0  0  0  0  0  0  0
   -2.1294   23.7559  -28.1520 H   0  0  0  0  0  0  0  0  0  0  0  0
   -2.3203   22.8422  -29.6867 H   0  0  0  0  0  0  0  0  0  0  0  0
   -1.4884   24.4343  -29.6867 H   0  0  0  0  0  0  0  0  0  0  0  0
   -3.7404   22.2100  -30.0922 H   0  0  0  0  0  0  0  0  0  0  0  0
   -5.3145   22.3795  -30.9494 H   0  0  0  0  0  0  0  0  0  0  0  0
   -2.8630   22.9976  -32.5572 H   0  0  0  0  0  0  0  0  0  0  0  0
   -3.1122   21.2625  -32.0685 H   0  0  0  0  0  0  0  0  0  0  0  0
   -4.0540   21.8520  -34.2330 H   0  0  0  0  0  0  0  0  0  0  0  0
   -5.0330   22.9520  -33.5700 H   0  0  0  0  0  0  0  0  0  0  0  0
   -6.7136   23.4007  -32.7251 H   0  0  0  0  0  0  0  0  0  0  0  0
  -10.4707   21.8672  -31.2824 H   0  0  0  0  0  0  0  0  0  0  0  0
   -9.6238   19.5463  -31.4981 H   0  0  0  0  0  0  0  0  0  0  0  0
   -7.6233   18.0892  -30.3989 H   0  0  0  0  0  0  0  0  0  0  0  0
   -8.8645   17.7326  -31.6475 H   0  0  0  0  0  0  0  0  0  0  0  0
   -7.3074   16.8370  -31.6475 H   0  0  0  0  0  0  0  0  0  0  0  0
   -3.0405   20.0567  -33.7745 H   0  0  0  0  0  0  0  0  0  0  0  0
   -2.4070   17.6984  -34.1811 H   0  0  0  0  0  0  0  0  0  0  0  0
   -3.0416   15.4121  -34.6046 H   0  0  0  0  0  0  0  0  0  0  0  0
   -4.6179   12.6193  -32.9770 H   0  0  0  0  0  0  0  0  0  0  0  0
   -5.2906   11.4829  -34.1947 H   0  0  0  0  0  0  0  0  0  0  0  0
   -3.5351   11.8633  -34.1947 H   0  0  0  0  0  0  0  0  0  0  0  0
   -7.9149   12.2612  -35.4104 H   0  0  0  0  0  0  0  0  0  0  0  0
   -8.3876   13.7960  -36.2150 H   0  0  0  0  0  0  0  0  0  0  0  0
   -6.6688   13.2743  -36.2150 H   0  0  0  0  0  0  0  0  0  0  0  0
   -7.7989   16.5487  -33.6252 H   0  0  0  0  0  0  0  0  0  0  0  0
  1  2  1  0
  2  3  1  0
  3  4  1  0
  4  5  1  0
  3  6  1  0
  6  7  1  0
  7  8  1  0
  8  9  1  0
  9 10  2  0
 10 11  1  0
 11 12  2  0
 12 13  1  0
 12 14  1  0
 14 15  2  0
 15 16  1  0
 16 17  2  0
 17 18  1  0
 17 19  1  0
 19 20  2  0
 20 21  1  0
 21 22  2  0
 22 23  1  0
 23 24  2  0
 24 25  1  0
 25 26  1  0
 26 27  1  0
 25 28  2  0
 28 29  1  0
 29 30  1  0
 28 31  1  0
 31 32  2  0
 20  9  1  0
 32 23  1  0
 16 10  1  0
 32 19  1  0
  1 33  1  0
  1 34  1  0
  1 35  1  0
  2 36  1  0
  2 37  1  0
  4 38  1  0
  4 39  1  0
  5 40  1  0
  5 41  1  0
  5 42  1  0
  6 43  1  0
  6 44  1  0
  7 45  1  0
  7 46  1  0
  8 47  1  0
  8 48  1  0
 11 49  1  0
 14 50  1  0
 15 51  1  0
 18 52  1  0
 18 53  1  0
 18 54  1  0
 21 55  1  0
 22 56  1  0
 24 57  1  0
 27 58  1  0
 27 59  1  0
 27 60  1  0
 30 61  1  0
 30 62  1  0
 30 63  1  0
 31 64  1  0
M  CHG  2   8   1  17   1
M  END
>  <UniqueID>  (5) 
5

>  <SMILES>  (5) 
CCN(CC)CC[NH2+]c1c2cc(F)ccc2[n+](C)c2c1ccc1cc(OC)c(OC)cc12

>  <Energy>  (5) 
108.55906306007294

>  <Genealogy>  (5) 
CCN(CC)CC[NH2+]c1c2cc(F)ccc2[n+](C)c2c1ccc1cc(OC)c(OC)cc12 (protonated)
CCN(CC)CC[NH2+]c1c2cc(F)ccc2[n+](C)c2c1ccc1cc(OC)c(OC)cc12 (3D coordinates assigned)
CCN(CC)CC[NH2+]c1c2cc(F)ccc2[n+](C)c2c1ccc1cc(OC)c(OC)cc12 (optimized conformer: 108.55906306007294 kcal/mol)

>  <smiles>  (5) 
CCN(CC)CCNc1c2cc(F)ccc2[n+](C)c2c1ccc1cc(OC)c(OC)cc12

>  <score_type>  (5) 
oracle

>  <origin>  (5) 
adg

>  <m_score__min__energy>  (5) 
-8.1600000000000001

>  <m_primary>  (5) 
energy

$$$$
5:0
     RDKit          3D

 55 57  0  0  0  0  0  0  0  0999 V2000
   -9.0620   22.3670  -31.5850 C   0  0  0  0  0  0  0  0  0  0  0  0
   -8.2130   23.4080  -32.3190 C   0  0  0  0  0  0  0  0  0  0  0  0
   -6.8740   23.5620  -31.7280 N   0  0  0  0  0  0  0  0  0  0  0  0
   -6.8570   24.4260  -30.5310 C   0  0  0  0  0  0  0  0  0  0  0  0
   -5.4750   25.0540  -30.2910 C   0  0  0  0  0  0  0  0  0  0  0  0
   -4.5170   24.4740  -31.1570 O   0  0  0  0  0  0  0  0  0  0  0  0
   -3.6350   23.6170  -30.4560 C   0  0  0  0  0  0  0  0  0  0  0  0
   -3.9790   22.1420  -30.7130 C   0  0  0  0  0  0  0  0  0  0  0  0
   -4.9160   21.9570  -31.8380 N   0  0  0  0  0  0  0  0  0  0  0  0
   -4.6350   20.7410  -32.5930 C   0  0  0  0  0  0  0  0  0  0  0  0
   -5.6730   19.8070  -32.8450 C   0  0  0  0  0  0  0  0  0  0  0  0
   -5.4010   18.6260  -33.5620 C   0  0  0  0  0  0  0  0  0  0  0  0
   -4.1830   18.4420  -34.1720 N   0  0  0  0  0  0  0  0  0  0  0  0
   -4.0290   17.3800  -35.1900 C   0  0  0  0  0  0  0  0  0  0  0  0
   -3.1180   19.2570  -33.8470 C   0  0  0  0  0  0  0  0  0  0  0  0
   -1.8000   18.9330  -34.2580 C   0  0  0  0  0  0  0  0  0  0  0  0
   -0.7280   19.7740  -33.9780 C   0  0  0  0  0  0  0  0  0  0  0  0
   -0.9350   20.9490  -33.2750 C   0  0  0  0  0  0  0  0  0  0  0  0
   -2.2080   21.2810  -32.8220 C   0  0  0  0  0  0  0  0  0  0  0  0
   -3.3240   20.4400  -33.0730 C   0  0  0  0  0  0  0  0  0  0  0  0
   -6.5150   17.5920  -33.6560 C   0  0  0  0  0  0  0  0  0  0  0  0
   -7.2530   17.4660  -32.3160 C   0  0  0  0  0  0  0  0  0  0  0  0
   -7.7250   18.8180  -31.7430 C   0  0  0  0  0  0  0  0  0  0  0  0
   -7.1290   20.0390  -32.4600 C   0  0  0  0  0  0  0  0  0  0  0  0
   -8.9511   22.5030  -30.4991 H   0  0  0  0  0  0  0  0  0  0  0  0
  -10.1185   22.4926  -31.8642 H   0  0  0  0  0  0  0  0  0  0  0  0
   -8.7265   21.3573  -31.8642 H   0  0  0  0  0  0  0  0  0  0  0  0
   -8.1018   23.0962  -33.3680 H   0  0  0  0  0  0  0  0  0  0  0  0
   -8.7277   24.3767  -32.2371 H   0  0  0  0  0  0  0  0  0  0  0  0
   -6.1970   23.8900  -32.4570 H   0  0  0  0  0  0  0  0  0  0  0  0
   -7.5943   25.2314  -30.6644 H   0  0  0  0  0  0  0  0  0  0  0  0
   -7.1014   23.8016  -29.6590 H   0  0  0  0  0  0  0  0  0  0  0  0
   -5.5295   26.1359  -30.4820 H   0  0  0  0  0  0  0  0  0  0  0  0
   -5.1739   24.8711  -29.2489 H   0  0  0  0  0  0  0  0  0  0  0  0
   -2.6049   23.8096  -30.7905 H   0  0  0  0  0  0  0  0  0  0  0  0
   -3.7346   23.8172  -29.3790 H   0  0  0  0  0  0  0  0  0  0  0  0
   -3.0492   21.5991  -30.9381 H   0  0  0  0  0  0  0  0  0  0  0  0
   -4.4705   21.7558  -29.8079 H   0  0  0  0  0  0  0  0  0  0  0  0
   -4.8560   22.7800  -32.4770 H   0  0  0  0  0  0  0  0  0  0  0  0
   -5.8980   22.0240  -31.5060 H   0  0  0  0  0  0  0  0  0  0  0  0
   -3.8884   16.4104  -34.6899 H   0  0  0  0  0  0  0  0  0  0  0  0
   -4.9309   17.3410  -35.8186 H   0  0  0  0  0  0  0  0  0  0  0  0
   -3.1532   17.5988  -35.8186 H   0  0  0  0  0  0  0  0  0  0  0  0
   -1.6218   17.9979  -34.8093 H   0  0  0  0  0  0  0  0  0  0  0  0
    0.2842   19.5057  -34.3150 H   0  0  0  0  0  0  0  0  0  0  0  0
   -0.0892   21.6229  -33.0738 H   0  0  0  0  0  0  0  0  0  0  0  0
   -2.3527   22.2142  -32.2578 H   0  0  0  0  0  0  0  0  0  0  0  0
   -7.2291   17.9003  -34.4339 H   0  0  0  0  0  0  0  0  0  0  0  0
   -6.0723   16.6173  -33.9089 H   0  0  0  0  0  0  0  0  0  0  0  0
   -8.1339   16.8237  -32.4629 H   0  0  0  0  0  0  0  0  0  0  0  0
   -6.5411   17.0398  -31.5938 H   0  0  0  0  0  0  0  0  0  0  0  0
   -8.8206   18.8669  -31.8280 H   0  0  0  0  0  0  0  0  0  0  0  0
   -7.3806   18.8606  -30.6992 H   0  0  0  0  0  0  0  0  0  0  0  0
   -7.7121   20.2378  -33.3713 H   0  0  0  0  0  0  0  0  0  0  0  0
   -7.1710   20.8966  -31.7724 H   0  0  0  0  0  0  0  0  0  0  0  0
  1  2  1  0
  2  3  1  0
  3  4  1  0
  4  5  1  0
  5  6  1  0
  6  7  1  0
  7  8  1  0
  8  9  1  0
  9 10  1  0
 10 11  2  0
 11 12  1  0
 12 13  2  0
 13 14  1  0
 13 15  1  0
 15 16  2  0
 16 17  1  0
 17 18  2  0
 18 19  1  0
 19 20  2  0
 12 21  1  0
 21 22  1  0
 22 23  1  0
 23 24  1  0
 20 10  1  0
 24 11  1  0
 20 15  1  0
  1 25  1  0
  1 26  1  0
  1 27  1  0
  2 28  1  0
  2 29  1  0
  3 30  1  0
  4 31  1  0
  4 32  1  0
  5 33  1  0
  5 34  1  0
  7 35  1  0
  7 36  1  0
  8 37  1  0
  8 38  1  0
  9 39  1  0
  9 40  1  0
 14 41  1  0
 14 42  1  0
 14 43  1  0
 16 44  1  0
 17 45  1  0
 18 46  1  0
 19 47  1  0
 21 48  1  0
 21 49  1  0
 22 50  1  0
 22 51  1  0
 23 52  1  0
 23 53  1  0
 24 54  1  0
 24 55  1  0
M  CHG  2   9   1  13   1
M  END
>  <UniqueID>  (6) 
6

>  <SMILES>  (6) 
CCNCCOCC[NH2+]c1c2c([n+](C)c3ccccc13)CCCC2

>  <Energy>  (6) 
85.3779117990399

>  <Genealogy>  (6) 
CCNCCOCC[NH2+]c1c2c([n+](C)c3ccccc13)CCCC2 (protonated)
CCNCCOCC[NH2+]c1c2c([n+](C)c3ccccc13)CCCC2 (3D coordinates assigned)
CCNCCOCC[NH2+]c1c2c([n+](C)c3ccccc13)CCCC2 (nonaromatic ring conformer: 85.3779117990399 kcal/mol)

>  <smiles>  (6) 
CCNCCOCCNc1c2c([n+](C)c3ccccc13)CCCC2

>  <score_type>  (6) 
oracle

>  <origin>  (6) 
adg

>  <m_score__min__energy>  (6) 
-8.5099999999999998

>  <m_primary>  (6) 
energy

$$$$
6:0
     RDKit          3D

 44 46  0  0  0  0  0  0  0  0999 V2000
   -5.3800   18.5630  -34.6200 C   0  0  0  0  0  0  0  0  0  0  0  0
   -5.2000   17.1660  -34.2330 N   0  0  0  0  0  0  0  0  0  0  0  0
   -4.3350   16.3000  -34.7960 C   0  0  0  0  0  0  0  0  0  0  0  0
   -4.4200   15.0740  -34.1670 C   0  0  0  0  0  0  0  0  0  0  0  0
   -5.3760   15.2000  -33.1780 C   0  0  0  0  0  0  0  0  0  0  0  0
   -5.8350   16.5020  -33.2410 C   0  0  0  0  0  0  0  0  0  0  0  0
   -6.9140   17.0750  -32.3560 C   0  0  0  0  0  0  0  0  0  0  0  0
   -7.9030   17.8500  -33.1220 N   0  0  0  0  0  0  0  0  0  0  0  0
   -8.7270   18.6960  -32.2500 C   0  0  0  0  0  0  0  0  0  0  0  0
   -7.9350   19.8980  -31.8170 C   0  0  0  0  0  0  0  0  0  0  0  0
   -6.5980   20.0420  -32.2050 C   0  0  0  0  0  0  0  0  0  0  0  0
   -5.8700   21.1770  -31.8350 C   0  0  0  0  0  0  0  0  0  0  0  0
   -6.4630   22.2080  -31.0680 C   0  0  0  0  0  0  0  0  0  0  0  0
   -5.7040   23.3940  -30.6760 N   0  0  0  0  0  0  0  0  0  0  0  0
   -4.3690   23.2280  -30.0610 C   0  0  0  0  0  0  0  0  0  0  0  0
   -3.7260   24.5470  -29.6270 C   0  0  0  0  0  0  0  0  0  0  0  0
   -3.9920   25.5700  -30.5560 O   0  0  0  0  0  0  0  0  0  0  0  0
   -5.3630   25.8820  -30.4880 C   0  0  0  0  0  0  0  0  0  0  0  0
   -6.2160   24.7340  -31.0340 C   0  0  0  0  0  0  0  0  0  0  0  0
   -7.8230   22.0540  -30.7070 C   0  0  0  0  0  0  0  0  0  0  0  0
   -8.5460   20.9180  -31.0800 C   0  0  0  0  0  0  0  0  0  0  0  0
   -5.4603   19.1862  -33.7171 H   0  0  0  0  0  0  0  0  0  0  0  0
   -4.5168   18.8922  -35.2172 H   0  0  0  0  0  0  0  0  0  0  0  0
   -6.2984   18.6626  -35.2172 H   0  0  0  0  0  0  0  0  0  0  0  0
   -3.6609   16.5350  -35.6329 H   0  0  0  0  0  0  0  0  0  0  0  0
   -3.8388   14.1714  -34.4070 H   0  0  0  0  0  0  0  0  0  0  0  0
   -5.7067   14.4183  -32.4783 H   0  0  0  0  0  0  0  0  0  0  0  0
   -7.4295   16.2488  -31.8445 H   0  0  0  0  0  0  0  0  0  0  0  0
   -6.4360   17.7539  -31.6345 H   0  0  0  0  0  0  0  0  0  0  0  0
   -7.4030   18.4570  -33.8150 H   0  0  0  0  0  0  0  0  0  0  0  0
   -9.6214   19.0255  -32.7990 H   0  0  0  0  0  0  0  0  0  0  0  0
   -9.0300   18.1199  -31.3632 H   0  0  0  0  0  0  0  0  0  0  0  0
   -6.1163   19.2563  -32.8056 H   0  0  0  0  0  0  0  0  0  0  0  0
   -4.8188   21.2701  -32.1453 H   0  0  0  0  0  0  0  0  0  0  0  0
   -4.4717   22.5834  -29.1756 H   0  0  0  0  0  0  0  0  0  0  0  0
   -3.7140   22.7864  -30.8264 H   0  0  0  0  0  0  0  0  0  0  0  0
   -4.1303   24.8382  -28.6463 H   0  0  0  0  0  0  0  0  0  0  0  0
   -2.6371   24.4024  -29.5688 H   0  0  0  0  0  0  0  0  0  0  0  0
   -5.6380   26.0668  -29.4391 H   0  0  0  0  0  0  0  0  0  0  0  0
   -5.5488   26.7774  -31.0993 H   0  0  0  0  0  0  0  0  0  0  0  0
   -7.2347   24.8359  -30.6318 H   0  0  0  0  0  0  0  0  0  0  0  0
   -6.1903   24.8066  -32.1313 H   0  0  0  0  0  0  0  0  0  0  0  0
   -8.3195   22.8426  -30.1225 H   0  0  0  0  0  0  0  0  0  0  0  0
   -9.6035   20.8251  -30.7920 H   0  0  0  0  0  0  0  0  0  0  0  0
  1  2  1  0
  2  3  1  0
  3  4  2  0
  4  5  1  0
  5  6  2  0
  6  7  1  0
  7  8  1  0
  8  9  1  0
  9 10  1  0
 10 11  2  0
 11 12  1  0
 12 13  2  0
 13 14  1  0
 14 15  1  0
 15 16  1  0
 16 17  1  0
 17 18  1  0
 18 19  1  0
 13 20  1  0
 20 21  2  0
  6  2  1  0
 21 10  1  0
 19 14  1  0
  1 22  1  0
  1 23  1  0
  1 24  1  0
  3 25  1  0
  4 26  1  0
  5 27  1  0
  7 28  1  0
  7 29  1  0
  8 30  1  0
  9 31  1  0
  9 32  1  0
 11 33  1  0
 12 34  1  0
 15 35  1  0
 15 36  1  0
 16 37  1  0
 16 38  1  0
 18 39  1  0
 18 40  1  0
 19 41  1  0
 19 42  1  0
 20 43  1  0
 21 44  1  0
M  END
>  <UniqueID>  (7) 
7

>  <SMILES>  (7) 
Cn1cccc1CNCc1ccc(N2CCOCC2)cc1

>  <Energy>  (7) 
76.23047259704583

>  <Genealogy>  (7) 
Cn1cccc1CNCc1ccc(N2CCOCC2)cc1 (3D coordinates assigned)
Cn1cccc1CNCc1ccc(N2CCOCC2)cc1 (nonaromatic ring conformer: 76.23047259704583 kcal/mol)

>  <smiles>  (7) 
Cn1cccc1CNCc1ccc(N2CCOCC2)cc1

>  <score_type>  (7) 
oracle

>  <origin>  (7) 
adg

>  <m_score__min__energy>  (7) 
-7.6399999999999997

>  <m_primary>  (7) 
energy

$$$$
7:0
     RDKit          3D

 43 45  0  0  0  0  0  0  0  0999 V2000
   -3.8070   21.0080  -31.9250 C   0  0  0  0  0  0  0  0  0  0  0  0
   -5.0940   21.6650  -31.7020 N   0  0  0  0  0  0  0  0  0  0  0  0
   -6.3340   21.1900  -31.9990 C   0  0  0  0  0  0  0  0  0  0  0  0
   -7.3030   22.1020  -31.6330 C   0  0  0  0  0  0  0  0  0  0  0  0
   -6.6390   23.1750  -31.0830 C   0  0  0  0  0  0  0  0  0  0  0  0
   -7.1130   24.3800  -30.5680 C   0  0  0  0  0  0  0  0  0  0  0  0
   -6.1700   25.2910  -30.0610 C   0  0  0  0  0  0  0  0  0  0  0  0
   -4.7920   24.9830  -30.0840 C   0  0  0  0  0  0  0  0  0  0  0  0
   -4.3420   23.7610  -30.6200 C   0  0  0  0  0  0  0  0  0  0  0  0
   -5.2980   22.8720  -31.1210 C   0  0  0  0  0  0  0  0  0  0  0  0
   -8.7490   21.9500  -31.9620 C   0  0  0  0  0  0  0  0  0  0  0  0
   -9.0650   20.4650  -32.1780 C   0  0  0  0  0  0  0  0  0  0  0  0
   -8.0970   19.8260  -33.0930 N   0  0  0  0  0  0  0  0  0  0  0  0
   -6.6760   19.8710  -32.6550 C   0  0  2  0  0  0  0  0  0  0  0  0
   -6.2620   18.6390  -31.8030 C   0  0  0  0  0  0  0  0  0  0  0  0
   -5.7920   17.4070  -32.6090 C   0  0  0  0  0  0  0  0  0  0  0  0
   -6.3960   17.3540  -33.9620 N   0  0  0  0  0  0  0  0  0  0  0  0
   -5.4090   17.7870  -34.9670 C   0  0  0  0  0  0  0  0  0  0  0  0
   -6.8760   15.9980  -34.2910 C   0  0  0  0  0  0  0  0  0  0  0  0
   -3.3434   20.7713  -30.9560 H   0  0  0  0  0  0  0  0  0  0  0  0
   -3.9630   20.0793  -32.4934 H   0  0  0  0  0  0  0  0  0  0  0  0
   -3.1463   21.6791  -32.4934 H   0  0  0  0  0  0  0  0  0  0  0  0
   -8.1885   24.6105  -30.5585 H   0  0  0  0  0  0  0  0  0  0  0  0
   -6.5080   26.2508  -29.6433 H   0  0  0  0  0  0  0  0  0  0  0  0
   -4.0648   25.7029  -29.6803 H   0  0  0  0  0  0  0  0  0  0  0  0
   -3.2705   23.5132  -30.6439 H   0  0  0  0  0  0  0  0  0  0  0  0
   -9.3577   22.3385  -31.1322 H   0  0  0  0  0  0  0  0  0  0  0  0
   -8.9802   22.5135  -32.8780 H   0  0  0  0  0  0  0  0  0  0  0  0
   -9.0316   19.9489  -31.2072 H   0  0  0  0  0  0  0  0  0  0  0  0
  -10.0646   20.3903  -32.6310 H   0  0  0  0  0  0  0  0  0  0  0  0
   -8.3940   18.8360  -33.2560 H   0  0  0  0  0  0  0  0  0  0  0  0
   -6.0630   19.8058  -33.5660 H   0  0  0  0  0  0  0  0  0  0  0  0
   -5.4396   18.9452  -31.1398 H   0  0  0  0  0  0  0  0  0  0  0  0
   -7.1677   18.3230  -31.2646 H   0  0  0  0  0  0  0  0  0  0  0  0
   -4.6976   17.4484  -32.7119 H   0  0  0  0  0  0  0  0  0  0  0  0
   -6.1112   16.5069  -32.0632 H   0  0  0  0  0  0  0  0  0  0  0  0
   -7.2070   18.0170  -34.0080 H   0  0  0  0  0  0  0  0  0  0  0  0
   -4.5157   18.1789  -34.4585 H   0  0  0  0  0  0  0  0  0  0  0  0
   -5.1264   16.9302  -35.5963 H   0  0  0  0  0  0  0  0  0  0  0  0
   -5.8481   18.5751  -35.5963 H   0  0  0  0  0  0  0  0  0  0  0  0
   -7.0724   15.4431  -33.3618 H   0  0  0  0  0  0  0  0  0  0  0  0
   -7.8034   16.0697  -34.8782 H   0  0  0  0  0  0  0  0  0  0  0  0
   -6.1100   15.4703  -34.8782 H   0  0  0  0  0  0  0  0  0  0  0  0
  1  2  1  0
  2  3  1  0
  3  4  2  0
  4  5  1  0
  5  6  2  0
  6  7  1  0
  7  8  2  0
  8  9  1  0
  9 10  2  0
  4 11  1  0
 11 12  1  0
 12 13  1  0
 13 14  1  0
 14 15  1  0
 15 16  1  0
 16 17  1  0
 17 18  1  0
 17 19  1  0
 10  2  1  0
 14  3  1  0
 10  5  1  0
  1 20  1  0
  1 21  1  0
  1 22  1  0
  6 23  1  0
  7 24  1  0
  8 25  1  0
  9 26  1  0
 11 27  1  0
 11 28  1  0
 12 29  1  0
 12 30  1  0
 13 31  1  0
 14 32  1  6
 15 33  1  0
 15 34  1  0
 16 35  1  0
 16 36  1  0
 17 37  1  0
 18 38  1  0
 18 39  1  0
 18 40  1  0
 19 41  1  0
 19 42  1  0
 19 43  1  0
M  CHG  1  17   1
M  END
>  <UniqueID>  (8) 
8

>  <SMILES>  (8) 
Cn1c2c(c3ccccc31)CCN[C@@H]2CC[NH+](C)C

>  <Energy>  (8) 
84.22421935402316

>  <Genealogy>  (8) 
Cn1c2c(c3ccccc31)CCNC2CC[NH+](C)C (protonated)
Cn1c2c(c3ccccc31)CCN[C@@H]2CC[NH+](C)C (chirality)
Cn1c2c(c3ccccc31)CCN[C@@H]2CC[NH+](C)C (3D coordinates assigned)
Cn1c2c(c3ccccc31)CCN[C@@H]2CC[NH+](C)C (nonaromatic ring conformer: 84.22421935402316 kcal/mol)

>  <smiles>  (8) 
CN(C)CCC1NCCc2c1n(C)c1ccccc21

>  <score_type>  (8) 
oracle

>  <origin>  (8) 
adg

>  <m_score__min__energy>  (8) 
-7.2199999999999998

>  <m_primary>  (8) 
energy

$$$$
8:0
     RDKit          3D

 51 53  0  0  0  0  0  0  0  0999 V2000
   -0.6510   26.0710  -24.1170 C   0  0  0  0  0  0  0  0  0  0  0  0
   -1.2330   25.1890  -25.2190 C   0  0  0  0  0  0  0  0  0  0  0  0
   -0.4070   23.9740  -25.4030 N   0  0  0  0  0  0  0  0  0  0  0  0
   -0.3750   23.1820  -24.1570 C   0  0  0  0  0  0  0  0  0  0  0  0
    0.9630   24.3390  -25.8360 C   0  0  0  0  0  0  0  0  0  0  0  0
    1.4700   23.4440  -26.9810 C   0  0  0  0  0  0  0  0  0  0  0  0
    0.3690   22.6650  -27.5700 N   0  0  0  0  0  0  0  0  0  0  0  0
   -0.2120   23.3170  -28.7600 C   0  0  0  0  0  0  0  0  0  0  0  0
   -1.7500   23.4590  -28.6790 C   0  0  1  0  0  0  0  0  0  0  0  0
   -2.2220   22.8040  -27.5300 O   0  0  0  0  0  0  0  0  0  0  0  0
   -2.2350   24.9210  -28.6430 C   0  0  0  0  0  0  0  0  0  0  0  0
   -3.1140   25.2150  -29.7340 O   0  0  0  0  0  0  0  0  0  0  0  0
   -4.2270   24.4610  -30.1400 C   0  0  0  0  0  0  0  0  0  0  0  0
   -5.5120   24.9670  -29.8220 C   0  0  0  0  0  0  0  0  0  0  0  0
   -6.6790   24.2810  -30.2030 C   0  0  0  0  0  0  0  0  0  0  0  0
   -6.5250   23.0880  -30.8990 C   0  0  0  0  0  0  0  0  0  0  0  0
   -5.2850   22.5760  -31.2110 C   0  0  0  0  0  0  0  0  0  0  0  0
   -4.1140   23.2330  -30.8420 C   0  0  0  0  0  0  0  0  0  0  0  0
   -5.3900   21.4410  -31.8750 O   0  0  0  0  0  0  0  0  0  0  0  0
   -6.6810   21.2010  -32.0030 C   0  0  0  0  0  0  0  0  0  0  0  0
   -7.2830   20.1150  -32.6340 C   0  0  0  0  0  0  0  0  0  0  0  0
   -8.6900   20.0610  -32.6510 C   0  0  0  0  0  0  0  0  0  0  0  0
   -9.4570   21.0830  -32.0450 C   0  0  0  0  0  0  0  0  0  0  0  0
   -8.8260   22.1710  -31.4130 C   0  0  0  0  0  0  0  0  0  0  0  0
   -7.4330   22.1950  -31.4130 C   0  0  0  0  0  0  0  0  0  0  0  0
   -0.9235   25.6580  -23.1346 H   0  0  0  0  0  0  0  0  0  0  0  0
    0.4446   26.1005  -24.2112 H   0  0  0  0  0  0  0  0  0  0  0  0
   -1.0547   27.0899  -24.2112 H   0  0  0  0  0  0  0  0  0  0  0  0
   -2.2558   24.8927  -24.9429 H   0  0  0  0  0  0  0  0  0  0  0  0
   -1.2433   25.7575  -26.1607 H   0  0  0  0  0  0  0  0  0  0  0  0
   -0.4024   23.8597  -23.2910 H   0  0  0  0  0  0  0  0  0  0  0  0
   -1.2468   22.5119  -24.1260 H   0  0  0  0  0  0  0  0  0  0  0  0
    0.5480   22.5844  -24.1260 H   0  0  0  0  0  0  0  0  0  0  0  0
    0.9593   25.3842  -26.1788 H   0  0  0  0  0  0  0  0  0  0  0  0
    1.6361   24.2011  -24.9770 H   0  0  0  0  0  0  0  0  0  0  0  0
    1.9194   24.0771  -27.7602 H   0  0  0  0  0  0  0  0  0  0  0  0
    2.2154   22.7445  -26.5747 H   0  0  0  0  0  0  0  0  0  0  0  0
   -0.3610   22.5180  -26.8380 H   0  0  0  0  0  0  0  0  0  0  0  0
    0.2281   24.3201  -28.8604 H   0  0  0  0  0  0  0  0  0  0  0  0
    0.0151   22.6810  -29.6283 H   0  0  0  0  0  0  0  0  0  0  0  0
   -2.1498   23.0044  -29.5974 H   0  0  0  0  0  0  0  0  0  0  0  0
   -1.6180   23.0550  -26.7850 H   0  0  0  0  0  0  0  0  0  0  0  0
   -2.7695   25.0960  -27.6976 H   0  0  0  0  0  0  0  0  0  0  0  0
   -1.3551   25.5760  -28.7259 H   0  0  0  0  0  0  0  0  0  0  0  0
   -5.5981   25.9130  -29.2674 H   0  0  0  0  0  0  0  0  0  0  0  0
   -7.6770   24.6742  -29.9591 H   0  0  0  0  0  0  0  0  0  0  0  0
   -3.1282   22.8115  -31.0880 H   0  0  0  0  0  0  0  0  0  0  0  0
   -6.6788   19.3250  -33.1039 H   0  0  0  0  0  0  0  0  0  0  0  0
   -9.1971   19.2162  -33.1401 H   0  0  0  0  0  0  0  0  0  0  0  0
  -10.5554   21.0272  -32.0677 H   0  0  0  0  0  0  0  0  0  0  0  0
   -9.4107   22.9720  -30.9371 H   0  0  0  0  0  0  0  0  0  0  0  0
  1  2  1  0
  2  3  1  0
  3  4  1  0
  3  5  1  0
  5  6  1  0
  6  7  1  0
  7  8  1  0
  8  9  1  0
  9 10  1  0
  9 11  1  0
 11 12  1  0
 12 13  1  0
 13 14  2  0
 14 15  1  0
 15 16  2  0
 16 17  1  0
 17 18  2  0
 17 19  1  0
 19 20  1  0
 20 21  2  0
 21 22  1  0
 22 23  2  0
 23 24  1  0
 24 25  2  0
 18 13  1  0
 25 20  1  0
 25 16  1  0
  1 26  1  0
  1 27  1  0
  1 28  1  0
  2 29  1  0
  2 30  1  0
  4 31  1  0
  4 32  1  0
  4 33  1  0
  5 34  1  0
  5 35  1  0
  6 36  1  0
  6 37  1  0
  7 38  1  0
  8 39  1  0
  8 40  1  0
  9 41  1  6
 10 42  1  0
 11 43  1  0
 11 44  1  0
 14 45  1  0
 15 46  1  0
 18 47  1  0
 21 48  1  0
 22 49  1  0
 23 50  1  0
 24 51  1  0
M  END
>  <UniqueID>  (9) 
9

>  <SMILES>  (9) 
CCN(C)CCNC[C@@H](O)COc1ccc2c(c1)oc1ccccc12

>  <Energy>  (9) 
97.01677525320537

>  <Genealogy>  (9) 
CCN(C)CCNC[C@@H](O)COc1ccc2c(c1)oc1ccccc12 (chirality)
CCN(C)CCNC[C@@H](O)COc1ccc2c(c1)oc1ccccc12 (3D coordinates assigned)
CCN(C)CCNC[C@@H](O)COc1ccc2c(c1)oc1ccccc12 (optimized conformer: 97.01677525320537 kcal/mol)

>  <smiles>  (9) 
CCN(C)CCNCC(O)COc1ccc2c(c1)oc1ccccc12

>  <score_type>  (9) 
oracle

>  <origin>  (9) 
adg

>  <m_score__min__energy>  (9) 
-8.2699999999999996

>  <m_primary>  (9) 
energy

$$$$
9:0
     RDKit          3D

 53 55  0  0  0  0  0  0  0  0999 V2000
   -2.7450   25.3000  -26.3030 C   0  0  0  0  0  0  0  0  0  0  0  0
   -4.2230   24.9130  -26.4170 C   0  0  0  0  0  0  0  0  0  0  0  0
   -4.6160   24.5910  -27.8010 N   0  0  0  0  0  0  0  0  0  0  0  0
   -3.9480   23.3740  -28.3000 C   0  0  0  0  0  0  0  0  0  0  0  0
   -3.9280   23.3250  -29.8370 C   0  0  0  0  0  0  0  0  0  0  0  0
   -4.7870   24.4320  -30.4710 C   0  0  0  0  0  0  0  0  0  0  0  0
   -6.0290   23.8670  -31.1700 C   0  0  0  0  0  0  0  0  0  0  0  0
   -5.6690   23.1470  -32.3940 N   0  0  0  0  0  0  0  0  0  0  0  0
   -5.7540   21.7120  -32.4720 C   0  0  0  0  0  0  0  0  0  0  0  0
   -6.9920   21.0650  -32.2970 C   0  0  0  0  0  0  0  0  0  0  0  0
   -8.1530   21.8010  -31.9730 C   0  0  0  0  0  0  0  0  0  0  0  0
   -9.3910   21.1690  -31.8700 C   0  0  0  0  0  0  0  0  0  0  0  0
   -9.4930   19.8010  -32.0880 C   0  0  0  0  0  0  0  0  0  0  0  0
   -8.3530   19.0480  -32.3690 C   0  0  0  0  0  0  0  0  0  0  0  0
   -7.0710   19.6530  -32.4310 C   0  0  0  0  0  0  0  0  0  0  0  0
   -5.9230   18.9080  -32.6240 N   0  0  0  0  0  0  0  0  0  0  0  0
   -5.9660   17.4350  -32.4790 C   0  0  0  0  0  0  0  0  0  0  0  0
   -4.7270   19.5390  -32.9100 C   0  0  0  0  0  0  0  0  0  0  0  0
   -3.5920   18.8150  -33.3570 C   0  0  0  0  0  0  0  0  0  0  0  0
   -2.3740   19.4490  -33.5850 C   0  0  0  0  0  0  0  0  0  0  0  0
   -2.2410   20.8230  -33.3760 C   0  0  0  0  0  0  0  0  0  0  0  0
   -0.9310   21.5040  -33.6430 C   0  0  0  0  0  0  0  0  0  0  0  0
   -3.3630   21.5700  -33.0020 C   0  0  0  0  0  0  0  0  0  0  0  0
   -4.6130   20.9500  -32.7850 C   0  0  0  0  0  0  0  0  0  0  0  0
   -2.4659   25.3731  -25.2415 H   0  0  0  0  0  0  0  0  0  0  0  0
   -2.1264   24.5335  -26.7928 H   0  0  0  0  0  0  0  0  0  0  0  0
   -2.5814   26.2712  -26.7928 H   0  0  0  0  0  0  0  0  0  0  0  0
   -4.4072   24.0326  -25.7838 H   0  0  0  0  0  0  0  0  0  0  0  0
   -4.8213   25.7768  -26.0915 H   0  0  0  0  0  0  0  0  0  0  0  0
   -5.6500   24.4390  -27.8060 H   0  0  0  0  0  0  0  0  0  0  0  0
   -4.4010   25.3990  -28.4300 H   0  0  0  0  0  0  0  0  0  0  0  0
   -2.9124   23.3585  -27.9294 H   0  0  0  0  0  0  0  0  0  0  0  0
   -4.5101   22.5011  -27.9366 H   0  0  0  0  0  0  0  0  0  0  0  0
   -2.8898   23.4433  -30.1806 H   0  0  0  0  0  0  0  0  0  0  0  0
   -4.3477   22.3565  -30.1468 H   0  0  0  0  0  0  0  0  0  0  0  0
   -5.1093   25.1271  -29.6817 H   0  0  0  0  0  0  0  0  0  0  0  0
   -4.1753   24.9447  -31.2279 H   0  0  0  0  0  0  0  0  0  0  0  0
   -6.5423   23.1758  -30.4854 H   0  0  0  0  0  0  0  0  0  0  0  0
   -6.6869   24.7059  -31.4411 H   0  0  0  0  0  0  0  0  0  0  0  0
   -5.5560   23.6900  -33.2790 H   0  0  0  0  0  0  0  0  0  0  0  0
   -8.0794   22.8848  -31.8000 H   0  0  0  0  0  0  0  0  0  0  0  0
  -10.2874   21.7537  -31.6160 H   0  0  0  0  0  0  0  0  0  0  0  0
  -10.4760   19.3099  -32.0389 H   0  0  0  0  0  0  0  0  0  0  0  0
   -8.4495   17.9666  -32.5456 H   0  0  0  0  0  0  0  0  0  0  0  0
   -5.9737   17.1718  -31.4110 H   0  0  0  0  0  0  0  0  0  0  0  0
   -6.8759   17.0457  -32.9591 H   0  0  0  0  0  0  0  0  0  0  0  0
   -5.0804   16.9933  -32.9591 H   0  0  0  0  0  0  0  0  0  0  0  0
   -3.6760   17.7314  -33.5268 H   0  0  0  0  0  0  0  0  0  0  0  0
   -1.5101   18.8633  -33.9323 H   0  0  0  0  0  0  0  0  0  0  0  0
   -0.4471   21.7555  -32.6877 H   0  0  0  0  0  0  0  0  0  0  0  0
   -0.2785   20.8310  -34.2185 H   0  0  0  0  0  0  0  0  0  0  0  0
   -1.1070   22.4248  -34.2185 H   0  0  0  0  0  0  0  0  0  0  0  0
   -3.2700   22.6587  -32.8748 H   0  0  0  0  0  0  0  0  0  0  0  0
  1  2  1  0
  2  3  1  0
  3  4  1  0
  4  5  1  0
  5  6  1  0
  6  7  1  0
  7  8  1  0
  8  9  1  0
  9 10  2  0
 10 11  1  0
 11 12  2  0
 12 13  1  0
 13 14  2  0
 14 15  1  0
 15 16  2  0
 16 17  1  0
 16 18  1  0
 18 19  2  0
 19 20  1  0
 20 21  2  0
 21 22  1  0
 21 23  1  0
 23 24  2  0
 24  9  1  0
 15 10  1  0
 24 18  1  0
  1 25  1  0
  1 26  1  0
  1 27  1  0
  2 28  1  0
  2 29  1  0
  3 30  1  0
  3 31  1  0
  4 32  1  0
  4 33  1  0
  5 34  1  0
  5 35  1  0
  6 36  1  0
  6 37  1  0
  7 38  1  0
  7 39  1  0
  8 40  1  0
 11 41  1  0
 12 42  1  0
 13 43  1  0
 14 44  1  0
 17 45  1  0
 17 46  1  0
 17 47  1  0
 19 48  1  0
 20 49  1  0
 22 50  1  0
 22 51  1  0
 22 52  1  0
 23 53  1  0
M  CHG  2   3   1  16   1
M  END
>  <UniqueID>  (10) 
10

>  <SMILES>  (10) 
CC[NH2+]CCCCNc1c2ccccc2[n+](C)c2ccc(C)cc12

>  <Energy>  (10) 
71.26463676773176

>  <Genealogy>  (10) 
CC[NH2+]CCCCNc1c2ccccc2[n+](C)c2ccc(C)cc12 (protonated)
CC[NH2+]CCCCNc1c2ccccc2[n+](C)c2ccc(C)cc12 (3D coordinates assigned)
CC[NH2+]CCCCNc1c2ccccc2[n+](C)c2ccc(C)cc12 (optimized conformer: 71.26463676773176 kcal/mol)

>  <smiles>  (10) 
CCNCCCCNc1c2ccccc2[n+](C)c2ccc(C)cc12

>  <score_type>  (10) 
oracle

>  <origin>  (10) 
adg

>  <m_score__min__energy>  (10) 
-8.1600000000000001

>  <m_primary>  (10) 
energy

$$$$
10:0
     RDKit          3D

 64 65  0  0  0  0  0  0  0  0999 V2000
  -10.1306   21.9974  -31.7484 H   0  0  0  0  0  0  0  0  0  0  0  0
   -9.1510   21.5000  -31.8020 C   0  0  0  0  0  0  0  0  0  0  0  0
   -9.1270   20.2240  -32.2120 C   0  0  0  0  0  0  0  0  0  0  0  0
   -9.4014   20.0221  -33.2579 H   0  0  0  0  0  0  0  0  0  0  0  0
   -8.7510   19.0370  -31.3460 C   0  0  0  0  0  0  0  0  0  0  0  0
   -9.5415   18.2766  -31.4282 H   0  0  0  0  0  0  0  0  0  0  0  0
   -8.6423   19.3996  -30.3132 H   0  0  0  0  0  0  0  0  0  0  0  0
   -7.4640   18.4270  -31.7440 N   0  0  0  0  0  0  0  0  0  0  0  0
   -7.5680   17.6740  -33.0130 C   0  0  0  0  0  0  0  0  0  0  0  0
   -7.9673   18.3391  -33.7929 H   0  0  0  0  0  0  0  0  0  0  0  0
   -8.2374   16.8157  -32.8542 H   0  0  0  0  0  0  0  0  0  0  0  0
   -6.2010   17.1460  -33.4590 C   0  0  0  0  0  0  0  0  0  0  0  0
   -6.3014   16.6791  -34.4499 H   0  0  0  0  0  0  0  0  0  0  0  0
   -5.8512   16.4098  -32.7203 H   0  0  0  0  0  0  0  0  0  0  0  0
   -5.2160   18.2360  -33.5380 N   0  0  0  0  0  0  0  0  0  0  0  0
   -3.9820   18.0630  -34.2680 C   0  0  0  0  0  0  0  0  0  0  0  0
   -3.2950   19.0740  -34.5820 O   0  0  0  0  0  0  0  0  0  0  0  0
   -3.5230   16.7070  -34.7290 C   0  0  0  0  0  0  0  0  0  0  0  0
   -2.5898   16.8122  -35.3017 H   0  0  0  0  0  0  0  0  0  0  0  0
   -4.2990   16.2572  -35.3658 H   0  0  0  0  0  0  0  0  0  0  0  0
   -3.2960   15.8750  -33.6110 O   0  0  0  0  0  0  0  0  0  0  0  0
   -2.1460   16.2890  -32.8970 C   0  0  0  0  0  0  0  0  0  0  0  0
   -1.7626   15.4469  -32.3021 H   0  0  0  0  0  0  0  0  0  0  0  0
   -2.4127   17.1224  -32.2304 H   0  0  0  0  0  0  0  0  0  0  0  0
   -1.0700   16.7500  -33.8740 C   0  0  0  0  0  0  0  0  0  0  0  0
   -1.4010   16.5526  -34.9043 H   0  0  0  0  0  0  0  0  0  0  0  0
   -0.1368   16.2017  -33.6779 H   0  0  0  0  0  0  0  0  0  0  0  0
   -0.8470   18.1350  -33.7080 O   0  0  0  0  0  0  0  0  0  0  0  0
   -0.6190   18.4430  -32.3450 C   0  0  0  0  0  0  0  0  0  0  0  0
    0.4433   18.2821  -32.1093 H   0  0  0  0  0  0  0  0  0  0  0  0
   -1.2463   17.7900  -31.7205 H   0  0  0  0  0  0  0  0  0  0  0  0
   -0.9860   19.9120  -32.0610 C   0  0  0  0  0  0  0  0  0  0  0  0
   -0.0721   20.4570  -31.7822 H   0  0  0  0  0  0  0  0  0  0  0  0
   -1.7251   19.9219  -31.2464 H   0  0  0  0  0  0  0  0  0  0  0  0
   -1.5990   20.5790  -33.2370 N   0  0  2  0  0  0  0  0  0  0  0  0
   -2.0780   19.8490  -33.8180 H   0  0  0  0  0  0  0  0  0  0  0  0
   -0.5820   21.2200  -34.0980 C   0  0  0  0  0  0  0  0  0  0  0  0
    0.1810   21.7009  -33.4684 H   0  0  0  0  0  0  0  0  0  0  0  0
   -0.1063   20.4581  -34.7331 H   0  0  0  0  0  0  0  0  0  0  0  0
   -1.0641   21.9778  -34.7331 H   0  0  0  0  0  0  0  0  0  0  0  0
   -2.6610   21.5390  -32.8380 C   0  0  0  0  0  0  0  0  0  0  0  0
   -3.5033   21.4306  -33.5371 H   0  0  0  0  0  0  0  0  0  0  0  0
   -2.2066   22.5403  -32.8669 H   0  0  0  0  0  0  0  0  0  0  0  0
   -3.1920   21.3390  -31.4110 C   0  0  0  0  0  0  0  0  0  0  0  0
   -2.4169   21.6309  -30.6871 H   0  0  0  0  0  0  0  0  0  0  0  0
   -4.0863   21.9619  -31.2619 H   0  0  0  0  0  0  0  0  0  0  0  0
   -3.4531   20.2809  -31.2619 H   0  0  0  0  0  0  0  0  0  0  0  0
   -5.5570   19.5450  -32.9680 C   0  0  0  0  0  0  0  0  0  0  0  0
   -6.1936   20.0960  -33.6759 H   0  0  0  0  0  0  0  0  0  0  0  0
   -4.6318   20.1098  -32.7811 H   0  0  0  0  0  0  0  0  0  0  0  0
   -6.3110   19.3600  -31.6440 C   0  0  0  0  0  0  0  0  0  0  0  0
   -6.6845   20.3413  -31.3159 H   0  0  0  0  0  0  0  0  0  0  0  0
   -5.6018   18.9224  -30.9260 H   0  0  0  0  0  0  0  0  0  0  0  0
   -7.9650   22.2890  -31.4170 C   0  0  0  0  0  0  0  0  0  0  0  0
   -7.2690   23.0070  -32.4020 C   0  0  0  0  0  0  0  0  0  0  0  0
   -7.5899   22.9488  -33.4525 H   0  0  0  0  0  0  0  0  0  0  0  0
   -6.1690   23.7960  -32.0520 C   0  0  0  0  0  0  0  0  0  0  0  0
   -5.6176   24.3443  -32.8300 H   0  0  0  0  0  0  0  0  0  0  0  0
   -5.7680   23.8900  -30.7160 C   0  0  0  0  0  0  0  0  0  0  0  0
   -4.3910   24.8850  -30.2790 Cl  0  0  0  0  0  0  0  0  0  0  0  0
   -6.4750   23.1990  -29.7250 C   0  0  0  0  0  0  0  0  0  0  0  0
   -6.1643   23.2767  -28.6727 H   0  0  0  0  0  0  0  0  0  0  0  0
   -7.5760   22.4100  -30.0720 C   0  0  0  0  0  0  0  0  0  0  0  0
   -8.1400   21.8819  -29.2890 H   0  0  0  0  0  0  0  0  0  0  0  0
  1  2  1  0
  2  3  2  0
  3  4  1  0
  3  5  1  0
  5  6  1  0
  5  7  1  0
  5  8  1  0
  8  9  1  0
  9 10  1  0
  9 11  1  0
  9 12  1  0
 12 13  1  0
 12 14  1  0
 12 15  1  0
 15 16  1  0
 16 17  2  0
 16 18  1  0
 18 19  1  0
 18 20  1  0
 18 21  1  0
 21 22  1  0
 22 23  1  0
 22 24  1  0
 22 25  1  0
 25 26  1  0
 25 27  1  0
 25 28  1  0
 28 29  1  0
 29 30  1  0
 29 31  1  0
 29 32  1  0
 32 33  1  0
 32 34  1  0
 32 35  1  0
 35 36  1  6
 35 37  1  0
 37 38  1  0
 37 39  1  0
 37 40  1  0
 35 41  1  0
 41 42  1  0
 41 43  1  0
 41 44  1  0
 44 45  1  0
 44 46  1  0
 44 47  1  0
 15 48  1  0
 48 49  1  0
 48 50  1  0
 48 51  1  0
 51 52  1  0
 51 53  1  0
  2 54  1  0
 54 55  2  0
 55 56  1  0
 55 57  1  0
 57 58  1  0
 57 59  2  0
 59 60  1  0
 59 61  1  0
 61 62  1  0
 61 63  2  0
 63 64  1  0
 51  8  1  0
 63 54  1  0
M  CHG  1  35   1
M  END
>  <UniqueID>  (11) 
11

>  <SMILES>  (11) 
CC[N@@H+](C)CCOCCOCC(=O)N1CCN(C/C=C\c2ccc(Cl)cc2)CC1

>  <Energy>  (11) 
80.81097081503013

>  <Genealogy>  (11) 
CC[NH+](C)CCOCCOCC(=O)N1CCN(CC=Cc2ccc(Cl)cc2)CC1 (protonated)
CC[N@@H+](C)CCOCCOCC(=O)N1CCN(CC=Cc2ccc(Cl)cc2)CC1 (chirality)
CC[N@@H+](C)CCOCCOCC(=O)N1CCN(C/C=C\c2ccc(Cl)cc2)CC1 (cis-trans isomerization)
CC[N@@H+](C)CCOCCOCC(=O)N1CCN(C/C=C\c2ccc(Cl)cc2)CC1 (3D coordinates assigned)
CC[N@@H+](C)CCOCCOCC(=O)N1CCN(C/C=C\c2ccc(Cl)cc2)CC1 (nonaromatic ring conformer: 80.81097081503013 kcal/mol)

>  <smiles>  (11) 
CCN(C)CCOCCOCC(=O)N1CCN(CC=Cc2ccc(Cl)cc2)CC1

>  <score_type>  (11) 
oracle

>  <origin>  (11) 
adg

>  <m_score__min__energy>  (11) 
-9.5299999999999994

>  <m_primary>  (11) 
energy

$$$$
11:0
     RDKit          3D

 50 52  0  0  0  0  0  0  0  0999 V2000
   -6.8285   19.9416  -35.1667 H   0  0  0  0  0  0  0  0  0  0  0  0
   -6.4600   19.5430  -34.2100 C   0  0  0  0  0  0  0  0  0  0  0  0
   -6.1040   18.2540  -34.1620 C   0  0  0  0  0  0  0  0  0  0  0  0
   -5.3792   17.8626  -34.8910 H   0  0  0  0  0  0  0  0  0  0  0  0
   -6.6800   17.3400  -33.1290 C   0  0  0  0  0  0  0  0  0  0  0  0
   -6.4392   17.7222  -32.1260 H   0  0  0  0  0  0  0  0  0  0  0  0
   -7.7722   17.2915  -33.2504 H   0  0  0  0  0  0  0  0  0  0  0  0
   -6.2525   16.3338  -33.2504 H   0  0  0  0  0  0  0  0  0  0  0  0
   -6.3880   20.4680  -33.0510 C   0  0  0  0  0  0  0  0  0  0  0  0
   -7.5190   20.8190  -32.2890 C   0  0  0  0  0  0  0  0  0  0  0  0
   -8.5014   20.3944  -32.5431 H   0  0  0  0  0  0  0  0  0  0  0  0
   -7.4030   21.7030  -31.2120 C   0  0  0  0  0  0  0  0  0  0  0  0
   -8.2955   21.9679  -30.6261 H   0  0  0  0  0  0  0  0  0  0  0  0
   -6.1580   22.2560  -30.8710 C   0  0  0  0  0  0  0  0  0  0  0  0
   -6.0560   23.2350  -29.7120 C   0  0  1  0  0  0  0  0  0  0  0  0
   -6.9334   23.0247  -29.0827 H   0  0  0  0  0  0  0  0  0  0  0  0
   -4.7570   23.0590  -28.9160 C   0  0  0  0  0  0  0  0  0  0  0  0
   -4.9657   23.0799  -27.8362 H   0  0  0  0  0  0  0  0  0  0  0  0
   -4.2777   22.0944  -29.1393 H   0  0  0  0  0  0  0  0  0  0  0  0
   -3.8990   24.1760  -29.2860 N   0  0  0  0  0  0  0  0  0  0  0  0
   -2.5200   24.3010  -28.8670 C   0  0  0  0  0  0  0  0  0  0  0  0
   -1.4750   23.7470  -29.6300 C   0  0  0  0  0  0  0  0  0  0  0  0
   -1.7050   23.2074  -30.5606 H   0  0  0  0  0  0  0  0  0  0  0  0
   -0.1830   23.8740  -29.2250 N   0  0  0  0  0  0  0  0  0  0  0  0
    0.1540   24.5330  -28.0840 C   0  0  0  0  0  0  0  0  0  0  0  0
    1.4920   24.6500  -27.6870 O   0  0  0  0  0  0  0  0  0  0  0  0
    1.9140   25.3910  -26.5440 C   0  0  0  0  0  0  0  0  0  0  0  0
    2.9503   25.7279  -26.6944 H   0  0  0  0  0  0  0  0  0  0  0  0
    1.2464   26.2560  -26.4167 H   0  0  0  0  0  0  0  0  0  0  0  0
    1.8450   24.5290  -25.2880 C   0  0  0  0  0  0  0  0  0  0  0  0
    1.8966   25.1732  -24.3979 H   0  0  0  0  0  0  0  0  0  0  0  0
    0.8990   23.9677  -25.2801 H   0  0  0  0  0  0  0  0  0  0  0  0
    2.6896   23.8243  -25.2801 H   0  0  0  0  0  0  0  0  0  0  0  0
   -0.8460   25.0970  -27.2910 C   0  0  0  0  0  0  0  0  0  0  0  0
   -0.5841   25.6285  -26.3642 H   0  0  0  0  0  0  0  0  0  0  0  0
   -2.1810   24.9820  -27.6820 C   0  0  0  0  0  0  0  0  0  0  0  0
   -2.9729   25.4259  -27.0608 H   0  0  0  0  0  0  0  0  0  0  0  0
   -4.5820   25.1510  -30.1250 C   0  0  0  0  0  0  0  0  0  0  0  0
   -4.5177   26.1524  -29.6744 H   0  0  0  0  0  0  0  0  0  0  0  0
   -4.1246   25.2085  -31.1237 H   0  0  0  0  0  0  0  0  0  0  0  0
   -6.0460   24.6990  -30.2080 C   0  0  2  0  0  0  0  0  0  0  0  0
   -6.4396   24.7821  -31.2318 H   0  0  0  0  0  0  0  0  0  0  0  0
   -6.9020   25.5440  -29.3660 N   0  0  0  0  0  0  0  0  0  0  0  0
   -6.9540   25.1430  -28.4010 H   0  0  0  0  0  0  0  0  0  0  0  0
   -7.8700   25.5700  -29.7600 H   0  0  0  0  0  0  0  0  0  0  0  0
   -6.5240   26.5200  -29.3150 H   0  0  0  0  0  0  0  0  0  0  0  0
   -5.0330   21.9250  -31.6490 C   0  0  0  0  0  0  0  0  0  0  0  0
   -4.0541   22.3650  -31.4079 H   0  0  0  0  0  0  0  0  0  0  0  0
   -5.1500   21.0420  -32.7250 C   0  0  0  0  0  0  0  0  0  0  0  0
   -4.2612   20.7938  -33.3237 H   0  0  0  0  0  0  0  0  0  0  0  0
  1  2  1  0
  2  3  2  0
  3  4  1  0
  3  5  1  0
  5  6  1  0
  5  7  1  0
  5  8  1  0
  2  9  1  0
  9 10  2  0
 10 11  1  0
 10 12  1  0
 12 13  1  0
 12 14  2  0
 14 15  1  0
 15 16  1  1
 15 17  1  0
 17 18  1  0
 17 19  1  0
 17 20  1  0
 20 21  1  0
 21 22  2  0
 22 23  1  0
 22 24  1  0
 24 25  2  0
 25 26  1  0
 26 27  1  0
 27 28  1  0
 27 29  1  0
 27 30  1  0
 30 31  1  0
 30 32  1  0
 30 33  1  0
 25 34  1  0
 34 35  1  0
 34 36  2  0
 36 37  1  0
 20 38  1  0
 38 39  1  0
 38 40  1  0
 38 41  1  0
 41 42  1  6
 41 43  1  0
 43 44  1  0
 43 45  1  0
 43 46  1  0
 14 47  1  0
 47 48  1  0
 47 49  2  0
 49 50  1  0
 49  9  1  0
 41 15  1  0
 36 21  1  0
M  CHG  1  43   1
M  END
>  <UniqueID>  (12) 
12

>  <SMILES>  (12) 
C/C=C/c1ccc([C@H]2CN(c3ccc(OCC)nc3)C[C@@H]2[NH3+])cc1

>  <Energy>  (12) 
51.11986630922699

>  <Genealogy>  (12) 
CC=Cc1ccc(C2CN(c3ccc(OCC)nc3)CC2[NH3+])cc1 (protonated)
CC=Cc1ccc([C@H]2CN(c3ccc(OCC)nc3)C[C@@H]2[NH3+])cc1 (chirality)
C/C=C/c1ccc([C@H]2CN(c3ccc(OCC)nc3)C[C@@H]2[NH3+])cc1 (cis-trans isomerization)
C/C=C/c1ccc([C@H]2CN(c3ccc(OCC)nc3)C[C@@H]2[NH3+])cc1 (3D coordinates assigned)
C/C=C/c1ccc([C@H]2CN(c3ccc(OCC)nc3)C[C@@H]2[NH3+])cc1 (nonaromatic ring conformer: 51.11986630922699 kcal/mol)

>  <smiles>  (12) 
CC=Cc1ccc(C2CN(c3ccc(OCC)nc3)CC2N)cc1

>  <score_type>  (12) 
oracle

>  <origin>  (12) 
adg

>  <m_score__min__energy>  (12) 
-6.6100000000000003

>  <m_primary>  (12) 
energy

$$$$
12:0
     RDKit          3D

 79 82  0  0  0  0  0  0  0  0999 V2000
   -8.4100   21.8480  -30.4410 C   0  0  0  0  0  0  0  0  0  0  0  0
   -8.7920   21.8150  -31.9200 C   0  0  0  0  0  0  0  0  0  0  0  0
   -8.2250   20.6280  -32.5940 N   0  0  0  0  0  0  0  0  0  0  0  0
   -9.0800   19.4190  -32.6220 C   0  0  0  0  0  0  0  0  0  0  0  0
   -8.6390   18.3080  -31.6660 C   0  0  0  0  0  0  0  0  0  0  0  0
   -6.7810   20.3920  -32.3600 C   0  0  0  0  0  0  0  0  0  0  0  0
   -6.0000   19.8870  -33.5990 C   0  0  0  0  0  0  0  0  0  0  0  0
   -4.4780   20.0230  -33.4030 C   0  0  0  0  0  0  0  0  0  0  0  0
   -4.0080   21.4320  -33.4810 N   0  0  0  0  0  0  0  0  0  0  0  0
   -3.6510   21.9770  -32.1800 C   0  0  0  0  0  0  0  0  0  0  0  0
   -4.5570   22.8090  -31.4840 C   0  0  0  0  0  0  0  0  0  0  0  0
   -5.5860   23.5050  -32.1580 C   0  0  0  0  0  0  0  0  0  0  0  0
   -6.4660   24.3280  -31.4590 C   0  0  0  0  0  0  0  0  0  0  0  0
   -6.3350   24.4810  -30.0850 C   0  0  0  0  0  0  0  0  0  0  0  0
   -5.3350   23.7950  -29.3960 C   0  0  0  0  0  0  0  0  0  0  0  0
   -4.4420   22.9290  -30.0770 C   0  0  0  0  0  0  0  0  0  0  0  0
   -3.4870   22.1960  -29.4040 N   0  0  0  0  0  0  0  0  0  0  0  0
   -3.6000   21.9990  -27.9420 C   0  0  0  0  0  0  0  0  0  0  0  0
   -2.4170   21.6700  -30.1010 C   0  0  0  0  0  0  0  0  0  0  0  0
   -1.2660   21.2020  -29.4250 C   0  0  0  0  0  0  0  0  0  0  0  0
   -0.1720   20.7140  -30.1260 C   0  0  0  0  0  0  0  0  0  0  0  0
   -0.1550   20.7540  -31.5100 C   0  0  0  0  0  0  0  0  0  0  0  0
   -1.2490   21.2630  -32.2330 C   0  0  0  0  0  0  0  0  0  0  0  0
   -1.1260   21.5020  -33.6200 O   0  0  0  0  0  0  0  0  0  0  0  0
    0.0640   21.2500  -34.3750 C   0  0  0  0  0  0  0  0  0  0  0  0
   -0.0770   20.0300  -35.3220 C   0  0  0  0  0  0  0  0  0  0  0  0
   -0.2540   18.6860  -34.6710 N   0  0  0  0  0  0  0  0  0  0  0  0
    0.8160   18.4870  -33.6490 C   0  0  0  0  0  0  0  0  0  0  0  0
   -1.6200   18.6000  -34.0510 C   0  0  0  0  0  0  0  0  0  0  0  0
   -2.3270   17.2310  -34.1740 C   0  0  0  0  0  0  0  0  0  0  0  0
   -1.3460   16.0680  -34.1590 C   0  0  0  0  0  0  0  0  0  0  0  0
   -0.3040   16.2050  -35.2770 C   0  0  0  0  0  0  0  0  0  0  0  0
   -0.0980   17.6630  -35.7510 C   0  0  0  0  0  0  0  0  0  0  0  0
   -2.4420   21.6180  -31.5270 C   0  0  0  0  0  0  0  0  0  0  0  0
   -9.3185   21.7695  -29.8258 H   0  0  0  0  0  0  0  0  0  0  0  0
   -7.7409   21.0043  -30.2162 H   0  0  0  0  0  0  0  0  0  0  0  0
   -7.8955   22.7939  -30.2162 H   0  0  0  0  0  0  0  0  0  0  0  0
   -9.8882   21.7869  -32.0065 H   0  0  0  0  0  0  0  0  0  0  0  0
   -8.3868   22.7160  -32.4038 H   0  0  0  0  0  0  0  0  0  0  0  0
  -10.1046   19.7164  -32.3540 H   0  0  0  0  0  0  0  0  0  0  0  0
   -9.0044   19.0056  -33.6385 H   0  0  0  0  0  0  0  0  0  0  0  0
   -8.7723   18.6439  -30.6271 H   0  0  0  0  0  0  0  0  0  0  0  0
   -9.2486   17.4095  -31.8419 H   0  0  0  0  0  0  0  0  0  0  0  0
   -7.5791   18.0722  -31.8419 H   0  0  0  0  0  0  0  0  0  0  0  0
   -6.3276   21.3388  -32.0313 H   0  0  0  0  0  0  0  0  0  0  0  0
   -6.7142   19.5957  -31.6040 H   0  0  0  0  0  0  0  0  0  0  0  0
   -6.2451   18.8281  -33.7685 H   0  0  0  0  0  0  0  0  0  0  0  0
   -6.2921   20.5006  -34.4639 H   0  0  0  0  0  0  0  0  0  0  0  0
   -4.2139   19.6191  -32.4145 H   0  0  0  0  0  0  0  0  0  0  0  0
   -3.9894   19.4665  -34.2164 H   0  0  0  0  0  0  0  0  0  0  0  0
   -3.1950   21.4520  -34.1230 H   0  0  0  0  0  0  0  0  0  0  0  0
   -4.7440   22.0360  -33.9120 H   0  0  0  0  0  0  0  0  0  0  0  0
   -5.6932   23.3955  -33.2473 H   0  0  0  0  0  0  0  0  0  0  0  0
   -7.2663   24.8578  -31.9965 H   0  0  0  0  0  0  0  0  0  0  0  0
   -7.0214   25.1447  -29.5388 H   0  0  0  0  0  0  0  0  0  0  0  0
   -5.2376   23.9276  -28.3084 H   0  0  0  0  0  0  0  0  0  0  0  0
   -3.1181   22.8391  -27.4205 H   0  0  0  0  0  0  0  0  0  0  0  0
   -4.6620   21.9526  -27.6593 H   0  0  0  0  0  0  0  0  0  0  0  0
   -3.1039   21.0588  -27.6593 H   0  0  0  0  0  0  0  0  0  0  0  0
   -1.2375   21.2252  -28.3256 H   0  0  0  0  0  0  0  0  0  0  0  0
    0.6853   20.2936  -29.5797 H   0  0  0  0  0  0  0  0  0  0  0  0
    0.7270   20.3823  -32.0521 H   0  0  0  0  0  0  0  0  0  0  0  0
    0.2929   22.1402  -34.9792 H   0  0  0  0  0  0  0  0  0  0  0  0
    0.8701   21.0257  -33.6609 H   0  0  0  0  0  0  0  0  0  0  0  0
   -0.9519   20.2066  -35.9650 H   0  0  0  0  0  0  0  0  0  0  0  0
    0.8819   19.9676  -35.8574 H   0  0  0  0  0  0  0  0  0  0  0  0
    0.3808   18.5679  -32.6420 H   0  0  0  0  0  0  0  0  0  0  0  0
    1.2635   17.4902  -33.7760 H   0  0  0  0  0  0  0  0  0  0  0  0
    1.5920   19.2562  -33.7760 H   0  0  0  0  0  0  0  0  0  0  0  0
   -1.5207   18.8341  -32.9808 H   0  0  0  0  0  0  0  0  0  0  0  0
   -2.2471   19.3123  -34.6072 H   0  0  0  0  0  0  0  0  0  0  0  0
   -3.0238   17.1163  -33.3306 H   0  0  0  0  0  0  0  0  0  0  0  0
   -2.8551   17.2118  -35.1387 H   0  0  0  0  0  0  0  0  0  0  0  0
   -0.8295   16.0471  -33.1880 H   0  0  0  0  0  0  0  0  0  0  0  0
   -1.9084   15.1365  -34.3200 H   0  0  0  0  0  0  0  0  0  0  0  0
    0.6574   15.8199  -34.9064 H   0  0  0  0  0  0  0  0  0  0  0  0
   -0.6768   15.6332  -36.1396 H   0  0  0  0  0  0  0  0  0  0  0  0
    0.9171   17.7509  -36.1656 H   0  0  0  0  0  0  0  0  0  0  0  0
   -0.8813   17.8672  -36.4958 H   0  0  0  0  0  0  0  0  0  0  0  0
  1  2  1  0
  2  3  1  0
  3  4  1  0
  4  5  1  0
  3  6  1  0
  6  7  1  0
  7  8  1  0
  8  9  1  0
  9 10  1  0
 10 11  2  0
 11 12  1  0
 12 13  2  0
 13 14  1  0
 14 15  2  0
 15 16  1  0
 16 17  2  0
 17 18  1  0
 17 19  1  0
 19 20  2  0
 20 21  1  0
 21 22  2  0
 22 23  1  0
 23 24  1  0
 24 25  1  0
 25 26  1  0
 26 27  1  0
 27 28  1  0
 27 29  1  0
 29 30  1  0
 30 31  1  0
 31 32  1  0
 32 33  1  0
 23 34  2  0
 34 10  1  0
 16 11  1  0
 34 19  1  0
 33 27  1  0
  1 35  1  0
  1 36  1  0
  1 37  1  0
  2 38  1  0
  2 39  1  0
  4 40  1  0
  4 41  1  0
  5 42  1  0
  5 43  1  0
  5 44  1  0
  6 45  1  0
  6 46  1  0
  7 47  1  0
  7 48  1  0
  8 49  1  0
  8 50  1  0
  9 51  1  0
  9 52  1  0
 12 53  1  0
 13 54  1  0
 14 55  1  0
 15 56  1  0
 18 57  1  0
 18 58  1  0
 18 59  1  0
 20 60  1  0
 21 61  1  0
 22 62  1  0
 25 63  1  0
 25 64  1  0
 26 65  1  0
 26 66  1  0
 28 67  1  0
 28 68  1  0
 28 69  1  0
 29 70  1  0
 29 71  1  0
 30 72  1  0
 30 73  1  0
 31 74  1  0
 31 75  1  0
 32 76  1  0
 32 77  1  0
 33 78  1  0
 33 79  1  0
M  CHG  3   9   1  17   1  27   1
M  END
>  <UniqueID>  (13) 
13

>  <SMILES>  (13) 
CCN(CC)CCC[NH2+]c1c2ccccc2[n+](C)c2cccc(OCC[N+]3(C)CCCCC3)c12

>  <Energy>  (13) 
141.66583698844704

>  <Genealogy>  (13) 
CCN(CC)CCC[NH2+]c1c2ccccc2[n+](C)c2cccc(OCC[N+]3(C)CCCCC3)c12 (protonated)
CCN(CC)CCC[NH2+]c1c2ccccc2[n+](C)c2cccc(OCC[N+]3(C)CCCCC3)c12 (3D coordinates assigned)
CCN(CC)CCC[NH2+]c1c2ccccc2[n+](C)c2cccc(OCC[N+]3(C)CCCCC3)c12 (nonaromatic ring conformer: 141.66583698844704 kcal/mol)

>  <smiles>  (13) 
CCN(CC)CCCNc1c2ccccc2[n+](C)c2cccc(OCC[N+]3(C)CCCCC3)c12

>  <score_type>  (13) 
oracle

>  <origin>  (13) 
adg

>  <m_score__min__energy>  (13) 
-7.6200000000000001

>  <m_primary>  (13) 
energy

$$$$
13:0
     RDKit          3D

 49 50  0  0  0  0  0  0  0  0999 V2000
   -2.8110   20.2920  -27.4960 C   0  0  0  0  0  0  0  0  0  0  0  0
   -2.0280   20.5500  -28.7940 C   0  0  0  0  0  0  0  0  0  0  0  0
   -2.4840   21.7410  -29.5450 N   0  0  0  0  0  0  0  0  0  0  0  0
   -1.6290   22.0540  -30.7110 C   0  0  0  0  0  0  0  0  0  0  0  0
   -2.0380   21.2110  -31.9180 C   0  0  0  0  0  0  0  0  0  0  0  0
   -2.7470   22.9130  -28.6740 C   0  0  0  0  0  0  0  0  0  0  0  0
   -2.1610   24.1700  -29.3100 C   0  0  0  0  0  0  0  0  0  0  0  0
   -3.1980   24.9210  -29.9090 O   0  0  0  0  0  0  0  0  0  0  0  0
   -4.4390   24.5160  -29.3700 C   0  0  0  0  0  0  0  0  0  0  0  0
   -5.5650   24.9550  -30.3000 C   0  0  0  0  0  0  0  0  0  0  0  0
   -5.3490   24.4210  -31.5930 O   0  0  0  0  0  0  0  0  0  0  0  0
   -4.7710   23.1350  -31.4890 C   0  0  0  0  0  0  0  0  0  0  0  0
   -5.4990   22.1870  -32.2690 O   0  0  0  0  0  0  0  0  0  0  0  0
   -6.8800   21.9570  -32.1740 C   0  0  0  0  0  0  0  0  0  0  0  0
   -7.7770   22.9860  -32.0250 N   0  0  0  0  0  0  0  0  0  0  0  0
   -9.1240   22.7530  -31.9600 C   0  0  0  0  0  0  0  0  0  0  0  0
   -9.6110   21.4830  -32.0270 N   0  0  0  0  0  0  0  0  0  0  0  0
   -8.7410   20.4570  -32.1630 C   0  0  0  0  0  0  0  0  0  0  0  0
   -9.1200   18.8280  -32.2600 S   0  0  0  0  0  0  0  0  0  0  0  0
   -7.5120   18.3210  -32.4060 C   0  0  0  0  0  0  0  0  0  0  0  0
   -6.6660   19.4350  -32.3780 C   0  0  0  0  0  0  0  0  0  0  0  0
   -5.1750   19.3180  -32.4780 C   0  0  0  0  0  0  0  0  0  0  0  0
   -7.3750   20.6470  -32.2410 C   0  0  0  0  0  0  0  0  0  0  0  0
   -2.1662   20.5044  -26.6305 H   0  0  0  0  0  0  0  0  0  0  0  0
   -3.6945   20.9465  -27.4645 H   0  0  0  0  0  0  0  0  0  0  0  0
   -3.1324   19.2405  -27.4645 H   0  0  0  0  0  0  0  0  0  0  0  0
   -0.9675   20.6884  -28.5366 H   0  0  0  0  0  0  0  0  0  0  0  0
   -2.1955   19.6795  -29.4453 H   0  0  0  0  0  0  0  0  0  0  0  0
   -1.7350   23.1198  -30.9616 H   0  0  0  0  0  0  0  0  0  0  0  0
   -0.5835   21.8257  -30.4563 H   0  0  0  0  0  0  0  0  0  0  0  0
   -2.4937   20.2717  -31.5717 H   0  0  0  0  0  0  0  0  0  0  0  0
   -2.7654   21.7693  -32.5256 H   0  0  0  0  0  0  0  0  0  0  0  0
   -1.1493   20.9852  -32.5256 H   0  0  0  0  0  0  0  0  0  0  0  0
   -3.8326   23.0389  -28.5488 H   0  0  0  0  0  0  0  0  0  0  0  0
   -2.2778   22.7494  -27.6926 H   0  0  0  0  0  0  0  0  0  0  0  0
   -1.6682   24.7770  -28.5363 H   0  0  0  0  0  0  0  0  0  0  0  0
   -1.4246   23.8849  -30.0758 H   0  0  0  0  0  0  0  0  0  0  0  0
   -4.4542   23.4209  -29.2673 H   0  0  0  0  0  0  0  0  0  0  0  0
   -4.5781   24.9790  -28.3819 H   0  0  0  0  0  0  0  0  0  0  0  0
   -6.5261   24.5896  -29.9090 H   0  0  0  0  0  0  0  0  0  0  0  0
   -5.5840   26.0534  -30.3571 H   0  0  0  0  0  0  0  0  0  0  0  0
   -3.7324   23.1764  -31.8489 H   0  0  0  0  0  0  0  0  0  0  0  0
   -4.7991   22.8202  -30.4354 H   0  0  0  0  0  0  0  0  0  0  0  0
   -7.4520   23.9740  -31.9600 H   0  0  0  0  0  0  0  0  0  0  0  0
   -9.8192   23.5987  -31.8527 H   0  0  0  0  0  0  0  0  0  0  0  0
   -7.1826   17.2764  -32.5073 H   0  0  0  0  0  0  0  0  0  0  0  0
   -4.7413   19.2840  -31.4677 H   0  0  0  0  0  0  0  0  0  0  0  0
   -4.9150   18.3967  -33.0199 H   0  0  0  0  0  0  0  0  0  0  0  0
   -4.7745   20.1875  -33.0199 H   0  0  0  0  0  0  0  0  0  0  0  0
  1  2  1  0
  2  3  1  0
  3  4  1  0
  4  5  1  0
  3  6  1  0
  6  7  1  0
  7  8  1  0
  8  9  1  0
  9 10  1  0
 10 11  1  0
 11 12  1  0
 12 13  1  0
 13 14  1  0
 14 15  2  0
 15 16  1  0
 16 17  2  0
 17 18  1  0
 18 19  1  0
 19 20  1  0
 20 21  2  0
 21 22  1  0
 21 23  1  0
 23 14  1  0
 23 18  2  0
  1 24  1  0
  1 25  1  0
  1 26  1  0
  2 27  1  0
  2 28  1  0
  4 29  1  0
  4 30  1  0
  5 31  1  0
  5 32  1  0
  5 33  1  0
  6 34  1  0
  6 35  1  0
  7 36  1  0
  7 37  1  0
  9 38  1  0
  9 39  1  0
 10 40  1  0
 10 41  1  0
 12 42  1  0
 12 43  1  0
 15 44  1  0
 16 45  1  0
 20 46  1  0
 22 47  1  0
 22 48  1  0
 22 49  1  0
M  CHG  1  15   1
M  END
>  <UniqueID>  (14) 
14

>  <SMILES>  (14) 
CCN(CC)CCOCCOCOc1[nH+]cnc2scc(C)c12

>  <Energy>  (14) 
77.9113203711467

>  <Genealogy>  (14) 
CCN(CC)CCOCCOCOc1[nH+]cnc2scc(C)c12 (protonated)
CCN(CC)CCOCCOCOc1[nH+]cnc2scc(C)c12 (3D coordinates assigned)
CCN(CC)CCOCCOCOc1[nH+]cnc2scc(C)c12 (optimized conformer: 77.9113203711467 kcal/mol)

>  <smiles>  (14) 
CCN(CC)CCOCCOCOc1ncnc2scc(C)c12

>  <score_type>  (14) 
oracle

>  <origin>  (14) 
adg

>  <m_score__min__energy>  (14) 
-6.6299999999999999

>  <m_primary>  (14) 
energy

$$$$
14:0
     RDKit          3D

 65 67  0  0  0  0  0  0  0  0999 V2000
   -6.0460   25.7150  -30.0320 C   0  0  0  0  0  0  0  0  0  0  0  0
   -4.6770   25.1920  -30.4580 C   0  0  0  0  0  0  0  0  0  0  0  0
   -4.6640   23.7120  -30.5070 N   0  0  0  0  0  0  0  0  0  0  0  0
   -5.4010   23.1430  -29.3650 C   0  0  0  0  0  0  0  0  0  0  0  0
   -3.2750   23.1990  -30.5280 C   0  0  0  0  0  0  0  0  0  0  0  0
   -3.1690   21.9940  -31.4710 C   0  0  0  0  0  0  0  0  0  0  0  0
   -4.1020   22.1090  -32.5920 N   0  0  0  0  0  0  0  0  0  0  0  0
   -5.1580   21.1460  -32.7300 C   0  0  0  0  0  0  0  0  0  0  0  0
   -6.4770   21.5350  -32.4430 C   0  0  0  0  0  0  0  0  0  0  0  0
   -6.8190   22.9000  -32.3280 C   0  0  0  0  0  0  0  0  0  0  0  0
   -8.1370   23.2830  -32.0930 C   0  0  0  0  0  0  0  0  0  0  0  0
   -9.1330   22.3190  -31.9770 C   0  0  0  0  0  0  0  0  0  0  0  0
   -8.8100   20.9650  -32.0620 C   0  0  0  0  0  0  0  0  0  0  0  0
   -7.4700   20.5420  -32.2570 C   0  0  0  0  0  0  0  0  0  0  0  0
   -7.1170   19.2080  -32.2480 N   0  0  0  0  0  0  0  0  0  0  0  0
   -8.0530   18.2010  -31.7000 C   0  0  0  0  0  0  0  0  0  0  0  0
   -5.8790   18.8190  -32.7330 C   0  0  0  0  0  0  0  0  0  0  0  0
   -5.5770   17.4530  -32.9600 C   0  0  0  0  0  0  0  0  0  0  0  0
   -4.3250   17.0600  -33.4110 C   0  0  0  0  0  0  0  0  0  0  0  0
   -3.3630   18.0080  -33.7240 C   0  0  0  0  0  0  0  0  0  0  0  0
   -3.6330   19.3770  -33.5870 C   0  0  0  0  0  0  0  0  0  0  0  0
   -2.7240   20.3260  -34.1790 N   0  0  0  0  0  0  0  0  0  0  0  0
   -1.2790   20.1040  -34.2450 C   0  0  0  0  0  0  0  0  0  0  0  0
   -0.4950   21.4260  -34.1710 C   0  0  0  0  0  0  0  0  0  0  0  0
    0.3170   21.7260  -35.4430 C   0  0  0  0  0  0  0  0  0  0  0  0
    1.1780   22.9180  -35.2800 N   0  0  0  0  0  0  0  0  0  0  0  0
    2.5670   22.6270  -35.6760 C   0  0  0  0  0  0  0  0  0  0  0  0
    0.6610   24.0330  -36.0910 C   0  0  0  0  0  0  0  0  0  0  0  0
   -4.8790   19.7920  -33.0250 C   0  0  0  0  0  0  0  0  0  0  0  0
   -6.1045   25.7373  -28.9338 H   0  0  0  0  0  0  0  0  0  0  0  0
   -6.1896   26.7313  -30.4276 H   0  0  0  0  0  0  0  0  0  0  0  0
   -6.8306   25.0533  -30.4276 H   0  0  0  0  0  0  0  0  0  0  0  0
   -4.4361   25.5867  -31.4561 H   0  0  0  0  0  0  0  0  0  0  0  0
   -3.9310   25.5240  -29.7209 H   0  0  0  0  0  0  0  0  0  0  0  0
   -4.9482   23.4926  -28.4255 H   0  0  0  0  0  0  0  0  0  0  0  0
   -6.4514   23.4667  -29.4085 H   0  0  0  0  0  0  0  0  0  0  0  0
   -5.3537   22.0449  -29.4085 H   0  0  0  0  0  0  0  0  0  0  0  0
   -2.5994   23.9939  -30.8770 H   0  0  0  0  0  0  0  0  0  0  0  0
   -2.9931   22.8853  -29.5121 H   0  0  0  0  0  0  0  0  0  0  0  0
   -2.1431   21.9362  -31.8638 H   0  0  0  0  0  0  0  0  0  0  0  0
   -3.4213   21.0867  -30.9026 H   0  0  0  0  0  0  0  0  0  0  0  0
   -4.1930   23.0160  -33.1050 H   0  0  0  0  0  0  0  0  0  0  0  0
   -6.0373   23.6678  -32.4249 H   0  0  0  0  0  0  0  0  0  0  0  0
   -8.3908   24.3492  -31.9990 H   0  0  0  0  0  0  0  0  0  0  0  0
  -10.1775   22.6252  -31.8179 H   0  0  0  0  0  0  0  0  0  0  0  0
   -9.6076   20.2124  -31.9764 H   0  0  0  0  0  0  0  0  0  0  0  0
   -8.0235   18.2328  -30.6009 H   0  0  0  0  0  0  0  0  0  0  0  0
   -9.0735   18.4224  -32.0459 H   0  0  0  0  0  0  0  0  0  0  0  0
   -7.7578   17.1994  -32.0459 H   0  0  0  0  0  0  0  0  0  0  0  0
   -6.3486   16.6911  -32.7754 H   0  0  0  0  0  0  0  0  0  0  0  0
   -4.0944   15.9901  -33.5208 H   0  0  0  0  0  0  0  0  0  0  0  0
   -2.3760   17.6822  -34.0842 H   0  0  0  0  0  0  0  0  0  0  0  0
   -3.1270   21.1890  -34.6020 H   0  0  0  0  0  0  0  0  0  0  0  0
   -0.9781   19.4637  -33.4027 H   0  0  0  0  0  0  0  0  0  0  0  0
   -1.0500   19.6235  -35.2076 H   0  0  0  0  0  0  0  0  0  0  0  0
   -1.2096   22.2469  -34.0117 H   0  0  0  0  0  0  0  0  0  0  0  0
    0.2221   21.3327  -33.3421 H   0  0  0  0  0  0  0  0  0  0  0  0
    0.9519   20.8575  -35.6726 H   0  0  0  0  0  0  0  0  0  0  0  0
   -0.3915   21.9266  -36.2601 H   0  0  0  0  0  0  0  0  0  0  0  0
    3.1855   22.4974  -34.7756 H   0  0  0  0  0  0  0  0  0  0  0  0
    2.5921   21.7041  -36.2740 H   0  0  0  0  0  0  0  0  0  0  0  0
    2.9604   23.4622  -36.2740 H   0  0  0  0  0  0  0  0  0  0  0  0
    0.2920   24.8288  -35.4273 H   0  0  0  0  0  0  0  0  0  0  0  0
    1.4672   24.4294  -36.7258 H   0  0  0  0  0  0  0  0  0  0  0  0
   -0.1624   23.6737  -36.7258 H   0  0  0  0  0  0  0  0  0  0  0  0
  1  2  1  0
  2  3  1  0
  3  4  1  0
  3  5  1  0
  5  6  1  0
  6  7  1  0
  7  8  1  0
  8  9  2  0
  9 10  1  0
 10 11  2  0
 11 12  1  0
 12 13  2  0
 13 14  1  0
 14 15  2  0
 15 16  1  0
 15 17  1  0
 17 18  2  0
 18 19  1  0
 19 20  2  0
 20 21  1  0
 21 22  1  0
 22 23  1  0
 23 24  1  0
 24 25  1  0
 25 26  1  0
 26 27  1  0
 26 28  1  0
 21 29  2  0
 29  8  1  0
 14  9  1  0
 29 17  1  0
  1 30  1  0
  1 31  1  0
  1 32  1  0
  2 33  1  0
  2 34  1  0
  4 35  1  0
  4 36  1  0
  4 37  1  0
  5 38  1  0
  5 39  1  0
  6 40  1  0
  6 41  1  0
  7 42  1  0
 10 43  1  0
 11 44  1  0
 12 45  1  0
 13 46  1  0
 16 47  1  0
 16 48  1  0
 16 49  1  0
 18 50  1  0
 19 51  1  0
 20 52  1  0
 22 53  1  0
 23 54  1  0
 23 55  1  0
 24 56  1  0
 24 57  1  0
 25 58  1  0
 25 59  1  0
 27 60  1  0
 27 61  1  0
 27 62  1  0
 28 63  1  0
 28 64  1  0
 28 65  1  0
M  CHG  1  15   1
M  END
>  <UniqueID>  (15) 
15

>  <SMILES>  (15) 
CCN(C)CCNc1c2ccccc2[n+](C)c2cccc(NCCCN(C)C)c12

>  <Energy>  (15) 
95.4915611893453

>  <Genealogy>  (15) 
CCN(C)CCNc1c2ccccc2[n+](C)c2cccc(NCCCN(C)C)c12 (3D coordinates assigned)
CCN(C)CCNc1c2ccccc2[n+](C)c2cccc(NCCCN(C)C)c12 (optimized conformer: 95.4915611893453 kcal/mol)

>  <smiles>  (15) 
CCN(C)CCNc1c2ccccc2[n+](C)c2cccc(NCCCN(C)C)c12

>  <score_type>  (15) 
oracle

>  <origin>  (15) 
adg

>  <m_score__min__energy>  (15) 
-8.8399999999999999

>  <m_primary>  (15) 
energy

$$$$
15:0
     RDKit          3D

 56 58  0  0  0  0  0  0  0  0999 V2000
   -9.5090   21.8670  -31.6980 C   0  0  0  0  0  0  0  0  0  0  0  0
   -9.7500   20.4940  -32.3170 C   0  0  0  0  0  0  0  0  0  0  0  0
   -8.4580   19.7530  -32.4700 C   0  0  0  0  0  0  0  0  0  0  0  0
   -7.3870   20.1430  -33.2520 C   0  0  0  0  0  0  0  0  0  0  0  0
   -6.3980   19.2190  -32.9700 C   0  0  0  0  0  0  0  0  0  0  0  0
   -4.9820   19.2730  -33.4750 C   0  0  0  0  0  0  0  0  0  0  0  0
   -4.1780   20.2140  -32.6680 N   0  0  0  0  0  0  0  0  0  0  0  0
   -4.9560   21.4340  -32.3230 C   0  0  0  0  0  0  0  0  0  0  0  0
   -4.0730   22.6460  -31.9730 C   0  0  0  0  0  0  0  0  0  0  0  0
   -2.7280   22.2260  -31.5640 N   0  0  0  0  0  0  0  0  0  0  0  0
   -2.1760   22.6780  -30.3170 C   0  0  0  0  0  0  0  0  0  0  0  0
   -1.2120   21.8850  -29.6720 C   0  0  0  0  0  0  0  0  0  0  0  0
   -0.5730   22.3410  -28.5170 C   0  0  0  0  0  0  0  0  0  0  0  0
   -0.8800   23.6020  -28.0020 C   0  0  0  0  0  0  0  0  0  0  0  0
   -1.8410   24.3980  -28.6290 C   0  0  0  0  0  0  0  0  0  0  0  0
   -2.5120   23.9400  -29.7710 C   0  0  0  0  0  0  0  0  0  0  0  0
   -3.5000   24.7630  -30.3260 O   0  0  0  0  0  0  0  0  0  0  0  0
   -4.8130   24.9150  -29.7790 C   0  0  0  0  0  0  0  0  0  0  0  0
   -5.8110   25.2830  -30.8830 C   0  0  0  0  0  0  0  0  0  0  0  0
   -5.2210   23.6090  -29.1020 C   0  0  0  0  0  0  0  0  0  0  0  0
   -1.9880   21.2560  -32.3770 C   0  0  0  0  0  0  0  0  0  0  0  0
   -2.9230   20.5520  -33.3630 C   0  0  0  0  0  0  0  0  0  0  0  0
   -6.8680   18.3380  -32.0610 N   0  0  0  0  0  0  0  0  0  0  0  0
   -6.1120   17.2930  -31.3790 C   0  0  0  0  0  0  0  0  0  0  0  0
   -8.1110   18.6700  -31.7510 N   0  0  0  0  0  0  0  0  0  0  0  0
   -9.5238   21.7825  -30.6013 H   0  0  0  0  0  0  0  0  0  0  0  0
   -8.5301   22.2491  -32.0231 H   0  0  0  0  0  0  0  0  0  0  0  0
  -10.2993   22.5596  -32.0231 H   0  0  0  0  0  0  0  0  0  0  0  0
  -10.4233   19.9168  -31.6663 H   0  0  0  0  0  0  0  0  0  0  0  0
  -10.2036   20.6265  -33.3103 H   0  0  0  0  0  0  0  0  0  0  0  0
   -7.3336   20.9968  -33.9434 H   0  0  0  0  0  0  0  0  0  0  0  0
   -4.5366   18.2693  -33.4104 H   0  0  0  0  0  0  0  0  0  0  0  0
   -4.9907   19.6188  -34.5192 H   0  0  0  0  0  0  0  0  0  0  0  0
   -5.5870   21.6998  -33.1839 H   0  0  0  0  0  0  0  0  0  0  0  0
   -5.5502   21.1970  -31.4282 H   0  0  0  0  0  0  0  0  0  0  0  0
   -3.9920   23.2971  -32.8559 H   0  0  0  0  0  0  0  0  0  0  0  0
   -4.5387   23.1838  -31.1340 H   0  0  0  0  0  0  0  0  0  0  0  0
   -0.9582   20.8957  -30.0806 H   0  0  0  0  0  0  0  0  0  0  0  0
    0.1717   21.7072  -28.0133 H   0  0  0  0  0  0  0  0  0  0  0  0
   -0.3647   23.9686  -27.1020 H   0  0  0  0  0  0  0  0  0  0  0  0
   -2.0734   25.3935  -28.2228 H   0  0  0  0  0  0  0  0  0  0  0  0
   -4.8126   25.7273  -29.0373 H   0  0  0  0  0  0  0  0  0  0  0  0
   -6.7504   25.6294  -30.4275 H   0  0  0  0  0  0  0  0  0  0  0  0
   -5.3886   26.0845  -31.5068 H   0  0  0  0  0  0  0  0  0  0  0  0
   -6.0101   24.3991  -31.5068 H   0  0  0  0  0  0  0  0  0  0  0  0
   -5.1819   23.7343  -28.0099 H   0  0  0  0  0  0  0  0  0  0  0  0
   -6.2449   23.3436  -29.4042 H   0  0  0  0  0  0  0  0  0  0  0  0
   -4.5303   22.8080  -29.4042 H   0  0  0  0  0  0  0  0  0  0  0  0
   -1.2006   21.7809  -32.9379 H   0  0  0  0  0  0  0  0  0  0  0  0
   -1.5437   20.5019  -31.7108 H   0  0  0  0  0  0  0  0  0  0  0  0
   -3.1378   21.2199  -34.2102 H   0  0  0  0  0  0  0  0  0  0  0  0
   -2.4464   19.6355  -33.7411 H   0  0  0  0  0  0  0  0  0  0  0  0
   -6.2062   17.4232  -30.2908 H   0  0  0  0  0  0  0  0  0  0  0  0
   -6.5076   16.3075  -31.6660 H   0  0  0  0  0  0  0  0  0  0  0  0
   -5.0522   17.3604  -31.6660 H   0  0  0  0  0  0  0  0  0  0  0  0
   -8.6980   18.1930  -31.0320 H   0  0  0  0  0  0  0  0  0  0  0  0
  1  2  1  0
  2  3  1  0
  3  4  1  0
  4  5  2  0
  5  6  1  0
  6  7  1  0
  7  8  1  0
  8  9  1  0
  9 10  1  0
 10 11  1  0
 11 12  2  0
 12 13  1  0
 13 14  2  0
 14 15  1  0
 15 16  2  0
 16 17  1  0
 17 18  1  0
 18 19  1  0
 18 20  1  0
 10 21  1  0
 21 22  1  0
  5 23  1  0
 23 24  1  0
 23 25  1  0
 25  3  2  0
 22  7  1  0
 16 11  1  0
  1 26  1  0
  1 27  1  0
  1 28  1  0
  2 29  1  0
  2 30  1  0
  4 31  1  0
  6 32  1  0
  6 33  1  0
  8 34  1  0
  8 35  1  0
  9 36  1  0
  9 37  1  0
 12 38  1  0
 13 39  1  0
 14 40  1  0
 15 41  1  0
 18 42  1  0
 19 43  1  0
 19 44  1  0
 19 45  1  0
 20 46  1  0
 20 47  1  0
 20 48  1  0
 21 49  1  0
 21 50  1  0
 22 51  1  0
 22 52  1  0
 24 53  1  0
 24 54  1  0
 24 55  1  0
 25 56  1  0
M  CHG  1  25   1
M  END
>  <UniqueID>  (16) 
16

>  <SMILES>  (16) 
CCc1cc(CN2CCN(c3ccccc3OC(C)C)CC2)n(C)[nH+]1

>  <Energy>  (16) 
91.41143535758582

>  <Genealogy>  (16) 
CCc1cc(CN2CCN(c3ccccc3OC(C)C)CC2)n(C)[nH+]1 (protonated)
CCc1cc(CN2CCN(c3ccccc3OC(C)C)CC2)n(C)[nH+]1 (3D coordinates assigned)
CCc1cc(CN2CCN(c3ccccc3OC(C)C)CC2)n(C)[nH+]1 (nonaromatic ring conformer: 91.41143535758582 kcal/mol)

>  <smiles>  (16) 
CCc1cc(CN2CCN(c3ccccc3OC(C)C)CC2)n(C)n1

>  <score_type>  (16) 
oracle

>  <origin>  (16) 
adg

>  <m_score__min__energy>  (16) 
-8

>  <m_primary>  (16) 
energy

$$$$
16:0
     RDKit          3D

 46 48  0  0  0  0  0  0  0  0999 V2000
   -3.1190   18.8430  -26.0810 C   0  0  0  0  0  0  0  0  0  0  0  0
   -3.0770   19.9640  -27.1290 C   0  0  0  0  0  0  0  0  0  0  0  0
   -1.7670   20.6580  -27.2440 N   0  0  0  0  0  0  0  0  0  0  0  0
   -0.6140   19.7620  -27.4800 C   0  0  0  0  0  0  0  0  0  0  0  0
    0.4830   20.4500  -28.2930 C   0  0  0  0  0  0  0  0  0  0  0  0
   -1.7940   21.7710  -28.2190 C   0  0  0  0  0  0  0  0  0  0  0  0
   -1.8070   23.0630  -27.5260 N   0  0  0  0  0  0  0  0  0  0  0  0
   -2.3000   24.2520  -27.9670 C   0  0  0  0  0  0  0  0  0  0  0  0
   -3.1300   24.4840  -29.5430 S   0  0  0  0  0  0  0  0  0  0  0  0
   -4.7070   23.7800  -28.9600 C   0  0  0  0  0  0  0  0  0  0  0  0
   -5.4390   23.1650  -30.1200 C   0  0  0  0  0  0  0  0  0  0  0  0
   -6.7340   23.6020  -30.4420 C   0  0  0  0  0  0  0  0  0  0  0  0
   -7.4120   23.0570  -31.5380 C   0  0  0  0  0  0  0  0  0  0  0  0
   -8.6650   23.4790  -31.8390 F   0  0  0  0  0  0  0  0  0  0  0  0
   -6.7980   22.0790  -32.3230 C   0  0  0  0  0  0  0  0  0  0  0  0
   -5.5030   21.6480  -32.0190 C   0  0  0  0  0  0  0  0  0  0  0  0
   -4.8200   22.1900  -30.9260 C   0  0  0  0  0  0  0  0  0  0  0  0
   -3.5590   21.7700  -30.6580 F   0  0  0  0  0  0  0  0  0  0  0  0
   -2.0650   25.2880  -27.1200 N   0  0  0  0  0  0  0  0  0  0  0  0
   -1.3900   24.7010  -26.1160 C   0  0  0  0  0  0  0  0  0  0  0  0
   -0.8690   25.2950  -24.9720 C   0  0  0  0  0  0  0  0  0  0  0  0
   -0.1780   24.5070  -24.0950 N   0  0  0  0  0  0  0  0  0  0  0  0
    0.0150   23.1680  -24.3230 C   0  0  0  0  0  0  0  0  0  0  0  0
   -0.5050   22.5580  -25.4790 C   0  0  0  0  0  0  0  0  0  0  0  0
   -1.2200   23.3740  -26.3560 C   0  0  0  0  0  0  0  0  0  0  0  0
   -3.1025   19.2827  -25.0729 H   0  0  0  0  0  0  0  0  0  0  0  0
   -4.0398   18.2551  -26.2096 H   0  0  0  0  0  0  0  0  0  0  0  0
   -2.2448   18.1879  -26.2096 H   0  0  0  0  0  0  0  0  0  0  0  0
   -3.3202   19.5266  -28.1086 H   0  0  0  0  0  0  0  0  0  0  0  0
   -3.8030   20.7228  -26.8017 H   0  0  0  0  0  0  0  0  0  0  0  0
   -0.1978   19.4542  -26.5094 H   0  0  0  0  0  0  0  0  0  0  0  0
   -0.9687   18.8920  -28.0521 H   0  0  0  0  0  0  0  0  0  0  0  0
    1.2133   20.9080  -27.6096 H   0  0  0  0  0  0  0  0  0  0  0  0
    0.9897   19.7076  -28.9271 H   0  0  0  0  0  0  0  0  0  0  0  0
    0.0353   21.2294  -28.9271 H   0  0  0  0  0  0  0  0  0  0  0  0
   -0.9012   21.7129  -28.8590 H   0  0  0  0  0  0  0  0  0  0  0  0
   -2.7053   21.6863  -28.8292 H   0  0  0  0  0  0  0  0  0  0  0  0
   -4.5064   23.0084  -28.2021 H   0  0  0  0  0  0  0  0  0  0  0  0
   -5.3233   24.5764  -28.5174 H   0  0  0  0  0  0  0  0  0  0  0  0
   -7.2180   24.3769  -29.8294 H   0  0  0  0  0  0  0  0  0  0  0  0
   -7.3335   21.6472  -33.1813 H   0  0  0  0  0  0  0  0  0  0  0  0
   -5.0202   20.8803  -32.6416 H   0  0  0  0  0  0  0  0  0  0  0  0
   -1.0090   26.3687  -24.7783 H   0  0  0  0  0  0  0  0  0  0  0  0
    0.2200   24.9380  -23.2300 H   0  0  0  0  0  0  0  0  0  0  0  0
    0.5808   22.5667  -23.5962 H   0  0  0  0  0  0  0  0  0  0  0  0
   -0.3548   21.4874  -25.6820 H   0  0  0  0  0  0  0  0  0  0  0  0
  1  2  1  0
  2  3  1  0
  3  4  1  0
  4  5  1  0
  3  6  1  0
  6  7  1  0
  7  8  1  0
  8  9  1  0
  9 10  1  0
 10 11  1  0
 11 12  2  0
 12 13  1  0
 13 14  1  0
 13 15  2  0
 15 16  1  0
 16 17  2  0
 17 18  1  0
  8 19  2  0
 19 20  1  0
 20 21  2  0
 21 22  1  0
 22 23  2  0
 23 24  1  0
 24 25  2  0
 25  7  1  0
 17 11  1  0
 25 20  1  0
  1 26  1  0
  1 27  1  0
  1 28  1  0
  2 29  1  0
  2 30  1  0
  4 31  1  0
  4 32  1  0
  5 33  1  0
  5 34  1  0
  5 35  1  0
  6 36  1  0
  6 37  1  0
 10 38  1  0
 10 39  1  0
 12 40  1  0
 15 41  1  0
 16 42  1  0
 21 43  1  0
 22 44  1  0
 23 45  1  0
 24 46  1  0
M  CHG  1  22   1
M  END
>  <UniqueID>  (17) 
17

>  <SMILES>  (17) 
CCN(CC)Cn1c(SCc2cc(F)ccc2F)nc2c[nH+]ccc21

>  <Energy>  (17) 
82.66327031892628

>  <Genealogy>  (17) 
CCN(CC)Cn1c(SCc2cc(F)ccc2F)nc2c[nH+]ccc21 (protonated)
CCN(CC)Cn1c(SCc2cc(F)ccc2F)nc2c[nH+]ccc21 (3D coordinates assigned)
CCN(CC)Cn1c(SCc2cc(F)ccc2F)nc2c[nH+]ccc21 (optimized conformer: 82.66327031892628 kcal/mol)

>  <smiles>  (17) 
CCN(CC)Cn1c(SCc2cc(F)ccc2F)nc2cnccc21

>  <score_type>  (17) 
oracle

>  <origin>  (17) 
adg

>  <m_score__min__energy>  (17) 
-6.79

>  <m_primary>  (17) 
energy

$$$$
17:0
     RDKit          3D

 69 72  0  0  0  0  0  0  0  0999 V2000
   -6.3480   17.5580  -31.2840 C   0  0  0  0  0  0  0  0  0  0  0  0
   -7.6150   17.8650  -32.0930 C   0  0  0  0  0  0  0  0  0  0  0  0
   -7.8630   19.3060  -32.2970 N   0  0  0  0  0  0  0  0  0  0  0  0
   -9.1110   19.8800  -31.7600 C   0  0  0  0  0  0  0  0  0  0  0  0
   -9.1150   21.3890  -31.9730 C   0  0  0  0  0  0  0  0  0  0  0  0
   -7.2540   19.9770  -33.4650 C   0  0  0  0  0  0  0  0  0  0  0  0
   -5.7240   20.0910  -33.4060 C   0  0  0  0  0  0  0  0  0  0  0  0
   -5.2900   20.6810  -32.1480 N   0  0  0  0  0  0  0  0  0  0  0  0
   -5.4230   22.0720  -31.8440 C   0  0  0  0  0  0  0  0  0  0  0  0
   -5.0260   22.9330  -32.6760 O   0  0  0  0  0  0  0  0  0  0  0  0
   -6.1570   22.5030  -30.5920 C   0  0  2  0  0  0  0  0  0  0  0  0
   -6.9880   23.7860  -30.7980 C   0  0  0  0  0  0  0  0  0  0  0  0
   -6.0930   25.0220  -30.9340 C   0  0  0  0  0  0  0  0  0  0  0  0
   -5.1660   25.1610  -29.7230 C   0  0  0  0  0  0  0  0  0  0  0  0
   -4.4340   23.9120  -29.4690 N   0  0  0  0  0  0  0  0  0  0  0  0
   -3.2800   24.0060  -28.6180 C   0  0  0  0  0  0  0  0  0  0  0  0
   -3.3290   24.8880  -27.5760 N   0  0  0  0  0  0  0  0  0  0  0  0
   -2.3050   25.0130  -26.6900 C   0  0  0  0  0  0  0  0  0  0  0  0
   -2.3760   25.9220  -25.6210 C   0  0  0  0  0  0  0  0  0  0  0  0
   -1.3090   26.0270  -24.7230 C   0  0  0  0  0  0  0  0  0  0  0  0
   -0.1720   25.2280  -24.8860 C   0  0  0  0  0  0  0  0  0  0  0  0
   -0.0980   24.3190  -25.9480 C   0  0  0  0  0  0  0  0  0  0  0  0
   -1.1660   24.2120  -26.8470 C   0  0  0  0  0  0  0  0  0  0  0  0
   -1.1090   23.3390  -27.8800 N   0  0  0  0  0  0  0  0  0  0  0  0
   -2.1160   23.1960  -28.7900 C   0  0  0  0  0  0  0  0  0  0  0  0
   -1.9310   22.2230  -29.8620 N   0  0  0  0  0  0  0  0  0  0  0  0
   -1.6950   20.7980  -29.5550 C   0  0  0  0  0  0  0  0  0  0  0  0
   -1.5930   19.8830  -30.7850 C   0  0  0  0  0  0  0  0  0  0  0  0
   -2.5140   20.2770  -31.8470 N   0  0  0  0  0  0  0  0  0  0  0  0
   -2.1620   21.6190  -32.3030 C   0  0  0  0  0  0  0  0  0  0  0  0
   -2.3950   22.6520  -31.2010 C   0  0  0  0  0  0  0  0  0  0  0  0
   -5.2200   22.6740  -29.3770 C   0  0  0  0  0  0  0  0  0  0  0  0
   -6.5767   17.6134  -30.2095 H   0  0  0  0  0  0  0  0  0  0  0  0
   -5.9910   16.5474  -31.5313 H   0  0  0  0  0  0  0  0  0  0  0  0
   -5.5680   18.2931  -31.5313 H   0  0  0  0  0  0  0  0  0  0  0  0
   -7.5197   17.3874  -33.0793 H   0  0  0  0  0  0  0  0  0  0  0  0
   -8.4648   17.4748  -31.5136 H   0  0  0  0  0  0  0  0  0  0  0  0
   -9.9719   19.4349  -32.2804 H   0  0  0  0  0  0  0  0  0  0  0  0
   -9.1781   19.6636  -30.6836 H   0  0  0  0  0  0  0  0  0  0  0  0
   -9.1163   21.8970  -30.9973 H   0  0  0  0  0  0  0  0  0  0  0  0
   -8.2176   21.6820  -32.5377 H   0  0  0  0  0  0  0  0  0  0  0  0
  -10.0139   21.6772  -32.5377 H   0  0  0  0  0  0  0  0  0  0  0  0
   -7.5218   19.4073  -34.3671 H   0  0  0  0  0  0  0  0  0  0  0  0
   -7.6447   21.0052  -33.4747 H   0  0  0  0  0  0  0  0  0  0  0  0
   -5.2851   19.0870  -33.5021 H   0  0  0  0  0  0  0  0  0  0  0  0
   -5.3902   20.7396  -34.2293 H   0  0  0  0  0  0  0  0  0  0  0  0
   -6.8508   21.6776  -30.3743 H   0  0  0  0  0  0  0  0  0  0  0  0
   -7.5897   23.6786  -31.7126 H   0  0  0  0  0  0  0  0  0  0  0  0
   -7.6327   23.9234  -29.9174 H   0  0  0  0  0  0  0  0  0  0  0  0
   -5.4838   24.9271  -31.8450 H   0  0  0  0  0  0  0  0  0  0  0  0
   -6.7329   25.9149  -30.9912 H   0  0  0  0  0  0  0  0  0  0  0  0
   -4.4434   25.9679  -29.9148 H   0  0  0  0  0  0  0  0  0  0  0  0
   -5.7790   25.3919  -28.8393 H   0  0  0  0  0  0  0  0  0  0  0  0
   -4.1840   25.4790  -27.4550 H   0  0  0  0  0  0  0  0  0  0  0  0
   -3.2695   26.5502  -25.4906 H   0  0  0  0  0  0  0  0  0  0  0  0
   -1.3638   26.7394  -23.8866 H   0  0  0  0  0  0  0  0  0  0  0  0
    0.6655   25.3143  -24.1781 H   0  0  0  0  0  0  0  0  0  0  0  0
    0.7960   23.6910  -26.0758 H   0  0  0  0  0  0  0  0  0  0  0  0
   -0.7534   20.7206  -28.9917 H   0  0  0  0  0  0  0  0  0  0  0  0
   -2.5708   20.4545  -28.9849 H   0  0  0  0  0  0  0  0  0  0  0  0
   -0.5650   19.9267  -31.1741 H   0  0  0  0  0  0  0  0  0  0  0  0
   -1.8601   18.8638  -30.4691 H   0  0  0  0  0  0  0  0  0  0  0  0
   -3.4930   20.2790  -31.4730 H   0  0  0  0  0  0  0  0  0  0  0  0
   -1.1005   21.6339  -32.5911 H   0  0  0  0  0  0  0  0  0  0  0  0
   -2.7989   21.8747  -33.1626 H   0  0  0  0  0  0  0  0  0  0  0  0
   -1.8600   23.5738  -31.4730 H   0  0  0  0  0  0  0  0  0  0  0  0
   -3.4828   22.7978  -31.1279 H   0  0  0  0  0  0  0  0  0  0  0  0
   -4.5319   21.8169  -29.3337 H   0  0  0  0  0  0  0  0  0  0  0  0
   -5.8398   22.7271  -28.4698 H   0  0  0  0  0  0  0  0  0  0  0  0
  1  2  1  0
  2  3  1  0
  3  4  1  0
  4  5  1  0
  3  6  1  0
  6  7  1  0
  7  8  1  0
  8  9  1  0
  9 10  2  0
  9 11  1  0
 11 12  1  0
 12 13  1  0
 13 14  1  0
 14 15  1  0
 15 16  1  0
 16 17  2  0
 17 18  1  0
 18 19  2  0
 19 20  1  0
 20 21  2  0
 21 22  1  0
 22 23  2  0
 23 24  1  0
 24 25  2  0
 25 26  1  0
 26 27  1  0
 27 28  1  0
 28 29  1  0
 29 30  1  0
 30 31  1  0
 15 32  1  0
 32 11  1  0
 25 16  1  0
 31 26  1  0
 23 18  1  0
  1 33  1  0
  1 34  1  0
  1 35  1  0
  2 36  1  0
  2 37  1  0
  4 38  1  0
  4 39  1  0
  5 40  1  0
  5 41  1  0
  5 42  1  0
  6 43  1  0
  6 44  1  0
  7 45  1  0
  7 46  1  0
 11 47  1  1
 12 48  1  0
 12 49  1  0
 13 50  1  0
 13 51  1  0
 14 52  1  0
 14 53  1  0
 17 54  1  0
 19 55  1  0
 20 56  1  0
 21 57  1  0
 22 58  1  0
 27 59  1  0
 27 60  1  0
 28 61  1  0
 28 62  1  0
 29 63  1  0
 30 64  1  0
 30 65  1  0
 31 66  1  0
 31 67  1  0
 32 68  1  0
 32 69  1  0
M  CHG  2   8  -1  17   1
M  END
>  <UniqueID>  (18) 
18

>  <SMILES>  (18) 
CCN(CC)CC[N-]C(=O)[C@@H]1CCCN(c2[nH+]c3ccccc3nc2N2CCNCC2)C1

>  <Energy>  (18) 
86.9898768101264

>  <Genealogy>  (18) 
CCN(CC)CC[N-]C(=O)C1CCCN(c2[nH+]c3ccccc3nc2N2CCNCC2)C1 (protonated)
CCN(CC)CC[N-]C(=O)[C@@H]1CCCN(c2[nH+]c3ccccc3nc2N2CCNCC2)C1 (chirality)
CCN(CC)CC[N-]C(=O)[C@@H]1CCCN(c2[nH+]c3ccccc3nc2N2CCNCC2)C1 (3D coordinates assigned)
CCN(CC)CC[N-]C(=O)[C@@H]1CCCN(c2[nH+]c3ccccc3nc2N2CCNCC2)C1 (nonaromatic ring conformer: 86.9898768101264 kcal/mol)

>  <smiles>  (18) 
CCN(CC)CCNC(=O)C1CCCN(c2nc3ccccc3nc2N2CCNCC2)C1

>  <score_type>  (18) 
oracle

>  <origin>  (18) 
adg

>  <m_score__min__energy>  (18) 
-9.7799999999999994

>  <m_primary>  (18) 
energy

$$$$
18:0
     RDKit          3D

 56 59  0  0  0  0  0  0  0  0999 V2000
   -2.0780   19.2260  -33.0720 C   0  0  0  0  0  0  0  0  0  0  0  0
   -2.3220   17.7180  -33.1710 C   0  0  0  0  0  0  0  0  0  0  0  0
   -3.7520   17.3840  -33.2530 N   0  0  0  0  0  0  0  0  0  0  0  0
   -4.0640   16.5100  -34.3910 C   0  0  0  0  0  0  0  0  0  0  0  0
   -5.4320   15.8550  -34.1910 C   0  0  0  0  0  0  0  0  0  0  0  0
   -6.1150   16.4630  -33.0340 N   0  0  0  0  0  0  0  0  0  0  0  0
   -7.2030   17.3710  -33.4280 C   0  0  0  0  0  0  0  0  0  0  0  0
   -6.8900   18.7790  -32.9970 C   0  0  0  0  0  0  0  0  0  0  0  0
   -5.7560   19.4300  -33.5050 C   0  0  0  0  0  0  0  0  0  0  0  0
   -5.3920   20.6910  -33.0260 C   0  0  0  0  0  0  0  0  0  0  0  0
   -6.1630   21.3260  -32.0360 C   0  0  0  0  0  0  0  0  0  0  0  0
   -5.7440   22.6380  -31.4860 C   0  0  0  0  0  0  0  0  0  0  0  0
   -6.5580   23.7720  -31.6450 C   0  0  0  0  0  0  0  0  0  0  0  0
   -6.1630   25.0030  -31.1180 C   0  0  0  0  0  0  0  0  0  0  0  0
   -4.9580   25.1170  -30.4220 C   0  0  0  0  0  0  0  0  0  0  0  0
   -4.1310   23.9950  -30.2460 C   0  0  0  0  0  0  0  0  0  0  0  0
   -2.8610   24.1080  -29.4950 C   0  0  0  0  0  0  0  0  0  0  0  0
   -2.0900   23.0310  -29.1820 N   0  0  0  0  0  0  0  0  0  0  0  0
   -1.0650   23.5800  -28.5130 C   0  0  0  0  0  0  0  0  0  0  0  0
    0.0390   22.9340  -27.9490 C   0  0  0  0  0  0  0  0  0  0  0  0
    0.1840   21.4430  -28.0060 C   0  0  0  0  0  0  0  0  0  0  0  0
    0.9780   23.7390  -27.2660 C   0  0  0  0  0  0  0  0  0  0  0  0
    0.8040   25.1390  -27.1910 C   0  0  0  0  0  0  0  0  0  0  0  0
   -0.3150   25.7500  -27.7850 C   0  0  0  0  0  0  0  0  0  0  0  0
   -1.2310   24.9300  -28.4370 C   0  0  0  0  0  0  0  0  0  0  0  0
   -2.3640   25.2940  -29.0520 N   0  0  0  0  0  0  0  0  0  0  0  0
   -4.5310   22.7590  -30.7840 C   0  0  0  0  0  0  0  0  0  0  0  0
   -7.3160   20.6850  -31.5520 C   0  0  0  0  0  0  0  0  0  0  0  0
   -7.6740   19.4210  -32.0250 C   0  0  0  0  0  0  0  0  0  0  0  0
   -2.0303   19.5210  -32.0134 H   0  0  0  0  0  0  0  0  0  0  0  0
   -1.1276   19.4769  -33.5657 H   0  0  0  0  0  0  0  0  0  0  0  0
   -2.9008   19.7638  -33.5657 H   0  0  0  0  0  0  0  0  0  0  0  0
   -1.8184   17.3374  -34.0719 H   0  0  0  0  0  0  0  0  0  0  0  0
   -1.9217   17.2535  -32.2578 H   0  0  0  0  0  0  0  0  0  0  0  0
   -4.0520   16.9160  -32.3670 H   0  0  0  0  0  0  0  0  0  0  0  0
   -4.0779   17.1067  -35.3150 H   0  0  0  0  0  0  0  0  0  0  0  0
   -3.2963   15.7255  -34.4637 H   0  0  0  0  0  0  0  0  0  0  0  0
   -6.0426   16.0026  -35.0940 H   0  0  0  0  0  0  0  0  0  0  0  0
   -5.2951   14.7792  -34.0066 H   0  0  0  0  0  0  0  0  0  0  0  0
   -5.4160   17.0220  -32.4910 H   0  0  0  0  0  0  0  0  0  0  0  0
   -7.3204   17.3438  -34.5214 H   0  0  0  0  0  0  0  0  0  0  0  0
   -8.1343   17.0463  -32.9409 H   0  0  0  0  0  0  0  0  0  0  0  0
   -5.1501   18.9451  -34.2846 H   0  0  0  0  0  0  0  0  0  0  0  0
   -4.4969   21.1901  -33.4257 H   0  0  0  0  0  0  0  0  0  0  0  0
   -7.5114   23.6895  -32.1875 H   0  0  0  0  0  0  0  0  0  0  0  0
   -6.8039   25.8869  -31.2517 H   0  0  0  0  0  0  0  0  0  0  0  0
   -4.6546   26.0904  -30.0093 H   0  0  0  0  0  0  0  0  0  0  0  0
    0.2233   21.0391  -26.9836 H   0  0  0  0  0  0  0  0  0  0  0  0
   -0.6764   21.0110  -28.5381 H   0  0  0  0  0  0  0  0  0  0  0  0
    1.1115   21.1849  -28.5381 H   0  0  0  0  0  0  0  0  0  0  0  0
    1.8519   23.2717  -26.7886 H   0  0  0  0  0  0  0  0  0  0  0  0
    1.5482   25.7550  -26.6649 H   0  0  0  0  0  0  0  0  0  0  0  0
   -0.4611   26.8391  -27.7358 H   0  0  0  0  0  0  0  0  0  0  0  0
   -3.8877   21.8762  -30.6544 H   0  0  0  0  0  0  0  0  0  0  0  0
   -7.9407   21.1823  -30.7954 H   0  0  0  0  0  0  0  0  0  0  0  0
   -8.5750   18.9255  -31.6341 H   0  0  0  0  0  0  0  0  0  0  0  0
  1  2  1  0
  2  3  1  0
  3  4  1  0
  4  5  1  0
  5  6  1  0
  6  7  1  0
  7  8  1  0
  8  9  2  0
  9 10  1  0
 10 11  2  0
 11 12  1  0
 12 13  2  0
 13 14  1  0
 14 15  2  0
 15 16  1  0
 16 17  1  0
 17 18  2  0
 18 19  1  0
 19 20  2  0
 20 21  1  0
 20 22  1  0
 22 23  2  0
 23 24  1  0
 24 25  2  0
 25 26  1  0
 16 27  2  0
 11 28  1  0
 28 29  2  0
 29  8  1  0
 27 12  1  0
 26 17  1  0
 25 19  1  0
  1 30  1  0
  1 31  1  0
  1 32  1  0
  2 33  1  0
  2 34  1  0
  3 35  1  0
  4 36  1  0
  4 37  1  0
  5 38  1  0
  5 39  1  0
  6 40  1  0
  7 41  1  0
  7 42  1  0
  9 43  1  0
 10 44  1  0
 13 45  1  0
 14 46  1  0
 15 47  1  0
 21 48  1  0
 21 49  1  0
 21 50  1  0
 22 51  1  0
 23 52  1  0
 24 53  1  0
 27 54  1  0
 28 55  1  0
 29 56  1  0
M  CHG  1  26  -1
M  END
>  <UniqueID>  (19) 
19

>  <SMILES>  (19) 
CCNCCNCc1ccc(-c2cccc(-c3nc4c(C)cccc4[n-]3)c2)cc1

>  <Energy>  (19) 
93.76926058260064

>  <Genealogy>  (19) 
CCNCCNCc1ccc(-c2cccc(-c3nc4c(C)cccc4[n-]3)c2)cc1 (protonated)
CCNCCNCc1ccc(-c2cccc(-c3nc4c(C)cccc4[n-]3)c2)cc1 (3D coordinates assigned)
CCNCCNCc1ccc(-c2cccc(-c3nc4c(C)cccc4[n-]3)c2)cc1 (optimized conformer: 93.76926058260064 kcal/mol)

>  <smiles>  (19) 
CCNCCNCc1ccc(-c2cccc(-c3nc4c(C)cccc4[nH]3)c2)cc1

>  <score_type>  (19) 
oracle

>  <origin>  (19) 
adg

>  <m_score__min__energy>  (19) 
-9.8300000000000001

>  <m_primary>  (19) 
energy

$$$$
19:0
     RDKit          3D

 77 79  0  0  0  0  0  0  0  0999 V2000
   -1.2040   25.4640  -28.0620 C   0  0  0  0  0  0  0  0  0  0  0  0
   -2.5840   24.7970  -27.9530 C   0  0  0  0  0  0  0  0  0  0  0  0
   -3.1510   24.3480  -29.2490 N   0  0  0  0  0  0  0  0  0  0  0  0
   -4.6230   24.1810  -29.1930 C   0  0  0  0  0  0  0  0  0  0  0  0
   -5.2890   25.1980  -30.1130 C   0  0  0  0  0  0  0  0  0  0  0  0
   -2.4760   23.1760  -29.8540 C   0  0  0  0  0  0  0  0  0  0  0  0
   -3.0880   22.8010  -31.2130 C   0  0  0  0  0  0  0  0  0  0  0  0
   -2.1920   21.8130  -31.9700 C   0  0  0  0  0  0  0  0  0  0  0  0
   -2.8340   21.3680  -33.2080 N   0  0  0  0  0  0  0  0  0  0  0  0
   -3.6640   20.1980  -33.2200 C   0  0  0  0  0  0  0  0  0  0  0  0
   -5.0260   20.3280  -32.8830 C   0  0  0  0  0  0  0  0  0  0  0  0
   -5.5380   21.5240  -32.3330 C   0  0  0  0  0  0  0  0  0  0  0  0
   -6.8970   21.6520  -32.0530 C   0  0  0  0  0  0  0  0  0  0  0  0
   -7.7660   20.5950  -32.3070 C   0  0  0  0  0  0  0  0  0  0  0  0
   -9.4750   20.7560  -31.9360 Cl  0  0  0  0  0  0  0  0  0  0  0  0
   -7.2770   19.4010  -32.8400 C   0  0  0  0  0  0  0  0  0  0  0  0
   -5.9000   19.2470  -33.1290 C   0  0  0  0  0  0  0  0  0  0  0  0
   -5.4070   18.0770  -33.6530 N   0  0  0  0  0  0  0  0  0  0  0  0
   -6.2930   17.2510  -34.4960 C   0  0  0  0  0  0  0  0  0  0  0  0
   -4.0520   17.8150  -33.6000 C   0  0  0  0  0  0  0  0  0  0  0  0
   -3.1410   18.9120  -33.5230 C   0  0  0  0  0  0  0  0  0  0  0  0
   -1.7550   18.6510  -33.7230 C   0  0  0  0  0  0  0  0  0  0  0  0
   -0.7500   19.6790  -33.6730 N   0  0  0  0  0  0  0  0  0  0  0  0
    0.1520   19.7200  -32.5200 C   0  0  0  0  0  0  0  0  0  0  0  0
   -0.4710   20.4950  -34.8660 C   0  0  0  0  0  0  0  0  0  0  0  0
    1.0170   20.8630  -34.9980 C   0  0  0  0  0  0  0  0  0  0  0  0
    1.2190   22.3250  -34.9590 N   0  0  0  0  0  0  0  0  0  0  0  0
    2.5980   22.6820  -35.3360 C   0  0  0  0  0  0  0  0  0  0  0  0
    0.2740   22.9990  -35.8640 C   0  0  0  0  0  0  0  0  0  0  0  0
   -1.3280   17.3360  -33.8920 C   0  0  0  0  0  0  0  0  0  0  0  0
   -2.2290   16.2890  -33.8020 C   0  0  0  0  0  0  0  0  0  0  0  0
   -3.5600   16.5190  -33.6000 N   0  0  0  0  0  0  0  0  0  0  0  0
   -4.3390   15.3770  -33.0680 C   0  0  0  0  0  0  0  0  0  0  0  0
   -3.4620   14.3570  -32.3350 C   0  0  0  0  0  0  0  0  0  0  0  0
   -0.8085   25.6552  -27.0535 H   0  0  0  0  0  0  0  0  0  0  0  0
   -0.5170   24.7985  -28.6052 H   0  0  0  0  0  0  0  0  0  0  0  0
   -1.2987   26.4158  -28.6052 H   0  0  0  0  0  0  0  0  0  0  0  0
   -2.4915   23.9200  -27.2955 H   0  0  0  0  0  0  0  0  0  0  0  0
   -3.2710   25.5591  -27.5565 H   0  0  0  0  0  0  0  0  0  0  0  0
   -4.8886   23.1643  -29.5182 H   0  0  0  0  0  0  0  0  0  0  0  0
   -4.9695   24.3402  -28.1612 H   0  0  0  0  0  0  0  0  0  0  0  0
   -5.7920   25.9662  -29.5073 H   0  0  0  0  0  0  0  0  0  0  0  0
   -4.5264   25.6729  -30.7478 H   0  0  0  0  0  0  0  0  0  0  0  0
   -6.0291   24.6888  -30.7478 H   0  0  0  0  0  0  0  0  0  0  0  0
   -1.4114   23.4131  -29.9966 H   0  0  0  0  0  0  0  0  0  0  0  0
   -2.6040   22.3204  -29.1746 H   0  0  0  0  0  0  0  0  0  0  0  0
   -4.0726   22.3390  -31.0481 H   0  0  0  0  0  0  0  0  0  0  0  0
   -3.1855   23.7159  -31.8159 H   0  0  0  0  0  0  0  0  0  0  0  0
   -1.2396   22.3057  -32.2152 H   0  0  0  0  0  0  0  0  0  0  0  0
   -2.0173   20.9357  -31.3299 H   0  0  0  0  0  0  0  0  0  0  0  0
   -2.5620   21.7900  -34.1240 H   0  0  0  0  0  0  0  0  0  0  0  0
   -4.8574   22.3624  -32.1237 H   0  0  0  0  0  0  0  0  0  0  0  0
   -7.2840   22.5909  -31.6301 H   0  0  0  0  0  0  0  0  0  0  0  0
   -7.9701   18.5700  -33.0377 H   0  0  0  0  0  0  0  0  0  0  0  0
   -6.9464   16.6418  -33.8542 H   0  0  0  0  0  0  0  0  0  0  0  0
   -6.9089   17.9047  -35.1311 H   0  0  0  0  0  0  0  0  0  0  0  0
   -5.6840   16.5908  -35.1311 H   0  0  0  0  0  0  0  0  0  0  0  0
   -0.4378   19.6932  -31.5919 H   0  0  0  0  0  0  0  0  0  0  0  0
    0.8265   18.8516  -32.5510 H   0  0  0  0  0  0  0  0  0  0  0  0
    0.7449   20.6460  -32.5510 H   0  0  0  0  0  0  0  0  0  0  0  0
   -0.7741   19.9284  -35.7588 H   0  0  0  0  0  0  0  0  0  0  0  0
   -1.0380   21.4325  -34.7677 H   0  0  0  0  0  0  0  0  0  0  0  0
    1.5738   20.4031  -34.1682 H   0  0  0  0  0  0  0  0  0  0  0  0
    1.3797   20.4905  -35.9674 H   0  0  0  0  0  0  0  0  0  0  0  0
    3.1980   22.8373  -34.4272 H   0  0  0  0  0  0  0  0  0  0  0  0
    3.0378   21.8681  -35.9311 H   0  0  0  0  0  0  0  0  0  0  0  0
    2.5876   23.6071  -35.9311 H   0  0  0  0  0  0  0  0  0  0  0  0
   -0.4806   23.5372  -35.2716 H   0  0  0  0  0  0  0  0  0  0  0  0
    0.8197   23.7130  -36.4984 H   0  0  0  0  0  0  0  0  0  0  0  0
   -0.2234   22.2506  -36.4984 H   0  0  0  0  0  0  0  0  0  0  0  0
   -0.2677   17.1281  -34.0984 H   0  0  0  0  0  0  0  0  0  0  0  0
   -1.8669   15.2544  -33.8947 H   0  0  0  0  0  0  0  0  0  0  0  0
   -5.0938   15.7616  -32.3663 H   0  0  0  0  0  0  0  0  0  0  0  0
   -4.8042   14.8638  -33.9225 H   0  0  0  0  0  0  0  0  0  0  0  0
   -3.5756   14.4891  -31.2489 H   0  0  0  0  0  0  0  0  0  0  0  0
   -3.7714   13.3392  -32.6149 H   0  0  0  0  0  0  0  0  0  0  0  0
   -2.4093   14.5103  -32.6149 H   0  0  0  0  0  0  0  0  0  0  0  0
  1  2  1  0
  2  3  1  0
  3  4  1  0
  4  5  1  0
  3  6  1  0
  6  7  1  0
  7  8  1  0
  8  9  1  0
  9 10  1  0
 10 11  2  0
 11 12  1  0
 12 13  2  0
 13 14  1  0
 14 15  1  0
 14 16  2  0
 16 17  1  0
 17 18  2  0
 18 19  1  0
 18 20  1  0
 20 21  2  0
 21 22  1  0
 22 23  1  0
 23 24  1  0
 23 25  1  0
 25 26  1  0
 26 27  1  0
 27 28  1  0
 27 29  1  0
 22 30  2  0
 30 31  1  0
 31 32  2  0
 32 33  1  0
 33 34  1  0
 21 10  1  0
 17 11  1  0
 32 20  1  0
  1 35  1  0
  1 36  1  0
  1 37  1  0
  2 38  1  0
  2 39  1  0
  4 40  1  0
  4 41  1  0
  5 42  1  0
  5 43  1  0
  5 44  1  0
  6 45  1  0
  6 46  1  0
  7 47  1  0
  7 48  1  0
  8 49  1  0
  8 50  1  0
  9 51  1  0
 12 52  1  0
 13 53  1  0
 16 54  1  0
 19 55  1  0
 19 56  1  0
 19 57  1  0
 24 58  1  0
 24 59  1  0
 24 60  1  0
 25 61  1  0
 25 62  1  0
 26 63  1  0
 26 64  1  0
 28 65  1  0
 28 66  1  0
 28 67  1  0
 29 68  1  0
 29 69  1  0
 29 70  1  0
 30 71  1  0
 31 72  1  0
 33 73  1  0
 33 74  1  0
 34 75  1  0
 34 76  1  0
 34 77  1  0
M  CHG  2  18   1  32   1
M  END
>  <UniqueID>  (20) 
20

>  <SMILES>  (20) 
CCN(CC)CCCNc1c2ccc(Cl)cc2[n+](C)c2c1c(N(C)CCN(C)C)cc[n+]2CC

>  <Energy>  (20) 
123.34207890248122

>  <Genealogy>  (20) 
CCN(CC)CCCNc1c2ccc(Cl)cc2[n+](C)c2c1c(N(C)CCN(C)C)cc[n+]2CC (3D coordinates assigned)
CCN(CC)CCCNc1c2ccc(Cl)cc2[n+](C)c2c1c(N(C)CCN(C)C)cc[n+]2CC (optimized conformer: 123.34207890248122 kcal/mol)

>  <smiles>  (20) 
CCN(CC)CCCNc1c2ccc(Cl)cc2[n+](C)c2c1c(N(C)CCN(C)C)cc[n+]2CC

>  <score_type>  (20) 
oracle

>  <origin>  (20) 
adg

>  <m_score__min__energy>  (20) 
-8.2599999999999998

>  <m_primary>  (20) 
energy

$$$$
20:0
     RDKit          3D

 42 44  0  0  0  0  0  0  0  0999 V2000
   -4.0270   24.9060  -26.4170 C   0  0  0  0  0  0  0  0  0  0  0  0
   -2.6140   25.4880  -26.3460 C   0  0  0  0  0  0  0  0  0  0  0  0
   -1.5500   24.5490  -26.7590 N   0  0  0  0  0  0  0  0  0  0  0  0
   -0.4500   24.3330  -25.7920 C   0  0  0  0  0  0  0  0  0  0  0  0
   -0.4330   22.9450  -25.1360 C   0  0  0  0  0  0  0  0  0  0  0  0
   -1.0850   24.6560  -28.4430 S   0  0  0  0  0  0  0  0  0  0  0  0
   -1.2470   26.0620  -28.9530 O   0  0  0  0  0  0  0  0  0  0  0  0
    0.3570   24.2580  -28.5920 O   0  0  0  0  0  0  0  0  0  0  0  0
   -2.0700   23.5610  -29.4070 C   0  0  0  0  0  0  0  0  0  0  0  0
   -1.4580   22.6250  -30.2800 C   0  0  0  0  0  0  0  0  0  0  0  0
   -2.2430   21.7620  -31.0690 C   0  0  0  0  0  0  0  0  0  0  0  0
   -3.6250   21.8690  -30.9580 C   0  0  0  0  0  0  0  0  0  0  0  0
   -4.5560   21.1890  -31.5790 O   0  0  0  0  0  0  0  0  0  0  0  0
   -5.7140   21.6590  -31.1400 C   0  0  0  0  0  0  0  0  0  0  0  0
   -7.0240   21.1460  -31.6060 C   0  0  0  0  0  0  0  0  0  0  0  0
   -8.1980   21.9180  -31.5090 C   0  0  0  0  0  0  0  0  0  0  0  0
   -9.4190   21.4070  -31.9580 C   0  0  0  0  0  0  0  0  0  0  0  0
   -9.4850   20.1250  -32.5070 C   0  0  0  0  0  0  0  0  0  0  0  0
   -8.3280   19.3500  -32.6080 C   0  0  0  0  0  0  0  0  0  0  0  0
   -7.1040   19.8560  -32.1620 C   0  0  0  0  0  0  0  0  0  0  0  0
   -5.5490   22.6530  -30.2250 N   0  0  0  0  0  0  0  0  0  0  0  0
   -4.2170   22.7680  -30.1250 C   0  0  0  0  0  0  0  0  0  0  0  0
   -3.4770   23.6390  -29.3300 C   0  0  0  0  0  0  0  0  0  0  0  0
   -4.4102   24.7482  -25.3980 H   0  0  0  0  0  0  0  0  0  0  0  0
   -4.6855   25.6061  -26.9520 H   0  0  0  0  0  0  0  0  0  0  0  0
   -4.0014   23.9452  -26.9520 H   0  0  0  0  0  0  0  0  0  0  0  0
   -2.5705   26.3691  -27.0031 H   0  0  0  0  0  0  0  0  0  0  0  0
   -2.4262   25.7336  -25.2903 H   0  0  0  0  0  0  0  0  0  0  0  0
    0.5038   24.4728  -26.3218 H   0  0  0  0  0  0  0  0  0  0  0  0
   -0.6052   25.0578  -24.9793 H   0  0  0  0  0  0  0  0  0  0  0  0
   -0.4344   23.0566  -24.0417 H   0  0  0  0  0  0  0  0  0  0  0  0
   -1.3243   22.3810  -25.4482 H   0  0  0  0  0  0  0  0  0  0  0  0
    0.4719   22.4030  -25.4482 H   0  0  0  0  0  0  0  0  0  0  0  0
   -0.3609   22.5729  -30.3412 H   0  0  0  0  0  0  0  0  0  0  0  0
   -1.7801   21.0305  -31.7478 H   0  0  0  0  0  0  0  0  0  0  0  0
   -8.1537   22.9288  -31.0774 H   0  0  0  0  0  0  0  0  0  0  0  0
  -10.3310   22.0169  -31.8786 H   0  0  0  0  0  0  0  0  0  0  0  0
  -10.4475   19.7259  -32.8596 H   0  0  0  0  0  0  0  0  0  0  0  0
   -8.3800   18.3394  -33.0394 H   0  0  0  0  0  0  0  0  0  0  0  0
   -6.1960   19.2409  -32.2463 H   0  0  0  0  0  0  0  0  0  0  0  0
   -6.2670   23.2080  -29.7100 H   0  0  0  0  0  0  0  0  0  0  0  0
   -3.9716   24.3625  -28.6652 H   0  0  0  0  0  0  0  0  0  0  0  0
  1  2  1  0
  2  3  1  0
  3  4  1  0
  4  5  1  0
  3  6  1  0
  6  7  2  0
  6  8  2  0
  6  9  1  0
  9 10  2  0
 10 11  1  0
 11 12  2  0
 12 13  1  0
 13 14  1  0
 14 15  1  0
 15 16  2  0
 16 17  1  0
 17 18  2  0
 18 19  1  0
 19 20  2  0
 14 21  2  0
 21 22  1  0
 22 23  2  0
 23  9  1  0
 22 12  1  0
 20 15  1  0
  1 24  1  0
  1 25  1  0
  1 26  1  0
  2 27  1  0
  2 28  1  0
  4 29  1  0
  4 30  1  0
  5 31  1  0
  5 32  1  0
  5 33  1  0
 10 34  1  0
 11 35  1  0
 16 36  1  0
 17 37  1  0
 18 38  1  0
 19 39  1  0
 20 40  1  0
 21 41  1  0
 23 42  1  0
M  CHG  1  21   1
M  END
>  <UniqueID>  (21) 
21

>  <SMILES>  (21) 
CCN(CC)S(=O)(=O)c1ccc2oc(-c3ccccc3)[nH+]c2c1

>  <Energy>  (21) 
89.60533295353211

>  <Genealogy>  (21) 
CCN(CC)S(=O)(=O)c1ccc2oc(-c3ccccc3)[nH+]c2c1 (protonated)
CCN(CC)S(=O)(=O)c1ccc2oc(-c3ccccc3)[nH+]c2c1 (3D coordinates assigned)
CCN(CC)S(=O)(=O)c1ccc2oc(-c3ccccc3)[nH+]c2c1 (optimized conformer: 89.60533295353211 kcal/mol)

>  <smiles>  (21) 
CCN(CC)S(=O)(=O)c1ccc2oc(-c3ccccc3)nc2c1

>  <score_type>  (21) 
oracle

>  <origin>  (21) 
adg

>  <m_score__min__energy>  (21) 
-7.3899999999999997

>  <m_primary>  (21) 
energy

$$$$
21:0
     RDKit          3D

 46 48  0  0  0  0  0  0  0  0999 V2000
   -4.1710   15.1230  -34.5270 C   0  0  0  0  0  0  0  0  0  0  0  0
   -4.5860   16.5170  -34.4420 N   0  0  0  0  0  0  0  0  0  0  0  0
   -4.6110   17.3740  -35.4450 N   0  0  0  0  0  0  0  0  0  0  0  0
   -5.1360   18.5190  -35.0380 N   0  0  0  0  0  0  0  0  0  0  0  0
   -5.4760   18.4190  -33.7580 N   0  0  0  0  0  0  0  0  0  0  0  0
   -5.1350   17.1650  -33.4010 C   0  0  0  0  0  0  0  0  0  0  0  0
   -5.4170   16.4680  -31.7740 S   0  0  0  0  0  0  0  0  0  0  0  0
   -6.7550   17.6440  -31.3780 C   0  0  0  0  0  0  0  0  0  0  0  0
   -7.9120   17.4980  -32.3660 C   0  0  0  0  0  0  0  0  0  0  0  0
   -9.1400   18.0750  -31.8040 N   0  0  0  0  0  0  0  0  0  0  0  0
   -9.4720   19.3670  -32.4230 C   0  0  0  0  0  0  0  0  0  0  0  0
   -8.4520   20.4320  -32.0950 C   0  0  0  0  0  0  0  0  0  0  0  0
   -7.3150   20.6010  -32.9000 C   0  0  0  0  0  0  0  0  0  0  0  0
   -6.3600   21.5700  -32.5790 C   0  0  0  0  0  0  0  0  0  0  0  0
   -6.5240   22.3800  -31.4440 C   0  0  0  0  0  0  0  0  0  0  0  0
   -5.5320   23.3700  -31.1140 N   0  0  0  0  0  0  0  0  0  0  0  0
   -5.8310   24.7960  -31.2790 C   0  0  0  0  0  0  0  0  0  0  0  0
   -4.9650   25.6200  -30.3240 C   0  0  0  0  0  0  0  0  0  0  0  0
   -3.5970   25.2860  -30.4740 O   0  0  0  0  0  0  0  0  0  0  0  0
   -3.3850   23.9460  -30.0740 C   0  0  0  0  0  0  0  0  0  0  0  0
   -4.1240   22.9760  -31.0020 C   0  0  0  0  0  0  0  0  0  0  0  0
   -7.6580   22.2030  -30.6330 C   0  0  0  0  0  0  0  0  0  0  0  0
   -8.6160   21.2380  -30.9580 C   0  0  0  0  0  0  0  0  0  0  0  0
   -4.0493   14.7142  -33.5131 H   0  0  0  0  0  0  0  0  0  0  0  0
   -4.9360   14.5449  -35.0661 H   0  0  0  0  0  0  0  0  0  0  0  0
   -3.2144   15.0574  -35.0661 H   0  0  0  0  0  0  0  0  0  0  0  0
   -4.2790   17.1820  -36.4160 H   0  0  0  0  0  0  0  0  0  0  0  0
   -7.1217   17.4445  -30.3603 H   0  0  0  0  0  0  0  0  0  0  0  0
   -6.3582   18.6676  -31.4466 H   0  0  0  0  0  0  0  0  0  0  0  0
   -7.6597   18.0217  -33.2998 H   0  0  0  0  0  0  0  0  0  0  0  0
   -8.0785   16.4292  -32.5656 H   0  0  0  0  0  0  0  0  0  0  0  0
   -9.0120   18.2090  -30.7720 H   0  0  0  0  0  0  0  0  0  0  0  0
   -9.5116   19.2377  -33.5147 H   0  0  0  0  0  0  0  0  0  0  0  0
  -10.4438   19.6941  -32.0248 H   0  0  0  0  0  0  0  0  0  0  0  0
   -7.1745   19.9676  -33.7883 H   0  0  0  0  0  0  0  0  0  0  0  0
   -5.4749   21.6986  -33.2193 H   0  0  0  0  0  0  0  0  0  0  0  0
   -5.6188   25.0962  -32.3158 H   0  0  0  0  0  0  0  0  0  0  0  0
   -6.8926   24.9736  -31.0521 H   0  0  0  0  0  0  0  0  0  0  0  0
   -5.1018   26.6891  -30.5439 H   0  0  0  0  0  0  0  0  0  0  0  0
   -5.2712   25.4006  -29.2905 H   0  0  0  0  0  0  0  0  0  0  0  0
   -2.3077   23.7262  -30.1071 H   0  0  0  0  0  0  0  0  0  0  0  0
   -3.7713   23.8185  -29.0520 H   0  0  0  0  0  0  0  0  0  0  0  0
   -3.6584   22.9979  -31.9984 H   0  0  0  0  0  0  0  0  0  0  0  0
   -4.0636   21.9593  -30.5865 H   0  0  0  0  0  0  0  0  0  0  0  0
   -7.7926   22.8273  -29.7374 H   0  0  0  0  0  0  0  0  0  0  0  0
   -9.5025   21.1099  -30.3195 H   0  0  0  0  0  0  0  0  0  0  0  0
  1  2  1  0
  2  3  1  0
  3  4  2  0
  4  5  1  0
  5  6  2  0
  6  7  1  0
  7  8  1  0
  8  9  1  0
  9 10  1  0
 10 11  1  0
 11 12  1  0
 12 13  2  0
 13 14  1  0
 14 15  2  0
 15 16  1  0
 16 17  1  0
 17 18  1  0
 18 19  1  0
 19 20  1  0
 20 21  1  0
 15 22  1  0
 22 23  2  0
  6  2  1  0
 23 12  1  0
 21 16  1  0
  1 24  1  0
  1 25  1  0
  1 26  1  0
  3 27  1  0
  8 28  1  0
  8 29  1  0
  9 30  1  0
  9 31  1  0
 10 32  1  0
 11 33  1  0
 11 34  1  0
 13 35  1  0
 14 36  1  0
 17 37  1  0
 17 38  1  0
 18 39  1  0
 18 40  1  0
 20 41  1  0
 20 42  1  0
 21 43  1  0
 21 44  1  0
 22 45  1  0
 23 46  1  0
M  CHG  1   3   1
M  END
>  <UniqueID>  (22) 
22

>  <SMILES>  (22) 
Cn1[nH+]nnc1SCCNCc1ccc(N2CCOCC2)cc1

>  <Energy>  (22) 
85.40925445950198

>  <Genealogy>  (22) 
Cn1[nH+]nnc1SCCNCc1ccc(N2CCOCC2)cc1 (protonated)
Cn1[nH+]nnc1SCCNCc1ccc(N2CCOCC2)cc1 (3D coordinates assigned)
Cn1[nH+]nnc1SCCNCc1ccc(N2CCOCC2)cc1 (nonaromatic ring conformer: 85.40925445950198 kcal/mol)

>  <smiles>  (22) 
Cn1nnnc1SCCNCc1ccc(N2CCOCC2)cc1

>  <score_type>  (22) 
oracle

>  <origin>  (22) 
adg

>  <m_score__min__energy>  (22) 
-8.3399999999999999

>  <m_primary>  (22) 
energy

$$$$
22:0
     RDKit          3D

108111  0  0  0  0  0  0  0  0999 V2000
    1.0800   28.8410  -23.9400 C   0  0  0  0  0  0  0  0  0  0  0  0
    1.3030   27.6120  -23.0550 C   0  0  0  0  0  0  0  0  0  0  0  0
    0.6820   26.3780  -23.6090 N   0  0  0  0  0  0  0  0  0  0  0  0
   -0.8060   26.3910  -23.4900 C   0  0  0  0  0  0  0  0  0  0  0  0
   -1.5620   26.4370  -24.8270 C   0  0  0  0  0  0  0  0  0  0  0  0
    1.1610   26.1770  -25.0060 C   0  0  0  0  0  0  0  0  0  0  0  0
    1.9340   24.8600  -25.2120 C   0  0  0  0  0  0  0  0  0  0  0  0
    1.8120   24.0030  -24.0920 O   0  0  0  0  0  0  0  0  0  0  0  0
    0.7060   23.1340  -24.2260 C   0  0  0  0  0  0  0  0  0  0  0  0
    0.5610   22.6820  -25.6770 C   0  0  0  0  0  0  0  0  0  0  0  0
   -0.7750   22.5850  -26.1200 O   0  0  0  0  0  0  0  0  0  0  0  0
   -1.2400   23.7410  -26.7910 C   0  0  0  0  0  0  0  0  0  0  0  0
   -0.2740   24.3120  -27.8310 C   0  0  0  0  0  0  0  0  0  0  0  0
   -0.9990   24.9010  -28.8950 O   0  0  0  0  0  0  0  0  0  0  0  0
   -2.2940   25.2730  -28.4720 C   0  0  0  0  0  0  0  0  0  0  0  0
   -3.3990   24.3910  -29.0640 C   0  0  0  0  0  0  0  0  0  0  0  0
   -3.4880   24.5540  -30.4630 O   0  0  0  0  0  0  0  0  0  0  0  0
   -3.6240   23.3040  -31.1190 C   0  0  0  0  0  0  0  0  0  0  0  0
   -5.1070   23.0480  -31.3180 C   0  0  0  0  0  0  0  0  0  0  0  0
   -5.3940   22.5840  -32.6760 N   0  0  0  0  0  0  0  0  0  0  0  0
   -5.5300   21.1870  -32.9770 C   0  0  0  0  0  0  0  0  0  0  0  0
   -6.7440   20.5410  -32.6880 C   0  0  0  0  0  0  0  0  0  0  0  0
   -7.7770   21.2330  -32.0320 C   0  0  0  0  0  0  0  0  0  0  0  0
   -8.9290   20.5690  -31.6190 C   0  0  0  0  0  0  0  0  0  0  0  0
   -9.1070   19.2240  -31.9130 C   0  0  0  0  0  0  0  0  0  0  0  0
   -8.1340   18.5340  -32.6150 C   0  0  0  0  0  0  0  0  0  0  0  0
   -6.8910   19.1470  -32.9580 C   0  0  0  0  0  0  0  0  0  0  0  0
   -5.8510   18.4490  -33.5170 N   0  0  0  0  0  0  0  0  0  0  0  0
   -6.0110   17.0340  -33.9570 C   0  0  0  0  0  0  0  0  0  0  0  0
   -4.5720   18.9930  -33.4900 C   0  0  0  0  0  0  0  0  0  0  0  0
   -3.4150   18.1750  -33.5720 C   0  0  0  0  0  0  0  0  0  0  0  0
   -2.1420   18.7040  -33.3320 C   0  0  0  0  0  0  0  0  0  0  0  0
   -1.0740   17.8210  -33.1790 O   0  0  0  0  0  0  0  0  0  0  0  0
   -0.8620   16.8010  -34.1370 C   0  0  0  0  0  0  0  0  0  0  0  0
   -1.9680   20.0670  -33.1850 C   0  0  0  0  0  0  0  0  0  0  0  0
   -0.6730   20.5570  -32.9990 O   0  0  0  0  0  0  0  0  0  0  0  0
    0.2190   20.1660  -31.9650 C   0  0  0  0  0  0  0  0  0  0  0  0
   -0.5850   19.6370  -30.7410 C   0  0  0  0  0  0  0  0  0  0  0  0
   -0.9500   20.6270  -29.6670 N   0  0  0  0  0  0  0  0  0  0  0  0
   -0.5830   22.0290  -30.0860 C   0  0  0  0  0  0  0  0  0  0  0  0
   -0.2550   20.2760  -28.3660 C   0  0  0  0  0  0  0  0  0  0  0  0
   -1.0720   19.3310  -27.4700 C   0  0  0  0  0  0  0  0  0  0  0  0
   -2.4100   19.9900  -27.0770 C   0  0  0  0  0  0  0  0  0  0  0  0
   -2.9150   20.9920  -28.1410 C   0  0  0  0  0  0  0  0  0  0  0  0
   -2.4430   20.5400  -29.5180 C   0  0  0  0  0  0  0  0  0  0  0  0
   -3.0890   20.9220  -33.1820 C   0  0  0  0  0  0  0  0  0  0  0  0
   -4.4040   20.3810  -33.2560 C   0  0  0  0  0  0  0  0  0  0  0  0
    0.9195   29.7253  -23.3058 H   0  0  0  0  0  0  0  0  0  0  0  0
    1.9638   29.0008  -24.5751 H   0  0  0  0  0  0  0  0  0  0  0  0
    0.1964   28.6801  -24.5751 H   0  0  0  0  0  0  0  0  0  0  0  0
    2.3854   27.4447  -22.9532 H   0  0  0  0  0  0  0  0  0  0  0  0
    0.8265   27.8138  -22.0843 H   0  0  0  0  0  0  0  0  0  0  0  0
    1.0400   25.5600  -23.0510 H   0  0  0  0  0  0  0  0  0  0  0  0
   -1.1139   25.4807  -22.9546 H   0  0  0  0  0  0  0  0  0  0  0  0
   -1.0646   27.3181  -22.9575 H   0  0  0  0  0  0  0  0  0  0  0  0
   -2.6431   26.5028  -24.6348 H   0  0  0  0  0  0  0  0  0  0  0  0
   -1.2375   27.3171  -25.4016 H   0  0  0  0  0  0  0  0  0  0  0  0
   -1.3466   25.5241  -25.4016 H   0  0  0  0  0  0  0  0  0  0  0  0
    0.2883   26.1759  -25.6756 H   0  0  0  0  0  0  0  0  0  0  0  0
    1.8590   26.9977  -25.2279 H   0  0  0  0  0  0  0  0  0  0  0  0
    1.5347   24.3468  -26.0992 H   0  0  0  0  0  0  0  0  0  0  0  0
    2.9986   25.1032  -25.3445 H   0  0  0  0  0  0  0  0  0  0  0  0
    0.8567   22.2531  -23.5847 H   0  0  0  0  0  0  0  0  0  0  0  0
   -0.2073   23.6676  -23.9241 H   0  0  0  0  0  0  0  0  0  0  0  0
    1.0857   23.4056  -26.3182 H   0  0  0  0  0  0  0  0  0  0  0  0
    0.9894   21.6707  -25.7382 H   0  0  0  0  0  0  0  0  0  0  0  0
   -2.1802   23.4853  -27.3015 H   0  0  0  0  0  0  0  0  0  0  0  0
   -1.3609   24.5178  -26.0216 H   0  0  0  0  0  0  0  0  0  0  0  0
    0.3616   25.0747  -27.3574 H   0  0  0  0  0  0  0  0  0  0  0  0
    0.3511   23.4984  -28.2275 H   0  0  0  0  0  0  0  0  0  0  0  0
   -2.3381   25.1998  -27.3753 H   0  0  0  0  0  0  0  0  0  0  0  0
   -2.4709   26.2997  -28.8249 H   0  0  0  0  0  0  0  0  0  0  0  0
   -3.1763   23.3375  -28.8390 H   0  0  0  0  0  0  0  0  0  0  0  0
   -4.3590   24.6887  -28.6170 H   0  0  0  0  0  0  0  0  0  0  0  0
   -3.1147   23.3346  -32.0935 H   0  0  0  0  0  0  0  0  0  0  0  0
   -3.1710   22.5016  -30.5182 H   0  0  0  0  0  0  0  0  0  0  0  0
   -5.4367   22.2814  -30.6013 H   0  0  0  0  0  0  0  0  0  0  0  0
   -5.6452   23.9935  -31.1555 H   0  0  0  0  0  0  0  0  0  0  0  0
   -5.7580   23.2790  -33.3770 H   0  0  0  0  0  0  0  0  0  0  0  0
   -7.6740   22.3117  -31.8428 H   0  0  0  0  0  0  0  0  0  0  0  0
   -9.7022   21.1131  -31.0567 H   0  0  0  0  0  0  0  0  0  0  0  0
  -10.0216   18.7065  -31.5879 H   0  0  0  0  0  0  0  0  0  0  0  0
   -8.3221   17.4925  -32.9147 H   0  0  0  0  0  0  0  0  0  0  0  0
   -6.0848   16.3817  -33.0744 H   0  0  0  0  0  0  0  0  0  0  0  0
   -6.9256   16.9389  -34.5607 H   0  0  0  0  0  0  0  0  0  0  0  0
   -5.1407   16.7371  -34.5607 H   0  0  0  0  0  0  0  0  0  0  0  0
   -3.5205   17.1104  -33.8278 H   0  0  0  0  0  0  0  0  0  0  0  0
   -0.6642   15.8494  -33.6218 H   0  0  0  0  0  0  0  0  0  0  0  0
   -1.7579   16.6976  -34.7669 H   0  0  0  0  0  0  0  0  0  0  0  0
    0.0009   17.0632  -34.7669 H   0  0  0  0  0  0  0  0  0  0  0  0
    0.8818   19.3708  -32.3369 H   0  0  0  0  0  0  0  0  0  0  0  0
    0.8174   21.0357  -31.6558 H   0  0  0  0  0  0  0  0  0  0  0  0
   -1.5219   19.2062  -31.1238 H   0  0  0  0  0  0  0  0  0  0  0  0
    0.0934   18.9259  -30.2470 H   0  0  0  0  0  0  0  0  0  0  0  0
   -0.4209   22.6484  -29.1916 H   0  0  0  0  0  0  0  0  0  0  0  0
    0.3386   22.0030  -30.6860 H   0  0  0  0  0  0  0  0  0  0  0  0
   -1.3991   22.4579  -30.6860 H   0  0  0  0  0  0  0  0  0  0  0  0
    0.7027   19.7897  -28.6031 H   0  0  0  0  0  0  0  0  0  0  0  0
   -0.1195   21.2143  -27.8081 H   0  0  0  0  0  0  0  0  0  0  0  0
   -1.2737   18.3975  -28.0158 H   0  0  0  0  0  0  0  0  0  0  0  0
   -0.4967   19.1169  -26.5572 H   0  0  0  0  0  0  0  0  0  0  0  0
   -3.1664   19.2018  -26.9484 H   0  0  0  0  0  0  0  0  0  0  0  0
   -2.2443   20.5497  -26.1446 H   0  0  0  0  0  0  0  0  0  0  0  0
   -4.0143   21.0264  -28.1217 H   0  0  0  0  0  0  0  0  0  0  0  0
   -2.5166   21.9941  -27.9240 H   0  0  0  0  0  0  0  0  0  0  0  0
   -2.7536   19.4963  -29.6733 H   0  0  0  0  0  0  0  0  0  0  0  0
   -2.8949   21.2094  -30.2648 H   0  0  0  0  0  0  0  0  0  0  0  0
   -2.9472   22.0112  -33.1223 H   0  0  0  0  0  0  0  0  0  0  0  0
  1  2  1  0
  2  3  1  0
  3  4  1  0
  4  5  1  0
  3  6  1  0
  6  7  1  0
  7  8  1  0
  8  9  1  0
  9 10  1  0
 10 11  1  0
 11 12  1  0
 12 13  1  0
 13 14  1  0
 14 15  1  0
 15 16  1  0
 16 17  1  0
 17 18  1  0
 18 19  1  0
 19 20  1  0
 20 21  1  0
 21 22  2  0
 22 23  1  0
 23 24  2  0
 24 25  1  0
 25 26  2  0
 26 27  1  0
 27 28  2  0
 28 29  1  0
 28 30  1  0
 30 31  2  0
 31 32  1  0
 32 33  1  0
 33 34  1  0
 32 35  2  0
 35 36  1  0
 36 37  1  0
 37 38  1  0
 38 39  1  0
 39 40  1  0
 39 41  1  0
 41 42  1  0
 42 43  1  0
 43 44  1  0
 44 45  1  0
 35 46  1  0
 46 47  2  0
 47 21  1  0
 27 22  1  0
 47 30  1  0
 45 39  1  0
  1 48  1  0
  1 49  1  0
  1 50  1  0
  2 51  1  0
  2 52  1  0
  3 53  1  0
  4 54  1  0
  4 55  1  0
  5 56  1  0
  5 57  1  0
  5 58  1  0
  6 59  1  0
  6 60  1  0
  7 61  1  0
  7 62  1  0
  9 63  1  0
  9 64  1  0
 10 65  1  0
 10 66  1  0
 12 67  1  0
 12 68  1  0
 13 69  1  0
 13 70  1  0
 15 71  1  0
 15 72  1  0
 16 73  1  0
 16 74  1  0
 18 75  1  0
 18 76  1  0
 19 77  1  0
 19 78  1  0
 20 79  1  0
 23 80  1  0
 24 81  1  0
 25 82  1  0
 26 83  1  0
 29 84  1  0
 29 85  1  0
 29 86  1  0
 31 87  1  0
 34 88  1  0
 34 89  1  0
 34 90  1  0
 37 91  1  0
 37 92  1  0
 38 93  1  0
 38 94  1  0
 40 95  1  0
 40 96  1  0
 40 97  1  0
 41 98  1  0
 41 99  1  0
 42100  1  0
 42101  1  0
 43102  1  0
 43103  1  0
 44104  1  0
 44105  1  0
 45106  1  0
 45107  1  0
 46108  1  0
M  CHG  3   3   1  28   1  39   1
M  END
>  <UniqueID>  (23) 
23

>  <SMILES>  (23) 
CC[NH+](CC)CCOCCOCCOCCOCCNc1c2ccccc2[n+](C)c2cc(OC)c(OCC[N+]3(C)CCCCC3)cc12

>  <Energy>  (23) 
185.29871539907387

>  <Genealogy>  (23) 
CC[NH+](CC)CCOCCOCCOCCOCCNc1c2ccccc2[n+](C)c2cc(OC)c(OCC[N+]3(C)CCCCC3)cc12 (protonated)
CC[NH+](CC)CCOCCOCCOCCOCCNc1c2ccccc2[n+](C)c2cc(OC)c(OCC[N+]3(C)CCCCC3)cc12 (3D coordinates assigned)
CC[NH+](CC)CCOCCOCCOCCOCCNc1c2ccccc2[n+](C)c2cc(OC)c(OCC[N+]3(C)CCCCC3)cc12 (nonaromatic ring conformer: 185.29871539907387 kcal/mol)

>  <smiles>  (23) 
CCN(CC)CCOCCOCCOCCOCCNc1c2ccccc2[n+](C)c2cc(OC)c(OCC[N+]3(C)CCCCC3)cc12

>  <score_type>  (23) 
oracle

>  <origin>  (23) 
adg

>  <m_score__min__energy>  (23) 
-9.7699999999999996

>  <m_primary>  (23) 
energy

$$$$
23:0
     RDKit          3D

 51 52  0  0  0  0  0  0  0  0999 V2000
   -0.0970   21.2490  -34.7260 C   0  0  0  0  0  0  0  0  0  0  0  0
   -1.0210   21.1290  -33.5070 C   0  0  0  0  0  0  0  0  0  0  0  0
   -2.4480   20.8660  -33.8260 N   0  0  1  0  0  0  0  0  0  0  0  0
   -2.7710   19.4250  -33.8460 C   0  0  0  0  0  0  0  0  0  0  0  0
   -3.4090   21.7050  -33.0540 C   0  0  0  0  0  0  0  0  0  0  0  0
   -4.4710   20.9250  -32.2470 C   0  0  0  0  0  0  0  0  0  0  0  0
   -5.8050   21.4890  -32.5090 N   0  0  0  0  0  0  0  0  0  0  0  0
   -6.7800   21.0950  -31.4660 C   0  0  1  0  0  0  0  0  0  0  0  0
   -7.7070   22.3090  -31.1430 C   0  0  0  0  0  0  0  0  0  0  0  0
   -9.1510   21.9090  -30.8180 C   0  0  0  0  0  0  0  0  0  0  0  0
   -9.8060   21.1440  -31.9860 C   0  0  0  0  0  0  0  0  0  0  0  0
   -8.8170   20.2500  -32.7630 C   0  0  0  0  0  0  0  0  0  0  0  0
   -7.6190   19.8380  -31.8830 C   0  0  1  0  0  0  0  0  0  0  0  0
   -6.7840   18.7030  -32.4600 C   0  0  0  0  0  0  0  0  0  0  0  0
   -6.4900   18.7050  -33.8350 C   0  0  0  0  0  0  0  0  0  0  0  0
   -5.7620   17.6610  -34.4110 C   0  0  0  0  0  0  0  0  0  0  0  0
   -5.3370   16.5780  -33.6290 C   0  0  0  0  0  0  0  0  0  0  0  0
   -4.5200   15.4780  -34.2390 C   0  0  0  0  0  0  0  0  0  0  0  0
   -5.6230   16.5690  -32.2570 C   0  0  0  0  0  0  0  0  0  0  0  0
   -6.3520   17.6120  -31.6790 C   0  0  0  0  0  0  0  0  0  0  0  0
    0.9409   21.3838  -34.3875 H   0  0  0  0  0  0  0  0  0  0  0  0
   -0.1691   20.3340  -35.3322 H   0  0  0  0  0  0  0  0  0  0  0  0
   -0.4004   22.1153  -35.3322 H   0  0  0  0  0  0  0  0  0  0  0  0
   -0.6535   20.3034  -32.8799 H   0  0  0  0  0  0  0  0  0  0  0  0
   -0.9932   22.1058  -33.0020 H   0  0  0  0  0  0  0  0  0  0  0  0
   -2.5530   21.1750  -34.8230 H   0  0  0  0  0  0  0  0  0  0  0  0
   -2.8543   19.0535  -32.8140 H   0  0  0  0  0  0  0  0  0  0  0  0
   -3.7261   19.2705  -34.3695 H   0  0  0  0  0  0  0  0  0  0  0  0
   -1.9733   18.8776  -34.3695 H   0  0  0  0  0  0  0  0  0  0  0  0
   -2.8314   22.3204  -32.3486 H   0  0  0  0  0  0  0  0  0  0  0  0
   -3.9658   22.2915  -33.7996 H   0  0  0  0  0  0  0  0  0  0  0  0
   -4.4554   19.8672  -32.5485 H   0  0  0  0  0  0  0  0  0  0  0  0
   -4.2453   21.0061  -31.1735 H   0  0  0  0  0  0  0  0  0  0  0  0
   -6.0930   21.0960  -33.4330 H   0  0  0  0  0  0  0  0  0  0  0  0
   -6.2226   20.8086  -30.5620 H   0  0  0  0  0  0  0  0  0  0  0  0
   -7.2907   22.8435  -30.2764 H   0  0  0  0  0  0  0  0  0  0  0  0
   -7.7415   22.9376  -32.0450 H   0  0  0  0  0  0  0  0  0  0  0  0
   -9.1508   21.2657  -29.9257 H   0  0  0  0  0  0  0  0  0  0  0  0
   -9.7303   22.8272  -30.6409 H   0  0  0  0  0  0  0  0  0  0  0  0
  -10.6069   20.5080  -31.5809 H   0  0  0  0  0  0  0  0  0  0  0  0
  -10.1893   21.8951  -32.6923 H   0  0  0  0  0  0  0  0  0  0  0  0
   -9.3422   19.3439  -33.0994 H   0  0  0  0  0  0  0  0  0  0  0  0
   -8.4351   20.8217  -33.6217 H   0  0  0  0  0  0  0  0  0  0  0  0
   -8.0327   19.4020  -30.9617 H   0  0  0  0  0  0  0  0  0  0  0  0
   -6.8371   19.5379  -34.4642 H   0  0  0  0  0  0  0  0  0  0  0  0
   -5.5210   17.6890  -35.4839 H   0  0  0  0  0  0  0  0  0  0  0  0
   -4.0688   14.8705  -33.4407 H   0  0  0  0  0  0  0  0  0  0  0  0
   -5.1670   14.8429  -34.8618 H   0  0  0  0  0  0  0  0  0  0  0  0
   -3.7250   15.9139  -34.8618 H   0  0  0  0  0  0  0  0  0  0  0  0
   -5.2714   15.7356  -31.6310 H   0  0  0  0  0  0  0  0  0  0  0  0
   -6.5906   17.5812  -30.6056 H   0  0  0  0  0  0  0  0  0  0  0  0
  1  2  1  0
  2  3  1  0
  3  4  1  0
  3  5  1  0
  5  6  1  0
  6  7  1  0
  7  8  1  0
  8  9  1  0
  9 10  1  0
 10 11  1  0
 11 12  1  0
 12 13  1  0
 13 14  1  0
 14 15  2  0
 15 16  1  0
 16 17  2  0
 17 18  1  0
 17 19  1  0
 19 20  2  0
 13  8  1  0
 20 14  1  0
  1 21  1  0
  1 22  1  0
  1 23  1  0
  2 24  1  0
  2 25  1  0
  3 26  1  6
  4 27  1  0
  4 28  1  0
  4 29  1  0
  5 30  1  0
  5 31  1  0
  6 32  1  0
  6 33  1  0
  7 34  1  0
  8 35  1  1
  9 36  1  0
  9 37  1  0
 10 38  1  0
 10 39  1  0
 11 40  1  0
 11 41  1  0
 12 42  1  0
 12 43  1  0
 13 44  1  1
 15 45  1  0
 16 46  1  0
 18 47  1  0
 18 48  1  0
 18 49  1  0
 19 50  1  0
 20 51  1  0
M  CHG  1   3   1
M  END
>  <UniqueID>  (24) 
24

>  <SMILES>  (24) 
CC[N@@H+](C)CCN[C@H]1CCCCC1c1ccc(C)cc1

>  <Energy>  (24) 
62.952001109689604

>  <Genealogy>  (24) 
CC[NH+](C)CCNC1CCCCC1c1ccc(C)cc1 (protonated)
CC[N@@H+](C)CCN[C@H]1CCCCC1c1ccc(C)cc1 (chirality)
CC[N@@H+](C)CCN[C@H]1CCCCC1c1ccc(C)cc1 (3D coordinates assigned)
CC[N@@H+](C)CCN[C@H]1CCCCC1c1ccc(C)cc1 (nonaromatic ring conformer: 62.952001109689604 kcal/mol)

>  <smiles>  (24) 
CCN(C)CCNC1CCCCC1c1ccc(C)cc1

>  <score_type>  (24) 
oracle

>  <origin>  (24) 
adg

>  <m_score__min__energy>  (24) 
-6.7400000000000002

>  <m_primary>  (24) 
energy

$$$$
24:0
     RDKit          3D

 37 39  0  0  0  0  0  0  0  0999 V2000
   -4.9081   26.5567  -31.2981 H   0  0  0  0  0  0  0  0  0  0  0  0
   -4.7350   25.5760  -30.8310 C   0  0  0  0  0  0  0  0  0  0  0  0
   -3.5350   25.2980  -30.2660 N   0  0  0  0  0  0  0  0  0  0  0  0
   -3.2600   24.0840  -29.7230 C   0  0  0  0  0  0  0  0  0  0  0  0
   -1.9800   23.8440  -29.2140 C   0  0  0  0  0  0  0  0  0  0  0  0
   -1.2432   24.6600  -29.1775 H   0  0  0  0  0  0  0  0  0  0  0  0
   -1.6340   22.5760  -28.7530 C   0  0  0  0  0  0  0  0  0  0  0  0
   -0.6361   22.4044  -28.3233 H   0  0  0  0  0  0  0  0  0  0  0  0
   -2.5490   21.5170  -28.8330 C   0  0  0  0  0  0  0  0  0  0  0  0
   -2.1590   20.1870  -28.4310 N   0  0  0  0  0  0  0  0  0  0  0  0
   -2.8940   19.5100  -28.7420 H   0  0  0  0  0  0  0  0  0  0  0  0
   -1.2680   19.9030  -28.9020 H   0  0  0  0  0  0  0  0  0  0  0  0
   -2.0140   20.0810  -26.9680 C   0  0  0  0  0  0  0  0  0  0  0  0
   -2.3227   21.0333  -26.5121 H   0  0  0  0  0  0  0  0  0  0  0  0
   -0.9600   19.8539  -26.7502 H   0  0  0  0  0  0  0  0  0  0  0  0
   -2.8670   18.9540  -26.3790 C   0  0  0  0  0  0  0  0  0  0  0  0
   -2.8305   19.0022  -25.2807 H   0  0  0  0  0  0  0  0  0  0  0  0
   -3.9078   19.0671  -26.7166 H   0  0  0  0  0  0  0  0  0  0  0  0
   -2.4755   17.9831  -26.7166 H   0  0  0  0  0  0  0  0  0  0  0  0
   -3.8360   21.7580  -29.3460 C   0  0  0  0  0  0  0  0  0  0  0  0
   -4.5383   20.9189  -29.4585 H   0  0  0  0  0  0  0  0  0  0  0  0
   -4.2440   23.0600  -29.7200 C   0  0  0  0  0  0  0  0  0  0  0  0
   -5.5550   23.3830  -30.1970 C   0  0  0  0  0  0  0  0  0  0  0  0
   -6.6180   22.6300  -30.0630 N   0  0  0  0  0  0  0  0  0  0  0  0
   -7.2600   21.7640  -31.0080 C   0  0  0  0  0  0  0  0  0  0  0  0
   -8.6590   21.7080  -31.0470 C   0  0  0  0  0  0  0  0  0  0  0  0
   -9.2532   22.3471  -30.3772 H   0  0  0  0  0  0  0  0  0  0  0  0
   -9.3020   20.8400  -31.9370 C   0  0  0  0  0  0  0  0  0  0  0  0
  -10.4008   20.8116  -31.9788 H   0  0  0  0  0  0  0  0  0  0  0  0
   -8.5510   20.0100  -32.7720 C   0  0  0  0  0  0  0  0  0  0  0  0
   -9.0587   19.3367  -33.4783 H   0  0  0  0  0  0  0  0  0  0  0  0
   -7.1530   20.0340  -32.7110 C   0  0  0  0  0  0  0  0  0  0  0  0
   -6.1260   18.8900  -33.8430 Br  0  0  0  0  0  0  0  0  0  0  0  0
   -6.5080   20.8970  -31.8180 C   0  0  0  0  0  0  0  0  0  0  0  0
   -5.4101   20.8965  -31.7502 H   0  0  0  0  0  0  0  0  0  0  0  0
   -5.7490   24.6220  -30.8210 C   0  0  0  0  0  0  0  0  0  0  0  0
   -6.7106   24.8431  -31.3072 H   0  0  0  0  0  0  0  0  0  0  0  0
  1  2  1  0
  2  3  1  0
  3  4  1  0
  4  5  2  0
  5  6  1  0
  5  7  1  0
  7  8  1  0
  7  9  2  0
  9 10  1  0
 10 11  1  0
 10 12  1  0
 10 13  1  0
 13 14  1  0
 13 15  1  0
 13 16  1  0
 16 17  1  0
 16 18  1  0
 16 19  1  0
  9 20  1  0
 20 21  1  0
 20 22  2  0
 22 23  1  0
 23 24  2  0
 24 25  1  0
 25 26  2  0
 26 27  1  0
 26 28  1  0
 28 29  1  0
 28 30  2  0
 30 31  1  0
 30 32  1  0
 32 33  1  0
 32 34  2  0
 34 35  1  0
 23 36  1  0
 36 37  1  0
 36  2  2  0
 22  4  1  0
 34 25  1  0
M  CHG  2   3  -1  10   1
M  END
>  <UniqueID>  (25) 
25

>  <SMILES>  (25) 
CC[NH2+]c1ccc2[n-]cc/c(=N/c3cccc(Br)c3)c2c1

>  <Energy>  (25) 
60.826249128279684

>  <Genealogy>  (25) 
CC[NH2+]c1ccc2[n-]ccc(=Nc3cccc(Br)c3)c2c1 (protonated)
CC[NH2+]c1ccc2[n-]cc/c(=N/c3cccc(Br)c3)c2c1 (cis-trans isomerization)
CC[NH2+]c1ccc2[n-]cc/c(=N/c3cccc(Br)c3)c2c1 (3D coordinates assigned)
CC[NH2+]c1ccc2[n-]cc/c(=N/c3cccc(Br)c3)c2c1 (optimized conformer: 60.826249128279684 kcal/mol)

>  <smiles>  (25) 
CCNc1ccc2[nH]ccc(=Nc3cccc(Br)c3)c2c1

>  <score_type>  (25) 
oracle

>  <origin>  (25) 
adg

>  <m_score__min__energy>  (25) 
-9.3200000000000003

>  <m_primary>  (25) 
energy

$$$$
25:0
     RDKit          3D

 53 55  0  0  0  0  0  0  0  0999 V2000
   -0.8160   21.1730  -34.2510 C   0  0  0  0  0  0  0  0  0  0  0  0
   -2.1860   20.5240  -33.9990 C   0  0  0  0  0  0  0  0  0  0  0  0
   -2.1190   19.1580  -33.4160 N   0  0  0  0  0  0  0  0  0  0  0  0
   -1.5860   19.1250  -32.0330 C   0  0  0  0  0  0  0  0  0  0  0  0
   -2.0150   20.3550  -31.2340 C   0  0  0  0  0  0  0  0  0  0  0  0
   -1.3970   18.2140  -34.2990 C   0  0  0  0  0  0  0  0  0  0  0  0
   -2.2580   16.9610  -34.5680 C   0  0  0  0  0  0  0  0  0  0  0  0
   -3.5860   17.0560  -33.9330 N   0  0  0  0  0  0  0  0  0  0  0  0
   -4.2110   15.7320  -33.7580 C   0  0  0  0  0  0  0  0  0  0  0  0
   -5.7470   15.8240  -33.8230 C   0  0  0  0  0  0  0  0  0  0  0  0
   -6.1580   17.0960  -34.3260 O   0  0  0  0  0  0  0  0  0  0  0  0
   -6.4830   18.2090  -33.5290 C   0  0  0  0  0  0  0  0  0  0  0  0
   -7.7250   18.2230  -32.8860 C   0  0  0  0  0  0  0  0  0  0  0  0
   -8.1130   19.3130  -32.1020 C   0  0  0  0  0  0  0  0  0  0  0  0
   -7.2590   20.4150  -31.9540 C   0  0  0  0  0  0  0  0  0  0  0  0
   -7.6470   21.5210  -31.1810 C   0  0  0  0  0  0  0  0  0  0  0  0
   -6.7860   22.6200  -31.0470 C   0  0  0  0  0  0  0  0  0  0  0  0
   -7.1410   23.7370  -30.2830 C   0  0  0  0  0  0  0  0  0  0  0  0
   -6.2490   24.8050  -30.1760 C   0  0  0  0  0  0  0  0  0  0  0  0
   -5.0210   24.7320  -30.8410 C   0  0  0  0  0  0  0  0  0  0  0  0
   -4.2030   25.6850  -30.7560 O   0  0  0  0  0  0  0  0  0  0  0  0
   -4.7100   23.6590  -31.5640 O   0  0  0  0  0  0  0  0  0  0  0  0
   -5.5290   22.6170  -31.6900 C   0  0  0  0  0  0  0  0  0  0  0  0
   -5.1410   21.5170  -32.4600 C   0  0  0  0  0  0  0  0  0  0  0  0
   -5.9970   20.4120  -32.5940 C   0  0  0  0  0  0  0  0  0  0  0  0
   -5.6110   19.3060  -33.3660 C   0  0  0  0  0  0  0  0  0  0  0  0
   -0.3354   21.4007  -33.2881 H   0  0  0  0  0  0  0  0  0  0  0  0
   -0.1815   20.4798  -34.8227 H   0  0  0  0  0  0  0  0  0  0  0  0
   -0.9505   22.1031  -34.8227 H   0  0  0  0  0  0  0  0  0  0  0  0
   -2.7493   21.1667  -33.3064 H   0  0  0  0  0  0  0  0  0  0  0  0
   -2.6718   20.4235  -34.9808 H   0  0  0  0  0  0  0  0  0  0  0  0
   -1.9609   18.2227  -31.5276 H   0  0  0  0  0  0  0  0  0  0  0  0
   -0.4874   19.1173  -32.0883 H   0  0  0  0  0  0  0  0  0  0  0  0
   -1.9394   20.1381  -30.1582 H   0  0  0  0  0  0  0  0  0  0  0  0
   -1.3592   21.2019  -31.4843 H   0  0  0  0  0  0  0  0  0  0  0  0
   -3.0553   20.6103  -31.4843 H   0  0  0  0  0  0  0  0  0  0  0  0
   -1.1725   18.7111  -35.2542 H   0  0  0  0  0  0  0  0  0  0  0  0
   -0.4642   17.9058  -33.8042 H   0  0  0  0  0  0  0  0  0  0  0  0
   -2.3910   16.8480  -35.6541 H   0  0  0  0  0  0  0  0  0  0  0  0
   -1.7374   16.0925  -34.1383 H   0  0  0  0  0  0  0  0  0  0  0  0
   -3.4740   17.4940  -32.9890 H   0  0  0  0  0  0  0  0  0  0  0  0
   -4.1990   17.6830  -34.5040 H   0  0  0  0  0  0  0  0  0  0  0  0
   -3.8584   15.0613  -34.5554 H   0  0  0  0  0  0  0  0  0  0  0  0
   -3.9285   15.3433  -32.7685 H   0  0  0  0  0  0  0  0  0  0  0  0
   -6.1279   15.0336  -34.4865 H   0  0  0  0  0  0  0  0  0  0  0  0
   -6.1510   15.6991  -32.8075 H   0  0  0  0  0  0  0  0  0  0  0  0
   -8.4048   17.3656  -32.9987 H   0  0  0  0  0  0  0  0  0  0  0  0
   -9.0915   19.3063  -31.5995 H   0  0  0  0  0  0  0  0  0  0  0  0
   -8.6265   21.5256  -30.6804 H   0  0  0  0  0  0  0  0  0  0  0  0
   -8.1141   23.7731  -29.7714 H   0  0  0  0  0  0  0  0  0  0  0  0
   -6.5080   25.6909  -29.5776 H   0  0  0  0  0  0  0  0  0  0  0  0
   -4.1624   21.5169  -32.9624 H   0  0  0  0  0  0  0  0  0  0  0  0
   -4.6220   19.2941  -33.8474 H   0  0  0  0  0  0  0  0  0  0  0  0
  1  2  1  0
  2  3  1  0
  3  4  1  0
  4  5  1  0
  3  6  1  0
  6  7  1  0
  7  8  1  0
  8  9  1  0
  9 10  1  0
 10 11  1  0
 11 12  1  0
 12 13  2  0
 13 14  1  0
 14 15  2  0
 15 16  1  0
 16 17  2  0
 17 18  1  0
 18 19  2  0
 19 20  1  0
 20 21  2  0
 20 22  1  0
 22 23  1  0
 23 24  2  0
 24 25  1  0
 25 26  2  0
 26 12  1  0
 25 15  1  0
 23 17  1  0
  1 27  1  0
  1 28  1  0
  1 29  1  0
  2 30  1  0
  2 31  1  0
  4 32  1  0
  4 33  1  0
  5 34  1  0
  5 35  1  0
  5 36  1  0
  6 37  1  0
  6 38  1  0
  7 39  1  0
  7 40  1  0
  8 41  1  0
  8 42  1  0
  9 43  1  0
  9 44  1  0
 10 45  1  0
 10 46  1  0
 13 47  1  0
 14 48  1  0
 16 49  1  0
 18 50  1  0
 19 51  1  0
 24 52  1  0
 26 53  1  0
M  CHG  1   8   1
M  END
>  <UniqueID>  (26) 
26

>  <SMILES>  (26) 
CCN(CC)CC[NH2+]CCOc1ccc2cc3ccc(=O)oc3cc2c1

>  <Energy>  (26) 
61.589702363152234

>  <Genealogy>  (26) 
CCN(CC)CC[NH2+]CCOc1ccc2cc3ccc(=O)oc3cc2c1 (protonated)
CCN(CC)CC[NH2+]CCOc1ccc2cc3ccc(=O)oc3cc2c1 (3D coordinates assigned)
CCN(CC)CC[NH2+]CCOc1ccc2cc3ccc(=O)oc3cc2c1 (optimized conformer: 61.589702363152234 kcal/mol)

>  <smiles>  (26) 
CCN(CC)CCNCCOc1ccc2cc3ccc(=O)oc3cc2c1

>  <score_type>  (26) 
oracle

>  <origin>  (26) 
adg

>  <m_score__min__energy>  (26) 
-7.5099999999999998

>  <m_primary>  (26) 
energy

$$$$
26:0
     RDKit          3D

 71 73  0  0  0  0  0  0  0  0999 V2000
    0.0560   18.2020  -27.8420 C   0  0  0  0  0  0  0  0  0  0  0  0
   -0.5310   19.6040  -27.9880 C   0  0  0  0  0  0  0  0  0  0  0  0
   -1.9890   19.5990  -27.7360 N   0  0  0  0  0  0  0  0  0  0  0  0
   -2.3430   19.3390  -26.3200 C   0  0  0  0  0  0  0  0  0  0  0  0
   -3.7010   18.6480  -26.2510 C   0  0  0  0  0  0  0  0  0  0  0  0
   -2.6640   20.7970  -28.2870 C   0  0  0  0  0  0  0  0  0  0  0  0
   -1.7720   21.6370  -29.2170 C   0  0  0  0  0  0  0  0  0  0  0  0
   -2.3450   22.9200  -29.3690 O   0  0  0  0  0  0  0  0  0  0  0  0
   -1.9310   23.7770  -28.3200 C   0  0  0  0  0  0  0  0  0  0  0  0
   -3.1520   24.4330  -27.6650 C   0  0  0  0  0  0  0  0  0  0  0  0
   -4.3570   24.5090  -28.6320 C   0  0  0  0  0  0  0  0  0  0  0  0
   -4.0250   25.1360  -29.9240 N   0  0  0  0  0  0  0  0  0  0  0  0
   -5.2040   25.4530  -30.7460 C   0  0  0  0  0  0  0  0  0  0  0  0
   -5.6470   24.2610  -31.6030 C   0  0  0  0  0  0  0  0  0  0  0  0
   -5.0290   23.0170  -31.1390 N   0  0  0  0  0  0  0  0  0  0  0  0
   -5.3720   21.7460  -31.7130 C   0  0  0  0  0  0  0  0  0  0  0  0
   -4.3630   20.9000  -32.2010 C   0  0  0  0  0  0  0  0  0  0  0  0
   -4.7070   19.6640  -32.7800 C   0  0  0  0  0  0  0  0  0  0  0  0
   -6.0110   19.2140  -32.7490 N   0  0  0  0  0  0  0  0  0  0  0  0
   -6.3100   17.8070  -33.0850 C   0  0  0  0  0  0  0  0  0  0  0  0
   -7.0270   20.0750  -32.3790 C   0  0  0  0  0  0  0  0  0  0  0  0
   -8.3920   19.7330  -32.5500 C   0  0  0  0  0  0  0  0  0  0  0  0
   -9.4080   20.5820  -32.1110 C   0  0  0  0  0  0  0  0  0  0  0  0
   -9.0930   21.7870  -31.4930 C   0  0  0  0  0  0  0  0  0  0  0  0
   -7.7620   22.1690  -31.3450 C   0  0  0  0  0  0  0  0  0  0  0  0
   -6.7180   21.3440  -31.8170 C   0  0  0  0  0  0  0  0  0  0  0  0
   -3.5780   18.8590  -33.4080 C   0  0  0  0  0  0  0  0  0  0  0  0
   -2.6320   19.7770  -34.1950 C   0  0  0  0  0  0  0  0  0  0  0  0
   -2.1390   21.0020  -33.3930 C   0  0  0  0  0  0  0  0  0  0  0  0
   -2.8930   21.2380  -32.0750 C   0  0  0  0  0  0  0  0  0  0  0  0
    0.1587   17.9568  -26.7746 H   0  0  0  0  0  0  0  0  0  0  0  0
   -0.6124   17.4727  -28.3231 H   0  0  0  0  0  0  0  0  0  0  0  0
    1.0446   18.1665  -28.3231 H   0  0  0  0  0  0  0  0  0  0  0  0
   -0.0436   20.2748  -27.2652 H   0  0  0  0  0  0  0  0  0  0  0  0
   -0.3551   19.9515  -29.0167 H   0  0  0  0  0  0  0  0  0  0  0  0
   -1.5792   18.6916  -25.8646 H   0  0  0  0  0  0  0  0  0  0  0  0
   -2.3901   20.2928  -25.7740 H   0  0  0  0  0  0  0  0  0  0  0  0
   -3.9856   18.5032  -25.1984 H   0  0  0  0  0  0  0  0  0  0  0  0
   -4.4557   19.2717  -26.7524 H   0  0  0  0  0  0  0  0  0  0  0  0
   -3.6411   17.6708  -26.7524 H   0  0  0  0  0  0  0  0  0  0  0  0
   -3.5459   20.4677  -28.8560 H   0  0  0  0  0  0  0  0  0  0  0  0
   -2.9303   21.4370  -27.4329 H   0  0  0  0  0  0  0  0  0  0  0  0
   -0.7676   21.7313  -28.7785 H   0  0  0  0  0  0  0  0  0  0  0  0
   -1.6928   21.1467  -30.1985 H   0  0  0  0  0  0  0  0  0  0  0  0
   -1.3838   23.1918  -27.5662 H   0  0  0  0  0  0  0  0  0  0  0  0
   -1.2775   24.5606  -28.7310 H   0  0  0  0  0  0  0  0  0  0  0  0
   -3.4413   23.8434  -26.7826 H   0  0  0  0  0  0  0  0  0  0  0  0
   -2.8763   25.4602  -27.3841 H   0  0  0  0  0  0  0  0  0  0  0  0
   -4.7183   23.4875  -28.8216 H   0  0  0  0  0  0  0  0  0  0  0  0
   -5.1231   25.1353  -28.1516 H   0  0  0  0  0  0  0  0  0  0  0  0
   -3.4890   26.0180  -29.7470 H   0  0  0  0  0  0  0  0  0  0  0  0
   -6.0327   25.7398  -30.0819 H   0  0  0  0  0  0  0  0  0  0  0  0
   -4.9329   26.2756  -31.4241 H   0  0  0  0  0  0  0  0  0  0  0  0
   -6.7409   24.1625  -31.5428 H   0  0  0  0  0  0  0  0  0  0  0  0
   -5.3306   24.4413  -32.6410 H   0  0  0  0  0  0  0  0  0  0  0  0
   -4.1910   23.0760  -30.5170 H   0  0  0  0  0  0  0  0  0  0  0  0
   -6.4333   17.2270  -32.1585 H   0  0  0  0  0  0  0  0  0  0  0  0
   -7.2382   17.7598  -33.6734 H   0  0  0  0  0  0  0  0  0  0  0  0
   -5.4812   17.3864  -33.6734 H   0  0  0  0  0  0  0  0  0  0  0  0
   -8.6544   18.7822  -33.0370 H   0  0  0  0  0  0  0  0  0  0  0  0
  -10.4609   20.2975  -32.2541 H   0  0  0  0  0  0  0  0  0  0  0  0
   -9.8963   22.4396  -31.1204 H   0  0  0  0  0  0  0  0  0  0  0  0
   -7.5214   23.1240  -30.8550 H   0  0  0  0  0  0  0  0  0  0  0  0
   -3.0111   18.3512  -32.6138 H   0  0  0  0  0  0  0  0  0  0  0  0
   -4.0110   18.1204  -34.0986 H   0  0  0  0  0  0  0  0  0  0  0  0
   -1.7550   19.1887  -34.5030 H   0  0  0  0  0  0  0  0  0  0  0  0
   -3.2023   20.1645  -35.0521 H   0  0  0  0  0  0  0  0  0  0  0  0
   -1.0741   20.8555  -33.1596 H   0  0  0  0  0  0  0  0  0  0  0  0
   -2.3201   21.8854  -34.0229 H   0  0  0  0  0  0  0  0  0  0  0  0
   -2.4481   20.6063  -31.2921 H   0  0  0  0  0  0  0  0  0  0  0  0
   -2.8078   22.3042  -31.8181 H   0  0  0  0  0  0  0  0  0  0  0  0
  1  2  1  0
  2  3  1  0
  3  4  1  0
  4  5  1  0
  3  6  1  0
  6  7  1  0
  7  8  1  0
  8  9  1  0
  9 10  1  0
 10 11  1  0
 11 12  1  0
 12 13  1  0
 13 14  1  0
 14 15  1  0
 15 16  1  0
 16 17  2  0
 17 18  1  0
 18 19  2  0
 19 20  1  0
 19 21  1  0
 21 22  2  0
 22 23  1  0
 23 24  2  0
 24 25  1  0
 25 26  2  0
 18 27  1  0
 27 28  1  0
 28 29  1  0
 29 30  1  0
 26 16  1  0
 30 17  1  0
 26 21  1  0
  1 31  1  0
  1 32  1  0
  1 33  1  0
  2 34  1  0
  2 35  1  0
  4 36  1  0
  4 37  1  0
  5 38  1  0
  5 39  1  0
  5 40  1  0
  6 41  1  0
  6 42  1  0
  7 43  1  0
  7 44  1  0
  9 45  1  0
  9 46  1  0
 10 47  1  0
 10 48  1  0
 11 49  1  0
 11 50  1  0
 12 51  1  0
 13 52  1  0
 13 53  1  0
 14 54  1  0
 14 55  1  0
 15 56  1  0
 20 57  1  0
 20 58  1  0
 20 59  1  0
 22 60  1  0
 23 61  1  0
 24 62  1  0
 25 63  1  0
 27 64  1  0
 27 65  1  0
 28 66  1  0
 28 67  1  0
 29 68  1  0
 29 69  1  0
 30 70  1  0
 30 71  1  0
M  CHG  1  19   1
M  END
>  <UniqueID>  (27) 
27

>  <SMILES>  (27) 
CCN(CC)CCOCCCNCCNc1c2c([n+](C)c3ccccc13)CCCC2

>  <Energy>  (27) 
96.88536581266847

>  <Genealogy>  (27) 
CCN(CC)CCOCCCNCCNc1c2c([n+](C)c3ccccc13)CCCC2 (3D coordinates assigned)
CCN(CC)CCOCCCNCCNc1c2c([n+](C)c3ccccc13)CCCC2 (nonaromatic ring conformer: 96.88536581266847 kcal/mol)

>  <smiles>  (27) 
CCN(CC)CCOCCCNCCNc1c2c([n+](C)c3ccccc13)CCCC2

>  <score_type>  (27) 
oracle

>  <origin>  (27) 
adg

>  <m_score__min__energy>  (27) 
-9.4800000000000004

>  <m_primary>  (27) 
energy

$$$$
