0:0
     RDKit          3D

 61 63  0  0  0  0  0  0  0  0999 V2000
   -5.9060   25.6030  -30.0870 C   0  0  0  0  0  0  0  0  0  0  0  0
   -4.8760   24.5030  -30.3050 C   0  0  0  0  0  0  0  0  0  0  0  0
   -3.5300   25.0520  -30.2030 N   0  0  0  0  0  0  0  0  0  0  0  0
   -2.7270   24.9200  -29.0280 C   0  0  0  0  0  0  0  0  0  0  0  0
   -1.5100   25.2510  -29.0490 O   0  0  0  0  0  0  0  0  0  0  0  0
   -3.3400   24.4200  -27.7530 C   0  0  0  0  0  0  0  0  0  0  0  0
   -3.1120   22.9140  -27.5590 C   0  0  0  0  0  0  0  0  0  0  0  0
   -1.7800   22.4350  -28.1840 C   0  0  0  0  0  0  0  0  0  0  0  0
   -1.8590   22.1650  -29.6380 N   0  0  0  0  0  0  0  0  0  0  0  0
   -0.7580   21.2940  -30.1180 C   0  0  0  0  0  0  0  0  0  0  0  0
   -1.1150   20.5610  -31.4210 C   0  0  0  0  0  0  0  0  0  0  0  0
   -1.9700   21.4200  -32.2560 N   0  0  0  0  0  0  0  0  0  0  0  0
   -2.1150   20.9400  -33.6510 C   0  0  0  0  0  0  0  0  0  0  0  0
   -3.2580   19.9180  -33.8510 C   0  0  0  0  0  0  0  0  0  0  0  0
   -4.5710   20.5700  -33.8270 N   0  0  0  0  0  0  0  0  0  0  0  0
   -5.7920   19.9580  -33.3670 C   0  0  0  0  0  0  0  0  0  0  0  0
   -5.9330   18.5670  -33.5130 C   0  0  0  0  0  0  0  0  0  0  0  0
   -7.1020   17.9060  -33.0920 C   0  0  0  0  0  0  0  0  0  0  0  0
   -7.2750   16.5200  -33.2270 O   0  0  0  0  0  0  0  0  0  0  0  0
   -6.3590   15.6530  -33.8870 C   0  0  0  0  0  0  0  0  0  0  0  0
   -8.1360   18.6440  -32.5100 C   0  0  0  0  0  0  0  0  0  0  0  0
   -8.0070   20.0260  -32.3260 C   0  0  0  0  0  0  0  0  0  0  0  0
   -9.0280   20.7670  -31.7130 C   0  0  0  0  0  0  0  0  0  0  0  0
   -8.8720   22.1370  -31.5170 C   0  0  0  0  0  0  0  0  0  0  0  0
   -7.6910   22.7580  -31.9270 C   0  0  0  0  0  0  0  0  0  0  0  0
   -6.7090   22.0300  -32.5240 N   0  0  0  0  0  0  0  0  0  0  0  0
   -6.8310   20.6930  -32.7480 C   0  0  0  0  0  0  0  0  0  0  0  0
   -3.2720   21.7330  -31.6180 C   0  0  0  0  0  0  0  0  0  0  0  0
   -3.1920   21.7170  -30.0800 C   0  0  0  0  0  0  0  0  0  0  0  0
   -6.0525   25.7595  -29.0081 H   0  0  0  0  0  0  0  0  0  0  0  0
   -5.5492   26.5360  -30.5477 H   0  0  0  0  0  0  0  0  0  0  0  0
   -6.8604   25.3082  -30.5477 H   0  0  0  0  0  0  0  0  0  0  0  0
   -5.0097   23.7225  -29.5415 H   0  0  0  0  0  0  0  0  0  0  0  0
   -5.0149   24.0724  -31.3077 H   0  0  0  0  0  0  0  0  0  0  0  0
   -2.8899   24.9596  -26.9067 H   0  0  0  0  0  0  0  0  0  0  0  0
   -4.4246   24.5963  -27.8046 H   0  0  0  0  0  0  0  0  0  0  0  0
   -3.0957   22.6949  -26.4812 H   0  0  0  0  0  0  0  0  0  0  0  0
   -3.9310   22.3823  -28.0654 H   0  0  0  0  0  0  0  0  0  0  0  0
   -1.0204   23.2130  -28.0175 H   0  0  0  0  0  0  0  0  0  0  0  0
   -1.5247   21.4823  -27.6970 H   0  0  0  0  0  0  0  0  0  0  0  0
    0.1322   21.9154  -30.2950 H   0  0  0  0  0  0  0  0  0  0  0  0
   -0.5720   20.5330  -29.3458 H   0  0  0  0  0  0  0  0  0  0  0  0
   -0.1924   20.3200  -31.9694 H   0  0  0  0  0  0  0  0  0  0  0  0
   -1.6552   19.6335  -31.1805 H   0  0  0  0  0  0  0  0  0  0  0  0
   -2.3113   21.8087  -34.2966 H   0  0  0  0  0  0  0  0  0  0  0  0
   -1.1786   20.4231  -33.9077 H   0  0  0  0  0  0  0  0  0  0  0  0
   -3.1248   19.4179  -34.8217 H   0  0  0  0  0  0  0  0  0  0  0  0
   -3.2186   19.1901  -33.0273 H   0  0  0  0  0  0  0  0  0  0  0  0
   -4.5920   21.5980  -34.0160 H   0  0  0  0  0  0  0  0  0  0  0  0
   -5.1156   17.9852  -33.9640 H   0  0  0  0  0  0  0  0  0  0  0  0
   -5.7738   15.0991  -33.1381 H   0  0  0  0  0  0  0  0  0  0  0  0
   -6.9151   14.9427  -34.5164 H   0  0  0  0  0  0  0  0  0  0  0  0
   -5.6803   16.2472  -34.5164 H   0  0  0  0  0  0  0  0  0  0  0  0
   -9.0586   18.1352  -32.1939 H   0  0  0  0  0  0  0  0  0  0  0  0
   -9.9516   20.2662  -31.3872 H   0  0  0  0  0  0  0  0  0  0  0  0
   -9.6723   22.7245  -31.0433 H   0  0  0  0  0  0  0  0  0  0  0  0
   -7.5542   23.8377  -31.7671 H   0  0  0  0  0  0  0  0  0  0  0  0
   -3.5939   22.7329  -31.9445 H   0  0  0  0  0  0  0  0  0  0  0  0
   -3.9901   20.9580  -31.9242 H   0  0  0  0  0  0  0  0  0  0  0  0
   -3.9575   22.3914  -29.6687 H   0  0  0  0  0  0  0  0  0  0  0  0
   -3.3649   20.6918  -29.7209 H   0  0  0  0  0  0  0  0  0  0  0  0
  1  2  1  0
  2  3  1  0
  3  4  1  0
  4  5  2  0
  4  6  1  0
  6  7  1  0
  7  8  1  0
  8  9  1  0
  9 10  1  0
 10 11  1  0
 11 12  1  0
 12 13  1  0
 13 14  1  0
 14 15  1  0
 15 16  1  0
 16 17  2  0
 17 18  1  0
 18 19  1  0
 19 20  1  0
 18 21  2  0
 21 22  1  0
 22 23  2  0
 23 24  1  0
 24 25  2  0
 25 26  1  0
 26 27  2  0
 12 28  1  0
 28 29  1  0
 29  9  1  0
 27 16  1  0
 27 22  1  0
  1 30  1  0
  1 31  1  0
  1 32  1  0
  2 33  1  0
  2 34  1  0
  6 35  1  0
  6 36  1  0
  7 37  1  0
  7 38  1  0
  8 39  1  0
  8 40  1  0
 10 41  1  0
 10 42  1  0
 11 43  1  0
 11 44  1  0
 13 45  1  0
 13 46  1  0
 14 47  1  0
 14 48  1  0
 15 49  1  0
 17 50  1  0
 20 51  1  0
 20 52  1  0
 20 53  1  0
 21 54  1  0
 23 55  1  0
 24 56  1  0
 25 57  1  0
 28 58  1  0
 28 59  1  0
 29 60  1  0
 29 61  1  0
M  CHG  1   3  -1
M  END
>  <UniqueID>  (1) 
1

>  <SMILES>  (1) 
CC[N-]C(=O)CCCN1CCN(CCNc2cc(OC)cc3cccnc23)CC1

>  <Energy>  (1) 
71.71387917322339

>  <Genealogy>  (1) 
CC[N-]C(=O)CCCN1CCN(CCNc2cc(OC)cc3cccnc23)CC1 (protonated)
CC[N-]C(=O)CCCN1CCN(CCNc2cc(OC)cc3cccnc23)CC1 (3D coordinates assigned)
CC[N-]C(=O)CCCN1CCN(CCNc2cc(OC)cc3cccnc23)CC1 (nonaromatic ring conformer: 71.71387917322339 kcal/mol)

>  <smiles>  (1) 
CCNC(=O)CCCN1CCN(CCNc2cc(OC)cc3cccnc23)CC1

>  <score_type>  (1) 
oracle

>  <origin>  (1) 
adg

>  <m_score__min__energy>  (1) 
-10.74

>  <m_primary>  (1) 
energy

$$$$
1:0
     RDKit          3D

 47 48  0  0  0  0  0  0  0  0999 V2000
   -2.0640   20.3870  -33.0480 C   0  0  0  0  0  0  0  0  0  0  0  0
   -2.9880   21.5580  -33.3620 C   0  0  0  0  0  0  0  0  0  0  0  0
   -4.3880   21.1520  -33.1810 N   0  0  0  0  0  0  0  0  0  0  0  0
   -4.5540   19.6880  -33.2160 C   0  0  0  0  0  0  0  0  0  0  0  0
   -5.9240   19.2480  -33.7520 C   0  0  0  0  0  0  0  0  0  0  0  0
   -6.7830   20.3650  -33.8350 O   0  0  0  0  0  0  0  0  0  0  0  0
   -7.7050   20.3710  -32.7610 C   0  0  0  0  0  0  0  0  0  0  0  0
   -7.2860   21.3360  -31.6340 C   0  0  0  0  0  0  0  0  0  0  0  0
   -6.3770   22.4080  -32.0780 N   0  0  0  0  0  0  0  0  0  0  0  0
   -6.8930   23.7520  -31.7740 C   0  0  0  0  0  0  0  0  0  0  0  0
   -5.7880   24.6360  -31.1850 C   0  0  0  0  0  0  0  0  0  0  0  0
   -4.5350   23.9550  -31.2090 O   0  0  0  0  0  0  0  0  0  0  0  0
   -3.9950   23.2750  -30.1110 C   0  0  0  0  0  0  0  0  0  0  0  0
   -3.7550   23.7900  -28.8400 C   0  0  0  0  0  0  0  0  0  0  0  0
   -3.2100   22.8460  -27.9620 C   0  0  0  0  0  0  0  0  0  0  0  0
   -3.0250   21.5930  -28.5430 C   0  0  0  0  0  0  0  0  0  0  0  0
   -2.4740   20.3980  -27.8820 C   0  0  0  0  0  0  0  0  0  0  0  0
   -3.1130   19.6120  -26.9280 C   0  0  0  0  0  0  0  0  0  0  0  0
   -2.3330   18.5390  -26.4830 C   0  0  0  0  0  0  0  0  0  0  0  0
   -1.0810   18.4730  -27.0800 C   0  0  0  0  0  0  0  0  0  0  0  0
   -0.9460   19.7500  -28.1630 S   0  0  0  0  0  0  0  0  0  0  0  0
   -3.5390   21.6600  -30.1470 S   0  0  0  0  0  0  0  0  0  0  0  0
   -1.9741   20.2730  -31.9576 H   0  0  0  0  0  0  0  0  0  0  0  0
   -2.4806   19.4651  -33.4799 H   0  0  0  0  0  0  0  0  0  0  0  0
   -1.0705   20.5778  -33.4799 H   0  0  0  0  0  0  0  0  0  0  0  0
   -2.7602   22.3943  -32.6847 H   0  0  0  0  0  0  0  0  0  0  0  0
   -2.8337   21.8718  -34.4049 H   0  0  0  0  0  0  0  0  0  0  0  0
   -4.9790   21.5990  -33.9210 H   0  0  0  0  0  0  0  0  0  0  0  0
   -3.7724   19.2627  -33.8627 H   0  0  0  0  0  0  0  0  0  0  0  0
   -4.4757   19.3250  -32.1806 H   0  0  0  0  0  0  0  0  0  0  0  0
   -5.8009   18.8062  -34.7518 H   0  0  0  0  0  0  0  0  0  0  0  0
   -6.3599   18.5028  -33.0703 H   0  0  0  0  0  0  0  0  0  0  0  0
   -8.6898   20.6790  -33.1422 H   0  0  0  0  0  0  0  0  0  0  0  0
   -7.7364   19.3555  -32.3394 H   0  0  0  0  0  0  0  0  0  0  0  0
   -8.1931   21.7998  -31.2191 H   0  0  0  0  0  0  0  0  0  0  0  0
   -6.7396   20.7403  -30.8879 H   0  0  0  0  0  0  0  0  0  0  0  0
   -6.2620   22.3160  -33.1150 H   0  0  0  0  0  0  0  0  0  0  0  0
   -5.4360   22.2820  -31.6390 H   0  0  0  0  0  0  0  0  0  0  0  0
   -7.2689   24.2124  -32.6996 H   0  0  0  0  0  0  0  0  0  0  0  0
   -7.7040   23.6610  -31.0364 H   0  0  0  0  0  0  0  0  0  0  0  0
   -5.7092   25.5594  -31.7776 H   0  0  0  0  0  0  0  0  0  0  0  0
   -6.0425   24.8744  -30.1417 H   0  0  0  0  0  0  0  0  0  0  0  0
   -3.9712   24.8303  -28.5555 H   0  0  0  0  0  0  0  0  0  0  0  0
   -2.9530   23.0710  -26.9164 H   0  0  0  0  0  0  0  0  0  0  0  0
   -4.1299   19.8140  -26.5604 H   0  0  0  0  0  0  0  0  0  0  0  0
   -2.6793   17.8153  -25.7305 H   0  0  0  0  0  0  0  0  0  0  0  0
   -0.3100   17.7147  -26.8784 H   0  0  0  0  0  0  0  0  0  0  0  0
  1  2  1  0
  2  3  1  0
  3  4  1  0
  4  5  1  0
  5  6  1  0
  6  7  1  0
  7  8  1  0
  8  9  1  0
  9 10  1  0
 10 11  1  0
 11 12  1  0
 12 13  1  0
 13 14  2  0
 14 15  1  0
 15 16  2  0
 16 17  1  0
 17 18  2  0
 18 19  1  0
 19 20  2  0
 20 21  1  0
 16 22  1  0
 22 13  1  0
 21 17  1  0
  1 23  1  0
  1 24  1  0
  1 25  1  0
  2 26  1  0
  2 27  1  0
  3 28  1  0
  4 29  1  0
  4 30  1  0
  5 31  1  0
  5 32  1  0
  7 33  1  0
  7 34  1  0
  8 35  1  0
  8 36  1  0
  9 37  1  0
  9 38  1  0
 10 39  1  0
 10 40  1  0
 11 41  1  0
 11 42  1  0
 14 43  1  0
 15 44  1  0
 18 45  1  0
 19 46  1  0
 20 47  1  0
M  CHG  1   9   1
M  END
>  <UniqueID>  (2) 
2

>  <SMILES>  (2) 
CCNCCOCC[NH2+]CCOc1ccc(-c2cccs2)s1

>  <Energy>  (2) 
91.65056530612156

>  <Genealogy>  (2) 
CCNCCOCC[NH2+]CCOc1ccc(-c2cccs2)s1 (protonated)
CCNCCOCC[NH2+]CCOc1ccc(-c2cccs2)s1 (3D coordinates assigned)
CCNCCOCC[NH2+]CCOc1ccc(-c2cccs2)s1 (optimized conformer: 91.65056530612156 kcal/mol)

>  <smiles>  (2) 
CCNCCOCCNCCOc1ccc(-c2cccs2)s1

>  <score_type>  (2) 
oracle

>  <origin>  (2) 
adg

>  <m_score__min__energy>  (2) 
-6.4000000000000004

>  <m_primary>  (2) 
energy

$$$$
2:0
     RDKit          3D

 42 43  0  0  0  0  0  0  0  0999 V2000
   -3.7950   23.9740  -28.0030 C   0  0  0  0  0  0  0  0  0  0  0  0
   -3.1350   24.2200  -29.3550 C   0  0  0  0  0  0  0  0  0  0  0  0
   -3.8130   25.2780  -30.1300 N   0  0  0  0  0  0  0  0  0  0  0  0
   -5.0020   24.8970  -30.9340 C   0  0  2  0  0  0  0  0  0  0  0  0
   -6.3220   25.2020  -30.1920 C   0  0  0  0  0  0  0  0  0  0  0  0
   -7.4220   24.2160  -30.5950 C   0  0  0  0  0  0  0  0  0  0  0  0
   -7.0330   22.8350  -30.2310 N   0  0  1  0  0  0  0  0  0  0  0  0
   -8.1200   21.8420  -30.4520 C   0  0  0  0  0  0  0  0  0  0  0  0
   -8.4530   21.4970  -31.9260 C   0  0  0  0  0  0  0  0  0  0  0  0
   -7.7980   20.2340  -32.4230 C   0  0  0  0  0  0  0  0  0  0  0  0
   -8.2070   18.9800  -31.9400 C   0  0  0  0  0  0  0  0  0  0  0  0
   -7.5990   17.8110  -32.4120 C   0  0  0  0  0  0  0  0  0  0  0  0
   -6.5730   17.8870  -33.3560 C   0  0  0  0  0  0  0  0  0  0  0  0
   -6.1470   19.1320  -33.8260 C   0  0  0  0  0  0  0  0  0  0  0  0
   -6.7520   20.3020  -33.3600 C   0  0  0  0  0  0  0  0  0  0  0  0
   -5.7090   22.4000  -30.7720 C   0  0  0  0  0  0  0  0  0  0  0  0
   -4.9520   23.4820  -31.5720 C   0  0  0  0  0  0  0  0  0  0  0  0
   -3.0919   24.2361  -27.1987 H   0  0  0  0  0  0  0  0  0  0  0  0
   -4.6983   24.5958  -27.9174 H   0  0  0  0  0  0  0  0  0  0  0  0
   -4.0710   22.9126  -27.9174 H   0  0  0  0  0  0  0  0  0  0  0  0
   -2.0898   24.5195  -29.1882 H   0  0  0  0  0  0  0  0  0  0  0  0
   -3.2004   23.2870  -29.9340 H   0  0  0  0  0  0  0  0  0  0  0  0
   -3.1020   25.6740  -30.7900 H   0  0  0  0  0  0  0  0  0  0  0  0
   -4.9707   25.5557  -31.8144 H   0  0  0  0  0  0  0  0  0  0  0  0
   -6.1507   25.1256  -29.1081 H   0  0  0  0  0  0  0  0  0  0  0  0
   -6.6475   26.2176  -30.4616 H   0  0  0  0  0  0  0  0  0  0  0  0
   -8.3542   24.4796  -30.0740 H   0  0  0  0  0  0  0  0  0  0  0  0
   -7.5701   24.2707  -31.6836 H   0  0  0  0  0  0  0  0  0  0  0  0
   -6.9180   22.8530  -29.1880 H   0  0  0  0  0  0  0  0  0  0  0  0
   -7.8275   20.9088  -29.9483 H   0  0  0  0  0  0  0  0  0  0  0  0
   -9.0298   22.3124  -30.0507 H   0  0  0  0  0  0  0  0  0  0  0  0
   -9.5430   21.3799  -32.0161 H   0  0  0  0  0  0  0  0  0  0  0  0
   -8.0632   22.3211  -32.5416 H   0  0  0  0  0  0  0  0  0  0  0  0
   -9.0077   18.9165  -31.1884 H   0  0  0  0  0  0  0  0  0  0  0  0
   -7.9300   16.8307  -32.0386 H   0  0  0  0  0  0  0  0  0  0  0  0
   -6.1001   16.9668  -33.7297 H   0  0  0  0  0  0  0  0  0  0  0  0
   -5.3337   19.1911  -34.5643 H   0  0  0  0  0  0  0  0  0  0  0  0
   -6.4086   21.2802  -33.7277 H   0  0  0  0  0  0  0  0  0  0  0  0
   -5.0766   22.0945  -29.9254 H   0  0  0  0  0  0  0  0  0  0  0  0
   -5.9152   21.5803  -31.4760 H   0  0  0  0  0  0  0  0  0  0  0  0
   -3.8982   23.1771  -31.6530 H   0  0  0  0  0  0  0  0  0  0  0  0
   -5.4499   23.5584  -32.5499 H   0  0  0  0  0  0  0  0  0  0  0  0
  1  2  1  0
  2  3  1  0
  3  4  1  0
  4  5  1  0
  5  6  1  0
  6  7  1  0
  7  8  1  0
  8  9  1  0
  9 10  1  0
 10 11  2  0
 11 12  1  0
 12 13  2  0
 13 14  1  0
 14 15  2  0
  7 16  1  0
 16 17  1  0
 17  4  1  0
 15 10  1  0
  1 18  1  0
  1 19  1  0
  1 20  1  0
  2 21  1  0
  2 22  1  0
  3 23  1  0
  4 24  1  6
  5 25  1  0
  5 26  1  0
  6 27  1  0
  6 28  1  0
  7 29  1  1
  8 30  1  0
  8 31  1  0
  9 32  1  0
  9 33  1  0
 11 34  1  0
 12 35  1  0
 13 36  1  0
 14 37  1  0
 15 38  1  0
 16 39  1  0
 16 40  1  0
 17 41  1  0
 17 42  1  0
M  CHG  1   7   1
M  END
>  <UniqueID>  (3) 
3

>  <SMILES>  (3) 
CCNC1CC[NH+](CCc2ccccc2)CC1

>  <Energy>  (3) 
60.01399266255922

>  <Genealogy>  (3) 
CCNC1CC[NH+](CCc2ccccc2)CC1 (protonated)
CCNC1CC[NH+](CCc2ccccc2)CC1 (3D coordinates assigned)
CCNC1CC[NH+](CCc2ccccc2)CC1 (nonaromatic ring conformer: 60.01399266255922 kcal/mol)

>  <smiles>  (3) 
CCNC1CCN(CCc2ccccc2)CC1

>  <score_type>  (3) 
oracle

>  <origin>  (3) 
adg

>  <m_score__min__energy>  (3) 
-6.7599999999999998

>  <m_primary>  (3) 
energy

$$$$
3:0
     RDKit          3D

 40 41  0  0  0  0  0  0  0  0999 V2000
   -4.4310   18.9430  -33.8590 C   0  0  0  0  0  0  0  0  0  0  0  0
   -5.7380   18.5740  -34.5630 C   0  0  0  0  0  0  0  0  0  0  0  0
   -6.6710   17.7690  -33.7380 N   0  0  0  0  0  0  0  0  0  0  0  0
   -6.1860   16.4060  -33.4120 C   0  0  0  0  0  0  0  0  0  0  0  0
   -5.3940   16.3030  -32.0970 C   0  0  0  0  0  0  0  0  0  0  0  0
   -7.3320   18.4790  -32.6180 C   0  0  0  0  0  0  0  0  0  0  0  0
   -8.2300   19.5400  -33.1110 N   0  0  0  0  0  0  0  0  0  0  0  0
   -8.5960   20.4960  -32.0500 C   0  0  0  0  0  0  0  0  0  0  0  0
   -7.5190   21.5320  -31.8340 C   0  0  0  0  0  0  0  0  0  0  0  0
   -6.2690   21.4110  -32.4870 C   0  0  0  0  0  0  0  0  0  0  0  0
   -5.2800   22.3930  -32.3160 C   0  0  0  0  0  0  0  0  0  0  0  0
   -5.5660   23.4820  -31.4960 C   0  0  0  0  0  0  0  0  0  0  0  0
   -6.7690   23.6100  -30.8660 C   0  0  0  0  0  0  0  0  0  0  0  0
   -7.7720   22.6530  -31.0150 C   0  0  0  0  0  0  0  0  0  0  0  0
   -6.7920   24.8650  -30.0700 C   0  0  0  0  0  0  0  0  0  0  0  0
   -5.3870   25.4590  -30.3360 C   0  0  0  0  0  0  0  0  0  0  0  0
   -4.7320   24.5410  -31.2120 O   0  0  0  0  0  0  0  0  0  0  0  0
   -4.5771   18.9018  -32.7695 H   0  0  0  0  0  0  0  0  0  0  0  0
   -3.6440   18.2319  -34.1506 H   0  0  0  0  0  0  0  0  0  0  0  0
   -4.1321   19.9606  -34.1506 H   0  0  0  0  0  0  0  0  0  0  0  0
   -6.2486   19.5048  -34.8509 H   0  0  0  0  0  0  0  0  0  0  0  0
   -5.4645   17.9506  -35.4270 H   0  0  0  0  0  0  0  0  0  0  0  0
   -7.0585   15.7400  -33.3396 H   0  0  0  0  0  0  0  0  0  0  0  0
   -5.4911   16.1228  -34.2163 H   0  0  0  0  0  0  0  0  0  0  0  0
   -6.0843   16.3928  -31.2452 H   0  0  0  0  0  0  0  0  0  0  0  0
   -4.8816   15.3306  -32.0528 H   0  0  0  0  0  0  0  0  0  0  0  0
   -4.6499   17.1119  -32.0528 H   0  0  0  0  0  0  0  0  0  0  0  0
   -7.9191   17.7562  -32.0324 H   0  0  0  0  0  0  0  0  0  0  0  0
   -6.5541   18.9446  -31.9950 H   0  0  0  0  0  0  0  0  0  0  0  0
   -9.1100   19.1020  -33.4720 H   0  0  0  0  0  0  0  0  0  0  0  0
   -7.7720   20.0650  -33.8910 H   0  0  0  0  0  0  0  0  0  0  0  0
   -9.5282   21.0054  -32.3356 H   0  0  0  0  0  0  0  0  0  0  0  0
   -8.7239   19.9347  -31.1127 H   0  0  0  0  0  0  0  0  0  0  0  0
   -6.0712   20.5424  -33.1323 H   0  0  0  0  0  0  0  0  0  0  0  0
   -4.3046   22.3045  -32.8167 H   0  0  0  0  0  0  0  0  0  0  0  0
   -8.7397   22.7693  -30.5051 H   0  0  0  0  0  0  0  0  0  0  0  0
   -7.5832   25.5437  -30.4213 H   0  0  0  0  0  0  0  0  0  0  0  0
   -7.0036   24.7026  -29.0028 H   0  0  0  0  0  0  0  0  0  0  0  0
   -5.4734   26.4467  -30.8124 H   0  0  0  0  0  0  0  0  0  0  0  0
   -4.8236   25.5964  -29.4013 H   0  0  0  0  0  0  0  0  0  0  0  0
  1  2  1  0
  2  3  1  0
  3  4  1  0
  4  5  1  0
  3  6  1  0
  6  7  1  0
  7  8  1  0
  8  9  1  0
  9 10  2  0
 10 11  1  0
 11 12  2  0
 12 13  1  0
 13 14  2  0
 13 15  1  0
 15 16  1  0
 16 17  1  0
 14  9  1  0
 17 12  1  0
  1 18  1  0
  1 19  1  0
  1 20  1  0
  2 21  1  0
  2 22  1  0
  4 23  1  0
  4 24  1  0
  5 25  1  0
  5 26  1  0
  5 27  1  0
  6 28  1  0
  6 29  1  0
  7 30  1  0
  7 31  1  0
  8 32  1  0
  8 33  1  0
 10 34  1  0
 11 35  1  0
 14 36  1  0
 15 37  1  0
 15 38  1  0
 16 39  1  0
 16 40  1  0
M  CHG  1   7   1
M  END
>  <UniqueID>  (4) 
4

>  <SMILES>  (4) 
CCN(CC)C[NH2+]Cc1ccc2c(c1)CCO2

>  <Energy>  (4) 
60.6459139196744

>  <Genealogy>  (4) 
CCN(CC)C[NH2+]Cc1ccc2c(c1)CCO2 (protonated)
CCN(CC)C[NH2+]Cc1ccc2c(c1)CCO2 (3D coordinates assigned)
CCN(CC)C[NH2+]Cc1ccc2c(c1)CCO2 (nonaromatic ring conformer: 60.6459139196744 kcal/mol)

>  <smiles>  (4) 
CCN(CC)CNCc1ccc2c(c1)CCO2

>  <score_type>  (4) 
oracle

>  <origin>  (4) 
adg

>  <m_score__min__energy>  (4) 
-6.5899999999999999

>  <m_primary>  (4) 
energy

$$$$
4:0
     RDKit          3D

 54 56  0  0  0  0  0  0  0  0999 V2000
   -1.7500   25.7170  -25.7570 C   0  0  0  0  0  0  0  0  0  0  0  0
   -1.8910   25.0770  -27.1470 C   0  0  0  0  0  0  0  0  0  0  0  0
   -3.2920   24.8590  -27.5850 N   0  0  2  0  0  0  0  0  0  0  0  0
   -4.2360   24.9280  -26.4490 C   0  0  0  0  0  0  0  0  0  0  0  0
   -3.4480   23.5950  -28.3490 C   0  0  0  0  0  0  0  0  0  0  0  0
   -3.2030   23.7890  -29.8660 C   0  0  0  0  0  0  0  0  0  0  0  0
   -3.8780   24.9370  -30.3460 O   0  0  0  0  0  0  0  0  0  0  0  0
   -5.1660   25.0230  -29.7710 C   0  0  0  0  0  0  0  0  0  0  0  0
   -6.1250   24.1160  -30.5380 C   0  0  0  0  0  0  0  0  0  0  0  0
   -5.4820   23.5490  -31.7230 N   0  0  0  0  0  0  0  0  0  0  0  0
   -5.7780   22.2080  -32.1340 C   0  0  0  0  0  0  0  0  0  0  0  0
   -7.1060   21.7550  -32.1660 C   0  0  0  0  0  0  0  0  0  0  0  0
   -8.1780   22.6290  -31.8850 C   0  0  0  0  0  0  0  0  0  0  0  0
   -9.4940   22.1720  -31.9240 C   0  0  0  0  0  0  0  0  0  0  0  0
   -9.7640   20.8480  -32.2510 C   0  0  0  0  0  0  0  0  0  0  0  0
   -8.7190   19.9690  -32.5330 C   0  0  0  0  0  0  0  0  0  0  0  0
   -7.3700   20.3990  -32.4860 C   0  0  0  0  0  0  0  0  0  0  0  0
   -6.3250   19.5330  -32.7450 N   0  0  0  0  0  0  0  0  0  0  0  0
   -6.5500   18.0800  -32.6020 C   0  0  0  0  0  0  0  0  0  0  0  0
   -5.0550   20.0310  -32.9810 C   0  0  0  0  0  0  0  0  0  0  0  0
   -4.0260   19.2710  -33.6170 C   0  0  0  0  0  0  0  0  0  0  0  0
   -4.3220   17.8220  -34.5800 Cl  0  0  0  0  0  0  0  0  0  0  0  0
   -2.7170   19.7640  -33.6650 C   0  0  0  0  0  0  0  0  0  0  0  0
   -2.4100   21.0160  -33.1490 C   0  0  0  0  0  0  0  0  0  0  0  0
   -3.4170   21.8230  -32.6330 C   0  0  0  0  0  0  0  0  0  0  0  0
   -4.7480   21.3610  -32.5790 C   0  0  0  0  0  0  0  0  0  0  0  0
   -1.9182   24.9536  -24.9831 H   0  0  0  0  0  0  0  0  0  0  0  0
   -0.7383   26.1345  -25.6465 H   0  0  0  0  0  0  0  0  0  0  0  0
   -2.4926   26.5210  -25.6465 H   0  0  0  0  0  0  0  0  0  0  0  0
   -1.4005   25.7349  -27.8795 H   0  0  0  0  0  0  0  0  0  0  0  0
   -1.4252   24.0826  -27.0822 H   0  0  0  0  0  0  0  0  0  0  0  0
   -3.5170   25.6590  -28.2230 H   0  0  0  0  0  0  0  0  0  0  0  0
   -3.6754   24.8870  -25.5034 H   0  0  0  0  0  0  0  0  0  0  0  0
   -4.8019   25.8699  -26.4992 H   0  0  0  0  0  0  0  0  0  0  0  0
   -4.9329   24.0784  -26.4992 H   0  0  0  0  0  0  0  0  0  0  0  0
   -2.7260   22.8589  -27.9657 H   0  0  0  0  0  0  0  0  0  0  0  0
   -4.4839   23.2490  -28.2177 H   0  0  0  0  0  0  0  0  0  0  0  0
   -2.1238   23.9055  -30.0441 H   0  0  0  0  0  0  0  0  0  0  0  0
   -3.5885   22.9073  -30.3989 H   0  0  0  0  0  0  0  0  0  0  0  0
   -5.1206   24.7035  -28.7194 H   0  0  0  0  0  0  0  0  0  0  0  0
   -5.5228   26.0623  -29.8223 H   0  0  0  0  0  0  0  0  0  0  0  0
   -6.4489   23.2970  -29.8789 H   0  0  0  0  0  0  0  0  0  0  0  0
   -6.9876   24.7162  -30.8630 H   0  0  0  0  0  0  0  0  0  0  0  0
   -4.6940   24.0520  -32.1920 H   0  0  0  0  0  0  0  0  0  0  0  0
   -7.9730   23.6799  -31.6330 H   0  0  0  0  0  0  0  0  0  0  0  0
  -10.3210   22.8604  -31.6955 H   0  0  0  0  0  0  0  0  0  0  0  0
  -10.8045   20.4930  -32.2873 H   0  0  0  0  0  0  0  0  0  0  0  0
   -8.9456   18.9252  -32.7961 H   0  0  0  0  0  0  0  0  0  0  0  0
   -6.5905   17.8186  -31.5343 H   0  0  0  0  0  0  0  0  0  0  0  0
   -7.5011   17.8072  -33.0826 H   0  0  0  0  0  0  0  0  0  0  0  0
   -5.7260   17.5323  -33.0826 H   0  0  0  0  0  0  0  0  0  0  0  0
   -1.9221   19.1525  -34.1168 H   0  0  0  0  0  0  0  0  0  0  0  0
   -1.3684   21.3696  -33.1486 H   0  0  0  0  0  0  0  0  0  0  0  0
   -3.1737   22.8302  -32.2638 H   0  0  0  0  0  0  0  0  0  0  0  0
  1  2  1  0
  2  3  1  0
  3  4  1  0
  3  5  1  0
  5  6  1  0
  6  7  1  0
  7  8  1  0
  8  9  1  0
  9 10  1  0
 10 11  1  0
 11 12  2  0
 12 13  1  0
 13 14  2  0
 14 15  1  0
 15 16  2  0
 16 17  1  0
 17 18  2  0
 18 19  1  0
 18 20  1  0
 20 21  2  0
 21 22  1  0
 21 23  1  0
 23 24  2  0
 24 25  1  0
 25 26  2  0
 26 11  1  0
 17 12  1  0
 26 20  1  0
  1 27  1  0
  1 28  1  0
  1 29  1  0
  2 30  1  0
  2 31  1  0
  3 32  1  6
  4 33  1  0
  4 34  1  0
  4 35  1  0
  5 36  1  0
  5 37  1  0
  6 38  1  0
  6 39  1  0
  8 40  1  0
  8 41  1  0
  9 42  1  0
  9 43  1  0
 10 44  1  0
 13 45  1  0
 14 46  1  0
 15 47  1  0
 16 48  1  0
 19 49  1  0
 19 50  1  0
 19 51  1  0
 23 52  1  0
 24 53  1  0
 25 54  1  0
M  CHG  2   3   1  18   1
M  END
>  <UniqueID>  (5) 
5

>  <SMILES>  (5) 
CC[N@H+](C)CCOCCNc1c2ccccc2[n+](C)c2c(Cl)cccc12

>  <Energy>  (5) 
93.52191720662654

>  <Genealogy>  (5) 
CC[NH+](C)CCOCCNc1c2ccccc2[n+](C)c2c(Cl)cccc12 (protonated)
CC[N@H+](C)CCOCCNc1c2ccccc2[n+](C)c2c(Cl)cccc12 (chirality)
CC[N@H+](C)CCOCCNc1c2ccccc2[n+](C)c2c(Cl)cccc12 (3D coordinates assigned)
CC[N@H+](C)CCOCCNc1c2ccccc2[n+](C)c2c(Cl)cccc12 (optimized conformer: 93.52191720662654 kcal/mol)

>  <smiles>  (5) 
CCN(C)CCOCCNc1c2ccccc2[n+](C)c2c(Cl)cccc12

>  <score_type>  (5) 
oracle

>  <origin>  (5) 
adg

>  <m_score__min__energy>  (5) 
-7.9900000000000002

>  <m_primary>  (5) 
energy

$$$$
5:0
     RDKit          3D

 61 63  0  0  0  0  0  0  0  0999 V2000
   -4.2550   23.9270  -28.5790 C   0  0  0  0  0  0  0  0  0  0  0  0
   -3.6670   24.4980  -29.8800 C   0  0  0  0  0  0  0  0  0  0  0  0
   -4.7190   24.9240  -30.8450 N   0  0  0  0  0  0  0  0  0  0  0  0
   -5.7290   25.7230  -30.1150 C   0  0  0  0  0  0  0  0  0  0  0  0
   -5.3390   23.7420  -31.4940 C   0  0  0  0  0  0  0  0  0  0  0  0
   -4.3400   22.6350  -31.8770 C   0  0  0  0  0  0  0  0  0  0  0  0
   -4.6780   21.9030  -33.1050 N   0  0  0  0  0  0  0  0  0  0  0  0
   -5.0400   20.5100  -33.2150 C   0  0  0  0  0  0  0  0  0  0  0  0
   -4.1290   19.5980  -33.8030 C   0  0  0  0  0  0  0  0  0  0  0  0
   -2.7800   20.0160  -34.1590 N   0  0  0  0  0  0  0  0  0  0  0  0
   -1.8980   20.2880  -33.0320 C   0  0  0  0  0  0  0  0  0  0  0  0
   -2.3100   20.0830  -31.6930 C   0  0  0  0  0  0  0  0  0  0  0  0
   -1.4620   20.3790  -30.6250 C   0  0  0  0  0  0  0  0  0  0  0  0
   -0.1970   20.9110  -30.8630 C   0  0  0  0  0  0  0  0  0  0  0  0
    0.2170   21.1630  -32.1690 C   0  0  0  0  0  0  0  0  0  0  0  0
   -0.6230   20.8740  -33.2580 C   0  0  0  0  0  0  0  0  0  0  0  0
   -0.1430   21.1860  -34.6500 C   0  0  0  0  0  0  0  0  0  0  0  0
   -4.5520   18.2730  -34.0730 C   0  0  0  0  0  0  0  0  0  0  0  0
   -3.6390   17.3770  -34.7330 N   0  0  0  0  0  0  0  0  0  0  0  0
   -2.5940   16.6590  -34.0120 C   0  0  0  0  0  0  0  0  0  0  0  0
   -5.8200   17.8540  -33.7300 N   0  0  0  0  0  0  0  0  0  0  0  0
   -6.2880   16.5140  -34.1510 C   0  0  0  0  0  0  0  0  0  0  0  0
   -6.6740   18.6930  -33.0430 C   0  0  0  0  0  0  0  0  0  0  0  0
   -7.9300   18.2350  -32.5500 C   0  0  0  0  0  0  0  0  0  0  0  0
   -8.8460   19.1160  -31.9750 C   0  0  0  0  0  0  0  0  0  0  0  0
   -8.5450   20.4700  -31.8940 C   0  0  0  0  0  0  0  0  0  0  0  0
   -7.3060   20.9440  -32.3400 C   0  0  0  0  0  0  0  0  0  0  0  0
   -6.3290   20.0590  -32.8510 C   0  0  0  0  0  0  0  0  0  0  0  0
   -3.7657   24.4021  -27.7160 H   0  0  0  0  0  0  0  0  0  0  0  0
   -5.3357   24.1295  -28.5452 H   0  0  0  0  0  0  0  0  0  0  0  0
   -4.0843   22.8409  -28.5452 H   0  0  0  0  0  0  0  0  0  0  0  0
   -3.0427   25.3691  -29.6320 H   0  0  0  0  0  0  0  0  0  0  0  0
   -3.0791   23.7007  -30.3582 H   0  0  0  0  0  0  0  0  0  0  0  0
   -5.5781   25.6036  -29.0320 H   0  0  0  0  0  0  0  0  0  0  0  0
   -5.6225   26.7839  -30.3853 H   0  0  0  0  0  0  0  0  0  0  0  0
   -6.7369   25.3752  -30.3853 H   0  0  0  0  0  0  0  0  0  0  0  0
   -6.0774   23.3149  -30.7994 H   0  0  0  0  0  0  0  0  0  0  0  0
   -5.7912   24.0975  -32.4316 H   0  0  0  0  0  0  0  0  0  0  0  0
   -3.3516   23.0977  -32.0147 H   0  0  0  0  0  0  0  0  0  0  0  0
   -4.3624   21.8991  -31.0597 H   0  0  0  0  0  0  0  0  0  0  0  0
   -4.5860   22.4420  -33.9970 H   0  0  0  0  0  0  0  0  0  0  0  0
   -2.7790   20.8780  -34.7450 H   0  0  0  0  0  0  0  0  0  0  0  0
   -2.3730   19.2560  -34.7510 H   0  0  0  0  0  0  0  0  0  0  0  0
   -3.3150   19.6839  -31.4913 H   0  0  0  0  0  0  0  0  0  0  0  0
   -1.7933   20.1918  -29.5929 H   0  0  0  0  0  0  0  0  0  0  0  0
    0.4746   21.1320  -30.0203 H   0  0  0  0  0  0  0  0  0  0  0  0
    1.2131   21.5932  -32.3500 H   0  0  0  0  0  0  0  0  0  0  0  0
    0.7781   21.7847  -34.5946 H   0  0  0  0  0  0  0  0  0  0  0  0
    0.0613   20.2476  -35.1863 H   0  0  0  0  0  0  0  0  0  0  0  0
   -0.9176   21.7537  -35.1863 H   0  0  0  0  0  0  0  0  0  0  0  0
   -3.6210   17.3460  -35.7750 H   0  0  0  0  0  0  0  0  0  0  0  0
   -2.7538   16.7688  -32.9292 H   0  0  0  0  0  0  0  0  0  0  0  0
   -2.6286   15.5931  -34.2815 H   0  0  0  0  0  0  0  0  0  0  0  0
   -1.6114   17.0736  -34.2815 H   0  0  0  0  0  0  0  0  0  0  0  0
   -6.5011   15.9037  -33.2610 H   0  0  0  0  0  0  0  0  0  0  0  0
   -7.2032   16.6175  -34.7524 H   0  0  0  0  0  0  0  0  0  0  0  0
   -5.5074   16.0252  -34.7524 H   0  0  0  0  0  0  0  0  0  0  0  0
   -8.1820   17.1668  -32.6242 H   0  0  0  0  0  0  0  0  0  0  0  0
   -9.8040   18.7398  -31.5868 H   0  0  0  0  0  0  0  0  0  0  0  0
   -9.2829   21.1717  -31.4780 H   0  0  0  0  0  0  0  0  0  0  0  0
   -7.0891   22.0213  -32.2922 H   0  0  0  0  0  0  0  0  0  0  0  0
  1  2  1  0
  2  3  1  0
  3  4  1  0
  3  5  1  0
  5  6  1  0
  6  7  1  0
  7  8  1  0
  8  9  2  0
  9 10  1  0
 10 11  1  0
 11 12  2  0
 12 13  1  0
 13 14  2  0
 14 15  1  0
 15 16  2  0
 16 17  1  0
  9 18  1  0
 18 19  1  0
 19 20  1  0
 18 21  2  0
 21 22  1  0
 21 23  1  0
 23 24  2  0
 24 25  1  0
 25 26  2  0
 26 27  1  0
 27 28  2  0
 28  8  1  0
 16 11  1  0
 28 23  1  0
  1 29  1  0
  1 30  1  0
  1 31  1  0
  2 32  1  0
  2 33  1  0
  4 34  1  0
  4 35  1  0
  4 36  1  0
  5 37  1  0
  5 38  1  0
  6 39  1  0
  6 40  1  0
  7 41  1  0
 10 42  1  0
 10 43  1  0
 12 44  1  0
 13 45  1  0
 14 46  1  0
 15 47  1  0
 17 48  1  0
 17 49  1  0
 17 50  1  0
 19 51  1  0
 20 52  1  0
 20 53  1  0
 20 54  1  0
 22 55  1  0
 22 56  1  0
 22 57  1  0
 24 58  1  0
 25 59  1  0
 26 60  1  0
 27 61  1  0
M  CHG  2  10   1  21   1
M  END
>  <UniqueID>  (6) 
6

>  <SMILES>  (6) 
CCN(C)CCNc1c([NH2+]c2ccccc2C)c(NC)[n+](C)c2ccccc12

>  <Energy>  (6) 
95.20037383818192

>  <Genealogy>  (6) 
CCN(C)CCNc1c([NH2+]c2ccccc2C)c(NC)[n+](C)c2ccccc12 (protonated)
CCN(C)CCNc1c([NH2+]c2ccccc2C)c(NC)[n+](C)c2ccccc12 (3D coordinates assigned)
CCN(C)CCNc1c([NH2+]c2ccccc2C)c(NC)[n+](C)c2ccccc12 (optimized conformer: 95.20037383818192 kcal/mol)

>  <smiles>  (6) 
CCN(C)CCNc1c(Nc2ccccc2C)c(NC)[n+](C)c2ccccc12

>  <score_type>  (6) 
oracle

>  <origin>  (6) 
adg

>  <m_score__min__energy>  (6) 
-8.1600000000000001

>  <m_primary>  (6) 
energy

$$$$
6:0
     RDKit          3D

 72 73  0  0  0  0  0  0  0  0999 V2000
   -6.4400   25.0030  -29.8030 C   0  0  0  0  0  0  0  0  0  0  0  0
   -5.5360   26.0240  -30.4860 C   0  0  0  0  0  0  0  0  0  0  0  0
   -4.2950   25.3830  -30.9480 N   0  0  0  0  0  0  0  0  0  0  0  0
   -4.0240   24.0990  -30.2720 C   0  0  0  0  0  0  0  0  0  0  0  0
   -3.0600   24.2410  -29.0790 C   0  0  0  0  0  0  0  0  0  0  0  0
   -2.1420   25.2980  -29.2830 O   0  0  0  0  0  0  0  0  0  0  0  0
   -1.1010   25.2450  -28.3250 C   0  0  0  0  0  0  0  0  0  0  0  0
   -0.2730   23.9760  -28.5340 C   0  0  0  0  0  0  0  0  0  0  0  0
   -0.6880   22.8610  -27.5620 C   0  0  0  0  0  0  0  0  0  0  0  0
   -0.0000   21.5140  -27.8700 C   0  0  0  0  0  0  0  0  0  0  0  0
   -0.5540   20.7840  -29.0270 N   0  0  0  0  0  0  0  0  0  0  0  0
   -0.1750   21.3190  -30.3450 C   0  0  0  0  0  0  0  0  0  0  0  0
   -1.3000   22.1570  -30.9690 C   0  0  0  0  0  0  0  0  0  0  0  0
   -2.1750   21.3100  -31.8520 C   0  0  0  0  0  0  0  0  0  0  0  0
   -1.9590   19.9270  -31.9540 C   0  0  0  0  0  0  0  0  0  0  0  0
   -2.7780   19.1430  -32.7720 C   0  0  0  0  0  0  0  0  0  0  0  0
   -3.8210   19.7250  -33.5020 C   0  0  0  0  0  0  0  0  0  0  0  0
   -4.6350   18.8850  -34.2820 O   0  0  0  0  0  0  0  0  0  0  0  0
   -6.0620   18.8600  -34.2560 C   0  0  0  0  0  0  0  0  0  0  0  0
   -6.5680   18.2290  -32.9540 C   0  0  0  0  0  0  0  0  0  0  0  0
   -8.0390   18.6110  -32.6840 C   0  0  0  0  0  0  0  0  0  0  0  0
   -8.2020   19.7910  -31.8030 N   0  0  0  0  0  0  0  0  0  0  0  0
   -6.9560   20.5640  -31.5650 C   0  0  0  0  0  0  0  0  0  0  0  0
   -6.9450   21.8990  -32.3230 C   0  0  0  0  0  0  0  0  0  0  0  0
   -8.1430   22.7860  -31.9290 C   0  0  0  0  0  0  0  0  0  0  0  0
   -9.3590   21.9730  -31.4520 C   0  0  0  0  0  0  0  0  0  0  0  0
   -9.4060   20.5960  -32.1260 C   0  0  0  0  0  0  0  0  0  0  0  0
   -4.0130   21.1200  -33.4290 C   0  0  0  0  0  0  0  0  0  0  0  0
   -3.1950   21.9040  -32.6110 C   0  0  0  0  0  0  0  0  0  0  0  0
   -6.3495   25.1053  -28.7115 H   0  0  0  0  0  0  0  0  0  0  0  0
   -7.4837   25.1791  -30.1024 H   0  0  0  0  0  0  0  0  0  0  0  0
   -6.1388   23.9883  -30.1024 H   0  0  0  0  0  0  0  0  0  0  0  0
   -6.0641   26.4554  -31.3491 H   0  0  0  0  0  0  0  0  0  0  0  0
   -5.2819   26.8144  -29.7644 H   0  0  0  0  0  0  0  0  0  0  0  0
   -3.4920   26.0440  -30.8070 H   0  0  0  0  0  0  0  0  0  0  0  0
   -4.9762   23.6870  -29.9066 H   0  0  0  0  0  0  0  0  0  0  0  0
   -3.5449   23.4344  -31.0060 H   0  0  0  0  0  0  0  0  0  0  0  0
   -3.6436   24.4439  -28.1689 H   0  0  0  0  0  0  0  0  0  0  0  0
   -2.4933   23.3037  -28.9770 H   0  0  0  0  0  0  0  0  0  0  0  0
   -0.4537   26.1270  -28.4391 H   0  0  0  0  0  0  0  0  0  0  0  0
   -1.5356   25.2344  -27.3146 H   0  0  0  0  0  0  0  0  0  0  0  0
   -0.4173   23.6219  -29.5654 H   0  0  0  0  0  0  0  0  0  0  0  0
    0.7828   24.2202  -28.3455 H   0  0  0  0  0  0  0  0  0  0  0  0
   -0.4197   23.1674  -26.5402 H   0  0  0  0  0  0  0  0  0  0  0  0
   -1.7724   22.7123  -27.6713 H   0  0  0  0  0  0  0  0  0  0  0  0
    1.0640   21.7110  -28.0677 H   0  0  0  0  0  0  0  0  0  0  0  0
   -0.1681   20.8735  -26.9916 H   0  0  0  0  0  0  0  0  0  0  0  0
   -0.2700   19.7810  -28.9740 H   0  0  0  0  0  0  0  0  0  0  0  0
    0.7170   21.9521  -30.2285 H   0  0  0  0  0  0  0  0  0  0  0  0
    0.0263   20.4683  -31.0127 H   0  0  0  0  0  0  0  0  0  0  0  0
   -1.9128   22.5920  -30.1657 H   0  0  0  0  0  0  0  0  0  0  0  0
   -0.8479   22.9514  -31.5810 H   0  0  0  0  0  0  0  0  0  0  0  0
   -1.1412   19.4576  -31.3875 H   0  0  0  0  0  0  0  0  0  0  0  0
   -2.6013   18.0596  -32.8426 H   0  0  0  0  0  0  0  0  0  0  0  0
   -6.4428   19.8893  -34.3305 H   0  0  0  0  0  0  0  0  0  0  0  0
   -6.4212   18.2585  -35.1040 H   0  0  0  0  0  0  0  0  0  0  0  0
   -6.4899   17.1345  -33.0315 H   0  0  0  0  0  0  0  0  0  0  0  0
   -5.9524   18.6036  -32.1229 H   0  0  0  0  0  0  0  0  0  0  0  0
   -8.5224   18.8291  -33.6477 H   0  0  0  0  0  0  0  0  0  0  0  0
   -8.4993   17.7584  -32.1633 H   0  0  0  0  0  0  0  0  0  0  0  0
   -6.8666   20.7681  -30.4878 H   0  0  0  0  0  0  0  0  0  0  0  0
   -6.1113   19.9620  -31.9312 H   0  0  0  0  0  0  0  0  0  0  0  0
   -6.0127   22.4342  -32.0897 H   0  0  0  0  0  0  0  0  0  0  0  0
   -7.0159   21.6838  -33.3994 H   0  0  0  0  0  0  0  0  0  0  0  0
   -7.8297   23.4582  -31.1166 H   0  0  0  0  0  0  0  0  0  0  0  0
   -8.4501   23.3433  -32.8263 H   0  0  0  0  0  0  0  0  0  0  0  0
   -9.2943   21.8369  -30.3624 H   0  0  0  0  0  0  0  0  0  0  0  0
  -10.2726   22.5233  -31.7211 H   0  0  0  0  0  0  0  0  0  0  0  0
  -10.2998   20.0578  -31.7775 H   0  0  0  0  0  0  0  0  0  0  0  0
   -9.4389   20.7459  -33.2152 H   0  0  0  0  0  0  0  0  0  0  0  0
   -4.8112   21.5938  -34.0193 H   0  0  0  0  0  0  0  0  0  0  0  0
   -3.3514   22.9917  -32.5618 H   0  0  0  0  0  0  0  0  0  0  0  0
  1  2  1  0
  2  3  1  0
  3  4  1  0
  4  5  1  0
  5  6  1  0
  6  7  1  0
  7  8  1  0
  8  9  1  0
  9 10  1  0
 10 11  1  0
 11 12  1  0
 12 13  1  0
 13 14  1  0
 14 15  2  0
 15 16  1  0
 16 17  2  0
 17 18  1  0
 18 19  1  0
 19 20  1  0
 20 21  1  0
 21 22  1  0
 22 23  1  0
 23 24  1  0
 24 25  1  0
 25 26  1  0
 26 27  1  0
 17 28  1  0
 28 29  2  0
 29 14  1  0
 27 22  1  0
  1 30  1  0
  1 31  1  0
  1 32  1  0
  2 33  1  0
  2 34  1  0
  3 35  1  0
  4 36  1  0
  4 37  1  0
  5 38  1  0
  5 39  1  0
  7 40  1  0
  7 41  1  0
  8 42  1  0
  8 43  1  0
  9 44  1  0
  9 45  1  0
 10 46  1  0
 10 47  1  0
 11 48  1  0
 12 49  1  0
 12 50  1  0
 13 51  1  0
 13 52  1  0
 15 53  1  0
 16 54  1  0
 19 55  1  0
 19 56  1  0
 20 57  1  0
 20 58  1  0
 21 59  1  0
 21 60  1  0
 23 61  1  0
 23 62  1  0
 24 63  1  0
 24 64  1  0
 25 65  1  0
 25 66  1  0
 26 67  1  0
 26 68  1  0
 27 69  1  0
 27 70  1  0
 28 71  1  0
 29 72  1  0
M  END
>  <UniqueID>  (7) 
7

>  <SMILES>  (7) 
CCNCCOCCCCNCCc1ccc(OCCCN2CCCCC2)cc1

>  <Energy>  (7) 
70.57986254353428

>  <Genealogy>  (7) 
CCNCCOCCCCNCCc1ccc(OCCCN2CCCCC2)cc1 (3D coordinates assigned)
CCNCCOCCCCNCCc1ccc(OCCCN2CCCCC2)cc1 (nonaromatic ring conformer: 70.57986254353428 kcal/mol)

>  <smiles>  (7) 
CCNCCOCCCCNCCc1ccc(OCCCN2CCCCC2)cc1

>  <score_type>  (7) 
oracle

>  <origin>  (7) 
adg

>  <m_score__min__energy>  (7) 
-8.0999999999999996

>  <m_primary>  (7) 
energy

$$$$
7:0
     RDKit          3D

 54 56  0  0  0  0  0  0  0  0999 V2000
   -3.8060   23.9420  -29.7980 C   0  0  0  0  0  0  0  0  0  0  0  0
   -2.6630   22.9830  -29.5000 C   0  0  0  0  0  0  0  0  0  0  0  0
   -2.3030   22.3120  -30.6870 O   0  0  0  0  0  0  0  0  0  0  0  0
   -0.9550   21.8980  -30.6070 C   0  0  0  0  0  0  0  0  0  0  0  0
   -0.6180   21.0160  -31.8080 C   0  0  0  0  0  0  0  0  0  0  0  0
   -1.7810   20.4000  -32.3320 O   0  0  0  0  0  0  0  0  0  0  0  0
   -2.1900   21.0120  -33.5400 C   0  0  0  0  0  0  0  0  0  0  0  0
   -3.6470   21.4810  -33.4150 C   0  0  0  0  0  0  0  0  0  0  0  0
   -4.2210   21.2650  -32.0720 N   0  0  0  0  0  0  0  0  0  0  0  0
   -5.4890   20.5490  -32.1120 C   0  0  0  0  0  0  0  0  0  0  0  0
   -6.6840   21.1960  -31.6960 C   0  0  0  0  0  0  0  0  0  0  0  0
   -7.8980   20.4810  -31.6680 C   0  0  0  0  0  0  0  0  0  0  0  0
   -7.9190   19.1290  -31.9120 N   0  0  0  0  0  0  0  0  0  0  0  0
   -9.1130   18.3380  -31.5420 C   0  0  0  0  0  0  0  0  0  0  0  0
   -6.8280   18.5160  -32.4880 C   0  0  0  0  0  0  0  0  0  0  0  0
   -6.9270   17.2040  -33.0190 C   0  0  0  0  0  0  0  0  0  0  0  0
   -5.8220   16.5620  -33.5700 C   0  0  0  0  0  0  0  0  0  0  0  0
   -5.9770   14.9370  -34.2140 Cl  0  0  0  0  0  0  0  0  0  0  0  0
   -4.5960   17.2060  -33.6070 C   0  0  0  0  0  0  0  0  0  0  0  0
   -4.4640   18.4980  -33.1040 C   0  0  0  0  0  0  0  0  0  0  0  0
   -5.5770   19.1990  -32.5710 C   0  0  0  0  0  0  0  0  0  0  0  0
   -9.1620   21.2580  -31.3280 C   0  0  0  0  0  0  0  0  0  0  0  0
   -9.1670   22.6210  -32.0340 C   0  0  0  0  0  0  0  0  0  0  0  0
   -7.8690   23.4290  -31.8260 C   0  0  0  0  0  0  0  0  0  0  0  0
   -6.7330   22.6260  -31.1750 C   0  0  0  0  0  0  0  0  0  0  0  0
   -4.2371   24.3037  -28.8528 H   0  0  0  0  0  0  0  0  0  0  0  0
   -3.4264   24.7959  -30.3783 H   0  0  0  0  0  0  0  0  0  0  0  0
   -4.5809   23.4198  -30.3783 H   0  0  0  0  0  0  0  0  0  0  0  0
   -1.7988   23.5469  -29.1189 H   0  0  0  0  0  0  0  0  0  0  0  0
   -2.9806   22.2516  -28.7423 H   0  0  0  0  0  0  0  0  0  0  0  0
   -0.3000   22.7817  -30.6064 H   0  0  0  0  0  0  0  0  0  0  0  0
   -0.8027   21.3264  -29.6796 H   0  0  0  0  0  0  0  0  0  0  0  0
   -0.1565   21.6361  -32.5906 H   0  0  0  0  0  0  0  0  0  0  0  0
    0.0758   20.2284  -31.4787 H   0  0  0  0  0  0  0  0  0  0  0  0
   -1.5439   21.8775  -33.7485 H   0  0  0  0  0  0  0  0  0  0  0  0
   -2.1104   20.2852  -34.3618 H   0  0  0  0  0  0  0  0  0  0  0  0
   -3.6875   22.5565  -33.6423 H   0  0  0  0  0  0  0  0  0  0  0  0
   -4.2416   20.8832  -34.1215 H   0  0  0  0  0  0  0  0  0  0  0  0
   -3.5400   20.7320  -31.4880 H   0  0  0  0  0  0  0  0  0  0  0  0
   -4.2630   22.1720  -31.5690 H   0  0  0  0  0  0  0  0  0  0  0  0
   -9.1927   18.2852  -30.4462 H   0  0  0  0  0  0  0  0  0  0  0  0
  -10.0131   18.8190  -31.9523 H   0  0  0  0  0  0  0  0  0  0  0  0
   -9.0211   17.3216  -31.9523 H   0  0  0  0  0  0  0  0  0  0  0  0
   -7.8961   16.6841  -32.9947 H   0  0  0  0  0  0  0  0  0  0  0  0
   -3.7220   16.6941  -34.0360 H   0  0  0  0  0  0  0  0  0  0  0  0
   -3.4777   18.9847  -33.1201 H   0  0  0  0  0  0  0  0  0  0  0  0
  -10.0397   20.6798  -31.6527 H   0  0  0  0  0  0  0  0  0  0  0  0
   -9.1945   21.4225  -30.2409 H   0  0  0  0  0  0  0  0  0  0  0  0
   -9.3033   22.4535  -33.1126 H   0  0  0  0  0  0  0  0  0  0  0  0
   -9.9867   23.2087  -31.5951 H   0  0  0  0  0  0  0  0  0  0  0  0
   -7.5225   23.7861  -32.8070 H   0  0  0  0  0  0  0  0  0  0  0  0
   -8.1124   24.2524  -31.1384 H   0  0  0  0  0  0  0  0  0  0  0  0
   -5.7752   23.1193  -31.3968 H   0  0  0  0  0  0  0  0  0  0  0  0
   -6.9160   22.5900  -30.0909 H   0  0  0  0  0  0  0  0  0  0  0  0
  1  2  1  0
  2  3  1  0
  3  4  1  0
  4  5  1  0
  5  6  1  0
  6  7  1  0
  7  8  1  0
  8  9  1  0
  9 10  1  0
 10 11  2  0
 11 12  1  0
 12 13  2  0
 13 14  1  0
 13 15  1  0
 15 16  2  0
 16 17  1  0
 17 18  1  0
 17 19  2  0
 19 20  1  0
 20 21  2  0
 12 22  1  0
 22 23  1  0
 23 24  1  0
 24 25  1  0
 21 10  1  0
 25 11  1  0
 21 15  1  0
  1 26  1  0
  1 27  1  0
  1 28  1  0
  2 29  1  0
  2 30  1  0
  4 31  1  0
  4 32  1  0
  5 33  1  0
  5 34  1  0
  7 35  1  0
  7 36  1  0
  8 37  1  0
  8 38  1  0
  9 39  1  0
  9 40  1  0
 14 41  1  0
 14 42  1  0
 14 43  1  0
 16 44  1  0
 19 45  1  0
 20 46  1  0
 22 47  1  0
 22 48  1  0
 23 49  1  0
 23 50  1  0
 24 51  1  0
 24 52  1  0
 25 53  1  0
 25 54  1  0
M  CHG  2   9   1  13   1
M  END
>  <UniqueID>  (8) 
8

>  <SMILES>  (8) 
CCOCCOCC[NH2+]c1c2c([n+](C)c3cc(Cl)ccc13)CCCC2

>  <Energy>  (8) 
78.0556996181322

>  <Genealogy>  (8) 
CCOCCOCC[NH2+]c1c2c([n+](C)c3cc(Cl)ccc13)CCCC2 (protonated)
CCOCCOCC[NH2+]c1c2c([n+](C)c3cc(Cl)ccc13)CCCC2 (3D coordinates assigned)
CCOCCOCC[NH2+]c1c2c([n+](C)c3cc(Cl)ccc13)CCCC2 (nonaromatic ring conformer: 78.0556996181322 kcal/mol)

>  <smiles>  (8) 
CCOCCOCCNc1c2c([n+](C)c3cc(Cl)ccc13)CCCC2

>  <score_type>  (8) 
oracle

>  <origin>  (8) 
adg

>  <m_score__min__energy>  (8) 
-8.8200000000000003

>  <m_primary>  (8) 
energy

$$$$
8:0
     RDKit          3D

 70 73  0  0  0  0  0  0  0  0999 V2000
   -8.0515   20.9019  -33.1429 H   0  0  0  0  0  0  0  0  0  0  0  0
   -6.9880   20.6210  -33.1450 C   0  0  0  0  0  0  0  0  0  0  0  0
   -6.5150   20.0460  -34.2130 N   0  0  0  0  0  0  0  0  0  0  0  0
   -5.3860   19.2460  -34.2810 O   0  0  0  0  0  0  0  0  0  0  0  0
   -5.3640   17.9840  -34.9470 C   0  0  0  0  0  0  0  0  0  0  0  0
   -4.4958   17.9428  -35.6212 H   0  0  0  0  0  0  0  0  0  0  0  0
   -6.2915   17.8646  -35.5262 H   0  0  0  0  0  0  0  0  0  0  0  0
   -5.2630   16.8540  -33.9210 C   0  0  0  0  0  0  0  0  0  0  0  0
   -4.7052   17.2241  -33.0482 H   0  0  0  0  0  0  0  0  0  0  0  0
   -4.7535   16.0125  -34.4132 H   0  0  0  0  0  0  0  0  0  0  0  0
   -6.6290   16.3410  -33.4440 C   0  0  0  0  0  0  0  0  0  0  0  0
   -6.4908   15.7428  -32.5313 H   0  0  0  0  0  0  0  0  0  0  0  0
   -7.0727   15.7266  -34.2413 H   0  0  0  0  0  0  0  0  0  0  0  0
   -7.5360   17.4620  -33.1530 N   0  0  0  0  0  0  0  0  0  0  0  0
   -7.2310   18.2740  -33.7400 H   0  0  0  0  0  0  0  0  0  0  0  0
   -7.4380   17.8820  -31.7470 C   0  0  0  0  0  0  0  0  0  0  0  0
   -6.5800   18.5604  -31.6302 H   0  0  0  0  0  0  0  0  0  0  0  0
   -7.3033   16.9906  -31.1167 H   0  0  0  0  0  0  0  0  0  0  0  0
   -8.7120   18.6040  -31.3180 C   0  0  0  0  0  0  0  0  0  0  0  0
   -8.7645   18.6337  -30.2197 H   0  0  0  0  0  0  0  0  0  0  0  0
   -8.7021   19.6308  -31.7125 H   0  0  0  0  0  0  0  0  0  0  0  0
   -9.5878   18.0680  -31.7125 H   0  0  0  0  0  0  0  0  0  0  0  0
   -6.1790   20.9280  -31.9120 C   0  0  0  0  0  0  0  0  0  0  0  0
   -6.8566   21.2873  -31.1234 H   0  0  0  0  0  0  0  0  0  0  0  0
   -5.6644   20.0053  -31.6057 H   0  0  0  0  0  0  0  0  0  0  0  0
   -5.1010   22.0110  -32.1770 C   0  0  2  0  0  0  0  0  0  0  0  0
   -5.2625   22.4100  -33.1893 H   0  0  0  0  0  0  0  0  0  0  0  0
   -3.7500   21.3730  -32.0870 N   0  0  0  0  0  0  0  0  0  0  0  0
   -2.9760   21.5260  -33.3390 C   0  0  0  0  0  0  0  0  0  0  0  0
   -3.6664   21.7550  -34.1641 H   0  0  0  0  0  0  0  0  0  0  0  0
   -2.2515   22.3432  -33.2080 H   0  0  0  0  0  0  0  0  0  0  0  0
   -2.2240   20.2610  -33.6610 C   0  0  0  0  0  0  0  0  0  0  0  0
   -2.6530   19.0350  -33.1260 C   0  0  0  0  0  0  0  0  0  0  0  0
   -3.5482   18.9986  -32.4878 H   0  0  0  0  0  0  0  0  0  0  0  0
   -1.9460   17.8610  -33.4020 C   0  0  0  0  0  0  0  0  0  0  0  0
   -2.2892   16.9026  -32.9854 H   0  0  0  0  0  0  0  0  0  0  0  0
   -0.8030   17.9030  -34.2070 C   0  0  0  0  0  0  0  0  0  0  0  0
    0.0820   16.4290  -34.5520 Cl  0  0  0  0  0  0  0  0  0  0  0  0
   -0.3660   19.1220  -34.7360 C   0  0  0  0  0  0  0  0  0  0  0  0
    0.5334   19.1555  -35.3684 H   0  0  0  0  0  0  0  0  0  0  0  0
   -1.0710   20.2980  -34.4620 C   0  0  0  0  0  0  0  0  0  0  0  0
   -0.7213   21.2555  -34.8753 H   0  0  0  0  0  0  0  0  0  0  0  0
   -2.9360   21.7570  -30.9020 C   0  0  0  0  0  0  0  0  0  0  0  0
   -2.4738   22.7375  -31.0890 H   0  0  0  0  0  0  0  0  0  0  0  0
   -2.1688   20.9841  -30.7466 H   0  0  0  0  0  0  0  0  0  0  0  0
   -3.7970   21.8450  -29.6260 C   0  0  1  0  0  0  0  0  0  0  0  0
   -4.2731   20.8604  -29.5077 H   0  0  0  0  0  0  0  0  0  0  0  0
   -2.9600   22.0840  -28.3610 C   0  0  0  0  0  0  0  0  0  0  0  0
   -2.1349   21.3568  -28.3421 H   0  0  0  0  0  0  0  0  0  0  0  0
   -3.6262   21.9650  -27.4938 H   0  0  0  0  0  0  0  0  0  0  0  0
   -2.3700   23.4970  -28.3020 C   0  0  0  0  0  0  0  0  0  0  0  0
   -1.4021   23.4940  -28.8247 H   0  0  0  0  0  0  0  0  0  0  0  0
   -2.2648   23.7635  -27.2400 H   0  0  0  0  0  0  0  0  0  0  0  0
   -3.2730   24.5570  -28.9520 C   0  0  0  0  0  0  0  0  0  0  0  0
   -2.9409   24.7194  -29.9880 H   0  0  0  0  0  0  0  0  0  0  0  0
   -3.1939   25.4804  -28.3594 H   0  0  0  0  0  0  0  0  0  0  0  0
   -4.6920   24.1430  -28.9650 N   0  0  0  0  0  0  0  0  0  0  0  0
   -5.5490   25.2930  -29.3700 C   0  0  0  0  0  0  0  0  0  0  0  0
   -4.9705   25.9384  -30.0474 H   0  0  0  0  0  0  0  0  0  0  0  0
   -5.8456   25.8190  -28.4506 H   0  0  0  0  0  0  0  0  0  0  0  0
   -6.8410   24.8640  -30.0880 C   0  0  0  0  0  0  0  0  0  0  0  0
   -7.4120   25.7630  -30.3631 H   0  0  0  0  0  0  0  0  0  0  0  0
   -7.4193   24.2256  -29.4039 H   0  0  0  0  0  0  0  0  0  0  0  0
   -6.5380   24.0530  -31.3650 C   0  0  0  0  0  0  0  0  0  0  0  0
   -6.4569   24.7464  -32.2151 H   0  0  0  0  0  0  0  0  0  0  0  0
   -7.3579   23.3349  -31.5137 H   0  0  0  0  0  0  0  0  0  0  0  0
   -5.2180   23.2530  -31.2450 C   0  0  1  0  0  0  0  0  0  0  0  0
   -4.4321   23.9260  -31.6184 H   0  0  0  0  0  0  0  0  0  0  0  0
   -4.9280   22.9060  -29.7660 C   0  0  1  0  0  0  0  0  0  0  0  0
   -5.8237   22.4282  -29.3423 H   0  0  0  0  0  0  0  0  0  0  0  0
  1  2  1  0
  2  3  2  0
  3  4  1  0
  4  5  1  0
  5  6  1  0
  5  7  1  0
  5  8  1  0
  8  9  1  0
  8 10  1  0
  8 11  1  0
 11 12  1  0
 11 13  1  0
 11 14  1  0
 14 15  1  0
 14 16  1  0
 16 17  1  0
 16 18  1  0
 16 19  1  0
 19 20  1  0
 19 21  1  0
 19 22  1  0
  2 23  1  0
 23 24  1  0
 23 25  1  0
 23 26  1  0
 26 27  1  6
 26 28  1  0
 28 29  1  0
 29 30  1  0
 29 31  1  0
 29 32  1  0
 32 33  2  0
 33 34  1  0
 33 35  1  0
 35 36  1  0
 35 37  2  0
 37 38  1  0
 37 39  1  0
 39 40  1  0
 39 41  2  0
 41 42  1  0
 28 43  1  0
 43 44  1  0
 43 45  1  0
 43 46  1  0
 46 47  1  1
 46 48  1  0
 48 49  1  0
 48 50  1  0
 48 51  1  0
 51 52  1  0
 51 53  1  0
 51 54  1  0
 54 55  1  0
 54 56  1  0
 54 57  1  0
 57 58  1  0
 58 59  1  0
 58 60  1  0
 58 61  1  0
 61 62  1  0
 61 63  1  0
 61 64  1  0
 64 65  1  0
 64 66  1  0
 64 67  1  0
 67 68  1  6
 67 69  1  0
 69 70  1  1
 67 26  1  0
 41 32  1  0
 69 46  1  0
 69 57  1  0
M  END
>  <UniqueID>  (9) 
9

>  <SMILES>  (9) 
CCNCCCO/N=C\C[C@H]1[C@H]2CCCN3CCCC(CN1Cc1ccc(Cl)cc1)C23

>  <Energy>  (9) 
96.1122911891064

>  <Genealogy>  (9) 
CCNCCCON=CC[C@H]1[C@H]2CCCN3CCCC(CN1Cc1ccc(Cl)cc1)C23 (chirality)
CCNCCCO/N=C\C[C@H]1[C@H]2CCCN3CCCC(CN1Cc1ccc(Cl)cc1)C23 (cis-trans isomerization)
CCNCCCO/N=C\C[C@H]1[C@H]2CCCN3CCCC(CN1Cc1ccc(Cl)cc1)C23 (3D coordinates assigned)
CCNCCCO/N=C\C[C@H]1[C@H]2CCCN3CCCC(CN1Cc1ccc(Cl)cc1)C23 (nonaromatic ring conformer: 96.1122911891064 kcal/mol)

>  <smiles>  (9) 
CCNCCCON=CCC1C2CCCN3CCCC(CN1Cc1ccc(Cl)cc1)C23

>  <score_type>  (9) 
oracle

>  <origin>  (9) 
adg

>  <m_score__min__energy>  (9) 
-10.85

>  <m_primary>  (9) 
energy

$$$$
9:0
     RDKit          3D

 64 66  0  0  0  0  0  0  0  0999 V2000
    2.4410   28.3040  -35.0710 C   0  0  0  0  0  0  0  0  0  0  0  0
    2.5930   26.8040  -35.3670 C   0  0  0  0  0  0  0  0  0  0  0  0
    1.3120   26.0650  -35.2610 N   0  0  1  0  0  0  0  0  0  0  0  0
    0.2160   27.0360  -35.0690 C   0  0  0  0  0  0  0  0  0  0  0  0
    1.0570   25.2270  -36.4630 C   0  0  0  0  0  0  0  0  0  0  0  0
    0.6460   23.7770  -36.0980 C   0  0  0  0  0  0  0  0  0  0  0  0
    1.3930   23.3040  -34.9880 O   0  0  0  0  0  0  0  0  0  0  0  0
    1.1610   21.9270  -34.7520 C   0  0  0  0  0  0  0  0  0  0  0  0
   -0.1350   21.4680  -35.4200 C   0  0  0  0  0  0  0  0  0  0  0  0
   -0.8890   20.7250  -34.4820 O   0  0  0  0  0  0  0  0  0  0  0  0
   -0.8020   21.3400  -33.2130 C   0  0  0  0  0  0  0  0  0  0  0  0
   -2.1740   21.2990  -32.5310 C   0  0  0  0  0  0  0  0  0  0  0  0
   -3.2980   21.2270  -33.4740 N   0  0  0  0  0  0  0  0  0  0  0  0
   -4.6390   20.8570  -33.1120 C   0  0  0  0  0  0  0  0  0  0  0  0
   -5.4490   21.8020  -32.4510 C   0  0  0  0  0  0  0  0  0  0  0  0
   -4.9230   23.0500  -32.0410 C   0  0  0  0  0  0  0  0  0  0  0  0
   -5.7280   23.9970  -31.4140 C   0  0  0  0  0  0  0  0  0  0  0  0
   -7.0630   23.7150  -31.1690 C   0  0  0  0  0  0  0  0  0  0  0  0
   -7.5990   22.4820  -31.5370 C   0  0  0  0  0  0  0  0  0  0  0  0
   -6.8120   21.5080  -32.2050 C   0  0  0  0  0  0  0  0  0  0  0  0
   -7.3370   20.2960  -32.5990 N   0  0  0  0  0  0  0  0  0  0  0  0
   -8.8050   20.0900  -32.5850 C   0  0  0  0  0  0  0  0  0  0  0  0
   -6.4990   19.2750  -33.0100 C   0  0  0  0  0  0  0  0  0  0  0  0
   -6.9730   17.9450  -33.0950 C   0  0  0  0  0  0  0  0  0  0  0  0
   -6.1700   16.9180  -33.5660 C   0  0  0  0  0  0  0  0  0  0  0  0
   -4.8670   17.1750  -33.9470 C   0  0  0  0  0  0  0  0  0  0  0  0
   -4.3200   18.4640  -33.8470 C   0  0  0  0  0  0  0  0  0  0  0  0
   -2.8720   18.6040  -34.2500 C   0  0  0  0  0  0  0  0  0  0  0  0
   -5.1310   19.5400  -33.3380 C   0  0  0  0  0  0  0  0  0  0  0  0
    2.4249   28.4632  -33.9827 H   0  0  0  0  0  0  0  0  0  0  0  0
    3.2882   28.8519  -35.5092 H   0  0  0  0  0  0  0  0  0  0  0  0
    1.5011   28.6708  -35.5092 H   0  0  0  0  0  0  0  0  0  0  0  0
    2.9839   26.6851  -36.3883 H   0  0  0  0  0  0  0  0  0  0  0  0
    3.2797   26.3861  -34.6161 H   0  0  0  0  0  0  0  0  0  0  0  0
    1.3510   25.4590  -34.4100 H   0  0  0  0  0  0  0  0  0  0  0  0
    0.0448   27.1877  -33.9930 H   0  0  0  0  0  0  0  0  0  0  0  0
    0.4890   27.9941  -35.5355 H   0  0  0  0  0  0  0  0  0  0  0  0
   -0.7022   26.6495  -35.5355 H   0  0  0  0  0  0  0  0  0  0  0  0
    0.2471   25.6867  -37.0485 H   0  0  0  0  0  0  0  0  0  0  0  0
    1.9925   25.1748  -37.0394 H   0  0  0  0  0  0  0  0  0  0  0  0
   -0.4246   23.7586  -35.8460 H   0  0  0  0  0  0  0  0  0  0  0  0
    0.8483   23.1261  -36.9613 H   0  0  0  0  0  0  0  0  0  0  0  0
    2.0013   21.3456  -35.1593 H   0  0  0  0  0  0  0  0  0  0  0  0
    1.0721   21.7672  -33.6673 H   0  0  0  0  0  0  0  0  0  0  0  0
   -0.7128   22.3444  -35.7486 H   0  0  0  0  0  0  0  0  0  0  0  0
    0.0950   20.8433  -36.2957 H   0  0  0  0  0  0  0  0  0  0  0  0
   -0.0686   20.8022  -32.5943 H   0  0  0  0  0  0  0  0  0  0  0  0
   -0.4831   22.3859  -33.3332 H   0  0  0  0  0  0  0  0  0  0  0  0
   -2.2112   20.4149  -31.8776 H   0  0  0  0  0  0  0  0  0  0  0  0
   -2.2834   22.2389  -31.9701 H   0  0  0  0  0  0  0  0  0  0  0  0
   -3.0550   21.1710  -34.4880 H   0  0  0  0  0  0  0  0  0  0  0  0
   -3.8614   23.2754  -32.2205 H   0  0  0  0  0  0  0  0  0  0  0  0
   -5.3056   24.9672  -31.1135 H   0  0  0  0  0  0  0  0  0  0  0  0
   -7.7016   24.4669  -30.6824 H   0  0  0  0  0  0  0  0  0  0  0  0
   -8.6512   22.2598  -31.3054 H   0  0  0  0  0  0  0  0  0  0  0  0
   -9.1584   20.0404  -31.5445 H   0  0  0  0  0  0  0  0  0  0  0  0
   -9.2978   20.9278  -33.1001 H   0  0  0  0  0  0  0  0  0  0  0  0
   -9.0481   19.1489  -33.1001 H   0  0  0  0  0  0  0  0  0  0  0  0
   -8.0028   17.7205  -32.7800 H   0  0  0  0  0  0  0  0  0  0  0  0
   -6.5710   15.8961  -33.6366 H   0  0  0  0  0  0  0  0  0  0  0  0
   -4.2466   16.3542  -34.3360 H   0  0  0  0  0  0  0  0  0  0  0  0
   -2.2447   18.6647  -33.3484 H   0  0  0  0  0  0  0  0  0  0  0  0
   -2.5716   17.7307  -34.8476 H   0  0  0  0  0  0  0  0  0  0  0  0
   -2.7445   19.5187  -34.8476 H   0  0  0  0  0  0  0  0  0  0  0  0
  1  2  1  0
  2  3  1  0
  3  4  1  0
  3  5  1  0
  5  6  1  0
  6  7  1  0
  7  8  1  0
  8  9  1  0
  9 10  1  0
 10 11  1  0
 11 12  1  0
 12 13  1  0
 13 14  1  0
 14 15  2  0
 15 16  1  0
 16 17  2  0
 17 18  1  0
 18 19  2  0
 19 20  1  0
 20 21  2  0
 21 22  1  0
 21 23  1  0
 23 24  2  0
 24 25  1  0
 25 26  2  0
 26 27  1  0
 27 28  1  0
 27 29  2  0
 29 14  1  0
 20 15  1  0
 29 23  1  0
  1 30  1  0
  1 31  1  0
  1 32  1  0
  2 33  1  0
  2 34  1  0
  3 35  1  1
  4 36  1  0
  4 37  1  0
  4 38  1  0
  5 39  1  0
  5 40  1  0
  6 41  1  0
  6 42  1  0
  8 43  1  0
  8 44  1  0
  9 45  1  0
  9 46  1  0
 11 47  1  0
 11 48  1  0
 12 49  1  0
 12 50  1  0
 13 51  1  0
 16 52  1  0
 17 53  1  0
 18 54  1  0
 19 55  1  0
 22 56  1  0
 22 57  1  0
 22 58  1  0
 24 59  1  0
 25 60  1  0
 26 61  1  0
 28 62  1  0
 28 63  1  0
 28 64  1  0
M  CHG  2   3   1  21   1
M  END
>  <UniqueID>  (10) 
10

>  <SMILES>  (10) 
CC[N@@H+](C)CCOCCOCCNc1c2ccccc2[n+](C)c2cccc(C)c12

>  <Energy>  (10) 
100.62251819721368

>  <Genealogy>  (10) 
CC[NH+](C)CCOCCOCCNc1c2ccccc2[n+](C)c2cccc(C)c12 (protonated)
CC[N@@H+](C)CCOCCOCCNc1c2ccccc2[n+](C)c2cccc(C)c12 (chirality)
CC[N@@H+](C)CCOCCOCCNc1c2ccccc2[n+](C)c2cccc(C)c12 (3D coordinates assigned)
CC[N@@H+](C)CCOCCOCCNc1c2ccccc2[n+](C)c2cccc(C)c12 (optimized conformer: 100.62251819721368 kcal/mol)

>  <smiles>  (10) 
CCN(C)CCOCCOCCNc1c2ccccc2[n+](C)c2cccc(C)c12

>  <score_type>  (10) 
oracle

>  <origin>  (10) 
adg

>  <m_score__min__energy>  (10) 
-8.6699999999999999

>  <m_primary>  (10) 
energy

$$$$
10:0
     RDKit          3D

 73 75  0  0  0  0  0  0  0  0999 V2000
   -0.5370   29.7380  -36.8190 C   0  0  0  0  0  0  0  0  0  0  0  0
   -1.1780   28.6580  -35.9330 C   0  0  0  0  0  0  0  0  0  0  0  0
   -1.2650   27.3210  -36.5650 N   0  0  0  0  0  0  0  0  0  0  0  0
   -1.5050   27.3800  -38.0160 C   0  0  0  0  0  0  0  0  0  0  0  0
   -0.1360   26.4290  -36.2200 C   0  0  0  0  0  0  0  0  0  0  0  0
    0.5620   25.9490  -37.4910 C   0  0  0  0  0  0  0  0  0  0  0  0
    1.2130   24.7180  -37.2320 O   0  0  0  0  0  0  0  0  0  0  0  0
    0.6630   24.0880  -36.0960 C   0  0  0  0  0  0  0  0  0  0  0  0
    1.6230   23.0100  -35.6110 C   0  0  0  0  0  0  0  0  0  0  0  0
    1.5220   21.8830  -36.4580 O   0  0  0  0  0  0  0  0  0  0  0  0
    0.3960   21.0970  -36.1080 C   0  0  0  0  0  0  0  0  0  0  0  0
    0.2910   20.9660  -34.5860 C   0  0  0  0  0  0  0  0  0  0  0  0
   -0.9760   21.3930  -34.1180 O   0  0  0  0  0  0  0  0  0  0  0  0
   -1.0090   21.4620  -32.7040 C   0  0  0  0  0  0  0  0  0  0  0  0
   -2.4520   21.5630  -32.2010 C   0  0  0  0  0  0  0  0  0  0  0  0
   -3.3960   21.3800  -33.3010 N   0  0  0  0  0  0  0  0  0  0  0  0
   -4.7100   20.8620  -33.0540 C   0  0  0  0  0  0  0  0  0  0  0  0
   -5.6930   21.6800  -32.4760 C   0  0  0  0  0  0  0  0  0  0  0  0
   -5.3960   23.0050  -32.0960 C   0  0  0  0  0  0  0  0  0  0  0  0
   -6.3590   23.8000  -31.4800 C   0  0  0  0  0  0  0  0  0  0  0  0
   -7.6250   23.2840  -31.2190 C   0  0  0  0  0  0  0  0  0  0  0  0
   -7.9430   21.9800  -31.5950 C   0  0  0  0  0  0  0  0  0  0  0  0
   -6.9970   21.1580  -32.2610 C   0  0  0  0  0  0  0  0  0  0  0  0
   -7.3090   19.8770  -32.6810 N   0  0  0  0  0  0  0  0  0  0  0  0
   -8.7210   19.4380  -32.7240 C   0  0  0  0  0  0  0  0  0  0  0  0
   -6.3040   19.0170  -33.0880 C   0  0  0  0  0  0  0  0  0  0  0  0
   -6.5340   17.6300  -33.2720 C   0  0  0  0  0  0  0  0  0  0  0  0
   -5.5230   16.7770  -33.7410 C   0  0  0  0  0  0  0  0  0  0  0  0
   -5.7950   15.3760  -33.9620 N   0  0  0  0  0  0  0  0  0  0  0  0
   -7.2050   15.1840  -34.3060 C   0  0  0  0  0  0  0  0  0  0  0  0
   -4.2610   17.3050  -34.0310 C   0  0  0  0  0  0  0  0  0  0  0  0
   -3.9940   18.6520  -33.8100 C   0  0  0  0  0  0  0  0  0  0  0  0
   -4.9960   19.5140  -33.3200 C   0  0  0  0  0  0  0  0  0  0  0  0
   -0.0789   30.5098  -36.1829 H   0  0  0  0  0  0  0  0  0  0  0  0
    0.2357   29.2802  -37.4541 H   0  0  0  0  0  0  0  0  0  0  0  0
   -1.3090   30.1970  -37.4541 H   0  0  0  0  0  0  0  0  0  0  0  0
   -0.5794   28.5663  -35.0147 H   0  0  0  0  0  0  0  0  0  0  0  0
   -2.2113   28.9823  -35.7403 H   0  0  0  0  0  0  0  0  0  0  0  0
   -2.5576   27.6388  -38.2033 H   0  0  0  0  0  0  0  0  0  0  0  0
   -0.8540   28.1448  -38.4645 H   0  0  0  0  0  0  0  0  0  0  0  0
   -1.2828   26.4005  -38.4645 H   0  0  0  0  0  0  0  0  0  0  0  0
    0.5836   26.9782  -35.5951 H   0  0  0  0  0  0  0  0  0  0  0  0
   -0.5211   25.5576  -35.6701 H   0  0  0  0  0  0  0  0  0  0  0  0
   -0.1825   25.8101  -38.2888 H   0  0  0  0  0  0  0  0  0  0  0  0
    1.3027   26.6974  -37.8093 H   0  0  0  0  0  0  0  0  0  0  0  0
    0.5111   24.8315  -35.2997 H   0  0  0  0  0  0  0  0  0  0  0  0
   -0.3043   23.6334  -36.3560 H   0  0  0  0  0  0  0  0  0  0  0  0
    2.6526   23.3966  -35.6341 H   0  0  0  0  0  0  0  0  0  0  0  0
    1.3661   22.7225  -34.5808 H   0  0  0  0  0  0  0  0  0  0  0  0
   -0.5154   21.5765  -36.4946 H   0  0  0  0  0  0  0  0  0  0  0  0
    0.5096   20.0945  -36.5462 H   0  0  0  0  0  0  0  0  0  0  0  0
    0.4398   19.9127  -34.3061 H   0  0  0  0  0  0  0  0  0  0  0  0
    1.0623   21.6033  -34.1290 H   0  0  0  0  0  0  0  0  0  0  0  0
   -0.5438   20.5565  -32.2872 H   0  0  0  0  0  0  0  0  0  0  0  0
   -0.4580   22.3574  -32.3804 H   0  0  0  0  0  0  0  0  0  0  0  0
   -2.6255   20.7850  -31.4430 H   0  0  0  0  0  0  0  0  0  0  0  0
   -2.6057   22.5612  -31.7652 H   0  0  0  0  0  0  0  0  0  0  0  0
   -3.1780   21.7400  -34.2590 H   0  0  0  0  0  0  0  0  0  0  0  0
   -4.3934   23.4148  -32.2881 H   0  0  0  0  0  0  0  0  0  0  0  0
   -6.1191   24.8362  -31.1995 H   0  0  0  0  0  0  0  0  0  0  0  0
   -8.3775   23.9076  -30.7141 H   0  0  0  0  0  0  0  0  0  0  0  0
   -8.9437   21.5815  -31.3718 H   0  0  0  0  0  0  0  0  0  0  0  0
   -9.0998   19.3202  -31.6980 H   0  0  0  0  0  0  0  0  0  0  0  0
   -9.3232   20.1913  -33.2530 H   0  0  0  0  0  0  0  0  0  0  0  0
   -8.7899   18.4760  -33.2530 H   0  0  0  0  0  0  0  0  0  0  0  0
   -7.5259   17.2137  -33.0423 H   0  0  0  0  0  0  0  0  0  0  0  0
   -5.5750   14.8240  -33.0980 H   0  0  0  0  0  0  0  0  0  0  0  0
   -5.1990   15.0110  -34.7410 H   0  0  0  0  0  0  0  0  0  0  0  0
   -7.7996   15.1030  -33.3841 H   0  0  0  0  0  0  0  0  0  0  0  0
   -7.5586   16.0423  -34.8962 H   0  0  0  0  0  0  0  0  0  0  0  0
   -7.3162   14.2624  -34.8962 H   0  0  0  0  0  0  0  0  0  0  0  0
   -3.4748   16.6511  -34.4363 H   0  0  0  0  0  0  0  0  0  0  0  0
   -2.9899   19.0490  -34.0199 H   0  0  0  0  0  0  0  0  0  0  0  0
  1  2  1  0
  2  3  1  0
  3  4  1  0
  3  5  1  0
  5  6  1  0
  6  7  1  0
  7  8  1  0
  8  9  1  0
  9 10  1  0
 10 11  1  0
 11 12  1  0
 12 13  1  0
 13 14  1  0
 14 15  1  0
 15 16  1  0
 16 17  1  0
 17 18  2  0
 18 19  1  0
 19 20  2  0
 20 21  1  0
 21 22  2  0
 22 23  1  0
 23 24  2  0
 24 25  1  0
 24 26  1  0
 26 27  2  0
 27 28  1  0
 28 29  1  0
 29 30  1  0
 28 31  2  0
 31 32  1  0
 32 33  2  0
 33 17  1  0
 23 18  1  0
 33 26  1  0
  1 34  1  0
  1 35  1  0
  1 36  1  0
  2 37  1  0
  2 38  1  0
  4 39  1  0
  4 40  1  0
  4 41  1  0
  5 42  1  0
  5 43  1  0
  6 44  1  0
  6 45  1  0
  8 46  1  0
  8 47  1  0
  9 48  1  0
  9 49  1  0
 11 50  1  0
 11 51  1  0
 12 52  1  0
 12 53  1  0
 14 54  1  0
 14 55  1  0
 15 56  1  0
 15 57  1  0
 16 58  1  0
 19 59  1  0
 20 60  1  0
 21 61  1  0
 22 62  1  0
 25 63  1  0
 25 64  1  0
 25 65  1  0
 27 66  1  0
 29 67  1  0
 29 68  1  0
 30 69  1  0
 30 70  1  0
 30 71  1  0
 31 72  1  0
 32 73  1  0
M  CHG  2  24   1  29   1
M  END
>  <UniqueID>  (11) 
11

>  <SMILES>  (11) 
CCN(C)CCOCCOCCOCCNc1c2ccccc2[n+](C)c2cc([NH2+]C)ccc12

>  <Energy>  (11) 
102.74335712632369

>  <Genealogy>  (11) 
CCN(C)CCOCCOCCOCCNc1c2ccccc2[n+](C)c2cc([NH2+]C)ccc12 (protonated)
CCN(C)CCOCCOCCOCCNc1c2ccccc2[n+](C)c2cc([NH2+]C)ccc12 (3D coordinates assigned)
CCN(C)CCOCCOCCOCCNc1c2ccccc2[n+](C)c2cc([NH2+]C)ccc12 (optimized conformer: 102.74335712632369 kcal/mol)

>  <smiles>  (11) 
CCN(C)CCOCCOCCOCCNc1c2ccccc2[n+](C)c2cc(NC)ccc12

>  <score_type>  (11) 
oracle

>  <origin>  (11) 
adg

>  <m_score__min__energy>  (11) 
-8.2400000000000002

>  <m_primary>  (11) 
energy

$$$$
11:0
     RDKit          3D

 40 42  0  0  0  0  0  0  0  0999 V2000
   -4.2550   21.8640  -32.4140 C   0  0  0  0  0  0  0  0  0  0  0  0
   -5.4560   22.3580  -31.7430 N   0  0  0  0  0  0  0  0  0  0  0  0
   -5.5480   23.3430  -30.8000 C   0  0  0  0  0  0  0  0  0  0  0  0
   -4.3970   24.0950  -30.2620 C   0  0  0  0  0  0  0  0  0  0  0  0
   -4.0690   25.1800  -30.8130 O   0  0  0  0  0  0  0  0  0  0  0  0
   -3.6370   23.6060  -29.1350 N   0  0  0  0  0  0  0  0  0  0  0  0
   -2.6940   22.4870  -29.2940 C   0  0  0  0  0  0  0  0  0  0  0  0
   -2.9970   21.3770  -28.2820 C   0  0  0  0  0  0  0  0  0  0  0  0
   -1.9920   21.3670  -27.2140 C   0  0  0  0  0  0  0  0  0  0  0  0
   -1.1990   21.3600  -26.3700 N   0  0  0  0  0  0  0  0  0  0  0  0
   -3.9000   24.1410  -27.7910 C   0  0  0  0  0  0  0  0  0  0  0  0
   -2.7150   24.9240  -27.2890 C   0  0  0  0  0  0  0  0  0  0  0  0
   -2.6720   25.3730  -25.9590 C   0  0  0  0  0  0  0  0  0  0  0  0
   -1.5910   26.1370  -25.5060 C   0  0  0  0  0  0  0  0  0  0  0  0
   -0.5460   26.4580  -26.3770 C   0  0  0  0  0  0  0  0  0  0  0  0
   -0.5820   26.0160  -27.7010 C   0  0  0  0  0  0  0  0  0  0  0  0
   -1.6600   25.2540  -28.1590 C   0  0  0  0  0  0  0  0  0  0  0  0
   -6.8690   23.4840  -30.3480 C   0  0  0  0  0  0  0  0  0  0  0  0
   -7.5560   22.5390  -31.0660 C   0  0  0  0  0  0  0  0  0  0  0  0
   -9.1050   21.9200  -31.1900 S   0  0  0  0  0  0  0  0  0  0  0  0
   -8.6370   20.7560  -32.3560 C   0  0  0  0  0  0  0  0  0  0  0  0
   -7.2640   20.8620  -32.6260 C   0  0  0  0  0  0  0  0  0  0  0  0
   -6.7080   21.8880  -31.8690 C   0  0  0  0  0  0  0  0  0  0  0  0
   -3.5135   21.5590  -31.6609 H   0  0  0  0  0  0  0  0  0  0  0  0
   -4.5155   21.0000  -33.0430 H   0  0  0  0  0  0  0  0  0  0  0  0
   -3.8322   22.6613  -33.0430 H   0  0  0  0  0  0  0  0  0  0  0  0
   -2.7830   22.0814  -30.3126 H   0  0  0  0  0  0  0  0  0  0  0  0
   -1.6729   22.8567  -29.1190 H   0  0  0  0  0  0  0  0  0  0  0  0
   -3.9905   21.5493  -27.8425 H   0  0  0  0  0  0  0  0  0  0  0  0
   -2.9746   20.4071  -28.8005 H   0  0  0  0  0  0  0  0  0  0  0  0
   -4.7788   24.8015  -27.8307 H   0  0  0  0  0  0  0  0  0  0  0  0
   -4.0851   23.3008  -27.1056 H   0  0  0  0  0  0  0  0  0  0  0  0
   -3.4922   25.1228  -25.2701 H   0  0  0  0  0  0  0  0  0  0  0  0
   -1.5634   26.4855  -24.4630 H   0  0  0  0  0  0  0  0  0  0  0  0
    0.3038   27.0582  -26.0198 H   0  0  0  0  0  0  0  0  0  0  0  0
    0.2410   26.2685  -28.3858 H   0  0  0  0  0  0  0  0  0  0  0  0
   -1.6837   24.9109  -29.2038 H   0  0  0  0  0  0  0  0  0  0  0  0
   -7.2603   24.1856  -29.5966 H   0  0  0  0  0  0  0  0  0  0  0  0
   -9.3157   20.0291  -32.8261 H   0  0  0  0  0  0  0  0  0  0  0  0
   -6.7091   20.2271  -33.3324 H   0  0  0  0  0  0  0  0  0  0  0  0
  1  2  1  0
  2  3  1  0
  3  4  1  0
  4  5  2  0
  4  6  1  0
  6  7  1  0
  7  8  1  0
  8  9  1  0
  9 10  3  0
  6 11  1  0
 11 12  1  0
 12 13  2  0
 13 14  1  0
 14 15  2  0
 15 16  1  0
 16 17  2  0
  3 18  2  0
 18 19  1  0
 19 20  1  0
 20 21  1  0
 21 22  2  0
 22 23  1  0
 23  2  1  0
 17 12  1  0
 23 19  2  0
  1 24  1  0
  1 25  1  0
  1 26  1  0
  7 27  1  0
  7 28  1  0
  8 29  1  0
  8 30  1  0
 11 31  1  0
 11 32  1  0
 13 33  1  0
 14 34  1  0
 15 35  1  0
 16 36  1  0
 17 37  1  0
 18 38  1  0
 21 39  1  0
 22 40  1  0
M  END
>  <UniqueID>  (12) 
12

>  <SMILES>  (12) 
Cn1c(C(=O)N(CCC#N)Cc2ccccc2)cc2sccc21

>  <Energy>  (12) 
114.40471344408236

>  <Genealogy>  (12) 
Cn1c(C(=O)N(CCC#N)Cc2ccccc2)cc2sccc21 (3D coordinates assigned)
Cn1c(C(=O)N(CCC#N)Cc2ccccc2)cc2sccc21 (optimized conformer: 114.40471344408236 kcal/mol)

>  <smiles>  (12) 
Cn1c(C(=O)N(CCC#N)Cc2ccccc2)cc2sccc21

>  <score_type>  (12) 
oracle

>  <origin>  (12) 
adg

>  <m_score__min__energy>  (12) 
-7.9400000000000004

>  <m_primary>  (12) 
energy

$$$$
12:0
     RDKit          3D

 66 68  0  0  0  0  0  0  0  0999 V2000
   -2.7210   19.8730  -27.3820 C   0  0  0  0  0  0  0  0  0  0  0  0
   -2.2580   20.3900  -28.7410 C   0  0  0  0  0  0  0  0  0  0  0  0
   -2.8800   21.7000  -29.0370 N   0  0  0  0  0  0  0  0  0  0  0  0
   -3.8430   22.0840  -27.9810 C   0  0  0  0  0  0  0  0  0  0  0  0
   -3.5590   23.5070  -27.5050 C   0  0  0  0  0  0  0  0  0  0  0  0
   -1.8500   22.7470  -29.2340 C   0  0  0  0  0  0  0  0  0  0  0  0
   -0.4940   22.1300  -29.6270 C   0  0  0  0  0  0  0  0  0  0  0  0
   -0.5420   21.5090  -30.8980 O   0  0  0  0  0  0  0  0  0  0  0  0
    0.3000   20.3760  -30.9340 C   0  0  0  0  0  0  0  0  0  0  0  0
   -0.0020   19.5770  -32.1940 C   0  0  0  0  0  0  0  0  0  0  0  0
   -1.3920   19.6470  -32.4710 O   0  0  0  0  0  0  0  0  0  0  0  0
   -1.6640   20.4650  -33.5940 C   0  0  0  0  0  0  0  0  0  0  0  0
   -2.7940   21.4650  -33.3110 C   0  0  0  0  0  0  0  0  0  0  0  0
   -3.3050   21.3370  -31.9420 N   0  0  0  0  0  0  0  0  0  0  0  0
   -4.7090   21.4020  -31.6280 C   0  0  0  0  0  0  0  0  0  0  0  0
   -5.5340   20.2960  -31.8900 C   0  0  0  0  0  0  0  0  0  0  0  0
   -4.9860   19.1020  -32.4090 C   0  0  0  0  0  0  0  0  0  0  0  0
   -5.8010   18.0190  -32.7180 C   0  0  0  0  0  0  0  0  0  0  0  0
   -7.1700   18.1000  -32.5170 C   0  0  0  0  0  0  0  0  0  0  0  0
   -7.7350   19.2630  -31.9930 C   0  0  0  0  0  0  0  0  0  0  0  0
   -6.9340   20.3880  -31.6530 C   0  0  0  0  0  0  0  0  0  0  0  0
   -7.4800   21.5510  -31.1310 N   0  0  0  0  0  0  0  0  0  0  0  0
   -8.9110   21.5860  -30.7300 C   0  0  0  0  0  0  0  0  0  0  0  0
   -9.8240   21.6490  -31.9530 C   0  0  0  0  0  0  0  0  0  0  0  0
   -6.6820   22.6700  -30.9460 C   0  0  0  0  0  0  0  0  0  0  0  0
   -7.2240   23.9310  -30.5710 C   0  0  0  0  0  0  0  0  0  0  0  0
   -6.3990   25.0200  -30.2940 C   0  0  0  0  0  0  0  0  0  0  0  0
   -5.0190   24.8910  -30.3790 C   0  0  0  0  0  0  0  0  0  0  0  0
   -4.4580   23.6860  -30.7900 C   0  0  0  0  0  0  0  0  0  0  0  0
   -5.2740   22.5850  -31.1270 C   0  0  0  0  0  0  0  0  0  0  0  0
   -2.2161   20.4368  -26.5838 H   0  0  0  0  0  0  0  0  0  0  0  0
   -3.8094   20.0039  -27.2913 H   0  0  0  0  0  0  0  0  0  0  0  0
   -2.4713   18.8056  -27.2913 H   0  0  0  0  0  0  0  0  0  0  0  0
   -1.1638   20.5027  -28.7317 H   0  0  0  0  0  0  0  0  0  0  0  0
   -2.5587   19.6702  -29.5166 H   0  0  0  0  0  0  0  0  0  0  0  0
   -4.8651   22.0323  -28.3843 H   0  0  0  0  0  0  0  0  0  0  0  0
   -3.7408   21.3927  -27.1315 H   0  0  0  0  0  0  0  0  0  0  0  0
   -3.5541   23.5317  -26.4053 H   0  0  0  0  0  0  0  0  0  0  0  0
   -2.5784   23.8314  -27.8834 H   0  0  0  0  0  0  0  0  0  0  0  0
   -4.3400   24.1829  -27.8834 H   0  0  0  0  0  0  0  0  0  0  0  0
   -2.1791   23.4278  -30.0329 H   0  0  0  0  0  0  0  0  0  0  0  0
   -1.7226   23.2918  -28.2869 H   0  0  0  0  0  0  0  0  0  0  0  0
    0.2651   22.9258  -29.6491 H   0  0  0  0  0  0  0  0  0  0  0  0
   -0.2425   21.3604  -28.8823 H   0  0  0  0  0  0  0  0  0  0  0  0
    1.3518   20.6978  -30.9441 H   0  0  0  0  0  0  0  0  0  0  0  0
    0.1232   19.7519  -30.0456 H   0  0  0  0  0  0  0  0  0  0  0  0
    0.5629   19.9965  -33.0395 H   0  0  0  0  0  0  0  0  0  0  0  0
    0.2919   18.5276  -32.0445 H   0  0  0  0  0  0  0  0  0  0  0  0
   -0.7530   21.0224  -33.8574 H   0  0  0  0  0  0  0  0  0  0  0  0
   -1.9827   19.8143  -34.4216 H   0  0  0  0  0  0  0  0  0  0  0  0
   -2.4100   22.4859  -33.4536 H   0  0  0  0  0  0  0  0  0  0  0  0
   -3.6202   21.2526  -34.0054 H   0  0  0  0  0  0  0  0  0  0  0  0
   -2.6380   21.0660  -31.1850 H   0  0  0  0  0  0  0  0  0  0  0  0
   -3.9005   19.0282  -32.5707 H   0  0  0  0  0  0  0  0  0  0  0  0
   -5.3588   17.0966  -33.1225 H   0  0  0  0  0  0  0  0  0  0  0  0
   -7.8130   17.2446  -32.7714 H   0  0  0  0  0  0  0  0  0  0  0  0
   -8.8232   19.3109  -31.8395 H   0  0  0  0  0  0  0  0  0  0  0  0
   -9.1448   20.6787  -30.1536 H   0  0  0  0  0  0  0  0  0  0  0  0
   -9.0809   22.4859  -30.1207 H   0  0  0  0  0  0  0  0  0  0  0  0
  -10.8715   21.7213  -31.6252 H   0  0  0  0  0  0  0  0  0  0  0  0
   -9.5671   22.5316  -32.5572 H   0  0  0  0  0  0  0  0  0  0  0  0
   -9.6908   20.7395  -32.5572 H   0  0  0  0  0  0  0  0  0  0  0  0
   -8.3152   24.0488  -30.4982 H   0  0  0  0  0  0  0  0  0  0  0  0
   -6.8427   25.9848  -30.0071 H   0  0  0  0  0  0  0  0  0  0  0  0
   -4.3699   25.7409  -30.1216 H   0  0  0  0  0  0  0  0  0  0  0  0
   -3.3640   23.5902  -30.8531 H   0  0  0  0  0  0  0  0  0  0  0  0
  1  2  1  0
  2  3  1  0
  3  4  1  0
  4  5  1  0
  3  6  1  0
  6  7  1  0
  7  8  1  0
  8  9  1  0
  9 10  1  0
 10 11  1  0
 11 12  1  0
 12 13  1  0
 13 14  1  0
 14 15  1  0
 15 16  2  0
 16 17  1  0
 17 18  2  0
 18 19  1  0
 19 20  2  0
 20 21  1  0
 21 22  2  0
 22 23  1  0
 23 24  1  0
 22 25  1  0
 25 26  2  0
 26 27  1  0
 27 28  2  0
 28 29  1  0
 29 30  2  0
 30 15  1  0
 21 16  1  0
 30 25  1  0
  1 31  1  0
  1 32  1  0
  1 33  1  0
  2 34  1  0
  2 35  1  0
  4 36  1  0
  4 37  1  0
  5 38  1  0
  5 39  1  0
  5 40  1  0
  6 41  1  0
  6 42  1  0
  7 43  1  0
  7 44  1  0
  9 45  1  0
  9 46  1  0
 10 47  1  0
 10 48  1  0
 12 49  1  0
 12 50  1  0
 13 51  1  0
 13 52  1  0
 14 53  1  0
 17 54  1  0
 18 55  1  0
 19 56  1  0
 20 57  1  0
 23 58  1  0
 23 59  1  0
 24 60  1  0
 24 61  1  0
 24 62  1  0
 26 63  1  0
 27 64  1  0
 28 65  1  0
 29 66  1  0
M  CHG  1  22   1
M  END
>  <UniqueID>  (13) 
13

>  <SMILES>  (13) 
CCN(CC)CCOCCOCCNc1c2ccccc2[n+](CC)c2ccccc12

>  <Energy>  (13) 
84.52720717986719

>  <Genealogy>  (13) 
CCN(CC)CCOCCOCCNc1c2ccccc2[n+](CC)c2ccccc12 (3D coordinates assigned)
CCN(CC)CCOCCOCCNc1c2ccccc2[n+](CC)c2ccccc12 (optimized conformer: 84.52720717986719 kcal/mol)

>  <smiles>  (13) 
CCN(CC)CCOCCOCCNc1c2ccccc2[n+](CC)c2ccccc12

>  <score_type>  (13) 
oracle

>  <origin>  (13) 
adg

>  <m_score__min__energy>  (13) 
-9.5

>  <m_primary>  (13) 
energy

$$$$
13:0
     RDKit          3D

 56 58  0  0  0  0  0  0  0  0999 V2000
   -0.6820   20.8380  -30.0820 C   0  0  0  0  0  0  0  0  0  0  0  0
   -1.3330   22.2170  -30.1240 C   0  0  0  0  0  0  0  0  0  0  0  0
   -2.7790   22.1090  -29.8230 N   0  0  0  0  0  0  0  0  0  0  0  0
   -3.0980   20.7820  -29.2700 C   0  0  0  0  0  0  0  0  0  0  0  0
   -3.2270   23.1710  -28.8930 C   0  0  0  0  0  0  0  0  0  0  0  0
   -2.6920   24.5360  -29.3350 C   0  0  0  0  0  0  0  0  0  0  0  0
   -3.5310   25.0520  -30.3450 O   0  0  0  0  0  0  0  0  0  0  0  0
   -4.8870   24.9340  -29.9660 C   0  0  0  0  0  0  0  0  0  0  0  0
   -5.7650   25.1920  -31.1900 C   0  0  0  0  0  0  0  0  0  0  0  0
   -6.1280   23.8800  -31.8940 C   0  0  0  0  0  0  0  0  0  0  0  0
   -5.1650   22.8350  -31.5580 N   0  0  0  0  0  0  0  0  0  0  0  0
   -5.2610   21.5300  -32.1560 C   0  0  0  0  0  0  0  0  0  0  0  0
   -6.4640   20.8040  -32.0840 C   0  0  0  0  0  0  0  0  0  0  0  0
   -7.5470   21.2750  -31.3120 C   0  0  0  0  0  0  0  0  0  0  0  0
   -8.7300   20.5460  -31.2240 C   0  0  0  0  0  0  0  0  0  0  0  0
   -8.8450   19.3260  -31.8790 C   0  0  0  0  0  0  0  0  0  0  0  0
   -7.7830   18.8320  -32.6350 C   0  0  0  0  0  0  0  0  0  0  0  0
   -6.5790   19.5690  -32.7770 C   0  0  0  0  0  0  0  0  0  0  0  0
   -5.5270   19.1030  -33.5440 N   0  0  0  0  0  0  0  0  0  0  0  0
   -5.7380   17.9800  -34.4830 C   0  0  0  0  0  0  0  0  0  0  0  0
   -4.2860   19.7040  -33.4510 C   0  0  0  0  0  0  0  0  0  0  0  0
   -3.1230   19.1030  -34.0000 C   0  0  0  0  0  0  0  0  0  0  0  0
   -1.8910   19.7530  -33.9650 C   0  0  0  0  0  0  0  0  0  0  0  0
   -1.7800   21.0100  -33.3820 C   0  0  0  0  0  0  0  0  0  0  0  0
   -2.8930   21.6070  -32.7950 C   0  0  0  0  0  0  0  0  0  0  0  0
   -4.1450   20.9550  -32.7920 C   0  0  0  0  0  0  0  0  0  0  0  0
   -0.5377   20.5324  -29.0352 H   0  0  0  0  0  0  0  0  0  0  0  0
   -1.3316   20.1102  -30.5903 H   0  0  0  0  0  0  0  0  0  0  0  0
    0.2928   20.8771  -30.5903 H   0  0  0  0  0  0  0  0  0  0  0  0
   -0.8541   22.8678  -29.3777 H   0  0  0  0  0  0  0  0  0  0  0  0
   -1.2066   22.6432  -31.1301 H   0  0  0  0  0  0  0  0  0  0  0  0
   -3.0864   20.8303  -28.1711 H   0  0  0  0  0  0  0  0  0  0  0  0
   -4.0962   20.4722  -29.6129 H   0  0  0  0  0  0  0  0  0  0  0  0
   -2.3497   20.0523  -29.6129 H   0  0  0  0  0  0  0  0  0  0  0  0
   -4.3265   23.2005  -28.8808 H   0  0  0  0  0  0  0  0  0  0  0  0
   -2.8409   22.9476  -27.8875 H   0  0  0  0  0  0  0  0  0  0  0  0
   -2.6818   25.2239  -28.4767 H   0  0  0  0  0  0  0  0  0  0  0  0
   -1.6680   24.4268  -29.7217 H   0  0  0  0  0  0  0  0  0  0  0  0
   -5.0767   23.9208  -29.5820 H   0  0  0  0  0  0  0  0  0  0  0  0
   -5.1198   25.6656  -29.1783 H   0  0  0  0  0  0  0  0  0  0  0  0
   -6.6890   25.6957  -30.8698 H   0  0  0  0  0  0  0  0  0  0  0  0
   -5.2051   25.8240  -31.8951 H   0  0  0  0  0  0  0  0  0  0  0  0
   -7.1318   23.5635  -31.5742 H   0  0  0  0  0  0  0  0  0  0  0  0
   -6.1101   24.0435  -32.9816 H   0  0  0  0  0  0  0  0  0  0  0  0
   -4.2750   23.1170  -31.0890 H   0  0  0  0  0  0  0  0  0  0  0  0
   -7.4556   22.2296  -30.7732 H   0  0  0  0  0  0  0  0  0  0  0  0
   -9.5738   20.9360  -30.6358 H   0  0  0  0  0  0  0  0  0  0  0  0
   -9.7775   18.7478  -31.8007 H   0  0  0  0  0  0  0  0  0  0  0  0
   -7.8801   17.8544  -33.1298 H   0  0  0  0  0  0  0  0  0  0  0  0
   -5.9119   17.0545  -33.9145 H   0  0  0  0  0  0  0  0  0  0  0  0
   -6.6122   18.1910  -35.1164 H   0  0  0  0  0  0  0  0  0  0  0  0
   -4.8468   17.8593  -35.1164 H   0  0  0  0  0  0  0  0  0  0  0  0
   -3.1957   18.1069  -34.4610 H   0  0  0  0  0  0  0  0  0  0  0  0
   -1.0036   19.2700  -34.4000 H   0  0  0  0  0  0  0  0  0  0  0  0
   -0.8126   21.5335  -33.3843 H   0  0  0  0  0  0  0  0  0  0  0  0
   -2.7953   22.5982  -32.3282 H   0  0  0  0  0  0  0  0  0  0  0  0
  1  2  1  0
  2  3  1  0
  3  4  1  0
  3  5  1  0
  5  6  1  0
  6  7  1  0
  7  8  1  0
  8  9  1  0
  9 10  1  0
 10 11  1  0
 11 12  1  0
 12 13  2  0
 13 14  1  0
 14 15  2  0
 15 16  1  0
 16 17  2  0
 17 18  1  0
 18 19  2  0
 19 20  1  0
 19 21  1  0
 21 22  2  0
 22 23  1  0
 23 24  2  0
 24 25  1  0
 25 26  2  0
 26 12  1  0
 18 13  1  0
 26 21  1  0
  1 27  1  0
  1 28  1  0
  1 29  1  0
  2 30  1  0
  2 31  1  0
  4 32  1  0
  4 33  1  0
  4 34  1  0
  5 35  1  0
  5 36  1  0
  6 37  1  0
  6 38  1  0
  8 39  1  0
  8 40  1  0
  9 41  1  0
  9 42  1  0
 10 43  1  0
 10 44  1  0
 11 45  1  0
 14 46  1  0
 15 47  1  0
 16 48  1  0
 17 49  1  0
 20 50  1  0
 20 51  1  0
 20 52  1  0
 22 53  1  0
 23 54  1  0
 24 55  1  0
 25 56  1  0
M  CHG  1  19   1
M  END
>  <UniqueID>  (14) 
14

>  <SMILES>  (14) 
CCN(C)CCOCCCNc1c2ccccc2[n+](C)c2ccccc12

>  <Energy>  (14) 
76.09610858539078

>  <Genealogy>  (14) 
CCN(C)CCOCCCNc1c2ccccc2[n+](C)c2ccccc12 (3D coordinates assigned)
CCN(C)CCOCCCNc1c2ccccc2[n+](C)c2ccccc12 (optimized conformer: 76.09610858539078 kcal/mol)

>  <smiles>  (14) 
CCN(C)CCOCCCNc1c2ccccc2[n+](C)c2ccccc12

>  <score_type>  (14) 
oracle

>  <origin>  (14) 
adg

>  <m_score__min__energy>  (14) 
-8.9000000000000004

>  <m_primary>  (14) 
energy

$$$$
14:0
     RDKit          3D

 39 41  0  0  0  0  0  0  0  0999 V2000
    0.6451   23.9830  -27.3402 H   0  0  0  0  0  0  0  0  0  0  0  0
   -0.1560   23.6930  -28.0360 C   0  0  0  0  0  0  0  0  0  0  0  0
   -0.1600   22.4010  -28.6040 C   0  0  0  0  0  0  0  0  0  0  0  0
    0.6398   21.6904  -28.3484 H   0  0  0  0  0  0  0  0  0  0  0  0
   -1.1790   22.0140  -29.4950 C   0  0  0  0  0  0  0  0  0  0  0  0
   -1.1876   21.0113  -29.9472 H   0  0  0  0  0  0  0  0  0  0  0  0
   -2.1820   22.9480  -29.7870 C   0  0  0  0  0  0  0  0  0  0  0  0
   -2.1680   24.1980  -29.2370 C   0  0  0  0  0  0  0  0  0  0  0  0
   -3.2020   24.9230  -29.6870 N   0  0  0  0  0  0  0  0  0  0  0  0
   -3.8470   24.0690  -30.5200 C   0  0  0  0  0  0  0  0  0  0  0  0
   -4.9260   24.4590  -31.1460 N   0  0  0  0  0  0  0  0  0  0  0  0
   -6.3150   24.5340  -30.7010 C   0  0  0  0  0  0  0  0  0  0  0  0
   -6.3639   25.1279  -29.7764 H   0  0  0  0  0  0  0  0  0  0  0  0
   -6.9106   25.0051  -31.4968 H   0  0  0  0  0  0  0  0  0  0  0  0
   -6.8890   23.1320  -30.4280 C   0  0  0  0  0  0  0  0  0  0  0  0
   -6.0561   22.4301  -30.2741 H   0  0  0  0  0  0  0  0  0  0  0  0
   -7.5263   23.1919  -29.5334 H   0  0  0  0  0  0  0  0  0  0  0  0
   -7.7210   22.6490  -31.5540 N   0  0  0  0  0  0  0  0  0  0  0  0
   -8.6990   21.6220  -31.1140 C   0  0  0  0  0  0  0  0  0  0  0  0
   -8.2358   20.9998  -30.3341 H   0  0  0  0  0  0  0  0  0  0  0  0
   -9.5896   22.1398  -30.7283 H   0  0  0  0  0  0  0  0  0  0  0  0
   -9.1360   20.7200  -32.2750 C   0  0  0  0  0  0  0  0  0  0  0  0
   -9.8886   20.0063  -31.9086 H   0  0  0  0  0  0  0  0  0  0  0  0
   -9.5525   21.3584  -33.0681 H   0  0  0  0  0  0  0  0  0  0  0  0
   -7.9990   19.9690  -32.8380 N   0  0  0  0  0  0  0  0  0  0  0  0
   -8.2000   19.7920  -33.8510 H   0  0  0  0  0  0  0  0  0  0  0  0
   -6.7090   20.6750  -32.7300 C   0  0  0  0  0  0  0  0  0  0  0  0
   -6.2073   20.3563  -31.8044 H   0  0  0  0  0  0  0  0  0  0  0  0
   -6.1106   20.4221  -33.6176 H   0  0  0  0  0  0  0  0  0  0  0  0
   -6.8830   22.2020  -32.6980 C   0  0  0  0  0  0  0  0  0  0  0  0
   -5.8909   22.6697  -32.6142 H   0  0  0  0  0  0  0  0  0  0  0  0
   -7.3910   22.5030  -33.6261 H   0  0  0  0  0  0  0  0  0  0  0  0
   -3.2510   22.8350  -30.6060 N   0  0  0  0  0  0  0  0  0  0  0  0
   -3.5350   21.7050  -31.4980 C   0  0  0  0  0  0  0  0  0  0  0  0
   -3.7596   20.8112  -30.8974 H   0  0  0  0  0  0  0  0  0  0  0  0
   -4.4002   21.9473  -32.1326 H   0  0  0  0  0  0  0  0  0  0  0  0
   -2.6581   21.5094  -32.1326 H   0  0  0  0  0  0  0  0  0  0  0  0
   -1.1720   24.6110  -28.3560 C   0  0  0  0  0  0  0  0  0  0  0  0
   -1.1797   25.6227  -27.9243 H   0  0  0  0  0  0  0  0  0  0  0  0
  1  2  1  0
  2  3  2  0
  3  4  1  0
  3  5  1  0
  5  6  1  0
  5  7  2  0
  7  8  1  0
  8  9  1  0
  9 10  1  0
 10 11  2  0
 11 12  1  0
 12 13  1  0
 12 14  1  0
 12 15  1  0
 15 16  1  0
 15 17  1  0
 15 18  1  0
 18 19  1  0
 19 20  1  0
 19 21  1  0
 19 22  1  0
 22 23  1  0
 22 24  1  0
 22 25  1  0
 25 26  1  0
 25 27  1  0
 27 28  1  0
 27 29  1  0
 27 30  1  0
 30 31  1  0
 30 32  1  0
 10 33  1  0
 33 34  1  0
 34 35  1  0
 34 36  1  0
 34 37  1  0
  8 38  2  0
 38 39  1  0
 38  2  1  0
 33  7  1  0
 30 18  1  0
M  CHG  1   9  -1
M  END
>  <UniqueID>  (15) 
15

>  <SMILES>  (15) 
Cn1/c(=N\CCN2CCNCC2)[n-]c2ccccc21

>  <Energy>  (15) 
96.18353359599828

>  <Genealogy>  (15) 
Cn1c(=NCCN2CCNCC2)[n-]c2ccccc21 (protonated)
Cn1/c(=N\CCN2CCNCC2)[n-]c2ccccc21 (cis-trans isomerization)
Cn1/c(=N\CCN2CCNCC2)[n-]c2ccccc21 (3D coordinates assigned)
Cn1/c(=N\CCN2CCNCC2)[n-]c2ccccc21 (nonaromatic ring conformer: 96.18353359599828 kcal/mol)

>  <smiles>  (15) 
Cn1c(=NCCN2CCNCC2)[nH]c2ccccc21

>  <score_type>  (15) 
oracle

>  <origin>  (15) 
adg

>  <m_score__min__energy>  (15) 
-8.1999999999999993

>  <m_primary>  (15) 
energy

$$$$
15:0
     RDKit          3D

 26 27  0  0  0  0  0  0  0  0999 V2000
   -9.0690   19.2580  -32.3280 C   0  0  0  0  0  0  0  0  0  0  0  0
   -8.0130   19.8330  -32.4290 C   0  0  0  0  0  0  0  0  0  0  0  0
   -6.7540   20.5200  -32.5490 C   0  0  0  0  0  0  0  0  0  0  0  0
   -5.6230   19.8460  -33.0190 C   0  0  0  0  0  0  0  0  0  0  0  0
   -4.4380   20.5030  -33.1270 N   0  0  0  0  0  0  0  0  0  0  0  0
   -4.3100   21.8140  -32.7920 C   0  0  0  0  0  0  0  0  0  0  0  0
   -5.4230   22.5350  -32.3210 C   0  0  0  0  0  0  0  0  0  0  0  0
   -5.3640   23.8910  -31.9540 O   0  0  0  0  0  0  0  0  0  0  0  0
   -6.1020   24.5050  -30.8970 C   0  0  0  0  0  0  0  0  0  0  0  0
   -5.1730   24.8790  -29.7340 C   0  0  1  0  0  0  0  0  0  0  0  0
   -4.7290   23.6820  -28.9080 C   0  0  0  0  0  0  0  0  0  0  0  0
   -3.3400   24.0240  -29.4110 C   0  0  0  0  0  0  0  0  0  0  0  0
   -3.8120   25.1680  -30.1910 N   0  0  0  0  0  0  0  0  0  0  0  0
   -6.6470   21.8690  -32.1980 C   0  0  0  0  0  0  0  0  0  0  0  0
  -10.0317   18.7338  -32.2359 H   0  0  0  0  0  0  0  0  0  0  0  0
   -5.6920   18.7850  -33.3011 H   0  0  0  0  0  0  0  0  0  0  0  0
   -3.3343   22.3125  -32.8892 H   0  0  0  0  0  0  0  0  0  0  0  0
   -6.5888   25.4151  -31.2775 H   0  0  0  0  0  0  0  0  0  0  0  0
   -6.8569   23.7929  -30.5322 H   0  0  0  0  0  0  0  0  0  0  0  0
   -5.7559   25.6677  -29.2357 H   0  0  0  0  0  0  0  0  0  0  0  0
   -4.8724   23.7825  -27.8220 H   0  0  0  0  0  0  0  0  0  0  0  0
   -5.1761   22.6821  -29.0097 H   0  0  0  0  0  0  0  0  0  0  0  0
   -2.6418   24.3023  -28.6078 H   0  0  0  0  0  0  0  0  0  0  0  0
   -2.7572   23.2429  -29.9211 H   0  0  0  0  0  0  0  0  0  0  0  0
   -3.4850   26.0470  -29.7250 H   0  0  0  0  0  0  0  0  0  0  0  0
   -7.5291   22.4091  -31.8235 H   0  0  0  0  0  0  0  0  0  0  0  0
  1  2  3  0
  2  3  1  0
  3  4  2  0
  4  5  1  0
  5  6  2  0
  6  7  1  0
  7  8  1  0
  8  9  1  0
  9 10  1  0
 10 11  1  0
 11 12  1  0
 12 13  1  0
  7 14  2  0
 14  3  1  0
 13 10  1  0
  1 15  1  0
  4 16  1  0
  6 17  1  0
  9 18  1  0
  9 19  1  0
 10 20  1  1
 11 21  1  0
 11 22  1  0
 12 23  1  0
 12 24  1  0
 13 25  1  0
 14 26  1  0
M  END
>  <UniqueID>  (16) 
16

>  <SMILES>  (16) 
C#Cc1cncc(OC[C@H]2CCN2)c1

>  <Energy>  (16) 
89.55708911926298

>  <Genealogy>  (16) 
C#Cc1cncc(OC[C@H]2CCN2)c1 (chirality)
C#Cc1cncc(OC[C@H]2CCN2)c1 (3D coordinates assigned)
C#Cc1cncc(OC[C@H]2CCN2)c1 (nonaromatic ring conformer: 89.55708911926298 kcal/mol)

>  <smiles>  (16) 
C#Cc1cncc(OCC2CCN2)c1

>  <score_type>  (16) 
oracle

>  <origin>  (16) 
adg

>  <m_score__min__energy>  (16) 
-6.29

>  <m_primary>  (16) 
energy

$$$$
16:0
     RDKit          3D

 53 55  0  0  0  0  0  0  0  0999 V2000
   -2.9310   18.8050  -26.2020 C   0  0  0  0  0  0  0  0  0  0  0  0
   -1.6840   18.5770  -27.0430 C   0  0  0  0  0  0  0  0  0  0  0  0
   -0.9180   19.7620  -27.0630 O   0  0  0  0  0  0  0  0  0  0  0  0
   -1.5820   20.7710  -26.3290 C   0  0  0  0  0  0  0  0  0  0  0  0
   -1.5590   22.0320  -27.1040 N   0  0  0  0  0  0  0  0  0  0  0  0
   -0.7360   23.0690  -26.7050 C   0  0  0  0  0  0  0  0  0  0  0  0
    0.2350   22.9330  -25.5540 C   0  0  0  0  0  0  0  0  0  0  0  0
   -0.7970   24.3080  -27.3550 C   0  0  0  0  0  0  0  0  0  0  0  0
   -1.6330   24.4890  -28.4460 C   0  0  0  0  0  0  0  0  0  0  0  0
   -1.6750   25.6190  -29.0070 O   0  0  0  0  0  0  0  0  0  0  0  0
   -2.4020   23.4180  -28.9180 C   0  0  0  0  0  0  0  0  0  0  0  0
   -3.2210   23.5690  -30.0540 C   0  0  0  0  0  0  0  0  0  0  0  0
   -3.9590   22.4890  -30.5490 C   0  0  0  0  0  0  0  0  0  0  0  0
   -4.9980   22.6790  -31.9610 S   0  0  0  0  0  0  0  0  0  0  0  0
   -4.1820   22.3760  -33.1880 O   0  0  0  0  0  0  0  0  0  0  0  0
   -5.4880   24.0980  -32.0550 O   0  0  0  0  0  0  0  0  0  0  0  0
   -6.3560   21.5770  -31.8620 N   0  0  0  0  0  0  0  0  0  0  0  0
   -6.1500   20.4650  -32.8160 C   0  0  0  0  0  0  0  0  0  0  0  0
   -6.6010   19.0950  -32.2750 C   0  0  0  0  0  0  0  0  0  0  0  0
   -8.0250   19.0390  -31.6820 C   0  0  0  0  0  0  0  0  0  0  0  0
   -9.0040   20.0730  -32.2630 C   0  0  0  0  0  0  0  0  0  0  0  0
   -8.9090   21.4940  -31.6500 C   0  0  0  0  0  0  0  0  0  0  0  0
   -7.6430   22.3080  -32.0050 C   0  0  0  0  0  0  0  0  0  0  0  0
   -3.8780   21.2520  -29.9140 C   0  0  0  0  0  0  0  0  0  0  0  0
   -3.0770   21.0840  -28.7850 C   0  0  0  0  0  0  0  0  0  0  0  0
   -2.3370   22.1670  -28.2450 C   0  0  0  0  0  0  0  0  0  0  0  0
   -2.6676   18.7568  -25.1351 H   0  0  0  0  0  0  0  0  0  0  0  0
   -3.3520   19.7950  -26.4314 H   0  0  0  0  0  0  0  0  0  0  0  0
   -3.6751   18.0280  -26.4314 H   0  0  0  0  0  0  0  0  0  0  0  0
   -1.0892   17.7612  -26.6064 H   0  0  0  0  0  0  0  0  0  0  0  0
   -1.9733   18.3051  -28.0689 H   0  0  0  0  0  0  0  0  0  0  0  0
   -2.6242   20.4691  -26.1485 H   0  0  0  0  0  0  0  0  0  0  0  0
   -1.0747   20.9208  -25.3645 H   0  0  0  0  0  0  0  0  0  0  0  0
   -0.3114   23.0095  -24.6024 H   0  0  0  0  0  0  0  0  0  0  0  0
    0.7368   21.9558  -25.6111 H   0  0  0  0  0  0  0  0  0  0  0  0
    0.9860   23.7347  -25.6111 H   0  0  0  0  0  0  0  0  0  0  0  0
   -0.1772   25.1434  -26.9974 H   0  0  0  0  0  0  0  0  0  0  0  0
   -3.2807   24.5456  -30.5566 H   0  0  0  0  0  0  0  0  0  0  0  0
   -6.3290   21.1720  -30.8960 H   0  0  0  0  0  0  0  0  0  0  0  0
   -6.7204   20.6821  -33.7312 H   0  0  0  0  0  0  0  0  0  0  0  0
   -5.0681   20.3972  -33.0027 H   0  0  0  0  0  0  0  0  0  0  0  0
   -6.5525   18.3731  -33.1035 H   0  0  0  0  0  0  0  0  0  0  0  0
   -5.9221   18.8669  -31.4401 H   0  0  0  0  0  0  0  0  0  0  0  0
   -8.4351   18.0357  -31.8695 H   0  0  0  0  0  0  0  0  0  0  0  0
   -7.9253   19.2726  -30.6117 H   0  0  0  0  0  0  0  0  0  0  0  0
   -8.8101   20.1551  -33.3427 H   0  0  0  0  0  0  0  0  0  0  0  0
  -10.0124   19.7052  -32.0226 H   0  0  0  0  0  0  0  0  0  0  0  0
   -9.7832   22.0666  -31.9933 H   0  0  0  0  0  0  0  0  0  0  0  0
   -8.8656   21.3424  -30.5614 H   0  0  0  0  0  0  0  0  0  0  0  0
   -7.7326   22.6366  -33.0509 H   0  0  0  0  0  0  0  0  0  0  0  0
   -7.6030   23.1377  -31.2839 H   0  0  0  0  0  0  0  0  0  0  0  0
   -4.4514   20.3994  -30.3069 H   0  0  0  0  0  0  0  0  0  0  0  0
   -3.0180   20.0958  -28.3055 H   0  0  0  0  0  0  0  0  0  0  0  0
  1  2  1  0
  2  3  1  0
  3  4  1  0
  4  5  1  0
  5  6  1  0
  6  7  1  0
  6  8  2  0
  8  9  1  0
  9 10  2  0
  9 11  1  0
 11 12  2  0
 12 13  1  0
 13 14  1  0
 14 15  2  0
 14 16  2  0
 14 17  1  0
 17 18  1  0
 18 19  1  0
 19 20  1  0
 20 21  1  0
 21 22  1  0
 22 23  1  0
 13 24  2  0
 24 25  1  0
 25 26  2  0
 26  5  1  0
 26 11  1  0
 23 17  1  0
  1 27  1  0
  1 28  1  0
  1 29  1  0
  2 30  1  0
  2 31  1  0
  4 32  1  0
  4 33  1  0
  7 34  1  0
  7 35  1  0
  7 36  1  0
  8 37  1  0
 12 38  1  0
 17 39  1  0
 18 40  1  0
 18 41  1  0
 19 42  1  0
 19 43  1  0
 20 44  1  0
 20 45  1  0
 21 46  1  0
 21 47  1  0
 22 48  1  0
 22 49  1  0
 23 50  1  0
 23 51  1  0
 24 52  1  0
 25 53  1  0
M  CHG  1  17   1
M  END
>  <UniqueID>  (17) 
17

>  <SMILES>  (17) 
CCOCn1c(C)cc(=O)c2cc(S(=O)(=O)[NH+]3CCCCCC3)ccc21

>  <Energy>  (17) 
77.11992992033738

>  <Genealogy>  (17) 
CCOCn1c(C)cc(=O)c2cc(S(=O)(=O)[NH+]3CCCCCC3)ccc21 (protonated)
CCOCn1c(C)cc(=O)c2cc(S(=O)(=O)[NH+]3CCCCCC3)ccc21 (3D coordinates assigned)
CCOCn1c(C)cc(=O)c2cc(S(=O)(=O)[NH+]3CCCCCC3)ccc21 (nonaromatic ring conformer: 77.11992992033738 kcal/mol)

>  <smiles>  (17) 
CCOCn1c(C)cc(=O)c2cc(S(=O)(=O)N3CCCCCC3)ccc21

>  <score_type>  (17) 
oracle

>  <origin>  (17) 
adg

>  <m_score__min__energy>  (17) 
-6.6299999999999999

>  <m_primary>  (17) 
energy

$$$$
17:0
     RDKit          3D

 31 32  0  0  0  0  0  0  0  0999 V2000
   -8.0590   18.2300  -31.9890 C   0  0  0  0  0  0  0  0  0  0  0  0
   -8.8100   19.2650  -31.6020 C   0  0  0  0  0  0  0  0  0  0  0  0
   -9.0370   20.4480  -32.4980 C   0  0  0  0  0  0  0  0  0  0  0  0
   -8.8080   22.0220  -31.5950 S   0  0  0  0  0  0  0  0  0  0  0  0
   -7.0170   22.0580  -31.8020 C   0  0  0  0  0  0  0  0  0  0  0  0
   -6.4410   20.9930  -32.4170 N   0  0  0  0  0  0  0  0  0  0  0  0
   -5.1060   20.9220  -32.6190 C   0  0  0  0  0  0  0  0  0  0  0  0
   -4.5510   19.8010  -33.2490 C   0  0  0  0  0  0  0  0  0  0  0  0
   -3.1720   19.7280  -33.4590 C   0  0  0  0  0  0  0  0  0  0  0  0
   -2.3430   20.7740  -33.0430 C   0  0  0  0  0  0  0  0  0  0  0  0
   -2.8900   21.8970  -32.4140 C   0  0  0  0  0  0  0  0  0  0  0  0
   -4.2800   21.9770  -32.1970 C   0  0  0  0  0  0  0  0  0  0  0  0
   -4.8830   23.0860  -31.5780 C   0  0  0  0  0  0  0  0  0  0  0  0
   -4.1640   24.0600  -31.2150 O   0  0  0  0  0  0  0  0  0  0  0  0
   -6.2440   23.1160  -31.3780 N   0  0  0  0  0  0  0  0  0  0  0  0
   -6.8640   24.3230  -30.7950 C   0  0  0  0  0  0  0  0  0  0  0  0
   -6.1500   24.7230  -29.5080 C   0  0  0  0  0  0  0  0  0  0  0  0
   -7.9091   17.3758  -31.3123 H   0  0  0  0  0  0  0  0  0  0  0  0
   -7.5906   18.2321  -32.9843 H   0  0  0  0  0  0  0  0  0  0  0  0
   -9.2726   19.2500  -30.6041 H   0  0  0  0  0  0  0  0  0  0  0  0
   -8.3221   20.4070  -33.3330 H   0  0  0  0  0  0  0  0  0  0  0  0
  -10.0720   20.4085  -32.8683 H   0  0  0  0  0  0  0  0  0  0  0  0
   -5.2015   18.9775  -33.5786 H   0  0  0  0  0  0  0  0  0  0  0  0
   -2.7376   18.8461  -33.9525 H   0  0  0  0  0  0  0  0  0  0  0  0
   -1.2576   20.7136  -33.2108 H   0  0  0  0  0  0  0  0  0  0  0  0
   -2.2347   22.7184  -32.0885 H   0  0  0  0  0  0  0  0  0  0  0  0
   -6.7968   25.1494  -31.5179 H   0  0  0  0  0  0  0  0  0  0  0  0
   -7.9172   24.1052  -30.5641 H   0  0  0  0  0  0  0  0  0  0  0  0
   -6.7418   24.3914  -28.6421 H   0  0  0  0  0  0  0  0  0  0  0  0
   -5.1576   24.2495  -29.4768 H   0  0  0  0  0  0  0  0  0  0  0  0
   -6.0356   25.8166  -29.4768 H   0  0  0  0  0  0  0  0  0  0  0  0
  1  2  2  0
  2  3  1  0
  3  4  1  0
  4  5  1  0
  5  6  2  0
  6  7  1  0
  7  8  2  0
  8  9  1  0
  9 10  2  0
 10 11  1  0
 11 12  2  0
 12 13  1  0
 13 14  2  0
 13 15  1  0
 15 16  1  0
 16 17  1  0
 15  5  1  0
 12  7  1  0
  1 18  1  0
  1 19  1  0
  2 20  1  0
  3 21  1  0
  3 22  1  0
  8 23  1  0
  9 24  1  0
 10 25  1  0
 11 26  1  0
 16 27  1  0
 16 28  1  0
 17 29  1  0
 17 30  1  0
 17 31  1  0
M  END
>  <UniqueID>  (18) 
18

>  <SMILES>  (18) 
C=CCSc1nc2ccccc2c(=O)n1CC

>  <Energy>  (18) 
30.555655920350684

>  <Genealogy>  (18) 
C=CCSc1nc2ccccc2c(=O)n1CC (3D coordinates assigned)
C=CCSc1nc2ccccc2c(=O)n1CC (optimized conformer: 30.555655920350684 kcal/mol)

>  <smiles>  (18) 
C=CCSc1nc2ccccc2c(=O)n1CC

>  <score_type>  (18) 
oracle

>  <origin>  (18) 
adg

>  <m_score__min__energy>  (18) 
-6.7599999999999998

>  <m_primary>  (18) 
energy

$$$$
18:0
     RDKit          3D

 38 39  0  0  0  0  0  0  0  0999 V2000
   -3.0996   20.7605  -33.8200 H   0  0  0  0  0  0  0  0  0  0  0  0
   -2.7860   21.1260  -32.8310 C   0  0  0  0  0  0  0  0  0  0  0  0
   -3.7300   21.2870  -31.8150 C   0  0  0  0  0  0  0  0  0  0  0  0
   -4.7866   21.0468  -32.0044 H   0  0  0  0  0  0  0  0  0  0  0  0
   -3.3350   21.7530  -30.5570 C   0  0  0  0  0  0  0  0  0  0  0  0
   -4.0836   21.8757  -29.7604 H   0  0  0  0  0  0  0  0  0  0  0  0
   -1.9870   22.0660  -30.3030 C   0  0  0  0  0  0  0  0  0  0  0  0
   -1.5700   22.5630  -28.9320 C   0  0  1  0  0  0  0  0  0  0  0  0
   -0.6153   22.0922  -28.6546 H   0  0  0  0  0  0  0  0  0  0  0  0
   -1.3500   24.0540  -28.9700 C   0  0  0  0  0  0  0  0  0  0  0  0
   -0.1720   24.4990  -29.0480 O   0  0  0  0  0  0  0  0  0  0  0  0
   -2.4760   24.9470  -28.9590 N   0  0  0  0  0  0  0  0  0  0  0  0
   -3.6030   24.7670  -29.5800 C   0  0  0  0  0  0  0  0  0  0  0  0
   -3.8640   25.1930  -30.8350 N   0  0  0  0  0  0  0  0  0  0  0  0
   -5.0940   24.8870  -31.2420 N   0  0  0  0  0  0  0  0  0  0  0  0
   -5.8110   24.2130  -30.3140 C   0  0  0  0  0  0  0  0  0  0  0  0
   -7.2330   23.7880  -30.5150 C   0  0  0  0  0  0  0  0  0  0  0  0
   -7.8967   24.6156  -30.2241 H   0  0  0  0  0  0  0  0  0  0  0  0
   -7.4156   22.8986  -29.8940 H   0  0  0  0  0  0  0  0  0  0  0  0
   -7.5140   23.4160  -31.9760 C   0  0  0  0  0  0  0  0  0  0  0  0
   -6.9427   24.0926  -32.6286 H   0  0  0  0  0  0  0  0  0  0  0  0
   -8.5969   23.5121  -32.1435 H   0  0  0  0  0  0  0  0  0  0  0  0
   -7.1200   21.9760  -32.2980 C   0  0  0  0  0  0  0  0  0  0  0  0
   -6.9677   21.4194  -31.3615 H   0  0  0  0  0  0  0  0  0  0  0  0
   -7.9206   21.4987  -32.8822 H   0  0  0  0  0  0  0  0  0  0  0  0
   -6.1880   21.9728  -32.8822 H   0  0  0  0  0  0  0  0  0  0  0  0
   -4.9210   23.9740  -28.9010 S   0  0  0  0  0  0  0  0  0  0  0  0
   -2.5910   22.1430  -27.8510 C   0  0  0  0  0  0  0  0  0  0  0  0
   -2.4591   22.7879  -26.9697 H   0  0  0  0  0  0  0  0  0  0  0  0
   -3.5987   22.2503  -28.2787 H   0  0  0  0  0  0  0  0  0  0  0  0
   -2.4150   20.6850  -27.4250 C   0  0  0  0  0  0  0  0  0  0  0  0
   -2.4074   20.6222  -26.3268 H   0  0  0  0  0  0  0  0  0  0  0  0
   -3.2472   20.0843  -27.8209 H   0  0  0  0  0  0  0  0  0  0  0  0
   -1.4638   20.2996  -27.8209 H   0  0  0  0  0  0  0  0  0  0  0  0
   -1.0430   21.8960  -31.3360 C   0  0  0  0  0  0  0  0  0  0  0  0
    0.0156   22.1323  -31.1529 H   0  0  0  0  0  0  0  0  0  0  0  0
   -1.4430   21.4290  -32.5920 C   0  0  0  0  0  0  0  0  0  0  0  0
   -0.6997   21.3001  -33.3926 H   0  0  0  0  0  0  0  0  0  0  0  0
  1  2  1  0
  2  3  2  0
  3  4  1  0
  3  5  1  0
  5  6  1  0
  5  7  2  0
  7  8  1  0
  8  9  1  1
  8 10  1  0
 10 11  2  0
 10 12  1  0
 12 13  2  0
 13 14  1  0
 14 15  1  0
 15 16  2  0
 16 17  1  0
 17 18  1  0
 17 19  1  0
 17 20  1  0
 20 21  1  0
 20 22  1  0
 20 23  1  0
 23 24  1  0
 23 25  1  0
 23 26  1  0
 16 27  1  0
  8 28  1  0
 28 29  1  0
 28 30  1  0
 28 31  1  0
 31 32  1  0
 31 33  1  0
 31 34  1  0
  7 35  1  0
 35 36  1  0
 35 37  2  0
 37 38  1  0
 37  2  1  0
 27 13  1  0
M  CHG  1  14  -1
M  END
>  <UniqueID>  (19) 
19

>  <SMILES>  (19) 
CCCc1n[n-]/c(=N\C(=O)[C@@H](CC)c2ccccc2)s1

>  <Energy>  (19) 
64.82457994299918

>  <Genealogy>  (19) 
CCCc1n[n-]c(=NC(=O)C(CC)c2ccccc2)s1 (protonated)
CCCc1n[n-]c(=NC(=O)[C@@H](CC)c2ccccc2)s1 (chirality)
CCCc1n[n-]/c(=N\C(=O)[C@@H](CC)c2ccccc2)s1 (cis-trans isomerization)
CCCc1n[n-]/c(=N\C(=O)[C@@H](CC)c2ccccc2)s1 (3D coordinates assigned)
CCCc1n[n-]/c(=N\C(=O)[C@@H](CC)c2ccccc2)s1 (optimized conformer: 64.82457994299918 kcal/mol)

>  <smiles>  (19) 
CCCc1n[nH]c(=NC(=O)C(CC)c2ccccc2)s1

>  <score_type>  (19) 
oracle

>  <origin>  (19) 
adg

>  <m_score__min__energy>  (19) 
-9.1400000000000006

>  <m_primary>  (19) 
energy

$$$$
19:0
     RDKit          3D

 16 15  0  0  0  0  0  0  0  0999 V2000
   -6.3990   25.5860  -29.4430 C   0  0  0  0  0  0  0  0  0  0  0  0
   -5.7360   25.3070  -30.7950 C   0  0  0  0  0  0  0  0  0  0  0  0
   -4.2670   25.2830  -30.7040 N   0  0  0  0  0  0  0  0  0  0  0  0
   -3.7350   23.9360  -30.4460 C   0  0  0  0  0  0  0  0  0  0  0  0
   -4.5550   22.8930  -31.1980 C   0  0  0  0  0  0  0  0  0  0  0  0
   -5.7138   25.2977  -28.6322 H   0  0  0  0  0  0  0  0  0  0  0  0
   -6.6313   26.6582  -29.3629 H   0  0  0  0  0  0  0  0  0  0  0  0
   -7.3281   25.0025  -29.3629 H   0  0  0  0  0  0  0  0  0  0  0  0
   -6.0833   24.3307  -31.1642 H   0  0  0  0  0  0  0  0  0  0  0  0
   -6.0168   26.1198  -31.4809 H   0  0  0  0  0  0  0  0  0  0  0  0
   -3.8520   25.6510  -31.5930 H   0  0  0  0  0  0  0  0  0  0  0  0
   -2.6890   23.8878  -30.7829 H   0  0  0  0  0  0  0  0  0  0  0  0
   -3.7921   23.7280  -29.3673 H   0  0  0  0  0  0  0  0  0  0  0  0
   -5.0682   22.2402  -30.4766 H   0  0  0  0  0  0  0  0  0  0  0  0
   -5.3002   23.3983  -31.8299 H   0  0  0  0  0  0  0  0  0  0  0  0
   -3.8881   22.2881  -31.8299 H   0  0  0  0  0  0  0  0  0  0  0  0
  1  2  1  0
  2  3  1  0
  3  4  1  0
  4  5  1  0
  1  6  1  0
  1  7  1  0
  1  8  1  0
  2  9  1  0
  2 10  1  0
  3 11  1  0
  4 12  1  0
  4 13  1  0
  5 14  1  0
  5 15  1  0
  5 16  1  0
M  END
>  <UniqueID>  (20) 
20

>  <SMILES>  (20) 
CCNCC

>  <Energy>  (20) 
7.8818345522359765

>  <Genealogy>  (20) 
CCNCC (3D coordinates assigned)
CCNCC (optimized conformer: 7.8818345522359765 kcal/mol)

>  <smiles>  (20) 
CCNCC

>  <score_type>  (20) 
oracle

>  <origin>  (20) 
adg

>  <m_score__min__energy>  (20) 
-3.4300000000000002

>  <m_primary>  (20) 
energy

$$$$
20:0
     RDKit          3D

 89 92  0  0  0  0  0  0  0  0999 V2000
   -2.7480   20.2130  -27.4810 C   0  0  0  0  0  0  0  0  0  0  0  0
   -3.4130   21.5440  -27.8730 C   0  0  0  0  0  0  0  0  0  0  0  0
   -2.4670   22.5670  -28.3930 N   0  0  0  0  0  0  0  0  0  0  0  0
   -2.5470   23.8350  -27.6030 C   0  0  0  0  0  0  0  0  0  0  0  0
   -3.9870   24.1820  -27.2080 C   0  0  0  0  0  0  0  0  0  0  0  0
   -1.0830   22.0230  -28.4760 C   0  0  0  0  0  0  0  0  0  0  0  0
   -0.5670   21.8970  -29.9180 C   0  0  0  0  0  0  0  0  0  0  0  0
   -1.4940   22.4720  -30.8100 O   0  0  0  0  0  0  0  0  0  0  0  0
   -1.7550   21.5870  -31.8770 C   0  0  0  0  0  0  0  0  0  0  0  0
   -2.9040   20.6630  -31.4870 C   0  0  0  0  0  0  0  0  0  0  0  0
   -3.9920   20.7520  -32.4600 N   0  0  0  0  0  0  0  0  0  0  0  0
   -5.3350   21.0510  -32.0480 C   0  0  0  0  0  0  0  0  0  0  0  0
   -5.6200   22.3060  -31.4780 C   0  0  0  0  0  0  0  0  0  0  0  0
   -4.5880   23.2210  -31.1750 C   0  0  0  0  0  0  0  0  0  0  0  0
   -4.8720   24.4500  -30.5850 C   0  0  0  0  0  0  0  0  0  0  0  0
   -6.1830   24.7840  -30.2700 C   0  0  0  0  0  0  0  0  0  0  0  0
   -7.2210   23.9020  -30.5690 C   0  0  0  0  0  0  0  0  0  0  0  0
   -6.9660   22.6620  -31.2100 C   0  0  0  0  0  0  0  0  0  0  0  0
   -7.9900   21.8060  -31.5640 N   0  0  0  0  0  0  0  0  0  0  0  0
   -9.3850   22.2970  -31.5960 C   0  0  0  0  0  0  0  0  0  0  0  0
   -7.7100   20.4960  -31.9060 C   0  0  0  0  0  0  0  0  0  0  0  0
   -8.7350   19.5230  -31.9700 C   0  0  0  0  0  0  0  0  0  0  0  0
   -8.4640   18.2140  -32.3440 C   0  0  0  0  0  0  0  0  0  0  0  0
   -7.1670   17.8230  -32.6360 C   0  0  0  0  0  0  0  0  0  0  0  0
   -6.1030   18.7370  -32.5410 C   0  0  0  0  0  0  0  0  0  0  0  0
   -4.7790   18.3240  -32.7760 O   0  0  0  0  0  0  0  0  0  0  0  0
   -4.2060   17.9400  -34.0240 C   0  0  0  0  0  0  0  0  0  0  0  0
   -4.7280   16.5760  -34.5490 C   0  0  0  0  0  0  0  0  0  0  0  0
   -3.8090   15.3860  -34.4760 N   0  0  0  0  0  0  0  0  0  0  0  0
   -2.7170   15.5180  -35.4800 C   0  0  0  0  0  0  0  0  0  0  0  0
   -4.5290   14.0920  -34.7200 C   0  0  0  0  0  0  0  0  0  0  0  0
   -5.1460   13.5190  -33.4320 C   0  0  0  0  0  0  0  0  0  0  0  0
   -4.0980   13.1480  -32.4270 N   0  0  0  0  0  0  0  0  0  0  0  0
   -4.6540   13.3180  -31.0620 C   0  0  0  0  0  0  0  0  0  0  0  0
   -3.7320   11.7190  -32.5940 C   0  0  0  0  0  0  0  0  0  0  0  0
   -2.8630   13.9830  -32.5770 C   0  0  0  0  0  0  0  0  0  0  0  0
   -3.1770   15.3970  -33.1070 C   0  0  0  0  0  0  0  0  0  0  0  0
   -6.3700   20.0920  -32.1810 C   0  0  0  0  0  0  0  0  0  0  0  0
   -2.7076   20.1322  -26.3847 H   0  0  0  0  0  0  0  0  0  0  0  0
   -3.3339   19.3762  -27.8890 H   0  0  0  0  0  0  0  0  0  0  0  0
   -1.7270   20.1791  -27.8890 H   0  0  0  0  0  0  0  0  0  0  0  0
   -4.1624   21.3393  -28.6518 H   0  0  0  0  0  0  0  0  0  0  0  0
   -3.8553   21.9592  -26.9554 H   0  0  0  0  0  0  0  0  0  0  0  0
   -2.7870   22.7480  -29.3750 H   0  0  0  0  0  0  0  0  0  0  0  0
   -1.9466   23.7209  -26.6884 H   0  0  0  0  0  0  0  0  0  0  0  0
   -2.1644   24.6506  -28.2343 H   0  0  0  0  0  0  0  0  0  0  0  0
   -4.0716   24.2024  -26.1115 H   0  0  0  0  0  0  0  0  0  0  0  0
   -4.2509   25.1694  -27.6146 H   0  0  0  0  0  0  0  0  0  0  0  0
   -4.6717   23.4231  -27.6146 H   0  0  0  0  0  0  0  0  0  0  0  0
   -0.4101   22.6935  -27.9213 H   0  0  0  0  0  0  0  0  0  0  0  0
   -1.1037   21.0104  -28.0468 H   0  0  0  0  0  0  0  0  0  0  0  0
    0.3973   22.4186  -30.0074 H   0  0  0  0  0  0  0  0  0  0  0  0
   -0.4379   20.8329  -30.1652 H   0  0  0  0  0  0  0  0  0  0  0  0
   -2.0319   22.1616  -32.7732 H   0  0  0  0  0  0  0  0  0  0  0  0
   -0.8562   20.9909  -32.0933 H   0  0  0  0  0  0  0  0  0  0  0  0
   -2.5371   19.6267  -31.4494 H   0  0  0  0  0  0  0  0  0  0  0  0
   -3.2850   20.9690  -30.5015 H   0  0  0  0  0  0  0  0  0  0  0  0
   -3.8330   20.3640  -33.4190 H   0  0  0  0  0  0  0  0  0  0  0  0
   -3.5453   22.9593  -31.4082 H   0  0  0  0  0  0  0  0  0  0  0  0
   -4.0575   25.1569  -30.3682 H   0  0  0  0  0  0  0  0  0  0  0  0
   -6.4028   25.7459  -29.7838 H   0  0  0  0  0  0  0  0  0  0  0  0
   -8.2539   24.1718  -30.3037 H   0  0  0  0  0  0  0  0  0  0  0  0
   -9.7519   22.4262  -30.5671 H   0  0  0  0  0  0  0  0  0  0  0  0
   -9.4220   23.2622  -32.1224 H   0  0  0  0  0  0  0  0  0  0  0  0
  -10.0184   21.5678  -32.1224 H   0  0  0  0  0  0  0  0  0  0  0  0
   -9.7669   19.8094  -31.7185 H   0  0  0  0  0  0  0  0  0  0  0  0
   -9.2834   17.4830  -32.4090 H   0  0  0  0  0  0  0  0  0  0  0  0
   -6.9678   16.7864  -32.9454 H   0  0  0  0  0  0  0  0  0  0  0  0
   -4.4427   18.7139  -34.7690 H   0  0  0  0  0  0  0  0  0  0  0  0
   -3.1229   17.8332  -33.8645 H   0  0  0  0  0  0  0  0  0  0  0  0
   -5.6298   16.3274  -33.9702 H   0  0  0  0  0  0  0  0  0  0  0  0
   -4.8779   16.7384  -35.6266 H   0  0  0  0  0  0  0  0  0  0  0  0
   -1.7540   15.6344  -34.9612 H   0  0  0  0  0  0  0  0  0  0  0  0
   -2.6874   14.6169  -36.1102 H   0  0  0  0  0  0  0  0  0  0  0  0
   -2.9030   16.4002  -36.1102 H   0  0  0  0  0  0  0  0  0  0  0  0
   -5.3325   14.2659  -35.4509 H   0  0  0  0  0  0  0  0  0  0  0  0
   -3.7962   13.3633  -35.0969 H   0  0  0  0  0  0  0  0  0  0  0  0
   -5.8112   14.2751  -32.9895 H   0  0  0  0  0  0  0  0  0  0  0  0
   -5.7021   12.6076  -33.6967 H   0  0  0  0  0  0  0  0  0  0  0  0
   -3.8790   13.0810  -30.3183 H   0  0  0  0  0  0  0  0  0  0  0  0
   -4.9850   14.3584  -30.9279 H   0  0  0  0  0  0  0  0  0  0  0  0
   -5.5102   12.6406  -30.9279 H   0  0  0  0  0  0  0  0  0  0  0  0
   -3.6127   11.2530  -31.6047 H   0  0  0  0  0  0  0  0  0  0  0  0
   -4.5261   11.1997  -33.1505 H   0  0  0  0  0  0  0  0  0  0  0  0
   -2.7860   11.6454  -33.1505 H   0  0  0  0  0  0  0  0  0  0  0  0
   -2.3747   14.0729  -31.5954 H   0  0  0  0  0  0  0  0  0  0  0  0
   -2.2063   13.4868  -33.3067 H   0  0  0  0  0  0  0  0  0  0  0  0
   -3.8675   15.8888  -32.4060 H   0  0  0  0  0  0  0  0  0  0  0  0
   -2.2223   15.9370  -33.1896 H   0  0  0  0  0  0  0  0  0  0  0  0
  1  2  1  0
  2  3  1  0
  3  4  1  0
  4  5  1  0
  3  6  1  0
  6  7  1  0
  7  8  1  0
  8  9  1  0
  9 10  1  0
 10 11  1  0
 11 12  1  0
 12 13  2  0
 13 14  1  0
 14 15  2  0
 15 16  1  0
 16 17  2  0
 17 18  1  0
 18 19  2  0
 19 20  1  0
 19 21  1  0
 21 22  2  0
 22 23  1  0
 23 24  2  0
 24 25  1  0
 25 26  1  0
 26 27  1  0
 27 28  1  0
 28 29  1  0
 29 30  1  0
 29 31  1  0
 31 32  1  0
 32 33  1  0
 33 34  1  0
 33 35  1  0
 33 36  1  0
 36 37  1  0
 25 38  2  0
 38 12  1  0
 18 13  1  0
 38 21  1  0
 37 29  1  0
  1 39  1  0
  1 40  1  0
  1 41  1  0
  2 42  1  0
  2 43  1  0
  3 44  1  0
  4 45  1  0
  4 46  1  0
  5 47  1  0
  5 48  1  0
  5 49  1  0
  6 50  1  0
  6 51  1  0
  7 52  1  0
  7 53  1  0
  9 54  1  0
  9 55  1  0
 10 56  1  0
 10 57  1  0
 11 58  1  0
 14 59  1  0
 15 60  1  0
 16 61  1  0
 17 62  1  0
 20 63  1  0
 20 64  1  0
 20 65  1  0
 22 66  1  0
 23 67  1  0
 24 68  1  0
 27 69  1  0
 27 70  1  0
 28 71  1  0
 28 72  1  0
 30 73  1  0
 30 74  1  0
 30 75  1  0
 31 76  1  0
 31 77  1  0
 32 78  1  0
 32 79  1  0
 34 80  1  0
 34 81  1  0
 34 82  1  0
 35 83  1  0
 35 84  1  0
 35 85  1  0
 36 86  1  0
 36 87  1  0
 37 88  1  0
 37 89  1  0
M  CHG  4   3   1  19   1  29   1  33   1
M  END
>  <UniqueID>  (21) 
21

>  <SMILES>  (21) 
CC[NH+](CC)CCOCCNc1c2ccccc2[n+](C)c2cccc(OCC[N+]3(C)CC[N+](C)(C)CC3)c12

>  <Energy>  (21) 
149.47651641664854

>  <Genealogy>  (21) 
CC[NH+](CC)CCOCCNc1c2ccccc2[n+](C)c2cccc(OCC[N+]3(C)CC[N+](C)(C)CC3)c12 (protonated)
CC[NH+](CC)CCOCCNc1c2ccccc2[n+](C)c2cccc(OCC[N+]3(C)CC[N+](C)(C)CC3)c12 (3D coordinates assigned)
CC[NH+](CC)CCOCCNc1c2ccccc2[n+](C)c2cccc(OCC[N+]3(C)CC[N+](C)(C)CC3)c12 (nonaromatic ring conformer: 149.47651641664854 kcal/mol)

>  <smiles>  (21) 
CCN(CC)CCOCCNc1c2ccccc2[n+](C)c2cccc(OCC[N+]3(C)CC[N+](C)(C)CC3)c12

>  <score_type>  (21) 
oracle

>  <origin>  (21) 
adg

>  <m_score__min__energy>  (21) 
-6.8399999999999999

>  <m_primary>  (21) 
energy

$$$$
21:0
     RDKit          3D

 44 47  0  0  0  0  0  0  0  0999 V2000
   -1.2190   26.7840  -24.5190 C   0  0  0  0  0  0  0  0  0  0  0  0
   -0.9140   25.3710  -24.7110 N   0  0  0  0  0  0  0  0  0  0  0  0
    0.0360   24.6970  -24.0910 N   0  0  0  0  0  0  0  0  0  0  0  0
    0.0930   23.4660  -24.5720 N   0  0  0  0  0  0  0  0  0  0  0  0
   -0.8170   23.3210  -25.5290 N   0  0  0  0  0  0  0  0  0  0  0  0
   -1.4330   24.5180  -25.6090 C   0  0  0  0  0  0  0  0  0  0  0  0
   -2.7390   24.9050  -26.7750 S   0  0  0  0  0  0  0  0  0  0  0  0
   -2.4170   23.4300  -27.8020 C   0  0  0  0  0  0  0  0  0  0  0  0
   -2.2950   23.8060  -29.2810 C   0  0  0  0  0  0  0  0  0  0  0  0
   -3.5490   24.5650  -29.7800 C   0  0  0  0  0  0  0  0  0  0  0  0
   -4.8060   23.7830  -29.7510 N   0  0  0  0  0  0  0  0  0  0  0  0
   -6.0410   24.5660  -29.9120 C   0  0  0  0  0  0  0  0  0  0  0  0
   -6.9390   23.8470  -30.9050 C   0  0  1  0  0  0  0  0  0  0  0  0
   -6.4500   23.7870  -32.3450 C   0  0  0  0  0  0  0  0  0  0  0  0
   -6.1710   22.6360  -31.3850 C   0  0  2  0  0  0  0  0  0  0  0  0
   -6.9790   21.3740  -31.5310 C   0  0  0  0  0  0  0  0  0  0  0  0
   -8.3800   21.4270  -31.4720 C   0  0  0  0  0  0  0  0  0  0  0  0
   -9.1360   20.2630  -31.6420 C   0  0  0  0  0  0  0  0  0  0  0  0
   -8.4990   19.0420  -31.8860 C   0  0  0  0  0  0  0  0  0  0  0  0
   -9.2340   17.9150  -32.0540 F   0  0  0  0  0  0  0  0  0  0  0  0
   -7.1050   18.9850  -31.9670 C   0  0  0  0  0  0  0  0  0  0  0  0
   -6.3460   20.1480  -31.7960 C   0  0  0  0  0  0  0  0  0  0  0  0
   -4.8440   22.6160  -30.6430 C   0  0  0  0  0  0  0  0  0  0  0  0
   -1.2669   27.0058  -23.4427 H   0  0  0  0  0  0  0  0  0  0  0  0
   -0.4322   27.3955  -24.9848 H   0  0  0  0  0  0  0  0  0  0  0  0
   -2.1880   27.0165  -24.9848 H   0  0  0  0  0  0  0  0  0  0  0  0
    0.6580   25.0750  -23.3430 H   0  0  0  0  0  0  0  0  0  0  0  0
   -1.4789   22.9599  -27.4720 H   0  0  0  0  0  0  0  0  0  0  0  0
   -3.2596   22.7324  -27.6866 H   0  0  0  0  0  0  0  0  0  0  0  0
   -1.4120   24.4482  -29.4147 H   0  0  0  0  0  0  0  0  0  0  0  0
   -2.1979   22.8791  -29.8654 H   0  0  0  0  0  0  0  0  0  0  0  0
   -3.6850   25.4535  -29.1459 H   0  0  0  0  0  0  0  0  0  0  0  0
   -3.3618   24.8073  -30.8365 H   0  0  0  0  0  0  0  0  0  0  0  0
   -6.5542   24.6538  -28.9430 H   0  0  0  0  0  0  0  0  0  0  0  0
   -5.8034   25.5752  -30.2794 H   0  0  0  0  0  0  0  0  0  0  0  0
   -7.9223   24.1012  -30.4825 H   0  0  0  0  0  0  0  0  0  0  0  0
   -7.1697   23.6574  -33.1667 H   0  0  0  0  0  0  0  0  0  0  0  0
   -5.8350   24.4336  -32.9881 H   0  0  0  0  0  0  0  0  0  0  0  0
   -8.8852   22.3873  -31.2914 H   0  0  0  0  0  0  0  0  0  0  0  0
  -10.2335   20.3077  -31.5837 H   0  0  0  0  0  0  0  0  0  0  0  0
   -6.6044   18.0258  -32.1652 H   0  0  0  0  0  0  0  0  0  0  0  0
   -5.2494   20.1022  -31.8693 H   0  0  0  0  0  0  0  0  0  0  0  0
   -4.7602   21.6917  -30.0525 H   0  0  0  0  0  0  0  0  0  0  0  0
   -4.0067   22.6517  -31.3555 H   0  0  0  0  0  0  0  0  0  0  0  0
  1  2  1  0
  2  3  1  0
  3  4  2  0
  4  5  1  0
  5  6  2  0
  6  7  1  0
  7  8  1  0
  8  9  1  0
  9 10  1  0
 10 11  1  0
 11 12  1  0
 12 13  1  0
 13 14  1  0
 14 15  1  0
 15 16  1  6
 16 17  2  0
 17 18  1  0
 18 19  2  0
 19 20  1  0
 19 21  1  0
 21 22  2  0
 15 23  1  0
  6  2  1  0
 23 11  1  0
 15 13  1  0
 22 16  1  0
  1 24  1  0
  1 25  1  0
  1 26  1  0
  3 27  1  0
  8 28  1  0
  8 29  1  0
  9 30  1  0
  9 31  1  0
 10 32  1  0
 10 33  1  0
 12 34  1  0
 12 35  1  0
 13 36  1  6
 14 37  1  0
 14 38  1  0
 17 39  1  0
 18 40  1  0
 21 41  1  0
 22 42  1  0
 23 43  1  0
 23 44  1  0
M  CHG  1   3   1
M  END
>  <UniqueID>  (22) 
22

>  <SMILES>  (22) 
Cn1[nH+]nnc1SCCCN1C[C@H]2C[C@@]2(c2ccc(F)cc2)C1

>  <Energy>  (22) 
355.335882990002

>  <Genealogy>  (22) 
Cn1[nH+]nnc1SCCCN1CC2CC2(c2ccc(F)cc2)C1 (protonated)
Cn1[nH+]nnc1SCCCN1C[C@H]2C[C@@]2(c2ccc(F)cc2)C1 (chirality)
Cn1[nH+]nnc1SCCCN1C[C@H]2C[C@@]2(c2ccc(F)cc2)C1 (3D coordinates assigned)
Cn1[nH+]nnc1SCCCN1C[C@H]2C[C@@]2(c2ccc(F)cc2)C1 (nonaromatic ring conformer: 355.335882990002 kcal/mol)

>  <smiles>  (22) 
Cn1nnnc1SCCCN1CC2CC2(c2ccc(F)cc2)C1

>  <score_type>  (22) 
oracle

>  <origin>  (22) 
adg

>  <m_score__min__energy>  (22) 
-8.8499999999999996

>  <m_primary>  (22) 
energy

$$$$
22:0
     RDKit          3D

 39 39  0  0  0  0  0  0  0  0999 V2000
   -2.7090   20.7290  -27.9560 C   0  0  0  0  0  0  0  0  0  0  0  0
   -3.0370   20.8580  -29.4420 C   0  0  0  0  0  0  0  0  0  0  0  0
   -2.6770   22.2020  -29.9460 N   0  0  0  0  0  0  0  0  0  0  0  0
   -2.9520   22.3450  -31.3980 C   0  0  0  0  0  0  0  0  0  0  0  0
   -2.6440   21.0300  -32.1050 C   0  0  0  0  0  0  0  0  0  0  0  0
   -3.3530   23.2520  -29.1520 C   0  0  0  0  0  0  0  0  0  0  0  0
   -3.0290   24.6210  -29.6900 C   0  0  0  0  0  0  0  0  0  0  0  0
   -1.9910   25.2070  -29.2850 O   0  0  0  0  0  0  0  0  0  0  0  0
   -3.8880   25.2990  -30.6170 N   0  0  0  0  0  0  0  0  0  0  0  0
   -5.3460   25.2210  -30.6430 C   0  0  0  0  0  0  0  0  0  0  0  0
   -5.8250   24.1000  -31.5670 C   0  0  0  0  0  0  0  0  0  0  0  0
   -7.5520   23.6120  -31.2010 S   0  0  0  0  0  0  0  0  0  0  0  0
   -7.3720   21.9030  -31.7260 C   0  0  0  0  0  0  0  0  0  0  0  0
   -8.4430   21.0100  -31.5890 C   0  0  0  0  0  0  0  0  0  0  0  0
   -8.3010   19.6790  -31.9950 C   0  0  0  0  0  0  0  0  0  0  0  0
   -7.0940   19.2390  -32.5490 C   0  0  0  0  0  0  0  0  0  0  0  0
   -6.8990   17.4210  -33.0970 Br  0  0  0  0  0  0  0  0  0  0  0  0
   -6.0310   20.1360  -32.7050 C   0  0  0  0  0  0  0  0  0  0  0  0
   -6.1710   21.4670  -32.2990 C   0  0  0  0  0  0  0  0  0  0  0  0
   -3.5693   21.0674  -27.3599 H   0  0  0  0  0  0  0  0  0  0  0  0
   -2.4894   19.6775  -27.7189 H   0  0  0  0  0  0  0  0  0  0  0  0
   -1.8320   21.3492  -27.7189 H   0  0  0  0  0  0  0  0  0  0  0  0
   -2.4717   20.0993  -30.0031 H   0  0  0  0  0  0  0  0  0  0  0  0
   -4.1183   20.7089  -29.5781 H   0  0  0  0  0  0  0  0  0  0  0  0
   -4.0110   22.6023  -31.5471 H   0  0  0  0  0  0  0  0  0  0  0  0
   -2.3190   23.1424  -31.8145 H   0  0  0  0  0  0  0  0  0  0  0  0
   -2.4602   20.2454  -31.3562 H   0  0  0  0  0  0  0  0  0  0  0  0
   -3.4992   20.7430  -32.7345 H   0  0  0  0  0  0  0  0  0  0  0  0
   -1.7503   21.1527  -32.7345 H   0  0  0  0  0  0  0  0  0  0  0  0
   -4.4407   23.0946  -29.1978 H   0  0  0  0  0  0  0  0  0  0  0  0
   -3.0006   23.1894  -28.1119 H   0  0  0  0  0  0  0  0  0  0  0  0
   -5.7129   25.0273  -29.6242 H   0  0  0  0  0  0  0  0  0  0  0  0
   -5.7386   26.1760  -31.0224 H   0  0  0  0  0  0  0  0  0  0  0  0
   -5.7659   24.4472  -32.6091 H   0  0  0  0  0  0  0  0  0  0  0  0
   -5.1797   23.2238  -31.4063 H   0  0  0  0  0  0  0  0  0  0  0  0
   -9.3959   21.3558  -31.1620 H   0  0  0  0  0  0  0  0  0  0  0  0
   -9.1398   18.9770  -31.8785 H   0  0  0  0  0  0  0  0  0  0  0  0
   -5.0840   19.7936  -33.1476 H   0  0  0  0  0  0  0  0  0  0  0  0
   -5.3369   22.1720  -32.4299 H   0  0  0  0  0  0  0  0  0  0  0  0
  1  2  1  0
  2  3  1  0
  3  4  1  0
  4  5  1  0
  3  6  1  0
  6  7  1  0
  7  8  2  0
  7  9  1  0
  9 10  1  0
 10 11  1  0
 11 12  1  0
 12 13  1  0
 13 14  2  0
 14 15  1  0
 15 16  2  0
 16 17  1  0
 16 18  1  0
 18 19  2  0
 19 13  1  0
  1 20  1  0
  1 21  1  0
  1 22  1  0
  2 23  1  0
  2 24  1  0
  4 25  1  0
  4 26  1  0
  5 27  1  0
  5 28  1  0
  5 29  1  0
  6 30  1  0
  6 31  1  0
 10 32  1  0
 10 33  1  0
 11 34  1  0
 11 35  1  0
 14 36  1  0
 15 37  1  0
 18 38  1  0
 19 39  1  0
M  CHG  1   9  -1
M  END
>  <UniqueID>  (23) 
23

>  <SMILES>  (23) 
CCN(CC)CC(=O)[N-]CCSc1ccc(Br)cc1

>  <Energy>  (23) 
28.023131052389825

>  <Genealogy>  (23) 
CCN(CC)CC(=O)[N-]CCSc1ccc(Br)cc1 (protonated)
CCN(CC)CC(=O)[N-]CCSc1ccc(Br)cc1 (3D coordinates assigned)
CCN(CC)CC(=O)[N-]CCSc1ccc(Br)cc1 (optimized conformer: 28.023131052389825 kcal/mol)

>  <smiles>  (23) 
CCN(CC)CC(=O)NCCSc1ccc(Br)cc1

>  <score_type>  (23) 
oracle

>  <origin>  (23) 
adg

>  <m_score__min__energy>  (23) 
-9.0600000000000005

>  <m_primary>  (23) 
energy

$$$$
