0:0
     RDKit          3D

 45 47  0  0  0  0  0  0  0  0999 V2000
   -5.5410   23.9210  -29.3510 O   0  0  0  0  0  0  0  0  0  0  0  0
   -5.1840   24.1840  -30.5320 C   0  0  0  0  0  0  0  0  0  0  0  0
   -6.2170   24.5850  -31.5490 C   0  0  0  0  0  0  0  0  0  0  0  0
   -6.9660   23.4360  -32.1010 N   0  0  0  0  0  0  0  0  0  0  0  0
   -8.3760   23.4000  -31.6550 C   0  0  0  0  0  0  0  0  0  0  0  0
   -9.0000   22.0340  -31.9560 C   0  0  0  0  0  0  0  0  0  0  0  0
   -8.3270   20.9620  -31.1920 N   0  0  0  0  0  0  0  0  0  0  0  0
   -8.5870   19.4180  -31.9700 S   0  0  0  0  0  0  0  0  0  0  0  0
   -9.1470   18.4340  -30.9790 O   0  0  0  0  0  0  0  0  0  0  0  0
   -9.5680   19.5790  -33.0970 O   0  0  0  0  0  0  0  0  0  0  0  0
   -7.0670   18.8170  -32.6270 C   0  0  0  0  0  0  0  0  0  0  0  0
   -6.4960   19.4030  -33.7660 C   0  0  0  0  0  0  0  0  0  0  0  0
   -5.2990   18.9030  -34.2890 C   0  0  0  0  0  0  0  0  0  0  0  0
   -4.6680   17.8130  -33.6770 C   0  0  0  0  0  0  0  0  0  0  0  0
   -3.0340   17.1310  -34.3910 Br  0  0  0  0  0  0  0  0  0  0  0  0
   -5.2390   17.2240  -32.5440 C   0  0  0  0  0  0  0  0  0  0  0  0
   -6.4350   17.7230  -32.0210 C   0  0  0  0  0  0  0  0  0  0  0  0
   -6.8840   21.2030  -30.9540 C   0  0  0  0  0  0  0  0  0  0  0  0
   -6.2540   22.1390  -32.0000 C   0  0  0  0  0  0  0  0  0  0  0  0
   -3.7990   24.1510  -30.9010 N   0  0  0  0  0  0  0  0  0  0  0  0
   -2.9150   23.0240  -30.8040 C   0  0  0  0  0  0  0  0  0  0  0  0
   -2.9710   21.9600  -31.7250 C   0  0  0  0  0  0  0  0  0  0  0  0
   -2.0770   20.8910  -31.6220 C   0  0  0  0  0  0  0  0  0  0  0  0
   -1.1110   20.8790  -30.6140 C   0  0  0  0  0  0  0  0  0  0  0  0
   -1.0310   21.9420  -29.7110 C   0  0  0  0  0  0  0  0  0  0  0  0
   -1.9240   23.0150  -29.8070 C   0  0  0  0  0  0  0  0  0  0  0  0
   -1.7760   24.4580  -28.5550 Br  0  0  0  0  0  0  0  0  0  0  0  0
   -6.9314   25.2708  -31.0703 H   0  0  0  0  0  0  0  0  0  0  0  0
   -5.6850   25.0614  -32.3857 H   0  0  0  0  0  0  0  0  0  0  0  0
   -8.4177   23.5860  -30.5717 H   0  0  0  0  0  0  0  0  0  0  0  0
   -8.9395   24.1750  -32.1952 H   0  0  0  0  0  0  0  0  0  0  0  0
  -10.0649   22.0570  -31.6812 H   0  0  0  0  0  0  0  0  0  0  0  0
   -8.8825   21.8249  -33.0295 H   0  0  0  0  0  0  0  0  0  0  0  0
   -6.9909   20.2582  -34.2494 H   0  0  0  0  0  0  0  0  0  0  0  0
   -4.8531   19.3663  -35.1815 H   0  0  0  0  0  0  0  0  0  0  0  0
   -4.7456   16.3662  -32.0637 H   0  0  0  0  0  0  0  0  0  0  0  0
   -6.8816   17.2556  -31.1310 H   0  0  0  0  0  0  0  0  0  0  0  0
   -6.7631   21.6562  -29.9590 H   0  0  0  0  0  0  0  0  0  0  0  0
   -6.3705   20.2329  -31.0265 H   0  0  0  0  0  0  0  0  0  0  0  0
   -5.2084   22.3312  -31.7176 H   0  0  0  0  0  0  0  0  0  0  0  0
   -6.3227   21.6420  -32.9789 H   0  0  0  0  0  0  0  0  0  0  0  0
   -3.7217   21.9705  -32.5289 H   0  0  0  0  0  0  0  0  0  0  0  0
   -2.1345   20.0569  -32.3368 H   0  0  0  0  0  0  0  0  0  0  0  0
   -0.4131   20.0328  -30.5309 H   0  0  0  0  0  0  0  0  0  0  0  0
   -0.2640   21.9355  -28.9225 H   0  0  0  0  0  0  0  0  0  0  0  0
  1  2  2  0
  2  3  1  0
  3  4  1  0
  4  5  1  0
  5  6  1  0
  6  7  1  0
  7  8  1  0
  8  9  2  0
  8 10  2  0
  8 11  1  0
 11 12  2  0
 12 13  1  0
 13 14  2  0
 14 15  1  0
 14 16  1  0
 16 17  2  0
  7 18  1  0
 18 19  1  0
  2 20  1  0
 20 21  1  0
 21 22  2  0
 22 23  1  0
 23 24  2  0
 24 25  1  0
 25 26  2  0
 26 27  1  0
 19  4  1  0
 26 21  1  0
 17 11  1  0
  3 28  1  0
  3 29  1  0
  5 30  1  0
  5 31  1  0
  6 32  1  0
  6 33  1  0
 12 34  1  0
 13 35  1  0
 16 36  1  0
 17 37  1  0
 18 38  1  0
 18 39  1  0
 19 40  1  0
 19 41  1  0
 22 42  1  0
 23 43  1  0
 24 44  1  0
 25 45  1  0
M  CHG  1  20  -1
M  END
>  <UniqueID>  (1) 
1

>  <SMILES>  (1) 
O=C(CN1CCN(S(=O)(=O)c2ccc(Br)cc2)CC1)[N-]c1ccccc1Br

>  <Energy>  (1) 
61.59147839381294

>  <Genealogy>  (1) 
O=C(CN1CCN(S(=O)(=O)c2ccc(Br)cc2)CC1)[N-]c1ccccc1Br (protonated)
O=C(CN1CCN(S(=O)(=O)c2ccc(Br)cc2)CC1)[N-]c1ccccc1Br (3D coordinates assigned)
O=C(CN1CCN(S(=O)(=O)c2ccc(Br)cc2)CC1)[N-]c1ccccc1Br (nonaromatic ring conformer: 61.59147839381294 kcal/mol)

>  <smiles>  (1) 
O=C(CN1CCN(S(=O)(=O)c2ccc(Br)cc2)CC1)Nc1ccccc1Br

>  <score_type>  (1) 
oracle

>  <origin>  (1) 
adg

>  <m_score__min__energy>  (1) 
-11.6

>  <m_primary>  (1) 
energy

$$$$
1:0
     RDKit          3D

 40 41  0  0  0  0  0  0  0  0999 V2000
   -8.8760   21.1080  -31.9440 C   0  0  0  0  0  0  0  0  0  0  0  0
   -7.4010   21.2150  -32.3240 C   0  0  0  0  0  0  0  0  0  0  0  0
   -6.9070   22.6020  -32.1770 N   0  0  0  0  0  0  0  0  0  0  0  0
   -5.4320   22.6800  -32.2670 C   0  0  0  0  0  0  0  0  0  0  0  0
   -4.8620   21.3370  -32.7160 C   0  0  0  0  0  0  0  0  0  0  0  0
   -7.4430   23.3130  -30.9890 C   0  0  0  0  0  0  0  0  0  0  0  0
   -6.6120   24.5410  -30.5440 C   0  0  0  0  0  0  0  0  0  0  0  0
   -5.7030   24.2190  -29.4420 N   0  0  0  0  0  0  0  0  0  0  0  0
   -4.3030   24.5270  -29.5180 C   0  0  0  0  0  0  0  0  0  0  0  0
   -3.8600   25.1840  -30.4990 O   0  0  0  0  0  0  0  0  0  0  0  0
   -3.3650   24.0910  -28.4650 C   0  0  0  0  0  0  0  0  0  0  0  0
   -2.8540   22.8020  -28.2990 C   0  0  0  0  0  0  0  0  0  0  0  0
   -2.0200   22.8860  -27.2060 C   0  0  0  0  0  0  0  0  0  0  0  0
   -1.2420   21.9100  -26.5890 C   0  0  0  0  0  0  0  0  0  0  0  0
   -0.4750   22.2920  -25.4740 C   0  0  0  0  0  0  0  0  0  0  0  0
   -0.5020   23.6260  -25.0080 C   0  0  0  0  0  0  0  0  0  0  0  0
   -1.2980   24.5910  -25.6540 C   0  0  0  0  0  0  0  0  0  0  0  0
   -1.3310   26.3960  -25.0230 Br  0  0  0  0  0  0  0  0  0  0  0  0
   -2.0500   24.1820  -26.7590 C   0  0  0  0  0  0  0  0  0  0  0  0
   -2.8680   24.9280  -27.5220 N   0  0  0  0  0  0  0  0  0  0  0  0
   -8.9728   21.1010  -30.8483 H   0  0  0  0  0  0  0  0  0  0  0  0
   -9.4239   21.9688  -32.3550 H   0  0  0  0  0  0  0  0  0  0  0  0
   -9.2939   20.1772  -32.3550 H   0  0  0  0  0  0  0  0  0  0  0  0
   -6.8136   20.5542  -31.6696 H   0  0  0  0  0  0  0  0  0  0  0  0
   -7.2914   20.9173  -33.3773 H   0  0  0  0  0  0  0  0  0  0  0  0
   -5.1525   23.4556  -32.9952 H   0  0  0  0  0  0  0  0  0  0  0  0
   -5.0237   22.9315  -31.2770 H   0  0  0  0  0  0  0  0  0  0  0  0
   -4.6059   20.7336  -31.8326 H   0  0  0  0  0  0  0  0  0  0  0  0
   -5.6114   20.8039  -33.3195 H   0  0  0  0  0  0  0  0  0  0  0  0
   -3.9579   21.5057  -33.3195 H   0  0  0  0  0  0  0  0  0  0  0  0
   -8.4616   23.6550  -31.2244 H   0  0  0  0  0  0  0  0  0  0  0  0
   -7.4107   22.5959  -30.1555 H   0  0  0  0  0  0  0  0  0  0  0  0
   -6.0201   24.8980  -31.3997 H   0  0  0  0  0  0  0  0  0  0  0  0
   -7.3108   25.3145  -30.1926 H   0  0  0  0  0  0  0  0  0  0  0  0
   -6.0780   23.7670  -28.5800 H   0  0  0  0  0  0  0  0  0  0  0  0
   -3.0706   21.9125  -28.9088 H   0  0  0  0  0  0  0  0  0  0  0  0
   -1.2278   20.8750  -26.9612 H   0  0  0  0  0  0  0  0  0  0  0  0
    0.1507   21.5470  -24.9607 H   0  0  0  0  0  0  0  0  0  0  0  0
    0.1028   23.9122  -24.1349 H   0  0  0  0  0  0  0  0  0  0  0  0
   -3.0760   25.9460  -27.4120 H   0  0  0  0  0  0  0  0  0  0  0  0
  1  2  1  0
  2  3  1  0
  3  4  1  0
  4  5  1  0
  3  6  1  0
  6  7  1  0
  7  8  1  0
  8  9  1  0
  9 10  2  0
  9 11  1  0
 11 12  2  0
 12 13  1  0
 13 14  2  0
 14 15  1  0
 15 16  2  0
 16 17  1  0
 17 18  1  0
 17 19  2  0
 19 20  1  0
 20 11  1  0
 19 13  1  0
  1 21  1  0
  1 22  1  0
  1 23  1  0
  2 24  1  0
  2 25  1  0
  4 26  1  0
  4 27  1  0
  5 28  1  0
  5 29  1  0
  5 30  1  0
  6 31  1  0
  6 32  1  0
  7 33  1  0
  7 34  1  0
  8 35  1  0
 12 36  1  0
 14 37  1  0
 15 38  1  0
 16 39  1  0
 20 40  1  0
M  END
>  <UniqueID>  (2) 
2

>  <SMILES>  (2) 
CCN(CC)CCNC(=O)c1cc2cccc(Br)c2[nH]1

>  <Energy>  (2) 
71.44587891516179

>  <Genealogy>  (2) 
CCN(CC)CCNC(=O)c1cc2cccc(Br)c2[nH]1 (3D coordinates assigned)
CCN(CC)CCNC(=O)c1cc2cccc(Br)c2[nH]1 (optimized conformer: 71.44587891516179 kcal/mol)

>  <smiles>  (2) 
CCN(CC)CCNC(=O)c1cc2cccc(Br)c2[nH]1

>  <score_type>  (2) 
oracle

>  <origin>  (2) 
adg

>  <m_score__min__energy>  (2) 
-7.4199999999999999

>  <m_primary>  (2) 
energy

$$$$
2:0
     RDKit          3D

 40 42  0  0  0  0  0  0  0  0999 V2000
   -4.5730   17.6260  -32.1840 O   0  0  0  0  0  0  0  0  0  0  0  0
   -4.9490   18.8180  -32.3450 C   0  0  0  0  0  0  0  0  0  0  0  0
   -6.3910   19.1430  -32.2410 C   0  0  0  0  0  0  0  0  0  0  0  0
   -6.7780   20.3610  -31.6540 C   0  0  0  0  0  0  0  0  0  0  0  0
   -8.1290   20.6890  -31.5220 C   0  0  0  0  0  0  0  0  0  0  0  0
   -9.1100   19.8030  -31.9710 C   0  0  0  0  0  0  0  0  0  0  0  0
   -8.7430   18.5900  -32.5550 C   0  0  0  0  0  0  0  0  0  0  0  0
   -7.3910   18.2510  -32.6930 C   0  0  0  0  0  0  0  0  0  0  0  0
   -6.9960   16.7290  -33.4860 Cl  0  0  0  0  0  0  0  0  0  0  0  0
   -3.9650   19.8480  -32.5650 N   0  0  0  0  0  0  0  0  0  0  0  0
   -2.6020   19.6580  -32.0580 C   0  0  0  0  0  0  0  0  0  0  0  0
   -1.7910   20.9600  -32.1740 C   0  0  0  0  0  0  0  0  0  0  0  0
   -2.6200   22.1540  -31.8910 N   0  0  0  0  0  0  0  0  0  0  0  0
   -3.0740   22.2310  -30.4840 C   0  0  0  0  0  0  0  0  0  0  0  0
   -4.2170   23.1960  -30.3340 C   0  0  0  0  0  0  0  0  0  0  0  0
   -5.4770   22.7590  -29.8970 C   0  0  0  0  0  0  0  0  0  0  0  0
   -6.5100   23.6870  -29.7510 C   0  0  0  0  0  0  0  0  0  0  0  0
   -6.2800   25.0330  -30.0370 C   0  0  0  0  0  0  0  0  0  0  0  0
   -5.0140   25.4330  -30.4670 C   0  0  0  0  0  0  0  0  0  0  0  0
   -4.0180   24.5160  -30.6030 N   0  0  0  0  0  0  0  0  0  0  0  0
   -3.7480   22.2990  -32.8490 C   0  0  0  0  0  0  0  0  0  0  0  0
   -4.2240   20.9700  -33.4720 C   0  0  0  0  0  0  0  0  0  0  0  0
   -6.0095   21.0617  -31.2956 H   0  0  0  0  0  0  0  0  0  0  0  0
   -8.4203   21.6458  -31.0641 H   0  0  0  0  0  0  0  0  0  0  0  0
  -10.1739   20.0615  -31.8643 H   0  0  0  0  0  0  0  0  0  0  0  0
   -9.5198   17.8962  -32.9089 H   0  0  0  0  0  0  0  0  0  0  0  0
   -2.6489   19.3550  -31.0016 H   0  0  0  0  0  0  0  0  0  0  0  0
   -2.1076   18.8794  -32.6574 H   0  0  0  0  0  0  0  0  0  0  0  0
   -0.9592   20.9261  -31.4550 H   0  0  0  0  0  0  0  0  0  0  0  0
   -1.4198   21.0396  -33.2064 H   0  0  0  0  0  0  0  0  0  0  0  0
   -3.4017   21.2330  -30.1575 H   0  0  0  0  0  0  0  0  0  0  0  0
   -2.2356   22.5851  -29.8662 H   0  0  0  0  0  0  0  0  0  0  0  0
   -5.6491   21.6961  -29.6718 H   0  0  0  0  0  0  0  0  0  0  0  0
   -7.5030   23.3576  -29.4112 H   0  0  0  0  0  0  0  0  0  0  0  0
   -7.0879   25.7711  -29.9248 H   0  0  0  0  0  0  0  0  0  0  0  0
   -4.8210   26.4914  -30.6964 H   0  0  0  0  0  0  0  0  0  0  0  0
   -4.5964   22.7537  -32.3166 H   0  0  0  0  0  0  0  0  0  0  0  0
   -3.3808   22.9226  -33.6774 H   0  0  0  0  0  0  0  0  0  0  0  0
   -5.3042   21.0312  -33.6707 H   0  0  0  0  0  0  0  0  0  0  0  0
   -3.6716   20.8015  -34.4082 H   0  0  0  0  0  0  0  0  0  0  0  0
  1  2  2  0
  2  3  1  0
  3  4  2  0
  4  5  1  0
  5  6  2  0
  6  7  1  0
  7  8  2  0
  8  9  1  0
  2 10  1  0
 10 11  1  0
 11 12  1  0
 12 13  1  0
 13 14  1  0
 14 15  1  0
 15 16  2  0
 16 17  1  0
 17 18  2  0
 18 19  1  0
 19 20  2  0
 13 21  1  0
 21 22  1  0
  8  3  1  0
 22 10  1  0
 20 15  1  0
  4 23  1  0
  5 24  1  0
  6 25  1  0
  7 26  1  0
 11 27  1  0
 11 28  1  0
 12 29  1  0
 12 30  1  0
 14 31  1  0
 14 32  1  0
 16 33  1  0
 17 34  1  0
 18 35  1  0
 19 36  1  0
 21 37  1  0
 21 38  1  0
 22 39  1  0
 22 40  1  0
M  END
>  <UniqueID>  (3) 
3

>  <SMILES>  (3) 
O=C(c1ccccc1Cl)N1CCN(Cc2ccccn2)CC1

>  <Energy>  (3) 
57.01836483888063

>  <Genealogy>  (3) 
O=C(c1ccccc1Cl)N1CCN(Cc2ccccn2)CC1 (3D coordinates assigned)
O=C(c1ccccc1Cl)N1CCN(Cc2ccccn2)CC1 (nonaromatic ring conformer: 57.01836483888063 kcal/mol)

>  <smiles>  (3) 
O=C(c1ccccc1Cl)N1CCN(Cc2ccccn2)CC1

>  <score_type>  (3) 
oracle

>  <origin>  (3) 
adg

>  <m_score__min__energy>  (3) 
-7.6299999999999999

>  <m_primary>  (3) 
energy

$$$$
3:0
     RDKit          3D

 34 36  0  0  0  0  0  0  0  0999 V2000
   -4.3550   19.1750  -33.2770 C   0  0  0  0  0  0  0  0  0  0  0  0
   -5.6200   19.8620  -32.8400 C   0  0  0  0  0  0  0  0  0  0  0  0
   -5.6700   21.2630  -32.7800 C   0  0  0  0  0  0  0  0  0  0  0  0
   -6.8390   21.9270  -32.3690 C   0  0  0  0  0  0  0  0  0  0  0  0
   -6.8620   23.4350  -32.3590 C   0  0  0  0  0  0  0  0  0  0  0  0
   -6.0300   23.9380  -31.2720 N   0  0  0  0  0  0  0  0  0  0  0  0
   -6.4600   24.6510  -30.2130 C   0  0  0  0  0  0  0  0  0  0  0  0
   -5.3870   24.8770  -29.3770 C   0  0  0  0  0  0  0  0  0  0  0  0
   -4.3180   24.2520  -30.0030 C   0  0  0  0  0  0  0  0  0  0  0  0
   -2.9230   24.1750  -29.5270 C   0  0  0  0  0  0  0  0  0  0  0  0
   -2.1630   22.9970  -29.6470 C   0  0  0  0  0  0  0  0  0  0  0  0
   -0.8470   22.9810  -29.1800 C   0  0  0  0  0  0  0  0  0  0  0  0
   -0.2980   24.1260  -28.6020 C   0  0  0  0  0  0  0  0  0  0  0  0
   -1.0800   25.2770  -28.4970 C   0  0  0  0  0  0  0  0  0  0  0  0
   -2.3600   25.2760  -28.9570 N   0  0  0  0  0  0  0  0  0  0  0  0
   -4.7370   23.6830  -31.1510 N   0  0  0  0  0  0  0  0  0  0  0  0
   -7.9830   21.1680  -32.0440 C   0  0  0  0  0  0  0  0  0  0  0  0
   -9.4980   21.9250  -31.5620 Cl  0  0  0  0  0  0  0  0  0  0  0  0
   -7.9320   19.7710  -32.1040 C   0  0  0  0  0  0  0  0  0  0  0  0
   -6.7620   19.1150  -32.4960 C   0  0  0  0  0  0  0  0  0  0  0  0
   -6.7640   17.3550  -32.5540 Cl  0  0  0  0  0  0  0  0  0  0  0  0
   -3.7819   18.8638  -32.3911 H   0  0  0  0  0  0  0  0  0  0  0  0
   -4.6077   18.2902  -33.8797 H   0  0  0  0  0  0  0  0  0  0  0  0
   -3.7504   19.8687  -33.8797 H   0  0  0  0  0  0  0  0  0  0  0  0
   -4.7822   21.8499  -33.0584 H   0  0  0  0  0  0  0  0  0  0  0  0
   -6.4762   23.8118  -33.3177 H   0  0  0  0  0  0  0  0  0  0  0  0
   -7.8962   23.7800  -32.2123 H   0  0  0  0  0  0  0  0  0  0  0  0
   -7.4913   24.9944  -30.0440 H   0  0  0  0  0  0  0  0  0  0  0  0
   -5.3800   25.4296  -28.4259 H   0  0  0  0  0  0  0  0  0  0  0  0
   -2.6011   22.0975  -30.1042 H   0  0  0  0  0  0  0  0  0  0  0  0
   -0.2433   22.0657  -29.2679 H   0  0  0  0  0  0  0  0  0  0  0  0
    0.7385   24.1215  -28.2336 H   0  0  0  0  0  0  0  0  0  0  0  0
   -0.6607   26.1863  -28.0416 H   0  0  0  0  0  0  0  0  0  0  0  0
   -8.8229   19.1825  -31.8396 H   0  0  0  0  0  0  0  0  0  0  0  0
  1  2  1  0
  2  3  2  0
  3  4  1  0
  4  5  1  0
  5  6  1  0
  6  7  1  0
  7  8  2  0
  8  9  1  0
  9 10  1  0
 10 11  2  0
 11 12  1  0
 12 13  2  0
 13 14  1  0
 14 15  2  0
  9 16  2  0
  4 17  2  0
 17 18  1  0
 17 19  1  0
 19 20  2  0
 20 21  1  0
 20  2  1  0
 16  6  1  0
 15 10  1  0
  1 22  1  0
  1 23  1  0
  1 24  1  0
  3 25  1  0
  5 26  1  0
  5 27  1  0
  7 28  1  0
  8 29  1  0
 11 30  1  0
 12 31  1  0
 13 32  1  0
 14 33  1  0
 19 34  1  0
M  END
>  <UniqueID>  (4) 
4

>  <SMILES>  (4) 
Cc1cc(Cn2ccc(-c3ccccn3)n2)c(Cl)cc1Cl

>  <Energy>  (4) 
67.07619757522018

>  <Genealogy>  (4) 
Cc1cc(Cn2ccc(-c3ccccn3)n2)c(Cl)cc1Cl (3D coordinates assigned)
Cc1cc(Cn2ccc(-c3ccccn3)n2)c(Cl)cc1Cl (optimized conformer: 67.07619757522018 kcal/mol)

>  <smiles>  (4) 
Cc1cc(Cn2ccc(-c3ccccn3)n2)c(Cl)cc1Cl

>  <score_type>  (4) 
oracle

>  <origin>  (4) 
adg

>  <m_score__min__energy>  (4) 
-8.6899999999999995

>  <m_primary>  (4) 
energy

$$$$
4:0
     RDKit          3D

 46 49  0  0  0  0  0  0  0  0999 V2000
    2.2090   24.5800  -24.4600 C   0  0  0  0  0  0  0  0  0  0  0  0
    2.0360   23.8210  -25.6530 O   0  0  0  0  0  0  0  0  0  0  0  0
    0.8620   23.8090  -26.4200 C   0  0  0  0  0  0  0  0  0  0  0  0
    0.6050   24.7620  -27.4240 C   0  0  0  0  0  0  0  0  0  0  0  0
   -0.5820   24.7080  -28.1600 C   0  0  0  0  0  0  0  0  0  0  0  0
   -1.5370   23.7120  -27.8970 C   0  0  0  0  0  0  0  0  0  0  0  0
   -2.7830   23.6330  -28.6900 C   0  0  0  0  0  0  0  0  0  0  0  0
   -4.0000   24.1710  -28.2740 C   0  0  0  0  0  0  0  0  0  0  0  0
   -4.8890   23.8240  -29.2640 C   0  0  0  0  0  0  0  0  0  0  0  0
   -6.2130   24.0840  -29.3450 N   0  0  0  0  0  0  0  0  0  0  0  0
   -6.9050   23.6250  -30.4290 C   0  0  0  0  0  0  0  0  0  0  0  0
   -6.2730   22.9010  -31.4180 N   0  0  0  0  0  0  0  0  0  0  0  0
   -7.0530   22.4480  -32.5810 C   0  0  0  0  0  0  0  0  0  0  0  0
   -7.3870   20.9820  -32.4500 C   0  0  0  0  0  0  0  0  0  0  0  0
   -6.5690   20.0250  -33.0760 C   0  0  0  0  0  0  0  0  0  0  0  0
   -6.8470   18.6630  -32.9440 C   0  0  0  0  0  0  0  0  0  0  0  0
   -7.9400   18.2410  -32.1830 C   0  0  0  0  0  0  0  0  0  0  0  0
   -8.7580   19.1830  -31.5540 C   0  0  0  0  0  0  0  0  0  0  0  0
   -8.4860   20.5500  -31.6820 C   0  0  0  0  0  0  0  0  0  0  0  0
   -9.2970   21.4430  -31.0640 F   0  0  0  0  0  0  0  0  0  0  0  0
   -4.9230   22.6390  -31.3290 C   0  0  0  0  0  0  0  0  0  0  0  0
   -4.3340   21.9690  -32.2190 O   0  0  0  0  0  0  0  0  0  0  0  0
   -4.2230   23.1240  -30.2210 C   0  0  0  0  0  0  0  0  0  0  0  0
   -2.9150   23.0100  -29.8970 N   0  0  0  0  0  0  0  0  0  0  0  0
   -1.8610   22.3870  -30.7010 C   0  0  0  0  0  0  0  0  0  0  0  0
   -1.2700   22.7520  -26.9090 C   0  0  0  0  0  0  0  0  0  0  0  0
   -0.0830   22.8070  -26.1720 C   0  0  0  0  0  0  0  0  0  0  0  0
    2.0605   23.9285  -23.5862 H   0  0  0  0  0  0  0  0  0  0  0  0
    3.2257   24.9992  -24.4363 H   0  0  0  0  0  0  0  0  0  0  0  0
    1.4744   25.3984  -24.4363 H   0  0  0  0  0  0  0  0  0  0  0  0
    1.3416   25.5525  -27.6301 H   0  0  0  0  0  0  0  0  0  0  0  0
   -0.7695   25.4500  -28.9501 H   0  0  0  0  0  0  0  0  0  0  0  0
   -4.2037   24.7451  -27.3581 H   0  0  0  0  0  0  0  0  0  0  0  0
   -6.7010   24.6250  -28.5960 H   0  0  0  0  0  0  0  0  0  0  0  0
   -7.9813   23.8356  -30.5145 H   0  0  0  0  0  0  0  0  0  0  0  0
   -7.9854   23.0285  -32.6408 H   0  0  0  0  0  0  0  0  0  0  0  0
   -6.4558   22.5985  -33.4925 H   0  0  0  0  0  0  0  0  0  0  0  0
   -5.7048   20.3512  -33.6733 H   0  0  0  0  0  0  0  0  0  0  0  0
   -6.2042   17.9209  -33.4401 H   0  0  0  0  0  0  0  0  0  0  0  0
   -8.1565   17.1675  -32.0791 H   0  0  0  0  0  0  0  0  0  0  0  0
   -9.6188   18.8491  -30.9561 H   0  0  0  0  0  0  0  0  0  0  0  0
   -1.1071   21.9414  -30.0354 H   0  0  0  0  0  0  0  0  0  0  0  0
   -2.2992   21.6027  -31.3357 H   0  0  0  0  0  0  0  0  0  0  0  0
   -1.3852   23.1491  -31.3357 H   0  0  0  0  0  0  0  0  0  0  0  0
   -1.9987   21.9516  -26.7132 H   0  0  0  0  0  0  0  0  0  0  0  0
    0.1096   22.0567  -25.3910 H   0  0  0  0  0  0  0  0  0  0  0  0
  1  2  1  0
  2  3  1  0
  3  4  2  0
  4  5  1  0
  5  6  2  0
  6  7  1  0
  7  8  2  0
  8  9  1  0
  9 10  1  0
 10 11  2  0
 11 12  1  0
 12 13  1  0
 13 14  1  0
 14 15  2  0
 15 16  1  0
 16 17  2  0
 17 18  1  0
 18 19  2  0
 19 20  1  0
 12 21  1  0
 21 22  2  0
 21 23  1  0
 23 24  1  0
 24 25  1  0
  6 26  1  0
 26 27  2  0
 27  3  1  0
 24  7  1  0
 23  9  2  0
 19 14  1  0
  1 28  1  0
  1 29  1  0
  1 30  1  0
  4 31  1  0
  5 32  1  0
  8 33  1  0
 10 34  1  0
 11 35  1  0
 13 36  1  0
 13 37  1  0
 15 38  1  0
 16 39  1  0
 17 40  1  0
 18 41  1  0
 25 42  1  0
 25 43  1  0
 25 44  1  0
 26 45  1  0
 27 46  1  0
M  CHG  1  10   1
M  END
>  <UniqueID>  (5) 
5

>  <SMILES>  (5) 
COc1ccc(-c2cc3[nH+]cn(Cc4ccccc4F)c(=O)c3n2C)cc1

>  <Energy>  (5) 
93.76907258656126

>  <Genealogy>  (5) 
COc1ccc(-c2cc3[nH+]cn(Cc4ccccc4F)c(=O)c3n2C)cc1 (protonated)
COc1ccc(-c2cc3[nH+]cn(Cc4ccccc4F)c(=O)c3n2C)cc1 (3D coordinates assigned)
COc1ccc(-c2cc3[nH+]cn(Cc4ccccc4F)c(=O)c3n2C)cc1 (optimized conformer: 93.76907258656126 kcal/mol)

>  <smiles>  (5) 
COc1ccc(-c2cc3ncn(Cc4ccccc4F)c(=O)c3n2C)cc1

>  <score_type>  (5) 
oracle

>  <origin>  (5) 
adg

>  <m_score__min__energy>  (5) 
-7.2699999999999996

>  <m_primary>  (5) 
energy

$$$$
5:0
     RDKit          3D

 33 35  0  0  0  0  0  0  0  0999 V2000
   -9.3004   22.2273  -32.7167 H   0  0  0  0  0  0  0  0  0  0  0  0
   -8.6570   21.7420  -31.9680 C   0  0  0  0  0  0  0  0  0  0  0  0
   -8.3240   22.4110  -30.8570 C   0  0  0  0  0  0  0  0  0  0  0  0
   -9.0210   22.3811  -30.0066 H   0  0  0  0  0  0  0  0  0  0  0  0
   -7.0710   23.1900  -30.7050 C   0  0  0  0  0  0  0  0  0  0  0  0
   -7.0380   24.4660  -30.1050 C   0  0  0  0  0  0  0  0  0  0  0  0
   -7.9662   24.9140  -29.7207 H   0  0  0  0  0  0  0  0  0  0  0  0
   -5.8310   25.1650  -29.9960 C   0  0  0  0  0  0  0  0  0  0  0  0
   -5.8127   26.1564  -29.5198 H   0  0  0  0  0  0  0  0  0  0  0  0
   -4.6490   24.6080  -30.4900 C   0  0  0  0  0  0  0  0  0  0  0  0
   -3.4830   25.2910  -30.3830 F   0  0  0  0  0  0  0  0  0  0  0  0
   -4.6730   23.3510  -31.1000 C   0  0  0  0  0  0  0  0  0  0  0  0
   -3.5270   22.8110  -31.5860 F   0  0  0  0  0  0  0  0  0  0  0  0
   -5.8760   22.6480  -31.2120 C   0  0  0  0  0  0  0  0  0  0  0  0
   -5.8883   21.6626  -31.7007 H   0  0  0  0  0  0  0  0  0  0  0  0
   -8.1800   20.3710  -32.2080 C   0  0  0  0  0  0  0  0  0  0  0  0
   -7.0890   20.0630  -32.8710 O   0  0  0  0  0  0  0  0  0  0  0  0
   -6.9700   18.7540  -32.8960 C   0  0  0  0  0  0  0  0  0  0  0  0
   -5.8310   18.0550  -33.5320 C   0  0  0  0  0  0  0  0  0  0  0  0
   -6.0150   16.7210  -33.9380 C   0  0  0  0  0  0  0  0  0  0  0  0
   -6.9825   16.2270  -33.7650 H   0  0  0  0  0  0  0  0  0  0  0  0
   -4.9800   16.0180  -34.5590 C   0  0  0  0  0  0  0  0  0  0  0  0
   -5.1381   14.9780  -34.8806 H   0  0  0  0  0  0  0  0  0  0  0  0
   -3.7460   16.6330  -34.7720 C   0  0  0  0  0  0  0  0  0  0  0  0
   -2.9356   16.0810  -35.2706 H   0  0  0  0  0  0  0  0  0  0  0  0
   -3.5390   17.9480  -34.3530 C   0  0  0  0  0  0  0  0  0  0  0  0
   -2.5609   18.4248  -34.5141 H   0  0  0  0  0  0  0  0  0  0  0  0
   -4.5690   18.6660  -33.7280 C   0  0  0  0  0  0  0  0  0  0  0  0
   -4.1910   20.2770  -33.1290 Cl  0  0  0  0  0  0  0  0  0  0  0  0
   -8.0240   18.1760  -32.2080 C   0  0  0  0  0  0  0  0  0  0  0  0
   -8.2001   17.1024  -32.0453 H   0  0  0  0  0  0  0  0  0  0  0  0
   -8.8070   19.2220  -31.7690 C   0  0  0  0  0  0  0  0  0  0  0  0
   -9.7391   19.1551  -31.1887 H   0  0  0  0  0  0  0  0  0  0  0  0
  1  2  1  0
  2  3  2  0
  3  4  1  0
  3  5  1  0
  5  6  2  0
  6  7  1  0
  6  8  1  0
  8  9  1  0
  8 10  2  0
 10 11  1  0
 10 12  1  0
 12 13  1  0
 12 14  2  0
 14 15  1  0
  2 16  1  0
 16 17  1  0
 17 18  1  0
 18 19  1  0
 19 20  2  0
 20 21  1  0
 20 22  1  0
 22 23  1  0
 22 24  2  0
 24 25  1  0
 24 26  1  0
 26 27  1  0
 26 28  2  0
 28 29  1  0
 18 30  2  0
 30 31  1  0
 30 32  1  0
 32 33  1  0
 14  5  1  0
 32 16  2  0
 28 19  1  0
M  END
>  <UniqueID>  (6) 
6

>  <SMILES>  (6) 
Fc1ccc(/C=C/c2ccc(-c3ccccc3Cl)o2)cc1F

>  <Energy>  (6) 
68.71801428514064

>  <Genealogy>  (6) 
Fc1ccc(/C=C/c2ccc(-c3ccccc3Cl)o2)cc1F (cis-trans isomerization)
Fc1ccc(/C=C/c2ccc(-c3ccccc3Cl)o2)cc1F (3D coordinates assigned)
Fc1ccc(/C=C/c2ccc(-c3ccccc3Cl)o2)cc1F (optimized conformer: 68.71801428514064 kcal/mol)

>  <smiles>  (6) 
Fc1ccc(C=Cc2ccc(-c3ccccc3Cl)o2)cc1F

>  <score_type>  (6) 
oracle

>  <origin>  (6) 
adg

>  <m_score__min__energy>  (6) 
-8.3599999999999994

>  <m_primary>  (6) 
energy

$$$$
6:0
     RDKit          3D

 40 42  0  0  0  0  0  0  0  0999 V2000
   -9.4970   21.3000  -31.5870 C   0  0  0  0  0  0  0  0  0  0  0  0
   -9.2060   19.9400  -31.8940 O   0  0  0  0  0  0  0  0  0  0  0  0
   -7.9650   19.4830  -32.3580 C   0  0  0  0  0  0  0  0  0  0  0  0
   -7.3230   20.0440  -33.4780 C   0  0  0  0  0  0  0  0  0  0  0  0
   -6.0840   19.5540  -33.9000 C   0  0  0  0  0  0  0  0  0  0  0  0
   -5.4650   18.4950  -33.2140 C   0  0  0  0  0  0  0  0  0  0  0  0
   -4.1660   18.0160  -33.6230 N   0  0  0  0  0  0  0  0  0  0  0  0
   -3.1050   18.5320  -32.7440 C   0  0  0  0  0  0  0  0  0  0  0  0
   -3.2130   20.0220  -32.5560 C   0  0  0  0  0  0  0  0  0  0  0  0
   -4.2320   20.6150  -31.9040 N   0  0  0  0  0  0  0  0  0  0  0  0
   -3.9050   21.9250  -31.9390 C   0  0  0  0  0  0  0  0  0  0  0  0
   -4.7330   22.9810  -31.3380 C   0  0  0  0  0  0  0  0  0  0  0  0
   -6.1270   22.8390  -31.2490 C   0  0  0  0  0  0  0  0  0  0  0  0
   -6.8830   23.8630  -30.6730 C   0  0  0  0  0  0  0  0  0  0  0  0
   -6.2500   25.0110  -30.1950 C   0  0  0  0  0  0  0  0  0  0  0  0
   -4.8620   25.1190  -30.3000 C   0  0  0  0  0  0  0  0  0  0  0  0
   -4.1410   24.1130  -30.8630 N   0  0  0  0  0  0  0  0  0  0  0  0
   -2.7690   22.1510  -32.5630 O   0  0  0  0  0  0  0  0  0  0  0  0
   -2.3110   20.9890  -32.9590 C   0  0  0  0  0  0  0  0  0  0  0  0
   -1.0310   20.8000  -33.7130 C   0  0  0  0  0  0  0  0  0  0  0  0
   -0.0040   20.5160  -32.8330 F   0  0  0  0  0  0  0  0  0  0  0  0
   -1.1690   19.7590  -34.6130 F   0  0  0  0  0  0  0  0  0  0  0  0
   -0.7210   21.9550  -34.4070 F   0  0  0  0  0  0  0  0  0  0  0  0
   -6.1070   17.9390  -32.0940 C   0  0  0  0  0  0  0  0  0  0  0  0
   -7.3470   18.4290  -31.6740 C   0  0  0  0  0  0  0  0  0  0  0  0
   -9.5251   21.4315  -30.4953 H   0  0  0  0  0  0  0  0  0  0  0  0
   -8.7170   21.9473  -32.0143 H   0  0  0  0  0  0  0  0  0  0  0  0
  -10.4736   21.5715  -32.0143 H   0  0  0  0  0  0  0  0  0  0  0  0
   -7.7988   20.8721  -34.0238 H   0  0  0  0  0  0  0  0  0  0  0  0
   -5.5897   20.0004  -34.7754 H   0  0  0  0  0  0  0  0  0  0  0  0
   -4.1570   16.9700  -33.5810 H   0  0  0  0  0  0  0  0  0  0  0  0
   -3.9740   18.2830  -34.6170 H   0  0  0  0  0  0  0  0  0  0  0  0
   -3.1856   18.0421  -31.7624 H   0  0  0  0  0  0  0  0  0  0  0  0
   -2.1345   18.3152  -33.2143 H   0  0  0  0  0  0  0  0  0  0  0  0
   -6.6186   21.9312  -31.6287 H   0  0  0  0  0  0  0  0  0  0  0  0
   -7.9759   23.7644  -30.5964 H   0  0  0  0  0  0  0  0  0  0  0  0
   -6.8381   25.8219  -29.7405 H   0  0  0  0  0  0  0  0  0  0  0  0
   -4.3512   26.0189  -29.9269 H   0  0  0  0  0  0  0  0  0  0  0  0
   -5.6308   17.1134  -31.5448 H   0  0  0  0  0  0  0  0  0  0  0  0
   -7.8415   17.9827  -30.7986 H   0  0  0  0  0  0  0  0  0  0  0  0
  1  2  1  0
  2  3  1  0
  3  4  2  0
  4  5  1  0
  5  6  2  0
  6  7  1  0
  7  8  1  0
  8  9  1  0
  9 10  1  0
 10 11  2  0
 11 12  1  0
 12 13  2  0
 13 14  1  0
 14 15  2  0
 15 16  1  0
 16 17  2  0
 11 18  1  0
 18 19  1  0
 19 20  1  0
 20 21  1  0
 20 22  1  0
 20 23  1  0
  6 24  1  0
 24 25  2  0
 25  3  1  0
 19  9  2  0
 17 12  1  0
  1 26  1  0
  1 27  1  0
  1 28  1  0
  4 29  1  0
  5 30  1  0
  7 31  1  0
  7 32  1  0
  8 33  1  0
  8 34  1  0
 13 35  1  0
 14 36  1  0
 15 37  1  0
 16 38  1  0
 24 39  1  0
 25 40  1  0
M  CHG  1   7   1
M  END
>  <UniqueID>  (7) 
7

>  <SMILES>  (7) 
COc1ccc([NH2+]Cc2nc(-c3ccccn3)oc2C(F)(F)F)cc1

>  <Energy>  (7) 
69.93903388338471

>  <Genealogy>  (7) 
COc1ccc([NH2+]Cc2nc(-c3ccccn3)oc2C(F)(F)F)cc1 (protonated)
COc1ccc([NH2+]Cc2nc(-c3ccccn3)oc2C(F)(F)F)cc1 (3D coordinates assigned)
COc1ccc([NH2+]Cc2nc(-c3ccccn3)oc2C(F)(F)F)cc1 (optimized conformer: 69.93903388338471 kcal/mol)

>  <smiles>  (7) 
COc1ccc(NCc2nc(-c3ccccn3)oc2C(F)(F)F)cc1

>  <score_type>  (7) 
oracle

>  <origin>  (7) 
adg

>  <m_score__min__energy>  (7) 
-6.3799999999999999

>  <m_primary>  (7) 
energy

$$$$
7:0
     RDKit          3D

 40 42  0  0  0  0  0  0  0  0999 V2000
   -2.7080   20.8540  -32.9360 C   0  0  0  0  0  0  0  0  0  0  0  0
   -3.9930   21.4410  -32.5370 N   0  0  0  0  0  0  0  0  0  0  0  0
   -4.0110   22.6530  -31.9670 N   0  0  0  0  0  0  0  0  0  0  0  0
   -5.1690   23.2670  -31.5920 C   0  0  0  0  0  0  0  0  0  0  0  0
   -5.0940   24.6120  -30.9720 C   0  0  0  0  0  0  0  0  0  0  0  0
   -6.1520   25.2800  -30.8310 O   0  0  0  0  0  0  0  0  0  0  0  0
   -3.8670   25.1610  -30.4710 N   0  0  0  0  0  0  0  0  0  0  0  0
   -2.9530   24.5530  -29.5050 C   0  0  0  0  0  0  0  0  0  0  0  0
   -3.6410   23.4470  -28.6970 C   0  0  0  0  0  0  0  0  0  0  0  0
   -2.8100   22.1930  -28.5850 C   0  0  0  0  0  0  0  0  0  0  0  0
   -3.0380   21.2810  -27.5390 C   0  0  0  0  0  0  0  0  0  0  0  0
   -2.2300   20.1500  -27.4000 C   0  0  0  0  0  0  0  0  0  0  0  0
   -1.1760   19.9260  -28.2910 C   0  0  0  0  0  0  0  0  0  0  0  0
   -0.1550   18.5130  -28.1070 Cl  0  0  0  0  0  0  0  0  0  0  0  0
   -0.9360   20.8340  -29.3280 C   0  0  0  0  0  0  0  0  0  0  0  0
   -1.7520   21.9600  -29.4790 C   0  0  0  0  0  0  0  0  0  0  0  0
   -6.3920   22.5750  -31.7360 C   0  0  0  0  0  0  0  0  0  0  0  0
   -7.6310   23.1380  -31.3550 C   0  0  0  0  0  0  0  0  0  0  0  0
   -8.8160   22.4160  -31.5110 C   0  0  0  0  0  0  0  0  0  0  0  0
   -8.7900   21.1340  -32.0530 C   0  0  0  0  0  0  0  0  0  0  0  0
   -7.5800   20.5660  -32.4500 C   0  0  0  0  0  0  0  0  0  0  0  0
   -6.3740   21.2800  -32.3000 C   0  0  0  0  0  0  0  0  0  0  0  0
   -5.1480   20.7300  -32.7070 C   0  0  0  0  0  0  0  0  0  0  0  0
   -5.1110   19.5770  -33.2240 O   0  0  0  0  0  0  0  0  0  0  0  0
   -2.1306   20.5903  -32.0376 H   0  0  0  0  0  0  0  0  0  0  0  0
   -2.8884   19.9490  -33.5347 H   0  0  0  0  0  0  0  0  0  0  0  0
   -2.1420   21.5829  -33.5347 H   0  0  0  0  0  0  0  0  0  0  0  0
   -3.1070   23.1440  -31.7800 H   0  0  0  0  0  0  0  0  0  0  0  0
   -2.0978   24.1211  -30.0455 H   0  0  0  0  0  0  0  0  0  0  0  0
   -2.6212   25.3346  -28.8058 H   0  0  0  0  0  0  0  0  0  0  0  0
   -3.8412   23.8262  -27.6840 H   0  0  0  0  0  0  0  0  0  0  0  0
   -4.5673   23.1808  -29.2272 H   0  0  0  0  0  0  0  0  0  0  0  0
   -3.8569   21.4592  -26.8265 H   0  0  0  0  0  0  0  0  0  0  0  0
   -2.4234   19.4339  -26.5877 H   0  0  0  0  0  0  0  0  0  0  0  0
   -0.1036   20.6620  -30.0262 H   0  0  0  0  0  0  0  0  0  0  0  0
   -1.5643   22.6660  -30.3014 H   0  0  0  0  0  0  0  0  0  0  0  0
   -7.6621   24.1530  -30.9322 H   0  0  0  0  0  0  0  0  0  0  0  0
   -9.7737   22.8619  -31.2044 H   0  0  0  0  0  0  0  0  0  0  0  0
   -9.7260   20.5678  -32.1683 H   0  0  0  0  0  0  0  0  0  0  0  0
   -7.5666   19.5548  -32.8828 H   0  0  0  0  0  0  0  0  0  0  0  0
  1  2  1  0
  2  3  1  0
  3  4  2  0
  4  5  1  0
  5  6  2  0
  5  7  1  0
  7  8  1  0
  8  9  1  0
  9 10  1  0
 10 11  2  0
 11 12  1  0
 12 13  2  0
 13 14  1  0
 13 15  1  0
 15 16  2  0
  4 17  1  0
 17 18  2  0
 18 19  1  0
 19 20  2  0
 20 21  1  0
 21 22  2  0
 22 23  1  0
 23 24  2  0
 23  2  1  0
 16 10  1  0
 22 17  1  0
  1 25  1  0
  1 26  1  0
  1 27  1  0
  3 28  1  0
  8 29  1  0
  8 30  1  0
  9 31  1  0
  9 32  1  0
 11 33  1  0
 12 34  1  0
 15 35  1  0
 16 36  1  0
 18 37  1  0
 19 38  1  0
 20 39  1  0
 21 40  1  0
M  CHG  2   3   1   7  -1
M  END
>  <UniqueID>  (8) 
8

>  <SMILES>  (8) 
Cn1[nH+]c(C(=O)[N-]CCc2ccc(Cl)cc2)c2ccccc2c1=O

>  <Energy>  (8) 
48.478083437688426

>  <Genealogy>  (8) 
Cn1[nH+]c(C(=O)[N-]CCc2ccc(Cl)cc2)c2ccccc2c1=O (protonated)
Cn1[nH+]c(C(=O)[N-]CCc2ccc(Cl)cc2)c2ccccc2c1=O (3D coordinates assigned)
Cn1[nH+]c(C(=O)[N-]CCc2ccc(Cl)cc2)c2ccccc2c1=O (optimized conformer: 48.478083437688426 kcal/mol)

>  <smiles>  (8) 
Cn1nc(C(=O)NCCc2ccc(Cl)cc2)c2ccccc2c1=O

>  <score_type>  (8) 
oracle

>  <origin>  (8) 
adg

>  <m_score__min__energy>  (8) 
-9.0199999999999996

>  <m_primary>  (8) 
energy

$$$$
8:0
     RDKit          3D

 30 31  0  0  0  0  0  0  0  0999 V2000
   -7.0153   24.1810  -30.2170 H   0  0  0  0  0  0  0  0  0  0  0  0
   -6.4960   23.9390  -31.1560 C   0  0  0  0  0  0  0  0  0  0  0  0
   -5.0390   24.1630  -31.2050 C   0  0  0  0  0  0  0  0  0  0  0  0
   -4.5820   25.2830  -30.8480 O   0  0  0  0  0  0  0  0  0  0  0  0
   -4.1680   23.1420  -31.5980 O   0  0  0  0  0  0  0  0  0  0  0  0
   -3.4580   22.3290  -30.6710 C   0  0  0  0  0  0  0  0  0  0  0  0
   -2.3823   22.5485  -30.7386 H   0  0  0  0  0  0  0  0  0  0  0  0
   -3.6294   21.2680  -30.9052 H   0  0  0  0  0  0  0  0  0  0  0  0
   -3.9490   22.6250  -29.2630 C   0  0  0  0  0  0  0  0  0  0  0  0
   -3.2448   22.2005  -28.5323 H   0  0  0  0  0  0  0  0  0  0  0  0
   -4.0150   23.7135  -29.1190 H   0  0  0  0  0  0  0  0  0  0  0  0
   -4.9424   22.1752  -29.1190 H   0  0  0  0  0  0  0  0  0  0  0  0
   -7.2370   23.4630  -32.1680 C   0  0  0  0  0  0  0  0  0  0  0  0
   -7.5121   24.1608  -32.9726 H   0  0  0  0  0  0  0  0  0  0  0  0
   -7.7100   22.0660  -32.2780 C   0  0  0  0  0  0  0  0  0  0  0  0
   -9.0270   21.7560  -31.9030 C   0  0  0  0  0  0  0  0  0  0  0  0
   -9.7000   22.5510  -31.5494 H   0  0  0  0  0  0  0  0  0  0  0  0
   -9.4820   20.4390  -31.9790 C   0  0  0  0  0  0  0  0  0  0  0  0
  -10.5176   20.1992  -31.6962 H   0  0  0  0  0  0  0  0  0  0  0  0
   -8.6500   19.4530  -32.4010 N   0  0  0  0  0  0  0  0  0  0  0  0
   -7.3640   19.7070  -32.7570 C   0  0  0  0  0  0  0  0  0  0  0  0
   -6.5370   18.6680  -33.1850 C   0  0  0  0  0  0  0  0  0  0  0  0
   -6.9237   17.6393  -33.2328 H   0  0  0  0  0  0  0  0  0  0  0  0
   -5.2190   18.9370  -33.5520 C   0  0  0  0  0  0  0  0  0  0  0  0
   -4.5594   18.1228  -33.8868 H   0  0  0  0  0  0  0  0  0  0  0  0
   -4.7430   20.2490  -33.4910 C   0  0  0  0  0  0  0  0  0  0  0  0
   -3.7050   20.4678  -33.7820 H   0  0  0  0  0  0  0  0  0  0  0  0
   -5.5550   21.2580  -33.0740 N   0  0  0  0  0  0  0  0  0  0  0  0
   -5.1550   22.2220  -33.0550 H   0  0  0  0  0  0  0  0  0  0  0  0
   -6.8530   21.0250  -32.7010 C   0  0  0  0  0  0  0  0  0  0  0  0
  1  2  1  0
  2  3  1  0
  3  4  2  0
  3  5  1  0
  5  6  1  0
  6  7  1  0
  6  8  1  0
  6  9  1  0
  9 10  1  0
  9 11  1  0
  9 12  1  0
  2 13  2  0
 13 14  1  0
 13 15  1  0
 15 16  2  0
 16 17  1  0
 16 18  1  0
 18 19  1  0
 18 20  2  0
 20 21  1  0
 21 22  2  0
 22 23  1  0
 22 24  1  0
 24 25  1  0
 24 26  2  0
 26 27  1  0
 26 28  1  0
 28 29  1  0
 28 30  2  0
 30 15  1  0
 30 21  1  0
M  CHG  1  28   1
M  END
>  <UniqueID>  (9) 
9

>  <SMILES>  (9) 
CCOC(=O)/C=C\c1ccnc2ccc[nH+]c12

>  <Energy>  (9) 
36.14980430525597

>  <Genealogy>  (9) 
CCOC(=O)C=Cc1ccnc2ccc[nH+]c12 (protonated)
CCOC(=O)/C=C\c1ccnc2ccc[nH+]c12 (cis-trans isomerization)
CCOC(=O)/C=C\c1ccnc2ccc[nH+]c12 (3D coordinates assigned)
CCOC(=O)/C=C\c1ccnc2ccc[nH+]c12 (optimized conformer: 36.14980430525597 kcal/mol)

>  <smiles>  (9) 
CCOC(=O)C=Cc1ccnc2cccnc12

>  <score_type>  (9) 
oracle

>  <origin>  (9) 
adg

>  <m_score__min__energy>  (9) 
-6.04

>  <m_primary>  (9) 
energy

$$$$
9:0
     RDKit          3D

 44 46  0  0  0  0  0  0  0  0999 V2000
   -1.9850   20.5270  -28.9000 C   0  0  0  0  0  0  0  0  0  0  0  0
   -2.4140   20.8930  -30.2850 C   0  0  0  0  0  0  0  0  0  0  0  0
   -1.5050   20.8450  -31.3450 C   0  0  0  0  0  0  0  0  0  0  0  0
   -1.9490   21.1980  -32.6220 C   0  0  0  0  0  0  0  0  0  0  0  0
   -1.0110   21.1660  -33.7860 C   0  0  0  0  0  0  0  0  0  0  0  0
   -3.2400   21.5820  -32.8030 N   0  0  0  0  0  0  0  0  0  0  0  0
   -4.1170   21.6330  -31.7630 C   0  0  0  0  0  0  0  0  0  0  0  0
   -5.4850   22.0400  -31.9780 N   0  0  0  0  0  0  0  0  0  0  0  0
   -5.8320   23.4370  -32.0390 C   0  0  0  0  0  0  0  0  0  0  0  0
   -6.7690   23.8200  -32.7940 O   0  0  0  0  0  0  0  0  0  0  0  0
   -5.1420   24.3690  -31.2530 O   0  0  0  0  0  0  0  0  0  0  0  0
   -5.4090   24.5800  -29.8690 C   0  0  0  0  0  0  0  0  0  0  0  0
   -4.1440   24.4420  -29.0670 C   0  0  0  0  0  0  0  0  0  0  0  0
   -2.9120   24.2830  -29.7220 C   0  0  0  0  0  0  0  0  0  0  0  0
   -1.7360   24.1280  -28.9830 C   0  0  0  0  0  0  0  0  0  0  0  0
   -1.7810   24.1270  -27.5860 C   0  0  0  0  0  0  0  0  0  0  0  0
   -3.0040   24.2790  -26.9270 C   0  0  0  0  0  0  0  0  0  0  0  0
   -4.1830   24.4350  -27.6620 C   0  0  0  0  0  0  0  0  0  0  0  0
   -6.5170   21.0410  -32.1100 C   0  0  0  0  0  0  0  0  0  0  0  0
   -7.8160   21.2920  -31.6340 C   0  0  0  0  0  0  0  0  0  0  0  0
   -8.8130   20.3210  -31.7600 C   0  0  0  0  0  0  0  0  0  0  0  0
   -8.5240   19.0930  -32.3620 C   0  0  0  0  0  0  0  0  0  0  0  0
   -7.2360   18.8340  -32.8370 C   0  0  0  0  0  0  0  0  0  0  0  0
   -6.2350   19.8020  -32.7130 C   0  0  0  0  0  0  0  0  0  0  0  0
   -3.6940   21.2880  -30.5160 N   0  0  0  0  0  0  0  0  0  0  0  0
   -2.6105   21.0607  -28.1693 H   0  0  0  0  0  0  0  0  0  0  0  0
   -2.0974   19.4423  -28.7559 H   0  0  0  0  0  0  0  0  0  0  0  0
   -0.9315   20.8088  -28.7559 H   0  0  0  0  0  0  0  0  0  0  0  0
   -0.4626   20.5361  -31.1779 H   0  0  0  0  0  0  0  0  0  0  0  0
    0.0259   21.1306  -33.4205 H   0  0  0  0  0  0  0  0  0  0  0  0
   -1.2150   20.2743  -34.3969 H   0  0  0  0  0  0  0  0  0  0  0  0
   -1.1538   22.0695  -34.3969 H   0  0  0  0  0  0  0  0  0  0  0  0
   -5.8194   25.5908  -29.7285 H   0  0  0  0  0  0  0  0  0  0  0  0
   -6.1346   23.8279  -29.5256 H   0  0  0  0  0  0  0  0  0  0  0  0
   -2.8724   24.2804  -30.8213 H   0  0  0  0  0  0  0  0  0  0  0  0
   -0.7735   24.0066  -29.5015 H   0  0  0  0  0  0  0  0  0  0  0  0
   -0.8544   24.0066  -27.0056 H   0  0  0  0  0  0  0  0  0  0  0  0
   -3.0391   24.2759  -25.8276 H   0  0  0  0  0  0  0  0  0  0  0  0
   -5.1437   24.5526  -27.1393 H   0  0  0  0  0  0  0  0  0  0  0  0
   -8.0485   22.2571  -31.1603 H   0  0  0  0  0  0  0  0  0  0  0  0
   -9.8270   20.5234  -31.3848 H   0  0  0  0  0  0  0  0  0  0  0  0
   -9.3107   18.3306  -32.4617 H   0  0  0  0  0  0  0  0  0  0  0  0
   -7.0091   17.8668  -33.3093 H   0  0  0  0  0  0  0  0  0  0  0  0
   -5.2223   19.5937  -33.0887 H   0  0  0  0  0  0  0  0  0  0  0  0
  1  2  1  0
  2  3  2  0
  3  4  1  0
  4  5  1  0
  4  6  2  0
  6  7  1  0
  7  8  1  0
  8  9  1  0
  9 10  2  0
  9 11  1  0
 11 12  1  0
 12 13  1  0
 13 14  2  0
 14 15  1  0
 15 16  2  0
 16 17  1  0
 17 18  2  0
  8 19  1  0
 19 20  2  0
 20 21  1  0
 21 22  2  0
 22 23  1  0
 23 24  2  0
  7 25  2  0
 25  2  1  0
 18 13  1  0
 24 19  1  0
  1 26  1  0
  1 27  1  0
  1 28  1  0
  3 29  1  0
  5 30  1  0
  5 31  1  0
  5 32  1  0
 12 33  1  0
 12 34  1  0
 14 35  1  0
 15 36  1  0
 16 37  1  0
 17 38  1  0
 18 39  1  0
 20 40  1  0
 21 41  1  0
 22 42  1  0
 23 43  1  0
 24 44  1  0
M  END
>  <UniqueID>  (10) 
10

>  <SMILES>  (10) 
Cc1cc(C)nc(N(C(=O)OCc2ccccc2)c2ccccc2)n1

>  <Energy>  (10) 
50.32838208597396

>  <Genealogy>  (10) 
Cc1cc(C)nc(N(C(=O)OCc2ccccc2)c2ccccc2)n1 (3D coordinates assigned)
Cc1cc(C)nc(N(C(=O)OCc2ccccc2)c2ccccc2)n1 (optimized conformer: 50.32838208597396 kcal/mol)

>  <smiles>  (10) 
Cc1cc(C)nc(N(C(=O)OCc2ccccc2)c2ccccc2)n1

>  <score_type>  (10) 
oracle

>  <origin>  (10) 
adg

>  <m_score__min__energy>  (10) 
-8.1600000000000001

>  <m_primary>  (10) 
energy

$$$$
10:0
     RDKit          3D

 58 61  0  0  0  0  0  0  0  0999 V2000
   -1.4140   25.3340  -28.5190 C   0  0  0  0  0  0  0  0  0  0  0  0
   -2.3500   24.2690  -29.0670 C   0  0  0  0  0  0  0  0  0  0  0  0
   -3.1640   24.8340  -30.0910 O   0  0  0  0  0  0  0  0  0  0  0  0
   -4.5320   24.5690  -30.2700 C   0  0  0  0  0  0  0  0  0  0  0  0
   -5.5240   25.4140  -29.7320 C   0  0  0  0  0  0  0  0  0  0  0  0
   -6.8760   25.1610  -29.9770 C   0  0  0  0  0  0  0  0  0  0  0  0
   -7.2550   24.0710  -30.7590 C   0  0  0  0  0  0  0  0  0  0  0  0
   -6.2860   23.2180  -31.2890 C   0  0  0  0  0  0  0  0  0  0  0  0
   -4.9210   23.4450  -31.0350 C   0  0  0  0  0  0  0  0  0  0  0  0
   -3.9170   22.5170  -31.5970 C   0  0  0  0  0  0  0  0  0  0  0  0
   -2.9430   22.1490  -30.8860 O   0  0  0  0  0  0  0  0  0  0  0  0
   -4.0220   22.0550  -32.9500 N   0  0  0  0  0  0  0  0  0  0  0  0
   -3.4640   20.8020  -33.3460 C   0  0  0  0  0  0  0  0  0  0  0  0
   -2.1300   20.7960  -33.7930 C   0  0  0  0  0  0  0  0  0  0  0  0
   -1.5830   19.5930  -34.2250 C   0  0  0  0  0  0  0  0  0  0  0  0
   -2.3060   18.4340  -34.2180 C   0  0  0  0  0  0  0  0  0  0  0  0
   -3.6260   18.3910  -33.7740 C   0  0  0  0  0  0  0  0  0  0  0  0
   -4.2330   19.5910  -33.3170 C   0  0  0  0  0  0  0  0  0  0  0  0
   -5.6030   19.5600  -32.8360 N   0  0  0  0  0  0  0  0  0  0  0  0
   -6.6690   20.3790  -33.3970 C   0  0  0  0  0  0  0  0  0  0  0  0
   -7.9130   20.0550  -32.5840 C   0  0  0  0  0  0  0  0  0  0  0  0
   -7.6330   18.6980  -31.9550 C   0  0  0  0  0  0  0  0  0  0  0  0
   -6.1170   18.6090  -31.8600 C   0  0  0  0  0  0  0  0  0  0  0  0
   -1.5280   17.4210  -34.6530 N   0  0  0  0  0  0  0  0  0  0  0  0
   -1.8580   16.0000  -34.7110 C   0  0  0  0  0  0  0  0  0  0  0  0
   -0.3280   18.0050  -34.8930 C   0  0  0  0  0  0  0  0  0  0  0  0
    0.6930   17.3690  -35.2750 O   0  0  0  0  0  0  0  0  0  0  0  0
   -0.3330   19.3420  -34.6630 N   0  0  0  0  0  0  0  0  0  0  0  0
    0.8000   20.2660  -34.7470 C   0  0  0  0  0  0  0  0  0  0  0  0
    0.5060   21.3730  -35.7520 C   0  0  0  0  0  0  0  0  0  0  0  0
   -1.4350   25.3101  -27.4195 H   0  0  0  0  0  0  0  0  0  0  0  0
   -0.3902   25.1384  -28.8705 H   0  0  0  0  0  0  0  0  0  0  0  0
   -1.7394   26.3242  -28.8705 H   0  0  0  0  0  0  0  0  0  0  0  0
   -1.7587   23.4404  -29.4839 H   0  0  0  0  0  0  0  0  0  0  0  0
   -2.9901   23.8908  -28.2563 H   0  0  0  0  0  0  0  0  0  0  0  0
   -5.2319   26.2772  -29.1160 H   0  0  0  0  0  0  0  0  0  0  0  0
   -7.6438   25.8239  -29.5515 H   0  0  0  0  0  0  0  0  0  0  0  0
   -8.3202   23.8828  -30.9587 H   0  0  0  0  0  0  0  0  0  0  0  0
   -6.5915   22.3626  -31.9094 H   0  0  0  0  0  0  0  0  0  0  0  0
   -4.6680   22.5380  -33.6150 H   0  0  0  0  0  0  0  0  0  0  0  0
   -1.5342   21.7207  -33.8005 H   0  0  0  0  0  0  0  0  0  0  0  0
   -4.1876   17.4452  -33.7773 H   0  0  0  0  0  0  0  0  0  0  0  0
   -6.4197   21.4465  -33.3065 H   0  0  0  0  0  0  0  0  0  0  0  0
   -6.8191   20.1706  -34.4666 H   0  0  0  0  0  0  0  0  0  0  0  0
   -8.0747   20.8154  -31.8058 H   0  0  0  0  0  0  0  0  0  0  0  0
   -8.8201   20.0417  -33.2061 H   0  0  0  0  0  0  0  0  0  0  0  0
   -8.0867   18.6351  -30.9549 H   0  0  0  0  0  0  0  0  0  0  0  0
   -8.0574   17.8741  -32.5476 H   0  0  0  0  0  0  0  0  0  0  0  0
   -5.7799   18.8783  -30.8481 H   0  0  0  0  0  0  0  0  0  0  0  0
   -5.7575   17.5888  -32.0598 H   0  0  0  0  0  0  0  0  0  0  0  0
   -1.9502   15.6030  -33.6893 H   0  0  0  0  0  0  0  0  0  0  0  0
   -2.8111   15.8664  -35.2437 H   0  0  0  0  0  0  0  0  0  0  0  0
   -1.0614   15.4600  -35.2437 H   0  0  0  0  0  0  0  0  0  0  0  0
    0.9785   20.7122  -33.7575 H   0  0  0  0  0  0  0  0  0  0  0  0
    1.6908   19.7110  -35.0763 H   0  0  0  0  0  0  0  0  0  0  0  0
    0.2597   22.3005  -35.2143 H   0  0  0  0  0  0  0  0  0  0  0  0
    1.3911   21.5394  -36.3836 H   0  0  0  0  0  0  0  0  0  0  0  0
   -0.3450   21.0783  -36.3836 H   0  0  0  0  0  0  0  0  0  0  0  0
  1  2  1  0
  2  3  1  0
  3  4  1  0
  4  5  2  0
  5  6  1  0
  6  7  2  0
  7  8  1  0
  8  9  2  0
  9 10  1  0
 10 11  2  0
 10 12  1  0
 12 13  1  0
 13 14  2  0
 14 15  1  0
 15 16  2  0
 16 17  1  0
 17 18  2  0
 18 19  1  0
 19 20  1  0
 20 21  1  0
 21 22  1  0
 22 23  1  0
 16 24  1  0
 24 25  1  0
 24 26  1  0
 26 27  2  0
 26 28  1  0
 28 29  1  0
 29 30  1  0
  9  4  1  0
 18 13  1  0
 23 19  1  0
 28 15  1  0
  1 31  1  0
  1 32  1  0
  1 33  1  0
  2 34  1  0
  2 35  1  0
  5 36  1  0
  6 37  1  0
  7 38  1  0
  8 39  1  0
 12 40  1  0
 14 41  1  0
 17 42  1  0
 20 43  1  0
 20 44  1  0
 21 45  1  0
 21 46  1  0
 22 47  1  0
 22 48  1  0
 23 49  1  0
 23 50  1  0
 25 51  1  0
 25 52  1  0
 25 53  1  0
 29 54  1  0
 29 55  1  0
 30 56  1  0
 30 57  1  0
 30 58  1  0
M  END
>  <UniqueID>  (11) 
11

>  <SMILES>  (11) 
CCOc1ccccc1C(=O)Nc1cc2c(cc1N1CCCC1)n(C)c(=O)n2CC

>  <Energy>  (11) 
108.50689404434911

>  <Genealogy>  (11) 
CCOc1ccccc1C(=O)Nc1cc2c(cc1N1CCCC1)n(C)c(=O)n2CC (3D coordinates assigned)
CCOc1ccccc1C(=O)Nc1cc2c(cc1N1CCCC1)n(C)c(=O)n2CC (nonaromatic ring conformer: 108.50689404434911 kcal/mol)

>  <smiles>  (11) 
CCOc1ccccc1C(=O)Nc1cc2c(cc1N1CCCC1)n(C)c(=O)n2CC

>  <score_type>  (11) 
oracle

>  <origin>  (11) 
adg

>  <m_score__min__energy>  (11) 
-9.3200000000000003

>  <m_primary>  (11) 
energy

$$$$
11:0
     RDKit          3D

 33 34  0  0  0  0  0  0  0  0999 V2000
   -4.2260   25.6650  -30.8510 O   0  0  0  0  0  0  0  0  0  0  0  0
   -4.8830   24.7480  -30.2870 C   0  0  0  0  0  0  0  0  0  0  0  0
   -6.2310   24.3780  -30.8310 C   0  0  0  0  0  0  0  0  0  0  0  0
   -6.6250   23.0890  -30.3600 O   0  0  0  0  0  0  0  0  0  0  0  0
   -7.2060   22.0800  -31.1450 C   0  0  0  0  0  0  0  0  0  0  0  0
   -6.4480   21.2480  -31.9970 C   0  0  0  0  0  0  0  0  0  0  0  0
   -7.0790   20.2600  -32.7580 C   0  0  0  0  0  0  0  0  0  0  0  0
   -8.4640   20.0900  -32.6780 C   0  0  0  0  0  0  0  0  0  0  0  0
   -9.2190   20.9080  -31.8350 C   0  0  0  0  0  0  0  0  0  0  0  0
   -8.5920   21.8960  -31.0720 C   0  0  0  0  0  0  0  0  0  0  0  0
   -4.3610   24.0780  -29.1270 N   0  0  0  0  0  0  0  0  0  0  0  0
   -3.0650   24.3360  -28.5660 C   0  0  0  0  0  0  0  0  0  0  0  0
   -2.3070   25.2110  -29.0670 O   0  0  0  0  0  0  0  0  0  0  0  0
   -2.6190   23.5930  -27.3440 C   0  0  0  0  0  0  0  0  0  0  0  0
   -2.1340   24.5350  -26.3400 N   0  0  0  0  0  0  0  0  0  0  0  0
   -0.9300   24.5220  -25.7350 C   0  0  0  0  0  0  0  0  0  0  0  0
   -0.8510   25.6290  -24.9170 C   0  0  0  0  0  0  0  0  0  0  0  0
   -1.9980   26.3270  -25.0260 N   0  0  0  0  0  0  0  0  0  0  0  0
   -2.7590   25.6440  -25.9020 C   0  0  0  0  0  0  0  0  0  0  0  0
   -6.9702   25.1241  -30.5041 H   0  0  0  0  0  0  0  0  0  0  0  0
   -6.1763   24.3534  -31.9294 H   0  0  0  0  0  0  0  0  0  0  0  0
   -5.3576   21.3776  -32.0622 H   0  0  0  0  0  0  0  0  0  0  0  0
   -6.4843   19.6148  -33.4213 H   0  0  0  0  0  0  0  0  0  0  0  0
   -8.9588   19.3125  -33.2786 H   0  0  0  0  0  0  0  0  0  0  0  0
  -10.3090   20.7742  -31.7716 H   0  0  0  0  0  0  0  0  0  0  0  0
   -9.1925   22.5351  -30.4080 H   0  0  0  0  0  0  0  0  0  0  0  0
   -4.9560   23.3530  -28.6670 H   0  0  0  0  0  0  0  0  0  0  0  0
   -3.4666   23.0254  -26.9324 H   0  0  0  0  0  0  0  0  0  0  0  0
   -1.8067   22.9028  -27.6158 H   0  0  0  0  0  0  0  0  0  0  0  0
   -0.1471   23.7612  -25.8701 H   0  0  0  0  0  0  0  0  0  0  0  0
    0.0057   25.8975  -24.2814 H   0  0  0  0  0  0  0  0  0  0  0  0
   -2.2420   27.2180  -24.5410 H   0  0  0  0  0  0  0  0  0  0  0  0
   -3.7655   25.9535  -26.2200 H   0  0  0  0  0  0  0  0  0  0  0  0
  1  2  2  0
  2  3  1  0
  3  4  1  0
  4  5  1  0
  5  6  2  0
  6  7  1  0
  7  8  2  0
  8  9  1  0
  9 10  2  0
  2 11  1  0
 11 12  1  0
 12 13  2  0
 12 14  1  0
 14 15  1  0
 15 16  1  0
 16 17  2  0
 17 18  1  0
 18 19  2  0
 10  5  1  0
 19 15  1  0
  3 20  1  0
  3 21  1  0
  6 22  1  0
  7 23  1  0
  8 24  1  0
  9 25  1  0
 10 26  1  0
 11 27  1  0
 14 28  1  0
 14 29  1  0
 16 30  1  0
 17 31  1  0
 18 32  1  0
 19 33  1  0
M  CHG  1  18   1
M  END
>  <UniqueID>  (12) 
12

>  <SMILES>  (12) 
O=C(COc1ccccc1)NC(=O)Cn1cc[nH+]c1

>  <Energy>  (12) 
59.89998751750511

>  <Genealogy>  (12) 
O=C(COc1ccccc1)NC(=O)Cn1cc[nH+]c1 (protonated)
O=C(COc1ccccc1)NC(=O)Cn1cc[nH+]c1 (3D coordinates assigned)
O=C(COc1ccccc1)NC(=O)Cn1cc[nH+]c1 (optimized conformer: 59.89998751750511 kcal/mol)

>  <smiles>  (12) 
O=C(COc1ccccc1)NC(=O)Cn1ccnc1

>  <score_type>  (12) 
oracle

>  <origin>  (12) 
adg

>  <m_score__min__energy>  (12) 
-6.8200000000000003

>  <m_primary>  (12) 
energy

$$$$
12:0
     RDKit          3D

 40 42  0  0  0  0  0  0  0  0999 V2000
   -5.0400   20.5390  -33.0870 C   0  0  0  0  0  0  0  0  0  0  0  0
   -6.4620   20.2530  -32.6820 C   0  0  0  0  0  0  0  0  0  0  0  0
   -6.9080   18.9200  -32.6580 C   0  0  0  0  0  0  0  0  0  0  0  0
   -8.2220   18.6170  -32.3030 C   0  0  0  0  0  0  0  0  0  0  0  0
   -9.1070   19.6390  -31.9630 C   0  0  0  0  0  0  0  0  0  0  0  0
   -8.6800   20.9680  -31.9740 C   0  0  0  0  0  0  0  0  0  0  0  0
   -7.3560   21.2980  -32.3310 C   0  0  0  0  0  0  0  0  0  0  0  0
   -6.9150   22.6750  -32.3310 N   0  0  0  0  0  0  0  0  0  0  0  0
   -7.0860   23.5930  -31.2050 C   0  0  0  0  0  0  0  0  0  0  0  0
   -5.7670   24.1710  -30.7960 C   0  0  0  0  0  0  0  0  0  0  0  0
   -5.3800   25.4850  -30.9250 C   0  0  0  0  0  0  0  0  0  0  0  0
   -4.1660   25.5830  -30.4420 O   0  0  0  0  0  0  0  0  0  0  0  0
   -3.8110   24.3850  -30.0290 C   0  0  0  0  0  0  0  0  0  0  0  0
   -2.4990   24.0850  -29.4210 C   0  0  0  0  0  0  0  0  0  0  0  0
   -1.7920   22.9250  -29.7790 C   0  0  0  0  0  0  0  0  0  0  0  0
   -0.5500   22.6470  -29.2020 C   0  0  0  0  0  0  0  0  0  0  0  0
    0.0080   23.5180  -28.2590 C   0  0  0  0  0  0  0  0  0  0  0  0
    1.2580   23.1920  -27.7110 O   0  0  0  0  0  0  0  0  0  0  0  0
    2.0370   24.0610  -26.8940 C   0  0  0  0  0  0  0  0  0  0  0  0
    1.7450   23.8440  -25.5600 F   0  0  0  0  0  0  0  0  0  0  0  0
    3.3770   23.8020  -27.1080 F   0  0  0  0  0  0  0  0  0  0  0  0
   -0.6980   24.6820  -27.8990 C   0  0  0  0  0  0  0  0  0  0  0  0
   -1.9410   24.9600  -28.4760 C   0  0  0  0  0  0  0  0  0  0  0  0
   -4.7780   23.4610  -30.2210 N   0  0  0  0  0  0  0  0  0  0  0  0
   -4.4203   20.6636  -32.1867 H   0  0  0  0  0  0  0  0  0  0  0  0
   -4.6534   19.7006  -33.6851 H   0  0  0  0  0  0  0  0  0  0  0  0
   -5.0076   21.4616  -33.6851 H   0  0  0  0  0  0  0  0  0  0  0  0
   -6.2139   18.1084  -32.9217 H   0  0  0  0  0  0  0  0  0  0  0  0
   -8.5606   17.5705  -32.2912 H   0  0  0  0  0  0  0  0  0  0  0  0
  -10.1437   19.3978  -31.6855 H   0  0  0  0  0  0  0  0  0  0  0  0
   -9.3845   21.7674  -31.7010 H   0  0  0  0  0  0  0  0  0  0  0  0
   -6.4780   23.0760  -33.1910 H   0  0  0  0  0  0  0  0  0  0  0  0
   -7.7622   24.4082  -31.5018 H   0  0  0  0  0  0  0  0  0  0  0  0
   -7.5110   23.0389  -30.3551 H   0  0  0  0  0  0  0  0  0  0  0  0
   -5.9788   26.3019  -31.3541 H   0  0  0  0  0  0  0  0  0  0  0  0
   -2.2188   22.2311  -30.5182 H   0  0  0  0  0  0  0  0  0  0  0  0
   -0.0061   21.7357  -29.4914 H   0  0  0  0  0  0  0  0  0  0  0  0
    1.8052   25.1048  -27.1525 H   0  0  0  0  0  0  0  0  0  0  0  0
   -0.2697   25.3757  -27.1605 H   0  0  0  0  0  0  0  0  0  0  0  0
   -2.4855   25.8711  -28.1872 H   0  0  0  0  0  0  0  0  0  0  0  0
  1  2  1  0
  2  3  2  0
  3  4  1  0
  4  5  2  0
  5  6  1  0
  6  7  2  0
  7  8  1  0
  8  9  1  0
  9 10  1  0
 10 11  2  0
 11 12  1  0
 12 13  1  0
 13 14  1  0
 14 15  2  0
 15 16  1  0
 16 17  2  0
 17 18  1  0
 18 19  1  0
 19 20  1  0
 19 21  1  0
 17 22  1  0
 22 23  2  0
 13 24  2  0
  7  2  1  0
 24 10  1  0
 23 14  1  0
  1 25  1  0
  1 26  1  0
  1 27  1  0
  3 28  1  0
  4 29  1  0
  5 30  1  0
  6 31  1  0
  8 32  1  0
  9 33  1  0
  9 34  1  0
 11 35  1  0
 15 36  1  0
 16 37  1  0
 19 38  1  0
 22 39  1  0
 23 40  1  0
M  END
>  <UniqueID>  (13) 
13

>  <SMILES>  (13) 
Cc1ccccc1NCc1coc(-c2ccc(OC(F)F)cc2)n1

>  <Energy>  (13) 
71.50352813547708

>  <Genealogy>  (13) 
Cc1ccccc1NCc1coc(-c2ccc(OC(F)F)cc2)n1 (3D coordinates assigned)
Cc1ccccc1NCc1coc(-c2ccc(OC(F)F)cc2)n1 (optimized conformer: 71.50352813547708 kcal/mol)

>  <smiles>  (13) 
Cc1ccccc1NCc1coc(-c2ccc(OC(F)F)cc2)n1

>  <score_type>  (13) 
oracle

>  <origin>  (13) 
adg

>  <m_score__min__energy>  (13) 
-7.9299999999999997

>  <m_primary>  (13) 
energy

$$$$
13:0
     RDKit          3D

 56 58  0  0  0  0  0  0  0  0999 V2000
   -6.7780   19.3860  -33.1080 C   0  0  0  0  0  0  0  0  0  0  0  0
   -8.0130   20.1550  -33.1100 N   0  0  0  0  0  0  0  0  0  0  0  0
   -8.6620   20.6800  -31.9460 C   0  0  0  0  0  0  0  0  0  0  0  0
   -9.0930   19.8750  -31.0760 O   0  0  0  0  0  0  0  0  0  0  0  0
   -8.7930   22.1650  -31.6980 C   0  0  0  0  0  0  0  0  0  0  0  0
   -7.4630   22.7900  -31.3420 C   0  0  0  0  0  0  0  0  0  0  0  0
   -6.4130   22.8280  -32.2770 C   0  0  0  0  0  0  0  0  0  0  0  0
   -5.2280   23.4940  -31.9770 C   0  0  0  0  0  0  0  0  0  0  0  0
   -5.0830   24.1770  -30.7590 C   0  0  0  0  0  0  0  0  0  0  0  0
   -3.9110   24.9560  -30.4860 N   0  0  0  0  0  0  0  0  0  0  0  0
   -2.8280   24.4970  -29.6610 C   0  0  0  0  0  0  0  0  0  0  0  0
   -1.9450   25.3080  -29.3040 O   0  0  0  0  0  0  0  0  0  0  0  0
   -2.7720   23.1380  -29.2120 N   0  0  0  0  0  0  0  0  0  0  0  0
   -2.1110   22.1010  -29.9470 C   0  0  0  0  0  0  0  0  0  0  0  0
   -0.7160   22.0350  -29.9750 C   0  0  0  0  0  0  0  0  0  0  0  0
   -0.0870   21.0520  -30.7310 C   0  0  0  0  0  0  0  0  0  0  0  0
   -0.8560   20.1680  -31.4860 C   0  0  0  0  0  0  0  0  0  0  0  0
   -2.2220   20.2430  -31.4810 N   0  0  0  0  0  0  0  0  0  0  0  0
   -2.9760   19.4180  -32.4420 C   0  0  0  0  0  0  0  0  0  0  0  0
   -2.0850   18.6850  -33.3950 C   0  0  0  0  0  0  0  0  0  0  0  0
   -1.7510   17.4920  -33.1620 O   0  0  0  0  0  0  0  0  0  0  0  0
   -1.5960   19.3750  -34.5530 N   0  0  0  0  0  0  0  0  0  0  0  0
   -0.3310   20.0950  -34.6590 C   0  0  1  0  0  0  0  0  0  0  0  0
    0.2810   19.9250  -36.0580 C   0  0  0  0  0  0  0  0  0  0  0  0
    1.5660   20.7510  -36.1780 C   0  0  0  0  0  0  0  0  0  0  0  0
    1.4140   22.1890  -35.6300 C   0  0  0  0  0  0  0  0  0  0  0  0
    0.0330   22.5190  -35.2500 N   0  0  0  0  0  0  0  0  0  0  0  0
   -0.4860   21.5820  -34.2420 C   0  0  0  0  0  0  0  0  0  0  0  0
   -2.8560   21.1840  -30.7050 C   0  0  0  0  0  0  0  0  0  0  0  0
   -4.1090   21.2690  -30.7060 O   0  0  0  0  0  0  0  0  0  0  0  0
   -6.1090   24.1070  -29.8060 C   0  0  0  0  0  0  0  0  0  0  0  0
   -7.2950   23.4260  -30.0970 C   0  0  0  0  0  0  0  0  0  0  0  0
   -6.4680   19.1929  -32.0704 H   0  0  0  0  0  0  0  0  0  0  0  0
   -6.9409   18.4294  -33.6260 H   0  0  0  0  0  0  0  0  0  0  0  0
   -5.9914   19.9542  -33.6260 H   0  0  0  0  0  0  0  0  0  0  0  0
   -9.1811   22.6459  -32.6080 H   0  0  0  0  0  0  0  0  0  0  0  0
   -9.4799   22.3129  -30.8516 H   0  0  0  0  0  0  0  0  0  0  0  0
   -6.5288   22.3289  -33.2504 H   0  0  0  0  0  0  0  0  0  0  0  0
   -4.3989   23.4851  -32.6998 H   0  0  0  0  0  0  0  0  0  0  0  0
   -0.1174   22.7578  -29.4012 H   0  0  0  0  0  0  0  0  0  0  0  0
    1.0101   20.9725  -30.7332 H   0  0  0  0  0  0  0  0  0  0  0  0
   -0.3574   19.3991  -32.0945 H   0  0  0  0  0  0  0  0  0  0  0  0
   -3.5737   18.6833  -31.8826 H   0  0  0  0  0  0  0  0  0  0  0  0
   -3.6122   20.0931  -33.0332 H   0  0  0  0  0  0  0  0  0  0  0  0
    0.3803   19.6519  -33.9465 H   0  0  0  0  0  0  0  0  0  0  0  0
    0.5147   18.8633  -36.2257 H   0  0  0  0  0  0  0  0  0  0  0  0
   -0.4415   20.2742  -36.8104 H   0  0  0  0  0  0  0  0  0  0  0  0
    2.3627   20.2436  -35.6143 H   0  0  0  0  0  0  0  0  0  0  0  0
    1.8068   20.8308  -37.2483 H   0  0  0  0  0  0  0  0  0  0  0  0
    2.0559   22.2952  -34.7430 H   0  0  0  0  0  0  0  0  0  0  0  0
    1.7061   22.8791  -36.4352 H   0  0  0  0  0  0  0  0  0  0  0  0
   -0.5780   22.4880  -36.1060 H   0  0  0  0  0  0  0  0  0  0  0  0
    0.0612   21.7410  -33.3011 H   0  0  0  0  0  0  0  0  0  0  0  0
   -1.5619   21.7818  -34.1303 H   0  0  0  0  0  0  0  0  0  0  0  0
   -5.9805   24.5896  -28.8259 H   0  0  0  0  0  0  0  0  0  0  0  0
   -8.1010   23.3869  -29.3494 H   0  0  0  0  0  0  0  0  0  0  0  0
  1  2  1  0
  2  3  1  0
  3  4  2  0
  3  5  1  0
  5  6  1  0
  6  7  2  0
  7  8  1  0
  8  9  2  0
  9 10  1  0
 10 11  1  0
 11 12  2  0
 11 13  1  0
 13 14  1  0
 14 15  2  0
 15 16  1  0
 16 17  2  0
 17 18  1  0
 18 19  1  0
 19 20  1  0
 20 21  2  0
 20 22  1  0
 22 23  1  0
 23 24  1  0
 24 25  1  0
 25 26  1  0
 26 27  1  0
 27 28  1  0
 18 29  1  0
 29 30  2  0
  9 31  1  0
 31 32  2  0
 32  6  1  0
 29 14  1  0
 28 23  1  0
  1 33  1  0
  1 34  1  0
  1 35  1  0
  5 36  1  0
  5 37  1  0
  7 38  1  0
  8 39  1  0
 15 40  1  0
 16 41  1  0
 17 42  1  0
 19 43  1  0
 19 44  1  0
 23 45  1  1
 24 46  1  0
 24 47  1  0
 25 48  1  0
 25 49  1  0
 26 50  1  0
 26 51  1  0
 27 52  1  0
 28 53  1  0
 28 54  1  0
 31 55  1  0
 32 56  1  0
M  CHG  4   2  -1  10  -1  13  -1  22  -1
M  END
>  <UniqueID>  (14) 
14

>  <SMILES>  (14) 
C[N-]C(=O)Cc1ccc([N-]C(=O)[N-]c2cccn(CC(=O)[N-][C@H]3CCCNC3)c2=O)cc1

>  <Energy>  (14) 
71.69615216030837

>  <Genealogy>  (14) 
C[N-]C(=O)Cc1ccc([N-]C(=O)[N-]c2cccn(CC(=O)[N-]C3CCCNC3)c2=O)cc1 (protonated)
C[N-]C(=O)Cc1ccc([N-]C(=O)[N-]c2cccn(CC(=O)[N-][C@H]3CCCNC3)c2=O)cc1 (chirality)
C[N-]C(=O)Cc1ccc([N-]C(=O)[N-]c2cccn(CC(=O)[N-][C@H]3CCCNC3)c2=O)cc1 (3D coordinates assigned)
C[N-]C(=O)Cc1ccc([N-]C(=O)[N-]c2cccn(CC(=O)[N-][C@H]3CCCNC3)c2=O)cc1 (nonaromatic ring conformer: 71.69615216030837 kcal/mol)

>  <smiles>  (14) 
CNC(=O)Cc1ccc(NC(=O)Nc2cccn(CC(=O)NC3CCCNC3)c2=O)cc1

>  <score_type>  (14) 
oracle

>  <origin>  (14) 
adg

>  <m_score__min__energy>  (14) 
-11.4

>  <m_primary>  (14) 
energy

$$$$
14:0
     RDKit          3D

 40 41  0  0  0  0  0  0  0  0999 V2000
   -8.7450   18.5850  -31.6000 C   0  0  0  0  0  0  0  0  0  0  0  0
   -9.0110   19.9680  -31.3960 O   0  0  0  0  0  0  0  0  0  0  0  0
   -8.0410   20.9790  -31.4590 C   0  0  0  0  0  0  0  0  0  0  0  0
   -8.0570   21.9790  -30.4800 C   0  0  0  0  0  0  0  0  0  0  0  0
   -7.1160   23.0120  -30.5060 C   0  0  0  0  0  0  0  0  0  0  0  0
   -6.1560   23.0700  -31.5210 C   0  0  0  0  0  0  0  0  0  0  0  0
   -5.2110   24.1500  -31.5180 N   0  0  0  0  0  0  0  0  0  0  0  0
   -3.9550   24.1860  -30.8290 C   0  0  0  0  0  0  0  0  0  0  0  0
   -3.5300   25.2960  -30.4100 O   0  0  0  0  0  0  0  0  0  0  0  0
   -3.1300   22.9750  -30.6170 C   0  0  0  0  0  0  0  0  0  0  0  0
   -3.1290   21.9820  -31.6120 C   0  0  0  0  0  0  0  0  0  0  0  0
   -2.3300   20.8450  -31.4810 C   0  0  0  0  0  0  0  0  0  0  0  0
   -1.5310   20.6790  -30.3510 C   0  0  0  0  0  0  0  0  0  0  0  0
   -1.5380   21.6430  -29.3410 C   0  0  0  0  0  0  0  0  0  0  0  0
   -2.3410   22.7920  -29.4540 C   0  0  0  0  0  0  0  0  0  0  0  0
   -2.3870   23.7270  -28.3630 N   0  0  0  0  0  0  0  0  0  0  0  0
   -3.6710   24.0580  -27.7490 C   0  0  0  0  0  0  0  0  0  0  0  0
   -1.0710   24.8440  -28.1520 S   0  0  0  0  0  0  0  0  0  0  0  0
   -0.9100   25.2940  -26.4390 C   0  0  0  0  0  0  0  0  0  0  0  0
   -1.3280   26.0770  -28.9730 O   0  0  0  0  0  0  0  0  0  0  0  0
    0.2160   24.2170  -28.6110 O   0  0  0  0  0  0  0  0  0  0  0  0
   -6.1150   22.0520  -32.4880 C   0  0  0  0  0  0  0  0  0  0  0  0
   -7.0550   21.0180  -32.4640 C   0  0  0  0  0  0  0  0  0  0  0  0
   -8.6484   18.0827  -30.6262 H   0  0  0  0  0  0  0  0  0  0  0  0
   -9.5725   18.1320  -32.1658 H   0  0  0  0  0  0  0  0  0  0  0  0
   -7.8085   18.4713  -32.1658 H   0  0  0  0  0  0  0  0  0  0  0  0
   -8.8159   21.9517  -29.6841 H   0  0  0  0  0  0  0  0  0  0  0  0
   -7.1307   23.7844  -29.7229 H   0  0  0  0  0  0  0  0  0  0  0  0
   -3.7639   22.1021  -32.5022 H   0  0  0  0  0  0  0  0  0  0  0  0
   -2.3309   20.0790  -32.2705 H   0  0  0  0  0  0  0  0  0  0  0  0
   -0.8941   19.7873  -30.2548 H   0  0  0  0  0  0  0  0  0  0  0  0
   -0.9099   21.5025  -28.4490 H   0  0  0  0  0  0  0  0  0  0  0  0
   -3.5712   24.0323  -26.6538 H   0  0  0  0  0  0  0  0  0  0  0  0
   -3.9800   25.0652  -28.0655 H   0  0  0  0  0  0  0  0  0  0  0  0
   -4.4284   23.3257  -28.0655 H   0  0  0  0  0  0  0  0  0  0  0  0
   -1.2133   24.4462  -25.8071 H   0  0  0  0  0  0  0  0  0  0  0  0
    0.1371   25.5545  -26.2252 H   0  0  0  0  0  0  0  0  0  0  0  0
   -1.5542   26.1596  -26.2252 H   0  0  0  0  0  0  0  0  0  0  0  0
   -5.3394   22.0687  -33.2678 H   0  0  0  0  0  0  0  0  0  0  0  0
   -7.0247   20.2318  -33.2328 H   0  0  0  0  0  0  0  0  0  0  0  0
  1  2  1  0
  2  3  1  0
  3  4  2  0
  4  5  1  0
  5  6  2  0
  6  7  1  0
  7  8  1  0
  8  9  2  0
  8 10  1  0
 10 11  2  0
 11 12  1  0
 12 13  2  0
 13 14  1  0
 14 15  2  0
 15 16  1  0
 16 17  1  0
 16 18  1  0
 18 19  1  0
 18 20  2  0
 18 21  2  0
  6 22  1  0
 22 23  2  0
 23  3  1  0
 15 10  1  0
  1 24  1  0
  1 25  1  0
  1 26  1  0
  4 27  1  0
  5 28  1  0
 11 29  1  0
 12 30  1  0
 13 31  1  0
 14 32  1  0
 17 33  1  0
 17 34  1  0
 17 35  1  0
 19 36  1  0
 19 37  1  0
 19 38  1  0
 22 39  1  0
 23 40  1  0
M  CHG  1   7  -1
M  END
>  <UniqueID>  (15) 
15

>  <SMILES>  (15) 
COc1ccc([N-]C(=O)c2ccccc2N(C)S(C)(=O)=O)cc1

>  <Energy>  (15) 
47.1471458499847

>  <Genealogy>  (15) 
COc1ccc([N-]C(=O)c2ccccc2N(C)S(C)(=O)=O)cc1 (protonated)
COc1ccc([N-]C(=O)c2ccccc2N(C)S(C)(=O)=O)cc1 (3D coordinates assigned)
COc1ccc([N-]C(=O)c2ccccc2N(C)S(C)(=O)=O)cc1 (optimized conformer: 47.1471458499847 kcal/mol)

>  <smiles>  (15) 
COc1ccc(NC(=O)c2ccccc2N(C)S(C)(=O)=O)cc1

>  <score_type>  (15) 
oracle

>  <origin>  (15) 
adg

>  <m_score__min__energy>  (15) 
-9.0899999999999999

>  <m_primary>  (15) 
energy

$$$$
15:0
     RDKit          3D

 37 39  0  0  0  0  0  0  0  0999 V2000
    1.4280   29.6570  -23.6680 C   0  0  0  0  0  0  0  0  0  0  0  0
    1.1590   28.2590  -22.5370 S   0  0  0  0  0  0  0  0  0  0  0  0
    0.3690   27.2530  -23.7900 C   0  0  0  0  0  0  0  0  0  0  0  0
    0.3550   25.9000  -23.7660 N   0  0  0  0  0  0  0  0  0  0  0  0
   -0.3120   25.3900  -24.8330 C   0  0  0  0  0  0  0  0  0  0  0  0
   -0.4920   24.0300  -25.0860 C   0  0  0  0  0  0  0  0  0  0  0  0
   -1.2040   23.6440  -26.2350 C   0  0  0  0  0  0  0  0  0  0  0  0
   -1.7410   24.6150  -27.1170 C   0  0  0  0  0  0  0  0  0  0  0  0
   -2.4590   24.2250  -28.3030 N   0  0  0  0  0  0  0  0  0  0  0  0
   -3.7470   24.5310  -28.4680 N   0  0  0  0  0  0  0  0  0  0  0  0
   -4.2690   24.0740  -29.6330 C   0  0  0  0  0  0  0  0  0  0  0  0
   -5.7040   24.3070  -30.0710 C   0  0  0  0  0  0  0  0  0  0  0  0
   -6.5540   23.0720  -29.7160 C   0  0  0  0  0  0  0  0  0  0  0  0
   -5.7370   24.5380  -31.5930 C   0  0  0  0  0  0  0  0  0  0  0  0
   -6.2970   25.5420  -29.3610 C   0  0  0  0  0  0  0  0  0  0  0  0
   -3.1000   23.2430  -30.5300 S   0  0  0  0  0  0  0  0  0  0  0  0
   -1.9490   23.5100  -29.3370 C   0  0  0  0  0  0  0  0  0  0  0  0
   -0.7700   23.0680  -29.3820 O   0  0  0  0  0  0  0  0  0  0  0  0
   -1.5330   25.9840  -26.8480 C   0  0  0  0  0  0  0  0  0  0  0  0
   -0.8240   26.3380  -25.7040 C   0  0  0  0  0  0  0  0  0  0  0  0
   -0.4410   27.8740  -25.1400 S   0  0  0  0  0  0  0  0  0  0  0  0
    1.6041   30.5724  -23.0840 H   0  0  0  0  0  0  0  0  0  0  0  0
    2.3033   29.4525  -24.3021 H   0  0  0  0  0  0  0  0  0  0  0  0
    0.5393   29.7919  -24.3021 H   0  0  0  0  0  0  0  0  0  0  0  0
    0.8010   25.3240  -23.0180 H   0  0  0  0  0  0  0  0  0  0  0  0
   -0.0844   23.2737  -24.3991 H   0  0  0  0  0  0  0  0  0  0  0  0
   -1.3462   22.5751  -26.4523 H   0  0  0  0  0  0  0  0  0  0  0  0
   -6.6208   22.9749  -28.6223 H   0  0  0  0  0  0  0  0  0  0  0  0
   -7.5639   23.1889  -30.1361 H   0  0  0  0  0  0  0  0  0  0  0  0
   -6.0842   22.1705  -30.1361 H   0  0  0  0  0  0  0  0  0  0  0  0
   -5.8898   25.6078  -31.7983 H   0  0  0  0  0  0  0  0  0  0  0  0
   -4.7833   24.2126  -32.0340 H   0  0  0  0  0  0  0  0  0  0  0  0
   -6.5615   23.9586  -32.0340 H   0  0  0  0  0  0  0  0  0  0  0  0
   -6.2314   25.4053  -28.2715 H   0  0  0  0  0  0  0  0  0  0  0  0
   -5.7315   26.4393  -29.6527 H   0  0  0  0  0  0  0  0  0  0  0  0
   -7.3508   25.6618  -29.6527 H   0  0  0  0  0  0  0  0  0  0  0  0
   -1.9230   26.7555  -27.5282 H   0  0  0  0  0  0  0  0  0  0  0  0
  1  2  1  0
  2  3  1  0
  3  4  2  0
  4  5  1  0
  5  6  2  0
  6  7  1  0
  7  8  2  0
  8  9  1  0
  9 10  1  0
 10 11  2  0
 11 12  1  0
 12 13  1  0
 12 14  1  0
 12 15  1  0
 11 16  1  0
 16 17  1  0
 17 18  2  0
  8 19  1  0
 19 20  2  0
 20 21  1  0
 21  3  1  0
 20  5  1  0
 17  9  1  0
  1 22  1  0
  1 23  1  0
  1 24  1  0
  4 25  1  0
  6 26  1  0
  7 27  1  0
 13 28  1  0
 13 29  1  0
 13 30  1  0
 14 31  1  0
 14 32  1  0
 14 33  1  0
 15 34  1  0
 15 35  1  0
 15 36  1  0
 19 37  1  0
M  CHG  1   4   1
M  END
>  <UniqueID>  (16) 
16

>  <SMILES>  (16) 
CSc1[nH+]c2ccc(-n3nc(C(C)(C)C)sc3=O)cc2s1

>  <Energy>  (16) 
103.95490264979098

>  <Genealogy>  (16) 
CSc1[nH+]c2ccc(-n3nc(C(C)(C)C)sc3=O)cc2s1 (protonated)
CSc1[nH+]c2ccc(-n3nc(C(C)(C)C)sc3=O)cc2s1 (3D coordinates assigned)
CSc1[nH+]c2ccc(-n3nc(C(C)(C)C)sc3=O)cc2s1 (optimized conformer: 103.95490264979098 kcal/mol)

>  <smiles>  (16) 
CSc1nc2ccc(-n3nc(C(C)(C)C)sc3=O)cc2s1

>  <score_type>  (16) 
oracle

>  <origin>  (16) 
adg

>  <m_score__min__energy>  (16) 
-7.3399999999999999

>  <m_primary>  (16) 
energy

$$$$
16:0
     RDKit          3D

 46 49  0  0  1  0  0  0  0  0999 V2000
   -0.2120   21.0190  -33.2780 C   0  0  0  0  0  0  0  0  0  0  0  0
   -0.7870   21.4920  -32.1230 C   0  0  0  0  0  0  0  0  0  0  0  0
   -2.1480   21.4170  -31.9270 C   0  0  0  0  0  0  0  0  0  0  0  0
   -2.9440   20.8590  -32.9040 C   0  0  0  0  0  0  0  0  0  0  0  0
   -4.3920   20.7550  -32.7410 C   0  0  0  0  0  0  0  0  0  0  0  0
   -5.1100   21.8990  -32.6530 N   0  0  0  0  0  0  0  0  0  0  0  0
   -6.4420   21.8100  -32.5070 C   0  0  0  0  0  0  0  0  0  0  0  0
   -7.1410   22.8780  -32.4250 N   0  0  0  0  0  0  0  0  0  0  0  0
   -7.6040   23.4590  -31.1630 C   0  0  0  0  0  0  0  0  0  0  0  0
   -6.7340   22.8490  -30.0920 C   0  0  0  0  0  0  0  0  0  0  0  0
   -6.0860   23.8930  -29.3440 N   0  0  0  0  0  0  0  0  0  0  0  0
   -6.3650   25.2090  -29.7550 C   0  0  0  0  0  0  0  0  0  0  0  0
   -5.3420   25.8540  -30.6320 C   0  0  0  0  0  0  0  0  0  0  0  0
   -4.1110   25.2740  -30.6920 O   0  0  0  0  0  0  0  0  0  0  0  0
   -4.0100   23.9370  -30.4600 C   0  0  0  0  0  0  0  0  0  0  0  0
   -4.6780   23.6240  -29.1290 C   0  0  0  0  0  0  0  0  0  0  0  0
   -7.1160   20.6070  -32.4420 C   0  0  0  0  0  0  0  0  0  0  0  0
   -8.4860   20.5670  -32.2930 C   0  0  0  0  0  0  0  0  0  0  0  0
   -9.1370   19.3530  -32.2340 C   0  0  0  0  0  0  0  0  0  0  0  0
   -8.3880   18.1780  -32.3250 C   0  0  0  0  0  0  0  0  0  0  0  0
   -7.0020   18.2260  -32.4740 C   0  0  0  0  0  0  0  0  0  0  0  0
   -6.3630   19.4570  -32.5340 C   0  0  0  0  0  0  0  0  0  0  0  0
   -5.0160   19.5570  -32.6800 N   0  0  0  0  0  0  0  0  0  0  0  0
   -2.3480   20.4110  -34.0150 N   0  0  0  0  0  0  0  0  0  0  0  0
   -1.0320   20.4560  -34.2620 C   0  0  0  0  0  0  0  0  0  0  0  0
    0.8761   21.0820  -33.4266 H   0  0  0  0  0  0  0  0  0  0  0  0
   -0.1509   21.9370  -31.3437 H   0  0  0  0  0  0  0  0  0  0  0  0
   -2.5963   21.7994  -30.9981 H   0  0  0  0  0  0  0  0  0  0  0  0
   -7.4854   24.5525  -31.1774 H   0  0  0  0  0  0  0  0  0  0  0  0
   -8.6702   23.2533  -30.9873 H   0  0  0  0  0  0  0  0  0  0  0  0
   -7.3561   22.2455  -29.4147 H   0  0  0  0  0  0  0  0  0  0  0  0
   -5.9722   22.2088  -30.5609 H   0  0  0  0  0  0  0  0  0  0  0  0
   -7.3179   25.1947  -30.3044 H   0  0  0  0  0  0  0  0  0  0  0  0
   -6.3846   25.8088  -28.8331 H   0  0  0  0  0  0  0  0  0  0  0  0
   -5.7481   25.8721  -31.6541 H   0  0  0  0  0  0  0  0  0  0  0  0
   -5.1657   26.8407  -30.1790 H   0  0  0  0  0  0  0  0  0  0  0  0
   -4.5119   23.3819  -31.2662 H   0  0  0  0  0  0  0  0  0  0  0  0
   -2.9514   23.6397  -30.4286 H   0  0  0  0  0  0  0  0  0  0  0  0
   -4.5229   22.5695  -28.8570 H   0  0  0  0  0  0  0  0  0  0  0  0
   -4.2631   24.2254  -28.3067 H   0  0  0  0  0  0  0  0  0  0  0  0
   -9.0594   21.5030  -32.2212 H   0  0  0  0  0  0  0  0  0  0  0  0
  -10.2299   19.3107  -32.1170 H   0  0  0  0  0  0  0  0  0  0  0  0
   -8.8967   17.2038  -32.2787 H   0  0  0  0  0  0  0  0  0  0  0  0
   -6.4196   17.2954  -32.5434 H   0  0  0  0  0  0  0  0  0  0  0  0
   -4.5100   18.6470  -32.7420 H   0  0  0  0  0  0  0  0  0  0  0  0
   -0.6128   20.0658  -35.2012 H   0  0  0  0  0  0  0  0  0  0  0  0
  1  2  2  0
  2  3  1  0
  3  4  2  0
  4  5  1  0
  5  6  2  0
  6  7  1  0
  7  8  2  0
  8  9  1  0
  9 10  1  0
 10 11  1  0
 11 12  1  0
 12 13  1  0
 13 14  1  0
 14 15  1  0
 15 16  1  0
  7 17  1  0
 17 18  2  0
 18 19  1  0
 19 20  2  0
 20 21  1  0
 21 22  2  0
 22 23  1  0
  4 24  1  0
 24 25  2  0
 25  1  1  0
 23  5  1  0
 16 11  1  0
 22 17  1  0
  1 26  1  0
  2 27  1  0
  3 28  1  0
  9 29  1  0
  9 30  1  0
 10 31  1  0
 10 32  1  0
 12 33  1  0
 12 34  1  0
 13 35  1  0
 13 36  1  0
 15 37  1  0
 15 38  1  0
 16 39  1  0
 16 40  1  0
 18 41  1  0
 19 42  1  0
 20 43  1  0
 21 44  1  0
 23 45  1  0
 25 46  1  0
M  END
>  <smiles>  (17) 
c1ccc(-c2nc(=NCCN3CCOCC3)c3ccccc3[nH]2)nc1

>  <score_type>  (17) 
oracle

>  <origin>  (17) 
adg

>  <m_score__min__energy>  (17) 
-8.8000000000000007

>  <m_primary>  (17) 
energy

$$$$
17:0
     RDKit          3D

 29 31  0  0  0  0  0  0  0  0999 V2000
   -5.7340   25.7140  -30.0680 C   0  0  0  0  0  0  0  0  0  0  0  0
   -4.7690   25.0100  -30.8450 O   0  0  0  0  0  0  0  0  0  0  0  0
   -4.9400   23.7050  -31.3260 C   0  0  0  0  0  0  0  0  0  0  0  0
   -3.9070   22.7510  -31.3060 C   0  0  0  0  0  0  0  0  0  0  0  0
   -4.1260   21.4610  -31.7990 C   0  0  0  0  0  0  0  0  0  0  0  0
   -5.3810   21.0970  -32.3200 C   0  0  0  0  0  0  0  0  0  0  0  0
   -5.6150   19.7270  -32.8430 C   0  0  0  0  0  0  0  0  0  0  0  0
   -6.7840   18.9640  -32.6640 C   0  0  0  0  0  0  0  0  0  0  0  0
   -6.5460   17.8100  -33.2940 N   0  0  0  0  0  0  0  0  0  0  0  0
   -7.2260   16.6860  -33.4540 N   0  0  0  0  0  0  0  0  0  0  0  0
   -6.4750   15.8090  -34.1780 C   0  0  0  0  0  0  0  0  0  0  0  0
   -6.9210   14.4210  -34.4860 C   0  0  0  0  0  0  0  0  0  0  0  0
   -4.9220   16.4360  -34.5890 S   0  0  0  0  0  0  0  0  0  0  0  0
   -5.3450   17.8580  -33.8090 C   0  0  0  0  0  0  0  0  0  0  0  0
   -4.7040   19.0120  -33.5710 N   0  0  0  0  0  0  0  0  0  0  0  0
   -6.4110   22.0550  -32.3340 C   0  0  0  0  0  0  0  0  0  0  0  0
   -6.1890   23.3440  -31.8430 C   0  0  0  0  0  0  0  0  0  0  0  0
   -5.5255   25.5619  -28.9987 H   0  0  0  0  0  0  0  0  0  0  0  0
   -5.6814   26.7874  -30.3027 H   0  0  0  0  0  0  0  0  0  0  0  0
   -6.7401   25.3362  -30.3027 H   0  0  0  0  0  0  0  0  0  0  0  0
   -2.9210   23.0212  -30.9002 H   0  0  0  0  0  0  0  0  0  0  0  0
   -3.3095   20.7241  -31.7793 H   0  0  0  0  0  0  0  0  0  0  0  0
   -7.6963   19.2548  -32.1226 H   0  0  0  0  0  0  0  0  0  0  0  0
   -7.0963   13.8754  -33.5471 H   0  0  0  0  0  0  0  0  0  0  0  0
   -7.8530   14.4563  -35.0691 H   0  0  0  0  0  0  0  0  0  0  0  0
   -6.1429   13.9067  -35.0691 H   0  0  0  0  0  0  0  0  0  0  0  0
   -3.7470   19.2800  -33.8840 H   0  0  0  0  0  0  0  0  0  0  0  0
   -7.3996   21.7869  -32.7349 H   0  0  0  0  0  0  0  0  0  0  0  0
   -7.0042   24.0823  -31.8631 H   0  0  0  0  0  0  0  0  0  0  0  0
  1  2  1  0
  2  3  1  0
  3  4  2  0
  4  5  1  0
  5  6  2  0
  6  7  1  0
  7  8  2  0
  8  9  1  0
  9 10  1  0
 10 11  2  0
 11 12  1  0
 11 13  1  0
 13 14  1  0
 14 15  2  0
  6 16  1  0
 16 17  2  0
 17  3  1  0
 15  7  1  0
 14  9  1  0
  1 18  1  0
  1 19  1  0
  1 20  1  0
  4 21  1  0
  5 22  1  0
  8 23  1  0
 12 24  1  0
 12 25  1  0
 12 26  1  0
 15 27  1  0
 16 28  1  0
 17 29  1  0
M  CHG  1  15   1
M  END
>  <UniqueID>  (18) 
17

>  <SMILES>  (18) 
COc1ccc(-c2cn3nc(C)sc3[nH+]2)cc1

>  <Energy>  (18) 
116.9133509965067

>  <Genealogy>  (18) 
COc1ccc(-c2cn3nc(C)sc3[nH+]2)cc1 (protonated)
COc1ccc(-c2cn3nc(C)sc3[nH+]2)cc1 (3D coordinates assigned)
COc1ccc(-c2cn3nc(C)sc3[nH+]2)cc1 (optimized conformer: 116.9133509965067 kcal/mol)

>  <smiles>  (18) 
COc1ccc(-c2cn3nc(C)sc3n2)cc1

>  <score_type>  (18) 
oracle

>  <origin>  (18) 
adg

>  <m_score__min__energy>  (18) 
-6.0599999999999996

>  <m_primary>  (18) 
energy

$$$$
18:0
     RDKit          3D

 34 36  0  0  0  0  0  0  0  0999 V2000
   -6.1360   16.7540  -33.9620 C   0  0  0  0  0  0  0  0  0  0  0  0
   -6.1110   18.0420  -34.5690 O   0  0  0  0  0  0  0  0  0  0  0  0
   -5.8980   19.2420  -33.8770 C   0  0  0  0  0  0  0  0  0  0  0  0
   -4.6150   19.6770  -33.5110 C   0  0  0  0  0  0  0  0  0  0  0  0
   -4.4620   20.8800  -32.8210 C   0  0  0  0  0  0  0  0  0  0  0  0
   -5.5880   21.6500  -32.4680 C   0  0  0  0  0  0  0  0  0  0  0  0
   -5.4920   22.9940  -31.7430 C   0  0  1  0  0  0  0  0  0  0  0  0
   -6.7660   23.2700  -30.8670 C   0  0  0  0  0  0  0  0  0  0  0  0
   -6.5330   24.2470  -29.7180 C   0  0  0  0  0  0  0  0  0  0  0  0
   -5.2740   24.3940  -29.2590 C   0  0  0  0  0  0  0  0  0  0  0  0
   -4.7410   23.1910  -28.5280 C   0  0  0  0  0  0  0  0  0  0  0  0
   -4.1170   22.3370  -29.6460 C   0  0  0  0  0  0  0  0  0  0  0  0
   -4.1750   23.2230  -30.9180 C   0  0  2  0  0  0  0  0  0  0  0  0
   -4.2440   24.6220  -30.3190 C   0  0  0  0  0  0  0  0  0  0  0  0
   -3.0270   24.9920  -29.7660 F   0  0  0  0  0  0  0  0  0  0  0  0
   -4.6330   25.5940  -31.2320 F   0  0  0  0  0  0  0  0  0  0  0  0
   -6.8500   21.1850  -32.8830 C   0  0  0  0  0  0  0  0  0  0  0  0
   -6.9760   20.0100  -33.5560 N   0  0  0  0  0  0  0  0  0  0  0  0
   -6.1339   16.8643  -32.8676 H   0  0  0  0  0  0  0  0  0  0  0  0
   -7.0447   16.2188  -34.2748 H   0  0  0  0  0  0  0  0  0  0  0  0
   -5.2488   16.1840  -34.2748 H   0  0  0  0  0  0  0  0  0  0  0  0
   -3.7330   19.0717  -33.7672 H   0  0  0  0  0  0  0  0  0  0  0  0
   -3.4548   21.2299  -32.5506 H   0  0  0  0  0  0  0  0  0  0  0  0
   -5.4447   23.7355  -32.5541 H   0  0  0  0  0  0  0  0  0  0  0  0
   -7.5500   23.6836  -31.5184 H   0  0  0  0  0  0  0  0  0  0  0  0
   -7.0529   22.3098  -30.4134 H   0  0  0  0  0  0  0  0  0  0  0  0
   -7.3667   24.8138  -29.2779 H   0  0  0  0  0  0  0  0  0  0  0  0
   -3.9820   23.4852  -27.7881 H   0  0  0  0  0  0  0  0  0  0  0  0
   -5.5176   22.6549  -27.9628 H   0  0  0  0  0  0  0  0  0  0  0  0
   -3.0753   22.0826  -29.4007 H   0  0  0  0  0  0  0  0  0  0  0  0
   -4.6527   21.3862  -29.7835 H   0  0  0  0  0  0  0  0  0  0  0  0
   -3.3356   23.0233  -31.6003 H   0  0  0  0  0  0  0  0  0  0  0  0
   -7.7474   21.7807  -32.6597 H   0  0  0  0  0  0  0  0  0  0  0  0
   -7.9300   19.6920  -33.8390 H   0  0  0  0  0  0  0  0  0  0  0  0
  1  2  1  0
  2  3  1  0
  3  4  2  0
  4  5  1  0
  5  6  2  0
  6  7  1  0
  7  8  1  0
  8  9  1  0
  9 10  2  0
 10 11  1  0
 11 12  1  0
 12 13  1  0
 13 14  1  0
 14 15  1  0
 14 16  1  0
  6 17  1  0
 17 18  2  0
 18  3  1  0
 13  7  1  0
 14 10  1  0
  1 19  1  0
  1 20  1  0
  1 21  1  0
  4 22  1  0
  5 23  1  0
  7 24  1  6
  8 25  1  0
  8 26  1  0
  9 27  1  0
 11 28  1  0
 11 29  1  0
 12 30  1  0
 12 31  1  0
 13 32  1  6
 17 33  1  0
 18 34  1  0
M  CHG  1  18   1
M  END
>  <UniqueID>  (19) 
18

>  <SMILES>  (19) 
COc1ccc([C@H]2CC=C3CC[C@@H]2C3(F)F)c[nH+]1

>  <Energy>  (19) 
91.78726688016718

>  <Genealogy>  (19) 
COc1ccc(C2CC=C3CCC2C3(F)F)c[nH+]1 (protonated)
COc1ccc([C@H]2CC=C3CC[C@@H]2C3(F)F)c[nH+]1 (chirality)
COc1ccc([C@H]2CC=C3CC[C@@H]2C3(F)F)c[nH+]1 (3D coordinates assigned)
COc1ccc([C@H]2CC=C3CC[C@@H]2C3(F)F)c[nH+]1 (nonaromatic ring conformer: 91.78726688016718 kcal/mol)

>  <smiles>  (19) 
COc1ccc(C2CC=C3CCC2C3(F)F)cn1

>  <score_type>  (19) 
oracle

>  <origin>  (19) 
adg

>  <m_score__min__energy>  (19) 
-6.3799999999999999

>  <m_primary>  (19) 
energy

$$$$
19:0
     RDKit          3D

 38 38  0  0  0  0  0  0  0  0999 V2000
   -8.1820   22.6980  -31.7850 C   0  0  0  0  0  0  0  0  0  0  0  0
   -9.0500   21.5610  -31.2470 C   0  0  0  0  0  0  0  0  0  0  0  0
   -8.6880   20.1950  -31.8690 C   0  0  0  0  0  0  0  0  0  0  0  0
   -7.7280   20.2940  -33.0690 C   0  0  0  0  0  0  0  0  0  0  0  0
   -6.6090   19.2350  -33.0950 C   0  0  0  0  0  0  0  0  0  0  0  0
   -5.2130   19.7940  -33.4150 C   0  0  0  0  0  0  0  0  0  0  0  0
   -4.8940   21.0090  -32.5970 C   0  0  0  0  0  0  0  0  0  0  0  0
   -4.9980   21.1370  -31.2280 C   0  0  0  0  0  0  0  0  0  0  0  0
   -4.7060   22.4220  -30.9490 N   0  0  0  0  0  0  0  0  0  0  0  0
   -4.7730   23.0650  -29.6410 C   0  0  0  0  0  0  0  0  0  0  0  0
   -3.6640   24.1130  -29.5000 C   0  0  0  0  0  0  0  0  0  0  0  0
   -3.8740   25.2090  -30.4530 N   0  0  0  0  0  0  0  0  0  0  0  0
   -5.3030   25.4980  -30.5870 C   0  0  0  0  0  0  0  0  0  0  0  0
   -4.4590   23.0590  -32.0830 N   0  0  0  0  0  0  0  0  0  0  0  0
   -4.5620   22.2140  -33.0970 N   0  0  0  0  0  0  0  0  0  0  0  0
   -7.7522   23.2610  -30.9434 H   0  0  0  0  0  0  0  0  0  0  0  0
   -7.3706   22.2807  -32.3994 H   0  0  0  0  0  0  0  0  0  0  0  0
   -8.7984   23.3707  -32.3994 H   0  0  0  0  0  0  0  0  0  0  0  0
   -8.9146   21.4993  -30.1571 H   0  0  0  0  0  0  0  0  0  0  0  0
  -10.0940   21.7831  -31.5131 H   0  0  0  0  0  0  0  0  0  0  0  0
   -8.2120   19.5762  -31.0941 H   0  0  0  0  0  0  0  0  0  0  0  0
   -9.6242   19.7547  -32.2428 H   0  0  0  0  0  0  0  0  0  0  0  0
   -8.3203   20.1877  -33.9898 H   0  0  0  0  0  0  0  0  0  0  0  0
   -7.2270   21.2695  -32.9830 H   0  0  0  0  0  0  0  0  0  0  0  0
   -6.5684   18.7530  -32.1071 H   0  0  0  0  0  0  0  0  0  0  0  0
   -6.8594   18.5335  -33.9044 H   0  0  0  0  0  0  0  0  0  0  0  0
   -4.4627   19.0174  -33.2051 H   0  0  0  0  0  0  0  0  0  0  0  0
   -5.1982   20.0849  -34.4757 H   0  0  0  0  0  0  0  0  0  0  0  0
   -5.2655   20.3488  -30.5089 H   0  0  0  0  0  0  0  0  0  0  0  0
   -5.7510   23.5557  -29.5287 H   0  0  0  0  0  0  0  0  0  0  0  0
   -4.6404   22.3001  -28.8617 H   0  0  0  0  0  0  0  0  0  0  0  0
   -3.6733   24.5156  -28.4764 H   0  0  0  0  0  0  0  0  0  0  0  0
   -2.6943   23.6378  -29.7096 H   0  0  0  0  0  0  0  0  0  0  0  0
   -3.5270   24.8970  -31.3900 H   0  0  0  0  0  0  0  0  0  0  0  0
   -5.7539   25.5892  -29.5878 H   0  0  0  0  0  0  0  0  0  0  0  0
   -5.4363   26.4413  -31.1369 H   0  0  0  0  0  0  0  0  0  0  0  0
   -5.7924   24.6806  -31.1369 H   0  0  0  0  0  0  0  0  0  0  0  0
   -4.4340   22.4700  -34.1010 H   0  0  0  0  0  0  0  0  0  0  0  0
  1  2  1  0
  2  3  1  0
  3  4  1  0
  4  5  1  0
  5  6  1  0
  6  7  1  0
  7  8  2  0
  8  9  1  0
  9 10  1  0
 10 11  1  0
 11 12  1  0
 12 13  1  0
  9 14  1  0
 14 15  2  0
 15  7  1  0
  1 16  1  0
  1 17  1  0
  1 18  1  0
  2 19  1  0
  2 20  1  0
  3 21  1  0
  3 22  1  0
  4 23  1  0
  4 24  1  0
  5 25  1  0
  5 26  1  0
  6 27  1  0
  6 28  1  0
  8 29  1  0
 10 30  1  0
 10 31  1  0
 11 32  1  0
 11 33  1  0
 12 34  1  0
 13 35  1  0
 13 36  1  0
 13 37  1  0
 15 38  1  0
M  CHG  1  15   1
M  END
>  <UniqueID>  (20) 
19

>  <SMILES>  (20) 
CCCCCCc1cn(CCNC)n[nH+]1

>  <Energy>  (20) 
57.676546509271176

>  <Genealogy>  (20) 
CCCCCCc1cn(CCNC)n[nH+]1 (protonated)
CCCCCCc1cn(CCNC)n[nH+]1 (3D coordinates assigned)
CCCCCCc1cn(CCNC)n[nH+]1 (optimized conformer: 57.676546509271176 kcal/mol)

>  <smiles>  (20) 
CCCCCCc1cn(CCNC)nn1

>  <score_type>  (20) 
oracle

>  <origin>  (20) 
adg

>  <m_score__min__energy>  (20) 
-6.0199999999999996

>  <m_primary>  (20) 
energy

$$$$
20:0
     RDKit          3D

 69 73  0  0  0  0  0  0  0  0999 V2000
   -1.5630   12.5880  -31.7300 C   0  0  0  0  0  0  0  0  0  0  0  0
   -1.4860   13.4850  -32.9600 C   0  0  0  0  0  0  0  0  0  0  0  0
   -2.7390   14.2300  -33.1320 N   0  0  0  0  0  0  0  0  0  0  0  0
   -2.7730   15.4990  -32.7280 N   0  0  0  0  0  0  0  0  0  0  0  0
   -3.8590   16.2540  -32.8620 N   0  0  0  0  0  0  0  0  0  0  0  0
   -4.9930   15.7560  -33.4280 C   0  0  0  0  0  0  0  0  0  0  0  0
   -6.1450   16.5480  -33.5630 C   0  0  0  0  0  0  0  0  0  0  0  0
   -6.1950   17.8870  -33.0550 N   0  0  0  0  0  0  0  0  0  0  0  0
   -5.5150   18.9530  -33.8040 C   0  0  0  0  0  0  0  0  0  0  0  0
   -5.3890   20.2290  -32.9650 C   0  0  0  0  0  0  0  0  0  0  0  0
   -6.7550   20.6110  -32.3570 C   0  0  0  0  0  0  0  0  0  0  0  0
   -6.6770   21.8590  -31.5010 C   0  0  0  0  0  0  0  0  0  0  0  0
   -7.7470   22.4710  -31.2380 O   0  0  0  0  0  0  0  0  0  0  0  0
   -5.4320   22.3820  -30.9950 N   0  0  0  0  0  0  0  0  0  0  0  0
   -4.4730   21.5300  -30.2780 C   0  0  0  0  0  0  0  0  0  0  0  0
   -4.0650   22.1990  -28.9630 C   0  0  0  0  0  0  0  0  0  0  0  0
   -3.6890   23.5990  -29.1760 N   0  0  0  0  0  0  0  0  0  0  0  0
   -3.1530   24.3560  -28.0820 C   0  0  0  0  0  0  0  0  0  0  0  0
   -3.9330   24.5660  -26.9370 C   0  0  0  0  0  0  0  0  0  0  0  0
   -3.4250   25.2970  -25.8620 C   0  0  0  0  0  0  0  0  0  0  0  0
   -2.1290   25.8170  -25.9230 C   0  0  0  0  0  0  0  0  0  0  0  0
   -1.3400   25.6070  -27.0580 C   0  0  0  0  0  0  0  0  0  0  0  0
   -1.8460   24.8730  -28.1500 C   0  0  0  0  0  0  0  0  0  0  0  0
   -1.0810   24.6290  -29.3030 O   0  0  0  0  0  0  0  0  0  0  0  0
   -0.5560   23.3550  -29.6660 C   0  0  0  0  0  0  0  0  0  0  0  0
   -3.8400   24.2270  -30.4960 C   0  0  0  0  0  0  0  0  0  0  0  0
   -5.1870   23.8280  -31.1120 C   0  0  0  0  0  0  0  0  0  0  0  0
   -7.4570   19.4370  -31.6170 C   0  0  0  0  0  0  0  0  0  0  0  0
   -6.6750   18.1190  -31.6890 C   0  0  0  0  0  0  0  0  0  0  0  0
   -7.2390   16.0350  -34.1760 N   0  0  0  0  0  0  0  0  0  0  0  0
   -7.2610   14.7880  -34.6400 N   0  0  0  0  0  0  0  0  0  0  0  0
   -6.1950   13.9520  -34.5270 C   0  0  0  0  0  0  0  0  0  0  0  0
   -6.3470   12.5630  -35.0780 C   0  0  0  0  0  0  0  0  0  0  0  0
   -5.0070   14.4290  -33.9050 C   0  0  0  0  0  0  0  0  0  0  0  0
   -3.8300   13.6650  -33.7350 C   0  0  0  0  0  0  0  0  0  0  0  0
   -3.7710   12.4690  -34.1310 O   0  0  0  0  0  0  0  0  0  0  0  0
   -1.5099   13.2060  -30.8216 H   0  0  0  0  0  0  0  0  0  0  0  0
   -2.5122   12.0321  -31.7404 H   0  0  0  0  0  0  0  0  0  0  0  0
   -0.7225   11.8785  -31.7404 H   0  0  0  0  0  0  0  0  0  0  0  0
   -0.6558   14.1962  -32.8380 H   0  0  0  0  0  0  0  0  0  0  0  0
   -1.3203   12.8576  -33.8482 H   0  0  0  0  0  0  0  0  0  0  0  0
   -3.8100   17.2430  -32.5330 H   0  0  0  0  0  0  0  0  0  0  0  0
   -4.5090   18.6080  -34.0849 H   0  0  0  0  0  0  0  0  0  0  0  0
   -6.1113   19.1833  -34.6992 H   0  0  0  0  0  0  0  0  0  0  0  0
   -4.6660   20.0592  -32.1536 H   0  0  0  0  0  0  0  0  0  0  0  0
   -5.0452   21.0490  -33.6126 H   0  0  0  0  0  0  0  0  0  0  0  0
   -7.3996   20.8486  -33.2161 H   0  0  0  0  0  0  0  0  0  0  0  0
   -4.9389   20.5569  -30.0632 H   0  0  0  0  0  0  0  0  0  0  0  0
   -3.5797   21.3841  -30.9030 H   0  0  0  0  0  0  0  0  0  0  0  0
   -4.9112   22.1573  -28.2614 H   0  0  0  0  0  0  0  0  0  0  0  0
   -3.1959   21.6629  -28.5541 H   0  0  0  0  0  0  0  0  0  0  0  0
   -4.9510   24.1526  -26.8851 H   0  0  0  0  0  0  0  0  0  0  0  0
   -4.0437   25.4637  -24.9679 H   0  0  0  0  0  0  0  0  0  0  0  0
   -1.7287   26.3930  -25.0757 H   0  0  0  0  0  0  0  0  0  0  0  0
   -0.3198   26.0164  -27.0991 H   0  0  0  0  0  0  0  0  0  0  0  0
   -0.3202   22.7829  -28.7565 H   0  0  0  0  0  0  0  0  0  0  0  0
   -1.3016   22.8071  -30.2608 H   0  0  0  0  0  0  0  0  0  0  0  0
    0.3592   23.4915  -30.2608 H   0  0  0  0  0  0  0  0  0  0  0  0
   -3.7985   25.3208  -30.3866 H   0  0  0  0  0  0  0  0  0  0  0  0
   -3.0260   23.8883  -31.1538 H   0  0  0  0  0  0  0  0  0  0  0  0
   -5.9911   24.3690  -30.5917 H   0  0  0  0  0  0  0  0  0  0  0  0
   -5.1652   24.0867  -32.1809 H   0  0  0  0  0  0  0  0  0  0  0  0
   -7.5779   19.7137  -30.5593 H   0  0  0  0  0  0  0  0  0  0  0  0
   -8.4233   19.2697  -32.1152 H   0  0  0  0  0  0  0  0  0  0  0  0
   -5.8146   18.1696  -31.0055 H   0  0  0  0  0  0  0  0  0  0  0  0
   -7.3392   17.2920  -31.3974 H   0  0  0  0  0  0  0  0  0  0  0  0
   -6.4255   11.8457  -34.2477 H   0  0  0  0  0  0  0  0  0  0  0  0
   -7.2562   12.5107  -35.6949 H   0  0  0  0  0  0  0  0  0  0  0  0
   -5.4706   12.3153  -35.6949 H   0  0  0  0  0  0  0  0  0  0  0  0
  1  2  1  0
  2  3  1  0
  3  4  1  0
  4  5  2  0
  5  6  1  0
  6  7  2  0
  7  8  1  0
  8  9  1  0
  9 10  1  0
 10 11  1  0
 11 12  1  0
 12 13  2  0
 12 14  1  0
 14 15  1  0
 15 16  1  0
 16 17  1  0
 17 18  1  0
 18 19  2  0
 19 20  1  0
 20 21  2  0
 21 22  1  0
 22 23  2  0
 23 24  1  0
 24 25  1  0
 17 26  1  0
 26 27  1  0
 11 28  1  0
 28 29  1  0
  7 30  1  0
 30 31  2  0
 31 32  1  0
 32 33  1  0
 32 34  2  0
 34 35  1  0
 35 36  2  0
 35  3  1  0
 34  6  1  0
 29  8  1  0
 27 14  1  0
 23 18  1  0
  1 37  1  0
  1 38  1  0
  1 39  1  0
  2 40  1  0
  2 41  1  0
  5 42  1  0
  9 43  1  0
  9 44  1  0
 10 45  1  0
 10 46  1  0
 11 47  1  0
 15 48  1  0
 15 49  1  0
 16 50  1  0
 16 51  1  0
 19 52  1  0
 20 53  1  0
 21 54  1  0
 22 55  1  0
 25 56  1  0
 25 57  1  0
 25 58  1  0
 26 59  1  0
 26 60  1  0
 27 61  1  0
 27 62  1  0
 28 63  1  0
 28 64  1  0
 29 65  1  0
 29 66  1  0
 33 67  1  0
 33 68  1  0
 33 69  1  0
M  CHG  1   5   1
M  END
>  <UniqueID>  (21) 
20

>  <SMILES>  (21) 
CCn1n[nH+]c2c(N3CCC(C(=O)N4CCN(c5ccccc5OC)CC4)CC3)nnc(C)c2c1=O

>  <Energy>  (21) 
95.97283231241644

>  <Genealogy>  (21) 
CCn1n[nH+]c2c(N3CCC(C(=O)N4CCN(c5ccccc5OC)CC4)CC3)nnc(C)c2c1=O (protonated)
CCn1n[nH+]c2c(N3CCC(C(=O)N4CCN(c5ccccc5OC)CC4)CC3)nnc(C)c2c1=O (3D coordinates assigned)
CCn1n[nH+]c2c(N3CCC(C(=O)N4CCN(c5ccccc5OC)CC4)CC3)nnc(C)c2c1=O (nonaromatic ring conformer: 95.97283231241644 kcal/mol)

>  <smiles>  (21) 
CCn1nnc2c(N3CCC(C(=O)N4CCN(c5ccccc5OC)CC4)CC3)nnc(C)c2c1=O

>  <score_type>  (21) 
oracle

>  <origin>  (21) 
adg

>  <m_score__min__energy>  (21) 
-9.1199999999999992

>  <m_primary>  (21) 
energy

$$$$
21:0
     RDKit          3D

 29 31  0  0  0  0  0  0  0  0999 V2000
   -1.2510   25.2970  -28.6410 C   0  0  0  0  0  0  0  0  0  0  0  0
   -2.5450   24.5580  -28.7660 C   0  0  0  0  0  0  0  0  0  0  0  0
   -2.8680   23.5350  -27.8640 C   0  0  0  0  0  0  0  0  0  0  0  0
   -4.0840   22.8640  -27.9970 C   0  0  0  0  0  0  0  0  0  0  0  0
   -4.9660   23.2190  -29.0190 C   0  0  0  0  0  0  0  0  0  0  0  0
   -4.6160   24.2510  -29.8970 C   0  0  0  0  0  0  0  0  0  0  0  0
   -5.7300   24.7400  -31.2090 S   0  0  0  0  0  0  0  0  0  0  0  0
   -5.8680   23.0660  -31.8310 C   0  0  0  0  0  0  0  0  0  0  0  0
   -4.7740   22.4190  -32.3300 N   0  0  0  0  0  0  0  0  0  0  0  0
   -4.8610   21.1410  -32.8240 C   0  0  0  0  0  0  0  0  0  0  0  0
   -6.0570   20.4780  -32.8280 N   0  0  0  0  0  0  0  0  0  0  0  0
   -7.1400   21.1200  -32.3260 C   0  0  0  0  0  0  0  0  0  0  0  0
   -7.0770   22.3810  -31.8340 C   0  0  0  0  0  0  0  0  0  0  0  0
   -8.3650   22.6870  -31.4420 C   0  0  0  0  0  0  0  0  0  0  0  0
   -9.1550   21.6170  -31.7100 N   0  0  0  0  0  0  0  0  0  0  0  0
   -8.3970   20.6620  -32.2400 N   0  0  0  0  0  0  0  0  0  0  0  0
   -8.8990   19.3790  -32.7170 C   0  0  0  0  0  0  0  0  0  0  0  0
   -3.4240   24.8900  -29.7520 N   0  0  0  0  0  0  0  0  0  0  0  0
   -1.0090   25.4352  -27.5769 H   0  0  0  0  0  0  0  0  0  0  0  0
   -0.4507   24.7198  -29.1271 H   0  0  0  0  0  0  0  0  0  0  0  0
   -1.3415   26.2796  -29.1271 H   0  0  0  0  0  0  0  0  0  0  0  0
   -2.1694   23.2637  -27.0588 H   0  0  0  0  0  0  0  0  0  0  0  0
   -4.3472   22.0567  -27.2977 H   0  0  0  0  0  0  0  0  0  0  0  0
   -5.9255   22.6934  -29.1330 H   0  0  0  0  0  0  0  0  0  0  0  0
   -3.9616   20.6465  -33.2197 H   0  0  0  0  0  0  0  0  0  0  0  0
   -8.6939   23.6346  -30.9904 H   0  0  0  0  0  0  0  0  0  0  0  0
   -9.1489   18.7404  -31.8569 H   0  0  0  0  0  0  0  0  0  0  0  0
   -9.7998   19.5416  -33.3270 H   0  0  0  0  0  0  0  0  0  0  0  0
   -8.1270   18.8871  -33.3270 H   0  0  0  0  0  0  0  0  0  0  0  0
  1  2  1  0
  2  3  2  0
  3  4  1  0
  4  5  2  0
  5  6  1  0
  6  7  1  0
  7  8  1  0
  8  9  2  0
  9 10  1  0
 10 11  2  0
 11 12  1  0
 12 13  2  0
 13 14  1  0
 14 15  2  0
 15 16  1  0
 16 17  1  0
  6 18  2  0
 18  2  1  0
 13  8  1  0
 16 12  1  0
  1 19  1  0
  1 20  1  0
  1 21  1  0
  3 22  1  0
  4 23  1  0
  5 24  1  0
 10 25  1  0
 14 26  1  0
 17 27  1  0
 17 28  1  0
 17 29  1  0
M  END
>  <UniqueID>  (22) 
21

>  <SMILES>  (22) 
Cc1cccc(Sc2ncnc3c2cnn3C)n1

>  <Energy>  (22) 
67.94404385361759

>  <Genealogy>  (22) 
Cc1cccc(Sc2ncnc3c2cnn3C)n1 (3D coordinates assigned)
Cc1cccc(Sc2ncnc3c2cnn3C)n1 (optimized conformer: 67.94404385361759 kcal/mol)

>  <smiles>  (22) 
Cc1cccc(Sc2ncnc3c2cnn3C)n1

>  <score_type>  (22) 
oracle

>  <origin>  (22) 
adg

>  <m_score__min__energy>  (22) 
-6.9000000000000004

>  <m_primary>  (22) 
energy

$$$$
22:0
     RDKit          3D

 47 50  0  0  0  0  0  0  0  0999 V2000
   -6.8490   14.8210  -34.2210 C   0  0  0  0  0  0  0  0  0  0  0  0
   -6.5910   16.2460  -34.0740 N   0  0  0  0  0  0  0  0  0  0  0  0
   -7.1350   17.0530  -33.1460 C   0  0  0  0  0  0  0  0  0  0  0  0
   -6.6930   18.3430  -33.3810 C   0  0  0  0  0  0  0  0  0  0  0  0
   -7.0280   19.5710  -32.6150 C   0  0  0  0  0  0  0  0  0  0  0  0
   -8.3640   19.8740  -32.3080 C   0  0  0  0  0  0  0  0  0  0  0  0
   -8.6810   21.0330  -31.6060 C   0  0  0  0  0  0  0  0  0  0  0  0
   -7.6740   21.9020  -31.1910 C   0  0  0  0  0  0  0  0  0  0  0  0
   -6.3160   21.6200  -31.4540 C   0  0  0  0  0  0  0  0  0  0  0  0
   -5.2480   22.6410  -30.9960 C   0  0  0  0  0  0  0  0  0  0  0  0
   -3.8790   22.1850  -31.5510 C   0  0  0  0  0  0  0  0  0  0  0  0
   -3.6340   21.9400  -32.9230 C   0  0  0  0  0  0  0  0  0  0  0  0
   -2.3810   21.4980  -33.3590 C   0  0  0  0  0  0  0  0  0  0  0  0
   -1.3550   21.2760  -32.4410 C   0  0  0  0  0  0  0  0  0  0  0  0
   -1.5810   21.4870  -31.0820 C   0  0  0  0  0  0  0  0  0  0  0  0
   -2.8290   21.9280  -30.6380 C   0  0  0  0  0  0  0  0  0  0  0  0
   -5.4770   24.0920  -31.5450 C   0  0  0  0  0  0  0  0  0  0  0  0
   -6.3610   24.9340  -30.6110 C   0  0  0  0  0  0  0  0  0  0  0  0
   -5.7330   25.1370  -29.2910 N   0  0  0  0  0  0  0  0  0  0  0  0
   -4.8700   24.0240  -28.8500 C   0  0  0  0  0  0  0  0  0  0  0  0
   -5.3170   22.6710  -29.4300 C   0  0  0  0  0  0  0  0  0  0  0  0
   -6.0140   20.4520  -32.1910 C   0  0  0  0  0  0  0  0  0  0  0  0
   -5.8770   18.2340  -34.5000 C   0  0  0  0  0  0  0  0  0  0  0  0
   -5.8410   16.9500  -34.9060 N   0  0  0  0  0  0  0  0  0  0  0  0
   -6.9326   14.3590  -33.2262 H   0  0  0  0  0  0  0  0  0  0  0  0
   -7.7884   14.6736  -34.7739 H   0  0  0  0  0  0  0  0  0  0  0  0
   -6.0209   14.3536  -34.7739 H   0  0  0  0  0  0  0  0  0  0  0  0
   -7.8144   16.7413  -32.3390 H   0  0  0  0  0  0  0  0  0  0  0  0
   -9.1657   19.1906  -32.6245 H   0  0  0  0  0  0  0  0  0  0  0  0
   -9.7319   21.2643  -31.3776 H   0  0  0  0  0  0  0  0  0  0  0  0
   -7.9413   22.8218  -30.6502 H   0  0  0  0  0  0  0  0  0  0  0  0
   -4.4390   22.0992  -33.6555 H   0  0  0  0  0  0  0  0  0  0  0  0
   -2.2039   21.3247  -34.4307 H   0  0  0  0  0  0  0  0  0  0  0  0
   -0.3688   20.9349  -32.7889 H   0  0  0  0  0  0  0  0  0  0  0  0
   -0.7737   21.3055  -30.3572 H   0  0  0  0  0  0  0  0  0  0  0  0
   -2.9987   22.0780  -29.5616 H   0  0  0  0  0  0  0  0  0  0  0  0
   -4.5012   24.5884  -31.6517 H   0  0  0  0  0  0  0  0  0  0  0  0
   -5.9923   24.0090  -32.5133 H   0  0  0  0  0  0  0  0  0  0  0  0
   -6.5354   25.9154  -31.0762 H   0  0  0  0  0  0  0  0  0  0  0  0
   -7.3064   24.3928  -30.4582 H   0  0  0  0  0  0  0  0  0  0  0  0
   -6.4960   25.2680  -28.5860 H   0  0  0  0  0  0  0  0  0  0  0  0
   -3.8391   24.2253  -29.1767 H   0  0  0  0  0  0  0  0  0  0  0  0
   -4.9397   23.9590  -27.7541 H   0  0  0  0  0  0  0  0  0  0  0  0
   -4.6617   21.8821  -29.0322 H   0  0  0  0  0  0  0  0  0  0  0  0
   -6.3649   22.5097  -29.1369 H   0  0  0  0  0  0  0  0  0  0  0  0
   -4.9661   20.2267  -32.4383 H   0  0  0  0  0  0  0  0  0  0  0  0
   -5.3429   19.0672  -34.9802 H   0  0  0  0  0  0  0  0  0  0  0  0
  1  2  1  0
  2  3  1  0
  3  4  2  0
  4  5  1  0
  5  6  2  0
  6  7  1  0
  7  8  2  0
  8  9  1  0
  9 10  1  0
 10 11  1  0
 11 12  2  0
 12 13  1  0
 13 14  2  0
 14 15  1  0
 15 16  2  0
 10 17  1  0
 17 18  1  0
 18 19  1  0
 19 20  1  0
 20 21  1  0
  9 22  2  0
  4 23  1  0
 23 24  2  0
 24  2  1  0
 22  5  1  0
 21 10  1  0
 16 11  1  0
  1 25  1  0
  1 26  1  0
  1 27  1  0
  3 28  1  0
  6 29  1  0
  7 30  1  0
  8 31  1  0
 12 32  1  0
 13 33  1  0
 14 34  1  0
 15 35  1  0
 16 36  1  0
 17 37  1  0
 17 38  1  0
 18 39  1  0
 18 40  1  0
 19 41  1  0
 20 42  1  0
 20 43  1  0
 21 44  1  0
 21 45  1  0
 22 46  1  0
 23 47  1  0
M  END
>  <UniqueID>  (23) 
22

>  <SMILES>  (23) 
Cn1cc(-c2cccc(C3(c4ccccc4)CCNCC3)c2)cn1

>  <Energy>  (23) 
101.07766236771387

>  <Genealogy>  (23) 
Cn1cc(-c2cccc(C3(c4ccccc4)CCNCC3)c2)cn1 (3D coordinates assigned)
Cn1cc(-c2cccc(C3(c4ccccc4)CCNCC3)c2)cn1 (nonaromatic ring conformer: 101.07766236771387 kcal/mol)

>  <smiles>  (23) 
Cn1cc(-c2cccc(C3(c4ccccc4)CCNCC3)c2)cn1

>  <score_type>  (23) 
oracle

>  <origin>  (23) 
adg

>  <m_score__min__energy>  (23) 
-8.9199999999999999

>  <m_primary>  (23) 
energy

$$$$
23:0
     RDKit          3D

 44 47  0  0  0  0  0  0  0  0999 V2000
   -3.9040   14.2090  -35.3490 C   0  0  0  0  0  0  0  0  0  0  0  0
   -4.1920   15.4720  -34.5950 C   0  0  0  0  0  0  0  0  0  0  0  0
   -4.7570   15.4170  -33.3110 C   0  0  0  0  0  0  0  0  0  0  0  0
   -4.9920   16.5940  -32.5940 C   0  0  0  0  0  0  0  0  0  0  0  0
   -4.6690   17.8380  -33.1520 C   0  0  0  0  0  0  0  0  0  0  0  0
   -4.8920   19.0680  -32.3780 C   0  0  0  0  0  0  0  0  0  0  0  0
   -3.8820   19.7690  -31.8070 N   0  0  0  0  0  0  0  0  0  0  0  0
   -4.3920   20.8500  -31.2290 N   0  0  0  0  0  0  0  0  0  0  0  0
   -3.6030   21.8180  -30.5110 C   0  0  0  0  0  0  0  0  0  0  0  0
   -2.3980   21.4270  -29.9040 C   0  0  0  0  0  0  0  0  0  0  0  0
   -1.6170   22.3550  -29.2100 C   0  0  0  0  0  0  0  0  0  0  0  0
   -2.0270   23.6900  -29.1150 C   0  0  0  0  0  0  0  0  0  0  0  0
   -1.0340   24.8610  -28.2540 S   0  0  0  0  0  0  0  0  0  0  0  0
   -1.2430   26.4250  -28.9580 N   0  0  0  0  0  0  0  0  0  0  0  0
   -1.4380   24.9070  -26.8080 O   0  0  0  0  0  0  0  0  0  0  0  0
    0.4130   24.4620  -28.3380 O   0  0  0  0  0  0  0  0  0  0  0  0
   -3.2160   24.0930  -29.7370 C   0  0  0  0  0  0  0  0  0  0  0  0
   -3.9990   23.1660  -30.4300 C   0  0  0  0  0  0  0  0  0  0  0  0
   -5.7260   20.8330  -31.4100 C   0  0  0  0  0  0  0  0  0  0  0  0
   -6.6080   21.7090  -30.9500 O   0  0  0  0  0  0  0  0  0  0  0  0
   -7.9110   21.5390  -31.1820 C   0  0  0  0  0  0  0  0  0  0  0  0
   -8.7360   22.3870  -30.7510 O   0  0  0  0  0  0  0  0  0  0  0  0
   -8.3730   20.4120  -31.8990 C   0  0  0  0  0  0  0  0  0  0  0  0
   -7.4480   19.4550  -32.3680 C   0  0  0  0  0  0  0  0  0  0  0  0
   -7.9280   18.2190  -33.0710 C   0  0  0  0  0  0  0  0  0  0  0  0
   -6.0920   19.7270  -32.1280 C   0  0  0  0  0  0  0  0  0  0  0  0
   -4.0630   17.8920  -34.4160 C   0  0  0  0  0  0  0  0  0  0  0  0
   -3.8280   16.7150  -35.1350 C   0  0  0  0  0  0  0  0  0  0  0  0
   -3.7176   13.3914  -34.6371 H   0  0  0  0  0  0  0  0  0  0  0  0
   -4.7672   13.9547  -35.9816 H   0  0  0  0  0  0  0  0  0  0  0  0
   -3.0159   14.3540  -35.9816 H   0  0  0  0  0  0  0  0  0  0  0  0
   -5.0158   14.4442  -32.8674 H   0  0  0  0  0  0  0  0  0  0  0  0
   -5.4324   16.5432  -31.5873 H   0  0  0  0  0  0  0  0  0  0  0  0
   -2.0661   20.3807  -29.9756 H   0  0  0  0  0  0  0  0  0  0  0  0
   -0.6769   22.0353  -28.7368 H   0  0  0  0  0  0  0  0  0  0  0  0
   -0.9230   26.3570  -29.9510 H   0  0  0  0  0  0  0  0  0  0  0  0
   -3.5347   25.1443  -29.6795 H   0  0  0  0  0  0  0  0  0  0  0  0
   -4.9308   23.4920  -30.9153 H   0  0  0  0  0  0  0  0  0  0  0  0
   -9.4483   20.2815  -32.0905 H   0  0  0  0  0  0  0  0  0  0  0  0
   -8.2211   17.4642  -32.3265 H   0  0  0  0  0  0  0  0  0  0  0  0
   -8.7946   18.4686  -33.7009 H   0  0  0  0  0  0  0  0  0  0  0  0
   -7.1201   17.8183  -33.7009 H   0  0  0  0  0  0  0  0  0  0  0  0
   -3.7716   18.8629  -34.8433 H   0  0  0  0  0  0  0  0  0  0  0  0
   -3.3561   16.7642  -36.1274 H   0  0  0  0  0  0  0  0  0  0  0  0
  1  2  1  0
  2  3  2  0
  3  4  1  0
  4  5  2  0
  5  6  1  0
  6  7  2  0
  7  8  1  0
  8  9  1  0
  9 10  2  0
 10 11  1  0
 11 12  2  0
 12 13  1  0
 13 14  1  0
 13 15  2  0
 13 16  2  0
 12 17  1  0
 17 18  2  0
  8 19  1  0
 19 20  1  0
 20 21  1  0
 21 22  2  0
 21 23  1  0
 23 24  2  0
 24 25  1  0
 24 26  1  0
  5 27  1  0
 27 28  2  0
 28  2  1  0
 26  6  1  0
 18  9  1  0
 26 19  2  0
  1 29  1  0
  1 30  1  0
  1 31  1  0
  3 32  1  0
  4 33  1  0
 10 34  1  0
 11 35  1  0
 14 36  1  0
 17 37  1  0
 18 38  1  0
 23 39  1  0
 25 40  1  0
 25 41  1  0
 25 42  1  0
 27 43  1  0
 28 44  1  0
M  CHG  1  14  -1
M  END
>  <UniqueID>  (24) 
23

>  <SMILES>  (24) 
Cc1ccc(-c2nn(-c3ccc(S([NH-])(=O)=O)cc3)c3oc(=O)cc(C)c23)cc1

>  <Energy>  (24) 
99.22064715948791

>  <Genealogy>  (24) 
Cc1ccc(-c2nn(-c3ccc(S([NH-])(=O)=O)cc3)c3oc(=O)cc(C)c23)cc1 (protonated)
Cc1ccc(-c2nn(-c3ccc(S([NH-])(=O)=O)cc3)c3oc(=O)cc(C)c23)cc1 (3D coordinates assigned)
Cc1ccc(-c2nn(-c3ccc(S([NH-])(=O)=O)cc3)c3oc(=O)cc(C)c23)cc1 (optimized conformer: 99.22064715948791 kcal/mol)

>  <smiles>  (24) 
Cc1ccc(-c2nn(-c3ccc(S(N)(=O)=O)cc3)c3oc(=O)cc(C)c23)cc1

>  <score_type>  (24) 
oracle

>  <origin>  (24) 
adg

>  <m_score__min__energy>  (24) 
-10.460000000000001

>  <m_primary>  (24) 
energy

$$$$
24:0
     RDKit          3D

 38 40  0  0  0  0  0  0  0  0999 V2000
   -0.8520   25.0380  -28.5920 C   0  0  0  0  0  0  0  0  0  0  0  0
   -2.3100   24.9070  -28.7900 N   0  0  0  0  0  0  0  0  0  0  0  0
   -2.9370   24.6890  -27.4700 C   0  0  0  0  0  0  0  0  0  0  0  0
   -2.6240   23.7870  -29.7190 C   0  0  1  0  0  0  0  0  0  0  0  0
   -2.3730   22.4420  -29.0720 C   0  0  0  0  0  0  0  0  0  0  0  0
   -1.2370   21.6880  -29.4070 C   0  0  0  0  0  0  0  0  0  0  0  0
   -1.0450   20.4370  -28.8150 C   0  0  0  0  0  0  0  0  0  0  0  0
   -1.9840   19.9470  -27.9070 C   0  0  0  0  0  0  0  0  0  0  0  0
   -3.1090   20.7170  -27.6050 C   0  0  0  0  0  0  0  0  0  0  0  0
   -3.2800   21.9320  -28.1910 N   0  0  0  0  0  0  0  0  0  0  0  0
   -4.0690   23.8140  -30.1470 C   0  0  0  0  0  0  0  0  0  0  0  0
   -4.7290   22.7230  -30.5910 N   0  0  0  0  0  0  0  0  0  0  0  0
   -6.0330   22.9860  -30.8890 C   0  0  0  0  0  0  0  0  0  0  0  0
   -6.9360   21.9250  -31.4070 C   0  0  0  0  0  0  0  0  0  0  0  0
   -8.3330   22.0850  -31.3080 C   0  0  0  0  0  0  0  0  0  0  0  0
   -9.1980   21.1000  -31.7910 C   0  0  0  0  0  0  0  0  0  0  0  0
   -8.6850   19.9440  -32.3810 C   0  0  0  0  0  0  0  0  0  0  0  0
   -9.5270   18.9900  -32.8500 F   0  0  0  0  0  0  0  0  0  0  0  0
   -7.3040   19.7720  -32.4920 C   0  0  0  0  0  0  0  0  0  0  0  0
   -6.4320   20.7550  -32.0100 C   0  0  0  0  0  0  0  0  0  0  0  0
   -6.4160   24.3140  -30.6740 C   0  0  0  0  0  0  0  0  0  0  0  0
   -5.0810   25.1560  -30.0930 S   0  0  0  0  0  0  0  0  0  0  0  0
   -0.6286   25.0581  -27.5151 H   0  0  0  0  0  0  0  0  0  0  0  0
   -0.3405   24.1822  -29.0567 H   0  0  0  0  0  0  0  0  0  0  0  0
   -0.5012   25.9713  -29.0567 H   0  0  0  0  0  0  0  0  0  0  0  0
   -2.2175   24.9392  -26.6765 H   0  0  0  0  0  0  0  0  0  0  0  0
   -3.8251   25.3311  -27.3754 H   0  0  0  0  0  0  0  0  0  0  0  0
   -3.2352   23.6344  -27.3754 H   0  0  0  0  0  0  0  0  0  0  0  0
   -1.9644   23.9212  -30.5890 H   0  0  0  0  0  0  0  0  0  0  0  0
   -0.5048   22.0786  -30.1290 H   0  0  0  0  0  0  0  0  0  0  0  0
   -0.1555   19.8398  -29.0643 H   0  0  0  0  0  0  0  0  0  0  0  0
   -1.8397   18.9644  -27.4340 H   0  0  0  0  0  0  0  0  0  0  0  0
   -3.8576   20.3403  -26.8924 H   0  0  0  0  0  0  0  0  0  0  0  0
   -8.7459   22.9939  -30.8461 H   0  0  0  0  0  0  0  0  0  0  0  0
  -10.2863   21.2360  -31.7060 H   0  0  0  0  0  0  0  0  0  0  0  0
   -6.9002   18.8618  -32.9594 H   0  0  0  0  0  0  0  0  0  0  0  0
   -5.3451   20.6134  -32.1025 H   0  0  0  0  0  0  0  0  0  0  0  0
   -7.4164   24.7346  -30.8537 H   0  0  0  0  0  0  0  0  0  0  0  0
  1  2  1  0
  2  3  1  0
  2  4  1  0
  4  5  1  0
  5  6  2  0
  6  7  1  0
  7  8  2  0
  8  9  1  0
  9 10  2  0
  4 11  1  0
 11 12  2  0
 12 13  1  0
 13 14  1  0
 14 15  2  0
 15 16  1  0
 16 17  2  0
 17 18  1  0
 17 19  1  0
 19 20  2  0
 13 21  2  0
 21 22  1  0
 10  5  1  0
 22 11  1  0
 20 14  1  0
  1 23  1  0
  1 24  1  0
  1 25  1  0
  3 26  1  0
  3 27  1  0
  3 28  1  0
  4 29  1  6
  6 30  1  0
  7 31  1  0
  8 32  1  0
  9 33  1  0
 15 34  1  0
 16 35  1  0
 19 36  1  0
 20 37  1  0
 21 38  1  0
M  END
>  <UniqueID>  (25) 
24

>  <SMILES>  (25) 
CN(C)[C@@H](c1ccccn1)c1nc(-c2ccc(F)cc2)cs1

>  <Energy>  (25) 
75.11158270060369

>  <Genealogy>  (25) 
CN(C)[C@@H](c1ccccn1)c1nc(-c2ccc(F)cc2)cs1 (chirality)
CN(C)[C@@H](c1ccccn1)c1nc(-c2ccc(F)cc2)cs1 (3D coordinates assigned)
CN(C)[C@@H](c1ccccn1)c1nc(-c2ccc(F)cc2)cs1 (optimized conformer: 75.11158270060369 kcal/mol)

>  <smiles>  (25) 
CN(C)C(c1ccccn1)c1nc(-c2ccc(F)cc2)cs1

>  <score_type>  (25) 
oracle

>  <origin>  (25) 
adg

>  <m_score__min__energy>  (25) 
-7.2000000000000002

>  <m_primary>  (25) 
energy

$$$$
25:0
     RDKit          3D

 61 64  0  0  0  0  0  0  0  0999 V2000
    3.8440   23.6820  -35.3570 C   0  0  0  0  0  0  0  0  0  0  0  0
    2.9310   22.4570  -35.5060 C   0  0  0  0  0  0  0  0  0  0  0  0
    1.5480   22.6550  -34.9990 N   0  0  0  0  0  0  0  0  0  0  0  0
    0.6310   23.1460  -36.0530 C   0  0  0  0  0  0  0  0  0  0  0  0
    0.6840   24.6680  -36.1130 C   0  0  0  0  0  0  0  0  0  0  0  0
    0.9810   21.5100  -34.2500 C   0  0  0  0  0  0  0  0  0  0  0  0
   -0.5630   21.4670  -34.2780 C   0  0  0  0  0  0  0  0  0  0  0  0
   -1.1350   20.6300  -33.1990 N   0  0  1  0  0  0  0  0  0  0  0  0
   -1.1600   21.3720  -31.9690 C   0  0  0  0  0  0  0  0  0  0  0  0
   -0.1140   21.6840  -31.3370 O   0  0  0  0  0  0  0  0  0  0  0  0
   -2.5140   21.6670  -31.5000 C   0  0  0  0  0  0  0  0  0  0  0  0
   -2.8510   22.4130  -30.2660 C   0  0  0  0  0  0  0  0  0  0  0  0
   -2.7770   21.7760  -29.0180 C   0  0  0  0  0  0  0  0  0  0  0  0
   -3.0970   22.4690  -27.8480 C   0  0  0  0  0  0  0  0  0  0  0  0
   -3.5050   23.8150  -27.9100 C   0  0  0  0  0  0  0  0  0  0  0  0
   -3.8360   24.5550  -26.7640 O   0  0  0  0  0  0  0  0  0  0  0  0
   -2.9030   25.3130  -26.0010 C   0  0  0  0  0  0  0  0  0  0  0  0
   -3.5900   24.4450  -29.1560 C   0  0  0  0  0  0  0  0  0  0  0  0
   -3.2710   23.7520  -30.3260 C   0  0  0  0  0  0  0  0  0  0  0  0
   -3.3560   21.0860  -32.3500 C   0  0  0  0  0  0  0  0  0  0  0  0
   -4.8350   21.1500  -32.3330 C   0  0  0  0  0  0  0  0  0  0  0  0
   -5.4940   22.3900  -32.2920 C   0  0  0  0  0  0  0  0  0  0  0  0
   -6.8880   22.4530  -32.2780 C   0  0  0  0  0  0  0  0  0  0  0  0
   -7.6480   21.2750  -32.3140 C   0  0  0  0  0  0  0  0  0  0  0  0
   -9.0500   21.3270  -32.3010 C   0  0  0  0  0  0  0  0  0  0  0  0
   -9.7960   20.1450  -32.3390 C   0  0  0  0  0  0  0  0  0  0  0  0
   -9.1500   18.9060  -32.3890 C   0  0  0  0  0  0  0  0  0  0  0  0
   -7.7540   18.8420  -32.4050 C   0  0  0  0  0  0  0  0  0  0  0  0
   -6.9920   20.0210  -32.3670 C   0  0  0  0  0  0  0  0  0  0  0  0
   -5.5910   19.9680  -32.3780 C   0  0  0  0  0  0  0  0  0  0  0  0
   -2.5470   20.4080  -33.3630 C   0  0  0  0  0  0  0  0  0  0  0  0
   -3.0260   19.6420  -34.2400 O   0  0  0  0  0  0  0  0  0  0  0  0
    4.0019   23.8939  -34.2892 H   0  0  0  0  0  0  0  0  0  0  0  0
    4.8123   23.4782  -35.8375 H   0  0  0  0  0  0  0  0  0  0  0  0
    3.3720   24.5517  -35.8375 H   0  0  0  0  0  0  0  0  0  0  0  0
    2.8721   22.2000  -36.5739 H   0  0  0  0  0  0  0  0  0  0  0  0
    3.3770   21.6578  -34.8958 H   0  0  0  0  0  0  0  0  0  0  0  0
    0.9359   22.7311  -37.0251 H   0  0  0  0  0  0  0  0  0  0  0  0
   -0.3955   22.8265  -35.8201 H   0  0  0  0  0  0  0  0  0  0  0  0
    0.6982   25.0750  -35.0911 H   0  0  0  0  0  0  0  0  0  0  0  0
    1.5936   24.9825  -36.6456 H   0  0  0  0  0  0  0  0  0  0  0  0
   -0.2016   25.0450  -36.6456 H   0  0  0  0  0  0  0  0  0  0  0  0
    1.3645   20.5788  -34.6925 H   0  0  0  0  0  0  0  0  0  0  0  0
    1.2851   21.6249  -33.1991 H   0  0  0  0  0  0  0  0  0  0  0  0
   -0.9449   22.4926  -34.1667 H   0  0  0  0  0  0  0  0  0  0  0  0
   -0.8638   21.0204  -35.2372 H   0  0  0  0  0  0  0  0  0  0  0  0
   -0.6260   19.7260  -33.0600 H   0  0  0  0  0  0  0  0  0  0  0  0
   -2.4646   20.7229  -28.9604 H   0  0  0  0  0  0  0  0  0  0  0  0
   -3.0299   21.9611  -26.8746 H   0  0  0  0  0  0  0  0  0  0  0  0
   -3.0941   25.1578  -24.9289 H   0  0  0  0  0  0  0  0  0  0  0  0
   -1.8807   24.9863  -26.2423 H   0  0  0  0  0  0  0  0  0  0  0  0
   -3.0134   26.3805  -26.2423 H   0  0  0  0  0  0  0  0  0  0  0  0
   -3.9109   25.4955  -29.2149 H   0  0  0  0  0  0  0  0  0  0  0  0
   -3.3491   24.2576  -31.2998 H   0  0  0  0  0  0  0  0  0  0  0  0
   -4.9060   23.3194  -32.2707 H   0  0  0  0  0  0  0  0  0  0  0  0
   -7.3923   23.4298  -32.2386 H   0  0  0  0  0  0  0  0  0  0  0  0
   -9.5631   22.2992  -32.2608 H   0  0  0  0  0  0  0  0  0  0  0  0
  -10.8950   20.1900  -32.3295 H   0  0  0  0  0  0  0  0  0  0  0  0
   -9.7420   17.9793  -32.4158 H   0  0  0  0  0  0  0  0  0  0  0  0
   -7.2505   17.8649  -32.4475 H   0  0  0  0  0  0  0  0  0  0  0  0
   -5.0811   18.9943  -32.4222 H   0  0  0  0  0  0  0  0  0  0  0  0
  1  2  1  0
  2  3  1  0
  3  4  1  0
  4  5  1  0
  3  6  1  0
  6  7  1  0
  7  8  1  0
  8  9  1  0
  9 10  2  0
  9 11  1  0
 11 12  1  0
 12 13  2  0
 13 14  1  0
 14 15  2  0
 15 16  1  0
 16 17  1  0
 15 18  1  0
 18 19  2  0
 11 20  2  0
 20 21  1  0
 21 22  2  0
 22 23  1  0
 23 24  2  0
 24 25  1  0
 25 26  2  0
 26 27  1  0
 27 28  2  0
 28 29  1  0
 29 30  2  0
 20 31  1  0
 31 32  2  0
 31  8  1  0
 19 12  1  0
 30 21  1  0
 29 24  1  0
  1 33  1  0
  1 34  1  0
  1 35  1  0
  2 36  1  0
  2 37  1  0
  4 38  1  0
  4 39  1  0
  5 40  1  0
  5 41  1  0
  5 42  1  0
  6 43  1  0
  6 44  1  0
  7 45  1  0
  7 46  1  0
  8 47  1  1
 13 48  1  0
 14 49  1  0
 17 50  1  0
 17 51  1  0
 17 52  1  0
 18 53  1  0
 19 54  1  0
 22 55  1  0
 23 56  1  0
 25 57  1  0
 26 58  1  0
 27 59  1  0
 28 60  1  0
 30 61  1  0
M  CHG  1   8   1
M  END
>  <UniqueID>  (26) 
25

>  <SMILES>  (26) 
CCN(CC)CC[N@H+]1C(=O)C(c2ccc(OC)cc2)=C(c2ccc3ccccc3c2)C1=O

>  <Energy>  (26) 
98.9356941638724

>  <Genealogy>  (26) 
CCN(CC)CC[NH+]1C(=O)C(c2ccc(OC)cc2)=C(c2ccc3ccccc3c2)C1=O (protonated)
CCN(CC)CC[N@H+]1C(=O)C(c2ccc(OC)cc2)=C(c2ccc3ccccc3c2)C1=O (chirality)
CCN(CC)CC[N@H+]1C(=O)C(c2ccc(OC)cc2)=C(c2ccc3ccccc3c2)C1=O (3D coordinates assigned)
CCN(CC)CC[N@H+]1C(=O)C(c2ccc(OC)cc2)=C(c2ccc3ccccc3c2)C1=O (nonaromatic ring conformer: 98.9356941638724 kcal/mol)

>  <smiles>  (26) 
CCN(CC)CCN1C(=O)C(c2ccc(OC)cc2)=C(c2ccc3ccccc3c2)C1=O

>  <score_type>  (26) 
oracle

>  <origin>  (26) 
adg

>  <m_score__min__energy>  (26) 
-9.0700000000000003

>  <m_primary>  (26) 
energy

$$$$
26:0
     RDKit          3D

 47 48  0  0  0  0  0  0  0  0999 V2000
   -6.4330   25.6530  -29.5620 C   0  0  0  0  0  0  0  0  0  0  0  0
   -5.0740   25.2680  -30.1220 C   0  0  0  0  0  0  0  0  0  0  0  0
   -5.1810   24.0310  -30.8190 O   0  0  0  0  0  0  0  0  0  0  0  0
   -5.9890   22.9770  -30.3750 C   0  0  0  0  0  0  0  0  0  0  0  0
   -5.9920   22.6660  -29.1500 O   0  0  0  0  0  0  0  0  0  0  0  0
   -6.7770   22.1340  -31.3750 C   0  0  2  0  0  0  0  0  0  0  0  0
   -6.8710   22.9120  -32.7140 C   0  0  0  0  0  0  0  0  0  0  0  0
   -8.2410   21.9220  -30.8240 C   0  0  0  0  0  0  0  0  0  0  0  0
   -8.7280   20.4630  -30.8210 C   0  0  0  0  0  0  0  0  0  0  0  0
   -8.3650   19.7430  -32.1260 C   0  0  1  0  0  0  0  0  0  0  0  0
   -8.9540   20.4100  -33.2160 O   0  0  0  0  0  0  0  0  0  0  0  0
   -6.8210   19.6290  -32.3000 C   0  0  1  0  0  0  0  0  0  0  0  0
   -6.4430   19.4090  -33.7750 C   0  0  0  0  0  0  0  0  0  0  0  0
   -6.0300   20.7540  -31.5340 C   0  0  1  0  0  0  0  0  0  0  0  0
   -4.5330   20.8590  -31.8720 C   0  0  0  0  0  0  0  0  0  0  0  0
   -3.5800   20.5220  -30.8900 C   0  0  0  0  0  0  0  0  0  0  0  0
   -2.2110   20.6530  -31.1400 C   0  0  0  0  0  0  0  0  0  0  0  0
   -1.7620   21.1390  -32.3740 C   0  0  0  0  0  0  0  0  0  0  0  0
   -0.2930   21.2500  -32.6570 C   0  0  0  0  0  0  0  0  0  0  0  0
   -2.6970   21.4570  -33.3660 C   0  0  0  0  0  0  0  0  0  0  0  0
   -4.0650   21.3260  -33.1170 C   0  0  0  0  0  0  0  0  0  0  0  0
   -6.3932   25.6417  -28.4628 H   0  0  0  0  0  0  0  0  0  0  0  0
   -6.7000   26.6621  -29.9089 H   0  0  0  0  0  0  0  0  0  0  0  0
   -7.1896   24.9339  -29.9089 H   0  0  0  0  0  0  0  0  0  0  0  0
   -4.7276   26.0499  -30.8138 H   0  0  0  0  0  0  0  0  0  0  0  0
   -4.3539   25.1630  -29.2971 H   0  0  0  0  0  0  0  0  0  0  0  0
   -7.0006   23.9845  -32.5066 H   0  0  0  0  0  0  0  0  0  0  0  0
   -5.9479   22.7593  -33.2924 H   0  0  0  0  0  0  0  0  0  0  0  0
   -7.7312   22.5438  -33.2924 H   0  0  0  0  0  0  0  0  0  0  0  0
   -8.2740   22.2952  -29.7898 H   0  0  0  0  0  0  0  0  0  0  0  0
   -8.9090   22.4683  -31.5061 H   0  0  0  0  0  0  0  0  0  0  0  0
   -8.2601   19.9324  -29.9787 H   0  0  0  0  0  0  0  0  0  0  0  0
   -9.8237   20.4666  -30.7237 H   0  0  0  0  0  0  0  0  0  0  0  0
   -8.7607   18.7175  -32.0840 H   0  0  0  0  0  0  0  0  0  0  0  0
   -8.9220   19.7870  -33.9890 H   0  0  0  0  0  0  0  0  0  0  0  0
   -6.4775   18.7169  -31.7901 H   0  0  0  0  0  0  0  0  0  0  0  0
   -5.4936   18.8564  -33.8317 H   0  0  0  0  0  0  0  0  0  0  0  0
   -7.2344   18.8304  -34.2740 H   0  0  0  0  0  0  0  0  0  0  0  0
   -6.3308   20.3829  -34.2740 H   0  0  0  0  0  0  0  0  0  0  0  0
   -6.0250   20.3656  -30.5049 H   0  0  0  0  0  0  0  0  0  0  0  0
   -3.9187   20.1501  -29.9117 H   0  0  0  0  0  0  0  0  0  0  0  0
   -1.4833   20.3731  -30.3640 H   0  0  0  0  0  0  0  0  0  0  0  0
    0.2611   21.2919  -31.7077 H   0  0  0  0  0  0  0  0  0  0  0  0
    0.0362   20.3742  -33.2354 H   0  0  0  0  0  0  0  0  0  0  0  0
   -0.0992   22.1654  -33.2354 H   0  0  0  0  0  0  0  0  0  0  0  0
   -2.3520   21.8124  -34.3482 H   0  0  0  0  0  0  0  0  0  0  0  0
   -4.7872   21.5909  -33.9033 H   0  0  0  0  0  0  0  0  0  0  0  0
  1  2  1  0
  2  3  1  0
  3  4  1  0
  4  5  2  0
  4  6  1  0
  6  7  1  6
  6  8  1  0
  8  9  1  0
  9 10  1  0
 10 11  1  0
 10 12  1  0
 12 13  1  0
 12 14  1  0
 14 15  1  0
 15 16  2  0
 16 17  1  0
 17 18  2  0
 18 19  1  0
 18 20  1  0
 20 21  2  0
 14  6  1  0
 21 15  1  0
  1 22  1  0
  1 23  1  0
  1 24  1  0
  2 25  1  0
  2 26  1  0
  7 27  1  0
  7 28  1  0
  7 29  1  0
  8 30  1  0
  8 31  1  0
  9 32  1  0
  9 33  1  0
 10 34  1  1
 11 35  1  0
 12 36  1  1
 13 37  1  0
 13 38  1  0
 13 39  1  0
 14 40  1  1
 16 41  1  0
 17 42  1  0
 19 43  1  0
 19 44  1  0
 19 45  1  0
 20 46  1  0
 21 47  1  0
M  END
>  <UniqueID>  (27) 
26

>  <SMILES>  (27) 
CCOC(=O)[C@]1(C)CC[C@@H](O)C(C)C1c1ccc(C)cc1

>  <Energy>  (27) 
60.53749760687051

>  <Genealogy>  (27) 
CCOC(=O)[C@]1(C)CC[C@@H](O)C(C)C1c1ccc(C)cc1 (chirality)
CCOC(=O)[C@]1(C)CC[C@@H](O)C(C)C1c1ccc(C)cc1 (3D coordinates assigned)
CCOC(=O)[C@]1(C)CC[C@@H](O)C(C)C1c1ccc(C)cc1 (nonaromatic ring conformer: 60.53749760687051 kcal/mol)

>  <smiles>  (27) 
CCOC(=O)C1(C)CCC(O)C(C)C1c1ccc(C)cc1

>  <score_type>  (27) 
oracle

>  <origin>  (27) 
adg

>  <m_score__min__energy>  (27) 
-7.5599999999999996

>  <m_primary>  (27) 
energy

$$$$
27:0
     RDKit          3D

 35 36  0  0  0  0  0  0  0  0999 V2000
   -1.3920   25.0680  -25.9180 C   0  0  0  0  0  0  0  0  0  0  0  0
   -1.6190   24.3530  -27.2180 C   0  0  0  0  0  0  0  0  0  0  0  0
   -0.9690   23.1400  -27.4800 C   0  0  0  0  0  0  0  0  0  0  0  0
   -1.1520   22.4940  -28.7030 C   0  0  0  0  0  0  0  0  0  0  0  0
   -1.9810   23.0540  -29.6880 C   0  0  0  0  0  0  0  0  0  0  0  0
   -2.1740   22.3410  -30.9980 C   0  0  0  0  0  0  0  0  0  0  0  0
   -2.6280   24.2820  -29.4400 C   0  0  0  0  0  0  0  0  0  0  0  0
   -3.4750   24.8450  -30.4540 N   0  0  0  0  0  0  0  0  0  0  0  0
   -5.2050   24.9360  -30.3820 S   0  0  0  0  0  0  0  0  0  0  0  0
   -5.6730   26.0960  -31.2150 O   0  0  0  0  0  0  0  0  0  0  0  0
   -5.6260   25.1560  -28.9560 O   0  0  0  0  0  0  0  0  0  0  0  0
   -5.9120   23.4550  -31.0220 C   0  0  0  0  0  0  0  0  0  0  0  0
   -5.1480   22.6160  -31.8390 C   0  0  0  0  0  0  0  0  0  0  0  0
   -5.6940   21.4290  -32.3320 C   0  0  0  0  0  0  0  0  0  0  0  0
   -7.0080   21.0700  -32.0160 C   0  0  0  0  0  0  0  0  0  0  0  0
   -7.6940   19.4220  -32.7190 Br  0  0  0  0  0  0  0  0  0  0  0  0
   -7.7900   21.9110  -31.1980 C   0  0  0  0  0  0  0  0  0  0  0  0
   -9.2030   21.5440  -30.8420 C   0  0  0  0  0  0  0  0  0  0  0  0
   -7.2320   23.1040  -30.7060 C   0  0  0  0  0  0  0  0  0  0  0  0
   -2.4300   24.9290  -28.2060 C   0  0  0  0  0  0  0  0  0  0  0  0
   -1.6084   24.3865  -25.0821 H   0  0  0  0  0  0  0  0  0  0  0  0
   -0.3446   25.3990  -25.8596 H   0  0  0  0  0  0  0  0  0  0  0  0
   -2.0567   25.9425  -25.8596 H   0  0  0  0  0  0  0  0  0  0  0  0
   -0.3117   22.6951  -26.7184 H   0  0  0  0  0  0  0  0  0  0  0  0
   -0.6428   21.5385  -28.8970 H   0  0  0  0  0  0  0  0  0  0  0  0
   -2.4571   21.2952  -30.8080 H   0  0  0  0  0  0  0  0  0  0  0  0
   -2.9700   22.8378  -31.5721 H   0  0  0  0  0  0  0  0  0  0  0  0
   -1.2361   22.3685  -31.5721 H   0  0  0  0  0  0  0  0  0  0  0  0
   -4.1141   22.8917  -32.0941 H   0  0  0  0  0  0  0  0  0  0  0  0
   -5.0869   20.7726  -32.9727 H   0  0  0  0  0  0  0  0  0  0  0  0
   -9.3100   21.5162  -29.7476 H   0  0  0  0  0  0  0  0  0  0  0  0
   -9.8925   22.2929  -31.2589 H   0  0  0  0  0  0  0  0  0  0  0  0
   -9.4409   20.5543  -31.2589 H   0  0  0  0  0  0  0  0  0  0  0  0
   -7.8355   23.7668  -30.0685 H   0  0  0  0  0  0  0  0  0  0  0  0
   -2.9166   25.8968  -28.0146 H   0  0  0  0  0  0  0  0  0  0  0  0
  1  2  1  0
  2  3  2  0
  3  4  1  0
  4  5  2  0
  5  6  1  0
  5  7  1  0
  7  8  1  0
  8  9  1  0
  9 10  2  0
  9 11  2  0
  9 12  1  0
 12 13  2  0
 13 14  1  0
 14 15  2  0
 15 16  1  0
 15 17  1  0
 17 18  1  0
 17 19  2  0
  7 20  2  0
 20  2  1  0
 19 12  1  0
  1 21  1  0
  1 22  1  0
  1 23  1  0
  3 24  1  0
  4 25  1  0
  6 26  1  0
  6 27  1  0
  6 28  1  0
 13 29  1  0
 14 30  1  0
 18 31  1  0
 18 32  1  0
 18 33  1  0
 19 34  1  0
 20 35  1  0
M  CHG  1   8  -1
M  END
>  <UniqueID>  (28) 
27

>  <SMILES>  (28) 
Cc1ccc(C)c([N-]S(=O)(=O)c2ccc(Br)c(C)c2)c1

>  <Energy>  (28) 
37.528675725924394

>  <Genealogy>  (28) 
Cc1ccc(C)c([N-]S(=O)(=O)c2ccc(Br)c(C)c2)c1 (protonated)
Cc1ccc(C)c([N-]S(=O)(=O)c2ccc(Br)c(C)c2)c1 (3D coordinates assigned)
Cc1ccc(C)c([N-]S(=O)(=O)c2ccc(Br)c(C)c2)c1 (optimized conformer: 37.528675725924394 kcal/mol)

>  <smiles>  (28) 
Cc1ccc(C)c(NS(=O)(=O)c2ccc(Br)c(C)c2)c1

>  <score_type>  (28) 
oracle

>  <origin>  (28) 
adg

>  <m_score__min__energy>  (28) 
-9.6699999999999999

>  <m_primary>  (28) 
energy

$$$$
28:0
     RDKit          3D

 36 38  0  0  0  0  0  0  0  0999 V2000
   -2.0340   24.9170  -28.2110 C   0  0  0  0  0  0  0  0  0  0  0  0
   -2.8050   25.2900  -29.3480 O   0  0  0  0  0  0  0  0  0  0  0  0
   -3.8510   24.5220  -29.8820 C   0  0  0  0  0  0  0  0  0  0  0  0
   -4.8420   25.0720  -30.7160 C   0  0  0  0  0  0  0  0  0  0  0  0
   -5.8650   24.2650  -31.2210 C   0  0  0  0  0  0  0  0  0  0  0  0
   -5.9230   22.9010  -30.8930 C   0  0  0  0  0  0  0  0  0  0  0  0
   -7.0140   22.0450  -31.4200 C   0  0  0  0  0  0  0  0  0  0  0  0
   -8.3440   22.3720  -31.1090 C   0  0  0  0  0  0  0  0  0  0  0  0
   -9.3670   21.5770  -31.5210 N   0  0  0  0  0  0  0  0  0  0  0  0
   -9.1420   20.4470  -32.2410 C   0  0  0  0  0  0  0  0  0  0  0  0
   -7.8430   20.0820  -32.5870 C   0  0  0  0  0  0  0  0  0  0  0  0
   -6.7610   20.8830  -32.1910 C   0  0  0  0  0  0  0  0  0  0  0  0
   -5.3960   20.5080  -32.6330 C   0  0  0  0  0  0  0  0  0  0  0  0
   -4.9880   19.1630  -32.6290 C   0  0  0  0  0  0  0  0  0  0  0  0
   -3.7020   18.8140  -33.0520 C   0  0  0  0  0  0  0  0  0  0  0  0
   -2.8100   19.8050  -33.4730 C   0  0  0  0  0  0  0  0  0  0  0  0
   -1.5630   19.4640  -33.8830 F   0  0  0  0  0  0  0  0  0  0  0  0
   -3.2020   21.1460  -33.4670 C   0  0  0  0  0  0  0  0  0  0  0  0
   -4.4880   21.4980  -33.0450 C   0  0  0  0  0  0  0  0  0  0  0  0
   -4.9280   22.3520  -30.0710 C   0  0  0  0  0  0  0  0  0  0  0  0
   -3.9020   23.1590  -29.5680 C   0  0  0  0  0  0  0  0  0  0  0  0
   -2.5811   25.1817  -27.2941 H   0  0  0  0  0  0  0  0  0  0  0  0
   -1.8537   23.8320  -28.2301 H   0  0  0  0  0  0  0  0  0  0  0  0
   -1.0714   25.4490  -28.2301 H   0  0  0  0  0  0  0  0  0  0  0  0
   -4.8113   26.1415  -30.9715 H   0  0  0  0  0  0  0  0  0  0  0  0
   -6.6301   24.7013  -31.8800 H   0  0  0  0  0  0  0  0  0  0  0  0
   -8.5600   23.2798  -30.5266 H   0  0  0  0  0  0  0  0  0  0  0  0
  -10.3470   21.8360  -31.2720 H   0  0  0  0  0  0  0  0  0  0  0  0
   -9.9890   19.8178  -32.5519 H   0  0  0  0  0  0  0  0  0  0  0  0
   -7.6655   19.1664  -33.1703 H   0  0  0  0  0  0  0  0  0  0  0  0
   -5.6841   18.3810  -32.2913 H   0  0  0  0  0  0  0  0  0  0  0  0
   -3.3916   17.7587  -33.0536 H   0  0  0  0  0  0  0  0  0  0  0  0
   -2.4985   21.9256  -33.7945 H   0  0  0  0  0  0  0  0  0  0  0  0
   -4.7903   22.5556  -33.0356 H   0  0  0  0  0  0  0  0  0  0  0  0
   -4.9545   21.2812  -29.8205 H   0  0  0  0  0  0  0  0  0  0  0  0
   -3.1292   22.7189  -28.9206 H   0  0  0  0  0  0  0  0  0  0  0  0
  1  2  1  0
  2  3  1  0
  3  4  2  0
  4  5  1  0
  5  6  2  0
  6  7  1  0
  7  8  2  0
  8  9  1  0
  9 10  2  0
 10 11  1  0
 11 12  2  0
 12 13  1  0
 13 14  2  0
 14 15  1  0
 15 16  2  0
 16 17  1  0
 16 18  1  0
 18 19  2  0
  6 20  1  0
 20 21  2  0
 21  3  1  0
 12  7  1  0
 19 13  1  0
  1 22  1  0
  1 23  1  0
  1 24  1  0
  4 25  1  0
  5 26  1  0
  8 27  1  0
  9 28  1  0
 10 29  1  0
 11 30  1  0
 14 31  1  0
 15 32  1  0
 18 33  1  0
 19 34  1  0
 20 35  1  0
 21 36  1  0
M  CHG  1   9   1
M  END
>  <UniqueID>  (29) 
28

>  <SMILES>  (29) 
COc1ccc(-c2c[nH+]ccc2-c2ccc(F)cc2)cc1

>  <Energy>  (29) 
50.685821566645735

>  <Genealogy>  (29) 
COc1ccc(-c2c[nH+]ccc2-c2ccc(F)cc2)cc1 (protonated)
COc1ccc(-c2c[nH+]ccc2-c2ccc(F)cc2)cc1 (3D coordinates assigned)
COc1ccc(-c2c[nH+]ccc2-c2ccc(F)cc2)cc1 (optimized conformer: 50.685821566645735 kcal/mol)

>  <smiles>  (29) 
COc1ccc(-c2cnccc2-c2ccc(F)cc2)cc1

>  <score_type>  (29) 
oracle

>  <origin>  (29) 
adg

>  <m_score__min__energy>  (29) 
-7.29

>  <m_primary>  (29) 
energy

$$$$
29:0
     RDKit          3D

 43 46  0  0  0  0  0  0  0  0999 V2000
   -9.1130   19.6920  -32.7170 C   0  0  0  0  0  0  0  0  0  0  0  0
   -7.8390   19.9250  -33.3080 O   0  0  0  0  0  0  0  0  0  0  0  0
   -6.6840   20.2990  -32.6010 C   0  0  0  0  0  0  0  0  0  0  0  0
   -6.5950   21.5350  -31.9280 C   0  0  0  0  0  0  0  0  0  0  0  0
   -5.4260   21.8960  -31.2400 C   0  0  0  0  0  0  0  0  0  0  0  0
   -5.3370   23.1690  -30.5690 N   0  0  0  0  0  0  0  0  0  0  0  0
   -4.3660   23.3900  -29.4910 C   0  0  0  0  0  0  0  0  0  0  0  0
   -3.5430   24.6670  -29.7570 C   0  0  0  0  0  0  0  0  0  0  0  0
   -4.2500   25.6740  -30.5740 N   0  0  0  0  0  0  0  0  0  0  0  0
   -5.7080   25.6060  -30.4180 C   0  0  0  0  0  0  0  0  0  0  0  0
   -6.2420   24.2640  -30.9390 C   0  0  0  0  0  0  0  0  0  0  0  0
   -4.3350   21.0160  -31.2370 C   0  0  0  0  0  0  0  0  0  0  0  0
   -4.4130   19.7900  -31.8950 C   0  0  0  0  0  0  0  0  0  0  0  0
   -5.5820   19.4190  -32.5790 C   0  0  0  0  0  0  0  0  0  0  0  0
   -5.6460   18.1050  -33.2580 C   0  0  0  0  0  0  0  0  0  0  0  0
   -6.8150   17.3140  -33.2070 C   0  0  0  0  0  0  0  0  0  0  0  0
   -6.8480   16.0580  -33.8520 C   0  0  0  0  0  0  0  0  0  0  0  0
   -5.7570   15.5960  -34.5300 N   0  0  0  0  0  0  0  0  0  0  0  0
   -4.6370   16.3580  -34.5750 C   0  0  0  0  0  0  0  0  0  0  0  0
   -3.5000   16.0500  -35.2140 N   0  0  0  0  0  0  0  0  0  0  0  0
   -2.6760   17.1050  -35.0120 C   0  0  0  0  0  0  0  0  0  0  0  0
   -3.3010   18.0800  -34.2390 C   0  0  0  0  0  0  0  0  0  0  0  0
   -4.5570   17.5790  -33.9650 C   0  0  0  0  0  0  0  0  0  0  0  0
   -9.0176   19.7094  -31.6213 H   0  0  0  0  0  0  0  0  0  0  0  0
   -9.8145   20.4767  -33.0365 H   0  0  0  0  0  0  0  0  0  0  0  0
   -9.4913   18.7098  -33.0365 H   0  0  0  0  0  0  0  0  0  0  0  0
   -7.4520   22.2245  -31.9424 H   0  0  0  0  0  0  0  0  0  0  0  0
   -4.9029   23.4978  -28.5370 H   0  0  0  0  0  0  0  0  0  0  0  0
   -3.6822   22.5295  -29.4469 H   0  0  0  0  0  0  0  0  0  0  0  0
   -3.2882   25.1230  -28.7889 H   0  0  0  0  0  0  0  0  0  0  0  0
   -2.6529   24.3610  -30.3263 H   0  0  0  0  0  0  0  0  0  0  0  0
   -4.0170   25.5140  -31.5840 H   0  0  0  0  0  0  0  0  0  0  0  0
   -5.9634   25.7084  -29.3530 H   0  0  0  0  0  0  0  0  0  0  0  0
   -6.1664   26.4208  -30.9977 H   0  0  0  0  0  0  0  0  0  0  0  0
   -7.2342   24.0759  -30.5029 H   0  0  0  0  0  0  0  0  0  0  0  0
   -6.3111   24.3116  -32.0358 H   0  0  0  0  0  0  0  0  0  0  0  0
   -3.4101   21.2953  -30.7112 H   0  0  0  0  0  0  0  0  0  0  0  0
   -3.5511   19.1067  -31.8784 H   0  0  0  0  0  0  0  0  0  0  0  0
   -7.7005   17.6765  -32.6644 H   0  0  0  0  0  0  0  0  0  0  0  0
   -7.7612   15.4464  -33.8076 H   0  0  0  0  0  0  0  0  0  0  0  0
   -3.2940   15.1860  -35.7630 H   0  0  0  0  0  0  0  0  0  0  0  0
   -1.6516   17.1816  -35.4053 H   0  0  0  0  0  0  0  0  0  0  0  0
   -2.8824   19.0445  -33.9156 H   0  0  0  0  0  0  0  0  0  0  0  0
  1  2  1  0
  2  3  1  0
  3  4  2  0
  4  5  1  0
  5  6  1  0
  6  7  1  0
  7  8  1  0
  8  9  1  0
  9 10  1  0
 10 11  1  0
  5 12  2  0
 12 13  1  0
 13 14  2  0
 14 15  1  0
 15 16  2  0
 16 17  1  0
 17 18  2  0
 18 19  1  0
 19 20  1  0
 20 21  1  0
 21 22  2  0
 22 23  1  0
 14  3  1  0
 23 15  1  0
 11  6  1  0
 23 19  2  0
  1 24  1  0
  1 25  1  0
  1 26  1  0
  4 27  1  0
  7 28  1  0
  7 29  1  0
  8 30  1  0
  8 31  1  0
  9 32  1  0
 10 33  1  0
 10 34  1  0
 11 35  1  0
 11 36  1  0
 12 37  1  0
 13 38  1  0
 16 39  1  0
 17 40  1  0
 20 41  1  0
 21 42  1  0
 22 43  1  0
M  END
>  <UniqueID>  (30) 
29

>  <SMILES>  (30) 
COc1cc(N2CCNCC2)ccc1-c1ccnc2[nH]ccc12

>  <Energy>  (30) 
95.11612236659082

>  <Genealogy>  (30) 
COc1cc(N2CCNCC2)ccc1-c1ccnc2[nH]ccc12 (3D coordinates assigned)
COc1cc(N2CCNCC2)ccc1-c1ccnc2[nH]ccc12 (nonaromatic ring conformer: 95.11612236659082 kcal/mol)

>  <smiles>  (30) 
COc1cc(N2CCNCC2)ccc1-c1ccnc2[nH]ccc12

>  <score_type>  (30) 
oracle

>  <origin>  (30) 
adg

>  <m_score__min__energy>  (30) 
-7.7000000000000002

>  <m_primary>  (30) 
energy

$$$$
30:0
     RDKit          3D

 44 47  0  0  0  0  0  0  0  0999 V2000
   -0.4400   22.4320  -25.4040 C   0  0  0  0  0  0  0  0  0  0  0  0
   -0.7020   21.8980  -26.6960 O   0  0  0  0  0  0  0  0  0  0  0  0
   -1.6510   22.4170  -27.5890 C   0  0  0  0  0  0  0  0  0  0  0  0
   -1.2460   23.4120  -28.4860 C   0  0  0  0  0  0  0  0  0  0  0  0
   -2.1560   23.9620  -29.3940 C   0  0  0  0  0  0  0  0  0  0  0  0
   -3.4840   23.5190  -29.4160 C   0  0  0  0  0  0  0  0  0  0  0  0
   -4.6230   24.2510  -30.5410 S   0  0  0  0  0  0  0  0  0  0  0  0
   -6.0020   24.2250  -29.9450 O   0  0  0  0  0  0  0  0  0  0  0  0
   -4.2370   25.6740  -30.8290 O   0  0  0  0  0  0  0  0  0  0  0  0
   -4.6160   23.3660  -32.0020 O   0  0  0  0  0  0  0  0  0  0  0  0
   -5.2040   22.1030  -32.1170 C   0  0  0  0  0  0  0  0  0  0  0  0
   -6.5590   21.9750  -32.1000 N   0  0  0  0  0  0  0  0  0  0  0  0
   -7.1600   20.7620  -32.1760 C   0  0  0  0  0  0  0  0  0  0  0  0
   -8.5540   20.6530  -32.1550 C   0  0  0  0  0  0  0  0  0  0  0  0
   -9.1550   19.3900  -32.2230 C   0  0  0  0  0  0  0  0  0  0  0  0
   -8.3630   18.2390  -32.3080 C   0  0  0  0  0  0  0  0  0  0  0  0
   -6.9680   18.3440  -32.3300 C   0  0  0  0  0  0  0  0  0  0  0  0
   -6.3640   19.6040  -32.2650 C   0  0  0  0  0  0  0  0  0  0  0  0
   -5.0120   19.7300  -32.2860 N   0  0  0  0  0  0  0  0  0  0  0  0
   -4.4040   20.9470  -32.2290 C   0  0  0  0  0  0  0  0  0  0  0  0
   -2.9250   21.0130  -32.2670 C   0  0  0  0  0  0  0  0  0  0  0  0
   -2.2340   21.1640  -33.4840 C   0  0  0  0  0  0  0  0  0  0  0  0
   -0.8370   21.2140  -33.4990 C   0  0  0  0  0  0  0  0  0  0  0  0
   -0.1170   21.1000  -32.3080 C   0  0  0  0  0  0  0  0  0  0  0  0
   -0.7930   20.9290  -31.0980 C   0  0  0  0  0  0  0  0  0  0  0  0
   -2.1890   20.8790  -31.0750 C   0  0  0  0  0  0  0  0  0  0  0  0
   -3.8970   22.5230  -28.5220 C   0  0  0  0  0  0  0  0  0  0  0  0
   -2.9880   21.9730  -27.6130 C   0  0  0  0  0  0  0  0  0  0  0  0
   -0.7874   21.7239  -24.6372 H   0  0  0  0  0  0  0  0  0  0  0  0
    0.6413   22.5969  -25.2878 H   0  0  0  0  0  0  0  0  0  0  0  0
   -0.9713   23.3881  -25.2878 H   0  0  0  0  0  0  0  0  0  0  0  0
   -0.2039   23.7640  -28.4766 H   0  0  0  0  0  0  0  0  0  0  0  0
   -1.8276   24.7451  -30.0932 H   0  0  0  0  0  0  0  0  0  0  0  0
   -9.1768   21.5570  -32.0852 H   0  0  0  0  0  0  0  0  0  0  0  0
  -10.2514   19.3023  -32.2096 H   0  0  0  0  0  0  0  0  0  0  0  0
   -8.8390   17.2486  -32.3577 H   0  0  0  0  0  0  0  0  0  0  0  0
   -6.3478   17.4381  -32.3982 H   0  0  0  0  0  0  0  0  0  0  0  0
   -2.7953   21.2429  -34.4267 H   0  0  0  0  0  0  0  0  0  0  0  0
   -0.3032   21.3436  -34.4521 H   0  0  0  0  0  0  0  0  0  0  0  0
    0.9820   21.1449  -32.3228 H   0  0  0  0  0  0  0  0  0  0  0  0
   -0.2250   20.8335  -30.1609 H   0  0  0  0  0  0  0  0  0  0  0  0
   -2.7156   20.7341  -30.1202 H   0  0  0  0  0  0  0  0  0  0  0  0
   -4.9396   22.1724  -28.5350 H   0  0  0  0  0  0  0  0  0  0  0  0
   -3.3180   21.1905  -26.9138 H   0  0  0  0  0  0  0  0  0  0  0  0
  1  2  1  0
  2  3  1  0
  3  4  2  0
  4  5  1  0
  5  6  2  0
  6  7  1  0
  7  8  2  0
  7  9  2  0
  7 10  1  0
 10 11  1  0
 11 12  2  0
 12 13  1  0
 13 14  2  0
 14 15  1  0
 15 16  2  0
 16 17  1  0
 17 18  2  0
 18 19  1  0
 19 20  2  0
 20 21  1  0
 21 22  2  0
 22 23  1  0
 23 24  2  0
 24 25  1  0
 25 26  2  0
  6 27  1  0
 27 28  2  0
 28  3  1  0
 20 11  1  0
 26 21  1  0
 18 13  1  0
  1 29  1  0
  1 30  1  0
  1 31  1  0
  4 32  1  0
  5 33  1  0
 14 34  1  0
 15 35  1  0
 16 36  1  0
 17 37  1  0
 22 38  1  0
 23 39  1  0
 24 40  1  0
 25 41  1  0
 26 42  1  0
 27 43  1  0
 28 44  1  0
M  END
>  <UniqueID>  (31) 
30

>  <SMILES>  (31) 
COc1ccc(S(=O)(=O)Oc2nc3ccccc3nc2-c2ccccc2)cc1

>  <Energy>  (31) 
54.487415356466414

>  <Genealogy>  (31) 
COc1ccc(S(=O)(=O)Oc2nc3ccccc3nc2-c2ccccc2)cc1 (3D coordinates assigned)
COc1ccc(S(=O)(=O)Oc2nc3ccccc3nc2-c2ccccc2)cc1 (optimized conformer: 54.487415356466414 kcal/mol)

>  <smiles>  (31) 
COc1ccc(S(=O)(=O)Oc2nc3ccccc3nc2-c2ccccc2)cc1

>  <score_type>  (31) 
oracle

>  <origin>  (31) 
adg

>  <m_score__min__energy>  (31) 
-9.4399999999999995

>  <m_primary>  (31) 
energy

$$$$
31:0
     RDKit          3D

 34 36  0  0  0  0  0  0  0  0999 V2000
   -2.8890   24.9450  -29.3460 F   0  0  0  0  0  0  0  0  0  0  0  0
   -3.9470   24.5370  -30.0920 C   0  0  0  0  0  0  0  0  0  0  0  0
   -5.1180   25.2980  -30.1190 C   0  0  0  0  0  0  0  0  0  0  0  0
   -6.2100   24.8800  -30.8850 C   0  0  0  0  0  0  0  0  0  0  0  0
   -6.1380   23.6910  -31.6390 C   0  0  0  0  0  0  0  0  0  0  0  0
   -7.2400   23.2310  -32.4460 N   0  0  0  0  0  0  0  0  0  0  0  0
   -8.4210   22.5470  -31.9200 C   0  0  0  0  0  0  0  0  0  0  0  0
   -8.2770   21.0670  -32.0780 C   0  0  0  0  0  0  0  0  0  0  0  0
   -9.1030   20.1120  -31.5210 C   0  0  0  0  0  0  0  0  0  0  0  0
   -8.5810   18.8950  -31.9060 C   0  0  0  0  0  0  0  0  0  0  0  0
   -7.4630   19.1850  -32.6750 C   0  0  0  0  0  0  0  0  0  0  0  0
   -6.5470   18.2180  -33.3200 C   0  0  0  0  0  0  0  0  0  0  0  0
   -5.7190   18.5890  -34.3940 C   0  0  0  0  0  0  0  0  0  0  0  0
   -4.8710   17.6420  -34.9730 C   0  0  0  0  0  0  0  0  0  0  0  0
   -4.8450   16.3660  -34.5030 N   0  0  0  0  0  0  0  0  0  0  0  0
   -5.6350   15.9780  -33.4650 C   0  0  0  0  0  0  0  0  0  0  0  0
   -6.4980   16.8930  -32.8570 C   0  0  0  0  0  0  0  0  0  0  0  0
   -7.3140   20.4890  -32.7560 O   0  0  0  0  0  0  0  0  0  0  0  0
   -4.9560   22.9330  -31.5970 C   0  0  0  0  0  0  0  0  0  0  0  0
   -3.8670   23.3540  -30.8290 C   0  0  0  0  0  0  0  0  0  0  0  0
   -5.1810   26.2286  -29.5360 H   0  0  0  0  0  0  0  0  0  0  0  0
   -7.1305   25.4821  -30.8995 H   0  0  0  0  0  0  0  0  0  0  0  0
   -7.2190   23.4230  -33.4730 H   0  0  0  0  0  0  0  0  0  0  0  0
   -8.5351   22.7886  -30.8529 H   0  0  0  0  0  0  0  0  0  0  0  0
   -9.3071   22.8820  -32.4791 H   0  0  0  0  0  0  0  0  0  0  0  0
   -9.9934   20.2856  -30.8988 H   0  0  0  0  0  0  0  0  0  0  0  0
   -8.9713   17.8977  -31.6547 H   0  0  0  0  0  0  0  0  0  0  0  0
   -5.7389   19.6202  -34.7765 H   0  0  0  0  0  0  0  0  0  0  0  0
   -4.2214   17.9295  -35.8128 H   0  0  0  0  0  0  0  0  0  0  0  0
   -4.2070   15.6690  -34.9460 H   0  0  0  0  0  0  0  0  0  0  0  0
   -5.5939   14.9400  -33.1034 H   0  0  0  0  0  0  0  0  0  0  0  0
   -7.1366   16.5769  -32.0190 H   0  0  0  0  0  0  0  0  0  0  0  0
   -4.8870   21.9991  -32.1742 H   0  0  0  0  0  0  0  0  0  0  0  0
   -2.9461   22.7528  -30.8052 H   0  0  0  0  0  0  0  0  0  0  0  0
  1  2  1  0
  2  3  2  0
  3  4  1  0
  4  5  2  0
  5  6  1  0
  6  7  1  0
  7  8  1  0
  8  9  2  0
  9 10  1  0
 10 11  2  0
 11 12  1  0
 12 13  2  0
 13 14  1  0
 14 15  2  0
 15 16  1  0
 16 17  2  0
 11 18  1  0
  5 19  1  0
 19 20  2  0
 20  2  1  0
 18  8  1  0
 17 12  1  0
  3 21  1  0
  4 22  1  0
  6 23  1  0
  7 24  1  0
  7 25  1  0
  9 26  1  0
 10 27  1  0
 13 28  1  0
 14 29  1  0
 15 30  1  0
 16 31  1  0
 17 32  1  0
 19 33  1  0
 20 34  1  0
M  CHG  1  15   1
M  END
>  <UniqueID>  (32) 
31

>  <SMILES>  (32) 
Fc1ccc(NCc2ccc(-c3cc[nH+]cc3)o2)cc1

>  <Energy>  (32) 
61.90310428299583

>  <Genealogy>  (32) 
Fc1ccc(NCc2ccc(-c3cc[nH+]cc3)o2)cc1 (protonated)
Fc1ccc(NCc2ccc(-c3cc[nH+]cc3)o2)cc1 (3D coordinates assigned)
Fc1ccc(NCc2ccc(-c3cc[nH+]cc3)o2)cc1 (optimized conformer: 61.90310428299583 kcal/mol)

>  <smiles>  (32) 
Fc1ccc(NCc2ccc(-c3ccncc3)o2)cc1

>  <score_type>  (32) 
oracle

>  <origin>  (32) 
adg

>  <m_score__min__energy>  (32) 
-7.0899999999999999

>  <m_primary>  (32) 
energy

$$$$
32:0
     RDKit          3D

 47 50  0  0  1  0  0  0  0  0999 V2000
   -8.6730   19.1160  -31.9960 C   0  0  0  0  0  0  0  0  0  0  0  0
   -7.3060   19.2200  -32.6150 C   0  0  0  0  0  0  0  0  0  0  0  0
   -6.8580   18.1040  -33.3040 C   0  0  0  0  0  0  0  0  0  0  0  0
   -5.6070   18.1770  -33.8790 C   0  0  0  0  0  0  0  0  0  0  0  0
   -4.8300   19.3070  -33.7790 C   0  0  0  0  0  0  0  0  0  0  0  0
   -5.3100   20.4040  -33.0830 C   0  0  0  0  0  0  0  0  0  0  0  0
   -4.5220   21.6040  -32.9580 N   0  0  0  0  0  0  0  0  0  0  0  0
   -4.9020   22.5500  -32.1560 C   0  0  0  0  0  0  0  0  0  0  0  0
   -4.2170   22.8660  -31.0330 N   0  0  0  0  0  0  0  0  0  0  0  0
   -4.6410   23.8530  -30.2250 C   0  0  0  0  0  0  0  0  0  0  0  0
   -3.9020   24.1950  -29.0120 C   0  0  0  0  0  0  0  0  0  0  0  0
   -4.6090   24.4670  -27.8580 C   0  0  0  0  0  0  0  0  0  0  0  0
   -3.8540   24.7890  -26.7230 C   0  0  0  0  0  0  0  0  0  0  0  0
   -2.4590   24.8260  -26.7870 C   0  0  0  0  0  0  0  0  0  0  0  0
   -1.6650   25.1520  -25.6460 N   0  0  0  0  0  0  0  0  0  0  0  0
   -0.7880   24.2000  -24.9910 C   0  0  0  0  0  0  0  0  0  0  0  0
    0.3390   25.0890  -24.5190 C   0  0  0  0  0  0  0  0  0  0  0  0
   -0.4280   26.3070  -24.0550 C   0  0  0  0  0  0  0  0  0  0  0  0
   -1.6120   26.4390  -24.9850 C   0  0  0  0  0  0  0  0  0  0  0  0
   -1.8100   24.5450  -27.9740 C   0  0  0  0  0  0  0  0  0  0  0  0
   -0.3810   24.5650  -28.1110 C   0  0  0  0  0  0  0  0  0  0  0  0
    0.7730   24.5950  -28.2120 N   0  0  0  0  0  0  0  0  0  0  0  0
   -2.5570   24.2360  -29.0570 N   0  0  0  0  0  0  0  0  0  0  0  0
   -5.7900   24.5360  -30.5690 C   0  0  0  0  0  0  0  0  0  0  0  0
   -6.4880   24.2060  -31.7250 C   0  0  0  0  0  0  0  0  0  0  0  0
   -6.0350   23.2080  -32.5140 N   0  0  0  0  0  0  0  0  0  0  0  0
   -6.5540   20.3630  -32.4970 C   0  0  0  0  0  0  0  0  0  0  0  0
   -8.5807   19.1230  -30.8999 H   0  0  0  0  0  0  0  0  0  0  0  0
   -9.2871   19.9700  -32.3177 H   0  0  0  0  0  0  0  0  0  0  0  0
   -9.1509   18.1789  -32.3177 H   0  0  0  0  0  0  0  0  0  0  0  0
   -7.4751   17.1973  -33.3886 H   0  0  0  0  0  0  0  0  0  0  0  0
   -5.2204   17.3084  -34.4323 H   0  0  0  0  0  0  0  0  0  0  0  0
   -3.8355   19.3395  -34.2479 H   0  0  0  0  0  0  0  0  0  0  0  0
   -5.7081   24.4327  -27.8312 H   0  0  0  0  0  0  0  0  0  0  0  0
   -4.3632   25.0144  -25.7744 H   0  0  0  0  0  0  0  0  0  0  0  0
   -1.2912   23.7086  -24.1452 H   0  0  0  0  0  0  0  0  0  0  0  0
   -0.4613   23.3755  -25.6418 H   0  0  0  0  0  0  0  0  0  0  0  0
    0.8997   24.6262  -23.6935 H   0  0  0  0  0  0  0  0  0  0  0  0
    1.1018   25.2980  -25.2835 H   0  0  0  0  0  0  0  0  0  0  0  0
   -0.7705   26.1700  -23.0187 H   0  0  0  0  0  0  0  0  0  0  0  0
    0.2011   27.2091  -24.0764 H   0  0  0  0  0  0  0  0  0  0  0  0
   -2.5366   26.6298  -24.4204 H   0  0  0  0  0  0  0  0  0  0  0  0
   -1.5139   27.2791  -25.6883 H   0  0  0  0  0  0  0  0  0  0  0  0
   -6.1563   25.3478  -29.9234 H   0  0  0  0  0  0  0  0  0  0  0  0
   -7.4028   24.7539  -31.9951 H   0  0  0  0  0  0  0  0  0  0  0  0
   -6.5750   22.9800  -33.3720 H   0  0  0  0  0  0  0  0  0  0  0  0
   -6.9400   21.2314  -31.9431 H   0  0  0  0  0  0  0  0  0  0  0  0
  1  2  1  0
  2  3  2  0
  3  4  1  0
  4  5  2  0
  5  6  1  0
  6  7  1  0
  7  8  2  0
  8  9  1  0
  9 10  2  0
 10 11  1  0
 11 12  2  0
 12 13  1  0
 13 14  2  0
 14 15  1  0
 15 16  1  0
 16 17  1  0
 17 18  1  0
 18 19  1  0
 14 20  1  0
 20 21  1  0
 21 22  3  0
 20 23  2  0
 10 24  1  0
 24 25  2  0
 25 26  1  0
  6 27  2  0
 27  2  1  0
 26  8  1  0
 23 11  1  0
 19 15  1  0
  1 28  1  0
  1 29  1  0
  1 30  1  0
  3 31  1  0
  4 32  1  0
  5 33  1  0
 12 34  1  0
 13 35  1  0
 16 36  1  0
 16 37  1  0
 17 38  1  0
 17 39  1  0
 18 40  1  0
 18 41  1  0
 19 42  1  0
 19 43  1  0
 24 44  1  0
 25 45  1  0
 26 46  1  0
 27 47  1  0
M  END
>  <smiles>  (33) 
Cc1cccc(N=c2nc(-c3ccc(N4CCCC4)c(C#N)n3)cc[nH]2)c1

>  <score_type>  (33) 
oracle

>  <origin>  (33) 
adg

>  <m_score__min__energy>  (33) 
-9.3900000000000006

>  <m_primary>  (33) 
energy

$$$$
33:0
     RDKit          3D

 49 52  0  0  0  0  0  0  0  0999 V2000
   -0.1000   23.0420  -35.7420 O   0  0  0  0  0  0  0  0  0  0  0  0
    0.5720   22.1540  -35.1800 N   0  0  0  0  0  0  0  0  0  0  0  0
    1.8060   22.4660  -34.6610 O   0  0  0  0  0  0  0  0  0  0  0  0
    0.0610   20.8210  -35.0790 C   0  0  0  0  0  0  0  0  0  0  0  0
    0.5810   19.7100  -35.7310 C   0  0  0  0  0  0  0  0  0  0  0  0
   -0.1220   18.5330  -35.4450 C   0  0  0  0  0  0  0  0  0  0  0  0
   -1.1890   18.7290  -34.5690 C   0  0  0  0  0  0  0  0  0  0  0  0
   -2.1160   17.7010  -34.0810 C   0  0  0  0  0  0  0  0  0  0  0  0
   -1.8240   16.6850  -33.1890 C   0  0  0  0  0  0  0  0  0  0  0  0
   -2.9930   15.9690  -33.0390 C   0  0  0  0  0  0  0  0  0  0  0  0
   -3.9210   16.5970  -33.8460 C   0  0  0  0  0  0  0  0  0  0  0  0
   -5.3460   16.1710  -34.0500 C   0  0  0  0  0  0  0  0  0  0  0  0
   -6.2940   17.2780  -33.8460 N   0  0  0  0  0  0  0  0  0  0  0  0
   -5.9380   18.4950  -34.5940 C   0  0  0  0  0  0  0  0  0  0  0  0
   -5.7410   19.6680  -33.6690 C   0  0  0  0  0  0  0  0  0  0  0  0
   -4.4490   20.1450  -33.4030 C   0  0  0  0  0  0  0  0  0  0  0  0
   -4.2630   21.2460  -32.5640 C   0  0  0  0  0  0  0  0  0  0  0  0
   -5.3660   21.8890  -31.9770 C   0  0  0  0  0  0  0  0  0  0  0  0
   -5.1690   23.0320  -31.1230 N   0  0  0  0  0  0  0  0  0  0  0  0
   -5.9190   24.2690  -31.3750 C   0  0  0  0  0  0  0  0  0  0  0  0
   -5.3460   25.4180  -30.5430 C   0  0  0  0  0  0  0  0  0  0  0  0
   -3.9400   25.3090  -30.5010 O   0  0  0  0  0  0  0  0  0  0  0  0
   -3.5600   24.2390  -29.6530 C   0  0  0  0  0  0  0  0  0  0  0  0
   -4.3320   22.9250  -29.9200 C   0  0  0  0  0  0  0  0  0  0  0  0
   -6.6590   21.4160  -32.2540 C   0  0  0  0  0  0  0  0  0  0  0  0
   -6.8460   20.3140  -33.0910 C   0  0  0  0  0  0  0  0  0  0  0  0
   -3.3730   17.6230  -34.4540 O   0  0  0  0  0  0  0  0  0  0  0  0
   -1.2640   20.3580  -34.1490 S   0  0  0  0  0  0  0  0  0  0  0  0
    1.4525   19.7505  -36.4009 H   0  0  0  0  0  0  0  0  0  0  0  0
    0.1411   17.5526  -35.8688 H   0  0  0  0  0  0  0  0  0  0  0  0
   -0.8584   16.4886  -32.7001 H   0  0  0  0  0  0  0  0  0  0  0  0
   -3.1529   15.0823  -32.4080 H   0  0  0  0  0  0  0  0  0  0  0  0
   -5.4588   15.7932  -35.0769 H   0  0  0  0  0  0  0  0  0  0  0  0
   -5.5739   15.3914  -33.3081 H   0  0  0  0  0  0  0  0  0  0  0  0
   -7.2440   16.9670  -34.1590 H   0  0  0  0  0  0  0  0  0  0  0  0
   -5.0050   18.3150  -35.1481 H   0  0  0  0  0  0  0  0  0  0  0  0
   -6.7611   18.7315  -35.2843 H   0  0  0  0  0  0  0  0  0  0  0  0
   -3.5782   19.6496  -33.8573 H   0  0  0  0  0  0  0  0  0  0  0  0
   -3.2458   21.6124  -32.3613 H   0  0  0  0  0  0  0  0  0  0  0  0
   -5.8490   24.5244  -32.4427 H   0  0  0  0  0  0  0  0  0  0  0  0
   -6.9705   24.1130  -31.0922 H   0  0  0  0  0  0  0  0  0  0  0  0
   -5.6264   26.3782  -31.0007 H   0  0  0  0  0  0  0  0  0  0  0  0
   -5.7495   25.3690  -29.5209 H   0  0  0  0  0  0  0  0  0  0  0  0
   -2.4868   24.0461  -29.7980 H   0  0  0  0  0  0  0  0  0  0  0  0
   -3.7977   24.5463  -28.6239 H   0  0  0  0  0  0  0  0  0  0  0  0
   -3.6098   22.1068  -30.0577 H   0  0  0  0  0  0  0  0  0  0  0  0
   -4.9864   22.7259  -29.0586 H   0  0  0  0  0  0  0  0  0  0  0  0
   -7.5308   21.9173  -31.8084 H   0  0  0  0  0  0  0  0  0  0  0  0
   -7.8632   19.9503  -33.2985 H   0  0  0  0  0  0  0  0  0  0  0  0
  1  2  2  0
  2  3  1  0
  2  4  1  0
  4  5  2  0
  5  6  1  0
  6  7  2  0
  7  8  1  0
  8  9  2  0
  9 10  1  0
 10 11  2  0
 11 12  1  0
 12 13  1  0
 13 14  1  0
 14 15  1  0
 15 16  2  0
 16 17  1  0
 17 18  2  0
 18 19  1  0
 19 20  1  0
 20 21  1  0
 21 22  1  0
 22 23  1  0
 23 24  1  0
 18 25  1  0
 25 26  2  0
 11 27  1  0
  7 28  1  0
 28  4  1  0
 27  8  1  0
 26 15  1  0
 24 19  1  0
  5 29  1  0
  6 30  1  0
  9 31  1  0
 10 32  1  0
 12 33  1  0
 12 34  1  0
 13 35  1  0
 14 36  1  0
 14 37  1  0
 16 38  1  0
 17 39  1  0
 20 40  1  0
 20 41  1  0
 21 42  1  0
 21 43  1  0
 23 44  1  0
 23 45  1  0
 24 46  1  0
 24 47  1  0
 25 48  1  0
 26 49  1  0
M  CHG  2   2   1   3  -1
M  END
>  <UniqueID>  (34) 
32

>  <SMILES>  (34) 
O=[N+]([O-])c1ccc(-c2ccc(CNCc3ccc(N4CCOCC4)cc3)o2)s1

>  <Energy>  (34) 
113.3441905025333

>  <Genealogy>  (34) 
O=[N+]([O-])c1ccc(-c2ccc(CNCc3ccc(N4CCOCC4)cc3)o2)s1 (3D coordinates assigned)
O=[N+]([O-])c1ccc(-c2ccc(CNCc3ccc(N4CCOCC4)cc3)o2)s1 (nonaromatic ring conformer: 113.3441905025333 kcal/mol)

>  <smiles>  (34) 
O=[N+]([O-])c1ccc(-c2ccc(CNCc3ccc(N4CCOCC4)cc3)o2)s1

>  <score_type>  (34) 
oracle

>  <origin>  (34) 
adg

>  <m_score__min__energy>  (34) 
-9.1099999999999994

>  <m_primary>  (34) 
energy

$$$$
34:0
     RDKit          3D

 46 48  0  0  0  0  0  0  0  0999 V2000
   -2.1190   21.1490  -33.8440 C   0  0  0  0  0  0  0  0  0  0  0  0
   -3.4150   21.6390  -33.3740 N   0  0  0  0  0  0  0  0  0  0  0  0
   -4.0160   20.7350  -32.3780 C   0  0  0  0  0  0  0  0  0  0  0  0
   -5.4190   21.1750  -31.9550 C   0  0  0  0  0  0  0  0  0  0  0  0
   -6.5300   20.2980  -32.1140 C   0  0  0  0  0  0  0  0  0  0  0  0
   -6.3520   18.9110  -32.6040 C   0  0  0  0  0  0  0  0  0  0  0  0
   -6.2450   18.6470  -33.9730 C   0  0  0  0  0  0  0  0  0  0  0  0
   -6.0630   17.3730  -34.4060 N   0  0  0  0  0  0  0  0  0  0  0  0
   -5.9730   16.3340  -33.5290 C   0  0  0  0  0  0  0  0  0  0  0  0
   -5.7810   14.9910  -34.0120 N   0  0  0  0  0  0  0  0  0  0  0  0
   -6.9170   14.2510  -34.5720 C   0  0  0  0  0  0  0  0  0  0  0  0
   -4.4540   14.3740  -33.9410 C   0  0  0  0  0  0  0  0  0  0  0  0
   -6.0630   16.5790  -32.1920 N   0  0  0  0  0  0  0  0  0  0  0  0
   -6.2450   17.8370  -31.7160 C   0  0  0  0  0  0  0  0  0  0  0  0
   -7.8240   20.7450  -31.7590 C   0  0  0  0  0  0  0  0  0  0  0  0
   -9.0490   19.8800  -31.9040 C   0  0  0  0  0  0  0  0  0  0  0  0
   -9.3540   19.6770  -33.3160 N   0  0  0  0  0  0  0  0  0  0  0  0
   -7.9960   22.0050  -31.2890 N   0  0  0  0  0  0  0  0  0  0  0  0
   -6.9680   22.8680  -31.1100 C   0  0  0  0  0  0  0  0  0  0  0  0
   -7.2340   24.1450  -30.6020 C   0  0  0  0  0  0  0  0  0  0  0  0
   -6.1930   25.0480  -30.3920 C   0  0  0  0  0  0  0  0  0  0  0  0
   -4.8800   24.6790  -30.6830 C   0  0  0  0  0  0  0  0  0  0  0  0
   -3.8700   25.5580  -30.4710 F   0  0  0  0  0  0  0  0  0  0  0  0
   -4.6020   23.4080  -31.1930 C   0  0  0  0  0  0  0  0  0  0  0  0
   -5.6450   22.4780  -31.4250 C   0  0  0  0  0  0  0  0  0  0  0  0
   -1.4826   20.9084  -32.9797 H   0  0  0  0  0  0  0  0  0  0  0  0
   -2.2676   20.2450  -34.4529 H   0  0  0  0  0  0  0  0  0  0  0  0
   -1.6324   21.9252  -34.4529 H   0  0  0  0  0  0  0  0  0  0  0  0
   -4.0450   21.7360  -34.2040 H   0  0  0  0  0  0  0  0  0  0  0  0
   -4.0788   19.7257  -32.8109 H   0  0  0  0  0  0  0  0  0  0  0  0
   -3.3770   20.7535  -31.4828 H   0  0  0  0  0  0  0  0  0  0  0  0
   -6.3082   19.4711  -34.6989 H   0  0  0  0  0  0  0  0  0  0  0  0
   -7.5327   13.8499  -33.7534 H   0  0  0  0  0  0  0  0  0  0  0  0
   -7.5253   14.9266  -35.1913 H   0  0  0  0  0  0  0  0  0  0  0  0
   -6.5449   13.4215  -35.1913 H   0  0  0  0  0  0  0  0  0  0  0  0
   -4.1675   14.2408  -32.8874 H   0  0  0  0  0  0  0  0  0  0  0  0
   -4.4778   13.3946  -34.4412 H   0  0  0  0  0  0  0  0  0  0  0  0
   -3.7204   15.0234  -34.4412 H   0  0  0  0  0  0  0  0  0  0  0  0
   -6.3083   18.0112  -30.6317 H   0  0  0  0  0  0  0  0  0  0  0  0
   -8.8651   18.9057  -31.4276 H   0  0  0  0  0  0  0  0  0  0  0  0
   -9.9015   20.3782  -31.4192 H   0  0  0  0  0  0  0  0  0  0  0  0
   -8.5520   20.0520  -33.8730 H   0  0  0  0  0  0  0  0  0  0  0  0
   -9.3890   18.6480  -33.4990 H   0  0  0  0  0  0  0  0  0  0  0  0
   -8.2683   24.4370  -30.3677 H   0  0  0  0  0  0  0  0  0  0  0  0
   -6.4073   26.0519  -29.9966 H   0  0  0  0  0  0  0  0  0  0  0  0
   -3.5623   23.1268  -31.4166 H   0  0  0  0  0  0  0  0  0  0  0  0
  1  2  1  0
  2  3  1  0
  3  4  1  0
  4  5  2  0
  5  6  1  0
  6  7  2  0
  7  8  1  0
  8  9  2  0
  9 10  1  0
 10 11  1  0
 10 12  1  0
  9 13  1  0
 13 14  2  0
  5 15  1  0
 15 16  1  0
 16 17  1  0
 15 18  2  0
 18 19  1  0
 19 20  2  0
 20 21  1  0
 21 22  2  0
 22 23  1  0
 22 24  1  0
 24 25  2  0
 25  4  1  0
 14  6  1  0
 25 19  1  0
  1 26  1  0
  1 27  1  0
  1 28  1  0
  2 29  1  0
  3 30  1  0
  3 31  1  0
  7 32  1  0
 11 33  1  0
 11 34  1  0
 11 35  1  0
 12 36  1  0
 12 37  1  0
 12 38  1  0
 14 39  1  0
 16 40  1  0
 16 41  1  0
 17 42  1  0
 17 43  1  0
 20 44  1  0
 21 45  1  0
 24 46  1  0
M  END
>  <UniqueID>  (35) 
33

>  <SMILES>  (35) 
CNCc1c(-c2cnc(N(C)C)nc2)c(CN)nc2ccc(F)cc12

>  <Energy>  (35) 
60.06702771883187

>  <Genealogy>  (35) 
CNCc1c(-c2cnc(N(C)C)nc2)c(CN)nc2ccc(F)cc12 (3D coordinates assigned)
CNCc1c(-c2cnc(N(C)C)nc2)c(CN)nc2ccc(F)cc12 (optimized conformer: 60.06702771883187 kcal/mol)

>  <smiles>  (35) 
CNCc1c(-c2cnc(N(C)C)nc2)c(CN)nc2ccc(F)cc12

>  <score_type>  (35) 
oracle

>  <origin>  (35) 
adg

>  <m_score__min__energy>  (35) 
-8.5099999999999998

>  <m_primary>  (35) 
energy

$$$$
35:0
     RDKit          3D

 61 65  0  0  0  0  0  0  0  0999 V2000
   -0.8710   26.3200  -23.7990 C   0  0  0  0  0  0  0  0  0  0  0  0
   -0.7280   26.2560  -25.3180 C   0  0  0  0  0  0  0  0  0  0  0  0
   -0.4500   24.8270  -25.8080 C   0  0  0  0  0  0  0  0  0  0  0  0
   -1.4520   24.4030  -26.8100 N   0  0  0  0  0  0  0  0  0  0  0  0
   -2.6970   25.1950  -26.6800 C   0  0  0  0  0  0  0  0  0  0  0  0
   -3.9000   24.5380  -27.3890 C   0  0  0  0  0  0  0  0  0  0  0  0
   -3.4450   23.5730  -28.3960 N   0  0  0  0  0  0  0  0  0  0  0  0
   -3.7570   23.7670  -29.7910 C   0  0  0  0  0  0  0  0  0  0  0  0
   -3.9620   24.9350  -30.2250 O   0  0  0  0  0  0  0  0  0  0  0  0
   -3.8150   22.6340  -30.7390 C   0  0  0  0  0  0  0  0  0  0  0  0
   -5.0320   21.9270  -30.9150 C   0  0  0  0  0  0  0  0  0  0  0  0
   -5.1230   20.8380  -31.8130 C   0  0  0  0  0  0  0  0  0  0  0  0
   -6.4100   20.1360  -32.0070 C   0  0  0  0  0  0  0  0  0  0  0  0
   -7.5640   20.8580  -32.3390 C   0  0  0  0  0  0  0  0  0  0  0  0
   -8.7720   20.1910  -32.5430 C   0  0  0  0  0  0  0  0  0  0  0  0
   -8.8150   18.8020  -32.4260 C   0  0  0  0  0  0  0  0  0  0  0  0
   -7.6870   18.1070  -32.1170 N   0  0  0  0  0  0  0  0  0  0  0  0
   -6.4970   18.7330  -31.9090 C   0  0  0  0  0  0  0  0  0  0  0  0
   -5.3910   17.9930  -31.6440 F   0  0  0  0  0  0  0  0  0  0  0  0
   -3.9570   20.4650  -32.4950 C   0  0  0  0  0  0  0  0  0  0  0  0
   -3.7930   19.4250  -33.3460 N   0  0  0  0  0  0  0  0  0  0  0  0
   -2.4920   19.4700  -33.7070 C   0  0  0  0  0  0  0  0  0  0  0  0
   -1.8290   18.6020  -34.5720 C   0  0  0  0  0  0  0  0  0  0  0  0
   -0.4590   18.8280  -34.8150 C   0  0  0  0  0  0  0  0  0  0  0  0
    0.4450   17.7400  -35.9210 S   0  0  0  0  0  0  0  0  0  0  0  0
    1.1660   19.0880  -36.9160 C   0  0  0  0  0  0  0  0  0  0  0  0
    2.3650   19.4990  -36.3640 F   0  0  0  0  0  0  0  0  0  0  0  0
    1.3950   18.6270  -38.1980 F   0  0  0  0  0  0  0  0  0  0  0  0
    0.2890   20.1560  -36.9710 F   0  0  0  0  0  0  0  0  0  0  0  0
    0.2130   19.8970  -34.1760 C   0  0  0  0  0  0  0  0  0  0  0  0
   -0.4780   20.7560  -33.3010 C   0  0  0  0  0  0  0  0  0  0  0  0
   -1.8340   20.5130  -33.0940 C   0  0  0  0  0  0  0  0  0  0  0  0
   -2.7710   21.1480  -32.3120 C   0  0  0  0  0  0  0  0  0  0  0  0
   -2.6620   22.2310  -31.4440 C   0  0  0  0  0  0  0  0  0  0  0  0
   -2.4990   22.5250  -27.9800 C   0  0  0  0  0  0  0  0  0  0  0  0
   -1.7340   22.9560  -26.7250 C   0  0  0  0  0  0  0  0  0  0  0  0
    0.0363   25.9139  -23.3279 H   0  0  0  0  0  0  0  0  0  0  0  0
   -1.0093   27.3659  -23.4875 H   0  0  0  0  0  0  0  0  0  0  0  0
   -1.7430   25.7263  -23.4875 H   0  0  0  0  0  0  0  0  0  0  0  0
   -1.6605   26.6146  -25.7783 H   0  0  0  0  0  0  0  0  0  0  0  0
    0.1254   26.8872  -25.6067 H   0  0  0  0  0  0  0  0  0  0  0  0
    0.5506   24.7917  -26.2635 H   0  0  0  0  0  0  0  0  0  0  0  0
   -0.5072   24.1451  -24.9467 H   0  0  0  0  0  0  0  0  0  0  0  0
   -2.9349   25.3032  -25.6115 H   0  0  0  0  0  0  0  0  0  0  0  0
   -2.5215   26.1693  -27.1594 H   0  0  0  0  0  0  0  0  0  0  0  0
   -4.5182   24.0170  -26.6431 H   0  0  0  0  0  0  0  0  0  0  0  0
   -4.4863   25.3222  -27.8903 H   0  0  0  0  0  0  0  0  0  0  0  0
   -5.9209   22.2311  -30.3429 H   0  0  0  0  0  0  0  0  0  0  0  0
   -7.5173   21.9525  -32.4389 H   0  0  0  0  0  0  0  0  0  0  0  0
   -9.6823   20.7554  -32.7938 H   0  0  0  0  0  0  0  0  0  0  0  0
   -9.7631   18.2671  -32.5839 H   0  0  0  0  0  0  0  0  0  0  0  0
   -7.7360   17.0650  -32.0480 H   0  0  0  0  0  0  0  0  0  0  0  0
   -4.5040   18.7220  -33.6470 H   0  0  0  0  0  0  0  0  0  0  0  0
   -2.3588   17.7654  -35.0510 H   0  0  0  0  0  0  0  0  0  0  0  0
    1.2847   20.0580  -34.3648 H   0  0  0  0  0  0  0  0  0  0  0  0
    0.0345   21.5896  -32.7985 H   0  0  0  0  0  0  0  0  0  0  0  0
   -1.7049   22.7568  -31.3120 H   0  0  0  0  0  0  0  0  0  0  0  0
   -3.0553   21.6008  -27.7646 H   0  0  0  0  0  0  0  0  0  0  0  0
   -1.7783   22.3548  -28.7934 H   0  0  0  0  0  0  0  0  0  0  0  0
   -2.3431   22.7503  -25.8324 H   0  0  0  0  0  0  0  0  0  0  0  0
   -0.7900   22.3959  -26.6533 H   0  0  0  0  0  0  0  0  0  0  0  0
  1  2  1  0
  2  3  1  0
  3  4  1  0
  4  5  1  0
  5  6  1  0
  6  7  1  0
  7  8  1  0
  8  9  2  0
  8 10  1  0
 10 11  2  0
 11 12  1  0
 12 13  1  0
 13 14  2  0
 14 15  1  0
 15 16  2  0
 16 17  1  0
 17 18  2  0
 18 19  1  0
 12 20  2  0
 20 21  1  0
 21 22  1  0
 22 23  2  0
 23 24  1  0
 24 25  1  0
 25 26  1  0
 26 27  1  0
 26 28  1  0
 26 29  1  0
 24 30  2  0
 30 31  1  0
 31 32  2  0
 32 33  1  0
 33 34  2  0
  7 35  1  0
 35 36  1  0
 36  4  1  0
 34 10  1  0
 18 13  1  0
 33 20  1  0
 32 22  1  0
  1 37  1  0
  1 38  1  0
  1 39  1  0
  2 40  1  0
  2 41  1  0
  3 42  1  0
  3 43  1  0
  5 44  1  0
  5 45  1  0
  6 46  1  0
  6 47  1  0
 11 48  1  0
 14 49  1  0
 15 50  1  0
 16 51  1  0
 17 52  1  0
 21 53  1  0
 23 54  1  0
 30 55  1  0
 31 56  1  0
 34 57  1  0
 35 58  1  0
 35 59  1  0
 36 60  1  0
 36 61  1  0
M  CHG  1  17   1
M  END
>  <UniqueID>  (36) 
34

>  <SMILES>  (36) 
CCCN1CCN(C(=O)c2cc(-c3ccc[nH+]c3F)c3[nH]c4cc(SC(F)(F)F)ccc4c3c2)CC1

>  <Energy>  (36) 
116.57648798124636

>  <Genealogy>  (36) 
CCCN1CCN(C(=O)c2cc(-c3ccc[nH+]c3F)c3[nH]c4cc(SC(F)(F)F)ccc4c3c2)CC1 (protonated)
CCCN1CCN(C(=O)c2cc(-c3ccc[nH+]c3F)c3[nH]c4cc(SC(F)(F)F)ccc4c3c2)CC1 (3D coordinates assigned)
CCCN1CCN(C(=O)c2cc(-c3ccc[nH+]c3F)c3[nH]c4cc(SC(F)(F)F)ccc4c3c2)CC1 (nonaromatic ring conformer: 116.57648798124636 kcal/mol)

>  <smiles>  (36) 
CCCN1CCN(C(=O)c2cc(-c3cccnc3F)c3[nH]c4cc(SC(F)(F)F)ccc4c3c2)CC1

>  <score_type>  (36) 
oracle

>  <origin>  (36) 
adg

>  <m_score__min__energy>  (36) 
-9.6199999999999992

>  <m_primary>  (36) 
energy

$$$$
36:0
     RDKit          3D

 34 35  0  0  0  0  0  0  0  0999 V2000
   -5.7350   25.2760  -30.3780 C   0  0  0  0  0  0  0  0  0  0  0  0
   -5.0700   24.1750  -31.0900 N   0  0  0  0  0  0  0  0  0  0  0  0
   -4.8380   23.0320  -30.1930 C   0  0  0  0  0  0  0  0  0  0  0  0
   -5.7640   23.7990  -32.3440 C   0  0  0  0  0  0  0  0  0  0  0  0
   -6.7900   22.6860  -32.1810 C   0  0  0  0  0  0  0  0  0  0  0  0
   -8.0610   23.0080  -31.6710 C   0  0  0  0  0  0  0  0  0  0  0  0
   -9.0550   22.0340  -31.5620 C   0  0  0  0  0  0  0  0  0  0  0  0
   -8.7950   20.7230  -31.9580 C   0  0  0  0  0  0  0  0  0  0  0  0
   -7.5320   20.3780  -32.4390 C   0  0  0  0  0  0  0  0  0  0  0  0
   -6.5160   21.3390  -32.5310 C   0  0  0  0  0  0  0  0  0  0  0  0
   -4.8880   20.7940  -33.0820 S   0  0  0  0  0  0  0  0  0  0  0  0
   -5.3870   19.0750  -33.2260 C   0  0  0  0  0  0  0  0  0  0  0  0
   -5.7180   18.5470  -34.4820 C   0  0  0  0  0  0  0  0  0  0  0  0
   -6.1090   17.2100  -34.6010 C   0  0  0  0  0  0  0  0  0  0  0  0
   -6.1630   16.3940  -33.4670 C   0  0  0  0  0  0  0  0  0  0  0  0
   -5.8200   16.9130  -32.2140 C   0  0  0  0  0  0  0  0  0  0  0  0
   -5.4300   18.2510  -32.0940 C   0  0  0  0  0  0  0  0  0  0  0  0
   -5.6412   25.1207  -29.2931 H   0  0  0  0  0  0  0  0  0  0  0  0
   -5.2619   26.2299  -30.6541 H   0  0  0  0  0  0  0  0  0  0  0  0
   -6.7995   25.3012  -30.6541 H   0  0  0  0  0  0  0  0  0  0  0  0
   -4.9060   23.3668  -29.1474 H   0  0  0  0  0  0  0  0  0  0  0  0
   -5.5975   22.2587  -30.3805 H   0  0  0  0  0  0  0  0  0  0  0  0
   -3.8371   22.6160  -30.3805 H   0  0  0  0  0  0  0  0  0  0  0  0
   -6.2799   24.6893  -32.7328 H   0  0  0  0  0  0  0  0  0  0  0  0
   -4.9926   23.4192  -33.0301 H   0  0  0  0  0  0  0  0  0  0  0  0
   -8.2741   24.0397  -31.3543 H   0  0  0  0  0  0  0  0  0  0  0  0
  -10.0447   22.3013  -31.1631 H   0  0  0  0  0  0  0  0  0  0  0  0
   -9.5854   19.9609  -31.8912 H   0  0  0  0  0  0  0  0  0  0  0  0
   -7.3315   19.3418  -32.7491 H   0  0  0  0  0  0  0  0  0  0  0  0
   -5.6699   19.1862  -35.3759 H   0  0  0  0  0  0  0  0  0  0  0  0
   -6.3741   16.8001  -35.5867 H   0  0  0  0  0  0  0  0  0  0  0  0
   -6.4753   15.3434  -33.5601 H   0  0  0  0  0  0  0  0  0  0  0  0
   -5.8570   16.2689  -31.3231 H   0  0  0  0  0  0  0  0  0  0  0  0
   -5.1566   18.6569  -31.1089 H   0  0  0  0  0  0  0  0  0  0  0  0
  1  2  1  0
  2  3  1  0
  2  4  1  0
  4  5  1  0
  5  6  2  0
  6  7  1  0
  7  8  2  0
  8  9  1  0
  9 10  2  0
 10 11  1  0
 11 12  1  0
 12 13  2  0
 13 14  1  0
 14 15  2  0
 15 16  1  0
 16 17  2  0
 10  5  1  0
 17 12  1  0
  1 18  1  0
  1 19  1  0
  1 20  1  0
  3 21  1  0
  3 22  1  0
  3 23  1  0
  4 24  1  0
  4 25  1  0
  6 26  1  0
  7 27  1  0
  8 28  1  0
  9 29  1  0
 13 30  1  0
 14 31  1  0
 15 32  1  0
 16 33  1  0
 17 34  1  0
M  END
>  <UniqueID>  (37) 
35

>  <SMILES>  (37) 
CN(C)Cc1ccccc1Sc1ccccc1

>  <Energy>  (37) 
34.1560329110733

>  <Genealogy>  (37) 
CN(C)Cc1ccccc1Sc1ccccc1 (3D coordinates assigned)
CN(C)Cc1ccccc1Sc1ccccc1 (optimized conformer: 34.1560329110733 kcal/mol)

>  <smiles>  (37) 
CN(C)Cc1ccccc1Sc1ccccc1

>  <score_type>  (37) 
oracle

>  <origin>  (37) 
adg

>  <m_score__min__energy>  (37) 
-7.29

>  <m_primary>  (37) 
energy

$$$$
37:0
     RDKit          3D

 25 26  0  0  0  0  0  0  0  0999 V2000
   -2.8220   21.1080  -32.6900 C   0  0  0  0  0  0  0  0  0  0  0  0
   -4.1030   20.4390  -33.0720 C   0  0  0  0  0  0  0  0  0  0  0  0
   -4.0920   19.2760  -33.8420 C   0  0  0  0  0  0  0  0  0  0  0  0
   -5.3110   18.6800  -34.1760 C   0  0  0  0  0  0  0  0  0  0  0  0
   -5.3330   17.4120  -34.9770 C   0  0  0  0  0  0  0  0  0  0  0  0
   -6.4760   19.2210  -33.7160 N   0  0  0  0  0  0  0  0  0  0  0  0
   -6.4730   20.3560  -32.9550 C   0  0  0  0  0  0  0  0  0  0  0  0
   -7.7000   20.9390  -32.4720 N   0  0  0  0  0  0  0  0  0  0  0  0
   -7.8820   22.1690  -31.9420 C   0  0  0  0  0  0  0  0  0  0  0  0
   -9.2090   22.3480  -31.6130 C   0  0  0  0  0  0  0  0  0  0  0  0
   -9.8630   21.1820  -31.9560 C   0  0  0  0  0  0  0  0  0  0  0  0
   -8.9080   20.3380  -32.4840 C   0  0  0  0  0  0  0  0  0  0  0  0
   -5.2860   20.9490  -32.6460 N   0  0  0  0  0  0  0  0  0  0  0  0
   -2.7427   21.1494  -31.5936 H   0  0  0  0  0  0  0  0  0  0  0  0
   -1.9745   20.5373  -33.0976 H   0  0  0  0  0  0  0  0  0  0  0  0
   -2.8061   22.1296  -33.0976 H   0  0  0  0  0  0  0  0  0  0  0  0
   -3.1419   18.8364  -34.1799 H   0  0  0  0  0  0  0  0  0  0  0  0
   -5.3480   16.5483  -34.2960 H   0  0  0  0  0  0  0  0  0  0  0  0
   -6.2316   17.3945  -35.6112 H   0  0  0  0  0  0  0  0  0  0  0  0
   -4.4356   17.3633  -35.6112 H   0  0  0  0  0  0  0  0  0  0  0  0
   -7.3740   18.7550  -33.9660 H   0  0  0  0  0  0  0  0  0  0  0  0
   -7.0887   22.9167  -31.7949 H   0  0  0  0  0  0  0  0  0  0  0  0
   -9.6591   23.2458  -31.1643 H   0  0  0  0  0  0  0  0  0  0  0  0
  -10.9349   20.9678  -31.8326 H   0  0  0  0  0  0  0  0  0  0  0  0
   -9.1029   19.3228  -32.8601 H   0  0  0  0  0  0  0  0  0  0  0  0
  1  2  1  0
  2  3  2  0
  3  4  1  0
  4  5  1  0
  4  6  2  0
  6  7  1  0
  7  8  1  0
  8  9  1  0
  9 10  2  0
 10 11  1  0
 11 12  2  0
  7 13  2  0
 13  2  1  0
 12  8  1  0
  1 14  1  0
  1 15  1  0
  1 16  1  0
  3 17  1  0
  5 18  1  0
  5 19  1  0
  5 20  1  0
  6 21  1  0
  9 22  1  0
 10 23  1  0
 11 24  1  0
 12 25  1  0
M  CHG  1   6   1
M  END
>  <UniqueID>  (38) 
36

>  <SMILES>  (38) 
Cc1cc(C)[nH+]c(-n2cccc2)n1

>  <Energy>  (38) 
50.55970281471495

>  <Genealogy>  (38) 
Cc1cc(C)[nH+]c(-n2cccc2)n1 (protonated)
Cc1cc(C)[nH+]c(-n2cccc2)n1 (3D coordinates assigned)
Cc1cc(C)[nH+]c(-n2cccc2)n1 (optimized conformer: 50.55970281471495 kcal/mol)

>  <smiles>  (38) 
Cc1cc(C)nc(-n2cccc2)n1

>  <score_type>  (38) 
oracle

>  <origin>  (38) 
adg

>  <m_score__min__energy>  (38) 
-4.7800000000000002

>  <m_primary>  (38) 
energy

$$$$
38:0
     RDKit          3D

 22 23  0  0  0  0  0  0  0  0999 V2000
   -5.3850   25.6280  -30.4680 C   0  0  0  0  0  0  0  0  0  0  0  0
   -4.7520   24.5940  -31.2140 O   0  0  0  0  0  0  0  0  0  0  0  0
   -5.3930   23.4240  -31.6480 C   0  0  0  0  0  0  0  0  0  0  0  0
   -4.7070   22.3880  -32.3100 C   0  0  0  0  0  0  0  0  0  0  0  0
   -5.3870   21.2390  -32.7260 C   0  0  0  0  0  0  0  0  0  0  0  0
   -6.7620   21.1070  -32.4870 C   0  0  0  0  0  0  0  0  0  0  0  0
   -7.4330   19.9880  -32.8890 N   0  0  0  0  0  0  0  0  0  0  0  0
   -8.7680   19.8430  -32.6640 C   0  0  0  0  0  0  0  0  0  0  0  0
   -9.4870   20.8450  -32.0110 C   0  0  0  0  0  0  0  0  0  0  0  0
   -8.8290   22.0000  -31.5880 C   0  0  0  0  0  0  0  0  0  0  0  0
   -7.4560   22.1440  -31.8220 C   0  0  0  0  0  0  0  0  0  0  0  0
   -6.7670   23.2930  -31.4090 C   0  0  0  0  0  0  0  0  0  0  0  0
   -5.2643   25.4308  -29.3926 H   0  0  0  0  0  0  0  0  0  0  0  0
   -4.9239   26.5950  -30.7175 H   0  0  0  0  0  0  0  0  0  0  0  0
   -6.4559   25.6572  -30.7175 H   0  0  0  0  0  0  0  0  0  0  0  0
   -3.6280   22.4831  -32.5015 H   0  0  0  0  0  0  0  0  0  0  0  0
   -4.8410   20.4359  -33.2426 H   0  0  0  0  0  0  0  0  0  0  0  0
   -6.9250   19.2190  -33.3810 H   0  0  0  0  0  0  0  0  0  0  0  0
   -9.2829   18.9305  -32.9990 H   0  0  0  0  0  0  0  0  0  0  0  0
  -10.5655   20.7248  -31.8310 H   0  0  0  0  0  0  0  0  0  0  0  0
   -9.3871   22.7953  -31.0722 H   0  0  0  0  0  0  0  0  0  0  0  0
   -7.3100   24.0985  -30.8929 H   0  0  0  0  0  0  0  0  0  0  0  0
  1  2  1  0
  2  3  1  0
  3  4  2  0
  4  5  1  0
  5  6  2  0
  6  7  1  0
  7  8  2  0
  8  9  1  0
  9 10  2  0
 10 11  1  0
 11 12  2  0
 12  3  1  0
 11  6  1  0
  1 13  1  0
  1 14  1  0
  1 15  1  0
  4 16  1  0
  5 17  1  0
  7 18  1  0
  8 19  1  0
  9 20  1  0
 10 21  1  0
 12 22  1  0
M  CHG  1   7   1
M  END
>  <UniqueID>  (39) 
37

>  <SMILES>  (39) 
COc1ccc2[nH+]cccc2c1

>  <Energy>  (39) 
24.943692205968322

>  <Genealogy>  (39) 
COc1ccc2[nH+]cccc2c1 (protonated)
COc1ccc2[nH+]cccc2c1 (3D coordinates assigned)
COc1ccc2[nH+]cccc2c1 (optimized conformer: 24.943692205968322 kcal/mol)

>  <smiles>  (39) 
COc1ccc2ncccc2c1

>  <score_type>  (39) 
oracle

>  <origin>  (39) 
adg

>  <m_score__min__energy>  (39) 
-5.1200000000000001

>  <m_primary>  (39) 
energy

$$$$
39:0
     RDKit          3D

 46 47  0  0  0  0  0  0  0  0999 V2000
   -5.1930   25.3430  -30.4250 C   0  0  0  0  0  0  0  0  0  0  0  0
   -4.9420   24.1880  -31.2190 O   0  0  0  0  0  0  0  0  0  0  0  0
   -5.8800   23.1730  -31.4710 C   0  0  0  0  0  0  0  0  0  0  0  0
   -7.2250   23.2910  -31.0680 C   0  0  0  0  0  0  0  0  0  0  0  0
   -8.1350   22.2650  -31.3260 C   0  0  0  0  0  0  0  0  0  0  0  0
   -7.7180   21.1070  -31.9830 C   0  0  0  0  0  0  0  0  0  0  0  0
   -8.9630   19.7010  -32.3250 Br  0  0  0  0  0  0  0  0  0  0  0  0
   -6.3870   20.9760  -32.3890 C   0  0  0  0  0  0  0  0  0  0  0  0
   -5.4620   22.0030  -32.1440 C   0  0  0  0  0  0  0  0  0  0  0  0
   -4.0240   21.8190  -32.5840 C   0  0  0  0  0  0  0  0  0  0  0  0
   -3.0780   21.9560  -31.4470 N   0  0  2  0  0  0  0  0  0  0  0  0
   -1.6720   21.9150  -31.8970 C   0  0  0  0  0  0  0  0  0  0  0  0
   -3.3460   20.9620  -30.3770 C   0  0  0  0  0  0  0  0  0  0  0  0
   -3.5210   21.5700  -28.9700 C   0  0  0  0  0  0  0  0  0  0  0  0
   -3.5290   22.9960  -29.0450 O   0  0  0  0  0  0  0  0  0  0  0  0
   -3.2210   23.8730  -27.9910 C   0  0  0  0  0  0  0  0  0  0  0  0
   -4.2120   24.4180  -27.1480 C   0  0  0  0  0  0  0  0  0  0  0  0
   -3.8570   25.2780  -26.1070 C   0  0  0  0  0  0  0  0  0  0  0  0
   -2.5180   25.6010  -25.8920 C   0  0  0  0  0  0  0  0  0  0  0  0
   -1.5270   25.0670  -26.7190 C   0  0  0  0  0  0  0  0  0  0  0  0
   -1.8710   24.2010  -27.7740 C   0  0  0  0  0  0  0  0  0  0  0  0
   -0.9080   23.6450  -28.6340 O   0  0  0  0  0  0  0  0  0  0  0  0
   -0.1640   22.4550  -28.3820 C   0  0  0  0  0  0  0  0  0  0  0  0
    0.0380   21.7590  -29.5600 F   0  0  0  0  0  0  0  0  0  0  0  0
    1.0640   22.7990  -27.8510 F   0  0  0  0  0  0  0  0  0  0  0  0
   -0.8350   21.6590  -27.4710 F   0  0  0  0  0  0  0  0  0  0  0  0
   -5.1348   25.0753  -29.3597 H   0  0  0  0  0  0  0  0  0  0  0  0
   -4.4414   26.1137  -30.6510 H   0  0  0  0  0  0  0  0  0  0  0  0
   -6.1967   25.7323  -30.6510 H   0  0  0  0  0  0  0  0  0  0  0  0
   -7.5604   24.1992  -30.5458 H   0  0  0  0  0  0  0  0  0  0  0  0
   -9.1836   22.3695  -31.0106 H   0  0  0  0  0  0  0  0  0  0  0  0
   -6.0617   20.0605  -32.9048 H   0  0  0  0  0  0  0  0  0  0  0  0
   -3.9112   20.8165  -33.0224 H   0  0  0  0  0  0  0  0  0  0  0  0
   -3.7889   22.6011  -33.3209 H   0  0  0  0  0  0  0  0  0  0  0  0
   -3.2310   22.8950  -31.0080 H   0  0  0  0  0  0  0  0  0  0  0  0
   -1.0070   21.8956  -31.0210 H   0  0  0  0  0  0  0  0  0  0  0  0
   -1.5070   21.0117  -32.5026 H   0  0  0  0  0  0  0  0  0  0  0  0
   -1.4547   22.8072  -32.5026 H   0  0  0  0  0  0  0  0  0  0  0  0
   -4.2679   20.4199  -30.6344 H   0  0  0  0  0  0  0  0  0  0  0  0
   -2.4627   20.3082  -30.3282 H   0  0  0  0  0  0  0  0  0  0  0  0
   -4.4727   21.2237  -28.5406 H   0  0  0  0  0  0  0  0  0  0  0  0
   -2.6825   21.2493  -28.3343 H   0  0  0  0  0  0  0  0  0  0  0  0
   -5.2697   24.1642  -27.3116 H   0  0  0  0  0  0  0  0  0  0  0  0
   -4.6353   25.7015  -25.4552 H   0  0  0  0  0  0  0  0  0  0  0  0
   -2.2414   26.2774  -25.0698 H   0  0  0  0  0  0  0  0  0  0  0  0
   -0.4719   25.3247  -26.5448 H   0  0  0  0  0  0  0  0  0  0  0  0
  1  2  1  0
  2  3  1  0
  3  4  2  0
  4  5  1  0
  5  6  2  0
  6  7  1  0
  6  8  1  0
  8  9  2  0
  9 10  1  0
 10 11  1  0
 11 12  1  0
 11 13  1  0
 13 14  1  0
 14 15  1  0
 15 16  1  0
 16 17  2  0
 17 18  1  0
 18 19  2  0
 19 20  1  0
 20 21  2  0
 21 22  1  0
 22 23  1  0
 23 24  1  0
 23 25  1  0
 23 26  1  0
  9  3  1  0
 21 16  1  0
  1 27  1  0
  1 28  1  0
  1 29  1  0
  4 30  1  0
  5 31  1  0
  8 32  1  0
 10 33  1  0
 10 34  1  0
 11 35  1  1
 12 36  1  0
 12 37  1  0
 12 38  1  0
 13 39  1  0
 13 40  1  0
 14 41  1  0
 14 42  1  0
 17 43  1  0
 18 44  1  0
 19 45  1  0
 20 46  1  0
M  CHG  1  11   1
M  END
>  <UniqueID>  (40) 
38

>  <SMILES>  (40) 
COc1ccc(Br)cc1C[N@H+](C)CCOc1ccccc1OC(F)(F)F

>  <Energy>  (40) 
49.04977785383826

>  <Genealogy>  (40) 
COc1ccc(Br)cc1C[NH+](C)CCOc1ccccc1OC(F)(F)F (protonated)
COc1ccc(Br)cc1C[N@H+](C)CCOc1ccccc1OC(F)(F)F (chirality)
COc1ccc(Br)cc1C[N@H+](C)CCOc1ccccc1OC(F)(F)F (3D coordinates assigned)
COc1ccc(Br)cc1C[N@H+](C)CCOc1ccccc1OC(F)(F)F (optimized conformer: 49.04977785383826 kcal/mol)

>  <smiles>  (40) 
COc1ccc(Br)cc1CN(C)CCOc1ccccc1OC(F)(F)F

>  <score_type>  (40) 
oracle

>  <origin>  (40) 
adg

>  <m_score__min__energy>  (40) 
-6.3399999999999999

>  <m_primary>  (40) 
energy

$$$$
40:0
     RDKit          3D

 55 58  0  0  0  0  0  0  0  0999 V2000
   -4.9796   16.6706  -35.6083 H   0  0  0  0  0  0  0  0  0  0  0  0
   -5.0620   17.2270  -34.6630 C   0  0  0  0  0  0  0  0  0  0  0  0
   -6.4930   17.6690  -33.8970 S   0  0  0  0  0  0  0  0  0  0  0  0
   -5.6930   18.4070  -32.6060 C   0  0  0  0  0  0  0  0  0  0  0  0
   -6.2530   19.0270  -31.6080 N   0  0  0  0  0  0  0  0  0  0  0  0
   -7.1170   20.1720  -31.6930 C   0  0  0  0  0  0  0  0  0  0  0  0
   -6.5870   21.4760  -31.7130 C   0  0  0  0  0  0  0  0  0  0  0  0
   -5.5000   21.6251  -31.6336 H   0  0  0  0  0  0  0  0  0  0  0  0
   -7.4320   22.5820  -31.8330 C   0  0  0  0  0  0  0  0  0  0  0  0
   -7.0112   23.5983  -31.8298 H   0  0  0  0  0  0  0  0  0  0  0  0
   -8.8100   22.3980  -31.9570 C   0  0  0  0  0  0  0  0  0  0  0  0
   -9.4747   23.2703  -32.0423 H   0  0  0  0  0  0  0  0  0  0  0  0
   -9.3470   21.1080  -31.9730 C   0  0  0  0  0  0  0  0  0  0  0  0
  -10.4330   20.9687  -32.0785 H   0  0  0  0  0  0  0  0  0  0  0  0
   -8.5070   19.9880  -31.8550 C   0  0  0  0  0  0  0  0  0  0  0  0
   -9.0920   18.6030  -31.8810 C   0  0  0  0  0  0  0  0  0  0  0  0
   -9.2416   18.2488  -30.8504 H   0  0  0  0  0  0  0  0  0  0  0  0
  -10.0585   18.6230  -32.4058 H   0  0  0  0  0  0  0  0  0  0  0  0
   -8.4038   17.9241  -32.4058 H   0  0  0  0  0  0  0  0  0  0  0  0
   -4.3540   18.3430  -32.7480 N   0  0  0  0  0  0  0  0  0  0  0  0
   -3.9990   17.6900  -33.8890 C   0  0  0  0  0  0  0  0  0  0  0  0
   -2.5630   17.4380  -34.2410 C   0  0  0  0  0  0  0  0  0  0  0  0
   -2.2127   16.5564  -33.6841 H   0  0  0  0  0  0  0  0  0  0  0  0
   -2.5083   17.2776  -35.3279 H   0  0  0  0  0  0  0  0  0  0  0  0
   -1.6700   18.6110  -33.9040 C   0  0  0  0  0  0  0  0  0  0  0  0
   -0.5480   18.6900  -34.3910 O   0  0  0  0  0  0  0  0  0  0  0  0
   -2.1590   19.6650  -33.0360 N   0  0  0  0  0  0  0  0  0  0  0  0
   -2.9130   19.2650  -32.4250 H   0  0  0  0  0  0  0  0  0  0  0  0
   -2.7510   20.7530  -33.8390 C   0  0  0  0  0  0  0  0  0  0  0  0
   -1.9529   21.2870  -34.3755 H   0  0  0  0  0  0  0  0  0  0  0  0
   -3.4615   20.3261  -34.5621 H   0  0  0  0  0  0  0  0  0  0  0  0
   -3.4900   21.7320  -32.9200 C   0  0  0  0  0  0  0  0  0  0  0  0
   -3.6103   22.6940  -33.4396 H   0  0  0  0  0  0  0  0  0  0  0  0
   -4.4734   21.3075  -32.6693 H   0  0  0  0  0  0  0  0  0  0  0  0
   -2.7400   21.9460  -31.6800 N   0  0  0  0  0  0  0  0  0  0  0  0
   -3.3790   22.5990  -30.5740 C   0  0  0  0  0  0  0  0  0  0  0  0
   -4.0000   23.8390  -30.7850 C   0  0  0  0  0  0  0  0  0  0  0  0
   -4.0015   24.2864  -31.7899 H   0  0  0  0  0  0  0  0  0  0  0  0
   -4.6160   24.5080  -29.7260 C   0  0  0  0  0  0  0  0  0  0  0  0
   -5.1030   25.4791  -29.8988 H   0  0  0  0  0  0  0  0  0  0  0  0
   -4.6150   23.9470  -28.4490 C   0  0  0  0  0  0  0  0  0  0  0  0
   -5.0947   24.4798  -27.6147 H   0  0  0  0  0  0  0  0  0  0  0  0
   -4.0060   22.7100  -28.2280 C   0  0  0  0  0  0  0  0  0  0  0  0
   -4.0022   22.2763  -27.2171 H   0  0  0  0  0  0  0  0  0  0  0  0
   -3.3980   22.0150  -29.2870 C   0  0  0  0  0  0  0  0  0  0  0  0
   -2.7290   20.6960  -29.0130 C   0  0  0  0  0  0  0  0  0  0  0  0
   -2.6514   20.5430  -27.9265 H   0  0  0  0  0  0  0  0  0  0  0  0
   -3.3242   19.8839  -29.4561 H   0  0  0  0  0  0  0  0  0  0  0  0
   -1.7222   20.6965  -29.4561 H   0  0  0  0  0  0  0  0  0  0  0  0
   -1.3270   21.5680  -31.5840 C   0  0  0  0  0  0  0  0  0  0  0  0
   -0.7249   22.2950  -32.1487 H   0  0  0  0  0  0  0  0  0  0  0  0
   -1.0463   21.5629  -30.5204 H   0  0  0  0  0  0  0  0  0  0  0  0
   -1.0700   20.1550  -32.1550 C   0  0  0  0  0  0  0  0  0  0  0  0
   -0.1363   20.1789  -32.7361 H   0  0  0  0  0  0  0  0  0  0  0  0
   -1.0116   19.4662  -31.2994 H   0  0  0  0  0  0  0  0  0  0  0  0
  1  2  1  0
  2  3  1  0
  3  4  1  0
  4  5  2  0
  5  6  1  0
  6  7  2  0
  7  8  1  0
  7  9  1  0
  9 10  1  0
  9 11  2  0
 11 12  1  0
 11 13  1  0
 13 14  1  0
 13 15  2  0
 15 16  1  0
 16 17  1  0
 16 18  1  0
 16 19  1  0
  4 20  1  0
 20 21  1  0
 21 22  1  0
 22 23  1  0
 22 24  1  0
 22 25  1  0
 25 26  2  0
 25 27  1  0
 27 28  1  0
 27 29  1  0
 29 30  1  0
 29 31  1  0
 29 32  1  0
 32 33  1  0
 32 34  1  0
 32 35  1  0
 35 36  1  0
 36 37  2  0
 37 38  1  0
 37 39  1  0
 39 40  1  0
 39 41  2  0
 41 42  1  0
 41 43  1  0
 43 44  1  0
 43 45  2  0
 45 46  1  0
 46 47  1  0
 46 48  1  0
 46 49  1  0
 35 50  1  0
 50 51  1  0
 50 52  1  0
 50 53  1  0
 53 54  1  0
 53 55  1  0
 21  2  2  0
 53 27  1  0
 15  6  1  0
 45 36  1  0
M  CHG  2  20  -1  27   1
M  END
>  <UniqueID>  (41) 
39

>  <SMILES>  (41) 
Cc1ccccc1/N=c1/[n-]c(CC(=O)[NH+]2CCN(c3ccccc3C)CC2)cs1

>  <Energy>  (41) 
106.68411749811811

>  <Genealogy>  (41) 
Cc1ccccc1N=c1[n-]c(CC(=O)[NH+]2CCN(c3ccccc3C)CC2)cs1 (protonated)
Cc1ccccc1/N=c1/[n-]c(CC(=O)[NH+]2CCN(c3ccccc3C)CC2)cs1 (cis-trans isomerization)
Cc1ccccc1/N=c1/[n-]c(CC(=O)[NH+]2CCN(c3ccccc3C)CC2)cs1 (3D coordinates assigned)
Cc1ccccc1/N=c1/[n-]c(CC(=O)[NH+]2CCN(c3ccccc3C)CC2)cs1 (nonaromatic ring conformer: 106.68411749811811 kcal/mol)

>  <smiles>  (41) 
Cc1ccccc1N=c1[nH]c(CC(=O)N2CCN(c3ccccc3C)CC2)cs1

>  <score_type>  (41) 
oracle

>  <origin>  (41) 
adg

>  <m_score__min__energy>  (41) 
-9.9700000000000006

>  <m_primary>  (41) 
energy

$$$$
41:0
     RDKit          3D

 33 34  0  0  0  0  0  0  0  0999 V2000
   -8.2023   24.2739  -30.5598 H   0  0  0  0  0  0  0  0  0  0  0  0
   -7.6060   23.5840  -31.1750 C   0  0  0  0  0  0  0  0  0  0  0  0
   -6.1440   23.5390  -30.9810 C   0  0  0  0  0  0  0  0  0  0  0  0
   -5.3730   23.3900  -31.9700 O   0  0  0  0  0  0  0  0  0  0  0  0
   -5.6000   23.6630  -29.6610 N   0  0  0  0  0  0  0  0  0  0  0  0
   -6.2560   23.7830  -28.8560 H   0  0  0  0  0  0  0  0  0  0  0  0
   -4.1570   23.6270  -29.4260 C   0  0  0  0  0  0  0  0  0  0  0  0
   -3.7221   22.7794  -29.9760 H   0  0  0  0  0  0  0  0  0  0  0  0
   -3.9759   23.5132  -28.3470 H   0  0  0  0  0  0  0  0  0  0  0  0
   -3.5160   24.8970  -29.8920 C   0  0  0  0  0  0  0  0  0  0  0  0
   -4.0390   25.5480  -30.8370 O   0  0  0  0  0  0  0  0  0  0  0  0
   -2.2600   25.2970  -29.3310 N   0  0  0  0  0  0  0  0  0  0  0  0
   -1.7230   24.8930  -28.0610 C   0  0  0  0  0  0  0  0  0  0  0  0
   -1.8970   25.6760  -26.9040 C   0  0  0  0  0  0  0  0  0  0  0  0
   -2.4408   26.6302  -26.9647 H   0  0  0  0  0  0  0  0  0  0  0  0
   -1.3810   25.2450  -25.6780 C   0  0  0  0  0  0  0  0  0  0  0  0
   -1.5112   25.8656  -24.7792 H   0  0  0  0  0  0  0  0  0  0  0  0
   -0.7010   24.0290  -25.5920 C   0  0  0  0  0  0  0  0  0  0  0  0
   -0.2889   23.6962  -24.6279 H   0  0  0  0  0  0  0  0  0  0  0  0
   -0.5440   23.2350  -26.7300 C   0  0  0  0  0  0  0  0  0  0  0  0
   -0.0144   22.2735  -26.6586 H   0  0  0  0  0  0  0  0  0  0  0  0
   -1.0580   23.6580  -27.9610 C   0  0  0  0  0  0  0  0  0  0  0  0
   -0.8220   22.5380  -29.4970 Br  0  0  0  0  0  0  0  0  0  0  0  0
   -8.2320   22.8140  -32.0740 C   0  0  0  0  0  0  0  0  0  0  0  0
   -8.8492   23.3027  -32.8423 H   0  0  0  0  0  0  0  0  0  0  0  0
   -8.1340   21.3420  -32.0840 C   0  0  0  0  0  0  0  0  0  0  0  0
   -6.8310   20.4970  -32.7270 S   0  0  0  0  0  0  0  0  0  0  0  0
   -7.4130   18.9560  -32.3880 C   0  0  0  0  0  0  0  0  0  0  0  0
   -6.9057   18.0083  -32.6217 H   0  0  0  0  0  0  0  0  0  0  0  0
   -8.6450   19.0880  -31.7620 C   0  0  0  0  0  0  0  0  0  0  0  0
   -9.2460   18.2280  -31.4316 H   0  0  0  0  0  0  0  0  0  0  0  0
   -9.0520   20.4160  -31.5900 C   0  0  0  0  0  0  0  0  0  0  0  0
  -10.0013   20.7008  -31.1128 H   0  0  0  0  0  0  0  0  0  0  0  0
  1  2  1  0
  2  3  1  0
  3  4  2  0
  3  5  1  0
  5  6  1  0
  5  7  1  0
  7  8  1  0
  7  9  1  0
  7 10  1  0
 10 11  2  0
 10 12  1  0
 12 13  1  0
 13 14  2  0
 14 15  1  0
 14 16  1  0
 16 17  1  0
 16 18  2  0
 18 19  1  0
 18 20  1  0
 20 21  1  0
 20 22  2  0
 22 23  1  0
  2 24  2  0
 24 25  1  0
 24 26  1  0
 26 27  1  0
 27 28  1  0
 28 29  1  0
 28 30  2  0
 30 31  1  0
 30 32  1  0
 32 33  1  0
 22 13  1  0
 32 26  2  0
M  CHG  1  12  -1
M  END
>  <UniqueID>  (42) 
40

>  <SMILES>  (42) 
O=C(CNC(=O)/C=C/c1cccs1)[N-]c1ccccc1Br

>  <Energy>  (42) 
58.91861045525022

>  <Genealogy>  (42) 
O=C(CNC(=O)C=Cc1cccs1)[N-]c1ccccc1Br (protonated)
O=C(CNC(=O)/C=C/c1cccs1)[N-]c1ccccc1Br (cis-trans isomerization)
O=C(CNC(=O)/C=C/c1cccs1)[N-]c1ccccc1Br (3D coordinates assigned)
O=C(CNC(=O)/C=C/c1cccs1)[N-]c1ccccc1Br (optimized conformer: 58.91861045525022 kcal/mol)

>  <smiles>  (42) 
O=C(C=Cc1cccs1)NCC(=O)Nc1ccccc1Br

>  <score_type>  (42) 
oracle

>  <origin>  (42) 
adg

>  <m_score__min__energy>  (42) 
-10.199999999999999

>  <m_primary>  (42) 
energy

$$$$
42:0
     RDKit          3D

 39 41  0  0  0  0  0  0  0  0999 V2000
   -9.5100   21.7710  -31.5910 C   0  0  0  0  0  0  0  0  0  0  0  0
   -8.1050   22.0470  -31.9420 N   0  0  0  0  0  0  0  0  0  0  0  0
   -7.7560   23.4410  -31.5910 C   0  0  0  0  0  0  0  0  0  0  0  0
   -7.2160   23.5080  -30.1570 C   0  0  0  0  0  0  0  0  0  0  0  0
   -5.8280   24.0670  -30.1420 C   0  0  0  0  0  0  0  0  0  0  0  0
   -5.3570   25.1540  -30.8540 C   0  0  0  0  0  0  0  0  0  0  0  0
   -4.0370   25.2960  -30.6190 N   0  0  0  0  0  0  0  0  0  0  0  0
   -3.6700   24.3210  -29.8030 N   0  0  0  0  0  0  0  0  0  0  0  0
   -2.3210   24.1670  -29.2750 C   0  0  0  0  0  0  0  0  0  0  0  0
   -4.7300   23.5540  -29.4860 C   0  0  0  0  0  0  0  0  0  0  0  0
   -7.2080   21.0860  -31.2620 C   0  0  0  0  0  0  0  0  0  0  0  0
   -6.2180   20.5160  -32.2340 C   0  0  0  0  0  0  0  0  0  0  0  0
   -5.0660   21.1300  -32.7130 C   0  0  0  0  0  0  0  0  0  0  0  0
   -4.4280   20.3140  -33.5340 O   0  0  0  0  0  0  0  0  0  0  0  0
   -5.1140   19.1980  -33.6040 C   0  0  0  0  0  0  0  0  0  0  0  0
   -4.8130   18.0590  -34.3460 C   0  0  0  0  0  0  0  0  0  0  0  0
   -5.6970   16.9670  -34.2630 C   0  0  0  0  0  0  0  0  0  0  0  0
   -6.8500   17.0410  -33.4490 C   0  0  0  0  0  0  0  0  0  0  0  0
   -7.1290   18.2060  -32.7110 C   0  0  0  0  0  0  0  0  0  0  0  0
   -6.2330   19.2690  -32.8160 C   0  0  0  0  0  0  0  0  0  0  0  0
   -9.6172   21.7500  -30.4964 H   0  0  0  0  0  0  0  0  0  0  0  0
  -10.1537   22.5599  -32.0073 H   0  0  0  0  0  0  0  0  0  0  0  0
   -9.8075   20.7973  -32.0073 H   0  0  0  0  0  0  0  0  0  0  0  0
   -6.9870   23.8089  -32.2862 H   0  0  0  0  0  0  0  0  0  0  0  0
   -8.6585   24.0656  -31.6637 H   0  0  0  0  0  0  0  0  0  0  0  0
   -7.8719   24.1528  -29.5536 H   0  0  0  0  0  0  0  0  0  0  0  0
   -7.1930   22.4908  -29.7391 H   0  0  0  0  0  0  0  0  0  0  0  0
   -5.9620   25.7996  -31.5075 H   0  0  0  0  0  0  0  0  0  0  0  0
   -2.3549   24.1709  -28.1755 H   0  0  0  0  0  0  0  0  0  0  0  0
   -1.8966   23.2146  -29.6254 H   0  0  0  0  0  0  0  0  0  0  0  0
   -1.6929   24.9993  -29.6254 H   0  0  0  0  0  0  0  0  0  0  0  0
   -4.7213   22.6763  -28.8230 H   0  0  0  0  0  0  0  0  0  0  0  0
   -6.6674   21.6032  -30.4556 H   0  0  0  0  0  0  0  0  0  0  0  0
   -7.8127   20.2662  -30.8469 H   0  0  0  0  0  0  0  0  0  0  0  0
   -4.7346   22.1448  -32.4478 H   0  0  0  0  0  0  0  0  0  0  0  0
   -3.9131   18.0140  -34.9769 H   0  0  0  0  0  0  0  0  0  0  0  0
   -5.4893   16.0506  -34.8350 H   0  0  0  0  0  0  0  0  0  0  0  0
   -7.5342   16.1816  -33.3920 H   0  0  0  0  0  0  0  0  0  0  0  0
   -8.0227   18.2757  -32.0735 H   0  0  0  0  0  0  0  0  0  0  0  0
  1  2  1  0
  2  3  1  0
  3  4  1  0
  4  5  1  0
  5  6  1  0
  6  7  2  0
  7  8  1  0
  8  9  1  0
  8 10  1  0
  2 11  1  0
 11 12  1  0
 12 13  2  0
 13 14  1  0
 14 15  1  0
 15 16  2  0
 16 17  1  0
 17 18  2  0
 18 19  1  0
 19 20  2  0
 10  5  2  0
 20 12  1  0
 20 15  1  0
  1 21  1  0
  1 22  1  0
  1 23  1  0
  3 24  1  0
  3 25  1  0
  4 26  1  0
  4 27  1  0
  6 28  1  0
  9 29  1  0
  9 30  1  0
  9 31  1  0
 10 32  1  0
 11 33  1  0
 11 34  1  0
 13 35  1  0
 16 36  1  0
 17 37  1  0
 18 38  1  0
 19 39  1  0
M  END
>  <UniqueID>  (43) 
41

>  <SMILES>  (43) 
CN(CCc1cnn(C)c1)Cc1coc2ccccc12

>  <Energy>  (43) 
101.26186197575673

>  <Genealogy>  (43) 
CN(CCc1cnn(C)c1)Cc1coc2ccccc12 (3D coordinates assigned)
CN(CCc1cnn(C)c1)Cc1coc2ccccc12 (optimized conformer: 101.26186197575673 kcal/mol)

>  <smiles>  (43) 
CN(CCc1cnn(C)c1)Cc1coc2ccccc12

>  <score_type>  (43) 
oracle

>  <origin>  (43) 
adg

>  <m_score__min__energy>  (43) 
-7.9699999999999998

>  <m_primary>  (43) 
energy

$$$$
43:0
     RDKit          3D

 26 27  0  0  0  0  0  0  0  0999 V2000
   -2.0810   25.2600  -29.3230 O   0  0  0  0  0  0  0  0  0  0  0  0
   -3.3290   24.5450  -29.7580 S   0  0  0  0  0  0  0  0  0  0  0  0
   -4.1570   24.2520  -28.5370 O   0  0  0  0  0  0  0  0  0  0  0  0
   -4.2270   25.5770  -30.8350 N   0  0  0  0  0  0  0  0  0  0  0  0
   -5.6410   25.6440  -30.4620 C   0  0  0  0  0  0  0  0  0  0  0  0
   -6.3480   24.3670  -30.7940 C   0  0  0  0  0  0  0  0  0  0  0  0
   -6.8700   23.4630  -29.8780 C   0  0  0  0  0  0  0  0  0  0  0  0
   -7.4890   22.3630  -30.4840 C   0  0  0  0  0  0  0  0  0  0  0  0
   -7.4550   22.3990  -31.8720 C   0  0  0  0  0  0  0  0  0  0  0  0
   -6.6550   23.8010  -32.3470 S   0  0  0  0  0  0  0  0  0  0  0  0
   -2.8690   23.0420  -30.5550 C   0  0  0  0  0  0  0  0  0  0  0  0
   -1.5940   22.4880  -30.3610 C   0  0  0  0  0  0  0  0  0  0  0  0
   -1.2500   21.2840  -30.9840 C   0  0  0  0  0  0  0  0  0  0  0  0
   -2.1760   20.6280  -31.8010 C   0  0  0  0  0  0  0  0  0  0  0  0
   -3.4490   21.1750  -31.9970 C   0  0  0  0  0  0  0  0  0  0  0  0
   -4.7150   20.2760  -33.1080 Br  0  0  0  0  0  0  0  0  0  0  0  0
   -3.7950   22.3800  -31.3730 C   0  0  0  0  0  0  0  0  0  0  0  0
   -5.7187   25.8266  -29.3801 H   0  0  0  0  0  0  0  0  0  0  0  0
   -6.1127   26.4612  -31.0274 H   0  0  0  0  0  0  0  0  0  0  0  0
   -6.8039   23.5974  -28.7882 H   0  0  0  0  0  0  0  0  0  0  0  0
   -7.9580   21.5472  -29.9145 H   0  0  0  0  0  0  0  0  0  0  0  0
   -7.8789   21.6401  -32.5461 H   0  0  0  0  0  0  0  0  0  0  0  0
   -0.8642   23.0016  -29.7179 H   0  0  0  0  0  0  0  0  0  0  0  0
   -0.2498   20.8526  -30.8311 H   0  0  0  0  0  0  0  0  0  0  0  0
   -1.9035   19.6811  -32.2901 H   0  0  0  0  0  0  0  0  0  0  0  0
   -4.7967   22.8084  -31.5253 H   0  0  0  0  0  0  0  0  0  0  0  0
  1  2  2  0
  2  3  2  0
  2  4  1  0
  4  5  1  0
  5  6  1  0
  6  7  2  0
  7  8  1  0
  8  9  2  0
  9 10  1  0
  2 11  1  0
 11 12  2  0
 12 13  1  0
 13 14  2  0
 14 15  1  0
 15 16  1  0
 15 17  2  0
 10  6  1  0
 17 11  1  0
  5 18  1  0
  5 19  1  0
  7 20  1  0
  8 21  1  0
  9 22  1  0
 12 23  1  0
 13 24  1  0
 14 25  1  0
 17 26  1  0
M  CHG  1   4  -1
M  END
>  <UniqueID>  (44) 
42

>  <SMILES>  (44) 
O=S(=O)([N-]Cc1cccs1)c1cccc(Br)c1

>  <Energy>  (44) 
49.910274867129

>  <Genealogy>  (44) 
O=S(=O)([N-]Cc1cccs1)c1cccc(Br)c1 (protonated)
O=S(=O)([N-]Cc1cccs1)c1cccc(Br)c1 (3D coordinates assigned)
O=S(=O)([N-]Cc1cccs1)c1cccc(Br)c1 (optimized conformer: 49.910274867129 kcal/mol)

>  <smiles>  (44) 
O=S(=O)(NCc1cccs1)c1cccc(Br)c1

>  <score_type>  (44) 
oracle

>  <origin>  (44) 
adg

>  <m_score__min__energy>  (44) 
-8.9100000000000001

>  <m_primary>  (44) 
energy

$$$$
44:0
     RDKit          3D

 35 38  0  0  0  0  0  0  0  0999 V2000
   -9.0900   18.8210  -31.5750 C   0  0  0  0  0  0  0  0  0  0  0  0
   -7.8870   19.3730  -32.1980 N   0  0  0  0  0  0  0  0  0  0  0  0
   -7.5040   20.6800  -32.2830 C   0  0  0  0  0  0  0  0  0  0  0  0
   -8.2040   21.8330  -31.6190 C   0  0  0  0  0  0  0  0  0  0  0  0
   -7.6560   23.4170  -32.3430 S   0  0  0  0  0  0  0  0  0  0  0  0
   -6.1800   23.5380  -31.3390 C   0  0  0  0  0  0  0  0  0  0  0  0
   -4.9940   22.9900  -31.6980 N   0  0  0  0  0  0  0  0  0  0  0  0
   -4.0610   23.1930  -30.7360 C   0  0  0  0  0  0  0  0  0  0  0  0
   -2.7450   22.7320  -30.8040 C   0  0  0  0  0  0  0  0  0  0  0  0
   -1.8790   23.0010  -29.7300 C   0  0  0  0  0  0  0  0  0  0  0  0
   -2.3360   23.7220  -28.6090 C   0  0  0  0  0  0  0  0  0  0  0  0
   -3.6620   24.1800  -28.5500 C   0  0  0  0  0  0  0  0  0  0  0  0
   -4.4990   23.9000  -29.6270 C   0  0  0  0  0  0  0  0  0  0  0  0
   -6.1180   24.2990  -29.8290 S   0  0  0  0  0  0  0  0  0  0  0  0
   -6.3690   20.8410  -33.0090 N   0  0  0  0  0  0  0  0  0  0  0  0
   -6.0480   19.6000  -33.4060 C   0  0  0  0  0  0  0  0  0  0  0  0
   -4.9720   19.2030  -34.1970 C   0  0  0  0  0  0  0  0  0  0  0  0
   -4.8550   17.8340  -34.5000 C   0  0  0  0  0  0  0  0  0  0  0  0
   -5.8070   16.9100  -34.0120 C   0  0  0  0  0  0  0  0  0  0  0  0
   -6.8830   17.3450  -33.2160 C   0  0  0  0  0  0  0  0  0  0  0  0
   -6.9670   18.7090  -32.9280 C   0  0  0  0  0  0  0  0  0  0  0  0
   -8.9901   18.8668  -30.4805 H   0  0  0  0  0  0  0  0  0  0  0  0
   -9.9668   19.4069  -31.8880 H   0  0  0  0  0  0  0  0  0  0  0  0
   -9.2177   17.7742  -31.8880 H   0  0  0  0  0  0  0  0  0  0  0  0
   -9.2898   21.7270  -31.7601 H   0  0  0  0  0  0  0  0  0  0  0  0
   -7.9585   21.8283  -30.5468 H   0  0  0  0  0  0  0  0  0  0  0  0
   -2.3926   22.1692  -31.6810 H   0  0  0  0  0  0  0  0  0  0  0  0
   -0.8383   22.6465  -29.7649 H   0  0  0  0  0  0  0  0  0  0  0  0
   -1.6494   23.9274  -27.7745 H   0  0  0  0  0  0  0  0  0  0  0  0
   -4.0286   24.7431  -27.6791 H   0  0  0  0  0  0  0  0  0  0  0  0
   -5.8620   21.7310  -33.2160 H   0  0  0  0  0  0  0  0  0  0  0  0
   -4.2400   19.9338  -34.5713 H   0  0  0  0  0  0  0  0  0  0  0  0
   -4.0180   17.4807  -35.1201 H   0  0  0  0  0  0  0  0  0  0  0  0
   -5.7060   15.8423  -34.2564 H   0  0  0  0  0  0  0  0  0  0  0  0
   -7.6317   16.6354  -32.8340 H   0  0  0  0  0  0  0  0  0  0  0  0
  1  2  1  0
  2  3  1  0
  3  4  1  0
  4  5  1  0
  5  6  1  0
  6  7  2  0
  7  8  1  0
  8  9  2  0
  9 10  1  0
 10 11  2  0
 11 12  1  0
 12 13  2  0
 13 14  1  0
  3 15  2  0
 15 16  1  0
 16 17  2  0
 17 18  1  0
 18 19  2  0
 19 20  1  0
 20 21  2  0
 21  2  1  0
 14  6  1  0
 21 16  1  0
 13  8  1  0
  1 22  1  0
  1 23  1  0
  1 24  1  0
  4 25  1  0
  4 26  1  0
  9 27  1  0
 10 28  1  0
 11 29  1  0
 12 30  1  0
 15 31  1  0
 17 32  1  0
 18 33  1  0
 19 34  1  0
 20 35  1  0
M  CHG  1  15   1
M  END
>  <UniqueID>  (45) 
43

>  <SMILES>  (45) 
Cn1c(CSc2nc3ccccc3s2)[nH+]c2ccccc21

>  <Energy>  (45) 
106.53770193940876

>  <Genealogy>  (45) 
Cn1c(CSc2nc3ccccc3s2)[nH+]c2ccccc21 (protonated)
Cn1c(CSc2nc3ccccc3s2)[nH+]c2ccccc21 (3D coordinates assigned)
Cn1c(CSc2nc3ccccc3s2)[nH+]c2ccccc21 (optimized conformer: 106.53770193940876 kcal/mol)

>  <smiles>  (45) 
Cn1c(CSc2nc3ccccc3s2)nc2ccccc21

>  <score_type>  (45) 
oracle

>  <origin>  (45) 
adg

>  <m_score__min__energy>  (45) 
-7.4800000000000004

>  <m_primary>  (45) 
energy

$$$$
45:0
     RDKit          3D

 53 55  0  0  0  0  0  0  0  0999 V2000
   -2.1410   20.8080  -32.6960 C   0  0  0  0  0  0  0  0  0  0  0  0
   -3.4990   21.0880  -32.0510 C   0  0  0  0  0  0  0  0  0  0  0  0
   -4.3040   22.1600  -32.8020 C   0  0  0  0  0  0  0  0  0  0  0  0
   -5.7470   22.2220  -32.3410 C   0  0  0  0  0  0  0  0  0  0  0  0
   -6.2400   23.3900  -31.7180 C   0  0  0  0  0  0  0  0  0  0  0  0
   -5.3780   24.4930  -31.5740 O   0  0  0  0  0  0  0  0  0  0  0  0
   -5.2220   25.2910  -30.3980 C   0  0  0  0  0  0  0  0  0  0  0  0
   -4.6600   24.4670  -29.2330 C   0  0  0  0  0  0  0  0  0  0  0  0
   -3.6030   23.4470  -29.6770 C   0  0  0  0  0  0  0  0  0  0  0  0
   -2.5380   23.3270  -28.6580 N   0  0  0  0  0  0  0  0  0  0  0  0
   -2.4260   24.5480  -27.8160 C   0  0  0  0  0  0  0  0  0  0  0  0
   -1.2700   25.4620  -28.2570 C   0  0  0  0  0  0  0  0  0  0  0  0
    0.0410   24.7680  -28.2290 N   0  0  0  0  0  0  0  0  0  0  0  0
    0.7960   25.0940  -27.0100 C   0  0  0  0  0  0  0  0  0  0  0  0
   -0.0620   23.3000  -28.3980 C   0  0  0  0  0  0  0  0  0  0  0  0
   -1.2550   22.9300  -29.2850 C   0  0  0  0  0  0  0  0  0  0  0  0
   -7.5720   23.4220  -31.2590 C   0  0  0  0  0  0  0  0  0  0  0  0
   -8.3970   22.3070  -31.3920 C   0  0  0  0  0  0  0  0  0  0  0  0
   -7.9100   21.1400  -31.9860 C   0  0  0  0  0  0  0  0  0  0  0  0
   -8.7140   20.0030  -32.1170 C   0  0  0  0  0  0  0  0  0  0  0  0
   -8.1870   18.8560  -32.7080 C   0  0  0  0  0  0  0  0  0  0  0  0
   -6.8630   18.8740  -33.1560 C   0  0  0  0  0  0  0  0  0  0  0  0
   -6.3670   17.8490  -33.6910 O   0  0  0  0  0  0  0  0  0  0  0  0
   -6.1230   19.9700  -33.0210 O   0  0  0  0  0  0  0  0  0  0  0  0
   -6.5820   21.0910  -32.4630 C   0  0  0  0  0  0  0  0  0  0  0  0
   -1.3870   20.6525  -31.9103 H   0  0  0  0  0  0  0  0  0  0  0  0
   -2.2110   19.9054  -33.3208 H   0  0  0  0  0  0  0  0  0  0  0  0
   -1.8482   21.6647  -33.3208 H   0  0  0  0  0  0  0  0  0  0  0  0
   -4.0816   20.1550  -32.0388 H   0  0  0  0  0  0  0  0  0  0  0  0
   -3.3120   21.4650  -31.0347 H   0  0  0  0  0  0  0  0  0  0  0  0
   -3.8350   23.1401  -32.6301 H   0  0  0  0  0  0  0  0  0  0  0  0
   -4.3023   21.8964  -33.8700 H   0  0  0  0  0  0  0  0  0  0  0  0
   -4.5317   26.1191  -30.6164 H   0  0  0  0  0  0  0  0  0  0  0  0
   -6.2109   25.6739  -30.1058 H   0  0  0  0  0  0  0  0  0  0  0  0
   -4.2013   25.1540  -28.5066 H   0  0  0  0  0  0  0  0  0  0  0  0
   -5.4967   23.9045  -28.7932 H   0  0  0  0  0  0  0  0  0  0  0  0
   -4.0822   22.4668  -29.8168 H   0  0  0  0  0  0  0  0  0  0  0  0
   -3.1544   23.7882  -30.6216 H   0  0  0  0  0  0  0  0  0  0  0  0
   -3.3679   25.1120  -27.8849 H   0  0  0  0  0  0  0  0  0  0  0  0
   -2.2230   24.2256  -26.7841 H   0  0  0  0  0  0  0  0  0  0  0  0
   -1.4648   25.8082  -29.2828 H   0  0  0  0  0  0  0  0  0  0  0  0
   -1.2194   26.3038  -27.5507 H   0  0  0  0  0  0  0  0  0  0  0  0
    0.1950   24.8345  -26.1260 H   0  0  0  0  0  0  0  0  0  0  0  0
    1.7350   24.5211  -26.9960 H   0  0  0  0  0  0  0  0  0  0  0  0
    1.0229   26.1703  -26.9960 H   0  0  0  0  0  0  0  0  0  0  0  0
    0.8617   22.9262  -28.8638 H   0  0  0  0  0  0  0  0  0  0  0  0
   -0.2075   22.8434  -27.4079 H   0  0  0  0  0  0  0  0  0  0  0  0
   -1.1550   23.4442  -30.2523 H   0  0  0  0  0  0  0  0  0  0  0  0
   -1.2595   21.8386  -29.4221 H   0  0  0  0  0  0  0  0  0  0  0  0
   -7.9645   24.3367  -30.7908 H   0  0  0  0  0  0  0  0  0  0  0  0
   -9.4344   22.3457  -31.0284 H   0  0  0  0  0  0  0  0  0  0  0  0
   -9.7533   20.0140  -31.7567 H   0  0  0  0  0  0  0  0  0  0  0  0
   -8.8028   17.9515  -32.8201 H   0  0  0  0  0  0  0  0  0  0  0  0
  1  2  1  0
  2  3  1  0
  3  4  1  0
  4  5  2  0
  5  6  1  0
  6  7  1  0
  7  8  1  0
  8  9  1  0
  9 10  1  0
 10 11  1  0
 11 12  1  0
 12 13  1  0
 13 14  1  0
 13 15  1  0
 15 16  1  0
  5 17  1  0
 17 18  2  0
 18 19  1  0
 19 20  1  0
 20 21  2  0
 21 22  1  0
 22 23  2  0
 22 24  1  0
 24 25  1  0
 25  4  1  0
 16 10  1  0
 25 19  2  0
  1 26  1  0
  1 27  1  0
  1 28  1  0
  2 29  1  0
  2 30  1  0
  3 31  1  0
  3 32  1  0
  7 33  1  0
  7 34  1  0
  8 35  1  0
  8 36  1  0
  9 37  1  0
  9 38  1  0
 11 39  1  0
 11 40  1  0
 12 41  1  0
 12 42  1  0
 14 43  1  0
 14 44  1  0
 14 45  1  0
 15 46  1  0
 15 47  1  0
 16 48  1  0
 16 49  1  0
 17 50  1  0
 18 51  1  0
 20 52  1  0
 21 53  1  0
M  END
>  <UniqueID>  (46) 
44

>  <SMILES>  (46) 
CCCc1c(OCCCN2CCN(C)CC2)ccc2ccc(=O)oc12

>  <Energy>  (46) 
62.668490920155605

>  <Genealogy>  (46) 
CCCc1c(OCCCN2CCN(C)CC2)ccc2ccc(=O)oc12 (3D coordinates assigned)
CCCc1c(OCCCN2CCN(C)CC2)ccc2ccc(=O)oc12 (nonaromatic ring conformer: 62.668490920155605 kcal/mol)

>  <smiles>  (46) 
CCCc1c(OCCCN2CCN(C)CC2)ccc2ccc(=O)oc12

>  <score_type>  (46) 
oracle

>  <origin>  (46) 
adg

>  <m_score__min__energy>  (46) 
-8.0999999999999996

>  <m_primary>  (46) 
energy

$$$$
46:0
     RDKit          3D

 39 42  0  0  0  0  0  0  0  0999 V2000
   -6.7500   16.2350  -33.6480 C   0  0  0  0  0  0  0  0  0  0  0  0
   -6.8640   17.7090  -33.3990 C   0  0  0  0  0  0  0  0  0  0  0  0
   -6.0290   18.6050  -34.0310 C   0  0  0  0  0  0  0  0  0  0  0  0
   -6.1150   19.9680  -33.8170 C   0  0  0  0  0  0  0  0  0  0  0  0
   -7.0620   20.4740  -32.9460 C   0  0  0  0  0  0  0  0  0  0  0  0
   -7.1700   21.8380  -32.7140 O   0  0  0  0  0  0  0  0  0  0  0  0
   -6.2880   22.4070  -31.8050 C   0  0  0  0  0  0  0  0  0  0  0  0
   -4.9090   22.3940  -32.0450 C   0  0  0  0  0  0  0  0  0  0  0  0
   -4.0520   22.9660  -31.1270 C   0  0  0  0  0  0  0  0  0  0  0  0
   -4.4900   23.5600  -29.9620 C   0  0  0  0  0  0  0  0  0  0  0  0
   -3.5910   24.1660  -28.9870 C   0  0  0  0  0  0  0  0  0  0  0  0
   -3.8280   24.3260  -27.6700 N   0  0  0  0  0  0  0  0  0  0  0  0
   -2.7740   24.9230  -27.0860 C   0  0  0  0  0  0  0  0  0  0  0  0
   -2.4370   25.3340  -25.8170 C   0  0  0  0  0  0  0  0  0  0  0  0
   -1.2170   25.9390  -25.5560 C   0  0  0  0  0  0  0  0  0  0  0  0
   -0.7850   26.4660  -23.9250 Cl  0  0  0  0  0  0  0  0  0  0  0  0
   -0.2860   26.1560  -26.5690 C   0  0  0  0  0  0  0  0  0  0  0  0
   -0.6160   25.7510  -27.8240 C   0  0  0  0  0  0  0  0  0  0  0  0
   -1.8290   25.1490  -28.0840 C   0  0  0  0  0  0  0  0  0  0  0  0
   -2.3590   24.6770  -29.2280 N   0  0  0  0  0  0  0  0  0  0  0  0
   -5.8500   23.5720  -29.7250 C   0  0  0  0  0  0  0  0  0  0  0  0
   -6.7220   23.0070  -30.6290 C   0  0  0  0  0  0  0  0  0  0  0  0
   -7.9130   19.5880  -32.2980 C   0  0  0  0  0  0  0  0  0  0  0  0
   -7.8040   18.2260  -32.5320 C   0  0  0  0  0  0  0  0  0  0  0  0
   -6.7088   15.7028  -32.6862 H   0  0  0  0  0  0  0  0  0  0  0  0
   -7.6242   15.8911  -34.2202 H   0  0  0  0  0  0  0  0  0  0  0  0
   -5.8333   16.0296  -34.2202 H   0  0  0  0  0  0  0  0  0  0  0  0
   -5.2691   18.2230  -34.7286 H   0  0  0  0  0  0  0  0  0  0  0  0
   -5.4293   20.6507  -34.3402 H   0  0  0  0  0  0  0  0  0  0  0  0
   -4.5109   21.9307  -32.9598 H   0  0  0  0  0  0  0  0  0  0  0  0
   -2.9717   22.9473  -31.3336 H   0  0  0  0  0  0  0  0  0  0  0  0
   -3.1494   25.1796  -24.9932 H   0  0  0  0  0  0  0  0  0  0  0  0
    0.6809   26.6375  -26.3611 H   0  0  0  0  0  0  0  0  0  0  0  0
    0.0974   25.9063  -28.6468 H   0  0  0  0  0  0  0  0  0  0  0  0
   -1.8890   24.7000  -30.1580 H   0  0  0  0  0  0  0  0  0  0  0  0
   -6.2401   24.0363  -28.8073 H   0  0  0  0  0  0  0  0  0  0  0  0
   -7.8002   23.0315  -30.4125 H   0  0  0  0  0  0  0  0  0  0  0  0
   -8.6733   19.9670  -31.5992 H   0  0  0  0  0  0  0  0  0  0  0  0
   -8.4865   17.5380  -32.0115 H   0  0  0  0  0  0  0  0  0  0  0  0
  1  2  1  0
  2  3  2  0
  3  4  1  0
  4  5  2  0
  5  6  1  0
  6  7  1  0
  7  8  2  0
  8  9  1  0
  9 10  2  0
 10 11  1  0
 11 12  2  0
 12 13  1  0
 13 14  2  0
 14 15  1  0
 15 16  1  0
 15 17  2  0
 17 18  1  0
 18 19  2  0
 19 20  1  0
 10 21  1  0
 21 22  2  0
  5 23  1  0
 23 24  2  0
 24  2  1  0
 22  7  1  0
 20 11  1  0
 19 13  1  0
  1 25  1  0
  1 26  1  0
  1 27  1  0
  3 28  1  0
  4 29  1  0
  8 30  1  0
  9 31  1  0
 14 32  1  0
 17 33  1  0
 18 34  1  0
 20 35  1  0
 21 36  1  0
 22 37  1  0
 23 38  1  0
 24 39  1  0
M  END
>  <smiles>  (47) 
Cc1ccc(Oc2ccc(-c3nc4cc(Cl)ccc4[nH]3)cc2)cc1

>  <score_type>  (47) 
oracle

>  <origin>  (47) 
adg

>  <m_score__min__energy>  (47) 
-9.0500000000000007

>  <m_primary>  (47) 
energy

$$$$
