0:0
     RDKit          3D

 49 51  0  0  0  0  0  0  0  0999 V2000
   -7.5120   20.6530  -32.2070 C   0  0  0  0  0  0  0  0  0  0  0  0
   -8.0060   19.3520  -32.6930 N   0  0  0  0  0  0  0  0  0  0  0  0
   -9.4720   19.3690  -32.8430 C   0  0  0  0  0  0  0  0  0  0  0  0
   -7.5210   18.2040  -31.8860 C   0  0  0  0  0  0  0  0  0  0  0  0
   -6.3340   17.4280  -32.4860 C   0  0  0  0  0  0  0  0  0  0  0  0
   -5.6500   18.2290  -33.4420 O   0  0  0  0  0  0  0  0  0  0  0  0
   -4.2830   18.1290  -33.7500 C   0  0  0  0  0  0  0  0  0  0  0  0
   -3.7500   17.0020  -34.4040 C   0  0  0  0  0  0  0  0  0  0  0  0
   -2.3810   16.9200  -34.6680 C   0  0  0  0  0  0  0  0  0  0  0  0
   -1.5290   17.9560  -34.2810 C   0  0  0  0  0  0  0  0  0  0  0  0
   -2.0450   19.0800  -33.6330 C   0  0  0  0  0  0  0  0  0  0  0  0
   -3.4220   19.1820  -33.3720 C   0  0  0  0  0  0  0  0  0  0  0  0
   -3.9480   20.3800  -32.6760 C   0  0  0  0  0  0  0  0  0  0  0  0
   -4.1710   20.3530  -31.2900 C   0  0  0  0  0  0  0  0  0  0  0  0
   -4.6970   21.4690  -30.6360 C   0  0  0  0  0  0  0  0  0  0  0  0
   -4.9950   22.6420  -31.3490 C   0  0  0  0  0  0  0  0  0  0  0  0
   -5.5580   23.7840  -30.6720 N   0  0  0  0  0  0  0  0  0  0  0  0
   -6.8680   23.8050  -30.0400 C   0  0  0  0  0  0  0  0  0  0  0  0
   -7.1400   25.2750  -29.6730 C   0  0  0  0  0  0  0  0  0  0  0  0
   -5.8150   26.0330  -29.8340 C   0  0  0  0  0  0  0  0  0  0  0  0
   -4.9430   25.0510  -30.5070 C   0  0  0  0  0  0  0  0  0  0  0  0
   -3.7510   25.2920  -30.8340 O   0  0  0  0  0  0  0  0  0  0  0  0
   -4.7700   22.6680  -32.7360 C   0  0  0  0  0  0  0  0  0  0  0  0
   -4.2460   21.5500  -33.3920 C   0  0  0  0  0  0  0  0  0  0  0  0
   -7.5105   20.6570  -31.1070 H   0  0  0  0  0  0  0  0  0  0  0  0
   -6.4888   20.8176  -32.5757 H   0  0  0  0  0  0  0  0  0  0  0  0
   -8.1681   21.4553  -32.5757 H   0  0  0  0  0  0  0  0  0  0  0  0
   -7.6070   19.2230  -33.6550 H   0  0  0  0  0  0  0  0  0  0  0  0
   -9.9423   19.3745  -31.8486 H   0  0  0  0  0  0  0  0  0  0  0  0
   -9.7736   20.2707  -33.3962 H   0  0  0  0  0  0  0  0  0  0  0  0
   -9.7944   18.4745  -33.3962 H   0  0  0  0  0  0  0  0  0  0  0  0
   -7.2130   18.5872  -30.9020 H   0  0  0  0  0  0  0  0  0  0  0  0
   -8.3572   17.4908  -31.8414 H   0  0  0  0  0  0  0  0  0  0  0  0
   -5.6378   17.1511  -31.6806 H   0  0  0  0  0  0  0  0  0  0  0  0
   -6.7142   16.5242  -32.9845 H   0  0  0  0  0  0  0  0  0  0  0  0
   -4.4157   16.1811  -34.7089 H   0  0  0  0  0  0  0  0  0  0  0  0
   -1.9732   16.0371  -35.1820 H   0  0  0  0  0  0  0  0  0  0  0  0
   -0.4506   17.8868  -34.4867 H   0  0  0  0  0  0  0  0  0  0  0  0
   -1.3690   19.8912  -33.3247 H   0  0  0  0  0  0  0  0  0  0  0  0
   -3.9297   19.4465  -30.7155 H   0  0  0  0  0  0  0  0  0  0  0  0
   -4.8798   21.4292  -29.5520 H   0  0  0  0  0  0  0  0  0  0  0  0
   -7.6347   23.4374  -30.7378 H   0  0  0  0  0  0  0  0  0  0  0  0
   -6.8967   23.1566  -29.1519 H   0  0  0  0  0  0  0  0  0  0  0  0
   -7.9006   25.6974  -30.3461 H   0  0  0  0  0  0  0  0  0  0  0  0
   -7.5159   25.3582  -28.6426 H   0  0  0  0  0  0  0  0  0  0  0  0
   -5.9479   26.9321  -30.4537 H   0  0  0  0  0  0  0  0  0  0  0  0
   -5.4041   26.3904  -28.8782 H   0  0  0  0  0  0  0  0  0  0  0  0
   -5.0081   23.5755  -33.3103 H   0  0  0  0  0  0  0  0  0  0  0  0
   -4.0661   21.5875  -34.4765 H   0  0  0  0  0  0  0  0  0  0  0  0
  1  2  1  0
  2  3  1  0
  2  4  1  0
  4  5  1  0
  5  6  1  0
  6  7  1  0
  7  8  2  0
  8  9  1  0
  9 10  2  0
 10 11  1  0
 11 12  2  0
 12 13  1  0
 13 14  2  0
 14 15  1  0
 15 16  2  0
 16 17  1  0
 17 18  1  0
 18 19  1  0
 19 20  1  0
 20 21  1  0
 21 22  2  0
 16 23  1  0
 23 24  2  0
 12  7  1  0
 24 13  1  0
 21 17  1  0
  1 25  1  0
  1 26  1  0
  1 27  1  0
  2 28  1  0
  3 29  1  0
  3 30  1  0
  3 31  1  0
  4 32  1  0
  4 33  1  0
  5 34  1  0
  5 35  1  0
  8 36  1  0
  9 37  1  0
 10 38  1  0
 11 39  1  0
 14 40  1  0
 15 41  1  0
 18 42  1  0
 18 43  1  0
 19 44  1  0
 19 45  1  0
 20 46  1  0
 20 47  1  0
 23 48  1  0
 24 49  1  0
M  CHG  1   2   1
M  END
>  <UniqueID>  (1) 
1

>  <SMILES>  (1) 
C[NH+](C)CCOc1ccccc1-c1ccc(N2CCCC2=O)cc1

>  <Energy>  (1) 
66.65214612475391

>  <Genealogy>  (1) 
C[NH+](C)CCOc1ccccc1-c1ccc(N2CCCC2=O)cc1 (protonated)
C[NH+](C)CCOc1ccccc1-c1ccc(N2CCCC2=O)cc1 (3D coordinates assigned)
C[NH+](C)CCOc1ccccc1-c1ccc(N2CCCC2=O)cc1 (nonaromatic ring conformer: 66.65214612475391 kcal/mol)

>  <smiles>  (1) 
CN(C)CCOc1ccccc1-c1ccc(N2CCCC2=O)cc1

>  <score_type>  (1) 
oracle

>  <origin>  (1) 
adg

>  <m_score__min__energy>  (1) 
-6.7000000000000002

>  <m_primary>  (1) 
energy

$$$$
1:0
     RDKit          3D

 48 51  0  0  0  0  0  0  0  0999 V2000
   -6.4740   25.2470  -29.6930 C   0  0  0  0  0  0  0  0  0  0  0  0
   -5.2540   25.6990  -30.5000 C   0  0  0  0  0  0  0  0  0  0  0  0
   -4.1660   24.7100  -30.4760 N   0  0  0  0  0  0  0  0  0  0  0  0
   -4.6540   23.3330  -30.6430 C   0  0  0  0  0  0  0  0  0  0  0  0
   -5.3560   23.1640  -31.9960 C   0  0  0  0  0  0  0  0  0  0  0  0
   -5.7720   21.7330  -32.2400 C   0  0  0  0  0  0  0  0  0  0  0  0
   -5.0090   20.6290  -32.6750 C   0  0  0  0  0  0  0  0  0  0  0  0
   -5.8270   19.5770  -32.9190 N   0  0  0  0  0  0  0  0  0  0  0  0
   -7.0770   19.9600  -32.6010 C   0  0  0  0  0  0  0  0  0  0  0  0
   -8.2560   19.2110  -32.6780 C   0  0  0  0  0  0  0  0  0  0  0  0
   -9.4620   19.8460  -32.3370 C   0  0  0  0  0  0  0  0  0  0  0  0
   -9.4720   21.2000  -31.9430 C   0  0  0  0  0  0  0  0  0  0  0  0
   -8.2730   21.9300  -31.8770 C   0  0  0  0  0  0  0  0  0  0  0  0
   -7.0820   21.2720  -32.1980 C   0  0  0  0  0  0  0  0  0  0  0  0
   -5.3710   18.2820  -33.4330 C   0  0  0  0  0  0  0  0  0  0  0  0
   -4.1810   18.4880  -34.3830 C   0  0  0  0  0  0  0  0  0  0  0  0
   -3.1510   19.4250  -33.7900 C   0  0  0  0  0  0  0  0  0  0  0  0
   -1.7950   19.2570  -34.1080 C   0  0  0  0  0  0  0  0  0  0  0  0
   -0.8230   20.1160  -33.5650 C   0  0  0  0  0  0  0  0  0  0  0  0
    0.5440   19.9820  -33.8480 O   0  0  0  0  0  0  0  0  0  0  0  0
    1.2190   20.6610  -34.9010 C   0  0  0  0  0  0  0  0  0  0  0  0
   -1.2240   21.1370  -32.7000 C   0  0  0  0  0  0  0  0  0  0  0  0
   -2.5730   21.3250  -32.3940 C   0  0  0  0  0  0  0  0  0  0  0  0
   -3.5560   20.5050  -32.9700 C   0  0  0  0  0  0  0  0  0  0  0  0
   -6.2536   25.3287  -28.6184 H   0  0  0  0  0  0  0  0  0  0  0  0
   -7.3345   25.8860  -29.9404 H   0  0  0  0  0  0  0  0  0  0  0  0
   -6.7105   24.2016  -29.9404 H   0  0  0  0  0  0  0  0  0  0  0  0
   -5.5613   25.8603  -31.5438 H   0  0  0  0  0  0  0  0  0  0  0  0
   -4.8747   26.6248  -30.0428 H   0  0  0  0  0  0  0  0  0  0  0  0
   -3.4990   24.9270  -31.2530 H   0  0  0  0  0  0  0  0  0  0  0  0
   -3.8018   22.6395  -30.5898 H   0  0  0  0  0  0  0  0  0  0  0  0
   -5.3756   23.1152  -29.8419 H   0  0  0  0  0  0  0  0  0  0  0  0
   -6.2514   23.8026  -32.0142 H   0  0  0  0  0  0  0  0  0  0  0  0
   -4.6470   23.4522  -32.7861 H   0  0  0  0  0  0  0  0  0  0  0  0
   -8.2394   18.1580  -32.9956 H   0  0  0  0  0  0  0  0  0  0  0  0
  -10.4059   19.2826  -32.3777 H   0  0  0  0  0  0  0  0  0  0  0  0
  -10.4239   21.6876  -31.6858 H   0  0  0  0  0  0  0  0  0  0  0  0
   -8.2716   22.9894  -31.5811 H   0  0  0  0  0  0  0  0  0  0  0  0
   -5.0607   17.6443  -32.5922 H   0  0  0  0  0  0  0  0  0  0  0  0
   -6.1935   17.7991  -33.9811 H   0  0  0  0  0  0  0  0  0  0  0  0
   -3.7075   17.5146  -34.5785 H   0  0  0  0  0  0  0  0  0  0  0  0
   -4.5577   18.9356  -35.3146 H   0  0  0  0  0  0  0  0  0  0  0  0
   -1.4898   18.4473  -34.7872 H   0  0  0  0  0  0  0  0  0  0  0  0
    1.9339   21.3801  -34.4746 H   0  0  0  0  0  0  0  0  0  0  0  0
    1.7594   19.9306  -35.5211 H   0  0  0  0  0  0  0  0  0  0  0  0
    0.4855   21.1970  -35.5211 H   0  0  0  0  0  0  0  0  0  0  0  0
   -0.4680   21.8005  -32.2548 H   0  0  0  0  0  0  0  0  0  0  0  0
   -2.8681   22.1222  -31.6958 H   0  0  0  0  0  0  0  0  0  0  0  0
  1  2  1  0
  2  3  1  0
  3  4  1  0
  4  5  1  0
  5  6  1  0
  6  7  2  0
  7  8  1  0
  8  9  1  0
  9 10  2  0
 10 11  1  0
 11 12  2  0
 12 13  1  0
 13 14  2  0
  8 15  1  0
 15 16  1  0
 16 17  1  0
 17 18  2  0
 18 19  1  0
 19 20  1  0
 20 21  1  0
 19 22  2  0
 22 23  1  0
 23 24  2  0
 14  6  1  0
 24 17  1  0
 24  7  1  0
 14  9  1  0
  1 25  1  0
  1 26  1  0
  1 27  1  0
  2 28  1  0
  2 29  1  0
  3 30  1  0
  4 31  1  0
  4 32  1  0
  5 33  1  0
  5 34  1  0
 10 35  1  0
 11 36  1  0
 12 37  1  0
 13 38  1  0
 15 39  1  0
 15 40  1  0
 16 41  1  0
 16 42  1  0
 18 43  1  0
 21 44  1  0
 21 45  1  0
 21 46  1  0
 22 47  1  0
 23 48  1  0
M  END
>  <UniqueID>  (2) 
2

>  <SMILES>  (2) 
CCNCCc1c2n(c3ccccc13)CCc1cc(OC)ccc1-2

>  <Energy>  (2) 
89.55019602458755

>  <Genealogy>  (2) 
CCNCCc1c2n(c3ccccc13)CCc1cc(OC)ccc1-2 (3D coordinates assigned)
CCNCCc1c2n(c3ccccc13)CCc1cc(OC)ccc1-2 (nonaromatic ring conformer: 89.55019602458755 kcal/mol)

>  <smiles>  (2) 
CCNCCc1c2n(c3ccccc13)CCc1cc(OC)ccc1-2

>  <score_type>  (2) 
oracle

>  <origin>  (2) 
adg

>  <m_score__min__energy>  (2) 
-9.3499999999999996

>  <m_primary>  (2) 
energy

$$$$
2:0
     RDKit          3D

 76 78  0  0  0  0  0  0  0  0999 V2000
   -0.5240   20.8470  -30.2710 C   0  0  0  0  0  0  0  0  0  0  0  0
   -0.7800   22.2760  -29.7990 C   0  0  0  0  0  0  0  0  0  0  0  0
   -0.7320   22.3460  -28.3200 N   0  0  0  0  0  0  0  0  0  0  0  0
   -1.3810   21.1670  -27.6980 C   0  0  0  0  0  0  0  0  0  0  0  0
   -2.8970   21.2700  -27.8430 C   0  0  0  0  0  0  0  0  0  0  0  0
   -1.3260   23.6110  -27.8270 C   0  0  0  0  0  0  0  0  0  0  0  0
   -1.1070   24.7200  -28.8580 C   0  0  0  0  0  0  0  0  0  0  0  0
   -2.3480   25.2450  -29.2870 O   0  0  0  0  0  0  0  0  0  0  0  0
   -3.4190   24.5380  -28.6920 C   0  0  0  0  0  0  0  0  0  0  0  0
   -4.5740   24.4750  -29.6800 C   0  0  0  0  0  0  0  0  0  0  0  0
   -4.1050   23.9720  -30.9150 O   0  0  0  0  0  0  0  0  0  0  0  0
   -4.1030   22.5540  -30.9080 C   0  0  0  0  0  0  0  0  0  0  0  0
   -3.2840   22.0350  -32.0910 C   0  0  0  0  0  0  0  0  0  0  0  0
   -4.1020   21.7730  -33.2980 N   0  0  0  0  0  0  0  0  0  0  0  0
   -5.2350   20.8900  -33.0330 C   0  0  0  0  0  0  0  0  0  0  0  0
   -6.4690   21.4640  -32.5910 C   0  0  0  0  0  0  0  0  0  0  0  0
   -6.6080   22.8610  -32.3680 C   0  0  0  0  0  0  0  0  0  0  0  0
   -7.8150   23.4130  -31.9510 C   0  0  0  0  0  0  0  0  0  0  0  0
   -8.9200   22.6040  -31.7520 C   0  0  0  0  0  0  0  0  0  0  0  0
   -8.8210   21.2320  -31.9610 C   0  0  0  0  0  0  0  0  0  0  0  0
   -7.5990   20.6320  -32.3680 C   0  0  0  0  0  0  0  0  0  0  0  0
   -7.5150   19.2780  -32.5880 N   0  0  0  0  0  0  0  0  0  0  0  0
   -8.5960   18.3840  -32.1000 C   0  0  0  0  0  0  0  0  0  0  0  0
   -6.4260   18.7470  -33.2420 C   0  0  0  0  0  0  0  0  0  0  0  0
   -6.5080   17.4650  -33.8370 C   0  0  0  0  0  0  0  0  0  0  0  0
   -5.4040   16.8670  -34.4140 C   0  0  0  0  0  0  0  0  0  0  0  0
   -4.1760   17.4980  -34.3730 C   0  0  0  0  0  0  0  0  0  0  0  0
   -4.0400   18.7810  -33.8100 C   0  0  0  0  0  0  0  0  0  0  0  0
   -2.7540   19.3180  -33.6430 O   0  0  0  0  0  0  0  0  0  0  0  0
   -1.5280   18.5930  -33.5350 C   0  0  0  0  0  0  0  0  0  0  0  0
   -0.3620   19.5510  -33.2850 C   0  0  0  0  0  0  0  0  0  0  0  0
   -0.2570   20.5960  -34.3990 C   0  0  0  0  0  0  0  0  0  0  0  0
   -1.3170   21.5890  -34.2550 N   0  0  0  0  0  0  0  0  0  0  0  0
   -5.2070   19.4860  -33.3530 C   0  0  0  0  0  0  0  0  0  0  0  0
   -0.4060   20.1881  -29.3981 H   0  0  0  0  0  0  0  0  0  0  0  0
   -1.3749   20.5032  -30.8775 H   0  0  0  0  0  0  0  0  0  0  0  0
    0.3933   20.8200  -30.8775 H   0  0  0  0  0  0  0  0  0  0  0  0
   -0.0101   22.9401  -30.2188 H   0  0  0  0  0  0  0  0  0  0  0  0
   -1.7771   22.5919  -30.1397 H   0  0  0  0  0  0  0  0  0  0  0  0
   -1.0285   20.2518  -28.1962 H   0  0  0  0  0  0  0  0  0  0  0  0
   -1.1214   21.1331  -26.6296 H   0  0  0  0  0  0  0  0  0  0  0  0
   -3.3595   21.3014  -26.8454 H   0  0  0  0  0  0  0  0  0  0  0  0
   -3.1511   22.1875  -28.3940 H   0  0  0  0  0  0  0  0  0  0  0  0
   -3.2729   20.3953  -28.3940 H   0  0  0  0  0  0  0  0  0  0  0  0
   -2.4049   23.4698  -27.6655 H   0  0  0  0  0  0  0  0  0  0  0  0
   -0.8446   23.8944  -26.8794 H   0  0  0  0  0  0  0  0  0  0  0  0
   -0.5104   25.5248  -28.4037 H   0  0  0  0  0  0  0  0  0  0  0  0
   -0.5770   24.3011  -29.7261 H   0  0  0  0  0  0  0  0  0  0  0  0
   -3.0933   23.5184  -28.4385 H   0  0  0  0  0  0  0  0  0  0  0  0
   -3.7406   25.0506  -27.7734 H   0  0  0  0  0  0  0  0  0  0  0  0
   -5.3582   23.8113  -29.2868 H   0  0  0  0  0  0  0  0  0  0  0  0
   -4.9893   25.4830  -29.8263 H   0  0  0  0  0  0  0  0  0  0  0  0
   -3.6582   22.1934  -29.9688 H   0  0  0  0  0  0  0  0  0  0  0  0
   -5.1368   22.1873  -30.9911 H   0  0  0  0  0  0  0  0  0  0  0  0
   -2.5198   22.7851  -32.3428 H   0  0  0  0  0  0  0  0  0  0  0  0
   -2.8383   21.0772  -31.7844 H   0  0  0  0  0  0  0  0  0  0  0  0
   -3.5100   21.4890  -34.1020 H   0  0  0  0  0  0  0  0  0  0  0  0
   -4.4710   22.6840  -33.6510 H   0  0  0  0  0  0  0  0  0  0  0  0
   -5.7421   23.5201  -32.5287 H   0  0  0  0  0  0  0  0  0  0  0  0
   -7.8913   24.4968  -31.7788 H   0  0  0  0  0  0  0  0  0  0  0  0
   -9.8747   23.0448  -31.4292 H   0  0  0  0  0  0  0  0  0  0  0  0
   -9.7072   20.5986  -31.8080 H   0  0  0  0  0  0  0  0  0  0  0  0
   -8.6003   18.3805  -31.0000 H   0  0  0  0  0  0  0  0  0  0  0  0
   -9.5666   18.7468  -32.4693 H   0  0  0  0  0  0  0  0  0  0  0  0
   -8.4218   17.3626  -32.4693 H   0  0  0  0  0  0  0  0  0  0  0  0
   -7.4711   16.9336  -33.8400 H   0  0  0  0  0  0  0  0  0  0  0  0
   -5.5031   15.8882  -34.9061 H   0  0  0  0  0  0  0  0  0  0  0  0
   -3.2917   16.9907  -34.7862 H   0  0  0  0  0  0  0  0  0  0  0  0
   -1.5994   17.8829  -32.6980 H   0  0  0  0  0  0  0  0  0  0  0  0
   -1.3496   18.0518  -34.4759 H   0  0  0  0  0  0  0  0  0  0  0  0
   -0.5186   20.0643  -32.3248 H   0  0  0  0  0  0  0  0  0  0  0  0
    0.5705   18.9678  -33.2648 H   0  0  0  0  0  0  0  0  0  0  0  0
    0.7209   21.0960  -34.3382 H   0  0  0  0  0  0  0  0  0  0  0  0
   -0.3611   20.0961  -35.3733 H   0  0  0  0  0  0  0  0  0  0  0  0
   -2.2100   21.1770  -34.6150 H   0  0  0  0  0  0  0  0  0  0  0  0
   -1.0860   22.3990  -34.8710 H   0  0  0  0  0  0  0  0  0  0  0  0
  1  2  1  0
  2  3  1  0
  3  4  1  0
  4  5  1  0
  3  6  1  0
  6  7  1  0
  7  8  1  0
  8  9  1  0
  9 10  1  0
 10 11  1  0
 11 12  1  0
 12 13  1  0
 13 14  1  0
 14 15  1  0
 15 16  2  0
 16 17  1  0
 17 18  2  0
 18 19  1  0
 19 20  2  0
 20 21  1  0
 21 22  2  0
 22 23  1  0
 22 24  1  0
 24 25  2  0
 25 26  1  0
 26 27  2  0
 27 28  1  0
 28 29  1  0
 29 30  1  0
 30 31  1  0
 31 32  1  0
 32 33  1  0
 28 34  2  0
 34 15  1  0
 21 16  1  0
 34 24  1  0
  1 35  1  0
  1 36  1  0
  1 37  1  0
  2 38  1  0
  2 39  1  0
  4 40  1  0
  4 41  1  0
  5 42  1  0
  5 43  1  0
  5 44  1  0
  6 45  1  0
  6 46  1  0
  7 47  1  0
  7 48  1  0
  9 49  1  0
  9 50  1  0
 10 51  1  0
 10 52  1  0
 12 53  1  0
 12 54  1  0
 13 55  1  0
 13 56  1  0
 14 57  1  0
 14 58  1  0
 17 59  1  0
 18 60  1  0
 19 61  1  0
 20 62  1  0
 23 63  1  0
 23 64  1  0
 23 65  1  0
 25 66  1  0
 26 67  1  0
 27 68  1  0
 30 69  1  0
 30 70  1  0
 31 71  1  0
 31 72  1  0
 32 73  1  0
 32 74  1  0
 33 75  1  0
 33 76  1  0
M  CHG  2  14   1  22   1
M  END
>  <UniqueID>  (3) 
3

>  <SMILES>  (3) 
CCN(CC)CCOCCOCC[NH2+]c1c2ccccc2[n+](C)c2cccc(OCCCN)c12

>  <Energy>  (3) 
110.20497668387642

>  <Genealogy>  (3) 
CCN(CC)CCOCCOCC[NH2+]c1c2ccccc2[n+](C)c2cccc(OCCCN)c12 (protonated)
CCN(CC)CCOCCOCC[NH2+]c1c2ccccc2[n+](C)c2cccc(OCCCN)c12 (3D coordinates assigned)
CCN(CC)CCOCCOCC[NH2+]c1c2ccccc2[n+](C)c2cccc(OCCCN)c12 (optimized conformer: 110.20497668387642 kcal/mol)

>  <smiles>  (3) 
CCN(CC)CCOCCOCCNc1c2ccccc2[n+](C)c2cccc(OCCCN)c12

>  <score_type>  (3) 
oracle

>  <origin>  (3) 
adg

>  <m_score__min__energy>  (3) 
-8.3800000000000008

>  <m_primary>  (3) 
energy

$$$$
3:0
     RDKit          3D

 35 37  0  0  0  0  0  0  0  0999 V2000
   -2.2390   24.5340  -28.8000 C   0  0  0  0  0  0  0  0  0  0  0  0
   -3.1190   25.1330  -29.7440 O   0  0  0  0  0  0  0  0  0  0  0  0
   -4.3000   24.5410  -30.2140 C   0  0  0  0  0  0  0  0  0  0  0  0
   -5.5560   25.1720  -30.1080 C   0  0  0  0  0  0  0  0  0  0  0  0
   -6.7070   24.5450  -30.5910 C   0  0  0  0  0  0  0  0  0  0  0  0
   -6.6230   23.2760  -31.1880 C   0  0  0  0  0  0  0  0  0  0  0  0
   -7.7480   22.6080  -31.6950 C   0  0  0  0  0  0  0  0  0  0  0  0
   -8.8950   23.1300  -31.6370 O   0  0  0  0  0  0  0  0  0  0  0  0
   -7.5940   21.3490  -32.2750 C   0  0  0  0  0  0  0  0  0  0  0  0
   -6.3140   20.7730  -32.3350 C   0  0  0  0  0  0  0  0  0  0  0  0
   -6.0930   19.4430  -32.9490 C   0  0  0  0  0  0  0  0  0  0  0  0
   -5.1320   19.3240  -33.9670 C   0  0  0  0  0  0  0  0  0  0  0  0
   -4.8960   18.0930  -34.5800 C   0  0  0  0  0  0  0  0  0  0  0  0
   -5.6080   16.9640  -34.1780 C   0  0  0  0  0  0  0  0  0  0  0  0
   -6.5510   17.0590  -33.1530 C   0  0  0  0  0  0  0  0  0  0  0  0
   -6.7970   18.2930  -32.5170 C   0  0  0  0  0  0  0  0  0  0  0  0
   -7.7020   18.4020  -31.4490 O   0  0  0  0  0  0  0  0  0  0  0  0
   -9.1100   18.5580  -31.5930 C   0  0  0  0  0  0  0  0  0  0  0  0
   -5.2650   21.4400  -31.8560 O   0  0  0  0  0  0  0  0  0  0  0  0
   -5.3660   22.6410  -31.2950 C   0  0  0  0  0  0  0  0  0  0  0  0
   -4.2180   23.2770  -30.8100 C   0  0  0  0  0  0  0  0  0  0  0  0
   -2.5810   24.7668  -27.7808 H   0  0  0  0  0  0  0  0  0  0  0  0
   -2.2332   23.4436  -28.9447 H   0  0  0  0  0  0  0  0  0  0  0  0
   -1.2224   24.9285  -28.9447 H   0  0  0  0  0  0  0  0  0  0  0  0
   -5.6303   26.1654  -29.6415 H   0  0  0  0  0  0  0  0  0  0  0  0
   -7.6822   25.0464  -30.5037 H   0  0  0  0  0  0  0  0  0  0  0  0
   -8.4647   20.8132  -32.6808 H   0  0  0  0  0  0  0  0  0  0  0  0
   -4.5606   20.2091  -34.2835 H   0  0  0  0  0  0  0  0  0  0  0  0
   -4.1470   18.0133  -35.3817 H   0  0  0  0  0  0  0  0  0  0  0  0
   -5.4265   15.9967  -34.6692 H   0  0  0  0  0  0  0  0  0  0  0  0
   -7.1069   16.1633  -32.8388 H   0  0  0  0  0  0  0  0  0  0  0  0
   -9.5768   18.6097  -30.5983 H   0  0  0  0  0  0  0  0  0  0  0  0
   -9.3215   19.4851  -32.1460 H   0  0  0  0  0  0  0  0  0  0  0  0
   -9.5194   17.6997  -32.1460 H   0  0  0  0  0  0  0  0  0  0  0  0
   -3.2412   22.7788  -30.8979 H   0  0  0  0  0  0  0  0  0  0  0  0
  1  2  1  0
  2  3  1  0
  3  4  2  0
  4  5  1  0
  5  6  2  0
  6  7  1  0
  7  8  2  0
  7  9  1  0
  9 10  2  0
 10 11  1  0
 11 12  2  0
 12 13  1  0
 13 14  2  0
 14 15  1  0
 15 16  2  0
 16 17  1  0
 17 18  1  0
 10 19  1  0
 19 20  1  0
 20 21  2  0
 21  3  1  0
 20  6  1  0
 16 11  1  0
  1 22  1  0
  1 23  1  0
  1 24  1  0
  4 25  1  0
  5 26  1  0
  9 27  1  0
 12 28  1  0
 13 29  1  0
 14 30  1  0
 15 31  1  0
 18 32  1  0
 18 33  1  0
 18 34  1  0
 21 35  1  0
M  END
>  <UniqueID>  (4) 
4

>  <SMILES>  (4) 
COc1ccc2c(=O)cc(-c3ccccc3OC)oc2c1

>  <Energy>  (4) 
47.05937737563441

>  <Genealogy>  (4) 
COc1ccc2c(=O)cc(-c3ccccc3OC)oc2c1 (3D coordinates assigned)
COc1ccc2c(=O)cc(-c3ccccc3OC)oc2c1 (optimized conformer: 47.05937737563441 kcal/mol)

>  <smiles>  (4) 
COc1ccc2c(=O)cc(-c3ccccc3OC)oc2c1

>  <score_type>  (4) 
oracle

>  <origin>  (4) 
adg

>  <m_score__min__energy>  (4) 
-8.0600000000000005

>  <m_primary>  (4) 
energy

$$$$
4:0
     RDKit          3D

 28 29  0  0  0  0  0  0  0  0999 V2000
  -10.4451   20.0770  -32.1595 H   0  0  0  0  0  0  0  0  0  0  0  0
   -9.4600   20.5660  -32.1800 C   0  0  0  0  0  0  0  0  0  0  0  0
   -9.3110   21.8520  -31.6650 C   0  0  0  0  0  0  0  0  0  0  0  0
  -10.1771   22.3727  -31.2305 H   0  0  0  0  0  0  0  0  0  0  0  0
   -8.0660   22.4810  -31.6990 C   0  0  0  0  0  0  0  0  0  0  0  0
   -7.9548   23.4933  -31.2832 H   0  0  0  0  0  0  0  0  0  0  0  0
   -6.9530   21.8320  -32.2600 C   0  0  0  0  0  0  0  0  0  0  0  0
   -5.6500   22.5410  -32.2990 C   0  0  0  0  0  0  0  0  0  0  0  0
   -4.6730   21.9910  -32.8750 O   0  0  0  0  0  0  0  0  0  0  0  0
   -5.4700   23.8570  -31.7530 N   0  0  0  0  0  0  0  0  0  0  0  0
   -4.6780   24.1890  -30.7740 C   0  0  0  0  0  0  0  0  0  0  0  0
   -3.8540   25.2520  -30.8390 N   0  0  0  0  0  0  0  0  0  0  0  0
   -3.1960   25.2780  -29.7160 O   0  0  0  0  0  0  0  0  0  0  0  0
   -3.5530   24.2830  -28.9340 C   0  0  0  0  0  0  0  0  0  0  0  0
   -2.9690   24.0130  -27.5900 C   0  0  0  0  0  0  0  0  0  0  0  0
   -3.6744   24.3391  -26.8115 H   0  0  0  0  0  0  0  0  0  0  0  0
   -2.7777   22.9350  -27.4832 H   0  0  0  0  0  0  0  0  0  0  0  0
   -2.0238   24.5655  -27.4832 H   0  0  0  0  0  0  0  0  0  0  0  0
   -4.5120   23.5250  -29.5700 C   0  0  0  0  0  0  0  0  0  0  0  0
   -5.0197   22.6177  -29.2106 H   0  0  0  0  0  0  0  0  0  0  0  0
   -7.0940   20.5160  -32.7590 C   0  0  0  0  0  0  0  0  0  0  0  0
   -5.9660   19.8500  -33.2640 O   0  0  0  0  0  0  0  0  0  0  0  0
   -6.0070   18.8050  -34.2310 C   0  0  0  0  0  0  0  0  0  0  0  0
   -6.0452   17.8325  -33.7185 H   0  0  0  0  0  0  0  0  0  0  0  0
   -6.9012   18.9230  -34.8607 H   0  0  0  0  0  0  0  0  0  0  0  0
   -5.1063   18.8525  -34.8607 H   0  0  0  0  0  0  0  0  0  0  0  0
   -8.3610   19.8970  -32.7220 C   0  0  0  0  0  0  0  0  0  0  0  0
   -8.4840   18.8801  -33.1230 H   0  0  0  0  0  0  0  0  0  0  0  0
  1  2  1  0
  2  3  2  0
  3  4  1  0
  3  5  1  0
  5  6  1  0
  5  7  2  0
  7  8  1  0
  8  9  2  0
  8 10  1  0
 10 11  2  0
 11 12  1  0
 12 13  1  0
 13 14  1  0
 14 15  1  0
 15 16  1  0
 15 17  1  0
 15 18  1  0
 14 19  2  0
 19 20  1  0
  7 21  1  0
 21 22  1  0
 22 23  1  0
 23 24  1  0
 23 25  1  0
 23 26  1  0
 21 27  2  0
 27 28  1  0
 27  2  1  0
 19 11  1  0
M  CHG  1  12  -1
M  END
>  <UniqueID>  (5) 
5

>  <SMILES>  (5) 
COc1ccccc1C(=O)/N=c1\cc(C)o[n-]1

>  <Energy>  (5) 
67.0121258751288

>  <Genealogy>  (5) 
COc1ccccc1C(=O)N=c1cc(C)o[n-]1 (protonated)
COc1ccccc1C(=O)/N=c1\cc(C)o[n-]1 (cis-trans isomerization)
COc1ccccc1C(=O)/N=c1\cc(C)o[n-]1 (3D coordinates assigned)
COc1ccccc1C(=O)/N=c1\cc(C)o[n-]1 (optimized conformer: 67.0121258751288 kcal/mol)

>  <smiles>  (5) 
COc1ccccc1C(=O)N=c1cc(C)o[nH]1

>  <score_type>  (5) 
oracle

>  <origin>  (5) 
adg

>  <m_score__min__energy>  (5) 
-8.7599999999999998

>  <m_primary>  (5) 
energy

$$$$
5:0
     RDKit          3D

 41 42  0  0  0  0  0  0  0  0999 V2000
   -3.6700   25.6650  -31.6050 H   0  0  0  0  0  0  0  0  0  0  0  0
   -3.8970   25.0810  -30.8100 O   0  0  0  0  0  0  0  0  0  0  0  0
   -4.4950   23.8530  -30.9940 N   0  0  0  0  0  0  0  0  0  0  0  0
   -5.4590   23.8530  -31.3850 H   0  0  0  0  0  0  0  0  0  0  0  0
   -3.8730   22.7460  -30.6780 C   0  0  0  0  0  0  0  0  0  0  0  0
   -3.4260   21.8490  -31.7770 C   0  0  0  0  0  0  0  0  0  0  0  0
   -4.3170   21.2950  -32.7290 C   0  0  0  0  0  0  0  0  0  0  0  0
   -5.7010   21.5080  -32.6810 O   0  0  0  0  0  0  0  0  0  0  0  0
   -6.6640   20.5170  -32.4510 C   0  0  0  0  0  0  0  0  0  0  0  0
   -6.2650   19.1770  -32.5200 C   0  0  0  0  0  0  0  0  0  0  0  0
   -5.2170   18.9307  -32.7461 H   0  0  0  0  0  0  0  0  0  0  0  0
   -7.1870   18.1500  -32.3040 C   0  0  0  0  0  0  0  0  0  0  0  0
   -6.8645   17.1001  -32.3649 H   0  0  0  0  0  0  0  0  0  0  0  0
   -8.5170   18.4550  -32.0110 C   0  0  0  0  0  0  0  0  0  0  0  0
   -9.2470   17.6459  -31.8612 H   0  0  0  0  0  0  0  0  0  0  0  0
   -8.9210   19.7890  -31.9080 C   0  0  0  0  0  0  0  0  0  0  0  0
   -9.9673   20.0262  -31.6652 H   0  0  0  0  0  0  0  0  0  0  0  0
   -8.0020   20.8250  -32.1120 C   0  0  0  0  0  0  0  0  0  0  0  0
   -8.5350   22.4790  -31.8360 Cl  0  0  0  0  0  0  0  0  0  0  0  0
   -3.8200   20.5530  -33.7560 N   0  0  0  0  0  0  0  0  0  0  0  0
   -2.4950   20.2840  -33.8840 C   0  0  0  0  0  0  0  0  0  0  0  0
   -2.1356   19.6774  -34.7283 H   0  0  0  0  0  0  0  0  0  0  0  0
   -1.5910   20.7770  -32.9450 C   0  0  0  0  0  0  0  0  0  0  0  0
   -0.5184   20.5499  -33.0346 H   0  0  0  0  0  0  0  0  0  0  0  0
   -2.0580   21.5600  -31.8920 C   0  0  0  0  0  0  0  0  0  0  0  0
   -1.3508   21.9536  -31.1470 H   0  0  0  0  0  0  0  0  0  0  0  0
   -3.6880   22.3520  -29.2840 N   0  0  0  0  0  0  0  0  0  0  0  0
   -4.2860   23.1160  -28.1730 C   0  0  0  0  0  0  0  0  0  0  0  0
   -4.4201   22.4489  -27.3087 H   0  0  0  0  0  0  0  0  0  0  0  0
   -5.2555   23.5163  -28.5043 H   0  0  0  0  0  0  0  0  0  0  0  0
   -3.3910   24.2820  -27.7690 C   0  0  0  0  0  0  0  0  0  0  0  0
   -3.3431   24.3444  -26.6718 H   0  0  0  0  0  0  0  0  0  0  0  0
   -2.3796   24.1246  -28.1718 H   0  0  0  0  0  0  0  0  0  0  0  0
   -3.8045   25.2183  -28.1718 H   0  0  0  0  0  0  0  0  0  0  0  0
   -3.0250   21.0840  -28.9330 C   0  0  0  0  0  0  0  0  0  0  0  0
   -3.7553   20.2643  -29.0024 H   0  0  0  0  0  0  0  0  0  0  0  0
   -2.1927   20.9168  -29.6325 H   0  0  0  0  0  0  0  0  0  0  0  0
   -2.4670   21.1370  -27.5150 C   0  0  0  0  0  0  0  0  0  0  0  0
   -3.2930   21.0585  -26.7928 H   0  0  0  0  0  0  0  0  0  0  0  0
   -1.7678   20.3012  -27.3646 H   0  0  0  0  0  0  0  0  0  0  0  0
   -1.9377   22.0895  -27.3646 H   0  0  0  0  0  0  0  0  0  0  0  0
  1  2  1  0
  2  3  1  0
  3  4  1  0
  3  5  2  0
  5  6  1  0
  6  7  2  0
  7  8  1  0
  8  9  1  0
  9 10  2  0
 10 11  1  0
 10 12  1  0
 12 13  1  0
 12 14  2  0
 14 15  1  0
 14 16  1  0
 16 17  1  0
 16 18  2  0
 18 19  1  0
  7 20  1  0
 20 21  2  0
 21 22  1  0
 21 23  1  0
 23 24  1  0
 23 25  2  0
 25 26  1  0
  5 27  1  0
 27 28  1  0
 28 29  1  0
 28 30  1  0
 28 31  1  0
 31 32  1  0
 31 33  1  0
 31 34  1  0
 27 35  1  0
 35 36  1  0
 35 37  1  0
 35 38  1  0
 38 39  1  0
 38 40  1  0
 38 41  1  0
 25  6  1  0
 18  9  1  0
M  CHG  1   3   1
M  END
>  <UniqueID>  (6) 
6

>  <SMILES>  (6) 
CCN(CC)/C(=[NH+]/O)c1cccnc1Oc1ccccc1Cl

>  <Energy>  (6) 
53.17294841711324

>  <Genealogy>  (6) 
CCN(CC)C(=[NH+]O)c1cccnc1Oc1ccccc1Cl (protonated)
CCN(CC)/C(=[NH+]/O)c1cccnc1Oc1ccccc1Cl (cis-trans isomerization)
CCN(CC)/C(=[NH+]/O)c1cccnc1Oc1ccccc1Cl (3D coordinates assigned)
CCN(CC)/C(=[NH+]/O)c1cccnc1Oc1ccccc1Cl (optimized conformer: 53.17294841711324 kcal/mol)

>  <smiles>  (6) 
CCN(CC)C(=NO)c1cccnc1Oc1ccccc1Cl

>  <score_type>  (6) 
oracle

>  <origin>  (6) 
adg

>  <m_score__min__energy>  (6) 
-6.9400000000000004

>  <m_primary>  (6) 
energy

$$$$
6:0
     RDKit          3D

 59 62  0  0  0  0  0  0  0  0999 V2000
   -6.1310   25.6480  -29.3460 C   0  0  0  0  0  0  0  0  0  0  0  0
   -5.2830   25.6600  -30.6140 C   0  0  0  0  0  0  0  0  0  0  0  0
   -5.2390   24.2950  -31.2000 N   0  0  0  0  0  0  0  0  0  0  0  0
   -6.4970   23.9520  -31.9010 C   0  0  0  0  0  0  0  0  0  0  0  0
   -7.5260   23.3380  -30.9520 C   0  0  0  0  0  0  0  0  0  0  0  0
   -4.9350   23.2700  -30.1730 C   0  0  0  0  0  0  0  0  0  0  0  0
   -4.2650   22.0270  -30.8020 C   0  0  0  0  0  0  0  0  0  0  0  0
   -3.7110   22.2760  -32.2210 C   0  0  0  0  0  0  0  0  0  0  0  0
   -4.6200   21.8200  -33.2940 N   0  0  0  0  0  0  0  0  0  0  0  0
   -4.8210   20.3840  -33.2860 C   0  0  0  0  0  0  0  0  0  0  0  0
   -6.0920   19.8260  -32.9350 C   0  0  0  0  0  0  0  0  0  0  0  0
   -7.1680   20.6420  -32.5030 C   0  0  0  0  0  0  0  0  0  0  0  0
   -8.3840   20.0860  -32.1120 C   0  0  0  0  0  0  0  0  0  0  0  0
   -8.5610   18.7100  -32.1310 C   0  0  0  0  0  0  0  0  0  0  0  0
   -7.5370   17.8790  -32.5700 C   0  0  0  0  0  0  0  0  0  0  0  0
   -6.2990   18.4080  -33.0130 C   0  0  0  0  0  0  0  0  0  0  0  0
   -5.3050   17.5830  -33.5030 N   0  0  0  0  0  0  0  0  0  0  0  0
   -5.5570   16.1540  -33.7770 C   0  0  0  0  0  0  0  0  0  0  0  0
   -4.0670   18.1120  -33.7360 C   0  0  0  0  0  0  0  0  0  0  0  0
   -2.9700   17.4030  -34.0830 N   0  0  0  0  0  0  0  0  0  0  0  0
   -1.9920   18.3050  -34.2410 C   0  0  0  0  0  0  0  0  0  0  0  0
   -0.6840   18.0180  -34.6190 C   0  0  0  0  0  0  0  0  0  0  0  0
    0.2160   19.0790  -34.7570 C   0  0  0  0  0  0  0  0  0  0  0  0
   -0.1920   20.4100  -34.5050 C   0  0  0  0  0  0  0  0  0  0  0  0
    0.7420   21.4960  -34.6560 N   0  0  0  0  0  0  0  0  0  0  0  0
    1.9170   21.3870  -34.2470 O   0  0  0  0  0  0  0  0  0  0  0  0
    0.3580   22.6740  -35.2550 O   0  0  0  0  0  0  0  0  0  0  0  0
   -1.5250   20.6660  -34.1080 C   0  0  0  0  0  0  0  0  0  0  0  0
   -2.4300   19.5930  -33.9930 C   0  0  0  0  0  0  0  0  0  0  0  0
   -3.7950   19.4740  -33.6490 C   0  0  0  0  0  0  0  0  0  0  0  0
   -5.4729   25.6573  -28.4647 H   0  0  0  0  0  0  0  0  0  0  0  0
   -6.7785   26.5371  -29.3295 H   0  0  0  0  0  0  0  0  0  0  0  0
   -6.7531   24.7410  -29.3295 H   0  0  0  0  0  0  0  0  0  0  0  0
   -5.7240   26.3565  -31.3423 H   0  0  0  0  0  0  0  0  0  0  0  0
   -4.2612   25.9831  -30.3659 H   0  0  0  0  0  0  0  0  0  0  0  0
   -6.9201   24.8669  -32.3414 H   0  0  0  0  0  0  0  0  0  0  0  0
   -6.2637   23.2102  -32.6790 H   0  0  0  0  0  0  0  0  0  0  0  0
   -7.2199   23.5206  -29.9114 H   0  0  0  0  0  0  0  0  0  0  0  0
   -8.5095   23.7970  -31.1309 H   0  0  0  0  0  0  0  0  0  0  0  0
   -7.5891   22.2545  -31.1309 H   0  0  0  0  0  0  0  0  0  0  0  0
   -4.2554   23.7032  -29.4244 H   0  0  0  0  0  0  0  0  0  0  0  0
   -5.8797   22.9561  -29.7051 H   0  0  0  0  0  0  0  0  0  0  0  0
   -3.4331   21.7147  -30.1536 H   0  0  0  0  0  0  0  0  0  0  0  0
   -5.0405   21.2518  -30.8896 H   0  0  0  0  0  0  0  0  0  0  0  0
   -3.5400   23.3556  -32.3442 H   0  0  0  0  0  0  0  0  0  0  0  0
   -2.7816   21.6949  -32.3136 H   0  0  0  0  0  0  0  0  0  0  0  0
   -5.5120   22.3400  -33.2550 H   0  0  0  0  0  0  0  0  0  0  0  0
   -4.2360   22.1160  -34.2180 H   0  0  0  0  0  0  0  0  0  0  0  0
   -7.0403   21.7342  -32.4761 H   0  0  0  0  0  0  0  0  0  0  0  0
   -9.2066   20.7401  -31.7871 H   0  0  0  0  0  0  0  0  0  0  0  0
   -9.5149   18.2753  -31.7975 H   0  0  0  0  0  0  0  0  0  0  0  0
   -7.6904   16.7898  -32.5737 H   0  0  0  0  0  0  0  0  0  0  0  0
   -5.6530   15.6097  -32.8260 H   0  0  0  0  0  0  0  0  0  0  0  0
   -6.4874   16.0499  -34.3546 H   0  0  0  0  0  0  0  0  0  0  0  0
   -4.7184   15.7379  -34.3546 H   0  0  0  0  0  0  0  0  0  0  0  0
   -2.8610   16.3700  -34.1850 H   0  0  0  0  0  0  0  0  0  0  0  0
   -0.3658   16.9815  -34.8047 H   0  0  0  0  0  0  0  0  0  0  0  0
    1.2525   18.8767  -35.0648 H   0  0  0  0  0  0  0  0  0  0  0  0
   -1.8520   21.6936  -33.8910 H   0  0  0  0  0  0  0  0  0  0  0  0
  1  2  1  0
  2  3  1  0
  3  4  1  0
  4  5  1  0
  3  6  1  0
  6  7  1  0
  7  8  1  0
  8  9  1  0
  9 10  1  0
 10 11  2  0
 11 12  1  0
 12 13  2  0
 13 14  1  0
 14 15  2  0
 15 16  1  0
 16 17  2  0
 17 18  1  0
 17 19  1  0
 19 20  1  0
 20 21  1  0
 21 22  2  0
 22 23  1  0
 23 24  2  0
 24 25  1  0
 25 26  2  0
 25 27  1  0
 24 28  1  0
 28 29  2  0
 29 30  1  0
 30 10  1  0
 16 11  1  0
 30 19  2  0
 29 21  1  0
  1 31  1  0
  1 32  1  0
  1 33  1  0
  2 34  1  0
  2 35  1  0
  4 36  1  0
  4 37  1  0
  5 38  1  0
  5 39  1  0
  5 40  1  0
  6 41  1  0
  6 42  1  0
  7 43  1  0
  7 44  1  0
  8 45  1  0
  8 46  1  0
  9 47  1  0
  9 48  1  0
 12 49  1  0
 13 50  1  0
 14 51  1  0
 15 52  1  0
 18 53  1  0
 18 54  1  0
 18 55  1  0
 20 56  1  0
 22 57  1  0
 23 58  1  0
 28 59  1  0
M  CHG  4   9   1  17   1  25   1  27  -1
M  END
>  <UniqueID>  (7) 
7

>  <SMILES>  (7) 
CCN(CC)CCC[NH2+]c1c2ccccc2[n+](C)c2[nH]c3ccc([N+](=O)[O-])cc3c12

>  <Energy>  (7) 
121.19134307195742

>  <Genealogy>  (7) 
CCN(CC)CCC[NH2+]c1c2ccccc2[n+](C)c2[nH]c3ccc([N+](=O)[O-])cc3c12 (protonated)
CCN(CC)CCC[NH2+]c1c2ccccc2[n+](C)c2[nH]c3ccc([N+](=O)[O-])cc3c12 (3D coordinates assigned)
CCN(CC)CCC[NH2+]c1c2ccccc2[n+](C)c2[nH]c3ccc([N+](=O)[O-])cc3c12 (optimized conformer: 121.19134307195742 kcal/mol)

>  <smiles>  (7) 
CCN(CC)CCCNc1c2ccccc2[n+](C)c2[nH]c3ccc([N+](=O)[O-])cc3c12

>  <score_type>  (7) 
oracle

>  <origin>  (7) 
adg

>  <m_score__min__energy>  (7) 
-9.1999999999999993

>  <m_primary>  (7) 
energy

$$$$
7:0
     RDKit          3D

 35 38  0  0  0  0  0  0  0  0999 V2000
   -9.1370   18.1070  -31.5850 C   0  0  0  0  0  0  0  0  0  0  0  0
   -8.7030   19.4730  -31.8430 N   0  0  0  0  0  0  0  0  0  0  0  0
   -9.4860   20.4820  -32.2670 C   0  0  0  0  0  0  0  0  0  0  0  0
   -8.7280   21.6310  -32.3100 C   0  0  0  0  0  0  0  0  0  0  0  0
   -7.4710   21.2350  -31.8830 C   0  0  0  0  0  0  0  0  0  0  0  0
   -6.2920   22.1060  -31.7100 C   0  0  0  0  0  0  0  0  0  0  0  0
   -4.9990   21.9520  -32.2300 C   0  0  0  0  0  0  0  0  0  0  0  0
   -4.4520   20.7840  -32.9470 C   0  0  0  0  0  0  0  0  0  0  0  0
   -5.2890   19.7360  -33.3670 C   0  0  0  0  0  0  0  0  0  0  0  0
   -4.7540   18.6270  -34.0310 C   0  0  0  0  0  0  0  0  0  0  0  0
   -5.8100   17.3320  -34.5650 Cl  0  0  0  0  0  0  0  0  0  0  0  0
   -3.3780   18.5470  -34.2630 C   0  0  0  0  0  0  0  0  0  0  0  0
   -2.5340   19.5740  -33.8270 C   0  0  0  0  0  0  0  0  0  0  0  0
   -0.8060   19.4670  -34.1080 Cl  0  0  0  0  0  0  0  0  0  0  0  0
   -3.0680   20.6850  -33.1650 C   0  0  0  0  0  0  0  0  0  0  0  0
   -4.2470   23.0350  -31.9250 N   0  0  0  0  0  0  0  0  0  0  0  0
   -5.0160   23.8540  -31.2290 N   0  0  0  0  0  0  0  0  0  0  0  0
   -4.6510   25.0660  -30.7370 C   0  0  0  0  0  0  0  0  0  0  0  0
   -5.6080   25.8160  -30.0370 C   0  0  0  0  0  0  0  0  0  0  0  0
   -6.9060   25.3000  -29.8730 C   0  0  0  0  0  0  0  0  0  0  0  0
   -7.2430   24.0430  -30.4000 C   0  0  0  0  0  0  0  0  0  0  0  0
   -6.2450   23.3350  -31.0750 C   0  0  0  0  0  0  0  0  0  0  0  0
   -7.4840   19.9200  -31.5890 N   0  0  0  0  0  0  0  0  0  0  0  0
   -9.1906   17.9382  -30.4994 H   0  0  0  0  0  0  0  0  0  0  0  0
  -10.1301   17.9475  -32.0304 H   0  0  0  0  0  0  0  0  0  0  0  0
   -8.4181   17.4036  -32.0304 H   0  0  0  0  0  0  0  0  0  0  0  0
  -10.5502   20.4026  -32.5338 H   0  0  0  0  0  0  0  0  0  0  0  0
   -9.0489   22.6379  -32.6151 H   0  0  0  0  0  0  0  0  0  0  0  0
   -6.3704   19.7881  -33.1726 H   0  0  0  0  0  0  0  0  0  0  0  0
   -2.9586   17.6764  -34.7885 H   0  0  0  0  0  0  0  0  0  0  0  0
   -2.4003   21.4853  -32.8134 H   0  0  0  0  0  0  0  0  0  0  0  0
   -3.6307   25.4500  -30.8836 H   0  0  0  0  0  0  0  0  0  0  0  0
   -5.3453   26.7994  -29.6199 H   0  0  0  0  0  0  0  0  0  0  0  0
   -7.6619   25.8849  -29.3285 H   0  0  0  0  0  0  0  0  0  0  0  0
   -8.2562   23.6303  -30.2857 H   0  0  0  0  0  0  0  0  0  0  0  0
  1  2  1  0
  2  3  1  0
  3  4  2  0
  4  5  1  0
  5  6  1  0
  6  7  1  0
  7  8  1  0
  8  9  2  0
  9 10  1  0
 10 11  1  0
 10 12  2  0
 12 13  1  0
 13 14  1  0
 13 15  2  0
  7 16  2  0
 16 17  1  0
 17 18  1  0
 18 19  2  0
 19 20  1  0
 20 21  2  0
 21 22  1  0
  5 23  2  0
 23  2  1  0
 22  6  2  0
 15  8  1  0
 22 17  1  0
  1 24  1  0
  1 25  1  0
  1 26  1  0
  3 27  1  0
  4 28  1  0
  9 29  1  0
 12 30  1  0
 15 31  1  0
 18 32  1  0
 19 33  1  0
 20 34  1  0
 21 35  1  0
M  END
>  <UniqueID>  (8) 
8

>  <SMILES>  (8) 
Cn1ccc(-c2c(-c3cc(Cl)cc(Cl)c3)nn3ccccc23)n1

>  <Energy>  (8) 
110.14884519081922

>  <Genealogy>  (8) 
Cn1ccc(-c2c(-c3cc(Cl)cc(Cl)c3)nn3ccccc23)n1 (3D coordinates assigned)
Cn1ccc(-c2c(-c3cc(Cl)cc(Cl)c3)nn3ccccc23)n1 (optimized conformer: 110.14884519081922 kcal/mol)

>  <smiles>  (8) 
Cn1ccc(-c2c(-c3cc(Cl)cc(Cl)c3)nn3ccccc23)n1

>  <score_type>  (8) 
oracle

>  <origin>  (8) 
adg

>  <m_score__min__energy>  (8) 
-8.5099999999999998

>  <m_primary>  (8) 
energy

$$$$
8:0
     RDKit          3D

 77 80  0  0  0  0  0  0  0  0999 V2000
   -9.4300   21.5910  -31.9610 C   0  0  0  0  0  0  0  0  0  0  0  0
   -8.5110   21.9110  -30.7870 C   0  0  0  0  0  0  0  0  0  0  0  0
   -7.6220   23.0460  -31.1260 N   0  0  0  0  0  0  0  0  0  0  0  0
   -6.8580   23.5310  -29.9490 C   0  0  0  0  0  0  0  0  0  0  0  0
   -6.7760   25.0590  -29.8400 C   0  0  0  0  0  0  0  0  0  0  0  0
   -6.7880   22.7520  -32.3180 C   0  0  0  0  0  0  0  0  0  0  0  0
   -5.3440   23.2530  -32.1690 C   0  0  0  0  0  0  0  0  0  0  0  0
   -4.3230   22.2810  -32.7980 C   0  0  0  0  0  0  0  0  0  0  0  0
   -3.6800   21.4200  -31.7840 N   0  0  0  0  0  0  0  0  0  0  0  0
   -3.6690   20.0170  -32.1860 C   0  0  0  0  0  0  0  0  0  0  0  0
   -4.8790   19.3050  -32.3450 C   0  0  0  0  0  0  0  0  0  0  0  0
   -6.0370   19.6480  -31.6140 C   0  0  0  0  0  0  0  0  0  0  0  0
   -7.2230   18.9370  -31.7860 C   0  0  0  0  0  0  0  0  0  0  0  0
   -7.2750   17.8700  -32.6760 C   0  0  0  0  0  0  0  0  0  0  0  0
   -6.1450   17.5170  -33.4120 C   0  0  0  0  0  0  0  0  0  0  0  0
   -4.9310   18.2380  -33.2760 C   0  0  0  0  0  0  0  0  0  0  0  0
   -3.8220   17.9420  -34.0410 N   0  0  0  0  0  0  0  0  0  0  0  0
   -3.9650   17.1390  -35.2730 C   0  0  0  0  0  0  0  0  0  0  0  0
   -2.5790   18.3940  -33.6400 C   0  0  0  0  0  0  0  0  0  0  0  0
   -1.3900   17.8720  -34.2000 C   0  0  0  0  0  0  0  0  0  0  0  0
   -0.1430   18.3090  -33.7710 C   0  0  0  0  0  0  0  0  0  0  0  0
   -0.0410   19.2110  -32.7200 C   0  0  0  0  0  0  0  0  0  0  0  0
   -1.1920   19.7220  -32.1010 C   0  0  0  0  0  0  0  0  0  0  0  0
   -1.0620   20.4060  -30.8370 N   0  0  0  0  0  0  0  0  0  0  0  0
   -1.0180   19.6950  -29.5550 C   0  0  0  0  0  0  0  0  0  0  0  0
   -2.1430   20.1510  -28.6110 C   0  0  0  0  0  0  0  0  0  0  0  0
   -2.1180   21.6590  -28.3220 C   0  0  0  0  0  0  0  0  0  0  0  0
   -2.4040   22.4350  -29.5520 N   0  0  0  0  0  0  0  0  0  0  0  0
   -3.6470   23.2310  -29.4530 C   0  0  0  0  0  0  0  0  0  0  0  0
   -3.4390   24.5350  -28.6580 C   0  0  0  0  0  0  0  0  0  0  0  0
   -2.3680   25.2920  -29.1860 O   0  0  0  0  0  0  0  0  0  0  0  0
   -1.1720   24.5450  -29.1020 C   0  0  0  0  0  0  0  0  0  0  0  0
   -1.2700   23.2840  -29.9690 C   0  0  0  0  0  0  0  0  0  0  0  0
   -2.4750   19.3930  -32.6290 C   0  0  0  0  0  0  0  0  0  0  0  0
  -10.4050   21.2515  -31.5815 H   0  0  0  0  0  0  0  0  0  0  0  0
   -9.5693   22.4935  -32.5742 H   0  0  0  0  0  0  0  0  0  0  0  0
   -8.9786   20.7971  -32.5742 H   0  0  0  0  0  0  0  0  0  0  0  0
   -9.1205   22.1764  -29.9106 H   0  0  0  0  0  0  0  0  0  0  0  0
   -7.8948   21.0277  -30.5632 H   0  0  0  0  0  0  0  0  0  0  0  0
   -7.3430   23.1456  -29.0400 H   0  0  0  0  0  0  0  0  0  0  0  0
   -5.8271   23.1664  -30.0686 H   0  0  0  0  0  0  0  0  0  0  0  0
   -6.7603   25.3506  -28.7795 H   0  0  0  0  0  0  0  0  0  0  0  0
   -5.8576   25.4129  -30.3312 H   0  0  0  0  0  0  0  0  0  0  0  0
   -7.6513   25.5091  -30.3312 H   0  0  0  0  0  0  0  0  0  0  0  0
   -6.7685   21.6633  -32.4740 H   0  0  0  0  0  0  0  0  0  0  0  0
   -7.2354   23.2776  -33.1745 H   0  0  0  0  0  0  0  0  0  0  0  0
   -5.2550   24.2306  -32.6653 H   0  0  0  0  0  0  0  0  0  0  0  0
   -5.1214   23.3285  -31.0944 H   0  0  0  0  0  0  0  0  0  0  0  0
   -4.8433   21.6427  -33.5273 H   0  0  0  0  0  0  0  0  0  0  0  0
   -3.5376   22.8801  -33.2819 H   0  0  0  0  0  0  0  0  0  0  0  0
   -4.1720   21.5240  -30.8660 H   0  0  0  0  0  0  0  0  0  0  0  0
   -2.7200   21.8060  -31.6580 H   0  0  0  0  0  0  0  0  0  0  0  0
   -6.0027   20.4852  -30.9013 H   0  0  0  0  0  0  0  0  0  0  0  0
   -8.1203   19.2205  -31.2163 H   0  0  0  0  0  0  0  0  0  0  0  0
   -8.2097   17.3033  -32.7996 H   0  0  0  0  0  0  0  0  0  0  0  0
   -6.1955   16.6670  -34.1084 H   0  0  0  0  0  0  0  0  0  0  0  0
   -4.1521   16.0884  -35.0062 H   0  0  0  0  0  0  0  0  0  0  0  0
   -4.8089   17.5229  -35.8650 H   0  0  0  0  0  0  0  0  0  0  0  0
   -3.0404   17.2079  -35.8650 H   0  0  0  0  0  0  0  0  0  0  0  0
   -1.4535   17.1074  -34.9882 H   0  0  0  0  0  0  0  0  0  0  0  0
    0.7672   17.9391  -34.2657 H   0  0  0  0  0  0  0  0  0  0  0  0
    0.9522   19.5281  -32.3692 H   0  0  0  0  0  0  0  0  0  0  0  0
   -0.9250   21.4400  -30.8490 H   0  0  0  0  0  0  0  0  0  0  0  0
   -1.1253   18.6163  -29.7421 H   0  0  0  0  0  0  0  0  0  0  0  0
   -0.0550   19.9184  -29.0727 H   0  0  0  0  0  0  0  0  0  0  0  0
   -3.1095   19.8997  -29.0723 H   0  0  0  0  0  0  0  0  0  0  0  0
   -1.9947   19.6325  -27.6523 H   0  0  0  0  0  0  0  0  0  0  0  0
   -2.8785   21.8934  -27.5626 H   0  0  0  0  0  0  0  0  0  0  0  0
   -1.1166   21.9318  -27.9576 H   0  0  0  0  0  0  0  0  0  0  0  0
   -3.9874   23.4848  -30.4678 H   0  0  0  0  0  0  0  0  0  0  0  0
   -4.3953   22.6255  -28.9206 H   0  0  0  0  0  0  0  0  0  0  0  0
   -4.3598   25.1348  -28.7058 H   0  0  0  0  0  0  0  0  0  0  0  0
   -3.1995   24.2730  -27.6168 H   0  0  0  0  0  0  0  0  0  0  0  0
   -0.3328   25.1629  -29.4539 H   0  0  0  0  0  0  0  0  0  0  0  0
   -1.0085   24.2479  -28.0556 H   0  0  0  0  0  0  0  0  0  0  0  0
   -1.4111   23.5806  -31.0188 H   0  0  0  0  0  0  0  0  0  0  0  0
   -0.3411   22.7069  -29.8500 H   0  0  0  0  0  0  0  0  0  0  0  0
  1  2  1  0
  2  3  1  0
  3  4  1  0
  4  5  1  0
  3  6  1  0
  6  7  1  0
  7  8  1  0
  8  9  1  0
  9 10  1  0
 10 11  2  0
 11 12  1  0
 12 13  2  0
 13 14  1  0
 14 15  2  0
 15 16  1  0
 16 17  2  0
 17 18  1  0
 17 19  1  0
 19 20  2  0
 20 21  1  0
 21 22  2  0
 22 23  1  0
 23 24  1  0
 24 25  1  0
 25 26  1  0
 26 27  1  0
 27 28  1  0
 28 29  1  0
 29 30  1  0
 30 31  1  0
 31 32  1  0
 32 33  1  0
 23 34  2  0
 34 10  1  0
 16 11  1  0
 34 19  1  0
 33 28  1  0
  1 35  1  0
  1 36  1  0
  1 37  1  0
  2 38  1  0
  2 39  1  0
  4 40  1  0
  4 41  1  0
  5 42  1  0
  5 43  1  0
  5 44  1  0
  6 45  1  0
  6 46  1  0
  7 47  1  0
  7 48  1  0
  8 49  1  0
  8 50  1  0
  9 51  1  0
  9 52  1  0
 12 53  1  0
 13 54  1  0
 14 55  1  0
 15 56  1  0
 18 57  1  0
 18 58  1  0
 18 59  1  0
 20 60  1  0
 21 61  1  0
 22 62  1  0
 24 63  1  0
 25 64  1  0
 25 65  1  0
 26 66  1  0
 26 67  1  0
 27 68  1  0
 27 69  1  0
 29 70  1  0
 29 71  1  0
 30 72  1  0
 30 73  1  0
 32 74  1  0
 32 75  1  0
 33 76  1  0
 33 77  1  0
M  CHG  2   9   1  17   1
M  END
>  <UniqueID>  (9) 
9

>  <SMILES>  (9) 
CCN(CC)CCC[NH2+]c1c2ccccc2[n+](C)c2cccc(NCCCN3CCOCC3)c12

>  <Energy>  (9) 
118.12552821667919

>  <Genealogy>  (9) 
CCN(CC)CCC[NH2+]c1c2ccccc2[n+](C)c2cccc(NCCCN3CCOCC3)c12 (protonated)
CCN(CC)CCC[NH2+]c1c2ccccc2[n+](C)c2cccc(NCCCN3CCOCC3)c12 (3D coordinates assigned)
CCN(CC)CCC[NH2+]c1c2ccccc2[n+](C)c2cccc(NCCCN3CCOCC3)c12 (nonaromatic ring conformer: 118.12552821667919 kcal/mol)

>  <smiles>  (9) 
CCN(CC)CCCNc1c2ccccc2[n+](C)c2cccc(NCCCN3CCOCC3)c12

>  <score_type>  (9) 
oracle

>  <origin>  (9) 
adg

>  <m_score__min__energy>  (9) 
-7.71

>  <m_primary>  (9) 
energy

$$$$
9:0
     RDKit          3D

 46 47  0  0  0  0  0  0  0  0999 V2000
   -6.3860   25.6570  -29.4810 C   0  0  0  0  0  0  0  0  0  0  0  0
   -5.3150   25.6400  -30.5640 C   0  0  0  0  0  0  0  0  0  0  0  0
   -5.0850   24.2670  -31.0240 N   0  0  0  0  0  0  0  0  0  0  0  0
   -6.2120   23.8130  -31.8510 C   0  0  0  0  0  0  0  0  0  0  0  0
   -6.3410   22.2770  -31.8070 C   0  0  0  0  0  0  0  0  0  0  0  0
   -5.2930   21.5510  -32.6660 C   0  0  0  0  0  0  0  0  0  0  0  0
   -4.1110   22.3960  -32.8800 N   0  0  0  0  0  0  0  0  0  0  0  0
   -2.9040   21.5670  -33.0170 C   0  0  0  0  0  0  0  0  0  0  0  0
   -2.0140   21.7120  -31.7810 C   0  0  0  0  0  0  0  0  0  0  0  0
   -2.5440   22.7440  -30.8880 N   0  0  0  0  0  0  0  0  0  0  0  0
   -2.0390   22.9640  -29.5590 C   0  0  0  0  0  0  0  0  0  0  0  0
   -1.4970   21.9030  -28.8140 C   0  0  0  0  0  0  0  0  0  0  0  0
   -1.0420   22.1060  -27.5060 C   0  0  0  0  0  0  0  0  0  0  0  0
   -0.5140   21.0340  -26.7870 O   0  0  0  0  0  0  0  0  0  0  0  0
   -1.1210   23.3840  -26.9230 C   0  0  0  0  0  0  0  0  0  0  0  0
   -0.6710   23.6110  -25.6090 C   0  0  0  0  0  0  0  0  0  0  0  0
   -0.7520   24.8840  -25.0430 C   0  0  0  0  0  0  0  0  0  0  0  0
   -1.2790   25.9460  -25.7770 C   0  0  0  0  0  0  0  0  0  0  0  0
   -1.7330   25.7430  -27.0820 C   0  0  0  0  0  0  0  0  0  0  0  0
   -1.6590   24.4650  -27.6700 C   0  0  0  0  0  0  0  0  0  0  0  0
   -2.1220   24.2440  -28.9820 C   0  0  0  0  0  0  0  0  0  0  0  0
   -2.6540   25.2970  -29.7200 O   0  0  0  0  0  0  0  0  0  0  0  0
   -5.9065   25.6494  -28.4910 H   0  0  0  0  0  0  0  0  0  0  0  0
   -6.9982   26.5650  -29.5849 H   0  0  0  0  0  0  0  0  0  0  0  0
   -7.0267   24.7689  -29.5849 H   0  0  0  0  0  0  0  0  0  0  0  0
   -5.6456   26.2573  -31.4123 H   0  0  0  0  0  0  0  0  0  0  0  0
   -4.3786   26.0427  -30.1505 H   0  0  0  0  0  0  0  0  0  0  0  0
   -4.2180   24.2640  -31.6080 H   0  0  0  0  0  0  0  0  0  0  0  0
   -7.1413   24.2637  -31.4726 H   0  0  0  0  0  0  0  0  0  0  0  0
   -6.0321   24.1216  -32.8914 H   0  0  0  0  0  0  0  0  0  0  0  0
   -6.2258   21.9472  -30.7639 H   0  0  0  0  0  0  0  0  0  0  0  0
   -7.3295   22.0225  -32.2170 H   0  0  0  0  0  0  0  0  0  0  0  0
   -4.9865   20.6266  -32.1546 H   0  0  0  0  0  0  0  0  0  0  0  0
   -5.7405   21.3201  -33.6440 H   0  0  0  0  0  0  0  0  0  0  0  0
   -4.2450   22.9060  -33.7860 H   0  0  0  0  0  0  0  0  0  0  0  0
   -3.1989   20.5133  -33.1296 H   0  0  0  0  0  0  0  0  0  0  0  0
   -2.3418   21.8990  -33.9023 H   0  0  0  0  0  0  0  0  0  0  0  0
   -1.9791   20.7521  -31.2450 H   0  0  0  0  0  0  0  0  0  0  0  0
   -1.0029   22.0031  -32.1018 H   0  0  0  0  0  0  0  0  0  0  0  0
   -3.0950   23.5090  -31.3420 H   0  0  0  0  0  0  0  0  0  0  0  0
   -1.4295   20.9015  -29.2639 H   0  0  0  0  0  0  0  0  0  0  0  0
   -1.1100   20.3370  -26.3560 H   0  0  0  0  0  0  0  0  0  0  0  0
   -0.2524   22.7789  -25.0238 H   0  0  0  0  0  0  0  0  0  0  0  0
   -0.3990   25.0502  -24.0145 H   0  0  0  0  0  0  0  0  0  0  0  0
   -1.3374   26.9477  -25.3263 H   0  0  0  0  0  0  0  0  0  0  0  0
   -2.1504   26.5851  -27.6535 H   0  0  0  0  0  0  0  0  0  0  0  0
  1  2  1  0
  2  3  1  0
  3  4  1  0
  4  5  1  0
  5  6  1  0
  6  7  1  0
  7  8  1  0
  8  9  1  0
  9 10  1  0
 10 11  1  0
 11 12  2  0
 12 13  1  0
 13 14  1  0
 13 15  2  0
 15 16  1  0
 16 17  2  0
 17 18  1  0
 18 19  2  0
 19 20  1  0
 20 21  2  0
 21 22  1  0
 21 11  1  0
 20 15  1  0
  1 23  1  0
  1 24  1  0
  1 25  1  0
  2 26  1  0
  2 27  1  0
  3 28  1  0
  4 29  1  0
  4 30  1  0
  5 31  1  0
  5 32  1  0
  6 33  1  0
  6 34  1  0
  7 35  1  0
  8 36  1  0
  8 37  1  0
  9 38  1  0
  9 39  1  0
 10 40  1  0
 12 41  1  0
 14 42  1  0
 16 43  1  0
 17 44  1  0
 18 45  1  0
 19 46  1  0
M  CHG  1  22  -1
M  END
>  <UniqueID>  (10) 
10

>  <SMILES>  (10) 
CCNCCCNCCNc1cc(O)c2ccccc2c1[O-]

>  <Energy>  (10) 
40.22290743703857

>  <Genealogy>  (10) 
CCNCCCNCCNc1cc(O)c2ccccc2c1[O-] (protonated)
CCNCCCNCCNc1cc(O)c2ccccc2c1[O-] (3D coordinates assigned)
CCNCCCNCCNc1cc(O)c2ccccc2c1[O-] (optimized conformer: 40.22290743703857 kcal/mol)

>  <smiles>  (10) 
CCNCCCNCCNc1cc(O)c2ccccc2c1O

>  <score_type>  (10) 
oracle

>  <origin>  (10) 
adg

>  <m_score__min__energy>  (10) 
-8.6500000000000004

>  <m_primary>  (10) 
energy

$$$$
10:0
     RDKit          3D

 29 31  0  0  0  0  0  0  0  0999 V2000
   -8.1820   19.4860  -31.6130 O   0  0  0  0  0  0  0  0  0  0  0  0
   -7.1100   19.4590  -32.2730 C   0  0  0  0  0  0  0  0  0  0  0  0
   -6.6090   18.3140  -33.0240 C   0  0  0  0  0  0  0  0  0  0  0  0
   -7.1610   17.0520  -33.2340 C   0  0  0  0  0  0  0  0  0  0  0  0
   -6.4350   16.1340  -34.0150 C   0  0  0  0  0  0  0  0  0  0  0  0
   -5.1850   16.4940  -34.5630 C   0  0  0  0  0  0  0  0  0  0  0  0
   -4.6480   17.7740  -34.3350 C   0  0  0  0  0  0  0  0  0  0  0  0
   -5.3870   18.6640  -33.5570 C   0  0  0  0  0  0  0  0  0  0  0  0
   -5.1020   20.0360  -33.1520 C   0  0  0  0  0  0  0  0  0  0  0  0
   -4.0920   20.7040  -33.4980 O   0  0  0  0  0  0  0  0  0  0  0  0
   -6.1740   20.5410  -32.3480 N   0  0  0  0  0  0  0  0  0  0  0  0
   -6.2900   21.8460  -31.7520 C   0  0  0  0  0  0  0  0  0  0  0  0
   -7.5140   22.5320  -31.7780 C   0  0  0  0  0  0  0  0  0  0  0  0
   -7.6200   23.8060  -31.2150 C   0  0  0  0  0  0  0  0  0  0  0  0
   -6.5120   24.4030  -30.6130 C   0  0  0  0  0  0  0  0  0  0  0  0
   -5.2850   23.7220  -30.5500 C   0  0  0  0  0  0  0  0  0  0  0  0
   -4.0740   24.3820  -29.9380 C   0  0  0  0  0  0  0  0  0  0  0  0
   -4.2130   24.4870  -28.5650 F   0  0  0  0  0  0  0  0  0  0  0  0
   -2.9330   23.6450  -30.2020 F   0  0  0  0  0  0  0  0  0  0  0  0
   -3.9270   25.6470  -30.4750 F   0  0  0  0  0  0  0  0  0  0  0  0
   -5.1770   22.4510  -31.1430 C   0  0  0  0  0  0  0  0  0  0  0  0
   -8.1357   16.7813  -32.8019 H   0  0  0  0  0  0  0  0  0  0  0  0
   -6.8440   15.1297  -34.1996 H   0  0  0  0  0  0  0  0  0  0  0  0
   -4.6268   15.7684  -35.1728 H   0  0  0  0  0  0  0  0  0  0  0  0
   -3.6747   18.0638  -34.7577 H   0  0  0  0  0  0  0  0  0  0  0  0
   -8.3939   22.0643  -32.2438 H   0  0  0  0  0  0  0  0  0  0  0  0
   -8.5808   24.3406  -31.2464 H   0  0  0  0  0  0  0  0  0  0  0  0
   -6.5997   25.4126  -30.1853 H   0  0  0  0  0  0  0  0  0  0  0  0
   -4.2111   21.9249  -31.1300 H   0  0  0  0  0  0  0  0  0  0  0  0
  1  2  2  0
  2  3  1  0
  3  4  2  0
  4  5  1  0
  5  6  2  0
  6  7  1  0
  7  8  2  0
  8  9  1  0
  9 10  2  0
  9 11  1  0
 11 12  1  0
 12 13  2  0
 13 14  1  0
 14 15  2  0
 15 16  1  0
 16 17  1  0
 17 18  1  0
 17 19  1  0
 17 20  1  0
 16 21  2  0
 11  2  1  0
 21 12  1  0
  8  3  1  0
  4 22  1  0
  5 23  1  0
  6 24  1  0
  7 25  1  0
 13 26  1  0
 14 27  1  0
 15 28  1  0
 21 29  1  0
M  END
>  <UniqueID>  (11) 
11

>  <SMILES>  (11) 
O=C1c2ccccc2C(=O)N1c1cccc(C(F)(F)F)c1

>  <Energy>  (11) 
69.28394852158682

>  <Genealogy>  (11) 
O=C1c2ccccc2C(=O)N1c1cccc(C(F)(F)F)c1 (3D coordinates assigned)
O=C1c2ccccc2C(=O)N1c1cccc(C(F)(F)F)c1 (nonaromatic ring conformer: 69.28394852158682 kcal/mol)

>  <smiles>  (11) 
O=C1c2ccccc2C(=O)N1c1cccc(C(F)(F)F)c1

>  <score_type>  (11) 
oracle

>  <origin>  (11) 
adg

>  <m_score__min__energy>  (11) 
-7.0099999999999998

>  <m_primary>  (11) 
energy

$$$$
11:0
     RDKit          3D

 53 55  0  0  0  0  0  0  0  0999 V2000
   -1.2370   21.7500  -29.3410 O   0  0  0  0  0  0  0  0  0  0  0  0
   -2.4520   21.2510  -28.8330 C   0  0  2  0  0  0  0  0  0  0  0  0
   -3.5910   21.4350  -29.8610 C   0  0  0  0  0  0  0  0  0  0  0  0
   -3.3690   22.6490  -30.6960 N   0  0  0  0  0  0  0  0  0  0  0  0
   -4.5650   22.9740  -31.5220 C   0  0  0  0  0  0  0  0  0  0  0  0
   -5.1000   21.7090  -32.2170 C   0  0  0  0  0  0  0  0  0  0  0  0
   -6.6040   21.6360  -32.1580 C   0  0  0  0  0  0  0  0  0  0  0  0
   -7.2600   20.4260  -32.4540 C   0  0  0  0  0  0  0  0  0  0  0  0
   -8.6540   20.3390  -32.3600 C   0  0  0  0  0  0  0  0  0  0  0  0
   -9.4030   21.4560  -31.9760 C   0  0  0  0  0  0  0  0  0  0  0  0
   -8.7590   22.6640  -31.6840 C   0  0  0  0  0  0  0  0  0  0  0  0
   -7.3630   22.7540  -31.7690 C   0  0  0  0  0  0  0  0  0  0  0  0
   -2.9770   23.8170  -29.8770 C   0  0  0  0  0  0  0  0  0  0  0  0
   -3.7290   23.8670  -28.5410 C   0  0  0  0  0  0  0  0  0  0  0  0
   -2.8380   23.3690  -27.4670 N   0  0  0  0  0  0  0  0  0  0  0  0
   -1.4850   23.9580  -27.5530 C   0  0  0  0  0  0  0  0  0  0  0  0
   -1.1900   24.8080  -26.3390 C   0  0  0  0  0  0  0  0  0  0  0  0
   -1.6030   26.1420  -26.2820 C   0  0  0  0  0  0  0  0  0  0  0  0
   -1.3150   26.9180  -25.1580 C   0  0  0  0  0  0  0  0  0  0  0  0
   -0.6020   26.3580  -24.0960 C   0  0  0  0  0  0  0  0  0  0  0  0
   -0.3160   27.1690  -22.9870 O   0  0  0  0  0  0  0  0  0  0  0  0
    0.8720   27.9460  -22.8440 C   0  0  0  0  0  0  0  0  0  0  0  0
    1.9690   27.2170  -23.2780 F   0  0  0  0  0  0  0  0  0  0  0  0
    0.7540   29.0890  -23.6160 F   0  0  0  0  0  0  0  0  0  0  0  0
   -0.2040   25.0480  -24.1640 N   0  0  0  0  0  0  0  0  0  0  0  0
   -0.4770   24.2770  -25.2530 C   0  0  0  0  0  0  0  0  0  0  0  0
   -2.7400   21.8890  -27.4530 C   0  0  0  0  0  0  0  0  0  0  0  0
   -1.3900   21.9340  -30.3070 H   0  0  0  0  0  0  0  0  0  0  0  0
   -2.3779   20.1659  -28.6687 H   0  0  0  0  0  0  0  0  0  0  0  0
   -3.6308   20.5515  -30.5150 H   0  0  0  0  0  0  0  0  0  0  0  0
   -4.5384   21.5549  -29.3151 H   0  0  0  0  0  0  0  0  0  0  0  0
   -5.3502   23.3905  -30.8740 H   0  0  0  0  0  0  0  0  0  0  0  0
   -4.2784   23.7076  -32.2899 H   0  0  0  0  0  0  0  0  0  0  0  0
   -4.7845   21.7204  -33.2707 H   0  0  0  0  0  0  0  0  0  0  0  0
   -4.6927   20.8313  -31.6937 H   0  0  0  0  0  0  0  0  0  0  0  0
   -6.6752   19.5460  -32.7601 H   0  0  0  0  0  0  0  0  0  0  0  0
   -9.1614   19.3902  -32.5886 H   0  0  0  0  0  0  0  0  0  0  0  0
  -10.4983   21.3852  -31.9034 H   0  0  0  0  0  0  0  0  0  0  0  0
   -9.3492   23.5436  -31.3875 H   0  0  0  0  0  0  0  0  0  0  0  0
   -6.8593   23.7024  -31.5306 H   0  0  0  0  0  0  0  0  0  0  0  0
   -1.8974   23.7608  -29.6738 H   0  0  0  0  0  0  0  0  0  0  0  0
   -3.2315   24.7260  -30.4418 H   0  0  0  0  0  0  0  0  0  0  0  0
   -4.0254   24.9037  -28.3232 H   0  0  0  0  0  0  0  0  0  0  0  0
   -4.6299   23.2383  -28.5979 H   0  0  0  0  0  0  0  0  0  0  0  0
   -0.7428   23.1485  -27.6151 H   0  0  0  0  0  0  0  0  0  0  0  0
   -1.4345   24.5943  -28.4489 H   0  0  0  0  0  0  0  0  0  0  0  0
   -2.1564   26.5815  -27.1250 H   0  0  0  0  0  0  0  0  0  0  0  0
   -1.6480   27.9652  -25.1091 H   0  0  0  0  0  0  0  0  0  0  0  0
    1.0103   28.2126  -21.7858 H   0  0  0  0  0  0  0  0  0  0  0  0
    0.3270   24.6100  -23.3840 H   0  0  0  0  0  0  0  0  0  0  0  0
   -0.1365   23.2314  -25.2816 H   0  0  0  0  0  0  0  0  0  0  0  0
   -1.9281   21.6051  -26.7673 H   0  0  0  0  0  0  0  0  0  0  0  0
   -3.7237   21.5137  -27.1345 H   0  0  0  0  0  0  0  0  0  0  0  0
  1  2  1  0
  2  3  1  0
  3  4  1  0
  4  5  1  0
  5  6  1  0
  6  7  1  0
  7  8  2  0
  8  9  1  0
  9 10  2  0
 10 11  1  0
 11 12  2  0
  4 13  1  0
 13 14  1  0
 14 15  1  0
 15 16  1  0
 16 17  1  0
 17 18  2  0
 18 19  1  0
 19 20  2  0
 20 21  1  0
 21 22  1  0
 22 23  1  0
 22 24  1  0
 20 25  1  0
 25 26  2  0
 15 27  1  0
 27  2  1  0
 12  7  1  0
 26 17  1  0
  1 28  1  0
  2 29  1  1
  3 30  1  0
  3 31  1  0
  5 32  1  0
  5 33  1  0
  6 34  1  0
  6 35  1  0
  8 36  1  0
  9 37  1  0
 10 38  1  0
 11 39  1  0
 12 40  1  0
 13 41  1  0
 13 42  1  0
 14 43  1  0
 14 44  1  0
 16 45  1  0
 16 46  1  0
 18 47  1  0
 19 48  1  0
 22 49  1  0
 25 50  1  0
 26 51  1  0
 27 52  1  0
 27 53  1  0
M  CHG  1  25   1
M  END
>  <UniqueID>  (12) 
12

>  <SMILES>  (12) 
O[C@@H]1CN(CCc2ccccc2)CCN(Cc2ccc(OC(F)F)[nH+]c2)C1

>  <Energy>  (12) 
64.15740189548382

>  <Genealogy>  (12) 
OC1CN(CCc2ccccc2)CCN(Cc2ccc(OC(F)F)[nH+]c2)C1 (protonated)
O[C@@H]1CN(CCc2ccccc2)CCN(Cc2ccc(OC(F)F)[nH+]c2)C1 (chirality)
O[C@@H]1CN(CCc2ccccc2)CCN(Cc2ccc(OC(F)F)[nH+]c2)C1 (3D coordinates assigned)
O[C@@H]1CN(CCc2ccccc2)CCN(Cc2ccc(OC(F)F)[nH+]c2)C1 (nonaromatic ring conformer: 64.15740189548382 kcal/mol)

>  <smiles>  (12) 
OC1CN(CCc2ccccc2)CCN(Cc2ccc(OC(F)F)nc2)C1

>  <score_type>  (12) 
oracle

>  <origin>  (12) 
adg

>  <m_score__min__energy>  (12) 
-5.4699999999999998

>  <m_primary>  (12) 
energy

$$$$
12:0
     RDKit          3D

 46 48  0  0  0  0  0  0  0  0999 V2000
   -8.9000   19.0000  -32.3830 C   0  0  0  0  0  0  0  0  0  0  0  0
   -7.4440   18.5420  -32.5420 C   0  0  0  0  0  0  0  0  0  0  0  0
   -6.6590   19.3090  -33.5410 N   0  0  0  0  0  0  0  0  0  0  0  0
   -6.0970   18.4390  -34.6030 C   0  0  0  0  0  0  0  0  0  0  0  0
   -6.1260   16.9550  -34.2210 C   0  0  0  0  0  0  0  0  0  0  0  0
   -5.4550   20.3520  -32.7940 S   0  0  0  0  0  0  0  0  0  0  0  0
   -4.7080   19.5660  -31.7520 O   0  0  0  0  0  0  0  0  0  0  0  0
   -4.4520   20.7800  -33.8310 O   0  0  0  0  0  0  0  0  0  0  0  0
   -6.1160   21.7990  -32.0140 C   0  0  0  0  0  0  0  0  0  0  0  0
   -7.4650   21.8440  -31.6370 C   0  0  0  0  0  0  0  0  0  0  0  0
   -7.9780   22.9680  -30.9870 C   0  0  0  0  0  0  0  0  0  0  0  0
   -7.1460   24.0460  -30.6780 C   0  0  0  0  0  0  0  0  0  0  0  0
   -7.6680   25.1130  -30.0200 F   0  0  0  0  0  0  0  0  0  0  0  0
   -5.7790   24.0000  -31.0080 C   0  0  0  0  0  0  0  0  0  0  0  0
   -4.8770   25.1240  -30.6540 C   0  0  0  0  0  0  0  0  0  0  0  0
   -5.3470   26.2890  -30.5640 O   0  0  0  0  0  0  0  0  0  0  0  0
   -3.4660   24.9380  -30.4670 N   0  0  0  0  0  0  0  0  0  0  0  0
   -2.8380   24.2460  -29.3770 C   0  0  0  0  0  0  0  0  0  0  0  0
   -3.0090   22.8490  -29.2740 C   0  0  0  0  0  0  0  0  0  0  0  0
   -2.4250   22.1330  -28.2180 C   0  0  0  0  0  0  0  0  0  0  0  0
   -1.6640   22.8370  -27.2890 C   0  0  0  0  0  0  0  0  0  0  0  0
   -0.8610   22.2490  -25.9380 S   0  0  0  0  0  0  0  0  0  0  0  0
   -0.2440   23.7490  -25.4590 C   0  0  0  0  0  0  0  0  0  0  0  0
   -0.6660   24.7240  -26.3620 C   0  0  0  0  0  0  0  0  0  0  0  0
   -1.4640   24.2030  -27.3850 C   0  0  0  0  0  0  0  0  0  0  0  0
   -2.0350   24.9260  -28.4340 C   0  0  0  0  0  0  0  0  0  0  0  0
   -5.2760   22.8730  -31.6840 C   0  0  0  0  0  0  0  0  0  0  0  0
   -9.1454   19.0772  -31.3135 H   0  0  0  0  0  0  0  0  0  0  0  0
   -9.0296   19.9823  -32.8608 H   0  0  0  0  0  0  0  0  0  0  0  0
   -9.5686   18.2688  -32.8608 H   0  0  0  0  0  0  0  0  0  0  0  0
   -6.9455   18.6394  -31.5663 H   0  0  0  0  0  0  0  0  0  0  0  0
   -7.4822   17.5048  -32.9063 H   0  0  0  0  0  0  0  0  0  0  0  0
   -7.3500   19.9560  -33.9900 H   0  0  0  0  0  0  0  0  0  0  0  0
   -6.6855   18.5785  -35.5218 H   0  0  0  0  0  0  0  0  0  0  0  0
   -5.0454   18.7264  -34.7494 H   0  0  0  0  0  0  0  0  0  0  0  0
   -6.1279   16.8584  -33.1253 H   0  0  0  0  0  0  0  0  0  0  0  0
   -7.0334   16.4883  -34.6318 H   0  0  0  0  0  0  0  0  0  0  0  0
   -5.2375   16.4532  -34.6318 H   0  0  0  0  0  0  0  0  0  0  0  0
   -8.1228   20.9896  -31.8543 H   0  0  0  0  0  0  0  0  0  0  0  0
   -9.0437   23.0046  -30.7167 H   0  0  0  0  0  0  0  0  0  0  0  0
   -3.6059   22.3162  -30.0289 H   0  0  0  0  0  0  0  0  0  0  0  0
   -2.5646   21.0457  -28.1268 H   0  0  0  0  0  0  0  0  0  0  0  0
    0.3886   23.9269  -24.5768 H   0  0  0  0  0  0  0  0  0  0  0  0
   -0.3999   25.7881  -26.2786 H   0  0  0  0  0  0  0  0  0  0  0  0
   -1.8624   26.0086  -28.5250 H   0  0  0  0  0  0  0  0  0  0  0  0
   -4.2111   22.8337  -31.9570 H   0  0  0  0  0  0  0  0  0  0  0  0
  1  2  1  0
  2  3  1  0
  3  4  1  0
  4  5  1  0
  3  6  1  0
  6  7  2  0
  6  8  2  0
  6  9  1  0
  9 10  2  0
 10 11  1  0
 11 12  2  0
 12 13  1  0
 12 14  1  0
 14 15  1  0
 15 16  2  0
 15 17  1  0
 17 18  1  0
 18 19  2  0
 19 20  1  0
 20 21  2  0
 21 22  1  0
 22 23  1  0
 23 24  2  0
 24 25  1  0
 25 26  2  0
 14 27  2  0
 27  9  1  0
 26 18  1  0
 25 21  1  0
  1 28  1  0
  1 29  1  0
  1 30  1  0
  2 31  1  0
  2 32  1  0
  3 33  1  0
  4 34  1  0
  4 35  1  0
  5 36  1  0
  5 37  1  0
  5 38  1  0
 10 39  1  0
 11 40  1  0
 19 41  1  0
 20 42  1  0
 23 43  1  0
 24 44  1  0
 26 45  1  0
 27 46  1  0
M  CHG  2   3   1  17  -1
M  END
>  <UniqueID>  (13) 
13

>  <SMILES>  (13) 
CC[NH+](CC)S(=O)(=O)c1ccc(F)c(C(=O)[N-]c2ccc3sccc3c2)c1

>  <Energy>  (13) 
87.16072864527978

>  <Genealogy>  (13) 
CC[NH+](CC)S(=O)(=O)c1ccc(F)c(C(=O)[N-]c2ccc3sccc3c2)c1 (protonated)
CC[NH+](CC)S(=O)(=O)c1ccc(F)c(C(=O)[N-]c2ccc3sccc3c2)c1 (3D coordinates assigned)
CC[NH+](CC)S(=O)(=O)c1ccc(F)c(C(=O)[N-]c2ccc3sccc3c2)c1 (optimized conformer: 87.16072864527978 kcal/mol)

>  <smiles>  (13) 
CCN(CC)S(=O)(=O)c1ccc(F)c(C(=O)Nc2ccc3sccc3c2)c1

>  <score_type>  (13) 
oracle

>  <origin>  (13) 
adg

>  <m_score__min__energy>  (13) 
-10.119999999999999

>  <m_primary>  (13) 
energy

$$$$
13:0
     RDKit          3D

 43 43  0  0  0  0  0  0  0  0999 V2000
   -7.2830   23.4140  -32.2710 C   0  0  0  0  0  0  0  0  0  0  0  0
   -6.5670   22.1840  -32.2840 O   0  0  0  0  0  0  0  0  0  0  0  0
   -7.1640   20.9130  -32.2820 C   0  0  0  0  0  0  0  0  0  0  0  0
   -8.5650   20.7520  -32.2900 C   0  0  0  0  0  0  0  0  0  0  0  0
   -9.1310   19.4750  -32.3160 C   0  0  0  0  0  0  0  0  0  0  0  0
   -8.3110   18.3460  -32.3360 C   0  0  0  0  0  0  0  0  0  0  0  0
   -6.9230   18.4900  -32.3220 C   0  0  0  0  0  0  0  0  0  0  0  0
   -6.3390   19.7670  -32.2780 C   0  0  0  0  0  0  0  0  0  0  0  0
   -4.8390   19.8920  -32.3350 C   0  0  0  0  0  0  0  0  0  0  0  0
   -4.4800   20.8920  -33.3430 N   0  0  0  0  0  0  0  0  0  0  0  0
   -3.3990   21.7630  -32.8700 C   0  0  0  0  0  0  0  0  0  0  0  0
   -2.9020   21.2910  -31.4940 C   0  0  0  0  0  0  0  0  0  0  0  0
   -1.9590   22.2920  -30.7950 C   0  0  0  0  0  0  0  0  0  0  0  0
   -2.6450   23.3000  -29.8520 C   0  0  0  0  0  0  0  0  0  0  0  0
   -3.7570   22.6680  -29.0020 C   0  0  0  0  0  0  0  0  0  0  0  0
   -5.1140   22.7910  -29.7020 C   0  0  0  0  0  0  0  0  0  0  0  0
   -5.7470   24.0660  -29.3740 N   0  0  0  0  0  0  0  0  0  0  0  0
   -5.3640   25.3000  -29.9920 C   0  0  0  0  0  0  0  0  0  0  0  0
   -4.4580   25.3330  -30.8670 O   0  0  0  0  0  0  0  0  0  0  0  0
   -7.4627   23.7227  -31.2306 H   0  0  0  0  0  0  0  0  0  0  0  0
   -6.6936   24.1868  -32.7862 H   0  0  0  0  0  0  0  0  0  0  0  0
   -8.2461   23.2831  -32.7862 H   0  0  0  0  0  0  0  0  0  0  0  0
   -9.2167   21.6381  -32.2757 H   0  0  0  0  0  0  0  0  0  0  0  0
  -10.2249   19.3593  -32.3207 H   0  0  0  0  0  0  0  0  0  0  0  0
   -8.7591   17.3418  -32.3628 H   0  0  0  0  0  0  0  0  0  0  0  0
   -6.2813   17.5969  -32.3456 H   0  0  0  0  0  0  0  0  0  0  0  0
   -4.4578   20.2062  -31.3522 H   0  0  0  0  0  0  0  0  0  0  0  0
   -4.3958   18.9211  -32.6015 H   0  0  0  0  0  0  0  0  0  0  0  0
   -5.3210   21.4880  -33.5260 H   0  0  0  0  0  0  0  0  0  0  0  0
   -2.5661   21.7313  -33.5879 H   0  0  0  0  0  0  0  0  0  0  0  0
   -3.7789   22.7915  -32.7815 H   0  0  0  0  0  0  0  0  0  0  0  0
   -3.7764   21.1283  -30.8467 H   0  0  0  0  0  0  0  0  0  0  0  0
   -2.3242   20.3700  -31.6610 H   0  0  0  0  0  0  0  0  0  0  0  0
   -1.2309   21.7165  -30.2046 H   0  0  0  0  0  0  0  0  0  0  0  0
   -1.5036   22.8902  -31.5980 H   0  0  0  0  0  0  0  0  0  0  0  0
   -1.8852   23.7215  -29.1774 H   0  0  0  0  0  0  0  0  0  0  0  0
   -3.1113   24.0729  -30.4807 H   0  0  0  0  0  0  0  0  0  0  0  0
   -3.5285   21.6038  -28.8430 H   0  0  0  0  0  0  0  0  0  0  0  0
   -3.8081   23.1970  -28.0389 H   0  0  0  0  0  0  0  0  0  0  0  0
   -4.9664   22.7299  -30.7903 H   0  0  0  0  0  0  0  0  0  0  0  0
   -5.7652   21.9730  -29.3602 H   0  0  0  0  0  0  0  0  0  0  0  0
   -6.4590   24.0940  -28.6110 H   0  0  0  0  0  0  0  0  0  0  0  0
   -5.8682   26.2325  -29.6984 H   0  0  0  0  0  0  0  0  0  0  0  0
  1  2  1  0
  2  3  1  0
  3  4  2  0
  4  5  1  0
  5  6  2  0
  6  7  1  0
  7  8  2  0
  8  9  1  0
  9 10  1  0
 10 11  1  0
 11 12  1  0
 12 13  1  0
 13 14  1  0
 14 15  1  0
 15 16  1  0
 16 17  1  0
 17 18  1  0
 18 19  2  0
  8  3  1  0
  1 20  1  0
  1 21  1  0
  1 22  1  0
  4 23  1  0
  5 24  1  0
  6 25  1  0
  7 26  1  0
  9 27  1  0
  9 28  1  0
 10 29  1  0
 11 30  1  0
 11 31  1  0
 12 32  1  0
 12 33  1  0
 13 34  1  0
 13 35  1  0
 14 36  1  0
 14 37  1  0
 15 38  1  0
 15 39  1  0
 16 40  1  0
 16 41  1  0
 17 42  1  0
 18 43  1  0
M  END
>  <UniqueID>  (14) 
14

>  <SMILES>  (14) 
COc1ccccc1CNCCCCCCNC=O

>  <Energy>  (14) 
25.752418099583657

>  <Genealogy>  (14) 
COc1ccccc1CNCCCCCCNC=O (3D coordinates assigned)
COc1ccccc1CNCCCCCCNC=O (optimized conformer: 25.752418099583657 kcal/mol)

>  <smiles>  (14) 
COc1ccccc1CNCCCCCCNC=O

>  <score_type>  (14) 
oracle

>  <origin>  (14) 
adg

>  <m_score__min__energy>  (14) 
-7.3399999999999999

>  <m_primary>  (14) 
energy

$$$$
14:0
     RDKit          3D

 67 70  0  0  0  0  0  0  0  0999 V2000
    0.6200   26.9680  -23.5340 C   0  0  0  0  0  0  0  0  0  0  0  0
   -0.8170   27.1110  -24.0380 C   0  0  0  0  0  0  0  0  0  0  0  0
   -1.2840   25.8750  -24.7030 N   0  0  0  0  0  0  0  0  0  0  0  0
   -1.4530   26.0800  -26.1650 C   0  0  0  0  0  0  0  0  0  0  0  0
   -0.2200   25.6220  -26.9580 C   0  0  0  0  0  0  0  0  0  0  0  0
    0.0950   24.1830  -26.7490 N   0  0  0  0  0  0  0  0  0  0  0  0
   -0.3350   23.3510  -27.8920 C   0  0  0  0  0  0  0  0  0  0  0  0
   -0.9800   24.2240  -28.9820 C   0  0  0  0  0  0  0  0  0  0  0  0
   -2.4960   24.3490  -28.7880 C   0  0  0  0  0  0  0  0  0  0  0  0
   -3.1160   24.9260  -29.9760 N   0  0  0  0  0  0  0  0  0  0  0  0
   -4.4540   24.6320  -30.3890 C   0  0  0  0  0  0  0  0  0  0  0  0
   -5.0030   25.3140  -31.2960 O   0  0  0  0  0  0  0  0  0  0  0  0
   -5.2010   23.5410  -29.6890 C   0  0  0  0  0  0  0  0  0  0  0  0
   -5.4230   22.3830  -30.5610 N   0  0  0  0  0  0  0  0  0  0  0  0
   -4.4930   21.5450  -31.0920 C   0  0  0  0  0  0  0  0  0  0  0  0
   -2.7370   21.6260  -30.7210 S   0  0  0  0  0  0  0  0  0  0  0  0
   -2.9610   21.0750  -28.9950 C   0  0  0  0  0  0  0  0  0  0  0  0
   -1.8360   20.1540  -28.5910 C   0  0  0  0  0  0  0  0  0  0  0  0
   -0.6630   20.1390  -29.3670 C   0  0  0  0  0  0  0  0  0  0  0  0
    0.3950   19.2880  -29.0400 C   0  0  0  0  0  0  0  0  0  0  0  0
    0.2970   18.4410  -27.9370 C   0  0  0  0  0  0  0  0  0  0  0  0
   -0.8590   18.4440  -27.1530 C   0  0  0  0  0  0  0  0  0  0  0  0
   -1.9370   19.2900  -27.4700 C   0  0  0  0  0  0  0  0  0  0  0  0
   -3.1560   19.2850  -26.5820 C   0  0  0  0  0  0  0  0  0  0  0  0
   -5.0170   20.6110  -31.9260 N   0  0  0  0  0  0  0  0  0  0  0  0
   -6.3360   20.8780  -31.8870 C   0  0  0  0  0  0  0  0  0  0  0  0
   -7.3560   20.2100  -32.5580 C   0  0  0  0  0  0  0  0  0  0  0  0
   -8.6750   20.6610  -32.3620 C   0  0  0  0  0  0  0  0  0  0  0  0
   -8.9370   21.7570  -31.5080 C   0  0  0  0  0  0  0  0  0  0  0  0
   -7.8820   22.4130  -30.8450 C   0  0  0  0  0  0  0  0  0  0  0  0
   -6.5870   21.9390  -31.0640 C   0  0  0  0  0  0  0  0  0  0  0  0
   -0.4460   23.6500  -25.4790 C   0  0  0  0  0  0  0  0  0  0  0  0
   -0.4150   24.7140  -24.3750 C   0  0  0  0  0  0  0  0  0  0  0  0
    0.6244   26.9676  -22.4340 H   0  0  0  0  0  0  0  0  0  0  0  0
    1.0456   26.0231  -23.9028 H   0  0  0  0  0  0  0  0  0  0  0  0
    1.2235   27.8105  -23.9028 H   0  0  0  0  0  0  0  0  0  0  0  0
   -1.4754   27.3279  -23.1839 H   0  0  0  0  0  0  0  0  0  0  0  0
   -0.8453   27.9296  -24.7722 H   0  0  0  0  0  0  0  0  0  0  0  0
   -2.3272   25.5055  -26.5052 H   0  0  0  0  0  0  0  0  0  0  0  0
   -1.5898   27.1569  -26.3429 H   0  0  0  0  0  0  0  0  0  0  0  0
   -0.4082   25.7891  -28.0288 H   0  0  0  0  0  0  0  0  0  0  0  0
    0.6409   26.2060  -26.6003 H   0  0  0  0  0  0  0  0  0  0  0  0
    0.5401   22.8343  -28.3130 H   0  0  0  0  0  0  0  0  0  0  0  0
   -1.0753   22.6178  -27.5394 H   0  0  0  0  0  0  0  0  0  0  0  0
   -0.5323   25.2281  -28.9453 H   0  0  0  0  0  0  0  0  0  0  0  0
   -0.7980   23.7455  -29.9556 H   0  0  0  0  0  0  0  0  0  0  0  0
   -2.9214   23.3511  -28.6058 H   0  0  0  0  0  0  0  0  0  0  0  0
   -2.6922   25.0068  -27.9285 H   0  0  0  0  0  0  0  0  0  0  0  0
   -4.6209   23.2193  -28.8115 H   0  0  0  0  0  0  0  0  0  0  0  0
   -6.1833   23.9370  -29.3918 H   0  0  0  0  0  0  0  0  0  0  0  0
   -2.9681   21.9524  -28.3316 H   0  0  0  0  0  0  0  0  0  0  0  0
   -3.9149   20.5335  -28.9124 H   0  0  0  0  0  0  0  0  0  0  0  0
   -0.5782   20.8036  -30.2394 H   0  0  0  0  0  0  0  0  0  0  0  0
    1.3076   19.2860  -29.6541 H   0  0  0  0  0  0  0  0  0  0  0  0
    1.1308   17.7697  -27.6839 H   0  0  0  0  0  0  0  0  0  0  0  0
   -0.9269   17.7786  -26.2797 H   0  0  0  0  0  0  0  0  0  0  0  0
   -2.8417   19.2863  -25.5279 H   0  0  0  0  0  0  0  0  0  0  0  0
   -3.7614   20.1807  -26.7852 H   0  0  0  0  0  0  0  0  0  0  0  0
   -3.7540   18.3844  -26.7852 H   0  0  0  0  0  0  0  0  0  0  0  0
   -7.1388   19.3582  -33.2193 H   0  0  0  0  0  0  0  0  0  0  0  0
   -9.5069   20.1577  -32.8764 H   0  0  0  0  0  0  0  0  0  0  0  0
   -9.9719   22.0995  -31.3605 H   0  0  0  0  0  0  0  0  0  0  0  0
   -8.0712   23.2677  -30.1789 H   0  0  0  0  0  0  0  0  0  0  0  0
   -1.4857   23.3282  -25.6385 H   0  0  0  0  0  0  0  0  0  0  0  0
    0.1778   22.8009  -25.1630 H   0  0  0  0  0  0  0  0  0  0  0  0
   -0.7643   24.2621  -23.4349 H   0  0  0  0  0  0  0  0  0  0  0  0
    0.6189   25.0770  -24.2787 H   0  0  0  0  0  0  0  0  0  0  0  0
  1  2  1  0
  2  3  1  0
  3  4  1  0
  4  5  1  0
  5  6  1  0
  6  7  1  0
  7  8  1  0
  8  9  1  0
  9 10  1  0
 10 11  1  0
 11 12  2  0
 11 13  1  0
 13 14  1  0
 14 15  1  0
 15 16  1  0
 16 17  1  0
 17 18  1  0
 18 19  2  0
 19 20  1  0
 20 21  2  0
 21 22  1  0
 22 23  2  0
 23 24  1  0
 15 25  2  0
 25 26  1  0
 26 27  2  0
 27 28  1  0
 28 29  2  0
 29 30  1  0
 30 31  2  0
  6 32  1  0
 32 33  1  0
 33  3  1  0
 31 14  1  0
 23 18  1  0
 31 26  1  0
  1 34  1  0
  1 35  1  0
  1 36  1  0
  2 37  1  0
  2 38  1  0
  4 39  1  0
  4 40  1  0
  5 41  1  0
  5 42  1  0
  7 43  1  0
  7 44  1  0
  8 45  1  0
  8 46  1  0
  9 47  1  0
  9 48  1  0
 13 49  1  0
 13 50  1  0
 17 51  1  0
 17 52  1  0
 19 53  1  0
 20 54  1  0
 21 55  1  0
 22 56  1  0
 24 57  1  0
 24 58  1  0
 24 59  1  0
 27 60  1  0
 28 61  1  0
 29 62  1  0
 30 63  1  0
 32 64  1  0
 32 65  1  0
 33 66  1  0
 33 67  1  0
M  CHG  1  10  -1
M  END
>  <UniqueID>  (15) 
15

>  <SMILES>  (15) 
CCN1CCN(CCC[N-]C(=O)Cn2c(SCc3ccccc3C)nc3ccccc32)CC1

>  <Energy>  (15) 
106.57146196005668

>  <Genealogy>  (15) 
CCN1CCN(CCC[N-]C(=O)Cn2c(SCc3ccccc3C)nc3ccccc32)CC1 (protonated)
CCN1CCN(CCC[N-]C(=O)Cn2c(SCc3ccccc3C)nc3ccccc32)CC1 (3D coordinates assigned)
CCN1CCN(CCC[N-]C(=O)Cn2c(SCc3ccccc3C)nc3ccccc32)CC1 (nonaromatic ring conformer: 106.57146196005668 kcal/mol)

>  <smiles>  (15) 
CCN1CCN(CCCNC(=O)Cn2c(SCc3ccccc3C)nc3ccccc32)CC1

>  <score_type>  (15) 
oracle

>  <origin>  (15) 
adg

>  <m_score__min__energy>  (15) 
-12.24

>  <m_primary>  (15) 
energy

$$$$
15:0
     RDKit          3D

 49 53  0  0  0  0  0  0  0  0999 V2000
    1.1060   24.1730  -36.1360 C   0  0  0  0  0  0  0  0  0  0  0  0
    1.1980   22.7050  -35.7100 C   0  0  0  0  0  0  0  0  0  0  0  0
   -0.1080   22.0230  -35.7360 N   0  0  0  0  0  0  0  0  0  0  0  0
   -0.0190   20.6220  -35.2860 C   0  0  0  0  0  0  0  0  0  0  0  0
   -0.8370   20.3920  -34.0070 C   0  0  0  0  0  0  0  0  0  0  0  0
   -1.8500   19.3520  -34.2010 N   0  0  0  0  0  0  0  0  0  0  0  0
   -3.2210   19.4990  -33.7830 C   0  0  0  0  0  0  0  0  0  0  0  0
   -3.6340   20.6950  -33.1750 C   0  0  0  0  0  0  0  0  0  0  0  0
   -4.9530   20.8170  -32.7650 C   0  0  0  0  0  0  0  0  0  0  0  0
   -5.8580   19.8180  -32.9560 N   0  0  0  0  0  0  0  0  0  0  0  0
   -5.4870   18.5940  -33.4460 C   0  0  0  0  0  0  0  0  0  0  0  0
   -6.3510   17.4830  -33.4410 C   0  0  0  0  0  0  0  0  0  0  0  0
   -5.9540   16.2730  -34.0100 C   0  0  0  0  0  0  0  0  0  0  0  0
   -4.6870   16.1430  -34.5720 C   0  0  0  0  0  0  0  0  0  0  0  0
   -3.7850   17.2050  -34.5200 C   0  0  0  0  0  0  0  0  0  0  0  0
   -4.1510   18.4280  -33.9220 C   0  0  0  0  0  0  0  0  0  0  0  0
   -7.1200   20.3660  -32.5130 C   0  0  0  0  0  0  0  0  0  0  0  0
   -8.4460   19.9430  -32.7170 C   0  0  0  0  0  0  0  0  0  0  0  0
   -9.4950   20.7830  -32.2730 C   0  0  0  0  0  0  0  0  0  0  0  0
   -9.2240   22.0540  -31.7100 C   0  0  0  0  0  0  0  0  0  0  0  0
   -7.8940   22.5000  -31.6170 C   0  0  0  0  0  0  0  0  0  0  0  0
   -7.4990   23.7910  -31.2170 C   0  0  0  0  0  0  0  0  0  0  0  0
   -6.1300   24.1620  -31.2950 C   0  0  0  0  0  0  0  0  0  0  0  0
   -5.1610   23.2530  -31.7840 C   0  0  0  0  0  0  0  0  0  0  0  0
   -5.5930   21.9740  -32.1410 C   0  0  0  0  0  0  0  0  0  0  0  0
   -6.9010   21.6240  -32.0230 C   0  0  0  0  0  0  0  0  0  0  0  0
    1.0659   24.8124  -35.2419 H   0  0  0  0  0  0  0  0  0  0  0  0
    1.9894   24.4367  -36.7361 H   0  0  0  0  0  0  0  0  0  0  0  0
    0.1966   24.3244  -36.7361 H   0  0  0  0  0  0  0  0  0  0  0  0
    1.8819   22.1820  -36.3946 H   0  0  0  0  0  0  0  0  0  0  0  0
    1.5645   22.6820  -34.6731 H   0  0  0  0  0  0  0  0  0  0  0  0
   -0.7450   22.5520  -35.0960 H   0  0  0  0  0  0  0  0  0  0  0  0
   -0.5100   22.0620  -36.7020 H   0  0  0  0  0  0  0  0  0  0  0  0
   -0.4043   19.9657  -36.0802 H   0  0  0  0  0  0  0  0  0  0  0  0
    1.0350   20.3941  -35.0688 H   0  0  0  0  0  0  0  0  0  0  0  0
   -0.1580   20.0839  -33.1983 H   0  0  0  0  0  0  0  0  0  0  0  0
   -1.3492   21.3309  -33.7498 H   0  0  0  0  0  0  0  0  0  0  0  0
   -1.5520   18.4740  -34.6820 H   0  0  0  0  0  0  0  0  0  0  0  0
   -2.9233   21.5214  -33.0263 H   0  0  0  0  0  0  0  0  0  0  0  0
   -7.3480   17.5697  -32.9844 H   0  0  0  0  0  0  0  0  0  0  0  0
   -6.6453   15.4174  -34.0147 H   0  0  0  0  0  0  0  0  0  0  0  0
   -4.3967   15.2000  -35.0583 H   0  0  0  0  0  0  0  0  0  0  0  0
   -2.7791   17.0875  -34.9493 H   0  0  0  0  0  0  0  0  0  0  0  0
   -8.6622   18.9834  -33.2093 H   0  0  0  0  0  0  0  0  0  0  0  0
  -10.5371   20.4434  -32.3667 H   0  0  0  0  0  0  0  0  0  0  0  0
  -10.0476   22.6872  -31.3484 H   0  0  0  0  0  0  0  0  0  0  0  0
   -8.2462   24.5081  -30.8463 H   0  0  0  0  0  0  0  0  0  0  0  0
   -5.8194   25.1666  -30.9719 H   0  0  0  0  0  0  0  0  0  0  0  0
   -4.1045   23.5441  -31.8794 H   0  0  0  0  0  0  0  0  0  0  0  0
  1  2  1  0
  2  3  1  0
  3  4  1  0
  4  5  1  0
  5  6  1  0
  6  7  1  0
  7  8  2  0
  8  9  1  0
  9 10  2  0
 10 11  1  0
 11 12  2  0
 12 13  1  0
 13 14  2  0
 14 15  1  0
 15 16  2  0
 10 17  1  0
 17 18  2  0
 18 19  1  0
 19 20  2  0
 20 21  1  0
 21 22  1  0
 22 23  2  0
 23 24  1  0
 24 25  2  0
 25 26  1  0
 16  7  1  0
 26 17  1  0
 25  9  1  0
 16 11  1  0
 26 21  2  0
  1 27  1  0
  1 28  1  0
  1 29  1  0
  2 30  1  0
  2 31  1  0
  3 32  1  0
  3 33  1  0
  4 34  1  0
  4 35  1  0
  5 36  1  0
  5 37  1  0
  6 38  1  0
  8 39  1  0
 12 40  1  0
 13 41  1  0
 14 42  1  0
 15 43  1  0
 18 44  1  0
 19 45  1  0
 20 46  1  0
 22 47  1  0
 23 48  1  0
 24 49  1  0
M  CHG  2   3   1  10   1
M  END
>  <UniqueID>  (16) 
16

>  <SMILES>  (16) 
CC[NH2+]CCNc1cc2[n+](c3ccccc13)-c1cccc3cccc-2c13

>  <Energy>  (16) 
113.59938300484339

>  <Genealogy>  (16) 
CC[NH2+]CCNc1cc2[n+](c3ccccc13)-c1cccc3cccc-2c13 (protonated)
CC[NH2+]CCNc1cc2[n+](c3ccccc13)-c1cccc3cccc-2c13 (3D coordinates assigned)
CC[NH2+]CCNc1cc2[n+](c3ccccc13)-c1cccc3cccc-2c13 (optimized conformer: 113.59938300484339 kcal/mol)

>  <smiles>  (16) 
CCNCCNc1cc2[n+](c3ccccc13)-c1cccc3cccc-2c13

>  <score_type>  (16) 
oracle

>  <origin>  (16) 
adg

>  <m_score__min__energy>  (16) 
-8.4199999999999999

>  <m_primary>  (16) 
energy

$$$$
16:0
     RDKit          3D

 76 79  0  0  0  0  0  0  0  0999 V2000
   -3.1340   18.9850  -26.6100 C   0  0  0  0  0  0  0  0  0  0  0  0
   -1.7570   19.0940  -27.2550 C   0  0  0  0  0  0  0  0  0  0  0  0
   -1.7640   20.1770  -28.2630 N   0  0  0  0  0  0  0  0  0  0  0  0
   -1.8870   21.5330  -27.6830 C   0  0  0  0  0  0  0  0  0  0  0  0
   -1.0840   21.7420  -26.3890 C   0  0  0  0  0  0  0  0  0  0  0  0
   -0.7020   20.0640  -29.2930 C   0  0  0  0  0  0  0  0  0  0  0  0
   -0.8400   21.1860  -30.3350 C   0  0  0  0  0  0  0  0  0  0  0  0
   -2.0510   21.0430  -31.2750 C   0  0  0  0  0  0  0  0  0  0  0  0
   -3.2140   20.3650  -30.6580 N   0  0  0  0  0  0  0  0  0  0  0  0
   -4.4810   21.0160  -30.9860 C   0  0  0  0  0  0  0  0  0  0  0  0
   -5.5240   20.3100  -31.6500 C   0  0  0  0  0  0  0  0  0  0  0  0
   -5.3910   18.9530  -32.0520 C   0  0  0  0  0  0  0  0  0  0  0  0
   -6.3960   18.3060  -32.7640 C   0  0  0  0  0  0  0  0  0  0  0  0
   -7.5590   18.9820  -33.0930 C   0  0  0  0  0  0  0  0  0  0  0  0
   -7.7360   20.3010  -32.6850 C   0  0  0  0  0  0  0  0  0  0  0  0
   -6.7510   20.9790  -31.9250 C   0  0  0  0  0  0  0  0  0  0  0  0
   -6.9610   22.2670  -31.4830 N   0  0  0  0  0  0  0  0  0  0  0  0
   -8.3310   22.8300  -31.4750 C   0  0  0  0  0  0  0  0  0  0  0  0
   -5.9070   23.0210  -31.0200 C   0  0  0  0  0  0  0  0  0  0  0  0
   -6.0210   24.4260  -30.8710 C   0  0  0  0  0  0  0  0  0  0  0  0
   -4.9820   25.1850  -30.3390 C   0  0  0  0  0  0  0  0  0  0  0  0
   -3.7940   24.5660  -29.9350 C   0  0  0  0  0  0  0  0  0  0  0  0
   -2.7390   25.2750  -29.3420 O   0  0  0  0  0  0  0  0  0  0  0  0
   -1.8620   24.7460  -28.3460 C   0  0  0  0  0  0  0  0  0  0  0  0
   -2.3390   25.1600  -26.9400 C   0  0  0  0  0  0  0  0  0  0  0  0
   -1.3080   25.8620  -26.1180 N   0  0  0  0  0  0  0  0  0  0  0  0
   -0.6680   26.9630  -26.8890 C   0  0  0  0  0  0  0  0  0  0  0  0
   -1.9390   26.4210  -24.8980 C   0  0  0  0  0  0  0  0  0  0  0  0
   -0.8900   26.4180  -23.7890 C   0  0  0  0  0  0  0  0  0  0  0  0
    0.2020   25.4760  -24.2580 C   0  0  0  0  0  0  0  0  0  0  0  0
   -0.2830   24.9270  -25.5940 C   0  0  0  0  0  0  0  0  0  0  0  0
   -3.6450   23.1910  -30.1190 C   0  0  0  0  0  0  0  0  0  0  0  0
   -4.6690   22.3990  -30.7010 C   0  0  0  0  0  0  0  0  0  0  0  0
   -3.0278   18.9934  -25.5152 H   0  0  0  0  0  0  0  0  0  0  0  0
   -3.7548   19.8368  -26.9247 H   0  0  0  0  0  0  0  0  0  0  0  0
   -3.6130   18.0461  -26.9247 H   0  0  0  0  0  0  0  0  0  0  0  0
   -1.0076   19.3187  -26.4818 H   0  0  0  0  0  0  0  0  0  0  0  0
   -1.5073   18.1413  -27.7449 H   0  0  0  0  0  0  0  0  0  0  0  0
   -1.5339   22.2602  -28.4290 H   0  0  0  0  0  0  0  0  0  0  0  0
   -2.9468   21.6693  -27.4219 H   0  0  0  0  0  0  0  0  0  0  0  0
   -1.7373   21.5720  -25.5205 H   0  0  0  0  0  0  0  0  0  0  0  0
   -0.2438   21.0326  -26.3602 H   0  0  0  0  0  0  0  0  0  0  0  0
   -0.6962   22.7710  -26.3602 H   0  0  0  0  0  0  0  0  0  0  0  0
    0.2823   20.1398  -28.8078 H   0  0  0  0  0  0  0  0  0  0  0  0
   -0.8011   19.0932  -29.8007 H   0  0  0  0  0  0  0  0  0  0  0  0
   -0.9327   22.1422  -29.7992 H   0  0  0  0  0  0  0  0  0  0  0  0
    0.0560   21.1325  -30.9709 H   0  0  0  0  0  0  0  0  0  0  0  0
   -2.3644   22.0489  -31.5912 H   0  0  0  0  0  0  0  0  0  0  0  0
   -1.7273   20.4161  -32.1189 H   0  0  0  0  0  0  0  0  0  0  0  0
   -3.2110   19.3480  -30.8670 H   0  0  0  0  0  0  0  0  0  0  0  0
   -3.0920   20.3600  -29.6200 H   0  0  0  0  0  0  0  0  0  0  0  0
   -4.4739   18.4028  -31.7946 H   0  0  0  0  0  0  0  0  0  0  0  0
   -6.2667   17.2562  -33.0660 H   0  0  0  0  0  0  0  0  0  0  0  0
   -8.3427   18.4768  -33.6766 H   0  0  0  0  0  0  0  0  0  0  0  0
   -8.6614   20.8289  -32.9588 H   0  0  0  0  0  0  0  0  0  0  0  0
   -8.6650   22.9672  -30.4359 H   0  0  0  0  0  0  0  0  0  0  0  0
   -8.3313   23.8012  -31.9916 H   0  0  0  0  0  0  0  0  0  0  0  0
   -9.0141   22.1397  -31.9916 H   0  0  0  0  0  0  0  0  0  0  0  0
   -6.9495   24.9271  -31.1821 H   0  0  0  0  0  0  0  0  0  0  0  0
   -5.0954   26.2743  -30.2360 H   0  0  0  0  0  0  0  0  0  0  0  0
   -1.8518   23.6484  -28.4173 H   0  0  0  0  0  0  0  0  0  0  0  0
   -0.8499   25.1435  -28.5123 H   0  0  0  0  0  0  0  0  0  0  0  0
   -3.2029   25.8313  -27.0541 H   0  0  0  0  0  0  0  0  0  0  0  0
   -2.5845   24.2299  -26.4064 H   0  0  0  0  0  0  0  0  0  0  0  0
   -0.2404   27.6985  -26.1917 H   0  0  0  0  0  0  0  0  0  0  0  0
    0.1312   26.5506  -27.5225 H   0  0  0  0  0  0  0  0  0  0  0  0
   -1.4218   27.4534  -27.5225 H   0  0  0  0  0  0  0  0  0  0  0  0
   -2.2784   27.4496  -25.0897 H   0  0  0  0  0  0  0  0  0  0  0  0
   -2.8109   25.8179  -24.6047 H   0  0  0  0  0  0  0  0  0  0  0  0
   -0.4856   27.4302  -23.6411 H   0  0  0  0  0  0  0  0  0  0  0  0
   -1.3172   26.0969  -22.8276 H   0  0  0  0  0  0  0  0  0  0  0  0
    1.1498   26.0192  -24.3865 H   0  0  0  0  0  0  0  0  0  0  0  0
    0.3900   24.6731  -23.5300 H   0  0  0  0  0  0  0  0  0  0  0  0
    0.5584   24.8593  -26.2993 H   0  0  0  0  0  0  0  0  0  0  0  0
   -0.7077   23.9204  -25.4665 H   0  0  0  0  0  0  0  0  0  0  0  0
   -2.7083   22.7076  -29.8044 H   0  0  0  0  0  0  0  0  0  0  0  0
  1  2  1  0
  2  3  1  0
  3  4  1  0
  4  5  1  0
  3  6  1  0
  6  7  1  0
  7  8  1  0
  8  9  1  0
  9 10  1  0
 10 11  2  0
 11 12  1  0
 12 13  2  0
 13 14  1  0
 14 15  2  0
 15 16  1  0
 16 17  2  0
 17 18  1  0
 17 19  1  0
 19 20  2  0
 20 21  1  0
 21 22  2  0
 22 23  1  0
 23 24  1  0
 24 25  1  0
 25 26  1  0
 26 27  1  0
 26 28  1  0
 28 29  1  0
 29 30  1  0
 30 31  1  0
 22 32  1  0
 32 33  2  0
 33 10  1  0
 16 11  1  0
 33 19  1  0
 31 26  1  0
  1 34  1  0
  1 35  1  0
  1 36  1  0
  2 37  1  0
  2 38  1  0
  4 39  1  0
  4 40  1  0
  5 41  1  0
  5 42  1  0
  5 43  1  0
  6 44  1  0
  6 45  1  0
  7 46  1  0
  7 47  1  0
  8 48  1  0
  8 49  1  0
  9 50  1  0
  9 51  1  0
 12 52  1  0
 13 53  1  0
 14 54  1  0
 15 55  1  0
 18 56  1  0
 18 57  1  0
 18 58  1  0
 20 59  1  0
 21 60  1  0
 24 61  1  0
 24 62  1  0
 25 63  1  0
 25 64  1  0
 27 65  1  0
 27 66  1  0
 27 67  1  0
 28 68  1  0
 28 69  1  0
 29 70  1  0
 29 71  1  0
 30 72  1  0
 30 73  1  0
 31 74  1  0
 31 75  1  0
 32 76  1  0
M  CHG  3   9   1  17   1  26   1
M  END
>  <UniqueID>  (17) 
17

>  <SMILES>  (17) 
CCN(CC)CCC[NH2+]c1c2ccccc2[n+](C)c2ccc(OCC[N+]3(C)CCCC3)cc12

>  <Energy>  (17) 
121.67207912796091

>  <Genealogy>  (17) 
CCN(CC)CCC[NH2+]c1c2ccccc2[n+](C)c2ccc(OCC[N+]3(C)CCCC3)cc12 (protonated)
CCN(CC)CCC[NH2+]c1c2ccccc2[n+](C)c2ccc(OCC[N+]3(C)CCCC3)cc12 (3D coordinates assigned)
CCN(CC)CCC[NH2+]c1c2ccccc2[n+](C)c2ccc(OCC[N+]3(C)CCCC3)cc12 (nonaromatic ring conformer: 121.67207912796091 kcal/mol)

>  <smiles>  (17) 
CCN(CC)CCCNc1c2ccccc2[n+](C)c2ccc(OCC[N+]3(C)CCCC3)cc12

>  <score_type>  (17) 
oracle

>  <origin>  (17) 
adg

>  <m_score__min__energy>  (17) 
-7.7999999999999998

>  <m_primary>  (17) 
energy

$$$$
17:0
     RDKit          3D

 93 96  0  0  0  0  0  0  0  0999 V2000
   -1.9830   18.9140  -26.8610 C   0  0  0  0  0  0  0  0  0  0  0  0
   -3.0690   19.9050  -27.2640 C   0  0  0  0  0  0  0  0  0  0  0  0
   -2.4540   21.2180  -27.5750 N   0  0  0  0  0  0  0  0  0  0  0  0
   -1.2320   21.4690  -26.7680 C   0  0  0  0  0  0  0  0  0  0  0  0
    0.0690   21.5120  -27.5850 C   0  0  0  0  0  0  0  0  0  0  0  0
   -3.4450   22.3180  -27.5650 C   0  0  0  0  0  0  0  0  0  0  0  0
   -3.9550   22.6470  -28.9810 C   0  0  0  0  0  0  0  0  0  0  0  0
   -3.2910   23.7720  -29.5270 O   0  0  0  0  0  0  0  0  0  0  0  0
   -1.9100   23.5150  -29.7130 C   0  0  0  0  0  0  0  0  0  0  0  0
   -1.7370   22.1360  -30.3450 C   0  0  0  0  0  0  0  0  0  0  0  0
   -1.2790   22.2590  -31.6780 O   0  0  0  0  0  0  0  0  0  0  0  0
   -1.9360   21.3330  -32.5190 C   0  0  0  0  0  0  0  0  0  0  0  0
   -3.4040   21.2100  -32.1080 C   0  0  0  0  0  0  0  0  0  0  0  0
   -4.3060   21.3870  -33.2640 N   0  0  0  0  0  0  0  0  0  0  0  0
   -5.5510   20.6540  -33.0880 C   0  0  0  0  0  0  0  0  0  0  0  0
   -6.7180   21.3480  -32.6590 C   0  0  0  0  0  0  0  0  0  0  0  0
   -6.7680   22.7650  -32.5960 C   0  0  0  0  0  0  0  0  0  0  0  0
   -7.9410   23.4310  -32.2470 C   0  0  0  0  0  0  0  0  0  0  0  0
   -9.0890   22.7100  -31.9570 C   0  0  0  0  0  0  0  0  0  0  0  0
   -9.0590   21.3190  -31.9670 C   0  0  0  0  0  0  0  0  0  0  0  0
   -7.8650   20.6120  -32.2660 C   0  0  0  0  0  0  0  0  0  0  0  0
   -7.8020   19.2400  -32.1610 N   0  0  0  0  0  0  0  0  0  0  0  0
   -8.8300   18.5170  -31.3740 C   0  0  0  0  0  0  0  0  0  0  0  0
   -6.7690   18.5440  -32.7550 C   0  0  0  0  0  0  0  0  0  0  0  0
   -6.8270   17.1340  -32.8690 C   0  0  0  0  0  0  0  0  0  0  0  0
   -5.7680   16.4080  -33.3850 C   0  0  0  0  0  0  0  0  0  0  0  0
   -4.6540   17.0590  -33.8800 C   0  0  0  0  0  0  0  0  0  0  0  0
   -4.5910   18.4620  -33.9060 C   0  0  0  0  0  0  0  0  0  0  0  0
   -3.5470   19.0930  -34.6050 O   0  0  0  0  0  0  0  0  0  0  0  0
   -2.1460   18.8450  -34.4600 C   0  0  0  0  0  0  0  0  0  0  0  0
   -1.7640   17.9990  -33.2120 C   0  0  0  0  0  0  0  0  0  0  0  0
   -0.4110   18.2260  -32.5940 N   0  0  0  0  0  0  0  0  0  0  0  0
    0.3990   19.0940  -33.4950 C   0  0  0  0  0  0  0  0  0  0  0  0
    0.2850   16.8900  -32.5240 C   0  0  0  0  0  0  0  0  0  0  0  0
   -0.0650   16.0120  -31.2970 C   0  0  0  0  0  0  0  0  0  0  0  0
    0.8370   16.2080  -30.0520 C   0  0  0  0  0  0  0  0  0  0  0  0
    0.7560   17.5890  -29.3800 C   0  0  0  0  0  0  0  0  0  0  0  0
    0.7470   18.7780  -30.3600 C   0  0  0  0  0  0  0  0  0  0  0  0
   -0.5020   18.9040  -31.2620 C   0  0  0  0  0  0  0  0  0  0  0  0
   -5.6220   19.2320  -33.2670 C   0  0  0  0  0  0  0  0  0  0  0  0
   -1.9243   18.8604  -25.7639 H   0  0  0  0  0  0  0  0  0  0  0  0
   -2.2259   17.9198  -27.2642 H   0  0  0  0  0  0  0  0  0  0  0  0
   -1.0151   19.2467  -27.2642 H   0  0  0  0  0  0  0  0  0  0  0  0
   -3.5968   19.5283  -28.1526 H   0  0  0  0  0  0  0  0  0  0  0  0
   -3.7819   20.0229  -26.4346 H   0  0  0  0  0  0  0  0  0  0  0  0
   -1.3496   22.4358  -26.2568 H   0  0  0  0  0  0  0  0  0  0  0  0
   -1.1372   20.6243  -26.0698 H   0  0  0  0  0  0  0  0  0  0  0  0
    0.9304   21.5405  -26.9015 H   0  0  0  0  0  0  0  0  0  0  0  0
    0.1336   20.6155  -28.2191 H   0  0  0  0  0  0  0  0  0  0  0  0
    0.0742   22.4108  -28.2191 H   0  0  0  0  0  0  0  0  0  0  0  0
   -4.2997   22.0205  -26.9397 H   0  0  0  0  0  0  0  0  0  0  0  0
   -2.9524   23.2160  -27.1637 H   0  0  0  0  0  0  0  0  0  0  0  0
   -3.7811   21.7787  -29.6335 H   0  0  0  0  0  0  0  0  0  0  0  0
   -5.0279   22.8803  -28.9141 H   0  0  0  0  0  0  0  0  0  0  0  0
   -1.4793   24.2801  -30.3756 H   0  0  0  0  0  0  0  0  0  0  0  0
   -1.3945   23.5438  -28.7417 H   0  0  0  0  0  0  0  0  0  0  0  0
   -1.0042   21.5592  -29.7616 H   0  0  0  0  0  0  0  0  0  0  0  0
   -2.7084   21.6199  -30.3474 H   0  0  0  0  0  0  0  0  0  0  0  0
   -1.8765   21.6801  -33.5611 H   0  0  0  0  0  0  0  0  0  0  0  0
   -1.4498   20.3506  -32.4270 H   0  0  0  0  0  0  0  0  0  0  0  0
   -3.5713   20.2135  -31.6733 H   0  0  0  0  0  0  0  0  0  0  0  0
   -3.6244   21.9992  -31.3741 H   0  0  0  0  0  0  0  0  0  0  0  0
   -4.4900   22.3940  -33.4600 H   0  0  0  0  0  0  0  0  0  0  0  0
   -3.8290   21.0710  -34.1390 H   0  0  0  0  0  0  0  0  0  0  0  0
   -5.8643   23.3480  -32.8269 H   0  0  0  0  0  0  0  0  0  0  0  0
   -7.9562   24.5300  -32.2015 H   0  0  0  0  0  0  0  0  0  0  0  0
  -10.0242   23.2379  -31.7188 H   0  0  0  0  0  0  0  0  0  0  0  0
   -9.9769   20.7572  -31.7392 H   0  0  0  0  0  0  0  0  0  0  0  0
   -8.6340   18.6549  -30.3004 H   0  0  0  0  0  0  0  0  0  0  0  0
   -9.8260   18.9145  -31.6189 H   0  0  0  0  0  0  0  0  0  0  0  0
   -8.7926   17.4453  -31.6189 H   0  0  0  0  0  0  0  0  0  0  0  0
   -7.7333   16.6043  -32.5404 H   0  0  0  0  0  0  0  0  0  0  0  0
   -5.8130   15.3090  -33.4012 H   0  0  0  0  0  0  0  0  0  0  0  0
   -3.8053   16.4706  -34.2587 H   0  0  0  0  0  0  0  0  0  0  0  0
   -1.7975   18.3109  -35.3563 H   0  0  0  0  0  0  0  0  0  0  0  0
   -1.6675   19.8268  -34.3295 H   0  0  0  0  0  0  0  0  0  0  0  0
   -2.5167   18.2020  -32.4359 H   0  0  0  0  0  0  0  0  0  0  0  0
   -1.7279   16.9636  -33.5816 H   0  0  0  0  0  0  0  0  0  0  0  0
    1.0260   19.7659  -32.8905 H   0  0  0  0  0  0  0  0  0  0  0  0
    1.0410   18.4656  -34.1297 H   0  0  0  0  0  0  0  0  0  0  0  0
   -0.2722   19.6911  -34.1297 H   0  0  0  0  0  0  0  0  0  0  0  0
    0.0219   16.3244  -33.4300 H   0  0  0  0  0  0  0  0  0  0  0  0
    1.3578   17.1160  -32.4339 H   0  0  0  0  0  0  0  0  0  0  0  0
   -1.1005   16.2388  -31.0033 H   0  0  0  0  0  0  0  0  0  0  0  0
    0.0894   14.9715  -31.6187 H   0  0  0  0  0  0  0  0  0  0  0  0
    0.5518   15.4519  -29.3057 H   0  0  0  0  0  0  0  0  0  0  0  0
    1.8715   16.1107  -30.4131 H   0  0  0  0  0  0  0  0  0  0  0  0
   -0.1683   17.6276  -28.7848 H   0  0  0  0  0  0  0  0  0  0  0  0
    1.6656   17.6936  -28.7703 H   0  0  0  0  0  0  0  0  0  0  0  0
    0.8296   19.7019  -29.7688 H   0  0  0  0  0  0  0  0  0  0  0  0
    1.5904   18.6042  -31.0444 H   0  0  0  0  0  0  0  0  0  0  0  0
   -1.3557   18.4711  -30.7199 H   0  0  0  0  0  0  0  0  0  0  0  0
   -0.6092   19.9772  -31.4781 H   0  0  0  0  0  0  0  0  0  0  0  0
  1  2  1  0
  2  3  1  0
  3  4  1  0
  4  5  1  0
  3  6  1  0
  6  7  1  0
  7  8  1  0
  8  9  1  0
  9 10  1  0
 10 11  1  0
 11 12  1  0
 12 13  1  0
 13 14  1  0
 14 15  1  0
 15 16  2  0
 16 17  1  0
 17 18  2  0
 18 19  1  0
 19 20  2  0
 20 21  1  0
 21 22  2  0
 22 23  1  0
 22 24  1  0
 24 25  2  0
 25 26  1  0
 26 27  2  0
 27 28  1  0
 28 29  1  0
 29 30  1  0
 30 31  1  0
 31 32  1  0
 32 33  1  0
 32 34  1  0
 34 35  1  0
 35 36  1  0
 36 37  1  0
 37 38  1  0
 38 39  1  0
 28 40  2  0
 40 15  1  0
 21 16  1  0
 40 24  1  0
 39 32  1  0
  1 41  1  0
  1 42  1  0
  1 43  1  0
  2 44  1  0
  2 45  1  0
  4 46  1  0
  4 47  1  0
  5 48  1  0
  5 49  1  0
  5 50  1  0
  6 51  1  0
  6 52  1  0
  7 53  1  0
  7 54  1  0
  9 55  1  0
  9 56  1  0
 10 57  1  0
 10 58  1  0
 12 59  1  0
 12 60  1  0
 13 61  1  0
 13 62  1  0
 14 63  1  0
 14 64  1  0
 17 65  1  0
 18 66  1  0
 19 67  1  0
 20 68  1  0
 23 69  1  0
 23 70  1  0
 23 71  1  0
 25 72  1  0
 26 73  1  0
 27 74  1  0
 30 75  1  0
 30 76  1  0
 31 77  1  0
 31 78  1  0
 33 79  1  0
 33 80  1  0
 33 81  1  0
 34 82  1  0
 34 83  1  0
 35 84  1  0
 35 85  1  0
 36 86  1  0
 36 87  1  0
 37 88  1  0
 37 89  1  0
 38 90  1  0
 38 91  1  0
 39 92  1  0
 39 93  1  0
M  CHG  3  14   1  22   1  32   1
M  END
>  <UniqueID>  (18) 
18

>  <SMILES>  (18) 
CCN(CC)CCOCCOCC[NH2+]c1c2ccccc2[n+](C)c2cccc(OCC[N+]3(C)CCCCCC3)c12

>  <Energy>  (18) 
157.5286964540612

>  <Genealogy>  (18) 
CCN(CC)CCOCCOCC[NH2+]c1c2ccccc2[n+](C)c2cccc(OCC[N+]3(C)CCCCCC3)c12 (protonated)
CCN(CC)CCOCCOCC[NH2+]c1c2ccccc2[n+](C)c2cccc(OCC[N+]3(C)CCCCCC3)c12 (3D coordinates assigned)
CCN(CC)CCOCCOCC[NH2+]c1c2ccccc2[n+](C)c2cccc(OCC[N+]3(C)CCCCCC3)c12 (nonaromatic ring conformer: 157.5286964540612 kcal/mol)

>  <smiles>  (18) 
CCN(CC)CCOCCOCCNc1c2ccccc2[n+](C)c2cccc(OCC[N+]3(C)CCCCCC3)c12

>  <score_type>  (18) 
oracle

>  <origin>  (18) 
adg

>  <m_score__min__energy>  (18) 
-6.9299999999999997

>  <m_primary>  (18) 
energy

$$$$
18:0
     RDKit          3D

 56 59  0  0  0  0  0  0  0  0999 V2000
   -9.1120   19.4870  -32.3490 C   0  0  0  0  0  0  0  0  0  0  0  0
   -9.1470   20.9960  -32.1150 C   0  0  0  0  0  0  0  0  0  0  0  0
   -7.7510   21.6100  -32.1970 C   0  0  0  0  0  0  0  0  0  0  0  0
   -6.8350   20.8390  -31.4210 O   0  0  0  0  0  0  0  0  0  0  0  0
   -5.4620   20.8420  -31.6830 C   0  0  0  0  0  0  0  0  0  0  0  0
   -4.9780   20.2900  -32.8210 C   0  0  0  0  0  0  0  0  0  0  0  0
   -5.9170   19.5780  -33.6880 N   0  0  0  0  0  0  0  0  0  0  0  0
   -5.3180   18.5380  -34.5500 C   0  0  0  0  0  0  0  0  0  0  0  0
   -6.2110   18.1500  -33.4420 C   0  0  0  0  0  0  0  0  0  0  0  0
   -3.5050   20.4040  -33.0710 C   0  0  0  0  0  0  0  0  0  0  0  0
   -2.9990   20.2210  -34.2090 O   0  0  0  0  0  0  0  0  0  0  0  0
   -2.6080   20.7940  -31.9810 C   0  0  0  0  0  0  0  0  0  0  0  0
   -3.0850   21.2730  -30.8280 C   0  0  0  0  0  0  0  0  0  0  0  0
   -2.1710   21.6800  -29.7910 N   0  0  0  0  0  0  0  0  0  0  0  0
   -2.2150   21.0620  -28.4620 C   0  0  0  0  0  0  0  0  0  0  0  0
   -2.1830   22.1420  -27.3630 C   0  0  0  0  0  0  0  0  0  0  0  0
   -1.4470   23.3740  -27.7470 N   0  0  0  0  0  0  0  0  0  0  0  0
   -2.3650   24.4760  -28.0890 C   0  0  0  0  0  0  0  0  0  0  0  0
   -0.4420   23.1460  -28.8060 C   0  0  0  0  0  0  0  0  0  0  0  0
   -1.0830   22.6130  -30.0980 C   0  0  0  0  0  0  0  0  0  0  0  0
   -4.5750   21.4740  -30.6260 C   0  0  1  0  0  0  0  0  0  0  0  0
   -4.8840   22.9510  -30.5180 C   0  0  0  0  0  0  0  0  0  0  0  0
   -6.1580   23.3860  -30.1210 C   0  0  0  0  0  0  0  0  0  0  0  0
   -6.4420   24.7510  -30.0530 C   0  0  0  0  0  0  0  0  0  0  0  0
   -5.4500   25.6740  -30.3850 C   0  0  0  0  0  0  0  0  0  0  0  0
   -4.2210   25.2430  -30.7730 N   0  0  0  0  0  0  0  0  0  0  0  0
   -3.9190   23.9190  -30.8500 C   0  0  0  0  0  0  0  0  0  0  0  0
   -9.0999   18.9659  -31.3803 H   0  0  0  0  0  0  0  0  0  0  0  0
  -10.0033   19.1833  -32.9176 H   0  0  0  0  0  0  0  0  0  0  0  0
   -8.2075   19.2250  -32.9176 H   0  0  0  0  0  0  0  0  0  0  0  0
   -9.7870   21.4610  -32.8793 H   0  0  0  0  0  0  0  0  0  0  0  0
   -9.5445   21.1786  -31.1057 H   0  0  0  0  0  0  0  0  0  0  0  0
   -7.4194   21.6233  -33.2458 H   0  0  0  0  0  0  0  0  0  0  0  0
   -7.7834   22.6370  -31.8042 H   0  0  0  0  0  0  0  0  0  0  0  0
   -6.7260   20.0800  -34.1240 H   0  0  0  0  0  0  0  0  0  0  0  0
   -5.6539   18.4267  -35.5915 H   0  0  0  0  0  0  0  0  0  0  0  0
   -4.2937   18.2737  -34.8517 H   0  0  0  0  0  0  0  0  0  0  0  0
   -7.2127   17.7498  -33.6574 H   0  0  0  0  0  0  0  0  0  0  0  0
   -6.1282   17.4771  -32.5758 H   0  0  0  0  0  0  0  0  0  0  0  0
   -1.5209   20.6907  -32.1138 H   0  0  0  0  0  0  0  0  0  0  0  0
   -3.1405   20.4753  -28.3661 H   0  0  0  0  0  0  0  0  0  0  0  0
   -1.3379   20.4087  -28.3443 H   0  0  0  0  0  0  0  0  0  0  0  0
   -3.2194   22.4197  -27.1208 H   0  0  0  0  0  0  0  0  0  0  0  0
   -1.6492   21.7070  -26.5052 H   0  0  0  0  0  0  0  0  0  0  0  0
   -2.7472   24.9349  -27.1652 H   0  0  0  0  0  0  0  0  0  0  0  0
   -1.8262   25.2325  -28.6785 H   0  0  0  0  0  0  0  0  0  0  0  0
   -3.2064   24.0828  -28.6785 H   0  0  0  0  0  0  0  0  0  0  0  0
    0.0648   24.0971  -29.0263 H   0  0  0  0  0  0  0  0  0  0  0  0
    0.2717   22.3919  -28.4427 H   0  0  0  0  0  0  0  0  0  0  0  0
   -1.4846   23.4578  -30.6768 H   0  0  0  0  0  0  0  0  0  0  0  0
   -0.3156   22.0815  -30.6799 H   0  0  0  0  0  0  0  0  0  0  0  0
   -4.8137   20.9467  -29.6906 H   0  0  0  0  0  0  0  0  0  0  0  0
   -6.9339   22.6501  -29.8630 H   0  0  0  0  0  0  0  0  0  0  0  0
   -7.4388   25.0957  -29.7405 H   0  0  0  0  0  0  0  0  0  0  0  0
   -5.6629   26.7519  -30.3327 H   0  0  0  0  0  0  0  0  0  0  0  0
   -2.9159   23.6040  -31.1733 H   0  0  0  0  0  0  0  0  0  0  0  0
  1  2  1  0
  2  3  1  0
  3  4  1  0
  4  5  1  0
  5  6  2  0
  6  7  1  0
  7  8  1  0
  8  9  1  0
  6 10  1  0
 10 11  2  0
 10 12  1  0
 12 13  2  0
 13 14  1  0
 14 15  1  0
 15 16  1  0
 16 17  1  0
 17 18  1  0
 17 19  1  0
 19 20  1  0
 13 21  1  0
 21 22  1  0
 22 23  2  0
 23 24  1  0
 24 25  2  0
 25 26  1  0
 26 27  2  0
 21  5  1  0
 27 22  1  0
  9  7  1  0
 20 14  1  0
  1 28  1  0
  1 29  1  0
  1 30  1  0
  2 31  1  0
  2 32  1  0
  3 33  1  0
  3 34  1  0
  7 35  1  0
  8 36  1  0
  8 37  1  0
  9 38  1  0
  9 39  1  0
 12 40  1  0
 15 41  1  0
 15 42  1  0
 16 43  1  0
 16 44  1  0
 18 45  1  0
 18 46  1  0
 18 47  1  0
 19 48  1  0
 19 49  1  0
 20 50  1  0
 20 51  1  0
 21 52  1  1
 23 53  1  0
 24 54  1  0
 25 55  1  0
 27 56  1  0
M  CHG  1   7   1
M  END
>  <UniqueID>  (19) 
19

>  <SMILES>  (19) 
CCCOC1=C([NH+]2CC2)C(=O)C=C(N2CCN(C)CC2)[C@H]1c1cccnc1

>  <Energy>  (19) 
426.6003172565288

>  <Genealogy>  (19) 
CCCOC1=C([NH+]2CC2)C(=O)C=C(N2CCN(C)CC2)C1c1cccnc1 (protonated)
CCCOC1=C([NH+]2CC2)C(=O)C=C(N2CCN(C)CC2)[C@H]1c1cccnc1 (chirality)
CCCOC1=C([NH+]2CC2)C(=O)C=C(N2CCN(C)CC2)[C@H]1c1cccnc1 (3D coordinates assigned)
CCCOC1=C([NH+]2CC2)C(=O)C=C(N2CCN(C)CC2)[C@H]1c1cccnc1 (nonaromatic ring conformer: 426.6003172565288 kcal/mol)

>  <smiles>  (19) 
CCCOC1=C(N2CC2)C(=O)C=C(N2CCN(C)CC2)C1c1cccnc1

>  <score_type>  (19) 
oracle

>  <origin>  (19) 
adg

>  <m_score__min__energy>  (19) 
-7.6699999999999999

>  <m_primary>  (19) 
energy

$$$$
19:0
     RDKit          3D

 49 52  0  0  0  0  0  0  0  0999 V2000
   -1.5560   25.5140  -27.6550 C   0  0  0  0  0  0  0  0  0  0  0  0
   -2.1200   25.5950  -28.9590 O   0  0  0  0  0  0  0  0  0  0  0  0
   -2.8180   24.5520  -29.5870 C   0  0  0  0  0  0  0  0  0  0  0  0
   -2.2100   23.2950  -29.6580 C   0  0  0  0  0  0  0  0  0  0  0  0
   -2.8620   22.2250  -30.2790 C   0  0  0  0  0  0  0  0  0  0  0  0
   -4.1310   22.4020  -30.8520 C   0  0  0  0  0  0  0  0  0  0  0  0
   -4.7970   21.2640  -31.5210 C   0  0  0  0  0  0  0  0  0  0  0  0
   -6.0860   20.9220  -31.2790 N   0  0  0  0  0  0  0  0  0  0  0  0
   -6.3660   19.8860  -32.0510 N   0  0  0  0  0  0  0  0  0  0  0  0
   -7.5380   19.2020  -32.1140 C   0  0  0  0  0  0  0  0  0  0  0  0
   -8.7060   19.5830  -31.2540 C   0  0  0  0  0  0  0  0  0  0  0  0
   -7.5950   18.0820  -32.9610 C   0  0  0  0  0  0  0  0  0  0  0  0
   -6.4530   17.7350  -33.7190 C   0  0  0  0  0  0  0  0  0  0  0  0
   -6.4800   16.5170  -34.5930 C   0  0  0  0  0  0  0  0  0  0  0  0
   -5.3040   18.4670  -33.5990 N   0  0  0  0  0  0  0  0  0  0  0  0
   -5.2930   19.5460  -32.7760 C   0  0  0  0  0  0  0  0  0  0  0  0
   -4.2470   20.3950  -32.4760 C   0  0  0  0  0  0  0  0  0  0  0  0
   -2.8580   20.3190  -32.9770 C   0  0  0  0  0  0  0  0  0  0  0  0
   -2.1860   21.5010  -33.3230 C   0  0  0  0  0  0  0  0  0  0  0  0
   -0.8650   21.4580  -33.7730 C   0  0  0  0  0  0  0  0  0  0  0  0
   -0.2030   20.2350  -33.8820 C   0  0  0  0  0  0  0  0  0  0  0  0
   -0.8620   19.0490  -33.5470 C   0  0  0  0  0  0  0  0  0  0  0  0
   -2.1970   19.0760  -33.0980 C   0  0  0  0  0  0  0  0  0  0  0  0
   -2.8930   17.9010  -32.7760 O   0  0  0  0  0  0  0  0  0  0  0  0
   -2.4910   16.5900  -33.1610 C   0  0  0  0  0  0  0  0  0  0  0  0
   -4.7520   23.6590  -30.7610 C   0  0  0  0  0  0  0  0  0  0  0  0
   -4.0990   24.7280  -30.1400 C   0  0  0  0  0  0  0  0  0  0  0  0
   -2.3514   25.6282  -26.9038 H   0  0  0  0  0  0  0  0  0  0  0  0
   -1.0680   24.5366  -27.5266 H   0  0  0  0  0  0  0  0  0  0  0  0
   -0.8127   26.3146  -27.5266 H   0  0  0  0  0  0  0  0  0  0  0  0
   -1.2111   23.1465  -29.2220 H   0  0  0  0  0  0  0  0  0  0  0  0
   -2.3772   21.2384  -30.3187 H   0  0  0  0  0  0  0  0  0  0  0  0
   -8.4262   19.4917  -30.1941 H   0  0  0  0  0  0  0  0  0  0  0  0
   -8.9958   20.6222  -31.4685 H   0  0  0  0  0  0  0  0  0  0  0  0
   -9.5528   18.9145  -31.4685 H   0  0  0  0  0  0  0  0  0  0  0  0
   -8.5152   17.4837  -33.0332 H   0  0  0  0  0  0  0  0  0  0  0  0
   -6.5000   15.6148  -33.9641 H   0  0  0  0  0  0  0  0  0  0  0  0
   -7.3778   16.5412  -35.2281 H   0  0  0  0  0  0  0  0  0  0  0  0
   -5.5820   16.5014  -35.2281 H   0  0  0  0  0  0  0  0  0  0  0  0
   -4.4430   18.1920  -34.1250 H   0  0  0  0  0  0  0  0  0  0  0  0
   -2.7034   22.4681  -33.2392 H   0  0  0  0  0  0  0  0  0  0  0  0
   -0.3457   22.3897  -34.0419 H   0  0  0  0  0  0  0  0  0  0  0  0
    0.8393   20.2040  -34.2322 H   0  0  0  0  0  0  0  0  0  0  0  0
   -0.3346   18.0877  -33.6345 H   0  0  0  0  0  0  0  0  0  0  0  0
   -2.3053   15.9845  -32.2616 H   0  0  0  0  0  0  0  0  0  0  0  0
   -3.2873   16.1232  -33.7594 H   0  0  0  0  0  0  0  0  0  0  0  0
   -1.5699   16.6498  -33.7594 H   0  0  0  0  0  0  0  0  0  0  0  0
   -5.7584   23.8030  -31.1810 H   0  0  0  0  0  0  0  0  0  0  0  0
   -4.5894   25.7110  -30.0837 H   0  0  0  0  0  0  0  0  0  0  0  0
  1  2  1  0
  2  3  1  0
  3  4  2  0
  4  5  1  0
  5  6  2  0
  6  7  1  0
  7  8  2  0
  8  9  1  0
  9 10  1  0
 10 11  1  0
 10 12  2  0
 12 13  1  0
 13 14  1  0
 13 15  2  0
 15 16  1  0
 16 17  2  0
 17 18  1  0
 18 19  2  0
 19 20  1  0
 20 21  2  0
 21 22  1  0
 22 23  2  0
 23 24  1  0
 24 25  1  0
  6 26  1  0
 26 27  2  0
 27  3  1  0
 17  7  1  0
 23 18  1  0
 16  9  1  0
  1 28  1  0
  1 29  1  0
  1 30  1  0
  4 31  1  0
  5 32  1  0
 11 33  1  0
 11 34  1  0
 11 35  1  0
 12 36  1  0
 14 37  1  0
 14 38  1  0
 14 39  1  0
 15 40  1  0
 19 41  1  0
 20 42  1  0
 21 43  1  0
 22 44  1  0
 25 45  1  0
 25 46  1  0
 25 47  1  0
 26 48  1  0
 27 49  1  0
M  CHG  1  15   1
M  END
>  <UniqueID>  (20) 
20

>  <SMILES>  (20) 
COc1ccc(-c2nn3c(C)cc(C)[nH+]c3c2-c2ccccc2OC)cc1

>  <Energy>  (20) 
95.02817200273262

>  <Genealogy>  (20) 
COc1ccc(-c2nn3c(C)cc(C)[nH+]c3c2-c2ccccc2OC)cc1 (protonated)
COc1ccc(-c2nn3c(C)cc(C)[nH+]c3c2-c2ccccc2OC)cc1 (3D coordinates assigned)
COc1ccc(-c2nn3c(C)cc(C)[nH+]c3c2-c2ccccc2OC)cc1 (optimized conformer: 95.02817200273262 kcal/mol)

>  <smiles>  (20) 
COc1ccc(-c2nn3c(C)cc(C)nc3c2-c2ccccc2OC)cc1

>  <score_type>  (20) 
oracle

>  <origin>  (20) 
adg

>  <m_score__min__energy>  (20) 
-7.5999999999999996

>  <m_primary>  (20) 
energy

$$$$
20:0
     RDKit          3D

 59 61  0  0  0  0  0  0  0  0999 V2000
   -2.7830   20.7220  -27.6360 C   0  0  0  0  0  0  0  0  0  0  0  0
   -1.6810   19.6710  -27.8590 C   0  0  0  0  0  0  0  0  0  0  0  0
   -0.9000   19.8020  -29.1260 N   0  0  0  0  0  0  0  0  0  0  0  0
    0.2550   18.8740  -29.2670 C   0  0  0  0  0  0  0  0  0  0  0  0
    0.9510   18.6040  -27.9270 C   0  0  0  0  0  0  0  0  0  0  0  0
   -0.5630   21.2090  -29.4780 C   0  0  0  0  0  0  0  0  0  0  0  0
   -0.6970   21.5840  -30.9680 C   0  0  0  0  0  0  0  0  0  0  0  0
   -1.0860   20.4820  -31.7640 O   0  0  0  0  0  0  0  0  0  0  0  0
   -1.4320   20.9000  -33.0680 C   0  0  0  0  0  0  0  0  0  0  0  0
   -2.8700   21.4110  -33.0680 C   0  0  0  0  0  0  0  0  0  0  0  0
   -3.5870   20.9330  -31.8870 N   0  0  0  0  0  0  0  0  0  0  0  0
   -4.9700   21.2690  -31.6780 C   0  0  0  0  0  0  0  0  0  0  0  0
   -5.9860   20.3660  -32.0430 C   0  0  0  0  0  0  0  0  0  0  0  0
   -5.6740   19.0900  -32.5600 C   0  0  0  0  0  0  0  0  0  0  0  0
   -6.6840   18.1870  -32.8830 C   0  0  0  0  0  0  0  0  0  0  0  0
   -8.0150   18.5300  -32.6870 C   0  0  0  0  0  0  0  0  0  0  0  0
   -8.3490   19.7920  -32.1950 C   0  0  0  0  0  0  0  0  0  0  0  0
   -7.3470   20.7510  -31.8970 C   0  0  0  0  0  0  0  0  0  0  0  0
   -7.6650   22.0250  -31.4650 N   0  0  0  0  0  0  0  0  0  0  0  0
   -9.0520   22.5250  -31.5950 C   0  0  0  0  0  0  0  0  0  0  0  0
   -6.6840   22.8390  -30.9320 C   0  0  0  0  0  0  0  0  0  0  0  0
   -7.0030   24.0310  -30.2300 C   0  0  0  0  0  0  0  0  0  0  0  0
   -6.0020   24.8650  -29.7200 C   0  0  0  0  0  0  0  0  0  0  0  0
   -6.3480   26.0650  -29.0250 N   0  0  0  0  0  0  0  0  0  0  0  0
   -4.6610   24.5140  -29.8810 C   0  0  0  0  0  0  0  0  0  0  0  0
   -4.3190   23.3320  -30.5310 C   0  0  0  0  0  0  0  0  0  0  0  0
   -5.3150   22.4830  -31.0580 C   0  0  0  0  0  0  0  0  0  0  0  0
   -2.9368   20.8687  -26.5567 H   0  0  0  0  0  0  0  0  0  0  0  0
   -2.4800   21.6742  -28.0959 H   0  0  0  0  0  0  0  0  0  0  0  0
   -3.7198   20.3743  -28.0959 H   0  0  0  0  0  0  0  0  0  0  0  0
   -0.9743   19.7404  -27.0189 H   0  0  0  0  0  0  0  0  0  0  0  0
   -2.2017   18.7046  -27.9293 H   0  0  0  0  0  0  0  0  0  0  0  0
   -1.5710   19.5260  -29.8840 H   0  0  0  0  0  0  0  0  0  0  0  0
   -0.1062   17.9192  -29.6768 H   0  0  0  0  0  0  0  0  0  0  0  0
    0.9874   19.3473  -29.9376 H   0  0  0  0  0  0  0  0  0  0  0  0
    0.2727   18.8671  -27.1020 H   0  0  0  0  0  0  0  0  0  0  0  0
    1.2149   17.5383  -27.8591 H   0  0  0  0  0  0  0  0  0  0  0  0
    1.8645   19.2130  -27.8591 H   0  0  0  0  0  0  0  0  0  0  0  0
   -1.2301   21.8686  -28.9037 H   0  0  0  0  0  0  0  0  0  0  0  0
    0.5038   21.3275  -29.2372 H   0  0  0  0  0  0  0  0  0  0  0  0
   -1.4531   22.3768  -31.0670 H   0  0  0  0  0  0  0  0  0  0  0  0
    0.2882   21.9236  -31.3203 H   0  0  0  0  0  0  0  0  0  0  0  0
   -0.7553   21.7064  -33.3872 H   0  0  0  0  0  0  0  0  0  0  0  0
   -1.3418   20.0523  -33.7632 H   0  0  0  0  0  0  0  0  0  0  0  0
   -2.8626   22.5110  -33.0656 H   0  0  0  0  0  0  0  0  0  0  0  0
   -3.3794   21.0354  -33.9677 H   0  0  0  0  0  0  0  0  0  0  0  0
   -3.1740   20.1370  -31.3510 H   0  0  0  0  0  0  0  0  0  0  0  0
   -4.6219   18.8058  -32.7094 H   0  0  0  0  0  0  0  0  0  0  0  0
   -6.4266   17.1998  -33.2943 H   0  0  0  0  0  0  0  0  0  0  0  0
   -8.8084   17.8047  -32.9203 H   0  0  0  0  0  0  0  0  0  0  0  0
   -9.4069   20.0477  -32.0355 H   0  0  0  0  0  0  0  0  0  0  0  0
   -9.4813   22.6798  -30.5941 H   0  0  0  0  0  0  0  0  0  0  0  0
   -9.0482   23.4783  -32.1437 H   0  0  0  0  0  0  0  0  0  0  0  0
   -9.6573   21.7885  -32.1437 H   0  0  0  0  0  0  0  0  0  0  0  0
   -8.0584   24.3044  -30.0841 H   0  0  0  0  0  0  0  0  0  0  0  0
   -5.7560   26.4230  -28.2430 H   0  0  0  0  0  0  0  0  0  0  0  0
   -7.2110   26.5990  -29.2760 H   0  0  0  0  0  0  0  0  0  0  0  0
   -3.8714   25.1741  -29.4927 H   0  0  0  0  0  0  0  0  0  0  0  0
   -3.2592   23.0563  -30.6352 H   0  0  0  0  0  0  0  0  0  0  0  0
  1  2  1  0
  2  3  1  0
  3  4  1  0
  4  5  1  0
  3  6  1  0
  6  7  1  0
  7  8  1  0
  8  9  1  0
  9 10  1  0
 10 11  1  0
 11 12  1  0
 12 13  2  0
 13 14  1  0
 14 15  2  0
 15 16  1  0
 16 17  2  0
 17 18  1  0
 18 19  2  0
 19 20  1  0
 19 21  1  0
 21 22  2  0
 22 23  1  0
 23 24  1  0
 23 25  2  0
 25 26  1  0
 26 27  2  0
 27 12  1  0
 18 13  1  0
 27 21  1  0
  1 28  1  0
  1 29  1  0
  1 30  1  0
  2 31  1  0
  2 32  1  0
  3 33  1  0
  4 34  1  0
  4 35  1  0
  5 36  1  0
  5 37  1  0
  5 38  1  0
  6 39  1  0
  6 40  1  0
  7 41  1  0
  7 42  1  0
  9 43  1  0
  9 44  1  0
 10 45  1  0
 10 46  1  0
 11 47  1  0
 14 48  1  0
 15 49  1  0
 16 50  1  0
 17 51  1  0
 20 52  1  0
 20 53  1  0
 20 54  1  0
 22 55  1  0
 24 56  1  0
 24 57  1  0
 25 58  1  0
 26 59  1  0
M  CHG  2   3   1  19   1
M  END
>  <UniqueID>  (21) 
21

>  <SMILES>  (21) 
CC[NH+](CC)CCOCCNc1c2ccccc2[n+](C)c2cc(N)ccc12

>  <Energy>  (21) 
91.96010682832538

>  <Genealogy>  (21) 
CC[NH+](CC)CCOCCNc1c2ccccc2[n+](C)c2cc(N)ccc12 (protonated)
CC[NH+](CC)CCOCCNc1c2ccccc2[n+](C)c2cc(N)ccc12 (3D coordinates assigned)
CC[NH+](CC)CCOCCNc1c2ccccc2[n+](C)c2cc(N)ccc12 (optimized conformer: 91.96010682832538 kcal/mol)

>  <smiles>  (21) 
CCN(CC)CCOCCNc1c2ccccc2[n+](C)c2cc(N)ccc12

>  <score_type>  (21) 
oracle

>  <origin>  (21) 
adg

>  <m_score__min__energy>  (21) 
-6.8099999999999996

>  <m_primary>  (21) 
energy

$$$$
21:0
     RDKit          3D

 44 46  0  0  0  0  0  0  0  0999 V2000
   -5.9690   25.2780  -29.9860 C   0  0  0  0  0  0  0  0  0  0  0  0
   -4.6010   24.6080  -30.0460 C   0  0  0  0  0  0  0  0  0  0  0  0
   -4.4940   23.7860  -31.2580 N   0  0  0  0  0  0  0  0  0  0  0  0
   -3.5070   22.7200  -31.0630 C   0  0  0  0  0  0  0  0  0  0  0  0
   -3.5030   21.7810  -32.2780 C   0  0  0  0  0  0  0  0  0  0  0  0
   -4.6660   21.9990  -33.1610 N   0  0  0  0  0  0  0  0  0  0  0  0
   -5.7680   21.1060  -32.8440 C   0  0  0  0  0  0  0  0  0  0  0  0
   -7.0340   21.6080  -32.4870 C   0  0  0  0  0  0  0  0  0  0  0  0
   -8.0860   20.7680  -32.2040 C   0  0  0  0  0  0  0  0  0  0  0  0
   -7.9600   19.4030  -32.2450 N   0  0  0  0  0  0  0  0  0  0  0  0
   -9.1180   18.5440  -31.9300 C   0  0  0  0  0  0  0  0  0  0  0  0
   -6.7390   18.8480  -32.5850 C   0  0  0  0  0  0  0  0  0  0  0  0
   -6.5620   17.4420  -32.6390 C   0  0  0  0  0  0  0  0  0  0  0  0
   -5.3350   16.8820  -32.9830 C   0  0  0  0  0  0  0  0  0  0  0  0
   -4.2550   17.6980  -33.2850 C   0  0  0  0  0  0  0  0  0  0  0  0
   -4.3890   19.0850  -33.2430 C   0  0  0  0  0  0  0  0  0  0  0  0
   -5.6190   19.6890  -32.8930 C   0  0  0  0  0  0  0  0  0  0  0  0
   -9.3370   21.5320  -31.8570 C   0  0  0  0  0  0  0  0  0  0  0  0
   -8.9450   23.0130  -31.9590 C   0  0  0  0  0  0  0  0  0  0  0  0
   -7.5110   22.9810  -32.3470 C   0  0  0  0  0  0  0  0  0  0  0  0
   -6.8290   24.0230  -32.5210 O   0  0  0  0  0  0  0  0  0  0  0  0
   -6.2614   25.4212  -28.9353 H   0  0  0  0  0  0  0  0  0  0  0  0
   -5.9213   26.2547  -30.4897 H   0  0  0  0  0  0  0  0  0  0  0  0
   -6.7114   24.6415  -30.4897 H   0  0  0  0  0  0  0  0  0  0  0  0
   -3.8180   25.3804  -30.0601 H   0  0  0  0  0  0  0  0  0  0  0  0
   -4.4764   23.9645  -29.1626 H   0  0  0  0  0  0  0  0  0  0  0  0
   -5.4260   23.3340  -31.4190 H   0  0  0  0  0  0  0  0  0  0  0  0
   -2.5083   23.1654  -30.9432 H   0  0  0  0  0  0  0  0  0  0  0  0
   -3.7689   22.1451  -30.1625 H   0  0  0  0  0  0  0  0  0  0  0  0
   -2.5832   21.9547  -32.8558 H   0  0  0  0  0  0  0  0  0  0  0  0
   -3.5547   20.7479  -31.9039 H   0  0  0  0  0  0  0  0  0  0  0  0
   -4.3740   21.9210  -34.1590 H   0  0  0  0  0  0  0  0  0  0  0  0
   -4.9830   22.9910  -33.0790 H   0  0  0  0  0  0  0  0  0  0  0  0
   -9.2279   18.4625  -30.8385 H   0  0  0  0  0  0  0  0  0  0  0  0
  -10.0297   18.9860  -32.3583 H   0  0  0  0  0  0  0  0  0  0  0  0
   -8.9595   17.5433  -32.3583 H   0  0  0  0  0  0  0  0  0  0  0  0
   -7.4100   16.7818  -32.4047 H   0  0  0  0  0  0  0  0  0  0  0  0
   -5.2215   15.7883  -33.0154 H   0  0  0  0  0  0  0  0  0  0  0  0
   -3.2888   17.2490  -33.5588 H   0  0  0  0  0  0  0  0  0  0  0  0
   -3.5242   19.7198  -33.4860 H   0  0  0  0  0  0  0  0  0  0  0  0
  -10.1427   21.2963  -32.5679 H   0  0  0  0  0  0  0  0  0  0  0  0
   -9.7122   21.2739  -30.8557 H   0  0  0  0  0  0  0  0  0  0  0  0
   -9.5459   23.5243  -32.7255 H   0  0  0  0  0  0  0  0  0  0  0  0
   -9.1170   23.5614  -31.0211 H   0  0  0  0  0  0  0  0  0  0  0  0
  1  2  1  0
  2  3  1  0
  3  4  1  0
  4  5  1  0
  5  6  1  0
  6  7  1  0
  7  8  2  0
  8  9  1  0
  9 10  2  0
 10 11  1  0
 10 12  1  0
 12 13  2  0
 13 14  1  0
 14 15  2  0
 15 16  1  0
 16 17  2  0
  9 18  1  0
 18 19  1  0
 19 20  1  0
 20 21  2  0
 17  7  1  0
 20  8  1  0
 17 12  1  0
  1 22  1  0
  1 23  1  0
  1 24  1  0
  2 25  1  0
  2 26  1  0
  3 27  1  0
  4 28  1  0
  4 29  1  0
  5 30  1  0
  5 31  1  0
  6 32  1  0
  6 33  1  0
 11 34  1  0
 11 35  1  0
 11 36  1  0
 13 37  1  0
 14 38  1  0
 15 39  1  0
 16 40  1  0
 18 41  1  0
 18 42  1  0
 19 43  1  0
 19 44  1  0
M  CHG  2   6   1  10   1
M  END
>  <UniqueID>  (22) 
22

>  <SMILES>  (22) 
CCNCC[NH2+]c1c2c([n+](C)c3ccccc13)CCC2=O

>  <Energy>  (22) 
68.1518172721858

>  <Genealogy>  (22) 
CCNCC[NH2+]c1c2c([n+](C)c3ccccc13)CCC2=O (protonated)
CCNCC[NH2+]c1c2c([n+](C)c3ccccc13)CCC2=O (3D coordinates assigned)
CCNCC[NH2+]c1c2c([n+](C)c3ccccc13)CCC2=O (nonaromatic ring conformer: 68.1518172721858 kcal/mol)

>  <smiles>  (22) 
CCNCCNc1c2c([n+](C)c3ccccc13)CCC2=O

>  <score_type>  (22) 
oracle

>  <origin>  (22) 
adg

>  <m_score__min__energy>  (22) 
-7.9199999999999999

>  <m_primary>  (22) 
energy

$$$$
22:0
     RDKit          3D

 46 46  0  0  0  0  0  0  0  0999 V2000
   -4.2790   22.9770  -28.6080 C   0  0  0  0  0  0  0  0  0  0  0  0
   -4.3190   24.3760  -29.2210 C   0  0  0  0  0  0  0  0  0  0  0  0
   -5.7520   24.8950  -29.4250 C   0  0  0  0  0  0  0  0  0  0  0  0
   -6.1740   24.8960  -30.9040 C   0  0  0  0  0  0  0  0  0  0  0  0
   -6.7120   23.5310  -31.3540 C   0  0  0  0  0  0  0  0  0  0  0  0
   -5.6510   22.7150  -32.0260 C   0  0  0  0  0  0  0  0  0  0  0  0
   -4.4410   23.0500  -31.9110 O   0  0  0  0  0  0  0  0  0  0  0  0
   -6.0230   21.6000  -32.7880 O   0  0  0  0  0  0  0  0  0  0  0  0
   -6.9360   20.6140  -32.3830 C   0  0  0  0  0  0  0  0  0  0  0  0
   -8.3240   20.8550  -32.3560 C   0  0  0  0  0  0  0  0  0  0  0  0
   -9.2050   19.8470  -31.9630 C   0  0  0  0  0  0  0  0  0  0  0  0
   -8.7170   18.5910  -31.6030 C   0  0  0  0  0  0  0  0  0  0  0  0
   -7.3450   18.3350  -31.6440 C   0  0  0  0  0  0  0  0  0  0  0  0
   -6.4430   19.3450  -32.0380 C   0  0  0  0  0  0  0  0  0  0  0  0
   -5.0550   19.1340  -32.1030 O   0  0  0  0  0  0  0  0  0  0  0  0
   -4.3380   18.6550  -33.2410 C   0  0  0  0  0  0  0  0  0  0  0  0
   -3.4460   19.7630  -33.8250 C   0  0  0  0  0  0  0  0  0  0  0  0
   -3.5180   21.0120  -33.0450 N   0  0  0  0  0  0  0  0  0  0  0  0
   -2.1840   21.5330  -32.7010 C   0  0  0  0  0  0  0  0  0  0  0  0
   -1.1650   21.1740  -33.7800 C   0  0  0  0  0  0  0  0  0  0  0  0
   -4.2813   23.0572  -27.5109 H   0  0  0  0  0  0  0  0  0  0  0  0
   -5.1612   22.4076  -28.9359 H   0  0  0  0  0  0  0  0  0  0  0  0
   -3.3657   22.4590  -28.9359 H   0  0  0  0  0  0  0  0  0  0  0  0
   -3.7861   25.0682  -28.5526 H   0  0  0  0  0  0  0  0  0  0  0  0
   -3.8430   24.3181  -30.2110 H   0  0  0  0  0  0  0  0  0  0  0  0
   -6.4436   24.2516  -28.8614 H   0  0  0  0  0  0  0  0  0  0  0  0
   -5.7845   25.9349  -29.0678 H   0  0  0  0  0  0  0  0  0  0  0  0
   -6.9604   25.6516  -31.0475 H   0  0  0  0  0  0  0  0  0  0  0  0
   -5.2842   25.1245  -31.5090 H   0  0  0  0  0  0  0  0  0  0  0  0
   -7.0790   22.9838  -30.4731 H   0  0  0  0  0  0  0  0  0  0  0  0
   -7.5238   23.7020  -32.0763 H   0  0  0  0  0  0  0  0  0  0  0  0
   -8.7145   21.8416  -32.6459 H   0  0  0  0  0  0  0  0  0  0  0  0
  -10.2870   20.0433  -31.9370 H   0  0  0  0  0  0  0  0  0  0  0  0
   -9.4139   17.8010  -31.2864 H   0  0  0  0  0  0  0  0  0  0  0  0
   -6.9656   17.3402  -31.3675 H   0  0  0  0  0  0  0  0  0  0  0  0
   -3.7080   17.8050  -32.9398 H   0  0  0  0  0  0  0  0  0  0  0  0
   -5.0605   18.3403  -34.0084 H   0  0  0  0  0  0  0  0  0  0  0  0
   -2.4040   19.4106  -33.8322 H   0  0  0  0  0  0  0  0  0  0  0  0
   -3.8047   19.9813  -34.8417 H   0  0  0  0  0  0  0  0  0  0  0  0
   -4.0760   20.8560  -32.1730 H   0  0  0  0  0  0  0  0  0  0  0  0
   -4.0170   21.7240  -33.6280 H   0  0  0  0  0  0  0  0  0  0  0  0
   -2.2381   22.6276  -32.6064 H   0  0  0  0  0  0  0  0  0  0  0  0
   -1.8641   21.0810  -31.7506 H   0  0  0  0  0  0  0  0  0  0  0  0
   -0.2291   20.8443  -33.3053 H   0  0  0  0  0  0  0  0  0  0  0  0
   -1.5644   20.3624  -34.4060 H   0  0  0  0  0  0  0  0  0  0  0  0
   -0.9675   22.0567  -34.4060 H   0  0  0  0  0  0  0  0  0  0  0  0
  1  2  1  0
  2  3  1  0
  3  4  1  0
  4  5  1  0
  5  6  1  0
  6  7  2  0
  6  8  1  0
  8  9  1  0
  9 10  2  0
 10 11  1  0
 11 12  2  0
 12 13  1  0
 13 14  2  0
 14 15  1  0
 15 16  1  0
 16 17  1  0
 17 18  1  0
 18 19  1  0
 19 20  1  0
 14  9  1  0
  1 21  1  0
  1 22  1  0
  1 23  1  0
  2 24  1  0
  2 25  1  0
  3 26  1  0
  3 27  1  0
  4 28  1  0
  4 29  1  0
  5 30  1  0
  5 31  1  0
 10 32  1  0
 11 33  1  0
 12 34  1  0
 13 35  1  0
 16 36  1  0
 16 37  1  0
 17 38  1  0
 17 39  1  0
 18 40  1  0
 18 41  1  0
 19 42  1  0
 19 43  1  0
 20 44  1  0
 20 45  1  0
 20 46  1  0
M  CHG  1  18   1
M  END
>  <UniqueID>  (23) 
23

>  <SMILES>  (23) 
CCCCCC(=O)Oc1ccccc1OCC[NH2+]CC

>  <Energy>  (23) 
35.35922641597093

>  <Genealogy>  (23) 
CCCCCC(=O)Oc1ccccc1OCC[NH2+]CC (protonated)
CCCCCC(=O)Oc1ccccc1OCC[NH2+]CC (3D coordinates assigned)
CCCCCC(=O)Oc1ccccc1OCC[NH2+]CC (optimized conformer: 35.35922641597093 kcal/mol)

>  <smiles>  (23) 
CCCCCC(=O)Oc1ccccc1OCCNCC

>  <score_type>  (23) 
oracle

>  <origin>  (23) 
adg

>  <m_score__min__energy>  (23) 
-5.5300000000000002

>  <m_primary>  (23) 
energy

$$$$
23:0
     RDKit          3D

 64 66  0  0  0  0  0  0  0  0999 V2000
   -0.0950   18.7940  -30.7120 C   0  0  0  0  0  0  0  0  0  0  0  0
    0.0760   17.6120  -31.6760 C   0  0  0  0  0  0  0  0  0  0  0  0
   -0.3480   17.9350  -33.0640 N   0  0  0  0  0  0  0  0  0  0  0  0
   -1.6390   17.3050  -33.4520 C   0  0  0  0  0  0  0  0  0  0  0  0
   -1.7870   17.0350  -34.9590 C   0  0  0  0  0  0  0  0  0  0  0  0
    0.7280   17.5970  -34.0380 C   0  0  0  0  0  0  0  0  0  0  0  0
    1.5620   18.8180  -34.4540 C   0  0  0  0  0  0  0  0  0  0  0  0
    1.2750   19.9060  -33.5990 O   0  0  0  0  0  0  0  0  0  0  0  0
    1.0980   21.0940  -34.3480 C   0  0  0  0  0  0  0  0  0  0  0  0
   -0.2990   21.1010  -34.9780 C   0  0  0  0  0  0  0  0  0  0  0  0
   -1.2770   20.5950  -34.0890 O   0  0  0  0  0  0  0  0  0  0  0  0
   -1.1690   21.2160  -32.8230 C   0  0  0  0  0  0  0  0  0  0  0  0
   -2.5680   21.5180  -32.2860 C   0  0  0  0  0  0  0  0  0  0  0  0
   -3.5700   21.3600  -33.3360 N   0  0  0  0  0  0  0  0  0  0  0  0
   -4.9320   21.0490  -33.0140 C   0  0  0  0  0  0  0  0  0  0  0  0
   -5.7150   21.9760  -32.3100 C   0  0  0  0  0  0  0  0  0  0  0  0
   -5.1750   23.2160  -31.9090 C   0  0  0  0  0  0  0  0  0  0  0  0
   -5.9370   24.1180  -31.1680 C   0  0  0  0  0  0  0  0  0  0  0  0
   -7.2370   23.7910  -30.7990 C   0  0  0  0  0  0  0  0  0  0  0  0
   -7.7870   22.5690  -31.1810 C   0  0  0  0  0  0  0  0  0  0  0  0
   -7.0550   21.6500  -31.9770 C   0  0  0  0  0  0  0  0  0  0  0  0
   -7.6040   20.4530  -32.4030 N   0  0  0  0  0  0  0  0  0  0  0  0
   -9.0640   20.2330  -32.3120 C   0  0  0  0  0  0  0  0  0  0  0  0
   -6.7890   19.4680  -32.9280 C   0  0  0  0  0  0  0  0  0  0  0  0
   -7.2450   18.1350  -33.1090 C   0  0  0  0  0  0  0  0  0  0  0  0
   -6.4110   17.1560  -33.6530 C   0  0  0  0  0  0  0  0  0  0  0  0
   -6.8630   15.8850  -33.7970 F   0  0  0  0  0  0  0  0  0  0  0  0
   -5.1090   17.4780  -34.0280 C   0  0  0  0  0  0  0  0  0  0  0  0
   -4.6290   18.7710  -33.8490 C   0  0  0  0  0  0  0  0  0  0  0  0
   -5.4460   19.7700  -33.2810 C   0  0  0  0  0  0  0  0  0  0  0  0
   -0.0426   18.4317  -29.6747 H   0  0  0  0  0  0  0  0  0  0  0  0
    0.7064   19.5273  -30.8852 H   0  0  0  0  0  0  0  0  0  0  0  0
   -1.0714   19.2701  -30.8852 H   0  0  0  0  0  0  0  0  0  0  0  0
    1.1368   17.3214  -31.6911 H   0  0  0  0  0  0  0  0  0  0  0  0
   -0.5657   16.7947  -31.3152 H   0  0  0  0  0  0  0  0  0  0  0  0
   -0.5160   18.9700  -33.1060 H   0  0  0  0  0  0  0  0  0  0  0  0
   -1.7273   16.3460  -32.9204 H   0  0  0  0  0  0  0  0  0  0  0  0
   -2.4305   18.0196  -33.1820 H   0  0  0  0  0  0  0  0  0  0  0  0
   -2.3107   16.0796  -35.1106 H   0  0  0  0  0  0  0  0  0  0  0  0
   -2.3657   17.8479  -35.4220 H   0  0  0  0  0  0  0  0  0  0  0  0
   -0.7905   16.9844  -35.4220 H   0  0  0  0  0  0  0  0  0  0  0  0
    1.3972   16.8548  -33.5783 H   0  0  0  0  0  0  0  0  0  0  0  0
    0.2424   17.2045  -34.9436 H   0  0  0  0  0  0  0  0  0  0  0  0
    2.6316   18.5708  -34.3844 H   0  0  0  0  0  0  0  0  0  0  0  0
    1.3125   19.0933  -35.4893 H   0  0  0  0  0  0  0  0  0  0  0  0
    1.2046   21.9646  -33.6842 H   0  0  0  0  0  0  0  0  0  0  0  0
    1.8573   21.1416  -35.1425 H   0  0  0  0  0  0  0  0  0  0  0  0
   -0.5631   22.1342  -35.2479 H   0  0  0  0  0  0  0  0  0  0  0  0
   -0.2771   20.4543  -35.8676 H   0  0  0  0  0  0  0  0  0  0  0  0
   -0.6460   20.5433  -32.1274 H   0  0  0  0  0  0  0  0  0  0  0  0
   -0.6019   22.1535  -32.9202 H   0  0  0  0  0  0  0  0  0  0  0  0
   -2.7958   20.8252  -31.4625 H   0  0  0  0  0  0  0  0  0  0  0  0
   -2.5922   22.5579  -31.9282 H   0  0  0  0  0  0  0  0  0  0  0  0
   -3.3050   21.4160  -34.3440 H   0  0  0  0  0  0  0  0  0  0  0  0
   -4.1416   23.4739  -32.1840 H   0  0  0  0  0  0  0  0  0  0  0  0
   -5.5098   25.0884  -30.8752 H   0  0  0  0  0  0  0  0  0  0  0  0
   -7.8329   24.4988  -30.2040 H   0  0  0  0  0  0  0  0  0  0  0  0
   -8.8072   22.3120  -30.8597 H   0  0  0  0  0  0  0  0  0  0  0  0
   -9.3628   20.1880  -31.2543 H   0  0  0  0  0  0  0  0  0  0  0  0
   -9.5913   21.0618  -32.8070 H   0  0  0  0  0  0  0  0  0  0  0  0
   -9.3236   19.2856  -32.8070 H   0  0  0  0  0  0  0  0  0  0  0  0
   -8.2715   17.8697  -32.8160 H   0  0  0  0  0  0  0  0  0  0  0  0
   -4.4583   16.7074  -34.4671 H   0  0  0  0  0  0  0  0  0  0  0  0
   -3.6011   19.0169  -34.1538 H   0  0  0  0  0  0  0  0  0  0  0  0
  1  2  1  0
  2  3  1  0
  3  4  1  0
  4  5  1  0
  3  6  1  0
  6  7  1  0
  7  8  1  0
  8  9  1  0
  9 10  1  0
 10 11  1  0
 11 12  1  0
 12 13  1  0
 13 14  1  0
 14 15  1  0
 15 16  2  0
 16 17  1  0
 17 18  2  0
 18 19  1  0
 19 20  2  0
 20 21  1  0
 21 22  2  0
 22 23  1  0
 22 24  1  0
 24 25  2  0
 25 26  1  0
 26 27  1  0
 26 28  2  0
 28 29  1  0
 29 30  2  0
 30 15  1  0
 21 16  1  0
 30 24  1  0
  1 31  1  0
  1 32  1  0
  1 33  1  0
  2 34  1  0
  2 35  1  0
  3 36  1  0
  4 37  1  0
  4 38  1  0
  5 39  1  0
  5 40  1  0
  5 41  1  0
  6 42  1  0
  6 43  1  0
  7 44  1  0
  7 45  1  0
  9 46  1  0
  9 47  1  0
 10 48  1  0
 10 49  1  0
 12 50  1  0
 12 51  1  0
 13 52  1  0
 13 53  1  0
 14 54  1  0
 17 55  1  0
 18 56  1  0
 19 57  1  0
 20 58  1  0
 23 59  1  0
 23 60  1  0
 23 61  1  0
 25 62  1  0
 28 63  1  0
 29 64  1  0
M  CHG  2   3   1  22   1
M  END
>  <UniqueID>  (24) 
24

>  <SMILES>  (24) 
CC[NH+](CC)CCOCCOCCNc1c2ccccc2[n+](C)c2cc(F)ccc12

>  <Energy>  (24) 
88.41119403802702

>  <Genealogy>  (24) 
CC[NH+](CC)CCOCCOCCNc1c2ccccc2[n+](C)c2cc(F)ccc12 (protonated)
CC[NH+](CC)CCOCCOCCNc1c2ccccc2[n+](C)c2cc(F)ccc12 (3D coordinates assigned)
CC[NH+](CC)CCOCCOCCNc1c2ccccc2[n+](C)c2cc(F)ccc12 (optimized conformer: 88.41119403802702 kcal/mol)

>  <smiles>  (24) 
CCN(CC)CCOCCOCCNc1c2ccccc2[n+](C)c2cc(F)ccc12

>  <score_type>  (24) 
oracle

>  <origin>  (24) 
adg

>  <m_score__min__energy>  (24) 
-9.3300000000000001

>  <m_primary>  (24) 
energy

$$$$
24:0
     RDKit          3D

 20 21  0  0  0  0  0  0  0  0999 V2000
   -9.5330   21.0930  -31.9270 C   0  0  0  0  0  0  0  0  0  0  0  0
   -8.1070   20.9710  -32.2190 N   0  0  0  0  0  0  0  0  0  0  0  0
   -7.5150   19.9880  -32.9350 C   0  0  0  0  0  0  0  0  0  0  0  0
   -6.1430   20.1990  -33.0070 C   0  0  0  0  0  0  0  0  0  0  0  0
   -5.9110   21.3630  -32.2980 C   0  0  0  0  0  0  0  0  0  0  0  0
   -4.7260   22.0500  -32.0370 C   0  0  0  0  0  0  0  0  0  0  0  0
   -3.0460   21.4070  -32.7000 Br  0  0  0  0  0  0  0  0  0  0  0  0
   -4.7980   23.2330  -31.2700 C   0  0  0  0  0  0  0  0  0  0  0  0
   -3.6210   23.9320  -31.0010 O   0  0  0  0  0  0  0  0  0  0  0  0
   -6.0570   23.6920  -30.7890 C   0  0  0  0  0  0  0  0  0  0  0  0
   -6.2180   25.2900  -29.7450 Br  0  0  0  0  0  0  0  0  0  0  0  0
   -7.2320   22.9690  -31.0740 C   0  0  0  0  0  0  0  0  0  0  0  0
   -7.1220   21.8050  -31.8340 C   0  0  0  0  0  0  0  0  0  0  0  0
   -9.6844   21.1060  -30.8375 H   0  0  0  0  0  0  0  0  0  0  0  0
   -9.9177   22.0273  -32.3618 H   0  0  0  0  0  0  0  0  0  0  0  0
  -10.0708   20.2376  -32.3618 H   0  0  0  0  0  0  0  0  0  0  0  0
   -8.0446   19.1410  -33.3954 H   0  0  0  0  0  0  0  0  0  0  0  0
   -5.3988   19.5721  -33.5199 H   0  0  0  0  0  0  0  0  0  0  0  0
   -3.4960   24.9090  -31.2320 H   0  0  0  0  0  0  0  0  0  0  0  0
   -8.2101   23.3134  -30.7069 H   0  0  0  0  0  0  0  0  0  0  0  0
  1  2  1  0
  2  3  1  0
  3  4  2  0
  4  5  1  0
  5  6  2  0
  6  7  1  0
  6  8  1  0
  8  9  1  0
  8 10  2  0
 10 11  1  0
 10 12  1  0
 12 13  2  0
 13  2  1  0
 13  5  1  0
  1 14  1  0
  1 15  1  0
  1 16  1  0
  3 17  1  0
  4 18  1  0
  9 19  1  0
 12 20  1  0
M  END
>  <UniqueID>  (25) 
25

>  <SMILES>  (25) 
Cn1ccc2c(Br)c(O)c(Br)cc21

>  <Energy>  (25) 
54.55842604195518

>  <Genealogy>  (25) 
Cn1ccc2c(Br)c(O)c(Br)cc21 (3D coordinates assigned)
Cn1ccc2c(Br)c(O)c(Br)cc21 (optimized conformer: 54.55842604195518 kcal/mol)

>  <smiles>  (25) 
Cn1ccc2c(Br)c(O)c(Br)cc21

>  <score_type>  (25) 
oracle

>  <origin>  (25) 
adg

>  <m_score__min__energy>  (25) 
-7.0199999999999996

>  <m_primary>  (25) 
energy

$$$$
25:0
     RDKit          3D

 48 50  0  0  0  0  0  0  0  0999 V2000
    0.5680   20.2610  -32.4770 C   0  0  0  0  0  0  0  0  0  0  0  0
   -0.4990   19.8670  -31.4610 C   0  0  0  0  0  0  0  0  0  0  0  0
   -1.6170   20.8370  -31.4940 N   0  0  0  0  0  0  0  0  0  0  0  0
   -1.2920   22.0300  -30.6910 C   0  0  0  0  0  0  0  0  0  0  0  0
   -1.9610   21.2330  -32.8760 C   0  0  0  0  0  0  0  0  0  0  0  0
   -3.4220   20.8880  -33.2070 C   0  0  0  0  0  0  0  0  0  0  0  0
   -4.1860   20.5410  -32.0050 N   0  0  0  0  0  0  0  0  0  0  0  0
   -5.5230   21.0240  -31.7780 C   0  0  0  0  0  0  0  0  0  0  0  0
   -6.6320   20.1860  -31.9850 C   0  0  0  0  0  0  0  0  0  0  0  0
   -6.4620   18.8030  -32.2110 C   0  0  0  0  0  0  0  0  0  0  0  0
   -7.5640   17.9700  -32.3860 C   0  0  0  0  0  0  0  0  0  0  0  0
   -8.8500   18.4920  -32.3130 C   0  0  0  0  0  0  0  0  0  0  0  0
   -9.0430   19.8520  -32.0730 C   0  0  0  0  0  0  0  0  0  0  0  0
   -7.9420   20.7320  -31.9230 C   0  0  0  0  0  0  0  0  0  0  0  0
   -8.1170   22.0840  -31.6970 N   0  0  0  0  0  0  0  0  0  0  0  0
   -9.4390   22.7080  -31.9250 C   0  0  0  0  0  0  0  0  0  0  0  0
   -7.0520   22.8560  -31.2680 C   0  0  0  0  0  0  0  0  0  0  0  0
   -7.2370   24.1660  -30.7580 C   0  0  0  0  0  0  0  0  0  0  0  0
   -6.1490   24.9530  -30.3810 C   0  0  0  0  0  0  0  0  0  0  0  0
   -4.8510   24.4550  -30.4780 C   0  0  0  0  0  0  0  0  0  0  0  0
   -3.7370   25.2700  -30.1020 N   0  0  0  0  0  0  0  0  0  0  0  0
   -4.6460   23.1500  -30.9330 C   0  0  0  0  0  0  0  0  0  0  0  0
   -5.7310   22.3380  -31.3240 C   0  0  0  0  0  0  0  0  0  0  0  0
    1.4726   20.5950  -31.9478 H   0  0  0  0  0  0  0  0  0  0  0  0
    0.8116   19.3935  -33.1080 H   0  0  0  0  0  0  0  0  0  0  0  0
    0.1894   21.0786  -33.1080 H   0  0  0  0  0  0  0  0  0  0  0  0
   -0.8802   18.8643  -31.7043 H   0  0  0  0  0  0  0  0  0  0  0  0
   -0.0543   19.8648  -30.4549 H   0  0  0  0  0  0  0  0  0  0  0  0
   -1.3596   21.7817  -29.6215 H   0  0  0  0  0  0  0  0  0  0  0  0
   -0.2704   22.3631  -30.9262 H   0  0  0  0  0  0  0  0  0  0  0  0
   -2.0035   22.8353  -30.9262 H   0  0  0  0  0  0  0  0  0  0  0  0
   -1.8152   22.3178  -32.9850 H   0  0  0  0  0  0  0  0  0  0  0  0
   -1.3079   20.6818  -33.5686 H   0  0  0  0  0  0  0  0  0  0  0  0
   -3.8926   21.7575  -33.6891 H   0  0  0  0  0  0  0  0  0  0  0  0
   -3.4236   20.0152  -33.8765 H   0  0  0  0  0  0  0  0  0  0  0  0
   -3.7050   20.0100  -31.2430 H   0  0  0  0  0  0  0  0  0  0  0  0
   -5.4479   18.3787  -32.2493 H   0  0  0  0  0  0  0  0  0  0  0  0
   -7.4166   16.8977  -32.5822 H   0  0  0  0  0  0  0  0  0  0  0  0
   -9.7186   17.8300  -32.4450 H   0  0  0  0  0  0  0  0  0  0  0  0
  -10.0664   20.2484  -31.9989 H   0  0  0  0  0  0  0  0  0  0  0  0
   -9.9111   22.9309  -30.9568 H   0  0  0  0  0  0  0  0  0  0  0  0
   -9.3110   23.6407  -32.4939 H   0  0  0  0  0  0  0  0  0  0  0  0
  -10.0777   22.0163  -32.4939 H   0  0  0  0  0  0  0  0  0  0  0  0
   -8.2559   24.5684  -30.6580 H   0  0  0  0  0  0  0  0  0  0  0  0
   -6.3164   25.9730  -30.0048 H   0  0  0  0  0  0  0  0  0  0  0  0
   -3.5450   25.4830  -29.0980 H   0  0  0  0  0  0  0  0  0  0  0  0
   -3.1020   25.6750  -30.8250 H   0  0  0  0  0  0  0  0  0  0  0  0
   -3.6228   22.7497  -30.9871 H   0  0  0  0  0  0  0  0  0  0  0  0
  1  2  1  0
  2  3  1  0
  3  4  1  0
  3  5  1  0
  5  6  1  0
  6  7  1  0
  7  8  1  0
  8  9  2  0
  9 10  1  0
 10 11  2  0
 11 12  1  0
 12 13  2  0
 13 14  1  0
 14 15  2  0
 15 16  1  0
 15 17  1  0
 17 18  2  0
 18 19  1  0
 19 20  2  0
 20 21  1  0
 20 22  1  0
 22 23  2  0
 23  8  1  0
 14  9  1  0
 23 17  1  0
  1 24  1  0
  1 25  1  0
  1 26  1  0
  2 27  1  0
  2 28  1  0
  4 29  1  0
  4 30  1  0
  4 31  1  0
  5 32  1  0
  5 33  1  0
  6 34  1  0
  6 35  1  0
  7 36  1  0
 10 37  1  0
 11 38  1  0
 12 39  1  0
 13 40  1  0
 16 41  1  0
 16 42  1  0
 16 43  1  0
 18 44  1  0
 19 45  1  0
 21 46  1  0
 21 47  1  0
 22 48  1  0
M  CHG  1  15   1
M  END
>  <UniqueID>  (26) 
26

>  <SMILES>  (26) 
CCN(C)CCNc1c2ccccc2[n+](C)c2ccc(N)cc12

>  <Energy>  (26) 
70.78835062787927

>  <Genealogy>  (26) 
CCN(C)CCNc1c2ccccc2[n+](C)c2ccc(N)cc12 (3D coordinates assigned)
CCN(C)CCNc1c2ccccc2[n+](C)c2ccc(N)cc12 (optimized conformer: 70.78835062787927 kcal/mol)

>  <smiles>  (26) 
CCN(C)CCNc1c2ccccc2[n+](C)c2ccc(N)cc12

>  <score_type>  (26) 
oracle

>  <origin>  (26) 
adg

>  <m_score__min__energy>  (26) 
-8.2300000000000004

>  <m_primary>  (26) 
energy

$$$$
26:0
     RDKit          3D

 47 49  0  0  0  0  0  0  0  0999 V2000
   -7.1600   24.4720  -30.4660 C   0  0  0  0  0  0  0  0  0  0  0  0
   -5.8240   25.1710  -30.1880 C   0  0  0  0  0  0  0  0  0  0  0  0
   -5.1640   24.6590  -28.9720 N   0  0  0  0  0  0  0  0  0  0  0  0
   -4.1330   23.6570  -29.2830 C   0  0  0  0  0  0  0  0  0  0  0  0
   -4.6050   22.7120  -30.3990 C   0  0  0  0  0  0  0  0  0  0  0  0
   -3.6200   22.6700  -31.5760 C   0  0  0  0  0  0  0  0  0  0  0  0
   -4.2660   22.1450  -32.7810 N   0  0  0  0  0  0  0  0  0  0  0  0
   -4.5950   20.7510  -32.9160 C   0  0  0  0  0  0  0  0  0  0  0  0
   -5.9070   20.3030  -32.6690 C   0  0  0  0  0  0  0  0  0  0  0  0
   -6.9360   21.2130  -32.3410 C   0  0  0  0  0  0  0  0  0  0  0  0
   -8.2350   20.7670  -32.1060 C   0  0  0  0  0  0  0  0  0  0  0  0
   -9.4960   21.9140  -31.6910 Cl  0  0  0  0  0  0  0  0  0  0  0  0
   -8.5340   19.4140  -32.2120 C   0  0  0  0  0  0  0  0  0  0  0  0
   -7.5320   18.4950  -32.5220 C   0  0  0  0  0  0  0  0  0  0  0  0
   -6.1910   18.9110  -32.7180 C   0  0  0  0  0  0  0  0  0  0  0  0
   -5.1730   18.0040  -32.9520 N   0  0  0  0  0  0  0  0  0  0  0  0
   -5.4000   16.5620  -32.7110 C   0  0  0  0  0  0  0  0  0  0  0  0
   -3.9400   18.4470  -33.3900 C   0  0  0  0  0  0  0  0  0  0  0  0
   -2.9670   17.5540  -33.9100 C   0  0  0  0  0  0  0  0  0  0  0  0
   -1.7140   18.0100  -34.3180 C   0  0  0  0  0  0  0  0  0  0  0  0
   -0.5310   16.8800  -34.9530 Cl  0  0  0  0  0  0  0  0  0  0  0  0
   -1.4040   19.3630  -34.2410 C   0  0  0  0  0  0  0  0  0  0  0  0
   -2.3520   20.2700  -33.7720 C   0  0  0  0  0  0  0  0  0  0  0  0
   -3.6240   19.8310  -33.3480 C   0  0  0  0  0  0  0  0  0  0  0  0
   -7.6461   24.2177  -29.5126 H   0  0  0  0  0  0  0  0  0  0  0  0
   -7.8126   25.1442  -31.0424 H   0  0  0  0  0  0  0  0  0  0  0  0
   -6.9798   23.5526  -31.0424 H   0  0  0  0  0  0  0  0  0  0  0  0
   -5.1558   25.0104  -31.0469 H   0  0  0  0  0  0  0  0  0  0  0  0
   -6.0307   26.2402  -30.0326 H   0  0  0  0  0  0  0  0  0  0  0  0
   -5.8930   24.2100  -28.3690 H   0  0  0  0  0  0  0  0  0  0  0  0
   -4.7440   25.4560  -28.4370 H   0  0  0  0  0  0  0  0  0  0  0  0
   -3.2177   24.1718  -29.6103 H   0  0  0  0  0  0  0  0  0  0  0  0
   -3.9371   23.0623  -28.3786 H   0  0  0  0  0  0  0  0  0  0  0  0
   -4.7068   21.6978  -29.9854 H   0  0  0  0  0  0  0  0  0  0  0  0
   -5.5675   23.0879  -30.7763 H   0  0  0  0  0  0  0  0  0  0  0  0
   -3.2561   23.6883  -31.7773 H   0  0  0  0  0  0  0  0  0  0  0  0
   -2.7829   22.0079  -31.3097 H   0  0  0  0  0  0  0  0  0  0  0  0
   -4.6850   22.8290  -33.4500 H   0  0  0  0  0  0  0  0  0  0  0  0
   -6.7092   22.2870  -32.2702 H   0  0  0  0  0  0  0  0  0  0  0  0
   -9.5652   19.0666  -32.0507 H   0  0  0  0  0  0  0  0  0  0  0  0
   -7.7865   17.4290  -32.6161 H   0  0  0  0  0  0  0  0  0  0  0  0
   -5.4300   16.3715  -31.6280 H   0  0  0  0  0  0  0  0  0  0  0  0
   -6.3566   16.2609  -33.1629 H   0  0  0  0  0  0  0  0  0  0  0  0
   -4.5822   15.9815  -33.1629 H   0  0  0  0  0  0  0  0  0  0  0  0
   -3.2056   16.4834  -33.9926 H   0  0  0  0  0  0  0  0  0  0  0  0
   -0.4098   19.7177  -34.5505 H   0  0  0  0  0  0  0  0  0  0  0  0
   -2.1057   21.3413  -33.7318 H   0  0  0  0  0  0  0  0  0  0  0  0
  1  2  1  0
  2  3  1  0
  3  4  1  0
  4  5  1  0
  5  6  1  0
  6  7  1  0
  7  8  1  0
  8  9  2  0
  9 10  1  0
 10 11  2  0
 11 12  1  0
 11 13  1  0
 13 14  2  0
 14 15  1  0
 15 16  2  0
 16 17  1  0
 16 18  1  0
 18 19  2  0
 19 20  1  0
 20 21  1  0
 20 22  2  0
 22 23  1  0
 23 24  2  0
 24  8  1  0
 15  9  1  0
 24 18  1  0
  1 25  1  0
  1 26  1  0
  1 27  1  0
  2 28  1  0
  2 29  1  0
  3 30  1  0
  3 31  1  0
  4 32  1  0
  4 33  1  0
  5 34  1  0
  5 35  1  0
  6 36  1  0
  6 37  1  0
  7 38  1  0
 10 39  1  0
 13 40  1  0
 14 41  1  0
 17 42  1  0
 17 43  1  0
 17 44  1  0
 19 45  1  0
 22 46  1  0
 23 47  1  0
M  CHG  2   3   1  16   1
M  END
>  <UniqueID>  (27) 
27

>  <SMILES>  (27) 
CC[NH2+]CCCNc1c2cc(Cl)ccc2[n+](C)c2cc(Cl)ccc12

>  <Energy>  (27) 
66.788600192476

>  <Genealogy>  (27) 
CC[NH2+]CCCNc1c2cc(Cl)ccc2[n+](C)c2cc(Cl)ccc12 (protonated)
CC[NH2+]CCCNc1c2cc(Cl)ccc2[n+](C)c2cc(Cl)ccc12 (3D coordinates assigned)
CC[NH2+]CCCNc1c2cc(Cl)ccc2[n+](C)c2cc(Cl)ccc12 (optimized conformer: 66.788600192476 kcal/mol)

>  <smiles>  (27) 
CCNCCCNc1c2cc(Cl)ccc2[n+](C)c2cc(Cl)ccc12

>  <score_type>  (27) 
oracle

>  <origin>  (27) 
adg

>  <m_score__min__energy>  (27) 
-7.7999999999999998

>  <m_primary>  (27) 
energy

$$$$
27:0
     RDKit          3D

 36 37  0  0  0  0  0  0  0  0999 V2000
   -6.9210   18.2000  -32.0880 C   0  0  0  0  0  0  0  0  0  0  0  0
   -8.1400   19.0650  -32.3930 C   0  0  0  0  0  0  0  0  0  0  0  0
   -7.7430   20.3290  -32.9250 O   0  0  0  0  0  0  0  0  0  0  0  0
   -7.0370   21.3290  -32.2310 C   0  0  0  0  0  0  0  0  0  0  0  0
   -5.6910   21.6340  -32.5140 C   0  0  0  0  0  0  0  0  0  0  0  0
   -5.0240   22.6310  -31.8000 C   0  0  0  0  0  0  0  0  0  0  0  0
   -5.6850   23.3370  -30.7920 C   0  0  0  0  0  0  0  0  0  0  0  0
   -4.8290   24.5800  -29.8830 S   0  0  0  0  0  0  0  0  0  0  0  0
   -5.7870   25.3960  -29.0610 O   0  0  0  0  0  0  0  0  0  0  0  0
   -4.1220   25.4860  -30.8510 O   0  0  0  0  0  0  0  0  0  0  0  0
   -3.6530   23.8510  -28.8300 N   0  0  0  0  0  0  0  0  0  0  0  0
   -2.7070   24.4650  -28.1750 C   0  0  0  0  0  0  0  0  0  0  0  0
   -2.3970   24.1580  -26.8340 C   0  0  0  0  0  0  0  0  0  0  0  0
   -1.3660   24.8460  -26.1920 C   0  0  0  0  0  0  0  0  0  0  0  0
   -0.6520   25.8280  -26.8760 C   0  0  0  0  0  0  0  0  0  0  0  0
   -0.9830   26.1110  -28.2000 C   0  0  0  0  0  0  0  0  0  0  0  0
   -1.9900   25.4340  -28.8160 N   0  0  0  0  0  0  0  0  0  0  0  0
   -7.0260   23.0520  -30.5090 C   0  0  0  0  0  0  0  0  0  0  0  0
   -7.7070   22.0530  -31.2240 C   0  0  0  0  0  0  0  0  0  0  0  0
   -9.1440   21.7470  -30.9050 C   0  0  0  0  0  0  0  0  0  0  0  0
   -6.7971   18.1121  -30.9985 H   0  0  0  0  0  0  0  0  0  0  0  0
   -7.0632   17.1996  -32.5228 H   0  0  0  0  0  0  0  0  0  0  0  0
   -6.0237   18.6646  -32.5228 H   0  0  0  0  0  0  0  0  0  0  0  0
   -8.7749   18.5477  -33.1274 H   0  0  0  0  0  0  0  0  0  0  0  0
   -8.6958   19.2339  -31.4589 H   0  0  0  0  0  0  0  0  0  0  0  0
   -5.1612   21.0819  -33.3042 H   0  0  0  0  0  0  0  0  0  0  0  0
   -3.9738   22.8616  -32.0320 H   0  0  0  0  0  0  0  0  0  0  0  0
   -2.9634   23.3822  -26.2979 H   0  0  0  0  0  0  0  0  0  0  0  0
   -1.1171   24.6130  -25.1462 H   0  0  0  0  0  0  0  0  0  0  0  0
    0.1628   26.3731  -26.3771 H   0  0  0  0  0  0  0  0  0  0  0  0
   -0.4276   26.8853  -28.7496 H   0  0  0  0  0  0  0  0  0  0  0  0
   -2.2120   25.6690  -29.8110 H   0  0  0  0  0  0  0  0  0  0  0  0
   -7.5498   23.6140  -29.7217 H   0  0  0  0  0  0  0  0  0  0  0  0
   -9.2792   21.7182  -29.8137 H   0  0  0  0  0  0  0  0  0  0  0  0
   -9.7891   22.5279  -31.3339 H   0  0  0  0  0  0  0  0  0  0  0  0
   -9.4150   20.7710  -31.3339 H   0  0  0  0  0  0  0  0  0  0  0  0
  1  2  1  0
  2  3  1  0
  3  4  1  0
  4  5  2  0
  5  6  1  0
  6  7  2  0
  7  8  1  0
  8  9  2  0
  8 10  2  0
  8 11  1  0
 11 12  2  3
 12 13  1  0
 13 14  2  0
 14 15  1  0
 15 16  2  0
 16 17  1  0
  7 18  1  0
 18 19  2  0
 19 20  1  0
 19  4  1  0
 17 12  1  0
  1 21  1  0
  1 22  1  0
  1 23  1  0
  2 24  1  0
  2 25  1  0
  5 26  1  0
  6 27  1  0
 13 28  1  0
 14 29  1  0
 15 30  1  0
 16 31  1  0
 17 32  1  0
 18 33  1  0
 20 34  1  0
 20 35  1  0
 20 36  1  0
M  END
>  <UniqueID>  (28) 
28

>  <SMILES>  (28) 
CCOc1ccc(S(=O)(=O)N=c2cccc[nH]2)cc1C

>  <Energy>  (28) 
39.50382151811691

>  <Genealogy>  (28) 
CCOc1ccc(S(=O)(=O)N=c2cccc[nH]2)cc1C (3D coordinates assigned)
CCOc1ccc(S(=O)(=O)N=c2cccc[nH]2)cc1C (optimized conformer: 39.50382151811691 kcal/mol)

>  <smiles>  (28) 
CCOc1ccc(S(=O)(=O)N=c2cccc[nH]2)cc1C

>  <score_type>  (28) 
oracle

>  <origin>  (28) 
adg

>  <m_score__min__energy>  (28) 
-8.3499999999999996

>  <m_primary>  (28) 
energy

$$$$
28:0
     RDKit          3D

 53 56  0  0  0  0  0  0  0  0999 V2000
   -4.7471   13.9556  -34.9393 H   0  0  0  0  0  0  0  0  0  0  0  0
   -4.9080   14.9820  -34.5780 C   0  0  0  0  0  0  0  0  0  0  0  0
   -6.1230   15.3330  -33.9940 C   0  0  0  0  0  0  0  0  0  0  0  0
   -6.9141   14.5770  -33.8818 H   0  0  0  0  0  0  0  0  0  0  0  0
   -6.3430   16.6390  -33.5500 C   0  0  0  0  0  0  0  0  0  0  0  0
   -7.3033   16.8983  -33.0803 H   0  0  0  0  0  0  0  0  0  0  0  0
   -5.3440   17.6350  -33.6970 C   0  0  0  0  0  0  0  0  0  0  0  0
   -4.0990   17.2470  -34.2550 C   0  0  0  0  0  0  0  0  0  0  0  0
   -3.8970   15.9320  -34.7040 C   0  0  0  0  0  0  0  0  0  0  0  0
   -2.9353   15.6505  -35.1577 H   0  0  0  0  0  0  0  0  0  0  0  0
   -3.0720   18.1790  -34.3760 C   0  0  0  0  0  0  0  0  0  0  0  0
   -2.1286   17.8906  -34.8626 H   0  0  0  0  0  0  0  0  0  0  0  0
   -3.2280   19.4690  -33.8880 C   0  0  0  0  0  0  0  0  0  0  0  0
   -2.4034   20.1882  -34.0009 H   0  0  0  0  0  0  0  0  0  0  0  0
   -4.4170   19.8810  -33.2510 C   0  0  0  0  0  0  0  0  0  0  0  0
   -4.5890   21.1830  -32.6870 C   0  0  0  0  0  0  0  0  0  0  0  0
   -3.6130   21.9560  -32.2700 N   0  0  0  0  0  0  0  0  0  0  0  0
   -2.3670   21.7150  -31.5430 C   0  0  0  0  0  0  0  0  0  0  0  0
   -1.5285   22.1422  -32.1126 H   0  0  0  0  0  0  0  0  0  0  0  0
   -2.2333   20.6299  -31.4216 H   0  0  0  0  0  0  0  0  0  0  0  0
   -2.4140   22.3650  -30.1510 C   0  0  0  0  0  0  0  0  0  0  0  0
   -1.8166   23.2885  -30.1666 H   0  0  0  0  0  0  0  0  0  0  0  0
   -2.0072   21.6501  -29.4206 H   0  0  0  0  0  0  0  0  0  0  0  0
   -3.8630   22.7100  -29.7400 C   0  0  0  0  0  0  0  0  0  0  0  0
   -4.1883   21.9863  -28.9782 H   0  0  0  0  0  0  0  0  0  0  0  0
   -4.4730   22.6647  -30.6542 H   0  0  0  0  0  0  0  0  0  0  0  0
   -4.0220   24.0740  -29.1850 N   0  0  0  0  0  0  0  0  0  0  0  0
   -3.5780   24.1610  -27.7810 C   0  0  0  0  0  0  0  0  0  0  0  0
   -4.4363   23.9928  -27.1139 H   0  0  0  0  0  0  0  0  0  0  0  0
   -2.8106   23.3961  -27.5911 H   0  0  0  0  0  0  0  0  0  0  0  0
   -3.1560   25.1589  -27.5911 H   0  0  0  0  0  0  0  0  0  0  0  0
   -5.3850   24.6110  -29.3750 C   0  0  0  0  0  0  0  0  0  0  0  0
   -5.7322   25.0563  -28.4310 H   0  0  0  0  0  0  0  0  0  0  0  0
   -6.0497   23.7882  -29.6769 H   0  0  0  0  0  0  0  0  0  0  0  0
   -5.3990   25.6780  -30.4670 C   0  0  0  0  0  0  0  0  0  0  0  0
   -5.4121   26.6759  -30.0044 H   0  0  0  0  0  0  0  0  0  0  0  0
   -4.4994   25.5752  -31.0917 H   0  0  0  0  0  0  0  0  0  0  0  0
   -6.2956   25.5516  -31.0917 H   0  0  0  0  0  0  0  0  0  0  0  0
   -5.9050   21.6440  -32.4470 C   0  0  0  0  0  0  0  0  0  0  0  0
   -6.1490   22.9830  -32.0650 C   0  0  0  0  0  0  0  0  0  0  0  0
   -5.3037   23.6769  -31.9465 H   0  0  0  0  0  0  0  0  0  0  0  0
   -7.4460   23.4340  -31.8370 C   0  0  0  0  0  0  0  0  0  0  0  0
   -7.6212   24.4855  -31.5657 H   0  0  0  0  0  0  0  0  0  0  0  0
   -8.5200   22.5600  -31.9510 C   0  0  0  0  0  0  0  0  0  0  0  0
   -9.5416   22.9267  -31.7726 H   0  0  0  0  0  0  0  0  0  0  0  0
   -8.3150   21.2160  -32.2910 C   0  0  0  0  0  0  0  0  0  0  0  0
   -9.4490   20.3350  -32.3070 N   0  0  0  0  0  0  0  0  0  0  0  0
  -10.6040   20.8060  -32.3430 O   0  0  0  0  0  0  0  0  0  0  0  0
   -9.2700   18.9970  -32.5720 O   0  0  0  0  0  0  0  0  0  0  0  0
   -6.9980   20.7550  -32.5740 C   0  0  0  0  0  0  0  0  0  0  0  0
   -6.7770   19.4710  -32.9770 N   0  0  0  0  0  0  0  0  0  0  0  0
   -7.6070   18.8750  -33.1590 H   0  0  0  0  0  0  0  0  0  0  0  0
   -5.5320   18.9920  -33.2830 C   0  0  0  0  0  0  0  0  0  0  0  0
  1  2  1  0
  2  3  2  0
  3  4  1  0
  3  5  1  0
  5  6  1  0
  5  7  2  0
  7  8  1  0
  8  9  2  0
  9 10  1  0
  8 11  1  0
 11 12  1  0
 11 13  2  0
 13 14  1  0
 13 15  1  0
 15 16  1  0
 16 17  2  0
 17 18  1  0
 18 19  1  0
 18 20  1  0
 18 21  1  0
 21 22  1  0
 21 23  1  0
 21 24  1  0
 24 25  1  0
 24 26  1  0
 24 27  1  0
 27 28  1  0
 28 29  1  0
 28 30  1  0
 28 31  1  0
 27 32  1  0
 32 33  1  0
 32 34  1  0
 32 35  1  0
 35 36  1  0
 35 37  1  0
 35 38  1  0
 16 39  1  0
 39 40  2  0
 40 41  1  0
 40 42  1  0
 42 43  1  0
 42 44  2  0
 44 45  1  0
 44 46  1  0
 46 47  1  0
 47 48  2  0
 47 49  1  0
 46 50  2  0
 50 51  1  0
 51 52  1  0
 51 53  1  0
  9  2  1  0
 53 15  2  0
 53  7  1  0
 50 39  1  0
M  CHG  2  47   1  49  -1
M  END
>  <UniqueID>  (29) 
29

>  <SMILES>  (29) 
CCN(C)CCC/N=c1/c2cccc([N+](=O)[O-])c2[nH]c2c1ccc1ccccc12

>  <Energy>  (29) 
99.96505147126891

>  <Genealogy>  (29) 
CCN(C)CCC/N=c1/c2cccc([N+](=O)[O-])c2[nH]c2c1ccc1ccccc12 (cis-trans isomerization)
CCN(C)CCC/N=c1/c2cccc([N+](=O)[O-])c2[nH]c2c1ccc1ccccc12 (3D coordinates assigned)
CCN(C)CCC/N=c1/c2cccc([N+](=O)[O-])c2[nH]c2c1ccc1ccccc12 (optimized conformer: 99.96505147126891 kcal/mol)

>  <smiles>  (29) 
CCN(C)CCCN=c1c2cccc([N+](=O)[O-])c2[nH]c2c1ccc1ccccc12

>  <score_type>  (29) 
oracle

>  <origin>  (29) 
adg

>  <m_score__min__energy>  (29) 
-9.3300000000000001

>  <m_primary>  (29) 
energy

$$$$
29:0
     RDKit          3D

 68 71  0  0  0  0  0  0  0  0999 V2000
   -4.6810   15.1670  -32.4750 C   0  0  0  0  0  0  0  0  0  0  0  0
   -4.8150   15.0900  -33.9880 C   0  0  0  0  0  0  0  0  0  0  0  0
   -3.5460   15.2970  -34.5740 O   0  0  0  0  0  0  0  0  0  0  0  0
   -3.5690   16.4380  -35.4100 C   0  0  0  0  0  0  0  0  0  0  0  0
   -3.8300   17.6810  -34.6020 C   0  0  0  0  0  0  0  0  0  0  0  0
   -5.0810   18.3150  -34.6540 C   0  0  0  0  0  0  0  0  0  0  0  0
   -5.3240   19.4590  -33.8850 C   0  0  0  0  0  0  0  0  0  0  0  0
   -4.3140   19.9860  -33.0700 C   0  0  0  0  0  0  0  0  0  0  0  0
   -4.5560   21.1870  -32.2580 C   0  0  0  0  0  0  0  0  0  0  0  0
   -3.5560   21.9710  -31.7270 C   0  0  0  0  0  0  0  0  0  0  0  0
   -4.2280   23.0080  -31.1060 C   0  0  0  0  0  0  0  0  0  0  0  0
   -3.6310   24.1340  -30.3660 C   0  0  0  0  0  0  0  0  0  0  0  0
   -3.8470   25.3080  -30.7710 O   0  0  0  0  0  0  0  0  0  0  0  0
   -2.7220   23.9090  -29.1760 C   0  0  0  0  0  0  0  0  0  0  0  0
   -1.3290   23.3800  -29.5970 C   0  0  0  0  0  0  0  0  0  0  0  0
   -1.2440   21.8530  -29.4600 C   0  0  0  0  0  0  0  0  0  0  0  0
   -1.4460   21.4060  -28.0560 N   0  0  0  0  0  0  0  0  0  0  0  0
   -1.8480   19.9820  -27.9840 C   0  0  0  0  0  0  0  0  0  0  0  0
   -0.6400   19.0350  -28.0180 C   0  0  0  0  0  0  0  0  0  0  0  0
   -0.8510   17.9630  -27.1700 F   0  0  0  0  0  0  0  0  0  0  0  0
   -0.4670   18.5570  -29.3060 F   0  0  0  0  0  0  0  0  0  0  0  0
    0.5120   19.7030  -27.6410 F   0  0  0  0  0  0  0  0  0  0  0  0
   -2.3710   22.2730  -27.2730 C   0  0  0  0  0  0  0  0  0  0  0  0
   -3.4110   22.9750  -28.1570 C   0  0  0  0  0  0  0  0  0  0  0  0
   -5.5560   22.8530  -31.2730 N   0  0  0  0  0  0  0  0  0  0  0  0
   -5.7600   21.7520  -31.9810 N   0  0  0  0  0  0  0  0  0  0  0  0
   -7.1160   21.2780  -32.3010 C   0  0  0  0  0  0  0  0  0  0  0  0
   -8.1800   22.3540  -31.9670 C   0  0  0  0  0  0  0  0  0  0  0  0
   -9.5330   21.7550  -31.5380 C   0  0  0  0  0  0  0  0  0  0  0  0
   -9.8590   20.4890  -32.3440 C   0  0  0  0  0  0  0  0  0  0  0  0
   -8.7980   19.3820  -32.1640 C   0  0  0  0  0  0  0  0  0  0  0  0
   -7.4390   19.9120  -31.6660 C   0  0  0  0  0  0  0  0  0  0  0  0
   -3.0760   19.3350  -32.9940 C   0  0  0  0  0  0  0  0  0  0  0  0
   -2.8330   18.1880  -33.7540 C   0  0  0  0  0  0  0  0  0  0  0  0
   -5.5432   14.6715  -32.0048 H   0  0  0  0  0  0  0  0  0  0  0  0
   -3.7539   14.6638  -32.1629 H   0  0  0  0  0  0  0  0  0  0  0  0
   -4.6489   16.2213  -32.1629 H   0  0  0  0  0  0  0  0  0  0  0  0
   -5.1961   14.0986  -34.2744 H   0  0  0  0  0  0  0  0  0  0  0  0
   -5.5162   15.8617  -34.3384 H   0  0  0  0  0  0  0  0  0  0  0  0
   -2.5979   16.5340  -35.9176 H   0  0  0  0  0  0  0  0  0  0  0  0
   -4.3746   16.3198  -36.1496 H   0  0  0  0  0  0  0  0  0  0  0  0
   -5.8734   17.9114  -35.3014 H   0  0  0  0  0  0  0  0  0  0  0  0
   -6.3101   19.9452  -33.9207 H   0  0  0  0  0  0  0  0  0  0  0  0
   -2.4695   21.8091  -31.7839 H   0  0  0  0  0  0  0  0  0  0  0  0
   -2.5433   24.8802  -28.6915 H   0  0  0  0  0  0  0  0  0  0  0  0
   -1.1434   23.6560  -30.6455 H   0  0  0  0  0  0  0  0  0  0  0  0
   -0.5739   23.8292  -28.9352 H   0  0  0  0  0  0  0  0  0  0  0  0
   -2.0192   21.3962  -30.0928 H   0  0  0  0  0  0  0  0  0  0  0  0
   -0.2374   21.5399  -29.7741 H   0  0  0  0  0  0  0  0  0  0  0  0
   -2.4009   19.8171  -27.0475 H   0  0  0  0  0  0  0  0  0  0  0  0
   -2.4730   19.7631  -28.8623 H   0  0  0  0  0  0  0  0  0  0  0  0
   -2.8983   21.6501  -26.5354 H   0  0  0  0  0  0  0  0  0  0  0  0
   -1.7660   23.0525  -26.7868 H   0  0  0  0  0  0  0  0  0  0  0  0
   -3.9943   22.2165  -28.6997 H   0  0  0  0  0  0  0  0  0  0  0  0
   -4.0707   23.5777  -27.5154 H   0  0  0  0  0  0  0  0  0  0  0  0
   -7.1483   21.1111  -33.3878 H   0  0  0  0  0  0  0  0  0  0  0  0
   -7.7988   22.9802  -31.1469 H   0  0  0  0  0  0  0  0  0  0  0  0
   -8.3556   22.9365  -32.8834 H   0  0  0  0  0  0  0  0  0  0  0  0
   -9.4895   21.4988  -30.4691 H   0  0  0  0  0  0  0  0  0  0  0  0
  -10.3198   22.5004  -31.7258 H   0  0  0  0  0  0  0  0  0  0  0  0
  -10.8332   20.1009  -32.0119 H   0  0  0  0  0  0  0  0  0  0  0  0
   -9.8746   20.7661  -33.4084 H   0  0  0  0  0  0  0  0  0  0  0  0
   -9.1764   18.6518  -31.4335 H   0  0  0  0  0  0  0  0  0  0  0  0
   -8.6282   18.9310  -33.1528 H   0  0  0  0  0  0  0  0  0  0  0  0
   -7.4744   20.0226  -30.5721 H   0  0  0  0  0  0  0  0  0  0  0  0
   -6.6553   19.1960  -31.9544 H   0  0  0  0  0  0  0  0  0  0  0  0
   -2.2907   19.7290  -32.3322 H   0  0  0  0  0  0  0  0  0  0  0  0
   -1.8588   17.6815  -33.6877 H   0  0  0  0  0  0  0  0  0  0  0  0
  1  2  1  0
  2  3  1  0
  3  4  1  0
  4  5  1  0
  5  6  2  0
  6  7  1  0
  7  8  2  0
  8  9  1  0
  9 10  2  0
 10 11  1  0
 11 12  1  0
 12 13  2  0
 12 14  1  0
 14 15  1  0
 15 16  1  0
 16 17  1  0
 17 18  1  0
 18 19  1  0
 19 20  1  0
 19 21  1  0
 19 22  1  0
 17 23  1  0
 23 24  1  0
 11 25  2  0
 25 26  1  0
 26 27  1  0
 27 28  1  0
 28 29  1  0
 29 30  1  0
 30 31  1  0
 31 32  1  0
  8 33  1  0
 33 34  2  0
 34  5  1  0
 26  9  1  0
 32 27  1  0
 24 14  1  0
  1 35  1  0
  1 36  1  0
  1 37  1  0
  2 38  1  0
  2 39  1  0
  4 40  1  0
  4 41  1  0
  6 42  1  0
  7 43  1  0
 10 44  1  0
 14 45  1  0
 15 46  1  0
 15 47  1  0
 16 48  1  0
 16 49  1  0
 18 50  1  0
 18 51  1  0
 23 52  1  0
 23 53  1  0
 24 54  1  0
 24 55  1  0
 27 56  1  0
 28 57  1  0
 28 58  1  0
 29 59  1  0
 29 60  1  0
 30 61  1  0
 30 62  1  0
 31 63  1  0
 31 64  1  0
 32 65  1  0
 32 66  1  0
 33 67  1  0
 34 68  1  0
M  END
>  <UniqueID>  (30) 
30

>  <SMILES>  (30) 
CCOCc1ccc(-c2cc(C(=O)C3CCN(CC(F)(F)F)CC3)nn2C2CCCCC2)cc1

>  <Energy>  (30) 
116.36387144052546

>  <Genealogy>  (30) 
CCOCc1ccc(-c2cc(C(=O)C3CCN(CC(F)(F)F)CC3)nn2C2CCCCC2)cc1 (3D coordinates assigned)
CCOCc1ccc(-c2cc(C(=O)C3CCN(CC(F)(F)F)CC3)nn2C2CCCCC2)cc1 (nonaromatic ring conformer: 116.36387144052546 kcal/mol)

>  <smiles>  (30) 
CCOCc1ccc(-c2cc(C(=O)C3CCN(CC(F)(F)F)CC3)nn2C2CCCCC2)cc1

>  <score_type>  (30) 
oracle

>  <origin>  (30) 
adg

>  <m_score__min__energy>  (30) 
-9.8900000000000006

>  <m_primary>  (30) 
energy

$$$$
30:0
     RDKit          3D

 25 26  0  0  0  0  0  0  0  0999 V2000
   -7.6740   22.6560  -29.7350 C   0  0  0  0  0  0  0  0  0  0  0  0
   -6.6630   22.4150  -30.7640 N   0  0  0  0  0  0  0  0  0  0  0  0
   -5.5180   23.1140  -30.9970 C   0  0  0  0  0  0  0  0  0  0  0  0
   -5.0360   24.5700  -30.1300 S   0  0  0  0  0  0  0  0  0  0  0  0
   -4.5670   24.1530  -28.4660 C   0  0  0  0  0  0  0  0  0  0  0  0
   -3.8880   25.2320  -30.8390 O   0  0  0  0  0  0  0  0  0  0  0  0
   -6.1930   25.5270  -30.0890 O   0  0  0  0  0  0  0  0  0  0  0  0
   -4.7580   22.5610  -31.9740 N   0  0  0  0  0  0  0  0  0  0  0  0
   -5.4420   21.4670  -32.3450 C   0  0  0  0  0  0  0  0  0  0  0  0
   -5.0900   20.5170  -33.3000 C   0  0  0  0  0  0  0  0  0  0  0  0
   -5.9630   19.4290  -33.4940 C   0  0  0  0  0  0  0  0  0  0  0  0
   -5.5400   18.0910  -34.7860 Br  0  0  0  0  0  0  0  0  0  0  0  0
   -7.1490   19.3210  -32.7290 C   0  0  0  0  0  0  0  0  0  0  0  0
   -7.4730   20.2980  -31.7690 C   0  0  0  0  0  0  0  0  0  0  0  0
   -6.5890   21.3690  -31.6110 C   0  0  0  0  0  0  0  0  0  0  0  0
   -7.2177   22.5472  -28.7400 H   0  0  0  0  0  0  0  0  0  0  0  0
   -8.0741   23.6747  -29.8455 H   0  0  0  0  0  0  0  0  0  0  0  0
   -8.4906   21.9274  -29.8455 H   0  0  0  0  0  0  0  0  0  0  0  0
   -5.1955   24.7118  -27.7570 H   0  0  0  0  0  0  0  0  0  0  0  0
   -4.7045   23.0734  -28.3059 H   0  0  0  0  0  0  0  0  0  0  0  0
   -3.5109   24.4158  -28.3059 H   0  0  0  0  0  0  0  0  0  0  0  0
   -3.8380   22.8950  -32.3390 H   0  0  0  0  0  0  0  0  0  0  0  0
   -4.1621   20.6129  -33.8829 H   0  0  0  0  0  0  0  0  0  0  0  0
   -7.8233   18.4662  -32.8861 H   0  0  0  0  0  0  0  0  0  0  0  0
   -8.3890   20.2214  -31.1648 H   0  0  0  0  0  0  0  0  0  0  0  0
  1  2  1  0
  2  3  1  0
  3  4  1  0
  4  5  1  0
  4  6  2  0
  4  7  2  0
  3  8  2  0
  8  9  1  0
  9 10  2  0
 10 11  1  0
 11 12  1  0
 11 13  2  0
 13 14  1  0
 14 15  2  0
 15  2  1  0
 15  9  1  0
  1 16  1  0
  1 17  1  0
  1 18  1  0
  5 19  1  0
  5 20  1  0
  5 21  1  0
  8 22  1  0
 10 23  1  0
 13 24  1  0
 14 25  1  0
M  CHG  1   8   1
M  END
>  <UniqueID>  (31) 
31

>  <SMILES>  (31) 
Cn1c(S(C)(=O)=O)[nH+]c2cc(Br)ccc21

>  <Energy>  (31) 
61.06059892568435

>  <Genealogy>  (31) 
Cn1c(S(C)(=O)=O)[nH+]c2cc(Br)ccc21 (protonated)
Cn1c(S(C)(=O)=O)[nH+]c2cc(Br)ccc21 (3D coordinates assigned)
Cn1c(S(C)(=O)=O)[nH+]c2cc(Br)ccc21 (optimized conformer: 61.06059892568435 kcal/mol)

>  <smiles>  (31) 
Cn1c(S(C)(=O)=O)nc2cc(Br)ccc21

>  <score_type>  (31) 
oracle

>  <origin>  (31) 
adg

>  <m_score__min__energy>  (31) 
-6.4299999999999997

>  <m_primary>  (31) 
energy

$$$$
31:0
     RDKit          3D

 51 52  0  0  0  0  0  0  0  0999 V2000
   -6.1280   19.1020  -34.0280 C   0  0  0  0  0  0  0  0  0  0  0  0
   -7.1570   20.0980  -33.4980 C   0  0  0  0  0  0  0  0  0  0  0  0
   -7.8290   19.5710  -32.2900 N   0  0  0  0  0  0  0  0  0  0  0  0
   -7.6630   18.1150  -32.0910 C   0  0  0  0  0  0  0  0  0  0  0  0
   -6.4930   17.7460  -31.1750 C   0  0  0  0  0  0  0  0  0  0  0  0
   -9.1890   20.0900  -31.9960 C   0  0  0  0  0  0  0  0  0  0  0  0
   -9.2530   21.5900  -31.6400 C   0  0  0  0  0  0  0  0  0  0  0  0
   -8.0310   21.9950  -30.9310 N   0  0  0  0  0  0  0  0  0  0  0  0
   -7.3980   23.1540  -31.5750 C   0  0  0  0  0  0  0  0  0  0  0  0
   -5.9070   23.0730  -31.4000 C   0  0  0  0  0  0  0  0  0  0  0  0
   -5.1660   22.1030  -32.0910 C   0  0  0  0  0  0  0  0  0  0  0  0
   -3.7770   22.0550  -31.9600 C   0  0  0  0  0  0  0  0  0  0  0  0
   -3.1160   22.9860  -31.1540 C   0  0  0  0  0  0  0  0  0  0  0  0
   -3.8360   23.9770  -30.4770 C   0  0  0  0  0  0  0  0  0  0  0  0
   -3.1190   24.9060  -29.7030 O   0  0  0  0  0  0  0  0  0  0  0  0
   -2.7260   24.7180  -28.3430 C   0  0  0  0  0  0  0  0  0  0  0  0
   -2.1580   23.3380  -28.1360 C   0  0  0  0  0  0  0  0  0  0  0  0
   -0.7990   23.0900  -28.3910 C   0  0  0  0  0  0  0  0  0  0  0  0
   -0.2680   21.8110  -28.1990 C   0  0  0  0  0  0  0  0  0  0  0  0
   -1.0900   20.7700  -27.7580 C   0  0  0  0  0  0  0  0  0  0  0  0
   -2.4460   21.0040  -27.5150 C   0  0  0  0  0  0  0  0  0  0  0  0
   -3.2430   19.9940  -27.0900 F   0  0  0  0  0  0  0  0  0  0  0  0
   -2.9820   22.2820  -27.7080 C   0  0  0  0  0  0  0  0  0  0  0  0
   -5.2390   24.0120  -30.5990 C   0  0  0  0  0  0  0  0  0  0  0  0
   -5.6223   18.6125  -33.1826 H   0  0  0  0  0  0  0  0  0  0  0  0
   -6.6349   18.3427  -34.6416 H   0  0  0  0  0  0  0  0  0  0  0  0
   -5.3856   19.6334  -34.6416 H   0  0  0  0  0  0  0  0  0  0  0  0
   -6.6490   21.0404  -33.2452 H   0  0  0  0  0  0  0  0  0  0  0  0
   -7.9156   20.2670  -34.2764 H   0  0  0  0  0  0  0  0  0  0  0  0
   -8.5885   17.7177  -31.6487 H   0  0  0  0  0  0  0  0  0  0  0  0
   -7.4472   17.6793  -33.0777 H   0  0  0  0  0  0  0  0  0  0  0  0
   -6.8045   17.8443  -30.1246 H   0  0  0  0  0  0  0  0  0  0  0  0
   -6.1871   16.7078  -31.3711 H   0  0  0  0  0  0  0  0  0  0  0  0
   -5.6468   18.4209  -31.3711 H   0  0  0  0  0  0  0  0  0  0  0  0
   -9.8169   19.9231  -32.8836 H   0  0  0  0  0  0  0  0  0  0  0  0
   -9.5383   19.5479  -31.1049 H   0  0  0  0  0  0  0  0  0  0  0  0
   -9.3494   22.1791  -32.5639 H   0  0  0  0  0  0  0  0  0  0  0  0
  -10.1218   21.7681  -30.9892 H   0  0  0  0  0  0  0  0  0  0  0  0
   -7.3520   21.1980  -30.9800 H   0  0  0  0  0  0  0  0  0  0  0  0
   -7.6416   23.1557  -32.6477 H   0  0  0  0  0  0  0  0  0  0  0  0
   -7.7715   24.0795  -31.1124 H   0  0  0  0  0  0  0  0  0  0  0  0
   -5.6810   21.3778  -32.7382 H   0  0  0  0  0  0  0  0  0  0  0  0
   -3.2017   21.2830  -32.4921 H   0  0  0  0  0  0  0  0  0  0  0  0
   -2.0218   22.9395  -31.0510 H   0  0  0  0  0  0  0  0  0  0  0  0
   -1.9622   25.4653  -28.0818 H   0  0  0  0  0  0  0  0  0  0  0  0
   -3.6114   24.8348  -27.7008 H   0  0  0  0  0  0  0  0  0  0  0  0
   -0.1500   23.9054  -28.7432 H   0  0  0  0  0  0  0  0  0  0  0  0
    0.7980   21.6237  -28.3952 H   0  0  0  0  0  0  0  0  0  0  0  0
   -0.6691   19.7658  -27.6021 H   0  0  0  0  0  0  0  0  0  0  0  0
   -4.0516   22.4612  -27.5243 H   0  0  0  0  0  0  0  0  0  0  0  0
   -5.8149   24.7806  -30.0627 H   0  0  0  0  0  0  0  0  0  0  0  0
  1  2  1  0
  2  3  1  0
  3  4  1  0
  4  5  1  0
  3  6  1  0
  6  7  1  0
  7  8  1  0
  8  9  1  0
  9 10  1  0
 10 11  2  0
 11 12  1  0
 12 13  2  0
 13 14  1  0
 14 15  1  0
 15 16  1  0
 16 17  1  0
 17 18  2  0
 18 19  1  0
 19 20  2  0
 20 21  1  0
 21 22  1  0
 21 23  2  0
 14 24  2  0
 24 10  1  0
 23 17  1  0
  1 25  1  0
  1 26  1  0
  1 27  1  0
  2 28  1  0
  2 29  1  0
  4 30  1  0
  4 31  1  0
  5 32  1  0
  5 33  1  0
  5 34  1  0
  6 35  1  0
  6 36  1  0
  7 37  1  0
  7 38  1  0
  8 39  1  0
  9 40  1  0
  9 41  1  0
 11 42  1  0
 12 43  1  0
 13 44  1  0
 16 45  1  0
 16 46  1  0
 18 47  1  0
 19 48  1  0
 20 49  1  0
 23 50  1  0
 24 51  1  0
M  END
>  <UniqueID>  (32) 
32

>  <SMILES>  (32) 
CCN(CC)CCNCc1cccc(OCc2cccc(F)c2)c1

>  <Energy>  (32) 
53.00688369575965

>  <Genealogy>  (32) 
CCN(CC)CCNCc1cccc(OCc2cccc(F)c2)c1 (3D coordinates assigned)
CCN(CC)CCNCc1cccc(OCc2cccc(F)c2)c1 (optimized conformer: 53.00688369575965 kcal/mol)

>  <smiles>  (32) 
CCN(CC)CCNCc1cccc(OCc2cccc(F)c2)c1

>  <score_type>  (32) 
oracle

>  <origin>  (32) 
adg

>  <m_score__min__energy>  (32) 
-7.5999999999999996

>  <m_primary>  (32) 
energy

$$$$
32:0
     RDKit          3D

 41 42  0  0  0  0  0  0  0  0999 V2000
   -3.6630   21.2490  -33.3480 C   0  0  0  0  0  0  0  0  0  0  0  0
   -4.1080   20.7750  -31.9690 C   0  0  0  0  0  0  0  0  0  0  0  0
   -5.3860   21.3830  -31.6110 N   0  0  0  0  0  0  0  0  0  0  0  0
   -5.4440   22.7170  -31.0930 C   0  0  0  0  0  0  0  0  0  0  0  0
   -4.2610   23.3200  -30.6420 C   0  0  0  0  0  0  0  0  0  0  0  0
   -4.2740   24.6360  -30.1450 C   0  0  0  0  0  0  0  0  0  0  0  0
   -3.1110   25.2810  -29.6950 O   0  0  0  0  0  0  0  0  0  0  0  0
   -2.2830   24.8030  -28.6410 C   0  0  0  0  0  0  0  0  0  0  0  0
   -5.4820   25.3340  -30.0940 C   0  0  0  0  0  0  0  0  0  0  0  0
   -6.6680   24.7340  -30.5210 C   0  0  0  0  0  0  0  0  0  0  0  0
   -6.6670   23.4200  -31.0160 C   0  0  0  0  0  0  0  0  0  0  0  0
   -7.9840   22.7690  -31.3940 C   0  0  0  0  0  0  0  0  0  0  0  0
   -8.1510   21.4410  -30.7770 N   0  0  0  0  0  0  0  0  0  0  0  0
   -8.8960   20.5030  -31.6300 C   0  0  0  0  0  0  0  0  0  0  0  0
   -7.9570   19.5810  -32.3620 C   0  0  0  0  0  0  0  0  0  0  0  0
   -7.8100   18.2480  -31.9530 C   0  0  0  0  0  0  0  0  0  0  0  0
   -6.9300   17.4030  -32.6300 C   0  0  0  0  0  0  0  0  0  0  0  0
   -6.2050   17.8980  -33.7170 C   0  0  0  0  0  0  0  0  0  0  0  0
   -6.3600   19.1920  -34.1040 N   0  0  0  0  0  0  0  0  0  0  0  0
   -7.2100   20.0350  -33.4590 C   0  0  0  0  0  0  0  0  0  0  0  0
   -2.9139   22.0469  -33.2374 H   0  0  0  0  0  0  0  0  0  0  0  0
   -3.2222   20.4063  -33.9008 H   0  0  0  0  0  0  0  0  0  0  0  0
   -4.5318   21.6358  -33.9008 H   0  0  0  0  0  0  0  0  0  0  0  0
   -4.2174   19.6805  -31.9796 H   0  0  0  0  0  0  0  0  0  0  0  0
   -3.3512   21.0715  -31.2278 H   0  0  0  0  0  0  0  0  0  0  0  0
   -6.1760   20.7380  -31.3790 H   0  0  0  0  0  0  0  0  0  0  0  0
   -3.3152   22.7594  -30.6771 H   0  0  0  0  0  0  0  0  0  0  0  0
   -2.7349   25.0639  -27.6726 H   0  0  0  0  0  0  0  0  0  0  0  0
   -2.1861   23.7100  -28.7178 H   0  0  0  0  0  0  0  0  0  0  0  0
   -1.2880   25.2656  -28.7178 H   0  0  0  0  0  0  0  0  0  0  0  0
   -5.4995   26.3661  -29.7139 H   0  0  0  0  0  0  0  0  0  0  0  0
   -7.6122   25.2959  -30.4692 H   0  0  0  0  0  0  0  0  0  0  0  0
   -8.8074   23.4188  -31.0625 H   0  0  0  0  0  0  0  0  0  0  0  0
   -7.9912   22.6352  -32.4858 H   0  0  0  0  0  0  0  0  0  0  0  0
   -8.6590   21.5400  -29.8690 H   0  0  0  0  0  0  0  0  0  0  0  0
   -9.5721   19.9042  -31.0020 H   0  0  0  0  0  0  0  0  0  0  0  0
   -9.4698   21.0803  -32.3699 H   0  0  0  0  0  0  0  0  0  0  0  0
   -8.3887   17.8682  -31.0981 H   0  0  0  0  0  0  0  0  0  0  0  0
   -6.8082   16.3573  -32.3111 H   0  0  0  0  0  0  0  0  0  0  0  0
   -5.5091   17.2410  -34.2594 H   0  0  0  0  0  0  0  0  0  0  0  0
   -7.3121   21.0763  -33.7986 H   0  0  0  0  0  0  0  0  0  0  0  0
  1  2  1  0
  2  3  1  0
  3  4  1  0
  4  5  2  0
  5  6  1  0
  6  7  1  0
  7  8  1  0
  6  9  2  0
  9 10  1  0
 10 11  2  0
 11 12  1  0
 12 13  1  0
 13 14  1  0
 14 15  1  0
 15 16  2  0
 16 17  1  0
 17 18  2  0
 18 19  1  0
 19 20  2  0
 11  4  1  0
 20 15  1  0
  1 21  1  0
  1 22  1  0
  1 23  1  0
  2 24  1  0
  2 25  1  0
  3 26  1  0
  5 27  1  0
  8 28  1  0
  8 29  1  0
  8 30  1  0
  9 31  1  0
 10 32  1  0
 12 33  1  0
 12 34  1  0
 13 35  1  0
 14 36  1  0
 14 37  1  0
 16 38  1  0
 17 39  1  0
 18 40  1  0
 20 41  1  0
M  END
>  <UniqueID>  (33) 
33

>  <SMILES>  (33) 
CCNc1cc(OC)ccc1CNCc1cccnc1

>  <Energy>  (33) 
43.71980773117057

>  <Genealogy>  (33) 
CCNc1cc(OC)ccc1CNCc1cccnc1 (3D coordinates assigned)
CCNc1cc(OC)ccc1CNCc1cccnc1 (optimized conformer: 43.71980773117057 kcal/mol)

>  <smiles>  (33) 
CCNc1cc(OC)ccc1CNCc1cccnc1

>  <score_type>  (33) 
oracle

>  <origin>  (33) 
adg

>  <m_score__min__energy>  (33) 
-6.9800000000000004

>  <m_primary>  (33) 
energy

$$$$
33:0
     RDKit          3D

 57 59  0  0  0  0  0  0  0  0999 V2000
   -6.2020   17.3920  -30.8600 C   0  0  0  0  0  0  0  0  0  0  0  0
   -6.5140   17.0690  -32.1950 O   0  0  0  0  0  0  0  0  0  0  0  0
   -5.3200   16.9230  -32.9350 C   0  0  0  0  0  0  0  0  0  0  0  0
   -5.2810   17.9460  -34.0730 C   0  0  0  0  0  0  0  0  0  0  0  0
   -5.2400   19.3220  -33.5500 N   0  0  0  0  0  0  0  0  0  0  0  0
   -3.9180   19.9800  -33.5020 C   0  0  0  0  0  0  0  0  0  0  0  0
   -4.0060   21.4430  -33.0540 C   0  0  0  0  0  0  0  0  0  0  0  0
   -4.8650   21.5360  -31.8730 N   0  0  0  0  0  0  0  0  0  0  0  0
   -4.2440   21.4740  -30.5410 C   0  0  0  0  0  0  0  0  0  0  0  0
   -3.6690   22.7980  -30.1100 C   0  0  0  0  0  0  0  0  0  0  0  0
   -4.3020   24.0360  -29.9550 C   0  0  0  0  0  0  0  0  0  0  0  0
   -5.7580   24.4040  -30.1400 C   0  0  0  0  0  0  0  0  0  0  0  0
   -6.1160   24.5150  -31.6240 C   0  0  0  0  0  0  0  0  0  0  0  0
   -6.1770   25.6570  -29.3640 C   0  0  0  0  0  0  0  0  0  0  0  0
   -3.4120   24.9230  -29.4630 N   0  0  0  0  0  0  0  0  0  0  0  0
   -2.2490   24.3100  -29.3180 N   0  0  0  0  0  0  0  0  0  0  0  0
   -1.0680   24.9630  -28.7650 C   0  0  0  0  0  0  0  0  0  0  0  0
   -2.3640   23.0210  -29.6940 C   0  0  0  0  0  0  0  0  0  0  0  0
   -1.2790   21.9860  -29.5980 C   0  0  0  0  0  0  0  0  0  0  0  0
   -6.2010   21.0440  -32.0650 C   0  0  0  0  0  0  0  0  0  0  0  0
   -7.2720   21.6710  -31.5020 N   0  0  0  0  0  0  0  0  0  0  0  0
   -8.5320   21.1910  -31.6820 C   0  0  0  0  0  0  0  0  0  0  0  0
   -9.6970   21.8840  -31.0500 C   0  0  0  0  0  0  0  0  0  0  0  0
   -8.7400   20.1160  -32.4830 N   0  0  0  0  0  0  0  0  0  0  0  0
   -7.7080   19.4870  -33.1000 C   0  0  0  0  0  0  0  0  0  0  0  0
   -6.3900   19.9350  -32.9040 C   0  0  0  0  0  0  0  0  0  0  0  0
   -6.8037   16.7691  -30.1818 H   0  0  0  0  0  0  0  0  0  0  0  0
   -5.1333   17.2056  -30.6778 H   0  0  0  0  0  0  0  0  0  0  0  0
   -6.4253   18.4536  -30.6778 H   0  0  0  0  0  0  0  0  0  0  0  0
   -4.4579   17.0838  -32.2710 H   0  0  0  0  0  0  0  0  0  0  0  0
   -5.2800   15.9090  -33.3595 H   0  0  0  0  0  0  0  0  0  0  0  0
   -4.3847   17.7679  -34.6852 H   0  0  0  0  0  0  0  0  0  0  0  0
   -6.1926   17.8298  -34.6776 H   0  0  0  0  0  0  0  0  0  0  0  0
   -3.2771   19.4327  -32.7951 H   0  0  0  0  0  0  0  0  0  0  0  0
   -3.5012   19.9669  -34.5199 H   0  0  0  0  0  0  0  0  0  0  0  0
   -3.0000   21.8128  -32.8067 H   0  0  0  0  0  0  0  0  0  0  0  0
   -4.4288   22.0524  -33.8663 H   0  0  0  0  0  0  0  0  0  0  0  0
   -5.0064   21.1660  -29.8104 H   0  0  0  0  0  0  0  0  0  0  0  0
   -3.4165   20.7510  -30.5915 H   0  0  0  0  0  0  0  0  0  0  0  0
   -6.3390   23.5776  -29.7047 H   0  0  0  0  0  0  0  0  0  0  0  0
   -7.1622   24.8394  -31.7255 H   0  0  0  0  0  0  0  0  0  0  0  0
   -5.4556   25.2506  -32.1065 H   0  0  0  0  0  0  0  0  0  0  0  0
   -5.9875   23.5348  -32.1065 H   0  0  0  0  0  0  0  0  0  0  0  0
   -6.1107   25.4587  -28.2841 H   0  0  0  0  0  0  0  0  0  0  0  0
   -5.5088   26.4907  -29.6254 H   0  0  0  0  0  0  0  0  0  0  0  0
   -7.2123   25.9211  -29.6254 H   0  0  0  0  0  0  0  0  0  0  0  0
   -1.1152   24.9369  -27.6663 H   0  0  0  0  0  0  0  0  0  0  0  0
   -0.1644   24.4363  -29.1058 H   0  0  0  0  0  0  0  0  0  0  0  0
   -1.0336   26.0083  -29.1058 H   0  0  0  0  0  0  0  0  0  0  0  0
   -1.0622   21.7792  -28.5396 H   0  0  0  0  0  0  0  0  0  0  0  0
   -1.6102   21.0607  -30.0921 H   0  0  0  0  0  0  0  0  0  0  0  0
   -0.3703   22.3604  -30.0921 H   0  0  0  0  0  0  0  0  0  0  0  0
   -7.1370   22.5450  -30.9510 H   0  0  0  0  0  0  0  0  0  0  0  0
   -9.6060   21.8299  -29.9551 H   0  0  0  0  0  0  0  0  0  0  0  0
   -9.7118   22.9378  -31.3650 H   0  0  0  0  0  0  0  0  0  0  0  0
  -10.6301   21.3940  -31.3650 H   0  0  0  0  0  0  0  0  0  0  0  0
   -7.9031   18.6249  -33.7548 H   0  0  0  0  0  0  0  0  0  0  0  0
  1  2  1  0
  2  3  1  0
  3  4  1  0
  4  5  1  0
  5  6  1  0
  6  7  1  0
  7  8  1  0
  8  9  1  0
  9 10  1  0
 10 11  1  0
 11 12  1  0
 12 13  1  0
 12 14  1  0
 11 15  2  0
 15 16  1  0
 16 17  1  0
 16 18  1  0
 18 19  1  0
  8 20  1  0
 20 21  2  0
 21 22  1  0
 22 23  1  0
 22 24  2  0
 24 25  1  0
 25 26  2  0
 26  5  1  0
 18 10  2  0
 26 20  1  0
  1 27  1  0
  1 28  1  0
  1 29  1  0
  3 30  1  0
  3 31  1  0
  4 32  1  0
  4 33  1  0
  6 34  1  0
  6 35  1  0
  7 36  1  0
  7 37  1  0
  9 38  1  0
  9 39  1  0
 12 40  1  0
 13 41  1  0
 13 42  1  0
 13 43  1  0
 14 44  1  0
 14 45  1  0
 14 46  1  0
 17 47  1  0
 17 48  1  0
 17 49  1  0
 19 50  1  0
 19 51  1  0
 19 52  1  0
 21 53  1  0
 23 54  1  0
 23 55  1  0
 23 56  1  0
 25 57  1  0
M  CHG  1  21   1
M  END
>  <UniqueID>  (34) 
34

>  <SMILES>  (34) 
COCCN1CCN(Cc2c(C(C)C)nn(C)c2C)c2[nH+]c(C)ncc21

>  <Energy>  (34) 
87.40446536825117

>  <Genealogy>  (34) 
COCCN1CCN(Cc2c(C(C)C)nn(C)c2C)c2[nH+]c(C)ncc21 (protonated)
COCCN1CCN(Cc2c(C(C)C)nn(C)c2C)c2[nH+]c(C)ncc21 (3D coordinates assigned)
COCCN1CCN(Cc2c(C(C)C)nn(C)c2C)c2[nH+]c(C)ncc21 (nonaromatic ring conformer: 87.40446536825117 kcal/mol)

>  <smiles>  (34) 
COCCN1CCN(Cc2c(C(C)C)nn(C)c2C)c2nc(C)ncc21

>  <score_type>  (34) 
oracle

>  <origin>  (34) 
adg

>  <m_score__min__energy>  (34) 
-7.29

>  <m_primary>  (34) 
energy

$$$$
34:0
     RDKit          3D

 74 78  0  0  0  0  0  0  0  0999 V2000
   -0.1590   23.6720  -28.7340 C   0  0  0  0  0  0  0  0  0  0  0  0
   -1.5550   23.8730  -29.3280 C   0  0  0  0  0  0  0  0  0  0  0  0
   -2.4220   24.6730  -28.4310 N   0  0  0  0  0  0  0  0  0  0  0  0
   -1.6530   25.3830  -27.3890 C   0  0  0  0  0  0  0  0  0  0  0  0
   -2.4200   25.3720  -26.0670 C   0  0  0  0  0  0  0  0  0  0  0  0
   -3.6370   23.9830  -27.9240 C   0  0  0  0  0  0  0  0  0  0  0  0
   -4.7860   23.7760  -28.9440 C   0  0  0  0  0  0  0  0  0  0  0  0
   -5.0440   24.9550  -29.8950 C   0  0  0  0  0  0  0  0  0  0  0  0
   -4.9910   24.5280  -31.3010 N   0  0  0  0  0  0  0  0  0  0  0  0
   -4.3050   23.2350  -31.4440 C   0  0  0  0  0  0  0  0  0  0  0  0
   -4.7660   22.5120  -32.7170 C   0  0  0  0  0  0  0  0  0  0  0  0
   -5.6850   21.4150  -32.3820 N   0  0  0  0  0  0  0  0  0  0  0  0
   -5.5010   20.0770  -32.5720 C   0  0  0  0  0  0  0  0  0  0  0  0
   -6.6960   19.4050  -32.5310 C   0  0  0  0  0  0  0  0  0  0  0  0
   -7.6560   20.3370  -32.2130 C   0  0  0  0  0  0  0  0  0  0  0  0
   -9.0380   20.2180  -32.0620 C   0  0  0  0  0  0  0  0  0  0  0  0
   -9.7700   21.3870  -31.7980 C   0  0  0  0  0  0  0  0  0  0  0  0
   -9.1160   22.6350  -31.6980 C   0  0  0  0  0  0  0  0  0  0  0  0
   -7.7230   22.7270  -31.8690 C   0  0  0  0  0  0  0  0  0  0  0  0
   -7.0100   21.5500  -32.1270 C   0  0  0  0  0  0  0  0  0  0  0  0
   -6.8170   17.9680  -32.9080 C   0  0  0  0  0  0  0  0  0  0  0  0
   -5.8110   17.6400  -34.0320 C   0  0  0  0  0  0  0  0  0  0  0  0
   -4.4400   18.1650  -33.7630 N   0  0  0  0  0  0  0  0  0  0  0  0
   -4.2690   19.3440  -32.9350 C   0  0  0  0  0  0  0  0  0  0  0  0
   -3.0760   19.5850  -32.3420 C   0  0  0  0  0  0  0  0  0  0  0  0
   -2.9560   20.3760  -31.0890 C   0  0  0  0  0  0  0  0  0  0  0  0
   -3.8880   20.3560  -30.2390 O   0  0  0  0  0  0  0  0  0  0  0  0
   -1.8270   21.1740  -30.8690 O   0  0  0  0  0  0  0  0  0  0  0  0
   -0.6540   20.6880  -30.2350 C   0  0  0  0  0  0  0  0  0  0  0  0
   -1.7980   19.0480  -32.9380 C   0  0  0  0  0  0  0  0  0  0  0  0
   -1.9880   17.8960  -33.8870 C   0  0  0  0  0  0  0  0  0  0  0  0
   -0.8510   17.2500  -34.3970 C   0  0  0  0  0  0  0  0  0  0  0  0
   -0.9800   16.2150  -35.3280 C   0  0  0  0  0  0  0  0  0  0  0  0
   -2.2440   15.8470  -35.7890 C   0  0  0  0  0  0  0  0  0  0  0  0
   -3.3820   16.5010  -35.3070 C   0  0  0  0  0  0  0  0  0  0  0  0
   -3.2730   17.5160  -34.3250 C   0  0  0  0  0  0  0  0  0  0  0  0
   -0.2230   23.6812  -27.6359 H   0  0  0  0  0  0  0  0  0  0  0  0
    0.2467   22.7062  -29.0696 H   0  0  0  0  0  0  0  0  0  0  0  0
    0.5027   24.4841  -29.0696 H   0  0  0  0  0  0  0  0  0  0  0  0
   -1.4607   24.3951  -30.2916 H   0  0  0  0  0  0  0  0  0  0  0  0
   -2.0176   22.8837  -29.4595 H   0  0  0  0  0  0  0  0  0  0  0  0
   -0.6826   24.8840  -27.2502 H   0  0  0  0  0  0  0  0  0  0  0  0
   -1.4977   26.4251  -27.7051 H   0  0  0  0  0  0  0  0  0  0  0  0
   -1.7071   25.3822  -25.2294 H   0  0  0  0  0  0  0  0  0  0  0  0
   -3.0653   26.2610  -26.0101 H   0  0  0  0  0  0  0  0  0  0  0  0
   -3.0396   24.4649  -26.0101 H   0  0  0  0  0  0  0  0  0  0  0  0
   -3.3312   22.9917  -27.5580 H   0  0  0  0  0  0  0  0  0  0  0  0
   -4.0489   24.6463  -27.1492 H   0  0  0  0  0  0  0  0  0  0  0  0
   -4.5426   22.8943  -29.5550 H   0  0  0  0  0  0  0  0  0  0  0  0
   -5.7033   23.6614  -28.3478 H   0  0  0  0  0  0  0  0  0  0  0  0
   -6.0392   25.3738  -29.6849 H   0  0  0  0  0  0  0  0  0  0  0  0
   -4.2616   25.7108  -29.7317 H   0  0  0  0  0  0  0  0  0  0  0  0
   -5.9730   24.3930  -31.6330 H   0  0  0  0  0  0  0  0  0  0  0  0
   -3.2199   23.4065  -31.4994 H   0  0  0  0  0  0  0  0  0  0  0  0
   -4.5492   22.6079  -30.5739 H   0  0  0  0  0  0  0  0  0  0  0  0
   -5.2815   23.2283  -33.3736 H   0  0  0  0  0  0  0  0  0  0  0  0
   -3.8856   22.0950  -33.2278 H   0  0  0  0  0  0  0  0  0  0  0  0
   -9.5373   19.2415  -32.1469 H   0  0  0  0  0  0  0  0  0  0  0  0
  -10.8608   21.3304  -31.6681 H   0  0  0  0  0  0  0  0  0  0  0  0
   -9.7007   23.5420  -31.4847 H   0  0  0  0  0  0  0  0  0  0  0  0
   -7.2080   23.6967  -31.8019 H   0  0  0  0  0  0  0  0  0  0  0  0
   -6.6028   17.3402  -32.0305 H   0  0  0  0  0  0  0  0  0  0  0  0
   -7.8388   17.7688  -33.2633 H   0  0  0  0  0  0  0  0  0  0  0  0
   -5.7521   16.5470  -34.1410 H   0  0  0  0  0  0  0  0  0  0  0  0
   -6.1742   18.1267  -34.9492 H   0  0  0  0  0  0  0  0  0  0  0  0
   -0.7790   20.7398  -29.1433 H   0  0  0  0  0  0  0  0  0  0  0  0
   -0.4807   19.6440  -30.5351 H   0  0  0  0  0  0  0  0  0  0  0  0
    0.2069   21.3035  -30.5351 H   0  0  0  0  0  0  0  0  0  0  0  0
   -1.3037   19.8650  -33.4840 H   0  0  0  0  0  0  0  0  0  0  0  0
   -1.1977   18.6664  -32.0990 H   0  0  0  0  0  0  0  0  0  0  0  0
    0.1495   17.5605  -34.0615 H   0  0  0  0  0  0  0  0  0  0  0  0
   -0.0856   15.6914  -35.6966 H   0  0  0  0  0  0  0  0  0  0  0  0
   -2.3456   15.0421  -36.5319 H   0  0  0  0  0  0  0  0  0  0  0  0
   -4.3734   16.2241  -35.6949 H   0  0  0  0  0  0  0  0  0  0  0  0
  1  2  1  0
  2  3  1  0
  3  4  1  0
  4  5  1  0
  3  6  1  0
  6  7  1  0
  7  8  1  0
  8  9  1  0
  9 10  1  0
 10 11  1  0
 11 12  1  0
 12 13  1  0
 13 14  2  0
 14 15  1  0
 15 16  2  0
 16 17  1  0
 17 18  2  0
 18 19  1  0
 19 20  2  0
 14 21  1  0
 21 22  1  0
 22 23  1  0
 23 24  1  0
 24 25  2  0
 25 26  1  0
 26 27  2  0
 26 28  1  0
 28 29  1  0
 25 30  1  0
 30 31  1  0
 31 32  2  0
 32 33  1  0
 33 34  2  0
 34 35  1  0
 35 36  2  0
 20 12  1  0
 36 23  1  0
 24 13  1  0
 36 31  1  0
 20 15  1  0
  1 37  1  0
  1 38  1  0
  1 39  1  0
  2 40  1  0
  2 41  1  0
  4 42  1  0
  4 43  1  0
  5 44  1  0
  5 45  1  0
  5 46  1  0
  6 47  1  0
  6 48  1  0
  7 49  1  0
  7 50  1  0
  8 51  1  0
  8 52  1  0
  9 53  1  0
 10 54  1  0
 10 55  1  0
 11 56  1  0
 11 57  1  0
 16 58  1  0
 17 59  1  0
 18 60  1  0
 19 61  1  0
 21 62  1  0
 21 63  1  0
 22 64  1  0
 22 65  1  0
 29 66  1  0
 29 67  1  0
 29 68  1  0
 30 69  1  0
 30 70  1  0
 32 71  1  0
 33 72  1  0
 34 73  1  0
 35 74  1  0
M  END
>  <UniqueID>  (35) 
35

>  <SMILES>  (35) 
CCN(CC)CCCNCCn1c2c(c3ccccc31)CCN1C2=C(C(=O)OC)Cc2ccccc21

>  <Energy>  (35) 
135.41199132435372

>  <Genealogy>  (35) 
CCN(CC)CCCNCCn1c2c(c3ccccc31)CCN1C2=C(C(=O)OC)Cc2ccccc21 (3D coordinates assigned)
CCN(CC)CCCNCCn1c2c(c3ccccc31)CCN1C2=C(C(=O)OC)Cc2ccccc21 (nonaromatic ring conformer: 135.41199132435372 kcal/mol)

>  <smiles>  (35) 
CCN(CC)CCCNCCn1c2c(c3ccccc31)CCN1C2=C(C(=O)OC)Cc2ccccc21

>  <score_type>  (35) 
oracle

>  <origin>  (35) 
adg

>  <m_score__min__energy>  (35) 
-9.3399999999999999

>  <m_primary>  (35) 
energy

$$$$
