0:0
     RDKit          3D

 52 54  0  0  0  0  0  0  0  0999 V2000
   -3.6420   22.5150  -29.2340 C   0  0  0  0  0  0  0  0  0  0  0  0
   -2.6270   23.4510  -29.8780 C   0  0  0  0  0  0  0  0  0  0  0  0
   -3.3190   24.6020  -30.4700 N   0  0  0  0  0  0  0  0  0  0  0  0
   -4.6350   24.8520  -29.8600 C   0  0  0  0  0  0  0  0  0  0  0  0
   -5.7370   25.2670  -30.8610 C   0  0  0  0  0  0  0  0  0  0  0  0
   -6.9180   24.2840  -30.9900 C   0  0  0  0  0  0  0  0  0  0  0  0
   -6.5020   22.8060  -30.9970 C   0  0  0  0  0  0  0  0  0  0  0  0
   -6.0700   22.3720  -32.3260 N   0  0  0  0  0  0  0  0  0  0  0  0
   -5.8290   20.9840  -32.5880 C   0  0  0  0  0  0  0  0  0  0  0  0
   -4.5590   20.5440  -33.0140 C   0  0  0  0  0  0  0  0  0  0  0  0
   -4.3830   19.1770  -33.3540 C   0  0  0  0  0  0  0  0  0  0  0  0
   -5.4620   18.3120  -33.3420 N   0  0  0  0  0  0  0  0  0  0  0  0
   -5.3350   16.9600  -33.9290 C   0  0  0  0  0  0  0  0  0  0  0  0
   -6.6570   18.7000  -32.7670 C   0  0  0  0  0  0  0  0  0  0  0  0
   -7.7030   17.7730  -32.5160 C   0  0  0  0  0  0  0  0  0  0  0  0
   -8.9170   18.1890  -31.9690 C   0  0  0  0  0  0  0  0  0  0  0  0
   -9.1180   19.5260  -31.6480 C   0  0  0  0  0  0  0  0  0  0  0  0
   -8.1000   20.4530  -31.8540 C   0  0  0  0  0  0  0  0  0  0  0  0
   -6.8620   20.0540  -32.4020 C   0  0  0  0  0  0  0  0  0  0  0  0
   -3.0040   18.6900  -33.7970 C   0  0  0  0  0  0  0  0  0  0  0  0
   -1.8600   19.5550  -33.2680 C   0  0  0  0  0  0  0  0  0  0  0  0
   -2.0830   21.0130  -33.6410 C   0  0  0  0  0  0  0  0  0  0  0  0
   -3.3930   21.4790  -33.0890 C   0  0  0  0  0  0  0  0  0  0  0  0
   -3.4820   22.6750  -32.7010 O   0  0  0  0  0  0  0  0  0  0  0  0
   -3.5640   22.5869  -28.1391 H   0  0  0  0  0  0  0  0  0  0  0  0
   -4.6563   22.8014  -29.5489 H   0  0  0  0  0  0  0  0  0  0  0  0
   -3.4386   21.4809  -29.5489 H   0  0  0  0  0  0  0  0  0  0  0  0
   -1.9191   23.8039  -29.1136 H   0  0  0  0  0  0  0  0  0  0  0  0
   -2.0821   22.9099  -30.6656 H   0  0  0  0  0  0  0  0  0  0  0  0
   -3.4200   24.4660  -31.5010 H   0  0  0  0  0  0  0  0  0  0  0  0
   -4.9597   23.9309  -29.3540 H   0  0  0  0  0  0  0  0  0  0  0  0
   -4.5042   25.6986  -29.1700 H   0  0  0  0  0  0  0  0  0  0  0  0
   -6.1385   26.2394  -30.5397 H   0  0  0  0  0  0  0  0  0  0  0  0
   -5.2546   25.2924  -31.8493 H   0  0  0  0  0  0  0  0  0  0  0  0
   -7.5987   24.4478  -30.1416 H   0  0  0  0  0  0  0  0  0  0  0  0
   -7.3951   24.4851  -31.9605 H   0  0  0  0  0  0  0  0  0  0  0  0
   -5.6720   22.6659  -30.2889 H   0  0  0  0  0  0  0  0  0  0  0  0
   -7.3745   22.2027  -30.7058 H   0  0  0  0  0  0  0  0  0  0  0  0
   -5.9030   23.0600  -33.0950 H   0  0  0  0  0  0  0  0  0  0  0  0
   -5.2650   16.2152  -33.1225 H   0  0  0  0  0  0  0  0  0  0  0  0
   -6.2170   16.7458  -34.5505 H   0  0  0  0  0  0  0  0  0  0  0  0
   -4.4286   16.9138  -34.5505 H   0  0  0  0  0  0  0  0  0  0  0  0
   -7.5536   16.7101  -32.7567 H   0  0  0  0  0  0  0  0  0  0  0  0
   -9.7179   17.4562  -31.7912 H   0  0  0  0  0  0  0  0  0  0  0  0
  -10.0822   19.8521  -31.2308 H   0  0  0  0  0  0  0  0  0  0  0  0
   -8.2622   21.5077  -31.5868 H   0  0  0  0  0  0  0  0  0  0  0  0
   -2.8625   17.6621  -33.4318 H   0  0  0  0  0  0  0  0  0  0  0  0
   -2.9751   18.7466  -34.8952 H   0  0  0  0  0  0  0  0  0  0  0  0
   -1.8129   19.4639  -32.1728 H   0  0  0  0  0  0  0  0  0  0  0  0
   -0.9158   19.2119  -33.7161 H   0  0  0  0  0  0  0  0  0  0  0  0
   -1.2710   21.6259  -33.2227 H   0  0  0  0  0  0  0  0  0  0  0  0
   -2.0930   21.1117  -34.7365 H   0  0  0  0  0  0  0  0  0  0  0  0
  1  2  1  0
  2  3  1  0
  3  4  1  0
  4  5  1  0
  5  6  1  0
  6  7  1  0
  7  8  1  0
  8  9  1  0
  9 10  2  0
 10 11  1  0
 11 12  2  0
 12 13  1  0
 12 14  1  0
 14 15  2  0
 15 16  1  0
 16 17  2  0
 17 18  1  0
 18 19  2  0
 11 20  1  0
 20 21  1  0
 21 22  1  0
 22 23  1  0
 23 24  2  0
 19  9  1  0
 23 10  1  0
 19 14  1  0
  1 25  1  0
  1 26  1  0
  1 27  1  0
  2 28  1  0
  2 29  1  0
  3 30  1  0
  4 31  1  0
  4 32  1  0
  5 33  1  0
  5 34  1  0
  6 35  1  0
  6 36  1  0
  7 37  1  0
  7 38  1  0
  8 39  1  0
 13 40  1  0
 13 41  1  0
 13 42  1  0
 15 43  1  0
 16 44  1  0
 17 45  1  0
 18 46  1  0
 20 47  1  0
 20 48  1  0
 21 49  1  0
 21 50  1  0
 22 51  1  0
 22 52  1  0
M  CHG  1  12   1
M  END
>  <UniqueID>  (1) 
1

>  <SMILES>  (1) 
CCNCCCCNc1c2c([n+](C)c3ccccc13)CCCC2=O

>  <Energy>  (1) 
69.06863968252634

>  <Genealogy>  (1) 
CCNCCCCNc1c2c([n+](C)c3ccccc13)CCCC2=O (3D coordinates assigned)
CCNCCCCNc1c2c([n+](C)c3ccccc13)CCCC2=O (nonaromatic ring conformer: 69.06863968252634 kcal/mol)

>  <smiles>  (1) 
CCNCCCCNc1c2c([n+](C)c3ccccc13)CCCC2=O

>  <score_type>  (1) 
oracle

>  <origin>  (1) 
adg

>  <m_score__min__energy>  (1) 
-9.7300000000000004

>  <m_primary>  (1) 
energy

$$$$
1:0
     RDKit          3D

 37 39  0  0  0  0  0  0  0  0999 V2000
   -6.3570   25.7040  -29.4100 C   0  0  0  0  0  0  0  0  0  0  0  0
   -5.3560   25.5760  -30.5680 C   0  0  0  0  0  0  0  0  0  0  0  0
   -5.3560   24.2540  -31.2340 N   0  0  0  0  0  0  0  0  0  0  0  0
   -6.6750   23.5950  -31.2470 C   0  0  0  0  0  0  0  0  0  0  0  0
   -6.6970   22.4840  -32.3110 C   0  0  0  0  0  0  0  0  0  0  0  0
   -5.3040   21.8470  -32.5210 C   0  0  0  0  0  0  0  0  0  0  0  0
   -5.4130   20.4710  -33.0180 N   0  0  0  0  0  0  0  0  0  0  0  0
   -4.5130   19.9070  -33.8260 N   0  0  0  0  0  0  0  0  0  0  0  0
   -4.9110   18.6310  -34.0720 C   0  0  0  0  0  0  0  0  0  0  0  0
   -4.2360   17.7120  -34.8770 O   0  0  0  0  0  0  0  0  0  0  0  0
   -4.1470   16.3350  -34.5380 C   0  0  0  0  0  0  0  0  0  0  0  0
   -6.0800   18.4090  -33.3960 C   0  0  0  0  0  0  0  0  0  0  0  0
   -7.2340   17.2350  -33.1110 S   0  0  0  0  0  0  0  0  0  0  0  0
   -8.1500   18.2770  -32.1040 C   0  0  0  0  0  0  0  0  0  0  0  0
   -7.5340   19.5360  -32.0070 C   0  0  0  0  0  0  0  0  0  0  0  0
   -6.3640   19.5480  -32.7600 C   0  0  0  0  0  0  0  0  0  0  0  0
   -4.4480   21.9070  -31.2430 C   0  0  0  0  0  0  0  0  0  0  0  0
   -4.2780   23.3610  -30.7500 C   0  0  0  0  0  0  0  0  0  0  0  0
   -5.8204   25.6354  -28.4522 H   0  0  0  0  0  0  0  0  0  0  0  0
   -6.8698   26.6750  -29.4742 H   0  0  0  0  0  0  0  0  0  0  0  0
   -7.0976   24.8933  -29.4742 H   0  0  0  0  0  0  0  0  0  0  0  0
   -5.6010   26.3401  -31.3204 H   0  0  0  0  0  0  0  0  0  0  0  0
   -4.3544   25.7078  -30.1327 H   0  0  0  0  0  0  0  0  0  0  0  0
   -6.8729   23.1562  -30.2579 H   0  0  0  0  0  0  0  0  0  0  0  0
   -7.4486   24.3396  -31.4860 H   0  0  0  0  0  0  0  0  0  0  0  0
   -7.3997   21.7008  -31.9905 H   0  0  0  0  0  0  0  0  0  0  0  0
   -7.0081   22.9362  -33.2643 H   0  0  0  0  0  0  0  0  0  0  0  0
   -4.7905   22.4435  -33.2894 H   0  0  0  0  0  0  0  0  0  0  0  0
   -4.1400   16.2266  -33.4434 H   0  0  0  0  0  0  0  0  0  0  0  0
   -5.0123   15.7983  -34.9541 H   0  0  0  0  0  0  0  0  0  0  0  0
   -3.2198   15.9141  -34.9541 H   0  0  0  0  0  0  0  0  0  0  0  0
   -9.0892   17.9987  -31.6035 H   0  0  0  0  0  0  0  0  0  0  0  0
   -7.9190   20.3851  -31.4232 H   0  0  0  0  0  0  0  0  0  0  0  0
   -4.9383   21.3164  -30.4551 H   0  0  0  0  0  0  0  0  0  0  0  0
   -3.4524   21.4991  -31.4721 H   0  0  0  0  0  0  0  0  0  0  0  0
   -4.2851   23.3636  -29.6500 H   0  0  0  0  0  0  0  0  0  0  0  0
   -3.3257   23.7400  -31.1493 H   0  0  0  0  0  0  0  0  0  0  0  0
  1  2  1  0
  2  3  1  0
  3  4  1  0
  4  5  1  0
  5  6  1  0
  6  7  1  0
  7  8  1  0
  8  9  2  0
  9 10  1  0
 10 11  1  0
  9 12  1  0
 12 13  1  0
 13 14  1  0
 14 15  2  0
 15 16  1  0
  6 17  1  0
 17 18  1  0
 18  3  1  0
 16  7  1  0
 16 12  2  0
  1 19  1  0
  1 20  1  0
  1 21  1  0
  2 22  1  0
  2 23  1  0
  4 24  1  0
  4 25  1  0
  5 26  1  0
  5 27  1  0
  6 28  1  0
 11 29  1  0
 11 30  1  0
 11 31  1  0
 14 32  1  0
 15 33  1  0
 17 34  1  0
 17 35  1  0
 18 36  1  0
 18 37  1  0
M  END
>  <UniqueID>  (2) 
2

>  <SMILES>  (2) 
CCN1CCC(n2nc(OC)c3sccc32)CC1

>  <Energy>  (2) 
124.9592441869965

>  <Genealogy>  (2) 
CCN1CCC(n2nc(OC)c3sccc32)CC1 (3D coordinates assigned)
CCN1CCC(n2nc(OC)c3sccc32)CC1 (nonaromatic ring conformer: 124.9592441869965 kcal/mol)

>  <smiles>  (2) 
CCN1CCC(n2nc(OC)c3sccc32)CC1

>  <score_type>  (2) 
oracle

>  <origin>  (2) 
adg

>  <m_score__min__energy>  (2) 
-6.8200000000000003

>  <m_primary>  (2) 
energy

$$$$
2:0
     RDKit          3D

 67 70  0  0  0  0  0  0  0  0999 V2000
   -2.7110   20.5180  -28.4750 C   0  0  0  0  0  0  0  0  0  0  0  0
   -1.8030   20.8590  -29.6500 C   0  0  0  0  0  0  0  0  0  0  0  0
   -2.1530   20.0840  -30.7820 O   0  0  0  0  0  0  0  0  0  0  0  0
   -1.0050   19.5630  -31.4280 C   0  0  0  0  0  0  0  0  0  0  0  0
   -1.3840   18.5200  -32.4870 C   0  0  0  0  0  0  0  0  0  0  0  0
   -2.7790   18.5160  -32.7340 O   0  0  0  0  0  0  0  0  0  0  0  0
   -3.1200   19.3190  -33.8510 C   0  0  0  0  0  0  0  0  0  0  0  0
   -4.1950   20.3410  -33.4570 C   0  0  0  0  0  0  0  0  0  0  0  0
   -4.2890   20.5240  -31.9900 N   0  0  0  0  0  0  0  0  0  0  0  0
   -5.5640   21.0980  -31.5750 C   0  0  0  0  0  0  0  0  0  0  0  0
   -5.6170   22.4080  -31.0400 C   0  0  0  0  0  0  0  0  0  0  0  0
   -4.4780   23.0190  -30.4660 C   0  0  0  0  0  0  0  0  0  0  0  0
   -4.5480   24.3040  -29.9350 C   0  0  0  0  0  0  0  0  0  0  0  0
   -5.7510   25.0000  -29.9520 C   0  0  0  0  0  0  0  0  0  0  0  0
   -6.8870   24.4220  -30.5180 C   0  0  0  0  0  0  0  0  0  0  0  0
   -6.8370   23.1270  -31.0910 C   0  0  0  0  0  0  0  0  0  0  0  0
   -7.9370   22.5630  -31.7010 N   0  0  0  0  0  0  0  0  0  0  0  0
   -9.0720   23.4170  -32.1140 C   0  0  0  0  0  0  0  0  0  0  0  0
   -7.9820   21.1970  -31.8980 C   0  0  0  0  0  0  0  0  0  0  0  0
   -9.2000   20.5440  -32.2030 C   0  0  0  0  0  0  0  0  0  0  0  0
   -9.2560   19.1670  -32.3600 C   0  0  0  0  0  0  0  0  0  0  0  0
   -8.1280   18.3940  -32.1450 C   0  0  0  0  0  0  0  0  0  0  0  0
   -6.9040   18.9890  -31.7930 C   0  0  0  0  0  0  0  0  0  0  0  0
   -5.8220   18.1830  -31.3920 O   0  0  0  0  0  0  0  0  0  0  0  0
   -5.7270   16.7750  -31.6070 C   0  0  0  0  0  0  0  0  0  0  0  0
   -5.7780   16.4630  -33.1030 C   0  0  0  0  0  0  0  0  0  0  0  0
   -4.4600   16.0440  -33.6010 N   0  0  0  0  0  0  0  0  0  0  0  0
   -3.5980   15.3720  -32.7770 C   0  0  0  0  0  0  0  0  0  0  0  0
   -2.3290   14.9990  -33.2290 C   0  0  0  0  0  0  0  0  0  0  0  0
   -1.9480   15.3110  -34.5320 C   0  0  0  0  0  0  0  0  0  0  0  0
   -2.8380   15.9810  -35.3700 C   0  0  0  0  0  0  0  0  0  0  0  0
   -4.0970   16.3420  -34.8860 C   0  0  0  0  0  0  0  0  0  0  0  0
   -6.7970   20.4130  -31.7680 C   0  0  0  0  0  0  0  0  0  0  0  0
   -2.1808   20.7171  -27.5320 H   0  0  0  0  0  0  0  0  0  0  0  0
   -3.6197   21.1361  -28.5223 H   0  0  0  0  0  0  0  0  0  0  0  0
   -2.9881   19.4545  -28.5223 H   0  0  0  0  0  0  0  0  0  0  0  0
   -1.9101   21.9263  -29.8936 H   0  0  0  0  0  0  0  0  0  0  0  0
   -0.7614   20.6385  -29.3733 H   0  0  0  0  0  0  0  0  0  0  0  0
   -0.4634   20.3872  -31.9151 H   0  0  0  0  0  0  0  0  0  0  0  0
   -0.3735   19.0745  -30.6713 H   0  0  0  0  0  0  0  0  0  0  0  0
   -0.8556   18.7526  -33.4233 H   0  0  0  0  0  0  0  0  0  0  0  0
   -1.0964   17.5266  -32.1123 H   0  0  0  0  0  0  0  0  0  0  0  0
   -2.2241   19.8509  -34.2038 H   0  0  0  0  0  0  0  0  0  0  0  0
   -3.5120   18.6745  -34.6516 H   0  0  0  0  0  0  0  0  0  0  0  0
   -3.9488   21.3086  -33.9187 H   0  0  0  0  0  0  0  0  0  0  0  0
   -5.1649   19.9611  -33.8106 H   0  0  0  0  0  0  0  0  0  0  0  0
   -4.1190   19.5890  -31.5760 H   0  0  0  0  0  0  0  0  0  0  0  0
   -3.5110   21.1360  -31.6530 H   0  0  0  0  0  0  0  0  0  0  0  0
   -3.5242   22.4717  -30.4388 H   0  0  0  0  0  0  0  0  0  0  0  0
   -3.6503   24.7690  -29.5015 H   0  0  0  0  0  0  0  0  0  0  0  0
   -5.8072   26.0092  -29.5180 H   0  0  0  0  0  0  0  0  0  0  0  0
   -7.8353   24.9793  -30.5196 H   0  0  0  0  0  0  0  0  0  0  0  0
   -9.5847   23.8028  -31.2205 H   0  0  0  0  0  0  0  0  0  0  0  0
   -8.6977   24.2593  -32.7143 H   0  0  0  0  0  0  0  0  0  0  0  0
   -9.7777   22.8240  -32.7143 H   0  0  0  0  0  0  0  0  0  0  0  0
  -10.1182   21.1388  -32.3175 H   0  0  0  0  0  0  0  0  0  0  0  0
  -10.2005   18.6874  -32.6565 H   0  0  0  0  0  0  0  0  0  0  0  0
   -8.1902   17.3009  -32.2509 H   0  0  0  0  0  0  0  0  0  0  0  0
   -4.7770   16.4076  -31.1917 H   0  0  0  0  0  0  0  0  0  0  0  0
   -6.5726   16.2786  -31.1085 H   0  0  0  0  0  0  0  0  0  0  0  0
   -6.5018   15.6531  -33.2767 H   0  0  0  0  0  0  0  0  0  0  0  0
   -6.0811   17.3739  -33.6399 H   0  0  0  0  0  0  0  0  0  0  0  0
   -3.9064   15.1235  -31.7508 H   0  0  0  0  0  0  0  0  0  0  0  0
   -1.6374   14.4639  -32.5617 H   0  0  0  0  0  0  0  0  0  0  0  0
   -0.9495   15.0300  -34.8980 H   0  0  0  0  0  0  0  0  0  0  0  0
   -2.5509   16.2233  -36.4039 H   0  0  0  0  0  0  0  0  0  0  0  0
   -4.8030   16.8705  -35.5435 H   0  0  0  0  0  0  0  0  0  0  0  0
  1  2  1  0
  2  3  1  0
  3  4  1  0
  4  5  1  0
  5  6  1  0
  6  7  1  0
  7  8  1  0
  8  9  1  0
  9 10  1  0
 10 11  2  0
 11 12  1  0
 12 13  2  0
 13 14  1  0
 14 15  2  0
 15 16  1  0
 16 17  2  0
 17 18  1  0
 17 19  1  0
 19 20  2  0
 20 21  1  0
 21 22  2  0
 22 23  1  0
 23 24  1  0
 24 25  1  0
 25 26  1  0
 26 27  1  0
 27 28  2  0
 28 29  1  0
 29 30  2  0
 30 31  1  0
 31 32  2  0
 23 33  2  0
 33 10  1  0
 16 11  1  0
 33 19  1  0
 32 27  1  0
  1 34  1  0
  1 35  1  0
  1 36  1  0
  2 37  1  0
  2 38  1  0
  4 39  1  0
  4 40  1  0
  5 41  1  0
  5 42  1  0
  7 43  1  0
  7 44  1  0
  8 45  1  0
  8 46  1  0
  9 47  1  0
  9 48  1  0
 12 49  1  0
 13 50  1  0
 14 51  1  0
 15 52  1  0
 18 53  1  0
 18 54  1  0
 18 55  1  0
 20 56  1  0
 21 57  1  0
 22 58  1  0
 25 59  1  0
 25 60  1  0
 26 61  1  0
 26 62  1  0
 28 63  1  0
 29 64  1  0
 30 65  1  0
 31 66  1  0
 32 67  1  0
M  CHG  3   9   1  17   1  27   1
M  END
>  <UniqueID>  (3) 
3

>  <SMILES>  (3) 
CCOCCOCC[NH2+]c1c2ccccc2[n+](C)c2cccc(OCC[n+]3ccccc3)c12

>  <Energy>  (3) 
102.68787516036555

>  <Genealogy>  (3) 
CCOCCOCC[NH2+]c1c2ccccc2[n+](C)c2cccc(OCC[n+]3ccccc3)c12 (protonated)
CCOCCOCC[NH2+]c1c2ccccc2[n+](C)c2cccc(OCC[n+]3ccccc3)c12 (3D coordinates assigned)
CCOCCOCC[NH2+]c1c2ccccc2[n+](C)c2cccc(OCC[n+]3ccccc3)c12 (optimized conformer: 102.68787516036555 kcal/mol)

>  <smiles>  (3) 
CCOCCOCCNc1c2ccccc2[n+](C)c2cccc(OCC[n+]3ccccc3)c12

>  <score_type>  (3) 
oracle

>  <origin>  (3) 
adg

>  <m_score__min__energy>  (3) 
-7.4900000000000002

>  <m_primary>  (3) 
energy

$$$$
3:0
     RDKit          3D

 53 55  0  0  0  0  0  0  0  0999 V2000
   -2.8550   24.1540  -28.2370 C   0  0  0  0  0  0  0  0  0  0  0  0
   -2.5520   23.8440  -29.7030 C   0  0  0  0  0  0  0  0  0  0  0  0
   -3.7870   23.7180  -30.5150 N   0  0  0  0  0  0  0  0  0  0  0  0
   -4.9820   24.3260  -29.8720 C   0  0  0  0  0  0  0  0  0  0  0  0
   -5.4290   25.6560  -30.4940 C   0  0  0  0  0  0  0  0  0  0  0  0
   -4.0440   22.3170  -30.9280 C   0  0  0  0  0  0  0  0  0  0  0  0
   -3.3480   21.9340  -32.2540 C   0  0  0  0  0  0  0  0  0  0  0  0
   -4.2520   21.7240  -33.4090 N   0  0  0  0  0  0  0  0  0  0  0  0
   -5.4070   20.8810  -33.1160 C   0  0  0  0  0  0  0  0  0  0  0  0
   -6.6200   21.4220  -32.5760 C   0  0  0  0  0  0  0  0  0  0  0  0
   -7.7080   20.5390  -32.2970 C   0  0  0  0  0  0  0  0  0  0  0  0
   -7.5760   19.1790  -32.4840 N   0  0  0  0  0  0  0  0  0  0  0  0
   -8.6270   18.2550  -31.9920 C   0  0  0  0  0  0  0  0  0  0  0  0
   -6.4740   18.6630  -33.1300 C   0  0  0  0  0  0  0  0  0  0  0  0
   -6.4420   17.3080  -33.5570 C   0  0  0  0  0  0  0  0  0  0  0  0
   -5.2960   16.7540  -34.1160 C   0  0  0  0  0  0  0  0  0  0  0  0
   -4.1560   17.5250  -34.2640 C   0  0  0  0  0  0  0  0  0  0  0  0
   -4.1710   18.8690  -33.9030 C   0  0  0  0  0  0  0  0  0  0  0  0
   -5.3430   19.4820  -33.3850 C   0  0  0  0  0  0  0  0  0  0  0  0
   -9.0210   21.0920  -31.7340 C   0  0  0  0  0  0  0  0  0  0  0  0
   -9.2240   22.5850  -31.9540 C   0  0  0  0  0  0  0  0  0  0  0  0
   -8.0000   23.3350  -31.4760 C   0  0  0  0  0  0  0  0  0  0  0  0
   -6.8270   22.8880  -32.2820 C   0  0  0  0  0  0  0  0  0  0  0  0
   -6.0800   23.7890  -32.7410 O   0  0  0  0  0  0  0  0  0  0  0  0
   -2.2325   23.5171  -27.5913 H   0  0  0  0  0  0  0  0  0  0  0  0
   -2.6330   25.2118  -28.0324 H   0  0  0  0  0  0  0  0  0  0  0  0
   -3.9175   23.9562  -28.0324 H   0  0  0  0  0  0  0  0  0  0  0  0
   -1.9368   24.6564  -30.1172 H   0  0  0  0  0  0  0  0  0  0  0  0
   -2.0218   22.8810  -29.7423 H   0  0  0  0  0  0  0  0  0  0  0  0
   -5.8154   23.6123  -29.9503 H   0  0  0  0  0  0  0  0  0  0  0  0
   -4.7012   24.5449  -28.8312 H   0  0  0  0  0  0  0  0  0  0  0  0
   -5.6697   26.3721  -29.6945 H   0  0  0  0  0  0  0  0  0  0  0  0
   -4.6175   26.0607  -31.1167 H   0  0  0  0  0  0  0  0  0  0  0  0
   -6.3202   25.4884  -31.1167 H   0  0  0  0  0  0  0  0  0  0  0  0
   -3.6792   21.6468  -30.1357 H   0  0  0  0  0  0  0  0  0  0  0  0
   -5.1278   22.2176  -31.0879 H   0  0  0  0  0  0  0  0  0  0  0  0
   -2.6466   22.7404  -32.5143 H   0  0  0  0  0  0  0  0  0  0  0  0
   -2.8600   20.9653  -32.0712 H   0  0  0  0  0  0  0  0  0  0  0  0
   -3.7120   21.4290  -34.2440 H   0  0  0  0  0  0  0  0  0  0  0  0
   -4.5970   22.6570  -33.7270 H   0  0  0  0  0  0  0  0  0  0  0  0
   -8.6285   18.2537  -30.8920 H   0  0  0  0  0  0  0  0  0  0  0  0
   -9.6090   18.5876  -32.3596 H   0  0  0  0  0  0  0  0  0  0  0  0
   -8.4229   17.2385  -32.3596 H   0  0  0  0  0  0  0  0  0  0  0  0
   -7.3416   16.6853  -33.4430 H   0  0  0  0  0  0  0  0  0  0  0  0
   -5.2952   15.7030  -34.4407 H   0  0  0  0  0  0  0  0  0  0  0  0
   -3.2370   17.0748  -34.6675 H   0  0  0  0  0  0  0  0  0  0  0  0
   -3.2566   19.4688  -34.0212 H   0  0  0  0  0  0  0  0  0  0  0  0
   -9.8532   20.5576  -32.2155 H   0  0  0  0  0  0  0  0  0  0  0  0
   -8.9834   20.9387  -30.6454 H   0  0  0  0  0  0  0  0  0  0  0  0
   -9.3788   22.7803  -33.0254 H   0  0  0  0  0  0  0  0  0  0  0  0
  -10.1054   22.9229  -31.3893 H   0  0  0  0  0  0  0  0  0  0  0  0
   -8.1517   24.4163  -31.6094 H   0  0  0  0  0  0  0  0  0  0  0  0
   -7.8248   23.1303  -30.4095 H   0  0  0  0  0  0  0  0  0  0  0  0
  1  2  1  0
  2  3  1  0
  3  4  1  0
  4  5  1  0
  3  6  1  0
  6  7  1  0
  7  8  1  0
  8  9  1  0
  9 10  2  0
 10 11  1  0
 11 12  2  0
 12 13  1  0
 12 14  1  0
 14 15  2  0
 15 16  1  0
 16 17  2  0
 17 18  1  0
 18 19  2  0
 11 20  1  0
 20 21  1  0
 21 22  1  0
 22 23  1  0
 23 24  2  0
 19  9  1  0
 23 10  1  0
 19 14  1  0
  1 25  1  0
  1 26  1  0
  1 27  1  0
  2 28  1  0
  2 29  1  0
  4 30  1  0
  4 31  1  0
  5 32  1  0
  5 33  1  0
  5 34  1  0
  6 35  1  0
  6 36  1  0
  7 37  1  0
  7 38  1  0
  8 39  1  0
  8 40  1  0
 13 41  1  0
 13 42  1  0
 13 43  1  0
 15 44  1  0
 16 45  1  0
 17 46  1  0
 18 47  1  0
 20 48  1  0
 20 49  1  0
 21 50  1  0
 21 51  1  0
 22 52  1  0
 22 53  1  0
M  CHG  2   8   1  12   1
M  END
>  <UniqueID>  (4) 
4

>  <SMILES>  (4) 
CCN(CC)CC[NH2+]c1c2c([n+](C)c3ccccc13)CCCC2=O

>  <Energy>  (4) 
83.38242629885778

>  <Genealogy>  (4) 
CCN(CC)CC[NH2+]c1c2c([n+](C)c3ccccc13)CCCC2=O (protonated)
CCN(CC)CC[NH2+]c1c2c([n+](C)c3ccccc13)CCCC2=O (3D coordinates assigned)
CCN(CC)CC[NH2+]c1c2c([n+](C)c3ccccc13)CCCC2=O (nonaromatic ring conformer: 83.38242629885778 kcal/mol)

>  <smiles>  (4) 
CCN(CC)CCNc1c2c([n+](C)c3ccccc13)CCCC2=O

>  <score_type>  (4) 
oracle

>  <origin>  (4) 
adg

>  <m_score__min__energy>  (4) 
-8.3200000000000003

>  <m_primary>  (4) 
energy

$$$$
4:0
     RDKit          3D

 52 52  0  0  0  0  0  0  0  0999 V2000
   -2.6310   25.4160  -25.9890 C   0  0  0  0  0  0  0  0  0  0  0  0
   -3.9380   24.8610  -26.5470 C   0  0  0  0  0  0  0  0  0  0  0  0
   -3.6840   23.6540  -27.4570 C   0  0  0  0  0  0  0  0  0  0  0  0
   -3.2990   24.0970  -28.8060 N   0  0  0  0  0  0  0  0  0  0  0  0
   -1.8910   23.9710  -29.2160 C   0  0  0  0  0  0  0  0  0  0  0  0
   -1.5800   22.5230  -29.6060 C   0  0  0  0  0  0  0  0  0  0  0  0
   -2.3970   22.0890  -30.8180 C   0  0  0  0  0  0  0  0  0  0  0  0
   -4.2660   24.6280  -29.7450 C   0  0  0  0  0  0  0  0  0  0  0  0
   -3.8640   25.1150  -30.8380 O   0  0  0  0  0  0  0  0  0  0  0  0
   -5.6800   24.5990  -29.4690 N   0  0  0  0  0  0  0  0  0  0  0  0
   -6.6840   24.9850  -30.4610 C   0  0  0  0  0  0  0  0  0  0  0  0
   -7.3120   23.7460  -31.1110 C   0  0  0  0  0  0  0  0  0  0  0  0
   -6.2590   22.8680  -31.8080 C   0  0  0  0  0  0  0  0  0  0  0  0
   -6.4500   21.4220  -31.5760 N   0  0  0  0  0  0  0  0  0  0  0  0
   -7.8140   20.9820  -31.2220 C   0  0  0  0  0  0  0  0  0  0  0  0
   -8.5610   20.3360  -32.4000 C   0  0  0  0  0  0  0  0  0  0  0  0
   -7.7610   19.3120  -33.0910 N   0  0  0  0  0  0  0  0  0  0  0  0
   -7.6050   18.0790  -32.3010 C   0  0  0  0  0  0  0  0  0  0  0  0
   -6.4750   19.8610  -33.5510 C   0  0  0  0  0  0  0  0  0  0  0  0
   -5.6570   20.5020  -32.4160 C   0  0  0  0  0  0  0  0  0  0  0  0
   -2.6660   25.4011  -24.8897 H   0  0  0  0  0  0  0  0  0  0  0  0
   -1.7913   24.7968  -26.3375 H   0  0  0  0  0  0  0  0  0  0  0  0
   -2.4934   26.4502  -26.3375 H   0  0  0  0  0  0  0  0  0  0  0  0
   -4.5820   24.5508  -25.7109 H   0  0  0  0  0  0  0  0  0  0  0  0
   -4.4255   25.6484  -27.1407 H   0  0  0  0  0  0  0  0  0  0  0  0
   -2.8736   23.0441  -27.0314 H   0  0  0  0  0  0  0  0  0  0  0  0
   -4.6080   23.0614  -27.5276 H   0  0  0  0  0  0  0  0  0  0  0  0
   -1.7038   24.6276  -30.0785 H   0  0  0  0  0  0  0  0  0  0  0  0
   -1.2452   24.2621  -28.3745 H   0  0  0  0  0  0  0  0  0  0  0  0
   -0.5099   22.4383  -29.8461 H   0  0  0  0  0  0  0  0  0  0  0  0
   -1.8412   21.8712  -28.7593 H   0  0  0  0  0  0  0  0  0  0  0  0
   -3.3215   21.5979  -30.4802 H   0  0  0  0  0  0  0  0  0  0  0  0
   -2.6508   22.9712  -31.4241 H   0  0  0  0  0  0  0  0  0  0  0  0
   -1.8081   21.3848  -31.4241 H   0  0  0  0  0  0  0  0  0  0  0  0
   -6.0410   24.1910  -28.5800 H   0  0  0  0  0  0  0  0  0  0  0  0
   -7.4724   25.5717  -29.9667 H   0  0  0  0  0  0  0  0  0  0  0  0
   -6.1946   25.5837  -31.2433 H   0  0  0  0  0  0  0  0  0  0  0  0
   -7.8123   23.1511  -30.3327 H   0  0  0  0  0  0  0  0  0  0  0  0
   -8.0294   24.0869  -31.8720 H   0  0  0  0  0  0  0  0  0  0  0  0
   -6.3099   23.0566  -32.8905 H   0  0  0  0  0  0  0  0  0  0  0  0
   -5.2808   23.1373  -31.3829 H   0  0  0  0  0  0  0  0  0  0  0  0
   -7.7448   20.2478  -30.4058 H   0  0  0  0  0  0  0  0  0  0  0  0
   -8.3811   21.8759  -30.9230 H   0  0  0  0  0  0  0  0  0  0  0  0
   -9.4793   19.8659  -32.0183 H   0  0  0  0  0  0  0  0  0  0  0  0
   -8.7811   21.1307  -33.1280 H   0  0  0  0  0  0  0  0  0  0  0  0
   -7.6360   18.3240  -31.2291 H   0  0  0  0  0  0  0  0  0  0  0  0
   -8.4223   17.3833  -32.5419 H   0  0  0  0  0  0  0  0  0  0  0  0
   -6.6402   17.6088  -32.5419 H   0  0  0  0  0  0  0  0  0  0  0  0
   -5.8833   19.0457  -33.9929 H   0  0  0  0  0  0  0  0  0  0  0  0
   -6.6965   20.6502  -34.2845 H   0  0  0  0  0  0  0  0  0  0  0  0
   -5.2582   19.7006  -31.7766 H   0  0  0  0  0  0  0  0  0  0  0  0
   -4.8565   21.0940  -32.8837 H   0  0  0  0  0  0  0  0  0  0  0  0
  1  2  1  0
  2  3  1  0
  3  4  1  0
  4  5  1  0
  5  6  1  0
  6  7  1  0
  4  8  1  0
  8  9  2  0
  8 10  1  0
 10 11  1  0
 11 12  1  0
 12 13  1  0
 13 14  1  0
 14 15  1  0
 15 16  1  0
 16 17  1  0
 17 18  1  0
 17 19  1  0
 19 20  1  0
 20 14  1  0
  1 21  1  0
  1 22  1  0
  1 23  1  0
  2 24  1  0
  2 25  1  0
  3 26  1  0
  3 27  1  0
  5 28  1  0
  5 29  1  0
  6 30  1  0
  6 31  1  0
  7 32  1  0
  7 33  1  0
  7 34  1  0
 10 35  1  0
 11 36  1  0
 11 37  1  0
 12 38  1  0
 12 39  1  0
 13 40  1  0
 13 41  1  0
 15 42  1  0
 15 43  1  0
 16 44  1  0
 16 45  1  0
 18 46  1  0
 18 47  1  0
 18 48  1  0
 19 49  1  0
 19 50  1  0
 20 51  1  0
 20 52  1  0
M  END
>  <UniqueID>  (5) 
5

>  <SMILES>  (5) 
CCCN(CCC)C(=O)NCCCN1CCN(C)CC1

>  <Energy>  (5) 
45.53736825062828

>  <Genealogy>  (5) 
CCCN(CCC)C(=O)NCCCN1CCN(C)CC1 (3D coordinates assigned)
CCCN(CCC)C(=O)NCCCN1CCN(C)CC1 (nonaromatic ring conformer: 45.53736825062828 kcal/mol)

>  <smiles>  (5) 
CCCN(CCC)C(=O)NCCCN1CCN(C)CC1

>  <score_type>  (5) 
oracle

>  <origin>  (5) 
adg

>  <m_score__min__energy>  (5) 
-7.4500000000000002

>  <m_primary>  (5) 
energy

$$$$
5:0
     RDKit          3D

 62 65  0  0  0  0  0  0  0  0999 V2000
    0.4560   21.8950  -35.9160 C   0  0  0  0  0  0  0  0  0  0  0  0
    0.5090   21.5070  -34.4410 C   0  0  0  0  0  0  0  0  0  0  0  0
   -0.8310   21.1410  -33.9590 N   0  0  0  0  0  0  0  0  0  0  0  0
   -1.0490   19.6890  -34.0240 C   0  0  0  0  0  0  0  0  0  0  0  0
   -2.4340   19.3190  -33.4860 C   0  0  0  0  0  0  0  0  0  0  0  0
   -3.3860   20.4200  -33.6360 N   0  0  0  0  0  0  0  0  0  0  0  0
   -4.4860   20.5450  -32.7220 C   0  0  0  0  0  0  0  0  0  0  0  0
   -5.5460   19.6300  -32.8000 C   0  0  0  0  0  0  0  0  0  0  0  0
   -5.3930   18.3880  -33.4560 C   0  0  0  0  0  0  0  0  0  0  0  0
   -6.4320   17.4620  -33.4710 C   0  0  0  0  0  0  0  0  0  0  0  0
   -7.6370   17.7510  -32.8380 C   0  0  0  0  0  0  0  0  0  0  0  0
   -7.8210   18.9870  -32.2190 C   0  0  0  0  0  0  0  0  0  0  0  0
   -6.7970   19.9670  -32.2280 C   0  0  0  0  0  0  0  0  0  0  0  0
   -6.9990   21.2370  -31.7300 N   0  0  0  0  0  0  0  0  0  0  0  0
   -8.3770   21.7300  -31.5060 C   0  0  0  0  0  0  0  0  0  0  0  0
   -5.9150   22.0520  -31.4580 C   0  0  0  0  0  0  0  0  0  0  0  0
   -6.0710   23.2590  -30.7390 C   0  0  0  0  0  0  0  0  0  0  0  0
   -4.9950   24.0970  -30.4710 C   0  0  0  0  0  0  0  0  0  0  0  0
   -5.2440   25.3050  -29.7950 O   0  0  0  0  0  0  0  0  0  0  0  0
   -6.5040   25.6830  -29.2480 C   0  0  0  0  0  0  0  0  0  0  0  0
   -3.7090   23.7020  -30.8440 C   0  0  0  0  0  0  0  0  0  0  0  0
   -3.4830   22.4720  -31.4800 C   0  0  0  0  0  0  0  0  0  0  0  0
   -2.0530   21.9470  -31.4050 C   0  0  0  0  0  0  0  0  0  0  0  0
   -1.8880   21.0870  -30.2160 N   0  0  0  0  0  0  0  0  0  0  0  0
   -2.7620   21.2910  -29.1770 C   0  0  0  0  0  0  0  0  0  0  0  0
   -2.6410   20.5860  -27.9820 C   0  0  0  0  0  0  0  0  0  0  0  0
   -1.6120   19.6670  -27.8330 C   0  0  0  0  0  0  0  0  0  0  0  0
   -0.7210   19.4570  -28.8790 C   0  0  0  0  0  0  0  0  0  0  0  0
   -0.8650   20.1670  -30.0800 C   0  0  0  0  0  0  0  0  0  0  0  0
    0.0740   19.8970  -31.1330 N   0  0  0  0  0  0  0  0  0  0  0  0
   -4.6060   21.6820  -31.8900 C   0  0  0  0  0  0  0  0  0  0  0  0
    0.3076   22.9814  -36.0043 H   0  0  0  0  0  0  0  0  0  0  0  0
    1.4010   21.6132  -36.4035 H   0  0  0  0  0  0  0  0  0  0  0  0
   -0.3788   21.3701  -36.4035 H   0  0  0  0  0  0  0  0  0  0  0  0
    1.1860   20.6491  -34.3160 H   0  0  0  0  0  0  0  0  0  0  0  0
    0.8754   22.3655  -33.8591 H   0  0  0  0  0  0  0  0  0  0  0  0
   -1.5220   21.5950  -34.6000 H   0  0  0  0  0  0  0  0  0  0  0  0
   -0.9695   19.3595  -35.0705 H   0  0  0  0  0  0  0  0  0  0  0  0
   -0.2876   19.1916  -33.4053 H   0  0  0  0  0  0  0  0  0  0  0  0
   -2.8094   18.4455  -34.0393 H   0  0  0  0  0  0  0  0  0  0  0  0
   -2.3360   19.0948  -32.4136 H   0  0  0  0  0  0  0  0  0  0  0  0
   -3.0920   21.2640  -34.1760 H   0  0  0  0  0  0  0  0  0  0  0  0
   -4.4442   18.1508  -33.9594 H   0  0  0  0  0  0  0  0  0  0  0  0
   -6.3001   16.4985  -33.9850 H   0  0  0  0  0  0  0  0  0  0  0  0
   -8.4447   17.0043  -32.8259 H   0  0  0  0  0  0  0  0  0  0  0  0
   -8.7749   19.2046  -31.7163 H   0  0  0  0  0  0  0  0  0  0  0  0
   -8.5705   21.7992  -30.4254 H   0  0  0  0  0  0  0  0  0  0  0  0
   -8.4896   22.7242  -31.9631 H   0  0  0  0  0  0  0  0  0  0  0  0
   -9.0947   21.0329  -31.9631 H   0  0  0  0  0  0  0  0  0  0  0  0
   -7.0718   23.5430  -30.3816 H   0  0  0  0  0  0  0  0  0  0  0  0
   -6.4469   25.6659  -28.1496 H   0  0  0  0  0  0  0  0  0  0  0  0
   -6.7609   26.6978  -29.5860 H   0  0  0  0  0  0  0  0  0  0  0  0
   -7.2771   24.9772  -29.5860 H   0  0  0  0  0  0  0  0  0  0  0  0
   -2.8578   24.3669  -30.6356 H   0  0  0  0  0  0  0  0  0  0  0  0
   -1.8326   21.3620  -32.3101 H   0  0  0  0  0  0  0  0  0  0  0  0
   -1.3610   22.7988  -31.3311 H   0  0  0  0  0  0  0  0  0  0  0  0
   -3.5732   22.0252  -29.2906 H   0  0  0  0  0  0  0  0  0  0  0  0
   -3.3553   20.7563  -27.1630 H   0  0  0  0  0  0  0  0  0  0  0  0
   -1.5020   19.1077  -26.8922 H   0  0  0  0  0  0  0  0  0  0  0  0
    0.0987   18.7325  -28.7646 H   0  0  0  0  0  0  0  0  0  0  0  0
    0.8150   19.1720  -30.9960 H   0  0  0  0  0  0  0  0  0  0  0  0
    0.0110   20.3050  -32.0870 H   0  0  0  0  0  0  0  0  0  0  0  0
  1  2  1  0
  2  3  1  0
  3  4  1  0
  4  5  1  0
  5  6  1  0
  6  7  1  0
  7  8  2  0
  8  9  1  0
  9 10  2  0
 10 11  1  0
 11 12  2  0
 12 13  1  0
 13 14  2  0
 14 15  1  0
 14 16  1  0
 16 17  2  0
 17 18  1  0
 18 19  1  0
 19 20  1  0
 18 21  2  0
 21 22  1  0
 22 23  1  0
 23 24  1  0
 24 25  2  0
 25 26  1  0
 26 27  2  0
 27 28  1  0
 28 29  2  0
 29 30  1  0
 22 31  2  0
 31  7  1  0
 13  8  1  0
 31 16  1  0
 29 24  1  0
  1 32  1  0
  1 33  1  0
  1 34  1  0
  2 35  1  0
  2 36  1  0
  3 37  1  0
  4 38  1  0
  4 39  1  0
  5 40  1  0
  5 41  1  0
  6 42  1  0
  9 43  1  0
 10 44  1  0
 11 45  1  0
 12 46  1  0
 15 47  1  0
 15 48  1  0
 15 49  1  0
 17 50  1  0
 20 51  1  0
 20 52  1  0
 20 53  1  0
 21 54  1  0
 23 55  1  0
 23 56  1  0
 25 57  1  0
 26 58  1  0
 27 59  1  0
 28 60  1  0
 30 61  1  0
 30 62  1  0
M  CHG  2  14   1  24   1
M  END
>  <UniqueID>  (6) 
6

>  <SMILES>  (6) 
CCNCCNc1c2ccccc2[n+](C)c2cc(OC)cc(C[n+]3ccccc3N)c12

>  <Energy>  (6) 
104.68401489843869

>  <Genealogy>  (6) 
CCNCCNc1c2ccccc2[n+](C)c2cc(OC)cc(C[n+]3ccccc3N)c12 (3D coordinates assigned)
CCNCCNc1c2ccccc2[n+](C)c2cc(OC)cc(C[n+]3ccccc3N)c12 (optimized conformer: 104.68401489843869 kcal/mol)

>  <smiles>  (6) 
CCNCCNc1c2ccccc2[n+](C)c2cc(OC)cc(C[n+]3ccccc3N)c12

>  <score_type>  (6) 
oracle

>  <origin>  (6) 
adg

>  <m_score__min__energy>  (6) 
-8.1099999999999994

>  <m_primary>  (6) 
energy

$$$$
6:0
     RDKit          3D

 52 54  0  0  0  0  0  0  0  0999 V2000
    0.2810   25.2350  -36.1660 C   0  0  0  0  0  0  0  0  0  0  0  0
    1.0030   23.8860  -36.2210 C   0  0  0  0  0  0  0  0  0  0  0  0
    0.3880   22.8780  -35.3420 N   0  0  0  0  0  0  0  0  0  0  0  0
    0.9860   21.5460  -35.5150 C   0  0  0  0  0  0  0  0  0  0  0  0
    0.0380   20.4540  -34.9950 C   0  0  0  0  0  0  0  0  0  0  0  0
   -1.2330   20.9910  -34.4750 N   0  0  0  0  0  0  0  0  0  0  0  0
   -1.2080   21.1510  -33.0140 C   0  0  0  0  0  0  0  0  0  0  0  0
   -2.6000   21.5220  -32.4840 C   0  0  0  0  0  0  0  0  0  0  0  0
   -3.6040   21.5300  -33.5630 N   0  0  0  0  0  0  0  0  0  0  0  0
   -4.9090   21.1370  -33.0570 C   0  0  0  0  0  0  0  0  0  0  0  0
   -5.6950   22.0440  -32.2980 C   0  0  0  0  0  0  0  0  0  0  0  0
   -5.1790   23.2880  -31.8550 C   0  0  0  0  0  0  0  0  0  0  0  0
   -5.9520   24.1540  -31.0870 C   0  0  0  0  0  0  0  0  0  0  0  0
   -7.2430   23.8000  -30.7250 C   0  0  0  0  0  0  0  0  0  0  0  0
   -7.7780   22.5850  -31.1430 C   0  0  0  0  0  0  0  0  0  0  0  0
   -7.0320   21.6940  -31.9570 C   0  0  0  0  0  0  0  0  0  0  0  0
   -7.5740   20.5050  -32.4010 N   0  0  0  0  0  0  0  0  0  0  0  0
   -9.0370   20.2880  -32.3360 C   0  0  0  0  0  0  0  0  0  0  0  0
   -6.7520   19.5220  -32.9130 C   0  0  0  0  0  0  0  0  0  0  0  0
   -7.2120   18.1900  -33.0760 C   0  0  0  0  0  0  0  0  0  0  0  0
   -6.3940   17.2060  -33.6270 C   0  0  0  0  0  0  0  0  0  0  0  0
   -6.8600   15.9410  -33.7730 F   0  0  0  0  0  0  0  0  0  0  0  0
   -5.0980   17.5140  -34.0100 C   0  0  0  0  0  0  0  0  0  0  0  0
   -4.6020   18.8030  -33.8310 C   0  0  0  0  0  0  0  0  0  0  0  0
   -5.4090   19.8260  -33.2750 C   0  0  0  0  0  0  0  0  0  0  0  0
    0.1257   25.5252  -35.1164 H   0  0  0  0  0  0  0  0  0  0  0  0
    0.8912   25.9983  -36.6710 H   0  0  0  0  0  0  0  0  0  0  0  0
   -0.6926   25.1507  -36.6710 H   0  0  0  0  0  0  0  0  0  0  0  0
    0.9763   23.5142  -37.2559 H   0  0  0  0  0  0  0  0  0  0  0  0
    2.0344   24.0459  -35.8736 H   0  0  0  0  0  0  0  0  0  0  0  0
   -0.6350   22.8230  -35.5600 H   0  0  0  0  0  0  0  0  0  0  0  0
    1.1830   21.3745  -36.5835 H   0  0  0  0  0  0  0  0  0  0  0  0
    1.9242   21.5022  -34.9425 H   0  0  0  0  0  0  0  0  0  0  0  0
   -0.1858   19.7625  -35.8207 H   0  0  0  0  0  0  0  0  0  0  0  0
    0.5463   19.9485  -34.1607 H   0  0  0  0  0  0  0  0  0  0  0  0
   -1.4580   21.9110  -34.9220 H   0  0  0  0  0  0  0  0  0  0  0  0
   -0.8864   20.2055  -32.5528 H   0  0  0  0  0  0  0  0  0  0  0  0
   -0.5061   21.9587  -32.7590 H   0  0  0  0  0  0  0  0  0  0  0  0
   -2.8999   20.7875  -31.7221 H   0  0  0  0  0  0  0  0  0  0  0  0
   -2.5475   22.5330  -32.0538 H   0  0  0  0  0  0  0  0  0  0  0  0
   -3.6560   22.4700  -34.0150 H   0  0  0  0  0  0  0  0  0  0  0  0
   -3.3030   20.9040  -34.3430 H   0  0  0  0  0  0  0  0  0  0  0  0
   -4.1509   23.5734  -32.1226 H   0  0  0  0  0  0  0  0  0  0  0  0
   -5.5379   25.1214  -30.7665 H   0  0  0  0  0  0  0  0  0  0  0  0
   -7.8456   24.4810  -30.1061 H   0  0  0  0  0  0  0  0  0  0  0  0
   -8.7982   22.3104  -30.8366 H   0  0  0  0  0  0  0  0  0  0  0  0
   -9.3543   20.2409  -31.2838 H   0  0  0  0  0  0  0  0  0  0  0  0
   -9.5536   21.1193  -32.8379 H   0  0  0  0  0  0  0  0  0  0  0  0
   -9.2901   19.3425  -32.8379 H   0  0  0  0  0  0  0  0  0  0  0  0
   -8.2333   17.9293  -32.7616 H   0  0  0  0  0  0  0  0  0  0  0  0
   -4.4592   16.7379  -34.4567 H   0  0  0  0  0  0  0  0  0  0  0  0
   -3.5670   19.0304  -34.1261 H   0  0  0  0  0  0  0  0  0  0  0  0
  1  2  1  0
  2  3  1  0
  3  4  1  0
  4  5  1  0
  5  6  1  0
  6  7  1  0
  7  8  1  0
  8  9  1  0
  9 10  1  0
 10 11  2  0
 11 12  1  0
 12 13  2  0
 13 14  1  0
 14 15  2  0
 15 16  1  0
 16 17  2  0
 17 18  1  0
 17 19  1  0
 19 20  2  0
 20 21  1  0
 21 22  1  0
 21 23  2  0
 23 24  1  0
 24 25  2  0
 25 10  1  0
 16 11  1  0
 25 19  1  0
  1 26  1  0
  1 27  1  0
  1 28  1  0
  2 29  1  0
  2 30  1  0
  3 31  1  0
  4 32  1  0
  4 33  1  0
  5 34  1  0
  5 35  1  0
  6 36  1  0
  7 37  1  0
  7 38  1  0
  8 39  1  0
  8 40  1  0
  9 41  1  0
  9 42  1  0
 12 43  1  0
 13 44  1  0
 14 45  1  0
 15 46  1  0
 18 47  1  0
 18 48  1  0
 18 49  1  0
 20 50  1  0
 23 51  1  0
 24 52  1  0
M  CHG  2   9   1  17   1
M  END
>  <UniqueID>  (7) 
7

>  <SMILES>  (7) 
CCNCCNCC[NH2+]c1c2ccccc2[n+](C)c2cc(F)ccc12

>  <Energy>  (7) 
76.96232573586845

>  <Genealogy>  (7) 
CCNCCNCC[NH2+]c1c2ccccc2[n+](C)c2cc(F)ccc12 (protonated)
CCNCCNCC[NH2+]c1c2ccccc2[n+](C)c2cc(F)ccc12 (3D coordinates assigned)
CCNCCNCC[NH2+]c1c2ccccc2[n+](C)c2cc(F)ccc12 (optimized conformer: 76.96232573586845 kcal/mol)

>  <smiles>  (7) 
CCNCCNCCNc1c2ccccc2[n+](C)c2cc(F)ccc12

>  <score_type>  (7) 
oracle

>  <origin>  (7) 
adg

>  <m_score__min__energy>  (7) 
-8.4199999999999999

>  <m_primary>  (7) 
energy

$$$$
7:0
     RDKit          3D

 51 52  0  0  0  0  0  0  0  0999 V2000
   -3.1230   20.4360  -33.1640 C   0  0  0  0  0  0  0  0  0  0  0  0
   -3.8030   21.7740  -33.4080 C   0  0  0  0  0  0  0  0  0  0  0  0
   -4.3370   22.2550  -32.1870 O   0  0  0  0  0  0  0  0  0  0  0  0
   -3.4380   23.0980  -31.5830 N   0  0  0  0  0  0  0  0  0  0  0  0
   -3.0360   22.5210  -30.2990 C   0  0  0  0  0  0  0  0  0  0  0  0
   -2.1650   23.5190  -29.5260 C   0  0  0  0  0  0  0  0  0  0  0  0
   -2.9880   24.5450  -28.7260 C   0  0  0  0  0  0  0  0  0  0  0  0
   -4.4710   24.1750  -28.5330 C   0  0  0  0  0  0  0  0  0  0  0  0
   -5.3780   24.7340  -29.6470 C   0  0  0  0  0  0  0  0  0  0  0  0
   -5.7890   23.6970  -30.6100 N   0  0  0  0  0  0  0  0  0  0  0  0
   -7.2420   23.4510  -30.5790 C   0  0  0  0  0  0  0  0  0  0  0  0
   -7.8000   23.1970  -31.9970 C   0  0  2  0  0  0  0  0  0  0  0  0
   -9.2780   22.7650  -31.9670 C   0  0  0  0  0  0  0  0  0  0  0  0
   -9.4570   21.3670  -31.3580 C   0  0  0  0  0  0  0  0  0  0  0  0
   -8.5030   20.3610  -31.9540 C   0  0  0  0  0  0  0  0  0  0  0  0
   -8.7780   18.9880  -31.8410 C   0  0  0  0  0  0  0  0  0  0  0  0
   -7.8870   18.0450  -32.3600 C   0  0  0  0  0  0  0  0  0  0  0  0
   -6.7110   18.4630  -32.9860 C   0  0  0  0  0  0  0  0  0  0  0  0
   -6.4190   19.8260  -33.0910 C   0  0  0  0  0  0  0  0  0  0  0  0
   -7.3040   20.7800  -32.5670 C   0  0  0  0  0  0  0  0  0  0  0  0
   -7.0020   22.1790  -32.6840 N   0  0  0  0  0  0  0  0  0  0  0  0
   -3.0344   20.2617  -32.0815 H   0  0  0  0  0  0  0  0  0  0  0  0
   -3.7220   19.6323  -33.6170 H   0  0  0  0  0  0  0  0  0  0  0  0
   -2.1207   20.4461  -33.6170 H   0  0  0  0  0  0  0  0  0  0  0  0
   -3.0685   22.4943  -33.7974 H   0  0  0  0  0  0  0  0  0  0  0  0
   -4.6131   21.6484  -34.1415 H   0  0  0  0  0  0  0  0  0  0  0  0
   -3.7950   24.0780  -31.4490 H   0  0  0  0  0  0  0  0  0  0  0  0
   -3.9336   22.2865  -29.7079 H   0  0  0  0  0  0  0  0  0  0  0  0
   -2.4587   21.6024  -30.4805 H   0  0  0  0  0  0  0  0  0  0  0  0
   -1.5279   22.9588  -28.8259 H   0  0  0  0  0  0  0  0  0  0  0  0
   -1.5721   24.0782  -30.2648 H   0  0  0  0  0  0  0  0  0  0  0  0
   -2.5296   24.6507  -27.7317 H   0  0  0  0  0  0  0  0  0  0  0  0
   -2.9750   25.4762  -29.3114 H   0  0  0  0  0  0  0  0  0  0  0  0
   -4.5610   23.0787  -28.5240 H   0  0  0  0  0  0  0  0  0  0  0  0
   -4.8017   24.6204  -27.5831 H   0  0  0  0  0  0  0  0  0  0  0  0
   -6.2790   25.1650  -29.1860 H   0  0  0  0  0  0  0  0  0  0  0  0
   -4.8039   25.4940  -30.1972 H   0  0  0  0  0  0  0  0  0  0  0  0
   -5.2890   22.8140  -30.3540 H   0  0  0  0  0  0  0  0  0  0  0  0
   -5.4940   23.9690  -31.5780 H   0  0  0  0  0  0  0  0  0  0  0  0
   -7.4427   22.5697  -29.9521 H   0  0  0  0  0  0  0  0  0  0  0  0
   -7.7359   24.3433  -30.1668 H   0  0  0  0  0  0  0  0  0  0  0  0
   -7.7371   24.1481  -32.5461 H   0  0  0  0  0  0  0  0  0  0  0  0
   -9.8475   23.4895  -31.3663 H   0  0  0  0  0  0  0  0  0  0  0  0
   -9.6434   22.7329  -33.0040 H   0  0  0  0  0  0  0  0  0  0  0  0
   -9.2779   21.4267  -30.2743 H   0  0  0  0  0  0  0  0  0  0  0  0
  -10.4818   21.0317  -31.5756 H   0  0  0  0  0  0  0  0  0  0  0  0
   -9.6993   18.6536  -31.3415 H   0  0  0  0  0  0  0  0  0  0  0  0
   -8.1124   16.9717  -32.2753 H   0  0  0  0  0  0  0  0  0  0  0  0
   -6.0133   17.7186  -33.3972 H   0  0  0  0  0  0  0  0  0  0  0  0
   -5.4922   20.1516  -33.5861 H   0  0  0  0  0  0  0  0  0  0  0  0
   -6.1780   22.4850  -33.2490 H   0  0  0  0  0  0  0  0  0  0  0  0
  1  2  1  0
  2  3  1  0
  3  4  1  0
  4  5  1  0
  5  6  1  0
  6  7  1  0
  7  8  1  0
  8  9  1  0
  9 10  1  0
 10 11  1  0
 11 12  1  0
 12 13  1  0
 13 14  1  0
 14 15  1  0
 15 16  2  0
 16 17  1  0
 17 18  2  0
 18 19  1  0
 19 20  2  0
 20 21  1  0
 21 12  1  0
 20 15  1  0
  1 22  1  0
  1 23  1  0
  1 24  1  0
  2 25  1  0
  2 26  1  0
  4 27  1  0
  5 28  1  0
  5 29  1  0
  6 30  1  0
  6 31  1  0
  7 32  1  0
  7 33  1  0
  8 34  1  0
  8 35  1  0
  9 36  1  0
  9 37  1  0
 10 38  1  0
 10 39  1  0
 11 40  1  0
 11 41  1  0
 12 42  1  6
 13 43  1  0
 13 44  1  0
 14 45  1  0
 14 46  1  0
 16 47  1  0
 17 48  1  0
 18 49  1  0
 19 50  1  0
 21 51  1  0
M  CHG  1  10   1
M  END
>  <UniqueID>  (8) 
8

>  <SMILES>  (8) 
CCONCCCCC[NH2+]C[C@@H]1CCc2ccccc2N1

>  <Energy>  (8) 
43.12813136484564

>  <Genealogy>  (8) 
CCONCCCCC[NH2+]CC1CCc2ccccc2N1 (protonated)
CCONCCCCC[NH2+]C[C@@H]1CCc2ccccc2N1 (chirality)
CCONCCCCC[NH2+]C[C@@H]1CCc2ccccc2N1 (3D coordinates assigned)
CCONCCCCC[NH2+]C[C@@H]1CCc2ccccc2N1 (nonaromatic ring conformer: 43.12813136484564 kcal/mol)

>  <smiles>  (8) 
CCONCCCCCNCC1CCc2ccccc2N1

>  <score_type>  (8) 
oracle

>  <origin>  (8) 
adg

>  <m_score__min__energy>  (8) 
-6.2400000000000002

>  <m_primary>  (8) 
energy

$$$$
8:0
     RDKit          3D

 52 54  0  0  0  0  0  0  0  0999 V2000
   -1.5850   26.1530  -26.2420 C   0  0  0  0  0  0  0  0  0  0  0  0
   -0.9570   26.6290  -27.5490 C   0  0  0  0  0  0  0  0  0  0  0  0
   -1.6260   26.0530  -28.6710 O   0  0  0  0  0  0  0  0  0  0  0  0
   -1.7050   24.6810  -28.9680 C   0  0  0  0  0  0  0  0  0  0  0  0
   -0.7990   23.7430  -28.4430 C   0  0  0  0  0  0  0  0  0  0  0  0
   -0.9120   22.3820  -28.7550 C   0  0  0  0  0  0  0  0  0  0  0  0
   -1.9080   21.9490  -29.6540 C   0  0  0  0  0  0  0  0  0  0  0  0
   -2.8320   22.8870  -30.1500 C   0  0  0  0  0  0  0  0  0  0  0  0
   -2.7310   24.2500  -29.8190 C   0  0  0  0  0  0  0  0  0  0  0  0
   -3.6240   25.2140  -30.3180 O   0  0  0  0  0  0  0  0  0  0  0  0
   -4.9550   24.9640  -30.7730 C   0  0  0  0  0  0  0  0  0  0  0  0
   -5.9710   25.3040  -29.6870 C   0  0  0  0  0  0  0  0  0  0  0  0
   -2.0790   20.4730  -29.9920 C   0  0  1  0  0  0  0  0  0  0  0  0
   -2.3170   20.2630  -31.4830 C   0  0  0  0  0  0  0  0  0  0  0  0
   -3.6150   19.9870  -31.9490 C   0  0  0  0  0  0  0  0  0  0  0  0
   -3.8510   19.7810  -33.3120 C   0  0  0  0  0  0  0  0  0  0  0  0
   -2.7940   19.8400  -34.2210 C   0  0  0  0  0  0  0  0  0  0  0  0
   -1.4980   20.1020  -33.7710 C   0  0  0  0  0  0  0  0  0  0  0  0
   -1.2550   20.3080  -32.4110 C   0  0  0  0  0  0  0  0  0  0  0  0
    0.0160   20.5570  -32.0010 F   0  0  0  0  0  0  0  0  0  0  0  0
   -0.9410   19.6330  -29.5460 N   0  0  0  0  0  0  0  0  0  0  0  0
   -0.4400   19.9580  -28.1900 C   0  0  0  0  0  0  0  0  0  0  0  0
    0.7320   19.0120  -27.8450 C   0  0  0  0  0  0  0  0  0  0  0  0
   -1.5400   19.7640  -27.1160 C   0  0  0  0  0  0  0  0  0  0  0  0
    0.0830   21.4130  -28.1740 C   0  0  0  0  0  0  0  0  0  0  0  0
   -1.0281   26.5751  -25.3925 H   0  0  0  0  0  0  0  0  0  0  0  0
   -2.6323   26.4862  -26.1957 H   0  0  0  0  0  0  0  0  0  0  0  0
   -1.5473   25.0546  -26.1957 H   0  0  0  0  0  0  0  0  0  0  0  0
   -1.0324   27.7249  -27.6075 H   0  0  0  0  0  0  0  0  0  0  0  0
    0.0976   26.3168  -27.5683 H   0  0  0  0  0  0  0  0  0  0  0  0
    0.0093   24.0822  -27.7785 H   0  0  0  0  0  0  0  0  0  0  0  0
   -3.6466   22.5487  -30.8073 H   0  0  0  0  0  0  0  0  0  0  0  0
   -5.1550   25.5824  -31.6604 H   0  0  0  0  0  0  0  0  0  0  0  0
   -5.0482   23.8965  -31.0216 H   0  0  0  0  0  0  0  0  0  0  0  0
   -5.5151   25.1514  -28.6976 H   0  0  0  0  0  0  0  0  0  0  0  0
   -6.2802   26.3546  -29.7901 H   0  0  0  0  0  0  0  0  0  0  0  0
   -6.8503   24.6511  -29.7901 H   0  0  0  0  0  0  0  0  0  0  0  0
   -2.9682   20.1479  -29.4320 H   0  0  0  0  0  0  0  0  0  0  0  0
   -4.4509   19.9328  -31.2360 H   0  0  0  0  0  0  0  0  0  0  0  0
   -4.8707   19.5723  -33.6678 H   0  0  0  0  0  0  0  0  0  0  0  0
   -2.9816   19.6800  -35.2930 H   0  0  0  0  0  0  0  0  0  0  0  0
   -0.6663   20.1462  -34.4896 H   0  0  0  0  0  0  0  0  0  0  0  0
   -0.1480   19.7300  -30.2250 H   0  0  0  0  0  0  0  0  0  0  0  0
   -1.2460   18.6300  -29.5720 H   0  0  0  0  0  0  0  0  0  0  0  0
    0.8299   18.9330  -26.7522 H   0  0  0  0  0  0  0  0  0  0  0  0
    0.5361   18.0159  -28.2686 H   0  0  0  0  0  0  0  0  0  0  0  0
    1.6643   19.4137  -28.2686 H   0  0  0  0  0  0  0  0  0  0  0  0
   -1.0924   19.8429  -26.1143 H   0  0  0  0  0  0  0  0  0  0  0  0
   -2.3102   20.5402  -27.2356 H   0  0  0  0  0  0  0  0  0  0  0  0
   -1.9982   18.7712  -27.2356 H   0  0  0  0  0  0  0  0  0  0  0  0
    0.2932   21.7023  -27.1338 H   0  0  0  0  0  0  0  0  0  0  0  0
    0.9921   21.4516  -28.7921 H   0  0  0  0  0  0  0  0  0  0  0  0
  1  2  1  0
  2  3  1  0
  3  4  1  0
  4  5  2  0
  5  6  1  0
  6  7  2  0
  7  8  1  0
  8  9  2  0
  9 10  1  0
 10 11  1  0
 11 12  1  0
  7 13  1  0
 13 14  1  0
 14 15  2  0
 15 16  1  0
 16 17  2  0
 17 18  1  0
 18 19  2  0
 19 20  1  0
 13 21  1  0
 21 22  1  0
 22 23  1  0
 22 24  1  0
 22 25  1  0
  9  4  1  0
 19 14  1  0
 25  6  1  0
  1 26  1  0
  1 27  1  0
  1 28  1  0
  2 29  1  0
  2 30  1  0
  5 31  1  0
  8 32  1  0
 11 33  1  0
 11 34  1  0
 12 35  1  0
 12 36  1  0
 12 37  1  0
 13 38  1  1
 15 39  1  0
 16 40  1  0
 17 41  1  0
 18 42  1  0
 21 43  1  0
 21 44  1  0
 23 45  1  0
 23 46  1  0
 23 47  1  0
 24 48  1  0
 24 49  1  0
 24 50  1  0
 25 51  1  0
 25 52  1  0
M  CHG  1  21   1
M  END
>  <UniqueID>  (9) 
9

>  <SMILES>  (9) 
CCOc1cc2c(cc1OCC)[C@@H](c1ccccc1F)[NH2+]C(C)(C)C2

>  <Energy>  (9) 
54.66755510512345

>  <Genealogy>  (9) 
CCOc1cc2c(cc1OCC)C(c1ccccc1F)[NH2+]C(C)(C)C2 (protonated)
CCOc1cc2c(cc1OCC)[C@@H](c1ccccc1F)[NH2+]C(C)(C)C2 (chirality)
CCOc1cc2c(cc1OCC)[C@@H](c1ccccc1F)[NH2+]C(C)(C)C2 (3D coordinates assigned)
CCOc1cc2c(cc1OCC)[C@@H](c1ccccc1F)[NH2+]C(C)(C)C2 (nonaromatic ring conformer: 54.66755510512345 kcal/mol)

>  <smiles>  (9) 
CCOc1cc2c(cc1OCC)C(c1ccccc1F)NC(C)(C)C2

>  <score_type>  (9) 
oracle

>  <origin>  (9) 
adg

>  <m_score__min__energy>  (9) 
-7.1900000000000004

>  <m_primary>  (9) 
energy

$$$$
9:0
     RDKit          3D

 42 41  0  0  0  0  0  0  0  0999 V2000
   -0.3550   24.6840  -27.6740 C   0  0  0  0  0  0  0  0  0  0  0  0
   -1.2220   25.8040  -28.2260 C   0  0  0  0  0  0  0  0  0  0  0  0
   -1.9940   25.3050  -29.2970 O   0  0  0  0  0  0  0  0  0  0  0  0
   -2.6180   24.1010  -28.9080 C   0  0  0  0  0  0  0  0  0  0  0  0
   -3.9010   24.4090  -28.1360 C   0  0  0  0  0  0  0  0  0  0  0  0
   -5.0760   24.1920  -28.9800 N   0  0  0  0  0  0  0  0  0  0  0  0
   -5.1600   24.6640  -30.3320 C   0  0  0  0  0  0  0  0  0  0  0  0
   -4.2040   25.3160  -30.8360 O   0  0  0  0  0  0  0  0  0  0  0  0
   -6.4260   24.4570  -31.1170 C   0  0  0  0  0  0  0  0  0  0  0  0
   -6.3790   23.2430  -32.0600 C   0  0  0  0  0  0  0  0  0  0  0  0
   -6.9610   21.9530  -31.4500 C   0  0  0  0  0  0  0  0  0  0  0  0
   -7.6780   21.1290  -32.4630 N   0  0  0  0  0  0  0  0  0  0  0  0
   -9.1050   20.9290  -32.1000 C   0  0  0  0  0  0  0  0  0  0  0  0
   -9.4850   21.6220  -30.7930 C   0  0  0  0  0  0  0  0  0  0  0  0
   -7.0320   19.8000  -32.6080 C   0  0  0  0  0  0  0  0  0  0  0  0
   -7.9850   18.6760  -32.2150 C   0  0  0  0  0  0  0  0  0  0  0  0
   -0.3764   24.7116  -26.5746 H   0  0  0  0  0  0  0  0  0  0  0  0
   -0.7408   23.7152  -28.0240 H   0  0  0  0  0  0  0  0  0  0  0  0
    0.6796   24.8147  -28.0240 H   0  0  0  0  0  0  0  0  0  0  0  0
   -1.8882   26.1783  -27.4347 H   0  0  0  0  0  0  0  0  0  0  0  0
   -0.5836   26.6265  -28.5809 H   0  0  0  0  0  0  0  0  0  0  0  0
   -2.8632   23.5109  -29.8033 H   0  0  0  0  0  0  0  0  0  0  0  0
   -1.9344   23.5293  -28.2632 H   0  0  0  0  0  0  0  0  0  0  0  0
   -3.9608   23.7501  -27.2572 H   0  0  0  0  0  0  0  0  0  0  0  0
   -3.8807   25.4629  -27.8216 H   0  0  0  0  0  0  0  0  0  0  0  0
   -5.8680   23.6370  -28.5860 H   0  0  0  0  0  0  0  0  0  0  0  0
   -7.2545   24.3136  -30.4078 H   0  0  0  0  0  0  0  0  0  0  0  0
   -6.5617   25.3480  -31.7476 H   0  0  0  0  0  0  0  0  0  0  0  0
   -6.9527   23.4866  -32.9664 H   0  0  0  0  0  0  0  0  0  0  0  0
   -5.3178   23.0448  -32.2712 H   0  0  0  0  0  0  0  0  0  0  0  0
   -6.1383   21.3581  -31.0266 H   0  0  0  0  0  0  0  0  0  0  0  0
   -7.6849   22.2416  -30.6737 H   0  0  0  0  0  0  0  0  0  0  0  0
   -9.7332   21.3328  -32.9077 H   0  0  0  0  0  0  0  0  0  0  0  0
   -9.2637   19.8494  -31.9612 H   0  0  0  0  0  0  0  0  0  0  0  0
   -9.1495   21.0102  -29.9426 H   0  0  0  0  0  0  0  0  0  0  0  0
   -9.0020   22.6093  -30.7476 H   0  0  0  0  0  0  0  0  0  0  0  0
  -10.5771   21.7456  -30.7476 H   0  0  0  0  0  0  0  0  0  0  0  0
   -6.7274   19.6618  -33.6559 H   0  0  0  0  0  0  0  0  0  0  0  0
   -6.1579   19.7637  -31.9412 H   0  0  0  0  0  0  0  0  0  0  0  0
   -8.0413   18.6096  -31.1184 H   0  0  0  0  0  0  0  0  0  0  0  0
   -8.9856   18.8847  -32.6215 H   0  0  0  0  0  0  0  0  0  0  0  0
   -7.6155   17.7230  -32.6215 H   0  0  0  0  0  0  0  0  0  0  0  0
  1  2  1  0
  2  3  1  0
  3  4  1  0
  4  5  1  0
  5  6  1  0
  6  7  1  0
  7  8  2  0
  7  9  1  0
  9 10  1  0
 10 11  1  0
 11 12  1  0
 12 13  1  0
 13 14  1  0
 12 15  1  0
 15 16  1  0
  1 17  1  0
  1 18  1  0
  1 19  1  0
  2 20  1  0
  2 21  1  0
  4 22  1  0
  4 23  1  0
  5 24  1  0
  5 25  1  0
  6 26  1  0
  9 27  1  0
  9 28  1  0
 10 29  1  0
 10 30  1  0
 11 31  1  0
 11 32  1  0
 13 33  1  0
 13 34  1  0
 14 35  1  0
 14 36  1  0
 14 37  1  0
 15 38  1  0
 15 39  1  0
 16 40  1  0
 16 41  1  0
 16 42  1  0
M  END
>  <UniqueID>  (10) 
10

>  <SMILES>  (10) 
CCOCCNC(=O)CCCN(CC)CC

>  <Energy>  (10) 
27.364467769309602

>  <Genealogy>  (10) 
CCOCCNC(=O)CCCN(CC)CC (3D coordinates assigned)
CCOCCNC(=O)CCCN(CC)CC (optimized conformer: 27.364467769309602 kcal/mol)

>  <smiles>  (10) 
CCOCCNC(=O)CCCN(CC)CC

>  <score_type>  (10) 
oracle

>  <origin>  (10) 
adg

>  <m_score__min__energy>  (10) 
-6.2199999999999998

>  <m_primary>  (10) 
energy

$$$$
10:0
     RDKit          3D

 49 51  0  0  0  0  0  0  0  0999 V2000
   -6.1130   25.2640  -29.4690 C   0  0  0  0  0  0  0  0  0  0  0  0
   -5.3280   25.6920  -30.7040 C   0  0  0  0  0  0  0  0  0  0  0  0
   -3.9830   25.2640  -30.6020 O   0  0  0  0  0  0  0  0  0  0  0  0
   -3.8780   24.1580  -29.7310 C   0  0  0  0  0  0  0  0  0  0  0  0
   -3.9600   22.8950  -30.5390 C   0  0  0  0  0  0  0  0  0  0  0  0
   -3.4030   21.7050  -30.0470 C   0  0  0  0  0  0  0  0  0  0  0  0
   -3.4450   20.5370  -30.8130 C   0  0  0  0  0  0  0  0  0  0  0  0
   -4.0310   20.5470  -32.0870 C   0  0  0  0  0  0  0  0  0  0  0  0
   -4.0840   19.3130  -32.8960 C   0  0  0  0  0  0  0  0  0  0  0  0
   -3.0080   18.7180  -33.5470 C   0  0  0  0  0  0  0  0  0  0  0  0
   -1.5890   19.2090  -33.6170 C   0  0  0  0  0  0  0  0  0  0  0  0
   -1.5310   20.6160  -34.2020 C   0  0  0  0  0  0  0  0  0  0  0  0
   -3.5770   17.7090  -34.3110 C   0  0  0  0  0  0  0  0  0  0  0  0
   -2.8680   16.8170  -35.2800 C   0  0  0  0  0  0  0  0  0  0  0  0
   -4.9080   17.7040  -34.1150 N   0  0  0  0  0  0  0  0  0  0  0  0
   -5.2190   18.6670  -33.2590 N   0  0  0  0  0  0  0  0  0  0  0  0
   -6.5630   18.9410  -32.8220 C   0  0  0  0  0  0  0  0  0  0  0  0
   -7.2020   20.1420  -33.1750 C   0  0  0  0  0  0  0  0  0  0  0  0
   -8.5070   20.3990  -32.7450 C   0  0  0  0  0  0  0  0  0  0  0  0
   -9.1810   19.4650  -31.9530 C   0  0  0  0  0  0  0  0  0  0  0  0
   -8.5480   18.2750  -31.5870 C   0  0  0  0  0  0  0  0  0  0  0  0
   -7.2430   18.0130  -32.0150 C   0  0  0  0  0  0  0  0  0  0  0  0
   -4.5760   21.7400  -32.5850 C   0  0  0  0  0  0  0  0  0  0  0  0
   -4.5350   22.9090  -31.8200 C   0  0  0  0  0  0  0  0  0  0  0  0
   -5.5642   25.5632  -28.5638 H   0  0  0  0  0  0  0  0  0  0  0  0
   -7.1005   25.7486  -29.4761 H   0  0  0  0  0  0  0  0  0  0  0  0
   -6.2406   24.1715  -29.4761 H   0  0  0  0  0  0  0  0  0  0  0  0
   -5.7850   25.2433  -31.5983 H   0  0  0  0  0  0  0  0  0  0  0  0
   -5.3502   26.7891  -30.7805 H   0  0  0  0  0  0  0  0  0  0  0  0
   -2.9151   24.1955  -29.2006 H   0  0  0  0  0  0  0  0  0  0  0  0
   -4.6948   24.1838  -28.9947 H   0  0  0  0  0  0  0  0  0  0  0  0
   -2.9310   21.6914  -29.0535 H   0  0  0  0  0  0  0  0  0  0  0  0
   -3.0164   19.6055  -30.4148 H   0  0  0  0  0  0  0  0  0  0  0  0
   -1.1615   19.2219  -32.6036 H   0  0  0  0  0  0  0  0  0  0  0  0
   -1.0137   18.5331  -34.2667 H   0  0  0  0  0  0  0  0  0  0  0  0
   -1.5007   21.3518  -33.3849 H   0  0  0  0  0  0  0  0  0  0  0  0
   -0.6279   20.7186  -34.8215 H   0  0  0  0  0  0  0  0  0  0  0  0
   -2.4226   20.7926  -34.8215 H   0  0  0  0  0  0  0  0  0  0  0  0
   -2.2761   16.0724  -34.7275 H   0  0  0  0  0  0  0  0  0  0  0  0
   -3.6063   16.3025  -35.9126 H   0  0  0  0  0  0  0  0  0  0  0  0
   -2.2001   17.4202  -35.9126 H   0  0  0  0  0  0  0  0  0  0  0  0
   -5.5940   17.0550  -34.5620 H   0  0  0  0  0  0  0  0  0  0  0  0
   -6.6729   20.8829  -33.7923 H   0  0  0  0  0  0  0  0  0  0  0  0
   -9.0043   21.3377  -33.0303 H   0  0  0  0  0  0  0  0  0  0  0  0
  -10.2092   19.6671  -31.6182 H   0  0  0  0  0  0  0  0  0  0  0  0
   -9.0775   17.5421  -30.9605 H   0  0  0  0  0  0  0  0  0  0  0  0
   -6.7467   17.0770  -31.7189 H   0  0  0  0  0  0  0  0  0  0  0  0
   -5.0382   21.7554  -33.5831 H   0  0  0  0  0  0  0  0  0  0  0  0
   -4.9544   23.8428  -32.2226 H   0  0  0  0  0  0  0  0  0  0  0  0
  1  2  1  0
  2  3  1  0
  3  4  1  0
  4  5  1  0
  5  6  2  0
  6  7  1  0
  7  8  2  0
  8  9  1  0
  9 10  2  0
 10 11  1  0
 11 12  1  0
 10 13  1  0
 13 14  1  0
 13 15  2  0
 15 16  1  0
 16 17  1  0
 17 18  2  0
 18 19  1  0
 19 20  2  0
 20 21  1  0
 21 22  2  0
  8 23  1  0
 23 24  2  0
 24  5  1  0
 16  9  1  0
 22 17  1  0
  1 25  1  0
  1 26  1  0
  1 27  1  0
  2 28  1  0
  2 29  1  0
  4 30  1  0
  4 31  1  0
  6 32  1  0
  7 33  1  0
 11 34  1  0
 11 35  1  0
 12 36  1  0
 12 37  1  0
 12 38  1  0
 14 39  1  0
 14 40  1  0
 14 41  1  0
 15 42  1  0
 18 43  1  0
 19 44  1  0
 20 45  1  0
 21 46  1  0
 22 47  1  0
 23 48  1  0
 24 49  1  0
M  CHG  1  15   1
M  END
>  <UniqueID>  (11) 
11

>  <SMILES>  (11) 
CCOCc1ccc(-c2c(CC)c(C)[nH+]n2-c2ccccc2)cc1

>  <Energy>  (11) 
85.29700220899056

>  <Genealogy>  (11) 
CCOCc1ccc(-c2c(CC)c(C)[nH+]n2-c2ccccc2)cc1 (protonated)
CCOCc1ccc(-c2c(CC)c(C)[nH+]n2-c2ccccc2)cc1 (3D coordinates assigned)
CCOCc1ccc(-c2c(CC)c(C)[nH+]n2-c2ccccc2)cc1 (optimized conformer: 85.29700220899056 kcal/mol)

>  <smiles>  (11) 
CCOCc1ccc(-c2c(CC)c(C)nn2-c2ccccc2)cc1

>  <score_type>  (11) 
oracle

>  <origin>  (11) 
adg

>  <m_score__min__energy>  (11) 
-8.2200000000000006

>  <m_primary>  (11) 
energy

$$$$
11:0
     RDKit          3D

 64 68  0  0  0  0  0  0  0  0999 V2000
   -6.0020   15.9370  -33.4970 C   0  0  0  0  0  0  0  0  0  0  0  0
   -5.2740   15.9730  -32.1520 C   0  0  0  0  0  0  0  0  0  0  0  0
   -6.0650   16.6330  -31.1010 N   0  0  0  0  0  0  0  0  0  0  0  0
   -6.0930   18.1040  -31.2210 C   0  0  0  0  0  0  0  0  0  0  0  0
   -7.5090   18.6290  -31.5270 C   0  0  0  0  0  0  0  0  0  0  0  0
   -7.5680   19.4610  -32.8170 C   0  0  0  0  0  0  0  0  0  0  0  0
   -6.3610   19.2160  -33.7340 C   0  0  0  0  0  0  0  0  0  0  0  0
   -5.5290   20.4150  -33.8210 N   0  0  0  0  0  0  0  0  0  0  0  0
   -4.3340   20.5690  -33.0380 C   0  0  0  0  0  0  0  0  0  0  0  0
   -4.1630   21.6980  -32.2170 C   0  0  0  0  0  0  0  0  0  0  0  0
   -2.9430   21.8640  -31.5140 C   0  0  0  0  0  0  0  0  0  0  0  0
   -1.8890   21.0030  -31.7540 N   0  0  0  0  0  0  0  0  0  0  0  0
   -0.5080   21.4080  -31.4370 C   0  0  0  0  0  0  0  0  0  0  0  0
   -2.1190   19.7970  -32.3840 C   0  0  0  0  0  0  0  0  0  0  0  0
   -1.1510   18.7610  -32.3860 C   0  0  0  0  0  0  0  0  0  0  0  0
   -1.3830   17.5630  -33.0600 C   0  0  0  0  0  0  0  0  0  0  0  0
   -2.5820   17.3610  -33.7380 C   0  0  0  0  0  0  0  0  0  0  0  0
   -3.5620   18.3510  -33.7320 C   0  0  0  0  0  0  0  0  0  0  0  0
   -3.3520   19.5660  -33.0480 C   0  0  0  0  0  0  0  0  0  0  0  0
   -2.9150   22.9520  -30.4850 C   0  0  0  0  0  0  0  0  0  0  0  0
   -1.9570   23.3570  -29.5620 C   0  0  0  0  0  0  0  0  0  0  0  0
   -2.5610   24.3480  -28.7970 C   0  0  0  0  0  0  0  0  0  0  0  0
   -1.9490   25.1160  -27.6870 C   0  0  0  0  0  0  0  0  0  0  0  0
   -2.5990   25.2680  -26.4460 C   0  0  0  0  0  0  0  0  0  0  0  0
   -1.9940   25.9930  -25.4150 C   0  0  0  0  0  0  0  0  0  0  0  0
   -0.7380   26.5730  -25.6080 C   0  0  0  0  0  0  0  0  0  0  0  0
   -0.0830   26.4280  -26.8320 C   0  0  0  0  0  0  0  0  0  0  0  0
   -0.6820   25.7030  -27.8670 C   0  0  0  0  0  0  0  0  0  0  0  0
   -3.8060   24.5080  -29.1830 O   0  0  0  0  0  0  0  0  0  0  0  0
   -4.0400   23.6820  -30.1730 C   0  0  0  0  0  0  0  0  0  0  0  0
   -5.3740   23.4440  -30.7930 C   0  0  0  0  0  0  0  0  0  0  0  0
   -5.2230   22.7970  -32.1760 C   0  0  0  0  0  0  0  0  0  0  0  0
   -7.0872   15.8833  -33.3252 H   0  0  0  0  0  0  0  0  0  0  0  0
   -5.7655   16.8479  -34.0664 H   0  0  0  0  0  0  0  0  0  0  0  0
   -5.6768   15.0538  -34.0664 H   0  0  0  0  0  0  0  0  0  0  0  0
   -5.0618   14.9404  -31.8379 H   0  0  0  0  0  0  0  0  0  0  0  0
   -4.3489   16.5524  -32.2879 H   0  0  0  0  0  0  0  0  0  0  0  0
   -5.7330   16.3210  -30.1580 H   0  0  0  0  0  0  0  0  0  0  0  0
   -5.7473   18.5446  -30.2742 H   0  0  0  0  0  0  0  0  0  0  0  0
   -5.4357   18.3904  -32.0552 H   0  0  0  0  0  0  0  0  0  0  0  0
   -8.1878   17.7697  -31.6313 H   0  0  0  0  0  0  0  0  0  0  0  0
   -7.8067   19.2846  -30.6954 H   0  0  0  0  0  0  0  0  0  0  0  0
   -8.4852   19.1978  -33.3642 H   0  0  0  0  0  0  0  0  0  0  0  0
   -7.5574   20.5226  -32.5292 H   0  0  0  0  0  0  0  0  0  0  0  0
   -5.7609   18.3882  -33.3282 H   0  0  0  0  0  0  0  0  0  0  0  0
   -6.7259   18.9638  -34.7406 H   0  0  0  0  0  0  0  0  0  0  0  0
   -5.8230   21.1960  -34.4490 H   0  0  0  0  0  0  0  0  0  0  0  0
   -0.3785   21.4460  -30.3453 H   0  0  0  0  0  0  0  0  0  0  0  0
    0.1954   20.6783  -31.8645 H   0  0  0  0  0  0  0  0  0  0  0  0
   -0.3101   22.4020  -31.8645 H   0  0  0  0  0  0  0  0  0  0  0  0
   -0.2026   18.9047  -31.8476 H   0  0  0  0  0  0  0  0  0  0  0  0
   -0.6160   16.7745  -33.0561 H   0  0  0  0  0  0  0  0  0  0  0  0
   -2.7556   16.4190  -34.2788 H   0  0  0  0  0  0  0  0  0  0  0  0
   -4.5089   18.1833  -34.2661 H   0  0  0  0  0  0  0  0  0  0  0  0
   -0.9317   22.9722  -29.4585 H   0  0  0  0  0  0  0  0  0  0  0  0
   -3.5881   24.8136  -26.2875 H   0  0  0  0  0  0  0  0  0  0  0  0
   -2.5084   26.1070  -24.4494 H   0  0  0  0  0  0  0  0  0  0  0  0
   -0.2651   27.1440  -24.7954 H   0  0  0  0  0  0  0  0  0  0  0  0
    0.9062   26.8849  -26.9828 H   0  0  0  0  0  0  0  0  0  0  0  0
   -0.1596   25.5906  -28.8285 H   0  0  0  0  0  0  0  0  0  0  0  0
   -5.9595   22.7761  -30.1441 H   0  0  0  0  0  0  0  0  0  0  0  0
   -5.8868   24.4102  -30.9092 H   0  0  0  0  0  0  0  0  0  0  0  0
   -6.1903   22.3598  -32.4643 H   0  0  0  0  0  0  0  0  0  0  0  0
   -4.9008   23.5862  -32.8712 H   0  0  0  0  0  0  0  0  0  0  0  0
  1  2  1  0
  2  3  1  0
  3  4  1  0
  4  5  1  0
  5  6  1  0
  6  7  1  0
  7  8  1  0
  8  9  1  0
  9 10  2  0
 10 11  1  0
 11 12  2  0
 12 13  1  0
 12 14  1  0
 14 15  2  0
 15 16  1  0
 16 17  2  0
 17 18  1  0
 18 19  2  0
 11 20  1  0
 20 21  1  0
 21 22  2  0
 22 23  1  0
 23 24  2  0
 24 25  1  0
 25 26  2  0
 26 27  1  0
 27 28  2  0
 22 29  1  0
 29 30  1  0
 30 31  1  0
 31 32  1  0
 19  9  1  0
 30 20  2  0
 32 10  1  0
 19 14  1  0
 28 23  1  0
  1 33  1  0
  1 34  1  0
  1 35  1  0
  2 36  1  0
  2 37  1  0
  3 38  1  0
  4 39  1  0
  4 40  1  0
  5 41  1  0
  5 42  1  0
  6 43  1  0
  6 44  1  0
  7 45  1  0
  7 46  1  0
  8 47  1  0
 13 48  1  0
 13 49  1  0
 13 50  1  0
 15 51  1  0
 16 52  1  0
 17 53  1  0
 18 54  1  0
 21 55  1  0
 24 56  1  0
 25 57  1  0
 26 58  1  0
 27 59  1  0
 28 60  1  0
 31 61  1  0
 31 62  1  0
 32 63  1  0
 32 64  1  0
M  CHG  1  12   1
M  END
>  <UniqueID>  (12) 
12

>  <SMILES>  (12) 
CCNCCCCNc1c2c([n+](C)c3ccccc13)-c1cc(-c3ccccc3)oc1CC2

>  <Energy>  (12) 
124.32096777659586

>  <Genealogy>  (12) 
CCNCCCCNc1c2c([n+](C)c3ccccc13)-c1cc(-c3ccccc3)oc1CC2 (3D coordinates assigned)
CCNCCCCNc1c2c([n+](C)c3ccccc13)-c1cc(-c3ccccc3)oc1CC2 (nonaromatic ring conformer: 124.32096777659586 kcal/mol)

>  <smiles>  (12) 
CCNCCCCNc1c2c([n+](C)c3ccccc13)-c1cc(-c3ccccc3)oc1CC2

>  <score_type>  (12) 
oracle

>  <origin>  (12) 
adg

>  <m_score__min__energy>  (12) 
-9.25

>  <m_primary>  (12) 
energy

$$$$
12:0
     RDKit          3D

 36 38  0  0  0  0  0  0  0  0999 V2000
   -3.8740   22.0840  -28.6070 C   0  0  0  0  0  0  0  0  0  0  0  0
   -4.1430   23.1730  -29.5450 N   0  0  0  0  0  0  0  0  0  0  0  0
   -5.0290   23.2040  -30.5600 C   0  0  0  0  0  0  0  0  0  0  0  0
   -6.1090   21.8490  -31.0340 S   0  0  0  0  0  0  0  0  0  0  0  0
   -7.3620   22.9180  -31.8270 C   0  0  0  0  0  0  0  0  0  0  0  0
   -8.7720   22.3420  -31.6710 C   0  0  0  0  0  0  0  0  0  0  0  0
   -8.9820   21.2410  -32.5570 O   0  0  0  0  0  0  0  0  0  0  0  0
   -8.1940   20.0800  -32.6200 C   0  0  0  0  0  0  0  0  0  0  0  0
   -7.1250   20.0590  -33.5260 C   0  0  0  0  0  0  0  0  0  0  0  0
   -6.3060   18.9300  -33.6320 C   0  0  0  0  0  0  0  0  0  0  0  0
   -6.5520   17.8110  -32.8350 C   0  0  0  0  0  0  0  0  0  0  0  0
   -7.6180   17.8170  -31.9320 C   0  0  0  0  0  0  0  0  0  0  0  0
   -8.4400   18.9440  -31.8230 C   0  0  0  0  0  0  0  0  0  0  0  0
   -5.0050   24.3870  -31.2020 N   0  0  0  0  0  0  0  0  0  0  0  0
   -4.1000   25.1380  -30.5910 N   0  0  0  0  0  0  0  0  0  0  0  0
   -3.5830   24.4010  -29.5890 C   0  0  0  0  0  0  0  0  0  0  0  0
   -2.5450   24.9000  -28.6700 C   0  0  0  0  0  0  0  0  0  0  0  0
   -2.4100   24.5450  -27.3440 C   0  0  0  0  0  0  0  0  0  0  0  0
   -1.3170   25.2440  -26.8800 C   0  0  0  0  0  0  0  0  0  0  0  0
   -0.8540   25.9820  -27.9490 C   0  0  0  0  0  0  0  0  0  0  0  0
   -1.6060   25.7560  -29.0020 O   0  0  0  0  0  0  0  0  0  0  0  0
   -3.9661   22.4568  -27.5762 H   0  0  0  0  0  0  0  0  0  0  0  0
   -4.5987   21.2726  -28.7696 H   0  0  0  0  0  0  0  0  0  0  0  0
   -2.8548   21.7034  -28.7696 H   0  0  0  0  0  0  0  0  0  0  0  0
   -7.3291   23.9136  -31.3604 H   0  0  0  0  0  0  0  0  0  0  0  0
   -7.1320   22.9805  -32.9009 H   0  0  0  0  0  0  0  0  0  0  0  0
   -8.9067   21.9991  -30.6345 H   0  0  0  0  0  0  0  0  0  0  0  0
   -9.4990   23.1301  -31.9168 H   0  0  0  0  0  0  0  0  0  0  0  0
   -6.9285   20.9371  -34.1587 H   0  0  0  0  0  0  0  0  0  0  0  0
   -5.4675   18.9241  -34.3440 H   0  0  0  0  0  0  0  0  0  0  0  0
   -5.9065   16.9242  -32.9178 H   0  0  0  0  0  0  0  0  0  0  0  0
   -7.8115   16.9339  -31.3054 H   0  0  0  0  0  0  0  0  0  0  0  0
   -9.2805   18.9434  -31.1134 H   0  0  0  0  0  0  0  0  0  0  0  0
   -3.0434   23.8485  -26.7751 H   0  0  0  0  0  0  0  0  0  0  0  0
   -0.8986   25.2185  -25.8630 H   0  0  0  0  0  0  0  0  0  0  0  0
    0.0137   26.6576  -27.9237 H   0  0  0  0  0  0  0  0  0  0  0  0
  1  2  1  0
  2  3  1  0
  3  4  1  0
  4  5  1  0
  5  6  1  0
  6  7  1  0
  7  8  1  0
  8  9  2  0
  9 10  1  0
 10 11  2  0
 11 12  1  0
 12 13  2  0
  3 14  2  0
 14 15  1  0
 15 16  2  0
 16 17  1  0
 17 18  2  0
 18 19  1  0
 19 20  2  0
 20 21  1  0
 16  2  1  0
 21 17  1  0
 13  8  1  0
  1 22  1  0
  1 23  1  0
  1 24  1  0
  5 25  1  0
  5 26  1  0
  6 27  1  0
  6 28  1  0
  9 29  1  0
 10 30  1  0
 11 31  1  0
 12 32  1  0
 13 33  1  0
 18 34  1  0
 19 35  1  0
 20 36  1  0
M  END
>  <UniqueID>  (13) 
13

>  <SMILES>  (13) 
Cn1c(SCCOc2ccccc2)nnc1-c1ccco1

>  <Energy>  (13) 
94.00900357978009

>  <Genealogy>  (13) 
Cn1c(SCCOc2ccccc2)nnc1-c1ccco1 (3D coordinates assigned)
Cn1c(SCCOc2ccccc2)nnc1-c1ccco1 (optimized conformer: 94.00900357978009 kcal/mol)

>  <smiles>  (13) 
Cn1c(SCCOc2ccccc2)nnc1-c1ccco1

>  <score_type>  (13) 
oracle

>  <origin>  (13) 
adg

>  <m_score__min__energy>  (13) 
-8.1500000000000004

>  <m_primary>  (13) 
energy

$$$$
13:0
     RDKit          3D

 66 69  0  0  0  0  0  0  0  0999 V2000
   -4.5880   17.2430  -35.7140 C   0  0  0  0  0  0  0  0  0  0  0  0
   -5.2670   17.7780  -34.4890 C   0  0  0  0  0  0  0  0  0  0  0  0
   -4.9810   19.0440  -34.0820 N   0  0  0  0  0  0  0  0  0  0  0  0
   -5.5650   19.6100  -32.9910 C   0  0  0  0  0  0  0  0  0  0  0  0
   -5.1670   20.9700  -32.5820 C   0  0  0  0  0  0  0  0  0  0  0  0
   -3.8780   21.4740  -32.4720 C   0  0  0  0  0  0  0  0  0  0  0  0
   -2.5990   20.7520  -32.6530 C   0  0  0  0  0  0  0  0  0  0  0  0
   -2.0760   20.5050  -33.9360 C   0  0  0  0  0  0  0  0  0  0  0  0
   -0.8650   19.8220  -34.0840 C   0  0  0  0  0  0  0  0  0  0  0  0
   -0.1740   19.3650  -32.9580 C   0  0  0  0  0  0  0  0  0  0  0  0
    1.0000   18.7030  -33.1050 F   0  0  0  0  0  0  0  0  0  0  0  0
   -0.7010   19.5810  -31.6820 C   0  0  0  0  0  0  0  0  0  0  0  0
   -1.9110   20.2660  -31.5290 C   0  0  0  0  0  0  0  0  0  0  0  0
   -3.9390   22.7750  -32.1240 N   0  0  0  0  0  0  0  0  0  0  0  0
   -5.2580   23.0430  -32.0220 C   0  0  0  0  0  0  0  0  0  0  0  0
   -5.7660   24.4050  -31.6090 C   0  0  0  0  0  0  0  0  0  0  0  0
   -4.7590   25.1560  -30.8430 N   0  0  0  0  0  0  0  0  0  0  0  0
   -4.8500   24.9220  -29.3920 C   0  0  0  0  0  0  0  0  0  0  0  0
   -3.7240   23.9870  -28.9300 C   0  0  0  0  0  0  0  0  0  0  0  0
   -2.4330   24.3760  -29.5380 N   0  0  0  0  0  0  0  0  0  0  0  0
   -1.6680   23.1850  -29.9400 C   0  0  0  0  0  0  0  0  0  0  0  0
   -1.6310   25.1830  -28.6030 C   0  0  0  0  0  0  0  0  0  0  0  0
   -6.0330   21.9710  -32.3120 N   0  0  0  0  0  0  0  0  0  0  0  0
   -7.4970   21.8960  -32.3280 C   0  0  0  0  0  0  0  0  0  0  0  0
   -6.5060   18.8810  -32.2550 C   0  0  0  0  0  0  0  0  0  0  0  0
   -6.8140   17.5760  -32.6410 C   0  0  0  0  0  0  0  0  0  0  0  0
   -6.1730   17.0000  -33.7410 C   0  0  0  0  0  0  0  0  0  0  0  0
   -6.5030   15.2750  -34.1460 S   0  0  0  0  0  0  0  0  0  0  0  0
   -5.1900   14.5930  -33.0690 C   0  0  0  0  0  0  0  0  0  0  0  0
   -3.8400   15.1210  -33.4540 C   0  0  0  0  0  0  0  0  0  0  0  0
   -3.1120   14.5380  -34.5030 C   0  0  0  0  0  0  0  0  0  0  0  0
   -1.8390   15.0230  -34.8040 C   0  0  0  0  0  0  0  0  0  0  0  0
   -1.3060   16.0810  -34.0660 C   0  0  0  0  0  0  0  0  0  0  0  0
   -2.0580   16.6370  -33.0300 C   0  0  0  0  0  0  0  0  0  0  0  0
   -3.2950   16.1480  -32.7470 N   0  0  0  0  0  0  0  0  0  0  0  0
   -3.7564   16.5877  -35.4156 H   0  0  0  0  0  0  0  0  0  0  0  0
   -5.3106   16.6689  -36.3126 H   0  0  0  0  0  0  0  0  0  0  0  0
   -4.1989   18.0798  -36.3126 H   0  0  0  0  0  0  0  0  0  0  0  0
   -2.6222   20.8507  -34.8260 H   0  0  0  0  0  0  0  0  0  0  0  0
   -0.4549   19.6438  -35.0890 H   0  0  0  0  0  0  0  0  0  0  0  0
   -0.1634   19.2117  -30.7962 H   0  0  0  0  0  0  0  0  0  0  0  0
   -2.3260   20.4250  -30.5228 H   0  0  0  0  0  0  0  0  0  0  0  0
   -6.0254   24.9769  -32.5121 H   0  0  0  0  0  0  0  0  0  0  0  0
   -6.6463   24.2602  -30.9655 H   0  0  0  0  0  0  0  0  0  0  0  0
   -3.8020   24.8930  -31.1780 H   0  0  0  0  0  0  0  0  0  0  0  0
   -4.7631   25.8829  -28.8636 H   0  0  0  0  0  0  0  0  0  0  0  0
   -5.8190   24.4530  -29.1659 H   0  0  0  0  0  0  0  0  0  0  0  0
   -3.6373   24.0412  -27.8348 H   0  0  0  0  0  0  0  0  0  0  0  0
   -3.9666   22.9615  -29.2456 H   0  0  0  0  0  0  0  0  0  0  0  0
   -1.3243   22.6498  -29.0425 H   0  0  0  0  0  0  0  0  0  0  0  0
   -2.3096   22.5220  -30.5390 H   0  0  0  0  0  0  0  0  0  0  0  0
   -0.7983   23.4928  -30.5390 H   0  0  0  0  0  0  0  0  0  0  0  0
   -1.8955   24.9169  -27.5690 H   0  0  0  0  0  0  0  0  0  0  0  0
   -0.5622   24.9843  -28.7708 H   0  0  0  0  0  0  0  0  0  0  0  0
   -1.8363   26.2506  -28.7708 H   0  0  0  0  0  0  0  0  0  0  0  0
   -7.8745   21.8767  -31.2950 H   0  0  0  0  0  0  0  0  0  0  0  0
   -7.9035   22.7745  -32.8505 H   0  0  0  0  0  0  0  0  0  0  0  0
   -7.8116   20.9806  -32.8505 H   0  0  0  0  0  0  0  0  0  0  0  0
   -6.9980   19.3324  -31.3808 H   0  0  0  0  0  0  0  0  0  0  0  0
   -7.5629   16.9994  -32.0782 H   0  0  0  0  0  0  0  0  0  0  0  0
   -5.4003   14.8733  -32.0263 H   0  0  0  0  0  0  0  0  0  0  0  0
   -5.1804   13.4990  -33.1837 H   0  0  0  0  0  0  0  0  0  0  0  0
   -3.5410   13.7069  -35.0820 H   0  0  0  0  0  0  0  0  0  0  0  0
   -1.2566   14.5725  -35.6212 H   0  0  0  0  0  0  0  0  0  0  0  0
   -0.3045   16.4722  -34.2983 H   0  0  0  0  0  0  0  0  0  0  0  0
   -1.6496   17.4719  -32.4416 H   0  0  0  0  0  0  0  0  0  0  0  0
  1  2  1  0
  2  3  2  0
  3  4  1  0
  4  5  1  0
  5  6  2  0
  6  7  1  0
  7  8  2  0
  8  9  1  0
  9 10  2  0
 10 11  1  0
 10 12  1  0
 12 13  2  0
  6 14  1  0
 14 15  2  0
 15 16  1  0
 16 17  1  0
 17 18  1  0
 18 19  1  0
 19 20  1  0
 20 21  1  0
 20 22  1  0
 15 23  1  0
 23 24  1  0
  4 25  2  0
 25 26  1  0
 26 27  2  0
 27 28  1  0
 28 29  1  0
 29 30  1  0
 30 31  2  0
 31 32  1  0
 32 33  2  0
 33 34  1  0
 34 35  2  0
 27  2  1  0
 35 30  1  0
 23  5  1  0
 13  7  1  0
  1 36  1  0
  1 37  1  0
  1 38  1  0
  8 39  1  0
  9 40  1  0
 12 41  1  0
 13 42  1  0
 16 43  1  0
 16 44  1  0
 17 45  1  0
 18 46  1  0
 18 47  1  0
 19 48  1  0
 19 49  1  0
 21 50  1  0
 21 51  1  0
 21 52  1  0
 22 53  1  0
 22 54  1  0
 22 55  1  0
 24 56  1  0
 24 57  1  0
 24 58  1  0
 25 59  1  0
 26 60  1  0
 29 61  1  0
 29 62  1  0
 31 63  1  0
 32 64  1  0
 33 65  1  0
 34 66  1  0
M  END
>  <UniqueID>  (14) 
14

>  <SMILES>  (14) 
Cc1nc(-c2c(-c3ccc(F)cc3)nc(CNCCN(C)C)n2C)ccc1SCc1ccccn1

>  <Energy>  (14) 
102.37229120822434

>  <Genealogy>  (14) 
Cc1nc(-c2c(-c3ccc(F)cc3)nc(CNCCN(C)C)n2C)ccc1SCc1ccccn1 (3D coordinates assigned)
Cc1nc(-c2c(-c3ccc(F)cc3)nc(CNCCN(C)C)n2C)ccc1SCc1ccccn1 (optimized conformer: 102.37229120822434 kcal/mol)

>  <smiles>  (14) 
Cc1nc(-c2c(-c3ccc(F)cc3)nc(CNCCN(C)C)n2C)ccc1SCc1ccccn1

>  <score_type>  (14) 
oracle

>  <origin>  (14) 
adg

>  <m_score__min__energy>  (14) 
-8.5600000000000005

>  <m_primary>  (14) 
energy

$$$$
14:0
     RDKit          3D

 47 49  0  0  0  0  0  0  0  0999 V2000
   -3.2000   24.1550  -27.3150 C   0  0  0  0  0  0  0  0  0  0  0  0
   -4.1800   23.7940  -28.4350 C   0  0  0  0  0  0  0  0  0  0  0  0
   -5.1860   24.8470  -28.6760 N   0  0  0  0  0  0  0  0  0  0  0  0
   -5.2820   25.3060  -30.0770 C   0  0  0  0  0  0  0  0  0  0  0  0
   -6.3560   24.5880  -30.9260 C   0  0  0  0  0  0  0  0  0  0  0  0
   -6.2820   23.0540  -30.9140 C   0  0  0  0  0  0  0  0  0  0  0  0
   -5.8890   22.5170  -32.2190 N   0  0  0  0  0  0  0  0  0  0  0  0
   -5.7280   21.1030  -32.4380 C   0  0  0  0  0  0  0  0  0  0  0  0
   -6.8440   20.2490  -32.3390 C   0  0  0  0  0  0  0  0  0  0  0  0
   -8.0440   20.6760  -31.7260 C   0  0  0  0  0  0  0  0  0  0  0  0
   -9.1310   19.8120  -31.6100 C   0  0  0  0  0  0  0  0  0  0  0  0
   -9.0410   18.5120  -32.0930 C   0  0  0  0  0  0  0  0  0  0  0  0
   -7.8780   18.0770  -32.7240 C   0  0  0  0  0  0  0  0  0  0  0  0
   -6.7680   18.9450  -32.8920 C   0  0  0  0  0  0  0  0  0  0  0  0
   -5.6410   18.5550  -33.5850 N   0  0  0  0  0  0  0  0  0  0  0  0
   -5.6910   17.3700  -34.4680 C   0  0  0  0  0  0  0  0  0  0  0  0
   -4.4700   19.2780  -33.4560 C   0  0  0  0  0  0  0  0  0  0  0  0
   -3.2320   18.7530  -33.9000 C   0  0  0  0  0  0  0  0  0  0  0  0
   -2.0510   19.4730  -33.7570 C   0  0  0  0  0  0  0  0  0  0  0  0
   -2.0570   20.7030  -33.1160 C   0  0  0  0  0  0  0  0  0  0  0  0
   -3.2490   21.2440  -32.6290 C   0  0  0  0  0  0  0  0  0  0  0  0
   -3.0710   22.6670  -31.6000 Cl  0  0  0  0  0  0  0  0  0  0  0  0
   -4.4840   20.5650  -32.8420 C   0  0  0  0  0  0  0  0  0  0  0  0
   -3.6771   23.9793  -26.3396 H   0  0  0  0  0  0  0  0  0  0  0  0
   -2.2990   23.5297  -27.4005 H   0  0  0  0  0  0  0  0  0  0  0  0
   -2.9199   25.2153  -27.4005 H   0  0  0  0  0  0  0  0  0  0  0  0
   -3.6104   23.6333  -29.3622 H   0  0  0  0  0  0  0  0  0  0  0  0
   -4.7183   22.8864  -28.1244 H   0  0  0  0  0  0  0  0  0  0  0  0
   -4.9830   25.6600  -28.0520 H   0  0  0  0  0  0  0  0  0  0  0  0
   -6.1250   24.4830  -28.3870 H   0  0  0  0  0  0  0  0  0  0  0  0
   -5.5154   26.3809  -30.0690 H   0  0  0  0  0  0  0  0  0  0  0  0
   -4.3137   25.0736  -30.5444 H   0  0  0  0  0  0  0  0  0  0  0  0
   -7.3446   24.8839  -30.5451 H   0  0  0  0  0  0  0  0  0  0  0  0
   -6.1764   24.8939  -31.9672 H   0  0  0  0  0  0  0  0  0  0  0  0
   -5.5430   22.7393  -30.1625 H   0  0  0  0  0  0  0  0  0  0  0  0
   -7.2824   22.6658  -30.6723 H   0  0  0  0  0  0  0  0  0  0  0  0
   -5.5860   23.1940  -32.9550 H   0  0  0  0  0  0  0  0  0  0  0  0
   -8.1205   21.7018  -31.3362 H   0  0  0  0  0  0  0  0  0  0  0  0
  -10.0609   20.1591  -31.1359 H   0  0  0  0  0  0  0  0  0  0  0  0
   -9.8914   17.8240  -31.9765 H   0  0  0  0  0  0  0  0  0  0  0  0
   -7.8190   17.0442  -33.0980 H   0  0  0  0  0  0  0  0  0  0  0  0
   -5.7295   16.4574  -33.8551 H   0  0  0  0  0  0  0  0  0  0  0  0
   -6.5877   17.4234  -35.1029 H   0  0  0  0  0  0  0  0  0  0  0  0
   -4.7930   17.3477  -35.1029 H   0  0  0  0  0  0  0  0  0  0  0  0
   -3.2041   17.7573  -34.3666 H   0  0  0  0  0  0  0  0  0  0  0  0
   -1.1092   19.0659  -34.1534 H   0  0  0  0  0  0  0  0  0  0  0  0
   -1.1151   21.2570  -32.9901 H   0  0  0  0  0  0  0  0  0  0  0  0
  1  2  1  0
  2  3  1  0
  3  4  1  0
  4  5  1  0
  5  6  1  0
  6  7  1  0
  7  8  1  0
  8  9  2  0
  9 10  1  0
 10 11  2  0
 11 12  1  0
 12 13  2  0
 13 14  1  0
 14 15  2  0
 15 16  1  0
 15 17  1  0
 17 18  2  0
 18 19  1  0
 19 20  2  0
 20 21  1  0
 21 22  1  0
 21 23  2  0
 23  8  1  0
 14  9  1  0
 23 17  1  0
  1 24  1  0
  1 25  1  0
  1 26  1  0
  2 27  1  0
  2 28  1  0
  3 29  1  0
  3 30  1  0
  4 31  1  0
  4 32  1  0
  5 33  1  0
  5 34  1  0
  6 35  1  0
  6 36  1  0
  7 37  1  0
 10 38  1  0
 11 39  1  0
 12 40  1  0
 13 41  1  0
 16 42  1  0
 16 43  1  0
 16 44  1  0
 18 45  1  0
 19 46  1  0
 20 47  1  0
M  CHG  2   3   1  15   1
M  END
>  <UniqueID>  (15) 
15

>  <SMILES>  (15) 
CC[NH2+]CCCNc1c2ccccc2[n+](C)c2cccc(Cl)c12

>  <Energy>  (15) 
79.18460468901179

>  <Genealogy>  (15) 
CC[NH2+]CCCNc1c2ccccc2[n+](C)c2cccc(Cl)c12 (protonated)
CC[NH2+]CCCNc1c2ccccc2[n+](C)c2cccc(Cl)c12 (3D coordinates assigned)
CC[NH2+]CCCNc1c2ccccc2[n+](C)c2cccc(Cl)c12 (optimized conformer: 79.18460468901179 kcal/mol)

>  <smiles>  (15) 
CCNCCCNc1c2ccccc2[n+](C)c2cccc(Cl)c12

>  <score_type>  (15) 
oracle

>  <origin>  (15) 
adg

>  <m_score__min__energy>  (15) 
-7.8200000000000003

>  <m_primary>  (15) 
energy

$$$$
15:0
     RDKit          3D

 58 59  0  0  0  0  0  0  0  0999 V2000
   -5.7700   16.7710  -34.4910 C   0  0  0  0  0  0  0  0  0  0  0  0
   -6.7470   16.7020  -33.3150 C   0  0  0  0  0  0  0  0  0  0  0  0
   -7.1570   18.0310  -32.8200 N   0  0  0  0  0  0  0  0  0  0  0  0
   -8.0590   18.0120  -31.6540 C   0  0  0  0  0  0  0  0  0  0  0  0
   -9.4680   18.5310  -31.9810 C   0  0  0  0  0  0  0  0  0  0  0  0
   -9.3970   19.6220  -32.9630 N   0  0  0  0  0  0  0  0  0  0  0  0
   -8.9870   20.9040  -32.3650 C   0  0  0  0  0  0  0  0  0  0  0  0
   -7.4900   21.0470  -32.3140 C   0  0  0  0  0  0  0  0  0  0  0  0
   -6.6420   20.4260  -33.1640 N   0  0  0  0  0  0  0  0  0  0  0  0
   -5.4130   20.8270  -32.8700 N   0  0  0  0  0  0  0  0  0  0  0  0
   -4.2180   20.3450  -33.5520 C   0  0  0  0  0  0  0  0  0  0  0  0
   -5.4590   21.6970  -31.8440 C   0  0  0  0  0  0  0  0  0  0  0  0
   -6.7630   21.8500  -31.4550 C   0  0  0  0  0  0  0  0  0  0  0  0
   -7.2130   22.7890  -30.3780 C   0  0  0  0  0  0  0  0  0  0  0  0
   -6.0260   23.1500  -29.4650 C   0  0  0  0  0  0  0  0  0  0  0  0
   -4.8140   23.4210  -30.2630 N   0  0  0  0  0  0  0  0  0  0  0  0
   -3.9920   24.5530  -29.9300 C   0  0  0  0  0  0  0  0  0  0  0  0
   -3.8820   25.5070  -30.7480 O   0  0  0  0  0  0  0  0  0  0  0  0
   -3.1510   24.5690  -28.6760 C   0  0  0  0  0  0  0  0  0  0  0  0
   -1.8510   25.2290  -28.8790 N   0  0  0  0  0  0  0  0  0  0  0  0
   -0.7270   24.5890  -28.1720 C   0  0  0  0  0  0  0  0  0  0  0  0
   -0.2890   23.2810  -28.8360 C   0  0  0  0  0  0  0  0  0  0  0  0
   -0.9130   23.1720  -30.0970 O   0  0  0  0  0  0  0  0  0  0  0  0
   -0.9850   21.8130  -30.4680 C   0  0  0  0  0  0  0  0  0  0  0  0
   -4.3080   22.3650  -31.1600 C   0  0  0  0  0  0  0  0  0  0  0  0
   -4.7410   16.8437  -34.1090 H   0  0  0  0  0  0  0  0  0  0  0  0
   -5.8701   15.8635  -35.1046 H   0  0  0  0  0  0  0  0  0  0  0  0
   -5.9967   17.6554  -35.1046 H   0  0  0  0  0  0  0  0  0  0  0  0
   -7.6460   16.1571  -33.6390 H   0  0  0  0  0  0  0  0  0  0  0  0
   -6.2291   16.1916  -32.4896 H   0  0  0  0  0  0  0  0  0  0  0  0
   -7.6320   18.5460  -33.5970 H   0  0  0  0  0  0  0  0  0  0  0  0
   -6.2960   18.5750  -32.5750 H   0  0  0  0  0  0  0  0  0  0  0  0
   -8.1415   16.9770  -31.2906 H   0  0  0  0  0  0  0  0  0  0  0  0
   -7.6292   18.6795  -30.8926 H   0  0  0  0  0  0  0  0  0  0  0  0
  -10.0699   17.7089  -32.3955 H   0  0  0  0  0  0  0  0  0  0  0  0
   -9.9313   18.9109  -31.0585 H   0  0  0  0  0  0  0  0  0  0  0  0
   -8.7160   19.3630  -33.7140 H   0  0  0  0  0  0  0  0  0  0  0  0
   -9.4023   21.7259  -32.9667 H   0  0  0  0  0  0  0  0  0  0  0  0
   -9.3675   20.9357  -31.3334 H   0  0  0  0  0  0  0  0  0  0  0  0
   -3.4675   20.0423  -32.8069 H   0  0  0  0  0  0  0  0  0  0  0  0
   -4.4784   19.4816  -34.1818 H   0  0  0  0  0  0  0  0  0  0  0  0
   -3.8064   21.1475  -34.1818 H   0  0  0  0  0  0  0  0  0  0  0  0
   -7.6117   23.7057  -30.8370 H   0  0  0  0  0  0  0  0  0  0  0  0
   -7.9956   22.3020  -29.7777 H   0  0  0  0  0  0  0  0  0  0  0  0
   -6.2805   24.0462  -28.8801 H   0  0  0  0  0  0  0  0  0  0  0  0
   -5.8248   22.3004  -28.7959 H   0  0  0  0  0  0  0  0  0  0  0  0
   -3.7007   25.1064  -27.8892 H   0  0  0  0  0  0  0  0  0  0  0  0
   -2.9554   23.5248  -28.3907 H   0  0  0  0  0  0  0  0  0  0  0  0
   -1.6340   25.2160  -29.9030 H   0  0  0  0  0  0  0  0  0  0  0  0
    0.1260   25.2835  -28.1629 H   0  0  0  0  0  0  0  0  0  0  0  0
   -1.0639   24.3511  -27.1523 H   0  0  0  0  0  0  0  0  0  0  0  0
    0.8035   23.2808  -28.9643 H   0  0  0  0  0  0  0  0  0  0  0  0
   -0.5794   22.4290  -28.2038 H   0  0  0  0  0  0  0  0  0  0  0  0
   -1.0181   21.1874  -29.5639 H   0  0  0  0  0  0  0  0  0  0  0  0
   -1.8934   21.6434  -31.0647 H   0  0  0  0  0  0  0  0  0  0  0  0
   -0.0996   21.5484  -31.0647 H   0  0  0  0  0  0  0  0  0  0  0  0
   -3.6429   22.8118  -31.9137 H   0  0  0  0  0  0  0  0  0  0  0  0
   -3.7495   21.6216  -30.5723 H   0  0  0  0  0  0  0  0  0  0  0  0
  1  2  1  0
  2  3  1  0
  3  4  1  0
  4  5  1  0
  5  6  1  0
  6  7  1  0
  7  8  1  0
  8  9  2  0
  9 10  1  0
 10 11  1  0
 10 12  1  0
 12 13  2  0
 13 14  1  0
 14 15  1  0
 15 16  1  0
 16 17  1  0
 17 18  2  0
 17 19  1  0
 19 20  1  0
 20 21  1  0
 21 22  1  0
 22 23  1  0
 23 24  1  0
 16 25  1  0
 13  8  1  0
 25 12  1  0
  1 26  1  0
  1 27  1  0
  1 28  1  0
  2 29  1  0
  2 30  1  0
  3 31  1  0
  3 32  1  0
  4 33  1  0
  4 34  1  0
  5 35  1  0
  5 36  1  0
  6 37  1  0
  7 38  1  0
  7 39  1  0
 11 40  1  0
 11 41  1  0
 11 42  1  0
 14 43  1  0
 14 44  1  0
 15 45  1  0
 15 46  1  0
 19 47  1  0
 19 48  1  0
 20 49  1  0
 21 50  1  0
 21 51  1  0
 22 52  1  0
 22 53  1  0
 24 54  1  0
 24 55  1  0
 24 56  1  0
 25 57  1  0
 25 58  1  0
M  CHG  1   3   1
M  END
>  <UniqueID>  (16) 
16

>  <SMILES>  (16) 
CC[NH2+]CCNCc1nn(C)c2c1CCN(C(=O)CNCCOC)C2

>  <Energy>  (16) 
85.82974043753973

>  <Genealogy>  (16) 
CC[NH2+]CCNCc1nn(C)c2c1CCN(C(=O)CNCCOC)C2 (protonated)
CC[NH2+]CCNCc1nn(C)c2c1CCN(C(=O)CNCCOC)C2 (3D coordinates assigned)
CC[NH2+]CCNCc1nn(C)c2c1CCN(C(=O)CNCCOC)C2 (nonaromatic ring conformer: 85.82974043753973 kcal/mol)

>  <smiles>  (16) 
CCNCCNCc1nn(C)c2c1CCN(C(=O)CNCCOC)C2

>  <score_type>  (16) 
oracle

>  <origin>  (16) 
adg

>  <m_score__min__energy>  (16) 
-7.3899999999999997

>  <m_primary>  (16) 
energy

$$$$
16:0
     RDKit          3D

 59 61  0  0  0  0  0  0  0  0999 V2000
   -0.5620   19.5030  -28.9360 C   0  0  0  0  0  0  0  0  0  0  0  0
   -0.7520   19.3080  -27.4300 C   0  0  0  0  0  0  0  0  0  0  0  0
   -1.8660   20.1340  -26.9110 N   0  0  0  0  0  0  0  0  0  0  0  0
   -3.1250   19.3660  -26.8860 C   0  0  0  0  0  0  0  0  0  0  0  0
   -2.0250   21.4530  -27.5740 C   0  0  0  0  0  0  0  0  0  0  0  0
   -3.4780   21.8520  -27.8920 C   0  0  0  0  0  0  0  0  0  0  0  0
   -3.5810   22.2370  -29.2470 O   0  0  0  0  0  0  0  0  0  0  0  0
   -2.4140   22.9250  -29.6500 C   0  0  0  0  0  0  0  0  0  0  0  0
   -2.5990   24.4140  -29.3830 C   0  0  0  0  0  0  0  0  0  0  0  0
   -3.4900   24.9230  -30.3370 O   0  0  0  0  0  0  0  0  0  0  0  0
   -4.7220   24.9540  -29.7640 N   0  0  0  0  0  0  0  0  0  0  0  0
   -5.7050   25.3180  -30.7940 C   0  0  0  0  0  0  0  0  0  0  0  0
   -6.1790   24.1140  -31.6370 C   0  0  0  0  0  0  0  0  0  0  0  0
   -5.3340   22.9390  -31.3980 N   0  0  0  0  0  0  0  0  0  0  0  0
   -5.5770   21.6200  -31.9440 C   0  0  0  0  0  0  0  0  0  0  0  0
   -4.5420   20.9170  -32.5570 C   0  0  0  0  0  0  0  0  0  0  0  0
   -4.7830   19.7110  -33.2160 C   0  0  0  0  0  0  0  0  0  0  0  0
   -3.6960   19.0650  -33.8310 C   0  0  0  0  0  0  0  0  0  0  0  0
   -3.8910   17.8700  -34.5060 C   0  0  0  0  0  0  0  0  0  0  0  0
   -5.1610   17.3220  -34.5660 C   0  0  0  0  0  0  0  0  0  0  0  0
   -6.2290   17.9790  -33.9530 C   0  0  0  0  0  0  0  0  0  0  0  0
   -6.0580   19.1750  -33.2810 N   0  0  0  0  0  0  0  0  0  0  0  0
   -7.1140   19.8420  -32.6690 C   0  0  0  0  0  0  0  0  0  0  0  0
   -8.4530   19.3590  -32.7100 C   0  0  0  0  0  0  0  0  0  0  0  0
   -9.4840   20.0260  -32.0520 C   0  0  0  0  0  0  0  0  0  0  0  0
   -9.2270   21.1820  -31.3320 C   0  0  0  0  0  0  0  0  0  0  0  0
   -7.9390   21.7010  -31.2840 C   0  0  0  0  0  0  0  0  0  0  0  0
   -6.8760   21.0670  -31.9660 C   0  0  0  0  0  0  0  0  0  0  0  0
    0.1957   20.2807  -29.1123 H   0  0  0  0  0  0  0  0  0  0  0  0
   -0.2293   18.5575  -29.3891 H   0  0  0  0  0  0  0  0  0  0  0  0
   -1.5159   19.8110  -29.3891 H   0  0  0  0  0  0  0  0  0  0  0  0
   -0.9705   18.2483  -27.2318 H   0  0  0  0  0  0  0  0  0  0  0  0
    0.1731   19.6192  -26.9228 H   0  0  0  0  0  0  0  0  0  0  0  0
   -3.4230   19.1842  -25.8428 H   0  0  0  0  0  0  0  0  0  0  0  0
   -3.9132   19.9372  -27.3983 H   0  0  0  0  0  0  0  0  0  0  0  0
   -2.9778   18.4038  -27.3983 H   0  0  0  0  0  0  0  0  0  0  0  0
   -1.5975   22.2209  -26.9125 H   0  0  0  0  0  0  0  0  0  0  0  0
   -1.5095   21.3738  -28.5425 H   0  0  0  0  0  0  0  0  0  0  0  0
   -4.1418   20.9953  -27.7040 H   0  0  0  0  0  0  0  0  0  0  0  0
   -3.7725   22.6957  -27.2505 H   0  0  0  0  0  0  0  0  0  0  0  0
   -1.5506   22.5524  -29.0793 H   0  0  0  0  0  0  0  0  0  0  0  0
   -2.2364   22.7590  -30.7228 H   0  0  0  0  0  0  0  0  0  0  0  0
   -3.0095   24.5630  -28.3734 H   0  0  0  0  0  0  0  0  0  0  0  0
   -1.6324   24.9348  -29.4502 H   0  0  0  0  0  0  0  0  0  0  0  0
   -4.9340   23.9840  -29.4340 H   0  0  0  0  0  0  0  0  0  0  0  0
   -6.5803   25.7644  -30.2994 H   0  0  0  0  0  0  0  0  0  0  0  0
   -5.2129   26.0231  -31.4800 H   0  0  0  0  0  0  0  0  0  0  0  0
   -7.2171   23.8716  -31.3658 H   0  0  0  0  0  0  0  0  0  0  0  0
   -6.1113   24.3834  -32.7014 H   0  0  0  0  0  0  0  0  0  0  0  0
   -4.5390   23.0730  -30.7320 H   0  0  0  0  0  0  0  0  0  0  0  0
   -3.5188   21.3191  -32.5209 H   0  0  0  0  0  0  0  0  0  0  0  0
   -2.6906   19.5080  -33.7765 H   0  0  0  0  0  0  0  0  0  0  0  0
   -3.0440   17.3615  -34.9898 H   0  0  0  0  0  0  0  0  0  0  0  0
   -5.3278   16.3721  -35.0950 H   0  0  0  0  0  0  0  0  0  0  0  0
   -7.2333   17.5334  -34.0060 H   0  0  0  0  0  0  0  0  0  0  0  0
   -8.6778   18.4408  -33.2725 H   0  0  0  0  0  0  0  0  0  0  0  0
  -10.5098   19.6322  -32.1043 H   0  0  0  0  0  0  0  0  0  0  0  0
  -10.0438   21.6893  -30.7978 H   0  0  0  0  0  0  0  0  0  0  0  0
   -7.7442   22.6174  -30.7076 H   0  0  0  0  0  0  0  0  0  0  0  0
  1  2  1  0
  2  3  1  0
  3  4  1  0
  3  5  1  0
  5  6  1  0
  6  7  1  0
  7  8  1  0
  8  9  1  0
  9 10  1  0
 10 11  1  0
 11 12  1  0
 12 13  1  0
 13 14  1  0
 14 15  1  0
 15 16  2  0
 16 17  1  0
 17 18  2  0
 18 19  1  0
 19 20  2  0
 20 21  1  0
 21 22  2  0
 22 23  1  0
 23 24  2  0
 24 25  1  0
 25 26  2  0
 26 27  1  0
 27 28  2  0
 28 15  1  0
 22 17  1  0
 28 23  1  0
  1 29  1  0
  1 30  1  0
  1 31  1  0
  2 32  1  0
  2 33  1  0
  4 34  1  0
  4 35  1  0
  4 36  1  0
  5 37  1  0
  5 38  1  0
  6 39  1  0
  6 40  1  0
  8 41  1  0
  8 42  1  0
  9 43  1  0
  9 44  1  0
 11 45  1  0
 12 46  1  0
 12 47  1  0
 13 48  1  0
 13 49  1  0
 14 50  1  0
 16 51  1  0
 18 52  1  0
 19 53  1  0
 20 54  1  0
 21 55  1  0
 24 56  1  0
 25 57  1  0
 26 58  1  0
 27 59  1  0
M  CHG  1  22   1
M  END
>  <UniqueID>  (17) 
17

>  <SMILES>  (17) 
CCN(C)CCOCCONCCNc1cc2cccc[n+]2c2ccccc12

>  <Energy>  (17) 
73.35197882812464

>  <Genealogy>  (17) 
CCN(C)CCOCCONCCNc1cc2cccc[n+]2c2ccccc12 (3D coordinates assigned)
CCN(C)CCOCCONCCNc1cc2cccc[n+]2c2ccccc12 (optimized conformer: 73.35197882812464 kcal/mol)

>  <smiles>  (17) 
CCN(C)CCOCCONCCNc1cc2cccc[n+]2c2ccccc12

>  <score_type>  (17) 
oracle

>  <origin>  (17) 
adg

>  <m_score__min__energy>  (17) 
-7.5599999999999996

>  <m_primary>  (17) 
energy

$$$$
17:0
     RDKit          3D

 79 84  0  0  0  0  0  0  0  0999 V2000
   -6.9131   22.2889  -31.1024 H   0  0  0  0  0  0  0  0  0  0  0  0
   -5.9380   22.7980  -31.1050 C   0  0  0  0  0  0  0  0  0  0  0  0
   -2.9340   20.1250  -32.8860 C   0  0  0  0  0  0  0  0  0  0  0  0
   -2.9860   18.8170  -32.8080 N   0  0  0  0  0  0  0  0  0  0  0  0
   -4.1940   17.9810  -32.8020 C   0  0  0  0  0  0  0  0  0  0  0  0
   -3.9499   16.9993  -32.3699 H   0  0  0  0  0  0  0  0  0  0  0  0
   -4.9660   18.4850  -32.2020 H   0  0  0  0  0  0  0  0  0  0  0  0
   -4.7380   17.7810  -34.2390 C   0  0  0  0  0  0  0  0  0  0  0  0
   -3.9165   17.9608  -34.9481 H   0  0  0  0  0  0  0  0  0  0  0  0
   -5.1260   16.7531  -34.2924 H   0  0  0  0  0  0  0  0  0  0  0  0
   -5.9070   18.7190  -34.6030 C   0  0  0  0  0  0  0  0  0  0  0  0
   -5.4873   19.6805  -34.9338 H   0  0  0  0  0  0  0  0  0  0  0  0
   -6.4849   18.2121  -35.3898 H   0  0  0  0  0  0  0  0  0  0  0  0
   -6.8660   18.9870  -33.4650 C   0  0  0  0  0  0  0  0  0  0  0  0
   -7.4340   17.9380  -32.7130 C   0  0  0  0  0  0  0  0  0  0  0  0
   -7.1628   16.8962  -32.9389 H   0  0  0  0  0  0  0  0  0  0  0  0
   -8.3360   18.2100  -31.6860 C   0  0  0  0  0  0  0  0  0  0  0  0
   -8.7344   17.3871  -31.0743 H   0  0  0  0  0  0  0  0  0  0  0  0
   -8.7370   19.5270  -31.4300 C   0  0  0  0  0  0  0  0  0  0  0  0
   -9.4466   19.7408  -30.6172 H   0  0  0  0  0  0  0  0  0  0  0  0
   -8.2300   20.5700  -32.2140 C   0  0  0  0  0  0  0  0  0  0  0  0
   -8.5612   21.6031  -32.0325 H   0  0  0  0  0  0  0  0  0  0  0  0
   -7.3040   20.3030  -33.2270 C   0  0  0  0  0  0  0  0  0  0  0  0
   -6.9150   21.1276  -33.8424 H   0  0  0  0  0  0  0  0  0  0  0  0
   -1.6590   18.3340  -32.6660 C   0  0  0  0  0  0  0  0  0  0  0  0
   -1.2300   17.0090  -32.6540 C   0  0  0  0  0  0  0  0  0  0  0  0
   -1.9548   16.1848  -32.7275 H   0  0  0  0  0  0  0  0  0  0  0  0
    0.1490   16.7440  -32.5460 C   0  0  0  0  0  0  0  0  0  0  0  0
    0.5059   15.7053  -32.4850 H   0  0  0  0  0  0  0  0  0  0  0  0
    1.0740   17.8110  -32.5160 C   0  0  0  0  0  0  0  0  0  0  0  0
    2.1523   17.6043  -32.4489 H   0  0  0  0  0  0  0  0  0  0  0  0
    0.6140   19.1350  -32.5720 C   0  0  0  0  0  0  0  0  0  0  0  0
    1.3236   19.9754  -32.5580 H   0  0  0  0  0  0  0  0  0  0  0  0
   -0.7630   19.3670  -32.6460 C   0  0  0  0  0  0  0  0  0  0  0  0
   -1.4960   20.6470  -32.8490 C   0  0  0  0  0  0  0  0  0  0  0  0
   -1.1080   21.2460  -34.2090 C   0  0  0  0  0  0  0  0  0  0  0  0
   -0.5161   22.1598  -34.0518 H   0  0  0  0  0  0  0  0  0  0  0  0
   -0.5112   20.5153  -34.7746 H   0  0  0  0  0  0  0  0  0  0  0  0
   -2.0188   21.4919  -34.7746 H   0  0  0  0  0  0  0  0  0  0  0  0
   -1.2240   21.6020  -31.6810 C   0  0  0  0  0  0  0  0  0  0  0  0
   -1.3754   21.0705  -30.7299 H   0  0  0  0  0  0  0  0  0  0  0  0
   -0.1869   21.9643  -31.7375 H   0  0  0  0  0  0  0  0  0  0  0  0
   -1.9145   22.4564  -31.7375 H   0  0  0  0  0  0  0  0  0  0  0  0
   -5.3170   23.2160  -29.8440 C   0  0  0  0  0  0  0  0  0  0  0  0
   -5.9293   23.7507  -29.1029 H   0  0  0  0  0  0  0  0  0  0  0  0
   -4.1690   20.9710  -32.9170 C   0  0  0  0  0  0  0  0  0  0  0  0
   -5.1371   20.4778  -33.0886 H   0  0  0  0  0  0  0  0  0  0  0  0
   -4.1520   22.2910  -32.7470 C   0  0  0  0  0  0  0  0  0  0  0  0
   -3.2294   22.8406  -32.9854 H   0  0  0  0  0  0  0  0  0  0  0  0
   -5.3070   23.0420  -32.2570 C   0  0  0  0  0  0  0  0  0  0  0  0
   -5.6829   23.8662  -32.8811 H   0  0  0  0  0  0  0  0  0  0  0  0
   -4.0470   22.9730  -29.5660 C   0  0  0  0  0  0  0  0  0  0  0  0
   -2.8910   22.1100  -29.0390 N   0  0  0  0  0  0  0  0  0  0  0  0
   -2.3540   20.9440  -28.4270 C   0  0  0  0  0  0  0  0  0  0  0  0
   -1.0630   20.5180  -28.7400 C   0  0  0  0  0  0  0  0  0  0  0  0
   -0.4764   21.0520  -29.5021 H   0  0  0  0  0  0  0  0  0  0  0  0
   -0.5160   19.4120  -28.0840 C   0  0  0  0  0  0  0  0  0  0  0  0
    0.5013   19.0759  -28.3332 H   0  0  0  0  0  0  0  0  0  0  0  0
   -1.2580   18.7280  -27.1090 C   0  0  0  0  0  0  0  0  0  0  0  0
   -0.8264   17.8559  -26.5959 H   0  0  0  0  0  0  0  0  0  0  0  0
   -2.5440   19.1600  -26.7950 C   0  0  0  0  0  0  0  0  0  0  0  0
   -3.1248   18.6348  -26.0224 H   0  0  0  0  0  0  0  0  0  0  0  0
   -3.0990   20.2560  -27.4560 C   0  0  0  0  0  0  0  0  0  0  0  0
   -4.1219   20.5817  -27.2161 H   0  0  0  0  0  0  0  0  0  0  0  0
   -2.7260   23.4010  -29.5420 C   0  0  2  0  0  0  0  0  0  0  0  0
   -2.0968   23.8309  -30.3353 H   0  0  0  0  0  0  0  0  0  0  0  0
   -2.3800   24.3960  -28.4620 C   0  0  0  0  0  0  0  0  0  0  0  0
   -1.3780   25.3040  -28.6560 N   0  0  0  0  0  0  0  0  0  0  0  0
   -0.9820   26.1730  -27.6890 C   0  0  0  0  0  0  0  0  0  0  0  0
   -0.1774   26.8952  -27.8918 H   0  0  0  0  0  0  0  0  0  0  0  0
   -1.6000   26.1460  -26.4370 C   0  0  0  0  0  0  0  0  0  0  0  0
   -1.2020   27.1060  -25.3670 C   0  0  0  0  0  0  0  0  0  0  0  0
   -1.3891   26.6548  -24.3814 H   0  0  0  0  0  0  0  0  0  0  0  0
   -0.1320   27.3416  -25.4653 H   0  0  0  0  0  0  0  0  0  0  0  0
   -1.7914   28.0296  -25.4653 H   0  0  0  0  0  0  0  0  0  0  0  0
   -2.6560   25.2430  -26.2300 C   0  0  0  0  0  0  0  0  0  0  0  0
   -3.1847   25.2357  -25.2654 H   0  0  0  0  0  0  0  0  0  0  0  0
   -3.0400   24.3580  -27.2320 C   0  0  0  0  0  0  0  0  0  0  0  0
   -3.8529   23.6377  -27.0578 H   0  0  0  0  0  0  0  0  0  0  0  0
  1  2  1  0
  2  3  1  0
  3  4  2  0
  4  5  1  0
  5  6  1  0
  5  7  1  0
  5  8  1  0
  8  9  1  0
  8 10  1  0
  8 11  1  0
 11 12  1  0
 11 13  1  0
 11 14  1  0
 14 15  2  0
 15 16  1  0
 15 17  1  0
 17 18  1  0
 17 19  2  0
 19 20  1  0
 19 21  1  0
 21 22  1  0
 21 23  2  0
 23 24  1  0
  4 25  1  0
 25 26  2  0
 26 27  1  0
 26 28  1  0
 28 29  1  0
 28 30  2  0
 30 31  1  0
 30 32  1  0
 32 33  1  0
 32 34  2  0
 34 35  1  0
 35 36  1  0
 36 37  1  0
 36 38  1  0
 36 39  1  0
 35 40  1  0
 40 41  1  0
 40 42  1  0
 40 43  1  0
  2 44  2  0
 44 45  1  0
 44 46  1  0
 46 47  1  0
 46 48  2  0
 48 49  1  0
 48 50  1  0
 50 51  1  0
 50 52  2  0
 52 53  1  0
 53 54  1  0
 54 55  2  0
 55 56  1  0
 55 57  1  0
 57 58  1  0
 57 59  2  0
 59 60  1  0
 59 61  1  0
 61 62  1  0
 61 63  2  0
 63 64  1  0
 53 65  1  0
 65 66  1  6
 65 67  1  0
 67 68  2  0
 68 69  1  0
 69 70  1  0
 69 71  2  0
 71 72  1  0
 72 73  1  0
 72 74  1  0
 72 75  1  0
 71 76  1  0
 76 77  1  0
 76 78  2  0
 78 79  1  0
 35  3  1  0
 65 52  1  0
 78 67  1  0
 23 14  1  0
 34 25  1  0
 63 54  1  0
M  CHG  1   4   1
M  END
>  <UniqueID>  (18) 
18

>  <SMILES>  (18) 
Cc1ccc([C@@H]2/C(=C/C=C/C=C\C3=[N+](CCCc4ccccc4)c4ccccc4C3(C)C)N2c2ccccc2)nc1

>  <Energy>  (18) 
248.54331772514797

>  <Genealogy>  (18) 
Cc1ccc([C@@H]2C(=CC=CC=CC3=[N+](CCCc4ccccc4)c4ccccc4C3(C)C)N2c2ccccc2)nc1 (chirality)
Cc1ccc([C@@H]2/C(=C/C=C/C=C\C3=[N+](CCCc4ccccc4)c4ccccc4C3(C)C)N2c2ccccc2)nc1 (cis-trans isomerization)
Cc1ccc([C@@H]2/C(=C/C=C/C=C\C3=[N+](CCCc4ccccc4)c4ccccc4C3(C)C)N2c2ccccc2)nc1 (3D coordinates assigned)
Cc1ccc([C@@H]2/C(=C/C=C/C=C\C3=[N+](CCCc4ccccc4)c4ccccc4C3(C)C)N2c2ccccc2)nc1 (nonaromatic ring conformer: 248.54331772514797 kcal/mol)

>  <smiles>  (18) 
Cc1ccc(C2C(=CC=CC=CC3=[N+](CCCc4ccccc4)c4ccccc4C3(C)C)N2c2ccccc2)nc1

>  <score_type>  (18) 
oracle

>  <origin>  (18) 
adg

>  <m_score__min__energy>  (18) 
-11.83

>  <m_primary>  (18) 
energy

$$$$
18:0
     RDKit          3D

 54 55  0  0  0  0  0  0  0  0999 V2000
   -3.8700   23.0760  -29.0320 C   0  0  0  0  0  0  0  0  0  0  0  0
   -3.5600   24.2840  -29.9110 C   0  0  0  0  0  0  0  0  0  0  0  0
   -4.6760   24.5280  -30.8550 N   0  0  0  0  0  0  0  0  0  0  0  0
   -5.4410   25.7390  -30.4790 C   0  0  0  0  0  0  0  0  0  0  0  0
   -6.4870   25.4010  -29.4150 C   0  0  0  0  0  0  0  0  0  0  0  0
   -5.5580   23.3430  -30.9610 C   0  0  0  0  0  0  0  0  0  0  0  0
   -6.4870   23.4870  -32.1720 C   0  0  0  0  0  0  0  0  0  0  0  0
   -7.2700   22.3190  -32.3380 O   0  0  0  0  0  0  0  0  0  0  0  0
   -8.0150   22.0260  -31.1700 C   0  0  0  0  0  0  0  0  0  0  0  0
   -9.4960   21.8220  -31.5220 C   0  0  0  0  0  0  0  0  0  0  0  0
   -9.7400   20.5300  -32.3260 C   0  0  0  0  0  0  0  0  0  0  0  0
   -8.5060   20.0520  -32.9780 N   0  0  0  0  0  0  0  0  0  0  0  0
   -7.8820   18.9440  -32.2310 C   0  0  0  0  0  0  0  0  0  0  0  0
   -6.7020   18.3380  -32.9760 C   0  0  0  0  0  0  0  0  0  0  0  0
   -6.8530   17.0460  -33.5100 C   0  0  0  0  0  0  0  0  0  0  0  0
   -5.8070   16.4250  -34.1910 C   0  0  0  0  0  0  0  0  0  0  0  0
   -4.5860   17.0750  -34.3470 C   0  0  0  0  0  0  0  0  0  0  0  0
   -4.3990   18.3610  -33.8250 C   0  0  0  0  0  0  0  0  0  0  0  0
   -3.1630   19.0070  -33.9880 C   0  0  0  0  0  0  0  0  0  0  0  0
   -2.9640   20.2860  -33.4690 C   0  0  0  0  0  0  0  0  0  0  0  0
   -3.9940   20.9340  -32.7900 C   0  0  0  0  0  0  0  0  0  0  0  0
   -5.2330   20.3100  -32.6230 C   0  0  0  0  0  0  0  0  0  0  0  0
   -5.4580   19.0110  -33.1330 C   0  0  0  0  0  0  0  0  0  0  0  0
   -3.7960   23.3644  -27.9731 H   0  0  0  0  0  0  0  0  0  0  0  0
   -4.8887   22.7196  -29.2446 H   0  0  0  0  0  0  0  0  0  0  0  0
   -3.1488   22.2731  -29.2446 H   0  0  0  0  0  0  0  0  0  0  0  0
   -3.4214   25.1706  -29.2748 H   0  0  0  0  0  0  0  0  0  0  0  0
   -2.6417   24.0861  -30.4833 H   0  0  0  0  0  0  0  0  0  0  0  0
   -4.7491   26.4951  -30.0795 H   0  0  0  0  0  0  0  0  0  0  0  0
   -5.9531   26.1285  -31.3712 H   0  0  0  0  0  0  0  0  0  0  0  0
   -6.0514   25.5418  -28.4148 H   0  0  0  0  0  0  0  0  0  0  0  0
   -7.3570   26.0637  -29.5326 H   0  0  0  0  0  0  0  0  0  0  0  0
   -6.8047   24.3545  -29.5326 H   0  0  0  0  0  0  0  0  0  0  0  0
   -4.9416   22.4397  -31.0802 H   0  0  0  0  0  0  0  0  0  0  0  0
   -6.1656   23.2625  -30.0476 H   0  0  0  0  0  0  0  0  0  0  0  0
   -7.1519   24.3496  -32.0176 H   0  0  0  0  0  0  0  0  0  0  0  0
   -5.8752   23.6364  -33.0739 H   0  0  0  0  0  0  0  0  0  0  0  0
   -7.6215   21.1081  -30.7089 H   0  0  0  0  0  0  0  0  0  0  0  0
   -7.9260   22.8676  -30.4673 H   0  0  0  0  0  0  0  0  0  0  0  0
  -10.0765   21.7716  -30.5890 H   0  0  0  0  0  0  0  0  0  0  0  0
   -9.8099   22.6696  -32.1489 H   0  0  0  0  0  0  0  0  0  0  0  0
  -10.1080   19.7496  -31.6437 H   0  0  0  0  0  0  0  0  0  0  0  0
  -10.4797   20.7486  -33.1102 H   0  0  0  0  0  0  0  0  0  0  0  0
   -7.8320   20.8470  -33.0770 H   0  0  0  0  0  0  0  0  0  0  0  0
   -8.7330   19.6960  -33.9340 H   0  0  0  0  0  0  0  0  0  0  0  0
   -7.5300   19.3253  -31.2611 H   0  0  0  0  0  0  0  0  0  0  0  0
   -8.6391   18.1565  -32.1022 H   0  0  0  0  0  0  0  0  0  0  0  0
   -7.8102   16.5177  -33.3887 H   0  0  0  0  0  0  0  0  0  0  0  0
   -5.9472   15.4164  -34.6071 H   0  0  0  0  0  0  0  0  0  0  0  0
   -3.7646   16.5765  -34.8825 H   0  0  0  0  0  0  0  0  0  0  0  0
   -2.3481   18.5020  -34.5274 H   0  0  0  0  0  0  0  0  0  0  0  0
   -1.9917   20.7845  -33.5959 H   0  0  0  0  0  0  0  0  0  0  0  0
   -3.8307   21.9428  -32.3830 H   0  0  0  0  0  0  0  0  0  0  0  0
   -6.0401   20.8340  -32.0902 H   0  0  0  0  0  0  0  0  0  0  0  0
  1  2  1  0
  2  3  1  0
  3  4  1  0
  4  5  1  0
  3  6  1  0
  6  7  1  0
  7  8  1  0
  8  9  1  0
  9 10  1  0
 10 11  1  0
 11 12  1  0
 12 13  1  0
 13 14  1  0
 14 15  2  0
 15 16  1  0
 16 17  2  0
 17 18  1  0
 18 19  2  0
 19 20  1  0
 20 21  2  0
 21 22  1  0
 22 23  2  0
 23 14  1  0
 23 18  1  0
  1 24  1  0
  1 25  1  0
  1 26  1  0
  2 27  1  0
  2 28  1  0
  4 29  1  0
  4 30  1  0
  5 31  1  0
  5 32  1  0
  5 33  1  0
  6 34  1  0
  6 35  1  0
  7 36  1  0
  7 37  1  0
  9 38  1  0
  9 39  1  0
 10 40  1  0
 10 41  1  0
 11 42  1  0
 11 43  1  0
 12 44  1  0
 12 45  1  0
 13 46  1  0
 13 47  1  0
 15 48  1  0
 16 49  1  0
 17 50  1  0
 19 51  1  0
 20 52  1  0
 21 53  1  0
 22 54  1  0
M  CHG  1  12   1
M  END
>  <UniqueID>  (19) 
19

>  <SMILES>  (19) 
CCN(CC)CCOCCC[NH2+]Cc1cccc2ccccc12

>  <Energy>  (19) 
56.42530501101963

>  <Genealogy>  (19) 
CCN(CC)CCOCCC[NH2+]Cc1cccc2ccccc12 (protonated)
CCN(CC)CCOCCC[NH2+]Cc1cccc2ccccc12 (3D coordinates assigned)
CCN(CC)CCOCCC[NH2+]Cc1cccc2ccccc12 (optimized conformer: 56.42530501101963 kcal/mol)

>  <smiles>  (19) 
CCN(CC)CCOCCCNCc1cccc2ccccc12

>  <score_type>  (19) 
oracle

>  <origin>  (19) 
adg

>  <m_score__min__energy>  (19) 
-7.0599999999999996

>  <m_primary>  (19) 
energy

$$$$
19:0
     RDKit          3D

 57 59  0  0  0  0  0  0  0  0999 V2000
   -2.9680   23.4160  -27.8480 C   0  0  0  0  0  0  0  0  0  0  0  0
   -3.5250   22.0240  -28.1200 C   0  0  0  0  0  0  0  0  0  0  0  0
   -2.5900   21.2810  -28.9990 N   0  0  0  0  0  0  0  0  0  0  0  0
   -1.9440   20.1370  -28.3120 C   0  0  0  0  0  0  0  0  0  0  0  0
   -2.7430   19.6090  -27.1100 C   0  0  0  0  0  0  0  0  0  0  0  0
   -1.6160   22.1450  -29.7040 C   0  0  0  0  0  0  0  0  0  0  0  0
   -0.6570   21.3200  -30.5680 C   0  0  0  0  0  0  0  0  0  0  0  0
   -1.3930   20.4710  -31.4210 O   0  0  0  0  0  0  0  0  0  0  0  0
   -1.5950   21.1020  -32.6670 C   0  0  0  0  0  0  0  0  0  0  0  0
   -3.0970   21.2280  -32.9300 C   0  0  0  0  0  0  0  0  0  0  0  0
   -3.8840   20.6710  -31.8110 N   0  0  0  0  0  0  0  0  0  0  0  0
   -5.2520   21.1610  -31.8400 C   0  0  0  0  0  0  0  0  0  0  0  0
   -5.5290   22.4770  -31.3650 C   0  0  0  0  0  0  0  0  0  0  0  0
   -4.4910   23.3690  -30.9790 C   0  0  0  0  0  0  0  0  0  0  0  0
   -4.7730   24.6330  -30.4710 C   0  0  0  0  0  0  0  0  0  0  0  0
   -6.0870   25.0450  -30.3180 C   0  0  0  0  0  0  0  0  0  0  0  0
   -7.1270   24.2020  -30.6970 C   0  0  0  0  0  0  0  0  0  0  0  0
   -6.8740   22.9210  -31.2560 C   0  0  0  0  0  0  0  0  0  0  0  0
   -7.9070   22.1020  -31.6470 N   0  0  0  0  0  0  0  0  0  0  0  0
   -9.2710   22.6610  -31.8020 C   0  0  0  0  0  0  0  0  0  0  0  0
   -7.6750   20.7750  -31.9320 C   0  0  0  0  0  0  0  0  0  0  0  0
   -8.7500   19.8540  -31.9620 C   0  0  0  0  0  0  0  0  0  0  0  0
   -8.5630   18.5390  -32.3530 C   0  0  0  0  0  0  0  0  0  0  0  0
   -7.3160   18.1170  -32.7730 C   0  0  0  0  0  0  0  0  0  0  0  0
   -6.2140   18.9750  -32.7300 C   0  0  0  0  0  0  0  0  0  0  0  0
   -4.6920   18.2350  -33.6560 Br  0  0  0  0  0  0  0  0  0  0  0  0
   -6.3480   20.3010  -32.1840 C   0  0  0  0  0  0  0  0  0  0  0  0
   -2.9027   23.5791  -26.7621 H   0  0  0  0  0  0  0  0  0  0  0  0
   -1.9657   23.5032  -28.2928 H   0  0  0  0  0  0  0  0  0  0  0  0
   -3.6334   24.1706  -28.2928 H   0  0  0  0  0  0  0  0  0  0  0  0
   -3.6421   21.4836  -27.1691 H   0  0  0  0  0  0  0  0  0  0  0  0
   -4.5034   22.1107  -28.6152 H   0  0  0  0  0  0  0  0  0  0  0  0
   -1.8251   19.3183  -29.0370 H   0  0  0  0  0  0  0  0  0  0  0  0
   -0.9794   20.4968  -27.9246 H   0  0  0  0  0  0  0  0  0  0  0  0
   -2.2569   19.9302  -26.1770 H   0  0  0  0  0  0  0  0  0  0  0  0
   -3.7671   20.0088  -27.1464 H   0  0  0  0  0  0  0  0  0  0  0  0
   -2.7768   18.5101  -27.1464 H   0  0  0  0  0  0  0  0  0  0  0  0
   -2.1632   22.8483  -30.3490 H   0  0  0  0  0  0  0  0  0  0  0  0
   -1.0241   22.6848  -28.9501 H   0  0  0  0  0  0  0  0  0  0  0  0
   -0.0364   21.9971  -31.1733 H   0  0  0  0  0  0  0  0  0  0  0  0
   -0.0134   20.7109  -29.9162 H   0  0  0  0  0  0  0  0  0  0  0  0
   -1.1392   22.1030  -32.6506 H   0  0  0  0  0  0  0  0  0  0  0  0
   -1.1294   20.5035  -33.4639 H   0  0  0  0  0  0  0  0  0  0  0  0
   -3.3517   22.2910  -33.0536 H   0  0  0  0  0  0  0  0  0  0  0  0
   -3.3395   20.6624  -33.8418 H   0  0  0  0  0  0  0  0  0  0  0  0
   -3.4370   20.9140  -30.9010 H   0  0  0  0  0  0  0  0  0  0  0  0
   -3.8540   19.6320  -31.7910 H   0  0  0  0  0  0  0  0  0  0  0  0
   -3.4427   23.0528  -31.0843 H   0  0  0  0  0  0  0  0  0  0  0  0
   -3.9505   25.3072  -30.1900 H   0  0  0  0  0  0  0  0  0  0  0  0
   -6.3077   26.0372  -29.8975 H   0  0  0  0  0  0  0  0  0  0  0  0
   -8.1667   24.5345  -30.5609 H   0  0  0  0  0  0  0  0  0  0  0  0
   -9.7088   22.8404  -30.8089 H   0  0  0  0  0  0  0  0  0  0  0  0
   -9.2177   23.6098  -32.3560 H   0  0  0  0  0  0  0  0  0  0  0  0
   -9.8988   21.9477  -32.3560 H   0  0  0  0  0  0  0  0  0  0  0  0
   -9.7553   20.1904  -31.6684 H   0  0  0  0  0  0  0  0  0  0  0  0
   -9.4052   17.8318  -32.3294 H   0  0  0  0  0  0  0  0  0  0  0  0
   -7.1890   17.0903  -33.1468 H   0  0  0  0  0  0  0  0  0  0  0  0
  1  2  1  0
  2  3  1  0
  3  4  1  0
  4  5  1  0
  3  6  1  0
  6  7  1  0
  7  8  1  0
  8  9  1  0
  9 10  1  0
 10 11  1  0
 11 12  1  0
 12 13  2  0
 13 14  1  0
 14 15  2  0
 15 16  1  0
 16 17  2  0
 17 18  1  0
 18 19  2  0
 19 20  1  0
 19 21  1  0
 21 22  2  0
 22 23  1  0
 23 24  2  0
 24 25  1  0
 25 26  1  0
 25 27  2  0
 27 12  1  0
 18 13  1  0
 27 21  1  0
  1 28  1  0
  1 29  1  0
  1 30  1  0
  2 31  1  0
  2 32  1  0
  4 33  1  0
  4 34  1  0
  5 35  1  0
  5 36  1  0
  5 37  1  0
  6 38  1  0
  6 39  1  0
  7 40  1  0
  7 41  1  0
  9 42  1  0
  9 43  1  0
 10 44  1  0
 10 45  1  0
 11 46  1  0
 11 47  1  0
 14 48  1  0
 15 49  1  0
 16 50  1  0
 17 51  1  0
 20 52  1  0
 20 53  1  0
 20 54  1  0
 22 55  1  0
 23 56  1  0
 24 57  1  0
M  CHG  2  11   1  19   1
M  END
>  <UniqueID>  (20) 
20

>  <SMILES>  (20) 
CCN(CC)CCOCC[NH2+]c1c2ccccc2[n+](C)c2cccc(Br)c12

>  <Energy>  (20) 
97.97806582851811

>  <Genealogy>  (20) 
CCN(CC)CCOCC[NH2+]c1c2ccccc2[n+](C)c2cccc(Br)c12 (protonated)
CCN(CC)CCOCC[NH2+]c1c2ccccc2[n+](C)c2cccc(Br)c12 (3D coordinates assigned)
CCN(CC)CCOCC[NH2+]c1c2ccccc2[n+](C)c2cccc(Br)c12 (optimized conformer: 97.97806582851811 kcal/mol)

>  <smiles>  (20) 
CCN(CC)CCOCCNc1c2ccccc2[n+](C)c2cccc(Br)c12

>  <score_type>  (20) 
oracle

>  <origin>  (20) 
adg

>  <m_score__min__energy>  (20) 
-8.1300000000000008

>  <m_primary>  (20) 
energy

$$$$
20:0
     RDKit          3D

 51 52  0  0  0  0  0  0  0  0999 V2000
   -6.7650   17.7870  -31.2270 C   0  0  0  0  0  0  0  0  0  0  0  0
   -5.7460   17.0700  -31.7090 C   0  0  0  0  0  0  0  0  0  0  0  0
   -5.6040   16.7970  -33.1780 C   0  0  0  0  0  0  0  0  0  0  0  0
   -4.6730   17.7640  -33.7780 N   0  0  0  0  0  0  0  0  0  0  0  0
   -5.3750   18.7780  -34.5770 C   0  0  0  0  0  0  0  0  0  0  0  0
   -6.0860   19.7890  -33.7090 C   0  0  0  0  0  0  0  0  0  0  0  0
   -7.4110   19.7110  -33.4530 N   0  0  0  0  0  0  0  0  0  0  0  0
   -7.6540   20.7420  -32.6350 C   0  0  0  0  0  0  0  0  0  0  0  0
   -8.8920   21.1570  -32.1540 C   0  0  0  0  0  0  0  0  0  0  0  0
   -8.9290   22.3010  -31.3450 C   0  0  0  0  0  0  0  0  0  0  0  0
   -7.7360   22.9640  -30.9940 C   0  0  0  0  0  0  0  0  0  0  0  0
   -6.4820   22.5050  -31.4580 C   0  0  0  0  0  0  0  0  0  0  0  0
   -5.2720   23.0270  -30.7990 C   0  0  0  0  0  0  0  0  0  0  0  0
   -4.7750   22.4050  -29.8210 O   0  0  0  0  0  0  0  0  0  0  0  0
   -4.7710   24.2810  -31.1710 O   0  0  0  0  0  0  0  0  0  0  0  0
   -5.3730   25.5150  -30.7820 C   0  0  0  0  0  0  0  0  0  0  0  0
   -6.1200   25.3660  -29.4620 C   0  0  0  0  0  0  0  0  0  0  0  0
   -6.4870   21.4080  -32.3540 C   0  0  0  0  0  0  0  0  0  0  0  0
   -5.4810   20.8330  -33.0670 N   0  0  0  0  0  0  0  0  0  0  0  0
   -4.1900   21.4230  -33.4640 C   0  0  0  0  0  0  0  0  0  0  0  0
   -3.0770   21.0170  -32.4850 C   0  0  0  0  0  0  0  0  0  0  0  0
   -2.5350   19.6820  -32.8260 N   0  0  0  0  0  0  0  0  0  0  0  0
   -1.4430   19.3150  -31.9110 C   0  0  0  0  0  0  0  0  0  0  0  0
   -2.0470   19.6490  -34.2140 C   0  0  0  0  0  0  0  0  0  0  0  0
   -6.8445   17.9718  -30.1456 H   0  0  0  0  0  0  0  0  0  0  0  0
   -7.5245   18.1925  -31.9116 H   0  0  0  0  0  0  0  0  0  0  0  0
   -4.9936   16.6705  -31.0131 H   0  0  0  0  0  0  0  0  0  0  0  0
   -5.2161   15.7781  -33.3240 H   0  0  0  0  0  0  0  0  0  0  0  0
   -6.5875   16.8927  -33.6613 H   0  0  0  0  0  0  0  0  0  0  0  0
   -4.1410   18.2380  -33.0110 H   0  0  0  0  0  0  0  0  0  0  0  0
   -4.6423   19.3036  -35.2071 H   0  0  0  0  0  0  0  0  0  0  0  0
   -6.1307   18.2647  -35.1897 H   0  0  0  0  0  0  0  0  0  0  0  0
   -8.0970   19.0200  -33.8320 H   0  0  0  0  0  0  0  0  0  0  0  0
   -9.8113   20.6055  -32.4005 H   0  0  0  0  0  0  0  0  0  0  0  0
   -9.8945   22.6834  -30.9821 H   0  0  0  0  0  0  0  0  0  0  0  0
   -7.7813   23.8534  -30.3483 H   0  0  0  0  0  0  0  0  0  0  0  0
   -4.5885   26.2775  -30.6673 H   0  0  0  0  0  0  0  0  0  0  0  0
   -6.0913   25.8149  -31.5593 H   0  0  0  0  0  0  0  0  0  0  0  0
   -5.4188   25.5059  -28.6261 H   0  0  0  0  0  0  0  0  0  0  0  0
   -6.9159   26.1231  -29.4036 H   0  0  0  0  0  0  0  0  0  0  0  0
   -6.5645   24.3615  -29.4036 H   0  0  0  0  0  0  0  0  0  0  0  0
   -3.9283   21.0711  -34.4728 H   0  0  0  0  0  0  0  0  0  0  0  0
   -4.2860   22.5187  -33.4521 H   0  0  0  0  0  0  0  0  0  0  0  0
   -2.2659   21.7584  -32.5342 H   0  0  0  0  0  0  0  0  0  0  0  0
   -3.4991   20.9764  -31.4700 H   0  0  0  0  0  0  0  0  0  0  0  0
   -1.7823   19.4290  -30.8709 H   0  0  0  0  0  0  0  0  0  0  0  0
   -1.1513   18.2694  -32.0890 H   0  0  0  0  0  0  0  0  0  0  0  0
   -0.5790   19.9721  -32.0890 H   0  0  0  0  0  0  0  0  0  0  0  0
   -0.9495   19.5748  -34.2151 H   0  0  0  0  0  0  0  0  0  0  0  0
   -2.4740   18.7777  -34.7322 H   0  0  0  0  0  0  0  0  0  0  0  0
   -2.3528   20.5699  -34.7322 H   0  0  0  0  0  0  0  0  0  0  0  0
  1  2  2  0
  2  3  1  0
  3  4  1  0
  4  5  1  0
  5  6  1  0
  6  7  2  0
  7  8  1  0
  8  9  2  0
  9 10  1  0
 10 11  2  0
 11 12  1  0
 12 13  1  0
 13 14  2  0
 13 15  1  0
 15 16  1  0
 16 17  1  0
 12 18  2  0
 18 19  1  0
 19 20  1  0
 20 21  1  0
 21 22  1  0
 22 23  1  0
 22 24  1  0
 19  6  1  0
 18  8  1  0
  1 25  1  0
  1 26  1  0
  2 27  1  0
  3 28  1  0
  3 29  1  0
  4 30  1  0
  5 31  1  0
  5 32  1  0
  7 33  1  0
  9 34  1  0
 10 35  1  0
 11 36  1  0
 16 37  1  0
 16 38  1  0
 17 39  1  0
 17 40  1  0
 17 41  1  0
 20 42  1  0
 20 43  1  0
 21 44  1  0
 21 45  1  0
 23 46  1  0
 23 47  1  0
 23 48  1  0
 24 49  1  0
 24 50  1  0
 24 51  1  0
M  CHG  1   7   1
M  END
>  <UniqueID>  (21) 
21

>  <SMILES>  (21) 
C=CCNCc1[nH+]c2cccc(C(=O)OCC)c2n1CCN(C)C

>  <Energy>  (21) 
88.79432098125406

>  <Genealogy>  (21) 
C=CCNCc1[nH+]c2cccc(C(=O)OCC)c2n1CCN(C)C (protonated)
C=CCNCc1[nH+]c2cccc(C(=O)OCC)c2n1CCN(C)C (3D coordinates assigned)
C=CCNCc1[nH+]c2cccc(C(=O)OCC)c2n1CCN(C)C (optimized conformer: 88.79432098125406 kcal/mol)

>  <smiles>  (21) 
C=CCNCc1nc2cccc(C(=O)OCC)c2n1CCN(C)C

>  <score_type>  (21) 
oracle

>  <origin>  (21) 
adg

>  <m_score__min__energy>  (21) 
-6.5499999999999998

>  <m_primary>  (21) 
energy

$$$$
21:0
     RDKit          3D

 60 62  0  0  0  0  0  0  0  0999 V2000
   -5.7960   25.4240  -30.0750 C   0  0  0  0  0  0  0  0  0  0  0  0
   -4.3930   24.9470  -30.4290 C   0  0  0  0  0  0  0  0  0  0  0  0
   -4.2780   23.5060  -30.1720 N   0  0  0  0  0  0  0  0  0  0  0  0
   -4.5030   23.1700  -28.7570 C   0  0  0  0  0  0  0  0  0  0  0  0
   -3.6170   22.0020  -28.2770 C   0  0  0  0  0  0  0  0  0  0  0  0
   -3.0670   21.2260  -29.4050 N   0  0  0  0  0  0  0  0  0  0  0  0
   -1.5980   21.1340  -29.4070 C   0  0  0  0  0  0  0  0  0  0  0  0
   -0.9460   21.5430  -30.7480 C   0  0  0  0  0  0  0  0  0  0  0  0
   -1.8710   22.1760  -31.7060 N   0  0  0  0  0  0  0  0  0  0  0  0
   -2.0220   21.4050  -32.9460 C   0  0  0  0  0  0  0  0  0  0  0  0
   -3.4590   21.5220  -33.4520 C   0  0  0  0  0  0  0  0  0  0  0  0
   -4.3920   21.5520  -32.3270 N   0  0  0  0  0  0  0  0  0  0  0  0
   -5.6530   20.8680  -32.3900 C   0  0  0  0  0  0  0  0  0  0  0  0
   -6.8380   21.5830  -32.2180 C   0  0  0  0  0  0  0  0  0  0  0  0
   -8.0530   20.9490  -32.2140 C   0  0  0  0  0  0  0  0  0  0  0  0
   -8.1670   19.5920  -32.3880 N   0  0  0  0  0  0  0  0  0  0  0  0
   -9.4940   18.9480  -32.3530 C   0  0  0  0  0  0  0  0  0  0  0  0
   -7.0220   18.8450  -32.6140 C   0  0  0  0  0  0  0  0  0  0  0  0
   -7.0810   17.4490  -32.8500 C   0  0  0  0  0  0  0  0  0  0  0  0
   -5.9220   16.7160  -33.1090 C   0  0  0  0  0  0  0  0  0  0  0  0
   -4.6850   17.3490  -33.1510 C   0  0  0  0  0  0  0  0  0  0  0  0
   -4.5900   18.7210  -32.9200 C   0  0  0  0  0  0  0  0  0  0  0  0
   -5.7400   19.4800  -32.6300 C   0  0  0  0  0  0  0  0  0  0  0  0
   -9.1640   21.9140  -31.9800 C   0  0  0  0  0  0  0  0  0  0  0  0
   -8.4760   23.2860  -31.8810 C   0  0  0  0  0  0  0  0  0  0  0  0
   -6.9630   23.0460  -31.9910 C   0  0  0  0  0  0  0  0  0  0  0  0
   -5.9055   25.4612  -28.9811 H   0  0  0  0  0  0  0  0  0  0  0  0
   -5.9586   26.4279  -30.4942 H   0  0  0  0  0  0  0  0  0  0  0  0
   -6.5368   24.7272  -30.4942 H   0  0  0  0  0  0  0  0  0  0  0  0
   -4.1977   25.1449  -31.4933 H   0  0  0  0  0  0  0  0  0  0  0  0
   -3.6595   25.4858  -29.8112 H   0  0  0  0  0  0  0  0  0  0  0  0
   -3.3220   23.1820  -30.4570 H   0  0  0  0  0  0  0  0  0  0  0  0
   -4.2801   24.0562  -28.1446 H   0  0  0  0  0  0  0  0  0  0  0  0
   -5.5524   22.8577  -28.6513 H   0  0  0  0  0  0  0  0  0  0  0  0
   -2.7834   22.4084  -27.6855 H   0  0  0  0  0  0  0  0  0  0  0  0
   -4.2417   21.3275  -27.6730 H   0  0  0  0  0  0  0  0  0  0  0  0
   -3.4340   21.5410  -30.3310 H   0  0  0  0  0  0  0  0  0  0  0  0
   -1.2087   21.7935  -28.6174 H   0  0  0  0  0  0  0  0  0  0  0  0
   -1.3443   20.0771  -29.2381 H   0  0  0  0  0  0  0  0  0  0  0  0
   -0.1337   22.2530  -30.5334 H   0  0  0  0  0  0  0  0  0  0  0  0
   -0.5904   20.6154  -31.2204 H   0  0  0  0  0  0  0  0  0  0  0  0
   -2.8070   22.3210  -31.2670 H   0  0  0  0  0  0  0  0  0  0  0  0
   -1.3327   21.7984  -33.7077 H   0  0  0  0  0  0  0  0  0  0  0  0
   -1.7896   20.3480  -32.7490 H   0  0  0  0  0  0  0  0  0  0  0  0
   -3.5640   22.4486  -34.0354 H   0  0  0  0  0  0  0  0  0  0  0  0
   -3.6880   20.6511  -34.0837 H   0  0  0  0  0  0  0  0  0  0  0  0
   -3.9890   21.7520  -31.3830 H   0  0  0  0  0  0  0  0  0  0  0  0
   -9.8016   18.7987  -31.3075 H   0  0  0  0  0  0  0  0  0  0  0  0
  -10.2270   19.5906  -32.8627 H   0  0  0  0  0  0  0  0  0  0  0  0
   -9.4427   17.9746  -32.8627 H   0  0  0  0  0  0  0  0  0  0  0  0
   -8.0538   16.9360  -32.8288 H   0  0  0  0  0  0  0  0  0  0  0  0
   -5.9876   15.6315  -33.2808 H   0  0  0  0  0  0  0  0  0  0  0  0
   -3.7779   16.7656  -33.3672 H   0  0  0  0  0  0  0  0  0  0  0  0
   -3.6080   19.2146  -32.9647 H   0  0  0  0  0  0  0  0  0  0  0  0
   -9.8758   21.8967  -32.8185 H   0  0  0  0  0  0  0  0  0  0  0  0
   -9.7415   21.6721  -31.0756 H   0  0  0  0  0  0  0  0  0  0  0  0
   -8.8146   23.9371  -32.7004 H   0  0  0  0  0  0  0  0  0  0  0  0
   -8.7244   23.7790  -30.9295 H   0  0  0  0  0  0  0  0  0  0  0  0
   -6.5398   23.6088  -32.8360 H   0  0  0  0  0  0  0  0  0  0  0  0
   -6.4187   23.3800  -31.0954 H   0  0  0  0  0  0  0  0  0  0  0  0
  1  2  1  0
  2  3  1  0
  3  4  1  0
  4  5  1  0
  5  6  1  0
  6  7  1  0
  7  8  1  0
  8  9  1  0
  9 10  1  0
 10 11  1  0
 11 12  1  0
 12 13  1  0
 13 14  2  0
 14 15  1  0
 15 16  2  0
 16 17  1  0
 16 18  1  0
 18 19  2  0
 19 20  1  0
 20 21  2  0
 21 22  1  0
 22 23  2  0
 15 24  1  0
 24 25  1  0
 25 26  1  0
 23 13  1  0
 26 14  1  0
 23 18  1  0
  1 27  1  0
  1 28  1  0
  1 29  1  0
  2 30  1  0
  2 31  1  0
  3 32  1  0
  4 33  1  0
  4 34  1  0
  5 35  1  0
  5 36  1  0
  6 37  1  0
  7 38  1  0
  7 39  1  0
  8 40  1  0
  8 41  1  0
  9 42  1  0
 10 43  1  0
 10 44  1  0
 11 45  1  0
 11 46  1  0
 12 47  1  0
 17 48  1  0
 17 49  1  0
 17 50  1  0
 19 51  1  0
 20 52  1  0
 21 53  1  0
 22 54  1  0
 24 55  1  0
 24 56  1  0
 25 57  1  0
 25 58  1  0
 26 59  1  0
 26 60  1  0
M  CHG  1  16   1
M  END
>  <UniqueID>  (22) 
22

>  <SMILES>  (22) 
CCNCCNCCNCCNc1c2c([n+](C)c3ccccc13)CCC2

>  <Energy>  (22) 
78.46994013920296

>  <Genealogy>  (22) 
CCNCCNCCNCCNc1c2c([n+](C)c3ccccc13)CCC2 (3D coordinates assigned)
CCNCCNCCNCCNc1c2c([n+](C)c3ccccc13)CCC2 (nonaromatic ring conformer: 78.46994013920296 kcal/mol)

>  <smiles>  (22) 
CCNCCNCCNCCNc1c2c([n+](C)c3ccccc13)CCC2

>  <score_type>  (22) 
oracle

>  <origin>  (22) 
adg

>  <m_score__min__energy>  (22) 
-8.5399999999999991

>  <m_primary>  (22) 
energy

$$$$
22:0
     RDKit          3D

 47 48  0  0  0  0  0  0  0  0999 V2000
    0.3970   19.6930  -35.3080 C   0  0  0  0  0  0  0  0  0  0  0  0
   -0.0550   21.0870  -35.7170 C   0  0  0  0  0  0  0  0  0  0  0  0
    0.0280   21.9480  -34.5990 O   0  0  0  0  0  0  0  0  0  0  0  0
    0.0600   21.1950  -33.4030 C   0  0  0  0  0  0  0  0  0  0  0  0
   -1.3050   21.1350  -32.7860 C   0  0  0  0  0  0  0  0  0  0  0  0
   -1.4170   20.9540  -31.5430 O   0  0  0  0  0  0  0  0  0  0  0  0
   -2.4700   21.3180  -33.6060 N   0  0  0  0  0  0  0  0  0  0  0  0
   -3.8040   20.9890  -33.1850 C   0  0  0  0  0  0  0  0  0  0  0  0
   -4.2070   19.6510  -33.1600 C   0  0  0  0  0  0  0  0  0  0  0  0
   -5.4870   19.3040  -32.7290 C   0  0  0  0  0  0  0  0  0  0  0  0
   -6.3890   20.2900  -32.2960 C   0  0  0  0  0  0  0  0  0  0  0  0
   -7.7600   19.8670  -31.8390 C   0  0  0  0  0  0  0  0  0  0  0  0
   -5.9940   21.6510  -32.3250 C   0  0  0  0  0  0  0  0  0  0  0  0
   -7.0760   22.9570  -31.8060 S   0  0  0  0  0  0  0  0  0  0  0  0
   -6.8680   24.1660  -32.6740 O   0  0  0  0  0  0  0  0  0  0  0  0
   -8.4950   22.4790  -31.9480 O   0  0  0  0  0  0  0  0  0  0  0  0
   -6.7530   23.3800  -30.1360 N   0  0  0  0  0  0  0  0  0  0  0  0
   -5.4990   22.7590  -29.6350 C   0  0  0  0  0  0  0  0  0  0  0  0
   -4.4070   23.7710  -29.2440 C   0  0  0  0  0  0  0  0  0  0  0  0
   -4.3050   24.8850  -30.2820 C   0  0  0  0  0  0  0  0  0  0  0  0
   -5.6490   25.6080  -30.4880 C   0  0  0  0  0  0  0  0  0  0  0  0
   -6.8480   24.8340  -29.9070 C   0  0  0  0  0  0  0  0  0  0  0  0
   -4.6940   21.9810  -32.7410 C   0  0  0  0  0  0  0  0  0  0  0  0
    0.4199   19.6223  -34.2105 H   0  0  0  0  0  0  0  0  0  0  0  0
   -0.3054   18.9474  -35.7089 H   0  0  0  0  0  0  0  0  0  0  0  0
    1.4033   19.5015  -35.7089 H   0  0  0  0  0  0  0  0  0  0  0  0
    0.5947   21.4636  -36.5207 H   0  0  0  0  0  0  0  0  0  0  0  0
   -1.0934   21.0483  -36.0780 H   0  0  0  0  0  0  0  0  0  0  0  0
    0.4017   20.1737  -33.6269 H   0  0  0  0  0  0  0  0  0  0  0  0
    0.7501   21.6782  -32.6957 H   0  0  0  0  0  0  0  0  0  0  0  0
   -2.3430   21.7730  -34.5380 H   0  0  0  0  0  0  0  0  0  0  0  0
   -3.5086   18.8650  -33.4830 H   0  0  0  0  0  0  0  0  0  0  0  0
   -5.7935   18.2476  -32.7281 H   0  0  0  0  0  0  0  0  0  0  0  0
   -7.7931   19.8568  -30.7395 H   0  0  0  0  0  0  0  0  0  0  0  0
   -8.5090   20.5758  -32.2218 H   0  0  0  0  0  0  0  0  0  0  0  0
   -7.9794   18.8594  -32.2218 H   0  0  0  0  0  0  0  0  0  0  0  0
   -5.7432   22.1551  -28.7486 H   0  0  0  0  0  0  0  0  0  0  0  0
   -5.0918   22.1575  -30.4611 H   0  0  0  0  0  0  0  0  0  0  0  0
   -4.6555   24.2102  -28.2666 H   0  0  0  0  0  0  0  0  0  0  0  0
   -3.4415   23.2464  -29.1933 H   0  0  0  0  0  0  0  0  0  0  0  0
   -3.5563   25.6169  -29.9447 H   0  0  0  0  0  0  0  0  0  0  0  0
   -4.0141   24.4301  -31.2404 H   0  0  0  0  0  0  0  0  0  0  0  0
   -5.5963   26.5911  -29.9974 H   0  0  0  0  0  0  0  0  0  0  0  0
   -5.8106   25.6965  -31.5725 H   0  0  0  0  0  0  0  0  0  0  0  0
   -6.8932   25.0172  -28.8233 H   0  0  0  0  0  0  0  0  0  0  0  0
   -7.7535   25.1921  -30.4186 H   0  0  0  0  0  0  0  0  0  0  0  0
   -4.3679   23.0313  -32.7189 H   0  0  0  0  0  0  0  0  0  0  0  0
  1  2  1  0
  2  3  1  0
  3  4  1  0
  4  5  1  0
  5  6  2  0
  5  7  1  0
  7  8  1  0
  8  9  2  0
  9 10  1  0
 10 11  2  0
 11 12  1  0
 11 13  1  0
 13 14  1  0
 14 15  2  0
 14 16  2  0
 14 17  1  0
 17 18  1  0
 18 19  1  0
 19 20  1  0
 20 21  1  0
 21 22  1  0
 13 23  2  0
 23  8  1  0
 22 17  1  0
  1 24  1  0
  1 25  1  0
  1 26  1  0
  2 27  1  0
  2 28  1  0
  4 29  1  0
  4 30  1  0
  7 31  1  0
  9 32  1  0
 10 33  1  0
 12 34  1  0
 12 35  1  0
 12 36  1  0
 18 37  1  0
 18 38  1  0
 19 39  1  0
 19 40  1  0
 20 41  1  0
 20 42  1  0
 21 43  1  0
 21 44  1  0
 22 45  1  0
 22 46  1  0
 23 47  1  0
M  END
>  <UniqueID>  (23) 
23

>  <SMILES>  (23) 
CCOCC(=O)Nc1ccc(C)c(S(=O)(=O)N2CCCCC2)c1

>  <Energy>  (23) 
54.74043991471724

>  <Genealogy>  (23) 
CCOCC(=O)Nc1ccc(C)c(S(=O)(=O)N2CCCCC2)c1 (3D coordinates assigned)
CCOCC(=O)Nc1ccc(C)c(S(=O)(=O)N2CCCCC2)c1 (nonaromatic ring conformer: 54.74043991471724 kcal/mol)

>  <smiles>  (23) 
CCOCC(=O)Nc1ccc(C)c(S(=O)(=O)N2CCCCC2)c1

>  <score_type>  (23) 
oracle

>  <origin>  (23) 
adg

>  <m_score__min__energy>  (23) 
-9.0099999999999998

>  <m_primary>  (23) 
energy

$$$$
23:0
     RDKit          3D

 48 49  0  0  0  0  0  0  0  0999 V2000
   -3.8760   23.1410  -28.1610 C   0  0  0  0  0  0  0  0  0  0  0  0
   -3.2400   24.5160  -27.9800 C   0  0  0  0  0  0  0  0  0  0  0  0
   -2.3750   24.8340  -29.1260 N   0  0  0  0  0  0  0  0  0  0  0  0
   -0.9620   24.4700  -28.8970 C   0  0  0  0  0  0  0  0  0  0  0  0
   -0.7150   22.9520  -28.9640 C   0  0  0  0  0  0  0  0  0  0  0  0
   -0.8330   22.3950  -30.3900 C   0  0  0  0  0  0  0  0  0  0  0  0
   -2.1700   22.4970  -30.8400 O   0  0  0  0  0  0  0  0  0  0  0  0
   -2.3830   21.6840  -31.9790 C   0  0  0  0  0  0  0  0  0  0  0  0
   -3.8710   21.3630  -32.0950 C   0  0  0  0  0  0  0  0  0  0  0  0
   -4.5980   22.5150  -32.5200 O   0  0  0  0  0  0  0  0  0  0  0  0
   -5.2600   23.3790  -31.6400 C   0  0  0  0  0  0  0  0  0  0  0  0
   -4.6190   24.4250  -31.0530 N   0  0  0  0  0  0  0  0  0  0  0  0
   -5.8250   25.0490  -30.1190 S   0  0  0  0  0  0  0  0  0  0  0  0
   -7.1360   24.0870  -30.3930 N   0  0  0  0  0  0  0  0  0  0  0  0
   -6.6350   23.1970  -31.2900 C   0  0  0  0  0  0  0  0  0  0  0  0
   -7.4980   22.1280  -31.8460 C   0  0  0  0  0  0  0  0  0  0  0  0
   -8.7630   21.9570  -31.4470 C   0  0  0  0  0  0  0  0  0  0  0  0
   -9.5450   20.8100  -32.0060 C   0  0  0  0  0  0  0  0  0  0  0  0
   -8.6760   19.5420  -31.9710 C   0  0  0  0  0  0  0  0  0  0  0  0
   -7.2940   19.7420  -32.5020 N   0  0  0  0  0  0  0  0  0  0  0  0
   -6.2880   19.1660  -31.5950 C   0  0  0  0  0  0  0  0  0  0  0  0
   -6.9490   21.1430  -32.8540 C   0  0  0  0  0  0  0  0  0  0  0  0
   -4.0805   22.6989  -27.1747 H   0  0  0  0  0  0  0  0  0  0  0  0
   -4.8182   23.2434  -28.7194 H   0  0  0  0  0  0  0  0  0  0  0  0
   -3.1879   22.4893  -28.7194 H   0  0  0  0  0  0  0  0  0  0  0  0
   -4.0325   25.2748  -27.9022 H   0  0  0  0  0  0  0  0  0  0  0  0
   -2.6316   24.5106  -27.0636 H   0  0  0  0  0  0  0  0  0  0  0  0
   -2.7500   24.3570  -29.9790 H   0  0  0  0  0  0  0  0  0  0  0  0
   -0.3447   24.9601  -29.6643 H   0  0  0  0  0  0  0  0  0  0  0  0
   -0.6960   24.8028  -27.8829 H   0  0  0  0  0  0  0  0  0  0  0  0
    0.2971   22.7431  -28.5872 H   0  0  0  0  0  0  0  0  0  0  0  0
   -1.4862   22.4624  -28.3511 H   0  0  0  0  0  0  0  0  0  0  0  0
   -0.1779   22.9700  -31.0610 H   0  0  0  0  0  0  0  0  0  0  0  0
   -0.5315   21.3371  -30.3906 H   0  0  0  0  0  0  0  0  0  0  0  0
   -2.0507   22.2194  -32.8806 H   0  0  0  0  0  0  0  0  0  0  0  0
   -1.8100   20.7503  -31.8792 H   0  0  0  0  0  0  0  0  0  0  0  0
   -4.0112   20.5553  -32.8284 H   0  0  0  0  0  0  0  0  0  0  0  0
   -4.2456   21.0489  -31.1096 H   0  0  0  0  0  0  0  0  0  0  0  0
   -9.2200   22.6463  -30.7217 H   0  0  0  0  0  0  0  0  0  0  0  0
  -10.4504   20.6525  -31.4015 H   0  0  0  0  0  0  0  0  0  0  0  0
   -9.8353   21.0310  -33.0437 H   0  0  0  0  0  0  0  0  0  0  0  0
   -8.6006   19.2022  -30.9275 H   0  0  0  0  0  0  0  0  0  0  0  0
   -9.1645   18.8014  -32.6213 H   0  0  0  0  0  0  0  0  0  0  0  0
   -6.5920   19.3401  -30.5523 H   0  0  0  0  0  0  0  0  0  0  0  0
   -6.2064   18.0843  -31.7774 H   0  0  0  0  0  0  0  0  0  0  0  0
   -5.3138   19.6432  -31.7774 H   0  0  0  0  0  0  0  0  0  0  0  0
   -5.8540   21.2420  -32.8883 H   0  0  0  0  0  0  0  0  0  0  0  0
   -7.3978   21.3697  -33.8323 H   0  0  0  0  0  0  0  0  0  0  0  0
  1  2  1  0
  2  3  1  0
  3  4  1  0
  4  5  1  0
  5  6  1  0
  6  7  1  0
  7  8  1  0
  8  9  1  0
  9 10  1  0
 10 11  1  0
 11 12  2  0
 12 13  1  0
 13 14  1  0
 14 15  2  0
 15 16  1  0
 16 17  2  0
 17 18  1  0
 18 19  1  0
 19 20  1  0
 20 21  1  0
 20 22  1  0
 15 11  1  0
 22 16  1  0
  1 23  1  0
  1 24  1  0
  1 25  1  0
  2 26  1  0
  2 27  1  0
  3 28  1  0
  4 29  1  0
  4 30  1  0
  5 31  1  0
  5 32  1  0
  6 33  1  0
  6 34  1  0
  8 35  1  0
  8 36  1  0
  9 37  1  0
  9 38  1  0
 17 39  1  0
 18 40  1  0
 18 41  1  0
 19 42  1  0
 19 43  1  0
 21 44  1  0
 21 45  1  0
 21 46  1  0
 22 47  1  0
 22 48  1  0
M  END
>  <UniqueID>  (24) 
24

>  <SMILES>  (24) 
CCNCCCOCCOc1nsnc1C1=CCCN(C)C1

>  <Energy>  (24) 
87.18005532180929

>  <Genealogy>  (24) 
CCNCCCOCCOc1nsnc1C1=CCCN(C)C1 (3D coordinates assigned)
CCNCCCOCCOc1nsnc1C1=CCCN(C)C1 (nonaromatic ring conformer: 87.18005532180929 kcal/mol)

>  <smiles>  (24) 
CCNCCCOCCOc1nsnc1C1=CCCN(C)C1

>  <score_type>  (24) 
oracle

>  <origin>  (24) 
adg

>  <m_score__min__energy>  (24) 
-7.7400000000000002

>  <m_primary>  (24) 
energy

$$$$
