0:0
     RDKit          3D

 45 48  0  0  0  0  0  0  0  0999 V2000
   -5.0410   23.0210  -32.1790 C   0  0  0  0  0  0  0  0  0  0  0  0
   -4.9170   24.1660  -31.3420 O   0  0  0  0  0  0  0  0  0  0  0  0
   -4.3100   24.1620  -30.0770 C   0  0  0  0  0  0  0  0  0  0  0  0
   -5.0010   24.5130  -28.9100 C   0  0  0  0  0  0  0  0  0  0  0  0
   -4.3460   24.5200  -27.6810 C   0  0  0  0  0  0  0  0  0  0  0  0
   -2.9910   24.1660  -27.5780 C   0  0  0  0  0  0  0  0  0  0  0  0
   -2.2870   23.7500  -28.7560 C   0  0  0  0  0  0  0  0  0  0  0  0
   -2.9660   23.7900  -29.9880 C   0  0  0  0  0  0  0  0  0  0  0  0
   -0.9180   23.2550  -28.7430 N   0  0  0  0  0  0  0  0  0  0  0  0
   -0.6080   21.9560  -29.3580 C   0  0  0  0  0  0  0  0  0  0  0  0
   -1.0980   20.8420  -28.4740 C   0  0  0  0  0  0  0  0  0  0  0  0
   -2.4250   20.8410  -28.0140 C   0  0  0  0  0  0  0  0  0  0  0  0
   -2.8690   19.8350  -27.1510 C   0  0  0  0  0  0  0  0  0  0  0  0
   -1.9900   18.8300  -26.7360 C   0  0  0  0  0  0  0  0  0  0  0  0
   -0.6650   18.8330  -27.1790 C   0  0  0  0  0  0  0  0  0  0  0  0
   -0.2160   19.8380  -28.0420 C   0  0  0  0  0  0  0  0  0  0  0  0
    0.1540   23.9220  -28.0390 C   0  0  0  0  0  0  0  0  0  0  0  0
    1.2100   24.2180  -28.6590 O   0  0  0  0  0  0  0  0  0  0  0  0
    0.0770   24.2000  -26.5610 C   0  0  1  0  0  0  0  0  0  0  0  0
    0.0280   25.7370  -26.3030 C   0  0  0  0  0  0  0  0  0  0  0  0
   -1.0150   26.1350  -25.2350 C   0  0  0  0  0  0  0  0  0  0  0  0
   -2.4240   25.6010  -25.5940 C   0  0  0  0  0  0  0  0  0  0  0  0
   -2.3530   24.3000  -26.2900 N   0  0  0  0  0  0  0  0  0  0  0  0
   -1.1650   23.5650  -26.0550 C   0  0  0  0  0  0  0  0  0  0  0  0
   -1.1840   22.4290  -25.5090 O   0  0  0  0  0  0  0  0  0  0  0  0
   -5.1386   22.1200  -31.5556 H   0  0  0  0  0  0  0  0  0  0  0  0
   -5.9330   23.1259  -32.8140 H   0  0  0  0  0  0  0  0  0  0  0  0
   -4.1472   22.9325  -32.8140 H   0  0  0  0  0  0  0  0  0  0  0  0
   -6.0656   24.7843  -28.9646 H   0  0  0  0  0  0  0  0  0  0  0  0
   -4.8997   24.8078  -26.7752 H   0  0  0  0  0  0  0  0  0  0  0  0
   -2.4237   23.5210  -30.9064 H   0  0  0  0  0  0  0  0  0  0  0  0
   -1.1031   21.8888  -30.3380 H   0  0  0  0  0  0  0  0  0  0  0  0
    0.4809   21.8657  -29.4850 H   0  0  0  0  0  0  0  0  0  0  0  0
   -3.1169   21.6341  -28.3338 H   0  0  0  0  0  0  0  0  0  0  0  0
   -3.9108   19.8340  -26.7981 H   0  0  0  0  0  0  0  0  0  0  0  0
   -2.3419   18.0365  -26.0603 H   0  0  0  0  0  0  0  0  0  0  0  0
    0.0262   18.0437  -26.8486 H   0  0  0  0  0  0  0  0  0  0  0  0
    0.8298   19.8420  -28.3830 H   0  0  0  0  0  0  0  0  0  0  0  0
    0.9616   23.7961  -26.0469 H   0  0  0  0  0  0  0  0  0  0  0  0
    1.0209   26.0677  -25.9642 H   0  0  0  0  0  0  0  0  0  0  0  0
   -0.2650   26.2207  -27.2465 H   0  0  0  0  0  0  0  0  0  0  0  0
   -0.7105   25.7169  -24.2642 H   0  0  0  0  0  0  0  0  0  0  0  0
   -1.0622   27.2331  -25.1897 H   0  0  0  0  0  0  0  0  0  0  0  0
   -3.0058   25.4791  -24.6684 H   0  0  0  0  0  0  0  0  0  0  0  0
   -2.9043   26.3254  -26.2682 H   0  0  0  0  0  0  0  0  0  0  0  0
  1  2  1  0
  2  3  1  0
  3  4  2  0
  4  5  1  0
  5  6  2  0
  6  7  1  0
  7  8  2  0
  7  9  1  0
  9 10  1  0
 10 11  1  0
 11 12  2  0
 12 13  1  0
 13 14  2  0
 14 15  1  0
 15 16  2  0
  9 17  1  0
 17 18  2  0
 17 19  1  0
 19 20  1  0
 20 21  1  0
 21 22  1  0
 22 23  1  0
 23 24  1  0
 24 25  2  0
  8  3  1  0
 16 11  1  0
 24 19  1  0
 23  6  1  0
  1 26  1  0
  1 27  1  0
  1 28  1  0
  4 29  1  0
  5 30  1  0
  8 31  1  0
 10 32  1  0
 10 33  1  0
 12 34  1  0
 13 35  1  0
 14 36  1  0
 15 37  1  0
 16 38  1  0
 19 39  1  1
 20 40  1  0
 20 41  1  0
 21 42  1  0
 21 43  1  0
 22 44  1  0
 22 45  1  0
M  END
>  <UniqueID>  (1) 
1

>  <SMILES>  (1) 
COc1ccc2c(c1)N(Cc1ccccc1)C(=O)[C@H]1CCCN2C1=O

>  <Energy>  (1) 
84.51634091880267

>  <Genealogy>  (1) 
COc1ccc2c(c1)N(Cc1ccccc1)C(=O)[C@H]1CCCN2C1=O (chirality)
COc1ccc2c(c1)N(Cc1ccccc1)C(=O)[C@H]1CCCN2C1=O (3D coordinates assigned)
COc1ccc2c(c1)N(Cc1ccccc1)C(=O)[C@H]1CCCN2C1=O (nonaromatic ring conformer: 84.51634091880267 kcal/mol)

>  <smiles>  (1) 
COc1ccc2c(c1)N(Cc1ccccc1)C(=O)C1CCCN2C1=O

>  <score_type>  (1) 
oracle

>  <origin>  (1) 
adg

>  <m_score__min__energy>  (1) 
-7.9699999999999998

>  <m_primary>  (1) 
energy

$$$$
1:0
     RDKit          3D

 30 30  0  0  0  0  0  0  0  0999 V2000
   -2.2974   21.3084  -31.7927 H   0  0  0  0  0  0  0  0  0  0  0  0
   -2.7480   21.8830  -30.9700 C   0  0  0  0  0  0  0  0  0  0  0  0
   -3.2420   22.5130  -30.0680 C   0  0  0  0  0  0  0  0  0  0  0  0
   -3.8420   23.2810  -28.9710 C   0  0  0  0  0  0  0  0  0  0  0  0
   -4.6592   22.6948  -28.5254 H   0  0  0  0  0  0  0  0  0  0  0  0
   -3.0653   23.4883  -28.2202 H   0  0  0  0  0  0  0  0  0  0  0  0
   -4.4030   24.6210  -29.4830 C   0  0  1  0  0  0  0  0  0  0  0  0
   -4.5717   25.2446  -28.5927 H   0  0  0  0  0  0  0  0  0  0  0  0
   -3.4810   25.2780  -30.3180 O   0  0  0  0  0  0  0  0  0  0  0  0
   -3.5940   24.9190  -31.2370 H   0  0  0  0  0  0  0  0  0  0  0  0
   -5.7660   24.4660  -30.1890 C   0  0  0  0  0  0  0  0  0  0  0  0
   -6.2942   23.6038  -29.7559 H   0  0  0  0  0  0  0  0  0  0  0  0
   -6.3335   25.3964  -30.0398 H   0  0  0  0  0  0  0  0  0  0  0  0
   -5.6170   24.2540  -31.6280 N   0  0  0  0  0  0  0  0  0  0  0  0
   -6.5410   23.7190  -32.3680 C   0  0  0  0  0  0  0  0  0  0  0  0
   -7.0978   24.3478  -33.0783 H   0  0  0  0  0  0  0  0  0  0  0  0
   -6.8550   22.2800  -32.2700 C   0  0  0  0  0  0  0  0  0  0  0  0
   -5.8740   21.3380  -32.6100 C   0  0  0  0  0  0  0  0  0  0  0  0
   -4.8823   21.6783  -32.9429 H   0  0  0  0  0  0  0  0  0  0  0  0
   -6.1470   19.9690  -32.5290 C   0  0  0  0  0  0  0  0  0  0  0  0
   -5.3730   19.2403  -32.8118 H   0  0  0  0  0  0  0  0  0  0  0  0
   -7.4030   19.5170  -32.0890 C   0  0  0  0  0  0  0  0  0  0  0  0
   -7.7150   18.0430  -32.0500 C   0  0  0  0  0  0  0  0  0  0  0  0
   -7.4950   17.4640  -33.2890 F   0  0  0  0  0  0  0  0  0  0  0  0
   -6.9110   17.3980  -31.1250 F   0  0  0  0  0  0  0  0  0  0  0  0
   -9.0390   17.8660  -31.6970 F   0  0  0  0  0  0  0  0  0  0  0  0
   -8.3940   20.4620  -31.7740 C   0  0  0  0  0  0  0  0  0  0  0  0
   -9.3924   20.1222  -31.4612 H   0  0  0  0  0  0  0  0  0  0  0  0
   -8.1210   21.8310  -31.8550 C   0  0  0  0  0  0  0  0  0  0  0  0
   -8.9011   22.5607  -31.5925 H   0  0  0  0  0  0  0  0  0  0  0  0
  1  2  1  0
  2  3  3  0
  3  4  1  0
  4  5  1  0
  4  6  1  0
  4  7  1  0
  7  8  1  1
  7  9  1  0
  9 10  1  0
  7 11  1  0
 11 12  1  0
 11 13  1  0
 11 14  1  0
 14 15  2  0
 15 16  1  0
 15 17  1  0
 17 18  2  0
 18 19  1  0
 18 20  1  0
 20 21  1  0
 20 22  2  0
 22 23  1  0
 23 24  1  0
 23 25  1  0
 23 26  1  0
 22 27  1  0
 27 28  1  0
 27 29  2  0
 29 30  1  0
 29 17  1  0
M  END
>  <UniqueID>  (2) 
2

>  <SMILES>  (2) 
C#CC[C@@H](O)C/N=C/c1ccc(C(F)(F)F)cc1

>  <Energy>  (2) 
23.287270604245062

>  <Genealogy>  (2) 
C#CC[C@@H](O)CN=Cc1ccc(C(F)(F)F)cc1 (chirality)
C#CC[C@@H](O)C/N=C/c1ccc(C(F)(F)F)cc1 (cis-trans isomerization)
C#CC[C@@H](O)C/N=C/c1ccc(C(F)(F)F)cc1 (3D coordinates assigned)
C#CC[C@@H](O)C/N=C/c1ccc(C(F)(F)F)cc1 (optimized conformer: 23.287270604245062 kcal/mol)

>  <smiles>  (2) 
C#CCC(O)CN=Cc1ccc(C(F)(F)F)cc1

>  <score_type>  (2) 
oracle

>  <origin>  (2) 
adg

>  <m_score__min__energy>  (2) 
-6.4900000000000002

>  <m_primary>  (2) 
energy

$$$$
2:0
     RDKit          3D

 26 28  0  0  0  0  0  0  0  0999 V2000
    0.6620   22.2090  -27.5960 C   0  0  0  0  0  0  0  0  0  0  0  0
   -0.2370   23.2160  -28.2350 C   0  0  0  0  0  0  0  0  0  0  0  0
   -1.4360   22.8520  -28.8880 C   0  0  0  0  0  0  0  0  0  0  0  0
   -2.1370   23.9440  -29.3790 C   0  0  0  0  0  0  0  0  0  0  0  0
   -3.4090   23.9280  -30.1040 C   0  0  0  0  0  0  0  0  0  0  0  0
   -3.9660   25.0100  -30.6810 N   0  0  0  0  0  0  0  0  0  0  0  0
   -5.0960   24.5950  -31.2300 N   0  0  0  0  0  0  0  0  0  0  0  0
   -5.1860   23.2750  -30.9660 C   0  0  0  0  0  0  0  0  0  0  0  0
   -6.3010   22.4100  -31.3990 C   0  0  0  0  0  0  0  0  0  0  0  0
   -6.0750   21.3340  -32.2750 C   0  0  0  0  0  0  0  0  0  0  0  0
   -7.1370   20.5200  -32.6800 C   0  0  0  0  0  0  0  0  0  0  0  0
   -8.4320   20.7720  -32.2150 C   0  0  0  0  0  0  0  0  0  0  0  0
   -8.6640   21.8390  -31.3450 C   0  0  0  0  0  0  0  0  0  0  0  0
   -7.6050   22.6560  -30.9370 C   0  0  0  0  0  0  0  0  0  0  0  0
   -4.1510   22.8610  -30.2740 O   0  0  0  0  0  0  0  0  0  0  0  0
   -1.2340   25.2800  -28.9620 S   0  0  0  0  0  0  0  0  0  0  0  0
    0.0330   24.5480  -28.1730 N   0  0  0  0  0  0  0  0  0  0  0  0
    0.5872   22.2928  -26.5017 H   0  0  0  0  0  0  0  0  0  0  0  0
    0.3605   21.1981  -27.9078 H   0  0  0  0  0  0  0  0  0  0  0  0
    1.7005   22.3944  -27.9078 H   0  0  0  0  0  0  0  0  0  0  0  0
   -1.7778   21.8120  -28.9958 H   0  0  0  0  0  0  0  0  0  0  0  0
   -5.0584   21.1317  -32.6433 H   0  0  0  0  0  0  0  0  0  0  0  0
   -6.9539   19.6796  -33.3657 H   0  0  0  0  0  0  0  0  0  0  0  0
   -9.2664   20.1303  -32.5344 H   0  0  0  0  0  0  0  0  0  0  0  0
   -9.6824   22.0375  -30.9796 H   0  0  0  0  0  0  0  0  0  0  0  0
   -7.7937   23.4951  -30.2512 H   0  0  0  0  0  0  0  0  0  0  0  0
  1  2  1  0
  2  3  1  0
  3  4  2  0
  4  5  1  0
  5  6  2  0
  6  7  1  0
  7  8  2  0
  8  9  1  0
  9 10  2  0
 10 11  1  0
 11 12  2  0
 12 13  1  0
 13 14  2  0
  8 15  1  0
  4 16  1  0
 16 17  1  0
 17  2  2  0
 15  5  1  0
 14  9  1  0
  1 18  1  0
  1 19  1  0
  1 20  1  0
  3 21  1  0
 10 22  1  0
 11 23  1  0
 12 24  1  0
 13 25  1  0
 14 26  1  0
M  END
>  <UniqueID>  (3) 
3

>  <SMILES>  (3) 
Cc1cc(-c2nnc(-c3ccccc3)o2)sn1

>  <Energy>  (3) 
92.79537486283448

>  <Genealogy>  (3) 
Cc1cc(-c2nnc(-c3ccccc3)o2)sn1 (3D coordinates assigned)
Cc1cc(-c2nnc(-c3ccccc3)o2)sn1 (optimized conformer: 92.79537486283448 kcal/mol)

>  <smiles>  (3) 
Cc1cc(-c2nnc(-c3ccccc3)o2)sn1

>  <score_type>  (3) 
oracle

>  <origin>  (3) 
adg

>  <m_score__min__energy>  (3) 
-7.2000000000000002

>  <m_primary>  (3) 
energy

$$$$
3:0
     RDKit          3D

 51 54  0  0  0  0  0  0  0  0999 V2000
    0.2280   20.9190  -35.1120 C   0  0  0  0  0  0  0  0  0  0  0  0
   -0.1370   20.9190  -33.7350 O   0  0  0  0  0  0  0  0  0  0  0  0
   -1.4590   20.8790  -33.2650 C   0  0  0  0  0  0  0  0  0  0  0  0
   -2.4690   20.1590  -33.9230 C   0  0  0  0  0  0  0  0  0  0  0  0
   -3.7660   20.1340  -33.4100 C   0  0  0  0  0  0  0  0  0  0  0  0
   -4.0840   20.8380  -32.2340 C   0  0  0  0  0  0  0  0  0  0  0  0
   -5.3780   20.8050  -31.6820 C   0  0  0  0  0  0  0  0  0  0  0  0
   -6.4390   20.0660  -32.3040 N   0  0  0  0  0  0  0  0  0  0  0  0
   -6.3260   18.6090  -32.4070 C   0  0  0  0  0  0  0  0  0  0  0  0
   -7.6130   18.0100  -32.9700 C   0  0  0  0  0  0  0  0  0  0  0  0
   -8.7560   18.6450  -32.3120 N   0  0  0  0  0  0  0  0  0  0  0  0
   -8.9020   20.0570  -32.7090 C   0  0  0  0  0  0  0  0  0  0  0  0
   -7.5560   20.7860  -32.9270 C   0  0  0  0  0  0  0  0  0  0  0  0
   -5.6310   21.4790  -30.5300 N   0  0  0  0  0  0  0  0  0  0  0  0
   -4.6880   22.1930  -29.9180 N   0  0  0  0  0  0  0  0  0  0  0  0
   -3.4200   22.2880  -30.3980 C   0  0  0  0  0  0  0  0  0  0  0  0
   -2.4630   23.1400  -29.6600 C   0  0  0  0  0  0  0  0  0  0  0  0
   -1.4050   22.5700  -28.9400 C   0  0  0  0  0  0  0  0  0  0  0  0
   -0.5130   23.3660  -28.2970 N   0  0  0  0  0  0  0  0  0  0  0  0
   -0.6190   24.7210  -28.3460 C   0  0  0  0  0  0  0  0  0  0  0  0
    0.3000   25.5370  -27.6800 O   0  0  0  0  0  0  0  0  0  0  0  0
   -0.0170   26.2350  -26.4820 C   0  0  0  0  0  0  0  0  0  0  0  0
   -1.6280   25.2940  -29.0510 N   0  0  0  0  0  0  0  0  0  0  0  0
   -2.5480   24.5390  -29.7130 C   0  0  0  0  0  0  0  0  0  0  0  0
   -3.5800   25.1500  -30.4360 O   0  0  0  0  0  0  0  0  0  0  0  0
   -4.9420   25.0970  -30.0300 C   0  0  0  0  0  0  0  0  0  0  0  0
   -3.0790   21.5860  -31.5770 C   0  0  0  0  0  0  0  0  0  0  0  0
   -1.7670   21.5820  -32.0960 C   0  0  0  0  0  0  0  0  0  0  0  0
    0.3219   19.8819  -35.4664 H   0  0  0  0  0  0  0  0  0  0  0  0
   -0.5462   21.4375  -35.6966 H   0  0  0  0  0  0  0  0  0  0  0  0
    1.1901   21.4375  -35.2363 H   0  0  0  0  0  0  0  0  0  0  0  0
   -2.2362   19.6115  -34.8483 H   0  0  0  0  0  0  0  0  0  0  0  0
   -4.5468   19.5590  -33.9293 H   0  0  0  0  0  0  0  0  0  0  0  0
   -5.4880   18.3574  -33.0736 H   0  0  0  0  0  0  0  0  0  0  0  0
   -6.1506   18.1945  -31.4033 H   0  0  0  0  0  0  0  0  0  0  0  0
   -7.6623   18.1920  -34.0537 H   0  0  0  0  0  0  0  0  0  0  0  0
   -7.6317   16.9254  -32.7873 H   0  0  0  0  0  0  0  0  0  0  0  0
   -9.6240   18.1340  -32.5980 H   0  0  0  0  0  0  0  0  0  0  0  0
   -9.4736   20.0960  -33.6480 H   0  0  0  0  0  0  0  0  0  0  0  0
   -9.4147   20.5709  -31.8825 H   0  0  0  0  0  0  0  0  0  0  0  0
   -7.3673   20.8697  -34.0075 H   0  0  0  0  0  0  0  0  0  0  0  0
   -7.6256   21.7794  -32.4597 H   0  0  0  0  0  0  0  0  0  0  0  0
   -6.5880   21.4480  -30.1150 H   0  0  0  0  0  0  0  0  0  0  0  0
   -1.2970   21.4762  -28.8957 H   0  0  0  0  0  0  0  0  0  0  0  0
    0.2625   25.6196  -25.6142 H   0  0  0  0  0  0  0  0  0  0  0  0
    0.5384   27.1840  -26.4526 H   0  0  0  0  0  0  0  0  0  0  0  0
   -1.0971   26.4412  -26.4526 H   0  0  0  0  0  0  0  0  0  0  0  0
   -4.9973   25.0948  -28.9314 H   0  0  0  0  0  0  0  0  0  0  0  0
   -5.4760   25.9750  -30.4223 H   0  0  0  0  0  0  0  0  0  0  0  0
   -5.4061   24.1801  -30.4223 H   0  0  0  0  0  0  0  0  0  0  0  0
   -0.9755   22.1396  -31.5739 H   0  0  0  0  0  0  0  0  0  0  0  0
  1  2  1  0
  2  3  1  0
  3  4  2  0
  4  5  1  0
  5  6  2  0
  6  7  1  0
  7  8  1  0
  8  9  1  0
  9 10  1  0
 10 11  1  0
 11 12  1  0
 12 13  1  0
  7 14  2  0
 14 15  1  0
 15 16  2  0
 16 17  1  0
 17 18  2  0
 18 19  1  0
 19 20  2  0
 20 21  1  0
 21 22  1  0
 20 23  1  0
 23 24  2  0
 24 25  1  0
 25 26  1  0
 16 27  1  0
 27 28  2  0
 28  3  1  0
 27  6  1  0
 13  8  1  0
 24 17  1  0
  1 29  1  0
  1 30  1  0
  1 31  1  0
  4 32  1  0
  5 33  1  0
  9 34  1  0
  9 35  1  0
 10 36  1  0
 10 37  1  0
 11 38  1  0
 12 39  1  0
 12 40  1  0
 13 41  1  0
 13 42  1  0
 14 43  1  0
 18 44  1  0
 22 45  1  0
 22 46  1  0
 22 47  1  0
 26 48  1  0
 26 49  1  0
 26 50  1  0
 28 51  1  0
M  CHG  1  14   1
M  END
>  <UniqueID>  (4) 
4

>  <SMILES>  (4) 
COc1ccc2c(N3CCNCC3)[nH+]nc(-c3cnc(OC)nc3OC)c2c1

>  <Energy>  (4) 
72.2753053232812

>  <Genealogy>  (4) 
COc1ccc2c(N3CCNCC3)[nH+]nc(-c3cnc(OC)nc3OC)c2c1 (protonated)
COc1ccc2c(N3CCNCC3)[nH+]nc(-c3cnc(OC)nc3OC)c2c1 (3D coordinates assigned)
COc1ccc2c(N3CCNCC3)[nH+]nc(-c3cnc(OC)nc3OC)c2c1 (nonaromatic ring conformer: 72.2753053232812 kcal/mol)

>  <smiles>  (4) 
COc1ccc2c(N3CCNCC3)nnc(-c3cnc(OC)nc3OC)c2c1

>  <score_type>  (4) 
oracle

>  <origin>  (4) 
adg

>  <m_score__min__energy>  (4) 
-7.0899999999999999

>  <m_primary>  (4) 
energy

$$$$
4:0
     RDKit          3D

 48 50  0  0  0  0  0  0  0  0999 V2000
   -9.2010   21.9060  -31.6420 C   0  0  0  0  0  0  0  0  0  0  0  0
   -8.0560   22.2710  -30.7110 C   0  0  0  0  0  0  0  0  0  0  0  0
   -6.8950   21.5260  -31.0660 O   0  0  0  0  0  0  0  0  0  0  0  0
   -6.0060   21.9410  -32.0620 C   0  0  0  0  0  0  0  0  0  0  0  0
   -6.2250   23.0050  -32.7040 O   0  0  0  0  0  0  0  0  0  0  0  0
   -4.8450   21.1060  -32.4310 C   0  0  0  0  0  0  0  0  0  0  0  0
   -4.8790   20.0890  -33.3190 C   0  0  0  0  0  0  0  0  0  0  0  0
   -6.1400   19.5370  -33.8620 C   0  0  0  0  0  0  0  0  0  0  0  0
   -6.1270   18.9230  -34.9650 O   0  0  0  0  0  0  0  0  0  0  0  0
   -7.3260   19.6370  -33.1280 O   0  0  0  0  0  0  0  0  0  0  0  0
   -7.7660   18.6190  -32.2370 C   0  0  0  0  0  0  0  0  0  0  0  0
   -3.5950   19.3190  -33.5800 C   0  0  0  0  0  0  0  0  0  0  0  0
   -2.1590   20.4050  -33.9560 S   0  0  0  0  0  0  0  0  0  0  0  0
   -2.2820   21.5400  -32.5130 C   0  0  2  0  0  0  0  0  0  0  0  0
   -1.5780   21.1070  -31.3340 C   0  0  1  0  0  0  0  0  0  0  0  0
   -0.7030   22.1500  -30.8030 N   0  0  0  0  0  0  0  0  0  0  0  0
   -0.7850   22.7170  -29.4870 C   0  0  0  0  0  0  0  0  0  0  0  0
   -0.3120   22.0640  -28.5210 O   0  0  0  0  0  0  0  0  0  0  0  0
   -1.4150   24.0270  -29.2250 C   0  0  0  0  0  0  0  0  0  0  0  0
   -0.6430   25.0420  -28.9720 N   0  0  0  0  0  0  0  0  0  0  0  0
   -1.1300   26.2980  -28.6900 O   0  0  0  0  0  0  0  0  0  0  0  0
   -0.8340   26.9190  -27.4500 C   0  0  0  0  0  0  0  0  0  0  0  0
   -2.8790   24.1870  -29.3740 C   0  0  0  0  0  0  0  0  0  0  0  0
   -3.8170   23.5940  -28.5240 C   0  0  0  0  0  0  0  0  0  0  0  0
   -5.3560   23.9990  -29.0740 S   0  0  0  0  0  0  0  0  0  0  0  0
   -4.7580   24.9030  -30.3570 C   0  0  0  0  0  0  0  0  0  0  0  0
   -5.4890   25.5220  -31.2240 N   0  0  0  0  0  0  0  0  0  0  0  0
   -3.4110   24.9090  -30.3970 N   0  0  0  0  0  0  0  0  0  0  0  0
   -2.8930   21.0890  -30.6200 C   0  0  0  0  0  0  0  0  0  0  0  0
   -3.2730   20.8240  -29.4500 O   0  0  0  0  0  0  0  0  0  0  0  0
   -3.5760   21.4410  -31.8850 N   0  0  0  0  0  0  0  0  0  0  0  0
  -10.0823   21.6251  -31.0467 H   0  0  0  0  0  0  0  0  0  0  0  0
   -9.4474   22.7701  -32.2765 H   0  0  0  0  0  0  0  0  0  0  0  0
   -8.9018   21.0587  -32.2765 H   0  0  0  0  0  0  0  0  0  0  0  0
   -7.8417   23.3464  -30.7985 H   0  0  0  0  0  0  0  0  0  0  0  0
   -8.3387   22.0348  -29.6745 H   0  0  0  0  0  0  0  0  0  0  0  0
   -7.6217   18.9529  -31.1989 H   0  0  0  0  0  0  0  0  0  0  0  0
   -8.8327   18.4148  -32.4116 H   0  0  0  0  0  0  0  0  0  0  0  0
   -7.1838   17.7022  -32.4116 H   0  0  0  0  0  0  0  0  0  0  0  0
   -3.3575   18.7231  -32.6864 H   0  0  0  0  0  0  0  0  0  0  0  0
   -3.7673   18.6887  -34.4649 H   0  0  0  0  0  0  0  0  0  0  0  0
   -1.9536   22.4877  -32.9648 H   0  0  0  0  0  0  0  0  0  0  0  0
   -0.9086   20.2343  -31.3529 H   0  0  0  0  0  0  0  0  0  0  0  0
   -1.1477   26.2609  -26.6263 H   0  0  0  0  0  0  0  0  0  0  0  0
    0.2484   27.1024  -27.3809 H   0  0  0  0  0  0  0  0  0  0  0  0
   -1.3731   27.8753  -27.3809 H   0  0  0  0  0  0  0  0  0  0  0  0
   -3.5890   22.9703  -27.6470 H   0  0  0  0  0  0  0  0  0  0  0  0
   -6.0580   24.9980  -31.9260 H   0  0  0  0  0  0  0  0  0  0  0  0
  1  2  1  0
  2  3  1  0
  3  4  1  0
  4  5  2  0
  4  6  1  0
  6  7  2  0
  7  8  1  0
  8  9  2  0
  8 10  1  0
 10 11  1  0
  7 12  1  0
 12 13  1  0
 13 14  1  0
 14 15  1  0
 15 16  1  0
 16 17  1  0
 17 18  2  0
 17 19  1  0
 19 20  2  3
 20 21  1  0
 21 22  1  0
 19 23  1  0
 23 24  2  0
 24 25  1  0
 25 26  1  0
 26 27  2  3
 26 28  1  0
 15 29  1  0
 29 30  2  0
 29 31  1  0
 31  6  1  0
 31 14  1  0
 28 23  1  0
  1 32  1  0
  1 33  1  0
  1 34  1  0
  2 35  1  0
  2 36  1  0
 11 37  1  0
 11 38  1  0
 11 39  1  0
 12 40  1  0
 12 41  1  0
 14 42  1  6
 15 43  1  6
 22 44  1  0
 22 45  1  0
 22 46  1  0
 24 47  1  0
 27 48  1  0
M  CHG  2  16  -1  28  -1
M  END
>  <UniqueID>  (5) 
5

>  <SMILES>  (5) 
CCOC(=O)C1=C(C(=O)OC)CS[C@@H]2[C@@H]([N-]C(=O)C(=NOC)c3csc(=N)[n-]3)C(=O)N12

>  <Energy>  (5) 
126.89219078449635

>  <Genealogy>  (5) 
CCOC(=O)C1=C(C(=O)OC)CSC2C([N-]C(=O)C(=NOC)c3csc(=N)[n-]3)C(=O)N12 (protonated)
CCOC(=O)C1=C(C(=O)OC)CS[C@@H]2[C@@H]([N-]C(=O)C(=NOC)c3csc(=N)[n-]3)C(=O)N12 (chirality)
CCOC(=O)C1=C(C(=O)OC)CS[C@@H]2[C@@H]([N-]C(=O)C(=NOC)c3csc(=N)[n-]3)C(=O)N12 (3D coordinates assigned)
CCOC(=O)C1=C(C(=O)OC)CS[C@@H]2[C@@H]([N-]C(=O)C(=NOC)c3csc(=N)[n-]3)C(=O)N12 (nonaromatic ring conformer: 126.89219078449635 kcal/mol)

>  <smiles>  (5) 
CCOC(=O)C1=C(C(=O)OC)CSC2C(NC(=O)C(=NOC)c3csc(=N)[nH]3)C(=O)N12

>  <score_type>  (5) 
oracle

>  <origin>  (5) 
adg

>  <m_score__min__energy>  (5) 
-9.6799999999999997

>  <m_primary>  (5) 
energy

$$$$
5:0
     RDKit          3D

101106  0  0  0  0  0  0  0  0999 V2000
    0.2610   28.2920  -22.7950 H   0  0  0  0  0  0  0  0  0  0  0  0
   -0.0950   28.3650  -23.7200 O   0  0  0  0  0  0  0  0  0  0  0  0
    0.4540   27.3080  -24.4630 C   0  0  2  0  0  0  0  0  0  0  0  0
    1.5341   27.2130  -24.2777 H   0  0  0  0  0  0  0  0  0  0  0  0
    0.2780   27.5870  -25.9670 C   0  0  0  0  0  0  0  0  0  0  0  0
    1.0692   27.0665  -26.5264 H   0  0  0  0  0  0  0  0  0  0  0  0
    0.3433   28.6718  -26.1369 H   0  0  0  0  0  0  0  0  0  0  0  0
   -1.0870   27.0930  -26.4490 C   0  0  0  0  0  0  0  0  0  0  0  0
   -1.2303   27.4103  -27.4924 H   0  0  0  0  0  0  0  0  0  0  0  0
   -1.8544   27.5252  -25.7900 H   0  0  0  0  0  0  0  0  0  0  0  0
   -1.2130   25.5250  -26.3740 C   0  0  2  0  0  0  0  0  0  0  0  0
   -2.7040   25.2210  -26.0270 C   0  0  0  0  0  0  0  0  0  0  0  0
   -2.8283   25.1956  -24.9343 H   0  0  0  0  0  0  0  0  0  0  0  0
   -3.3467   26.0066  -26.4510 H   0  0  0  0  0  0  0  0  0  0  0  0
   -2.9878   24.2465  -26.4510 H   0  0  0  0  0  0  0  0  0  0  0  0
   -0.3480   24.9450  -25.1640 C   0  0  1  0  0  0  0  0  0  0  0  0
   -0.9140   24.0765  -24.7961 H   0  0  0  0  0  0  0  0  0  0  0  0
    1.0040   24.3450  -25.5470 C   0  0  0  0  0  0  0  0  0  0  0  0
    2.1050   24.1930  -24.5160 C   0  0  0  0  0  0  0  0  0  0  0  0
    1.6726   24.2527  -23.5063 H   0  0  0  0  0  0  0  0  0  0  0  0
    2.5978   23.2183  -24.6468 H   0  0  0  0  0  0  0  0  0  0  0  0
    2.8435   24.9977  -24.6468 H   0  0  0  0  0  0  0  0  0  0  0  0
    1.1560   23.7200  -26.7230 C   0  0  0  0  0  0  0  0  0  0  0  0
    2.1220   23.2398  -26.9378 H   0  0  0  0  0  0  0  0  0  0  0  0
    0.0760   23.6420  -27.7610 C   0  0  1  0  0  0  0  0  0  0  0  0
    0.6275   23.5416  -28.7075 H   0  0  0  0  0  0  0  0  0  0  0  0
   -0.8340   22.3960  -27.6640 C   0  0  2  0  0  0  0  0  0  0  0  0
   -1.4462   22.5909  -26.7711 H   0  0  0  0  0  0  0  0  0  0  0  0
   -0.0880   21.0790  -27.4950 C   0  0  0  0  0  0  0  0  0  0  0  0
    0.8526   21.2418  -26.9485 H   0  0  0  0  0  0  0  0  0  0  0  0
   -0.6828   20.3542  -26.9198 H   0  0  0  0  0  0  0  0  0  0  0  0
    0.1980   20.5710  -28.8870 C   0  0  0  0  0  0  0  0  0  0  0  0
    1.1988   20.8975  -29.2059 H   0  0  0  0  0  0  0  0  0  0  0  0
    0.1681   19.4716  -28.9078 H   0  0  0  0  0  0  0  0  0  0  0  0
   -0.8740   21.1580  -29.8360 C   0  0  1  0  0  0  0  0  0  0  0  0
   -0.4871   21.7208  -30.6983 H   0  0  0  0  0  0  0  0  0  0  0  0
   -1.6390   20.0140  -30.6060 C   0  0  1  0  0  0  0  0  0  0  0  0
   -1.8338   19.2525  -29.8364 H   0  0  0  0  0  0  0  0  0  0  0  0
   -3.0160   20.4290  -31.1760 C   0  0  0  0  0  0  0  0  0  0  0  0
   -3.7082   20.6376  -30.3470 H   0  0  0  0  0  0  0  0  0  0  0  0
   -2.9003   21.3322  -31.7932 H   0  0  0  0  0  0  0  0  0  0  0  0
   -3.4186   19.6123  -31.7932 H   0  0  0  0  0  0  0  0  0  0  0  0
   -0.7640   19.4080  -31.7500 C   0  0  0  0  0  0  0  0  0  0  0  0
    0.2544   19.2604  -31.3613 H   0  0  0  0  0  0  0  0  0  0  0  0
   -1.2518   18.4691  -32.0510 H   0  0  0  0  0  0  0  0  0  0  0  0
   -0.6720   20.2840  -33.0270 C   0  0  0  0  0  0  0  0  0  0  0  0
   -1.5351   20.9657  -33.0447 H   0  0  0  0  0  0  0  0  0  0  0  0
    0.2850   20.8244  -32.9809 H   0  0  0  0  0  0  0  0  0  0  0  0
   -0.6690   19.4660  -34.3340 C   0  0  0  0  0  0  0  0  0  0  0  0
   -1.1074   20.0749  -35.1384 H   0  0  0  0  0  0  0  0  0  0  0  0
    0.3706   19.1961  -34.5715 H   0  0  0  0  0  0  0  0  0  0  0  0
   -1.4510   18.2230  -34.1920 N   0  0  0  0  0  0  0  0  0  0  0  0
   -1.4520   17.7080  -35.1040 H   0  0  0  0  0  0  0  0  0  0  0  0
   -1.0000   17.6310  -33.4550 H   0  0  0  0  0  0  0  0  0  0  0  0
   -2.8430   18.5020  -33.8020 C   0  0  0  0  0  0  0  0  0  0  0  0
   -2.8561   19.3571  -33.1101 H   0  0  0  0  0  0  0  0  0  0  0  0
   -3.4186   18.7266  -34.7121 H   0  0  0  0  0  0  0  0  0  0  0  0
   -3.4870   17.2890  -33.1100 C   0  0  0  0  0  0  0  0  0  0  0  0
   -3.3772   16.4006  -33.7493 H   0  0  0  0  0  0  0  0  0  0  0  0
   -2.9896   17.1092  -32.1455 H   0  0  0  0  0  0  0  0  0  0  0  0
   -4.9140   17.5570  -32.8840 N   0  0  0  0  0  0  0  0  0  0  0  0
   -5.0170   18.5440  -32.5480 H   0  0  0  0  0  0  0  0  0  0  0  0
   -5.7120   17.4170  -34.1070 C   0  0  0  0  0  0  0  0  0  0  0  0
   -5.1346   16.8627  -34.8615 H   0  0  0  0  0  0  0  0  0  0  0  0
   -6.6385   16.8680  -33.8827 H   0  0  0  0  0  0  0  0  0  0  0  0
   -6.0550   18.8030  -34.6440 C   0  0  0  0  0  0  0  0  0  0  0  0
   -5.3890   19.0484  -35.4844 H   0  0  0  0  0  0  0  0  0  0  0  0
   -7.0977   18.8191  -34.9941 H   0  0  0  0  0  0  0  0  0  0  0  0
   -5.8770   19.7830  -33.5750 N   0  0  0  0  0  0  0  0  0  0  0  0
   -6.8030   20.3420  -32.8460 C   0  0  0  0  0  0  0  0  0  0  0  0
   -8.0910   19.7820  -32.7280 C   0  0  0  0  0  0  0  0  0  0  0  0
   -8.3233   18.8261  -33.2201 H   0  0  0  0  0  0  0  0  0  0  0  0
   -9.0720   20.4430  -31.9850 C   0  0  0  0  0  0  0  0  0  0  0  0
  -10.0765   20.0043  -31.8921 H   0  0  0  0  0  0  0  0  0  0  0  0
   -8.7920   21.6240  -31.3770 N   0  0  0  0  0  0  0  0  0  0  0  0
   -7.5590   22.1940  -31.4500 C   0  0  0  0  0  0  0  0  0  0  0  0
   -7.3150   23.4150  -30.8090 C   0  0  0  0  0  0  0  0  0  0  0  0
   -8.1210   23.9091  -30.2466 H   0  0  0  0  0  0  0  0  0  0  0  0
   -6.0500   24.0090  -30.8810 C   0  0  0  0  0  0  0  0  0  0  0  0
   -5.7520   25.5550  -30.0930 Cl  0  0  0  0  0  0  0  0  0  0  0  0
   -5.0230   23.3760  -31.5830 C   0  0  0  0  0  0  0  0  0  0  0  0
   -4.0239   23.8347  -31.6201 H   0  0  0  0  0  0  0  0  0  0  0  0
   -5.2540   22.1660  -32.2380 C   0  0  0  0  0  0  0  0  0  0  0  0
   -4.4408   21.6843  -32.8008 H   0  0  0  0  0  0  0  0  0  0  0  0
   -6.5260   21.5570  -32.1820 C   0  0  0  0  0  0  0  0  0  0  0  0
   -1.6800   22.2190  -28.9730 C   0  0  1  0  0  0  0  0  0  0  0  0
   -3.0920   21.7410  -28.5440 C   0  0  0  0  0  0  0  0  0  0  0  0
   -3.1541   21.7200  -27.4460 H   0  0  0  0  0  0  0  0  0  0  0  0
   -3.8496   22.4327  -28.9409 H   0  0  0  0  0  0  0  0  0  0  0  0
   -3.2736   20.7313  -28.9409 H   0  0  0  0  0  0  0  0  0  0  0  0
   -1.8060   23.5740  -29.7710 C   0  0  0  0  0  0  0  0  0  0  0  0
   -2.6904   23.5174  -30.4226 H   0  0  0  0  0  0  0  0  0  0  0  0
   -0.8803   23.7047  -30.3506 H   0  0  0  0  0  0  0  0  0  0  0  0
   -1.9520   24.7950  -28.8500 C   0  0  0  0  0  0  0  0  0  0  0  0
   -2.9026   24.7076  -28.3035 H   0  0  0  0  0  0  0  0  0  0  0  0
   -1.9202   25.6893  -29.4896 H   0  0  0  0  0  0  0  0  0  0  0  0
   -0.7860   24.9320  -27.8030 C   0  0  1  0  0  0  0  0  0  0  0  0
   -0.1269   25.7324  -28.1703 H   0  0  0  0  0  0  0  0  0  0  0  0
   -0.2300   25.9890  -24.0210 C   0  0  0  0  0  0  0  0  0  0  0  0
    0.3592   25.5470  -23.2040 H   0  0  0  0  0  0  0  0  0  0  0  0
   -1.2526   26.2426  -23.7047 H   0  0  0  0  0  0  0  0  0  0  0  0
  1  2  1  0
  2  3  1  0
  3  4  1  6
  3  5  1  0
  5  6  1  0
  5  7  1  0
  5  8  1  0
  8  9  1  0
  8 10  1  0
  8 11  1  0
 11 12  1  1
 12 13  1  0
 12 14  1  0
 12 15  1  0
 11 16  1  0
 16 17  1  1
 16 18  1  0
 18 19  1  0
 19 20  1  0
 19 21  1  0
 19 22  1  0
 18 23  2  0
 23 24  1  0
 23 25  1  0
 25 26  1  6
 25 27  1  0
 27 28  1  1
 27 29  1  0
 29 30  1  0
 29 31  1  0
 29 32  1  0
 32 33  1  0
 32 34  1  0
 32 35  1  0
 35 36  1  6
 35 37  1  0
 37 38  1  1
 37 39  1  0
 39 40  1  0
 39 41  1  0
 39 42  1  0
 37 43  1  0
 43 44  1  0
 43 45  1  0
 43 46  1  0
 46 47  1  0
 46 48  1  0
 46 49  1  0
 49 50  1  0
 49 51  1  0
 49 52  1  0
 52 53  1  0
 52 54  1  0
 52 55  1  0
 55 56  1  0
 55 57  1  0
 55 58  1  0
 58 59  1  0
 58 60  1  0
 58 61  1  0
 61 62  1  0
 61 63  1  0
 63 64  1  0
 63 65  1  0
 63 66  1  0
 66 67  1  0
 66 68  1  0
 66 69  1  0
 69 70  2  0
 70 71  1  0
 71 72  1  0
 71 73  2  0
 73 74  1  0
 73 75  1  0
 75 76  1  0
 76 77  2  0
 77 78  1  0
 77 79  1  0
 79 80  1  0
 79 81  2  0
 81 82  1  0
 81 83  1  0
 83 84  1  0
 83 85  2  0
 35 86  1  0
 86 87  1  1
 87 88  1  0
 87 89  1  0
 87 90  1  0
 86 91  1  0
 91 92  1  0
 91 93  1  0
 91 94  1  0
 94 95  1  0
 94 96  1  0
 94 97  1  0
 97 98  1  6
 16 99  1  0
 99100  1  0
 99101  1  0
 99  3  1  0
 97 11  1  0
 97 25  1  0
 86 27  1  0
 85 70  1  0
 85 76  1  0
M  CHG  2  52   1  75  -1
M  END
>  <UniqueID>  (6) 
6

>  <SMILES>  (6) 
CC1=C[C@H]2C3CCC(C(C)CCC[NH2+]CCNCC/N=c4\cc[n-]c5cc(Cl)ccc45)C3(C)CC[C@H]2C2(C)CCC(O)CC12

>  <Energy>  (6) 
154.71076328375366

>  <Genealogy>  (6) 
CC1=CC2C(CCC3(C)C(C(C)CCC[NH2+]CCNCCN=c4cc[n-]c5cc(Cl)ccc45)CCC23)C2(C)CCC(O)CC12 (protonated)
CC1=C[C@H]2C3CCC(C(C)CCC[NH2+]CCNCCN=c4cc[n-]c5cc(Cl)ccc45)C3(C)CC[C@H]2C2(C)CCC(O)CC12 (chirality)
CC1=C[C@H]2C3CCC(C(C)CCC[NH2+]CCNCC/N=c4\cc[n-]c5cc(Cl)ccc45)C3(C)CC[C@H]2C2(C)CCC(O)CC12 (cis-trans isomerization)
CC1=C[C@H]2C3CCC(C(C)CCC[NH2+]CCNCC/N=c4\cc[n-]c5cc(Cl)ccc45)C3(C)CC[C@H]2C2(C)CCC(O)CC12 (3D coordinates assigned)
CC1=C[C@H]2C3CCC(C(C)CCC[NH2+]CCNCC/N=c4\cc[n-]c5cc(Cl)ccc45)C3(C)CC[C@H]2C2(C)CCC(O)CC12 (nonaromatic ring conformer: 154.71076328375366 kcal/mol)

>  <smiles>  (6) 
CC1=CC2C(CCC3(C)C(C(C)CCCNCCNCCN=c4cc[nH]c5cc(Cl)ccc45)CCC23)C2(C)CCC(O)CC12

>  <score_type>  (6) 
oracle

>  <origin>  (6) 
adg

>  <m_score__min__energy>  (6) 
-11.279999999999999

>  <m_primary>  (6) 
energy

$$$$
6:0
     RDKit          3D

 23 24  0  0  0  0  0  0  0  0999 V2000
   -5.1429   16.6946  -34.7232 H   0  0  0  0  0  0  0  0  0  0  0  0
   -5.6880   17.5340  -34.2670 C   0  0  0  0  0  0  0  0  0  0  0  0
   -5.4930   18.8350  -34.5810 N   0  0  0  0  0  0  0  0  0  0  0  0
   -6.3010   19.6660  -33.8700 C   0  0  0  0  0  0  0  0  0  0  0  0
   -6.2786   20.7593  -33.9887 H   0  0  0  0  0  0  0  0  0  0  0  0
   -7.1580   19.0260  -32.9810 C   0  0  0  0  0  0  0  0  0  0  0  0
   -8.1120   19.6860  -32.0700 C   0  0  0  0  0  0  0  0  0  0  0  0
   -8.7400   18.9970  -31.2230 O   0  0  0  0  0  0  0  0  0  0  0  0
   -8.4050   21.0850  -32.1840 N   0  0  0  0  0  0  0  0  0  0  0  0
   -7.6650   22.0770  -31.7700 C   0  0  0  0  0  0  0  0  0  0  0  0
   -7.6410   22.4840  -30.4210 C   0  0  0  0  0  0  0  0  0  0  0  0
   -8.2547   21.9583  -29.6746 H   0  0  0  0  0  0  0  0  0  0  0  0
   -6.8360   23.5560  -30.0360 C   0  0  0  0  0  0  0  0  0  0  0  0
   -6.8090   23.8700  -28.9821 H   0  0  0  0  0  0  0  0  0  0  0  0
   -6.0610   24.2350  -30.9870 C   0  0  0  0  0  0  0  0  0  0  0  0
   -5.2260   25.3410  -30.5990 N   0  0  0  0  0  0  0  0  0  0  0  0
   -5.7250   26.3700  -30.1000 O   0  0  0  0  0  0  0  0  0  0  0  0
   -3.8630   25.2810  -30.7730 O   0  0  0  0  0  0  0  0  0  0  0  0
   -6.1250   23.8110  -32.3240 C   0  0  0  0  0  0  0  0  0  0  0  0
   -5.5302   24.3301  -33.0900 H   0  0  0  0  0  0  0  0  0  0  0  0
   -6.9170   22.7630  -32.6800 N   0  0  0  0  0  0  0  0  0  0  0  0
   -6.9380   22.4770  -33.6860 H   0  0  0  0  0  0  0  0  0  0  0  0
   -6.8740   17.3700  -33.0870 S   0  0  0  0  0  0  0  0  0  0  0  0
  1  2  1  0
  2  3  2  0
  3  4  1  0
  4  5  1  0
  4  6  2  0
  6  7  1  0
  7  8  2  0
  7  9  1  0
  9 10  2  0
 10 11  1  0
 11 12  1  0
 11 13  2  0
 13 14  1  0
 13 15  1  0
 15 16  1  0
 16 17  2  0
 16 18  1  0
 15 19  2  0
 19 20  1  0
 19 21  1  0
 21 22  1  0
  6 23  1  0
 23  2  1  0
 21 10  1  0
M  CHG  2  16   1  18  -1
M  END
>  <UniqueID>  (7) 
7

>  <SMILES>  (7) 
O=C(/N=c1\ccc([N+](=O)[O-])c[nH]1)c1cncs1

>  <Energy>  (7) 
64.09200426234915

>  <Genealogy>  (7) 
O=C(/N=c1\ccc([N+](=O)[O-])c[nH]1)c1cncs1 (cis-trans isomerization)
O=C(/N=c1\ccc([N+](=O)[O-])c[nH]1)c1cncs1 (3D coordinates assigned)
O=C(/N=c1\ccc([N+](=O)[O-])c[nH]1)c1cncs1 (optimized conformer: 64.09200426234915 kcal/mol)

>  <smiles>  (7) 
O=C(N=c1ccc([N+](=O)[O-])c[nH]1)c1cncs1

>  <score_type>  (7) 
oracle

>  <origin>  (7) 
adg

>  <m_score__min__energy>  (7) 
-7.3700000000000001

>  <m_primary>  (7) 
energy

$$$$
7:0
     RDKit          3D

 35 37  0  0  0  0  0  0  0  0999 V2000
   -8.7630   22.8060  -31.7350 C   0  0  0  0  0  0  0  0  0  0  0  0
   -7.6150   21.8780  -31.9670 C   0  0  0  0  0  0  0  0  0  0  0  0
   -7.7400   20.6790  -32.5660 N   0  0  0  0  0  0  0  0  0  0  0  0
   -6.4890   20.1620  -32.5230 C   0  0  0  0  0  0  0  0  0  0  0  0
   -6.1070   18.8270  -33.0470 C   0  0  0  0  0  0  0  0  0  0  0  0
   -7.0950   17.8220  -33.0730 C   0  0  0  0  0  0  0  0  0  0  0  0
   -6.8050   16.5470  -33.5650 C   0  0  0  0  0  0  0  0  0  0  0  0
   -5.5270   16.2540  -34.0350 C   0  0  0  0  0  0  0  0  0  0  0  0
   -4.5320   17.2310  -34.0090 C   0  0  0  0  0  0  0  0  0  0  0  0
   -4.8050   18.5150  -33.5180 C   0  0  0  0  0  0  0  0  0  0  0  0
   -3.3320   19.7480  -33.4890 Br  0  0  0  0  0  0  0  0  0  0  0  0
   -5.6330   20.9760  -31.9380 O   0  0  0  0  0  0  0  0  0  0  0  0
   -6.2970   22.0500  -31.5970 C   0  0  0  0  0  0  0  0  0  0  0  0
   -5.7140   23.1720  -30.9170 N   0  0  0  0  0  0  0  0  0  0  0  0
   -6.0810   24.5230  -31.3520 C   0  0  0  0  0  0  0  0  0  0  0  0
   -5.2690   25.5770  -30.5870 C   0  0  0  0  0  0  0  0  0  0  0  0
   -3.8800   25.1340  -30.4220 N   0  0  0  0  0  0  0  0  0  0  0  0
   -3.7680   23.9230  -29.5840 C   0  0  0  0  0  0  0  0  0  0  0  0
   -5.0050   23.0040  -29.6450 C   0  0  0  0  0  0  0  0  0  0  0  0
   -8.9195   22.9325  -30.6536 H   0  0  0  0  0  0  0  0  0  0  0  0
   -8.5427   23.7828  -32.1903 H   0  0  0  0  0  0  0  0  0  0  0  0
   -9.6719   22.3858  -32.1903 H   0  0  0  0  0  0  0  0  0  0  0  0
   -8.1063   18.0442  -32.7015 H   0  0  0  0  0  0  0  0  0  0  0  0
   -7.5870   15.7735  -33.5812 H   0  0  0  0  0  0  0  0  0  0  0  0
   -5.3022   15.2511  -34.4271 H   0  0  0  0  0  0  0  0  0  0  0  0
   -3.5235   16.9915  -34.3773 H   0  0  0  0  0  0  0  0  0  0  0  0
   -5.8795   24.6231  -32.4287 H   0  0  0  0  0  0  0  0  0  0  0  0
   -7.1501   24.6827  -31.1480 H   0  0  0  0  0  0  0  0  0  0  0  0
   -5.2832   26.5228  -31.1484 H   0  0  0  0  0  0  0  0  0  0  0  0
   -5.7178   25.7199  -29.5929 H   0  0  0  0  0  0  0  0  0  0  0  0
   -3.4830   24.9270  -31.3700 H   0  0  0  0  0  0  0  0  0  0  0  0
   -2.8927   23.3483  -29.9211 H   0  0  0  0  0  0  0  0  0  0  0  0
   -3.6742   24.2633  -28.5422 H   0  0  0  0  0  0  0  0  0  0  0  0
   -4.6820   21.9570  -29.5473 H   0  0  0  0  0  0  0  0  0  0  0  0
   -5.6853   23.2722  -28.8232 H   0  0  0  0  0  0  0  0  0  0  0  0
  1  2  1  0
  2  3  1  0
  3  4  2  0
  4  5  1  0
  5  6  2  0
  6  7  1  0
  7  8  2  0
  8  9  1  0
  9 10  2  0
 10 11  1  0
  4 12  1  0
 12 13  1  0
 13 14  1  0
 14 15  1  0
 15 16  1  0
 16 17  1  0
 17 18  1  0
 18 19  1  0
 13  2  2  0
 19 14  1  0
 10  5  1  0
  1 20  1  0
  1 21  1  0
  1 22  1  0
  6 23  1  0
  7 24  1  0
  8 25  1  0
  9 26  1  0
 15 27  1  0
 15 28  1  0
 16 29  1  0
 16 30  1  0
 17 31  1  0
 18 32  1  0
 18 33  1  0
 19 34  1  0
 19 35  1  0
M  END
>  <UniqueID>  (8) 
8

>  <SMILES>  (8) 
Cc1nc(-c2ccccc2Br)oc1N1CCNCC1

>  <Energy>  (8) 
77.05311668877906

>  <Genealogy>  (8) 
Cc1nc(-c2ccccc2Br)oc1N1CCNCC1 (3D coordinates assigned)
Cc1nc(-c2ccccc2Br)oc1N1CCNCC1 (nonaromatic ring conformer: 77.05311668877906 kcal/mol)

>  <smiles>  (8) 
Cc1nc(-c2ccccc2Br)oc1N1CCNCC1

>  <score_type>  (8) 
oracle

>  <origin>  (8) 
adg

>  <m_score__min__energy>  (8) 
-8.25

>  <m_primary>  (8) 
energy

$$$$
8:0
     RDKit          3D

 66 68  0  0  0  0  0  0  0  0999 V2000
   -2.3990   21.2060  -33.1010 C   0  0  0  0  0  0  0  0  0  0  0  0
   -3.2520   20.0500  -32.5900 C   0  0  0  0  0  0  0  0  0  0  0  0
   -4.4940   19.7490  -33.4640 C   0  0  0  0  0  0  0  0  0  0  0  0
   -5.7660   19.5590  -32.7240 N   0  0  0  0  0  0  0  0  0  0  0  0
   -6.2030   18.1470  -32.6560 C   0  0  0  0  0  0  0  0  0  0  0  0
   -7.0740   17.8760  -31.4230 C   0  0  0  0  0  0  0  0  0  0  0  0
   -8.5260   18.2980  -31.6420 C   0  0  0  0  0  0  0  0  0  0  0  0
   -6.8340   20.5100  -33.1170 C   0  0  0  0  0  0  0  0  0  0  0  0
   -6.9940   21.6030  -32.0580 C   0  0  0  0  0  0  0  0  0  0  0  0
   -5.7870   21.7050  -31.2370 N   0  0  0  0  0  0  0  0  0  0  0  0
   -4.9920   22.8990  -31.1780 C   0  0  0  0  0  0  0  0  0  0  0  0
   -5.2580   23.8690  -31.9380 O   0  0  0  0  0  0  0  0  0  0  0  0
   -3.8300   22.9950  -30.2620 C   0  0  0  0  0  0  0  0  0  0  0  0
   -3.2520   21.8190  -29.7680 C   0  0  0  0  0  0  0  0  0  0  0  0
   -2.1860   21.8550  -28.9150 N   0  0  0  0  0  0  0  0  0  0  0  0
   -1.6490   20.5930  -28.4790 C   0  0  0  0  0  0  0  0  0  0  0  0
   -2.1750   19.9730  -27.3380 C   0  0  0  0  0  0  0  0  0  0  0  0
   -1.6450   18.7650  -26.8860 C   0  0  0  0  0  0  0  0  0  0  0  0
   -0.5780   18.1600  -27.5590 C   0  0  0  0  0  0  0  0  0  0  0  0
   -0.0730   16.9540  -27.0530 O   0  0  0  0  0  0  0  0  0  0  0  0
    1.1410   16.3460  -27.4840 C   0  0  0  0  0  0  0  0  0  0  0  0
   -0.0500   18.7780  -28.7090 C   0  0  0  0  0  0  0  0  0  0  0  0
   -0.5830   19.9970  -29.1740 C   0  0  0  0  0  0  0  0  0  0  0  0
   -0.0850   20.6410  -30.3190 O   0  0  0  0  0  0  0  0  0  0  0  0
    0.4150   19.9680  -31.4690 C   0  0  0  0  0  0  0  0  0  0  0  0
   -1.6470   23.0550  -28.5090 C   0  0  0  0  0  0  0  0  0  0  0  0
   -0.5670   23.1110  -27.5960 C   0  0  0  0  0  0  0  0  0  0  0  0
   -0.0300   24.3380  -27.2030 C   0  0  0  0  0  0  0  0  0  0  0  0
   -0.5540   25.5280  -27.7030 C   0  0  0  0  0  0  0  0  0  0  0  0
   -1.6240   25.4990  -28.5970 C   0  0  0  0  0  0  0  0  0  0  0  0
   -2.1840   24.2710  -29.0030 C   0  0  0  0  0  0  0  0  0  0  0  0
   -3.2720   24.2310  -29.8940 C   0  0  0  0  0  0  0  0  0  0  0  0
   -3.7300   25.3000  -30.3810 O   0  0  0  0  0  0  0  0  0  0  0  0
   -1.9875   21.7636  -32.2468 H   0  0  0  0  0  0  0  0  0  0  0  0
   -1.5744   20.8109  -33.7124 H   0  0  0  0  0  0  0  0  0  0  0  0
   -3.0198   21.8774  -33.7124 H   0  0  0  0  0  0  0  0  0  0  0  0
   -2.6256   19.1464  -32.5564 H   0  0  0  0  0  0  0  0  0  0  0  0
   -3.6250   20.3442  -31.5979 H   0  0  0  0  0  0  0  0  0  0  0  0
   -4.6297   20.5894  -34.1607 H   0  0  0  0  0  0  0  0  0  0  0  0
   -4.2878   18.7895  -33.9608 H   0  0  0  0  0  0  0  0  0  0  0  0
   -6.7832   17.9105  -33.5601 H   0  0  0  0  0  0  0  0  0  0  0  0
   -5.3051   17.5156  -32.5842 H   0  0  0  0  0  0  0  0  0  0  0  0
   -7.0473   16.7993  -31.1994 H   0  0  0  0  0  0  0  0  0  0  0  0
   -6.6715   18.4669  -30.5870 H   0  0  0  0  0  0  0  0  0  0  0  0
   -9.0172   18.4408  -30.6682 H   0  0  0  0  0  0  0  0  0  0  0  0
   -8.5524   19.2410  -32.2077 H   0  0  0  0  0  0  0  0  0  0  0  0
   -9.0537   17.5161  -32.2077 H   0  0  0  0  0  0  0  0  0  0  0  0
   -6.5699   20.9737  -34.0789 H   0  0  0  0  0  0  0  0  0  0  0  0
   -7.7831   19.9614  -33.2086 H   0  0  0  0  0  0  0  0  0  0  0  0
   -7.1742   22.5665  -32.5572 H   0  0  0  0  0  0  0  0  0  0  0  0
   -7.8440   21.3461  -31.4087 H   0  0  0  0  0  0  0  0  0  0  0  0
   -5.4150   20.8300  -30.8030 H   0  0  0  0  0  0  0  0  0  0  0  0
   -3.6651   20.8463  -30.0733 H   0  0  0  0  0  0  0  0  0  0  0  0
   -3.0099   20.4413  -26.7962 H   0  0  0  0  0  0  0  0  0  0  0  0
   -2.0695   18.2836  -25.9926 H   0  0  0  0  0  0  0  0  0  0  0  0
    1.7340   16.0490  -26.6065 H   0  0  0  0  0  0  0  0  0  0  0  0
    0.9110   15.4567  -28.0892 H   0  0  0  0  0  0  0  0  0  0  0  0
    1.7154   17.0628  -28.0892 H   0  0  0  0  0  0  0  0  0  0  0  0
    0.7845   18.3059  -29.2482 H   0  0  0  0  0  0  0  0  0  0  0  0
    1.0436   19.1219  -31.1543 H   0  0  0  0  0  0  0  0  0  0  0  0
   -0.4270   19.5953  -32.0708 H   0  0  0  0  0  0  0  0  0  0  0  0
    1.0149   20.6666  -32.0708 H   0  0  0  0  0  0  0  0  0  0  0  0
   -0.1466   22.1782  -27.1921 H   0  0  0  0  0  0  0  0  0  0  0  0
    0.8113   24.3654  -26.4948 H   0  0  0  0  0  0  0  0  0  0  0  0
   -0.1234   26.4914  -27.3924 H   0  0  0  0  0  0  0  0  0  0  0  0
   -2.0340   26.4418  -28.9883 H   0  0  0  0  0  0  0  0  0  0  0  0
  1  2  1  0
  2  3  1  0
  3  4  1  0
  4  5  1  0
  5  6  1  0
  6  7  1  0
  4  8  1  0
  8  9  1  0
  9 10  1  0
 10 11  1  0
 11 12  2  0
 11 13  1  0
 13 14  2  0
 14 15  1  0
 15 16  1  0
 16 17  2  0
 17 18  1  0
 18 19  2  0
 19 20  1  0
 20 21  1  0
 19 22  1  0
 22 23  2  0
 23 24  1  0
 24 25  1  0
 15 26  1  0
 26 27  2  0
 27 28  1  0
 28 29  2  0
 29 30  1  0
 30 31  2  0
 31 32  1  0
 32 33  2  0
 32 13  1  0
 23 16  1  0
 31 26  1  0
  1 34  1  0
  1 35  1  0
  1 36  1  0
  2 37  1  0
  2 38  1  0
  3 39  1  0
  3 40  1  0
  5 41  1  0
  5 42  1  0
  6 43  1  0
  6 44  1  0
  7 45  1  0
  7 46  1  0
  7 47  1  0
  8 48  1  0
  8 49  1  0
  9 50  1  0
  9 51  1  0
 10 52  1  0
 14 53  1  0
 17 54  1  0
 18 55  1  0
 21 56  1  0
 21 57  1  0
 21 58  1  0
 22 59  1  0
 25 60  1  0
 25 61  1  0
 25 62  1  0
 27 63  1  0
 28 64  1  0
 29 65  1  0
 30 66  1  0
M  END
>  <UniqueID>  (9) 
9

>  <SMILES>  (9) 
CCCN(CCC)CCNC(=O)c1cn(-c2ccc(OC)cc2OC)c2ccccc2c1=O

>  <Energy>  (9) 
81.94414799532525

>  <Genealogy>  (9) 
CCCN(CCC)CCNC(=O)c1cn(-c2ccc(OC)cc2OC)c2ccccc2c1=O (3D coordinates assigned)
CCCN(CCC)CCNC(=O)c1cn(-c2ccc(OC)cc2OC)c2ccccc2c1=O (optimized conformer: 81.94414799532525 kcal/mol)

>  <smiles>  (9) 
CCCN(CCC)CCNC(=O)c1cn(-c2ccc(OC)cc2OC)c2ccccc2c1=O

>  <score_type>  (9) 
oracle

>  <origin>  (9) 
adg

>  <m_score__min__energy>  (9) 
-8.6799999999999997

>  <m_primary>  (9) 
energy

$$$$
9:0
     RDKit          3D

 43 45  0  0  0  0  0  0  0  0999 V2000
   -5.1040   26.3500  -30.4640 O   0  0  0  0  0  0  0  0  0  0  0  0
   -4.8450   25.1300  -30.6370 C   0  0  0  0  0  0  0  0  0  0  0  0
   -3.4950   24.6890  -30.4150 N   0  0  0  0  0  0  0  0  0  0  0  0
   -3.0170   23.5860  -29.5820 C   0  0  0  0  0  0  0  0  0  0  0  0
   -2.0670   22.6500  -30.3630 C   0  0  0  0  0  0  0  0  0  0  0  0
   -2.7860   21.6900  -31.2350 N   0  0  0  0  0  0  0  0  0  0  0  0
   -1.8750   20.6490  -31.7710 C   0  0  0  0  0  0  0  0  0  0  0  0
   -2.6870   19.5260  -32.4420 C   0  0  0  0  0  0  0  0  0  0  0  0
   -3.9510   20.0590  -32.9660 N   0  0  0  0  0  0  0  0  0  0  0  0
   -5.1700   19.3020  -32.8220 C   0  0  0  0  0  0  0  0  0  0  0  0
   -6.1840   19.7300  -31.9450 C   0  0  0  0  0  0  0  0  0  0  0  0
   -7.3460   18.9700  -31.7810 C   0  0  0  0  0  0  0  0  0  0  0  0
   -7.5040   17.7720  -32.4820 C   0  0  0  0  0  0  0  0  0  0  0  0
   -6.4990   17.3310  -33.3470 C   0  0  0  0  0  0  0  0  0  0  0  0
   -6.6890   15.8170  -34.2130 Cl  0  0  0  0  0  0  0  0  0  0  0  0
   -5.3370   18.0920  -33.5170 C   0  0  0  0  0  0  0  0  0  0  0  0
   -3.9520   21.4420  -33.4560 C   0  0  0  0  0  0  0  0  0  0  0  0
   -3.4620   22.4030  -32.3500 C   0  0  0  0  0  0  0  0  0  0  0  0
   -5.9470   24.2310  -31.0420 C   0  0  0  0  0  0  0  0  0  0  0  0
   -6.2330   23.8740  -32.3580 C   0  0  0  0  0  0  0  0  0  0  0  0
   -7.3320   23.0170  -32.4800 C   0  0  0  0  0  0  0  0  0  0  0  0
   -7.9210   22.7080  -31.2660 C   0  0  0  0  0  0  0  0  0  0  0  0
   -9.4110   21.5480  -31.0110 Br  0  0  0  0  0  0  0  0  0  0  0  0
   -7.0890   23.5000  -30.0410 S   0  0  0  0  0  0  0  0  0  0  0  0
   -2.4780   24.0001  -28.7171 H   0  0  0  0  0  0  0  0  0  0  0  0
   -3.8885   22.9979  -29.2586 H   0  0  0  0  0  0  0  0  0  0  0  0
   -1.4059   23.2659  -30.9903 H   0  0  0  0  0  0  0  0  0  0  0  0
   -1.5024   22.0632  -29.6235 H   0  0  0  0  0  0  0  0  0  0  0  0
   -3.5340   21.2280  -30.6740 H   0  0  0  0  0  0  0  0  0  0  0  0
   -1.2010   21.1028  -32.5124 H   0  0  0  0  0  0  0  0  0  0  0  0
   -1.2899   20.2230  -30.9426 H   0  0  0  0  0  0  0  0  0  0  0  0
   -2.1017   19.0989  -33.2696 H   0  0  0  0  0  0  0  0  0  0  0  0
   -2.9068   18.7471  -31.6970 H   0  0  0  0  0  0  0  0  0  0  0  0
   -6.0615   20.6687  -31.3848 H   0  0  0  0  0  0  0  0  0  0  0  0
   -8.1368   19.3158  -31.0991 H   0  0  0  0  0  0  0  0  0  0  0  0
   -8.4194   17.1759  -32.3531 H   0  0  0  0  0  0  0  0  0  0  0  0
   -4.5489   17.7407  -34.1993 H   0  0  0  0  0  0  0  0  0  0  0  0
   -3.2835   21.5192  -34.3261 H   0  0  0  0  0  0  0  0  0  0  0  0
   -4.9771   21.7193  -33.7427 H   0  0  0  0  0  0  0  0  0  0  0  0
   -2.7531   23.1181  -32.7927 H   0  0  0  0  0  0  0  0  0  0  0  0
   -4.3442   22.9124  -31.9349 H   0  0  0  0  0  0  0  0  0  0  0  0
   -5.6500   24.2320  -33.2194 H   0  0  0  0  0  0  0  0  0  0  0  0
   -7.6919   22.6278  -33.4438 H   0  0  0  0  0  0  0  0  0  0  0  0
  1  2  2  0
  2  3  1  0
  3  4  1  0
  4  5  1  0
  5  6  1  0
  6  7  1  0
  7  8  1  0
  8  9  1  0
  9 10  1  0
 10 11  2  0
 11 12  1  0
 12 13  2  0
 13 14  1  0
 14 15  1  0
 14 16  2  0
  9 17  1  0
 17 18  1  0
  2 19  1  0
 19 20  2  0
 20 21  1  0
 21 22  2  0
 22 23  1  0
 22 24  1  0
 18  6  1  0
 24 19  1  0
 16 10  1  0
  4 25  1  0
  4 26  1  0
  5 27  1  0
  5 28  1  0
  6 29  1  0
  7 30  1  0
  7 31  1  0
  8 32  1  0
  8 33  1  0
 11 34  1  0
 12 35  1  0
 13 36  1  0
 16 37  1  0
 17 38  1  0
 17 39  1  0
 18 40  1  0
 18 41  1  0
 20 42  1  0
 21 43  1  0
M  CHG  2   3  -1   6   1
M  END
>  <UniqueID>  (10) 
10

>  <SMILES>  (10) 
O=C([N-]CC[NH+]1CCN(c2cccc(Cl)c2)CC1)c1ccc(Br)s1

>  <Energy>  (10) 
80.83456848447229

>  <Genealogy>  (10) 
O=C([N-]CC[NH+]1CCN(c2cccc(Cl)c2)CC1)c1ccc(Br)s1 (protonated)
O=C([N-]CC[NH+]1CCN(c2cccc(Cl)c2)CC1)c1ccc(Br)s1 (3D coordinates assigned)
O=C([N-]CC[NH+]1CCN(c2cccc(Cl)c2)CC1)c1ccc(Br)s1 (nonaromatic ring conformer: 80.83456848447229 kcal/mol)

>  <smiles>  (10) 
O=C(NCCN1CCN(c2cccc(Cl)c2)CC1)c1ccc(Br)s1

>  <score_type>  (10) 
oracle

>  <origin>  (10) 
adg

>  <m_score__min__energy>  (10) 
-10.380000000000001

>  <m_primary>  (10) 
energy

$$$$
10:0
     RDKit          3D

 41 44  0  0  0  0  0  0  0  0999 V2000
   -8.1660   19.6160  -32.0040 C   0  0  0  0  0  0  0  0  0  0  0  0
   -8.6340   20.9430  -31.7870 O   0  0  0  0  0  0  0  0  0  0  0  0
   -7.8090   22.0330  -31.4720 C   0  0  0  0  0  0  0  0  0  0  0  0
   -7.1410   22.7840  -32.4560 C   0  0  0  0  0  0  0  0  0  0  0  0
   -6.3290   23.8630  -32.0920 C   0  0  0  0  0  0  0  0  0  0  0  0
   -6.1670   24.2110  -30.7390 C   0  0  0  0  0  0  0  0  0  0  0  0
   -5.3080   25.3540  -30.3500 C   0  0  0  0  0  0  0  0  0  0  0  0
   -5.8290   26.3960  -29.8680 O   0  0  0  0  0  0  0  0  0  0  0  0
   -3.8820   25.2550  -30.4730 N   0  0  0  0  0  0  0  0  0  0  0  0
   -3.0640   24.1410  -30.0860 C   0  0  0  0  0  0  0  0  0  0  0  0
   -3.2670   22.8500  -30.6060 C   0  0  0  0  0  0  0  0  0  0  0  0
   -2.4630   21.7860  -30.1850 C   0  0  0  0  0  0  0  0  0  0  0  0
   -1.4550   21.9910  -29.2290 C   0  0  0  0  0  0  0  0  0  0  0  0
   -0.6080   20.8630  -28.7890 C   0  0  0  0  0  0  0  0  0  0  0  0
   -1.0920   19.6160  -28.5310 N   0  0  0  0  0  0  0  0  0  0  0  0
    0.0190   18.9520  -28.1750 C   0  0  0  0  0  0  0  0  0  0  0  0
    0.1340   17.6160  -27.7960 C   0  0  0  0  0  0  0  0  0  0  0  0
    1.4170   17.1410  -27.4620 C   0  0  0  0  0  0  0  0  0  0  0  0
    2.5370   18.0050  -27.5160 C   0  0  0  0  0  0  0  0  0  0  0  0
    2.3820   19.3490  -27.9030 C   0  0  0  0  0  0  0  0  0  0  0  0
    1.0970   19.7800  -28.2240 C   0  0  0  0  0  0  0  0  0  0  0  0
    0.7000   20.9630  -28.6080 O   0  0  0  0  0  0  0  0  0  0  0  0
   -1.2710   23.2760  -28.6940 C   0  0  0  0  0  0  0  0  0  0  0  0
   -2.0770   24.3390  -29.1150 C   0  0  0  0  0  0  0  0  0  0  0  0
   -6.8380   23.4560  -29.7600 C   0  0  0  0  0  0  0  0  0  0  0  0
   -7.6490   22.3790  -30.1270 C   0  0  0  0  0  0  0  0  0  0  0  0
   -7.9929   19.1252  -31.0349 H   0  0  0  0  0  0  0  0  0  0  0  0
   -8.9188   19.0501  -32.5724 H   0  0  0  0  0  0  0  0  0  0  0  0
   -7.2247   19.6475  -32.5724 H   0  0  0  0  0  0  0  0  0  0  0  0
   -7.2579   22.5212  -33.5177 H   0  0  0  0  0  0  0  0  0  0  0  0
   -5.8128   24.4442  -32.8703 H   0  0  0  0  0  0  0  0  0  0  0  0
   -4.0614   22.6765  -31.3468 H   0  0  0  0  0  0  0  0  0  0  0  0
   -2.6212   20.7819  -30.6055 H   0  0  0  0  0  0  0  0  0  0  0  0
   -0.7455   16.9563  -27.7590 H   0  0  0  0  0  0  0  0  0  0  0  0
    1.5496   16.0924  -27.1573 H   0  0  0  0  0  0  0  0  0  0  0  0
    3.5348   17.6234  -27.2538 H   0  0  0  0  0  0  0  0  0  0  0  0
    3.2424   20.0328  -27.9502 H   0  0  0  0  0  0  0  0  0  0  0  0
   -0.4889   23.4478  -27.9398 H   0  0  0  0  0  0  0  0  0  0  0  0
   -1.9334   25.3386  -28.6789 H   0  0  0  0  0  0  0  0  0  0  0  0
   -6.7234   23.7155  -28.6972 H   0  0  0  0  0  0  0  0  0  0  0  0
   -8.1667   21.7976  -29.3499 H   0  0  0  0  0  0  0  0  0  0  0  0
  1  2  1  0
  2  3  1  0
  3  4  2  0
  4  5  1  0
  5  6  2  0
  6  7  1  0
  7  8  2  0
  7  9  1  0
  9 10  1  0
 10 11  2  0
 11 12  1  0
 12 13  2  0
 13 14  1  0
 14 15  2  0
 15 16  1  0
 16 17  2  0
 17 18  1  0
 18 19  2  0
 19 20  1  0
 20 21  2  0
 21 22  1  0
 13 23  1  0
 23 24  2  0
  6 25  1  0
 25 26  2  0
 26  3  1  0
 24 10  1  0
 22 14  1  0
 21 16  1  0
  1 27  1  0
  1 28  1  0
  1 29  1  0
  4 30  1  0
  5 31  1  0
 11 32  1  0
 12 33  1  0
 17 34  1  0
 18 35  1  0
 19 36  1  0
 20 37  1  0
 23 38  1  0
 24 39  1  0
 25 40  1  0
 26 41  1  0
M  CHG  1   9  -1
M  END
>  <UniqueID>  (11) 
11

>  <SMILES>  (11) 
COc1ccc(C(=O)[N-]c2ccc(-c3nc4ccccc4o3)cc2)cc1

>  <Energy>  (11) 
87.28889065216184

>  <Genealogy>  (11) 
COc1ccc(C(=O)[N-]c2ccc(-c3nc4ccccc4o3)cc2)cc1 (protonated)
COc1ccc(C(=O)[N-]c2ccc(-c3nc4ccccc4o3)cc2)cc1 (3D coordinates assigned)
COc1ccc(C(=O)[N-]c2ccc(-c3nc4ccccc4o3)cc2)cc1 (optimized conformer: 87.28889065216184 kcal/mol)

>  <smiles>  (11) 
COc1ccc(C(=O)Nc2ccc(-c3nc4ccccc4o3)cc2)cc1

>  <score_type>  (11) 
oracle

>  <origin>  (11) 
adg

>  <m_score__min__energy>  (11) 
-9.7100000000000009

>  <m_primary>  (11) 
energy

$$$$
11:0
     RDKit          3D

 55 59  0  0  0  0  0  0  0  0999 V2000
   -4.3297   26.1077  -30.0660 H   0  0  0  0  0  0  0  0  0  0  0  0
   -5.0280   25.3110  -30.3620 C   0  0  0  0  0  0  0  0  0  0  0  0
   -4.6240   24.3370  -31.2170 N   0  0  0  0  0  0  0  0  0  0  0  0
   -5.4550   23.3330  -31.6060 C   0  0  0  0  0  0  0  0  0  0  0  0
   -5.0941   22.5648  -32.3057 H   0  0  0  0  0  0  0  0  0  0  0  0
   -6.7730   23.2710  -31.1190 C   0  0  0  0  0  0  0  0  0  0  0  0
   -7.6770   22.1740  -31.5540 C   0  0  0  0  0  0  0  0  0  0  0  0
   -7.1460   20.9620  -31.8790 N   0  0  0  0  0  0  0  0  0  0  0  0
   -7.9250   19.9210  -32.2740 C   0  0  0  0  0  0  0  0  0  0  0  0
   -7.3590   18.7950  -32.5980 N   0  0  0  0  0  0  0  0  0  0  0  0
   -6.0300   18.6110  -33.1160 C   0  0  0  0  0  0  0  0  0  0  0  0
   -5.7900   17.5170  -33.9820 C   0  0  0  0  0  0  0  0  0  0  0  0
   -6.6086   16.8212  -34.2181 H   0  0  0  0  0  0  0  0  0  0  0  0
   -4.5180   17.3090  -34.5440 C   0  0  0  0  0  0  0  0  0  0  0  0
   -4.3231   16.4522  -35.2057 H   0  0  0  0  0  0  0  0  0  0  0  0
   -3.5120   18.2230  -34.2360 C   0  0  0  0  0  0  0  0  0  0  0  0
   -3.7420   19.2980  -33.4230 C   0  0  0  0  0  0  0  0  0  0  0  0
   -4.9900   19.5350  -32.8500 C   0  0  0  0  0  0  0  0  0  0  0  0
   -5.1622   20.4132  -32.2104 H   0  0  0  0  0  0  0  0  0  0  0  0
   -2.5680   20.0120  -33.3350 C   0  0  0  0  0  0  0  0  0  0  0  0
   -2.3872   20.9364  -32.7669 H   0  0  0  0  0  0  0  0  0  0  0  0
   -1.6570   19.3070  -34.1240 C   0  0  0  0  0  0  0  0  0  0  0  0
   -0.2410   19.6620  -34.3480 C   0  0  0  0  0  0  0  0  0  0  0  0
    0.4650   20.0090  -33.3620 O   0  0  0  0  0  0  0  0  0  0  0  0
    0.3400   19.6150  -35.6610 N   0  0  0  0  0  0  0  0  0  0  0  0
   -0.2060   19.2290  -36.4620 H   0  0  0  0  0  0  0  0  0  0  0  0
    1.7000   20.0810  -35.9280 C   0  0  0  0  0  0  0  0  0  0  0  0
    2.0174   19.7261  -36.9196 H   0  0  0  0  0  0  0  0  0  0  0  0
    2.3733   19.6848  -35.1536 H   0  0  0  0  0  0  0  0  0  0  0  0
    1.7500   21.5840  -35.8990 C   0  0  0  0  0  0  0  0  0  0  0  0
    2.9760   22.2420  -35.7210 C   0  0  0  0  0  0  0  0  0  0  0  0
    3.8962   21.6556  -35.5822 H   0  0  0  0  0  0  0  0  0  0  0  0
    3.0350   23.6380  -35.7190 C   0  0  0  0  0  0  0  0  0  0  0  0
    4.0003   24.1450  -35.5739 H   0  0  0  0  0  0  0  0  0  0  0  0
    1.8640   24.3990  -35.9020 C   0  0  0  0  0  0  0  0  0  0  0  0
    1.8720   25.8020  -35.9090 O   0  0  0  0  0  0  0  0  0  0  0  0
    0.7250   26.6110  -36.1490 C   0  0  0  0  0  0  0  0  0  0  0  0
    0.2868   26.9201  -35.1885 H   0  0  0  0  0  0  0  0  0  0  0  0
    1.0187   27.5029  -36.7219 H   0  0  0  0  0  0  0  0  0  0  0  0
   -0.0166   26.0350  -36.7219 H   0  0  0  0  0  0  0  0  0  0  0  0
    0.6440   23.7390  -36.0840 C   0  0  0  0  0  0  0  0  0  0  0  0
   -0.2763   24.3243  -36.2268 H   0  0  0  0  0  0  0  0  0  0  0  0
    0.5840   22.3430  -36.0860 C   0  0  0  0  0  0  0  0  0  0  0  0
   -0.3811   21.8366  -36.2347 H   0  0  0  0  0  0  0  0  0  0  0  0
   -2.2410   18.2130  -34.6710 N   0  0  0  0  0  0  0  0  0  0  0  0
   -1.8010   17.5080  -35.3040 H   0  0  0  0  0  0  0  0  0  0  0  0
   -9.2720   20.0890  -32.3670 N   0  0  0  0  0  0  0  0  0  0  0  0
   -9.8540   21.2730  -32.0490 C   0  0  0  0  0  0  0  0  0  0  0  0
  -10.9456   21.3868  -32.1226 H   0  0  0  0  0  0  0  0  0  0  0  0
   -9.0680   22.3450  -31.6290 C   0  0  0  0  0  0  0  0  0  0  0  0
   -9.5294   23.3070  -31.3614 H   0  0  0  0  0  0  0  0  0  0  0  0
   -7.2040   24.2820  -30.2400 C   0  0  0  0  0  0  0  0  0  0  0  0
   -8.2332   24.2693  -29.8520 H   0  0  0  0  0  0  0  0  0  0  0  0
   -6.3290   25.3010  -29.8590 C   0  0  0  0  0  0  0  0  0  0  0  0
   -6.6627   26.0892  -29.1681 H   0  0  0  0  0  0  0  0  0  0  0  0
  1  2  1  0
  2  3  2  0
  3  4  1  0
  4  5  1  0
  4  6  2  0
  6  7  1  0
  7  8  2  0
  8  9  1  0
  9 10  2  0
 10 11  1  0
 11 12  2  0
 12 13  1  0
 12 14  1  0
 14 15  1  0
 14 16  2  0
 16 17  1  0
 17 18  2  0
 18 19  1  0
 17 20  1  0
 20 21  1  0
 20 22  2  0
 22 23  1  0
 23 24  2  0
 23 25  1  0
 25 26  1  0
 25 27  1  0
 27 28  1  0
 27 29  1  0
 27 30  1  0
 30 31  2  0
 31 32  1  0
 31 33  1  0
 33 34  1  0
 33 35  2  0
 35 36  1  0
 36 37  1  0
 37 38  1  0
 37 39  1  0
 37 40  1  0
 35 41  1  0
 41 42  1  0
 41 43  2  0
 43 44  1  0
 22 45  1  0
 45 46  1  0
  9 47  1  0
 47 48  1  0
 48 49  1  0
 48 50  2  0
 50 51  1  0
  6 52  1  0
 52 53  1  0
 52 54  2  0
 54 55  1  0
 54  2  1  0
 50  7  1  0
 18 11  1  0
 43 30  1  0
 45 16  1  0
M  CHG  1  47  -1
M  END
>  <UniqueID>  (12) 
12

>  <SMILES>  (12) 
COc1ccc(CNC(=O)c2cc3cc(/N=c4/nc(-c5cccnc5)cc[n-]4)ccc3[nH]2)cc1

>  <Energy>  (12) 
102.92762472794728

>  <Genealogy>  (12) 
COc1ccc(CNC(=O)c2cc3cc(N=c4nc(-c5cccnc5)cc[n-]4)ccc3[nH]2)cc1 (protonated)
COc1ccc(CNC(=O)c2cc3cc(/N=c4/nc(-c5cccnc5)cc[n-]4)ccc3[nH]2)cc1 (cis-trans isomerization)
COc1ccc(CNC(=O)c2cc3cc(/N=c4/nc(-c5cccnc5)cc[n-]4)ccc3[nH]2)cc1 (3D coordinates assigned)
COc1ccc(CNC(=O)c2cc3cc(/N=c4/nc(-c5cccnc5)cc[n-]4)ccc3[nH]2)cc1 (optimized conformer: 102.92762472794728 kcal/mol)

>  <smiles>  (12) 
COc1ccc(CNC(=O)c2cc3cc(N=c4nc(-c5cccnc5)cc[nH]4)ccc3[nH]2)cc1

>  <score_type>  (12) 
oracle

>  <origin>  (12) 
adg

>  <m_score__min__energy>  (12) 
-10.4

>  <m_primary>  (12) 
energy

$$$$
12:0
     RDKit          3D

 53 57  0  0  1  0  0  0  0  0999 V2000
   -3.4750   19.1470  -33.0910 C   0  0  0  0  0  0  0  0  0  0  0  0
   -4.4900   18.0360  -33.1630 C   0  0  0  0  0  0  0  0  0  0  0  0
   -4.2820   16.8210  -32.7650 N   0  0  0  0  0  0  0  0  0  0  0  0
   -4.9690   15.8750  -32.7620 C   0  0  0  0  0  0  0  0  0  0  0  0
   -6.5520   16.5980  -33.5250 S   0  0  0  0  0  0  0  0  0  0  0  0
   -5.7870   18.2430  -33.6840 C   0  0  0  0  0  0  0  0  0  0  0  0
   -6.4020   19.4320  -34.2210 C   0  0  0  0  0  0  0  0  0  0  0  0
   -7.3790   20.0670  -33.3050 C   0  0  0  0  0  0  0  0  0  0  0  0
   -8.6360   19.6860  -33.0920 N   0  0  0  0  0  0  0  0  0  0  0  0
   -9.1430   20.5400  -32.1940 N   0  0  0  0  0  0  0  0  0  0  0  0
   -8.2430   21.4450  -31.8370 C   0  0  0  0  0  0  0  0  0  0  0  0
   -7.0900   21.1720  -32.5350 C   0  0  0  0  0  0  0  0  0  0  0  0
   -6.0810   22.1880  -32.1330 C   0  0  0  0  0  0  0  0  0  0  0  0
   -6.7970   23.2620  -31.5150 N   0  0  0  0  0  0  0  0  0  0  0  0
   -6.1000   23.8390  -30.3810 C   0  0  2  0  0  0  0  0  0  0  0  0
   -5.1920   24.9310  -30.7680 C   0  0  0  0  0  0  0  0  0  0  0  0
   -3.8630   24.7610  -30.7140 O   0  0  0  0  0  0  0  0  0  0  0  0
   -3.2960   23.8550  -29.8820 C   0  0  1  0  0  0  0  0  0  0  0  0
   -2.7920   24.3910  -28.5870 C   0  0  0  0  0  0  0  0  0  0  0  0
   -3.6040   24.6040  -27.4940 C   0  0  0  0  0  0  0  0  0  0  0  0
   -3.1410   25.0990  -26.2930 C   0  0  0  0  0  0  0  0  0  0  0  0
   -3.9390   25.3070  -25.2190 F   0  0  0  0  0  0  0  0  0  0  0  0
   -1.8050   25.4050  -26.1430 C   0  0  0  0  0  0  0  0  0  0  0  0
   -0.9610   25.2060  -27.2150 C   0  0  0  0  0  0  0  0  0  0  0  0
   -1.4410   24.7130  -28.4000 C   0  0  0  0  0  0  0  0  0  0  0  0
   -0.6090   24.5140  -29.4670 F   0  0  0  0  0  0  0  0  0  0  0  0
   -4.0460   22.5690  -29.7200 C   0  0  1  0  0  0  0  0  0  0  0  0
   -3.4880   21.7820  -28.6550 N   0  0  0  0  0  0  0  0  0  0  0  0
   -5.5210   22.7710  -29.4880 C   0  0  0  0  0  0  0  0  0  0  0  0
   -8.0000   22.6380  -30.9770 C   0  0  0  0  0  0  0  0  0  0  0  0
   -3.2614   19.3808  -32.0376 H   0  0  0  0  0  0  0  0  0  0  0  0
   -2.5482   18.8299  -33.5914 H   0  0  0  0  0  0  0  0  0  0  0  0
   -3.8743   20.0415  -33.5914 H   0  0  0  0  0  0  0  0  0  0  0  0
   -4.7581   14.8528  -32.4148 H   0  0  0  0  0  0  0  0  0  0  0  0
   -5.6097   20.1621  -34.4430 H   0  0  0  0  0  0  0  0  0  0  0  0
   -6.9577   19.1268  -35.1199 H   0  0  0  0  0  0  0  0  0  0  0  0
   -9.1510   18.8730  -33.5340 H   0  0  0  0  0  0  0  0  0  0  0  0
   -5.3663   21.7503  -31.4205 H   0  0  0  0  0  0  0  0  0  0  0  0
   -5.5115   22.5439  -33.0042 H   0  0  0  0  0  0  0  0  0  0  0  0
   -6.8341   24.3528  -29.7430 H   0  0  0  0  0  0  0  0  0  0  0  0
   -5.4349   25.1891  -31.8093 H   0  0  0  0  0  0  0  0  0  0  0  0
   -5.3762   25.6921  -29.9955 H   0  0  0  0  0  0  0  0  0  0  0  0
   -2.3908   23.5901  -30.4481 H   0  0  0  0  0  0  0  0  0  0  0  0
   -4.6745   24.3674  -27.5841 H   0  0  0  0  0  0  0  0  0  0  0  0
   -1.4214   25.7987  -25.1902 H   0  0  0  0  0  0  0  0  0  0  0  0
    0.1082   25.4454  -27.1180 H   0  0  0  0  0  0  0  0  0  0  0  0
   -3.9373   22.0300  -30.6727 H   0  0  0  0  0  0  0  0  0  0  0  0
   -3.4280   20.7920  -28.9840 H   0  0  0  0  0  0  0  0  0  0  0  0
   -4.1610   21.7910  -27.8570 H   0  0  0  0  0  0  0  0  0  0  0  0
   -6.0432   21.8233  -29.6857 H   0  0  0  0  0  0  0  0  0  0  0  0
   -5.6563   23.0945  -28.4454 H   0  0  0  0  0  0  0  0  0  0  0  0
   -7.8417   22.3337  -29.9319 H   0  0  0  0  0  0  0  0  0  0  0  0
   -8.8567   23.3279  -30.9815 H   0  0  0  0  0  0  0  0  0  0  0  0
  1  2  1  0
  2  3  1  0
  3  4  2  0
  4  5  1  0
  5  6  1  0
  6  7  1  0
  7  8  1  0
  8  9  1  0
  9 10  1  0
 10 11  2  0
 11 12  1  0
 12 13  1  0
 13 14  1  0
 14 15  1  0
 15 16  1  0
 16 17  1  0
 17 18  1  0
 18 19  1  0
 19 20  2  0
 20 21  1  0
 21 22  1  0
 21 23  2  0
 23 24  1  0
 24 25  2  0
 25 26  1  0
 18 27  1  0
 27 28  1  0
 27 29  1  0
 14 30  1  0
  6  2  2  0
 12  8  2  0
 29 15  1  0
 30 11  1  0
 25 19  1  0
  1 31  1  0
  1 32  1  0
  1 33  1  0
  4 34  1  0
  7 35  1  0
  7 36  1  0
  9 37  1  0
 13 38  1  0
 13 39  1  0
 15 40  1  1
 16 41  1  0
 16 42  1  0
 18 43  1  6
 20 44  1  0
 23 45  1  0
 24 46  1  0
 27 47  1  6
 28 48  1  0
 28 49  1  0
 29 50  1  0
 29 51  1  0
 30 52  1  0
 30 53  1  0
M  END
>  <smiles>  (13) 
Cc1ncsc1Cc1[nH]nc2c1CN(C1COC(c3cc(F)ccc3F)C(N)C1)C2

>  <score_type>  (13) 
oracle

>  <origin>  (13) 
adg

>  <m_score__min__energy>  (13) 
-10.07

>  <m_primary>  (13) 
energy

$$$$
13:0
     RDKit          3D

 28 28  0  0  0  0  0  0  0  0999 V2000
   -1.2190   25.8340  -27.9120 C   0  0  0  0  0  0  0  0  0  0  0  0
   -1.4890   25.0630  -29.1280 N   0  0  0  0  0  0  0  0  0  0  0  0
   -2.2680   23.8400  -28.8660 C   0  0  0  0  0  0  0  0  0  0  0  0
   -3.7890   24.0880  -28.7850 C   0  0  0  0  0  0  0  0  0  0  0  0
   -4.4040   24.4320  -30.1200 C   0  0  0  0  0  0  0  0  0  0  0  0
   -3.8690   25.3290  -30.8270 O   0  0  0  0  0  0  0  0  0  0  0  0
   -5.6410   23.7720  -30.6060 C   0  0  0  0  0  0  0  0  0  0  0  0
   -6.4290   23.0250  -29.7130 C   0  0  0  0  0  0  0  0  0  0  0  0
   -7.5970   22.3950  -30.1520 C   0  0  0  0  0  0  0  0  0  0  0  0
   -8.0000   22.5050  -31.4900 C   0  0  0  0  0  0  0  0  0  0  0  0
   -9.2310   21.7950  -31.9700 C   0  0  0  0  0  0  0  0  0  0  0  0
   -7.2020   23.2220  -32.3910 C   0  0  0  0  0  0  0  0  0  0  0  0
   -6.0340   23.8540  -31.9540 C   0  0  0  0  0  0  0  0  0  0  0  0
   -1.4359   25.2145  -27.0293 H   0  0  0  0  0  0  0  0  0  0  0  0
   -0.1615   26.1364  -27.8968 H   0  0  0  0  0  0  0  0  0  0  0  0
   -1.8568   26.7301  -27.8968 H   0  0  0  0  0  0  0  0  0  0  0  0
   -1.9960   25.6720  -29.8130 H   0  0  0  0  0  0  0  0  0  0  0  0
   -2.0743   23.1227  -29.6772 H   0  0  0  0  0  0  0  0  0  0  0  0
   -1.9490   23.4554  -27.8861 H   0  0  0  0  0  0  0  0  0  0  0  0
   -4.2723   23.1776  -28.4009 H   0  0  0  0  0  0  0  0  0  0  0  0
   -3.9462   24.9495  -28.1193 H   0  0  0  0  0  0  0  0  0  0  0  0
   -6.1238   22.9355  -28.6600 H   0  0  0  0  0  0  0  0  0  0  0  0
   -8.2027   21.8102  -29.4441 H   0  0  0  0  0  0  0  0  0  0  0  0
   -9.8194   21.4556  -31.1048 H   0  0  0  0  0  0  0  0  0  0  0  0
   -9.8369   22.4824  -32.5786 H   0  0  0  0  0  0  0  0  0  0  0  0
   -8.9394   20.9263  -32.5786 H   0  0  0  0  0  0  0  0  0  0  0  0
   -7.4962   23.2881  -33.4489 H   0  0  0  0  0  0  0  0  0  0  0  0
   -5.4183   24.4192  -32.6692 H   0  0  0  0  0  0  0  0  0  0  0  0
  1  2  1  0
  2  3  1  0
  3  4  1  0
  4  5  1  0
  5  6  2  0
  5  7  1  0
  7  8  2  0
  8  9  1  0
  9 10  2  0
 10 11  1  0
 10 12  1  0
 12 13  2  0
 13  7  1  0
  1 14  1  0
  1 15  1  0
  1 16  1  0
  2 17  1  0
  3 18  1  0
  3 19  1  0
  4 20  1  0
  4 21  1  0
  8 22  1  0
  9 23  1  0
 11 24  1  0
 11 25  1  0
 11 26  1  0
 12 27  1  0
 13 28  1  0
M  END
>  <UniqueID>  (14) 
13

>  <SMILES>  (14) 
CNCCC(=O)c1ccc(C)cc1

>  <Energy>  (14) 
27.258501517969044

>  <Genealogy>  (14) 
CNCCC(=O)c1ccc(C)cc1 (3D coordinates assigned)
CNCCC(=O)c1ccc(C)cc1 (optimized conformer: 27.258501517969044 kcal/mol)

>  <smiles>  (14) 
CNCCC(=O)c1ccc(C)cc1

>  <score_type>  (14) 
oracle

>  <origin>  (14) 
adg

>  <m_score__min__energy>  (14) 
-6.6699999999999999

>  <m_primary>  (14) 
energy

$$$$
14:0
     RDKit          3D

 50 53  0  0  0  0  0  0  0  0999 V2000
   -4.2350   25.6550  -30.8440 O   0  0  0  0  0  0  0  0  0  0  0  0
   -3.6800   24.7110  -30.2170 C   0  0  0  0  0  0  0  0  0  0  0  0
   -2.5780   24.9780  -29.3450 N   0  0  0  0  0  0  0  0  0  0  0  0
   -2.2410   24.1720  -28.1720 C   0  0  0  0  0  0  0  0  0  0  0  0
   -0.7210   24.2100  -27.9550 C   0  0  0  0  0  0  0  0  0  0  0  0
   -0.2100   25.6350  -27.6480 C   0  0  0  0  0  0  0  0  0  0  0  0
   -1.2430   26.5140  -26.9160 C   0  0  0  0  0  0  0  0  0  0  0  0
   -2.1950   25.6740  -26.0590 C   0  0  0  0  0  0  0  0  0  0  0  0
   -2.9970   24.6700  -26.9120 C   0  0  0  0  0  0  0  0  0  0  0  0
   -4.1880   23.3000  -30.3550 C   0  0  1  0  0  0  0  0  0  0  0  0
   -5.5780   23.2650  -30.9360 C   0  0  0  0  0  0  0  0  0  0  0  0
   -6.6860   22.7270  -30.3130 C   0  0  0  0  0  0  0  0  0  0  0  0
   -7.7290   22.8960  -31.1970 C   0  0  0  0  0  0  0  0  0  0  0  0
   -7.1940   23.5220  -32.3060 C   0  0  0  0  0  0  0  0  0  0  0  0
   -5.9100   23.7250  -32.1220 O   0  0  0  0  0  0  0  0  0  0  0  0
   -3.2480   22.4770  -31.1420 N   0  0  0  0  0  0  0  0  0  0  0  0
   -3.6410   22.0430  -32.4910 C   0  0  0  0  0  0  0  0  0  0  0  0
   -4.5380   20.8490  -32.4120 C   0  0  0  0  0  0  0  0  0  0  0  0
   -5.3690   20.3930  -33.4160 C   0  0  0  0  0  0  0  0  0  0  0  0
   -5.9650   19.2570  -32.9130 C   0  0  0  0  0  0  0  0  0  0  0  0
   -5.4590   19.0870  -31.6410 C   0  0  0  0  0  0  0  0  0  0  0  0
   -4.6080   20.0520  -31.3710 O   0  0  0  0  0  0  0  0  0  0  0  0
   -2.0630   21.9140  -30.5360 C   0  0  0  0  0  0  0  0  0  0  0  0
   -0.9390   22.0880  -31.0790 O   0  0  0  0  0  0  0  0  0  0  0  0
   -2.1420   21.1210  -29.2970 C   0  0  0  0  0  0  0  0  0  0  0  0
   -1.1410   20.2320  -28.9000 C   0  0  0  0  0  0  0  0  0  0  0  0
   -1.7150   19.5720  -27.4800 S   0  0  0  0  0  0  0  0  0  0  0  0
   -3.1610   20.3780  -27.4030 N   0  0  0  0  0  0  0  0  0  0  0  0
   -3.2300   21.1740  -28.4660 N   0  0  0  0  0  0  0  0  0  0  0  0
   -2.5562   23.1328  -28.3474 H   0  0  0  0  0  0  0  0  0  0  0  0
   -0.4675   23.5532  -27.1098 H   0  0  0  0  0  0  0  0  0  0  0  0
   -0.2391   23.8717  -28.8841 H   0  0  0  0  0  0  0  0  0  0  0  0
    0.6879   25.5547  -27.0176 H   0  0  0  0  0  0  0  0  0  0  0  0
    0.0001   26.1185  -28.6135 H   0  0  0  0  0  0  0  0  0  0  0  0
   -0.7104   27.2238  -26.2660 H   0  0  0  0  0  0  0  0  0  0  0  0
   -1.8399   27.0443  -27.6726 H   0  0  0  0  0  0  0  0  0  0  0  0
   -1.6070   25.1183  -25.3137 H   0  0  0  0  0  0  0  0  0  0  0  0
   -2.9079   26.3552  -25.5714 H   0  0  0  0  0  0  0  0  0  0  0  0
   -3.2384   23.7985  -26.2857 H   0  0  0  0  0  0  0  0  0  0  0  0
   -3.8953   25.1971  -27.2658 H   0  0  0  0  0  0  0  0  0  0  0  0
   -4.2508   22.8654  -29.3465 H   0  0  0  0  0  0  0  0  0  0  0  0
   -6.7275   22.2604  -29.3177 H   0  0  0  0  0  0  0  0  0  0  0  0
   -8.7763   22.5935  -31.0495 H   0  0  0  0  0  0  0  0  0  0  0  0
   -7.7580   23.8071  -33.2064 H   0  0  0  0  0  0  0  0  0  0  0  0
   -4.1726   22.8633  -32.9955 H   0  0  0  0  0  0  0  0  0  0  0  0
   -2.7373   21.7744  -33.0577 H   0  0  0  0  0  0  0  0  0  0  0  0
   -5.5228   20.8420  -34.4083 H   0  0  0  0  0  0  0  0  0  0  0  0
   -6.6975   18.6145  -33.4235 H   0  0  0  0  0  0  0  0  0  0  0  0
   -5.7268   18.2685  -30.9567 H   0  0  0  0  0  0  0  0  0  0  0  0
   -0.1898   20.0160  -29.4084 H   0  0  0  0  0  0  0  0  0  0  0  0
  1  2  2  0
  2  3  1  0
  3  4  1  0
  4  5  1  0
  5  6  1  0
  6  7  1  0
  7  8  1  0
  8  9  1  0
  2 10  1  0
 10 11  1  0
 11 12  2  0
 12 13  1  0
 13 14  2  0
 14 15  1  0
 10 16  1  0
 16 17  1  0
 17 18  1  0
 18 19  2  0
 19 20  1  0
 20 21  2  0
 21 22  1  0
 16 23  1  0
 23 24  2  0
 23 25  1  0
 25 26  2  0
 26 27  1  0
 27 28  1  0
 28 29  2  0
  9  4  1  0
 15 11  1  0
 22 18  1  0
 29 25  1  0
  4 30  1  0
  5 31  1  0
  5 32  1  0
  6 33  1  0
  6 34  1  0
  7 35  1  0
  7 36  1  0
  8 37  1  0
  8 38  1  0
  9 39  1  0
  9 40  1  0
 10 41  1  1
 12 42  1  0
 13 43  1  0
 14 44  1  0
 17 45  1  0
 17 46  1  0
 19 47  1  0
 20 48  1  0
 21 49  1  0
 26 50  1  0
M  CHG  1   3  -1
M  END
>  <UniqueID>  (15) 
14

>  <SMILES>  (15) 
O=C([N-]C1CCCCC1)[C@@H](c1ccco1)N(Cc1ccco1)C(=O)c1csnn1

>  <Energy>  (15) 
141.1327923250364

>  <Genealogy>  (15) 
O=C([N-]C1CCCCC1)C(c1ccco1)N(Cc1ccco1)C(=O)c1csnn1 (protonated)
O=C([N-]C1CCCCC1)[C@@H](c1ccco1)N(Cc1ccco1)C(=O)c1csnn1 (chirality)
O=C([N-]C1CCCCC1)[C@@H](c1ccco1)N(Cc1ccco1)C(=O)c1csnn1 (3D coordinates assigned)
O=C([N-]C1CCCCC1)[C@@H](c1ccco1)N(Cc1ccco1)C(=O)c1csnn1 (nonaromatic ring conformer: 141.1327923250364 kcal/mol)

>  <smiles>  (15) 
O=C(NC1CCCCC1)C(c1ccco1)N(Cc1ccco1)C(=O)c1csnn1

>  <score_type>  (15) 
oracle

>  <origin>  (15) 
adg

>  <m_score__min__energy>  (15) 
-9.8000000000000007

>  <m_primary>  (15) 
energy

$$$$
15:0
     RDKit          3D

 49 53  0  0  0  0  0  0  0  0999 V2000
   -9.4630   22.2140  -31.8230 C   0  0  0  0  0  0  0  0  0  0  0  0
   -9.3500   20.8310  -31.9790 C   0  0  0  0  0  0  0  0  0  0  0  0
   -8.1060   20.2540  -32.2540 C   0  0  0  0  0  0  0  0  0  0  0  0
   -6.9580   21.0580  -32.3810 C   0  0  0  0  0  0  0  0  0  0  0  0
   -5.6460   20.4320  -32.6720 C   0  0  0  0  0  0  0  0  0  0  0  0
   -4.4470   20.6630  -32.0060 C   0  0  0  0  0  0  0  0  0  0  0  0
   -3.5110   19.8910  -32.5860 N   0  0  0  0  0  0  0  0  0  0  0  0
   -2.1760   19.7530  -32.3400 C   0  0  0  0  0  0  0  0  0  0  0  0
   -1.5010   20.4530  -31.2220 C   0  0  0  0  0  0  0  0  0  0  0  0
   -0.6680   19.7520  -30.3390 C   0  0  0  0  0  0  0  0  0  0  0  0
   -0.0710   20.3980  -29.3030 N   0  0  0  0  0  0  0  0  0  0  0  0
   -0.2550   21.7270  -29.0860 C   0  0  0  0  0  0  0  0  0  0  0  0
   -1.0710   22.4800  -29.9400 C   0  0  0  0  0  0  0  0  0  0  0  0
   -1.2570   23.8850  -29.6840 N   0  0  0  0  0  0  0  0  0  0  0  0
   -2.4290   24.4570  -29.0150 C   0  0  0  0  0  0  0  0  0  0  0  0
   -3.7080   24.2320  -29.8340 C   0  0  1  0  0  0  0  0  0  0  0  0
   -4.9510   24.0790  -28.9720 C   0  0  0  0  0  0  0  0  0  0  0  0
   -6.0290   24.5880  -29.8760 C   0  0  0  0  0  0  0  0  0  0  0  0
   -5.2930   25.5750  -30.7640 C   0  0  0  0  0  0  0  0  0  0  0  0
   -3.9100   25.2960  -30.7370 O   0  0  0  0  0  0  0  0  0  0  0  0
   -1.7140   21.8220  -31.0020 C   0  0  0  0  0  0  0  0  0  0  0  0
   -1.4530   18.8910  -33.1900 C   0  0  0  0  0  0  0  0  0  0  0  0
   -2.0980   18.2280  -34.1960 N   0  0  0  0  0  0  0  0  0  0  0  0
   -3.4360   18.3800  -34.4120 C   0  0  0  0  0  0  0  0  0  0  0  0
   -4.1400   19.2400  -33.5770 C   0  0  0  0  0  0  0  0  0  0  0  0
   -5.4510   19.5330  -33.6690 N   0  0  0  0  0  0  0  0  0  0  0  0
   -7.0840   22.4530  -32.2190 C   0  0  0  0  0  0  0  0  0  0  0  0
   -8.3310   23.0230  -31.9430 C   0  0  0  0  0  0  0  0  0  0  0  0
  -10.4422   22.6656  -31.6059 H   0  0  0  0  0  0  0  0  0  0  0  0
  -10.2417   20.1937  -31.8854 H   0  0  0  0  0  0  0  0  0  0  0  0
   -8.0243   19.1634  -32.3719 H   0  0  0  0  0  0  0  0  0  0  0  0
   -4.2928   21.3502  -31.1610 H   0  0  0  0  0  0  0  0  0  0  0  0
   -0.4969   18.6753  -30.4851 H   0  0  0  0  0  0  0  0  0  0  0  0
    0.2404   22.2148  -28.2336 H   0  0  0  0  0  0  0  0  0  0  0  0
   -0.5740   24.5570  -30.1000 H   0  0  0  0  0  0  0  0  0  0  0  0
   -2.5465   23.9812  -28.0302 H   0  0  0  0  0  0  0  0  0  0  0  0
   -2.2722   25.5406  -28.9092 H   0  0  0  0  0  0  0  0  0  0  0  0
   -3.5572   23.2873  -30.3769 H   0  0  0  0  0  0  0  0  0  0  0  0
   -5.1215   23.0264  -28.7017 H   0  0  0  0  0  0  0  0  0  0  0  0
   -4.8909   24.6139  -28.0127 H   0  0  0  0  0  0  0  0  0  0  0  0
   -6.4653   23.7712  -30.4698 H   0  0  0  0  0  0  0  0  0  0  0  0
   -6.8726   25.0392  -29.3330 H   0  0  0  0  0  0  0  0  0  0  0  0
   -5.6642   25.4867  -31.7957 H   0  0  0  0  0  0  0  0  0  0  0  0
   -5.4667   26.5971  -30.3964 H   0  0  0  0  0  0  0  0  0  0  0  0
   -2.3885   22.3838  -31.6649 H   0  0  0  0  0  0  0  0  0  0  0  0
   -0.3716   18.7524  -33.0436 H   0  0  0  0  0  0  0  0  0  0  0  0
   -3.9434   17.8378  -35.2235 H   0  0  0  0  0  0  0  0  0  0  0  0
   -6.1966   23.0966  -32.3102 H   0  0  0  0  0  0  0  0  0  0  0  0
   -8.4205   24.1124  -31.8200 H   0  0  0  0  0  0  0  0  0  0  0  0
  1  2  2  0
  2  3  1  0
  3  4  2  0
  4  5  1  0
  5  6  2  0
  6  7  1  0
  7  8  1  0
  8  9  1  0
  9 10  2  0
 10 11  1  0
 11 12  2  0
 12 13  1  0
 13 14  1  0
 14 15  1  0
 15 16  1  0
 16 17  1  0
 17 18  1  0
 18 19  1  0
 19 20  1  0
 13 21  2  0
  8 22  2  0
 22 23  1  0
 23 24  2  0
 24 25  1  0
 25 26  2  0
  4 27  1  0
 27 28  2  0
 28  1  1  0
 26  5  1  0
 25  7  1  0
 21  9  1  0
 20 16  1  0
  1 29  1  0
  2 30  1  0
  3 31  1  0
  6 32  1  0
 10 33  1  0
 12 34  1  0
 14 35  1  0
 15 36  1  0
 15 37  1  0
 16 38  1  6
 17 39  1  0
 17 40  1  0
 18 41  1  0
 18 42  1  0
 19 43  1  0
 19 44  1  0
 21 45  1  0
 22 46  1  0
 24 47  1  0
 27 48  1  0
 28 49  1  0
M  END
>  <UniqueID>  (16) 
15

>  <SMILES>  (16) 
c1ccc(-c2cn3c(-c4cncc(NC[C@H]5CCCO5)c4)cncc3n2)cc1

>  <Energy>  (16) 
98.75062881776685

>  <Genealogy>  (16) 
c1ccc(-c2cn3c(-c4cncc(NC[C@H]5CCCO5)c4)cncc3n2)cc1 (chirality)
c1ccc(-c2cn3c(-c4cncc(NC[C@H]5CCCO5)c4)cncc3n2)cc1 (3D coordinates assigned)
c1ccc(-c2cn3c(-c4cncc(NC[C@H]5CCCO5)c4)cncc3n2)cc1 (nonaromatic ring conformer: 98.75062881776685 kcal/mol)

>  <smiles>  (16) 
c1ccc(-c2cn3c(-c4cncc(NCC5CCCO5)c4)cncc3n2)cc1

>  <score_type>  (16) 
oracle

>  <origin>  (16) 
adg

>  <m_score__min__energy>  (16) 
-9.4299999999999997

>  <m_primary>  (16) 
energy

$$$$
16:0
     RDKit          3D

 35 35  0  0  0  0  0  0  0  0999 V2000
   -1.6250   26.3340  -25.1780 C   0  0  0  0  0  0  0  0  0  0  0  0
   -0.5790   25.2350  -25.4040 C   0  0  0  0  0  0  0  0  0  0  0  0
   -0.9380   24.3210  -26.5150 N   0  0  0  0  0  0  0  0  0  0  0  0
   -0.4390   22.9430  -26.2820 C   0  0  0  0  0  0  0  0  0  0  0  0
   -1.2850   21.8890  -27.0070 C   0  0  0  0  0  0  0  0  0  0  0  0
   -0.4400   24.8560  -27.7730 C   0  0  0  0  0  0  0  0  0  0  0  0
    0.6440   24.4790  -28.1980 O   0  0  0  0  0  0  0  0  0  0  0  0
   -1.1960   25.9040  -28.5590 C   0  0  0  0  0  0  0  0  0  0  0  0
   -2.2690   25.2880  -29.3340 N   0  0  0  0  0  0  0  0  0  0  0  0
   -3.3530   24.5530  -28.7580 C   0  0  0  0  0  0  0  0  0  0  0  0
   -3.3000   24.2080  -27.5460 O   0  0  0  0  0  0  0  0  0  0  0  0
   -4.5260   24.1640  -29.5780 C   0  0  0  0  0  0  0  0  0  0  0  0
   -5.7210   24.8940  -29.4330 C   0  0  0  0  0  0  0  0  0  0  0  0
   -6.8600   24.5540  -30.1660 C   0  0  0  0  0  0  0  0  0  0  0  0
   -6.8240   23.4840  -31.0600 C   0  0  0  0  0  0  0  0  0  0  0  0
   -8.2560   23.0600  -31.9800 Cl  0  0  0  0  0  0  0  0  0  0  0  0
   -5.6440   22.7560  -31.2280 C   0  0  0  0  0  0  0  0  0  0  0  0
   -4.4930   23.0860  -30.4990 C   0  0  0  0  0  0  0  0  0  0  0  0
   -3.0310   22.1650  -30.8400 Cl  0  0  0  0  0  0  0  0  0  0  0  0
   -1.7697   26.4860  -24.0982 H   0  0  0  0  0  0  0  0  0  0  0  0
   -1.2771   27.2712  -25.6369 H   0  0  0  0  0  0  0  0  0  0  0  0
   -2.5783   26.0328  -25.6369 H   0  0  0  0  0  0  0  0  0  0  0  0
    0.3854   25.7100  -25.6371 H   0  0  0  0  0  0  0  0  0  0  0  0
   -0.5255   24.6340  -24.4843 H   0  0  0  0  0  0  0  0  0  0  0  0
   -1.9850   24.2800  -26.5720 H   0  0  0  0  0  0  0  0  0  0  0  0
    0.5974   22.8757  -26.6445 H   0  0  0  0  0  0  0  0  0  0  0  0
   -0.5001   22.7402  -25.2026 H   0  0  0  0  0  0  0  0  0  0  0  0
   -1.7941   21.2547  -26.2664 H   0  0  0  0  0  0  0  0  0  0  0  0
   -2.0342   22.3904  -27.6373 H   0  0  0  0  0  0  0  0  0  0  0  0
   -0.6334   21.2660  -27.6373 H   0  0  0  0  0  0  0  0  0  0  0  0
   -1.6280   26.6372  -27.8621 H   0  0  0  0  0  0  0  0  0  0  0  0
   -0.4992   26.4014  -29.2497 H   0  0  0  0  0  0  0  0  0  0  0  0
   -5.7580   25.7424  -28.7339 H   0  0  0  0  0  0  0  0  0  0  0  0
   -7.7876   25.1313  -30.0380 H   0  0  0  0  0  0  0  0  0  0  0  0
   -5.6176   21.9166  -31.9384 H   0  0  0  0  0  0  0  0  0  0  0  0
  1  2  1  0
  2  3  1  0
  3  4  1  0
  4  5  1  0
  3  6  1  0
  6  7  2  0
  6  8  1  0
  8  9  1  0
  9 10  1  0
 10 11  2  0
 10 12  1  0
 12 13  2  0
 13 14  1  0
 14 15  2  0
 15 16  1  0
 15 17  1  0
 17 18  2  0
 18 19  1  0
 18 12  1  0
  1 20  1  0
  1 21  1  0
  1 22  1  0
  2 23  1  0
  2 24  1  0
  3 25  1  0
  4 26  1  0
  4 27  1  0
  5 28  1  0
  5 29  1  0
  5 30  1  0
  8 31  1  0
  8 32  1  0
 13 33  1  0
 14 34  1  0
 17 35  1  0
M  CHG  2   3   1   9  -1
M  END
>  <UniqueID>  (17) 
16

>  <SMILES>  (17) 
CC[NH+](CC)C(=O)C[N-]C(=O)c1ccc(Cl)cc1Cl

>  <Energy>  (17) 
35.80944075639298

>  <Genealogy>  (17) 
CC[NH+](CC)C(=O)C[N-]C(=O)c1ccc(Cl)cc1Cl (protonated)
CC[NH+](CC)C(=O)C[N-]C(=O)c1ccc(Cl)cc1Cl (3D coordinates assigned)
CC[NH+](CC)C(=O)C[N-]C(=O)c1ccc(Cl)cc1Cl (optimized conformer: 35.80944075639298 kcal/mol)

>  <smiles>  (17) 
CCN(CC)C(=O)CNC(=O)c1ccc(Cl)cc1Cl

>  <score_type>  (17) 
oracle

>  <origin>  (17) 
adg

>  <m_score__min__energy>  (17) 
-6.8300000000000001

>  <m_primary>  (17) 
energy

$$$$
17:0
     RDKit          3D

 30 31  0  0  0  0  0  0  0  0999 V2000
   -6.0690   17.3580  -33.4070 C   0  0  0  0  0  0  0  0  0  0  0  0
   -5.7790   18.4380  -34.4440 C   0  0  0  0  0  0  0  0  0  0  0  0
   -5.2520   19.7160  -33.7800 C   0  0  0  0  0  0  0  0  0  0  0  0
   -6.3620   20.4340  -33.0610 C   0  0  0  0  0  0  0  0  0  0  0  0
   -7.6490   20.0280  -33.1900 N   0  0  0  0  0  0  0  0  0  0  0  0
   -8.3750   20.8230  -32.3840 C   0  0  0  0  0  0  0  0  0  0  0  0
   -9.8640   20.7860  -32.2630 C   0  0  0  0  0  0  0  0  0  0  0  0
   -7.5150   21.7070  -31.7850 C   0  0  0  0  0  0  0  0  0  0  0  0
   -7.8360   22.6980  -30.9230 N   0  0  0  0  0  0  0  0  0  0  0  0
   -6.8500   23.4920  -30.4330 C   0  0  0  0  0  0  0  0  0  0  0  0
   -5.5130   23.2920  -30.8140 C   0  0  0  0  0  0  0  0  0  0  0  0
   -4.2040   24.5000  -30.0920 Br  0  0  0  0  0  0  0  0  0  0  0  0
   -5.2010   22.2340  -31.7100 C   0  0  0  0  0  0  0  0  0  0  0  0
   -3.7780   22.0090  -32.1560 C   0  0  0  0  0  0  0  0  0  0  0  0
   -6.2470   21.4760  -32.1820 N   0  0  0  0  0  0  0  0  0  0  0  0
   -5.9558   17.7794  -32.3972 H   0  0  0  0  0  0  0  0  0  0  0  0
   -7.0976   16.9907  -33.5379 H   0  0  0  0  0  0  0  0  0  0  0  0
   -5.3627   16.5249  -33.5379 H   0  0  0  0  0  0  0  0  0  0  0  0
   -5.0242   18.0633  -35.1510 H   0  0  0  0  0  0  0  0  0  0  0  0
   -6.7156   18.6783  -34.9685 H   0  0  0  0  0  0  0  0  0  0  0  0
   -4.4655   19.4508  -33.0581 H   0  0  0  0  0  0  0  0  0  0  0  0
   -4.8455   20.3789  -34.5580 H   0  0  0  0  0  0  0  0  0  0  0  0
   -8.0080   19.2540  -33.7940 H   0  0  0  0  0  0  0  0  0  0  0  0
  -10.1454   20.7790  -31.1996 H   0  0  0  0  0  0  0  0  0  0  0  0
  -10.2936   21.6737  -32.7502 H   0  0  0  0  0  0  0  0  0  0  0  0
  -10.2490   19.8780  -32.7502 H   0  0  0  0  0  0  0  0  0  0  0  0
   -7.1007   24.3003  -29.7303 H   0  0  0  0  0  0  0  0  0  0  0  0
   -3.1291   21.9064  -31.2737 H   0  0  0  0  0  0  0  0  0  0  0  0
   -3.7238   21.0911  -32.7598 H   0  0  0  0  0  0  0  0  0  0  0  0
   -3.4432   22.8654  -32.7598 H   0  0  0  0  0  0  0  0  0  0  0  0
  1  2  1  0
  2  3  1  0
  3  4  1  0
  4  5  2  0
  5  6  1  0
  6  7  1  0
  6  8  2  0
  8  9  1  0
  9 10  2  0
 10 11  1  0
 11 12  1  0
 11 13  2  0
 13 14  1  0
 13 15  1  0
 15  4  1  0
 15  8  1  0
  1 16  1  0
  1 17  1  0
  1 18  1  0
  2 19  1  0
  2 20  1  0
  3 21  1  0
  3 22  1  0
  5 23  1  0
  7 24  1  0
  7 25  1  0
  7 26  1  0
 10 27  1  0
 14 28  1  0
 14 29  1  0
 14 30  1  0
M  CHG  1   5   1
M  END
>  <UniqueID>  (18) 
17

>  <SMILES>  (18) 
CCCc1[nH+]c(C)c2ncc(Br)c(C)n12

>  <Energy>  (18) 
68.25316997831096

>  <Genealogy>  (18) 
CCCc1[nH+]c(C)c2ncc(Br)c(C)n12 (protonated)
CCCc1[nH+]c(C)c2ncc(Br)c(C)n12 (3D coordinates assigned)
CCCc1[nH+]c(C)c2ncc(Br)c(C)n12 (optimized conformer: 68.25316997831096 kcal/mol)

>  <smiles>  (18) 
CCCc1nc(C)c2ncc(Br)c(C)n12

>  <score_type>  (18) 
oracle

>  <origin>  (18) 
adg

>  <m_score__min__energy>  (18) 
-6.0099999999999998

>  <m_primary>  (18) 
energy

$$$$
18:0
     RDKit          3D

 41 42  0  0  0  0  0  0  0  0999 V2000
   -2.7310   20.1380  -27.2440 C   0  0  0  0  0  0  0  0  0  0  0  0
   -2.8880   21.2970  -28.2230 C   0  0  0  0  0  0  0  0  0  0  0  0
   -2.8730   22.5860  -27.4940 N   0  0  0  0  0  0  0  0  0  0  0  0
   -4.2130   23.2190  -27.4780 C   0  0  0  0  0  0  0  0  0  0  0  0
   -4.1840   24.5840  -26.7910 C   0  0  0  0  0  0  0  0  0  0  0  0
   -1.7810   23.4820  -27.9530 C   0  0  0  0  0  0  0  0  0  0  0  0
   -1.8410   23.8460  -29.4490 C   0  0  0  0  0  0  0  0  0  0  0  0
   -2.8090   24.9140  -29.6730 N   0  0  0  0  0  0  0  0  0  0  0  0
   -3.9880   24.7810  -30.4740 C   0  0  0  0  0  0  0  0  0  0  0  0
   -4.6150   25.8190  -30.8120 O   0  0  0  0  0  0  0  0  0  0  0  0
   -4.5020   23.4600  -30.8880 C   0  0  0  0  0  0  0  0  0  0  0  0
   -3.6250   22.5270  -31.4900 C   0  0  0  0  0  0  0  0  0  0  0  0
   -4.0810   21.3110  -31.9050 N   0  0  0  0  0  0  0  0  0  0  0  0
   -5.3920   21.0120  -31.7390 C   0  0  0  0  0  0  0  0  0  0  0  0
   -6.0510   19.8600  -32.0970 C   0  0  0  0  0  0  0  0  0  0  0  0
   -7.3570   20.1190  -31.6980 C   0  0  0  0  0  0  0  0  0  0  0  0
   -8.7090   19.0210  -31.8830 Cl  0  0  0  0  0  0  0  0  0  0  0  0
   -7.4580   21.3480  -31.1420 N   0  0  0  0  0  0  0  0  0  0  0  0
   -6.2450   21.8760  -31.1770 N   0  0  0  0  0  0  0  0  0  0  0  0
   -5.8620   23.1010  -30.7260 C   0  0  0  0  0  0  0  0  0  0  0  0
   -6.8610   24.0390  -30.1000 C   0  0  0  0  0  0  0  0  0  0  0  0
   -2.7826   20.5190  -26.2134 H   0  0  0  0  0  0  0  0  0  0  0  0
   -3.5386   19.4090  -27.4063 H   0  0  0  0  0  0  0  0  0  0  0  0
   -1.7586   19.6501  -27.4063 H   0  0  0  0  0  0  0  0  0  0  0  0
   -2.0584   21.2780  -28.9451 H   0  0  0  0  0  0  0  0  0  0  0  0
   -3.8473   21.1939  -28.7514 H   0  0  0  0  0  0  0  0  0  0  0  0
   -4.5587   23.3485  -28.5142 H   0  0  0  0  0  0  0  0  0  0  0  0
   -4.8949   22.5653  -26.9143 H   0  0  0  0  0  0  0  0  0  0  0  0
   -4.1869   24.4454  -25.6998 H   0  0  0  0  0  0  0  0  0  0  0  0
   -3.2741   25.1254  -27.0894 H   0  0  0  0  0  0  0  0  0  0  0  0
   -5.0700   25.1636  -27.0894 H   0  0  0  0  0  0  0  0  0  0  0  0
   -1.8327   24.4135  -27.3702 H   0  0  0  0  0  0  0  0  0  0  0  0
   -0.8402   22.9324  -27.8017 H   0  0  0  0  0  0  0  0  0  0  0  0
   -0.8474   24.1817  -29.7807 H   0  0  0  0  0  0  0  0  0  0  0  0
   -2.1497   22.9583  -30.0206 H   0  0  0  0  0  0  0  0  0  0  0  0
   -2.5643   22.7854  -31.6246 H   0  0  0  0  0  0  0  0  0  0  0  0
   -3.4300   20.6270  -32.3520 H   0  0  0  0  0  0  0  0  0  0  0  0
   -5.6458   18.9581  -32.5790 H   0  0  0  0  0  0  0  0  0  0  0  0
   -6.7900   23.9723  -29.0043 H   0  0  0  0  0  0  0  0  0  0  0  0
   -6.6464   25.0695  -30.4193 H   0  0  0  0  0  0  0  0  0  0  0  0
   -7.8760   23.7600  -30.4193 H   0  0  0  0  0  0  0  0  0  0  0  0
  1  2  1  0
  2  3  1  0
  3  4  1  0
  4  5  1  0
  3  6  1  0
  6  7  1  0
  7  8  1  0
  8  9  1  0
  9 10  2  0
  9 11  1  0
 11 12  1  0
 12 13  2  0
 13 14  1  0
 14 15  2  0
 15 16  1  0
 16 17  1  0
 16 18  2  0
 18 19  1  0
 19 20  1  0
 20 21  1  0
 20 11  2  0
 19 14  1  0
  1 22  1  0
  1 23  1  0
  1 24  1  0
  2 25  1  0
  2 26  1  0
  4 27  1  0
  4 28  1  0
  5 29  1  0
  5 30  1  0
  5 31  1  0
  6 32  1  0
  6 33  1  0
  7 34  1  0
  7 35  1  0
 12 36  1  0
 13 37  1  0
 15 38  1  0
 21 39  1  0
 21 40  1  0
 21 41  1  0
M  CHG  2   8  -1  13   1
M  END
>  <UniqueID>  (19) 
18

>  <SMILES>  (19) 
CCN(CC)CC[N-]C(=O)c1c[nH+]c2cc(Cl)nn2c1C

>  <Energy>  (19) 
81.93741655399066

>  <Genealogy>  (19) 
CCN(CC)CC[N-]C(=O)c1c[nH+]c2cc(Cl)nn2c1C (protonated)
CCN(CC)CC[N-]C(=O)c1c[nH+]c2cc(Cl)nn2c1C (3D coordinates assigned)
CCN(CC)CC[N-]C(=O)c1c[nH+]c2cc(Cl)nn2c1C (optimized conformer: 81.93741655399066 kcal/mol)

>  <smiles>  (19) 
CCN(CC)CCNC(=O)c1cnc2cc(Cl)nn2c1C

>  <score_type>  (19) 
oracle

>  <origin>  (19) 
adg

>  <m_score__min__energy>  (19) 
-8.0600000000000005

>  <m_primary>  (19) 
energy

$$$$
19:0
     RDKit          3D

 57 60  0  0  0  0  0  0  0  0999 V2000
   -1.6320   21.8740  -31.4050 C   0  0  0  0  0  0  0  0  0  0  0  0
   -2.8000   22.5860  -30.8140 C   0  0  0  0  0  0  0  0  0  0  0  0
   -4.0000   22.5300  -31.4610 N   0  0  0  0  0  0  0  0  0  0  0  0
   -5.1230   23.0980  -30.9890 N   0  0  0  0  0  0  0  0  0  0  0  0
   -6.3140   23.1210  -31.8620 C   0  0  0  0  0  0  0  0  0  0  0  0
   -7.4990   22.3320  -31.2530 C   0  0  1  0  0  0  0  0  0  0  0  0
   -8.8320   22.6980  -31.9580 C   0  0  0  0  0  0  0  0  0  0  0  0
   -9.8400   21.5470  -31.8770 C   0  0  0  0  0  0  0  0  0  0  0  0
   -9.2740   20.2640  -32.5250 C   0  0  0  0  0  0  0  0  0  0  0  0
   -7.7930   20.2420  -32.5460 N   0  0  0  0  0  0  0  0  0  0  0  0
   -7.2520   18.9060  -32.9230 C   0  0  0  0  0  0  0  0  0  0  0  0
   -6.0760   19.0740  -33.8880 C   0  0  0  0  0  0  0  0  0  0  0  0
   -6.8550   18.0380  -31.7100 C   0  0  0  0  0  0  0  0  0  0  0  0
   -7.2290   20.8120  -31.3040 C   0  0  0  0  0  0  0  0  0  0  0  0
   -5.1020   23.7850  -29.7960 C   0  0  0  0  0  0  0  0  0  0  0  0
   -6.1400   24.3270  -29.3280 O   0  0  0  0  0  0  0  0  0  0  0  0
   -3.8890   23.8900  -29.1280 C   0  0  0  0  0  0  0  0  0  0  0  0
   -3.6410   24.5400  -27.9780 N   0  0  0  0  0  0  0  0  0  0  0  0
   -2.3370   24.4270  -27.7540 N   0  0  0  0  0  0  0  0  0  0  0  0
   -1.7050   24.9530  -26.5800 C   0  0  0  0  0  0  0  0  0  0  0  0
   -1.6720   26.3400  -26.3670 C   0  0  0  0  0  0  0  0  0  0  0  0
   -1.0620   26.8630  -25.2230 C   0  0  0  0  0  0  0  0  0  0  0  0
   -0.4730   26.0060  -24.2910 C   0  0  0  0  0  0  0  0  0  0  0  0
   -0.4800   24.6250  -24.5070 C   0  0  0  0  0  0  0  0  0  0  0  0
   -1.0860   24.0980  -25.6530 C   0  0  0  0  0  0  0  0  0  0  0  0
   -1.7450   23.7110  -28.7460 C   0  0  0  0  0  0  0  0  0  0  0  0
   -0.2840   23.3450  -28.7760 C   0  0  0  0  0  0  0  0  0  0  0  0
   -2.7460   23.3370  -29.6370 C   0  0  0  0  0  0  0  0  0  0  0  0
   -0.9934   21.4847  -30.5984 H   0  0  0  0  0  0  0  0  0  0  0  0
   -1.9877   21.0390  -32.0264 H   0  0  0  0  0  0  0  0  0  0  0  0
   -1.0527   22.5727  -32.0264 H   0  0  0  0  0  0  0  0  0  0  0  0
   -6.6235   24.1658  -32.0120 H   0  0  0  0  0  0  0  0  0  0  0  0
   -6.0439   22.6435  -32.8154 H   0  0  0  0  0  0  0  0  0  0  0  0
   -7.5963   22.6186  -30.1955 H   0  0  0  0  0  0  0  0  0  0  0  0
   -9.2624   23.5859  -31.4717 H   0  0  0  0  0  0  0  0  0  0  0  0
   -8.6197   22.8990  -33.0184 H   0  0  0  0  0  0  0  0  0  0  0  0
  -10.0696   21.3444  -30.8205 H   0  0  0  0  0  0  0  0  0  0  0  0
  -10.7496   21.8408  -32.4214 H   0  0  0  0  0  0  0  0  0  0  0  0
   -9.6312   19.3941  -31.9544 H   0  0  0  0  0  0  0  0  0  0  0  0
   -9.6224   20.2360  -33.5680 H   0  0  0  0  0  0  0  0  0  0  0  0
   -8.0652   18.3608  -33.4244 H   0  0  0  0  0  0  0  0  0  0  0  0
   -5.1469   19.2067  -33.3142 H   0  0  0  0  0  0  0  0  0  0  0  0
   -5.9909   18.1789  -34.5217 H   0  0  0  0  0  0  0  0  0  0  0  0
   -6.2449   19.9571  -34.5217 H   0  0  0  0  0  0  0  0  0  0  0  0
   -7.0997   18.5730  -30.7805 H   0  0  0  0  0  0  0  0  0  0  0  0
   -7.4080   17.0876  -31.7425 H   0  0  0  0  0  0  0  0  0  0  0  0
   -5.7744   17.8348  -31.7425 H   0  0  0  0  0  0  0  0  0  0  0  0
   -7.6989   20.3287  -30.4347 H   0  0  0  0  0  0  0  0  0  0  0  0
   -6.1433   20.6363  -31.2854 H   0  0  0  0  0  0  0  0  0  0  0  0
   -2.1280   27.0182  -27.1033 H   0  0  0  0  0  0  0  0  0  0  0  0
   -1.0460   27.9503  -25.0569 H   0  0  0  0  0  0  0  0  0  0  0  0
   -0.0030   26.4181  -23.3859 H   0  0  0  0  0  0  0  0  0  0  0  0
   -0.0088   23.9520  -23.7756 H   0  0  0  0  0  0  0  0  0  0  0  0
   -1.0776   23.0121  -25.8283 H   0  0  0  0  0  0  0  0  0  0  0  0
    0.0916   23.2509  -27.7464 H   0  0  0  0  0  0  0  0  0  0  0  0
   -0.1567   22.3872  -29.3017 H   0  0  0  0  0  0  0  0  0  0  0  0
    0.2798   24.1296  -29.3017 H   0  0  0  0  0  0  0  0  0  0  0  0
  1  2  1  0
  2  3  2  0
  3  4  1  0
  4  5  1  0
  5  6  1  0
  6  7  1  0
  7  8  1  0
  8  9  1  0
  9 10  1  0
 10 11  1  0
 11 12  1  0
 11 13  1  0
 10 14  1  0
  4 15  1  0
 15 16  2  0
 15 17  1  0
 17 18  2  0
 18 19  1  0
 19 20  1  0
 20 21  2  0
 21 22  1  0
 22 23  2  0
 23 24  1  0
 24 25  2  0
 19 26  1  0
 26 27  1  0
 26 28  2  0
 28  2  1  0
 14  6  1  0
 28 17  1  0
 25 20  1  0
  1 29  1  0
  1 30  1  0
  1 31  1  0
  5 32  1  0
  5 33  1  0
  6 34  1  1
  7 35  1  0
  7 36  1  0
  8 37  1  0
  8 38  1  0
  9 39  1  0
  9 40  1  0
 11 41  1  0
 12 42  1  0
 12 43  1  0
 12 44  1  0
 13 45  1  0
 13 46  1  0
 13 47  1  0
 14 48  1  0
 14 49  1  0
 21 50  1  0
 22 51  1  0
 23 52  1  0
 24 53  1  0
 25 54  1  0
 27 55  1  0
 27 56  1  0
 27 57  1  0
M  END
>  <UniqueID>  (20) 
19

>  <SMILES>  (20) 
Cc1nn(C[C@H]2CCCN(C(C)C)C2)c(=O)c2nn(-c3ccccc3)c(C)c12

>  <Energy>  (20) 
117.36044718612297

>  <Genealogy>  (20) 
Cc1nn(C[C@H]2CCCN(C(C)C)C2)c(=O)c2nn(-c3ccccc3)c(C)c12 (chirality)
Cc1nn(C[C@H]2CCCN(C(C)C)C2)c(=O)c2nn(-c3ccccc3)c(C)c12 (3D coordinates assigned)
Cc1nn(C[C@H]2CCCN(C(C)C)C2)c(=O)c2nn(-c3ccccc3)c(C)c12 (nonaromatic ring conformer: 117.36044718612297 kcal/mol)

>  <smiles>  (20) 
Cc1nn(CC2CCCN(C(C)C)C2)c(=O)c2nn(-c3ccccc3)c(C)c12

>  <score_type>  (20) 
oracle

>  <origin>  (20) 
adg

>  <m_score__min__energy>  (20) 
-9.4299999999999997

>  <m_primary>  (20) 
energy

$$$$
20:0
     RDKit          3D

 40 41  0  0  0  0  0  0  0  0999 V2000
   -6.6170   23.3760  -32.0890 C   0  0  0  0  0  0  0  0  0  0  0  0
   -5.0960   23.3440  -31.8910 C   0  0  0  0  0  0  0  0  0  0  0  0
   -4.5980   24.2750  -30.8460 N   0  0  0  0  0  0  0  0  0  0  0  0
   -5.3640   25.5420  -30.8180 C   0  0  0  0  0  0  0  0  0  0  0  0
   -6.1740   25.6430  -29.5290 C   0  0  0  0  0  0  0  0  0  0  0  0
   -4.5080   23.6680  -29.4980 C   0  0  0  0  0  0  0  0  0  0  0  0
   -3.2090   23.9400  -28.8720 C   0  0  0  0  0  0  0  0  0  0  0  0
   -2.1540   24.1840  -28.3430 C   0  0  0  0  0  0  0  0  0  0  0  0
   -0.8850   24.4700  -27.6650 C   0  0  0  0  0  0  0  0  0  0  0  0
   -0.8190   23.7340  -26.4010 N   0  0  0  0  0  0  0  0  0  0  0  0
   -0.8270   22.3900  -26.2770 C   0  0  0  0  0  0  0  0  0  0  0  0
   -0.6140   21.9800  -25.0090 N   0  0  0  0  0  0  0  0  0  0  0  0
   -0.4570   23.1200  -24.3080 C   0  0  0  0  0  0  0  0  0  0  0  0
   -0.5850   24.2010  -25.1550 C   0  0  0  0  0  0  0  0  0  0  0  0
   -0.4260   25.6140  -24.7570 C   0  0  0  0  0  0  0  0  0  0  0  0
    0.3900   26.0510  -23.7720 N   0  0  0  0  0  0  0  0  0  0  0  0
    0.3260   27.4090  -23.5970 C   0  0  0  0  0  0  0  0  0  0  0  0
    1.1640   28.1030  -22.5750 C   0  0  0  0  0  0  0  0  0  0  0  0
   -0.5320   28.0990  -24.3980 N   0  0  0  0  0  0  0  0  0  0  0  0
   -1.2270   26.9390  -25.3650 S   0  0  0  0  0  0  0  0  0  0  0  0
   -7.1143   23.3865  -31.1079 H   0  0  0  0  0  0  0  0  0  0  0  0
   -6.8947   24.2802  -32.6505 H   0  0  0  0  0  0  0  0  0  0  0  0
   -6.9325   22.4843  -32.6505 H   0  0  0  0  0  0  0  0  0  0  0  0
   -4.8064   22.3212  -31.6081 H   0  0  0  0  0  0  0  0  0  0  0  0
   -4.6467   23.6667  -32.8418 H   0  0  0  0  0  0  0  0  0  0  0  0
   -4.6653   26.3897  -30.8748 H   0  0  0  0  0  0  0  0  0  0  0  0
   -6.0525   25.5628  -31.6757 H   0  0  0  0  0  0  0  0  0  0  0  0
   -5.4992   25.5589  -28.6644 H   0  0  0  0  0  0  0  0  0  0  0  0
   -6.6923   26.6127  -29.4966 H   0  0  0  0  0  0  0  0  0  0  0  0
   -6.9145   24.8302  -29.4966 H   0  0  0  0  0  0  0  0  0  0  0  0
   -5.3046   24.0849  -28.8642 H   0  0  0  0  0  0  0  0  0  0  0  0
   -4.6202   22.5786  -29.6016 H   0  0  0  0  0  0  0  0  0  0  0  0
   -0.0491   24.1623  -28.3104 H   0  0  0  0  0  0  0  0  0  0  0  0
   -0.8187   25.5487  -27.4601 H   0  0  0  0  0  0  0  0  0  0  0  0
   -0.9898   21.7021  -27.1198 H   0  0  0  0  0  0  0  0  0  0  0  0
   -0.2577   23.1793  -23.2278 H   0  0  0  0  0  0  0  0  0  0  0  0
    1.0130   25.4270  -23.2130 H   0  0  0  0  0  0  0  0  0  0  0  0
    0.8230   27.8206  -21.5680 H   0  0  0  0  0  0  0  0  0  0  0  0
    2.2161   27.8082  -22.7019 H   0  0  0  0  0  0  0  0  0  0  0  0
    1.0704   29.1916  -22.7019 H   0  0  0  0  0  0  0  0  0  0  0  0
  1  2  1  0
  2  3  1  0
  3  4  1  0
  4  5  1  0
  3  6  1  0
  6  7  1  0
  7  8  3  0
  8  9  1  0
  9 10  1  0
 10 11  1  0
 11 12  2  0
 12 13  1  0
 13 14  2  0
 14 15  1  0
 15 16  2  0
 16 17  1  0
 17 18  1  0
 17 19  2  0
 19 20  1  0
 14 10  1  0
 20 15  1  0
  1 21  1  0
  1 22  1  0
  1 23  1  0
  2 24  1  0
  2 25  1  0
  4 26  1  0
  4 27  1  0
  5 28  1  0
  5 29  1  0
  5 30  1  0
  6 31  1  0
  6 32  1  0
  9 33  1  0
  9 34  1  0
 11 35  1  0
 13 36  1  0
 16 37  1  0
 18 38  1  0
 18 39  1  0
 18 40  1  0
M  CHG  1  16   1
M  END
>  <UniqueID>  (21) 
20

>  <SMILES>  (21) 
CCN(CC)CC#CCn1cncc1-c1[nH+]c(C)ns1

>  <Energy>  (21) 
99.71165208023548

>  <Genealogy>  (21) 
CCN(CC)CC#CCn1cncc1-c1[nH+]c(C)ns1 (protonated)
CCN(CC)CC#CCn1cncc1-c1[nH+]c(C)ns1 (3D coordinates assigned)
CCN(CC)CC#CCn1cncc1-c1[nH+]c(C)ns1 (optimized conformer: 99.71165208023548 kcal/mol)

>  <smiles>  (21) 
CCN(CC)CC#CCn1cncc1-c1nc(C)ns1

>  <score_type>  (21) 
oracle

>  <origin>  (21) 
adg

>  <m_score__min__energy>  (21) 
-6.2699999999999996

>  <m_primary>  (21) 
energy

$$$$
21:0
     RDKit          3D

 48 50  0  0  0  0  0  0  0  0999 V2000
   -0.1110   25.7060  -28.6422 H   0  0  0  0  0  0  0  0  0  0  0  0
   -0.8560   24.9330  -28.8820 C   0  0  0  0  0  0  0  0  0  0  0  0
   -2.0780   25.2910  -29.3410 N   0  0  0  0  0  0  0  0  0  0  0  0
   -3.0480   24.3750  -29.5890 C   0  0  0  0  0  0  0  0  0  0  0  0
   -4.3120   24.8210  -29.9930 C   0  0  0  0  0  0  0  0  0  0  0  0
   -4.4732   25.8872  -30.2102 H   0  0  0  0  0  0  0  0  0  0  0  0
   -5.3670   23.9190  -30.1210 C   0  0  0  0  0  0  0  0  0  0  0  0
   -6.9560   24.4860  -30.6050 Cl  0  0  0  0  0  0  0  0  0  0  0  0
   -5.1730   22.5770  -29.7970 C   0  0  0  0  0  0  0  0  0  0  0  0
   -6.0170   21.8736  -29.8501 H   0  0  0  0  0  0  0  0  0  0  0  0
   -3.9110   22.1210  -29.4050 C   0  0  0  0  0  0  0  0  0  0  0  0
   -3.7836   21.0695  -29.1082 H   0  0  0  0  0  0  0  0  0  0  0  0
   -2.7980   22.9880  -29.3840 C   0  0  0  0  0  0  0  0  0  0  0  0
   -1.4670   22.5880  -29.0460 C   0  0  0  0  0  0  0  0  0  0  0  0
   -0.9800   21.3750  -29.1200 N   0  0  0  0  0  0  0  0  0  0  0  0
   -0.6620   20.4690  -30.2280 C   0  0  0  0  0  0  0  0  0  0  0  0
   -0.4609   19.4647  -29.8268 H   0  0  0  0  0  0  0  0  0  0  0  0
    0.2231   20.8534  -30.7562 H   0  0  0  0  0  0  0  0  0  0  0  0
   -1.8320   20.3910  -31.2180 C   0  0  0  0  0  0  0  0  0  0  0  0
   -2.7663   20.6011  -30.6768 H   0  0  0  0  0  0  0  0  0  0  0  0
   -1.8342   19.3807  -31.6530 H   0  0  0  0  0  0  0  0  0  0  0  0
   -1.6950   21.3980  -32.3760 C   0  0  0  0  0  0  0  0  0  0  0  0
   -0.6594   21.3555  -32.7443 H   0  0  0  0  0  0  0  0  0  0  0  0
   -1.9725   22.3795  -31.9640 H   0  0  0  0  0  0  0  0  0  0  0  0
   -2.6050   21.1590  -33.5290 N   0  0  0  0  0  0  0  0  0  0  0  0
   -2.0860   21.5850  -34.3360 H   0  0  0  0  0  0  0  0  0  0  0  0
   -3.8760   21.9240  -33.4670 C   0  0  0  0  0  0  0  0  0  0  0  0
   -4.2223   22.0981  -34.4965 H   0  0  0  0  0  0  0  0  0  0  0  0
   -3.6538   22.8542  -32.9235 H   0  0  0  0  0  0  0  0  0  0  0  0
   -5.0140   21.2210  -32.6870 C   0  0  0  0  0  0  0  0  0  0  0  0
   -5.9316   21.2600  -33.2923 H   0  0  0  0  0  0  0  0  0  0  0  0
   -5.1351   21.7486  -31.7294 H   0  0  0  0  0  0  0  0  0  0  0  0
   -4.7090   19.8080  -32.3820 N   0  0  0  0  0  0  0  0  0  0  0  0
   -5.9060   19.0870  -31.9010 C   0  0  0  0  0  0  0  0  0  0  0  0
   -5.7296   18.7464  -30.8701 H   0  0  0  0  0  0  0  0  0  0  0  0
   -6.0876   18.2304  -32.5667 H   0  0  0  0  0  0  0  0  0  0  0  0
   -7.1400   19.9880  -31.9240 C   0  0  0  0  0  0  0  0  0  0  0  0
   -7.4487   20.2134  -30.8925 H   0  0  0  0  0  0  0  0  0  0  0  0
   -6.9002   20.9250  -32.4480 H   0  0  0  0  0  0  0  0  0  0  0  0
   -7.9594   19.4742  -32.4480 H   0  0  0  0  0  0  0  0  0  0  0  0
   -4.1590   19.1570  -33.5780 C   0  0  0  0  0  0  0  0  0  0  0  0
   -4.8245   19.3440  -34.4337 H   0  0  0  0  0  0  0  0  0  0  0  0
   -4.0805   18.0747  -33.3976 H   0  0  0  0  0  0  0  0  0  0  0  0
   -2.7640   19.7210  -33.8850 C   0  0  0  0  0  0  0  0  0  0  0  0
   -2.5734   19.6073  -34.9624 H   0  0  0  0  0  0  0  0  0  0  0  0
   -2.0479   19.1574  -33.2689 H   0  0  0  0  0  0  0  0  0  0  0  0
   -0.5410   23.5870  -28.7130 C   0  0  0  0  0  0  0  0  0  0  0  0
    0.4445   23.3046  -28.3141 H   0  0  0  0  0  0  0  0  0  0  0  0
  1  2  1  0
  2  3  1  0
  3  4  1  0
  4  5  2  0
  5  6  1  0
  5  7  1  0
  7  8  1  0
  7  9  2  0
  9 10  1  0
  9 11  1  0
 11 12  1  0
 11 13  2  0
 13 14  1  0
 14 15  2  0
 15 16  1  0
 16 17  1  0
 16 18  1  0
 16 19  1  0
 19 20  1  0
 19 21  1  0
 19 22  1  0
 22 23  1  0
 22 24  1  0
 22 25  1  0
 25 26  1  0
 25 27  1  0
 27 28  1  0
 27 29  1  0
 27 30  1  0
 30 31  1  0
 30 32  1  0
 30 33  1  0
 33 34  1  0
 34 35  1  0
 34 36  1  0
 34 37  1  0
 37 38  1  0
 37 39  1  0
 37 40  1  0
 33 41  1  0
 41 42  1  0
 41 43  1  0
 41 44  1  0
 44 45  1  0
 44 46  1  0
 14 47  1  0
 47 48  1  0
 47  2  2  0
 13  4  1  0
 44 25  1  0
M  CHG  2   3  -1  25   1
M  END
>  <UniqueID>  (22) 
21

>  <SMILES>  (22) 
CCN1CC[NH+](CCC/N=c2/cc[n-]c3cc(Cl)ccc23)CC1

>  <Energy>  (22) 
86.81940341837411

>  <Genealogy>  (22) 
CCN1CC[NH+](CCCN=c2cc[n-]c3cc(Cl)ccc23)CC1 (protonated)
CCN1CC[NH+](CCC/N=c2/cc[n-]c3cc(Cl)ccc23)CC1 (cis-trans isomerization)
CCN1CC[NH+](CCC/N=c2/cc[n-]c3cc(Cl)ccc23)CC1 (3D coordinates assigned)
CCN1CC[NH+](CCC/N=c2/cc[n-]c3cc(Cl)ccc23)CC1 (nonaromatic ring conformer: 86.81940341837411 kcal/mol)

>  <smiles>  (22) 
CCN1CCN(CCCN=c2cc[nH]c3cc(Cl)ccc23)CC1

>  <score_type>  (22) 
oracle

>  <origin>  (22) 
adg

>  <m_score__min__energy>  (22) 
-8.6699999999999999

>  <m_primary>  (22) 
energy

$$$$
22:0
     RDKit          3D

 48 49  0  0  0  0  0  0  0  0999 V2000
   -2.6760   21.0850  -30.9460 C   0  0  0  0  0  0  0  0  0  0  0  0
   -2.2250   21.5390  -32.3300 C   0  0  0  0  0  0  0  0  0  0  0  0
   -3.1690   21.0210  -33.4190 C   0  0  0  0  0  0  0  0  0  0  0  0
   -4.6070   21.1740  -32.9980 C   0  0  0  0  0  0  0  0  0  0  0  0
   -5.0390   22.3210  -32.7080 O   0  0  0  0  0  0  0  0  0  0  0  0
   -5.5110   20.0010  -32.9060 C   0  0  0  0  0  0  0  0  0  0  0  0
   -4.9600   18.7060  -32.8930 C   0  0  0  0  0  0  0  0  0  0  0  0
   -5.7800   17.5820  -32.7650 C   0  0  0  0  0  0  0  0  0  0  0  0
   -5.0130   15.8330  -32.7670 Br  0  0  0  0  0  0  0  0  0  0  0  0
   -7.1620   17.7360  -32.6470 C   0  0  0  0  0  0  0  0  0  0  0  0
   -7.7250   19.0130  -32.6490 C   0  0  0  0  0  0  0  0  0  0  0  0
   -6.9150   20.1540  -32.7820 C   0  0  0  0  0  0  0  0  0  0  0  0
   -7.5200   21.4590  -32.7750 N   0  0  0  0  0  0  0  0  0  0  0  0
   -8.7170   21.7610  -31.9910 C   0  0  0  0  0  0  0  0  0  0  0  0
   -8.3450   22.6040  -30.7660 C   0  0  0  0  0  0  0  0  0  0  0  0
   -6.9490   22.2850  -30.1730 C   0  0  0  0  0  0  0  0  0  0  0  0
   -5.8790   23.3020  -30.3810 N   0  0  0  0  0  0  0  0  0  0  0  0
   -6.4230   24.6520  -30.6680 C   0  0  0  0  0  0  0  0  0  0  0  0
   -5.3620   25.7480  -30.4620 C   0  0  0  0  0  0  0  0  0  0  0  0
   -4.0720   25.2340  -30.7130 O   0  0  0  0  0  0  0  0  0  0  0  0
   -3.7080   24.3040  -29.7030 C   0  0  0  0  0  0  0  0  0  0  0  0
   -4.8550   23.3390  -29.3180 C   0  0  0  0  0  0  0  0  0  0  0  0
   -2.1210   21.6437  -30.1779 H   0  0  0  0  0  0  0  0  0  0  0  0
   -3.7533   21.2749  -30.8308 H   0  0  0  0  0  0  0  0  0  0  0  0
   -2.4790   20.0089  -30.8308 H   0  0  0  0  0  0  0  0  0  0  0  0
   -2.2119   22.6385  -32.3601 H   0  0  0  0  0  0  0  0  0  0  0  0
   -1.2202   21.1332  -32.5189 H   0  0  0  0  0  0  0  0  0  0  0  0
   -3.0012   21.5929  -34.3435 H   0  0  0  0  0  0  0  0  0  0  0  0
   -2.9624   19.9536  -33.5860 H   0  0  0  0  0  0  0  0  0  0  0  0
   -3.8714   18.5773  -32.9847 H   0  0  0  0  0  0  0  0  0  0  0  0
   -7.8078   16.8506  -32.5524 H   0  0  0  0  0  0  0  0  0  0  0  0
   -8.8141   19.1278  -32.5454 H   0  0  0  0  0  0  0  0  0  0  0  0
   -7.0920   22.2270  -33.3370 H   0  0  0  0  0  0  0  0  0  0  0  0
   -9.4292   22.3206  -32.6152 H   0  0  0  0  0  0  0  0  0  0  0  0
   -9.1744   20.8189  -31.6545 H   0  0  0  0  0  0  0  0  0  0  0  0
   -8.3607   23.6640  -31.0595 H   0  0  0  0  0  0  0  0  0  0  0  0
   -9.0814   22.3662  -29.9842 H   0  0  0  0  0  0  0  0  0  0  0  0
   -7.0719   22.1492  -29.0884 H   0  0  0  0  0  0  0  0  0  0  0  0
   -6.6047   21.3918  -30.7150 H   0  0  0  0  0  0  0  0  0  0  0  0
   -5.3790   23.0050  -31.2540 H   0  0  0  0  0  0  0  0  0  0  0  0
   -6.7693   24.6825  -31.7116 H   0  0  0  0  0  0  0  0  0  0  0  0
   -7.2531   24.8427  -29.9719 H   0  0  0  0  0  0  0  0  0  0  0  0
   -5.5616   26.5807  -31.1525 H   0  0  0  0  0  0  0  0  0  0  0  0
   -5.4101   26.1016  -29.4215 H   0  0  0  0  0  0  0  0  0  0  0  0
   -2.8578   23.7084  -30.0667 H   0  0  0  0  0  0  0  0  0  0  0  0
   -3.4533   24.8831  -28.8031 H   0  0  0  0  0  0  0  0  0  0  0  0
   -4.4450   22.3283  -29.1751 H   0  0  0  0  0  0  0  0  0  0  0  0
   -5.3213   23.6944  -28.3873 H   0  0  0  0  0  0  0  0  0  0  0  0
  1  2  1  0
  2  3  1  0
  3  4  1  0
  4  5  2  0
  4  6  1  0
  6  7  2  0
  7  8  1  0
  8  9  1  0
  8 10  2  0
 10 11  1  0
 11 12  2  0
 12 13  1  0
 13 14  1  0
 14 15  1  0
 15 16  1  0
 16 17  1  0
 17 18  1  0
 18 19  1  0
 19 20  1  0
 20 21  1  0
 21 22  1  0
 12  6  1  0
 22 17  1  0
  1 23  1  0
  1 24  1  0
  1 25  1  0
  2 26  1  0
  2 27  1  0
  3 28  1  0
  3 29  1  0
  7 30  1  0
 10 31  1  0
 11 32  1  0
 13 33  1  0
 14 34  1  0
 14 35  1  0
 15 36  1  0
 15 37  1  0
 16 38  1  0
 16 39  1  0
 17 40  1  0
 18 41  1  0
 18 42  1  0
 19 43  1  0
 19 44  1  0
 21 45  1  0
 21 46  1  0
 22 47  1  0
 22 48  1  0
M  CHG  1  17   1
M  END
>  <UniqueID>  (23) 
22

>  <SMILES>  (23) 
CCCC(=O)c1cc(Br)ccc1NCCC[NH+]1CCOCC1

>  <Energy>  (23) 
61.999923668355734

>  <Genealogy>  (23) 
CCCC(=O)c1cc(Br)ccc1NCCC[NH+]1CCOCC1 (protonated)
CCCC(=O)c1cc(Br)ccc1NCCC[NH+]1CCOCC1 (3D coordinates assigned)
CCCC(=O)c1cc(Br)ccc1NCCC[NH+]1CCOCC1 (nonaromatic ring conformer: 61.999923668355734 kcal/mol)

>  <smiles>  (23) 
CCCC(=O)c1cc(Br)ccc1NCCCN1CCOCC1

>  <score_type>  (23) 
oracle

>  <origin>  (23) 
adg

>  <m_score__min__energy>  (23) 
-7.0599999999999996

>  <m_primary>  (23) 
energy

$$$$
23:0
     RDKit          3D

 28 30  0  0  0  0  0  0  0  0999 V2000
   -4.2770   13.6180  -31.1950 C   0  0  0  0  0  0  0  0  0  0  0  0
   -4.6220   14.8560  -31.9560 C   0  0  0  0  0  0  0  0  0  0  0  0
   -4.3280   15.1020  -33.2830 C   0  0  0  0  0  0  0  0  0  0  0  0
   -4.9200   16.3270  -33.5450 C   0  0  0  0  0  0  0  0  0  0  0  0
   -4.8920   17.0340  -34.8640 C   0  0  0  0  0  0  0  0  0  0  0  0
   -5.5420   16.7620  -32.4250 N   0  0  0  0  0  0  0  0  0  0  0  0
   -6.2930   17.9740  -32.2540 C   0  0  0  0  0  0  0  0  0  0  0  0
   -7.6150   17.9830  -31.9370 N   0  0  0  0  0  0  0  0  0  0  0  0
   -7.8770   19.3000  -31.8830 C   0  0  0  0  0  0  0  0  0  0  0  0
   -9.0900   19.9220  -31.5980 C   0  0  0  0  0  0  0  0  0  0  0  0
   -9.1180   21.3290  -31.6000 C   0  0  0  0  0  0  0  0  0  0  0  0
   -7.9460   22.0690  -31.8850 C   0  0  0  0  0  0  0  0  0  0  0  0
   -6.7370   21.4060  -32.1700 C   0  0  0  0  0  0  0  0  0  0  0  0
   -6.7500   20.0150  -32.1570 C   0  0  0  0  0  0  0  0  0  0  0  0
   -5.7700   19.1830  -32.3860 O   0  0  0  0  0  0  0  0  0  0  0  0
   -5.3650   15.8660  -31.4660 N   0  0  0  0  0  0  0  0  0  0  0  0
   -4.3342   13.8231  -30.1158 H   0  0  0  0  0  0  0  0  0  0  0  0
   -4.9866   12.8185  -31.4544 H   0  0  0  0  0  0  0  0  0  0  0  0
   -3.2562   13.3007  -31.4544 H   0  0  0  0  0  0  0  0  0  0  0  0
   -3.7538   14.4686  -33.9752 H   0  0  0  0  0  0  0  0  0  0  0  0
   -4.8490   18.1204  -34.6969 H   0  0  0  0  0  0  0  0  0  0  0  0
   -4.0058   16.7151  -35.4322 H   0  0  0  0  0  0  0  0  0  0  0  0
   -5.8007   16.7861  -35.4322 H   0  0  0  0  0  0  0  0  0  0  0  0
   -9.9939   19.3345  -31.3792 H   0  0  0  0  0  0  0  0  0  0  0  0
  -10.0572   21.8571  -31.3785 H   0  0  0  0  0  0  0  0  0  0  0  0
   -7.9797   23.1685  -31.8839 H   0  0  0  0  0  0  0  0  0  0  0  0
   -5.8174   21.9664  -32.3943 H   0  0  0  0  0  0  0  0  0  0  0  0
   -5.7520   15.9350  -30.4980 H   0  0  0  0  0  0  0  0  0  0  0  0
  1  2  1  0
  2  3  1  0
  3  4  2  0
  4  5  1  0
  4  6  1  0
  6  7  1  0
  7  8  2  0
  8  9  1  0
  9 10  2  0
 10 11  1  0
 11 12  2  0
 12 13  1  0
 13 14  2  0
 14 15  1  0
  6 16  1  0
 16  2  2  0
 15  7  1  0
 14  9  1  0
  1 17  1  0
  1 18  1  0
  1 19  1  0
  3 20  1  0
  5 21  1  0
  5 22  1  0
  5 23  1  0
 10 24  1  0
 11 25  1  0
 12 26  1  0
 13 27  1  0
 16 28  1  0
M  CHG  1  16   1
M  END
>  <UniqueID>  (24) 
23

>  <SMILES>  (24) 
Cc1cc(C)n(-c2nc3ccccc3o2)[nH+]1

>  <Energy>  (24) 
96.47629499017663

>  <Genealogy>  (24) 
Cc1cc(C)n(-c2nc3ccccc3o2)[nH+]1 (protonated)
Cc1cc(C)n(-c2nc3ccccc3o2)[nH+]1 (3D coordinates assigned)
Cc1cc(C)n(-c2nc3ccccc3o2)[nH+]1 (optimized conformer: 96.47629499017663 kcal/mol)

>  <smiles>  (24) 
Cc1cc(C)n(-c2nc3ccccc3o2)n1

>  <score_type>  (24) 
oracle

>  <origin>  (24) 
adg

>  <m_score__min__energy>  (24) 
-5.8399999999999999

>  <m_primary>  (24) 
energy

$$$$
24:0
     RDKit          3D

 54 58  0  0  0  0  0  0  0  0999 V2000
   -6.1140   25.1050  -31.1140 C   0  0  0  0  0  0  0  0  0  0  0  0
   -6.0150   23.8740  -30.4040 O   0  0  0  0  0  0  0  0  0  0  0  0
   -5.9270   22.6480  -31.0750 C   0  0  0  0  0  0  0  0  0  0  0  0
   -7.1130   21.9810  -31.4420 C   0  0  0  0  0  0  0  0  0  0  0  0
   -8.3700   22.5760  -31.2030 C   0  0  0  0  0  0  0  0  0  0  0  0
   -9.5480   21.9170  -31.5480 C   0  0  0  0  0  0  0  0  0  0  0  0
   -9.4950   20.6600  -32.1420 C   0  0  0  0  0  0  0  0  0  0  0  0
   -8.2640   20.0610  -32.4050 C   0  0  0  0  0  0  0  0  0  0  0  0
   -7.0550   20.7100  -32.0670 C   0  0  0  0  0  0  0  0  0  0  0  0
   -5.8000   20.1200  -32.3440 C   0  0  0  0  0  0  0  0  0  0  0  0
   -5.7380   18.7860  -32.9890 C   0  0  0  0  0  0  0  0  0  0  0  0
   -5.6190   18.6830  -34.3840 C   0  0  0  0  0  0  0  0  0  0  0  0
   -5.5630   17.4230  -34.9900 C   0  0  0  0  0  0  0  0  0  0  0  0
   -5.6260   16.2650  -34.2070 C   0  0  0  0  0  0  0  0  0  0  0  0
   -5.7460   16.3650  -32.8160 C   0  0  0  0  0  0  0  0  0  0  0  0
   -5.8020   17.6240  -32.2080 C   0  0  0  0  0  0  0  0  0  0  0  0
   -4.6060   20.8110  -32.0170 C   0  0  0  0  0  0  0  0  0  0  0  0
   -3.3440   20.2430  -32.3080 C   0  0  0  0  0  0  0  0  0  0  0  0
   -2.1690   20.9140  -31.9960 C   0  0  0  0  0  0  0  0  0  0  0  0
   -2.2180   22.1600  -31.3900 C   0  0  0  0  0  0  0  0  0  0  0  0
   -3.4460   22.7620  -31.0920 C   0  0  0  0  0  0  0  0  0  0  0  0
   -3.4230   24.0460  -30.4560 N   0  0  0  0  0  0  0  0  0  0  0  0
   -3.1600   24.2590  -29.1980 C   0  0  0  0  0  0  0  0  0  0  0  0
   -1.8560   24.9130  -28.8360 C   0  0  0  0  0  0  0  0  0  0  0  0
   -1.3700   24.4130  -27.4740 C   0  0  0  0  0  0  0  0  0  0  0  0
   -2.3970   24.6690  -26.3560 C   0  0  0  0  0  0  0  0  0  0  0  0
   -3.8690   24.6280  -26.8260 C   0  0  0  0  0  0  0  0  0  0  0  0
   -4.0800   23.7900  -28.0900 C   0  0  0  0  0  0  0  0  0  0  0  0
   -4.6640   22.0870  -31.3850 C   0  0  0  0  0  0  0  0  0  0  0  0
   -6.1809   25.9371  -30.3977 H   0  0  0  0  0  0  0  0  0  0  0  0
   -5.2235   25.2362  -31.7463 H   0  0  0  0  0  0  0  0  0  0  0  0
   -7.0140   25.0922  -31.7463 H   0  0  0  0  0  0  0  0  0  0  0  0
   -8.4204   23.5720  -30.7388 H   0  0  0  0  0  0  0  0  0  0  0  0
  -10.5208   22.3909  -31.3506 H   0  0  0  0  0  0  0  0  0  0  0  0
  -10.4267   20.1376  -32.4047 H   0  0  0  0  0  0  0  0  0  0  0  0
   -8.2333   19.0702  -32.8819 H   0  0  0  0  0  0  0  0  0  0  0  0
   -5.5698   19.5926  -35.0006 H   0  0  0  0  0  0  0  0  0  0  0  0
   -5.4694   17.3427  -36.0831 H   0  0  0  0  0  0  0  0  0  0  0  0
   -5.5812   15.2753  -34.6850 H   0  0  0  0  0  0  0  0  0  0  0  0
   -5.7963   15.4543  -32.2011 H   0  0  0  0  0  0  0  0  0  0  0  0
   -5.8964   17.7019  -31.1148 H   0  0  0  0  0  0  0  0  0  0  0  0
   -3.2924   19.2549  -32.7887 H   0  0  0  0  0  0  0  0  0  0  0  0
   -1.1968   20.4558  -32.2303 H   0  0  0  0  0  0  0  0  0  0  0  0
   -1.2818   22.6810  -31.1407 H   0  0  0  0  0  0  0  0  0  0  0  0
   -1.1038   24.6702  -29.6010 H   0  0  0  0  0  0  0  0  0  0  0  0
   -2.0043   26.0018  -28.7849 H   0  0  0  0  0  0  0  0  0  0  0  0
   -1.1825   23.3312  -27.5409 H   0  0  0  0  0  0  0  0  0  0  0  0
   -0.4530   24.9653  -27.2209 H   0  0  0  0  0  0  0  0  0  0  0  0
   -2.2611   23.9010  -25.5803 H   0  0  0  0  0  0  0  0  0  0  0  0
   -2.2122   25.6877  -25.9843 H   0  0  0  0  0  0  0  0  0  0  0  0
   -4.4813   24.2009  -26.0181 H   0  0  0  0  0  0  0  0  0  0  0  0
   -4.1618   25.6604  -27.0679 H   0  0  0  0  0  0  0  0  0  0  0  0
   -3.8662   22.7348  -27.8645 H   0  0  0  0  0  0  0  0  0  0  0  0
   -5.1226   23.9035  -28.4218 H   0  0  0  0  0  0  0  0  0  0  0  0
  1  2  1  0
  2  3  1  0
  3  4  2  0
  4  5  1  0
  5  6  2  0
  6  7  1  0
  7  8  2  0
  8  9  1  0
  9 10  2  0
 10 11  1  0
 11 12  2  0
 12 13  1  0
 13 14  2  0
 14 15  1  0
 15 16  2  0
 10 17  1  0
 17 18  2  0
 18 19  1  0
 19 20  2  0
 20 21  1  0
 21 22  1  0
 22 23  2  3
 23 24  1  0
 24 25  1  0
 25 26  1  0
 26 27  1  0
 27 28  1  0
 21 29  2  0
 29  3  1  0
  9  4  1  0
 16 11  1  0
 29 17  1  0
 28 23  1  0
  1 30  1  0
  1 31  1  0
  1 32  1  0
  5 33  1  0
  6 34  1  0
  7 35  1  0
  8 36  1  0
 12 37  1  0
 13 38  1  0
 14 39  1  0
 15 40  1  0
 16 41  1  0
 18 42  1  0
 19 43  1  0
 20 44  1  0
 24 45  1  0
 24 46  1  0
 25 47  1  0
 25 48  1  0
 26 49  1  0
 26 50  1  0
 27 51  1  0
 27 52  1  0
 28 53  1  0
 28 54  1  0
M  END
>  <UniqueID>  (25) 
24

>  <SMILES>  (25) 
COc1c2ccccc2c(-c2ccccc2)c2cccc(N=C3CCCCC3)c12

>  <Energy>  (25) 
96.56931440960606

>  <Genealogy>  (25) 
COc1c2ccccc2c(-c2ccccc2)c2cccc(N=C3CCCCC3)c12 (3D coordinates assigned)
COc1c2ccccc2c(-c2ccccc2)c2cccc(N=C3CCCCC3)c12 (nonaromatic ring conformer: 96.56931440960606 kcal/mol)

>  <smiles>  (25) 
COc1c2ccccc2c(-c2ccccc2)c2cccc(N=C3CCCCC3)c12

>  <score_type>  (25) 
oracle

>  <origin>  (25) 
adg

>  <m_score__min__energy>  (25) 
-10.550000000000001

>  <m_primary>  (25) 
energy

$$$$
25:0
     RDKit          3D

 45 47  0  0  0  0  0  0  0  0999 V2000
   -3.1858   20.3599  -34.7017 H   0  0  0  0  0  0  0  0  0  0  0  0
   -2.6730   20.7210  -33.7980 C   0  0  0  0  0  0  0  0  0  0  0  0
   -3.4210   21.1760  -32.7080 C   0  0  0  0  0  0  0  0  0  0  0  0
   -4.5198   21.1734  -32.7591 H   0  0  0  0  0  0  0  0  0  0  0  0
   -2.7770   21.6360  -31.5490 C   0  0  0  0  0  0  0  0  0  0  0  0
   -3.5810   22.0740  -30.3540 C   0  0  0  0  0  0  0  0  0  0  0  0
   -3.6911   21.2286  -29.6589 H   0  0  0  0  0  0  0  0  0  0  0  0
   -4.5727   22.4118  -30.6893 H   0  0  0  0  0  0  0  0  0  0  0  0
   -2.9010   23.1780  -29.6720 N   0  0  0  0  0  0  0  0  0  0  0  0
   -3.1130   24.5090  -29.8470 C   0  0  0  0  0  0  0  0  0  0  0  0
   -3.9350   24.9780  -30.7380 N   0  0  0  0  0  0  0  0  0  0  0  0
   -5.1930   25.6570  -30.4320 C   0  0  0  0  0  0  0  0  0  0  0  0
   -5.3298   26.4944  -31.1321 H   0  0  0  0  0  0  0  0  0  0  0  0
   -5.1508   26.0250  -29.3962 H   0  0  0  0  0  0  0  0  0  0  0  0
   -6.3800   24.6950  -30.5620 C   0  0  0  0  0  0  0  0  0  0  0  0
   -7.2362   25.2385  -30.9881 H   0  0  0  0  0  0  0  0  0  0  0  0
   -6.6227   24.3073  -29.5616 H   0  0  0  0  0  0  0  0  0  0  0  0
   -6.0560   23.5620  -31.4290 N   0  0  0  0  0  0  0  0  0  0  0  0
   -5.0740   23.4160  -31.7540 H   0  0  0  0  0  0  0  0  0  0  0  0
   -7.0580   22.6230  -31.8380 C   0  0  0  0  0  0  0  0  0  0  0  0
   -8.2540   22.7660  -31.4660 O   0  0  0  0  0  0  0  0  0  0  0  0
   -6.6820   21.4350  -32.6620 C   0  0  0  0  0  0  0  0  0  0  0  0
   -6.4171   20.5980  -31.9992 H   0  0  0  0  0  0  0  0  0  0  0  0
   -7.5323   21.1451  -33.2968 H   0  0  0  0  0  0  0  0  0  0  0  0
   -5.8197   21.6871  -33.2968 H   0  0  0  0  0  0  0  0  0  0  0  0
   -2.4080   25.2960  -28.9900 N   0  0  0  0  0  0  0  0  0  0  0  0
   -1.7390   24.3960  -28.2470 C   0  0  0  0  0  0  0  0  0  0  0  0
   -0.8700   24.6540  -27.1890 C   0  0  0  0  0  0  0  0  0  0  0  0
   -0.6403   25.6844  -26.8800 H   0  0  0  0  0  0  0  0  0  0  0  0
   -0.2960   23.5510  -26.5290 C   0  0  0  0  0  0  0  0  0  0  0  0
    0.3978   23.7161  -25.6915 H   0  0  0  0  0  0  0  0  0  0  0  0
   -0.6050   22.2330  -26.9350 C   0  0  0  0  0  0  0  0  0  0  0  0
   -0.1528   21.3791  -26.4093 H   0  0  0  0  0  0  0  0  0  0  0  0
   -1.4870   22.0060  -28.0070 C   0  0  0  0  0  0  0  0  0  0  0  0
   -1.7360   20.9852  -28.3326 H   0  0  0  0  0  0  0  0  0  0  0  0
   -2.0360   23.1220  -28.6440 C   0  0  0  0  0  0  0  0  0  0  0  0
   -1.3750   21.6180  -31.4880 C   0  0  0  0  0  0  0  0  0  0  0  0
   -0.8622   21.9635  -30.5782 H   0  0  0  0  0  0  0  0  0  0  0  0
   -0.6270   21.1630  -32.5780 C   0  0  0  0  0  0  0  0  0  0  0  0
    0.4714   21.1501  -32.5207 H   0  0  0  0  0  0  0  0  0  0  0  0
   -1.2700   20.7230  -33.7440 C   0  0  0  0  0  0  0  0  0  0  0  0
   -0.4630   20.2030  -34.8950 C   0  0  0  0  0  0  0  0  0  0  0  0
    0.4039   19.6444  -34.5123 H   0  0  0  0  0  0  0  0  0  0  0  0
   -1.0868   19.5365  -35.5087 H   0  0  0  0  0  0  0  0  0  0  0  0
   -0.1138   21.0465  -35.5087 H   0  0  0  0  0  0  0  0  0  0  0  0
  1  2  1  0
  2  3  2  0
  3  4  1  0
  3  5  1  0
  5  6  1  0
  6  7  1  0
  6  8  1  0
  6  9  1  0
  9 10  1  0
 10 11  2  0
 11 12  1  0
 12 13  1  0
 12 14  1  0
 12 15  1  0
 15 16  1  0
 15 17  1  0
 15 18  1  0
 18 19  1  0
 18 20  1  0
 20 21  2  0
 20 22  1  0
 22 23  1  0
 22 24  1  0
 22 25  1  0
 10 26  1  0
 26 27  1  0
 27 28  2  0
 28 29  1  0
 28 30  1  0
 30 31  1  0
 30 32  2  0
 32 33  1  0
 32 34  1  0
 34 35  1  0
 34 36  2  0
  5 37  2  0
 37 38  1  0
 37 39  1  0
 39 40  1  0
 39 41  2  0
 41 42  1  0
 42 43  1  0
 42 44  1  0
 42 45  1  0
 41  2  1  0
 36  9  1  0
 36 27  1  0
M  CHG  1  26  -1
M  END
>  <UniqueID>  (26) 
25

>  <SMILES>  (26) 
CC(=O)NCC/N=c1\[n-]c2ccccc2n1Cc1ccc(C)cc1

>  <Energy>  (26) 
73.56507806686798

>  <Genealogy>  (26) 
CC(=O)NCCN=c1[n-]c2ccccc2n1Cc1ccc(C)cc1 (protonated)
CC(=O)NCC/N=c1\[n-]c2ccccc2n1Cc1ccc(C)cc1 (cis-trans isomerization)
CC(=O)NCC/N=c1\[n-]c2ccccc2n1Cc1ccc(C)cc1 (3D coordinates assigned)
CC(=O)NCC/N=c1\[n-]c2ccccc2n1Cc1ccc(C)cc1 (optimized conformer: 73.56507806686798 kcal/mol)

>  <smiles>  (26) 
CC(=O)NCCN=c1[nH]c2ccccc2n1Cc1ccc(C)cc1

>  <score_type>  (26) 
oracle

>  <origin>  (26) 
adg

>  <m_score__min__energy>  (26) 
-8.2699999999999996

>  <m_primary>  (26) 
energy

$$$$
26:0
     RDKit          3D

 47 49  0  0  0  0  0  0  0  0999 V2000
   -3.4695   23.5226  -32.2646 H   0  0  0  0  0  0  0  0  0  0  0  0
   -3.2350   22.6860  -31.5900 C   0  0  0  0  0  0  0  0  0  0  0  0
   -3.0930   21.4670  -32.1280 C   0  0  0  0  0  0  0  0  0  0  0  0
   -2.5683   20.7027  -31.5359 H   0  0  0  0  0  0  0  0  0  0  0  0
   -3.6040   21.0730  -33.4900 C   0  0  0  0  0  0  0  0  0  0  0  0
   -4.3007   21.8456  -33.8473 H   0  0  0  0  0  0  0  0  0  0  0  0
   -2.7423   20.9784  -34.1672 H   0  0  0  0  0  0  0  0  0  0  0  0
   -4.3080   19.7720  -33.4510 N   0  0  0  0  0  0  0  0  0  0  0  0
   -3.4140   18.6890  -33.9020 C   0  0  0  0  0  0  0  0  0  0  0  0
   -2.9899   18.1752  -33.0267 H   0  0  0  0  0  0  0  0  0  0  0  0
   -3.9853   17.9703  -34.5078 H   0  0  0  0  0  0  0  0  0  0  0  0
   -2.6001   19.1138  -34.5078 H   0  0  0  0  0  0  0  0  0  0  0  0
   -4.7840   19.4860  -32.0790 C   0  0  0  0  0  0  0  0  0  0  0  0
   -4.4075   18.5016  -31.7641 H   0  0  0  0  0  0  0  0  0  0  0  0
   -4.4111   20.2709  -31.4045 H   0  0  0  0  0  0  0  0  0  0  0  0
   -6.2960   19.4790  -32.0280 C   0  0  0  0  0  0  0  0  0  0  0  0
   -6.9610   18.2410  -32.0480 C   0  0  0  0  0  0  0  0  0  0  0  0
   -6.3743   17.3108  -32.0695 H   0  0  0  0  0  0  0  0  0  0  0  0
   -8.3540   18.1750  -32.0410 C   0  0  0  0  0  0  0  0  0  0  0  0
   -8.8561   17.1963  -32.0513 H   0  0  0  0  0  0  0  0  0  0  0  0
   -9.1120   19.3430  -32.0210 C   0  0  0  0  0  0  0  0  0  0  0  0
  -10.2104   19.2835  -32.0272 H   0  0  0  0  0  0  0  0  0  0  0  0
   -8.4810   20.5940  -31.9930 C   0  0  0  0  0  0  0  0  0  0  0  0
   -9.2540   21.7660  -31.9690 C   0  0  0  0  0  0  0  0  0  0  0  0
  -10.3517   21.6989  -31.9905 H   0  0  0  0  0  0  0  0  0  0  0  0
   -8.6350   23.0150  -31.9180 C   0  0  0  0  0  0  0  0  0  0  0  0
   -9.2458   23.9297  -31.9006 H   0  0  0  0  0  0  0  0  0  0  0  0
   -7.2440   23.1070  -31.8890 C   0  0  0  0  0  0  0  0  0  0  0  0
   -6.7616   24.0945  -31.8431 H   0  0  0  0  0  0  0  0  0  0  0  0
   -6.4600   21.9510  -31.9180 C   0  0  0  0  0  0  0  0  0  0  0  0
   -5.3635   22.0354  -31.8931 H   0  0  0  0  0  0  0  0  0  0  0  0
   -7.0620   20.6760  -31.9790 C   0  0  0  0  0  0  0  0  0  0  0  0
   -3.0970   22.9770  -30.1520 C   0  0  0  0  0  0  0  0  0  0  0  0
   -2.7260   21.9400  -29.2860 C   0  0  0  0  0  0  0  0  0  0  0  0
   -2.4790   20.9488  -29.6942 H   0  0  0  0  0  0  0  0  0  0  0  0
   -2.6680   22.1570  -27.9090 C   0  0  0  0  0  0  0  0  0  0  0  0
   -2.3698   21.3397  -27.2359 H   0  0  0  0  0  0  0  0  0  0  0  0
   -2.9880   23.4100  -27.3850 C   0  0  0  0  0  0  0  0  0  0  0  0
   -2.9441   23.5783  -26.2988 H   0  0  0  0  0  0  0  0  0  0  0  0
   -3.3640   24.4510  -28.2370 C   0  0  0  0  0  0  0  0  0  0  0  0
   -3.6038   25.4399  -27.8192 H   0  0  0  0  0  0  0  0  0  0  0  0
   -3.4380   24.2420  -29.6290 C   0  0  0  0  0  0  0  0  0  0  0  0
   -3.8660   25.2510  -30.5070 O   0  0  0  0  0  0  0  0  0  0  0  0
   -5.2240   25.6310  -30.7000 C   0  0  0  0  0  0  0  0  0  0  0  0
   -5.7093   25.7668  -29.7222 H   0  0  0  0  0  0  0  0  0  0  0  0
   -5.2641   26.5749  -31.2635 H   0  0  0  0  0  0  0  0  0  0  0  0
   -5.7482   24.8450  -31.2635 H   0  0  0  0  0  0  0  0  0  0  0  0
  1  2  1  0
  2  3  2  0
  3  4  1  0
  3  5  1  0
  5  6  1  0
  5  7  1  0
  5  8  1  0
  8  9  1  0
  9 10  1  0
  9 11  1  0
  9 12  1  0
  8 13  1  0
 13 14  1  0
 13 15  1  0
 13 16  1  0
 16 17  2  0
 17 18  1  0
 17 19  1  0
 19 20  1  0
 19 21  2  0
 21 22  1  0
 21 23  1  0
 23 24  2  0
 24 25  1  0
 24 26  1  0
 26 27  1  0
 26 28  2  0
 28 29  1  0
 28 30  1  0
 30 31  1  0
 30 32  2  0
  2 33  1  0
 33 34  2  0
 34 35  1  0
 34 36  1  0
 36 37  1  0
 36 38  2  0
 38 39  1  0
 38 40  1  0
 40 41  1  0
 40 42  2  0
 42 43  1  0
 43 44  1  0
 44 45  1  0
 44 46  1  0
 44 47  1  0
 32 16  1  0
 42 33  1  0
 32 23  1  0
M  END
>  <UniqueID>  (27) 
26

>  <SMILES>  (27) 
COc1ccccc1/C=C\CN(C)Cc1cccc2ccccc12

>  <Energy>  (27) 
53.33499698536265

>  <Genealogy>  (27) 
COc1ccccc1/C=C\CN(C)Cc1cccc2ccccc12 (cis-trans isomerization)
COc1ccccc1/C=C\CN(C)Cc1cccc2ccccc12 (3D coordinates assigned)
COc1ccccc1/C=C\CN(C)Cc1cccc2ccccc12 (optimized conformer: 53.33499698536265 kcal/mol)

>  <smiles>  (27) 
COc1ccccc1C=CCN(C)Cc1cccc2ccccc12

>  <score_type>  (27) 
oracle

>  <origin>  (27) 
adg

>  <m_score__min__energy>  (27) 
-9.1600000000000001

>  <m_primary>  (27) 
energy

$$$$
27:0
     RDKit          3D

 42 44  0  0  0  0  0  0  0  0999 V2000
   -3.4698   19.0224  -32.9110 H   0  0  0  0  0  0  0  0  0  0  0  0
   -4.3590   18.3790  -32.9840 C   0  0  0  0  0  0  0  0  0  0  0  0
   -4.1990   17.0040  -33.1680 C   0  0  0  0  0  0  0  0  0  0  0  0
   -3.1892   16.5816  -33.2768 H   0  0  0  0  0  0  0  0  0  0  0  0
   -5.3130   16.1600  -33.2150 C   0  0  0  0  0  0  0  0  0  0  0  0
   -5.1370   14.6810  -33.4350 C   0  0  0  0  0  0  0  0  0  0  0  0
   -4.4257   14.5209  -34.2587 H   0  0  0  0  0  0  0  0  0  0  0  0
   -6.1147   14.2423  -33.6833 H   0  0  0  0  0  0  0  0  0  0  0  0
   -4.6040   14.0070  -32.1760 C   0  0  0  0  0  0  0  0  0  0  0  0
   -5.0071   14.5168  -31.2885 H   0  0  0  0  0  0  0  0  0  0  0  0
   -4.9146   12.9518  -32.1655 H   0  0  0  0  0  0  0  0  0  0  0  0
   -3.5056   14.0660  -32.1655 H   0  0  0  0  0  0  0  0  0  0  0  0
   -6.5930   16.7070  -33.0790 C   0  0  0  0  0  0  0  0  0  0  0  0
   -7.4725   16.0467  -33.1031 H   0  0  0  0  0  0  0  0  0  0  0  0
   -6.7670   18.0900  -32.9120 C   0  0  0  0  0  0  0  0  0  0  0  0
   -5.6470   18.9580  -32.8900 C   0  0  0  0  0  0  0  0  0  0  0  0
   -5.8460   20.4440  -32.6740 C   0  0  0  0  0  0  0  0  0  0  0  0
   -4.7790   21.3130  -32.9300 C   0  0  0  0  0  0  0  0  0  0  0  0
   -3.9503   20.8915  -33.5178 H   0  0  0  0  0  0  0  0  0  0  0  0
   -4.6290   22.6360  -32.5400 C   0  0  0  0  0  0  0  0  0  0  0  0
   -3.8266   23.1970  -33.0415 H   0  0  0  0  0  0  0  0  0  0  0  0
   -5.3660   23.3430  -31.5940 C   0  0  0  0  0  0  0  0  0  0  0  0
   -4.8000   24.4400  -31.1600 N   0  0  0  0  0  0  0  0  0  0  0  0
   -5.4160   25.5370  -30.4160 C   0  0  0  0  0  0  0  0  0  0  0  0
   -5.3121   25.3519  -29.3367 H   0  0  0  0  0  0  0  0  0  0  0  0
   -4.9166   26.4821  -30.6757 H   0  0  0  0  0  0  0  0  0  0  0  0
   -6.4829   25.6026  -30.6757 H   0  0  0  0  0  0  0  0  0  0  0  0
   -6.6390   22.9670  -31.1260 C   0  0  0  0  0  0  0  0  0  0  0  0
   -6.9864   23.4867  -30.2209 H   0  0  0  0  0  0  0  0  0  0  0  0
   -7.5270   22.0150  -31.6610 C   0  0  0  0  0  0  0  0  0  0  0  0
   -8.8980   22.1200  -31.3430 O   0  0  0  0  0  0  0  0  0  0  0  0
   -9.5510   21.5550  -30.2090 C   0  0  0  0  0  0  0  0  0  0  0  0
   -9.0950   21.9495  -29.2890 H   0  0  0  0  0  0  0  0  0  0  0  0
  -10.6186   21.8189  -30.2314 H   0  0  0  0  0  0  0  0  0  0  0  0
   -9.4433   20.4605  -30.2314 H   0  0  0  0  0  0  0  0  0  0  0  0
   -7.1620   20.9090  -32.4630 C   0  0  0  0  0  0  0  0  0  0  0  0
   -8.2600   20.0680  -33.0930 C   0  0  0  0  0  0  0  0  0  0  0  0
   -8.1681   20.1151  -34.1881 H   0  0  0  0  0  0  0  0  0  0  0  0
   -9.2360   20.4638  -32.7756 H   0  0  0  0  0  0  0  0  0  0  0  0
   -8.1490   18.6190  -32.6440 C   0  0  0  0  0  0  0  0  0  0  0  0
   -8.8824   18.0119  -33.1950 H   0  0  0  0  0  0  0  0  0  0  0  0
   -8.3479   18.5647  -31.5635 H   0  0  0  0  0  0  0  0  0  0  0  0
  1  2  1  0
  2  3  2  0
  3  4  1  0
  3  5  1  0
  5  6  1  0
  6  7  1  0
  6  8  1  0
  6  9  1  0
  9 10  1  0
  9 11  1  0
  9 12  1  0
  5 13  2  0
 13 14  1  0
 13 15  1  0
 15 16  2  0
 16 17  1  0
 17 18  1  0
 18 19  1  0
 18 20  2  0
 20 21  1  0
 20 22  1  0
 22 23  2  0
 23 24  1  0
 24 25  1  0
 24 26  1  0
 24 27  1  0
 22 28  1  0
 28 29  1  0
 28 30  2  0
 30 31  1  0
 31 32  1  0
 32 33  1  0
 32 34  1  0
 32 35  1  0
 30 36  1  0
 36 37  1  0
 37 38  1  0
 37 39  1  0
 37 40  1  0
 40 41  1  0
 40 42  1  0
 16  2  1  0
 36 17  2  0
 40 15  1  0
M  END
>  <UniqueID>  (28) 
27

>  <SMILES>  (28) 
CCc1ccc2c(c1)CCc1c(OC)c/c(=N\C)ccc1-2

>  <Energy>  (28) 
84.21823927679308

>  <Genealogy>  (28) 
CCc1ccc2c(c1)CCc1c(OC)c/c(=N\C)ccc1-2 (cis-trans isomerization)
CCc1ccc2c(c1)CCc1c(OC)c/c(=N\C)ccc1-2 (3D coordinates assigned)
CCc1ccc2c(c1)CCc1c(OC)c/c(=N\C)ccc1-2 (nonaromatic ring conformer: 84.21823927679308 kcal/mol)

>  <smiles>  (28) 
CCc1ccc2c(c1)CCc1c(OC)cc(=NC)ccc1-2

>  <score_type>  (28) 
oracle

>  <origin>  (28) 
adg

>  <m_score__min__energy>  (28) 
-7.8300000000000001

>  <m_primary>  (28) 
energy

$$$$
28:0
     RDKit          3D

 51 54  0  0  0  0  0  0  0  0999 V2000
   -7.0150   20.4720  -32.8700 C   0  0  0  0  0  0  0  0  0  0  0  0
   -8.0260   21.1640  -31.9650 C   0  0  0  0  0  0  0  0  0  0  0  0
   -7.3960   22.3010  -31.2820 N   0  0  0  0  0  0  0  0  0  0  0  0
   -7.0990   23.3970  -32.2200 C   0  0  0  0  0  0  0  0  0  0  0  0
   -6.0280   24.3480  -31.6530 C   0  0  0  0  0  0  0  0  0  0  0  0
   -4.8540   23.6570  -30.9110 C   0  0  2  0  0  0  0  0  0  0  0  0
   -3.8660   24.6410  -30.4800 N   0  0  0  0  0  0  0  0  0  0  0  0
   -2.7460   24.3570  -29.6340 C   0  0  0  0  0  0  0  0  0  0  0  0
   -1.9640   25.2980  -29.3350 O   0  0  0  0  0  0  0  0  0  0  0  0
   -2.5220   23.0140  -29.0470 C   0  0  0  0  0  0  0  0  0  0  0  0
   -2.0710   22.9350  -27.7160 C   0  0  0  0  0  0  0  0  0  0  0  0
   -1.8990   21.6980  -27.0940 C   0  0  0  0  0  0  0  0  0  0  0  0
   -2.1830   20.5240  -27.7870 C   0  0  0  0  0  0  0  0  0  0  0  0
   -2.6120   20.5820  -29.1120 C   0  0  0  0  0  0  0  0  0  0  0  0
   -2.7460   21.8160  -29.7740 C   0  0  0  0  0  0  0  0  0  0  0  0
   -3.1500   21.8330  -31.1590 N   0  0  0  0  0  0  0  0  0  0  0  0
   -2.6800   21.0770  -32.1810 C   0  0  0  0  0  0  0  0  0  0  0  0
   -1.4020   20.2740  -32.1770 C   0  0  0  0  0  0  0  0  0  0  0  0
   -0.7460   20.2830  -33.5330 C   0  0  0  0  0  0  0  0  0  0  0  0
   -0.2900   21.4870  -34.0930 C   0  0  0  0  0  0  0  0  0  0  0  0
    0.3450   21.4890  -35.3390 C   0  0  0  0  0  0  0  0  0  0  0  0
    0.5330   20.2900  -36.0320 C   0  0  0  0  0  0  0  0  0  0  0  0
    0.0880   19.0870  -35.4790 C   0  0  0  0  0  0  0  0  0  0  0  0
   -0.5460   19.0800  -34.2330 C   0  0  0  0  0  0  0  0  0  0  0  0
   -3.4080   21.3800  -33.3150 C   0  0  0  0  0  0  0  0  0  0  0  0
   -4.3320   22.3020  -33.0010 N   0  0  0  0  0  0  0  0  0  0  0  0
   -4.1460   22.5770  -31.6910 C   0  0  0  0  0  0  0  0  0  0  0  0
   -6.2631   19.9574  -32.2537 H   0  0  0  0  0  0  0  0  0  0  0  0
   -7.5332   19.7383  -33.5049 H   0  0  0  0  0  0  0  0  0  0  0  0
   -6.5186   21.2206  -33.5049 H   0  0  0  0  0  0  0  0  0  0  0  0
   -8.8695   21.5257  -32.5714 H   0  0  0  0  0  0  0  0  0  0  0  0
   -8.3864   20.4467  -31.2129 H   0  0  0  0  0  0  0  0  0  0  0  0
   -6.4930   21.9680  -30.8710 H   0  0  0  0  0  0  0  0  0  0  0  0
   -6.7336   22.9697  -33.1655 H   0  0  0  0  0  0  0  0  0  0  0  0
   -8.0220   23.9729  -32.3826 H   0  0  0  0  0  0  0  0  0  0  0  0
   -5.6083   24.9250  -32.4902 H   0  0  0  0  0  0  0  0  0  0  0  0
   -6.5390   24.9688  -30.9024 H   0  0  0  0  0  0  0  0  0  0  0  0
   -5.3315   23.1619  -30.0526 H   0  0  0  0  0  0  0  0  0  0  0  0
   -1.8518   23.8586  -27.1602 H   0  0  0  0  0  0  0  0  0  0  0  0
   -1.5389   21.6501  -26.0557 H   0  0  0  0  0  0  0  0  0  0  0  0
   -2.0687   19.5502  -27.2884 H   0  0  0  0  0  0  0  0  0  0  0  0
   -2.8489   19.6505  -29.6470 H   0  0  0  0  0  0  0  0  0  0  0  0
   -0.7089   20.7071  -31.4407 H   0  0  0  0  0  0  0  0  0  0  0  0
   -1.6463   19.2336  -31.9163 H   0  0  0  0  0  0  0  0  0  0  0  0
   -0.4328   22.4326  -33.5495 H   0  0  0  0  0  0  0  0  0  0  0  0
    0.6971   22.4358  -35.7743 H   0  0  0  0  0  0  0  0  0  0  0  0
    1.0313   20.2937  -37.0127 H   0  0  0  0  0  0  0  0  0  0  0  0
    0.2366   18.1436  -36.0248 H   0  0  0  0  0  0  0  0  0  0  0  0
   -0.8897   18.1297  -33.7985 H   0  0  0  0  0  0  0  0  0  0  0  0
   -3.2558   20.9387  -34.3110 H   0  0  0  0  0  0  0  0  0  0  0  0
   -5.0210   22.7170  -33.6630 H   0  0  0  0  0  0  0  0  0  0  0  0
  1  2  1  0
  2  3  1  0
  3  4  1  0
  4  5  1  0
  5  6  1  0
  6  7  1  0
  7  8  1  0
  8  9  2  0
  8 10  1  0
 10 11  2  0
 11 12  1  0
 12 13  2  0
 13 14  1  0
 14 15  2  0
 15 16  1  0
 16 17  1  0
 17 18  1  0
 18 19  1  0
 19 20  2  0
 20 21  1  0
 21 22  2  0
 22 23  1  0
 23 24  2  0
 17 25  2  0
 25 26  1  0
 26 27  2  0
 27  6  1  0
 15 10  1  0
 27 16  1  0
 24 19  1  0
  1 28  1  0
  1 29  1  0
  1 30  1  0
  2 31  1  0
  2 32  1  0
  3 33  1  0
  4 34  1  0
  4 35  1  0
  5 36  1  0
  5 37  1  0
  6 38  1  1
 11 39  1  0
 12 40  1  0
 13 41  1  0
 14 42  1  0
 18 43  1  0
 18 44  1  0
 20 45  1  0
 21 46  1  0
 22 47  1  0
 23 48  1  0
 24 49  1  0
 25 50  1  0
 26 51  1  0
M  CHG  2   7  -1  26   1
M  END
>  <UniqueID>  (29) 
28

>  <SMILES>  (29) 
CCNCC[C@@H]1[N-]C(=O)c2ccccc2-n2c(Cc3ccccc3)c[nH+]c21

>  <Energy>  (29) 
96.50460976078759

>  <Genealogy>  (29) 
CCNCCC1[N-]C(=O)c2ccccc2-n2c(Cc3ccccc3)c[nH+]c21 (protonated)
CCNCC[C@@H]1[N-]C(=O)c2ccccc2-n2c(Cc3ccccc3)c[nH+]c21 (chirality)
CCNCC[C@@H]1[N-]C(=O)c2ccccc2-n2c(Cc3ccccc3)c[nH+]c21 (3D coordinates assigned)
CCNCC[C@@H]1[N-]C(=O)c2ccccc2-n2c(Cc3ccccc3)c[nH+]c21 (nonaromatic ring conformer: 96.50460976078759 kcal/mol)

>  <smiles>  (29) 
CCNCCC1NC(=O)c2ccccc2-n2c(Cc3ccccc3)cnc21

>  <score_type>  (29) 
oracle

>  <origin>  (29) 
adg

>  <m_score__min__energy>  (29) 
-9.7300000000000004

>  <m_primary>  (29) 
energy

$$$$
29:0
     RDKit          3D

 65 69  0  0  0  0  0  0  0  0999 V2000
   -3.4210   14.9280  -32.7090 C   0  0  0  0  0  0  0  0  0  0  0  0
   -4.7430   15.6400  -33.0390 C   0  0  0  0  0  0  0  0  0  0  0  0
   -4.6180   17.0930  -33.2950 N   0  0  0  0  0  0  0  0  0  0  0  0
   -3.4420   17.4530  -34.1150 C   0  0  0  0  0  0  0  0  0  0  0  0
   -2.9930   18.8870  -33.8410 C   0  0  0  0  0  0  0  0  0  0  0  0
   -6.1170   17.8050  -33.8710 S   0  0  0  0  0  0  0  0  0  0  0  0
   -7.2330   16.8090  -33.7380 O   0  0  0  0  0  0  0  0  0  0  0  0
   -5.9830   18.1300  -35.3330 O   0  0  0  0  0  0  0  0  0  0  0  0
   -6.5690   19.2730  -33.0010 C   0  0  0  0  0  0  0  0  0  0  0  0
   -7.9210   19.5950  -32.8150 C   0  0  0  0  0  0  0  0  0  0  0  0
   -8.2780   20.7650  -32.1430 C   0  0  0  0  0  0  0  0  0  0  0  0
   -7.2910   21.6150  -31.6380 C   0  0  0  0  0  0  0  0  0  0  0  0
   -5.9310   21.2920  -31.7930 C   0  0  0  0  0  0  0  0  0  0  0  0
   -4.9160   22.1720  -31.2770 N   0  0  0  0  0  0  0  0  0  0  0  0
   -4.9970   23.5170  -31.1690 C   0  0  0  0  0  0  0  0  0  0  0  0
   -3.8170   23.9690  -30.6190 C   0  0  0  0  0  0  0  0  0  0  0  0
   -3.5120   25.2960  -30.3400 O   0  0  0  0  0  0  0  0  0  0  0  0
   -2.9960   22.9270  -30.3820 N   0  0  0  0  0  0  0  0  0  0  0  0
   -1.6930   22.9530  -29.7160 C   0  0  0  0  0  0  0  0  0  0  0  0
   -1.1930   21.5490  -29.5130 C   0  0  0  0  0  0  0  0  0  0  0  0
   -0.2510   20.9990  -30.3960 C   0  0  0  0  0  0  0  0  0  0  0  0
    0.2620   19.7180  -30.1740 C   0  0  0  0  0  0  0  0  0  0  0  0
   -0.1470   18.9770  -29.0550 C   0  0  0  0  0  0  0  0  0  0  0  0
    0.4120   17.6260  -28.8130 C   0  0  0  0  0  0  0  0  0  0  0  0
    0.5960   17.2110  -27.4820 C   0  0  0  0  0  0  0  0  0  0  0  0
    1.1780   15.9760  -27.1940 C   0  0  0  0  0  0  0  0  0  0  0  0
    1.5870   15.1400  -28.2310 C   0  0  0  0  0  0  0  0  0  0  0  0
    1.3990   15.5260  -29.5590 C   0  0  0  0  0  0  0  0  0  0  0  0
    0.7990   16.7600  -29.8720 C   0  0  0  0  0  0  0  0  0  0  0  0
    0.5390   17.0850  -31.2960 C   0  0  0  0  0  0  0  0  0  0  0  0
    1.4170   17.6870  -32.1230 N   0  0  0  0  0  0  0  0  0  0  0  0
    0.7780   17.8120  -33.2770 N   0  0  0  0  0  0  0  0  0  0  0  0
   -0.4460   17.3170  -33.1690 N   0  0  0  0  0  0  0  0  0  0  0  0
   -0.6190   16.8630  -31.9400 N   0  0  0  0  0  0  0  0  0  0  0  0
   -1.1020   19.5200  -28.1800 C   0  0  0  0  0  0  0  0  0  0  0  0
   -1.6120   20.8020  -28.4020 C   0  0  0  0  0  0  0  0  0  0  0  0
   -3.6990   21.8460  -30.7800 C   0  0  0  0  0  0  0  0  0  0  0  0
   -3.2800   20.6610  -30.6650 O   0  0  0  0  0  0  0  0  0  0  0  0
   -5.5790   20.1160  -32.4770 C   0  0  0  0  0  0  0  0  0  0  0  0
   -3.3017   14.8637  -31.6174 H   0  0  0  0  0  0  0  0  0  0  0  0
   -3.4336   13.9147  -33.1368 H   0  0  0  0  0  0  0  0  0  0  0  0
   -2.5818   15.4962  -33.1368 H   0  0  0  0  0  0  0  0  0  0  0  0
   -5.1702   15.1697  -33.9370 H   0  0  0  0  0  0  0  0  0  0  0  0
   -5.3815   15.5359  -32.1494 H   0  0  0  0  0  0  0  0  0  0  0  0
   -2.6156   16.7670  -33.8771 H   0  0  0  0  0  0  0  0  0  0  0  0
   -3.7207   17.3730  -35.1761 H   0  0  0  0  0  0  0  0  0  0  0  0
   -2.9408   19.0537  -32.7550 H   0  0  0  0  0  0  0  0  0  0  0  0
   -2.0003   19.0516  -34.2854 H   0  0  0  0  0  0  0  0  0  0  0  0
   -3.7145   19.5884  -34.2854 H   0  0  0  0  0  0  0  0  0  0  0  0
   -8.7026   18.9235  -33.1999 H   0  0  0  0  0  0  0  0  0  0  0  0
   -9.3401   21.0187  -32.0106 H   0  0  0  0  0  0  0  0  0  0  0  0
   -7.5786   22.5403  -31.1173 H   0  0  0  0  0  0  0  0  0  0  0  0
   -5.8530   24.1402  -31.4672 H   0  0  0  0  0  0  0  0  0  0  0  0
   -0.9764   23.5088  -30.3385 H   0  0  0  0  0  0  0  0  0  0  0  0
   -1.7964   23.4453  -28.7378 H   0  0  0  0  0  0  0  0  0  0  0  0
    0.0855   21.5794  -31.2677 H   0  0  0  0  0  0  0  0  0  0  0  0
    0.9891   19.2891  -30.8792 H   0  0  0  0  0  0  0  0  0  0  0  0
    0.2775   17.8674  -26.6587 H   0  0  0  0  0  0  0  0  0  0  0  0
    1.3139   15.6624  -26.1484 H   0  0  0  0  0  0  0  0  0  0  0  0
    2.0593   14.1732  -28.0024 H   0  0  0  0  0  0  0  0  0  0  0  0
    1.7236   14.8580  -30.3704 H   0  0  0  0  0  0  0  0  0  0  0  0
   -1.4900   16.4120  -31.5820 H   0  0  0  0  0  0  0  0  0  0  0  0
   -1.4499   18.9339  -27.3166 H   0  0  0  0  0  0  0  0  0  0  0  0
   -2.3459   21.2276  -27.7018 H   0  0  0  0  0  0  0  0  0  0  0  0
   -4.5178   19.8547  -32.6023 H   0  0  0  0  0  0  0  0  0  0  0  0
  1  2  1  0
  2  3  1  0
  3  4  1  0
  4  5  1  0
  3  6  1  0
  6  7  2  0
  6  8  2  0
  6  9  1  0
  9 10  2  0
 10 11  1  0
 11 12  2  0
 12 13  1  0
 13 14  1  0
 14 15  1  0
 15 16  2  0
 16 17  1  0
 16 18  1  0
 18 19  1  0
 19 20  1  0
 20 21  2  0
 21 22  1  0
 22 23  2  0
 23 24  1  0
 24 25  2  0
 25 26  1  0
 26 27  2  0
 27 28  1  0
 28 29  2  0
 29 30  1  0
 30 31  2  0
 31 32  1  0
 32 33  1  0
 33 34  2  0
 23 35  1  0
 35 36  2  0
 18 37  1  0
 37 38  2  0
 13 39  2  0
 39  9  1  0
 37 14  1  0
 36 20  1  0
 29 24  1  0
 34 30  1  0
  1 40  1  0
  1 41  1  0
  1 42  1  0
  2 43  1  0
  2 44  1  0
  4 45  1  0
  4 46  1  0
  5 47  1  0
  5 48  1  0
  5 49  1  0
 10 50  1  0
 11 51  1  0
 12 52  1  0
 15 53  1  0
 19 54  1  0
 19 55  1  0
 21 56  1  0
 22 57  1  0
 25 58  1  0
 26 59  1  0
 27 60  1  0
 28 61  1  0
 34 62  1  0
 35 63  1  0
 36 64  1  0
 39 65  1  0
M  CHG  3  17  -1  32  -1  34   1
M  END
>  <UniqueID>  (30) 
29

>  <SMILES>  (30) 
CCN(CC)S(=O)(=O)c1cccc(-n2cc([O-])n(Cc3ccc(-c4ccccc4-c4n[n-]n[nH+]4)cc3)c2=O)c1

>  <Energy>  (30) 
159.9568714793541

>  <Genealogy>  (30) 
CCN(CC)S(=O)(=O)c1cccc(-n2cc([O-])n(Cc3ccc(-c4ccccc4-c4n[n-]n[nH+]4)cc3)c2=O)c1 (protonated)
CCN(CC)S(=O)(=O)c1cccc(-n2cc([O-])n(Cc3ccc(-c4ccccc4-c4n[n-]n[nH+]4)cc3)c2=O)c1 (3D coordinates assigned)
CCN(CC)S(=O)(=O)c1cccc(-n2cc([O-])n(Cc3ccc(-c4ccccc4-c4n[n-]n[nH+]4)cc3)c2=O)c1 (optimized conformer: 159.9568714793541 kcal/mol)

>  <smiles>  (30) 
CCN(CC)S(=O)(=O)c1cccc(-n2cc(O)n(Cc3ccc(-c4ccccc4-c4nn[nH]n4)cc3)c2=O)c1

>  <score_type>  (30) 
oracle

>  <origin>  (30) 
adg

>  <m_score__min__energy>  (30) 
-14.67

>  <m_primary>  (30) 
energy

$$$$
30:0
     RDKit          3D

 35 36  0  0  0  0  0  0  0  0999 V2000
   -2.5730   24.5450  -29.0910 C   0  0  0  0  0  0  0  0  0  0  0  0
   -3.4620   25.1320  -30.0360 O   0  0  0  0  0  0  0  0  0  0  0  0
   -4.6820   24.5650  -30.4330 C   0  0  0  0  0  0  0  0  0  0  0  0
   -5.9240   25.1030  -30.0470 C   0  0  0  0  0  0  0  0  0  0  0  0
   -7.1150   24.5040  -30.4670 C   0  0  0  0  0  0  0  0  0  0  0  0
   -7.0850   23.3510  -31.2670 C   0  0  0  0  0  0  0  0  0  0  0  0
   -8.3680   22.7290  -31.7530 C   0  0  0  0  0  0  0  0  0  0  0  0
   -8.5230   21.3620  -31.2110 N   0  0  0  0  0  0  0  0  0  0  0  0
   -8.5150   20.2740  -32.2180 C   0  0  0  0  0  0  0  0  0  0  0  0
   -7.2080   20.1700  -33.0230 C   0  0  0  0  0  0  0  0  0  0  0  0
   -6.9160   18.6830  -33.1450 C   0  0  0  0  0  0  0  0  0  0  0  0
   -7.5580   18.0400  -31.9290 C   0  0  0  0  0  0  0  0  0  0  0  0
   -8.7850   18.8840  -31.6160 C   0  0  0  0  0  0  0  0  0  0  0  0
   -5.8470   22.8240  -31.6640 C   0  0  0  0  0  0  0  0  0  0  0  0
   -4.6550   23.4240  -31.2450 C   0  0  0  0  0  0  0  0  0  0  0  0
   -3.4680   22.8950  -31.6330 F   0  0  0  0  0  0  0  0  0  0  0  0
   -2.9184   24.7731  -28.0718 H   0  0  0  0  0  0  0  0  0  0  0  0
   -2.5518   23.4548  -29.2356 H   0  0  0  0  0  0  0  0  0  0  0  0
   -1.5621   24.9537  -29.2356 H   0  0  0  0  0  0  0  0  0  0  0  0
   -5.9576   26.0000  -29.4112 H   0  0  0  0  0  0  0  0  0  0  0  0
   -8.0807   24.9384  -30.1691 H   0  0  0  0  0  0  0  0  0  0  0  0
   -9.2165   23.3467  -31.4235 H   0  0  0  0  0  0  0  0  0  0  0  0
   -8.3409   22.6735  -32.8513 H   0  0  0  0  0  0  0  0  0  0  0  0
   -9.4250   21.3150  -30.6800 H   0  0  0  0  0  0  0  0  0  0  0  0
   -7.7540   21.1610  -30.5280 H   0  0  0  0  0  0  0  0  0  0  0  0
   -9.3359   20.5651  -32.8899 H   0  0  0  0  0  0  0  0  0  0  0  0
   -7.3346   20.6188  -34.0193 H   0  0  0  0  0  0  0  0  0  0  0  0
   -6.3839   20.7060  -32.5294 H   0  0  0  0  0  0  0  0  0  0  0  0
   -7.3553   18.2800  -34.0694 H   0  0  0  0  0  0  0  0  0  0  0  0
   -5.8353   18.4826  -33.1886 H   0  0  0  0  0  0  0  0  0  0  0  0
   -7.8522   17.0041  -32.1534 H   0  0  0  0  0  0  0  0  0  0  0  0
   -6.8639   18.0011  -31.0765 H   0  0  0  0  0  0  0  0  0  0  0  0
   -9.6810   18.4382  -32.0726 H   0  0  0  0  0  0  0  0  0  0  0  0
   -8.9641   18.9445  -30.5324 H   0  0  0  0  0  0  0  0  0  0  0  0
   -5.8135   21.9334  -32.3088 H   0  0  0  0  0  0  0  0  0  0  0  0
  1  2  1  0
  2  3  1  0
  3  4  2  0
  4  5  1  0
  5  6  2  0
  6  7  1  0
  7  8  1  0
  8  9  1  0
  9 10  1  0
 10 11  1  0
 11 12  1  0
 12 13  1  0
  6 14  1  0
 14 15  2  0
 15 16  1  0
 15  3  1  0
 13  9  1  0
  1 17  1  0
  1 18  1  0
  1 19  1  0
  4 20  1  0
  5 21  1  0
  7 22  1  0
  7 23  1  0
  8 24  1  0
  8 25  1  0
  9 26  1  0
 10 27  1  0
 10 28  1  0
 11 29  1  0
 11 30  1  0
 12 31  1  0
 12 32  1  0
 13 33  1  0
 13 34  1  0
 14 35  1  0
M  CHG  1   8   1
M  END
>  <UniqueID>  (31) 
30

>  <SMILES>  (31) 
COc1ccc(C[NH2+]C2CCCC2)cc1F

>  <Energy>  (31) 
38.241047935756924

>  <Genealogy>  (31) 
COc1ccc(C[NH2+]C2CCCC2)cc1F (protonated)
COc1ccc(C[NH2+]C2CCCC2)cc1F (3D coordinates assigned)
COc1ccc(C[NH2+]C2CCCC2)cc1F (nonaromatic ring conformer: 38.241047935756924 kcal/mol)

>  <smiles>  (31) 
COc1ccc(CNC2CCCC2)cc1F

>  <score_type>  (31) 
oracle

>  <origin>  (31) 
adg

>  <m_score__min__energy>  (31) 
-6.2699999999999996

>  <m_primary>  (31) 
energy

$$$$
31:0
     RDKit          3D

 50 53  0  0  0  0  0  0  0  0999 V2000
   -1.9010   22.8560  -29.7010 C   0  0  0  0  0  0  0  0  0  0  0  0
   -2.7170   24.0180  -29.7960 O   0  0  0  0  0  0  0  0  0  0  0  0
   -4.0370   24.0240  -30.2690 C   0  0  0  0  0  0  0  0  0  0  0  0
   -4.6980   25.2530  -30.3760 C   0  0  0  0  0  0  0  0  0  0  0  0
   -6.0120   25.3120  -30.8430 C   0  0  0  0  0  0  0  0  0  0  0  0
   -6.6800   24.1420  -31.2080 C   0  0  0  0  0  0  0  0  0  0  0  0
   -6.0360   22.8950  -31.1120 C   0  0  0  0  0  0  0  0  0  0  0  0
   -6.7560   21.6130  -31.5020 C   0  0  1  0  0  0  0  0  0  0  0  0
   -8.2480   21.8930  -31.7280 C   0  0  0  0  0  0  0  0  0  0  0  0
   -8.9400   20.6900  -32.3120 C   0  0  0  0  0  0  0  0  0  0  0  0
  -10.1600   20.6280  -32.2540 O   0  0  0  0  0  0  0  0  0  0  0  0
   -8.1980   19.6150  -32.9450 N   0  0  2  0  0  0  0  0  0  0  0  0
   -8.1140   18.4370  -32.0470 C   0  0  0  0  0  0  0  0  0  0  0  0
   -7.0970   17.4330  -32.4740 N   0  0  0  0  0  0  0  0  0  0  0  0
   -5.8440   17.4800  -31.6880 C   0  0  0  0  0  0  0  0  0  0  0  0
   -4.7620   16.6930  -32.3780 C   0  0  0  0  0  0  0  0  0  0  0  0
   -4.7640   15.2880  -32.3410 C   0  0  0  0  0  0  0  0  0  0  0  0
   -3.7620   14.5660  -32.9970 C   0  0  0  0  0  0  0  0  0  0  0  0
   -2.7540   15.2380  -33.6920 C   0  0  0  0  0  0  0  0  0  0  0  0
   -2.7460   16.6360  -33.7340 C   0  0  0  0  0  0  0  0  0  0  0  0
   -3.7460   17.3620  -33.0800 C   0  0  0  0  0  0  0  0  0  0  0  0
   -6.8540   17.3920  -33.9310 C   0  0  0  0  0  0  0  0  0  0  0  0
   -6.1060   18.9330  -34.6030 S   0  0  0  0  0  0  0  0  0  0  0  0
   -6.8760   20.0010  -33.3770 C   0  0  0  0  0  0  0  0  0  0  0  0
   -6.1500   20.9270  -32.7100 C   0  0  0  0  0  0  0  0  0  0  0  0
   -4.7560   21.1410  -33.0400 C   0  0  0  0  0  0  0  0  0  0  0  0
   -3.6420   21.3120  -33.3020 N   0  0  0  0  0  0  0  0  0  0  0  0
   -4.7130   22.8440  -30.6380 C   0  0  0  0  0  0  0  0  0  0  0  0
   -1.7305   22.6133  -28.6417 H   0  0  0  0  0  0  0  0  0  0  0  0
   -2.4059   22.0121  -30.1939 H   0  0  0  0  0  0  0  0  0  0  0  0
   -0.9358   23.0444  -30.1939 H   0  0  0  0  0  0  0  0  0  0  0  0
   -4.1781   26.1792  -30.0900 H   0  0  0  0  0  0  0  0  0  0  0  0
   -6.5225   26.2830  -30.9236 H   0  0  0  0  0  0  0  0  0  0  0  0
   -7.7163   24.1954  -31.5729 H   0  0  0  0  0  0  0  0  0  0  0  0
   -6.6351   20.9136  -30.6617 H   0  0  0  0  0  0  0  0  0  0  0  0
   -8.7165   22.1455  -30.7653 H   0  0  0  0  0  0  0  0  0  0  0  0
   -8.3445   22.7304  -32.4347 H   0  0  0  0  0  0  0  0  0  0  0  0
   -8.7370   19.3470  -33.8030 H   0  0  0  0  0  0  0  0  0  0  0  0
   -7.8545   18.7872  -31.0371 H   0  0  0  0  0  0  0  0  0  0  0  0
   -9.0935   17.9374  -32.0772 H   0  0  0  0  0  0  0  0  0  0  0  0
   -5.5207   18.5262  -31.5835 H   0  0  0  0  0  0  0  0  0  0  0  0
   -6.0280   17.0405  -30.6966 H   0  0  0  0  0  0  0  0  0  0  0  0
   -5.5559   14.7548  -31.7945 H   0  0  0  0  0  0  0  0  0  0  0  0
   -3.7677   13.4665  -32.9656 H   0  0  0  0  0  0  0  0  0  0  0  0
   -1.9664   14.6678  -34.2063 H   0  0  0  0  0  0  0  0  0  0  0  0
   -1.9522   17.1648  -34.2821 H   0  0  0  0  0  0  0  0  0  0  0  0
   -3.7370   18.4614  -33.1154 H   0  0  0  0  0  0  0  0  0  0  0  0
   -6.1742   16.5543  -34.1457 H   0  0  0  0  0  0  0  0  0  0  0  0
   -7.8342   17.2738  -34.4160 H   0  0  0  0  0  0  0  0  0  0  0  0
   -4.2011   21.8740  -30.5545 H   0  0  0  0  0  0  0  0  0  0  0  0
  1  2  1  0
  2  3  1  0
  3  4  2  0
  4  5  1  0
  5  6  2  0
  6  7  1  0
  7  8  1  0
  8  9  1  0
  9 10  1  0
 10 11  2  0
 10 12  1  0
 12 13  1  0
 13 14  1  0
 14 15  1  0
 15 16  1  0
 16 17  2  0
 17 18  1  0
 18 19  2  0
 19 20  1  0
 20 21  2  0
 14 22  1  0
 22 23  1  0
 23 24  1  0
 24 25  2  0
 25 26  1  0
 26 27  3  0
  7 28  2  0
 28  3  1  0
 25  8  1  0
 24 12  1  0
 21 16  1  0
  1 29  1  0
  1 30  1  0
  1 31  1  0
  4 32  1  0
  5 33  1  0
  6 34  1  0
  8 35  1  1
  9 36  1  0
  9 37  1  0
 12 38  1  6
 13 39  1  0
 13 40  1  0
 15 41  1  0
 15 42  1  0
 17 43  1  0
 18 44  1  0
 19 45  1  0
 20 46  1  0
 21 47  1  0
 22 48  1  0
 22 49  1  0
 28 50  1  0
M  CHG  1  12   1
M  END
>  <UniqueID>  (32) 
31

>  <SMILES>  (32) 
COc1cccc([C@H]2CC(=O)[N@@H+]3CN(Cc4ccccc4)CSC3=C2C#N)c1

>  <Energy>  (32) 
73.9730843855897

>  <Genealogy>  (32) 
COc1cccc(C2CC(=O)[NH+]3CN(Cc4ccccc4)CSC3=C2C#N)c1 (protonated)
COc1cccc([C@H]2CC(=O)[N@@H+]3CN(Cc4ccccc4)CSC3=C2C#N)c1 (chirality)
COc1cccc([C@H]2CC(=O)[N@@H+]3CN(Cc4ccccc4)CSC3=C2C#N)c1 (3D coordinates assigned)
COc1cccc([C@H]2CC(=O)[N@@H+]3CN(Cc4ccccc4)CSC3=C2C#N)c1 (nonaromatic ring conformer: 73.9730843855897 kcal/mol)

>  <smiles>  (32) 
COc1cccc(C2CC(=O)N3CN(Cc4ccccc4)CSC3=C2C#N)c1

>  <score_type>  (32) 
oracle

>  <origin>  (32) 
adg

>  <m_score__min__energy>  (32) 
-9.2799999999999994

>  <m_primary>  (32) 
energy

$$$$
32:0
     RDKit          3D

 43 45  0  0  1  0  0  0  0  0999 V2000
   -2.7490   19.3860  -26.7940 C   0  0  0  0  0  0  0  0  0  0  0  0
   -1.8610   20.5980  -27.0780 C   0  0  0  0  0  0  0  0  0  0  0  0
   -2.0320   20.9420  -28.5390 C   0  0  0  0  0  0  0  0  0  0  0  0
   -2.3510   22.3580  -28.7860 C   0  0  0  0  0  0  0  0  0  0  0  0
   -3.1660   22.7320  -29.8350 C   0  0  0  0  0  0  0  0  0  0  0  0
   -3.4090   24.0770  -29.9880 C   0  0  0  0  0  0  0  0  0  0  0  0
   -4.1560   24.4500  -30.9470 N   0  0  0  0  0  0  0  0  0  0  0  0
   -5.5760   24.7300  -30.8580 C   0  0  0  0  0  0  0  0  0  0  0  0
   -6.2570   23.4950  -31.3870 C   0  0  0  0  0  0  0  0  0  0  0  0
   -5.5510   22.5240  -32.0790 C   0  0  0  0  0  0  0  0  0  0  0  0
   -6.2560   21.4130  -32.5340 C   0  0  0  0  0  0  0  0  0  0  0  0
   -7.6060   21.2660  -32.3150 C   0  0  0  0  0  0  0  0  0  0  0  0
   -8.3110   22.2340  -31.6250 C   0  0  0  0  0  0  0  0  0  0  0  0
   -7.6170   23.3440  -31.1680 C   0  0  0  0  0  0  0  0  0  0  0  0
   -2.8980   25.0210  -29.1790 N   0  0  0  0  0  0  0  0  0  0  0  0
   -2.1050   24.6410  -28.1590 C   0  0  0  0  0  0  0  0  0  0  0  0
   -1.5510   25.6690  -27.2810 C   0  0  0  0  0  0  0  0  0  0  0  0
   -1.7310   25.5860  -25.9150 C   0  0  0  0  0  0  0  0  0  0  0  0
   -1.1900   26.5760  -25.1430 C   0  0  0  0  0  0  0  0  0  0  0  0
   -0.4810   27.6340  -25.7160 C   0  0  0  0  0  0  0  0  0  0  0  0
   -0.3460   27.6440  -27.0930 C   0  0  0  0  0  0  0  0  0  0  0  0
   -0.8760   26.6730  -27.8450 N   0  0  0  0  0  0  0  0  0  0  0  0
   -1.8420   23.3240  -27.9750 N   0  0  0  0  0  0  0  0  0  0  0  0
   -2.8481   19.2508  -25.7069 H   0  0  0  0  0  0  0  0  0  0  0  0
   -3.7434   19.5485  -27.2354 H   0  0  0  0  0  0  0  0  0  0  0  0
   -2.2944   18.4869  -27.2354 H   0  0  0  0  0  0  0  0  0  0  0  0
   -2.1707   21.4476  -26.4517 H   0  0  0  0  0  0  0  0  0  0  0  0
   -0.8086   20.3742  -26.8493 H   0  0  0  0  0  0  0  0  0  0  0  0
   -1.0953   20.7016  -29.0632 H   0  0  0  0  0  0  0  0  0  0  0  0
   -2.8855   20.3539  -28.9073 H   0  0  0  0  0  0  0  0  0  0  0  0
   -3.6016   21.9879  -30.5180 H   0  0  0  0  0  0  0  0  0  0  0  0
   -5.8680   24.9139  -29.8135 H   0  0  0  0  0  0  0  0  0  0  0  0
   -5.8540   25.6285  -31.4284 H   0  0  0  0  0  0  0  0  0  0  0  0
   -4.4713   22.6274  -32.2624 H   0  0  0  0  0  0  0  0  0  0  0  0
   -5.7169   20.6287  -33.0856 H   0  0  0  0  0  0  0  0  0  0  0  0
   -8.1272   20.3733  -32.6910 H   0  0  0  0  0  0  0  0  0  0  0  0
   -9.3907   22.1270  -31.4437 H   0  0  0  0  0  0  0  0  0  0  0  0
   -8.1605   24.1256  -30.6169 H   0  0  0  0  0  0  0  0  0  0  0  0
   -3.1090   26.0170  -29.3350 H   0  0  0  0  0  0  0  0  0  0  0  0
   -2.2899   24.7529  -25.4637 H   0  0  0  0  0  0  0  0  0  0  0  0
   -1.3154   26.5386  -24.0508 H   0  0  0  0  0  0  0  0  0  0  0  0
   -0.0456   28.4307  -25.0950 H   0  0  0  0  0  0  0  0  0  0  0  0
    0.2058   28.4633  -27.5769 H   0  0  0  0  0  0  0  0  0  0  0  0
  1  2  1  0
  2  3  1  0
  3  4  1  0
  4  5  2  0
  5  6  1  0
  6  7  2  0
  7  8  1  0
  8  9  1  0
  9 10  2  0
 10 11  1  0
 11 12  2  0
 12 13  1  0
 13 14  2  0
  6 15  1  0
 15 16  1  0
 16 17  1  0
 17 18  2  0
 18 19  1  0
 19 20  2  0
 20 21  1  0
 21 22  2  0
 16 23  2  0
 23  4  1  0
 14  9  1  0
 22 17  1  0
  1 24  1  0
  1 25  1  0
  1 26  1  0
  2 27  1  0
  2 28  1  0
  3 29  1  0
  3 30  1  0
  5 31  1  0
  8 32  1  0
  8 33  1  0
 10 34  1  0
 11 35  1  0
 12 36  1  0
 13 37  1  0
 14 38  1  0
 15 39  1  0
 18 40  1  0
 19 41  1  0
 20 42  1  0
 21 43  1  0
M  END
>  <smiles>  (33) 
CCCc1cc(=NCc2ccccc2)[nH]c(-c2ccccn2)n1

>  <score_type>  (33) 
oracle

>  <origin>  (33) 
adg

>  <m_score__min__energy>  (33) 
-8.3900000000000006

>  <m_primary>  (33) 
energy

$$$$
33:0
     RDKit          3D

 59 61  0  0  0  0  0  0  0  0999 V2000
   -4.1130   24.5360  -27.0230 C   0  0  0  0  0  0  0  0  0  0  0  0
   -3.2910   23.4390  -28.2190 S   0  0  0  0  0  0  0  0  0  0  0  0
   -4.5430   23.6770  -29.4810 C   0  0  0  0  0  0  0  0  0  0  0  0
   -5.0670   24.9540  -29.7160 C   0  0  0  0  0  0  0  0  0  0  0  0
   -6.0470   25.1380  -30.6960 C   0  0  0  0  0  0  0  0  0  0  0  0
   -6.5070   24.0480  -31.4420 C   0  0  0  0  0  0  0  0  0  0  0  0
   -5.9910   22.7650  -31.2050 C   0  0  0  0  0  0  0  0  0  0  0  0
   -6.4630   21.6420  -31.9690 N   0  0  0  0  0  0  0  0  0  0  0  0
   -7.7330   21.1770  -32.0080 C   0  0  0  0  0  0  0  0  0  0  0  0
   -8.8910   21.7720  -31.2650 C   0  0  0  0  0  0  0  0  0  0  0  0
   -7.8120   20.0660  -32.8260 C   0  0  0  0  0  0  0  0  0  0  0  0
   -6.5350   19.8450  -33.3050 C   0  0  0  0  0  0  0  0  0  0  0  0
   -6.1190   18.6850  -34.1600 C   0  0  0  0  0  0  0  0  0  0  0  0
   -6.8610   17.4810  -33.7660 N   0  0  0  0  0  0  0  0  0  0  0  0
   -6.6310   17.1410  -32.3550 C   0  0  0  0  0  0  0  0  0  0  0  0
   -5.3020   16.3730  -32.1610 C   0  0  0  0  0  0  0  0  0  0  0  0
   -4.8430   15.7140  -33.4140 N   0  0  0  0  0  0  0  0  0  0  0  0
   -3.3670   15.7920  -33.5840 C   0  0  0  0  0  0  0  0  0  0  0  0
   -2.6210   14.5490  -33.0540 C   0  0  0  0  0  0  0  0  0  0  0  0
   -3.3790   13.9370  -31.9540 N   0  0  0  0  0  0  0  0  0  0  0  0
   -2.5910   12.8750  -31.3100 C   0  0  0  0  0  0  0  0  0  0  0  0
   -4.6710   13.4020  -32.4350 C   0  0  0  0  0  0  0  0  0  0  0  0
   -5.3210   14.3150  -33.4990 C   0  0  0  0  0  0  0  0  0  0  0  0
   -5.7230   20.8310  -32.7610 C   0  0  0  0  0  0  0  0  0  0  0  0
   -4.2390   20.9540  -32.9580 C   0  0  0  0  0  0  0  0  0  0  0  0
   -5.0070   22.5850  -30.2220 C   0  0  0  0  0  0  0  0  0  0  0  0
   -3.8698   24.2115  -26.0005 H   0  0  0  0  0  0  0  0  0  0  0  0
   -3.7644   25.5685  -27.1727 H   0  0  0  0  0  0  0  0  0  0  0  0
   -5.2019   24.4913  -27.1727 H   0  0  0  0  0  0  0  0  0  0  0  0
   -4.7076   25.8124  -29.1296 H   0  0  0  0  0  0  0  0  0  0  0  0
   -6.4570   26.1419  -30.8807 H   0  0  0  0  0  0  0  0  0  0  0  0
   -7.2746   24.1969  -32.2158 H   0  0  0  0  0  0  0  0  0  0  0  0
   -8.7170   21.6826  -30.1825 H   0  0  0  0  0  0  0  0  0  0  0  0
   -8.9924   22.8339  -31.5336 H   0  0  0  0  0  0  0  0  0  0  0  0
   -9.8133   21.2361  -31.5336 H   0  0  0  0  0  0  0  0  0  0  0  0
   -8.7122   19.4753  -33.0510 H   0  0  0  0  0  0  0  0  0  0  0  0
   -6.3309   18.9150  -35.2146 H   0  0  0  0  0  0  0  0  0  0  0  0
   -5.0419   18.5057  -34.0271 H   0  0  0  0  0  0  0  0  0  0  0  0
   -7.8820   17.6900  -33.8670 H   0  0  0  0  0  0  0  0  0  0  0  0
   -6.5957   18.0692  -31.7658 H   0  0  0  0  0  0  0  0  0  0  0  0
   -7.4539   16.4926  -32.0199 H   0  0  0  0  0  0  0  0  0  0  0  0
   -4.5287   17.0819  -31.8303 H   0  0  0  0  0  0  0  0  0  0  0  0
   -5.4736   15.5872  -31.4106 H   0  0  0  0  0  0  0  0  0  0  0  0
   -5.2790   16.2140  -34.2250 H   0  0  0  0  0  0  0  0  0  0  0  0
   -3.1450   15.9009  -34.6558 H   0  0  0  0  0  0  0  0  0  0  0  0
   -3.0182   16.6542  -32.9967 H   0  0  0  0  0  0  0  0  0  0  0  0
   -2.5071   13.8182  -33.8682 H   0  0  0  0  0  0  0  0  0  0  0  0
   -1.6310   14.8536  -32.6837 H   0  0  0  0  0  0  0  0  0  0  0  0
   -2.6651   12.9749  -30.2171 H   0  0  0  0  0  0  0  0  0  0  0  0
   -2.9806   11.8928  -31.6157 H   0  0  0  0  0  0  0  0  0  0  0  0
   -1.5380   12.9631  -31.6157 H   0  0  0  0  0  0  0  0  0  0  0  0
   -4.5009   12.4090  -32.8765 H   0  0  0  0  0  0  0  0  0  0  0  0
   -5.3545   13.3460  -31.5750 H   0  0  0  0  0  0  0  0  0  0  0  0
   -5.0806   13.9201  -34.4971 H   0  0  0  0  0  0  0  0  0  0  0  0
   -6.4058   14.3207  -33.3169 H   0  0  0  0  0  0  0  0  0  0  0  0
   -3.7412   20.9953  -31.9780 H   0  0  0  0  0  0  0  0  0  0  0  0
   -3.8703   20.0833  -33.5202 H   0  0  0  0  0  0  0  0  0  0  0  0
   -4.0187   21.8735  -33.5202 H   0  0  0  0  0  0  0  0  0  0  0  0
   -4.5985   21.5813  -30.0330 H   0  0  0  0  0  0  0  0  0  0  0  0
  1  2  1  0
  2  3  1  0
  3  4  2  0
  4  5  1  0
  5  6  2  0
  6  7  1  0
  7  8  1  0
  8  9  1  0
  9 10  1  0
  9 11  2  0
 11 12  1  0
 12 13  1  0
 13 14  1  0
 14 15  1  0
 15 16  1  0
 16 17  1  0
 17 18  1  0
 18 19  1  0
 19 20  1  0
 20 21  1  0
 20 22  1  0
 22 23  1  0
 12 24  2  0
 24 25  1  0
  7 26  2  0
 26  3  1  0
 24  8  1  0
 23 17  1  0
  1 27  1  0
  1 28  1  0
  1 29  1  0
  4 30  1  0
  5 31  1  0
  6 32  1  0
 10 33  1  0
 10 34  1  0
 10 35  1  0
 11 36  1  0
 13 37  1  0
 13 38  1  0
 14 39  1  0
 15 40  1  0
 15 41  1  0
 16 42  1  0
 16 43  1  0
 17 44  1  0
 18 45  1  0
 18 46  1  0
 19 47  1  0
 19 48  1  0
 21 49  1  0
 21 50  1  0
 21 51  1  0
 22 52  1  0
 22 53  1  0
 23 54  1  0
 23 55  1  0
 25 56  1  0
 25 57  1  0
 25 58  1  0
 26 59  1  0
M  CHG  1  17   1
M  END
>  <UniqueID>  (34) 
32

>  <SMILES>  (34) 
CSc1cccc(-n2c(C)cc(CNCC[NH+]3CCN(C)CC3)c2C)c1

>  <Energy>  (34) 
96.92446498253952

>  <Genealogy>  (34) 
CSc1cccc(-n2c(C)cc(CNCC[NH+]3CCN(C)CC3)c2C)c1 (protonated)
CSc1cccc(-n2c(C)cc(CNCC[NH+]3CCN(C)CC3)c2C)c1 (3D coordinates assigned)
CSc1cccc(-n2c(C)cc(CNCC[NH+]3CCN(C)CC3)c2C)c1 (nonaromatic ring conformer: 96.92446498253952 kcal/mol)

>  <smiles>  (34) 
CSc1cccc(-n2c(C)cc(CNCCN3CCN(C)CC3)c2C)c1

>  <score_type>  (34) 
oracle

>  <origin>  (34) 
adg

>  <m_score__min__energy>  (34) 
-7.7400000000000002

>  <m_primary>  (34) 
energy

$$$$
34:0
     RDKit          3D

 38 40  0  0  0  0  0  0  0  0999 V2000
   -1.9280   25.6660  -28.9390 N   0  0  0  0  0  0  0  0  0  0  0  0
   -1.0100   25.9280  -27.8790 C   0  0  0  0  0  0  0  0  0  0  0  0
   -0.4400   27.0510  -27.8240 O   0  0  0  0  0  0  0  0  0  0  0  0
   -0.7280   24.8950  -26.8560 C   0  0  0  0  0  0  0  0  0  0  0  0
   -0.3170   25.2580  -25.5630 C   0  0  0  0  0  0  0  0  0  0  0  0
   -0.0580   24.3040  -24.6290 N   0  0  0  0  0  0  0  0  0  0  0  0
   -0.1870   22.9790  -24.9050 C   0  0  0  0  0  0  0  0  0  0  0  0
   -0.6010   22.5590  -26.1810 C   0  0  0  0  0  0  0  0  0  0  0  0
   -0.7590   21.2080  -26.5260 O   0  0  0  0  0  0  0  0  0  0  0  0
   -1.9530   20.6220  -27.0480 C   0  0  0  0  0  0  0  0  0  0  0  0
   -2.2160   21.1070  -28.4490 C   0  0  0  0  0  0  0  0  0  0  0  0
   -1.3470   20.7450  -29.4890 C   0  0  0  0  0  0  0  0  0  0  0  0
   -1.5910   21.1810  -30.7920 C   0  0  0  0  0  0  0  0  0  0  0  0
   -2.7020   21.9800  -31.0690 C   0  0  0  0  0  0  0  0  0  0  0  0
   -3.5840   22.3570  -30.0400 C   0  0  0  0  0  0  0  0  0  0  0  0
   -4.7410   23.1720  -30.3180 N   0  0  0  0  0  0  0  0  0  0  0  0
   -6.1260   22.7110  -30.3140 C   0  0  0  0  0  0  0  0  0  0  0  0
   -6.9610   23.9110  -30.8240 C   0  0  0  0  0  0  0  0  0  0  0  0
   -6.0350   24.9790  -30.9850 O   0  0  0  0  0  0  0  0  0  0  0  0
   -4.7660   24.5370  -30.6940 C   0  0  0  0  0  0  0  0  0  0  0  0
   -3.7570   25.2890  -30.7010 O   0  0  0  0  0  0  0  0  0  0  0  0
   -3.3400   21.8980  -28.7330 C   0  0  0  0  0  0  0  0  0  0  0  0
   -0.8650   23.5300  -27.1520 C   0  0  0  0  0  0  0  0  0  0  0  0
   -1.6130   25.6690  -29.9350 H   0  0  0  0  0  0  0  0  0  0  0  0
   -0.2038   26.3211  -25.3040 H   0  0  0  0  0  0  0  0  0  0  0  0
    0.2510   24.5970  -23.6750 H   0  0  0  0  0  0  0  0  0  0  0  0
    0.0333   22.2331  -24.1271 H   0  0  0  0  0  0  0  0  0  0  0  0
   -1.8428   19.5276  -27.0596 H   0  0  0  0  0  0  0  0  0  0  0  0
   -2.7989   20.9139  -26.4083 H   0  0  0  0  0  0  0  0  0  0  0  0
   -0.4703   20.1154  -29.2767 H   0  0  0  0  0  0  0  0  0  0  0  0
   -0.9059   20.8943  -31.6034 H   0  0  0  0  0  0  0  0  0  0  0  0
   -2.8889   22.3171  -32.0992 H   0  0  0  0  0  0  0  0  0  0  0  0
   -6.2457   21.8466  -30.9837 H   0  0  0  0  0  0  0  0  0  0  0  0
   -6.4459   22.3864  -29.3128 H   0  0  0  0  0  0  0  0  0  0  0  0
   -7.4370   23.6670  -31.7852 H   0  0  0  0  0  0  0  0  0  0  0  0
   -7.7677   24.1731  -30.1236 H   0  0  0  0  0  0  0  0  0  0  0  0
   -4.0378   22.1619  -27.9246 H   0  0  0  0  0  0  0  0  0  0  0  0
   -1.1834   23.2207  -28.1584 H   0  0  0  0  0  0  0  0  0  0  0  0
  1  2  1  0
  2  3  2  0
  2  4  1  0
  4  5  2  0
  5  6  1  0
  6  7  2  0
  7  8  1  0
  8  9  1  0
  9 10  1  0
 10 11  1  0
 11 12  2  0
 12 13  1  0
 13 14  2  0
 14 15  1  0
 15 16  1  0
 16 17  1  0
 17 18  1  0
 18 19  1  0
 19 20  1  0
 20 21  2  0
 15 22  2  0
  8 23  2  0
 23  4  1  0
 22 11  1  0
 20 16  1  0
  1 24  1  0
  5 25  1  0
  6 26  1  0
  7 27  1  0
 10 28  1  0
 10 29  1  0
 12 30  1  0
 13 31  1  0
 14 32  1  0
 17 33  1  0
 17 34  1  0
 18 35  1  0
 18 36  1  0
 22 37  1  0
 23 38  1  0
M  CHG  2   1  -1   6   1
M  END
>  <UniqueID>  (35) 
33

>  <SMILES>  (35) 
[NH-]C(=O)c1c[nH+]cc(OCc2cccc(N3CCOC3=O)c2)c1

>  <Energy>  (35) 
57.94531520382489

>  <Genealogy>  (35) 
[NH-]C(=O)c1c[nH+]cc(OCc2cccc(N3CCOC3=O)c2)c1 (protonated)
[NH-]C(=O)c1c[nH+]cc(OCc2cccc(N3CCOC3=O)c2)c1 (3D coordinates assigned)
[NH-]C(=O)c1c[nH+]cc(OCc2cccc(N3CCOC3=O)c2)c1 (nonaromatic ring conformer: 57.94531520382489 kcal/mol)

>  <smiles>  (35) 
NC(=O)c1cncc(OCc2cccc(N3CCOC3=O)c2)c1

>  <score_type>  (35) 
oracle

>  <origin>  (35) 
adg

>  <m_score__min__energy>  (35) 
-9.4100000000000001

>  <m_primary>  (35) 
energy

$$$$
35:0
     RDKit          3D

 52 55  0  0  0  0  0  0  0  0999 V2000
   -5.6760   25.3550  -30.1410 C   0  0  0  0  0  0  0  0  0  0  0  0
   -4.2960   25.2490  -30.4770 O   0  0  0  0  0  0  0  0  0  0  0  0
   -3.5350   24.0730  -30.3680 C   0  0  0  0  0  0  0  0  0  0  0  0
   -3.9380   22.8670  -30.9670 C   0  0  0  0  0  0  0  0  0  0  0  0
   -3.1590   21.7050  -30.8450 C   0  0  0  0  0  0  0  0  0  0  0  0
   -1.9350   21.7540  -30.1390 C   0  0  0  0  0  0  0  0  0  0  0  0
   -1.5540   22.9590  -29.5220 C   0  0  0  0  0  0  0  0  0  0  0  0
   -2.3420   24.1180  -29.6400 C   0  0  0  0  0  0  0  0  0  0  0  0
   -1.9690   25.3370  -29.0500 O   0  0  0  0  0  0  0  0  0  0  0  0
   -1.1290   25.4580  -27.9060 C   0  0  0  0  0  0  0  0  0  0  0  0
   -1.0320   20.5420  -29.9620 C   0  0  0  0  0  0  0  0  0  0  0  0
   -0.4850   19.8520  -31.2420 C   0  0  0  0  0  0  0  0  0  0  0  0
   -1.4890   19.1460  -32.0640 N   0  0  0  0  0  0  0  0  0  0  0  0
   -0.9290   18.1790  -33.0290 C   0  0  0  0  0  0  0  0  0  0  0  0
   -1.8070   16.9690  -33.1060 C   0  0  0  0  0  0  0  0  0  0  0  0
   -1.5360   15.7250  -32.5770 C   0  0  0  0  0  0  0  0  0  0  0  0
   -2.5720   14.9560  -32.8180 O   0  0  0  0  0  0  0  0  0  0  0  0
   -3.4550   15.6770  -33.4780 C   0  0  0  0  0  0  0  0  0  0  0  0
   -4.7710   15.1610  -33.9000 C   0  0  0  0  0  0  0  0  0  0  0  0
   -4.8390   13.8620  -34.4330 C   0  0  0  0  0  0  0  0  0  0  0  0
   -6.0630   13.3210  -34.8330 C   0  0  0  0  0  0  0  0  0  0  0  0
   -7.2310   14.0740  -34.7190 C   0  0  0  0  0  0  0  0  0  0  0  0
   -7.1760   15.3750  -34.2150 C   0  0  0  0  0  0  0  0  0  0  0  0
   -5.9560   15.9290  -33.8070 C   0  0  0  0  0  0  0  0  0  0  0  0
   -5.9630   17.7640  -33.2460 Br  0  0  0  0  0  0  0  0  0  0  0  0
   -3.0270   16.9410  -33.6710 N   0  0  0  0  0  0  0  0  0  0  0  0
   -2.5840   19.9960  -32.5920 C   0  0  0  0  0  0  0  0  0  0  0  0
   -3.6080   20.4470  -31.5310 C   0  0  0  0  0  0  0  0  0  0  0  0
   -5.7873   25.3636  -29.0467 H   0  0  0  0  0  0  0  0  0  0  0  0
   -6.0845   26.2872  -30.5584 H   0  0  0  0  0  0  0  0  0  0  0  0
   -6.2220   24.4961  -30.5584 H   0  0  0  0  0  0  0  0  0  0  0  0
   -4.8767   22.8329  -31.5394 H   0  0  0  0  0  0  0  0  0  0  0  0
   -0.6233   22.9957  -28.9368 H   0  0  0  0  0  0  0  0  0  0  0  0
   -1.7372   25.3704  -26.9936 H   0  0  0  0  0  0  0  0  0  0  0  0
   -0.3725   24.6596  -27.9205 H   0  0  0  0  0  0  0  0  0  0  0  0
   -0.6286   26.4375  -27.9205 H   0  0  0  0  0  0  0  0  0  0  0  0
   -0.1647   20.8634  -29.3666 H   0  0  0  0  0  0  0  0  0  0  0  0
   -1.6758   19.7836  -29.4926 H   0  0  0  0  0  0  0  0  0  0  0  0
   -0.0165   20.6247  -31.8693 H   0  0  0  0  0  0  0  0  0  0  0  0
    0.2152   19.0792  -30.8920 H   0  0  0  0  0  0  0  0  0  0  0  0
   -0.8674   18.6486  -34.0218 H   0  0  0  0  0  0  0  0  0  0  0  0
    0.0754   17.8770  -32.6974 H   0  0  0  0  0  0  0  0  0  0  0  0
   -0.6175   15.4302  -32.0484 H   0  0  0  0  0  0  0  0  0  0  0  0
   -3.9200   13.2663  -34.5360 H   0  0  0  0  0  0  0  0  0  0  0  0
   -6.1056   12.2994  -35.2386 H   0  0  0  0  0  0  0  0  0  0  0  0
   -8.1955   13.6432  -35.0260 H   0  0  0  0  0  0  0  0  0  0  0  0
   -8.0982   15.9696  -34.1378 H   0  0  0  0  0  0  0  0  0  0  0  0
   -3.5370   17.7400  -34.1080 H   0  0  0  0  0  0  0  0  0  0  0  0
   -2.1360   20.8944  -33.0415 H   0  0  0  0  0  0  0  0  0  0  0  0
   -3.1352   19.3821  -33.3195 H   0  0  0  0  0  0  0  0  0  0  0  0
   -4.5754   20.6310  -32.0211 H   0  0  0  0  0  0  0  0  0  0  0  0
   -3.7013   19.6523  -30.7762 H   0  0  0  0  0  0  0  0  0  0  0  0
  1  2  1  0
  2  3  1  0
  3  4  2  0
  4  5  1  0
  5  6  2  0
  6  7  1  0
  7  8  2  0
  8  9  1  0
  9 10  1  0
  6 11  1  0
 11 12  1  0
 12 13  1  0
 13 14  1  0
 14 15  1  0
 15 16  2  0
 16 17  1  0
 17 18  1  0
 18 19  1  0
 19 20  2  0
 20 21  1  0
 21 22  2  0
 22 23  1  0
 23 24  2  0
 24 25  1  0
 18 26  2  0
 13 27  1  0
 27 28  1  0
  8  3  1  0
 26 15  1  0
 28  5  1  0
 24 19  1  0
  1 29  1  0
  1 30  1  0
  1 31  1  0
  4 32  1  0
  7 33  1  0
 10 34  1  0
 10 35  1  0
 10 36  1  0
 11 37  1  0
 11 38  1  0
 12 39  1  0
 12 40  1  0
 14 41  1  0
 14 42  1  0
 16 43  1  0
 20 44  1  0
 21 45  1  0
 22 46  1  0
 23 47  1  0
 26 48  1  0
 27 49  1  0
 27 50  1  0
 28 51  1  0
 28 52  1  0
M  CHG  1  26   1
M  END
>  <UniqueID>  (36) 
34

>  <SMILES>  (36) 
COc1cc2c(cc1OC)CCN(Cc1coc(-c3ccccc3Br)[nH+]1)CC2

>  <Energy>  (36) 
106.8140226857318

>  <Genealogy>  (36) 
COc1cc2c(cc1OC)CCN(Cc1coc(-c3ccccc3Br)[nH+]1)CC2 (protonated)
COc1cc2c(cc1OC)CCN(Cc1coc(-c3ccccc3Br)[nH+]1)CC2 (3D coordinates assigned)
COc1cc2c(cc1OC)CCN(Cc1coc(-c3ccccc3Br)[nH+]1)CC2 (nonaromatic ring conformer: 106.8140226857318 kcal/mol)

>  <smiles>  (36) 
COc1cc2c(cc1OC)CCN(Cc1coc(-c3ccccc3Br)n1)CC2

>  <score_type>  (36) 
oracle

>  <origin>  (36) 
adg

>  <m_score__min__energy>  (36) 
-6.4100000000000001

>  <m_primary>  (36) 
energy

$$$$
36:0
     RDKit          3D

 49 51  0  0  0  0  0  0  0  0999 V2000
   -0.3540   27.3030  -23.7240 C   0  0  0  0  0  0  0  0  0  0  0  0
   -0.4820   27.7970  -25.1610 C   0  0  0  0  0  0  0  0  0  0  0  0
   -1.1110   26.7440  -26.0330 C   0  0  0  0  0  0  0  0  0  0  0  0
   -2.2000   25.9920  -25.5650 C   0  0  0  0  0  0  0  0  0  0  0  0
   -2.8010   25.0350  -26.3860 C   0  0  0  0  0  0  0  0  0  0  0  0
   -2.3400   24.8330  -27.7000 C   0  0  0  0  0  0  0  0  0  0  0  0
   -2.9250   23.8360  -28.5550 N   0  0  0  0  0  0  0  0  0  0  0  0
   -3.6830   24.1360  -29.7390 C   0  0  0  0  0  0  0  0  0  0  0  0
   -3.6660   25.2990  -30.2290 O   0  0  0  0  0  0  0  0  0  0  0  0
   -4.5170   23.0640  -30.3940 C   0  0  0  0  0  0  0  0  0  0  0  0
   -5.7690   23.6830  -31.0670 C   0  0  0  0  0  0  0  0  0  0  0  0
   -6.1910   22.9510  -32.3530 C   0  0  0  0  0  0  0  0  0  0  0  0
   -5.8950   21.5160  -32.2580 N   0  0  0  0  0  0  0  0  0  0  0  0
   -6.9690   20.5570  -32.2560 C   0  0  0  0  0  0  0  0  0  0  0  0
   -8.0570   20.8450  -31.6860 O   0  0  0  0  0  0  0  0  0  0  0  0
   -6.8210   19.2310  -32.8960 C   0  0  0  0  0  0  0  0  0  0  0  0
   -6.0740   19.0970  -34.0790 C   0  0  0  0  0  0  0  0  0  0  0  0
   -5.9200   17.8430  -34.6790 C   0  0  0  0  0  0  0  0  0  0  0  0
   -6.4960   16.7120  -34.0970 C   0  0  0  0  0  0  0  0  0  0  0  0
   -6.3440   15.4980  -34.6790 F   0  0  0  0  0  0  0  0  0  0  0  0
   -7.2250   16.8330  -32.9110 C   0  0  0  0  0  0  0  0  0  0  0  0
   -7.3830   18.0840  -32.3080 C   0  0  0  0  0  0  0  0  0  0  0  0
   -4.5230   21.0800  -31.9500 C   0  0  0  0  0  0  0  0  0  0  0  0
   -3.6800   22.2340  -31.3850 C   0  0  0  0  0  0  0  0  0  0  0  0
   -1.2470   25.5790  -28.1610 C   0  0  0  0  0  0  0  0  0  0  0  0
   -0.6440   26.5370  -27.3400 C   0  0  0  0  0  0  0  0  0  0  0  0
   -0.5684   28.1303  -23.0314 H   0  0  0  0  0  0  0  0  0  0  0  0
   -1.0701   26.4859  -23.5520 H   0  0  0  0  0  0  0  0  0  0  0  0
    0.6688   26.9365  -23.5520 H   0  0  0  0  0  0  0  0  0  0  0  0
   -1.1089   28.7007  -25.1774 H   0  0  0  0  0  0  0  0  0  0  0  0
    0.5229   28.0217  -25.5479 H   0  0  0  0  0  0  0  0  0  0  0  0
   -2.5819   26.1572  -24.5467 H   0  0  0  0  0  0  0  0  0  0  0  0
   -3.6400   24.4355  -26.0029 H   0  0  0  0  0  0  0  0  0  0  0  0
   -2.7320   22.8320  -28.3360 H   0  0  0  0  0  0  0  0  0  0  0  0
   -4.8673   22.3716  -29.6143 H   0  0  0  0  0  0  0  0  0  0  0  0
   -6.6047   23.6446  -30.3527 H   0  0  0  0  0  0  0  0  0  0  0  0
   -5.5122   24.7151  -31.3479 H   0  0  0  0  0  0  0  0  0  0  0  0
   -7.2717   23.0868  -32.5070 H   0  0  0  0  0  0  0  0  0  0  0  0
   -5.6275   23.3717  -33.1989 H   0  0  0  0  0  0  0  0  0  0  0  0
   -5.6081   19.9829  -34.5353 H   0  0  0  0  0  0  0  0  0  0  0  0
   -5.3440   17.7476  -35.6112 H   0  0  0  0  0  0  0  0  0  0  0  0
   -7.6757   15.9414  -32.4507 H   0  0  0  0  0  0  0  0  0  0  0  0
   -7.9496   18.1717  -31.3692 H   0  0  0  0  0  0  0  0  0  0  0  0
   -4.5635   20.2697  -31.2072 H   0  0  0  0  0  0  0  0  0  0  0  0
   -4.0532   20.7329  -32.8821 H   0  0  0  0  0  0  0  0  0  0  0  0
   -2.8023   21.8228  -30.8649 H   0  0  0  0  0  0  0  0  0  0  0  0
   -3.3548   22.8815  -32.2126 H   0  0  0  0  0  0  0  0  0  0  0  0
   -0.8603   25.4097  -29.1768 H   0  0  0  0  0  0  0  0  0  0  0  0
    0.2001   27.1309  -27.7204 H   0  0  0  0  0  0  0  0  0  0  0  0
  1  2  1  0
  2  3  1  0
  3  4  2  0
  4  5  1  0
  5  6  2  0
  6  7  1  0
  7  8  1  0
  8  9  2  0
  8 10  1  0
 10 11  1  0
 11 12  1  0
 12 13  1  0
 13 14  1  0
 14 15  2  0
 14 16  1  0
 16 17  2  0
 17 18  1  0
 18 19  2  0
 19 20  1  0
 19 21  1  0
 21 22  2  0
 13 23  1  0
 23 24  1  0
  6 25  1  0
 25 26  2  0
 26  3  1  0
 24 10  1  0
 22 16  1  0
  1 27  1  0
  1 28  1  0
  1 29  1  0
  2 30  1  0
  2 31  1  0
  4 32  1  0
  5 33  1  0
  7 34  1  0
 10 35  1  0
 11 36  1  0
 11 37  1  0
 12 38  1  0
 12 39  1  0
 17 40  1  0
 18 41  1  0
 21 42  1  0
 22 43  1  0
 23 44  1  0
 23 45  1  0
 24 46  1  0
 24 47  1  0
 25 48  1  0
 26 49  1  0
M  END
>  <UniqueID>  (37) 
35

>  <SMILES>  (37) 
CCc1ccc(NC(=O)C2CCN(C(=O)c3ccc(F)cc3)CC2)cc1

>  <Energy>  (37) 
57.754689639153156

>  <Genealogy>  (37) 
CCc1ccc(NC(=O)C2CCN(C(=O)c3ccc(F)cc3)CC2)cc1 (3D coordinates assigned)
CCc1ccc(NC(=O)C2CCN(C(=O)c3ccc(F)cc3)CC2)cc1 (nonaromatic ring conformer: 57.754689639153156 kcal/mol)

>  <smiles>  (37) 
CCc1ccc(NC(=O)C2CCN(C(=O)c3ccc(F)cc3)CC2)cc1

>  <score_type>  (37) 
oracle

>  <origin>  (37) 
adg

>  <m_score__min__energy>  (37) 
-9.0899999999999999

>  <m_primary>  (37) 
energy

$$$$
37:0
     RDKit          3D

 53 56  0  0  0  0  0  0  0  0999 V2000
   -5.7040   16.8670  -33.6240 C   0  0  0  0  0  0  0  0  0  0  0  0
   -6.4680   18.0510  -33.1100 C   0  0  0  0  0  0  0  0  0  0  0  0
   -7.5850   17.8730  -32.2800 C   0  0  0  0  0  0  0  0  0  0  0  0
   -8.3110   18.9790  -31.8290 C   0  0  0  0  0  0  0  0  0  0  0  0
   -7.9370   20.2720  -32.2110 C   0  0  0  0  0  0  0  0  0  0  0  0
   -8.8500   21.6640  -31.6370 S   0  0  0  0  0  0  0  0  0  0  0  0
   -9.1180   21.4940  -30.1690 O   0  0  0  0  0  0  0  0  0  0  0  0
  -10.1600   21.7720  -32.3650 O   0  0  0  0  0  0  0  0  0  0  0  0
   -7.9420   23.1220  -31.8850 N   0  0  0  0  0  0  0  0  0  0  0  0
   -6.7960   23.5040  -31.1030 C   0  0  0  0  0  0  0  0  0  0  0  0
   -6.1020   24.7060  -31.3310 C   0  0  0  0  0  0  0  0  0  0  0  0
   -4.9880   25.0420  -30.5570 C   0  0  0  0  0  0  0  0  0  0  0  0
   -4.5470   24.1900  -29.5260 C   0  0  0  0  0  0  0  0  0  0  0  0
   -3.3600   24.5220  -28.6940 C   0  0  0  0  0  0  0  0  0  0  0  0
   -3.3790   24.4250  -27.2950 C   0  0  0  0  0  0  0  0  0  0  0  0
   -2.2360   24.7480  -26.5680 C   0  0  0  0  0  0  0  0  0  0  0  0
   -1.0770   25.1580  -27.2440 C   0  0  0  0  0  0  0  0  0  0  0  0
    0.1390   25.5000  -26.5360 N   0  0  0  0  0  0  0  0  0  0  0  0
    0.1030   26.4890  -25.4460 C   0  0  0  0  0  0  0  0  0  0  0  0
    1.0520   26.0840  -24.3070 C   0  0  0  0  0  0  0  0  0  0  0  0
    2.4450   25.6220  -24.7890 C   0  0  0  0  0  0  0  0  0  0  0  0
    2.6130   25.6920  -26.3090 C   0  0  0  0  0  0  0  0  0  0  0  0
    1.4420   24.9970  -27.0120 C   0  0  0  0  0  0  0  0  0  0  0  0
   -1.1130   25.2250  -28.6040 N   0  0  0  0  0  0  0  0  0  0  0  0
   -2.2090   24.9190  -29.2990 N   0  0  0  0  0  0  0  0  0  0  0  0
   -5.2400   22.9860  -29.3050 C   0  0  0  0  0  0  0  0  0  0  0  0
   -6.3520   22.6510  -30.0820 C   0  0  0  0  0  0  0  0  0  0  0  0
   -6.8350   20.4510  -33.0580 C   0  0  0  0  0  0  0  0  0  0  0  0
   -6.1060   19.3460  -33.5080 C   0  0  0  0  0  0  0  0  0  0  0  0
   -5.3245   16.2789  -32.7754 H   0  0  0  0  0  0  0  0  0  0  0  0
   -6.3683   16.2399  -34.2368 H   0  0  0  0  0  0  0  0  0  0  0  0
   -4.8589   17.2138  -34.2368 H   0  0  0  0  0  0  0  0  0  0  0  0
   -7.8907   16.8589  -31.9830 H   0  0  0  0  0  0  0  0  0  0  0  0
   -9.1801   18.8322  -31.1709 H   0  0  0  0  0  0  0  0  0  0  0  0
   -8.2890   23.7700  -32.6280 H   0  0  0  0  0  0  0  0  0  0  0  0
   -6.4392   25.3877  -32.1257 H   0  0  0  0  0  0  0  0  0  0  0  0
   -4.4504   25.9810  -30.7550 H   0  0  0  0  0  0  0  0  0  0  0  0
   -4.2909   24.0959  -26.7753 H   0  0  0  0  0  0  0  0  0  0  0  0
   -2.2418   24.6821  -25.4700 H   0  0  0  0  0  0  0  0  0  0  0  0
    0.4098   27.4695  -25.8390 H   0  0  0  0  0  0  0  0  0  0  0  0
   -0.9218   26.5378  -25.0492 H   0  0  0  0  0  0  0  0  0  0  0  0
    1.1850   26.9502  -23.6422 H   0  0  0  0  0  0  0  0  0  0  0  0
    0.5901   25.2268  -23.7954 H   0  0  0  0  0  0  0  0  0  0  0  0
    3.2066   26.2648  -24.3235 H   0  0  0  0  0  0  0  0  0  0  0  0
    2.5581   24.5676  -24.4966 H   0  0  0  0  0  0  0  0  0  0  0  0
    2.6481   26.7463  -26.6210 H   0  0  0  0  0  0  0  0  0  0  0  0
    3.5474   25.1824  -26.5871 H   0  0  0  0  0  0  0  0  0  0  0  0
    1.5191   25.1773  -28.0944 H   0  0  0  0  0  0  0  0  0  0  0  0
    1.4967   23.9221  -26.7847 H   0  0  0  0  0  0  0  0  0  0  0  0
   -4.9032   22.3014  -28.5126 H   0  0  0  0  0  0  0  0  0  0  0  0
   -6.8850   21.7079  -29.8908 H   0  0  0  0  0  0  0  0  0  0  0  0
   -6.5425   21.4645  -33.3699 H   0  0  0  0  0  0  0  0  0  0  0  0
   -5.2452   19.4931  -34.1768 H   0  0  0  0  0  0  0  0  0  0  0  0
  1  2  1  0
  2  3  2  0
  3  4  1  0
  4  5  2  0
  5  6  1  0
  6  7  2  0
  6  8  2  0
  6  9  1  0
  9 10  1  0
 10 11  2  0
 11 12  1  0
 12 13  2  0
 13 14  1  0
 14 15  2  0
 15 16  1  0
 16 17  2  0
 17 18  1  0
 18 19  1  0
 19 20  1  0
 20 21  1  0
 21 22  1  0
 22 23  1  0
 17 24  1  0
 24 25  2  0
 13 26  1  0
 26 27  2  0
  5 28  1  0
 28 29  2  0
 29  2  1  0
 27 10  1  0
 25 14  1  0
 23 18  1  0
  1 30  1  0
  1 31  1  0
  1 32  1  0
  3 33  1  0
  4 34  1  0
  9 35  1  0
 11 36  1  0
 12 37  1  0
 15 38  1  0
 16 39  1  0
 19 40  1  0
 19 41  1  0
 20 42  1  0
 20 43  1  0
 21 44  1  0
 21 45  1  0
 22 46  1  0
 22 47  1  0
 23 48  1  0
 23 49  1  0
 26 50  1  0
 27 51  1  0
 28 52  1  0
 29 53  1  0
M  END
>  <UniqueID>  (38) 
36

>  <SMILES>  (38) 
Cc1ccc(S(=O)(=O)Nc2ccc(-c3ccc(N4CCCCC4)nn3)cc2)cc1

>  <Energy>  (38) 
66.19980194558175

>  <Genealogy>  (38) 
Cc1ccc(S(=O)(=O)Nc2ccc(-c3ccc(N4CCCCC4)nn3)cc2)cc1 (3D coordinates assigned)
Cc1ccc(S(=O)(=O)Nc2ccc(-c3ccc(N4CCCCC4)nn3)cc2)cc1 (nonaromatic ring conformer: 66.19980194558175 kcal/mol)

>  <smiles>  (38) 
Cc1ccc(S(=O)(=O)Nc2ccc(-c3ccc(N4CCCCC4)nn3)cc2)cc1

>  <score_type>  (38) 
oracle

>  <origin>  (38) 
adg

>  <m_score__min__energy>  (38) 
-10.1

>  <m_primary>  (38) 
energy

$$$$
38:0
     RDKit          3D

 56 59  0  0  0  0  0  0  0  0999 V2000
   -3.0370   20.9180  -27.7900 C   0  0  0  0  0  0  0  0  0  0  0  0
   -3.4840   22.3790  -27.8490 C   0  0  0  0  0  0  0  0  0  0  0  0
   -4.5470   22.6390  -28.9350 C   0  0  0  0  0  0  0  0  0  0  0  0
   -3.9560   23.2410  -30.1530 N   0  0  0  0  0  0  0  0  0  0  0  0
   -3.9710   24.7260  -30.1450 C   0  0  0  0  0  0  0  0  0  0  0  0
   -5.3070   25.3820  -30.5710 C   0  0  0  0  0  0  0  0  0  0  0  0
   -6.1190   24.5600  -31.5690 C   0  0  0  0  0  0  0  0  0  0  0  0
   -2.6500   22.6650  -30.5490 C   0  0  0  0  0  0  0  0  0  0  0  0
   -2.7490   22.0780  -31.9620 C   0  0  0  0  0  0  0  0  0  0  0  0
   -2.5790   20.5520  -31.9760 C   0  0  0  0  0  0  0  0  0  0  0  0
   -3.6520   19.9070  -32.7420 N   0  0  0  0  0  0  0  0  0  0  0  0
   -3.5520   18.8640  -33.6120 C   0  0  0  0  0  0  0  0  0  0  0  0
   -2.3960   18.1960  -34.0330 C   0  0  0  0  0  0  0  0  0  0  0  0
   -2.5430   17.1040  -34.9080 C   0  0  0  0  0  0  0  0  0  0  0  0
   -3.8230   16.6920  -35.3400 C   0  0  0  0  0  0  0  0  0  0  0  0
   -4.9760   17.3660  -34.9000 C   0  0  0  0  0  0  0  0  0  0  0  0
   -4.8010   18.4470  -34.0420 C   0  0  0  0  0  0  0  0  0  0  0  0
   -5.7040   19.2630  -33.4080 C   0  0  0  0  0  0  0  0  0  0  0  0
   -7.0560   19.2410  -33.4090 N   0  0  0  0  0  0  0  0  0  0  0  0
   -7.7150   20.1340  -32.6120 C   0  0  0  0  0  0  0  0  0  0  0  0
   -9.1120   20.1530  -32.5820 C   0  0  0  0  0  0  0  0  0  0  0  0
   -9.7830   21.0610  -31.7570 C   0  0  0  0  0  0  0  0  0  0  0  0
   -9.0620   21.9540  -30.9570 C   0  0  0  0  0  0  0  0  0  0  0  0
   -7.6640   21.9500  -30.9750 C   0  0  0  0  0  0  0  0  0  0  0  0
   -6.9740   21.0480  -31.7960 C   0  0  0  0  0  0  0  0  0  0  0  0
   -5.6040   21.0270  -31.8180 N   0  0  0  0  0  0  0  0  0  0  0  0
   -4.9840   20.1320  -32.6320 C   0  0  0  0  0  0  0  0  0  0  0  0
   -2.9415   20.6059  -26.7395 H   0  0  0  0  0  0  0  0  0  0  0  0
   -3.7828   20.2857  -28.2940 H   0  0  0  0  0  0  0  0  0  0  0  0
   -2.0651   20.8113  -28.2940 H   0  0  0  0  0  0  0  0  0  0  0  0
   -3.9058   22.6565  -26.8717 H   0  0  0  0  0  0  0  0  0  0  0  0
   -2.6006   22.9840  -28.1010 H   0  0  0  0  0  0  0  0  0  0  0  0
   -5.0212   21.6838  -29.2045 H   0  0  0  0  0  0  0  0  0  0  0  0
   -5.2844   23.3466  -28.5281 H   0  0  0  0  0  0  0  0  0  0  0  0
   -3.7394   25.0616  -29.1234 H   0  0  0  0  0  0  0  0  0  0  0  0
   -3.2288   25.0392  -30.8940 H   0  0  0  0  0  0  0  0  0  0  0  0
   -5.9195   25.5333  -29.6699 H   0  0  0  0  0  0  0  0  0  0  0  0
   -5.0489   26.3251  -31.0750 H   0  0  0  0  0  0  0  0  0  0  0  0
   -6.7904   23.8803  -31.0238 H   0  0  0  0  0  0  0  0  0  0  0  0
   -6.7148   25.2349  -32.2011 H   0  0  0  0  0  0  0  0  0  0  0  0
   -5.4368   23.9725  -32.2011 H   0  0  0  0  0  0  0  0  0  0  0  0
   -1.8833   23.4536  -30.5339 H   0  0  0  0  0  0  0  0  0  0  0  0
   -2.3752   21.8678  -29.8427 H   0  0  0  0  0  0  0  0  0  0  0  0
   -3.7357   22.3272  -32.3796 H   0  0  0  0  0  0  0  0  0  0  0  0
   -1.9356   22.5113  -32.5625 H   0  0  0  0  0  0  0  0  0  0  0  0
   -1.6107   20.3027  -32.4345 H   0  0  0  0  0  0  0  0  0  0  0  0
   -2.6219   20.1865  -30.9394 H   0  0  0  0  0  0  0  0  0  0  0  0
   -1.4011   18.5157  -33.6895 H   0  0  0  0  0  0  0  0  0  0  0  0
   -1.6509   16.5650  -35.2596 H   0  0  0  0  0  0  0  0  0  0  0  0
   -3.9187   15.8374  -36.0259 H   0  0  0  0  0  0  0  0  0  0  0  0
   -5.9792   17.0502  -35.2223 H   0  0  0  0  0  0  0  0  0  0  0  0
   -9.6845   19.4528  -33.2081 H   0  0  0  0  0  0  0  0  0  0  0  0
  -10.8827   21.0732  -31.7369 H   0  0  0  0  0  0  0  0  0  0  0  0
   -9.5983   22.6636  -30.3099 H   0  0  0  0  0  0  0  0  0  0  0  0
   -7.1048   22.6561  -30.3436 H   0  0  0  0  0  0  0  0  0  0  0  0
   -5.0490   21.6780  -31.2190 H   0  0  0  0  0  0  0  0  0  0  0  0
  1  2  1  0
  2  3  1  0
  3  4  1  0
  4  5  1  0
  5  6  1  0
  6  7  1  0
  4  8  1  0
  8  9  1  0
  9 10  1  0
 10 11  1  0
 11 12  1  0
 12 13  2  0
 13 14  1  0
 14 15  2  0
 15 16  1  0
 16 17  2  0
 17 18  1  0
 18 19  2  0
 19 20  1  0
 20 21  2  0
 21 22  1  0
 22 23  2  0
 23 24  1  0
 24 25  2  0
 25 26  1  0
 26 27  2  0
 27 11  1  0
 17 12  1  0
 27 18  1  0
 25 20  1  0
  1 28  1  0
  1 29  1  0
  1 30  1  0
  2 31  1  0
  2 32  1  0
  3 33  1  0
  3 34  1  0
  5 35  1  0
  5 36  1  0
  6 37  1  0
  6 38  1  0
  7 39  1  0
  7 40  1  0
  7 41  1  0
  8 42  1  0
  8 43  1  0
  9 44  1  0
  9 45  1  0
 10 46  1  0
 10 47  1  0
 13 48  1  0
 14 49  1  0
 15 50  1  0
 16 51  1  0
 21 52  1  0
 22 53  1  0
 23 54  1  0
 24 55  1  0
 26 56  1  0
M  CHG  1  26   1
M  END
>  <UniqueID>  (39) 
37

>  <SMILES>  (39) 
CCCN(CCC)CCCn1c2ccccc2c2nc3ccccc3[nH+]c21

>  <Energy>  (39) 
103.28539010731853

>  <Genealogy>  (39) 
CCCN(CCC)CCCn1c2ccccc2c2nc3ccccc3[nH+]c21 (protonated)
CCCN(CCC)CCCn1c2ccccc2c2nc3ccccc3[nH+]c21 (3D coordinates assigned)
CCCN(CCC)CCCn1c2ccccc2c2nc3ccccc3[nH+]c21 (optimized conformer: 103.28539010731853 kcal/mol)

>  <smiles>  (39) 
CCCN(CCC)CCCn1c2ccccc2c2nc3ccccc3nc21

>  <score_type>  (39) 
oracle

>  <origin>  (39) 
adg

>  <m_score__min__energy>  (39) 
-8.4600000000000009

>  <m_primary>  (39) 
energy

$$$$
39:0
     RDKit          3D

 28 30  0  0  0  0  0  0  0  0999 V2000
   -4.4040   24.7430  -30.8400 O   0  0  0  0  0  0  0  0  0  0  0  0
   -4.8440   23.7320  -30.2280 C   0  0  0  0  0  0  0  0  0  0  0  0
   -4.2550   23.3390  -28.9730 N   0  0  0  0  0  0  0  0  0  0  0  0
   -3.2240   24.0880  -28.3070 C   0  0  0  0  0  0  0  0  0  0  0  0
   -2.0280   24.4270  -28.9660 C   0  0  0  0  0  0  0  0  0  0  0  0
   -1.0500   25.1800  -28.3090 C   0  0  0  0  0  0  0  0  0  0  0  0
   -1.2610   25.6130  -26.9980 C   0  0  0  0  0  0  0  0  0  0  0  0
   -2.4550   25.3010  -26.3440 C   0  0  0  0  0  0  0  0  0  0  0  0
   -3.4380   24.5490  -26.9950 C   0  0  0  0  0  0  0  0  0  0  0  0
   -4.5910   24.2530  -26.3450 F   0  0  0  0  0  0  0  0  0  0  0  0
   -5.9620   22.9640  -30.8260 C   0  0  0  0  0  0  0  0  0  0  0  0
   -7.2420   23.5500  -31.0090 C   0  0  0  0  0  0  0  0  0  0  0  0
   -8.2940   22.8110  -31.5710 C   0  0  0  0  0  0  0  0  0  0  0  0
   -8.0510   21.4930  -31.9360 C   0  0  0  0  0  0  0  0  0  0  0  0
   -9.1030   20.3800  -32.6190 S   0  0  0  0  0  0  0  0  0  0  0  0
   -7.9200   19.1680  -32.6570 C   0  0  0  0  0  0  0  0  0  0  0  0
   -6.7380   19.6010  -32.1560 N   0  0  0  0  0  0  0  0  0  0  0  0
   -6.8170   20.8960  -31.7560 C   0  0  0  0  0  0  0  0  0  0  0  0
   -5.7600   21.6150  -31.1970 C   0  0  0  0  0  0  0  0  0  0  0  0
   -4.5510   22.4430  -28.5290 H   0  0  0  0  0  0  0  0  0  0  0  0
   -1.8616   24.0983  -30.0025 H   0  0  0  0  0  0  0  0  0  0  0  0
   -0.1123   25.4319  -28.8259 H   0  0  0  0  0  0  0  0  0  0  0  0
   -0.4872   26.1994  -26.4809 H   0  0  0  0  0  0  0  0  0  0  0  0
   -2.6227   25.6479  -25.3137 H   0  0  0  0  0  0  0  0  0  0  0  0
   -7.4108   24.5942  -30.7071 H   0  0  0  0  0  0  0  0  0  0  0  0
   -9.2856   23.2637  -31.7187 H   0  0  0  0  0  0  0  0  0  0  0  0
   -8.0909   18.1519  -33.0421 H   0  0  0  0  0  0  0  0  0  0  0  0
   -4.7805   21.1375  -31.0467 H   0  0  0  0  0  0  0  0  0  0  0  0
  1  2  2  0
  2  3  1  0
  3  4  1  0
  4  5  2  0
  5  6  1  0
  6  7  2  0
  7  8  1  0
  8  9  2  0
  9 10  1  0
  2 11  1  0
 11 12  2  0
 12 13  1  0
 13 14  2  0
 14 15  1  0
 15 16  1  0
 16 17  2  0
 17 18  1  0
 18 19  2  0
  9  4  1  0
 19 11  1  0
 18 14  1  0
  3 20  1  0
  5 21  1  0
  6 22  1  0
  7 23  1  0
  8 24  1  0
 12 25  1  0
 13 26  1  0
 16 27  1  0
 19 28  1  0
M  END
>  <UniqueID>  (40) 
38

>  <SMILES>  (40) 
O=C(Nc1ccccc1F)c1ccc2scnc2c1

>  <Energy>  (40) 
72.52098586517904

>  <Genealogy>  (40) 
O=C(Nc1ccccc1F)c1ccc2scnc2c1 (3D coordinates assigned)
O=C(Nc1ccccc1F)c1ccc2scnc2c1 (optimized conformer: 72.52098586517904 kcal/mol)

>  <smiles>  (40) 
O=C(Nc1ccccc1F)c1ccc2scnc2c1

>  <score_type>  (40) 
oracle

>  <origin>  (40) 
adg

>  <m_score__min__energy>  (40) 
-7.3799999999999999

>  <m_primary>  (40) 
energy

$$$$
40:0
     RDKit          3D

 56 59  0  0  0  0  0  0  0  0999 V2000
   -7.2840   26.0445  -30.0984 H   0  0  0  0  0  0  0  0  0  0  0  0
   -6.5090   25.2940  -30.3130 C   0  0  0  0  0  0  0  0  0  0  0  0
   -5.2070   25.5670  -30.0440 N   0  0  0  0  0  0  0  0  0  0  0  0
   -4.2300   24.6540  -30.2990 C   0  0  0  0  0  0  0  0  0  0  0  0
   -2.9770   24.9210  -30.0730 N   0  0  0  0  0  0  0  0  0  0  0  0
   -2.1760   24.4490  -28.9770 C   0  0  0  0  0  0  0  0  0  0  0  0
   -0.9350   25.0470  -28.7380 C   0  0  0  0  0  0  0  0  0  0  0  0
   -0.6003   25.8831  -29.3696 H   0  0  0  0  0  0  0  0  0  0  0  0
   -0.1390   24.6010  -27.7290 N   0  0  0  0  0  0  0  0  0  0  0  0
   -0.4930   23.5580  -26.9310 C   0  0  0  0  0  0  0  0  0  0  0  0
    0.3250   23.1960  -25.9840 N   0  0  0  0  0  0  0  0  0  0  0  0
    0.0190   23.1260  -24.5560 C   0  0  0  0  0  0  0  0  0  0  0  0
   -0.6177   22.2496  -24.3651 H   0  0  0  0  0  0  0  0  0  0  0  0
    0.9613   23.0408  -23.9949 H   0  0  0  0  0  0  0  0  0  0  0  0
   -0.7200   24.3990  -24.0970 C   0  0  0  0  0  0  0  0  0  0  0  0
   -1.8001   24.2243  -24.2105 H   0  0  0  0  0  0  0  0  0  0  0  0
   -0.4082   24.5729  -23.0566 H   0  0  0  0  0  0  0  0  0  0  0  0
   -0.3750   25.6370  -24.8410 N   0  0  0  0  0  0  0  0  0  0  0  0
    0.1030   25.3290  -25.7210 H   0  0  0  0  0  0  0  0  0  0  0  0
    0.5860   26.4890  -24.1150 C   0  0  0  0  0  0  0  0  0  0  0  0
    0.4430   26.3622  -23.0317 H   0  0  0  0  0  0  0  0  0  0  0  0
    1.6116   26.1980  -24.3860 H   0  0  0  0  0  0  0  0  0  0  0  0
    0.4200   27.5421  -24.3860 H   0  0  0  0  0  0  0  0  0  0  0  0
   -1.5590   26.4130  -25.2500 C   0  0  0  0  0  0  0  0  0  0  0  0
   -2.0944   26.7639  -24.3554 H   0  0  0  0  0  0  0  0  0  0  0  0
   -1.2409   27.2784  -25.8499 H   0  0  0  0  0  0  0  0  0  0  0  0
   -2.2256   25.7760  -25.8499 H   0  0  0  0  0  0  0  0  0  0  0  0
   -1.7200   22.9060  -27.1600 C   0  0  0  0  0  0  0  0  0  0  0  0
   -2.0206   22.0546  -26.5318 H   0  0  0  0  0  0  0  0  0  0  0  0
   -2.5520   23.3480  -28.1900 C   0  0  0  0  0  0  0  0  0  0  0  0
   -3.5041   22.8330  -28.3858 H   0  0  0  0  0  0  0  0  0  0  0  0
   -4.5610   23.4530  -30.8430 N   0  0  0  0  0  0  0  0  0  0  0  0
   -5.8540   23.1260  -31.1140 C   0  0  0  0  0  0  0  0  0  0  0  0
   -6.1520   21.8140  -31.7200 C   0  0  0  0  0  0  0  0  0  0  0  0
   -5.2020   20.8970  -32.1580 C   0  0  0  0  0  0  0  0  0  0  0  0
   -4.1136   21.0468  -32.1045 H   0  0  0  0  0  0  0  0  0  0  0  0
   -5.8060   19.7950  -32.6590 N   0  0  0  0  0  0  0  0  0  0  0  0
   -5.1230   18.5990  -33.1560 C   0  0  0  0  0  0  0  0  0  0  0  0
   -5.3629   17.7467  -32.5033 H   0  0  0  0  0  0  0  0  0  0  0  0
   -4.0381   18.7808  -33.1556 H   0  0  0  0  0  0  0  0  0  0  0  0
   -5.5720   18.2850  -34.5780 C   0  0  0  0  0  0  0  0  0  0  0  0
   -6.4731   17.6548  -34.5473 H   0  0  0  0  0  0  0  0  0  0  0  0
   -5.7982   19.2228  -35.1066 H   0  0  0  0  0  0  0  0  0  0  0  0
   -4.7688   17.7507  -35.1066 H   0  0  0  0  0  0  0  0  0  0  0  0
   -7.1340   19.9880  -32.5120 C   0  0  0  0  0  0  0  0  0  0  0  0
   -8.1690   19.1030  -32.8260 C   0  0  0  0  0  0  0  0  0  0  0  0
   -7.9588   18.1275  -33.2888 H   0  0  0  0  0  0  0  0  0  0  0  0
   -9.4870   19.4960  -32.5330 C   0  0  0  0  0  0  0  0  0  0  0  0
  -10.3247   18.8274  -32.7804 H   0  0  0  0  0  0  0  0  0  0  0  0
   -9.7410   20.7420  -31.9240 C   0  0  0  0  0  0  0  0  0  0  0  0
  -10.7755   21.0353  -31.6921 H   0  0  0  0  0  0  0  0  0  0  0  0
   -8.6830   21.6120  -31.6110 C   0  0  0  0  0  0  0  0  0  0  0  0
   -8.8714   22.5791  -31.1220 H   0  0  0  0  0  0  0  0  0  0  0  0
   -7.3840   21.2130  -31.9390 C   0  0  0  0  0  0  0  0  0  0  0  0
   -6.8640   24.0630  -30.8610 C   0  0  0  0  0  0  0  0  0  0  0  0
   -7.9148   23.8320  -31.0900 H   0  0  0  0  0  0  0  0  0  0  0  0
  1  2  1  0
  2  3  1  0
  3  4  1  0
  4  5  2  0
  5  6  1  0
  6  7  2  0
  7  8  1  0
  7  9  1  0
  9 10  1  0
 10 11  2  0
 11 12  1  0
 12 13  1  0
 12 14  1  0
 12 15  1  0
 15 16  1  0
 15 17  1  0
 15 18  1  0
 18 19  1  0
 18 20  1  0
 20 21  1  0
 20 22  1  0
 20 23  1  0
 18 24  1  0
 24 25  1  0
 24 26  1  0
 24 27  1  0
 10 28  1  0
 28 29  1  0
 28 30  2  0
 30 31  1  0
  4 32  1  0
 32 33  2  0
 33 34  1  0
 34 35  2  0
 35 36  1  0
 35 37  1  0
 37 38  1  0
 38 39  1  0
 38 40  1  0
 38 41  1  0
 41 42  1  0
 41 43  1  0
 41 44  1  0
 37 45  1  0
 45 46  2  0
 46 47  1  0
 46 48  1  0
 48 49  1  0
 48 50  2  0
 50 51  1  0
 50 52  1  0
 52 53  1  0
 52 54  2  0
 33 55  1  0
 55 56  1  0
 55  2  2  0
 30  6  1  0
 54 34  1  0
 54 45  1  0
M  CHG  3   3  -1   9  -1  18   1
M  END
>  <UniqueID>  (41) 
39

>  <SMILES>  (41) 
CCn1cc(-c2cc[n-]/c(=N\c3cc/c(=N\CC[NH+](C)C)[n-]c3)n2)c2ccccc21

>  <Energy>  (41) 
105.80604154473914

>  <Genealogy>  (41) 
CCn1cc(-c2cc[n-]c(=Nc3ccc(=NCC[NH+](C)C)[n-]c3)n2)c2ccccc21 (protonated)
CCn1cc(-c2cc[n-]/c(=N\c3cc/c(=N\CC[NH+](C)C)[n-]c3)n2)c2ccccc21 (cis-trans isomerization)
CCn1cc(-c2cc[n-]/c(=N\c3cc/c(=N\CC[NH+](C)C)[n-]c3)n2)c2ccccc21 (3D coordinates assigned)
CCn1cc(-c2cc[n-]/c(=N\c3cc/c(=N\CC[NH+](C)C)[n-]c3)n2)c2ccccc21 (optimized conformer: 105.80604154473914 kcal/mol)

>  <smiles>  (41) 
CCn1cc(-c2cc[nH]c(=Nc3ccc(=NCCN(C)C)[nH]c3)n2)c2ccccc21

>  <score_type>  (41) 
oracle

>  <origin>  (41) 
adg

>  <m_score__min__energy>  (41) 
-11.470000000000001

>  <m_primary>  (41) 
energy

$$$$
41:0
     RDKit          3D

 49 51  0  0  0  0  0  0  0  0999 V2000
   -2.6830   19.7490  -27.3720 C   0  0  0  0  0  0  0  0  0  0  0  0
   -2.7090   20.5400  -28.5560 O   0  0  0  0  0  0  0  0  0  0  0  0
   -2.3770   21.9030  -28.6070 C   0  0  0  0  0  0  0  0  0  0  0  0
   -1.3490   22.4580  -27.8260 C   0  0  0  0  0  0  0  0  0  0  0  0
   -1.0430   23.8170  -27.9260 C   0  0  0  0  0  0  0  0  0  0  0  0
   -1.7680   24.6490  -28.8000 C   0  0  0  0  0  0  0  0  0  0  0  0
   -1.4850   26.0180  -28.9320 O   0  0  0  0  0  0  0  0  0  0  0  0
   -0.8430   26.8080  -27.9360 C   0  0  0  0  0  0  0  0  0  0  0  0
   -2.8140   24.1040  -29.5630 C   0  0  0  0  0  0  0  0  0  0  0  0
   -3.5300   24.9630  -30.4640 N   0  0  0  0  0  0  0  0  0  0  0  0
   -4.9460   25.1760  -30.4970 C   0  0  0  0  0  0  0  0  0  0  0  0
   -5.4230   26.3420  -30.5560 O   0  0  0  0  0  0  0  0  0  0  0  0
   -5.8640   23.9980  -30.5780 C   0  0  0  0  0  0  0  0  0  0  0  0
   -6.3140   23.7670  -32.0250 C   0  0  0  0  0  0  0  0  0  0  0  0
   -6.6350   22.3030  -32.2660 C   0  0  0  0  0  0  0  0  0  0  0  0
   -7.9680   21.8040  -32.1090 C   0  0  0  0  0  0  0  0  0  0  0  0
   -9.0970   22.6770  -31.6350 C   0  0  0  0  0  0  0  0  0  0  0  0
   -8.2430   20.4910  -32.3560 N   0  0  0  0  0  0  0  0  0  0  0  0
   -7.2520   19.6680  -32.7610 C   0  0  0  0  0  0  0  0  0  0  0  0
   -7.3850   18.3580  -33.0260 N   0  0  0  0  0  0  0  0  0  0  0  0
   -6.1090   18.0390  -33.3710 C   0  0  0  0  0  0  0  0  0  0  0  0
   -5.6780   16.6560  -33.7200 C   0  0  0  0  0  0  0  0  0  0  0  0
   -5.2550   19.0880  -33.3010 N   0  0  0  0  0  0  0  0  0  0  0  0
   -6.0040   20.1050  -32.9210 N   0  0  0  0  0  0  0  0  0  0  0  0
   -5.6300   21.3930  -32.7000 C   0  0  0  0  0  0  0  0  0  0  0  0
   -4.1870   21.8000  -32.8630 C   0  0  0  0  0  0  0  0  0  0  0  0
   -3.0990   22.7290  -29.4740 C   0  0  0  0  0  0  0  0  0  0  0  0
   -2.7046   20.4071  -26.4908 H   0  0  0  0  0  0  0  0  0  0  0  0
   -3.5598   19.0850  -27.3553 H   0  0  0  0  0  0  0  0  0  0  0  0
   -1.7645   19.1440  -27.3553 H   0  0  0  0  0  0  0  0  0  0  0  0
   -0.7826   21.8190  -27.1326 H   0  0  0  0  0  0  0  0  0  0  0  0
   -0.2300   24.2401  -27.3177 H   0  0  0  0  0  0  0  0  0  0  0  0
   -1.1351   26.4485  -26.9383 H   0  0  0  0  0  0  0  0  0  0  0  0
    0.2480   26.7264  -28.0502 H   0  0  0  0  0  0  0  0  0  0  0  0
   -1.1460   27.8593  -28.0502 H   0  0  0  0  0  0  0  0  0  0  0  0
   -5.3373   23.1030  -30.2154 H   0  0  0  0  0  0  0  0  0  0  0  0
   -6.7503   24.1941  -29.9567 H   0  0  0  0  0  0  0  0  0  0  0  0
   -7.2124   24.3699  -32.2232 H   0  0  0  0  0  0  0  0  0  0  0  0
   -5.4961   24.0627  -32.6986 H   0  0  0  0  0  0  0  0  0  0  0  0
   -9.1137   22.6899  -30.5352 H   0  0  0  0  0  0  0  0  0  0  0  0
   -8.9522   23.7003  -32.0115 H   0  0  0  0  0  0  0  0  0  0  0  0
  -10.0510   22.2793  -32.0115 H   0  0  0  0  0  0  0  0  0  0  0  0
   -5.4997   16.0838  -32.7976 H   0  0  0  0  0  0  0  0  0  0  0  0
   -6.4655   16.1644  -34.3100 H   0  0  0  0  0  0  0  0  0  0  0  0
   -4.7506   16.6989  -34.3100 H   0  0  0  0  0  0  0  0  0  0  0  0
   -3.7283   21.9294  -31.8716 H   0  0  0  0  0  0  0  0  0  0  0  0
   -3.6463   21.0193  -33.4181 H   0  0  0  0  0  0  0  0  0  0  0  0
   -4.1339   22.7482  -33.4181 H   0  0  0  0  0  0  0  0  0  0  0  0
   -3.8994   22.2987  -30.0939 H   0  0  0  0  0  0  0  0  0  0  0  0
  1  2  1  0
  2  3  1  0
  3  4  2  0
  4  5  1  0
  5  6  2  0
  6  7  1  0
  7  8  1  0
  6  9  1  0
  9 10  1  0
 10 11  1  0
 11 12  2  0
 11 13  1  0
 13 14  1  0
 14 15  1  0
 15 16  1  0
 16 17  1  0
 16 18  2  0
 18 19  1  0
 19 20  2  0
 20 21  1  0
 21 22  1  0
 21 23  2  0
 23 24  1  0
 24 25  1  0
 25 26  1  0
  9 27  2  0
 27  3  1  0
 25 15  2  0
 24 19  1  0
  1 28  1  0
  1 29  1  0
  1 30  1  0
  4 31  1  0
  5 32  1  0
  8 33  1  0
  8 34  1  0
  8 35  1  0
 13 36  1  0
 13 37  1  0
 14 38  1  0
 14 39  1  0
 17 40  1  0
 17 41  1  0
 17 42  1  0
 22 43  1  0
 22 44  1  0
 22 45  1  0
 26 46  1  0
 26 47  1  0
 26 48  1  0
 27 49  1  0
M  CHG  1  10  -1
M  END
>  <UniqueID>  (42) 
40

>  <SMILES>  (42) 
COc1ccc(OC)c([N-]C(=O)CCc2c(C)nc3nc(C)nn3c2C)c1

>  <Energy>  (42) 
88.98311792547327

>  <Genealogy>  (42) 
COc1ccc(OC)c([N-]C(=O)CCc2c(C)nc3nc(C)nn3c2C)c1 (protonated)
COc1ccc(OC)c([N-]C(=O)CCc2c(C)nc3nc(C)nn3c2C)c1 (3D coordinates assigned)
COc1ccc(OC)c([N-]C(=O)CCc2c(C)nc3nc(C)nn3c2C)c1 (optimized conformer: 88.98311792547327 kcal/mol)

>  <smiles>  (42) 
COc1ccc(OC)c(NC(=O)CCc2c(C)nc3nc(C)nn3c2C)c1

>  <score_type>  (42) 
oracle

>  <origin>  (42) 
adg

>  <m_score__min__energy>  (42) 
-11.23

>  <m_primary>  (42) 
energy

$$$$
42:0
     RDKit          3D

 34 36  0  0  0  0  0  0  0  0999 V2000
   -6.5529   14.6406  -34.2256 H   0  0  0  0  0  0  0  0  0  0  0  0
   -6.0620   15.6250  -34.2190 C   0  0  0  0  0  0  0  0  0  0  0  0
   -4.9540   15.9170  -34.9350 N   0  0  0  0  0  0  0  0  0  0  0  0
   -4.7350   17.2080  -34.6200 C   0  0  0  0  0  0  0  0  0  0  0  0
   -3.9025   17.8104  -35.0126 H   0  0  0  0  0  0  0  0  0  0  0  0
   -5.6660   17.6660  -33.7630 N   0  0  0  0  0  0  0  0  0  0  0  0
   -5.7440   18.9700  -33.1570 C   0  0  0  0  0  0  0  0  0  0  0  0
   -4.5880   19.7600  -33.0860 C   0  0  0  0  0  0  0  0  0  0  0  0
   -3.6390   19.3715  -33.4840 H   0  0  0  0  0  0  0  0  0  0  0  0
   -4.6270   21.0320  -32.5170 C   0  0  0  0  0  0  0  0  0  0  0  0
   -3.7116   21.6409  -32.4810 H   0  0  0  0  0  0  0  0  0  0  0  0
   -5.8220   21.5430  -31.9900 C   0  0  0  0  0  0  0  0  0  0  0  0
   -5.8420   22.9060  -31.3980 C   0  0  0  0  0  0  0  0  0  0  0  0
   -4.6700   23.4910  -31.0260 N   0  0  0  0  0  0  0  0  0  0  0  0
   -4.6280   24.7350  -30.4740 C   0  0  0  0  0  0  0  0  0  0  0  0
   -3.4980   25.2780  -30.1270 N   0  0  0  0  0  0  0  0  0  0  0  0
   -2.4920   24.6100  -29.3090 C   0  0  0  0  0  0  0  0  0  0  0  0
   -2.7236   24.7638  -28.2447 H   0  0  0  0  0  0  0  0  0  0  0  0
   -2.4937   23.5330  -29.5327 H   0  0  0  0  0  0  0  0  0  0  0  0
   -1.5000   25.0294  -29.5327 H   0  0  0  0  0  0  0  0  0  0  0  0
   -5.8230   25.4320  -30.2790 C   0  0  0  0  0  0  0  0  0  0  0  0
   -5.8118   26.4407  -29.8403 H   0  0  0  0  0  0  0  0  0  0  0  0
   -6.9990   24.8530  -30.6360 N   0  0  0  0  0  0  0  0  0  0  0  0
   -7.0400   23.6120  -31.1870 C   0  0  0  0  0  0  0  0  0  0  0  0
   -8.0041   23.1621  -31.4664 H   0  0  0  0  0  0  0  0  0  0  0  0
   -6.9840   20.7520  -32.0540 C   0  0  0  0  0  0  0  0  0  0  0  0
   -7.9306   21.1466  -31.6563 H   0  0  0  0  0  0  0  0  0  0  0  0
   -6.9530   19.4620  -32.6200 C   0  0  0  0  0  0  0  0  0  0  0  0
   -8.0940   18.6420  -32.6410 O   0  0  0  0  0  0  0  0  0  0  0  0
   -9.0750   18.5870  -31.6100 C   0  0  0  0  0  0  0  0  0  0  0  0
   -8.5780   18.6149  -30.6291 H   0  0  0  0  0  0  0  0  0  0  0  0
   -9.7526   19.4486  -31.7023 H   0  0  0  0  0  0  0  0  0  0  0  0
   -9.6521   17.6551  -31.7023 H   0  0  0  0  0  0  0  0  0  0  0  0
   -6.4980   16.6750  -33.4960 N   0  0  0  0  0  0  0  0  0  0  0  0
  1  2  1  0
  2  3  1  0
  3  4  2  0
  4  5  1  0
  4  6  1  0
  6  7  1  0
  7  8  2  0
  8  9  1  0
  8 10  1  0
 10 11  1  0
 10 12  2  0
 12 13  1  0
 13 14  1  0
 14 15  1  0
 15 16  2  0
 16 17  1  0
 17 18  1  0
 17 19  1  0
 17 20  1  0
 15 21  1  0
 21 22  1  0
 21 23  2  0
 23 24  1  0
 24 25  1  0
 12 26  1  0
 26 27  1  0
 26 28  2  0
 28 29  1  0
 29 30  1  0
 30 31  1  0
 30 32  1  0
 30 33  1  0
  6 34  1  0
 34  2  2  0
 28  7  1  0
 24 13  2  0
M  CHG  1  14  -1
M  END
>  <UniqueID>  (43) 
41

>  <SMILES>  (43) 
C/N=c1/cncc(-c2ccc(-n3cncn3)c(OC)c2)[n-]1

>  <Energy>  (43) 
77.84555497446505

>  <Genealogy>  (43) 
CN=c1cncc(-c2ccc(-n3cncn3)c(OC)c2)[n-]1 (protonated)
C/N=c1/cncc(-c2ccc(-n3cncn3)c(OC)c2)[n-]1 (cis-trans isomerization)
C/N=c1/cncc(-c2ccc(-n3cncn3)c(OC)c2)[n-]1 (3D coordinates assigned)
C/N=c1/cncc(-c2ccc(-n3cncn3)c(OC)c2)[n-]1 (optimized conformer: 77.84555497446505 kcal/mol)

>  <smiles>  (43) 
CN=c1cncc(-c2ccc(-n3cncn3)c(OC)c2)[nH]1

>  <score_type>  (43) 
oracle

>  <origin>  (43) 
adg

>  <m_score__min__energy>  (43) 
-7.9199999999999999

>  <m_primary>  (43) 
energy

$$$$
43:0
     RDKit          3D

 44 46  0  0  0  0  0  0  0  0999 V2000
   -1.3150   25.3610  -27.4300 C   0  0  0  0  0  0  0  0  0  0  0  0
   -0.7140   24.8850  -28.6310 O   0  0  0  0  0  0  0  0  0  0  0  0
   -1.1130   23.7300  -29.3220 C   0  0  0  0  0  0  0  0  0  0  0  0
   -0.3110   22.5690  -29.3500 C   0  0  0  0  0  0  0  0  0  0  0  0
   -0.7030   21.4550  -30.0960 C   0  0  0  0  0  0  0  0  0  0  0  0
   -1.8900   21.4860  -30.8310 C   0  0  0  0  0  0  0  0  0  0  0  0
   -2.3720   20.0920  -31.7820 Cl  0  0  0  0  0  0  0  0  0  0  0  0
   -2.6970   22.6270  -30.8050 C   0  0  0  0  0  0  0  0  0  0  0  0
   -2.3340   23.7360  -30.0310 C   0  0  0  0  0  0  0  0  0  0  0  0
   -3.1980   24.8800  -30.0380 N   0  0  0  0  0  0  0  0  0  0  0  0
   -4.5450   24.9110  -29.5460 C   0  0  0  0  0  0  0  0  0  0  0  0
   -4.9200   24.1140  -28.6450 O   0  0  0  0  0  0  0  0  0  0  0  0
   -5.5370   25.8300  -30.1820 C   0  0  0  0  0  0  0  0  0  0  0  0
   -7.2440   25.2720  -29.8460 S   0  0  0  0  0  0  0  0  0  0  0  0
   -7.0400   23.6680  -30.6230 C   0  0  0  0  0  0  0  0  0  0  0  0
   -6.1910   23.5140  -31.7180 C   0  0  0  0  0  0  0  0  0  0  0  0
   -6.0730   22.2610  -32.3160 C   0  0  0  0  0  0  0  0  0  0  0  0
   -6.7970   21.1780  -31.7950 C   0  0  0  0  0  0  0  0  0  0  0  0
   -6.7100   19.8170  -32.3860 C   0  0  0  0  0  0  0  0  0  0  0  0
   -5.9400   19.6050  -33.5440 C   0  0  0  0  0  0  0  0  0  0  0  0
   -5.8650   18.3370  -34.1260 C   0  0  0  0  0  0  0  0  0  0  0  0
   -6.5770   17.2610  -33.5760 C   0  0  0  0  0  0  0  0  0  0  0  0
   -6.4760   15.8950  -34.1910 C   0  0  0  0  0  0  0  0  0  0  0  0
   -7.3380   17.4620  -32.4160 C   0  0  0  0  0  0  0  0  0  0  0  0
   -7.4120   18.7300  -31.8300 C   0  0  0  0  0  0  0  0  0  0  0  0
   -7.6110   21.3930  -30.7230 N   0  0  0  0  0  0  0  0  0  0  0  0
   -7.7270   22.5950  -30.1560 N   0  0  0  0  0  0  0  0  0  0  0  0
   -0.7844   24.9407  -26.5629 H   0  0  0  0  0  0  0  0  0  0  0  0
   -1.2547   26.4589  -27.3999 H   0  0  0  0  0  0  0  0  0  0  0  0
   -2.3699   25.0508  -27.3999 H   0  0  0  0  0  0  0  0  0  0  0  0
    0.6295   22.5412  -28.7803 H   0  0  0  0  0  0  0  0  0  0  0  0
   -0.0755   20.5516  -30.1045 H   0  0  0  0  0  0  0  0  0  0  0  0
   -3.6239   22.6539  -31.3968 H   0  0  0  0  0  0  0  0  0  0  0  0
   -5.4021   26.8434  -29.7761 H   0  0  0  0  0  0  0  0  0  0  0  0
   -5.3727   25.8290  -31.2697 H   0  0  0  0  0  0  0  0  0  0  0  0
   -5.6211   24.3714  -32.1053 H   0  0  0  0  0  0  0  0  0  0  0  0
   -5.4180   22.1222  -33.1888 H   0  0  0  0  0  0  0  0  0  0  0  0
   -5.3919   20.4451  -33.9954 H   0  0  0  0  0  0  0  0  0  0  0  0
   -5.2440   18.1817  -35.0206 H   0  0  0  0  0  0  0  0  0  0  0  0
   -6.4200   15.1378  -33.3951 H   0  0  0  0  0  0  0  0  0  0  0  0
   -7.3627   15.7070  -34.8142 H   0  0  0  0  0  0  0  0  0  0  0  0
   -5.5713   15.8395  -34.8142 H   0  0  0  0  0  0  0  0  0  0  0  0
   -7.8799   16.6181  -31.9642 H   0  0  0  0  0  0  0  0  0  0  0  0
   -8.0233   18.8793  -30.9278 H   0  0  0  0  0  0  0  0  0  0  0  0
  1  2  1  0
  2  3  1  0
  3  4  2  0
  4  5  1  0
  5  6  2  0
  6  7  1  0
  6  8  1  0
  8  9  2  0
  9 10  1  0
 10 11  1  0
 11 12  2  0
 11 13  1  0
 13 14  1  0
 14 15  1  0
 15 16  2  0
 16 17  1  0
 17 18  2  0
 18 19  1  0
 19 20  2  0
 20 21  1  0
 21 22  2  0
 22 23  1  0
 22 24  1  0
 24 25  2  0
 18 26  1  0
 26 27  2  0
  9  3  1  0
 27 15  1  0
 25 19  1  0
  1 28  1  0
  1 29  1  0
  1 30  1  0
  4 31  1  0
  5 32  1  0
  8 33  1  0
 13 34  1  0
 13 35  1  0
 16 36  1  0
 17 37  1  0
 20 38  1  0
 21 39  1  0
 23 40  1  0
 23 41  1  0
 23 42  1  0
 24 43  1  0
 25 44  1  0
M  CHG  1  10  -1
M  END
>  <UniqueID>  (44) 
42

>  <SMILES>  (44) 
COc1ccc(Cl)cc1[N-]C(=O)CSc1ccc(-c2ccc(C)cc2)nn1

>  <Energy>  (44) 
49.14887682494039

>  <Genealogy>  (44) 
COc1ccc(Cl)cc1[N-]C(=O)CSc1ccc(-c2ccc(C)cc2)nn1 (protonated)
COc1ccc(Cl)cc1[N-]C(=O)CSc1ccc(-c2ccc(C)cc2)nn1 (3D coordinates assigned)
COc1ccc(Cl)cc1[N-]C(=O)CSc1ccc(-c2ccc(C)cc2)nn1 (optimized conformer: 49.14887682494039 kcal/mol)

>  <smiles>  (44) 
COc1ccc(Cl)cc1NC(=O)CSc1ccc(-c2ccc(C)cc2)nn1

>  <score_type>  (44) 
oracle

>  <origin>  (44) 
adg

>  <m_score__min__energy>  (44) 
-11.09

>  <m_primary>  (44) 
energy

$$$$
44:0
     RDKit          3D

 33 35  0  0  0  0  0  0  0  0999 V2000
   -9.4730   19.9910  -32.3690 C   0  0  0  0  0  0  0  0  0  0  0  0
   -8.9910   21.3800  -31.9700 C   0  0  0  0  0  0  0  0  0  0  0  0
   -7.5350   21.4600  -32.0700 N   0  0  0  0  0  0  0  0  0  0  0  0
   -6.7240   20.6470  -32.7920 C   0  0  0  0  0  0  0  0  0  0  0  0
   -5.4270   21.0340  -32.7410 N   0  0  0  0  0  0  0  0  0  0  0  0
   -5.4370   22.1350  -31.9690 C   0  0  0  0  0  0  0  0  0  0  0  0
   -4.3640   22.9480  -31.6150 C   0  0  0  0  0  0  0  0  0  0  0  0
   -4.6260   24.0780  -30.8150 C   0  0  0  0  0  0  0  0  0  0  0  0
   -3.5270   24.9280  -30.4560 N   0  0  0  0  0  0  0  0  0  0  0  0
   -2.4050   24.6220  -29.1700 S   0  0  0  0  0  0  0  0  0  0  0  0
   -3.0800   24.8870  -27.8560 O   0  0  0  0  0  0  0  0  0  0  0  0
   -1.2240   25.5400  -29.3130 O   0  0  0  0  0  0  0  0  0  0  0  0
   -1.8850   22.9480  -29.2150 C   0  0  0  0  0  0  0  0  0  0  0  0
   -2.1190   22.0020  -28.2290 C   0  0  0  0  0  0  0  0  0  0  0  0
   -1.6020   20.7420  -28.5510 C   0  0  0  0  0  0  0  0  0  0  0  0
   -0.9630   20.7000  -29.7840 C   0  0  0  0  0  0  0  0  0  0  0  0
   -1.0430   22.2320  -30.4780 S   0  0  0  0  0  0  0  0  0  0  0  0
   -5.9580   24.3510  -30.3940 C   0  0  0  0  0  0  0  0  0  0  0  0
   -7.0180   23.5070  -30.7740 C   0  0  0  0  0  0  0  0  0  0  0  0
   -6.7120   22.4000  -31.5650 C   0  0  0  0  0  0  0  0  0  0  0  0
   -9.6781   19.4001  -31.4641 H   0  0  0  0  0  0  0  0  0  0  0  0
  -10.3930   20.0794  -32.9655 H   0  0  0  0  0  0  0  0  0  0  0  0
   -8.6960   19.4905  -32.9655 H   0  0  0  0  0  0  0  0  0  0  0  0
   -9.4423   22.1269  -32.6397 H   0  0  0  0  0  0  0  0  0  0  0  0
   -9.2895   21.5772  -30.9298 H   0  0  0  0  0  0  0  0  0  0  0  0
   -7.0797   19.7718  -33.3555 H   0  0  0  0  0  0  0  0  0  0  0  0
   -4.6090   20.5880  -33.2120 H   0  0  0  0  0  0  0  0  0  0  0  0
   -3.3423   22.7153  -31.9497 H   0  0  0  0  0  0  0  0  0  0  0  0
   -2.6543   22.2188  -27.2928 H   0  0  0  0  0  0  0  0  0  0  0  0
   -1.6930   19.8673  -27.8902 H   0  0  0  0  0  0  0  0  0  0  0  0
   -0.4856   19.8156  -30.2311 H   0  0  0  0  0  0  0  0  0  0  0  0
   -6.1609   25.2305  -29.7653 H   0  0  0  0  0  0  0  0  0  0  0  0
   -8.0514   23.7132  -30.4583 H   0  0  0  0  0  0  0  0  0  0  0  0
  1  2  1  0
  2  3  1  0
  3  4  1  0
  4  5  2  0
  5  6  1  0
  6  7  2  0
  7  8  1  0
  8  9  1  0
  9 10  1  0
 10 11  2  0
 10 12  2  0
 10 13  1  0
 13 14  2  0
 14 15  1  0
 15 16  2  0
 16 17  1  0
  8 18  2  0
 18 19  1  0
 19 20  2  0
 20  3  1  0
 20  6  1  0
 17 13  1  0
  1 21  1  0
  1 22  1  0
  1 23  1  0
  2 24  1  0
  2 25  1  0
  4 26  1  0
  5 27  1  0
  7 28  1  0
 14 29  1  0
 15 30  1  0
 16 31  1  0
 18 32  1  0
 19 33  1  0
M  CHG  2   5   1   9  -1
M  END
>  <UniqueID>  (45) 
43

>  <SMILES>  (45) 
CCn1c[nH+]c2cc([N-]S(=O)(=O)c3cccs3)ccc21

>  <Energy>  (45) 
99.17132812708098

>  <Genealogy>  (45) 
CCn1c[nH+]c2cc([N-]S(=O)(=O)c3cccs3)ccc21 (protonated)
CCn1c[nH+]c2cc([N-]S(=O)(=O)c3cccs3)ccc21 (3D coordinates assigned)
CCn1c[nH+]c2cc([N-]S(=O)(=O)c3cccs3)ccc21 (optimized conformer: 99.17132812708098 kcal/mol)

>  <smiles>  (45) 
CCn1cnc2cc(NS(=O)(=O)c3cccs3)ccc21

>  <score_type>  (45) 
oracle

>  <origin>  (45) 
adg

>  <m_score__min__energy>  (45) 
-8

>  <m_primary>  (45) 
energy

$$$$
45:0
     RDKit          3D

 43 44  0  0  0  0  0  0  0  0999 V2000
   -2.1710   25.6080  -25.8130 C   0  0  0  0  0  0  0  0  0  0  0  0
   -1.3170   24.3360  -25.8310 C   0  0  0  0  0  0  0  0  0  0  0  0
   -1.5000   23.5040  -27.0530 N   0  0  0  0  0  0  0  0  0  0  0  0
   -1.6330   22.0740  -26.6630 C   0  0  0  0  0  0  0  0  0  0  0  0
   -2.5830   21.2870  -27.5750 C   0  0  0  0  0  0  0  0  0  0  0  0
   -0.4790   23.7410  -28.1230 C   0  0  0  0  0  0  0  0  0  0  0  0
   -0.9460   24.5750  -29.3410 C   0  0  0  0  0  0  0  0  0  0  0  0
   -2.3290   24.9230  -29.2680 O   0  0  0  0  0  0  0  0  0  0  0  0
   -3.4030   24.1610  -29.7540 C   0  0  0  0  0  0  0  0  0  0  0  0
   -3.2460   23.0540  -30.6000 C   0  0  0  0  0  0  0  0  0  0  0  0
   -4.3660   22.3760  -31.1000 C   0  0  0  0  0  0  0  0  0  0  0  0
   -5.6620   22.7880  -30.7600 C   0  0  0  0  0  0  0  0  0  0  0  0
   -6.8690   22.1050  -31.2950 C   0  0  0  0  0  0  0  0  0  0  0  0
   -8.0870   22.7860  -31.4940 C   0  0  0  0  0  0  0  0  0  0  0  0
   -9.2060   22.0820  -31.9430 C   0  0  0  0  0  0  0  0  0  0  0  0
   -9.1080   20.7130  -32.2000 C   0  0  0  0  0  0  0  0  0  0  0  0
   -7.8860   20.0640  -32.0020 C   0  0  0  0  0  0  0  0  0  0  0  0
   -7.7150   18.1920  -32.3430 Br  0  0  0  0  0  0  0  0  0  0  0  0
   -6.8120   20.7660  -31.5570 N   0  0  0  0  0  0  0  0  0  0  0  0
   -5.8060   23.8670  -29.8780 C   0  0  0  0  0  0  0  0  0  0  0  0
   -4.6920   24.5460  -29.3880 C   0  0  0  0  0  0  0  0  0  0  0  0
   -2.3686   25.9023  -24.7717 H   0  0  0  0  0  0  0  0  0  0  0  0
   -1.6331   26.4181  -26.3272 H   0  0  0  0  0  0  0  0  0  0  0  0
   -3.1244   25.4168  -26.3272 H   0  0  0  0  0  0  0  0  0  0  0  0
   -0.2586   24.6284  -25.7663 H   0  0  0  0  0  0  0  0  0  0  0  0
   -1.6386   23.7231  -24.9760 H   0  0  0  0  0  0  0  0  0  0  0  0
   -2.4290   23.7860  -27.4600 H   0  0  0  0  0  0  0  0  0  0  0  0
   -0.6386   21.6056  -26.7058 H   0  0  0  0  0  0  0  0  0  0  0  0
   -2.0569   22.0490  -25.6483 H   0  0  0  0  0  0  0  0  0  0  0  0
   -3.2848   20.7056  -26.9590 H   0  0  0  0  0  0  0  0  0  0  0  0
   -3.1456   21.9872  -28.2099 H   0  0  0  0  0  0  0  0  0  0  0  0
   -1.9997   20.6039  -28.2099 H   0  0  0  0  0  0  0  0  0  0  0  0
    0.3725   24.2649  -27.6642 H   0  0  0  0  0  0  0  0  0  0  0  0
   -0.2360   22.7458  -28.5235 H   0  0  0  0  0  0  0  0  0  0  0  0
   -0.3515   25.4995  -29.3842 H   0  0  0  0  0  0  0  0  0  0  0  0
   -0.8034   23.9597  -30.2416 H   0  0  0  0  0  0  0  0  0  0  0  0
   -2.2359   22.7150  -30.8734 H   0  0  0  0  0  0  0  0  0  0  0  0
   -4.2267   21.5117  -31.7660 H   0  0  0  0  0  0  0  0  0  0  0  0
   -8.1555   23.8660  -31.2967 H   0  0  0  0  0  0  0  0  0  0  0  0
  -10.1622   22.6044  -32.0939 H   0  0  0  0  0  0  0  0  0  0  0  0
   -9.9842   20.1506  -32.5549 H   0  0  0  0  0  0  0  0  0  0  0  0
   -6.8130   24.1828  -29.5678 H   0  0  0  0  0  0  0  0  0  0  0  0
   -4.8314   25.3962  -28.7041 H   0  0  0  0  0  0  0  0  0  0  0  0
  1  2  1  0
  2  3  1  0
  3  4  1  0
  4  5  1  0
  3  6  1  0
  6  7  1  0
  7  8  1  0
  8  9  1  0
  9 10  2  0
 10 11  1  0
 11 12  2  0
 12 13  1  0
 13 14  2  0
 14 15  1  0
 15 16  2  0
 16 17  1  0
 17 18  1  0
 17 19  2  0
 12 20  1  0
 20 21  2  0
 21  9  1  0
 19 13  1  0
  1 22  1  0
  1 23  1  0
  1 24  1  0
  2 25  1  0
  2 26  1  0
  3 27  1  0
  4 28  1  0
  4 29  1  0
  5 30  1  0
  5 31  1  0
  5 32  1  0
  6 33  1  0
  6 34  1  0
  7 35  1  0
  7 36  1  0
 10 37  1  0
 11 38  1  0
 14 39  1  0
 15 40  1  0
 16 41  1  0
 20 42  1  0
 21 43  1  0
M  CHG  1   3   1
M  END
>  <UniqueID>  (46) 
44

>  <SMILES>  (46) 
CC[NH+](CC)CCOc1ccc(-c2cccc(Br)n2)cc1

>  <Energy>  (46) 
52.63559037444746

>  <Genealogy>  (46) 
CC[NH+](CC)CCOc1ccc(-c2cccc(Br)n2)cc1 (protonated)
CC[NH+](CC)CCOc1ccc(-c2cccc(Br)n2)cc1 (3D coordinates assigned)
CC[NH+](CC)CCOc1ccc(-c2cccc(Br)n2)cc1 (optimized conformer: 52.63559037444746 kcal/mol)

>  <smiles>  (46) 
CCN(CC)CCOc1ccc(-c2cccc(Br)n2)cc1

>  <score_type>  (46) 
oracle

>  <origin>  (46) 
adg

>  <m_score__min__energy>  (46) 
-7.4500000000000002

>  <m_primary>  (46) 
energy

$$$$
46:0
     RDKit          3D

 56 58  0  0  0  0  0  0  0  0999 V2000
   -9.4480   21.1560  -31.9410 C   0  0  0  0  0  0  0  0  0  0  0  0
   -9.1060   19.6710  -31.7670 C   0  0  0  0  0  0  0  0  0  0  0  0
   -8.0510   19.1990  -32.7030 N   0  0  0  0  0  0  0  0  0  0  0  0
   -7.3800   17.9350  -32.2900 C   0  0  0  0  0  0  0  0  0  0  0  0
   -6.8400   17.0770  -33.4400 C   0  0  0  0  0  0  0  0  0  0  0  0
   -7.0850   20.2650  -33.1030 C   0  0  0  0  0  0  0  0  0  0  0  0
   -5.6450   20.0910  -32.5590 C   0  0  0  0  0  0  0  0  0  0  0  0
   -4.6490   21.0980  -33.1570 C   0  0  0  0  0  0  0  0  0  0  0  0
   -4.3270   22.1770  -32.2160 N   0  0  0  0  0  0  0  0  0  0  0  0
   -3.1270   22.4550  -31.6300 C   0  0  0  0  0  0  0  0  0  0  0  0
   -1.9370   21.6780  -31.8330 N   0  0  0  0  0  0  0  0  0  0  0  0
   -0.9790   21.5470  -30.7340 C   0  0  0  0  0  0  0  0  0  0  0  0
   -0.1030   20.3140  -30.9690 C   0  0  0  0  0  0  0  0  0  0  0  0
    0.6340   20.3830  -32.2560 N   0  0  0  0  0  0  0  0  0  0  0  0
    0.9770   19.0330  -32.7270 C   0  0  0  0  0  0  0  0  0  0  0  0
   -0.0380   21.1730  -33.3190 C   0  0  0  0  0  0  0  0  0  0  0  0
   -1.5660   21.2110  -33.1710 C   0  0  0  0  0  0  0  0  0  0  0  0
   -3.1880   23.4430  -30.7010 N   0  0  0  0  0  0  0  0  0  0  0  0
   -4.4840   23.8000  -30.7250 C   0  0  0  0  0  0  0  0  0  0  0  0
   -5.1100   24.7590  -29.9330 C   0  0  0  0  0  0  0  0  0  0  0  0
   -6.5000   24.9230  -30.0760 C   0  0  0  0  0  0  0  0  0  0  0  0
   -7.2240   24.1210  -30.9870 C   0  0  0  0  0  0  0  0  0  0  0  0
   -6.5640   23.1530  -31.7660 C   0  0  0  0  0  0  0  0  0  0  0  0
   -5.1780   23.0340  -31.6190 C   0  0  0  0  0  0  0  0  0  0  0  0
   -9.5562   21.6257  -30.9522 H   0  0  0  0  0  0  0  0  0  0  0  0
   -8.6413   21.6553  -32.4978 H   0  0  0  0  0  0  0  0  0  0  0  0
  -10.3918   21.2521  -32.4978 H   0  0  0  0  0  0  0  0  0  0  0  0
   -8.7560   19.5113  -30.7365 H   0  0  0  0  0  0  0  0  0  0  0  0
  -10.0185   19.0975  -31.9871 H   0  0  0  0  0  0  0  0  0  0  0  0
   -8.5520   18.9510  -33.5910 H   0  0  0  0  0  0  0  0  0  0  0  0
   -6.5359   18.1961  -31.6348 H   0  0  0  0  0  0  0  0  0  0  0  0
   -8.1511   17.3284  -31.7925 H   0  0  0  0  0  0  0  0  0  0  0  0
   -6.2965   16.2134  -33.0292 H   0  0  0  0  0  0  0  0  0  0  0  0
   -7.6782   16.7226  -34.0580 H   0  0  0  0  0  0  0  0  0  0  0  0
   -6.1579   17.6794  -34.0580 H   0  0  0  0  0  0  0  0  0  0  0  0
   -7.0335   20.2822  -34.2017 H   0  0  0  0  0  0  0  0  0  0  0  0
   -7.4649   21.1998  -32.6651 H   0  0  0  0  0  0  0  0  0  0  0  0
   -5.6647   20.2242  -31.4673 H   0  0  0  0  0  0  0  0  0  0  0  0
   -5.3056   19.0845  -32.8449 H   0  0  0  0  0  0  0  0  0  0  0  0
   -3.7220   20.5674  -33.4197 H   0  0  0  0  0  0  0  0  0  0  0  0
   -5.1143   21.5495  -34.0456 H   0  0  0  0  0  0  0  0  0  0  0  0
   -0.3451   22.4449  -30.6905 H   0  0  0  0  0  0  0  0  0  0  0  0
   -1.5220   21.4368  -29.7837 H   0  0  0  0  0  0  0  0  0  0  0  0
    0.6252   20.2358  -30.1482 H   0  0  0  0  0  0  0  0  0  0  0  0
   -0.7629   19.4347  -31.0060 H   0  0  0  0  0  0  0  0  0  0  0  0
    1.1443   18.3744  -31.8620 H   0  0  0  0  0  0  0  0  0  0  0  0
    0.1511   18.6362  -33.3357 H   0  0  0  0  0  0  0  0  0  0  0  0
    1.8921   19.0785  -33.3357 H   0  0  0  0  0  0  0  0  0  0  0  0
    0.3425   22.2044  -33.2813 H   0  0  0  0  0  0  0  0  0  0  0  0
    0.1851   20.6847  -34.2791 H   0  0  0  0  0  0  0  0  0  0  0  0
   -1.9863   21.8948  -33.9232 H   0  0  0  0  0  0  0  0  0  0  0  0
   -1.9646   20.1964  -33.3185 H   0  0  0  0  0  0  0  0  0  0  0  0
   -4.5366   25.3684  -29.2190 H   0  0  0  0  0  0  0  0  0  0  0  0
   -7.0261   25.6796  -29.4754 H   0  0  0  0  0  0  0  0  0  0  0  0
   -8.3112   24.2545  -31.0877 H   0  0  0  0  0  0  0  0  0  0  0  0
   -7.1189   22.5117  -32.4666 H   0  0  0  0  0  0  0  0  0  0  0  0
  1  2  1  0
  2  3  1  0
  3  4  1  0
  4  5  1  0
  3  6  1  0
  6  7  1  0
  7  8  1  0
  8  9  1  0
  9 10  1  0
 10 11  1  0
 11 12  1  0
 12 13  1  0
 13 14  1  0
 14 15  1  0
 14 16  1  0
 16 17  1  0
 10 18  2  0
 18 19  1  0
 19 20  2  0
 20 21  1  0
 21 22  2  0
 22 23  1  0
 23 24  2  0
 24  9  1  0
 17 11  1  0
 24 19  1  0
  1 25  1  0
  1 26  1  0
  1 27  1  0
  2 28  1  0
  2 29  1  0
  3 30  1  0
  4 31  1  0
  4 32  1  0
  5 33  1  0
  5 34  1  0
  5 35  1  0
  6 36  1  0
  6 37  1  0
  7 38  1  0
  7 39  1  0
  8 40  1  0
  8 41  1  0
 12 42  1  0
 12 43  1  0
 13 44  1  0
 13 45  1  0
 15 46  1  0
 15 47  1  0
 15 48  1  0
 16 49  1  0
 16 50  1  0
 17 51  1  0
 17 52  1  0
 20 53  1  0
 21 54  1  0
 22 55  1  0
 23 56  1  0
M  CHG  1   3   1
M  END
>  <UniqueID>  (47) 
45

>  <SMILES>  (47) 
CC[NH+](CC)CCCn1c(N2CCN(C)CC2)nc2ccccc21

>  <Energy>  (47) 
108.6942106619097

>  <Genealogy>  (47) 
CC[NH+](CC)CCCn1c(N2CCN(C)CC2)nc2ccccc21 (protonated)
CC[NH+](CC)CCCn1c(N2CCN(C)CC2)nc2ccccc21 (3D coordinates assigned)
CC[NH+](CC)CCCn1c(N2CCN(C)CC2)nc2ccccc21 (nonaromatic ring conformer: 108.6942106619097 kcal/mol)

>  <smiles>  (47) 
CCN(CC)CCCn1c(N2CCN(C)CC2)nc2ccccc21

>  <score_type>  (47) 
oracle

>  <origin>  (47) 
adg

>  <m_score__min__energy>  (47) 
-6.9100000000000001

>  <m_primary>  (47) 
energy

$$$$
47:0
     RDKit          3D

 40 42  0  0  0  0  0  0  0  0999 V2000
   -4.4150   13.6690  -31.8270 C   0  0  0  0  0  0  0  0  0  0  0  0
   -3.7090   14.4280  -32.9440 C   0  0  0  0  0  0  0  0  0  0  0  0
   -4.6550   14.9630  -33.8710 O   0  0  0  0  0  0  0  0  0  0  0  0
   -5.2750   16.2190  -33.7730 C   0  0  0  0  0  0  0  0  0  0  0  0
   -6.1000   16.4630  -32.6700 C   0  0  0  0  0  0  0  0  0  0  0  0
   -6.7410   17.6940  -32.5180 C   0  0  0  0  0  0  0  0  0  0  0  0
   -6.5650   18.7130  -33.4710 C   0  0  0  0  0  0  0  0  0  0  0  0
   -7.2550   20.0540  -33.3170 C   0  0  1  0  0  0  0  0  0  0  0  0
   -8.4130   20.0100  -32.2920 C   0  0  0  0  0  0  0  0  0  0  0  0
   -8.1470   21.1800  -31.4320 C   0  0  0  0  0  0  0  0  0  0  0  0
   -8.8760   21.5100  -30.4580 O   0  0  0  0  0  0  0  0  0  0  0  0
   -6.9630   21.8710  -31.7810 N   0  0  0  0  0  0  0  0  0  0  0  0
   -6.4160   22.9860  -31.0630 C   0  0  0  0  0  0  0  0  0  0  0  0
   -7.2210   24.1060  -30.7970 C   0  0  0  0  0  0  0  0  0  0  0  0
   -6.7000   25.2020  -30.1060 C   0  0  0  0  0  0  0  0  0  0  0  0
   -5.3730   25.1880  -29.6700 C   0  0  0  0  0  0  0  0  0  0  0  0
   -4.5670   24.0740  -29.9200 C   0  0  0  0  0  0  0  0  0  0  0  0
   -5.0820   22.9720  -30.6120 C   0  0  0  0  0  0  0  0  0  0  0  0
   -4.0530   21.5640  -30.8440 Cl  0  0  0  0  0  0  0  0  0  0  0  0
   -6.2830   21.1720  -32.8580 C   0  0  0  0  0  0  0  0  0  0  0  0
   -5.7320   18.4700  -34.5770 C   0  0  0  0  0  0  0  0  0  0  0  0
   -5.0910   17.2370  -34.7280 C   0  0  0  0  0  0  0  0  0  0  0  0
   -4.0671   14.0430  -30.8528 H   0  0  0  0  0  0  0  0  0  0  0  0
   -5.5014   13.8198  -31.9110 H   0  0  0  0  0  0  0  0  0  0  0  0
   -4.1861   12.5964  -31.9110 H   0  0  0  0  0  0  0  0  0  0  0  0
   -3.1262   15.2524  -32.5073 H   0  0  0  0  0  0  0  0  0  0  0  0
   -3.0464   13.7318  -33.4790 H   0  0  0  0  0  0  0  0  0  0  0  0
   -6.2453   15.6768  -31.9145 H   0  0  0  0  0  0  0  0  0  0  0  0
   -7.3887   17.8681  -31.6461 H   0  0  0  0  0  0  0  0  0  0  0  0
   -7.6454   20.2791  -34.3205 H   0  0  0  0  0  0  0  0  0  0  0  0
   -9.3875   20.1027  -32.7937 H   0  0  0  0  0  0  0  0  0  0  0  0
   -8.4576   19.0643  -31.7320 H   0  0  0  0  0  0  0  0  0  0  0  0
   -8.2677   24.1198  -31.1349 H   0  0  0  0  0  0  0  0  0  0  0  0
   -7.3352   26.0772  -29.9048 H   0  0  0  0  0  0  0  0  0  0  0  0
   -4.9624   26.0538  -29.1299 H   0  0  0  0  0  0  0  0  0  0  0  0
   -3.5237   24.0633  -29.5715 H   0  0  0  0  0  0  0  0  0  0  0  0
   -6.0724   21.8613  -33.6890 H   0  0  0  0  0  0  0  0  0  0  0  0
   -5.3187   20.7590  -32.5269 H   0  0  0  0  0  0  0  0  0  0  0  0
   -5.5832   19.2574  -35.3306 H   0  0  0  0  0  0  0  0  0  0  0  0
   -4.4398   17.0613  -35.5970 H   0  0  0  0  0  0  0  0  0  0  0  0
  1  2  1  0
  2  3  1  0
  3  4  1  0
  4  5  2  0
  5  6  1  0
  6  7  2  0
  7  8  1  0
  8  9  1  0
  9 10  1  0
 10 11  2  0
 10 12  1  0
 12 13  1  0
 13 14  2  0
 14 15  1  0
 15 16  2  0
 16 17  1  0
 17 18  2  0
 18 19  1  0
 12 20  1  0
  7 21  1  0
 21 22  2  0
 22  4  1  0
 20  8  1  0
 18 13  1  0
  1 23  1  0
  1 24  1  0
  1 25  1  0
  2 26  1  0
  2 27  1  0
  5 28  1  0
  6 29  1  0
  8 30  1  6
  9 31  1  0
  9 32  1  0
 14 33  1  0
 15 34  1  0
 16 35  1  0
 17 36  1  0
 20 37  1  0
 20 38  1  0
 21 39  1  0
 22 40  1  0
M  END
>  <UniqueID>  (48) 
46

>  <SMILES>  (48) 
CCOc1ccc([C@H]2CC(=O)N(c3ccccc3Cl)C2)cc1

>  <Energy>  (48) 
54.621489946676725

>  <Genealogy>  (48) 
CCOc1ccc([C@H]2CC(=O)N(c3ccccc3Cl)C2)cc1 (chirality)
CCOc1ccc([C@H]2CC(=O)N(c3ccccc3Cl)C2)cc1 (3D coordinates assigned)
CCOc1ccc([C@H]2CC(=O)N(c3ccccc3Cl)C2)cc1 (nonaromatic ring conformer: 54.621489946676725 kcal/mol)

>  <smiles>  (48) 
CCOc1ccc(C2CC(=O)N(c3ccccc3Cl)C2)cc1

>  <score_type>  (48) 
oracle

>  <origin>  (48) 
adg

>  <m_score__min__energy>  (48) 
-7.5099999999999998

>  <m_primary>  (48) 
energy

$$$$
