0:0
     RDKit          3D

 38 39  0  0  0  0  0  0  0  0999 V2000
   -0.5210   25.3730  -26.7310 C   0  0  0  0  0  0  0  0  0  0  0  0
   -1.0670   26.1000  -27.9630 C   0  0  0  0  0  0  0  0  0  0  0  0
   -1.4390   25.1720  -29.0420 N   0  0  0  0  0  0  0  0  0  0  0  0
   -2.0880   23.9300  -28.5600 C   0  0  0  0  0  0  0  0  0  0  0  0
   -2.2840   22.9730  -29.7460 C   0  0  0  0  0  0  0  0  0  0  0  0
   -3.3050   23.5130  -30.7730 C   0  0  0  0  0  0  0  0  0  0  0  0
   -4.1720   24.5740  -30.2120 N   0  0  0  0  0  0  0  0  0  0  0  0
   -5.3080   24.8450  -31.1140 C   0  0  0  0  0  0  0  0  0  0  0  0
   -6.1360   23.6000  -31.2990 C   0  0  0  0  0  0  0  0  0  0  0  0
   -5.8350   22.7060  -32.3400 C   0  0  0  0  0  0  0  0  0  0  0  0
   -6.6090   21.5570  -32.5290 C   0  0  0  0  0  0  0  0  0  0  0  0
   -7.6880   21.2930  -31.6810 C   0  0  0  0  0  0  0  0  0  0  0  0
   -7.9950   22.1790  -30.6440 C   0  0  0  0  0  0  0  0  0  0  0  0
   -7.2240   23.3300  -30.4520 C   0  0  0  0  0  0  0  0  0  0  0  0
   -4.6320   24.2090  -28.8590 C   0  0  0  0  0  0  0  0  0  0  0  0
   -3.4490   24.2130  -27.8720 C   0  0  0  0  0  0  0  0  0  0  0  0
   -0.8914   25.8661  -25.8202 H   0  0  0  0  0  0  0  0  0  0  0  0
   -0.8579   24.3259  -26.7439 H   0  0  0  0  0  0  0  0  0  0  0  0
    0.5785   25.4046  -26.7439 H   0  0  0  0  0  0  0  0  0  0  0  0
   -1.9575   26.6746  -27.6684 H   0  0  0  0  0  0  0  0  0  0  0  0
   -0.2718   26.7571  -28.3448 H   0  0  0  0  0  0  0  0  0  0  0  0
   -2.0190   25.6710  -29.7560 H   0  0  0  0  0  0  0  0  0  0  0  0
   -1.4330   23.4706  -27.8051 H   0  0  0  0  0  0  0  0  0  0  0  0
   -1.3165   22.8314  -30.2499 H   0  0  0  0  0  0  0  0  0  0  0  0
   -2.6741   22.0233  -29.3511 H   0  0  0  0  0  0  0  0  0  0  0  0
   -2.7556   23.9250  -31.6323 H   0  0  0  0  0  0  0  0  0  0  0  0
   -3.9537   22.6754  -31.0691 H   0  0  0  0  0  0  0  0  0  0  0  0
   -5.9355   25.6372  -30.6796 H   0  0  0  0  0  0  0  0  0  0  0  0
   -4.9202   25.1660  -32.0921 H   0  0  0  0  0  0  0  0  0  0  0  0
   -4.9866   22.9108  -33.0095 H   0  0  0  0  0  0  0  0  0  0  0  0
   -6.3685   20.8604  -33.3457 H   0  0  0  0  0  0  0  0  0  0  0  0
   -8.2957   20.3882  -31.8294 H   0  0  0  0  0  0  0  0  0  0  0  0
   -8.8449   21.9704  -29.9776 H   0  0  0  0  0  0  0  0  0  0  0  0
   -7.4700   24.0255  -29.6360 H   0  0  0  0  0  0  0  0  0  0  0  0
   -5.3864   24.9360  -28.5239 H   0  0  0  0  0  0  0  0  0  0  0  0
   -5.0684   23.1997  -28.8899 H   0  0  0  0  0  0  0  0  0  0  0  0
   -3.3991   25.1995  -27.3879 H   0  0  0  0  0  0  0  0  0  0  0  0
   -3.6243   23.4078  -27.1433 H   0  0  0  0  0  0  0  0  0  0  0  0
  1  2  1  0
  2  3  1  0
  3  4  1  0
  4  5  1  0
  5  6  1  0
  6  7  1  0
  7  8  1  0
  8  9  1  0
  9 10  2  0
 10 11  1  0
 11 12  2  0
 12 13  1  0
 13 14  2  0
  7 15  1  0
 15 16  1  0
 16  4  1  0
 14  9  1  0
  1 17  1  0
  1 18  1  0
  1 19  1  0
  2 20  1  0
  2 21  1  0
  3 22  1  0
  4 23  1  0
  5 24  1  0
  5 25  1  0
  6 26  1  0
  6 27  1  0
  8 28  1  0
  8 29  1  0
 10 30  1  0
 11 31  1  0
 12 32  1  0
 13 33  1  0
 14 34  1  0
 15 35  1  0
 15 36  1  0
 16 37  1  0
 16 38  1  0
M  END
>  <UniqueID>  (1) 
1

>  <SMILES>  (1) 
CCNC1CCN(Cc2ccccc2)CC1

>  <Energy>  (1) 
42.97190765160008

>  <Genealogy>  (1) 
CCNC1CCN(Cc2ccccc2)CC1 (3D coordinates assigned)
CCNC1CCN(Cc2ccccc2)CC1 (nonaromatic ring conformer: 42.97190765160008 kcal/mol)

>  <smiles>  (1) 
CCNC1CCN(Cc2ccccc2)CC1

>  <score_type>  (1) 
oracle

>  <origin>  (1) 
adg

>  <m_score__min__energy>  (1) 
-7.1200000000000001

>  <m_primary>  (1) 
energy

$$$$
1:0
     RDKit          3D

 67 69  0  0  0  0  0  0  0  0999 V2000
    0.9120   26.2520  -24.3460 C   0  0  0  0  0  0  0  0  0  0  0  0
   -0.2470   26.0750  -25.2540 N   0  0  0  0  0  0  0  0  0  0  0  0
   -1.4640   26.5260  -24.5330 C   0  0  0  0  0  0  0  0  0  0  0  0
   -0.0470   26.9210  -26.4750 C   0  0  0  0  0  0  0  0  0  0  0  0
   -0.6910   26.2980  -27.7220 C   0  0  0  0  0  0  0  0  0  0  0  0
   -0.0570   25.0030  -28.0590 N   0  0  0  0  0  0  0  0  0  0  0  0
   -0.9280   24.2030  -28.9450 C   0  0  0  0  0  0  0  0  0  0  0  0
   -2.4020   24.5610  -28.7030 C   0  0  0  0  0  0  0  0  0  0  0  0
   -3.2900   23.8340  -29.6410 N   0  0  0  0  0  0  0  0  0  0  0  0
   -2.5570   22.9950  -30.6230 C   0  0  0  0  0  0  0  0  0  0  0  0
   -3.3410   21.7930  -31.1090 C   0  0  0  0  0  0  0  0  0  0  0  0
   -3.8570   21.0050  -30.2710 O   0  0  0  0  0  0  0  0  0  0  0  0
   -3.4990   21.5290  -32.5160 N   0  0  0  0  0  0  0  0  0  0  0  0
   -4.8460   21.1570  -32.9860 C   0  0  0  0  0  0  0  0  0  0  0  0
   -5.1340   19.6460  -33.0040 C   0  0  0  0  0  0  0  0  0  0  0  0
   -3.9930   18.8350  -33.6380 C   0  0  0  0  0  0  0  0  0  0  0  0
   -2.6480   19.0510  -32.9330 C   0  0  0  0  0  0  0  0  0  0  0  0
   -1.7790   20.1160  -33.6090 C   0  0  0  0  0  0  0  0  0  0  0  0
   -2.3130   21.5380  -33.3900 C   0  0  0  0  0  0  0  0  0  0  0  0
   -4.2680   24.7380  -30.2870 C   0  0  0  0  0  0  0  0  0  0  0  0
   -5.5010   23.9680  -30.6800 C   0  0  0  0  0  0  0  0  0  0  0  0
   -6.1180   23.1100  -29.7540 C   0  0  0  0  0  0  0  0  0  0  0  0
   -7.2690   22.4010  -30.1080 C   0  0  0  0  0  0  0  0  0  0  0  0
   -7.8140   22.5410  -31.3890 C   0  0  0  0  0  0  0  0  0  0  0  0
   -9.3870   21.5720  -31.8700 Br  0  0  0  0  0  0  0  0  0  0  0  0
   -7.2040   23.3910  -32.3170 C   0  0  0  0  0  0  0  0  0  0  0  0
   -6.0530   24.1030  -31.9660 C   0  0  0  0  0  0  0  0  0  0  0  0
    0.3870   24.2380  -26.8640 C   0  0  0  0  0  0  0  0  0  0  0  0
   -0.3980   24.6230  -25.5970 C   0  0  0  0  0  0  0  0  0  0  0  0
    0.5708   26.1999  -23.3015 H   0  0  0  0  0  0  0  0  0  0  0  0
    1.6480   25.4558  -24.5315 H   0  0  0  0  0  0  0  0  0  0  0  0
    1.3769   27.2316  -24.5315 H   0  0  0  0  0  0  0  0  0  0  0  0
   -1.2923   26.4624  -23.4483 H   0  0  0  0  0  0  0  0  0  0  0  0
   -1.6886   27.5671  -24.8082 H   0  0  0  0  0  0  0  0  0  0  0  0
   -2.3128   25.8827  -24.8082 H   0  0  0  0  0  0  0  0  0  0  0  0
   -0.4974   27.9091  -26.2994 H   0  0  0  0  0  0  0  0  0  0  0  0
    1.0348   27.0018  -26.6573 H   0  0  0  0  0  0  0  0  0  0  0  0
   -1.7617   26.1346  -27.5298 H   0  0  0  0  0  0  0  0  0  0  0  0
   -0.5508   26.9864  -28.5685 H   0  0  0  0  0  0  0  0  0  0  0  0
   -0.6705   24.4127  -29.9937 H   0  0  0  0  0  0  0  0  0  0  0  0
   -0.7774   23.1352  -28.7279 H   0  0  0  0  0  0  0  0  0  0  0  0
   -2.6721   24.2917  -27.6712 H   0  0  0  0  0  0  0  0  0  0  0  0
   -2.5302   25.6410  -28.8676 H   0  0  0  0  0  0  0  0  0  0  0  0
   -2.3057   23.6195  -31.4930 H   0  0  0  0  0  0  0  0  0  0  0  0
   -1.6646   22.6080  -30.1094 H   0  0  0  0  0  0  0  0  0  0  0  0
   -5.5827   21.6369  -32.3250 H   0  0  0  0  0  0  0  0  0  0  0  0
   -4.9112   21.4949  -34.0308 H   0  0  0  0  0  0  0  0  0  0  0  0
   -5.2778   19.3023  -31.9690 H   0  0  0  0  0  0  0  0  0  0  0  0
   -6.0356   19.4857  -33.6134 H   0  0  0  0  0  0  0  0  0  0  0  0
   -4.2498   17.7667  -33.5857 H   0  0  0  0  0  0  0  0  0  0  0  0
   -3.8811   19.1770  -34.6775 H   0  0  0  0  0  0  0  0  0  0  0  0
   -2.8424   19.3641  -31.8966 H   0  0  0  0  0  0  0  0  0  0  0  0
   -2.0969   18.1001  -32.9798 H   0  0  0  0  0  0  0  0  0  0  0  0
   -0.7611   20.0543  -33.1965 H   0  0  0  0  0  0  0  0  0  0  0  0
   -1.7904   19.9183  -34.6910 H   0  0  0  0  0  0  0  0  0  0  0  0
   -1.5268   22.1493  -32.9229 H   0  0  0  0  0  0  0  0  0  0  0  0
   -2.6001   21.9581  -34.3652 H   0  0  0  0  0  0  0  0  0  0  0  0
   -4.5462   25.5362  -29.5831 H   0  0  0  0  0  0  0  0  0  0  0  0
   -3.8138   25.1760  -31.1880 H   0  0  0  0  0  0  0  0  0  0  0  0
   -5.6931   22.9959  -28.7458 H   0  0  0  0  0  0  0  0  0  0  0  0
   -7.7475   21.7315  -29.3781 H   0  0  0  0  0  0  0  0  0  0  0  0
   -7.6306   23.4996  -33.3251 H   0  0  0  0  0  0  0  0  0  0  0  0
   -5.5775   24.7714  -32.6989 H   0  0  0  0  0  0  0  0  0  0  0  0
    0.2418   23.1649  -27.0573 H   0  0  0  0  0  0  0  0  0  0  0  0
    1.4465   24.4756  -26.6878 H   0  0  0  0  0  0  0  0  0  0  0  0
   -1.4640   24.4074  -25.7620 H   0  0  0  0  0  0  0  0  0  0  0  0
    0.0054   24.0353  -24.7592 H   0  0  0  0  0  0  0  0  0  0  0  0
  1  2  1  0
  2  3  1  0
  2  4  1  0
  4  5  1  0
  5  6  1  0
  6  7  1  0
  7  8  1  0
  8  9  1  0
  9 10  1  0
 10 11  1  0
 11 12  2  0
 11 13  1  0
 13 14  1  0
 14 15  1  0
 15 16  1  0
 16 17  1  0
 17 18  1  0
 18 19  1  0
  9 20  1  0
 20 21  1  0
 21 22  2  0
 22 23  1  0
 23 24  2  0
 24 25  1  0
 24 26  1  0
 26 27  2  0
  6 28  1  0
 28 29  1  0
 29  2  1  0
 19 13  1  0
 27 21  1  0
  1 30  1  0
  1 31  1  0
  1 32  1  0
  3 33  1  0
  3 34  1  0
  3 35  1  0
  4 36  1  0
  4 37  1  0
  5 38  1  0
  5 39  1  0
  7 40  1  0
  7 41  1  0
  8 42  1  0
  8 43  1  0
 10 44  1  0
 10 45  1  0
 14 46  1  0
 14 47  1  0
 15 48  1  0
 15 49  1  0
 16 50  1  0
 16 51  1  0
 17 52  1  0
 17 53  1  0
 18 54  1  0
 18 55  1  0
 19 56  1  0
 19 57  1  0
 20 58  1  0
 20 59  1  0
 22 60  1  0
 23 61  1  0
 26 62  1  0
 27 63  1  0
 28 64  1  0
 28 65  1  0
 29 66  1  0
 29 67  1  0
M  CHG  1   2   1
M  END
>  <UniqueID>  (2) 
2

>  <SMILES>  (2) 
C[N+]1(C)CCN(CCN(CC(=O)N2CCCCCC2)Cc2ccc(Br)cc2)CC1

>  <Energy>  (2) 
87.59352346625265

>  <Genealogy>  (2) 
C[N+]1(C)CCN(CCN(CC(=O)N2CCCCCC2)Cc2ccc(Br)cc2)CC1 (3D coordinates assigned)
C[N+]1(C)CCN(CCN(CC(=O)N2CCCCCC2)Cc2ccc(Br)cc2)CC1 (nonaromatic ring conformer: 87.59352346625265 kcal/mol)

>  <smiles>  (2) 
C[N+]1(C)CCN(CCN(CC(=O)N2CCCCCC2)Cc2ccc(Br)cc2)CC1

>  <score_type>  (2) 
oracle

>  <origin>  (2) 
adg

>  <m_score__min__energy>  (2) 
-7.0099999999999998

>  <m_primary>  (2) 
energy

$$$$
2:0
     RDKit          3D

 47 49  0  0  0  0  0  0  0  0999 V2000
   -6.5160   16.9220  -33.6520 C   0  0  0  0  0  0  0  0  0  0  0  0
   -6.1110   18.1310  -34.4880 C   0  0  0  0  0  0  0  0  0  0  0  0
   -6.0180   19.3650  -33.6300 C   0  0  0  0  0  0  0  0  0  0  0  0
   -4.7770   19.9810  -33.4110 C   0  0  0  0  0  0  0  0  0  0  0  0
   -4.6930   21.1460  -32.6420 C   0  0  0  0  0  0  0  0  0  0  0  0
   -5.8510   21.7210  -32.0870 C   0  0  0  0  0  0  0  0  0  0  0  0
   -5.7630   22.9610  -31.2740 C   0  0  0  0  0  0  0  0  0  0  0  0
   -6.9290   23.6210  -30.8520 C   0  0  0  0  0  0  0  0  0  0  0  0
   -6.8430   24.7860  -30.0890 C   0  0  0  0  0  0  0  0  0  0  0  0
   -5.5960   25.3040  -29.7370 C   0  0  0  0  0  0  0  0  0  0  0  0
   -4.4170   24.6650  -30.1390 C   0  0  0  0  0  0  0  0  0  0  0  0
   -3.1970   25.2470  -29.7410 O   0  0  0  0  0  0  0  0  0  0  0  0
   -2.2430   24.7520  -28.7910 C   0  0  0  0  0  0  0  0  0  0  0  0
   -1.7530   23.3260  -29.1370 C   0  0  0  0  0  0  0  0  0  0  0  0
   -1.4160   22.5160  -27.8790 C   0  0  0  0  0  0  0  0  0  0  0  0
   -0.7580   23.3930  -26.8940 N   0  0  0  0  0  0  0  0  0  0  0  0
   -0.1340   22.5950  -25.8280 C   0  0  0  0  0  0  0  0  0  0  0  0
   -1.7100   24.3720  -26.3150 C   0  0  0  0  0  0  0  0  0  0  0  0
   -2.7380   24.9060  -27.3390 C   0  0  0  0  0  0  0  0  0  0  0  0
   -4.5100   23.4920  -30.9170 C   0  0  0  0  0  0  0  0  0  0  0  0
   -7.0940   21.1060  -32.3210 C   0  0  0  0  0  0  0  0  0  0  0  0
   -7.1760   19.9420  -33.0900 C   0  0  0  0  0  0  0  0  0  0  0  0
   -6.4328   17.1705  -32.5837 H   0  0  0  0  0  0  0  0  0  0  0  0
   -7.5553   16.6469  -33.8846 H   0  0  0  0  0  0  0  0  0  0  0  0
   -5.8521   16.0764  -33.8846 H   0  0  0  0  0  0  0  0  0  0  0  0
   -5.1318   17.9383  -34.9506 H   0  0  0  0  0  0  0  0  0  0  0  0
   -6.8737   18.2962  -35.2632 H   0  0  0  0  0  0  0  0  0  0  0  0
   -3.8654   19.5456  -33.8463 H   0  0  0  0  0  0  0  0  0  0  0  0
   -3.7138   21.6166  -32.4696 H   0  0  0  0  0  0  0  0  0  0  0  0
   -7.9152   23.2172  -31.1246 H   0  0  0  0  0  0  0  0  0  0  0  0
   -7.7609   25.2976  -29.7640 H   0  0  0  0  0  0  0  0  0  0  0  0
   -5.5388   26.2243  -29.1372 H   0  0  0  0  0  0  0  0  0  0  0  0
   -1.3491   25.3887  -28.8656 H   0  0  0  0  0  0  0  0  0  0  0  0
   -2.5442   22.8037  -29.6949 H   0  0  0  0  0  0  0  0  0  0  0  0
   -0.8370   23.4171  -29.7393 H   0  0  0  0  0  0  0  0  0  0  0  0
   -2.3414   22.1077  -27.4465 H   0  0  0  0  0  0  0  0  0  0  0  0
   -0.7405   21.6893  -28.1442 H   0  0  0  0  0  0  0  0  0  0  0  0
   -0.4415   22.9882  -24.8478 H   0  0  0  0  0  0  0  0  0  0  0  0
   -0.4544   21.5467  -25.9194 H   0  0  0  0  0  0  0  0  0  0  0  0
    0.9607   22.6532  -25.9194 H   0  0  0  0  0  0  0  0  0  0  0  0
   -2.2562   23.8841  -25.4942 H   0  0  0  0  0  0  0  0  0  0  0  0
   -1.1201   25.2328  -25.9670 H   0  0  0  0  0  0  0  0  0  0  0  0
   -3.6778   24.3461  -27.2233 H   0  0  0  0  0  0  0  0  0  0  0  0
   -2.8859   25.9783  -27.1432 H   0  0  0  0  0  0  0  0  0  0  0  0
   -3.5913   22.9861  -31.2487 H   0  0  0  0  0  0  0  0  0  0  0  0
   -8.0086   21.5446  -31.8955 H   0  0  0  0  0  0  0  0  0  0  0  0
   -8.1553   19.4756  -33.2728 H   0  0  0  0  0  0  0  0  0  0  0  0
  1  2  1  0
  2  3  1  0
  3  4  2  0
  4  5  1  0
  5  6  2  0
  6  7  1  0
  7  8  2  0
  8  9  1  0
  9 10  2  0
 10 11  1  0
 11 12  1  0
 12 13  1  0
 13 14  1  0
 14 15  1  0
 15 16  1  0
 16 17  1  0
 16 18  1  0
 18 19  1  0
 11 20  2  0
  6 21  1  0
 21 22  2  0
 22  3  1  0
 20  7  1  0
 19 13  1  0
  1 23  1  0
  1 24  1  0
  1 25  1  0
  2 26  1  0
  2 27  1  0
  4 28  1  0
  5 29  1  0
  8 30  1  0
  9 31  1  0
 10 32  1  0
 13 33  1  0
 14 34  1  0
 14 35  1  0
 15 36  1  0
 15 37  1  0
 17 38  1  0
 17 39  1  0
 17 40  1  0
 18 41  1  0
 18 42  1  0
 19 43  1  0
 19 44  1  0
 20 45  1  0
 21 46  1  0
 22 47  1  0
M  END
>  <UniqueID>  (3) 
3

>  <SMILES>  (3) 
CCc1ccc(-c2cccc(OC3CCN(C)CC3)c2)cc1

>  <Energy>  (3) 
59.0328923888132

>  <Genealogy>  (3) 
CCc1ccc(-c2cccc(OC3CCN(C)CC3)c2)cc1 (3D coordinates assigned)
CCc1ccc(-c2cccc(OC3CCN(C)CC3)c2)cc1 (nonaromatic ring conformer: 59.0328923888132 kcal/mol)

>  <smiles>  (3) 
CCc1ccc(-c2cccc(OC3CCN(C)CC3)c2)cc1

>  <score_type>  (3) 
oracle

>  <origin>  (3) 
adg

>  <m_score__min__energy>  (3) 
-8.9499999999999993

>  <m_primary>  (3) 
energy

$$$$
3:0
     RDKit          3D

 51 54  0  0  0  0  0  0  0  0999 V2000
   -4.9340   25.5550  -30.4320 C   0  0  0  0  0  0  0  0  0  0  0  0
   -3.5390   25.2810  -30.3460 O   0  0  0  0  0  0  0  0  0  0  0  0
   -2.9510   24.4270  -29.3990 C   0  0  0  0  0  0  0  0  0  0  0  0
   -2.7560   24.8260  -28.0610 C   0  0  0  0  0  0  0  0  0  0  0  0
   -2.1580   23.9590  -27.1430 C   0  0  0  0  0  0  0  0  0  0  0  0
   -1.7450   22.6890  -27.5460 C   0  0  0  0  0  0  0  0  0  0  0  0
   -1.9320   22.2790  -28.8680 C   0  0  0  0  0  0  0  0  0  0  0  0
   -2.5400   23.1370  -29.8010 C   0  0  0  0  0  0  0  0  0  0  0  0
   -2.7460   22.6710  -31.2290 C   0  0  0  0  0  0  0  0  0  0  0  0
   -4.0320   21.9490  -31.4050 N   0  0  0  0  0  0  0  0  0  0  0  0
   -4.8840   22.1440  -30.2020 C   0  0  0  0  0  0  0  0  0  0  0  0
   -6.3660   21.9260  -30.5260 C   0  0  0  0  0  0  0  0  0  0  0  0
   -6.8580   22.9370  -31.4910 N   0  0  0  0  0  0  0  0  0  0  0  0
   -8.0690   22.4490  -32.1810 C   0  0  0  0  0  0  0  0  0  0  0  0
   -8.1960   20.9620  -32.0250 C   0  0  0  0  0  0  0  0  0  0  0  0
   -9.0900   20.2980  -31.1900 C   0  0  0  0  0  0  0  0  0  0  0  0
   -8.9560   18.9600  -31.3240 N   0  0  0  0  0  0  0  0  0  0  0  0
   -7.9890   18.7720  -32.2380 C   0  0  0  0  0  0  0  0  0  0  0  0
   -7.5050   17.5550  -32.7170 C   0  0  0  0  0  0  0  0  0  0  0  0
   -6.4900   17.5890  -33.6900 C   0  0  0  0  0  0  0  0  0  0  0  0
   -5.9880   18.8230  -34.1590 C   0  0  0  0  0  0  0  0  0  0  0  0
   -6.4950   20.0350  -33.6590 C   0  0  0  0  0  0  0  0  0  0  0  0
   -7.5000   19.9720  -32.6920 C   0  0  0  0  0  0  0  0  0  0  0  0
   -5.8130   23.3950  -32.4430 C   0  0  0  0  0  0  0  0  0  0  0  0
   -4.7210   22.3350  -32.6690 C   0  0  0  0  0  0  0  0  0  0  0  0
   -5.3546   25.6376  -29.4189 H   0  0  0  0  0  0  0  0  0  0  0  0
   -5.0893   26.5008  -30.9717 H   0  0  0  0  0  0  0  0  0  0  0  0
   -5.4355   24.7382  -30.9717 H   0  0  0  0  0  0  0  0  0  0  0  0
   -3.0770   25.8271  -27.7374 H   0  0  0  0  0  0  0  0  0  0  0  0
   -2.0126   24.2785  -26.1005 H   0  0  0  0  0  0  0  0  0  0  0  0
   -1.2715   22.0097  -26.8218 H   0  0  0  0  0  0  0  0  0  0  0  0
   -1.6012   21.2778  -29.1813 H   0  0  0  0  0  0  0  0  0  0  0  0
   -2.7391   23.5486  -31.8922 H   0  0  0  0  0  0  0  0  0  0  0  0
   -1.9316   21.9744  -31.4771 H   0  0  0  0  0  0  0  0  0  0  0  0
   -3.8270   20.9230  -31.4640 H   0  0  0  0  0  0  0  0  0  0  0  0
   -4.5778   21.4267  -29.4263 H   0  0  0  0  0  0  0  0  0  0  0  0
   -4.7548   23.1780  -29.8498 H   0  0  0  0  0  0  0  0  0  0  0  0
   -6.4947   20.9234  -30.9599 H   0  0  0  0  0  0  0  0  0  0  0  0
   -6.9439   22.0229  -29.5951 H   0  0  0  0  0  0  0  0  0  0  0  0
   -8.9547   22.9360  -31.7469 H   0  0  0  0  0  0  0  0  0  0  0  0
   -7.9917   22.6904  -33.2514 H   0  0  0  0  0  0  0  0  0  0  0  0
   -9.8049   20.7927  -30.5160 H   0  0  0  0  0  0  0  0  0  0  0  0
   -9.5010   18.2240  -30.8220 H   0  0  0  0  0  0  0  0  0  0  0  0
   -7.9041   16.5995  -32.3459 H   0  0  0  0  0  0  0  0  0  0  0  0
   -6.0841   16.6475  -34.0887 H   0  0  0  0  0  0  0  0  0  0  0  0
   -5.1947   18.8358  -34.9209 H   0  0  0  0  0  0  0  0  0  0  0  0
   -6.1123   21.0018  -34.0180 H   0  0  0  0  0  0  0  0  0  0  0  0
   -6.2894   23.6228  -33.4079 H   0  0  0  0  0  0  0  0  0  0  0  0
   -5.3324   24.2851  -32.0110 H   0  0  0  0  0  0  0  0  0  0  0  0
   -5.1844   21.4384  -33.1065 H   0  0  0  0  0  0  0  0  0  0  0  0
   -3.9671   22.7691  -33.3422 H   0  0  0  0  0  0  0  0  0  0  0  0
  1  2  1  0
  2  3  1  0
  3  4  2  0
  4  5  1  0
  5  6  2  0
  6  7  1  0
  7  8  2  0
  8  9  1  0
  9 10  1  0
 10 11  1  0
 11 12  1  0
 12 13  1  0
 13 14  1  0
 14 15  1  0
 15 16  2  0
 16 17  1  0
 17 18  1  0
 18 19  2  0
 19 20  1  0
 20 21  2  0
 21 22  1  0
 22 23  2  0
 13 24  1  0
 24 25  1  0
  8  3  1  0
 25 10  1  0
 23 15  1  0
 23 18  1  0
  1 26  1  0
  1 27  1  0
  1 28  1  0
  4 29  1  0
  5 30  1  0
  6 31  1  0
  7 32  1  0
  9 33  1  0
  9 34  1  0
 10 35  1  0
 11 36  1  0
 11 37  1  0
 12 38  1  0
 12 39  1  0
 14 40  1  0
 14 41  1  0
 16 42  1  0
 17 43  1  0
 19 44  1  0
 20 45  1  0
 21 46  1  0
 22 47  1  0
 24 48  1  0
 24 49  1  0
 25 50  1  0
 25 51  1  0
M  CHG  1  10   1
M  END
>  <UniqueID>  (4) 
4

>  <SMILES>  (4) 
COc1ccccc1C[NH+]1CCN(Cc2c[nH]c3ccccc23)CC1

>  <Energy>  (4) 
100.44765662248344

>  <Genealogy>  (4) 
COc1ccccc1C[NH+]1CCN(Cc2c[nH]c3ccccc23)CC1 (protonated)
COc1ccccc1C[NH+]1CCN(Cc2c[nH]c3ccccc23)CC1 (3D coordinates assigned)
COc1ccccc1C[NH+]1CCN(Cc2c[nH]c3ccccc23)CC1 (nonaromatic ring conformer: 100.44765662248344 kcal/mol)

>  <smiles>  (4) 
COc1ccccc1CN1CCN(Cc2c[nH]c3ccccc23)CC1

>  <score_type>  (4) 
oracle

>  <origin>  (4) 
adg

>  <m_score__min__energy>  (4) 
-8.2799999999999994

>  <m_primary>  (4) 
energy

$$$$
4:0
     RDKit          3D

 39 40  0  0  0  0  0  0  0  0999 V2000
   -3.5140   20.5810  -32.5730 C   0  0  0  0  0  0  0  0  0  0  0  0
   -4.2900   21.8480  -32.9110 C   0  0  0  0  0  0  0  0  0  0  0  0
   -5.3450   22.0540  -31.9750 O   0  0  0  0  0  0  0  0  0  0  0  0
   -5.5130   23.2340  -31.2390 C   0  0  0  0  0  0  0  0  0  0  0  0
   -4.5070   24.1510  -31.1630 N   0  0  0  0  0  0  0  0  0  0  0  0
   -4.6310   25.3000  -30.4480 C   0  0  0  0  0  0  0  0  0  0  0  0
   -5.8120   25.5660  -29.7550 C   0  0  0  0  0  0  0  0  0  0  0  0
   -6.8600   24.6490  -29.8120 C   0  0  0  0  0  0  0  0  0  0  0  0
   -6.7280   23.4720  -30.5670 C   0  0  0  0  0  0  0  0  0  0  0  0
   -7.8590   22.4790  -30.6380 C   0  0  0  0  0  0  0  0  0  0  0  0
   -8.2520   22.2540  -32.0400 N   0  0  0  0  0  0  0  0  0  0  0  0
   -9.2290   21.1630  -32.1970 C   0  0  0  0  0  0  0  0  0  0  0  0
   -8.7980   19.8880  -31.4590 C   0  0  0  0  0  0  0  0  0  0  0  0
   -7.7860   19.0900  -32.2310 C   0  0  0  0  0  0  0  0  0  0  0  0
   -7.3800   17.7950  -31.9280 C   0  0  0  0  0  0  0  0  0  0  0  0
   -6.3740   17.3170  -32.7760 C   0  0  0  0  0  0  0  0  0  0  0  0
   -5.9680   18.2490  -33.7220 C   0  0  0  0  0  0  0  0  0  0  0  0
   -4.9600   18.0150  -34.7970 C   0  0  0  0  0  0  0  0  0  0  0  0
   -6.8740   19.6530  -33.5310 S   0  0  0  0  0  0  0  0  0  0  0  0
   -3.4474   20.4723  -31.4804 H   0  0  0  0  0  0  0  0  0  0  0  0
   -4.0331   19.7089  -32.9973 H   0  0  0  0  0  0  0  0  0  0  0  0
   -2.5013   20.6471  -32.9973 H   0  0  0  0  0  0  0  0  0  0  0  0
   -3.6066   22.7095  -32.8810 H   0  0  0  0  0  0  0  0  0  0  0  0
   -4.7233   21.7413  -33.9164 H   0  0  0  0  0  0  0  0  0  0  0  0
   -3.8002   26.0202  -30.4157 H   0  0  0  0  0  0  0  0  0  0  0  0
   -5.9152   26.4911  -29.1689 H   0  0  0  0  0  0  0  0  0  0  0  0
   -7.7930   24.8476  -29.2642 H   0  0  0  0  0  0  0  0  0  0  0  0
   -7.5343   21.5262  -30.1944 H   0  0  0  0  0  0  0  0  0  0  0  0
   -8.7213   22.8773  -30.0833 H   0  0  0  0  0  0  0  0  0  0  0  0
   -7.3940   21.9750  -32.5730 H   0  0  0  0  0  0  0  0  0  0  0  0
  -10.1978   21.4945  -31.7952 H   0  0  0  0  0  0  0  0  0  0  0  0
   -9.3003   20.9252  -33.2686 H   0  0  0  0  0  0  0  0  0  0  0  0
   -8.3592   20.1720  -30.4911 H   0  0  0  0  0  0  0  0  0  0  0  0
   -9.6911   19.2590  -31.3295 H   0  0  0  0  0  0  0  0  0  0  0  0
   -7.8070   17.2048  -31.1038 H   0  0  0  0  0  0  0  0  0  0  0  0
   -5.9482   16.3056  -32.7006 H   0  0  0  0  0  0  0  0  0  0  0  0
   -3.9845   17.7885  -34.3419 H   0  0  0  0  0  0  0  0  0  0  0  0
   -5.2793   17.1671  -35.4208 H   0  0  0  0  0  0  0  0  0  0  0  0
   -4.8731   18.9169  -35.4208 H   0  0  0  0  0  0  0  0  0  0  0  0
  1  2  1  0
  2  3  1  0
  3  4  1  0
  4  5  2  0
  5  6  1  0
  6  7  2  0
  7  8  1  0
  8  9  2  0
  9 10  1  0
 10 11  1  0
 11 12  1  0
 12 13  1  0
 13 14  1  0
 14 15  2  0
 15 16  1  0
 16 17  2  0
 17 18  1  0
 17 19  1  0
  9  4  1  0
 19 14  1  0
  1 20  1  0
  1 21  1  0
  1 22  1  0
  2 23  1  0
  2 24  1  0
  6 25  1  0
  7 26  1  0
  8 27  1  0
 10 28  1  0
 10 29  1  0
 11 30  1  0
 12 31  1  0
 12 32  1  0
 13 33  1  0
 13 34  1  0
 15 35  1  0
 16 36  1  0
 18 37  1  0
 18 38  1  0
 18 39  1  0
M  END
>  <UniqueID>  (5) 
5

>  <SMILES>  (5) 
CCOc1ncccc1CNCCc1ccc(C)s1

>  <Energy>  (5) 
54.0770719556715

>  <Genealogy>  (5) 
CCOc1ncccc1CNCCc1ccc(C)s1 (3D coordinates assigned)
CCOc1ncccc1CNCCc1ccc(C)s1 (optimized conformer: 54.0770719556715 kcal/mol)

>  <smiles>  (5) 
CCOc1ncccc1CNCCc1ccc(C)s1

>  <score_type>  (5) 
oracle

>  <origin>  (5) 
adg

>  <m_score__min__energy>  (5) 
-7.8899999999999997

>  <m_primary>  (5) 
energy

$$$$
5:0
     RDKit          3D

 39 41  0  0  0  0  0  0  0  0999 V2000
   -9.1030   19.4520  -32.3340 C   0  0  0  0  0  0  0  0  0  0  0  0
   -8.0650   20.3600  -32.6890 O   0  0  0  0  0  0  0  0  0  0  0  0
   -6.7630   19.9850  -33.0650 C   0  0  0  0  0  0  0  0  0  0  0  0
   -6.5050   18.7330  -33.6520 C   0  0  0  0  0  0  0  0  0  0  0  0
   -5.2100   18.3790  -34.0210 C   0  0  0  0  0  0  0  0  0  0  0  0
   -4.1520   19.2550  -33.7950 C   0  0  0  0  0  0  0  0  0  0  0  0
   -4.3750   20.5090  -33.1960 C   0  0  0  0  0  0  0  0  0  0  0  0
   -3.3080   21.3720  -32.9010 O   0  0  0  0  0  0  0  0  0  0  0  0
   -2.5130   21.3120  -31.7200 C   0  0  0  0  0  0  0  0  0  0  0  0
   -5.6950   20.8900  -32.8540 C   0  0  0  0  0  0  0  0  0  0  0  0
   -5.9780   22.2090  -32.2290 C   0  0  0  0  0  0  0  0  0  0  0  0
   -7.1960   22.7170  -31.9540 N   0  0  0  0  0  0  0  0  0  0  0  0
   -7.0190   23.9050  -31.3990 N   0  0  0  0  0  0  0  0  0  0  0  0
   -5.6840   24.0850  -31.3510 C   0  0  0  0  0  0  0  0  0  0  0  0
   -5.0290   25.2760  -30.7850 C   0  0  0  0  0  0  0  0  0  0  0  0
   -5.7290   26.2810  -30.4950 O   0  0  0  0  0  0  0  0  0  0  0  0
   -3.6290   25.2940  -30.4740 N   0  0  0  0  0  0  0  0  0  0  0  0
   -2.9860   24.5500  -29.4300 C   0  0  0  0  0  0  0  0  0  0  0  0
   -3.6650   23.4760  -28.8410 C   0  0  0  0  0  0  0  0  0  0  0  0
   -3.0580   22.7310  -27.8230 C   0  0  0  0  0  0  0  0  0  0  0  0
   -1.7780   23.0700  -27.3770 C   0  0  0  0  0  0  0  0  0  0  0  0
   -1.1080   24.1620  -27.9370 C   0  0  0  0  0  0  0  0  0  0  0  0
   -1.7130   24.9080  -28.9530 C   0  0  0  0  0  0  0  0  0  0  0  0
   -5.0480   23.0500  -31.8460 O   0  0  0  0  0  0  0  0  0  0  0  0
   -9.1757   19.3884  -31.2382 H   0  0  0  0  0  0  0  0  0  0  0  0
  -10.0589   19.8091  -32.7448 H   0  0  0  0  0  0  0  0  0  0  0  0
   -8.8762   18.4571  -32.7448 H   0  0  0  0  0  0  0  0  0  0  0  0
   -7.3326   18.0283  -33.8208 H   0  0  0  0  0  0  0  0  0  0  0  0
   -5.0222   17.4033  -34.4930 H   0  0  0  0  0  0  0  0  0  0  0  0
   -3.1321   18.9644  -34.0873 H   0  0  0  0  0  0  0  0  0  0  0  0
   -3.1656   21.3612  -30.8358 H   0  0  0  0  0  0  0  0  0  0  0  0
   -1.9475   20.3686  -31.7062 H   0  0  0  0  0  0  0  0  0  0  0  0
   -1.8123   22.1598  -31.7062 H   0  0  0  0  0  0  0  0  0  0  0  0
   -8.1290   22.2700  -32.0890 H   0  0  0  0  0  0  0  0  0  0  0  0
   -4.6790   23.2169  -29.1795 H   0  0  0  0  0  0  0  0  0  0  0  0
   -3.5889   21.8785  -27.3741 H   0  0  0  0  0  0  0  0  0  0  0  0
   -1.2971   22.4774  -26.5848 H   0  0  0  0  0  0  0  0  0  0  0  0
   -0.1045   24.4343  -27.5781 H   0  0  0  0  0  0  0  0  0  0  0  0
   -1.1916   25.7773  -29.3802 H   0  0  0  0  0  0  0  0  0  0  0  0
  1  2  1  0
  2  3  1  0
  3  4  2  0
  4  5  1  0
  5  6  2  0
  6  7  1  0
  7  8  1  0
  8  9  1  0
  7 10  2  0
 10 11  1  0
 11 12  2  0
 12 13  1  0
 13 14  2  0
 14 15  1  0
 15 16  2  0
 15 17  1  0
 17 18  1  0
 18 19  2  0
 19 20  1  0
 20 21  2  0
 21 22  1  0
 22 23  2  0
 14 24  1  0
 10  3  1  0
 24 11  1  0
 23 18  1  0
  1 25  1  0
  1 26  1  0
  1 27  1  0
  4 28  1  0
  5 29  1  0
  6 30  1  0
  9 31  1  0
  9 32  1  0
  9 33  1  0
 12 34  1  0
 19 35  1  0
 20 36  1  0
 21 37  1  0
 22 38  1  0
 23 39  1  0
M  CHG  2  12   1  17  -1
M  END
>  <UniqueID>  (6) 
6

>  <SMILES>  (6) 
COc1cccc(OC)c1-c1[nH+]nc(C(=O)[N-]c2ccccc2)o1

>  <Energy>  (6) 
83.07569743351193

>  <Genealogy>  (6) 
COc1cccc(OC)c1-c1[nH+]nc(C(=O)[N-]c2ccccc2)o1 (protonated)
COc1cccc(OC)c1-c1[nH+]nc(C(=O)[N-]c2ccccc2)o1 (3D coordinates assigned)
COc1cccc(OC)c1-c1[nH+]nc(C(=O)[N-]c2ccccc2)o1 (optimized conformer: 83.07569743351193 kcal/mol)

>  <smiles>  (6) 
COc1cccc(OC)c1-c1nnc(C(=O)Nc2ccccc2)o1

>  <score_type>  (6) 
oracle

>  <origin>  (6) 
adg

>  <m_score__min__energy>  (6) 
-8.4700000000000006

>  <m_primary>  (6) 
energy

$$$$
6:0
     RDKit          3D

 30 31  0  0  0  0  0  0  0  0999 V2000
   -3.2150   24.2110  -27.5320 C   0  0  0  0  0  0  0  0  0  0  0  0
   -2.3320   24.8730  -28.5840 C   0  0  0  0  0  0  0  0  0  0  0  0
   -3.1080   25.2940  -29.7060 O   0  0  0  0  0  0  0  0  0  0  0  0
   -4.1690   24.5750  -30.2830 C   0  0  0  0  0  0  0  0  0  0  0  0
   -4.0000   23.3100  -30.8780 C   0  0  0  0  0  0  0  0  0  0  0  0
   -5.0940   22.6410  -31.4360 C   0  0  0  0  0  0  0  0  0  0  0  0
   -6.3730   23.2200  -31.3990 C   0  0  0  0  0  0  0  0  0  0  0  0
   -7.4920   22.5860  -31.9620 O   0  0  0  0  0  0  0  0  0  0  0  0
   -7.6380   21.2020  -32.1400 C   0  0  0  0  0  0  0  0  0  0  0  0
   -8.6580   20.5380  -31.4460 C   0  0  0  0  0  0  0  0  0  0  0  0
   -8.8250   19.1570  -31.5870 C   0  0  0  0  0  0  0  0  0  0  0  0
   -7.9650   18.4290  -32.4130 C   0  0  0  0  0  0  0  0  0  0  0  0
   -6.9330   19.0780  -33.0940 C   0  0  0  0  0  0  0  0  0  0  0  0
   -6.7630   20.4590  -32.9550 C   0  0  0  0  0  0  0  0  0  0  0  0
   -6.5350   24.4870  -30.8310 C   0  0  0  0  0  0  0  0  0  0  0  0
   -5.4430   25.1560  -30.2710 C   0  0  0  0  0  0  0  0  0  0  0  0
   -2.8548   24.4810  -26.5283 H   0  0  0  0  0  0  0  0  0  0  0  0
   -4.2524   24.5558  -27.6543 H   0  0  0  0  0  0  0  0  0  0  0  0
   -3.1749   23.1186  -27.6543 H   0  0  0  0  0  0  0  0  0  0  0  0
   -1.8364   25.7486  -28.1395 H   0  0  0  0  0  0  0  0  0  0  0  0
   -1.5844   24.1425  -28.9268 H   0  0  0  0  0  0  0  0  0  0  0  0
   -3.0030   22.8459  -30.9040 H   0  0  0  0  0  0  0  0  0  0  0  0
   -4.9521   21.6567  -31.9061 H   0  0  0  0  0  0  0  0  0  0  0  0
   -9.3309   21.1061  -30.7868 H   0  0  0  0  0  0  0  0  0  0  0  0
   -9.6341   18.6433  -31.0472 H   0  0  0  0  0  0  0  0  0  0  0  0
   -8.1010   17.3434  -32.5270 H   0  0  0  0  0  0  0  0  0  0  0  0
   -6.2535   18.5027  -33.7400 H   0  0  0  0  0  0  0  0  0  0  0  0
   -5.9429   20.9664  -33.4842 H   0  0  0  0  0  0  0  0  0  0  0  0
   -7.5279   24.9604  -30.8247 H   0  0  0  0  0  0  0  0  0  0  0  0
   -5.5857   26.1477  -29.8168 H   0  0  0  0  0  0  0  0  0  0  0  0
  1  2  1  0
  2  3  1  0
  3  4  1  0
  4  5  2  0
  5  6  1  0
  6  7  2  0
  7  8  1  0
  8  9  1  0
  9 10  2  0
 10 11  1  0
 11 12  2  0
 12 13  1  0
 13 14  2  0
  7 15  1  0
 15 16  2  0
 16  4  1  0
 14  9  1  0
  1 17  1  0
  1 18  1  0
  1 19  1  0
  2 20  1  0
  2 21  1  0
  5 22  1  0
  6 23  1  0
 10 24  1  0
 11 25  1  0
 12 26  1  0
 13 27  1  0
 14 28  1  0
 15 29  1  0
 16 30  1  0
M  END
>  <UniqueID>  (7) 
7

>  <SMILES>  (7) 
CCOc1ccc(Oc2ccccc2)cc1

>  <Energy>  (7) 
34.83785097303658

>  <Genealogy>  (7) 
CCOc1ccc(Oc2ccccc2)cc1 (3D coordinates assigned)
CCOc1ccc(Oc2ccccc2)cc1 (optimized conformer: 34.83785097303658 kcal/mol)

>  <smiles>  (7) 
CCOc1ccc(Oc2ccccc2)cc1

>  <score_type>  (7) 
oracle

>  <origin>  (7) 
adg

>  <m_score__min__energy>  (7) 
-6.8399999999999999

>  <m_primary>  (7) 
energy

$$$$
7:0
     RDKit          3D

 47 48  0  0  0  0  0  0  0  0999 V2000
   -9.6290   21.6530  -31.5930 C   0  0  0  0  0  0  0  0  0  0  0  0
   -9.1530   23.0550  -31.9720 C   0  0  0  0  0  0  0  0  0  0  0  0
   -7.8270   23.3570  -31.3870 N   0  0  0  0  0  0  0  0  0  0  0  0
   -7.4490   22.3420  -30.3830 C   0  0  0  0  0  0  0  0  0  0  0  0
   -6.8030   23.4210  -32.4530 C   0  0  0  0  0  0  0  0  0  0  0  0
   -5.4180   23.1620  -31.8970 C   0  0  0  0  0  0  0  0  0  0  0  0
   -4.9080   24.0170  -30.9060 C   0  0  0  0  0  0  0  0  0  0  0  0
   -3.6180   23.8400  -30.3940 C   0  0  0  0  0  0  0  0  0  0  0  0
   -3.1650   24.7290  -29.4070 O   0  0  0  0  0  0  0  0  0  0  0  0
   -3.1240   24.4330  -28.0150 C   0  0  0  0  0  0  0  0  0  0  0  0
   -2.8230   22.7890  -30.8820 C   0  0  0  0  0  0  0  0  0  0  0  0
   -3.3220   21.9270  -31.8600 C   0  0  0  0  0  0  0  0  0  0  0  0
   -4.6170   22.0890  -32.3580 C   0  0  0  0  0  0  0  0  0  0  0  0
   -5.0680   21.1950  -33.3380 O   0  0  0  0  0  0  0  0  0  0  0  0
   -5.6830   19.9650  -33.0680 C   0  0  0  0  0  0  0  0  0  0  0  0
   -5.0180   18.7910  -33.4330 C   0  0  0  0  0  0  0  0  0  0  0  0
   -5.5970   17.5370  -33.1960 C   0  0  0  0  0  0  0  0  0  0  0  0
   -4.9000   16.2890  -33.6490 C   0  0  0  0  0  0  0  0  0  0  0  0
   -6.8630   17.4630  -32.5960 C   0  0  0  0  0  0  0  0  0  0  0  0
   -7.5380   18.6330  -32.2160 C   0  0  0  0  0  0  0  0  0  0  0  0
   -8.8670   18.5490  -31.5260 C   0  0  0  0  0  0  0  0  0  0  0  0
   -6.9340   19.8820  -32.4310 C   0  0  0  0  0  0  0  0  0  0  0  0
   -9.6605   21.5602  -30.4974 H   0  0  0  0  0  0  0  0  0  0  0  0
  -10.6350   21.4836  -32.0044 H   0  0  0  0  0  0  0  0  0  0  0  0
   -8.9341   20.9061  -32.0044 H   0  0  0  0  0  0  0  0  0  0  0  0
   -9.0840   23.1246  -33.0676 H   0  0  0  0  0  0  0  0  0  0  0  0
   -9.8772   23.7827  -31.5770 H   0  0  0  0  0  0  0  0  0  0  0  0
   -7.6012   22.7507  -29.3732 H   0  0  0  0  0  0  0  0  0  0  0  0
   -8.0738   21.4462  -30.5140 H   0  0  0  0  0  0  0  0  0  0  0  0
   -6.3905   22.0731  -30.5140 H   0  0  0  0  0  0  0  0  0  0  0  0
   -7.0312   22.6622  -33.2160 H   0  0  0  0  0  0  0  0  0  0  0  0
   -6.8195   24.4293  -32.8923 H   0  0  0  0  0  0  0  0  0  0  0  0
   -5.5329   24.8389  -30.5264 H   0  0  0  0  0  0  0  0  0  0  0  0
   -3.2526   25.3612  -27.4388 H   0  0  0  0  0  0  0  0  0  0  0  0
   -3.9335   23.7313  -27.7653 H   0  0  0  0  0  0  0  0  0  0  0  0
   -2.1542   23.9778  -27.7653 H   0  0  0  0  0  0  0  0  0  0  0  0
   -1.8045   22.6452  -30.4922 H   0  0  0  0  0  0  0  0  0  0  0  0
   -2.6894   21.1123  -32.2422 H   0  0  0  0  0  0  0  0  0  0  0  0
   -4.0294   18.8521  -33.9115 H   0  0  0  0  0  0  0  0  0  0  0  0
   -4.5768   15.7103  -32.7711 H   0  0  0  0  0  0  0  0  0  0  0  0
   -5.5901   15.6827  -34.2541 H   0  0  0  0  0  0  0  0  0  0  0  0
   -4.0218   16.5585  -34.2541 H   0  0  0  0  0  0  0  0  0  0  0  0
   -7.3293   16.4819  -32.4224 H   0  0  0  0  0  0  0  0  0  0  0  0
   -8.7157   18.5586  -30.4365 H   0  0  0  0  0  0  0  0  0  0  0  0
   -9.4867   19.4098  -31.8177 H   0  0  0  0  0  0  0  0  0  0  0  0
   -9.3733   17.6171  -31.8177 H   0  0  0  0  0  0  0  0  0  0  0  0
   -7.4416   20.7999  -32.0997 H   0  0  0  0  0  0  0  0  0  0  0  0
  1  2  1  0
  2  3  1  0
  3  4  1  0
  3  5  1  0
  5  6  1  0
  6  7  2  0
  7  8  1  0
  8  9  1  0
  9 10  1  0
  8 11  2  0
 11 12  1  0
 12 13  2  0
 13 14  1  0
 14 15  1  0
 15 16  2  0
 16 17  1  0
 17 18  1  0
 17 19  2  0
 19 20  1  0
 20 21  1  0
 20 22  2  0
 13  6  1  0
 22 15  1  0
  1 23  1  0
  1 24  1  0
  1 25  1  0
  2 26  1  0
  2 27  1  0
  4 28  1  0
  4 29  1  0
  4 30  1  0
  5 31  1  0
  5 32  1  0
  7 33  1  0
 10 34  1  0
 10 35  1  0
 10 36  1  0
 11 37  1  0
 12 38  1  0
 16 39  1  0
 18 40  1  0
 18 41  1  0
 18 42  1  0
 19 43  1  0
 21 44  1  0
 21 45  1  0
 21 46  1  0
 22 47  1  0
M  END
>  <UniqueID>  (8) 
8

>  <SMILES>  (8) 
CCN(C)Cc1cc(OC)ccc1Oc1cc(C)cc(C)c1

>  <Energy>  (8) 
50.720556794041194

>  <Genealogy>  (8) 
CCN(C)Cc1cc(OC)ccc1Oc1cc(C)cc(C)c1 (3D coordinates assigned)
CCN(C)Cc1cc(OC)ccc1Oc1cc(C)cc(C)c1 (optimized conformer: 50.720556794041194 kcal/mol)

>  <smiles>  (8) 
CCN(C)Cc1cc(OC)ccc1Oc1cc(C)cc(C)c1

>  <score_type>  (8) 
oracle

>  <origin>  (8) 
adg

>  <m_score__min__energy>  (8) 
-7.5700000000000003

>  <m_primary>  (8) 
energy

$$$$
8:0
     RDKit          3D

 48 51  0  0  0  0  0  0  0  0999 V2000
    0.3278   25.6184  -26.3982 H   0  0  0  0  0  0  0  0  0  0  0  0
   -0.1060   24.9680  -27.1720 C   0  0  0  0  0  0  0  0  0  0  0  0
    0.5020   23.7440  -27.4740 C   0  0  0  0  0  0  0  0  0  0  0  0
    1.4104   23.4362  -26.9354 H   0  0  0  0  0  0  0  0  0  0  0  0
   -0.0400   22.9110  -28.4570 C   0  0  0  0  0  0  0  0  0  0  0  0
    0.4421   21.9506  -28.6922 H   0  0  0  0  0  0  0  0  0  0  0  0
   -1.2010   23.3020  -29.1440 C   0  0  0  0  0  0  0  0  0  0  0  0
   -1.8170   24.5450  -28.8350 C   0  0  0  0  0  0  0  0  0  0  0  0
   -2.9520   24.9370  -29.4920 N   0  0  0  0  0  0  0  0  0  0  0  0
   -3.5380   24.1750  -30.4630 C   0  0  0  0  0  0  0  0  0  0  0  0
   -4.6310   24.5590  -31.0510 N   0  0  0  0  0  0  0  0  0  0  0  0
   -5.9190   24.7510  -30.3840 C   0  0  0  0  0  0  0  0  0  0  0  0
   -6.4523   25.5877  -30.8590 H   0  0  0  0  0  0  0  0  0  0  0  0
   -5.7417   24.9715  -29.3210 H   0  0  0  0  0  0  0  0  0  0  0  0
   -6.7700   23.4820  -30.4940 C   0  0  0  0  0  0  0  0  0  0  0  0
   -7.6538   23.5872  -29.8475 H   0  0  0  0  0  0  0  0  0  0  0  0
   -6.1548   22.6258  -30.1802 H   0  0  0  0  0  0  0  0  0  0  0  0
   -7.2350   23.2380  -31.9410 C   0  0  0  0  0  0  0  0  0  0  0  0
   -6.3600   23.0210  -32.5713 H   0  0  0  0  0  0  0  0  0  0  0  0
   -7.7502   24.1382  -32.3072 H   0  0  0  0  0  0  0  0  0  0  0  0
   -8.1720   22.0920  -31.9950 N   0  0  0  0  0  0  0  0  0  0  0  0
   -8.7710   21.8620  -30.6620 C   0  0  0  0  0  0  0  0  0  0  0  0
   -8.0471   22.1400  -29.8818 H   0  0  0  0  0  0  0  0  0  0  0  0
   -9.6776   22.4760  -30.5565 H   0  0  0  0  0  0  0  0  0  0  0  0
   -9.0337   20.7991  -30.5565 H   0  0  0  0  0  0  0  0  0  0  0  0
   -7.4820   20.8680  -32.4720 C   0  0  0  0  0  0  0  0  0  0  0  0
   -6.5797   20.7018  -31.8653 H   0  0  0  0  0  0  0  0  0  0  0  0
   -7.2096   21.0031  -33.5291 H   0  0  0  0  0  0  0  0  0  0  0  0
   -8.3980   19.6550  -32.3510 C   0  0  0  0  0  0  0  0  0  0  0  0
   -8.5687   19.4290  -31.2881 H   0  0  0  0  0  0  0  0  0  0  0  0
   -9.3598   19.8717  -32.8388 H   0  0  0  0  0  0  0  0  0  0  0  0
   -7.9263   18.7892  -32.8388 H   0  0  0  0  0  0  0  0  0  0  0  0
   -2.9410   22.9560  -30.7910 C   0  0  0  0  0  0  0  0  0  0  0  0
   -3.2560   21.9740  -31.7130 C   0  0  0  0  0  0  0  0  0  0  0  0
   -4.2770   21.8640  -32.6580 C   0  0  0  0  0  0  0  0  0  0  0  0
   -5.0375   22.6513  -32.7667 H   0  0  0  0  0  0  0  0  0  0  0  0
   -4.3020   20.7120  -33.4680 C   0  0  0  0  0  0  0  0  0  0  0  0
   -5.0922   20.5933  -34.2240 H   0  0  0  0  0  0  0  0  0  0  0  0
   -3.3210   19.7090  -33.3170 C   0  0  0  0  0  0  0  0  0  0  0  0
   -3.3552   18.8122  -33.9530 H   0  0  0  0  0  0  0  0  0  0  0  0
   -2.2990   19.8470  -32.3590 C   0  0  0  0  0  0  0  0  0  0  0  0
   -1.5290   19.0711  -32.2363 H   0  0  0  0  0  0  0  0  0  0  0  0
   -2.2920   20.9970  -31.5700 C   0  0  0  0  0  0  0  0  0  0  0  0
   -1.3960   21.3180  -30.6120 N   0  0  0  0  0  0  0  0  0  0  0  0
   -0.5720   20.7500  -30.3130 H   0  0  0  0  0  0  0  0  0  0  0  0
   -1.8000   22.5230  -30.1430 C   0  0  0  0  0  0  0  0  0  0  0  0
   -1.2620   25.3680  -27.8490 C   0  0  0  0  0  0  0  0  0  0  0  0
   -1.7356   26.3307  -27.6062 H   0  0  0  0  0  0  0  0  0  0  0  0
  1  2  1  0
  2  3  2  0
  3  4  1  0
  3  5  1  0
  5  6  1  0
  5  7  2  0
  7  8  1  0
  8  9  1  0
  9 10  1  0
 10 11  2  0
 11 12  1  0
 12 13  1  0
 12 14  1  0
 12 15  1  0
 15 16  1  0
 15 17  1  0
 15 18  1  0
 18 19  1  0
 18 20  1  0
 18 21  1  0
 21 22  1  0
 22 23  1  0
 22 24  1  0
 22 25  1  0
 21 26  1  0
 26 27  1  0
 26 28  1  0
 26 29  1  0
 29 30  1  0
 29 31  1  0
 29 32  1  0
 10 33  1  0
 33 34  1  0
 34 35  2  0
 35 36  1  0
 35 37  1  0
 37 38  1  0
 37 39  2  0
 39 40  1  0
 39 41  1  0
 41 42  1  0
 41 43  2  0
 43 44  1  0
 44 45  1  0
 44 46  1  0
  8 47  2  0
 47 48  1  0
 47  2  1  0
 46  7  1  0
 46 33  2  0
 43 34  1  0
M  CHG  1   9  -1
M  END
>  <UniqueID>  (9) 
9

>  <SMILES>  (9) 
CCN(C)CCC/N=c1\[n-]c2ccccc2c2[nH]c3ccccc3c12

>  <Energy>  (9) 
94.89644102915499

>  <Genealogy>  (9) 
CCN(C)CCCN=c1[n-]c2ccccc2c2[nH]c3ccccc3c12 (protonated)
CCN(C)CCC/N=c1\[n-]c2ccccc2c2[nH]c3ccccc3c12 (cis-trans isomerization)
CCN(C)CCC/N=c1\[n-]c2ccccc2c2[nH]c3ccccc3c12 (3D coordinates assigned)
CCN(C)CCC/N=c1\[n-]c2ccccc2c2[nH]c3ccccc3c12 (optimized conformer: 94.89644102915499 kcal/mol)

>  <smiles>  (9) 
CCN(C)CCCN=c1[nH]c2ccccc2c2[nH]c3ccccc3c12

>  <score_type>  (9) 
oracle

>  <origin>  (9) 
adg

>  <m_score__min__energy>  (9) 
-9.6099999999999994

>  <m_primary>  (9) 
energy

$$$$
9:0
     RDKit          3D

 40 42  0  0  1  0  0  0  0  0999 V2000
   -6.4870   25.8520  -29.3310 C   0  0  0  0  0  0  0  0  0  0  0  0
   -5.6360   24.8180  -29.9460 C   0  0  0  0  0  0  0  0  0  0  0  0
   -6.0280   23.9840  -30.9180 N   0  0  0  0  0  0  0  0  0  0  0  0
   -5.2650   23.0420  -31.4860 C   0  0  0  0  0  0  0  0  0  0  0  0
   -5.7930   22.3240  -32.4040 N   0  0  0  0  0  0  0  0  0  0  0  0
   -6.7900   21.3300  -32.0640 C   0  0  0  0  0  0  0  0  0  0  0  0
   -8.1850   21.9130  -31.9670 C   0  0  0  0  0  0  0  0  0  0  0  0
   -9.0320   20.8660  -31.2530 C   0  0  0  0  0  0  0  0  0  0  0  0
   -9.0870   19.6630  -32.1470 C   0  0  0  0  0  0  0  0  0  0  0  0
   -7.7110   19.1270  -32.4700 C   0  0  0  0  0  0  0  0  0  0  0  0
   -6.8630   20.2210  -33.1000 C   0  0  0  0  0  0  0  0  0  0  0  0
   -3.9270   22.8690  -31.0630 C   0  0  0  0  0  0  0  0  0  0  0  0
   -3.0140   21.9910  -31.5020 C   0  0  0  0  0  0  0  0  0  0  0  0
   -3.2990   20.9740  -32.6070 C   0  0  0  0  0  0  0  0  0  0  0  0
   -1.7770   22.0200  -30.9290 C   0  0  0  0  0  0  0  0  0  0  0  0
   -0.5890   21.1740  -31.2160 C   0  0  0  0  0  0  0  0  0  0  0  0
   -1.8690   23.3230  -29.7210 S   0  0  0  0  0  0  0  0  0  0  0  0
   -3.5430   23.7260  -30.0720 C   0  0  0  0  0  0  0  0  0  0  0  0
   -4.3490   24.6660  -29.5250 N   0  0  0  0  0  0  0  0  0  0  0  0
   -6.4237   25.7751  -28.2355 H   0  0  0  0  0  0  0  0  0  0  0  0
   -6.1428   26.8471  -29.6492 H   0  0  0  0  0  0  0  0  0  0  0  0
   -7.5297   25.7056  -29.6492 H   0  0  0  0  0  0  0  0  0  0  0  0
   -6.4687   20.9391  -31.0873 H   0  0  0  0  0  0  0  0  0  0  0  0
   -8.1683   22.8491  -31.3895 H   0  0  0  0  0  0  0  0  0  0  0  0
   -8.5919   22.1491  -32.9613 H   0  0  0  0  0  0  0  0  0  0  0  0
   -8.5717   20.6003  -30.2899 H   0  0  0  0  0  0  0  0  0  0  0  0
  -10.0423   21.2505  -31.0494 H   0  0  0  0  0  0  0  0  0  0  0  0
   -9.6652   18.8740  -31.6437 H   0  0  0  0  0  0  0  0  0  0  0  0
   -9.5611   19.9665  -33.0920 H   0  0  0  0  0  0  0  0  0  0  0  0
   -7.2287   18.7793  -31.5445 H   0  0  0  0  0  0  0  0  0  0  0  0
   -7.8057   18.2901  -33.1776 H   0  0  0  0  0  0  0  0  0  0  0  0
   -5.8558   19.8423  -33.3285 H   0  0  0  0  0  0  0  0  0  0  0  0
   -7.2957   20.5766  -34.0467 H   0  0  0  0  0  0  0  0  0  0  0  0
   -3.5697   20.0082  -32.1555 H   0  0  0  0  0  0  0  0  0  0  0  0
   -4.1310   21.3334  -33.2304 H   0  0  0  0  0  0  0  0  0  0  0  0
   -2.4014   20.8486  -33.2304 H   0  0  0  0  0  0  0  0  0  0  0  0
   -0.1328   20.8492  -30.2692 H   0  0  0  0  0  0  0  0  0  0  0  0
   -0.8985   20.2918  -31.7956 H   0  0  0  0  0  0  0  0  0  0  0  0
    0.1435   21.7550  -31.7956 H   0  0  0  0  0  0  0  0  0  0  0  0
   -3.9820   25.2810  -28.7750 H   0  0  0  0  0  0  0  0  0  0  0  0
  1  2  1  0
  2  3  2  0
  3  4  1  0
  4  5  2  0
  5  6  1  0
  6  7  1  0
  7  8  1  0
  8  9  1  0
  9 10  1  0
 10 11  1  0
  4 12  1  0
 12 13  1  0
 13 14  1  0
 13 15  2  0
 15 16  1  0
 15 17  1  0
 17 18  1  0
 18 19  1  0
 19  2  1  0
 11  6  1  0
 18 12  2  0
  1 20  1  0
  1 21  1  0
  1 22  1  0
  6 23  1  0
  7 24  1  0
  7 25  1  0
  8 26  1  0
  8 27  1  0
  9 28  1  0
  9 29  1  0
 10 30  1  0
 10 31  1  0
 11 32  1  0
 11 33  1  0
 14 34  1  0
 14 35  1  0
 14 36  1  0
 16 37  1  0
 16 38  1  0
 16 39  1  0
 19 40  1  0
M  END
>  <smiles>  (10) 
Cc1nc(=NC2CCCCC2)c2c(C)c(C)sc2[nH]1

>  <score_type>  (10) 
oracle

>  <origin>  (10) 
adg

>  <m_score__min__energy>  (10) 
-8.0500000000000007

>  <m_primary>  (10) 
energy

$$$$
10:0
     RDKit          3D

 42 43  0  0  0  0  0  0  0  0999 V2000
   -3.7290   24.1550  -28.1630 C   0  0  0  0  0  0  0  0  0  0  0  0
   -3.4900   24.5340  -29.6290 C   0  0  0  0  0  0  0  0  0  0  0  0
   -4.7300   24.5710  -30.4380 N   0  0  0  0  0  0  0  0  0  0  0  0
   -5.3480   25.9090  -30.4650 C   0  0  0  0  0  0  0  0  0  0  0  0
   -5.6230   23.3880  -30.2400 C   0  0  1  0  0  0  0  0  0  0  0  0
   -7.1170   23.5980  -30.5800 C   0  0  0  0  0  0  0  0  0  0  0  0
   -7.4910   23.3560  -32.0590 C   0  0  0  0  0  0  0  0  0  0  0  0
   -6.8610   22.1630  -32.6700 N   0  0  2  0  0  0  0  0  0  0  0  0
   -7.7290   20.6660  -32.3460 S   0  0  0  0  0  0  0  0  0  0  0  0
   -9.1540   20.7850  -32.8120 O   0  0  0  0  0  0  0  0  0  0  0  0
   -7.7590   20.4500  -30.8590 O   0  0  0  0  0  0  0  0  0  0  0  0
   -7.0170   19.2250  -33.0810 C   0  0  0  0  0  0  0  0  0  0  0  0
   -6.1090   19.3550  -34.1430 C   0  0  0  0  0  0  0  0  0  0  0  0
   -5.5410   18.2170  -34.7260 C   0  0  0  0  0  0  0  0  0  0  0  0
   -5.8650   16.9470  -34.2420 C   0  0  0  0  0  0  0  0  0  0  0  0
   -6.7500   16.8130  -33.1700 C   0  0  0  0  0  0  0  0  0  0  0  0
   -7.3190   17.9480  -32.5840 C   0  0  0  0  0  0  0  0  0  0  0  0
   -5.4080   22.0700  -32.4180 C   0  0  0  0  0  0  0  0  0  0  0  0
   -5.0510   22.1440  -30.9340 C   0  0  0  0  0  0  0  0  0  0  0  0
   -3.2571   24.9033  -27.5092 H   0  0  0  0  0  0  0  0  0  0  0  0
   -4.8104   24.1240  -27.9639 H   0  0  0  0  0  0  0  0  0  0  0  0
   -3.2910   23.1658  -27.9639 H   0  0  0  0  0  0  0  0  0  0  0  0
   -3.0240   25.5299  -29.6599 H   0  0  0  0  0  0  0  0  0  0  0  0
   -2.8428   23.7577  -30.0631 H   0  0  0  0  0  0  0  0  0  0  0  0
   -5.5097   26.2591  -29.4348 H   0  0  0  0  0  0  0  0  0  0  0  0
   -4.6824   26.6098  -30.9902 H   0  0  0  0  0  0  0  0  0  0  0  0
   -6.3131   25.8566  -30.9902 H   0  0  0  0  0  0  0  0  0  0  0  0
   -5.6281   23.2303  -29.1514 H   0  0  0  0  0  0  0  0  0  0  0  0
   -7.3820   24.6351  -30.3265 H   0  0  0  0  0  0  0  0  0  0  0  0
   -7.6729   22.8495  -29.9963 H   0  0  0  0  0  0  0  0  0  0  0  0
   -7.1853   24.2395  -32.6386 H   0  0  0  0  0  0  0  0  0  0  0  0
   -8.5764   23.1788  -32.0797 H   0  0  0  0  0  0  0  0  0  0  0  0
   -6.9540   22.2900  -33.7060 H   0  0  0  0  0  0  0  0  0  0  0  0
   -5.8431   20.3543  -34.5181 H   0  0  0  0  0  0  0  0  0  0  0  0
   -4.8388   18.3223  -35.5661 H   0  0  0  0  0  0  0  0  0  0  0  0
   -5.4230   16.0526  -34.7053 H   0  0  0  0  0  0  0  0  0  0  0  0
   -6.9999   15.8130  -32.7860 H   0  0  0  0  0  0  0  0  0  0  0  0
   -8.0052   17.8395  -31.7311 H   0  0  0  0  0  0  0  0  0  0  0  0
   -4.9084   22.8994  -32.9400 H   0  0  0  0  0  0  0  0  0  0  0  0
   -5.0732   21.0895  -32.7874 H   0  0  0  0  0  0  0  0  0  0  0  0
   -3.9554   22.1617  -30.8377 H   0  0  0  0  0  0  0  0  0  0  0  0
   -5.4924   21.2629  -30.4454 H   0  0  0  0  0  0  0  0  0  0  0  0
  1  2  1  0
  2  3  1  0
  3  4  1  0
  3  5  1  0
  5  6  1  0
  6  7  1  0
  7  8  1  0
  8  9  1  0
  9 10  2  0
  9 11  2  0
  9 12  1  0
 12 13  2  0
 13 14  1  0
 14 15  2  0
 15 16  1  0
 16 17  2  0
  8 18  1  0
 18 19  1  0
 19  5  1  0
 17 12  1  0
  1 20  1  0
  1 21  1  0
  1 22  1  0
  2 23  1  0
  2 24  1  0
  4 25  1  0
  4 26  1  0
  4 27  1  0
  5 28  1  1
  6 29  1  0
  6 30  1  0
  7 31  1  0
  7 32  1  0
  8 33  1  6
 13 34  1  0
 14 35  1  0
 15 36  1  0
 16 37  1  0
 17 38  1  0
 18 39  1  0
 18 40  1  0
 19 41  1  0
 19 42  1  0
M  CHG  1   8   1
M  END
>  <UniqueID>  (11) 
10

>  <SMILES>  (11) 
CCN(C)C1CC[NH+](S(=O)(=O)c2ccccc2)CC1

>  <Energy>  (11) 
56.71689429477549

>  <Genealogy>  (11) 
CCN(C)C1CC[NH+](S(=O)(=O)c2ccccc2)CC1 (protonated)
CCN(C)C1CC[NH+](S(=O)(=O)c2ccccc2)CC1 (3D coordinates assigned)
CCN(C)C1CC[NH+](S(=O)(=O)c2ccccc2)CC1 (nonaromatic ring conformer: 56.71689429477549 kcal/mol)

>  <smiles>  (11) 
CCN(C)C1CCN(S(=O)(=O)c2ccccc2)CC1

>  <score_type>  (11) 
oracle

>  <origin>  (11) 
adg

>  <m_score__min__energy>  (11) 
-7.1500000000000004

>  <m_primary>  (11) 
energy

$$$$
11:0
     RDKit          3D

 34 35  0  0  0  0  0  0  0  0999 V2000
   -8.8380   18.5980  -31.6480 C   0  0  0  0  0  0  0  0  0  0  0  0
   -7.6540   17.8450  -32.2030 C   0  0  0  0  0  0  0  0  0  0  0  0
   -6.7320   18.6950  -32.9010 N   0  0  0  0  0  0  0  0  0  0  0  0
   -6.0680   18.1590  -34.0720 C   0  0  0  0  0  0  0  0  0  0  0  0
   -6.1470   16.6520  -34.1050 C   0  0  0  0  0  0  0  0  0  0  0  0
   -6.4280   20.0340  -32.5010 C   0  0  0  0  0  0  0  0  0  0  0  0
   -7.1950   21.0890  -32.8160 N   0  0  0  0  0  0  0  0  0  0  0  0
   -6.8600   22.3420  -32.4240 C   0  0  0  0  0  0  0  0  0  0  0  0
   -7.6220   23.3630  -32.7360 N   0  0  0  0  0  0  0  0  0  0  0  0
   -5.7020   22.5110  -31.6870 C   0  0  0  0  0  0  0  0  0  0  0  0
   -5.3590   23.7990  -31.2920 C   0  0  0  0  0  0  0  0  0  0  0  0
   -4.2060   24.0070  -30.5620 C   0  0  0  0  0  0  0  0  0  0  0  0
   -3.8170   25.3130  -30.1400 N   0  0  0  0  0  0  0  0  0  0  0  0
   -3.4480   22.8980  -30.2610 C   0  0  0  0  0  0  0  0  0  0  0  0
   -3.7820   21.6150  -30.6490 C   0  0  0  0  0  0  0  0  0  0  0  0
   -4.9330   21.4100  -31.3780 C   0  0  0  0  0  0  0  0  0  0  0  0
   -5.2760   20.1650  -31.7730 N   0  0  0  0  0  0  0  0  0  0  0  0
   -8.8038   18.5763  -30.5487 H   0  0  0  0  0  0  0  0  0  0  0  0
   -8.8047   19.6412  -31.9953 H   0  0  0  0  0  0  0  0  0  0  0  0
   -9.7686   18.1255  -31.9953 H   0  0  0  0  0  0  0  0  0  0  0  0
   -7.1237   17.3604  -31.3699 H   0  0  0  0  0  0  0  0  0  0  0  0
   -8.0381   17.1094  -32.9251 H   0  0  0  0  0  0  0  0  0  0  0  0
   -6.5506   18.5630  -34.9741 H   0  0  0  0  0  0  0  0  0  0  0  0
   -5.0080   18.4506  -34.0343 H   0  0  0  0  0  0  0  0  0  0  0  0
   -6.1674   16.2633  -33.0762 H   0  0  0  0  0  0  0  0  0  0  0  0
   -7.0625   16.3443  -34.6314 H   0  0  0  0  0  0  0  0  0  0  0  0
   -5.2687   16.2502  -34.6314 H   0  0  0  0  0  0  0  0  0  0  0  0
   -7.4150   23.8050  -33.6580 H   0  0  0  0  0  0  0  0  0  0  0  0
   -6.0038   24.6490  -31.5601 H   0  0  0  0  0  0  0  0  0  0  0  0
   -3.4900   26.0300  -30.8160 H   0  0  0  0  0  0  0  0  0  0  0  0
   -3.8790   25.5190  -29.0960 H   0  0  0  0  0  0  0  0  0  0  0  0
   -2.5254   23.0414  -29.6794 H   0  0  0  0  0  0  0  0  0  0  0  0
   -3.1362   20.7665  -30.3790 H   0  0  0  0  0  0  0  0  0  0  0  0
   -4.6870   19.3290  -31.5360 H   0  0  0  0  0  0  0  0  0  0  0  0
  1  2  1  0
  2  3  1  0
  3  4  1  0
  4  5  1  0
  3  6  1  0
  6  7  2  0
  7  8  1  0
  8  9  2  3
  8 10  1  0
 10 11  2  0
 11 12  1  0
 12 13  1  0
 12 14  2  0
 14 15  1  0
 15 16  2  0
 16 17  1  0
 17  6  1  0
 16 10  1  0
  1 18  1  0
  1 19  1  0
  1 20  1  0
  2 21  1  0
  2 22  1  0
  4 23  1  0
  4 24  1  0
  5 25  1  0
  5 26  1  0
  5 27  1  0
  9 28  1  0
 11 29  1  0
 13 30  1  0
 13 31  1  0
 14 32  1  0
 15 33  1  0
 17 34  1  0
M  END
>  <smiles>  (12) 
CCN(CC)c1nc(=N)c2cc(N)ccc2[nH]1

>  <score_type>  (12) 
oracle

>  <origin>  (12) 
adg

>  <m_score__min__energy>  (12) 
-6.6399999999999997

>  <m_primary>  (12) 
energy

$$$$
12:0
     RDKit          3D

 56 60  0  0  0  0  0  0  0  0999 V2000
   -5.0400   23.6560  -31.2100 C   0  0  0  0  0  0  0  0  0  0  0  0
   -5.5180   22.5200  -31.9220 O   0  0  0  0  0  0  0  0  0  0  0  0
   -6.8500   22.0740  -31.9390 C   0  0  0  0  0  0  0  0  0  0  0  0
   -7.9150   22.9950  -31.8660 C   0  0  0  0  0  0  0  0  0  0  0  0
   -9.2380   22.5620  -31.8880 C   0  0  0  0  0  0  0  0  0  0  0  0
   -9.5300   21.2050  -31.9850 C   0  0  0  0  0  0  0  0  0  0  0  0
   -8.4960   20.2620  -32.0580 C   0  0  0  0  0  0  0  0  0  0  0  0
   -8.8130   18.8980  -32.1540 C   0  0  0  0  0  0  0  0  0  0  0  0
   -7.8020   17.9440  -32.2260 C   0  0  0  0  0  0  0  0  0  0  0  0
   -6.4670   18.3350  -32.2020 C   0  0  0  0  0  0  0  0  0  0  0  0
   -6.1190   19.6900  -32.1090 C   0  0  0  0  0  0  0  0  0  0  0  0
   -4.7210   20.0250  -32.0690 N   0  0  0  0  0  0  0  0  0  0  0  0
   -4.2110   20.5180  -30.9350 N   0  0  0  0  0  0  0  0  0  0  0  0
   -2.9020   20.8810  -30.8230 C   0  0  0  0  0  0  0  0  0  0  0  0
   -2.4190   21.4610  -29.5100 C   0  0  0  0  0  0  0  0  0  0  0  0
   -2.1580   20.3810  -28.5370 N   0  0  0  0  0  0  0  0  0  0  0  0
   -0.7770   19.8620  -28.6760 C   0  0  0  0  0  0  0  0  0  0  0  0
   -0.3990   18.8760  -27.5480 C   0  0  0  0  0  0  0  0  0  0  0  0
   -1.6220   18.4450  -26.7360 C   0  0  0  0  0  0  0  0  0  0  0  0
   -2.3610   19.6680  -26.1680 C   0  0  0  0  0  0  0  0  0  0  0  0
   -2.3920   20.8500  -27.1570 C   0  0  0  0  0  0  0  0  0  0  0  0
   -2.0530   20.7510  -31.9460 C   0  0  0  0  0  0  0  0  0  0  0  0
   -0.6990   21.1500  -31.9200 C   0  0  0  0  0  0  0  0  0  0  0  0
    0.1070   20.9970  -33.0500 C   0  0  0  0  0  0  0  0  0  0  0  0
   -0.4190   20.4490  -34.2180 C   0  0  0  0  0  0  0  0  0  0  0  0
   -1.7570   20.0550  -34.2660 C   0  0  0  0  0  0  0  0  0  0  0  0
   -2.5850   20.2050  -33.1360 C   0  0  0  0  0  0  0  0  0  0  0  0
   -3.9380   19.8350  -33.1740 C   0  0  0  0  0  0  0  0  0  0  0  0
   -4.4360   19.3440  -34.2270 O   0  0  0  0  0  0  0  0  0  0  0  0
   -7.1360   20.6830  -32.0340 C   0  0  0  0  0  0  0  0  0  0  0  0
   -5.1181   23.4705  -30.1286 H   0  0  0  0  0  0  0  0  0  0  0  0
   -3.9884   23.8394  -31.4756 H   0  0  0  0  0  0  0  0  0  0  0  0
   -5.6441   24.5361  -31.4756 H   0  0  0  0  0  0  0  0  0  0  0  0
   -7.6976   24.0707  -31.7906 H   0  0  0  0  0  0  0  0  0  0  0  0
  -10.0556   23.2955  -31.8285 H   0  0  0  0  0  0  0  0  0  0  0  0
  -10.5778   20.8708  -32.0045 H   0  0  0  0  0  0  0  0  0  0  0  0
   -9.8662   18.5812  -32.1724 H   0  0  0  0  0  0  0  0  0  0  0  0
   -8.0594   16.8773  -32.3021 H   0  0  0  0  0  0  0  0  0  0  0  0
   -5.6759   17.5727  -32.2566 H   0  0  0  0  0  0  0  0  0  0  0  0
   -4.8430   20.6440  -30.1100 H   0  0  0  0  0  0  0  0  0  0  0  0
   -1.4910   22.0259  -29.6825 H   0  0  0  0  0  0  0  0  0  0  0  0
   -3.1960   22.1264  -29.1057 H   0  0  0  0  0  0  0  0  0  0  0  0
   -0.6909   19.3428  -29.6419 H   0  0  0  0  0  0  0  0  0  0  0  0
   -0.0902   20.7190  -28.6148 H   0  0  0  0  0  0  0  0  0  0  0  0
    0.0638   17.9839  -27.9952 H   0  0  0  0  0  0  0  0  0  0  0  0
    0.3000   19.3857  -26.8686 H   0  0  0  0  0  0  0  0  0  0  0  0
   -2.3061   17.8809  -27.3869 H   0  0  0  0  0  0  0  0  0  0  0  0
   -1.2847   17.8172  -25.8981 H   0  0  0  0  0  0  0  0  0  0  0  0
   -3.3955   19.3774  -25.9329 H   0  0  0  0  0  0  0  0  0  0  0  0
   -1.8198   19.9981  -25.2691 H   0  0  0  0  0  0  0  0  0  0  0  0
   -3.3755   21.3398  -27.1038 H   0  0  0  0  0  0  0  0  0  0  0  0
   -1.5972   21.5601  -26.8849 H   0  0  0  0  0  0  0  0  0  0  0  0
   -0.2757   21.5848  -31.0025 H   0  0  0  0  0  0  0  0  0  0  0  0
    1.1610   21.3102  -33.0179 H   0  0  0  0  0  0  0  0  0  0  0  0
    0.2215   20.3267  -35.1039 H   0  0  0  0  0  0  0  0  0  0  0  0
   -2.1675   19.6249  -35.1915 H   0  0  0  0  0  0  0  0  0  0  0  0
  1  2  1  0
  2  3  1  0
  3  4  2  0
  4  5  1  0
  5  6  2  0
  6  7  1  0
  7  8  2  0
  8  9  1  0
  9 10  2  0
 10 11  1  0
 11 12  1  0
 12 13  1  0
 13 14  2  0
 14 15  1  0
 15 16  1  0
 16 17  1  0
 17 18  1  0
 18 19  1  0
 19 20  1  0
 20 21  1  0
 14 22  1  0
 22 23  2  0
 23 24  1  0
 24 25  2  0
 25 26  1  0
 26 27  2  0
 27 28  1  0
 28 29  2  0
 11 30  2  0
 30  3  1  0
 30  7  1  0
 28 12  1  0
 21 16  1  0
 27 22  1  0
  1 31  1  0
  1 32  1  0
  1 33  1  0
  4 34  1  0
  5 35  1  0
  6 36  1  0
  8 37  1  0
  9 38  1  0
 10 39  1  0
 13 40  1  0
 15 41  1  0
 15 42  1  0
 17 43  1  0
 17 44  1  0
 18 45  1  0
 18 46  1  0
 19 47  1  0
 19 48  1  0
 20 49  1  0
 20 50  1  0
 21 51  1  0
 21 52  1  0
 23 53  1  0
 24 54  1  0
 25 55  1  0
 26 56  1  0
M  CHG  1  13   1
M  END
>  <UniqueID>  (13) 
11

>  <SMILES>  (13) 
COc1cccc2cccc(-n3[nH+]c(CN4CCCCC4)c4ccccc4c3=O)c12

>  <Energy>  (13) 
84.78252696502724

>  <Genealogy>  (13) 
COc1cccc2cccc(-n3[nH+]c(CN4CCCCC4)c4ccccc4c3=O)c12 (protonated)
COc1cccc2cccc(-n3[nH+]c(CN4CCCCC4)c4ccccc4c3=O)c12 (3D coordinates assigned)
COc1cccc2cccc(-n3[nH+]c(CN4CCCCC4)c4ccccc4c3=O)c12 (nonaromatic ring conformer: 84.78252696502724 kcal/mol)

>  <smiles>  (13) 
COc1cccc2cccc(-n3nc(CN4CCCCC4)c4ccccc4c3=O)c12

>  <score_type>  (13) 
oracle

>  <origin>  (13) 
adg

>  <m_score__min__energy>  (13) 
-8.8599999999999994

>  <m_primary>  (13) 
energy

$$$$
13:0
     RDKit          3D

 48 51  0  0  0  0  0  0  0  0999 V2000
   -0.5080   24.7570  -24.0870 C   0  0  0  0  0  0  0  0  0  0  0  0
   -0.7610   25.9200  -25.0380 C   0  0  0  0  0  0  0  0  0  0  0  0
   -0.8590   25.4380  -26.4180 N   0  0  0  0  0  0  0  0  0  0  0  0
    0.1190   25.3980  -27.3640 C   0  0  0  0  0  0  0  0  0  0  0  0
    1.5410   25.7940  -27.1180 C   0  0  0  0  0  0  0  0  0  0  0  0
   -0.3150   24.9520  -28.5710 N   0  0  0  0  0  0  0  0  0  0  0  0
   -1.6230   24.7210  -28.3560 C   0  0  0  0  0  0  0  0  0  0  0  0
   -2.5640   24.2640  -29.2740 C   0  0  0  0  0  0  0  0  0  0  0  0
   -3.9010   24.1130  -28.8400 C   0  0  0  0  0  0  0  0  0  0  0  0
   -4.9080   23.6340  -29.7530 N   0  0  0  0  0  0  0  0  0  0  0  0
   -6.1520   24.2000  -29.7170 C   0  0  0  0  0  0  0  0  0  0  0  0
   -7.1560   23.7740  -30.5880 C   0  0  0  0  0  0  0  0  0  0  0  0
   -6.8880   22.7490  -31.5090 C   0  0  0  0  0  0  0  0  0  0  0  0
   -7.8500   22.2670  -32.4120 O   0  0  0  0  0  0  0  0  0  0  0  0
   -8.6240   21.0790  -32.2360 C   0  0  0  0  0  0  0  0  0  0  0  0
   -7.8340   19.8620  -32.6370 C   0  0  0  0  0  0  0  0  0  0  0  0
   -8.0780   18.6190  -32.0270 C   0  0  0  0  0  0  0  0  0  0  0  0
   -7.3470   17.4910  -32.4110 C   0  0  0  0  0  0  0  0  0  0  0  0
   -6.3760   17.5910  -33.4100 C   0  0  0  0  0  0  0  0  0  0  0  0
   -6.1360   18.8210  -34.0300 C   0  0  0  0  0  0  0  0  0  0  0  0
   -6.8640   19.9520  -33.6490 C   0  0  0  0  0  0  0  0  0  0  0  0
   -5.6150   22.1820  -31.5330 C   0  0  0  0  0  0  0  0  0  0  0  0
   -4.6300   22.6290  -30.6450 C   0  0  0  0  0  0  0  0  0  0  0  0
   -3.4930   22.0830  -30.6680 O   0  0  0  0  0  0  0  0  0  0  0  0
   -4.2400   24.4240  -27.4960 C   0  0  0  0  0  0  0  0  0  0  0  0
   -3.2640   24.8850  -26.5960 C   0  0  0  0  0  0  0  0  0  0  0  0
   -1.9570   25.0180  -27.0680 C   0  0  0  0  0  0  0  0  0  0  0  0
   -0.5847   25.1097  -23.0479 H   0  0  0  0  0  0  0  0  0  0  0  0
   -1.2559   23.9699  -24.2632 H   0  0  0  0  0  0  0  0  0  0  0  0
    0.4993   24.3517  -24.2632 H   0  0  0  0  0  0  0  0  0  0  0  0
   -1.7018   26.4177  -24.7600 H   0  0  0  0  0  0  0  0  0  0  0  0
    0.0768   26.6291  -24.9659 H   0  0  0  0  0  0  0  0  0  0  0  0
    1.7252   25.8453  -26.0347 H   0  0  0  0  0  0  0  0  0  0  0  0
    2.2125   25.0487  -27.5692 H   0  0  0  0  0  0  0  0  0  0  0  0
    1.7306   26.7791  -27.5692 H   0  0  0  0  0  0  0  0  0  0  0  0
   -2.2754   24.0268  -30.3086 H   0  0  0  0  0  0  0  0  0  0  0  0
   -6.3641   25.0006  -28.9931 H   0  0  0  0  0  0  0  0  0  0  0  0
   -8.1522   24.2391  -30.5529 H   0  0  0  0  0  0  0  0  0  0  0  0
   -8.9119   20.9896  -31.1781 H   0  0  0  0  0  0  0  0  0  0  0  0
   -9.5190   21.1438  -32.8723 H   0  0  0  0  0  0  0  0  0  0  0  0
   -8.8468   18.5338  -31.2449 H   0  0  0  0  0  0  0  0  0  0  0  0
   -7.5369   16.5225  -31.9253 H   0  0  0  0  0  0  0  0  0  0  0  0
   -5.8004   16.7025  -33.7088 H   0  0  0  0  0  0  0  0  0  0  0  0
   -5.3732   18.8989  -34.8187 H   0  0  0  0  0  0  0  0  0  0  0  0
   -6.6765   20.9164  -34.1437 H   0  0  0  0  0  0  0  0  0  0  0  0
   -5.3841   21.3816  -32.2513 H   0  0  0  0  0  0  0  0  0  0  0  0
   -5.2789   24.3025  -27.1556 H   0  0  0  0  0  0  0  0  0  0  0  0
   -3.5211   25.1325  -25.5555 H   0  0  0  0  0  0  0  0  0  0  0  0
  1  2  1  0
  2  3  1  0
  3  4  1  0
  4  5  1  0
  4  6  2  0
  6  7  1  0
  7  8  2  0
  8  9  1  0
  9 10  1  0
 10 11  1  0
 11 12  2  0
 12 13  1  0
 13 14  1  0
 14 15  1  0
 15 16  1  0
 16 17  2  0
 17 18  1  0
 18 19  2  0
 19 20  1  0
 20 21  2  0
 13 22  2  0
 22 23  1  0
 23 24  2  0
  9 25  2  0
 25 26  1  0
 26 27  2  0
 27  3  1  0
 27  7  1  0
 23 10  1  0
 21 16  1  0
  1 28  1  0
  1 29  1  0
  1 30  1  0
  2 31  1  0
  2 32  1  0
  5 33  1  0
  5 34  1  0
  5 35  1  0
  8 36  1  0
 11 37  1  0
 12 38  1  0
 15 39  1  0
 15 40  1  0
 17 41  1  0
 18 42  1  0
 19 43  1  0
 20 44  1  0
 21 45  1  0
 22 46  1  0
 25 47  1  0
 26 48  1  0
M  END
>  <UniqueID>  (14) 
12

>  <SMILES>  (14) 
CCn1c(C)nc2cc(-n3ccc(OCc4ccccc4)cc3=O)ccc21

>  <Energy>  (14) 
93.51537722782331

>  <Genealogy>  (14) 
CCn1c(C)nc2cc(-n3ccc(OCc4ccccc4)cc3=O)ccc21 (3D coordinates assigned)
CCn1c(C)nc2cc(-n3ccc(OCc4ccccc4)cc3=O)ccc21 (optimized conformer: 93.51537722782331 kcal/mol)

>  <smiles>  (14) 
CCn1c(C)nc2cc(-n3ccc(OCc4ccccc4)cc3=O)ccc21

>  <score_type>  (14) 
oracle

>  <origin>  (14) 
adg

>  <m_score__min__energy>  (14) 
-9.7300000000000004

>  <m_primary>  (14) 
energy

$$$$
14:0
     RDKit          3D

 50 53  0  0  0  0  0  0  0  0999 V2000
   -8.8500   22.6670  -31.3220 O   0  0  0  0  0  0  0  0  0  0  0  0
   -7.6170   22.4690  -31.5150 C   0  0  0  0  0  0  0  0  0  0  0  0
   -6.6690   23.3910  -31.0340 C   0  0  0  0  0  0  0  0  0  0  0  0
   -7.0660   24.5550  -30.3450 C   0  0  0  0  0  0  0  0  0  0  0  0
   -6.1130   25.4740  -29.9050 C   0  0  0  0  0  0  0  0  0  0  0  0
   -4.7590   25.2510  -30.1520 C   0  0  0  0  0  0  0  0  0  0  0  0
   -4.3480   24.1010  -30.8290 C   0  0  0  0  0  0  0  0  0  0  0  0
   -5.2940   23.1470  -31.2590 C   0  0  0  0  0  0  0  0  0  0  0  0
   -4.9230   21.9670  -31.9390 C   0  0  0  0  0  0  0  0  0  0  0  0
   -3.5200   21.5610  -32.1630 C   0  0  0  0  0  0  0  0  0  0  0  0
   -2.9960   21.5480  -33.4650 C   0  0  0  0  0  0  0  0  0  0  0  0
   -1.6880   21.1100  -33.6950 C   0  0  0  0  0  0  0  0  0  0  0  0
   -0.8990   20.6670  -32.6280 C   0  0  0  0  0  0  0  0  0  0  0  0
    0.7400   20.1130  -32.9180 Cl  0  0  0  0  0  0  0  0  0  0  0  0
   -1.4230   20.6530  -31.3310 C   0  0  0  0  0  0  0  0  0  0  0  0
   -2.7300   21.0900  -31.0990 C   0  0  0  0  0  0  0  0  0  0  0  0
   -5.8960   21.1380  -32.3950 N   0  0  0  0  0  0  0  0  0  0  0  0
   -7.1960   21.3630  -32.2020 N   0  0  0  0  0  0  0  0  0  0  0  0
   -8.1500   20.3680  -32.7110 C   0  0  0  0  0  0  0  0  0  0  0  0
   -8.5800   19.3900  -31.6080 C   0  0  0  0  0  0  0  0  0  0  0  0
   -8.4800   17.9100  -32.0120 C   0  0  0  0  0  0  0  0  0  0  0  0
   -7.0880   17.5670  -32.3910 N   0  0  0  0  0  0  0  0  0  0  0  0
   -6.8650   17.5420  -33.8600 C   0  0  0  0  0  0  0  0  0  0  0  0
   -6.0670   18.7570  -34.3540 C   0  0  0  0  0  0  0  0  0  0  0  0
   -4.7420   18.8360  -33.7110 N   0  0  0  0  0  0  0  0  0  0  0  0
   -4.7200   18.3290  -32.3250 C   0  0  0  0  0  0  0  0  0  0  0  0
   -6.1010   18.3980  -31.6620 C   0  0  0  0  0  0  0  0  0  0  0  0
   -8.1333   24.7397  -30.1532 H   0  0  0  0  0  0  0  0  0  0  0  0
   -6.4305   26.3765  -29.3621 H   0  0  0  0  0  0  0  0  0  0  0  0
   -4.0120   25.9835  -29.8124 H   0  0  0  0  0  0  0  0  0  0  0  0
   -3.2786   23.9378  -31.0285 H   0  0  0  0  0  0  0  0  0  0  0  0
   -3.6171   21.8839  -34.3084 H   0  0  0  0  0  0  0  0  0  0  0  0
   -1.2790   21.1138  -34.7161 H   0  0  0  0  0  0  0  0  0  0  0  0
   -0.8056   20.2976  -30.4928 H   0  0  0  0  0  0  0  0  0  0  0  0
   -3.1427   21.0655  -30.0797 H   0  0  0  0  0  0  0  0  0  0  0  0
   -9.0398   20.8886  -33.0947 H   0  0  0  0  0  0  0  0  0  0  0  0
   -7.6588   19.7943  -33.5107 H   0  0  0  0  0  0  0  0  0  0  0  0
   -7.9370   19.5534  -30.7306 H   0  0  0  0  0  0  0  0  0  0  0  0
   -9.6408   19.5922  -31.3987 H   0  0  0  0  0  0  0  0  0  0  0  0
   -8.7893   17.2817  -31.1637 H   0  0  0  0  0  0  0  0  0  0  0  0
   -9.1375   17.7323  -32.8758 H   0  0  0  0  0  0  0  0  0  0  0  0
   -6.3105   16.6274  -34.1172 H   0  0  0  0  0  0  0  0  0  0  0  0
   -7.8504   17.5682  -34.3483 H   0  0  0  0  0  0  0  0  0  0  0  0
   -5.9310   18.6758  -35.4425 H   0  0  0  0  0  0  0  0  0  0  0  0
   -6.6295   19.6660  -34.0944 H   0  0  0  0  0  0  0  0  0  0  0  0
   -4.4470   19.8410  -33.7050 H   0  0  0  0  0  0  0  0  0  0  0  0
   -4.3841   17.2816  -32.3360 H   0  0  0  0  0  0  0  0  0  0  0  0
   -4.0340   18.9628  -31.7440 H   0  0  0  0  0  0  0  0  0  0  0  0
   -6.0206   18.0343  -30.6270 H   0  0  0  0  0  0  0  0  0  0  0  0
   -6.4443   19.4429  -31.6806 H   0  0  0  0  0  0  0  0  0  0  0  0
  1  2  2  0
  2  3  1  0
  3  4  2  0
  4  5  1  0
  5  6  2  0
  6  7  1  0
  7  8  2  0
  8  9  1  0
  9 10  1  0
 10 11  2  0
 11 12  1  0
 12 13  2  0
 13 14  1  0
 13 15  1  0
 15 16  2  0
  9 17  2  0
 17 18  1  0
 18 19  1  0
 19 20  1  0
 20 21  1  0
 21 22  1  0
 22 23  1  0
 23 24  1  0
 24 25  1  0
 25 26  1  0
 26 27  1  0
 18  2  1  0
 27 22  1  0
  8  3  1  0
 16 10  1  0
  4 28  1  0
  5 29  1  0
  6 30  1  0
  7 31  1  0
 11 32  1  0
 12 33  1  0
 15 34  1  0
 16 35  1  0
 19 36  1  0
 19 37  1  0
 20 38  1  0
 20 39  1  0
 21 40  1  0
 21 41  1  0
 23 42  1  0
 23 43  1  0
 24 44  1  0
 24 45  1  0
 25 46  1  0
 26 47  1  0
 26 48  1  0
 27 49  1  0
 27 50  1  0
M  END
>  <UniqueID>  (15) 
13

>  <SMILES>  (15) 
O=c1c2ccccc2c(-c2ccc(Cl)cc2)nn1CCCN1CCNCC1

>  <Energy>  (15) 
76.0533619070067

>  <Genealogy>  (15) 
O=c1c2ccccc2c(-c2ccc(Cl)cc2)nn1CCCN1CCNCC1 (3D coordinates assigned)
O=c1c2ccccc2c(-c2ccc(Cl)cc2)nn1CCCN1CCNCC1 (nonaromatic ring conformer: 76.0533619070067 kcal/mol)

>  <smiles>  (15) 
O=c1c2ccccc2c(-c2ccc(Cl)cc2)nn1CCCN1CCNCC1

>  <score_type>  (15) 
oracle

>  <origin>  (15) 
adg

>  <m_score__min__energy>  (15) 
-9.2400000000000002

>  <m_primary>  (15) 
energy

$$$$
15:0
     RDKit          3D

 58 62  0  0  0  0  0  0  0  0999 V2000
    0.5480   23.3190  -27.6240 C   0  0  0  0  0  0  0  0  0  0  0  0
    0.1100   23.6750  -28.9300 O   0  0  0  0  0  0  0  0  0  0  0  0
   -1.1350   23.3210  -29.4740 C   0  0  0  0  0  0  0  0  0  0  0  0
   -1.3460   22.0660  -30.0980 C   0  0  0  0  0  0  0  0  0  0  0  0
   -2.6090   21.7930  -30.6140 C   0  0  0  0  0  0  0  0  0  0  0  0
   -3.0130   20.6840  -31.1900 O   0  0  0  0  0  0  0  0  0  0  0  0
   -4.2850   20.8420  -31.5120 C   0  0  0  0  0  0  0  0  0  0  0  0
   -5.0650   19.8270  -32.1680 N   0  0  0  0  0  0  0  0  0  0  0  0
   -5.3940   18.7270  -31.5350 C   0  0  0  0  0  0  0  0  0  0  0  0
   -6.2480   17.6770  -32.2210 C   0  0  2  0  0  0  0  0  0  0  0  0
   -5.3810   16.9340  -33.2370 C   0  0  0  0  0  0  0  0  0  0  0  0
   -5.4550   17.8140  -34.4920 C   0  0  0  0  0  0  0  0  0  0  0  0
   -6.4220   18.9430  -34.1000 C   0  0  2  0  0  0  0  0  0  0  0  0
   -5.6220   20.1390  -33.5040 C   0  0  0  0  0  0  0  0  0  0  0  0
   -7.2550   18.3190  -33.0670 N   0  0  0  0  0  0  0  0  0  0  0  0
   -8.1980   19.2110  -32.3670 C   0  0  0  0  0  0  0  0  0  0  0  0
   -4.7200   22.1120  -31.1260 C   0  0  0  0  0  0  0  0  0  0  0  0
   -6.0650   22.6030  -31.0900 N   0  0  0  0  0  0  0  0  0  0  0  0
   -6.6480   23.1950  -32.2970 C   0  0  0  0  0  0  0  0  0  0  0  0
   -8.1500   23.4220  -32.1100 C   0  0  0  0  0  0  0  0  0  0  0  0
   -8.7590   22.2410  -31.4830 N   0  0  0  0  0  0  0  0  0  0  0  0
   -8.2700   22.0020  -30.1080 C   0  0  0  0  0  0  0  0  0  0  0  0
   -6.8400   22.5250  -29.8490 C   0  0  0  0  0  0  0  0  0  0  0  0
   -3.6250   22.7060  -30.5430 C   0  0  0  0  0  0  0  0  0  0  0  0
   -3.4690   23.9400  -29.9220 C   0  0  0  0  0  0  0  0  0  0  0  0
   -2.1970   24.2570  -29.3830 C   0  0  0  0  0  0  0  0  0  0  0  0
   -1.9500   25.4860  -28.7500 O   0  0  0  0  0  0  0  0  0  0  0  0
   -1.9280   25.6730  -27.3380 C   0  0  0  0  0  0  0  0  0  0  0  0
   -0.0779   23.8277  -26.8760 H   0  0  0  0  0  0  0  0  0  0  0  0
    0.4638   22.2301  -27.4931 H   0  0  0  0  0  0  0  0  0  0  0  0
    1.5967   23.6240  -27.4931 H   0  0  0  0  0  0  0  0  0  0  0  0
   -0.5336   21.3281  -30.1723 H   0  0  0  0  0  0  0  0  0  0  0  0
   -5.0497   18.5647  -30.5029 H   0  0  0  0  0  0  0  0  0  0  0  0
   -6.6853   17.0393  -31.4387 H   0  0  0  0  0  0  0  0  0  0  0  0
   -4.3444   16.8477  -32.8792 H   0  0  0  0  0  0  0  0  0  0  0  0
   -5.7240   15.9046  -33.4177 H   0  0  0  0  0  0  0  0  0  0  0  0
   -4.4638   18.2186  -34.7445 H   0  0  0  0  0  0  0  0  0  0  0  0
   -5.7920   17.2577  -35.3791 H   0  0  0  0  0  0  0  0  0  0  0  0
   -7.0048   19.3406  -34.9440 H   0  0  0  0  0  0  0  0  0  0  0  0
   -4.7938   20.3859  -34.1846 H   0  0  0  0  0  0  0  0  0  0  0  0
   -6.3138   20.9869  -33.3926 H   0  0  0  0  0  0  0  0  0  0  0  0
   -8.0748   19.0945  -31.2801 H   0  0  0  0  0  0  0  0  0  0  0  0
   -7.9941   20.2544  -32.6494 H   0  0  0  0  0  0  0  0  0  0  0  0
   -9.2285   18.9494  -32.6494 H   0  0  0  0  0  0  0  0  0  0  0  0
   -6.1586   24.1589  -32.5002 H   0  0  0  0  0  0  0  0  0  0  0  0
   -6.4943   22.5067  -33.1411 H   0  0  0  0  0  0  0  0  0  0  0  0
   -8.3091   24.2997  -31.4663 H   0  0  0  0  0  0  0  0  0  0  0  0
   -8.6160   23.5921  -33.0918 H   0  0  0  0  0  0  0  0  0  0  0  0
   -8.5630   21.3990  -32.0750 H   0  0  0  0  0  0  0  0  0  0  0  0
   -9.7970   22.3740  -31.4570 H   0  0  0  0  0  0  0  0  0  0  0  0
   -8.9535   22.5023  -29.4062 H   0  0  0  0  0  0  0  0  0  0  0  0
   -8.2401   20.9116  -29.9663 H   0  0  0  0  0  0  0  0  0  0  0  0
   -6.9016   23.5283  -29.4021 H   0  0  0  0  0  0  0  0  0  0  0  0
   -6.3337   21.8244  -29.1688 H   0  0  0  0  0  0  0  0  0  0  0  0
   -4.3072   24.6488  -29.8511 H   0  0  0  0  0  0  0  0  0  0  0  0
   -2.0424   24.7002  -26.8375 H   0  0  0  0  0  0  0  0  0  0  0  0
   -0.9703   26.1267  -27.0431 H   0  0  0  0  0  0  0  0  0  0  0  0
   -2.7543   26.3366  -27.0431 H   0  0  0  0  0  0  0  0  0  0  0  0
  1  2  1  0
  2  3  1  0
  3  4  2  0
  4  5  1  0
  5  6  1  0
  6  7  1  0
  7  8  1  0
  8  9  2  0
  9 10  1  0
 10 11  1  0
 11 12  1  0
 12 13  1  0
 13 14  1  0
 13 15  1  0
 15 16  1  0
  7 17  2  0
 17 18  1  0
 18 19  1  0
 19 20  1  0
 20 21  1  0
 21 22  1  0
 22 23  1  0
 17 24  1  0
 24 25  1  0
 25 26  2  0
 26 27  1  0
 27 28  1  0
 26  3  1  0
 24  5  2  0
 14  8  1  0
 23 18  1  0
 15 10  1  0
  1 29  1  0
  1 30  1  0
  1 31  1  0
  4 32  1  0
  9 33  1  0
 10 34  1  1
 11 35  1  0
 11 36  1  0
 12 37  1  0
 12 38  1  0
 13 39  1  6
 14 40  1  0
 14 41  1  0
 16 42  1  0
 16 43  1  0
 16 44  1  0
 19 45  1  0
 19 46  1  0
 20 47  1  0
 20 48  1  0
 21 49  1  0
 21 50  1  0
 22 51  1  0
 22 52  1  0
 23 53  1  0
 23 54  1  0
 25 55  1  0
 28 56  1  0
 28 57  1  0
 28 58  1  0
M  CHG  2   8   1  21   1
M  END
>  <UniqueID>  (16) 
14

>  <SMILES>  (16) 
COc1cc2oc([N+]3=C[C@@H]4CC[C@H](C3)N4C)c(N3CC[NH2+]CC3)c2cc1OC

>  <Energy>  (16) 
124.07788848731462

>  <Genealogy>  (16) 
COc1cc2oc([N+]3=CC4CCC(C3)N4C)c(N3CC[NH2+]CC3)c2cc1OC (protonated)
COc1cc2oc([N+]3=C[C@@H]4CC[C@H](C3)N4C)c(N3CC[NH2+]CC3)c2cc1OC (chirality)
COc1cc2oc([N+]3=C[C@@H]4CC[C@H](C3)N4C)c(N3CC[NH2+]CC3)c2cc1OC (3D coordinates assigned)
COc1cc2oc([N+]3=C[C@@H]4CC[C@H](C3)N4C)c(N3CC[NH2+]CC3)c2cc1OC (nonaromatic ring conformer: 124.07788848731462 kcal/mol)

>  <smiles>  (16) 
COc1cc2oc([N+]3=CC4CCC(C3)N4C)c(N3CCNCC3)c2cc1OC

>  <score_type>  (16) 
oracle

>  <origin>  (16) 
adg

>  <m_score__min__energy>  (16) 
-7.2999999999999998

>  <m_primary>  (16) 
energy

$$$$
16:0
     RDKit          3D

 70 74  0  0  0  0  0  0  0  0999 V2000
   -3.6080   24.9330  -26.6730 C   0  0  0  0  0  0  0  0  0  0  0  0
   -3.1340   23.9310  -27.6840 C   0  0  0  0  0  0  0  0  0  0  0  0
   -3.6140   23.9810  -29.0010 C   0  0  0  0  0  0  0  0  0  0  0  0
   -3.1990   23.0320  -29.9410 C   0  0  0  0  0  0  0  0  0  0  0  0
   -2.3090   22.0200  -29.5670 C   0  0  0  0  0  0  0  0  0  0  0  0
   -1.9020   21.1070  -30.4810 N   0  0  0  0  0  0  0  0  0  0  0  0
   -1.0460   20.1020  -30.1570 C   0  0  0  0  0  0  0  0  0  0  0  0
   -0.6300   19.1500  -31.2510 C   0  0  0  0  0  0  0  0  0  0  0  0
   -1.7210   18.9830  -32.2100 N   0  0  0  0  0  0  0  0  0  0  0  0
   -1.8400   17.8400  -33.0690 C   0  0  0  0  0  0  0  0  0  0  0  0
   -0.9460   16.9490  -33.0760 O   0  0  0  0  0  0  0  0  0  0  0  0
   -3.0580   17.6570  -33.9190 C   0  0  0  0  0  0  0  0  0  0  0  0
   -4.1930   17.0420  -33.0920 C   0  0  0  0  0  0  0  0  0  0  0  0
   -5.4140   16.7070  -33.9600 C   0  0  0  0  0  0  0  0  0  0  0  0
   -6.4600   17.7490  -33.8350 N   0  0  0  0  0  0  0  0  0  0  0  0
   -6.8530   17.9350  -32.4160 C   0  0  0  0  0  0  0  0  0  0  0  0
   -7.4660   19.3130  -32.1530 C   0  0  0  0  0  0  0  0  0  0  0  0
   -6.5080   20.3620  -32.5230 N   0  0  0  0  0  0  0  0  0  0  0  0
   -6.5020   21.6360  -31.8370 C   0  0  0  0  0  0  0  0  0  0  0  0
   -7.2730   21.8300  -30.6730 C   0  0  0  0  0  0  0  0  0  0  0  0
   -7.2620   23.0600  -30.0080 C   0  0  0  0  0  0  0  0  0  0  0  0
   -6.4890   24.1160  -30.5030 C   0  0  0  0  0  0  0  0  0  0  0  0
   -6.4780   25.6610  -29.6710 Cl  0  0  0  0  0  0  0  0  0  0  0  0
   -5.7150   23.9360  -31.6520 C   0  0  0  0  0  0  0  0  0  0  0  0
   -5.7190   22.7040  -32.3160 C   0  0  0  0  0  0  0  0  0  0  0  0
   -5.5450   20.0880  -33.5980 C   0  0  0  0  0  0  0  0  0  0  0  0
   -6.0880   19.0060  -34.5420 C   0  0  0  0  0  0  0  0  0  0  0  0
   -0.5620   20.0000  -28.8730 N   0  0  0  0  0  0  0  0  0  0  0  0
    0.3540   18.9480  -28.5140 C   0  0  0  0  0  0  0  0  0  0  0  0
   -0.1100   17.8070  -27.8420 C   0  0  0  0  0  0  0  0  0  0  0  0
    0.7810   16.7820  -27.5030 C   0  0  0  0  0  0  0  0  0  0  0  0
    2.1360   16.8960  -27.8290 C   0  0  0  0  0  0  0  0  0  0  0  0
    2.6040   18.0370  -28.4890 C   0  0  0  0  0  0  0  0  0  0  0  0
    1.7160   19.0640  -28.8280 C   0  0  0  0  0  0  0  0  0  0  0  0
   -0.9460   20.9060  -27.9160 C   0  0  0  0  0  0  0  0  0  0  0  0
   -0.5030   20.8070  -26.7360 O   0  0  0  0  0  0  0  0  0  0  0  0
   -1.8340   21.9440  -28.2450 C   0  0  0  0  0  0  0  0  0  0  0  0
   -2.2570   22.9020  -27.3040 C   0  0  0  0  0  0  0  0  0  0  0  0
   -3.4250   24.5461  -25.6597 H   0  0  0  0  0  0  0  0  0  0  0  0
   -3.0614   25.8778  -26.8090 H   0  0  0  0  0  0  0  0  0  0  0  0
   -4.6852   25.1097  -26.8090 H   0  0  0  0  0  0  0  0  0  0  0  0
   -4.3206   24.7707  -29.2962 H   0  0  0  0  0  0  0  0  0  0  0  0
   -3.5726   23.0816  -30.9744 H   0  0  0  0  0  0  0  0  0  0  0  0
    0.2521   19.5539  -31.7694 H   0  0  0  0  0  0  0  0  0  0  0  0
   -0.3870   18.1735  -30.8068 H   0  0  0  0  0  0  0  0  0  0  0  0
   -2.4850   19.6980  -32.2110 H   0  0  0  0  0  0  0  0  0  0  0  0
   -3.3800   18.6343  -34.3078 H   0  0  0  0  0  0  0  0  0  0  0  0
   -2.8155   16.9824  -34.7533 H   0  0  0  0  0  0  0  0  0  0  0  0
   -3.8285   16.1184  -32.6186 H   0  0  0  0  0  0  0  0  0  0  0  0
   -4.5028   17.7783  -32.3358 H   0  0  0  0  0  0  0  0  0  0  0  0
   -5.0991   16.6385  -35.0117 H   0  0  0  0  0  0  0  0  0  0  0  0
   -5.8329   15.7490  -33.6184 H   0  0  0  0  0  0  0  0  0  0  0  0
   -7.5913   17.1640  -32.1505 H   0  0  0  0  0  0  0  0  0  0  0  0
   -5.9430   17.8517  -31.8036 H   0  0  0  0  0  0  0  0  0  0  0  0
   -8.3812   19.4261  -32.7527 H   0  0  0  0  0  0  0  0  0  0  0  0
   -7.7098   19.4042  -31.0842 H   0  0  0  0  0  0  0  0  0  0  0  0
   -7.8892   21.0059  -30.2841 H   0  0  0  0  0  0  0  0  0  0  0  0
   -7.8611   23.1974  -29.0957 H   0  0  0  0  0  0  0  0  0  0  0  0
   -5.1012   24.7643  -32.0356 H   0  0  0  0  0  0  0  0  0  0  0  0
   -5.1057   22.5689  -33.2191 H   0  0  0  0  0  0  0  0  0  0  0  0
   -5.3675   21.0111  -34.1692 H   0  0  0  0  0  0  0  0  0  0  0  0
   -4.6047   19.7321  -33.1517 H   0  0  0  0  0  0  0  0  0  0  0  0
   -6.9809   19.3999  -35.0496 H   0  0  0  0  0  0  0  0  0  0  0  0
   -5.2865   18.7581  -35.2534 H   0  0  0  0  0  0  0  0  0  0  0  0
   -1.1749   17.7179  -27.5813 H   0  0  0  0  0  0  0  0  0  0  0  0
    0.4150   15.8863  -26.9798 H   0  0  0  0  0  0  0  0  0  0  0  0
    2.8344   16.0878  -27.5662 H   0  0  0  0  0  0  0  0  0  0  0  0
    3.6708   18.1271  -28.7417 H   0  0  0  0  0  0  0  0  0  0  0  0
    2.0867   19.9635  -29.3414 H   0  0  0  0  0  0  0  0  0  0  0  0
   -1.8987   22.8442  -26.2656 H   0  0  0  0  0  0  0  0  0  0  0  0
  1  2  1  0
  2  3  2  0
  3  4  1  0
  4  5  2  0
  5  6  1  0
  6  7  2  0
  7  8  1  0
  8  9  1  0
  9 10  1  0
 10 11  2  0
 10 12  1  0
 12 13  1  0
 13 14  1  0
 14 15  1  0
 15 16  1  0
 16 17  1  0
 17 18  1  0
 18 19  1  0
 19 20  2  0
 20 21  1  0
 21 22  2  0
 22 23  1  0
 22 24  1  0
 24 25  2  0
 18 26  1  0
 26 27  1  0
  7 28  1  0
 28 29  1  0
 29 30  2  0
 30 31  1  0
 31 32  2  0
 32 33  1  0
 33 34  2  0
 28 35  1  0
 35 36  2  0
 35 37  1  0
 37 38  2  0
 38  2  1  0
 37  5  1  0
 27 15  1  0
 34 29  1  0
 25 19  1  0
  1 39  1  0
  1 40  1  0
  1 41  1  0
  3 42  1  0
  4 43  1  0
  8 44  1  0
  8 45  1  0
  9 46  1  0
 12 47  1  0
 12 48  1  0
 13 49  1  0
 13 50  1  0
 14 51  1  0
 14 52  1  0
 16 53  1  0
 16 54  1  0
 17 55  1  0
 17 56  1  0
 20 57  1  0
 21 58  1  0
 24 59  1  0
 25 60  1  0
 26 61  1  0
 26 62  1  0
 27 63  1  0
 27 64  1  0
 30 65  1  0
 31 66  1  0
 32 67  1  0
 33 68  1  0
 34 69  1  0
 38 70  1  0
M  END
>  <UniqueID>  (17) 
15

>  <SMILES>  (17) 
Cc1ccc2nc(CNC(=O)CCCN3CCN(c4ccc(Cl)cc4)CC3)n(-c3ccccc3)c(=O)c2c1

>  <Energy>  (17) 
91.89282733392662

>  <Genealogy>  (17) 
Cc1ccc2nc(CNC(=O)CCCN3CCN(c4ccc(Cl)cc4)CC3)n(-c3ccccc3)c(=O)c2c1 (3D coordinates assigned)
Cc1ccc2nc(CNC(=O)CCCN3CCN(c4ccc(Cl)cc4)CC3)n(-c3ccccc3)c(=O)c2c1 (nonaromatic ring conformer: 91.89282733392662 kcal/mol)

>  <smiles>  (17) 
Cc1ccc2nc(CNC(=O)CCCN3CCN(c4ccc(Cl)cc4)CC3)n(-c3ccccc3)c(=O)c2c1

>  <score_type>  (17) 
oracle

>  <origin>  (17) 
adg

>  <m_score__min__energy>  (17) 
-11.19

>  <m_primary>  (17) 
energy

$$$$
17:0
     RDKit          3D

 51 53  0  0  0  0  0  0  0  0999 V2000
   -6.4850   17.3500  -33.8400 C   0  0  0  0  0  0  0  0  0  0  0  0
   -7.3790   17.3640  -32.5910 C   0  0  0  0  0  0  0  0  0  0  0  0
   -7.3970   18.6580  -31.8720 N   0  0  0  0  0  0  0  0  0  0  0  0
   -8.7550   19.2040  -31.6720 C   0  0  0  0  0  0  0  0  0  0  0  0
   -8.6870   20.6730  -31.2450 C   0  0  0  0  0  0  0  0  0  0  0  0
   -8.0850   21.5120  -32.3070 N   0  0  0  0  0  0  0  0  0  0  0  0
   -7.6080   22.7980  -31.7560 C   0  0  0  0  0  0  0  0  0  0  0  0
   -6.4320   22.5670  -30.8020 C   0  0  0  0  0  0  0  0  0  0  0  0
   -5.2040   23.1380  -31.3670 N   0  0  0  0  0  0  0  0  0  0  0  0
   -4.7130   22.6790  -32.6740 C   0  0  0  0  0  0  0  0  0  0  0  0
   -3.4880   21.8420  -32.4930 C   0  0  0  0  0  0  0  0  0  0  0  0
   -3.3060   20.5630  -32.9810 C   0  0  0  0  0  0  0  0  0  0  0  0
   -2.0300   20.2030  -32.6070 C   0  0  0  0  0  0  0  0  0  0  0  0
   -1.5120   21.2850  -31.9210 C   0  0  0  0  0  0  0  0  0  0  0  0
   -2.4050   22.2470  -31.8730 O   0  0  0  0  0  0  0  0  0  0  0  0
   -4.3820   23.9940  -30.5480 C   0  0  0  0  0  0  0  0  0  0  0  0
   -4.2800   25.2160  -30.8410 O   0  0  0  0  0  0  0  0  0  0  0  0
   -3.6520   23.4680  -29.3750 C   0  0  0  0  0  0  0  0  0  0  0  0
   -2.9050   24.3320  -28.5600 C   0  0  0  0  0  0  0  0  0  0  0  0
   -2.2120   23.8170  -27.4620 C   0  0  0  0  0  0  0  0  0  0  0  0
   -2.2530   22.4860  -27.1930 N   0  0  0  0  0  0  0  0  0  0  0  0
   -2.9580   21.6220  -27.9720 C   0  0  0  0  0  0  0  0  0  0  0  0
   -3.6650   22.0960  -29.0790 C   0  0  0  0  0  0  0  0  0  0  0  0
   -7.0380   20.8130  -33.1010 C   0  0  0  0  0  0  0  0  0  0  0  0
   -6.3920   19.6420  -32.3390 C   0  0  0  0  0  0  0  0  0  0  0  0
   -5.4284   17.3335  -33.5345 H   0  0  0  0  0  0  0  0  0  0  0  0
   -6.7072   16.4552  -34.4400 H   0  0  0  0  0  0  0  0  0  0  0  0
   -6.6791   18.2513  -34.4400 H   0  0  0  0  0  0  0  0  0  0  0  0
   -8.4076   17.1269  -32.9004 H   0  0  0  0  0  0  0  0  0  0  0  0
   -6.9614   16.6215  -31.8951 H   0  0  0  0  0  0  0  0  0  0  0  0
   -9.3181   19.1268  -32.6138 H   0  0  0  0  0  0  0  0  0  0  0  0
   -9.2565   18.6273  -30.8809 H   0  0  0  0  0  0  0  0  0  0  0  0
   -9.7051   21.0336  -31.0367 H   0  0  0  0  0  0  0  0  0  0  0  0
   -8.0583   20.7456  -30.3453 H   0  0  0  0  0  0  0  0  0  0  0  0
   -7.2825   23.4477  -32.5818 H   0  0  0  0  0  0  0  0  0  0  0  0
   -8.4293   23.2749  -31.2010 H   0  0  0  0  0  0  0  0  0  0  0  0
   -6.6466   23.0489  -29.8367 H   0  0  0  0  0  0  0  0  0  0  0  0
   -6.2927   21.4854  -30.6579 H   0  0  0  0  0  0  0  0  0  0  0  0
   -5.4935   22.0810  -33.1671 H   0  0  0  0  0  0  0  0  0  0  0  0
   -4.4656   23.5528  -33.2947 H   0  0  0  0  0  0  0  0  0  0  0  0
   -4.0284   19.9585  -33.5491 H   0  0  0  0  0  0  0  0  0  0  0  0
   -1.5254   19.2475  -32.8128 H   0  0  0  0  0  0  0  0  0  0  0  0
   -0.5046   21.3333  -31.4818 H   0  0  0  0  0  0  0  0  0  0  0  0
   -2.8654   25.4082  -28.7843 H   0  0  0  0  0  0  0  0  0  0  0  0
   -1.6320   24.4904  -26.8139 H   0  0  0  0  0  0  0  0  0  0  0  0
   -2.9712   20.5491  -27.7297 H   0  0  0  0  0  0  0  0  0  0  0  0
   -4.2289   21.3982  -29.7154 H   0  0  0  0  0  0  0  0  0  0  0  0
   -7.4972   20.4225  -34.0211 H   0  0  0  0  0  0  0  0  0  0  0  0
   -6.2450   21.5437  -33.3182 H   0  0  0  0  0  0  0  0  0  0  0  0
   -5.6814   19.1333  -33.0070 H   0  0  0  0  0  0  0  0  0  0  0  0
   -5.8841   20.0531  -31.4541 H   0  0  0  0  0  0  0  0  0  0  0  0
  1  2  1  0
  2  3  1  0
  3  4  1  0
  4  5  1  0
  5  6  1  0
  6  7  1  0
  7  8  1  0
  8  9  1  0
  9 10  1  0
 10 11  1  0
 11 12  2  0
 12 13  1  0
 13 14  2  0
 14 15  1  0
  9 16  1  0
 16 17  2  0
 16 18  1  0
 18 19  2  0
 19 20  1  0
 20 21  2  0
 21 22  1  0
 22 23  2  0
  6 24  1  0
 24 25  1  0
 25  3  1  0
 15 11  1  0
 23 18  1  0
  1 26  1  0
  1 27  1  0
  1 28  1  0
  2 29  1  0
  2 30  1  0
  4 31  1  0
  4 32  1  0
  5 33  1  0
  5 34  1  0
  7 35  1  0
  7 36  1  0
  8 37  1  0
  8 38  1  0
 10 39  1  0
 10 40  1  0
 12 41  1  0
 13 42  1  0
 14 43  1  0
 19 44  1  0
 20 45  1  0
 22 46  1  0
 23 47  1  0
 24 48  1  0
 24 49  1  0
 25 50  1  0
 25 51  1  0
M  END
>  <UniqueID>  (18) 
16

>  <SMILES>  (18) 
CCN1CCN(CCN(Cc2ccco2)C(=O)c2ccncc2)CC1

>  <Energy>  (18) 
92.75423862561405

>  <Genealogy>  (18) 
CCN1CCN(CCN(Cc2ccco2)C(=O)c2ccncc2)CC1 (3D coordinates assigned)
CCN1CCN(CCN(Cc2ccco2)C(=O)c2ccncc2)CC1 (nonaromatic ring conformer: 92.75423862561405 kcal/mol)

>  <smiles>  (18) 
CCN1CCN(CCN(Cc2ccco2)C(=O)c2ccncc2)CC1

>  <score_type>  (18) 
oracle

>  <origin>  (18) 
adg

>  <m_score__min__energy>  (18) 
-8.1600000000000001

>  <m_primary>  (18) 
energy

$$$$
18:0
     RDKit          3D

 44 45  0  0  0  0  0  0  0  0999 V2000
   -3.2746   20.6631  -33.4856 H   0  0  0  0  0  0  0  0  0  0  0  0
   -4.0840   20.2830  -32.8450 C   0  0  0  0  0  0  0  0  0  0  0  0
   -5.1720   19.5150  -33.5000 C   0  0  0  0  0  0  0  0  0  0  0  0
   -4.9350   18.8610  -34.5520 O   0  0  0  0  0  0  0  0  0  0  0  0
   -6.5380   19.4700  -32.9200 C   0  0  0  0  0  0  0  0  0  0  0  0
   -7.2630   20.6590  -32.7190 C   0  0  0  0  0  0  0  0  0  0  0  0
   -6.8123   21.6220  -33.0011 H   0  0  0  0  0  0  0  0  0  0  0  0
   -8.5480   20.6360  -32.1660 C   0  0  0  0  0  0  0  0  0  0  0  0
   -9.2190   21.8560  -31.9920 O   0  0  0  0  0  0  0  0  0  0  0  0
   -8.5800   23.1290  -31.9720 C   0  0  0  0  0  0  0  0  0  0  0  0
   -8.4221   23.4436  -30.9299 H   0  0  0  0  0  0  0  0  0  0  0  0
   -7.6096   23.0603  -32.4853 H   0  0  0  0  0  0  0  0  0  0  0  0
   -9.2149   23.8661  -32.4853 H   0  0  0  0  0  0  0  0  0  0  0  0
   -9.1170   19.4050  -31.8040 C   0  0  0  0  0  0  0  0  0  0  0  0
  -10.1289   19.3754  -31.3737 H   0  0  0  0  0  0  0  0  0  0  0  0
   -8.4060   18.2190  -31.9870 C   0  0  0  0  0  0  0  0  0  0  0  0
   -8.8604   17.2610  -31.6942 H   0  0  0  0  0  0  0  0  0  0  0  0
   -7.1120   18.2360  -32.5430 C   0  0  0  0  0  0  0  0  0  0  0  0
   -6.3840   17.0510  -32.7450 O   0  0  0  0  0  0  0  0  0  0  0  0
   -6.4840   16.2260  -33.9010 C   0  0  0  0  0  0  0  0  0  0  0  0
   -6.6111   15.1776  -33.5934 H   0  0  0  0  0  0  0  0  0  0  0  0
   -7.3507   16.5396  -34.5014 H   0  0  0  0  0  0  0  0  0  0  0  0
   -5.5675   16.3234  -34.5014 H   0  0  0  0  0  0  0  0  0  0  0  0
   -4.0110   20.5500  -31.5300 C   0  0  0  0  0  0  0  0  0  0  0  0
   -4.3848   19.7830  -30.8358 H   0  0  0  0  0  0  0  0  0  0  0  0
   -3.4680   21.7930  -30.9430 C   0  0  0  0  0  0  0  0  0  0  0  0
   -2.3240   21.7300  -30.1400 C   0  0  0  0  0  0  0  0  0  0  0  0
   -1.8218   20.7647  -29.9790 H   0  0  0  0  0  0  0  0  0  0  0  0
   -1.8160   22.8840  -29.5420 C   0  0  0  0  0  0  0  0  0  0  0  0
   -0.9055   22.8256  -28.9275 H   0  0  0  0  0  0  0  0  0  0  0  0
   -2.4610   24.1220  -29.7200 C   0  0  0  0  0  0  0  0  0  0  0  0
   -1.9770   25.3050  -29.1380 O   0  0  0  0  0  0  0  0  0  0  0  0
   -1.6020   25.4360  -27.7710 C   0  0  0  0  0  0  0  0  0  0  0  0
   -2.4456   25.1413  -27.1295 H   0  0  0  0  0  0  0  0  0  0  0  0
   -0.7391   24.7861  -27.5636 H   0  0  0  0  0  0  0  0  0  0  0  0
   -1.3315   26.4819  -27.5636 H   0  0  0  0  0  0  0  0  0  0  0  0
   -3.6270   24.1900  -30.4980 C   0  0  0  0  0  0  0  0  0  0  0  0
   -4.2580   25.4350  -30.6470 O   0  0  0  0  0  0  0  0  0  0  0  0
   -5.6540   25.6570  -30.4800 C   0  0  0  0  0  0  0  0  0  0  0  0
   -5.8934   25.6951  -29.4071 H   0  0  0  0  0  0  0  0  0  0  0  0
   -5.9326   26.6107  -30.9519 H   0  0  0  0  0  0  0  0  0  0  0  0
   -6.2148   24.8367  -30.9519 H   0  0  0  0  0  0  0  0  0  0  0  0
   -4.1330   23.0200  -31.0980 C   0  0  0  0  0  0  0  0  0  0  0  0
   -5.0569   23.0681  -31.6930 H   0  0  0  0  0  0  0  0  0  0  0  0
  1  2  1  0
  2  3  1  0
  3  4  2  0
  3  5  1  0
  5  6  2  0
  6  7  1  0
  6  8  1  0
  8  9  1  0
  9 10  1  0
 10 11  1  0
 10 12  1  0
 10 13  1  0
  8 14  2  0
 14 15  1  0
 14 16  1  0
 16 17  1  0
 16 18  2  0
 18 19  1  0
 19 20  1  0
 20 21  1  0
 20 22  1  0
 20 23  1  0
  2 24  2  0
 24 25  1  0
 24 26  1  0
 26 27  2  0
 27 28  1  0
 27 29  1  0
 29 30  1  0
 29 31  2  0
 31 32  1  0
 32 33  1  0
 33 34  1  0
 33 35  1  0
 33 36  1  0
 31 37  1  0
 37 38  1  0
 38 39  1  0
 39 40  1  0
 39 41  1  0
 39 42  1  0
 37 43  2  0
 43 44  1  0
 18  5  1  0
 43 26  1  0
M  END
>  <UniqueID>  (19) 
17

>  <SMILES>  (19) 
COc1ccc(OC)c(C(=O)/C=C\c2ccc(OC)c(OC)c2)c1

>  <Energy>  (19) 
53.85167159299612

>  <Genealogy>  (19) 
COc1ccc(OC)c(C(=O)/C=C\c2ccc(OC)c(OC)c2)c1 (cis-trans isomerization)
COc1ccc(OC)c(C(=O)/C=C\c2ccc(OC)c(OC)c2)c1 (3D coordinates assigned)
COc1ccc(OC)c(C(=O)/C=C\c2ccc(OC)c(OC)c2)c1 (optimized conformer: 53.85167159299612 kcal/mol)

>  <smiles>  (19) 
COc1ccc(OC)c(C(=O)C=Cc2ccc(OC)c(OC)c2)c1

>  <score_type>  (19) 
oracle

>  <origin>  (19) 
adg

>  <m_score__min__energy>  (19) 
-8.1500000000000004

>  <m_primary>  (19) 
energy

$$$$
19:0
     RDKit          3D

 51 54  0  0  0  0  0  0  0  0999 V2000
   -1.1840   18.1640  -33.5380 C   0  0  0  0  0  0  0  0  0  0  0  0
   -0.9240   19.2460  -34.5930 C   0  0  0  0  0  0  0  0  0  0  0  0
   -1.1140   20.6200  -34.0630 N   0  0  2  0  0  0  0  0  0  0  0  0
    0.1870   21.2570  -33.7690 C   0  0  0  0  0  0  0  0  0  0  0  0
   -1.9640   20.5910  -32.8410 C   0  0  0  0  0  0  0  0  0  0  0  0
   -2.8140   21.8670  -32.6790 C   0  0  0  0  0  0  0  0  0  0  0  0
   -4.0200   21.7980  -33.5030 N   0  0  0  0  0  0  0  0  0  0  0  0
   -5.1610   21.0270  -33.0970 C   0  0  0  0  0  0  0  0  0  0  0  0
   -6.2420   21.5940  -32.3840 C   0  0  0  0  0  0  0  0  0  0  0  0
   -6.1840   22.9240  -31.9260 C   0  0  0  0  0  0  0  0  0  0  0  0
   -7.2320   23.4670  -31.1850 C   0  0  0  0  0  0  0  0  0  0  0  0
   -8.3410   22.6900  -30.8680 C   0  0  0  0  0  0  0  0  0  0  0  0
   -8.4230   21.3650  -31.3000 C   0  0  0  0  0  0  0  0  0  0  0  0
   -7.3960   20.7900  -32.0870 C   0  0  0  0  0  0  0  0  0  0  0  0
   -7.4730   19.4820  -32.5440 N   0  0  0  0  0  0  0  0  0  0  0  0
   -8.7360   18.7240  -32.5170 C   0  0  0  0  0  0  0  0  0  0  0  0
   -6.3470   18.9250  -33.0970 C   0  0  0  0  0  0  0  0  0  0  0  0
   -5.2270   19.6730  -33.3930 C   0  0  0  0  0  0  0  0  0  0  0  0
   -4.2850   18.9350  -34.0200 N   0  0  0  0  0  0  0  0  0  0  0  0
   -4.8040   17.6940  -34.0970 C   0  0  0  0  0  0  0  0  0  0  0  0
   -4.1820   16.5720  -34.6380 C   0  0  0  0  0  0  0  0  0  0  0  0
   -4.8620   15.3440  -34.5730 C   0  0  0  0  0  0  0  0  0  0  0  0
   -6.1260   15.2600  -33.9590 C   0  0  0  0  0  0  0  0  0  0  0  0
   -6.7380   16.4050  -33.4170 C   0  0  0  0  0  0  0  0  0  0  0  0
   -6.0650   17.6290  -33.5290 C   0  0  0  0  0  0  0  0  0  0  0  0
   -1.0795   18.5991  -32.5331 H   0  0  0  0  0  0  0  0  0  0  0  0
   -2.2028   17.7682  -33.6620 H   0  0  0  0  0  0  0  0  0  0  0  0
   -0.4562   17.3485  -33.6620 H   0  0  0  0  0  0  0  0  0  0  0  0
    0.1114   19.1469  -34.9511 H   0  0  0  0  0  0  0  0  0  0  0  0
   -1.6510   19.0996  -35.4055 H   0  0  0  0  0  0  0  0  0  0  0  0
   -1.5850   21.1880  -34.8020 H   0  0  0  0  0  0  0  0  0  0  0  0
    0.3245   21.3243  -32.6797 H   0  0  0  0  0  0  0  0  0  0  0  0
    0.9973   20.6537  -34.2043 H   0  0  0  0  0  0  0  0  0  0  0  0
    0.2074   22.2670  -34.2043 H   0  0  0  0  0  0  0  0  0  0  0  0
   -2.6383   19.7240  -32.9015 H   0  0  0  0  0  0  0  0  0  0  0  0
   -1.2942   20.5245  -31.9710 H   0  0  0  0  0  0  0  0  0  0  0  0
   -3.1045   21.9748  -31.6235 H   0  0  0  0  0  0  0  0  0  0  0  0
   -2.2158   22.7315  -33.0027 H   0  0  0  0  0  0  0  0  0  0  0  0
   -4.1690   22.5610  -34.2020 H   0  0  0  0  0  0  0  0  0  0  0  0
   -5.3026   23.5408  -32.1553 H   0  0  0  0  0  0  0  0  0  0  0  0
   -7.1819   24.5135  -30.8498 H   0  0  0  0  0  0  0  0  0  0  0  0
   -9.1590   23.1223  -30.2730 H   0  0  0  0  0  0  0  0  0  0  0  0
   -9.2986   20.7586  -31.0249 H   0  0  0  0  0  0  0  0  0  0  0  0
   -9.0340   18.5451  -31.4734 H   0  0  0  0  0  0  0  0  0  0  0  0
   -9.5207   19.3006  -33.0287 H   0  0  0  0  0  0  0  0  0  0  0  0
   -8.5963   17.7604  -33.0287 H   0  0  0  0  0  0  0  0  0  0  0  0
   -3.3510   19.2480  -34.3650 H   0  0  0  0  0  0  0  0  0  0  0  0
   -3.1876   16.6447  -35.1026 H   0  0  0  0  0  0  0  0  0  0  0  0
   -4.4035   14.4422  -35.0049 H   0  0  0  0  0  0  0  0  0  0  0  0
   -6.6404   14.2893  -33.9024 H   0  0  0  0  0  0  0  0  0  0  0  0
   -7.7170   16.3412  -32.9195 H   0  0  0  0  0  0  0  0  0  0  0  0
  1  2  1  0
  2  3  1  0
  3  4  1  0
  3  5  1  0
  5  6  1  0
  6  7  1  0
  7  8  1  0
  8  9  2  0
  9 10  1  0
 10 11  2  0
 11 12  1  0
 12 13  2  0
 13 14  1  0
 14 15  2  0
 15 16  1  0
 15 17  1  0
 17 18  2  0
 18 19  1  0
 19 20  1  0
 20 21  2  0
 21 22  1  0
 22 23  2  0
 23 24  1  0
 24 25  2  0
 18  8  1  0
 25 20  1  0
 14  9  1  0
 25 17  1  0
  1 26  1  0
  1 27  1  0
  1 28  1  0
  2 29  1  0
  2 30  1  0
  3 31  1  6
  4 32  1  0
  4 33  1  0
  4 34  1  0
  5 35  1  0
  5 36  1  0
  6 37  1  0
  6 38  1  0
  7 39  1  0
 10 40  1  0
 11 41  1  0
 12 42  1  0
 13 43  1  0
 16 44  1  0
 16 45  1  0
 16 46  1  0
 19 47  1  0
 21 48  1  0
 22 49  1  0
 23 50  1  0
 24 51  1  0
M  CHG  2   3   1  15   1
M  END
>  <UniqueID>  (20) 
18

>  <SMILES>  (20) 
CC[N@H+](C)CCNc1c2ccccc2[n+](C)c2c1[nH]c1ccccc12

>  <Energy>  (20) 
113.80617515071728

>  <Genealogy>  (20) 
CC[NH+](C)CCNc1c2ccccc2[n+](C)c2c1[nH]c1ccccc12 (protonated)
CC[N@H+](C)CCNc1c2ccccc2[n+](C)c2c1[nH]c1ccccc12 (chirality)
CC[N@H+](C)CCNc1c2ccccc2[n+](C)c2c1[nH]c1ccccc12 (3D coordinates assigned)
CC[N@H+](C)CCNc1c2ccccc2[n+](C)c2c1[nH]c1ccccc12 (optimized conformer: 113.80617515071728 kcal/mol)

>  <smiles>  (20) 
CCN(C)CCNc1c2ccccc2[n+](C)c2c1[nH]c1ccccc12

>  <score_type>  (20) 
oracle

>  <origin>  (20) 
adg

>  <m_score__min__energy>  (20) 
-7.4199999999999999

>  <m_primary>  (20) 
energy

$$$$
20:0
     RDKit          3D

 56 59  0  0  0  0  0  0  0  0999 V2000
  -10.4645   20.0348  -32.8602 H   0  0  0  0  0  0  0  0  0  0  0  0
   -9.5510   20.3710  -32.3480 C   0  0  0  0  0  0  0  0  0  0  0  0
   -9.5860   21.5090  -31.7130 N   0  0  0  0  0  0  0  0  0  0  0  0
   -8.4630   22.3080  -31.4290 N   0  0  0  0  0  0  0  0  0  0  0  0
   -7.6020   22.2020  -30.4000 C   0  0  0  0  0  0  0  0  0  0  0  0
   -7.7501   21.5558  -29.5222 H   0  0  0  0  0  0  0  0  0  0  0  0
   -6.5340   22.9980  -30.5960 N   0  0  0  0  0  0  0  0  0  0  0  0
   -6.6990   23.5940  -31.7700 N   0  0  0  0  0  0  0  0  0  0  0  0
   -7.8660   23.1530  -32.2800 C   0  0  0  0  0  0  0  0  0  0  0  0
   -8.2720   23.4463  -33.2594 H   0  0  0  0  0  0  0  0  0  0  0  0
   -8.3560   19.5080  -32.4190 C   0  0  0  0  0  0  0  0  0  0  0  0
   -8.3470   18.2350  -31.8350 C   0  0  0  0  0  0  0  0  0  0  0  0
   -9.2338   17.8750  -31.2927 H   0  0  0  0  0  0  0  0  0  0  0  0
   -7.2190   17.4220  -31.9380 C   0  0  0  0  0  0  0  0  0  0  0  0
   -7.2253   16.4214  -31.4811 H   0  0  0  0  0  0  0  0  0  0  0  0
   -6.0720   17.8690  -32.6210 C   0  0  0  0  0  0  0  0  0  0  0  0
   -4.9440   17.0470  -32.7750 O   0  0  0  0  0  0  0  0  0  0  0  0
   -4.7060   16.1970  -33.8930 C   0  0  0  0  0  0  0  0  0  0  0  0
   -4.4253   15.1944  -33.5381 H   0  0  0  0  0  0  0  0  0  0  0  0
   -5.6194   16.1279  -34.5021 H   0  0  0  0  0  0  0  0  0  0  0  0
   -3.8896   16.6123  -34.5021 H   0  0  0  0  0  0  0  0  0  0  0  0
   -6.0640   19.1670  -33.1830 C   0  0  0  0  0  0  0  0  0  0  0  0
   -4.8300   19.7250  -33.8770 C   0  0  0  0  0  0  0  0  0  0  0  0
   -4.2599   18.8847  -34.2999 H   0  0  0  0  0  0  0  0  0  0  0  0
   -5.1844   20.4235  -34.6493 H   0  0  0  0  0  0  0  0  0  0  0  0
   -3.9350   20.4920  -32.9780 N   0  0  0  0  0  0  0  0  0  0  0  0
   -3.6640   19.8430  -31.6680 C   0  0  0  0  0  0  0  0  0  0  0  0
   -4.2718   18.9288  -31.5988 H   0  0  0  0  0  0  0  0  0  0  0  0
   -2.5860   19.6278  -31.6275 H   0  0  0  0  0  0  0  0  0  0  0  0
   -3.9940   20.7390  -30.4680 C   0  0  0  0  0  0  0  0  0  0  0  0
   -5.0838   20.8721  -30.4007 H   0  0  0  0  0  0  0  0  0  0  0  0
   -3.6204   20.2655  -29.5481 H   0  0  0  0  0  0  0  0  0  0  0  0
   -3.3530   22.0480  -30.6330 N   0  0  0  0  0  0  0  0  0  0  0  0
   -2.8290   22.7600  -29.4940 C   0  0  0  0  0  0  0  0  0  0  0  0
   -2.2040   22.0460  -28.4570 C   0  0  0  0  0  0  0  0  0  0  0  0
   -2.1139   20.9518  -28.5251 H   0  0  0  0  0  0  0  0  0  0  0  0
   -1.6970   22.7140  -27.3420 C   0  0  0  0  0  0  0  0  0  0  0  0
   -1.2129   22.1454  -26.5343 H   0  0  0  0  0  0  0  0  0  0  0  0
   -1.8030   24.1010  -27.2500 C   0  0  0  0  0  0  0  0  0  0  0  0
   -1.4057   24.6247  -26.3680 H   0  0  0  0  0  0  0  0  0  0  0  0
   -2.4130   24.8270  -28.2760 C   0  0  0  0  0  0  0  0  0  0  0  0
   -2.4943   25.9212  -28.1977 H   0  0  0  0  0  0  0  0  0  0  0  0
   -2.9250   24.1660  -29.4110 C   0  0  0  0  0  0  0  0  0  0  0  0
   -3.5140   24.8730  -30.4720 O   0  0  0  0  0  0  0  0  0  0  0  0
   -4.8400   25.3910  -30.4620 C   0  0  0  0  0  0  0  0  0  0  0  0
   -5.1747   25.5218  -29.4224 H   0  0  0  0  0  0  0  0  0  0  0  0
   -4.8581   26.3623  -30.9780 H   0  0  0  0  0  0  0  0  0  0  0  0
   -5.5117   24.6892  -30.9780 H   0  0  0  0  0  0  0  0  0  0  0  0
   -3.2840   22.6570  -31.9670 C   0  0  0  0  0  0  0  0  0  0  0  0
   -3.5701   23.7169  -31.8975 H   0  0  0  0  0  0  0  0  0  0  0  0
   -2.2560   22.5690  -32.3484 H   0  0  0  0  0  0  0  0  0  0  0  0
   -4.2350   21.9390  -32.9270 C   0  0  0  0  0  0  0  0  0  0  0  0
   -5.2701   22.0809  -32.5828 H   0  0  0  0  0  0  0  0  0  0  0  0
   -4.1054   22.3619  -33.9341 H   0  0  0  0  0  0  0  0  0  0  0  0
   -7.2330   19.9470  -33.1280 C   0  0  0  0  0  0  0  0  0  0  0  0
   -7.2646   20.9151  -33.6494 H   0  0  0  0  0  0  0  0  0  0  0  0
  1  2  1  0
  2  3  2  0
  3  4  1  0
  4  5  1  0
  5  6  1  0
  5  7  2  0
  7  8  1  0
  8  9  2  0
  9 10  1  0
  2 11  1  0
 11 12  2  0
 12 13  1  0
 12 14  1  0
 14 15  1  0
 14 16  2  0
 16 17  1  0
 17 18  1  0
 18 19  1  0
 18 20  1  0
 18 21  1  0
 16 22  1  0
 22 23  1  0
 23 24  1  0
 23 25  1  0
 23 26  1  0
 26 27  1  0
 27 28  1  0
 27 29  1  0
 27 30  1  0
 30 31  1  0
 30 32  1  0
 30 33  1  0
 33 34  1  0
 34 35  2  0
 35 36  1  0
 35 37  1  0
 37 38  1  0
 37 39  2  0
 39 40  1  0
 39 41  1  0
 41 42  1  0
 41 43  2  0
 43 44  1  0
 44 45  1  0
 45 46  1  0
 45 47  1  0
 45 48  1  0
 33 49  1  0
 49 50  1  0
 49 51  1  0
 49 52  1  0
 52 53  1  0
 52 54  1  0
 22 55  2  0
 55 56  1  0
  9  4  1  0
 55 11  1  0
 52 26  1  0
 43 34  1  0
M  END
>  <UniqueID>  (21) 
19

>  <SMILES>  (21) 
COc1ccc(/C=N\n2cnnc2)cc1CN1CCN(c2ccccc2OC)CC1

>  <Energy>  (21) 
117.7908615070298

>  <Genealogy>  (21) 
COc1ccc(/C=N\n2cnnc2)cc1CN1CCN(c2ccccc2OC)CC1 (cis-trans isomerization)
COc1ccc(/C=N\n2cnnc2)cc1CN1CCN(c2ccccc2OC)CC1 (3D coordinates assigned)
COc1ccc(/C=N\n2cnnc2)cc1CN1CCN(c2ccccc2OC)CC1 (nonaromatic ring conformer: 117.7908615070298 kcal/mol)

>  <smiles>  (21) 
COc1ccc(C=Nn2cnnc2)cc1CN1CCN(c2ccccc2OC)CC1

>  <score_type>  (21) 
oracle

>  <origin>  (21) 
adg

>  <m_score__min__energy>  (21) 
-8.8200000000000003

>  <m_primary>  (21) 
energy

$$$$
21:0
     RDKit          3D

 30 32  0  0  0  0  0  0  0  0999 V2000
   -4.0570   26.3360  -31.1440 H   0  0  0  0  0  0  0  0  0  0  0  0
   -3.8690   25.3920  -30.7390 N   0  0  0  0  0  0  0  0  0  0  0  0
   -4.7460   24.4450  -30.8150 C   0  0  0  0  0  0  0  0  0  0  0  0
   -4.5790   23.3370  -31.5620 N   0  0  0  0  0  0  0  0  0  0  0  0
   -5.6420   22.4850  -31.4810 C   0  0  0  0  0  0  0  0  0  0  0  0
   -6.6750   22.9520  -30.6300 C   0  0  0  0  0  0  0  0  0  0  0  0
   -6.2050   24.4490  -30.0080 S   0  0  0  0  0  0  0  0  0  0  0  0
   -8.0060   22.3570  -30.2500 C   0  0  0  0  0  0  0  0  0  0  0  0
   -8.0227   22.2429  -29.1561 H   0  0  0  0  0  0  0  0  0  0  0  0
   -8.7625   23.0515  -30.6441 H   0  0  0  0  0  0  0  0  0  0  0  0
   -8.3370   21.0000  -30.8650 C   0  0  0  0  0  0  0  0  0  0  0  0
   -7.6805   20.2374  -30.4206 H   0  0  0  0  0  0  0  0  0  0  0  0
   -9.3944   20.7783  -30.6583 H   0  0  0  0  0  0  0  0  0  0  0  0
   -8.1380   21.0030  -32.3800 C   0  0  0  0  0  0  0  0  0  0  0  0
   -8.8773   20.3361  -32.8475 H   0  0  0  0  0  0  0  0  0  0  0  0
   -8.2696   22.0256  -32.7634 H   0  0  0  0  0  0  0  0  0  0  0  0
   -6.7530   20.5220  -32.7080 C   0  0  0  0  0  0  0  0  0  0  0  0
   -6.6120   19.3420  -33.4630 C   0  0  0  0  0  0  0  0  0  0  0  0
   -7.5113   18.8180  -33.8190 H   0  0  0  0  0  0  0  0  0  0  0  0
   -5.3520   18.8250  -33.7680 C   0  0  0  0  0  0  0  0  0  0  0  0
   -5.2790   17.6460  -34.5240 O   0  0  0  0  0  0  0  0  0  0  0  0
   -5.9920   16.4510  -34.2230 C   0  0  0  0  0  0  0  0  0  0  0  0
   -6.0633   16.3315  -33.1318 H   0  0  0  0  0  0  0  0  0  0  0  0
   -7.0031   16.5093  -34.6523 H   0  0  0  0  0  0  0  0  0  0  0  0
   -5.4605   15.5889  -34.6523 H   0  0  0  0  0  0  0  0  0  0  0  0
   -4.2090   19.4960  -33.3090 C   0  0  0  0  0  0  0  0  0  0  0  0
   -3.2101   19.0970  -33.5391 H   0  0  0  0  0  0  0  0  0  0  0  0
   -4.3340   20.6670  -32.5620 C   0  0  0  0  0  0  0  0  0  0  0  0
   -3.4276   21.1847  -32.2150 H   0  0  0  0  0  0  0  0  0  0  0  0
   -5.5990   21.2000  -32.2430 C   0  0  0  0  0  0  0  0  0  0  0  0
  1  2  1  0
  2  3  2  0
  3  4  1  0
  4  5  1  0
  5  6  2  0
  6  7  1  0
  6  8  1  0
  8  9  1  0
  8 10  1  0
  8 11  1  0
 11 12  1  0
 11 13  1  0
 11 14  1  0
 14 15  1  0
 14 16  1  0
 14 17  1  0
 17 18  2  0
 18 19  1  0
 18 20  1  0
 20 21  1  0
 21 22  1  0
 22 23  1  0
 22 24  1  0
 22 25  1  0
 20 26  2  0
 26 27  1  0
 26 28  1  0
 28 29  1  0
 28 30  2  0
  7  3  1  0
 30 17  1  0
 30  5  1  0
M  CHG  1   4  -1
M  END
>  <UniqueID>  (22) 
20

>  <SMILES>  (22) 
[H]/N=c1\[n-]c2c(s1)CCCc1cc(OC)ccc1-2

>  <Energy>  (22) 
71.85362079824341

>  <Genealogy>  (22) 
COc1ccc2c(c1)CCCc1sc(=N)[n-]c1-2 (protonated)
[H]/N=c1\[n-]c2c(s1)CCCc1cc(OC)ccc1-2 (cis-trans isomerization)
[H]/N=c1\[n-]c2c(s1)CCCc1cc(OC)ccc1-2 (3D coordinates assigned)
[H]/N=c1\[n-]c2c(s1)CCCc1cc(OC)ccc1-2 (nonaromatic ring conformer: 71.85362079824341 kcal/mol)

>  <smiles>  (22) 
COc1ccc2c(c1)CCCc1sc(=N)[nH]c1-2

>  <score_type>  (22) 
oracle

>  <origin>  (22) 
adg

>  <m_score__min__energy>  (22) 
-7.9500000000000002

>  <m_primary>  (22) 
energy

$$$$
22:0
     RDKit          3D

 43 46  0  0  0  0  0  0  0  0999 V2000
    0.1690   21.9320  -22.9970 C   0  0  0  0  0  0  0  0  0  0  0  0
   -0.2660   22.6120  -24.2510 C   0  0  0  0  0  0  0  0  0  0  0  0
   -0.3280   23.9600  -24.3920 N   0  0  0  0  0  0  0  0  0  0  0  0
   -0.8230   24.3150  -25.6050 C   0  0  0  0  0  0  0  0  0  0  0  0
   -1.0080   25.6300  -26.0380 C   0  0  0  0  0  0  0  0  0  0  0  0
   -1.5410   25.8490  -27.3200 C   0  0  0  0  0  0  0  0  0  0  0  0
   -1.8760   24.7660  -28.1600 C   0  0  0  0  0  0  0  0  0  0  0  0
   -2.4130   25.0400  -29.4270 O   0  0  0  0  0  0  0  0  0  0  0  0
   -3.6250   24.5370  -29.9210 C   0  0  0  0  0  0  0  0  0  0  0  0
   -3.6880   23.3360  -30.6440 C   0  0  0  0  0  0  0  0  0  0  0  0
   -4.9330   22.8910  -31.1150 C   0  0  0  0  0  0  0  0  0  0  0  0
   -5.0730   21.6200  -31.8710 C   0  0  0  0  0  0  0  0  0  0  0  0
   -3.9800   21.0530  -32.5570 C   0  0  0  0  0  0  0  0  0  0  0  0
   -4.1280   19.8520  -33.2560 C   0  0  0  0  0  0  0  0  0  0  0  0
   -5.3650   19.1980  -33.2830 C   0  0  0  0  0  0  0  0  0  0  0  0
   -5.5450   17.6760  -34.1510 S   0  0  0  0  0  0  0  0  0  0  0  0
   -4.3140   16.5260  -33.5830 C   0  0  0  0  0  0  0  0  0  0  0  0
   -5.3740   17.9090  -35.6260 O   0  0  0  0  0  0  0  0  0  0  0  0
   -6.9150   17.1090  -33.9060 O   0  0  0  0  0  0  0  0  0  0  0  0
   -6.4510   19.7450  -32.5890 C   0  0  0  0  0  0  0  0  0  0  0  0
   -6.3060   20.9450  -31.8870 C   0  0  0  0  0  0  0  0  0  0  0  0
   -6.0360   23.6580  -30.8860 N   0  0  0  0  0  0  0  0  0  0  0  0
   -5.9550   24.8290  -30.2060 C   0  0  0  0  0  0  0  0  0  0  0  0
   -4.7600   25.2600  -29.7310 N   0  0  0  0  0  0  0  0  0  0  0  0
   -1.7030   23.4420  -27.6960 C   0  0  0  0  0  0  0  0  0  0  0  0
   -1.1700   23.2530  -26.4250 C   0  0  0  0  0  0  0  0  0  0  0  0
   -0.8580   21.8110  -25.6220 S   0  0  0  0  0  0  0  0  0  0  0  0
   -0.1940   22.4994  -22.1273 H   0  0  0  0  0  0  0  0  0  0  0  0
   -0.2457   20.9135  -22.9694 H   0  0  0  0  0  0  0  0  0  0  0  0
    1.2675   21.8815  -22.9694 H   0  0  0  0  0  0  0  0  0  0  0  0
   -0.0360   24.6390  -23.6540 H   0  0  0  0  0  0  0  0  0  0  0  0
   -0.7419   26.4772  -25.3888 H   0  0  0  0  0  0  0  0  0  0  0  0
   -1.6991   26.8787  -27.6732 H   0  0  0  0  0  0  0  0  0  0  0  0
   -2.7760   22.7525  -30.8385 H   0  0  0  0  0  0  0  0  0  0  0  0
   -3.0036   21.5594  -32.5420 H   0  0  0  0  0  0  0  0  0  0  0  0
   -3.2680   19.4186  -33.7876 H   0  0  0  0  0  0  0  0  0  0  0  0
   -4.3022   16.5150  -32.4831 H   0  0  0  0  0  0  0  0  0  0  0  0
   -4.5522   15.5194  -33.9572 H   0  0  0  0  0  0  0  0  0  0  0  0
   -3.3259   16.8320  -33.9572 H   0  0  0  0  0  0  0  0  0  0  0  0
   -7.4221   19.2284  -32.5962 H   0  0  0  0  0  0  0  0  0  0  0  0
   -7.1644   21.3649  -31.3422 H   0  0  0  0  0  0  0  0  0  0  0  0
   -6.8608   25.4305  -30.0394 H   0  0  0  0  0  0  0  0  0  0  0  0
   -1.9827   22.5832  -28.3238 H   0  0  0  0  0  0  0  0  0  0  0  0
  1  2  1  0
  2  3  2  0
  3  4  1  0
  4  5  2  0
  5  6  1  0
  6  7  2  0
  7  8  1  0
  8  9  1  0
  9 10  2  0
 10 11  1  0
 11 12  1  0
 12 13  2  0
 13 14  1  0
 14 15  2  0
 15 16  1  0
 16 17  1  0
 16 18  2  0
 16 19  2  0
 15 20  1  0
 20 21  2  0
 11 22  2  0
 22 23  1  0
 23 24  2  0
  7 25  1  0
 25 26  2  0
 26 27  1  0
 27  2  1  0
 26  4  1  0
 24  9  1  0
 21 12  1  0
  1 28  1  0
  1 29  1  0
  1 30  1  0
  3 31  1  0
  5 32  1  0
  6 33  1  0
 10 34  1  0
 13 35  1  0
 14 36  1  0
 17 37  1  0
 17 38  1  0
 17 39  1  0
 20 40  1  0
 21 41  1  0
 23 42  1  0
 25 43  1  0
M  CHG  1   3   1
M  END
>  <UniqueID>  (23) 
21

>  <SMILES>  (23) 
Cc1[nH+]c2ccc(Oc3cc(-c4ccc(S(C)(=O)=O)cc4)ncn3)cc2s1

>  <Energy>  (23) 
88.55685238658101

>  <Genealogy>  (23) 
Cc1[nH+]c2ccc(Oc3cc(-c4ccc(S(C)(=O)=O)cc4)ncn3)cc2s1 (protonated)
Cc1[nH+]c2ccc(Oc3cc(-c4ccc(S(C)(=O)=O)cc4)ncn3)cc2s1 (3D coordinates assigned)
Cc1[nH+]c2ccc(Oc3cc(-c4ccc(S(C)(=O)=O)cc4)ncn3)cc2s1 (optimized conformer: 88.55685238658101 kcal/mol)

>  <smiles>  (23) 
Cc1nc2ccc(Oc3cc(-c4ccc(S(C)(=O)=O)cc4)ncn3)cc2s1

>  <score_type>  (23) 
oracle

>  <origin>  (23) 
adg

>  <m_score__min__energy>  (23) 
-9.3000000000000007

>  <m_primary>  (23) 
energy

$$$$
23:0
     RDKit          3D

 42 44  0  0  0  0  0  0  0  0999 V2000
   -6.1880   17.0620  -30.9130 O   0  0  0  0  0  0  0  0  0  0  0  0
   -6.5460   17.5120  -32.0370 C   0  0  0  0  0  0  0  0  0  0  0  0
   -7.3620   18.7620  -32.0720 C   0  0  0  0  0  0  0  0  0  0  0  0
   -8.7540   18.7350  -32.2840 C   0  0  0  0  0  0  0  0  0  0  0  0
   -9.4870   19.9230  -32.3320 C   0  0  0  0  0  0  0  0  0  0  0  0
   -8.8490   21.1520  -32.1630 C   0  0  0  0  0  0  0  0  0  0  0  0
   -7.4670   21.2070  -31.9280 C   0  0  0  0  0  0  0  0  0  0  0  0
   -6.7660   22.5360  -31.7950 C   0  0  0  0  0  0  0  0  0  0  0  0
   -6.7790   22.9700  -30.4810 F   0  0  0  0  0  0  0  0  0  0  0  0
   -7.4100   23.4700  -32.5850 F   0  0  0  0  0  0  0  0  0  0  0  0
   -5.4470   22.4330  -32.2030 F   0  0  0  0  0  0  0  0  0  0  0  0
   -6.7290   20.0110  -31.9090 C   0  0  0  0  0  0  0  0  0  0  0  0
   -6.1390   16.8280  -33.2550 N   0  0  0  0  0  0  0  0  0  0  0  0
   -4.8460   16.1320  -33.1300 C   0  0  0  0  0  0  0  0  0  0  0  0
   -3.6150   17.0630  -33.0900 C   0  0  0  0  0  0  0  0  0  0  0  0
   -3.7810   18.3860  -33.7330 N   0  0  0  0  0  0  0  0  0  0  0  0
   -2.6650   19.3290  -33.7050 C   0  0  0  0  0  0  0  0  0  0  0  0
   -2.8050   20.6170  -33.1300 C   0  0  0  0  0  0  0  0  0  0  0  0
   -1.7360   21.5160  -33.1040 C   0  0  0  0  0  0  0  0  0  0  0  0
   -0.5030   21.1570  -33.6460 C   0  0  0  0  0  0  0  0  0  0  0  0
   -0.3350   19.8950  -34.2120 C   0  0  0  0  0  0  0  0  0  0  0  0
   -1.3990   18.9890  -34.2430 C   0  0  0  0  0  0  0  0  0  0  0  0
   -5.0750   18.8350  -34.2820 C   0  0  0  0  0  0  0  0  0  0  0  0
   -6.1140   17.7210  -34.4210 C   0  0  0  0  0  0  0  0  0  0  0  0
   -9.2679   17.7710  -32.4128 H   0  0  0  0  0  0  0  0  0  0  0  0
  -10.5730   19.8893  -32.5040 H   0  0  0  0  0  0  0  0  0  0  0  0
   -9.4327   22.0830  -32.2143 H   0  0  0  0  0  0  0  0  0  0  0  0
   -5.6392   20.0502  -31.7645 H   0  0  0  0  0  0  0  0  0  0  0  0
   -6.8360   16.0720  -33.4520 H   0  0  0  0  0  0  0  0  0  0  0  0
   -4.8616   15.5440  -32.2005 H   0  0  0  0  0  0  0  0  0  0  0  0
   -4.7379   15.5116  -34.0319 H   0  0  0  0  0  0  0  0  0  0  0  0
   -3.3549   17.2320  -32.0346 H   0  0  0  0  0  0  0  0  0  0  0  0
   -2.8344   16.5477  -33.6689 H   0  0  0  0  0  0  0  0  0  0  0  0
   -3.7717   20.9137  -32.6969 H   0  0  0  0  0  0  0  0  0  0  0  0
   -1.8678   22.5111  -32.6540 H   0  0  0  0  0  0  0  0  0  0  0  0
    0.3356   21.8686  -33.6269 H   0  0  0  0  0  0  0  0  0  0  0  0
    0.6391   19.6104  -34.6363 H   0  0  0  0  0  0  0  0  0  0  0  0
   -1.2511   17.9959  -34.6924 H   0  0  0  0  0  0  0  0  0  0  0  0
   -5.4841   19.6078  -33.6146 H   0  0  0  0  0  0  0  0  0  0  0  0
   -4.8760   19.2119  -35.2961 H   0  0  0  0  0  0  0  0  0  0  0  0
   -7.1079   18.1778  -34.5371 H   0  0  0  0  0  0  0  0  0  0  0  0
   -5.8419   17.1172  -35.2993 H   0  0  0  0  0  0  0  0  0  0  0  0
  1  2  2  0
  2  3  1  0
  3  4  2  0
  4  5  1  0
  5  6  2  0
  6  7  1  0
  7  8  1  0
  8  9  1  0
  8 10  1  0
  8 11  1  0
  7 12  2  0
  2 13  1  0
 13 14  1  0
 14 15  1  0
 15 16  1  0
 16 17  1  0
 17 18  2  0
 18 19  1  0
 19 20  2  0
 20 21  1  0
 21 22  2  0
 16 23  1  0
 23 24  1  0
 12  3  1  0
 24 13  1  0
 22 17  1  0
  4 25  1  0
  5 26  1  0
  6 27  1  0
 12 28  1  0
 13 29  1  0
 14 30  1  0
 14 31  1  0
 15 32  1  0
 15 33  1  0
 18 34  1  0
 19 35  1  0
 20 36  1  0
 21 37  1  0
 22 38  1  0
 23 39  1  0
 23 40  1  0
 24 41  1  0
 24 42  1  0
M  CHG  1  13   1
M  END
>  <UniqueID>  (24) 
22

>  <SMILES>  (24) 
O=C(c1cccc(C(F)(F)F)c1)[NH+]1CCN(c2ccccc2)CC1

>  <Energy>  (24) 
61.16566318739786

>  <Genealogy>  (24) 
O=C(c1cccc(C(F)(F)F)c1)[NH+]1CCN(c2ccccc2)CC1 (protonated)
O=C(c1cccc(C(F)(F)F)c1)[NH+]1CCN(c2ccccc2)CC1 (3D coordinates assigned)
O=C(c1cccc(C(F)(F)F)c1)[NH+]1CCN(c2ccccc2)CC1 (nonaromatic ring conformer: 61.16566318739786 kcal/mol)

>  <smiles>  (24) 
O=C(c1cccc(C(F)(F)F)c1)N1CCN(c2ccccc2)CC1

>  <score_type>  (24) 
oracle

>  <origin>  (24) 
adg

>  <m_score__min__energy>  (24) 
-7.2800000000000002

>  <m_primary>  (24) 
energy

$$$$
24:0
     RDKit          3D

 44 46  0  0  0  0  0  0  0  0999 V2000
    1.7410   24.6780  -26.9630 C   0  0  0  0  0  0  0  0  0  0  0  0
    1.2860   24.1730  -28.2140 O   0  0  0  0  0  0  0  0  0  0  0  0
   -0.0640   24.0770  -28.5910 C   0  0  0  0  0  0  0  0  0  0  0  0
   -1.0020   25.0750  -28.2850 C   0  0  0  0  0  0  0  0  0  0  0  0
   -2.3360   24.9300  -28.6660 C   0  0  0  0  0  0  0  0  0  0  0  0
   -2.7590   23.7820  -29.3570 C   0  0  0  0  0  0  0  0  0  0  0  0
   -4.1160   23.6280  -29.7950 N   0  0  0  0  0  0  0  0  0  0  0  0
   -4.9090   24.6210  -30.4540 C   0  0  0  0  0  0  0  0  0  0  0  0
   -4.3790   25.6700  -30.9090 O   0  0  0  0  0  0  0  0  0  0  0  0
   -6.3860   24.4280  -30.5680 C   0  0  0  0  0  0  0  0  0  0  0  0
   -6.8790   22.8510  -29.7920 S   0  0  0  0  0  0  0  0  0  0  0  0
   -6.3320   21.8340  -31.1640 C   0  0  0  0  0  0  0  0  0  0  0  0
   -5.0370   21.6420  -31.4880 N   0  0  0  0  0  0  0  0  0  0  0  0
   -4.8860   20.8650  -32.5980 C   0  0  0  0  0  0  0  0  0  0  0  0
   -3.5530   20.5210  -33.1520 C   0  0  0  0  0  0  0  0  0  0  0  0
   -3.2470   19.1900  -33.4960 C   0  0  0  0  0  0  0  0  0  0  0  0
   -1.9860   18.8600  -34.0030 C   0  0  0  0  0  0  0  0  0  0  0  0
   -1.0160   19.8520  -34.1700 C   0  0  0  0  0  0  0  0  0  0  0  0
   -1.3090   21.1780  -33.8420 C   0  0  0  0  0  0  0  0  0  0  0  0
   -2.5690   21.5150  -33.3380 C   0  0  0  0  0  0  0  0  0  0  0  0
   -6.0890   20.4360  -33.1640 C   0  0  0  0  0  0  0  0  0  0  0  0
   -7.3540   21.0540  -32.2410 S   0  0  0  0  0  0  0  0  0  0  0  0
   -1.8240   22.7900  -29.6910 C   0  0  0  0  0  0  0  0  0  0  0  0
   -2.2670   21.6640  -30.4050 O   0  0  0  0  0  0  0  0  0  0  0  0
   -1.6880   20.3650  -30.3080 C   0  0  0  0  0  0  0  0  0  0  0  0
   -0.4790   22.9440  -29.2980 C   0  0  0  0  0  0  0  0  0  0  0  0
    1.2482   24.1311  -26.1457 H   0  0  0  0  0  0  0  0  0  0  0  0
    2.8304   24.5454  -26.8884 H   0  0  0  0  0  0  0  0  0  0  0  0
    1.4959   25.7477  -26.8884 H   0  0  0  0  0  0  0  0  0  0  0  0
   -0.6834   25.9768  -27.7416 H   0  0  0  0  0  0  0  0  0  0  0  0
   -3.0620   25.7201  -28.4238 H   0  0  0  0  0  0  0  0  0  0  0  0
   -6.9008   25.2581  -30.0622 H   0  0  0  0  0  0  0  0  0  0  0  0
   -6.6635   24.4059  -31.6322 H   0  0  0  0  0  0  0  0  0  0  0  0
   -4.2500   22.0740  -30.9550 H   0  0  0  0  0  0  0  0  0  0  0  0
   -4.0054   18.4041  -33.3649 H   0  0  0  0  0  0  0  0  0  0  0  0
   -1.7574   17.8179  -34.2707 H   0  0  0  0  0  0  0  0  0  0  0  0
   -0.0216   19.5887  -34.5598 H   0  0  0  0  0  0  0  0  0  0  0  0
   -0.5467   21.9588  -33.9806 H   0  0  0  0  0  0  0  0  0  0  0  0
   -2.7945   22.5615  -33.0850 H   0  0  0  0  0  0  0  0  0  0  0  0
   -6.1919   19.8037  -34.0582 H   0  0  0  0  0  0  0  0  0  0  0  0
   -1.5678   20.0953  -29.2484 H   0  0  0  0  0  0  0  0  0  0  0  0
   -2.3450   19.6330  -30.8004 H   0  0  0  0  0  0  0  0  0  0  0  0
   -0.7044   20.3643  -30.8004 H   0  0  0  0  0  0  0  0  0  0  0  0
    0.2534   22.1631  -29.5506 H   0  0  0  0  0  0  0  0  0  0  0  0
  1  2  1  0
  2  3  1  0
  3  4  2  0
  4  5  1  0
  5  6  2  0
  6  7  1  0
  7  8  1  0
  8  9  2  0
  8 10  1  0
 10 11  1  0
 11 12  1  0
 12 13  2  0
 13 14  1  0
 14 15  1  0
 15 16  2  0
 16 17  1  0
 17 18  2  0
 18 19  1  0
 19 20  2  0
 14 21  2  0
 21 22  1  0
  6 23  1  0
 23 24  1  0
 24 25  1  0
 23 26  2  0
 26  3  1  0
 22 12  1  0
 20 15  1  0
  1 27  1  0
  1 28  1  0
  1 29  1  0
  4 30  1  0
  5 31  1  0
 10 32  1  0
 10 33  1  0
 13 34  1  0
 16 35  1  0
 17 36  1  0
 18 37  1  0
 19 38  1  0
 20 39  1  0
 21 40  1  0
 25 41  1  0
 25 42  1  0
 25 43  1  0
 26 44  1  0
M  CHG  2   7  -1  13   1
M  END
>  <UniqueID>  (25) 
23

>  <SMILES>  (25) 
COc1ccc([N-]C(=O)CSc2[nH+]c(-c3ccccc3)cs2)c(OC)c1

>  <Energy>  (25) 
76.06136590840937

>  <Genealogy>  (25) 
COc1ccc([N-]C(=O)CSc2[nH+]c(-c3ccccc3)cs2)c(OC)c1 (protonated)
COc1ccc([N-]C(=O)CSc2[nH+]c(-c3ccccc3)cs2)c(OC)c1 (3D coordinates assigned)
COc1ccc([N-]C(=O)CSc2[nH+]c(-c3ccccc3)cs2)c(OC)c1 (optimized conformer: 76.06136590840937 kcal/mol)

>  <smiles>  (25) 
COc1ccc(NC(=O)CSc2nc(-c3ccccc3)cs2)c(OC)c1

>  <score_type>  (25) 
oracle

>  <origin>  (25) 
adg

>  <m_score__min__energy>  (25) 
-9.2699999999999996

>  <m_primary>  (25) 
energy

$$$$
25:0
     RDKit          3D

 66 67  0  0  0  0  0  0  0  0999 V2000
   -6.1640   25.2100  -29.6160 C   0  0  0  0  0  0  0  0  0  0  0  0
   -5.2050   25.1810  -30.8010 C   0  0  0  0  0  0  0  0  0  0  0  0
   -4.0370   24.3320  -30.4810 N   0  0  0  0  0  0  0  0  0  0  0  0
   -3.8560   24.1690  -29.0200 C   0  0  0  0  0  0  0  0  0  0  0  0
   -2.4050   24.3930  -28.5970 C   0  0  0  0  0  0  0  0  0  0  0  0
   -4.0020   23.0670  -31.2610 C   0  0  0  0  0  0  0  0  0  0  0  0
   -3.9550   21.7760  -30.4230 C   0  0  0  0  0  0  0  0  0  0  0  0
   -3.7010   20.6540  -31.2430 O   0  0  0  0  0  0  0  0  0  0  0  0
   -2.7590   20.9770  -32.2530 C   0  0  0  0  0  0  0  0  0  0  0  0
   -2.7060   19.8800  -33.3390 C   0  0  0  0  0  0  0  0  0  0  0  0
   -3.8150   18.8960  -33.2380 N   0  0  0  0  0  0  0  0  0  0  0  0
   -4.9160   19.2800  -34.1610 C   0  0  0  0  0  0  0  0  0  0  0  0
   -5.7190   18.0900  -34.7410 C   0  0  0  0  0  0  0  0  0  0  0  0
   -5.7550   16.9040  -33.8620 N   0  0  0  0  0  0  0  0  0  0  0  0
   -6.9440   16.7880  -32.9910 C   0  0  0  0  0  0  0  0  0  0  0  0
   -6.8770   17.6930  -31.7510 C   0  0  0  0  0  0  0  0  0  0  0  0
   -8.2720   18.1870  -31.3410 C   0  0  0  0  0  0  0  0  0  0  0  0
   -8.9250   19.0490  -32.4330 C   0  0  0  0  0  0  0  0  0  0  0  0
   -8.5320   20.5000  -32.3170 C   0  0  0  0  0  0  0  0  0  0  0  0
   -9.4910   21.4690  -31.9790 C   0  0  0  0  0  0  0  0  0  0  0  0
   -9.1150   22.8070  -31.8200 C   0  0  0  0  0  0  0  0  0  0  0  0
   -7.7810   23.1860  -31.9910 C   0  0  0  0  0  0  0  0  0  0  0  0
   -6.8190   22.2270  -32.3210 C   0  0  0  0  0  0  0  0  0  0  0  0
   -7.1910   20.8890  -32.4840 C   0  0  0  0  0  0  0  0  0  0  0  0
   -4.4740   16.5170  -33.2310 C   0  0  0  0  0  0  0  0  0  0  0  0
   -3.3460   17.5220  -33.5000 C   0  0  0  0  0  0  0  0  0  0  0  0
   -5.5890   25.1926  -28.6784 H   0  0  0  0  0  0  0  0  0  0  0  0
   -6.7703   26.1269  -29.6573 H   0  0  0  0  0  0  0  0  0  0  0  0
   -6.8246   24.3314  -29.6573 H   0  0  0  0  0  0  0  0  0  0  0  0
   -5.7238   24.7717  -31.6804 H   0  0  0  0  0  0  0  0  0  0  0  0
   -4.8620   26.2040  -31.0152 H   0  0  0  0  0  0  0  0  0  0  0  0
   -4.4948   24.8975  -28.4991 H   0  0  0  0  0  0  0  0  0  0  0  0
   -4.1329   23.1379  -28.7552 H   0  0  0  0  0  0  0  0  0  0  0  0
   -2.3406   24.4029  -27.4989 H   0  0  0  0  0  0  0  0  0  0  0  0
   -1.7779   23.5810  -28.9938 H   0  0  0  0  0  0  0  0  0  0  0  0
   -2.0519   25.3563  -28.9938 H   0  0  0  0  0  0  0  0  0  0  0  0
   -4.9038   23.0309  -31.8898 H   0  0  0  0  0  0  0  0  0  0  0  0
   -3.0639   23.0904  -31.8349 H   0  0  0  0  0  0  0  0  0  0  0  0
   -3.1556   21.8623  -29.6724 H   0  0  0  0  0  0  0  0  0  0  0  0
   -4.9294   21.6396  -29.9311 H   0  0  0  0  0  0  0  0  0  0  0  0
   -3.0465   21.9306  -32.7200 H   0  0  0  0  0  0  0  0  0  0  0  0
   -1.7647   21.0563  -31.7893 H   0  0  0  0  0  0  0  0  0  0  0  0
   -2.7574   20.3634  -34.3258 H   0  0  0  0  0  0  0  0  0  0  0  0
   -1.7663   19.3263  -33.1959 H   0  0  0  0  0  0  0  0  0  0  0  0
   -4.1860   18.9390  -32.2600 H   0  0  0  0  0  0  0  0  0  0  0  0
   -5.6138   19.9285  -33.6109 H   0  0  0  0  0  0  0  0  0  0  0  0
   -4.4424   19.7820  -35.0176 H   0  0  0  0  0  0  0  0  0  0  0  0
   -6.7529   18.4227  -34.9154 H   0  0  0  0  0  0  0  0  0  0  0  0
   -5.2103   17.7842  -35.6671 H   0  0  0  0  0  0  0  0  0  0  0  0
   -7.8341   17.0623  -33.5762 H   0  0  0  0  0  0  0  0  0  0  0  0
   -6.9878   15.7482  -32.6347 H   0  0  0  0  0  0  0  0  0  0  0  0
   -6.4391   17.1251  -30.9169 H   0  0  0  0  0  0  0  0  0  0  0  0
   -6.2578   18.5688  -31.9950 H   0  0  0  0  0  0  0  0  0  0  0  0
   -8.9139   17.3151  -31.1465 H   0  0  0  0  0  0  0  0  0  0  0  0
   -8.1596   18.8092  -30.4409 H   0  0  0  0  0  0  0  0  0  0  0  0
   -8.6101   18.6733  -33.4177 H   0  0  0  0  0  0  0  0  0  0  0  0
  -10.0163   18.9817  -32.3120 H   0  0  0  0  0  0  0  0  0  0  0  0
  -10.5416   21.1747  -31.8388 H   0  0  0  0  0  0  0  0  0  0  0  0
   -9.8711   23.5624  -31.5598 H   0  0  0  0  0  0  0  0  0  0  0  0
   -7.4879   24.2388  -31.8660 H   0  0  0  0  0  0  0  0  0  0  0  0
   -5.7684   22.5252  -32.4526 H   0  0  0  0  0  0  0  0  0  0  0  0
   -6.4312   20.1373  -32.7441 H   0  0  0  0  0  0  0  0  0  0  0  0
   -4.6266   16.4438  -32.1441 H   0  0  0  0  0  0  0  0  0  0  0  0
   -4.1690   15.5549  -33.6683 H   0  0  0  0  0  0  0  0  0  0  0  0
   -2.4941   17.2970  -32.8415 H   0  0  0  0  0  0  0  0  0  0  0  0
   -3.0378   17.4425  -34.5529 H   0  0  0  0  0  0  0  0  0  0  0  0
  1  2  1  0
  2  3  1  0
  3  4  1  0
  4  5  1  0
  3  6  1  0
  6  7  1  0
  7  8  1  0
  8  9  1  0
  9 10  1  0
 10 11  1  0
 11 12  1  0
 12 13  1  0
 13 14  1  0
 14 15  1  0
 15 16  1  0
 16 17  1  0
 17 18  1  0
 18 19  1  0
 19 20  2  0
 20 21  1  0
 21 22  2  0
 22 23  1  0
 23 24  2  0
 14 25  1  0
 25 26  1  0
 26 11  1  0
 24 19  1  0
  1 27  1  0
  1 28  1  0
  1 29  1  0
  2 30  1  0
  2 31  1  0
  4 32  1  0
  4 33  1  0
  5 34  1  0
  5 35  1  0
  5 36  1  0
  6 37  1  0
  6 38  1  0
  7 39  1  0
  7 40  1  0
  9 41  1  0
  9 42  1  0
 10 43  1  0
 10 44  1  0
 11 45  1  0
 12 46  1  0
 12 47  1  0
 13 48  1  0
 13 49  1  0
 15 50  1  0
 15 51  1  0
 16 52  1  0
 16 53  1  0
 17 54  1  0
 17 55  1  0
 18 56  1  0
 18 57  1  0
 20 58  1  0
 21 59  1  0
 22 60  1  0
 23 61  1  0
 24 62  1  0
 25 63  1  0
 25 64  1  0
 26 65  1  0
 26 66  1  0
M  CHG  1  11   1
M  END
>  <UniqueID>  (26) 
24

>  <SMILES>  (26) 
CCN(CC)CCOCC[NH+]1CCN(CCCCc2ccccc2)CC1

>  <Energy>  (26) 
77.23792826075157

>  <Genealogy>  (26) 
CCN(CC)CCOCC[NH+]1CCN(CCCCc2ccccc2)CC1 (protonated)
CCN(CC)CCOCC[NH+]1CCN(CCCCc2ccccc2)CC1 (3D coordinates assigned)
CCN(CC)CCOCC[NH+]1CCN(CCCCc2ccccc2)CC1 (nonaromatic ring conformer: 77.23792826075157 kcal/mol)

>  <smiles>  (26) 
CCN(CC)CCOCCN1CCN(CCCCc2ccccc2)CC1

>  <score_type>  (26) 
oracle

>  <origin>  (26) 
adg

>  <m_score__min__energy>  (26) 
-7.5099999999999998

>  <m_primary>  (26) 
energy

$$$$
26:0
     RDKit          3D

 60 62  0  0  0  0  0  0  0  0999 V2000
   -8.7240   21.6840  -31.2870 C   0  0  0  0  0  0  0  0  0  0  0  0
   -8.3420   23.0520  -31.1970 O   0  0  0  0  0  0  0  0  0  0  0  0
   -7.0350   23.4950  -30.9360 C   0  0  0  0  0  0  0  0  0  0  0  0
   -6.8530   24.5010  -29.9800 C   0  0  0  0  0  0  0  0  0  0  0  0
   -5.5720   24.9780  -29.6810 C   0  0  0  0  0  0  0  0  0  0  0  0
   -4.4490   24.4380  -30.3340 C   0  0  0  0  0  0  0  0  0  0  0  0
   -3.1210   24.9180  -30.0800 N   0  0  0  0  0  0  0  0  0  0  0  0
   -2.1570   24.3390  -29.1910 C   0  0  0  0  0  0  0  0  0  0  0  0
   -1.7560   24.9900  -28.1880 O   0  0  0  0  0  0  0  0  0  0  0  0
   -1.6760   22.9550  -29.4310 C   0  0  0  0  0  0  0  0  0  0  0  0
   -2.1110   22.2540  -30.5720 C   0  0  0  0  0  0  0  0  0  0  0  0
   -1.6790   20.9390  -30.8300 C   0  0  0  0  0  0  0  0  0  0  0  0
   -2.1580   20.2120  -32.0330 C   0  0  0  0  0  0  0  0  0  0  0  0
   -1.4030   19.4100  -32.8900 C   0  0  0  0  0  0  0  0  0  0  0  0
   -2.1500   18.8390  -33.9250 C   0  0  0  0  0  0  0  0  0  0  0  0
   -3.4930   19.1840  -33.9040 C   0  0  0  0  0  0  0  0  0  0  0  0
   -3.7480   20.2020  -32.5960 S   0  0  0  0  0  0  0  0  0  0  0  0
   -0.8080   20.3210  -29.9150 C   0  0  0  0  0  0  0  0  0  0  0  0
   -0.3870   20.9990  -28.7710 C   0  0  0  0  0  0  0  0  0  0  0  0
   -0.8100   22.3080  -28.5190 C   0  0  0  0  0  0  0  0  0  0  0  0
   -0.3760   22.9470  -27.3560 O   0  0  0  0  0  0  0  0  0  0  0  0
   -0.9850   22.6870  -26.0950 C   0  0  0  0  0  0  0  0  0  0  0  0
   -0.7860   23.8640  -25.1180 C   0  0  0  0  0  0  0  0  0  0  0  0
   -0.1360   25.0530  -25.7460 N   0  0  0  0  0  0  0  0  0  0  0  0
   -0.7160   26.3690  -25.3470 C   0  0  0  0  0  0  0  0  0  0  0  0
   -0.8380   27.4410  -26.4460 C   0  0  0  0  0  0  0  0  0  0  0  0
   -0.3140   26.9940  -27.6660 O   0  0  0  0  0  0  0  0  0  0  0  0
    1.3600   25.0000  -25.7460 C   0  0  0  0  0  0  0  0  0  0  0  0
    2.0510   25.3600  -27.0820 C   0  0  0  0  0  0  0  0  0  0  0  0
    1.2780   24.8970  -28.1600 O   0  0  0  0  0  0  0  0  0  0  0  0
   -4.6310   23.4500  -31.3080 C   0  0  0  0  0  0  0  0  0  0  0  0
   -5.9120   22.9700  -31.6010 C   0  0  0  0  0  0  0  0  0  0  0  0
   -8.8401   21.2684  -30.2752 H   0  0  0  0  0  0  0  0  0  0  0  0
   -9.6787   21.6047  -31.8277 H   0  0  0  0  0  0  0  0  0  0  0  0
   -7.9485   21.1216  -31.8277 H   0  0  0  0  0  0  0  0  0  0  0  0
   -7.7258   24.9208  -29.4585 H   0  0  0  0  0  0  0  0  0  0  0  0
   -5.4429   25.7758  -28.9348 H   0  0  0  0  0  0  0  0  0  0  0  0
   -2.8014   22.7429  -31.2751 H   0  0  0  0  0  0  0  0  0  0  0  0
   -0.3232   19.2430  -32.7634 H   0  0  0  0  0  0  0  0  0  0  0  0
   -1.7123   18.1766  -34.6864 H   0  0  0  0  0  0  0  0  0  0  0  0
   -4.2575   18.8485  -34.6202 H   0  0  0  0  0  0  0  0  0  0  0  0
   -0.4563   19.2958  -30.1028 H   0  0  0  0  0  0  0  0  0  0  0  0
    0.2854   20.4983  -28.0588 H   0  0  0  0  0  0  0  0  0  0  0  0
   -2.0626   22.5252  -26.2450 H   0  0  0  0  0  0  0  0  0  0  0  0
   -0.5118   21.7940  -25.6607 H   0  0  0  0  0  0  0  0  0  0  0  0
   -1.7706   24.1677  -24.7329 H   0  0  0  0  0  0  0  0  0  0  0  0
   -0.1170   23.5128  -24.3186 H   0  0  0  0  0  0  0  0  0  0  0  0
   -0.3630   24.9940  -26.7680 H   0  0  0  0  0  0  0  0  0  0  0  0
   -1.7257   26.1810  -24.9532 H   0  0  0  0  0  0  0  0  0  0  0  0
   -0.0047   26.7859  -24.6188 H   0  0  0  0  0  0  0  0  0  0  0  0
   -1.9004   27.6905  -26.5843 H   0  0  0  0  0  0  0  0  0  0  0  0
   -0.2638   28.3241  -26.1290 H   0  0  0  0  0  0  0  0  0  0  0  0
   -0.5700   26.0390  -27.7560 H   0  0  0  0  0  0  0  0  0  0  0  0
    1.7217   25.7019  -24.9802 H   0  0  0  0  0  0  0  0  0  0  0  0
    1.6196   23.9489  -25.5516 H   0  0  0  0  0  0  0  0  0  0  0  0
    2.1597   26.4523  -27.1537 H   0  0  0  0  0  0  0  0  0  0  0  0
    3.0424   24.8846  -27.1166 H   0  0  0  0  0  0  0  0  0  0  0  0
    0.3290   24.9290  -27.8690 H   0  0  0  0  0  0  0  0  0  0  0  0
   -3.7606   23.0478  -31.8472 H   0  0  0  0  0  0  0  0  0  0  0  0
   -6.0416   22.1790  -32.3543 H   0  0  0  0  0  0  0  0  0  0  0  0
  1  2  1  0
  2  3  1  0
  3  4  2  0
  4  5  1  0
  5  6  2  0
  6  7  1  0
  7  8  1  0
  8  9  2  0
  8 10  1  0
 10 11  2  0
 11 12  1  0
 12 13  1  0
 13 14  2  0
 14 15  1  0
 15 16  2  0
 16 17  1  0
 12 18  2  0
 18 19  1  0
 19 20  2  0
 20 21  1  0
 21 22  1  0
 22 23  1  0
 23 24  1  0
 24 25  1  0
 25 26  1  0
 26 27  1  0
 24 28  1  0
 28 29  1  0
 29 30  1  0
  6 31  1  0
 31 32  2  0
 32  3  1  0
 20 10  1  0
 17 13  1  0
  1 33  1  0
  1 34  1  0
  1 35  1  0
  4 36  1  0
  5 37  1  0
 11 38  1  0
 14 39  1  0
 15 40  1  0
 16 41  1  0
 18 42  1  0
 19 43  1  0
 22 44  1  0
 22 45  1  0
 23 46  1  0
 23 47  1  0
 24 48  1  0
 25 49  1  0
 25 50  1  0
 26 51  1  0
 26 52  1  0
 27 53  1  0
 28 54  1  0
 28 55  1  0
 29 56  1  0
 29 57  1  0
 30 58  1  0
 31 59  1  0
 32 60  1  0
M  CHG  2   7  -1  24   1
M  END
>  <UniqueID>  (27) 
25

>  <SMILES>  (27) 
COc1ccc([N-]C(=O)c2cc(-c3cccs3)ccc2OCC[NH+](CCO)CCO)cc1

>  <Energy>  (27) 
114.69238307666228

>  <Genealogy>  (27) 
COc1ccc([N-]C(=O)c2cc(-c3cccs3)ccc2OCC[NH+](CCO)CCO)cc1 (protonated)
COc1ccc([N-]C(=O)c2cc(-c3cccs3)ccc2OCC[NH+](CCO)CCO)cc1 (3D coordinates assigned)
COc1ccc([N-]C(=O)c2cc(-c3cccs3)ccc2OCC[NH+](CCO)CCO)cc1 (optimized conformer: 114.69238307666228 kcal/mol)

>  <smiles>  (27) 
COc1ccc(NC(=O)c2cc(-c3cccs3)ccc2OCCN(CCO)CCO)cc1

>  <score_type>  (27) 
oracle

>  <origin>  (27) 
adg

>  <m_score__min__energy>  (27) 
-7.3399999999999999

>  <m_primary>  (27) 
energy

$$$$
27:0
     RDKit          3D

 42 44  0  0  0  0  0  0  0  0999 V2000
   -6.1120   18.7320  -34.2370 C   0  0  0  0  0  0  0  0  0  0  0  0
   -6.7690   19.6300  -33.2420 C   0  0  0  0  0  0  0  0  0  0  0  0
   -6.1220   20.4220  -32.3110 C   0  0  0  0  0  0  0  0  0  0  0  0
   -7.1380   21.1400  -31.7010 C   0  0  0  0  0  0  0  0  0  0  0  0
   -6.9510   22.1830  -30.6700 C   0  0  0  0  0  0  0  0  0  0  0  0
   -7.8140   22.3080  -29.7580 O   0  0  0  0  0  0  0  0  0  0  0  0
   -5.8090   23.0590  -30.6910 N   0  0  0  0  0  0  0  0  0  0  0  0
   -5.9320   24.4420  -30.2090 C   0  0  0  0  0  0  0  0  0  0  0  0
   -4.9850   24.6660  -29.0240 C   0  0  0  0  0  0  0  0  0  0  0  0
   -3.6650   24.0650  -29.2700 N   0  0  0  0  0  0  0  0  0  0  0  0
   -2.7080   23.9840  -28.1960 C   0  0  0  0  0  0  0  0  0  0  0  0
   -1.7310   22.9720  -28.1860 C   0  0  0  0  0  0  0  0  0  0  0  0
   -0.8130   22.8870  -27.1360 C   0  0  0  0  0  0  0  0  0  0  0  0
   -0.8600   23.8080  -26.0870 C   0  0  0  0  0  0  0  0  0  0  0  0
   -1.8300   24.8130  -26.0840 C   0  0  0  0  0  0  0  0  0  0  0  0
   -2.7520   24.9020  -27.1310 C   0  0  0  0  0  0  0  0  0  0  0  0
   -3.3640   23.4860  -30.5880 C   0  0  0  0  0  0  0  0  0  0  0  0
   -4.4740   22.5090  -30.9890 C   0  0  0  0  0  0  0  0  0  0  0  0
   -8.3170   20.7900  -32.2650 N   0  0  0  0  0  0  0  0  0  0  0  0
   -9.6390   21.3280  -31.9590 C   0  0  0  0  0  0  0  0  0  0  0  0
   -8.0910   19.8840  -33.2040 N   0  0  0  0  0  0  0  0  0  0  0  0
   -5.5424   17.9535  -33.7083 H   0  0  0  0  0  0  0  0  0  0  0  0
   -6.8796   18.2601  -34.8680 H   0  0  0  0  0  0  0  0  0  0  0  0
   -5.4299   19.3207  -34.8680 H   0  0  0  0  0  0  0  0  0  0  0  0
   -5.0432   20.4709  -32.1018 H   0  0  0  0  0  0  0  0  0  0  0  0
   -5.6709   25.1363  -31.0213 H   0  0  0  0  0  0  0  0  0  0  0  0
   -6.9676   24.6227  -29.8851 H   0  0  0  0  0  0  0  0  0  0  0  0
   -4.8616   25.7473  -28.8640 H   0  0  0  0  0  0  0  0  0  0  0  0
   -5.4230   24.1872  -28.1358 H   0  0  0  0  0  0  0  0  0  0  0  0
   -1.6895   22.2436  -29.0092 H   0  0  0  0  0  0  0  0  0  0  0  0
   -0.0517   22.0930  -27.1355 H   0  0  0  0  0  0  0  0  0  0  0  0
   -0.1335   23.7419  -25.2637 H   0  0  0  0  0  0  0  0  0  0  0  0
   -1.8685   25.5361  -25.2559 H   0  0  0  0  0  0  0  0  0  0  0  0
   -3.5156   25.6937  -27.1220 H   0  0  0  0  0  0  0  0  0  0  0  0
   -3.2983   24.2911  -31.3346 H   0  0  0  0  0  0  0  0  0  0  0  0
   -2.4057   22.9482  -30.5392 H   0  0  0  0  0  0  0  0  0  0  0  0
   -4.4021   22.3092  -32.0683 H   0  0  0  0  0  0  0  0  0  0  0  0
   -4.3447   21.5822  -30.4107 H   0  0  0  0  0  0  0  0  0  0  0  0
   -9.7697   21.3812  -30.8681 H   0  0  0  0  0  0  0  0  0  0  0  0
   -9.7332   22.3360  -32.3892 H   0  0  0  0  0  0  0  0  0  0  0  0
  -10.4103   20.6722  -32.3892 H   0  0  0  0  0  0  0  0  0  0  0  0
   -8.8210   19.4600  -33.8180 H   0  0  0  0  0  0  0  0  0  0  0  0
  1  2  1  0
  2  3  1  0
  3  4  2  0
  4  5  1  0
  5  6  2  0
  5  7  1  0
  7  8  1  0
  8  9  1  0
  9 10  1  0
 10 11  1  0
 11 12  2  0
 12 13  1  0
 13 14  2  0
 14 15  1  0
 15 16  2  0
 10 17  1  0
 17 18  1  0
  4 19  1  0
 19 20  1  0
 19 21  1  0
 21  2  2  0
 18  7  1  0
 16 11  1  0
  1 22  1  0
  1 23  1  0
  1 24  1  0
  3 25  1  0
  8 26  1  0
  8 27  1  0
  9 28  1  0
  9 29  1  0
 12 30  1  0
 13 31  1  0
 14 32  1  0
 15 33  1  0
 16 34  1  0
 17 35  1  0
 17 36  1  0
 18 37  1  0
 18 38  1  0
 20 39  1  0
 20 40  1  0
 20 41  1  0
 21 42  1  0
M  CHG  1  21   1
M  END
>  <UniqueID>  (28) 
26

>  <SMILES>  (28) 
Cc1cc(C(=O)N2CCN(c3ccccc3)CC2)n(C)[nH+]1

>  <Energy>  (28) 
81.18567442511367

>  <Genealogy>  (28) 
Cc1cc(C(=O)N2CCN(c3ccccc3)CC2)n(C)[nH+]1 (protonated)
Cc1cc(C(=O)N2CCN(c3ccccc3)CC2)n(C)[nH+]1 (3D coordinates assigned)
Cc1cc(C(=O)N2CCN(c3ccccc3)CC2)n(C)[nH+]1 (nonaromatic ring conformer: 81.18567442511367 kcal/mol)

>  <smiles>  (28) 
Cc1cc(C(=O)N2CCN(c3ccccc3)CC2)n(C)n1

>  <score_type>  (28) 
oracle

>  <origin>  (28) 
adg

>  <m_score__min__energy>  (28) 
-7.0899999999999999

>  <m_primary>  (28) 
energy

$$$$
28:0
     RDKit          3D

 42 45  0  0  0  0  0  0  0  0999 V2000
   -0.4860   18.8710  -33.6720 F   0  0  0  0  0  0  0  0  0  0  0  0
   -1.3730   19.7570  -33.1530 C   0  0  0  0  0  0  0  0  0  0  0  0
   -2.0590   20.6340  -33.9980 C   0  0  0  0  0  0  0  0  0  0  0  0
   -2.9740   21.5470  -33.4650 C   0  0  0  0  0  0  0  0  0  0  0  0
   -3.2190   21.5730  -32.0840 C   0  0  0  0  0  0  0  0  0  0  0  0
   -4.1720   22.5400  -31.5180 C   0  0  0  0  0  0  0  0  0  0  0  0
   -3.7620   23.7190  -31.0000 N   0  0  0  0  0  0  0  0  0  0  0  0
   -4.8380   24.4710  -30.8050 N   0  0  0  0  0  0  0  0  0  0  0  0
   -5.8820   23.7290  -31.2090 C   0  0  0  0  0  0  0  0  0  0  0  0
   -5.5220   22.5200  -31.6430 N   0  0  0  0  0  0  0  0  0  0  0  0
   -6.4580   21.5260  -32.0290 N   0  0  0  0  0  0  0  0  0  0  0  0
   -6.1050   20.0880  -32.0690 C   0  0  0  0  0  0  0  0  0  0  0  0
   -5.5960   19.6710  -33.4750 C   0  0  0  0  0  0  0  0  0  0  0  0
   -5.8380   18.1800  -33.7940 C   0  0  0  0  0  0  0  0  0  0  0  0
   -5.7720   17.3150  -32.5300 C   0  0  0  0  0  0  0  0  0  0  0  0
   -6.8500   17.7170  -31.5020 C   0  0  0  0  0  0  0  0  0  0  0  0
   -7.2770   19.1950  -31.6100 C   0  0  0  0  0  0  0  0  0  0  0  0
   -7.8950   21.9030  -31.9930 C   0  0  0  0  0  0  0  0  0  0  0  0
   -8.1110   23.4180  -32.1920 C   0  0  0  0  0  0  0  0  0  0  0  0
   -7.2230   24.1860  -31.3220 N   0  0  0  0  0  0  0  0  0  0  0  0
   -2.5080   20.7110  -31.2370 C   0  0  0  0  0  0  0  0  0  0  0  0
   -1.5930   19.7980  -31.7740 C   0  0  0  0  0  0  0  0  0  0  0  0
   -1.8789   20.6059  -35.0828 H   0  0  0  0  0  0  0  0  0  0  0  0
   -3.5026   22.2461  -34.1297 H   0  0  0  0  0  0  0  0  0  0  0  0
   -5.2822   19.9362  -31.3549 H   0  0  0  0  0  0  0  0  0  0  0  0
   -6.1171   20.2786  -34.2295 H   0  0  0  0  0  0  0  0  0  0  0  0
   -4.5084   19.8353  -33.4900 H   0  0  0  0  0  0  0  0  0  0  0  0
   -6.8325   18.0694  -34.2508 H   0  0  0  0  0  0  0  0  0  0  0  0
   -5.0497   17.8431  -34.4833 H   0  0  0  0  0  0  0  0  0  0  0  0
   -5.9233   16.2623  -32.8110 H   0  0  0  0  0  0  0  0  0  0  0  0
   -4.7857   17.4633  -32.0660 H   0  0  0  0  0  0  0  0  0  0  0  0
   -7.7364   17.0853  -31.6609 H   0  0  0  0  0  0  0  0  0  0  0  0
   -6.4140   17.5768  -30.5019 H   0  0  0  0  0  0  0  0  0  0  0  0
   -8.0969   19.2783  -32.3385 H   0  0  0  0  0  0  0  0  0  0  0  0
   -7.6021   19.5348  -30.6156 H   0  0  0  0  0  0  0  0  0  0  0  0
   -8.4220   21.3629  -32.7933 H   0  0  0  0  0  0  0  0  0  0  0  0
   -8.2870   21.6359  -31.0005 H   0  0  0  0  0  0  0  0  0  0  0  0
   -7.9024   23.6777  -33.2404 H   0  0  0  0  0  0  0  0  0  0  0  0
   -9.1529   23.6626  -31.9378 H   0  0  0  0  0  0  0  0  0  0  0  0
   -7.4990   25.1310  -30.9720 H   0  0  0  0  0  0  0  0  0  0  0  0
   -2.6694   20.7523  -30.1497 H   0  0  0  0  0  0  0  0  0  0  0  0
   -1.0467   19.1122  -31.1097 H   0  0  0  0  0  0  0  0  0  0  0  0
  1  2  1  0
  2  3  2  0
  3  4  1  0
  4  5  2  0
  5  6  1  0
  6  7  2  0
  7  8  1  0
  8  9  2  0
  9 10  1  0
 10 11  1  0
 11 12  1  0
 12 13  1  0
 13 14  1  0
 14 15  1  0
 15 16  1  0
 16 17  1  0
 11 18  1  0
 18 19  1  0
 19 20  1  0
  5 21  1  0
 21 22  2  0
 22  2  1  0
 10  6  1  0
 17 12  1  0
 20  9  1  0
  3 23  1  0
  4 24  1  0
 12 25  1  0
 13 26  1  0
 13 27  1  0
 14 28  1  0
 14 29  1  0
 15 30  1  0
 15 31  1  0
 16 32  1  0
 16 33  1  0
 17 34  1  0
 17 35  1  0
 18 36  1  0
 18 37  1  0
 19 38  1  0
 19 39  1  0
 20 40  1  0
 21 41  1  0
 22 42  1  0
M  END
>  <UniqueID>  (29) 
27

>  <SMILES>  (29) 
Fc1ccc(-c2nnc3n2N(C2CCCCC2)CCN3)cc1

>  <Energy>  (29) 
97.84198445893897

>  <Genealogy>  (29) 
Fc1ccc(-c2nnc3n2N(C2CCCCC2)CCN3)cc1 (3D coordinates assigned)
Fc1ccc(-c2nnc3n2N(C2CCCCC2)CCN3)cc1 (nonaromatic ring conformer: 97.84198445893897 kcal/mol)

>  <smiles>  (29) 
Fc1ccc(-c2nnc3n2N(C2CCCCC2)CCN3)cc1

>  <score_type>  (29) 
oracle

>  <origin>  (29) 
adg

>  <m_score__min__energy>  (29) 
-7.75

>  <m_primary>  (29) 
energy

$$$$
29:0
     RDKit          3D

 48 50  0  0  0  0  0  0  0  0999 V2000
   -5.9880   24.3520  -29.7370 C   0  0  0  0  0  0  0  0  0  0  0  0
   -5.2650   25.5590  -30.3250 C   0  0  0  0  0  0  0  0  0  0  0  0
   -3.8670   25.3000  -30.4540 O   0  0  0  0  0  0  0  0  0  0  0  0
   -3.1220   24.3600  -29.7150 C   0  0  0  0  0  0  0  0  0  0  0  0
   -2.4710   24.7240  -28.5180 C   0  0  0  0  0  0  0  0  0  0  0  0
   -1.7350   23.7890  -27.7940 C   0  0  0  0  0  0  0  0  0  0  0  0
   -1.6260   22.4770  -28.2440 C   0  0  0  0  0  0  0  0  0  0  0  0
   -0.8990   21.5910  -27.5150 F   0  0  0  0  0  0  0  0  0  0  0  0
   -2.2590   22.0850  -29.4350 C   0  0  0  0  0  0  0  0  0  0  0  0
   -2.1430   20.7680  -29.8910 C   0  0  0  0  0  0  0  0  0  0  0  0
   -2.7720   20.3860  -31.0690 C   0  0  0  0  0  0  0  0  0  0  0  0
   -3.5160   21.2750  -31.7900 N   0  0  0  0  0  0  0  0  0  0  0  0
   -4.1350   20.8150  -33.0450 C   0  0  0  0  0  0  0  0  0  0  0  0
   -4.1030   19.2840  -33.1240 C   0  0  0  0  0  0  0  0  0  0  0  0
   -5.4760   18.7380  -33.1360 N   0  0  0  0  0  0  0  0  0  0  0  0
   -6.4420   19.6510  -33.8040 C   0  0  0  0  0  0  0  0  0  0  0  0
   -7.3130   20.4290  -32.8010 C   0  0  0  0  0  0  0  0  0  0  0  0
   -8.0700   19.5310  -31.8940 N   0  0  0  0  0  0  0  0  0  0  0  0
   -9.4560   19.3510  -32.3490 C   0  0  0  0  0  0  0  0  0  0  0  0
   -7.4200   18.2180  -31.6790 C   0  0  0  0  0  0  0  0  0  0  0  0
   -5.8950   18.3330  -31.7740 C   0  0  0  0  0  0  0  0  0  0  0  0
   -3.6360   22.5820  -31.3810 C   0  0  0  0  0  0  0  0  0  0  0  0
   -4.3060   23.3910  -32.0840 O   0  0  0  0  0  0  0  0  0  0  0  0
   -3.0140   23.0230  -30.1840 C   0  0  0  0  0  0  0  0  0  0  0  0
   -5.9563   24.4048  -28.6387 H   0  0  0  0  0  0  0  0  0  0  0  0
   -7.0351   24.3518  -30.0741 H   0  0  0  0  0  0  0  0  0  0  0  0
   -5.4941   23.4287  -30.0741 H   0  0  0  0  0  0  0  0  0  0  0  0
   -5.6835   25.7816  -31.3176 H   0  0  0  0  0  0  0  0  0  0  0  0
   -5.4037   26.4161  -29.6497 H   0  0  0  0  0  0  0  0  0  0  0  0
   -2.5454   25.7586  -28.1518 H   0  0  0  0  0  0  0  0  0  0  0  0
   -1.2368   24.0898  -26.8606 H   0  0  0  0  0  0  0  0  0  0  0  0
   -1.5548   20.0361  -29.3179 H   0  0  0  0  0  0  0  0  0  0  0  0
   -2.6690   19.3509  -31.4266 H   0  0  0  0  0  0  0  0  0  0  0  0
   -5.1793   21.1585  -33.0818 H   0  0  0  0  0  0  0  0  0  0  0  0
   -3.5721   21.2291  -33.8945 H   0  0  0  0  0  0  0  0  0  0  0  0
   -3.5843   18.9797  -34.0451 H   0  0  0  0  0  0  0  0  0  0  0  0
   -3.5722   18.8932  -32.2434 H   0  0  0  0  0  0  0  0  0  0  0  0
   -5.8799   20.3720  -34.4157 H   0  0  0  0  0  0  0  0  0  0  0  0
   -7.1133   19.0333  -34.4187 H   0  0  0  0  0  0  0  0  0  0  0  0
   -6.6617   21.0759  -32.1950 H   0  0  0  0  0  0  0  0  0  0  0  0
   -8.0428   21.0176  -33.3763 H   0  0  0  0  0  0  0  0  0  0  0  0
  -10.1201   19.2648  -31.4764 H   0  0  0  0  0  0  0  0  0  0  0  0
   -9.7582   20.2174  -32.9556 H   0  0  0  0  0  0  0  0  0  0  0  0
   -9.5269   18.4361  -32.9556 H   0  0  0  0  0  0  0  0  0  0  0  0
   -7.6901   17.8430  -30.6808 H   0  0  0  0  0  0  0  0  0  0  0  0
   -7.7666   17.5254  -32.4602 H   0  0  0  0  0  0  0  0  0  0  0  0
   -5.5455   19.0854  -31.0517 H   0  0  0  0  0  0  0  0  0  0  0  0
   -5.4552   17.3499  -31.5503 H   0  0  0  0  0  0  0  0  0  0  0  0
  1  2  1  0
  2  3  1  0
  3  4  1  0
  4  5  2  0
  5  6  1  0
  6  7  2  0
  7  8  1  0
  7  9  1  0
  9 10  1  0
 10 11  2  0
 11 12  1  0
 12 13  1  0
 13 14  1  0
 14 15  1  0
 15 16  1  0
 16 17  1  0
 17 18  1  0
 18 19  1  0
 18 20  1  0
 20 21  1  0
 12 22  1  0
 22 23  2  0
 22 24  1  0
 24  4  1  0
 24  9  2  0
 21 15  1  0
  1 25  1  0
  1 26  1  0
  1 27  1  0
  2 28  1  0
  2 29  1  0
  5 30  1  0
  6 31  1  0
 10 32  1  0
 11 33  1  0
 13 34  1  0
 13 35  1  0
 14 36  1  0
 14 37  1  0
 16 38  1  0
 16 39  1  0
 17 40  1  0
 17 41  1  0
 19 42  1  0
 19 43  1  0
 19 44  1  0
 20 45  1  0
 20 46  1  0
 21 47  1  0
 21 48  1  0
M  END
>  <UniqueID>  (30) 
28

>  <SMILES>  (30) 
CCOc1ccc(F)c2ccn(CCN3CCN(C)CC3)c(=O)c12

>  <Energy>  (30) 
67.1227487636295

>  <Genealogy>  (30) 
CCOc1ccc(F)c2ccn(CCN3CCN(C)CC3)c(=O)c12 (3D coordinates assigned)
CCOc1ccc(F)c2ccn(CCN3CCN(C)CC3)c(=O)c12 (nonaromatic ring conformer: 67.1227487636295 kcal/mol)

>  <smiles>  (30) 
CCOc1ccc(F)c2ccn(CCN3CCN(C)CC3)c(=O)c12

>  <score_type>  (30) 
oracle

>  <origin>  (30) 
adg

>  <m_score__min__energy>  (30) 
-7.9100000000000001

>  <m_primary>  (30) 
energy

$$$$
30:0
     RDKit          3D

 41 43  0  0  0  0  0  0  0  0999 V2000
   -2.8060   24.5480  -27.2700 C   0  0  0  0  0  0  0  0  0  0  0  0
   -1.4690   25.1540  -27.7060 C   0  0  0  0  0  0  0  0  0  0  0  0
   -1.0000   24.6250  -28.9960 N   0  0  0  0  0  0  0  0  0  0  0  0
   -0.9670   23.1560  -29.0140 C   0  0  0  0  0  0  0  0  0  0  0  0
   -1.3310   22.6490  -30.4090 C   0  0  0  0  0  0  0  0  0  0  0  0
   -2.7700   22.4150  -30.5010 N   0  0  0  0  0  0  0  0  0  0  0  0
   -3.4180   21.2220  -30.4980 C   0  0  0  0  0  0  0  0  0  0  0  0
   -4.7750   21.3460  -30.5080 N   0  0  0  0  0  0  0  0  0  0  0  0
   -4.9510   22.6820  -30.5070 C   0  0  0  0  0  0  0  0  0  0  0  0
   -6.1270   23.4180  -30.4990 C   0  0  0  0  0  0  0  0  0  0  0  0
   -7.7340   22.6270  -30.5130 S   0  0  0  0  0  0  0  0  0  0  0  0
   -7.6110   22.1400  -32.2640 C   0  0  0  0  0  0  0  0  0  0  0  0
   -7.6370   20.6420  -32.3710 C   0  0  0  0  0  0  0  0  0  0  0  0
   -8.7220   19.9180  -31.8480 C   0  0  0  0  0  0  0  0  0  0  0  0
   -8.7370   18.5220  -31.9170 C   0  0  0  0  0  0  0  0  0  0  0  0
   -7.6660   17.8380  -32.4970 C   0  0  0  0  0  0  0  0  0  0  0  0
   -6.5750   18.5480  -33.0060 C   0  0  0  0  0  0  0  0  0  0  0  0
   -6.5540   19.9450  -32.9400 C   0  0  0  0  0  0  0  0  0  0  0  0
   -5.4790   20.6160  -33.4270 F   0  0  0  0  0  0  0  0  0  0  0  0
   -6.0230   24.7790  -30.4760 N   0  0  0  0  0  0  0  0  0  0  0  0
   -4.8010   25.4030  -30.4600 C   0  0  0  0  0  0  0  0  0  0  0  0
   -3.6470   24.6680  -30.4690 N   0  0  0  0  0  0  0  0  0  0  0  0
   -3.7570   23.3180  -30.4970 C   0  0  0  0  0  0  0  0  0  0  0  0
   -2.8572   24.5248  -26.1714 H   0  0  0  0  0  0  0  0  0  0  0  0
   -3.6314   25.1600  -27.6627 H   0  0  0  0  0  0  0  0  0  0  0  0
   -2.8898   23.5239  -27.6627 H   0  0  0  0  0  0  0  0  0  0  0  0
   -1.5889   26.2438  -27.7952 H   0  0  0  0  0  0  0  0  0  0  0  0
   -0.7199   24.8882  -26.9456 H   0  0  0  0  0  0  0  0  0  0  0  0
   -1.6330   24.9620  -29.7590 H   0  0  0  0  0  0  0  0  0  0  0  0
    0.0436   22.8098  -28.7514 H   0  0  0  0  0  0  0  0  0  0  0  0
   -1.6924   22.7666  -28.2844 H   0  0  0  0  0  0  0  0  0  0  0  0
   -1.0364   23.3999  -31.1569 H   0  0  0  0  0  0  0  0  0  0  0  0
   -0.8008   21.7037  -30.5971 H   0  0  0  0  0  0  0  0  0  0  0  0
   -2.8993   20.2520  -30.4884 H   0  0  0  0  0  0  0  0  0  0  0  0
   -8.4596   22.5621  -32.8223 H   0  0  0  0  0  0  0  0  0  0  0  0
   -6.6688   22.5210  -32.6848 H   0  0  0  0  0  0  0  0  0  0  0  0
   -9.5632   20.4523  -31.3823 H   0  0  0  0  0  0  0  0  0  0  0  0
   -9.5933   17.9613  -31.5140 H   0  0  0  0  0  0  0  0  0  0  0  0
   -7.6813   16.7395  -32.5532 H   0  0  0  0  0  0  0  0  0  0  0  0
   -5.7313   18.0071  -33.4594 H   0  0  0  0  0  0  0  0  0  0  0  0
   -4.7488   26.5016  -30.4398 H   0  0  0  0  0  0  0  0  0  0  0  0
  1  2  1  0
  2  3  1  0
  3  4  1  0
  4  5  1  0
  5  6  1  0
  6  7  1  0
  7  8  2  0
  8  9  1  0
  9 10  2  0
 10 11  1  0
 11 12  1  0
 12 13  1  0
 13 14  2  0
 14 15  1  0
 15 16  2  0
 16 17  1  0
 17 18  2  0
 18 19  1  0
 10 20  1  0
 20 21  2  0
 21 22  1  0
 22 23  2  0
 23  6  1  0
 23  9  1  0
 18 13  1  0
  1 24  1  0
  1 25  1  0
  1 26  1  0
  2 27  1  0
  2 28  1  0
  3 29  1  0
  4 30  1  0
  4 31  1  0
  5 32  1  0
  5 33  1  0
  7 34  1  0
 12 35  1  0
 12 36  1  0
 14 37  1  0
 15 38  1  0
 16 39  1  0
 17 40  1  0
 21 41  1  0
M  END
>  <UniqueID>  (31) 
29

>  <SMILES>  (31) 
CCNCCn1cnc2c(SCc3ccccc3F)ncnc21

>  <Energy>  (31) 
74.56074269493857

>  <Genealogy>  (31) 
CCNCCn1cnc2c(SCc3ccccc3F)ncnc21 (3D coordinates assigned)
CCNCCn1cnc2c(SCc3ccccc3F)ncnc21 (optimized conformer: 74.56074269493857 kcal/mol)

>  <smiles>  (31) 
CCNCCn1cnc2c(SCc3ccccc3F)ncnc21

>  <score_type>  (31) 
oracle

>  <origin>  (31) 
adg

>  <m_score__min__energy>  (31) 
-7.8300000000000001

>  <m_primary>  (31) 
energy

$$$$
31:0
     RDKit          3D

 44 45  0  0  0  0  0  0  0  0999 V2000
    0.3290   21.6030  -35.7710 C   0  0  0  0  0  0  0  0  0  0  0  0
    0.0790   20.3350  -34.9620 C   0  0  0  0  0  0  0  0  0  0  0  0
   -0.7820   20.6280  -33.7750 C   0  0  0  0  0  0  0  0  0  0  0  0
   -0.3960   20.5360  -32.4530 C   0  0  0  0  0  0  0  0  0  0  0  0
   -1.5030   20.9710  -31.7380 C   0  0  0  0  0  0  0  0  0  0  0  0
   -1.6140   21.0730  -30.2340 C   0  0  0  0  0  0  0  0  0  0  0  0
   -0.3530   20.6320  -29.4920 C   0  0  0  0  0  0  0  0  0  0  0  0
   -2.4770   21.3060  -32.6230 N   0  0  0  0  0  0  0  0  0  0  0  0
   -3.7960   21.8150  -32.3570 C   0  0  0  0  0  0  0  0  0  0  0  0
   -4.9040   21.1290  -32.7400 N   0  0  0  0  0  0  0  0  0  0  0  0
   -6.1490   21.6080  -32.4980 C   0  0  0  0  0  0  0  0  0  0  0  0
   -6.3230   22.8350  -31.8450 C   0  0  0  0  0  0  0  0  0  0  0  0
   -7.7220   23.3320  -31.5680 C   0  0  0  0  0  0  0  0  0  0  0  0
   -8.7270   22.1850  -31.6190 C   0  0  0  0  0  0  0  0  0  0  0  0
   -5.1610   23.5270  -31.4300 C   0  0  0  0  0  0  0  0  0  0  0  0
   -5.2170   24.8560  -30.7310 C   0  0  0  0  0  0  0  0  0  0  0  0
   -3.8640   25.3140  -30.4480 N   0  0  0  0  0  0  0  0  0  0  0  0
   -3.0800   24.7900  -29.3720 C   0  0  0  0  0  0  0  0  0  0  0  0
   -3.5920   23.6340  -28.5820 C   0  0  0  0  0  0  0  0  0  0  0  0
   -1.9420   25.2690  -29.1190 O   0  0  0  0  0  0  0  0  0  0  0  0
   -3.9390   23.0020  -31.7100 N   0  0  0  0  0  0  0  0  0  0  0  0
   -2.0370   21.1050  -33.8560 N   0  0  0  0  0  0  0  0  0  0  0  0
    0.4956   22.4478  -35.0865 H   0  0  0  0  0  0  0  0  0  0  0  0
    1.2171   21.4643  -36.4051 H   0  0  0  0  0  0  0  0  0  0  0  0
   -0.5453   21.8117  -36.4051 H   0  0  0  0  0  0  0  0  0  0  0  0
   -0.4245   19.5932  -35.5993 H   0  0  0  0  0  0  0  0  0  0  0  0
    1.0448   19.9427  -34.6108 H   0  0  0  0  0  0  0  0  0  0  0  0
    0.5713   20.1947  -32.0556 H   0  0  0  0  0  0  0  0  0  0  0  0
   -1.8224   22.1208  -29.9717 H   0  0  0  0  0  0  0  0  0  0  0  0
   -2.4220   20.3935  -29.9252 H   0  0  0  0  0  0  0  0  0  0  0  0
   -0.5258   20.6924  -28.4073 H   0  0  0  0  0  0  0  0  0  0  0  0
   -0.1092   19.5953  -29.7673 H   0  0  0  0  0  0  0  0  0  0  0  0
    0.4837   21.2909  -29.7673 H   0  0  0  0  0  0  0  0  0  0  0  0
   -7.0285   21.0292  -32.8166 H   0  0  0  0  0  0  0  0  0  0  0  0
   -7.7499   23.7912  -30.5688 H   0  0  0  0  0  0  0  0  0  0  0  0
   -7.9917   24.0702  -32.3376 H   0  0  0  0  0  0  0  0  0  0  0  0
   -8.9913   21.8833  -30.5947 H   0  0  0  0  0  0  0  0  0  0  0  0
   -9.6326   22.5143  -32.1495 H   0  0  0  0  0  0  0  0  0  0  0  0
   -8.2816   21.3305  -32.1495 H   0  0  0  0  0  0  0  0  0  0  0  0
   -5.7244   25.5883  -31.3762 H   0  0  0  0  0  0  0  0  0  0  0  0
   -5.7728   24.7505  -29.7876 H   0  0  0  0  0  0  0  0  0  0  0  0
   -3.4954   23.8522  -27.5082 H   0  0  0  0  0  0  0  0  0  0  0  0
   -4.6504   23.4622  -28.8275 H   0  0  0  0  0  0  0  0  0  0  0  0
   -3.0080   22.7347  -28.8275 H   0  0  0  0  0  0  0  0  0  0  0  0
  1  2  1  0
  2  3  1  0
  3  4  1  0
  4  5  2  0
  5  6  1  0
  6  7  1  0
  5  8  1  0
  8  9  1  0
  9 10  2  0
 10 11  1  0
 11 12  2  0
 12 13  1  0
 13 14  1  0
 12 15  1  0
 15 16  1  0
 16 17  1  0
 17 18  1  0
 18 19  1  0
 18 20  2  0
 15 21  2  0
  8 22  1  0
 22  3  2  0
 21  9  1  0
  1 23  1  0
  1 24  1  0
  1 25  1  0
  2 26  1  0
  2 27  1  0
  4 28  1  0
  6 29  1  0
  6 30  1  0
  7 31  1  0
  7 32  1  0
  7 33  1  0
 11 34  1  0
 13 35  1  0
 13 36  1  0
 14 37  1  0
 14 38  1  0
 14 39  1  0
 16 40  1  0
 16 41  1  0
 19 42  1  0
 19 43  1  0
 19 44  1  0
M  CHG  1  17  -1
M  END
>  <UniqueID>  (32) 
30

>  <SMILES>  (32) 
CCc1cc(CC)n(-c2ncc(CC)c(C[N-]C(C)=O)n2)n1

>  <Energy>  (32) 
63.51823333644438

>  <Genealogy>  (32) 
CCc1cc(CC)n(-c2ncc(CC)c(C[N-]C(C)=O)n2)n1 (protonated)
CCc1cc(CC)n(-c2ncc(CC)c(C[N-]C(C)=O)n2)n1 (3D coordinates assigned)
CCc1cc(CC)n(-c2ncc(CC)c(C[N-]C(C)=O)n2)n1 (optimized conformer: 63.51823333644438 kcal/mol)

>  <smiles>  (32) 
CCc1cc(CC)n(-c2ncc(CC)c(CNC(C)=O)n2)n1

>  <score_type>  (32) 
oracle

>  <origin>  (32) 
adg

>  <m_score__min__energy>  (32) 
-9.2300000000000004

>  <m_primary>  (32) 
energy

$$$$
32:0
     RDKit          3D

 66 68  0  0  1  0  0  0  0  0999 V2000
   -3.2350   24.1670  -28.9210 C   0  0  0  0  0  0  0  0  0  0  0  0
   -3.3480   23.9580  -30.4340 C   0  0  0  0  0  0  0  0  0  0  0  0
   -4.6860   24.2990  -30.8380 N   0  0  0  0  0  0  0  0  0  0  0  0
   -5.5460   24.5840  -29.7460 C   0  0  0  0  0  0  0  0  0  0  0  0
   -6.1300   25.9690  -29.7160 C   0  0  0  0  0  0  0  0  0  0  0  0
   -5.2050   23.3820  -31.8000 C   0  0  0  0  0  0  0  0  0  0  0  0
   -6.5560   23.7520  -32.2300 C   0  0  0  0  0  0  0  0  0  0  0  0
   -7.6910   23.4170  -31.6510 C   0  0  0  0  0  0  0  0  0  0  0  0
   -7.9170   22.1690  -30.8730 C   0  0  0  0  0  0  0  0  0  0  0  0
   -8.3250   21.0750  -31.6890 N   0  0  0  0  0  0  0  0  0  0  0  0
   -9.7620   21.0030  -32.0140 C   0  0  0  0  0  0  0  0  0  0  0  0
   -7.5070   20.0580  -32.2260 C   0  0  0  0  0  0  0  0  0  0  0  0
   -7.9430   18.7670  -32.3190 C   0  0  0  0  0  0  0  0  0  0  0  0
   -7.2250   17.7140  -32.8280 C   0  0  0  0  0  0  0  0  0  0  0  0
   -5.9640   17.9710  -33.2840 C   0  0  0  0  0  0  0  0  0  0  0  0
   -5.4740   19.2650  -33.2130 C   0  0  0  0  0  0  0  0  0  0  0  0
   -6.1980   20.3050  -32.7010 C   0  0  0  0  0  0  0  0  0  0  0  0
   -4.2020   19.4500  -33.6820 C   0  0  0  0  0  0  0  0  0  0  0  0
   -3.6860   20.5860  -33.7970 N   0  0  0  0  0  0  0  0  0  0  0  0
   -3.1360   21.3830  -32.7780 C   0  0  0  0  0  0  0  0  0  0  0  0
   -2.0320   20.3690  -32.2750 C   0  0  0  0  0  0  0  0  0  0  0  0
   -1.9490   20.4240  -30.8210 C   0  0  0  0  0  0  0  0  0  0  0  0
   -0.7690   20.1250  -30.1540 C   0  0  0  0  0  0  0  0  0  0  0  0
   -0.6580   20.1740  -28.7960 C   0  0  0  0  0  0  0  0  0  0  0  0
   -1.7840   20.5410  -28.0770 C   0  0  0  0  0  0  0  0  0  0  0  0
   -2.9900   20.8490  -28.7100 C   0  0  0  0  0  0  0  0  0  0  0  0
   -3.0810   20.7940  -30.0850 C   0  0  0  0  0  0  0  0  0  0  0  0
   -3.4740   18.4110  -34.1730 N   0  0  0  0  0  0  0  0  0  0  0  0
   -4.0160   17.1940  -34.2030 C   0  0  0  0  0  0  0  0  0  0  0  0
   -5.2580   16.9360  -33.7680 N   0  0  0  0  0  0  0  0  0  0  0  0
   -5.8560   15.6080  -33.8000 C   0  0  0  0  0  0  0  0  0  0  0  0
   -3.6952   23.3158  -28.3979 H   0  0  0  0  0  0  0  0  0  0  0  0
   -2.1742   24.2405  -28.6392 H   0  0  0  0  0  0  0  0  0  0  0  0
   -3.7544   25.0948  -28.6392 H   0  0  0  0  0  0  0  0  0  0  0  0
   -2.6261   24.6050  -30.9539 H   0  0  0  0  0  0  0  0  0  0  0  0
   -3.1302   22.9105  -30.6894 H   0  0  0  0  0  0  0  0  0  0  0  0
   -6.3797   23.8670  -29.7771 H   0  0  0  0  0  0  0  0  0  0  0  0
   -4.9202   24.5045  -28.8448 H   0  0  0  0  0  0  0  0  0  0  0  0
   -6.2644   26.2877  -28.6718 H   0  0  0  0  0  0  0  0  0  0  0  0
   -5.4489   26.6653  -30.2271 H   0  0  0  0  0  0  0  0  0  0  0  0
   -7.1040   25.9674  -30.2271 H   0  0  0  0  0  0  0  0  0  0  0  0
   -4.5418   23.3731  -32.6776 H   0  0  0  0  0  0  0  0  0  0  0  0
   -5.2550   22.3875  -31.3325 H   0  0  0  0  0  0  0  0  0  0  0  0
   -6.6305   24.3762  -33.1327 H   0  0  0  0  0  0  0  0  0  0  0  0
   -8.5366   24.1135  -31.7504 H   0  0  0  0  0  0  0  0  0  0  0  0
   -6.9802   21.8976  -30.3644 H   0  0  0  0  0  0  0  0  0  0  0  0
   -8.7279   22.3679  -30.1569 H   0  0  0  0  0  0  0  0  0  0  0  0
  -10.3474   20.9737  -31.0832 H   0  0  0  0  0  0  0  0  0  0  0  0
  -10.0500   21.8878  -32.6006 H   0  0  0  0  0  0  0  0  0  0  0  0
   -9.9602   20.0938  -32.6006 H   0  0  0  0  0  0  0  0  0  0  0  0
   -8.9583   18.5525  -31.9541 H   0  0  0  0  0  0  0  0  0  0  0  0
   -7.6499   16.7001  -32.8672 H   0  0  0  0  0  0  0  0  0  0  0  0
   -5.7697   21.3173  -32.6591 H   0  0  0  0  0  0  0  0  0  0  0  0
   -2.6994   22.3144  -33.1677 H   0  0  0  0  0  0  0  0  0  0  0  0
   -3.8413   21.7452  -32.0155 H   0  0  0  0  0  0  0  0  0  0  0  0
   -2.3002   19.3494  -32.5888 H   0  0  0  0  0  0  0  0  0  0  0  0
   -1.0585   20.6416  -32.7087 H   0  0  0  0  0  0  0  0  0  0  0  0
    0.1127   19.8367  -30.7453 H   0  0  0  0  0  0  0  0  0  0  0  0
    0.2886   19.9316  -28.2909 H   0  0  0  0  0  0  0  0  0  0  0  0
   -1.7265   20.5910  -26.9796 H   0  0  0  0  0  0  0  0  0  0  0  0
   -3.8675   21.1355  -28.1118 H   0  0  0  0  0  0  0  0  0  0  0  0
   -4.0255   21.0364  -30.5940 H   0  0  0  0  0  0  0  0  0  0  0  0
   -3.4170   16.3627  -34.6030 H   0  0  0  0  0  0  0  0  0  0  0  0
   -6.0159   15.2530  -32.7712 H   0  0  0  0  0  0  0  0  0  0  0  0
   -6.8208   15.6529  -34.3265 H   0  0  0  0  0  0  0  0  0  0  0  0
   -5.1829   14.9154  -34.3265 H   0  0  0  0  0  0  0  0  0  0  0  0
  1  2  1  0
  2  3  1  0
  3  4  1  0
  4  5  1  0
  3  6  1  0
  6  7  1  0
  7  8  2  0
  8  9  1  0
  9 10  1  0
 10 11  1  0
 10 12  1  0
 12 13  2  0
 13 14  1  0
 14 15  2  0
 15 16  1  0
 16 17  2  0
 16 18  1  0
 18 19  2  0
 19 20  1  0
 20 21  1  0
 21 22  1  0
 22 23  2  0
 23 24  1  0
 24 25  2  0
 25 26  1  0
 26 27  2  0
 18 28  1  0
 28 29  2  0
 29 30  1  0
 30 31  1  0
 17 12  1  0
 27 22  1  0
 30 15  1  0
  1 32  1  0
  1 33  1  0
  1 34  1  0
  2 35  1  0
  2 36  1  0
  4 37  1  0
  4 38  1  0
  5 39  1  0
  5 40  1  0
  5 41  1  0
  6 42  1  0
  6 43  1  0
  7 44  1  0
  8 45  1  0
  9 46  1  0
  9 47  1  0
 11 48  1  0
 11 49  1  0
 11 50  1  0
 13 51  1  0
 14 52  1  0
 17 53  1  0
 20 54  1  0
 20 55  1  0
 21 56  1  0
 21 57  1  0
 23 58  1  0
 24 59  1  0
 25 60  1  0
 26 61  1  0
 27 62  1  0
 29 63  1  0
 31 64  1  0
 31 65  1  0
 31 66  1  0
M  END
>  <smiles>  (33) 
CCN(CC)CC=CCN(C)c1ccc2c(c1)c(=NCCc1ccccc1)ncn2C

>  <score_type>  (33) 
oracle

>  <origin>  (33) 
adg

>  <m_score__min__energy>  (33) 
-8.6500000000000004

>  <m_primary>  (33) 
energy

$$$$
33:0
     RDKit          3D

 54 56  0  0  0  0  0  0  0  0999 V2000
   -6.5990   25.1920  -29.7240 C   0  0  0  0  0  0  0  0  0  0  0  0
   -5.3870   25.7410  -30.4700 C   0  0  0  0  0  0  0  0  0  0  0  0
   -4.4060   24.6800  -30.8020 N   0  0  0  0  0  0  0  0  0  0  0  0
   -3.4760   24.5210  -29.6690 C   0  0  0  0  0  0  0  0  0  0  0  0
   -5.0520   23.3790  -31.1200 C   0  0  0  0  0  0  0  0  0  0  0  0
   -4.0920   22.4370  -31.8550 C   0  0  0  0  0  0  0  0  0  0  0  0
   -4.7080   21.8720  -33.0590 N   0  0  0  0  0  0  0  0  0  0  0  0
   -5.1630   20.5050  -33.0940 C   0  0  0  0  0  0  0  0  0  0  0  0
   -6.4870   20.1890  -32.7370 C   0  0  0  0  0  0  0  0  0  0  0  0
   -7.3230   21.1500  -32.1300 C   0  0  0  0  0  0  0  0  0  0  0  0
   -8.6230   20.8260  -31.7510 C   0  0  0  0  0  0  0  0  0  0  0  0
   -9.1040   19.5360  -31.9450 C   0  0  0  0  0  0  0  0  0  0  0  0
   -8.2930   18.5660  -32.5310 C   0  0  0  0  0  0  0  0  0  0  0  0
   -6.9750   18.8730  -32.9570 C   0  0  0  0  0  0  0  0  0  0  0  0
   -6.1670   17.9270  -33.5580 N   0  0  0  0  0  0  0  0  0  0  0  0
   -6.7540   16.6690  -34.0700 C   0  0  0  0  0  0  0  0  0  0  0  0
   -4.8110   18.1650  -33.6930 C   0  0  0  0  0  0  0  0  0  0  0  0
   -3.9070   17.1320  -34.0380 C   0  0  0  0  0  0  0  0  0  0  0  0
   -2.5520   17.3920  -34.2300 C   0  0  0  0  0  0  0  0  0  0  0  0
   -2.0390   18.6830  -34.0640 C   0  0  0  0  0  0  0  0  0  0  0  0
   -0.6310   18.9490  -34.2750 N   0  0  0  0  0  0  0  0  0  0  0  0
    0.2410   17.9150  -34.8410 C   0  0  0  0  0  0  0  0  0  0  0  0
   -0.0590   20.2580  -33.9360 C   0  0  0  0  0  0  0  0  0  0  0  0
   -2.9140   19.7100  -33.6770 C   0  0  0  0  0  0  0  0  0  0  0  0
   -4.2910   19.4690  -33.4820 C   0  0  0  0  0  0  0  0  0  0  0  0
   -6.4283   25.2693  -28.6401 H   0  0  0  0  0  0  0  0  0  0  0  0
   -7.4919   25.7735  -29.9970 H   0  0  0  0  0  0  0  0  0  0  0  0
   -6.7507   24.1373  -29.9970 H   0  0  0  0  0  0  0  0  0  0  0  0
   -5.7290   26.2119  -31.4034 H   0  0  0  0  0  0  0  0  0  0  0  0
   -4.8878   26.4691  -29.8138 H   0  0  0  0  0  0  0  0  0  0  0  0
   -4.0303   24.6158  -28.7236 H   0  0  0  0  0  0  0  0  0  0  0  0
   -3.0033   23.5290  -29.7191 H   0  0  0  0  0  0  0  0  0  0  0  0
   -2.7006   25.2996  -29.7191 H   0  0  0  0  0  0  0  0  0  0  0  0
   -5.3730   22.9013  -30.1826 H   0  0  0  0  0  0  0  0  0  0  0  0
   -5.9128   23.5737  -31.7766 H   0  0  0  0  0  0  0  0  0  0  0  0
   -3.1919   22.9991  -32.1446 H   0  0  0  0  0  0  0  0  0  0  0  0
   -3.8364   21.6087  -31.1778 H   0  0  0  0  0  0  0  0  0  0  0  0
   -4.9570   22.5210  -33.8370 H   0  0  0  0  0  0  0  0  0  0  0  0
   -6.9432   22.1673  -31.9541 H   0  0  0  0  0  0  0  0  0  0  0  0
   -9.2701   21.5913  -31.2977 H   0  0  0  0  0  0  0  0  0  0  0  0
  -10.1279   19.2803  -31.6350 H   0  0  0  0  0  0  0  0  0  0  0  0
   -8.6811   17.5456  -32.6655 H   0  0  0  0  0  0  0  0  0  0  0  0
   -7.0512   16.0320  -33.2239 H   0  0  0  0  0  0  0  0  0  0  0  0
   -7.6375   16.8996  -34.6834 H   0  0  0  0  0  0  0  0  0  0  0  0
   -6.0097   16.1401  -34.6834 H   0  0  0  0  0  0  0  0  0  0  0  0
   -4.2815   16.1045  -34.1567 H   0  0  0  0  0  0  0  0  0  0  0  0
   -1.8768   16.5719  -34.5157 H   0  0  0  0  0  0  0  0  0  0  0  0
    0.7171   17.3504  -34.0258 H   0  0  0  0  0  0  0  0  0  0  0  0
   -0.3566   17.2304  -35.4609 H   0  0  0  0  0  0  0  0  0  0  0  0
    1.0166   18.3885  -35.4609 H   0  0  0  0  0  0  0  0  0  0  0  0
   -0.0120   20.3655  -32.8423 H   0  0  0  0  0  0  0  0  0  0  0  0
    0.9548   20.3350  -34.3559 H   0  0  0  0  0  0  0  0  0  0  0  0
   -0.6912   21.0543  -34.3559 H   0  0  0  0  0  0  0  0  0  0  0  0
   -2.5181   20.7245  -33.5223 H   0  0  0  0  0  0  0  0  0  0  0  0
  1  2  1  0
  2  3  1  0
  3  4  1  0
  3  5  1  0
  5  6  1  0
  6  7  1  0
  7  8  1  0
  8  9  2  0
  9 10  1  0
 10 11  2  0
 11 12  1  0
 12 13  2  0
 13 14  1  0
 14 15  2  0
 15 16  1  0
 15 17  1  0
 17 18  2  0
 18 19  1  0
 19 20  2  0
 20 21  1  0
 21 22  1  0
 21 23  1  0
 20 24  1  0
 24 25  2  0
 25  8  1  0
 14  9  1  0
 25 17  1  0
  1 26  1  0
  1 27  1  0
  1 28  1  0
  2 29  1  0
  2 30  1  0
  4 31  1  0
  4 32  1  0
  4 33  1  0
  5 34  1  0
  5 35  1  0
  6 36  1  0
  6 37  1  0
  7 38  1  0
 10 39  1  0
 11 40  1  0
 12 41  1  0
 13 42  1  0
 16 43  1  0
 16 44  1  0
 16 45  1  0
 18 46  1  0
 19 47  1  0
 22 48  1  0
 22 49  1  0
 22 50  1  0
 23 51  1  0
 23 52  1  0
 23 53  1  0
 24 54  1  0
M  CHG  1  15   1
M  END
>  <UniqueID>  (34) 
31

>  <SMILES>  (34) 
CCN(C)CCNc1c2ccccc2[n+](C)c2ccc(N(C)C)cc12

>  <Energy>  (34) 
80.05536826038073

>  <Genealogy>  (34) 
CCN(C)CCNc1c2ccccc2[n+](C)c2ccc(N(C)C)cc12 (3D coordinates assigned)
CCN(C)CCNc1c2ccccc2[n+](C)c2ccc(N(C)C)cc12 (optimized conformer: 80.05536826038073 kcal/mol)

>  <smiles>  (34) 
CCN(C)CCNc1c2ccccc2[n+](C)c2ccc(N(C)C)cc12

>  <score_type>  (34) 
oracle

>  <origin>  (34) 
adg

>  <m_score__min__energy>  (34) 
-8.2699999999999996

>  <m_primary>  (34) 
energy

$$$$
34:0
     RDKit          3D

 57 59  0  0  0  0  0  0  0  0999 V2000
   -2.7360   16.0320  -34.7150 C   0  0  0  0  0  0  0  0  0  0  0  0
   -3.2780   15.6970  -33.3180 C   0  0  0  0  0  0  0  0  0  0  0  0
   -4.4060   14.7330  -33.3050 N   0  0  0  0  0  0  0  0  0  0  0  0
   -4.5730   14.0840  -31.9950 C   0  0  0  0  0  0  0  0  0  0  0  0
   -5.6870   15.2920  -33.7860 C   0  0  0  0  0  0  0  0  0  0  0  0
   -5.8340   16.7380  -33.3910 C   0  0  0  0  0  0  0  0  0  0  0  0
   -5.7380   17.7560  -34.3540 C   0  0  0  0  0  0  0  0  0  0  0  0
   -5.8980   19.0940  -33.9840 C   0  0  0  0  0  0  0  0  0  0  0  0
   -6.1510   19.4350  -32.6450 C   0  0  0  0  0  0  0  0  0  0  0  0
   -6.3360   20.8520  -32.2590 C   0  0  0  0  0  0  0  0  0  0  0  0
   -7.6070   21.4540  -32.3460 C   0  0  0  0  0  0  0  0  0  0  0  0
   -7.7810   22.7960  -31.9440 C   0  0  0  0  0  0  0  0  0  0  0  0
   -9.1440   23.4220  -31.9910 C   0  0  0  0  0  0  0  0  0  0  0  0
   -6.6890   23.5210  -31.4330 C   0  0  0  0  0  0  0  0  0  0  0  0
   -5.4510   22.8860  -31.3790 C   0  0  0  0  0  0  0  0  0  0  0  0
   -4.3030   23.4500  -30.9520 N   0  0  0  0  0  0  0  0  0  0  0  0
   -3.3950   22.4590  -31.1170 C   0  0  0  0  0  0  0  0  0  0  0  0
   -1.9390   22.5870  -30.7570 C   0  0  0  0  0  0  0  0  0  0  0  0
   -1.6860   22.6320  -29.2960 N   0  0  0  0  0  0  0  0  0  0  0  0
   -1.2730   21.3160  -28.7780 C   0  0  0  0  0  0  0  0  0  0  0  0
   -0.7250   23.6790  -28.8800 C   0  0  0  0  0  0  0  0  0  0  0  0
   -1.4370   24.9790  -28.4840 C   0  0  0  0  0  0  0  0  0  0  0  0
   -2.5170   25.2200  -29.3440 O   0  0  0  0  0  0  0  0  0  0  0  0
   -4.0000   21.3290  -31.6370 C   0  0  0  0  0  0  0  0  0  0  0  0
   -5.3060   21.6110  -31.7840 N   0  0  0  0  0  0  0  0  0  0  0  0
   -6.2630   18.4150  -31.6870 C   0  0  0  0  0  0  0  0  0  0  0  0
   -6.1030   17.0770  -32.0560 C   0  0  0  0  0  0  0  0  0  0  0  0
   -1.8039   16.6081  -34.6182 H   0  0  0  0  0  0  0  0  0  0  0  0
   -2.5357   15.1000  -35.2638 H   0  0  0  0  0  0  0  0  0  0  0  0
   -3.4801   16.6279  -35.2638 H   0  0  0  0  0  0  0  0  0  0  0  0
   -2.4558   15.2702  -32.7248 H   0  0  0  0  0  0  0  0  0  0  0  0
   -3.6686   16.6377  -32.9027 H   0  0  0  0  0  0  0  0  0  0  0  0
   -4.3845   14.8164  -31.1963 H   0  0  0  0  0  0  0  0  0  0  0  0
   -5.5995   13.6990  -31.9047 H   0  0  0  0  0  0  0  0  0  0  0  0
   -3.8598   13.2514  -31.9047 H   0  0  0  0  0  0  0  0  0  0  0  0
   -5.7229   15.2144  -34.8827 H   0  0  0  0  0  0  0  0  0  0  0  0
   -6.5090   14.7213  -33.3292 H   0  0  0  0  0  0  0  0  0  0  0  0
   -5.5359   17.4988  -35.4043 H   0  0  0  0  0  0  0  0  0  0  0  0
   -5.8254   19.8845  -34.7455 H   0  0  0  0  0  0  0  0  0  0  0  0
   -8.4634   20.8784  -32.7271 H   0  0  0  0  0  0  0  0  0  0  0  0
   -9.5066   23.5885  -30.9659 H   0  0  0  0  0  0  0  0  0  0  0  0
   -9.0874   24.3844  -32.5208 H   0  0  0  0  0  0  0  0  0  0  0  0
   -9.8371   22.7520  -32.5208 H   0  0  0  0  0  0  0  0  0  0  0  0
   -6.8095   24.5581  -31.0866 H   0  0  0  0  0  0  0  0  0  0  0  0
   -1.4008   21.7239  -31.1759 H   0  0  0  0  0  0  0  0  0  0  0  0
   -1.5887   23.5433  -31.1728 H   0  0  0  0  0  0  0  0  0  0  0  0
   -1.2794   21.3364  -27.6782 H   0  0  0  0  0  0  0  0  0  0  0  0
   -1.9726   20.5456  -29.1345 H   0  0  0  0  0  0  0  0  0  0  0  0
   -0.2587   21.0835  -29.1345 H   0  0  0  0  0  0  0  0  0  0  0  0
   -0.1487   23.3116  -28.0181 H   0  0  0  0  0  0  0  0  0  0  0  0
   -0.0647   23.8961  -29.7326 H   0  0  0  0  0  0  0  0  0  0  0  0
   -1.8069   24.8909  -27.4518 H   0  0  0  0  0  0  0  0  0  0  0  0
   -0.7257   25.8149  -28.5577 H   0  0  0  0  0  0  0  0  0  0  0  0
   -2.9730   24.3480  -29.4820 H   0  0  0  0  0  0  0  0  0  0  0  0
   -3.5052   20.3781  -31.8839 H   0  0  0  0  0  0  0  0  0  0  0  0
   -6.4781   18.6708  -30.6390 H   0  0  0  0  0  0  0  0  0  0  0  0
   -6.1883   16.2857  -31.2967 H   0  0  0  0  0  0  0  0  0  0  0  0
  1  2  1  0
  2  3  1  0
  3  4  1  0
  3  5  1  0
  5  6  1  0
  6  7  2  0
  7  8  1  0
  8  9  2  0
  9 10  1  0
 10 11  2  0
 11 12  1  0
 12 13  1  0
 12 14  2  0
 14 15  1  0
 15 16  2  0
 16 17  1  0
 17 18  1  0
 18 19  1  0
 19 20  1  0
 19 21  1  0
 21 22  1  0
 22 23  1  0
 17 24  2  0
 24 25  1  0
  9 26  1  0
 26 27  2  0
 27  6  1  0
 25 10  1  0
 25 15  1  0
  1 28  1  0
  1 29  1  0
  1 30  1  0
  2 31  1  0
  2 32  1  0
  4 33  1  0
  4 34  1  0
  4 35  1  0
  5 36  1  0
  5 37  1  0
  7 38  1  0
  8 39  1  0
 11 40  1  0
 13 41  1  0
 13 42  1  0
 13 43  1  0
 14 44  1  0
 18 45  1  0
 18 46  1  0
 20 47  1  0
 20 48  1  0
 20 49  1  0
 21 50  1  0
 21 51  1  0
 22 52  1  0
 22 53  1  0
 23 54  1  0
 24 55  1  0
 26 56  1  0
 27 57  1  0
M  END
>  <UniqueID>  (35) 
32

>  <SMILES>  (35) 
CCN(C)Cc1ccc(-c2cc(C)cc3nc(CN(C)CCO)cn23)cc1

>  <Energy>  (35) 
99.99204636954198

>  <Genealogy>  (35) 
CCN(C)Cc1ccc(-c2cc(C)cc3nc(CN(C)CCO)cn23)cc1 (3D coordinates assigned)
CCN(C)Cc1ccc(-c2cc(C)cc3nc(CN(C)CCO)cn23)cc1 (optimized conformer: 99.99204636954198 kcal/mol)

>  <smiles>  (35) 
CCN(C)Cc1ccc(-c2cc(C)cc3nc(CN(C)CCO)cn23)cc1

>  <score_type>  (35) 
oracle

>  <origin>  (35) 
adg

>  <m_score__min__energy>  (35) 
-8.8100000000000005

>  <m_primary>  (35) 
energy

$$$$
35:0
     RDKit          3D

 32 32  0  0  0  0  0  0  0  0999 V2000
   -4.8960   24.1600  -31.2320 H   0  0  0  0  0  0  0  0  0  0  0  0
   -5.3340   23.8540  -32.0910 O   0  0  0  0  0  0  0  0  0  0  0  0
   -5.8120   22.5550  -32.3000 C   0  0  0  0  0  0  0  0  0  0  0  0
   -7.1840   22.2910  -32.0820 C   0  0  0  0  0  0  0  0  0  0  0  0
   -8.1050   23.4060  -31.6410 C   0  0  0  0  0  0  0  0  0  0  0  0
   -8.1357   23.4432  -30.5421 H   0  0  0  0  0  0  0  0  0  0  0  0
   -7.7322   24.3650  -32.0300 H   0  0  0  0  0  0  0  0  0  0  0  0
   -9.1171   23.2210  -32.0300 H   0  0  0  0  0  0  0  0  0  0  0  0
   -7.6730   20.9680  -32.2140 C   0  0  0  0  0  0  0  0  0  0  0  0
   -9.1180   20.6300  -31.9560 C   0  0  0  0  0  0  0  0  0  0  0  0
   -9.2968   20.5882  -30.8714 H   0  0  0  0  0  0  0  0  0  0  0  0
   -9.7608   21.4020  -32.4041 H   0  0  0  0  0  0  0  0  0  0  0  0
   -9.3517   19.6530  -32.4041 H   0  0  0  0  0  0  0  0  0  0  0  0
   -6.8000   19.9480  -32.6170 C   0  0  0  0  0  0  0  0  0  0  0  0
   -7.1814   18.9238  -32.7417 H   0  0  0  0  0  0  0  0  0  0  0  0
   -5.4570   20.2160  -32.8610 C   0  0  0  0  0  0  0  0  0  0  0  0
   -4.7877   19.4006  -33.1729 H   0  0  0  0  0  0  0  0  0  0  0  0
   -4.9470   21.5130  -32.7140 C   0  0  0  0  0  0  0  0  0  0  0  0
   -3.4750   21.7450  -32.9640 C   0  0  0  0  0  0  0  0  0  0  0  0
   -3.0367   20.8383  -33.4065 H   0  0  0  0  0  0  0  0  0  0  0  0
   -3.3632   22.5974  -33.6502 H   0  0  0  0  0  0  0  0  0  0  0  0
   -2.7630   22.0610  -31.6840 C   0  0  0  0  0  0  0  0  0  0  0  0
   -2.0627   21.3312  -31.2517 H   0  0  0  0  0  0  0  0  0  0  0  0
   -2.9680   23.1830  -31.0890 N   0  0  0  0  0  0  0  0  0  0  0  0
   -3.2670   23.2580  -29.6790 C   0  0  0  0  0  0  0  0  0  0  0  0
   -3.9148   22.4148  -29.3973 H   0  0  0  0  0  0  0  0  0  0  0  0
   -2.3297   23.2118  -29.1051 H   0  0  0  0  0  0  0  0  0  0  0  0
   -3.9810   24.5690  -29.3740 C   0  0  0  0  0  0  0  0  0  0  0  0
   -5.0448   24.3696  -29.1778 H   0  0  0  0  0  0  0  0  0  0  0  0
   -3.5250   25.0363  -28.4888 H   0  0  0  0  0  0  0  0  0  0  0  0
   -3.8630   25.4330  -30.4690 O   0  0  0  0  0  0  0  0  0  0  0  0
   -3.5340   24.8780  -31.2230 H   0  0  0  0  0  0  0  0  0  0  0  0
  1  2  1  0
  2  3  1  0
  3  4  2  0
  4  5  1  0
  5  6  1  0
  5  7  1  0
  5  8  1  0
  4  9  1  0
  9 10  1  0
 10 11  1  0
 10 12  1  0
 10 13  1  0
  9 14  2  0
 14 15  1  0
 14 16  1  0
 16 17  1  0
 16 18  2  0
 18 19  1  0
 19 20  1  0
 19 21  1  0
 19 22  1  0
 22 23  1  0
 22 24  2  0
 24 25  1  0
 25 26  1  0
 25 27  1  0
 25 28  1  0
 28 29  1  0
 28 30  1  0
 28 31  1  0
 31 32  1  0
 18  3  1  0
M  END
>  <UniqueID>  (36) 
33

>  <SMILES>  (36) 
Cc1ccc(C/C=N/CCO)c(O)c1C

>  <Energy>  (36) 
25.17200091842034

>  <Genealogy>  (36) 
Cc1ccc(C/C=N/CCO)c(O)c1C (cis-trans isomerization)
Cc1ccc(C/C=N/CCO)c(O)c1C (3D coordinates assigned)
Cc1ccc(C/C=N/CCO)c(O)c1C (optimized conformer: 25.17200091842034 kcal/mol)

>  <smiles>  (36) 
Cc1ccc(CC=NCCO)c(O)c1C

>  <score_type>  (36) 
oracle

>  <origin>  (36) 
adg

>  <m_score__min__energy>  (36) 
-6.6200000000000001

>  <m_primary>  (36) 
energy

$$$$
36:0
     RDKit          3D

 53 55  0  0  0  0  0  0  0  0999 V2000
   -6.7840   25.0140  -30.0800 C   0  0  0  0  0  0  0  0  0  0  0  0
   -5.4580   25.6680  -30.4670 C   0  0  0  0  0  0  0  0  0  0  0  0
   -4.4420   24.6450  -30.8030 N   0  0  0  0  0  0  0  0  0  0  0  0
   -3.4260   24.5520  -29.7300 C   0  0  0  0  0  0  0  0  0  0  0  0
   -4.0320   23.9890  -28.4430 C   0  0  0  0  0  0  0  0  0  0  0  0
   -5.0610   23.3270  -31.0960 C   0  0  0  0  0  0  0  0  0  0  0  0
   -4.0430   22.4360  -31.8070 C   0  0  0  0  0  0  0  0  0  0  0  0
   -4.6000   21.9150  -33.0550 N   0  0  0  0  0  0  0  0  0  0  0  0
   -5.1490   20.5870  -33.1290 C   0  0  0  0  0  0  0  0  0  0  0  0
   -6.4930   20.3580  -32.7790 C   0  0  0  0  0  0  0  0  0  0  0  0
   -7.3290   21.4200  -32.3700 C   0  0  0  0  0  0  0  0  0  0  0  0
   -8.6350   21.1810  -31.9550 C   0  0  0  0  0  0  0  0  0  0  0  0
   -9.1300   19.8820  -31.9260 C   0  0  0  0  0  0  0  0  0  0  0  0
   -8.3310   18.8180  -32.3410 C   0  0  0  0  0  0  0  0  0  0  0  0
   -7.0100   19.0330  -32.8130 C   0  0  0  0  0  0  0  0  0  0  0  0
   -6.2250   17.9920  -33.2750 N   0  0  0  0  0  0  0  0  0  0  0  0
   -6.8410   16.6790  -33.5730 C   0  0  0  0  0  0  0  0  0  0  0  0
   -4.8740   18.1880  -33.4970 C   0  0  0  0  0  0  0  0  0  0  0  0
   -3.9930   17.1030  -33.7350 C   0  0  0  0  0  0  0  0  0  0  0  0
   -2.6500   17.3160  -34.0420 C   0  0  0  0  0  0  0  0  0  0  0  0
   -2.1390   18.6180  -34.1170 C   0  0  0  0  0  0  0  0  0  0  0  0
   -0.8020   18.8840  -34.4540 O   0  0  0  0  0  0  0  0  0  0  0  0
   -0.2410   20.1890  -34.5480 C   0  0  0  0  0  0  0  0  0  0  0  0
   -2.9800   19.6960  -33.8400 C   0  0  0  0  0  0  0  0  0  0  0  0
   -4.3300   19.4990  -33.4830 C   0  0  0  0  0  0  0  0  0  0  0  0
   -6.8666   24.9733  -28.9839 H   0  0  0  0  0  0  0  0  0  0  0  0
   -7.6172   25.6045  -30.4888 H   0  0  0  0  0  0  0  0  0  0  0  0
   -6.8226   23.9935  -30.4888 H   0  0  0  0  0  0  0  0  0  0  0  0
   -5.6181   26.3170  -31.3406 H   0  0  0  0  0  0  0  0  0  0  0  0
   -5.0941   26.2568  -29.6121 H   0  0  0  0  0  0  0  0  0  0  0  0
   -2.6121   23.8911  -30.0626 H   0  0  0  0  0  0  0  0  0  0  0  0
   -3.0442   25.5626  -29.5227 H   0  0  0  0  0  0  0  0  0  0  0  0
   -3.5381   24.4479  -27.5738 H   0  0  0  0  0  0  0  0  0  0  0  0
   -5.1081   24.2152  -28.4149 H   0  0  0  0  0  0  0  0  0  0  0  0
   -3.8855   22.8992  -28.4149 H   0  0  0  0  0  0  0  0  0  0  0  0
   -5.3722   22.8502  -30.1549 H   0  0  0  0  0  0  0  0  0  0  0  0
   -5.9401   23.4689  -31.7418 H   0  0  0  0  0  0  0  0  0  0  0  0
   -3.1412   23.0247  -32.0312 H   0  0  0  0  0  0  0  0  0  0  0  0
   -3.7909   21.5904  -31.1501 H   0  0  0  0  0  0  0  0  0  0  0  0
   -4.8470   22.6010  -33.8050 H   0  0  0  0  0  0  0  0  0  0  0  0
   -6.9424   22.4498  -32.3797 H   0  0  0  0  0  0  0  0  0  0  0  0
   -9.2768   22.0205  -31.6495 H   0  0  0  0  0  0  0  0  0  0  0  0
  -10.1551   19.6935  -31.5745 H   0  0  0  0  0  0  0  0  0  0  0  0
   -8.7312   17.7941  -32.3020 H   0  0  0  0  0  0  0  0  0  0  0  0
   -7.0822   16.1649  -32.6309 H   0  0  0  0  0  0  0  0  0  0  0  0
   -7.7623   16.8298  -34.1547 H   0  0  0  0  0  0  0  0  0  0  0  0
   -6.1361   16.0669  -34.1547 H   0  0  0  0  0  0  0  0  0  0  0  0
   -4.3764   16.0737  -33.6763 H   0  0  0  0  0  0  0  0  0  0  0  0
   -1.9880   16.4570  -34.2263 H   0  0  0  0  0  0  0  0  0  0  0  0
   -0.0695   20.5880  -33.5374 H   0  0  0  0  0  0  0  0  0  0  0  0
    0.7151   20.1390  -35.0896 H   0  0  0  0  0  0  0  0  0  0  0  0
   -0.9352   20.8484  -35.0896 H   0  0  0  0  0  0  0  0  0  0  0  0
   -2.5823   20.7198  -33.9012 H   0  0  0  0  0  0  0  0  0  0  0  0
  1  2  1  0
  2  3  1  0
  3  4  1  0
  4  5  1  0
  3  6  1  0
  6  7  1  0
  7  8  1  0
  8  9  1  0
  9 10  2  0
 10 11  1  0
 11 12  2  0
 12 13  1  0
 13 14  2  0
 14 15  1  0
 15 16  2  0
 16 17  1  0
 16 18  1  0
 18 19  2  0
 19 20  1  0
 20 21  2  0
 21 22  1  0
 22 23  1  0
 21 24  1  0
 24 25  2  0
 25  9  1  0
 15 10  1  0
 25 18  1  0
  1 26  1  0
  1 27  1  0
  1 28  1  0
  2 29  1  0
  2 30  1  0
  4 31  1  0
  4 32  1  0
  5 33  1  0
  5 34  1  0
  5 35  1  0
  6 36  1  0
  6 37  1  0
  7 38  1  0
  7 39  1  0
  8 40  1  0
 11 41  1  0
 12 42  1  0
 13 43  1  0
 14 44  1  0
 17 45  1  0
 17 46  1  0
 17 47  1  0
 19 48  1  0
 20 49  1  0
 23 50  1  0
 23 51  1  0
 23 52  1  0
 24 53  1  0
M  CHG  1  16   1
M  END
>  <UniqueID>  (37) 
34

>  <SMILES>  (37) 
CCN(CC)CCNc1c2ccccc2[n+](C)c2ccc(OC)cc12

>  <Energy>  (37) 
77.3816726953476

>  <Genealogy>  (37) 
CCN(CC)CCNc1c2ccccc2[n+](C)c2ccc(OC)cc12 (3D coordinates assigned)
CCN(CC)CCNc1c2ccccc2[n+](C)c2ccc(OC)cc12 (optimized conformer: 77.3816726953476 kcal/mol)

>  <smiles>  (37) 
CCN(CC)CCNc1c2ccccc2[n+](C)c2ccc(OC)cc12

>  <score_type>  (37) 
oracle

>  <origin>  (37) 
adg

>  <m_score__min__energy>  (37) 
-8.2300000000000004

>  <m_primary>  (37) 
energy

$$$$
