0:0
     RDKit          3D

104107  0  0  0  0  0  0  0  0999 V2000
   -1.8920   16.8830  -33.1510 C   0  0  0  0  0  0  0  0  0  0  0  0
   -0.8110   17.7520  -32.4830 C   0  0  0  0  0  0  0  0  0  0  0  0
   -1.2170   19.1550  -32.2010 N   0  0  0  0  0  0  0  0  0  0  0  0
   -0.2350   19.8730  -31.3510 C   0  0  0  0  0  0  0  0  0  0  0  0
   -0.5490   19.7110  -29.8630 C   0  0  0  0  0  0  0  0  0  0  0  0
   -1.5340   19.9550  -33.4110 C   0  0  0  0  0  0  0  0  0  0  0  0
   -2.8250   20.7820  -33.2910 C   0  0  0  0  0  0  0  0  0  0  0  0
   -3.4220   20.6610  -31.9590 N   0  0  0  0  0  0  0  0  0  0  0  0
   -4.2160   21.7240  -31.3920 C   0  0  0  0  0  0  0  0  0  0  0  0
   -5.6110   21.7390  -31.5770 C   0  0  0  0  0  0  0  0  0  0  0  0
   -6.2450   20.7640  -32.3760 C   0  0  0  0  0  0  0  0  0  0  0  0
   -7.6450   20.7040  -32.4710 C   0  0  0  0  0  0  0  0  0  0  0  0
   -8.2830   19.6880  -33.2810 N   0  0  0  0  0  0  0  0  0  0  0  0
   -8.6870   18.5180  -32.4830 C   0  0  0  0  0  0  0  0  0  0  0  0
   -7.5440   17.5140  -32.2720 C   0  0  0  0  0  0  0  0  0  0  0  0
   -6.7220   17.4520  -33.5020 N   0  0  0  0  0  0  0  0  0  0  0  0
   -5.3300   17.9060  -33.2810 C   0  0  0  0  0  0  0  0  0  0  0  0
   -4.6390   18.2920  -34.5910 C   0  0  0  0  0  0  0  0  0  0  0  0
   -6.8640   16.1640  -34.2230 C   0  0  0  0  0  0  0  0  0  0  0  0
   -5.7770   15.1330  -33.8860 C   0  0  0  0  0  0  0  0  0  0  0  0
   -8.4160   21.6300  -31.7620 C   0  0  0  0  0  0  0  0  0  0  0  0
   -7.8050   22.6230  -31.0010 C   0  0  0  0  0  0  0  0  0  0  0  0
   -6.3940   22.7260  -30.9190 C   0  0  0  0  0  0  0  0  0  0  0  0
   -5.7820   23.7330  -30.1980 N   0  0  0  0  0  0  0  0  0  0  0  0
   -6.5670   24.9110  -29.7610 C   0  0  0  0  0  0  0  0  0  0  0  0
   -4.4310   23.6600  -29.9150 C   0  0  0  0  0  0  0  0  0  0  0  0
   -3.8230   24.5150  -28.9640 C   0  0  0  0  0  0  0  0  0  0  0  0
   -2.4500   24.4730  -28.7140 C   0  0  0  0  0  0  0  0  0  0  0  0
   -1.9370   25.3080  -27.7080 O   0  0  0  0  0  0  0  0  0  0  0  0
   -2.4130   25.3710  -26.3650 C   0  0  0  0  0  0  0  0  0  0  0  0
   -1.2490   25.1500  -25.3700 C   0  0  0  0  0  0  0  0  0  0  0  0
   -0.4540   26.3780  -25.0270 N   0  0  0  0  0  0  0  0  0  0  0  0
   -1.2310   27.5870  -25.4220 C   0  0  0  0  0  0  0  0  0  0  0  0
    0.8660   26.3430  -25.7180 C   0  0  0  0  0  0  0  0  0  0  0  0
    1.8460   27.4270  -25.2240 C   0  0  0  0  0  0  0  0  0  0  0  0
    2.0610   27.3950  -23.7550 N   0  0  0  0  0  0  0  0  0  0  0  0
    2.8430   28.5970  -23.3720 C   0  0  0  0  0  0  0  0  0  0  0  0
    2.8520   26.2010  -23.3560 C   0  0  0  0  0  0  0  0  0  0  0  0
    0.7570   27.4340  -23.0410 C   0  0  0  0  0  0  0  0  0  0  0  0
   -0.2520   26.3720  -23.5460 C   0  0  0  0  0  0  0  0  0  0  0  0
   -1.6460   23.5990  -29.4560 C   0  0  0  0  0  0  0  0  0  0  0  0
   -2.2240   22.7230  -30.3700 C   0  0  0  0  0  0  0  0  0  0  0  0
   -3.6200   22.6920  -30.5620 C   0  0  0  0  0  0  0  0  0  0  0  0
   -2.5002   16.3941  -32.3757 H   0  0  0  0  0  0  0  0  0  0  0  0
   -2.5368   17.5170  -33.7773 H   0  0  0  0  0  0  0  0  0  0  0  0
   -1.4114   16.1170  -33.7773 H   0  0  0  0  0  0  0  0  0  0  0  0
   -0.5341   17.2788  -31.5294 H   0  0  0  0  0  0  0  0  0  0  0  0
    0.0215   17.8113  -33.1995 H   0  0  0  0  0  0  0  0  0  0  0  0
    0.7694   19.4706  -31.5492 H   0  0  0  0  0  0  0  0  0  0  0  0
   -0.2866   20.9438  -31.5975 H   0  0  0  0  0  0  0  0  0  0  0  0
    0.2724   20.1348  -29.2667 H   0  0  0  0  0  0  0  0  0  0  0  0
   -1.4844   20.2390  -29.6260 H   0  0  0  0  0  0  0  0  0  0  0  0
   -0.6608   18.6427  -29.6260 H   0  0  0  0  0  0  0  0  0  0  0  0
   -0.6976   20.6441  -33.5994 H   0  0  0  0  0  0  0  0  0  0  0  0
   -1.6873   19.2416  -34.2341 H   0  0  0  0  0  0  0  0  0  0  0  0
   -2.5903   21.8396  -33.4821 H   0  0  0  0  0  0  0  0  0  0  0  0
   -3.5474   20.4001  -34.0274 H   0  0  0  0  0  0  0  0  0  0  0  0
   -3.1080   19.8730  -31.3440 H   0  0  0  0  0  0  0  0  0  0  0  0
   -5.6331   20.0394  -32.9333 H   0  0  0  0  0  0  0  0  0  0  0  0
   -7.6020   19.3760  -34.0120 H   0  0  0  0  0  0  0  0  0  0  0  0
   -9.1180   20.0740  -33.7830 H   0  0  0  0  0  0  0  0  0  0  0  0
   -9.0335   18.8671  -31.4991 H   0  0  0  0  0  0  0  0  0  0  0  0
   -9.4831   17.9996  -33.0375 H   0  0  0  0  0  0  0  0  0  0  0  0
   -6.9191   17.8391  -31.4271 H   0  0  0  0  0  0  0  0  0  0  0  0
   -7.9595   16.5194  -32.0528 H   0  0  0  0  0  0  0  0  0  0  0  0
   -5.3433   18.7813  -32.6149 H   0  0  0  0  0  0  0  0  0  0  0  0
   -4.7679   17.0737  -32.8323 H   0  0  0  0  0  0  0  0  0  0  0  0
   -3.6985   18.8174  -34.3685 H   0  0  0  0  0  0  0  0  0  0  0  0
   -4.4229   17.3839  -35.1730 H   0  0  0  0  0  0  0  0  0  0  0  0
   -5.2989   18.9521  -35.1730 H   0  0  0  0  0  0  0  0  0  0  0  0
   -7.8421   15.7308  -33.9668 H   0  0  0  0  0  0  0  0  0  0  0  0
   -6.7662   16.3886  -35.2954 H   0  0  0  0  0  0  0  0  0  0  0  0
   -5.6826   15.0434  -32.7937 H   0  0  0  0  0  0  0  0  0  0  0  0
   -6.0530   14.1569  -34.3114 H   0  0  0  0  0  0  0  0  0  0  0  0
   -4.8168   15.4602  -34.3114 H   0  0  0  0  0  0  0  0  0  0  0  0
   -9.5137   21.5736  -31.8057 H   0  0  0  0  0  0  0  0  0  0  0  0
   -8.4304   23.3424  -30.4521 H   0  0  0  0  0  0  0  0  0  0  0  0
   -6.5916   24.9480  -28.6619 H   0  0  0  0  0  0  0  0  0  0  0  0
   -6.0987   25.8279  -30.1483 H   0  0  0  0  0  0  0  0  0  0  0  0
   -7.5935   24.8318  -30.1483 H   0  0  0  0  0  0  0  0  0  0  0  0
   -4.4478   25.2299  -28.4085 H   0  0  0  0  0  0  0  0  0  0  0  0
   -2.8610   26.3594  -26.1851 H   0  0  0  0  0  0  0  0  0  0  0  0
   -3.1652   24.5825  -26.2154 H   0  0  0  0  0  0  0  0  0  0  0  0
   -1.6712   24.7473  -24.4375 H   0  0  0  0  0  0  0  0  0  0  0  0
   -0.5486   24.4645  -25.8695 H   0  0  0  0  0  0  0  0  0  0  0  0
   -1.5707   28.1156  -24.5192 H   0  0  0  0  0  0  0  0  0  0  0  0
   -0.5923   28.2544  -26.0192 H   0  0  0  0  0  0  0  0  0  0  0  0
   -2.1034   27.2832  -26.0192 H   0  0  0  0  0  0  0  0  0  0  0  0
    1.3225   25.3568  -25.5477 H   0  0  0  0  0  0  0  0  0  0  0  0
    0.6790   26.5366  -26.7846 H   0  0  0  0  0  0  0  0  0  0  0  0
    2.8148   27.2760  -25.7226 H   0  0  0  0  0  0  0  0  0  0  0  0
    1.4035   28.4039  -25.4686 H   0  0  0  0  0  0  0  0  0  0  0  0
    2.8902   28.6696  -22.2754 H   0  0  0  0  0  0  0  0  0  0  0  0
    3.8620   28.5163  -23.7784 H   0  0  0  0  0  0  0  0  0  0  0  0
    2.3563   29.4959  -23.7784 H   0  0  0  0  0  0  0  0  0  0  0  0
    2.8934   26.1386  -22.2586 H   0  0  0  0  0  0  0  0  0  0  0  0
    2.3752   25.2945  -23.7571 H   0  0  0  0  0  0  0  0  0  0  0  0
    3.8727   26.2866  -23.7571 H   0  0  0  0  0  0  0  0  0  0  0  0
    0.9401   27.2599  -21.9704 H   0  0  0  0  0  0  0  0  0  0  0  0
    0.3117   28.4218  -23.2309 H   0  0  0  0  0  0  0  0  0  0  0  0
    0.1162   25.3781  -23.2516 H   0  0  0  0  0  0  0  0  0  0  0  0
   -1.2237   26.6166  -23.0923 H   0  0  0  0  0  0  0  0  0  0  0  0
   -0.5549   23.6048  -29.3161 H   0  0  0  0  0  0  0  0  0  0  0  0
   -1.5819   22.0448  -30.9512 H   0  0  0  0  0  0  0  0  0  0  0  0
  1  2  1  0
  2  3  1  0
  3  4  1  0
  4  5  1  0
  3  6  1  0
  6  7  1  0
  7  8  1  0
  8  9  1  0
  9 10  2  0
 10 11  1  0
 11 12  2  0
 12 13  1  0
 13 14  1  0
 14 15  1  0
 15 16  1  0
 16 17  1  0
 17 18  1  0
 16 19  1  0
 19 20  1  0
 12 21  1  0
 21 22  2  0
 22 23  1  0
 23 24  2  0
 24 25  1  0
 24 26  1  0
 26 27  2  0
 27 28  1  0
 28 29  1  0
 29 30  1  0
 30 31  1  0
 31 32  1  0
 32 33  1  0
 32 34  1  0
 34 35  1  0
 35 36  1  0
 36 37  1  0
 36 38  1  0
 36 39  1  0
 39 40  1  0
 28 41  2  0
 41 42  1  0
 42 43  2  0
 43  9  1  0
 23 10  1  0
 43 26  1  0
 40 32  1  0
  1 44  1  0
  1 45  1  0
  1 46  1  0
  2 47  1  0
  2 48  1  0
  4 49  1  0
  4 50  1  0
  5 51  1  0
  5 52  1  0
  5 53  1  0
  6 54  1  0
  6 55  1  0
  7 56  1  0
  7 57  1  0
  8 58  1  0
 11 59  1  0
 13 60  1  0
 13 61  1  0
 14 62  1  0
 14 63  1  0
 15 64  1  0
 15 65  1  0
 17 66  1  0
 17 67  1  0
 18 68  1  0
 18 69  1  0
 18 70  1  0
 19 71  1  0
 19 72  1  0
 20 73  1  0
 20 74  1  0
 20 75  1  0
 21 76  1  0
 22 77  1  0
 25 78  1  0
 25 79  1  0
 25 80  1  0
 27 81  1  0
 30 82  1  0
 30 83  1  0
 31 84  1  0
 31 85  1  0
 33 86  1  0
 33 87  1  0
 33 88  1  0
 34 89  1  0
 34 90  1  0
 35 91  1  0
 35 92  1  0
 37 93  1  0
 37 94  1  0
 37 95  1  0
 38 96  1  0
 38 97  1  0
 38 98  1  0
 39 99  1  0
 39100  1  0
 40101  1  0
 40102  1  0
 41103  1  0
 42104  1  0
M  CHG  4  13   1  24   1  32   1  36   1
M  END
>  <UniqueID>  (1) 
1

>  <SMILES>  (1) 
CCN(CC)CCNc1c2cc([NH2+]CCN(CC)CC)ccc2[n+](C)c2cc(OCC[N+]3(C)CC[N+](C)(C)CC3)ccc12

>  <Energy>  (1) 
151.78378321078665

>  <Genealogy>  (1) 
CCN(CC)CCNc1c2cc([NH2+]CCN(CC)CC)ccc2[n+](C)c2cc(OCC[N+]3(C)CC[N+](C)(C)CC3)ccc12 (protonated)
CCN(CC)CCNc1c2cc([NH2+]CCN(CC)CC)ccc2[n+](C)c2cc(OCC[N+]3(C)CC[N+](C)(C)CC3)ccc12 (3D coordinates assigned)
CCN(CC)CCNc1c2cc([NH2+]CCN(CC)CC)ccc2[n+](C)c2cc(OCC[N+]3(C)CC[N+](C)(C)CC3)ccc12 (nonaromatic ring conformer: 151.78378321078665 kcal/mol)

>  <smiles>  (1) 
CCN(CC)CCNc1ccc2c(c1)c(NCCN(CC)CC)c1ccc(OCC[N+]3(C)CC[N+](C)(C)CC3)cc1[n+]2C

>  <score_type>  (1) 
oracle

>  <origin>  (1) 
adg

>  <m_score__min__energy>  (1) 
-8.3100000000000005

>  <m_primary>  (1) 
energy

$$$$
1:0
     RDKit          3D

 26 26  0  0  0  0  0  0  0  0999 V2000
   -6.3416   24.3784  -29.9766 H   0  0  0  0  0  0  0  0  0  0  0  0
   -5.9400   24.4760  -30.9960 C   0  0  0  0  0  0  0  0  0  0  0  0
   -4.9630   25.2990  -31.2160 N   0  0  0  0  0  0  0  0  0  0  0  0
   -3.8160   25.2800  -30.4520 O   0  0  0  0  0  0  0  0  0  0  0  0
   -3.2820   24.0500  -29.9900 C   0  0  0  0  0  0  0  0  0  0  0  0
   -2.1919   24.0463  -30.1372 H   0  0  0  0  0  0  0  0  0  0  0  0
   -3.7336   23.2214  -30.5552 H   0  0  0  0  0  0  0  0  0  0  0  0
   -3.5930   23.8800  -28.5120 C   0  0  0  0  0  0  0  0  0  0  0  0
   -2.7831   24.3227  -27.9136 H   0  0  0  0  0  0  0  0  0  0  0  0
   -4.5413   24.3852  -28.2764 H   0  0  0  0  0  0  0  0  0  0  0  0
   -3.6797   22.8090  -28.2764 H   0  0  0  0  0  0  0  0  0  0  0  0
   -6.5350   23.6540  -32.1000 C   0  0  0  0  0  0  0  0  0  0  0  0
   -6.6409   24.2811  -32.9975 H   0  0  0  0  0  0  0  0  0  0  0  0
   -5.8679   22.8023  -32.2992 H   0  0  0  0  0  0  0  0  0  0  0  0
   -8.1770   23.0060  -31.6280 S   0  0  0  0  0  0  0  0  0  0  0  0
   -7.8110   21.3100  -32.0910 C   0  0  0  0  0  0  0  0  0  0  0  0
   -6.5940   21.0000  -32.7110 C   0  0  0  0  0  0  0  0  0  0  0  0
   -5.8620   21.7962  -32.9114 H   0  0  0  0  0  0  0  0  0  0  0  0
   -6.3070   19.6810  -33.0760 C   0  0  0  0  0  0  0  0  0  0  0  0
   -5.3484   19.4403  -33.5588 H   0  0  0  0  0  0  0  0  0  0  0  0
   -7.2400   18.6660  -32.8270 C   0  0  0  0  0  0  0  0  0  0  0  0
   -6.8810   17.0120  -33.2840 Cl  0  0  0  0  0  0  0  0  0  0  0  0
   -8.4610   18.9760  -32.2160 C   0  0  0  0  0  0  0  0  0  0  0  0
   -9.1954   18.1806  -32.0212 H   0  0  0  0  0  0  0  0  0  0  0  0
   -8.7480   20.2960  -31.8530 C   0  0  0  0  0  0  0  0  0  0  0  0
   -9.7110   20.5383  -31.3799 H   0  0  0  0  0  0  0  0  0  0  0  0
  1  2  1  0
  2  3  2  0
  3  4  1  0
  4  5  1  0
  5  6  1  0
  5  7  1  0
  5  8  1  0
  8  9  1  0
  8 10  1  0
  8 11  1  0
  2 12  1  0
 12 13  1  0
 12 14  1  0
 12 15  1  0
 15 16  1  0
 16 17  2  0
 17 18  1  0
 17 19  1  0
 19 20  1  0
 19 21  2  0
 21 22  1  0
 21 23  1  0
 23 24  1  0
 23 25  2  0
 25 26  1  0
 25 16  1  0
M  END
>  <UniqueID>  (2) 
2

>  <SMILES>  (2) 
CCO/N=C\CSc1ccc(Cl)cc1

>  <Energy>  (2) 
12.047139298477683

>  <Genealogy>  (2) 
CCO/N=C\CSc1ccc(Cl)cc1 (cis-trans isomerization)
CCO/N=C\CSc1ccc(Cl)cc1 (3D coordinates assigned)
CCO/N=C\CSc1ccc(Cl)cc1 (optimized conformer: 12.047139298477683 kcal/mol)

>  <smiles>  (2) 
CCON=CCSc1ccc(Cl)cc1

>  <score_type>  (2) 
oracle

>  <origin>  (2) 
adg

>  <m_score__min__energy>  (2) 
-7.1600000000000001

>  <m_primary>  (2) 
energy

$$$$
2:0
     RDKit          3D

 78 81  0  0  0  0  0  0  0  0999 V2000
   -2.6080   24.5200  -27.4690 C   0  0  0  0  0  0  0  0  0  0  0  0
   -2.4710   24.6430  -28.9870 C   0  0  0  0  0  0  0  0  0  0  0  0
   -3.7120   24.2400  -29.6890 N   0  0  0  0  0  0  0  0  0  0  0  0
   -4.3030   25.3110  -30.5310 C   0  0  0  0  0  0  0  0  0  0  0  0
   -5.7430   25.6840  -30.1480 C   0  0  0  0  0  0  0  0  0  0  0  0
   -4.7040   23.6410  -28.7640 C   0  0  0  0  0  0  0  0  0  0  0  0
   -5.6140   22.6580  -29.5140 C   0  0  0  0  0  0  0  0  0  0  0  0
   -5.1570   22.4270  -30.8850 N   0  0  0  0  0  0  0  0  0  0  0  0
   -5.6500   21.3060  -31.6340 C   0  0  0  0  0  0  0  0  0  0  0  0
   -7.0350   21.1760  -31.8440 C   0  0  0  0  0  0  0  0  0  0  0  0
   -7.9380   22.1740  -31.4140 C   0  0  0  0  0  0  0  0  0  0  0  0
   -9.3100   22.0220  -31.6040 C   0  0  0  0  0  0  0  0  0  0  0  0
   -9.8060   20.8850  -32.2310 C   0  0  0  0  0  0  0  0  0  0  0  0
   -8.9320   19.8940  -32.6750 C   0  0  0  0  0  0  0  0  0  0  0  0
   -7.5330   20.0210  -32.4920 C   0  0  0  0  0  0  0  0  0  0  0  0
   -6.6610   19.0520  -32.9350 N   0  0  0  0  0  0  0  0  0  0  0  0
   -7.1590   17.6710  -33.1100 C   0  0  0  0  0  0  0  0  0  0  0  0
   -5.3110   19.3310  -33.0340 C   0  0  0  0  0  0  0  0  0  0  0  0
   -4.4430   18.6060  -33.9080 C   0  0  0  0  0  0  0  0  0  0  0  0
   -4.9370   17.7890  -35.0780 C   0  0  0  0  0  0  0  0  0  0  0  0
   -3.0600   18.7550  -33.7850 C   0  0  0  0  0  0  0  0  0  0  0  0
   -2.5180   19.6600  -32.8860 C   0  0  0  0  0  0  0  0  0  0  0  0
   -3.3440   20.4970  -32.1200 C   0  0  0  0  0  0  0  0  0  0  0  0
   -2.7860   21.4210  -31.2150 O   0  0  0  0  0  0  0  0  0  0  0  0
   -1.4010   21.5770  -30.9050 C   0  0  0  0  0  0  0  0  0  0  0  0
   -0.7830   20.3400  -30.1940 C   0  0  0  0  0  0  0  0  0  0  0  0
   -0.7130   20.3640  -28.6900 N   0  0  0  0  0  0  0  0  0  0  0  0
    0.6140   20.8590  -28.2360 C   0  0  0  0  0  0  0  0  0  0  0  0
   -0.8640   18.9440  -28.2100 C   0  0  0  0  0  0  0  0  0  0  0  0
   -1.4670   18.8370  -26.7990 C   0  0  0  0  0  0  0  0  0  0  0  0
   -2.8890   19.4210  -26.7640 C   0  0  0  0  0  0  0  0  0  0  0  0
   -3.0990   20.5070  -27.8300 C   0  0  0  0  0  0  0  0  0  0  0  0
   -1.7870   21.2520  -28.1190 C   0  0  0  0  0  0  0  0  0  0  0  0
   -4.7590   20.3880  -32.2510 C   0  0  0  0  0  0  0  0  0  0  0  0
   -1.8748   25.1783  -26.9801 H   0  0  0  0  0  0  0  0  0  0  0  0
   -3.6239   24.8149  -27.1674 H   0  0  0  0  0  0  0  0  0  0  0  0
   -2.4239   23.4783  -27.1674 H   0  0  0  0  0  0  0  0  0  0  0  0
   -2.2433   25.6891  -29.2398 H   0  0  0  0  0  0  0  0  0  0  0  0
   -1.6627   23.9712  -29.3115 H   0  0  0  0  0  0  0  0  0  0  0  0
   -3.6762   26.2101  -30.4373 H   0  0  0  0  0  0  0  0  0  0  0  0
   -4.3376   24.9240  -31.5601 H   0  0  0  0  0  0  0  0  0  0  0  0
   -5.8364   25.7082  -29.0522 H   0  0  0  0  0  0  0  0  0  0  0  0
   -5.9867   26.6749  -30.5587 H   0  0  0  0  0  0  0  0  0  0  0  0
   -6.4371   24.9360  -30.5587 H   0  0  0  0  0  0  0  0  0  0  0  0
   -4.1742   23.1046  -27.9630 H   0  0  0  0  0  0  0  0  0  0  0  0
   -5.3230   24.4442  -28.3377 H   0  0  0  0  0  0  0  0  0  0  0  0
   -5.6214   21.6989  -28.9755 H   0  0  0  0  0  0  0  0  0  0  0  0
   -6.6223   23.0952  -29.5604 H   0  0  0  0  0  0  0  0  0  0  0  0
   -4.3480   22.9620  -31.2720 H   0  0  0  0  0  0  0  0  0  0  0  0
   -7.5538   23.0808  -30.9239 H   0  0  0  0  0  0  0  0  0  0  0  0
  -10.0020   22.8035  -31.2570 H   0  0  0  0  0  0  0  0  0  0  0  0
  -10.8899   20.7670  -32.3771 H   0  0  0  0  0  0  0  0  0  0  0  0
   -9.3344   19.0005  -33.1747 H   0  0  0  0  0  0  0  0  0  0  0  0
   -7.3241   17.2130  -32.1236 H   0  0  0  0  0  0  0  0  0  0  0  0
   -8.1066   17.6909  -33.6683 H   0  0  0  0  0  0  0  0  0  0  0  0
   -6.4168   17.0816  -33.6683 H   0  0  0  0  0  0  0  0  0  0  0  0
   -5.4727   16.9030  -34.7064 H   0  0  0  0  0  0  0  0  0  0  0  0
   -5.6176   18.3991  -35.6899 H   0  0  0  0  0  0  0  0  0  0  0  0
   -4.0805   17.4697  -35.6899 H   0  0  0  0  0  0  0  0  0  0  0  0
   -2.3912   18.1455  -34.4105 H   0  0  0  0  0  0  0  0  0  0  0  0
   -1.4258   19.7231  -32.7714 H   0  0  0  0  0  0  0  0  0  0  0  0
   -0.8516   21.7509  -31.8420 H   0  0  0  0  0  0  0  0  0  0  0  0
   -1.3179   22.4255  -30.2100 H   0  0  0  0  0  0  0  0  0  0  0  0
   -1.3803   19.4623  -30.4818 H   0  0  0  0  0  0  0  0  0  0  0  0
    0.2667   20.3240  -30.5226 H   0  0  0  0  0  0  0  0  0  0  0  0
    0.6445   20.8704  -27.1365 H   0  0  0  0  0  0  0  0  0  0  0  0
    1.4034   20.1948  -28.6179 H   0  0  0  0  0  0  0  0  0  0  0  0
    0.7756   21.8779  -28.6179 H   0  0  0  0  0  0  0  0  0  0  0  0
   -1.5197   18.4068  -28.9111 H   0  0  0  0  0  0  0  0  0  0  0  0
    0.1445   18.5071  -28.1661 H   0  0  0  0  0  0  0  0  0  0  0  0
   -1.5051   17.7783  -26.5030 H   0  0  0  0  0  0  0  0  0  0  0  0
   -0.8354   19.4082  -26.1027 H   0  0  0  0  0  0  0  0  0  0  0  0
   -3.6096   18.6087  -26.9397 H   0  0  0  0  0  0  0  0  0  0  0  0
   -3.0387   19.8840  -25.7775 H   0  0  0  0  0  0  0  0  0  0  0  0
   -3.4580   20.0368  -28.7574 H   0  0  0  0  0  0  0  0  0  0  0  0
   -3.8384   21.2298  -27.4547 H   0  0  0  0  0  0  0  0  0  0  0  0
   -1.9938   22.0575  -28.8390 H   0  0  0  0  0  0  0  0  0  0  0  0
   -1.4139   21.6403  -27.1598 H   0  0  0  0  0  0  0  0  0  0  0  0
  1  2  1  0
  2  3  1  0
  3  4  1  0
  4  5  1  0
  3  6  1  0
  6  7  1  0
  7  8  1  0
  8  9  1  0
  9 10  2  0
 10 11  1  0
 11 12  2  0
 12 13  1  0
 13 14  2  0
 14 15  1  0
 15 16  2  0
 16 17  1  0
 16 18  1  0
 18 19  2  0
 19 20  1  0
 19 21  1  0
 21 22  2  0
 22 23  1  0
 23 24  1  0
 24 25  1  0
 25 26  1  0
 26 27  1  0
 27 28  1  0
 27 29  1  0
 29 30  1  0
 30 31  1  0
 31 32  1  0
 32 33  1  0
 23 34  2  0
 34  9  1  0
 15 10  1  0
 34 18  1  0
 33 27  1  0
  1 35  1  0
  1 36  1  0
  1 37  1  0
  2 38  1  0
  2 39  1  0
  4 40  1  0
  4 41  1  0
  5 42  1  0
  5 43  1  0
  5 44  1  0
  6 45  1  0
  6 46  1  0
  7 47  1  0
  7 48  1  0
  8 49  1  0
 11 50  1  0
 12 51  1  0
 13 52  1  0
 14 53  1  0
 17 54  1  0
 17 55  1  0
 17 56  1  0
 20 57  1  0
 20 58  1  0
 20 59  1  0
 21 60  1  0
 22 61  1  0
 25 62  1  0
 25 63  1  0
 26 64  1  0
 26 65  1  0
 28 66  1  0
 28 67  1  0
 28 68  1  0
 29 69  1  0
 29 70  1  0
 30 71  1  0
 30 72  1  0
 31 73  1  0
 31 74  1  0
 32 75  1  0
 32 76  1  0
 33 77  1  0
 33 78  1  0
M  CHG  2  16   1  27   1
M  END
>  <UniqueID>  (3) 
3

>  <SMILES>  (3) 
CCN(CC)CCNc1c2ccccc2[n+](C)c2c(C)ccc(OCC[N+]3(C)CCCCC3)c12

>  <Energy>  (3) 
136.65206211210128

>  <Genealogy>  (3) 
CCN(CC)CCNc1c2ccccc2[n+](C)c2c(C)ccc(OCC[N+]3(C)CCCCC3)c12 (3D coordinates assigned)
CCN(CC)CCNc1c2ccccc2[n+](C)c2c(C)ccc(OCC[N+]3(C)CCCCC3)c12 (nonaromatic ring conformer: 136.65206211210128 kcal/mol)

>  <smiles>  (3) 
CCN(CC)CCNc1c2ccccc2[n+](C)c2c(C)ccc(OCC[N+]3(C)CCCCC3)c12

>  <score_type>  (3) 
oracle

>  <origin>  (3) 
adg

>  <m_score__min__energy>  (3) 
-9.4800000000000004

>  <m_primary>  (3) 
energy

$$$$
3:0
     RDKit          3D

 79 82  0  0  0  0  0  0  0  0999 V2000
   -3.4160   25.0230  -26.3380 C   0  0  0  0  0  0  0  0  0  0  0  0
   -3.6990   24.1500  -27.5630 C   0  0  0  0  0  0  0  0  0  0  0  0
   -4.9330   24.5360  -28.2740 N   0  0  0  0  0  0  0  0  0  0  0  0
   -5.3930   23.5710  -29.2910 C   0  0  0  0  0  0  0  0  0  0  0  0
   -5.9280   24.2520  -30.5610 C   0  0  0  0  0  0  0  0  0  0  0  0
   -5.4380   23.5640  -31.7560 N   0  0  0  0  0  0  0  0  0  0  0  0
   -5.7580   22.1830  -32.0130 C   0  0  0  0  0  0  0  0  0  0  0  0
   -7.1080   21.7730  -32.0100 C   0  0  0  0  0  0  0  0  0  0  0  0
   -8.1480   22.6930  -31.7500 C   0  0  0  0  0  0  0  0  0  0  0  0
   -9.4800   22.2920  -31.7630 C   0  0  0  0  0  0  0  0  0  0  0  0
   -9.8070   20.9750  -32.0610 C   0  0  0  0  0  0  0  0  0  0  0  0
   -8.8020   20.0510  -32.3410 C   0  0  0  0  0  0  0  0  0  0  0  0
   -7.4330   20.4220  -32.3070 C   0  0  0  0  0  0  0  0  0  0  0  0
   -6.4320   19.5180  -32.5950 N   0  0  0  0  0  0  0  0  0  0  0  0
   -6.7350   18.0690  -32.6420 C   0  0  0  0  0  0  0  0  0  0  0  0
   -5.1440   19.9600  -32.8210 C   0  0  0  0  0  0  0  0  0  0  0  0
   -4.1850   19.1320  -33.4490 C   0  0  0  0  0  0  0  0  0  0  0  0
   -2.8780   19.5590  -33.6380 C   0  0  0  0  0  0  0  0  0  0  0  0
   -2.4600   20.8000  -33.1610 C   0  0  0  0  0  0  0  0  0  0  0  0
   -1.0360   21.2180  -33.4060 C   0  0  0  0  0  0  0  0  0  0  0  0
   -3.3770   21.6240  -32.4720 C   0  0  0  0  0  0  0  0  0  0  0  0
   -2.9260   22.7550  -31.7750 O   0  0  0  0  0  0  0  0  0  0  0  0
   -2.4820   22.7240  -30.4140 C   0  0  0  0  0  0  0  0  0  0  0  0
   -1.1500   21.9380  -30.2730 C   0  0  0  0  0  0  0  0  0  0  0  0
   -1.2230   20.6650  -29.4810 N   0  0  0  0  0  0  0  0  0  0  0  0
   -2.6200   20.4230  -29.0310 C   0  0  0  0  0  0  0  0  0  0  0  0
   -0.8190   19.5390  -30.3910 C   0  0  0  0  0  0  0  0  0  0  0  0
   -0.1620   18.3690  -29.6330 C   0  0  0  0  0  0  0  0  0  0  0  0
    1.1130   18.7790  -28.9620 N   0  0  0  0  0  0  0  0  0  0  0  0
    2.2580   18.5360  -29.8770 C   0  0  0  0  0  0  0  0  0  0  0  0
    1.3120   17.9410  -27.7530 C   0  0  0  0  0  0  0  0  0  0  0  0
    1.0990   20.2250  -28.5740 C   0  0  0  0  0  0  0  0  0  0  0  0
   -0.3240   20.7370  -28.2790 C   0  0  0  0  0  0  0  0  0  0  0  0
   -4.7570   21.2740  -32.4370 C   0  0  0  0  0  0  0  0  0  0  0  0
   -3.6042   24.4426  -25.4227 H   0  0  0  0  0  0  0  0  0  0  0  0
   -2.3659   25.3499  -26.3555 H   0  0  0  0  0  0  0  0  0  0  0  0
   -4.0746   25.9039  -26.3555 H   0  0  0  0  0  0  0  0  0  0  0  0
   -2.8516   24.2374  -28.2589 H   0  0  0  0  0  0  0  0  0  0  0  0
   -3.8337   23.1179  -27.2072 H   0  0  0  0  0  0  0  0  0  0  0  0
   -5.6980   24.6660  -27.5710 H   0  0  0  0  0  0  0  0  0  0  0  0
   -4.7740   25.4630  -28.7340 H   0  0  0  0  0  0  0  0  0  0  0  0
   -4.5480   22.9239  -29.5688 H   0  0  0  0  0  0  0  0  0  0  0  0
   -6.2207   22.9957  -28.8506 H   0  0  0  0  0  0  0  0  0  0  0  0
   -7.0276   24.2229  -30.5517 H   0  0  0  0  0  0  0  0  0  0  0  0
   -5.5767   25.2942  -30.5810 H   0  0  0  0  0  0  0  0  0  0  0  0
   -4.6330   23.9850  -32.2740 H   0  0  0  0  0  0  0  0  0  0  0  0
   -7.9007   23.7428  -31.5339 H   0  0  0  0  0  0  0  0  0  0  0  0
  -10.2748   23.0181  -31.5372 H   0  0  0  0  0  0  0  0  0  0  0  0
  -10.8611   20.6610  -32.0760 H   0  0  0  0  0  0  0  0  0  0  0  0
   -9.0750   19.0156  -32.5928 H   0  0  0  0  0  0  0  0  0  0  0  0
   -6.8167   17.6781  -31.6171 H   0  0  0  0  0  0  0  0  0  0  0  0
   -7.6858   17.9102  -33.1719 H   0  0  0  0  0  0  0  0  0  0  0  0
   -5.9275   17.5425  -33.1719 H   0  0  0  0  0  0  0  0  0  0  0  0
   -4.4805   18.1303  -33.7943 H   0  0  0  0  0  0  0  0  0  0  0  0
   -2.1650   18.9116  -34.1695 H   0  0  0  0  0  0  0  0  0  0  0  0
   -0.5268   21.3675  -32.4425 H   0  0  0  0  0  0  0  0  0  0  0  0
   -0.5169   20.4343  -33.9773 H   0  0  0  0  0  0  0  0  0  0  0  0
   -1.0229   22.1579  -33.9773 H   0  0  0  0  0  0  0  0  0  0  0  0
   -2.3284   23.7553  -30.0636 H   0  0  0  0  0  0  0  0  0  0  0  0
   -3.2494   22.2181  -29.8098 H   0  0  0  0  0  0  0  0  0  0  0  0
   -0.7979   21.6865  -31.2843 H   0  0  0  0  0  0  0  0  0  0  0  0
   -0.4710   22.5988  -29.7142 H   0  0  0  0  0  0  0  0  0  0  0  0
   -2.6552   20.4169  -27.9316 H   0  0  0  0  0  0  0  0  0  0  0  0
   -3.2722   21.2215  -29.4143 H   0  0  0  0  0  0  0  0  0  0  0  0
   -2.9656   19.4516  -29.4143 H   0  0  0  0  0  0  0  0  0  0  0  0
   -1.7153   19.1648  -30.9074 H   0  0  0  0  0  0  0  0  0  0  0  0
   -0.0767   19.9345  -31.1000 H   0  0  0  0  0  0  0  0  0  0  0  0
   -0.8634   18.0027  -28.8688 H   0  0  0  0  0  0  0  0  0  0  0  0
    0.0770   17.5827  -30.3641 H   0  0  0  0  0  0  0  0  0  0  0  0
    3.1654   18.3434  -29.2858 H   0  0  0  0  0  0  0  0  0  0  0  0
    2.0417   17.6637  -30.5114 H   0  0  0  0  0  0  0  0  0  0  0  0
    2.4146   19.4209  -30.5114 H   0  0  0  0  0  0  0  0  0  0  0  0
    1.1660   18.5558  -26.8526 H   0  0  0  0  0  0  0  0  0  0  0  0
    0.5849   17.1156  -27.7552 H   0  0  0  0  0  0  0  0  0  0  0  0
    2.3326   17.5306  -27.7552 H   0  0  0  0  0  0  0  0  0  0  0  0
    1.7159   20.3555  -27.6727 H   0  0  0  0  0  0  0  0  0  0  0  0
    1.4967   20.8046  -29.4201 H   0  0  0  0  0  0  0  0  0  0  0  0
   -0.7596   20.1247  -27.4757 H   0  0  0  0  0  0  0  0  0  0  0  0
   -0.2442   21.7938  -27.9845 H   0  0  0  0  0  0  0  0  0  0  0  0
  1  2  1  0
  2  3  1  0
  3  4  1  0
  4  5  1  0
  5  6  1  0
  6  7  1  0
  7  8  2  0
  8  9  1  0
  9 10  2  0
 10 11  1  0
 11 12  2  0
 12 13  1  0
 13 14  2  0
 14 15  1  0
 14 16  1  0
 16 17  2  0
 17 18  1  0
 18 19  2  0
 19 20  1  0
 19 21  1  0
 21 22  1  0
 22 23  1  0
 23 24  1  0
 24 25  1  0
 25 26  1  0
 25 27  1  0
 27 28  1  0
 28 29  1  0
 29 30  1  0
 29 31  1  0
 29 32  1  0
 32 33  1  0
 21 34  2  0
 34  7  1  0
 13  8  1  0
 34 16  1  0
 33 25  1  0
  1 35  1  0
  1 36  1  0
  1 37  1  0
  2 38  1  0
  2 39  1  0
  3 40  1  0
  3 41  1  0
  4 42  1  0
  4 43  1  0
  5 44  1  0
  5 45  1  0
  6 46  1  0
  9 47  1  0
 10 48  1  0
 11 49  1  0
 12 50  1  0
 15 51  1  0
 15 52  1  0
 15 53  1  0
 17 54  1  0
 18 55  1  0
 20 56  1  0
 20 57  1  0
 20 58  1  0
 23 59  1  0
 23 60  1  0
 24 61  1  0
 24 62  1  0
 26 63  1  0
 26 64  1  0
 26 65  1  0
 27 66  1  0
 27 67  1  0
 28 68  1  0
 28 69  1  0
 30 70  1  0
 30 71  1  0
 30 72  1  0
 31 73  1  0
 31 74  1  0
 31 75  1  0
 32 76  1  0
 32 77  1  0
 33 78  1  0
 33 79  1  0
M  CHG  4   3   1  14   1  25   1  29   1
M  END
>  <UniqueID>  (4) 
4

>  <SMILES>  (4) 
CC[NH2+]CCNc1c2ccccc2[n+](C)c2ccc(C)c(OCC[N+]3(C)CC[N+](C)(C)CC3)c12

>  <Energy>  (4) 
140.3590928509442

>  <Genealogy>  (4) 
CC[NH2+]CCNc1c2ccccc2[n+](C)c2ccc(C)c(OCC[N+]3(C)CC[N+](C)(C)CC3)c12 (protonated)
CC[NH2+]CCNc1c2ccccc2[n+](C)c2ccc(C)c(OCC[N+]3(C)CC[N+](C)(C)CC3)c12 (3D coordinates assigned)
CC[NH2+]CCNc1c2ccccc2[n+](C)c2ccc(C)c(OCC[N+]3(C)CC[N+](C)(C)CC3)c12 (nonaromatic ring conformer: 140.3590928509442 kcal/mol)

>  <smiles>  (4) 
CCNCCNc1c2ccccc2[n+](C)c2ccc(C)c(OCC[N+]3(C)CC[N+](C)(C)CC3)c12

>  <score_type>  (4) 
oracle

>  <origin>  (4) 
adg

>  <m_score__min__energy>  (4) 
-7.4400000000000004

>  <m_primary>  (4) 
energy

$$$$
4:0
     RDKit          3D

 70 72  0  0  0  0  0  0  0  0999 V2000
   -4.5938   25.3434  -29.5814 H   0  0  0  0  0  0  0  0  0  0  0  0
   -4.6580   24.7510  -30.5060 C   0  0  0  0  0  0  0  0  0  0  0  0
   -3.6970   23.9580  -30.8280 N   0  0  0  0  0  0  0  0  0  0  0  0
   -2.9290   23.2110  -29.8560 C   0  0  0  0  0  0  0  0  0  0  0  0
   -2.4144   22.3834  -30.3662 H   0  0  0  0  0  0  0  0  0  0  0  0
   -2.2037   23.8940  -29.3896 H   0  0  0  0  0  0  0  0  0  0  0  0
   -3.8240   22.6380  -28.7580 C   0  0  0  0  0  0  0  0  0  0  0  0
   -3.4112   22.9023  -27.7733 H   0  0  0  0  0  0  0  0  0  0  0  0
   -4.8368   23.0560  -28.8552 H   0  0  0  0  0  0  0  0  0  0  0  0
   -3.8683   21.5432  -28.8552 H   0  0  0  0  0  0  0  0  0  0  0  0
   -5.8680   24.8700  -31.3900 C   0  0  0  0  0  0  0  0  0  0  0  0
   -5.7470   25.7473  -32.0424 H   0  0  0  0  0  0  0  0  0  0  0  0
   -6.7528   24.9749  -30.7450 H   0  0  0  0  0  0  0  0  0  0  0  0
   -6.0530   23.6790  -32.2260 N   0  0  0  0  0  0  0  0  0  0  0  0
   -5.5830   23.6820  -33.1600 H   0  0  0  0  0  0  0  0  0  0  0  0
   -7.1120   22.7260  -32.0390 C   0  0  0  0  0  0  0  0  0  0  0  0
   -8.3900   23.2300  -31.7640 C   0  0  0  0  0  0  0  0  0  0  0  0
   -8.5213   24.3096  -31.5993 H   0  0  0  0  0  0  0  0  0  0  0  0
   -9.4900   22.3930  -31.6960 C   0  0  0  0  0  0  0  0  0  0  0  0
  -10.4841   22.8105  -31.4784 H   0  0  0  0  0  0  0  0  0  0  0  0
   -9.3430   21.0320  -31.9010 C   0  0  0  0  0  0  0  0  0  0  0  0
  -10.2285   20.3808  -31.8587 H   0  0  0  0  0  0  0  0  0  0  0  0
   -8.0740   20.4630  -32.1640 C   0  0  0  0  0  0  0  0  0  0  0  0
   -6.9300   21.3180  -32.2590 C   0  0  0  0  0  0  0  0  0  0  0  0
   -5.6670   20.7110  -32.5520 C   0  0  0  0  0  0  0  0  0  0  0  0
   -4.4040   21.2940  -32.1080 N   0  0  0  0  0  0  0  0  0  0  0  0
   -4.5360   22.0500  -31.4060 H   0  0  0  0  0  0  0  0  0  0  0  0
   -3.8200   20.6070  -31.5950 H   0  0  0  0  0  0  0  0  0  0  0  0
   -3.6480   21.8880  -33.2280 C   0  0  0  0  0  0  0  0  0  0  0  0
   -3.7681   22.9811  -33.2022 H   0  0  0  0  0  0  0  0  0  0  0  0
   -4.0402   21.4769  -34.1699 H   0  0  0  0  0  0  0  0  0  0  0  0
   -2.1420   21.5430  -33.1320 C   0  0  0  0  0  0  0  0  0  0  0  0
   -1.5863   22.4744  -32.9485 H   0  0  0  0  0  0  0  0  0  0  0  0
   -1.8680   21.0617  -34.0824 H   0  0  0  0  0  0  0  0  0  0  0  0
   -1.8030   20.5790  -32.0540 N   0  0  0  0  0  0  0  0  0  0  0  0
   -0.7670   21.1020  -31.1330 C   0  0  0  0  0  0  0  0  0  0  0  0
   -1.1496   21.9992  -30.6244 H   0  0  0  0  0  0  0  0  0  0  0  0
    0.1347   21.3587  -31.7084 H   0  0  0  0  0  0  0  0  0  0  0  0
   -0.4150   20.0350  -30.0880 C   0  0  0  0  0  0  0  0  0  0  0  0
    0.6541   20.1142  -29.8415 H   0  0  0  0  0  0  0  0  0  0  0  0
   -0.6452   19.0461  -30.5111 H   0  0  0  0  0  0  0  0  0  0  0  0
   -1.2340   20.2150  -28.8120 C   0  0  0  0  0  0  0  0  0  0  0  0
   -0.5842   20.0722  -27.9360 H   0  0  0  0  0  0  0  0  0  0  0  0
   -1.6611   21.2285  -28.7904 H   0  0  0  0  0  0  0  0  0  0  0  0
   -2.0467   19.4740  -28.7904 H   0  0  0  0  0  0  0  0  0  0  0  0
   -1.4800   19.2130  -32.5310 C   0  0  0  0  0  0  0  0  0  0  0  0
   -0.5978   18.8437  -31.9876 H   0  0  0  0  0  0  0  0  0  0  0  0
   -2.3514   18.5676  -32.3466 H   0  0  0  0  0  0  0  0  0  0  0  0
   -1.1800   19.2000  -34.0380 C   0  0  0  0  0  0  0  0  0  0  0  0
   -1.9618   19.7680  -34.5636 H   0  0  0  0  0  0  0  0  0  0  0  0
   -0.1919   19.6561  -34.1985 H   0  0  0  0  0  0  0  0  0  0  0  0
   -1.1470   17.7770  -34.5860 C   0  0  0  0  0  0  0  0  0  0  0  0
   -1.1304   17.0624  -33.7499 H   0  0  0  0  0  0  0  0  0  0  0  0
   -2.0413   17.6003  -35.2017 H   0  0  0  0  0  0  0  0  0  0  0  0
   -0.2455   17.6420  -35.2017 H   0  0  0  0  0  0  0  0  0  0  0  0
   -5.6760   19.4110  -33.1210 C   0  0  0  0  0  0  0  0  0  0  0  0
   -4.5690   18.9040  -33.8480 C   0  0  0  0  0  0  0  0  0  0  0  0
   -3.6935   19.5470  -34.0215 H   0  0  0  0  0  0  0  0  0  0  0  0
   -4.5750   17.6040  -34.3450 C   0  0  0  0  0  0  0  0  0  0  0  0
   -3.6991   17.2204  -34.8888 H   0  0  0  0  0  0  0  0  0  0  0  0
   -5.6840   16.7900  -34.1560 C   0  0  0  0  0  0  0  0  0  0  0  0
   -5.6806   15.7588  -34.5390 H   0  0  0  0  0  0  0  0  0  0  0  0
   -6.8020   17.2790  -33.4810 C   0  0  0  0  0  0  0  0  0  0  0  0
   -7.6800   16.6299  -33.3477 H   0  0  0  0  0  0  0  0  0  0  0  0
   -6.8260   18.5980  -32.9640 C   0  0  0  0  0  0  0  0  0  0  0  0
   -7.9400   19.1000  -32.3290 N   0  0  0  0  0  0  0  0  0  0  0  0
   -8.9910   18.1800  -31.8420 C   0  0  0  0  0  0  0  0  0  0  0  0
   -8.9946   18.1768  -30.7420 H   0  0  0  0  0  0  0  0  0  0  0  0
   -9.9715   18.5153  -32.2109 H   0  0  0  0  0  0  0  0  0  0  0  0
   -8.7884   17.1637  -32.2109 H   0  0  0  0  0  0  0  0  0  0  0  0
  1  2  1  0
  2  3  2  0
  3  4  1  0
  4  5  1  0
  4  6  1  0
  4  7  1  0
  7  8  1  0
  7  9  1  0
  7 10  1  0
  2 11  1  0
 11 12  1  0
 11 13  1  0
 11 14  1  0
 14 15  1  0
 14 16  1  0
 16 17  2  0
 17 18  1  0
 17 19  1  0
 19 20  1  0
 19 21  2  0
 21 22  1  0
 21 23  1  0
 23 24  2  0
 24 25  1  0
 25 26  1  0
 26 27  1  0
 26 28  1  0
 26 29  1  0
 29 30  1  0
 29 31  1  0
 29 32  1  0
 32 33  1  0
 32 34  1  0
 32 35  1  0
 35 36  1  0
 36 37  1  0
 36 38  1  0
 36 39  1  0
 39 40  1  0
 39 41  1  0
 39 42  1  0
 42 43  1  0
 42 44  1  0
 42 45  1  0
 35 46  1  0
 46 47  1  0
 46 48  1  0
 46 49  1  0
 49 50  1  0
 49 51  1  0
 49 52  1  0
 52 53  1  0
 52 54  1  0
 52 55  1  0
 25 56  2  0
 56 57  1  0
 57 58  1  0
 57 59  2  0
 59 60  1  0
 59 61  1  0
 61 62  1  0
 61 63  2  0
 63 64  1  0
 63 65  1  0
 65 66  2  0
 66 67  1  0
 67 68  1  0
 67 69  1  0
 67 70  1  0
 24 16  1  0
 65 56  1  0
 66 23  1  0
M  CHG  2  26   1  66   1
M  END
>  <UniqueID>  (5) 
5

>  <SMILES>  (5) 
CCCN(CCC)CC[NH2+]c1c2ccccc2[n+](C)c2cccc(NC/C=N/CC)c12

>  <Energy>  (5) 
104.34070709403011

>  <Genealogy>  (5) 
CCCN(CCC)CC[NH2+]c1c2ccccc2[n+](C)c2cccc(NCC=NCC)c12 (protonated)
CCCN(CCC)CC[NH2+]c1c2ccccc2[n+](C)c2cccc(NC/C=N/CC)c12 (cis-trans isomerization)
CCCN(CCC)CC[NH2+]c1c2ccccc2[n+](C)c2cccc(NC/C=N/CC)c12 (3D coordinates assigned)
CCCN(CCC)CC[NH2+]c1c2ccccc2[n+](C)c2cccc(NC/C=N/CC)c12 (optimized conformer: 104.34070709403011 kcal/mol)

>  <smiles>  (5) 
CCCN(CCC)CCNc1c2ccccc2[n+](C)c2cccc(NCC=NCC)c12

>  <score_type>  (5) 
oracle

>  <origin>  (5) 
adg

>  <m_score__min__energy>  (5) 
-7.96

>  <m_primary>  (5) 
energy

$$$$
5:0
     RDKit          3D

 42 44  0  0  0  0  0  0  0  0999 V2000
   -6.8400   24.3620  -30.2590 C   0  0  0  0  0  0  0  0  0  0  0  0
   -5.7170   25.3370  -29.9460 C   0  0  0  0  0  0  0  0  0  0  0  0
   -4.6190   25.0950  -30.8220 O   0  0  0  0  0  0  0  0  0  0  0  0
   -3.8740   23.9090  -30.8400 C   0  0  0  0  0  0  0  0  0  0  0  0
   -4.2320   22.7780  -31.6130 C   0  0  0  0  0  0  0  0  0  0  0  0
   -3.4320   21.6080  -31.5920 C   0  0  0  0  0  0  0  0  0  0  0  0
   -3.8430   20.3960  -32.3860 C   0  0  0  0  0  0  0  0  0  0  0  0
   -4.8770   20.7510  -33.3670 N   0  0  0  0  0  0  0  0  0  0  0  0
   -6.1680   20.2850  -32.9170 C   0  0  0  0  0  0  0  0  0  0  0  0
   -7.0620   21.1860  -32.3070 C   0  0  0  0  0  0  0  0  0  0  0  0
   -8.3250   20.7610  -31.8900 C   0  0  0  0  0  0  0  0  0  0  0  0
   -9.4250   21.8940  -31.1270 Cl  0  0  0  0  0  0  0  0  0  0  0  0
   -8.7130   19.4350  -32.0850 C   0  0  0  0  0  0  0  0  0  0  0  0
   -7.8440   18.5310  -32.7010 C   0  0  0  0  0  0  0  0  0  0  0  0
   -6.5680   18.9470  -33.1290 C   0  0  0  0  0  0  0  0  0  0  0  0
   -5.6780   18.0660  -33.7660 O   0  0  0  0  0  0  0  0  0  0  0  0
   -6.0070   16.7440  -34.1800 C   0  0  0  0  0  0  0  0  0  0  0  0
   -2.2800   21.5610  -30.7780 C   0  0  0  0  0  0  0  0  0  0  0  0
   -1.9600   22.6910  -30.0330 C   0  0  0  0  0  0  0  0  0  0  0  0
   -2.7210   23.8140  -30.0640 C   0  0  0  0  0  0  0  0  0  0  0  0
   -2.1660   24.7670  -29.2310 O   0  0  0  0  0  0  0  0  0  0  0  0
   -0.9850   24.2070  -28.6410 C   0  0  0  0  0  0  0  0  0  0  0  0
   -0.8910   22.8820  -29.1800 O   0  0  0  0  0  0  0  0  0  0  0  0
   -7.2722   23.9867  -29.3197 H   0  0  0  0  0  0  0  0  0  0  0  0
   -7.6191   24.8750  -30.8419 H   0  0  0  0  0  0  0  0  0  0  0  0
   -6.4415   23.5186  -30.8419 H   0  0  0  0  0  0  0  0  0  0  0  0
   -6.0766   26.3672  -30.0850 H   0  0  0  0  0  0  0  0  0  0  0  0
   -5.3919   25.1992  -28.9042 H   0  0  0  0  0  0  0  0  0  0  0  0
   -5.1387   22.8075  -32.2351 H   0  0  0  0  0  0  0  0  0  0  0  0
   -2.9656   19.9943  -32.9140 H   0  0  0  0  0  0  0  0  0  0  0  0
   -4.2496   19.6404  -31.6977 H   0  0  0  0  0  0  0  0  0  0  0  0
   -4.6460   20.3170  -34.2920 H   0  0  0  0  0  0  0  0  0  0  0  0
   -4.8990   21.7890  -33.5040 H   0  0  0  0  0  0  0  0  0  0  0  0
   -6.7627   22.2339  -32.1577 H   0  0  0  0  0  0  0  0  0  0  0  0
   -9.7067   19.1002  -31.7525 H   0  0  0  0  0  0  0  0  0  0  0  0
   -8.1582   17.4878  -32.8528 H   0  0  0  0  0  0  0  0  0  0  0  0
   -6.1645   16.1109  -33.2943 H   0  0  0  0  0  0  0  0  0  0  0  0
   -6.9269   16.7668  -34.7828 H   0  0  0  0  0  0  0  0  0  0  0  0
   -5.1838   16.3330  -34.7828 H   0  0  0  0  0  0  0  0  0  0  0  0
   -1.6539   20.6576  -30.7341 H   0  0  0  0  0  0  0  0  0  0  0  0
   -0.0989   24.7988  -28.9141 H   0  0  0  0  0  0  0  0  0  0  0  0
   -1.0354   24.2025  -27.5422 H   0  0  0  0  0  0  0  0  0  0  0  0
  1  2  1  0
  2  3  1  0
  3  4  1  0
  4  5  2  0
  5  6  1  0
  6  7  1  0
  7  8  1  0
  8  9  1  0
  9 10  2  0
 10 11  1  0
 11 12  1  0
 11 13  2  0
 13 14  1  0
 14 15  2  0
 15 16  1  0
 16 17  1  0
  6 18  2  0
 18 19  1  0
 19 20  2  0
 20 21  1  0
 21 22  1  0
 22 23  1  0
 20  4  1  0
 15  9  1  0
 23 19  1  0
  1 24  1  0
  1 25  1  0
  1 26  1  0
  2 27  1  0
  2 28  1  0
  5 29  1  0
  7 30  1  0
  7 31  1  0
  8 32  1  0
  8 33  1  0
 10 34  1  0
 13 35  1  0
 14 36  1  0
 17 37  1  0
 17 38  1  0
 17 39  1  0
 18 40  1  0
 22 41  1  0
 22 42  1  0
M  CHG  1   8   1
M  END
>  <UniqueID>  (6) 
6

>  <SMILES>  (6) 
CCOc1cc(C[NH2+]c2cc(Cl)ccc2OC)cc2c1OCO2

>  <Energy>  (6) 
66.9787434188714

>  <Genealogy>  (6) 
CCOc1cc(C[NH2+]c2cc(Cl)ccc2OC)cc2c1OCO2 (protonated)
CCOc1cc(C[NH2+]c2cc(Cl)ccc2OC)cc2c1OCO2 (3D coordinates assigned)
CCOc1cc(C[NH2+]c2cc(Cl)ccc2OC)cc2c1OCO2 (nonaromatic ring conformer: 66.9787434188714 kcal/mol)

>  <smiles>  (6) 
CCOc1cc(CNc2cc(Cl)ccc2OC)cc2c1OCO2

>  <score_type>  (6) 
oracle

>  <origin>  (6) 
adg

>  <m_score__min__energy>  (6) 
-7.2800000000000002

>  <m_primary>  (6) 
energy

$$$$
6:0
     RDKit          3D

 46 48  0  0  0  0  0  0  0  0999 V2000
   -4.4570   19.6630  -33.4060 C   0  0  0  0  0  0  0  0  0  0  0  0
   -5.7160   19.0140  -33.9730 C   0  0  0  0  0  0  0  0  0  0  0  0
   -6.6500   18.5440  -32.8430 C   0  0  0  0  0  0  0  0  0  0  0  0
   -8.0660   18.8730  -33.0970 N   0  0  0  0  0  0  0  0  0  0  0  0
   -8.8650   19.1890  -31.8950 C   0  0  0  0  0  0  0  0  0  0  0  0
   -9.3880   20.6320  -31.8740 C   0  0  0  0  0  0  0  0  0  0  0  0
   -8.5210   21.4770  -32.6270 O   0  0  0  0  0  0  0  0  0  0  0  0
   -7.4250   22.1690  -32.0970 C   0  0  0  0  0  0  0  0  0  0  0  0
   -7.2590   23.5580  -32.2590 C   0  0  0  0  0  0  0  0  0  0  0  0
   -6.1470   24.2060  -31.7110 C   0  0  0  0  0  0  0  0  0  0  0  0
   -5.1870   23.4750  -30.9920 C   0  0  0  0  0  0  0  0  0  0  0  0
   -4.0520   24.0760  -30.4260 C   0  0  0  0  0  0  0  0  0  0  0  0
   -3.8450   25.3150  -30.5470 O   0  0  0  0  0  0  0  0  0  0  0  0
   -3.1380   23.2900  -29.7230 C   0  0  0  0  0  0  0  0  0  0  0  0
   -3.3720   21.9100  -29.5920 C   0  0  0  0  0  0  0  0  0  0  0  0
   -2.4350   21.0230  -28.8570 C   0  0  0  0  0  0  0  0  0  0  0  0
   -1.1980   20.6900  -29.4380 C   0  0  0  0  0  0  0  0  0  0  0  0
   -0.3020   19.8490  -28.7690 C   0  0  0  0  0  0  0  0  0  0  0  0
   -0.6340   19.3250  -27.5190 C   0  0  0  0  0  0  0  0  0  0  0  0
   -1.8640   19.6360  -26.9370 C   0  0  0  0  0  0  0  0  0  0  0  0
   -2.7640   20.4760  -27.6000 C   0  0  0  0  0  0  0  0  0  0  0  0
   -4.4560   21.3730  -30.1510 O   0  0  0  0  0  0  0  0  0  0  0  0
   -5.3520   22.0830  -30.8290 C   0  0  0  0  0  0  0  0  0  0  0  0
   -6.4670   21.4420  -31.3820 C   0  0  0  0  0  0  0  0  0  0  0  0
   -4.4970   19.6424  -32.3069 H   0  0  0  0  0  0  0  0  0  0  0  0
   -3.5716   19.1090  -33.7511 H   0  0  0  0  0  0  0  0  0  0  0  0
   -4.3947   20.7056  -33.7511 H   0  0  0  0  0  0  0  0  0  0  0  0
   -6.2479   19.7461  -34.5984 H   0  0  0  0  0  0  0  0  0  0  0  0
   -5.4209   18.1392  -34.5710 H   0  0  0  0  0  0  0  0  0  0  0  0
   -6.5557   17.4529  -32.7402 H   0  0  0  0  0  0  0  0  0  0  0  0
   -6.3480   19.0682  -31.9243 H   0  0  0  0  0  0  0  0  0  0  0  0
   -8.1110   19.6920  -33.7470 H   0  0  0  0  0  0  0  0  0  0  0  0
   -8.5100   18.0640  -33.5910 H   0  0  0  0  0  0  0  0  0  0  0  0
   -9.7260   18.5053  -31.8587 H   0  0  0  0  0  0  0  0  0  0  0  0
   -8.2034   19.0702  -31.0243 H   0  0  0  0  0  0  0  0  0  0  0  0
  -10.3960   20.6603  -32.3135 H   0  0  0  0  0  0  0  0  0  0  0  0
   -9.4239   20.9875  -30.8336 H   0  0  0  0  0  0  0  0  0  0  0  0
   -8.0079   24.1366  -32.8196 H   0  0  0  0  0  0  0  0  0  0  0  0
   -6.0240   25.2910  -31.8435 H   0  0  0  0  0  0  0  0  0  0  0  0
   -2.2426   23.7461  -29.2755 H   0  0  0  0  0  0  0  0  0  0  0  0
   -0.9330   21.0940  -30.4262 H   0  0  0  0  0  0  0  0  0  0  0  0
    0.6657   19.6005  -29.2291 H   0  0  0  0  0  0  0  0  0  0  0  0
    0.0732   18.6672  -26.9926 H   0  0  0  0  0  0  0  0  0  0  0  0
   -2.1262   19.2189  -25.9535 H   0  0  0  0  0  0  0  0  0  0  0  0
   -3.7342   20.7113  -27.1382 H   0  0  0  0  0  0  0  0  0  0  0  0
   -6.5911   20.3566  -31.2532 H   0  0  0  0  0  0  0  0  0  0  0  0
  1  2  1  0
  2  3  1  0
  3  4  1  0
  4  5  1  0
  5  6  1  0
  6  7  1  0
  7  8  1  0
  8  9  2  0
  9 10  1  0
 10 11  2  0
 11 12  1  0
 12 13  2  0
 12 14  1  0
 14 15  2  0
 15 16  1  0
 16 17  2  0
 17 18  1  0
 18 19  2  0
 19 20  1  0
 20 21  2  0
 15 22  1  0
 22 23  1  0
 23 24  2  0
 24  8  1  0
 23 11  1  0
 21 16  1  0
  1 25  1  0
  1 26  1  0
  1 27  1  0
  2 28  1  0
  2 29  1  0
  3 30  1  0
  3 31  1  0
  4 32  1  0
  4 33  1  0
  5 34  1  0
  5 35  1  0
  6 36  1  0
  6 37  1  0
  9 38  1  0
 10 39  1  0
 14 40  1  0
 17 41  1  0
 18 42  1  0
 19 43  1  0
 20 44  1  0
 21 45  1  0
 24 46  1  0
M  CHG  1   4   1
M  END
>  <UniqueID>  (7) 
7

>  <SMILES>  (7) 
CCC[NH2+]CCOc1ccc2c(=O)cc(-c3ccccc3)oc2c1

>  <Energy>  (7) 
52.389641142310914

>  <Genealogy>  (7) 
CCC[NH2+]CCOc1ccc2c(=O)cc(-c3ccccc3)oc2c1 (protonated)
CCC[NH2+]CCOc1ccc2c(=O)cc(-c3ccccc3)oc2c1 (3D coordinates assigned)
CCC[NH2+]CCOc1ccc2c(=O)cc(-c3ccccc3)oc2c1 (optimized conformer: 52.389641142310914 kcal/mol)

>  <smiles>  (7) 
CCCNCCOc1ccc2c(=O)cc(-c3ccccc3)oc2c1

>  <score_type>  (7) 
oracle

>  <origin>  (7) 
adg

>  <m_score__min__energy>  (7) 
-7.7199999999999998

>  <m_primary>  (7) 
energy

$$$$
7:0
     RDKit          3D

 49 51  0  0  0  0  0  0  0  0999 V2000
   -5.9990   20.0080  -33.7940 C   0  0  0  0  0  0  0  0  0  0  0  0
   -7.0900   19.5100  -32.8930 C   0  0  0  0  0  0  0  0  0  0  0  0
   -7.9190   20.2780  -32.0960 C   0  0  0  0  0  0  0  0  0  0  0  0
   -7.8730   21.7630  -31.8710 C   0  0  0  0  0  0  0  0  0  0  0  0
   -6.5350   22.3050  -32.1870 N   0  0  0  0  0  0  0  0  0  0  0  0
   -5.5230   21.8600  -31.1960 C   0  0  0  0  0  0  0  0  0  0  0  0
   -4.2840   22.7680  -31.2060 C   0  0  0  0  0  0  0  0  0  0  0  0
   -4.6150   24.1810  -30.8850 N   0  0  0  0  0  0  0  0  0  0  0  0
   -4.2180   24.5560  -29.5110 C   0  0  0  0  0  0  0  0  0  0  0  0
   -2.7420   24.2200  -29.2640 C   0  0  0  0  0  0  0  0  0  0  0  0
   -1.9900   25.3990  -28.9750 O   0  0  0  0  0  0  0  0  0  0  0  0
   -1.6000   25.8280  -27.6960 C   0  0  0  0  0  0  0  0  0  0  0  0
   -2.2700   25.2930  -26.5870 C   0  0  0  0  0  0  0  0  0  0  0  0
   -1.9210   25.6820  -25.2910 C   0  0  0  0  0  0  0  0  0  0  0  0
   -0.8990   26.6140  -25.0910 C   0  0  0  0  0  0  0  0  0  0  0  0
   -0.2290   27.1600  -26.1890 C   0  0  0  0  0  0  0  0  0  0  0  0
   -0.5750   26.7730  -27.4870 C   0  0  0  0  0  0  0  0  0  0  0  0
   -6.0330   24.5260  -31.1350 C   0  0  0  0  0  0  0  0  0  0  0  0
   -6.5750   23.7800  -32.3620 C   0  0  0  0  0  0  0  0  0  0  0  0
   -8.7800   19.3760  -31.4990 C   0  0  0  0  0  0  0  0  0  0  0  0
   -8.4950   18.1330  -31.9360 N   0  0  0  0  0  0  0  0  0  0  0  0
   -7.4820   18.2230  -32.7870 N   0  0  0  0  0  0  0  0  0  0  0  0
   -6.8880   17.0740  -33.4570 C   0  0  0  0  0  0  0  0  0  0  0  0
   -5.1656   20.3884  -33.1851 H   0  0  0  0  0  0  0  0  0  0  0  0
   -5.6427   19.1833  -34.4288 H   0  0  0  0  0  0  0  0  0  0  0  0
   -6.3886   20.8174  -34.4288 H   0  0  0  0  0  0  0  0  0  0  0  0
   -8.6195   22.2481  -32.5171 H   0  0  0  0  0  0  0  0  0  0  0  0
   -8.0915   21.9640  -30.8118 H   0  0  0  0  0  0  0  0  0  0  0  0
   -5.9729   21.8811  -30.1924 H   0  0  0  0  0  0  0  0  0  0  0  0
   -5.2050   20.8413  -31.4628 H   0  0  0  0  0  0  0  0  0  0  0  0
   -3.5665   22.3950  -30.4603 H   0  0  0  0  0  0  0  0  0  0  0  0
   -3.8592   22.7450  -32.2204 H   0  0  0  0  0  0  0  0  0  0  0  0
   -4.3706   25.6366  -29.3730 H   0  0  0  0  0  0  0  0  0  0  0  0
   -4.8345   23.9900  -28.7971 H   0  0  0  0  0  0  0  0  0  0  0  0
   -2.6683   23.5284  -28.4118 H   0  0  0  0  0  0  0  0  0  0  0  0
   -2.3313   23.7565  -30.1731 H   0  0  0  0  0  0  0  0  0  0  0  0
   -3.0771   24.5610  -26.7382 H   0  0  0  0  0  0  0  0  0  0  0  0
   -2.4512   25.2542  -24.4274 H   0  0  0  0  0  0  0  0  0  0  0  0
   -0.6224   26.9174  -24.0705 H   0  0  0  0  0  0  0  0  0  0  0  0
    0.5729   27.8963  -26.0316 H   0  0  0  0  0  0  0  0  0  0  0  0
   -0.0458   27.2072  -28.3480 H   0  0  0  0  0  0  0  0  0  0  0  0
   -6.6307   24.2500  -30.2537 H   0  0  0  0  0  0  0  0  0  0  0  0
   -6.1013   25.6073  -31.3251 H   0  0  0  0  0  0  0  0  0  0  0  0
   -7.6172   24.0882  -32.5317 H   0  0  0  0  0  0  0  0  0  0  0  0
   -5.9364   24.0349  -33.2206 H   0  0  0  0  0  0  0  0  0  0  0  0
   -9.5727   19.6322  -30.7806 H   0  0  0  0  0  0  0  0  0  0  0  0
   -6.5194   16.3611  -32.7048 H   0  0  0  0  0  0  0  0  0  0  0  0
   -7.6458   16.5842  -34.0861 H   0  0  0  0  0  0  0  0  0  0  0  0
   -6.0502   17.4091  -34.0861 H   0  0  0  0  0  0  0  0  0  0  0  0
  1  2  1  0
  2  3  2  0
  3  4  1  0
  4  5  1  0
  5  6  1  0
  6  7  1  0
  7  8  1  0
  8  9  1  0
  9 10  1  0
 10 11  1  0
 11 12  1  0
 12 13  2  0
 13 14  1  0
 14 15  2  0
 15 16  1  0
 16 17  2  0
  8 18  1  0
 18 19  1  0
  3 20  1  0
 20 21  2  0
 21 22  1  0
 22 23  1  0
 22  2  1  0
 19  5  1  0
 17 12  1  0
  1 24  1  0
  1 25  1  0
  1 26  1  0
  4 27  1  0
  4 28  1  0
  6 29  1  0
  6 30  1  0
  7 31  1  0
  7 32  1  0
  9 33  1  0
  9 34  1  0
 10 35  1  0
 10 36  1  0
 13 37  1  0
 14 38  1  0
 15 39  1  0
 16 40  1  0
 17 41  1  0
 18 42  1  0
 18 43  1  0
 19 44  1  0
 19 45  1  0
 20 46  1  0
 23 47  1  0
 23 48  1  0
 23 49  1  0
M  END
>  <UniqueID>  (8) 
8

>  <SMILES>  (8) 
Cc1c(CN2CCN(CCOc3ccccc3)CC2)cnn1C

>  <Energy>  (8) 
89.94503674239418

>  <Genealogy>  (8) 
Cc1c(CN2CCN(CCOc3ccccc3)CC2)cnn1C (3D coordinates assigned)
Cc1c(CN2CCN(CCOc3ccccc3)CC2)cnn1C (nonaromatic ring conformer: 89.94503674239418 kcal/mol)

>  <smiles>  (8) 
Cc1c(CN2CCN(CCOc3ccccc3)CC2)cnn1C

>  <score_type>  (8) 
oracle

>  <origin>  (8) 
adg

>  <m_score__min__energy>  (8) 
-8.7100000000000009

>  <m_primary>  (8) 
energy

$$$$
8:0
     RDKit          3D

 61 63  0  0  0  0  0  0  0  0999 V2000
   -9.1150   19.1700  -31.9710 C   0  0  0  0  0  0  0  0  0  0  0  0
   -7.7720   19.7410  -32.2110 N   0  0  0  0  0  0  0  0  0  0  0  0
   -7.4950   21.0320  -31.8090 C   0  0  0  0  0  0  0  0  0  0  0  0
   -6.3310   21.6840  -32.2540 C   0  0  0  0  0  0  0  0  0  0  0  0
   -5.3830   20.9750  -33.0060 C   0  0  0  0  0  0  0  0  0  0  0  0
   -4.1840   21.6280  -33.4440 N   0  0  0  0  0  0  0  0  0  0  0  0
   -2.9520   21.4990  -32.6690 C   0  0  0  0  0  0  0  0  0  0  0  0
   -3.2330   20.8510  -31.3090 C   0  0  0  0  0  0  0  0  0  0  0  0
   -3.2910   21.8900  -30.1820 C   0  0  0  0  0  0  0  0  0  0  0  0
   -3.4740   21.2670  -28.9230 O   0  0  0  0  0  0  0  0  0  0  0  0
   -3.1840   22.1530  -27.8560 C   0  0  0  0  0  0  0  0  0  0  0  0
   -1.7410   21.9710  -27.3660 C   0  0  0  0  0  0  0  0  0  0  0  0
   -1.6060   20.7640  -26.4160 C   0  0  0  0  0  0  0  0  0  0  0  0
   -2.1790   19.5240  -26.9930 N   0  0  0  0  0  0  0  0  0  0  0  0
   -1.1270   18.5570  -27.3600 C   0  0  0  0  0  0  0  0  0  0  0  0
   -3.1030   18.9010  -26.0280 C   0  0  0  0  0  0  0  0  0  0  0  0
   -5.5950   19.6140  -33.2820 C   0  0  0  0  0  0  0  0  0  0  0  0
   -4.6360   18.8620  -33.9920 C   0  0  0  0  0  0  0  0  0  0  0  0
   -4.8330   17.5040  -34.2300 C   0  0  0  0  0  0  0  0  0  0  0  0
   -5.9810   16.8750  -33.7630 C   0  0  0  0  0  0  0  0  0  0  0  0
   -6.9530   17.6020  -33.0780 C   0  0  0  0  0  0  0  0  0  0  0  0
   -6.7980   18.9940  -32.8490 C   0  0  0  0  0  0  0  0  0  0  0  0
   -6.1840   23.1680  -31.9840 C   0  0  0  0  0  0  0  0  0  0  0  0
   -6.5370   23.5400  -30.5320 C   0  0  0  0  0  0  0  0  0  0  0  0
   -7.5850   22.6200  -29.8730 C   0  0  0  0  0  0  0  0  0  0  0  0
   -8.4120   21.8170  -30.8860 C   0  0  0  0  0  0  0  0  0  0  0  0
   -9.2931   19.0943  -30.8882 H   0  0  0  0  0  0  0  0  0  0  0  0
   -9.8768   19.8221  -32.4232 H   0  0  0  0  0  0  0  0  0  0  0  0
   -9.1740   18.1690  -32.4232 H   0  0  0  0  0  0  0  0  0  0  0  0
   -4.2530   22.3140  -34.2300 H   0  0  0  0  0  0  0  0  0  0  0  0
   -2.2386   20.8741  -33.2263 H   0  0  0  0  0  0  0  0  0  0  0  0
   -2.5320   22.5020  -32.5029 H   0  0  0  0  0  0  0  0  0  0  0  0
   -4.1979   20.3252  -31.3581 H   0  0  0  0  0  0  0  0  0  0  0  0
   -2.4122   20.1530  -31.0876 H   0  0  0  0  0  0  0  0  0  0  0  0
   -2.3491   22.4581  -30.1682 H   0  0  0  0  0  0  0  0  0  0  0  0
   -4.1437   22.5597  -30.3677 H   0  0  0  0  0  0  0  0  0  0  0  0
   -3.3185   23.1885  -28.2018 H   0  0  0  0  0  0  0  0  0  0  0  0
   -3.8673   21.9330  -27.0225 H   0  0  0  0  0  0  0  0  0  0  0  0
   -1.0868   21.8139  -28.2362 H   0  0  0  0  0  0  0  0  0  0  0  0
   -1.4518   22.8760  -26.8117 H   0  0  0  0  0  0  0  0  0  0  0  0
   -0.5391   20.5963  -26.2072 H   0  0  0  0  0  0  0  0  0  0  0  0
   -2.1648   20.9960  -25.4973 H   0  0  0  0  0  0  0  0  0  0  0  0
   -2.7300   19.7600  -27.8530 H   0  0  0  0  0  0  0  0  0  0  0  0
   -0.6756   18.1421  -26.4467 H   0  0  0  0  0  0  0  0  0  0  0  0
   -1.5683   17.7427  -27.9535 H   0  0  0  0  0  0  0  0  0  0  0  0
   -0.3527   19.0652  -27.9535 H   0  0  0  0  0  0  0  0  0  0  0  0
   -2.7699   19.1256  -25.0040 H   0  0  0  0  0  0  0  0  0  0  0  0
   -4.1164   19.3010  -26.1800 H   0  0  0  0  0  0  0  0  0  0  0  0
   -3.1122   17.8116  -26.1800 H   0  0  0  0  0  0  0  0  0  0  0  0
   -3.7235   19.3529  -34.3614 H   0  0  0  0  0  0  0  0  0  0  0  0
   -4.0795   16.9288  -34.7880 H   0  0  0  0  0  0  0  0  0  0  0  0
   -6.1232   15.7979  -33.9349 H   0  0  0  0  0  0  0  0  0  0  0  0
   -7.8537   17.0892  -32.7094 H   0  0  0  0  0  0  0  0  0  0  0  0
   -5.1420   23.4609  -32.1800 H   0  0  0  0  0  0  0  0  0  0  0  0
   -6.8842   23.6994  -32.6453 H   0  0  0  0  0  0  0  0  0  0  0  0
   -5.6158   23.4962  -29.9324 H   0  0  0  0  0  0  0  0  0  0  0  0
   -6.9807   24.5460  -30.5657 H   0  0  0  0  0  0  0  0  0  0  0  0
   -7.0624   21.9137  -29.2112 H   0  0  0  0  0  0  0  0  0  0  0  0
   -8.2840   23.2659  -29.3215 H   0  0  0  0  0  0  0  0  0  0  0  0
   -9.0686   21.1186  -30.3465 H   0  0  0  0  0  0  0  0  0  0  0  0
   -9.0159   22.5125  -31.4873 H   0  0  0  0  0  0  0  0  0  0  0  0
  1  2  1  0
  2  3  2  0
  3  4  1  0
  4  5  2  0
  5  6  1  0
  6  7  1  0
  7  8  1  0
  8  9  1  0
  9 10  1  0
 10 11  1  0
 11 12  1  0
 12 13  1  0
 13 14  1  0
 14 15  1  0
 14 16  1  0
  5 17  1  0
 17 18  2  0
 18 19  1  0
 19 20  2  0
 20 21  1  0
 21 22  2  0
  4 23  1  0
 23 24  1  0
 24 25  1  0
 25 26  1  0
 22  2  1  0
 26  3  1  0
 22 17  1  0
  1 27  1  0
  1 28  1  0
  1 29  1  0
  6 30  1  0
  7 31  1  0
  7 32  1  0
  8 33  1  0
  8 34  1  0
  9 35  1  0
  9 36  1  0
 11 37  1  0
 11 38  1  0
 12 39  1  0
 12 40  1  0
 13 41  1  0
 13 42  1  0
 14 43  1  0
 15 44  1  0
 15 45  1  0
 15 46  1  0
 16 47  1  0
 16 48  1  0
 16 49  1  0
 18 50  1  0
 19 51  1  0
 20 52  1  0
 21 53  1  0
 23 54  1  0
 23 55  1  0
 24 56  1  0
 24 57  1  0
 25 58  1  0
 25 59  1  0
 26 60  1  0
 26 61  1  0
M  CHG  2   2   1  14   1
M  END
>  <UniqueID>  (9) 
9

>  <SMILES>  (9) 
C[n+]1c2c(c(NCCCOCCC[NH+](C)C)c3ccccc31)CCCC2

>  <Energy>  (9) 
83.52264439356549

>  <Genealogy>  (9) 
C[n+]1c2c(c(NCCCOCCC[NH+](C)C)c3ccccc31)CCCC2 (protonated)
C[n+]1c2c(c(NCCCOCCC[NH+](C)C)c3ccccc31)CCCC2 (3D coordinates assigned)
C[n+]1c2c(c(NCCCOCCC[NH+](C)C)c3ccccc31)CCCC2 (nonaromatic ring conformer: 83.52264439356549 kcal/mol)

>  <smiles>  (9) 
CN(C)CCCOCCCNc1c2c([n+](C)c3ccccc13)CCCC2

>  <score_type>  (9) 
oracle

>  <origin>  (9) 
adg

>  <m_score__min__energy>  (9) 
-8.5700000000000003

>  <m_primary>  (9) 
energy

$$$$
9:0
     RDKit          3D

 80 82  0  0  0  0  0  0  0  0999 V2000
    0.9500   26.0990  -38.7450 C   0  0  0  0  0  0  0  0  0  0  0  0
    1.3890   24.9970  -37.9830 O   0  0  0  0  0  0  0  0  0  0  0  0
    1.0110   25.1810  -36.6360 C   0  0  0  0  0  0  0  0  0  0  0  0
    2.1230   24.6780  -35.7220 C   0  0  0  0  0  0  0  0  0  0  0  0
    1.7610   23.4280  -35.1600 O   0  0  0  0  0  0  0  0  0  0  0  0
    1.3680   22.5010  -36.1530 C   0  0  0  0  0  0  0  0  0  0  0  0
    0.2560   21.5870  -35.6290 C   0  0  0  0  0  0  0  0  0  0  0  0
    0.0040   21.8580  -34.2620 O   0  0  0  0  0  0  0  0  0  0  0  0
   -1.0670   21.0750  -33.7680 C   0  0  0  0  0  0  0  0  0  0  0  0
   -0.7370   20.5450  -32.3670 C   0  0  0  0  0  0  0  0  0  0  0  0
   -1.6630   21.0060  -31.4010 O   0  0  0  0  0  0  0  0  0  0  0  0
   -1.3620   20.4960  -30.1150 C   0  0  0  0  0  0  0  0  0  0  0  0
   -1.2360   21.6560  -29.1010 C   0  0  0  0  0  0  0  0  0  0  0  0
   -2.1520   21.5860  -27.9160 N   0  0  0  0  0  0  0  0  0  0  0  0
   -2.4560   20.1740  -27.5590 C   0  0  0  0  0  0  0  0  0  0  0  0
   -1.5210   22.2310  -26.7320 C   0  0  0  0  0  0  0  0  0  0  0  0
   -3.4210   22.3460  -28.1860 C   0  0  0  0  0  0  0  0  0  0  0  0
   -3.3580   23.8980  -28.1520 C   0  0  0  0  0  0  0  0  0  0  0  0
   -2.5750   24.5430  -29.3060 C   0  0  0  0  0  0  0  0  0  0  0  0
   -3.4560   24.9260  -30.3630 O   0  0  0  0  0  0  0  0  0  0  0  0
   -4.6380   24.2610  -30.7300 C   0  0  0  0  0  0  0  0  0  0  0  0
   -5.9060   24.8310  -30.5830 C   0  0  0  0  0  0  0  0  0  0  0  0
   -7.0470   24.1150  -30.9370 C   0  0  0  0  0  0  0  0  0  0  0  0
   -6.9540   22.8120  -31.4870 C   0  0  0  0  0  0  0  0  0  0  0  0
   -5.6680   22.2340  -31.6560 C   0  0  0  0  0  0  0  0  0  0  0  0
   -4.5280   22.9740  -31.2560 C   0  0  0  0  0  0  0  0  0  0  0  0
   -5.5570   20.9640  -32.1800 N   0  0  0  0  0  0  0  0  0  0  0  0
   -4.2500   20.4620  -32.6560 C   0  0  0  0  0  0  0  0  0  0  0  0
   -6.6750   20.1620  -32.2400 C   0  0  0  0  0  0  0  0  0  0  0  0
   -6.5750   18.7650  -32.4500 C   0  0  0  0  0  0  0  0  0  0  0  0
   -7.7130   17.9630  -32.5040 C   0  0  0  0  0  0  0  0  0  0  0  0
   -8.9700   18.5250  -32.3260 C   0  0  0  0  0  0  0  0  0  0  0  0
   -9.0990   19.8930  -32.0950 C   0  0  0  0  0  0  0  0  0  0  0  0
   -7.9630   20.7390  -32.0610 C   0  0  0  0  0  0  0  0  0  0  0  0
   -8.0760   22.0930  -31.8380 N   0  0  0  0  0  0  0  0  0  0  0  0
   -9.3890   22.7630  -31.9550 C   0  0  0  0  0  0  0  0  0  0  0  0
    0.6284   26.9063  -38.0706 H   0  0  0  0  0  0  0  0  0  0  0  0
    1.7739   26.4576  -39.3795 H   0  0  0  0  0  0  0  0  0  0  0  0
    0.1052   25.7929  -39.3795 H   0  0  0  0  0  0  0  0  0  0  0  0
    0.8369   26.2506  -36.4470 H   0  0  0  0  0  0  0  0  0  0  0  0
    0.0880   24.6176  -36.4343 H   0  0  0  0  0  0  0  0  0  0  0  0
    3.0485   24.5609  -36.3049 H   0  0  0  0  0  0  0  0  0  0  0  0
    2.2813   25.4055  -34.9122 H   0  0  0  0  0  0  0  0  0  0  0  0
    1.0007   23.0487  -37.0334 H   0  0  0  0  0  0  0  0  0  0  0  0
    2.2365   21.8827  -36.4239 H   0  0  0  0  0  0  0  0  0  0  0  0
   -0.6619   21.7620  -36.2094 H   0  0  0  0  0  0  0  0  0  0  0  0
    0.5730   20.5390  -35.7348 H   0  0  0  0  0  0  0  0  0  0  0  0
   -1.9754   21.6933  -33.7174 H   0  0  0  0  0  0  0  0  0  0  0  0
   -1.2286   20.2225  -34.4442 H   0  0  0  0  0  0  0  0  0  0  0  0
   -0.7607   19.4454  -32.3872 H   0  0  0  0  0  0  0  0  0  0  0  0
    0.2613   20.9129  -32.0877 H   0  0  0  0  0  0  0  0  0  0  0  0
   -2.1670   19.8182  -29.7946 H   0  0  0  0  0  0  0  0  0  0  0  0
   -0.4083   19.9495  -30.1580 H   0  0  0  0  0  0  0  0  0  0  0  0
   -0.2012   21.6680  -28.7281 H   0  0  0  0  0  0  0  0  0  0  0  0
   -1.5233   22.5656  -29.6488 H   0  0  0  0  0  0  0  0  0  0  0  0
   -2.4785   20.0693  -26.4642 H   0  0  0  0  0  0  0  0  0  0  0  0
   -3.4351   19.8934  -27.9744 H   0  0  0  0  0  0  0  0  0  0  0  0
   -1.6791   19.5153  -27.9744 H   0  0  0  0  0  0  0  0  0  0  0  0
   -1.9424   21.8002  -25.8117 H   0  0  0  0  0  0  0  0  0  0  0  0
   -0.4351   22.0566  -26.7547 H   0  0  0  0  0  0  0  0  0  0  0  0
   -1.7192   23.3128  -26.7547 H   0  0  0  0  0  0  0  0  0  0  0  0
   -3.7716   22.0539  -29.1869 H   0  0  0  0  0  0  0  0  0  0  0  0
   -4.0868   22.0778  -27.3524 H   0  0  0  0  0  0  0  0  0  0  0  0
   -4.3884   24.2818  -28.1827 H   0  0  0  0  0  0  0  0  0  0  0  0
   -2.8196   24.1630  -27.2301 H   0  0  0  0  0  0  0  0  0  0  0  0
   -2.0505   25.4348  -28.9323 H   0  0  0  0  0  0  0  0  0  0  0  0
   -1.8529   23.8105  -29.6959 H   0  0  0  0  0  0  0  0  0  0  0  0
   -6.0032   25.8519  -30.1851 H   0  0  0  0  0  0  0  0  0  0  0  0
   -8.0378   24.5687  -30.7871 H   0  0  0  0  0  0  0  0  0  0  0  0
   -3.5309   22.5220  -31.3630 H   0  0  0  0  0  0  0  0  0  0  0  0
   -3.6143   20.2178  -31.7921 H   0  0  0  0  0  0  0  0  0  0  0  0
   -4.4038   19.5589  -33.2650 H   0  0  0  0  0  0  0  0  0  0  0  0
   -3.7597   21.2358  -33.2650 H   0  0  0  0  0  0  0  0  0  0  0  0
   -5.5830   18.3058  -32.5724 H   0  0  0  0  0  0  0  0  0  0  0  0
   -7.6154   16.8829  -32.6879 H   0  0  0  0  0  0  0  0  0  0  0  0
   -9.8663   17.8887  -32.3674 H   0  0  0  0  0  0  0  0  0  0  0  0
  -10.0989   20.3231  -31.9365 H   0  0  0  0  0  0  0  0  0  0  0  0
   -9.7877   22.9664  -30.9502 H   0  0  0  0  0  0  0  0  0  0  0  0
   -9.2698   23.7105  -32.5009 H   0  0  0  0  0  0  0  0  0  0  0  0
  -10.0863   22.1105  -32.5009 H   0  0  0  0  0  0  0  0  0  0  0  0
  1  2  1  0
  2  3  1  0
  3  4  1  0
  4  5  1  0
  5  6  1  0
  6  7  1  0
  7  8  1  0
  8  9  1  0
  9 10  1  0
 10 11  1  0
 11 12  1  0
 12 13  1  0
 13 14  1  0
 14 15  1  0
 14 16  1  0
 14 17  1  0
 17 18  1  0
 18 19  1  0
 19 20  1  0
 20 21  1  0
 21 22  2  0
 22 23  1  0
 23 24  2  0
 24 25  1  0
 25 26  2  0
 25 27  1  0
 27 28  1  0
 27 29  2  0
 29 30  1  0
 30 31  2  0
 31 32  1  0
 32 33  2  0
 33 34  1  0
 34 35  2  0
 35 36  1  0
 26 21  1  0
 34 29  1  0
 35 24  1  0
  1 37  1  0
  1 38  1  0
  1 39  1  0
  3 40  1  0
  3 41  1  0
  4 42  1  0
  4 43  1  0
  6 44  1  0
  6 45  1  0
  7 46  1  0
  7 47  1  0
  9 48  1  0
  9 49  1  0
 10 50  1  0
 10 51  1  0
 12 52  1  0
 12 53  1  0
 13 54  1  0
 13 55  1  0
 15 56  1  0
 15 57  1  0
 15 58  1  0
 16 59  1  0
 16 60  1  0
 16 61  1  0
 17 62  1  0
 17 63  1  0
 18 64  1  0
 18 65  1  0
 19 66  1  0
 19 67  1  0
 22 68  1  0
 23 69  1  0
 26 70  1  0
 28 71  1  0
 28 72  1  0
 28 73  1  0
 30 74  1  0
 31 75  1  0
 32 76  1  0
 33 77  1  0
 36 78  1  0
 36 79  1  0
 36 80  1  0
M  CHG  3  14   1  27   1  35   1
M  END
>  <UniqueID>  (10) 
10

>  <SMILES>  (10) 
COCCOCCOCCOCC[N+](C)(C)CCCOc1ccc2c(c1)[n+](C)c1ccccc1[n+]2C

>  <Energy>  (10) 
129.3912751921448

>  <Genealogy>  (10) 
COCCOCCOCCOCC[N+](C)(C)CCCOc1ccc2c(c1)[n+](C)c1ccccc1[n+]2C (3D coordinates assigned)
COCCOCCOCCOCC[N+](C)(C)CCCOc1ccc2c(c1)[n+](C)c1ccccc1[n+]2C (optimized conformer: 129.3912751921448 kcal/mol)

>  <smiles>  (10) 
COCCOCCOCCOCC[N+](C)(C)CCCOc1ccc2c(c1)[n+](C)c1ccccc1[n+]2C

>  <score_type>  (10) 
oracle

>  <origin>  (10) 
adg

>  <m_score__min__energy>  (10) 
-7.5899999999999999

>  <m_primary>  (10) 
energy

$$$$
10:0
     RDKit          3D

 55 56  0  0  0  0  0  0  0  0999 V2000
   -2.3010   19.9090  -27.0260 C   0  0  0  0  0  0  0  0  0  0  0  0
   -1.2050   20.5380  -26.3730 O   0  0  0  0  0  0  0  0  0  0  0  0
   -0.9310   21.9120  -26.4240 C   0  0  0  0  0  0  0  0  0  0  0  0
   -0.5130   22.5460  -25.2490 C   0  0  0  0  0  0  0  0  0  0  0  0
   -0.2090   23.9100  -25.2500 C   0  0  0  0  0  0  0  0  0  0  0  0
   -0.3250   24.6550  -26.4260 C   0  0  0  0  0  0  0  0  0  0  0  0
   -0.7670   24.0410  -27.6080 C   0  0  0  0  0  0  0  0  0  0  0  0
   -0.8640   24.8390  -28.8770 C   0  0  0  0  0  0  0  0  0  0  0  0
   -2.2340   25.2940  -29.0610 N   0  0  0  0  0  0  0  0  0  0  0  0
   -3.2020   24.5530  -29.8040 C   0  0  0  0  0  0  0  0  0  0  0  0
   -3.4130   23.3400  -29.5390 O   0  0  0  0  0  0  0  0  0  0  0  0
   -3.9210   25.1920  -30.8200 O   0  0  0  0  0  0  0  0  0  0  0  0
   -5.3260   25.4190  -30.7470 C   0  0  0  0  0  0  0  0  0  0  0  0
   -5.9630   24.5110  -29.6850 C   0  0  0  0  0  0  0  0  0  0  0  0
   -7.2020   23.7750  -30.2100 C   0  0  0  0  0  0  0  0  0  0  0  0
   -6.8180   22.6210  -31.0890 C   0  0  0  0  0  0  0  0  0  0  0  0
   -7.6650   21.9360  -31.9530 C   0  0  0  0  0  0  0  0  0  0  0  0
   -7.0040   20.9810  -32.7380 C   0  0  0  0  0  0  0  0  0  0  0  0
   -5.6350   20.9250  -32.4870 C   0  0  0  0  0  0  0  0  0  0  0  0
   -4.6480   20.0650  -33.2110 C   0  0  0  0  0  0  0  0  0  0  0  0
   -3.2470   20.3990  -32.7930 C   0  0  0  0  0  0  0  0  0  0  0  0
   -2.9040   20.2240  -31.5900 O   0  0  0  0  0  0  0  0  0  0  0  0
   -2.3060   20.9240  -33.7470 N   0  0  0  0  0  0  0  0  0  0  0  0
   -0.8830   21.0810  -33.4260 C   0  0  0  0  0  0  0  0  0  0  0  0
   -0.0930   21.4990  -34.6740 C   0  0  0  0  0  0  0  0  0  0  0  0
   -0.3250   19.7680  -32.8580 C   0  0  0  0  0  0  0  0  0  0  0  0
   -5.2450   22.0680  -31.3150 S   0  0  0  0  0  0  0  0  0  0  0  0
   -1.0590   22.6670  -27.6070 C   0  0  0  0  0  0  0  0  0  0  0  0
   -2.9965   19.5099  -26.2730 H   0  0  0  0  0  0  0  0  0  0  0  0
   -2.8241   20.6443  -27.6550 H   0  0  0  0  0  0  0  0  0  0  0  0
   -1.9300   19.0864  -27.6550 H   0  0  0  0  0  0  0  0  0  0  0  0
   -0.4230   21.9669  -24.3181 H   0  0  0  0  0  0  0  0  0  0  0  0
    0.1227   24.3985  -24.3219 H   0  0  0  0  0  0  0  0  0  0  0  0
   -0.0694   25.7249  -26.4255 H   0  0  0  0  0  0  0  0  0  0  0  0
   -0.1940   25.7092  -28.8150 H   0  0  0  0  0  0  0  0  0  0  0  0
   -0.5695   24.2091  -29.7294 H   0  0  0  0  0  0  0  0  0  0  0  0
   -5.5095   26.4706  -30.4814 H   0  0  0  0  0  0  0  0  0  0  0  0
   -5.7745   25.1912  -31.7252 H   0  0  0  0  0  0  0  0  0  0  0  0
   -5.2192   23.7664  -29.3651 H   0  0  0  0  0  0  0  0  0  0  0  0
   -6.2822   25.1485  -28.8473 H   0  0  0  0  0  0  0  0  0  0  0  0
   -7.7832   23.3972  -29.3559 H   0  0  0  0  0  0  0  0  0  0  0  0
   -7.7996   24.4813  -30.8050 H   0  0  0  0  0  0  0  0  0  0  0  0
   -8.7469   22.1248  -32.0145 H   0  0  0  0  0  0  0  0  0  0  0  0
   -7.5131   20.3426  -33.4751 H   0  0  0  0  0  0  0  0  0  0  0  0
   -4.8516   19.0089  -32.9802 H   0  0  0  0  0  0  0  0  0  0  0  0
   -4.7472   20.2455  -34.2915 H   0  0  0  0  0  0  0  0  0  0  0  0
   -2.6440   21.1480  -34.7130 H   0  0  0  0  0  0  0  0  0  0  0  0
   -0.7778   21.8710  -32.6679 H   0  0  0  0  0  0  0  0  0  0  0  0
    0.8410   21.9932  -34.3683 H   0  0  0  0  0  0  0  0  0  0  0  0
    0.1431   20.6078  -35.2740 H   0  0  0  0  0  0  0  0  0  0  0  0
   -0.6970   22.1955  -35.2740 H   0  0  0  0  0  0  0  0  0  0  0  0
   -0.3418   19.8075  -31.7588 H   0  0  0  0  0  0  0  0  0  0  0  0
   -0.9433   18.9267  -33.2041 H   0  0  0  0  0  0  0  0  0  0  0  0
    0.7099   19.6292  -33.2041 H   0  0  0  0  0  0  0  0  0  0  0  0
   -1.3895   22.1775  -28.5350 H   0  0  0  0  0  0  0  0  0  0  0  0
  1  2  1  0
  2  3  1  0
  3  4  2  0
  4  5  1  0
  5  6  2  0
  6  7  1  0
  7  8  1  0
  8  9  1  0
  9 10  1  0
 10 11  2  0
 10 12  1  0
 12 13  1  0
 13 14  1  0
 14 15  1  0
 15 16  1  0
 16 17  2  0
 17 18  1  0
 18 19  2  0
 19 20  1  0
 20 21  1  0
 21 22  2  0
 21 23  1  0
 23 24  1  0
 24 25  1  0
 24 26  1  0
 19 27  1  0
  7 28  2  0
 28  3  1  0
 27 16  1  0
  1 29  1  0
  1 30  1  0
  1 31  1  0
  4 32  1  0
  5 33  1  0
  6 34  1  0
  8 35  1  0
  8 36  1  0
 13 37  1  0
 13 38  1  0
 14 39  1  0
 14 40  1  0
 15 41  1  0
 15 42  1  0
 17 43  1  0
 18 44  1  0
 20 45  1  0
 20 46  1  0
 23 47  1  0
 24 48  1  0
 25 49  1  0
 25 50  1  0
 25 51  1  0
 26 52  1  0
 26 53  1  0
 26 54  1  0
 28 55  1  0
M  CHG  1   9  -1
M  END
>  <UniqueID>  (11) 
11

>  <SMILES>  (11) 
COc1cccc(C[N-]C(=O)OCCCc2ccc(CC(=O)NC(C)C)s2)c1

>  <Energy>  (11) 
60.50759671952514

>  <Genealogy>  (11) 
COc1cccc(C[N-]C(=O)OCCCc2ccc(CC(=O)NC(C)C)s2)c1 (protonated)
COc1cccc(C[N-]C(=O)OCCCc2ccc(CC(=O)NC(C)C)s2)c1 (3D coordinates assigned)
COc1cccc(C[N-]C(=O)OCCCc2ccc(CC(=O)NC(C)C)s2)c1 (optimized conformer: 60.50759671952514 kcal/mol)

>  <smiles>  (11) 
COc1cccc(CNC(=O)OCCCc2ccc(CC(=O)NC(C)C)s2)c1

>  <score_type>  (11) 
oracle

>  <origin>  (11) 
adg

>  <m_score__min__energy>  (11) 
-10.699999999999999

>  <m_primary>  (11) 
energy

$$$$
11:0
     RDKit          3D

 54 55  0  0  0  0  0  0  0  0999 V2000
   -0.1480   20.6120  -31.0380 C   0  0  0  0  0  0  0  0  0  0  0  0
   -0.3540   21.1700  -32.4430 C   0  0  0  0  0  0  0  0  0  0  0  0
   -1.7800   21.5090  -32.6540 N   0  0  0  0  0  0  0  0  0  0  0  0
   -2.4080   20.6100  -33.6500 C   0  0  0  0  0  0  0  0  0  0  0  0
   -3.6770   19.9850  -33.0760 C   0  0  0  0  0  0  0  0  0  0  0  0
   -2.5220   21.4720  -31.3760 C   0  0  0  0  0  0  0  0  0  0  0  0
   -2.8080   22.8300  -30.9230 N   0  0  0  0  0  0  0  0  0  0  0  0
   -3.4280   23.0990  -29.6570 C   0  0  0  0  0  0  0  0  0  0  0  0
   -3.7770   22.1500  -28.9030 O   0  0  0  0  0  0  0  0  0  0  0  0
   -3.6600   24.5140  -29.2280 C   0  0  0  0  0  0  0  0  0  0  0  0
   -3.9370   25.3440  -30.4070 N   0  0  0  0  0  0  0  0  0  0  0  0
   -5.3800   25.4550  -30.6560 C   0  0  0  0  0  0  0  0  0  0  0  0
   -5.9530   24.1160  -31.0440 C   0  0  0  0  0  0  0  0  0  0  0  0
   -6.9790   23.5310  -30.2860 C   0  0  0  0  0  0  0  0  0  0  0  0
   -7.5230   22.3010  -30.6660 C   0  0  0  0  0  0  0  0  0  0  0  0
   -7.0520   21.6370  -31.8090 C   0  0  0  0  0  0  0  0  0  0  0  0
   -7.6290   20.3800  -32.2060 N   0  0  0  0  0  0  0  0  0  0  0  0
   -7.0420   19.6180  -33.3170 C   0  0  0  0  0  0  0  0  0  0  0  0
   -7.1830   18.0920  -33.0940 C   0  0  0  0  0  0  0  0  0  0  0  0
   -7.9480   17.7530  -31.9500 O   0  0  0  0  0  0  0  0  0  0  0  0
   -9.1630   18.4710  -31.9540 C   0  0  0  0  0  0  0  0  0  0  0  0
   -8.8900   19.9330  -31.6010 C   0  0  0  0  0  0  0  0  0  0  0  0
   -6.0280   22.2260  -32.5700 C   0  0  0  0  0  0  0  0  0  0  0  0
   -5.4800   23.4530  -32.1870 C   0  0  0  0  0  0  0  0  0  0  0  0
   -0.4292   21.3738  -30.2960 H   0  0  0  0  0  0  0  0  0  0  0  0
   -0.7757   19.7189  -30.9025 H   0  0  0  0  0  0  0  0  0  0  0  0
    0.9094   20.3410  -30.9025 H   0  0  0  0  0  0  0  0  0  0  0  0
    0.2572   22.0760  -32.5675 H   0  0  0  0  0  0  0  0  0  0  0  0
   -0.0528   20.4101  -33.1790 H   0  0  0  0  0  0  0  0  0  0  0  0
   -2.6638   21.1883  -34.5501 H   0  0  0  0  0  0  0  0  0  0  0  0
   -1.6990   19.8086  -33.9050 H   0  0  0  0  0  0  0  0  0  0  0  0
   -3.6320   20.0072  -31.9771 H   0  0  0  0  0  0  0  0  0  0  0  0
   -4.5535   20.5545  -33.4186 H   0  0  0  0  0  0  0  0  0  0  0  0
   -3.7599   18.9430  -33.4186 H   0  0  0  0  0  0  0  0  0  0  0  0
   -3.4681   20.9296  -31.5201 H   0  0  0  0  0  0  0  0  0  0  0  0
   -1.9095   20.9611  -30.6185 H   0  0  0  0  0  0  0  0  0  0  0  0
   -2.5640   23.6310  -31.5500 H   0  0  0  0  0  0  0  0  0  0  0  0
   -4.5191   24.5530  -28.5422 H   0  0  0  0  0  0  0  0  0  0  0  0
   -2.7638   24.8932  -28.7152 H   0  0  0  0  0  0  0  0  0  0  0  0
   -3.5070   24.8720  -31.2380 H   0  0  0  0  0  0  0  0  0  0  0  0
   -5.8787   25.8112  -29.7425 H   0  0  0  0  0  0  0  0  0  0  0  0
   -5.5454   26.1650  -31.4797 H   0  0  0  0  0  0  0  0  0  0  0  0
   -7.3568   24.0429  -29.3887 H   0  0  0  0  0  0  0  0  0  0  0  0
   -8.3262   21.8501  -30.0647 H   0  0  0  0  0  0  0  0  0  0  0  0
   -7.5564   19.8922  -34.2499 H   0  0  0  0  0  0  0  0  0  0  0  0
   -5.9708   19.8613  -33.3751 H   0  0  0  0  0  0  0  0  0  0  0  0
   -7.6687   17.6549  -33.9789 H   0  0  0  0  0  0  0  0  0  0  0  0
   -6.1698   17.6950  -32.9332 H   0  0  0  0  0  0  0  0  0  0  0  0
   -9.6198   18.4138  -32.9530 H   0  0  0  0  0  0  0  0  0  0  0  0
   -9.8493   18.0360  -31.2125 H   0  0  0  0  0  0  0  0  0  0  0  0
   -9.7139   20.5567  -31.9783 H   0  0  0  0  0  0  0  0  0  0  0  0
   -8.8138   20.0273  -30.5077 H   0  0  0  0  0  0  0  0  0  0  0  0
   -5.6558   21.7184  -33.4721 H   0  0  0  0  0  0  0  0  0  0  0  0
   -4.6731   23.9019  -32.7849 H   0  0  0  0  0  0  0  0  0  0  0  0
  1  2  1  0
  2  3  1  0
  3  4  1  0
  4  5  1  0
  3  6  1  0
  6  7  1  0
  7  8  1  0
  8  9  2  0
  8 10  1  0
 10 11  1  0
 11 12  1  0
 12 13  1  0
 13 14  2  0
 14 15  1  0
 15 16  2  0
 16 17  1  0
 17 18  1  0
 18 19  1  0
 19 20  1  0
 20 21  1  0
 21 22  1  0
 16 23  1  0
 23 24  2  0
 24 13  1  0
 22 17  1  0
  1 25  1  0
  1 26  1  0
  1 27  1  0
  2 28  1  0
  2 29  1  0
  4 30  1  0
  4 31  1  0
  5 32  1  0
  5 33  1  0
  5 34  1  0
  6 35  1  0
  6 36  1  0
  7 37  1  0
 10 38  1  0
 10 39  1  0
 11 40  1  0
 12 41  1  0
 12 42  1  0
 14 43  1  0
 15 44  1  0
 18 45  1  0
 18 46  1  0
 19 47  1  0
 19 48  1  0
 21 49  1  0
 21 50  1  0
 22 51  1  0
 22 52  1  0
 23 53  1  0
 24 54  1  0
M  END
>  <UniqueID>  (12) 
12

>  <SMILES>  (12) 
CCN(CC)CNC(=O)CNCc1ccc(N2CCOCC2)cc1

>  <Energy>  (12) 
55.443452766650665

>  <Genealogy>  (12) 
CCN(CC)CNC(=O)CNCc1ccc(N2CCOCC2)cc1 (3D coordinates assigned)
CCN(CC)CNC(=O)CNCc1ccc(N2CCOCC2)cc1 (nonaromatic ring conformer: 55.443452766650665 kcal/mol)

>  <smiles>  (12) 
CCN(CC)CNC(=O)CNCc1ccc(N2CCOCC2)cc1

>  <score_type>  (12) 
oracle

>  <origin>  (12) 
adg

>  <m_score__min__energy>  (12) 
-7.9100000000000001

>  <m_primary>  (12) 
energy

$$$$
12:0
     RDKit          3D

 57 60  0  0  0  0  0  0  0  0999 V2000
   -5.0860   15.7710  -33.0400 C   0  0  0  0  0  0  0  0  0  0  0  0
   -6.3430   15.9060  -33.8910 C   0  0  0  0  0  0  0  0  0  0  0  0
   -6.6380   17.2810  -34.1480 O   0  0  0  0  0  0  0  0  0  0  0  0
   -6.0080   18.3850  -33.5410 C   0  0  0  0  0  0  0  0  0  0  0  0
   -5.0130   19.1400  -34.1930 C   0  0  0  0  0  0  0  0  0  0  0  0
   -4.4190   20.2290  -33.5520 C   0  0  0  0  0  0  0  0  0  0  0  0
   -4.8080   20.5940  -32.2500 C   0  0  0  0  0  0  0  0  0  0  0  0
   -4.1660   21.7860  -31.5490 C   0  0  2  0  0  0  0  0  0  0  0  0
   -2.7870   21.3790  -30.9340 C   0  0  0  0  0  0  0  0  0  0  0  0
   -2.3850   22.1570  -29.6920 C   0  0  0  0  0  0  0  0  0  0  0  0
   -1.4020   21.7450  -29.0220 O   0  0  0  0  0  0  0  0  0  0  0  0
   -3.1110   23.3320  -29.2630 N   0  0  0  0  0  0  0  0  0  0  0  0
   -2.6240   24.1640  -28.1810 C   0  0  0  0  0  0  0  0  0  0  0  0
   -1.3200   24.6890  -28.2100 C   0  0  0  0  0  0  0  0  0  0  0  0
   -0.8570   25.4940  -27.1610 C   0  0  0  0  0  0  0  0  0  0  0  0
   -1.6940   25.7860  -26.0790 C   0  0  0  0  0  0  0  0  0  0  0  0
   -2.9980   25.2870  -26.0520 C   0  0  0  0  0  0  0  0  0  0  0  0
   -3.4630   24.4790  -27.0970 C   0  0  0  0  0  0  0  0  0  0  0  0
   -4.3630   23.6090  -29.9140 C   0  0  0  0  0  0  0  0  0  0  0  0
   -4.7050   24.8760  -30.2140 C   0  0  0  0  0  0  0  0  0  0  0  0
   -5.7770   25.1810  -31.2160 C   0  0  0  0  0  0  0  0  0  0  0  0
   -6.9510   24.2130  -31.0990 C   0  0  0  0  0  0  0  0  0  0  0  0
   -6.4810   22.7840  -31.0270 C   0  0  0  0  0  0  0  0  0  0  0  0
   -7.2700   21.8900  -31.3080 O   0  0  0  0  0  0  0  0  0  0  0  0
   -5.1020   22.4240  -30.4940 C   0  0  1  0  0  0  0  0  0  0  0  0
   -5.7960   19.8370  -31.5960 C   0  0  0  0  0  0  0  0  0  0  0  0
   -6.3890   18.7250  -32.2310 C   0  0  0  0  0  0  0  0  0  0  0  0
   -7.3640   17.9300  -31.6020 O   0  0  0  0  0  0  0  0  0  0  0  0
   -8.7690   18.1810  -31.5930 C   0  0  0  0  0  0  0  0  0  0  0  0
   -9.1000   19.4560  -32.3610 C   0  0  0  0  0  0  0  0  0  0  0  0
   -5.3594   15.8004  -31.9749 H   0  0  0  0  0  0  0  0  0  0  0  0
   -4.5916   14.8146  -33.2654 H   0  0  0  0  0  0  0  0  0  0  0  0
   -4.3998   16.6006  -33.2654 H   0  0  0  0  0  0  0  0  0  0  0  0
   -6.1882   15.3857  -34.8477 H   0  0  0  0  0  0  0  0  0  0  0  0
   -7.1876   15.4608  -33.3447 H   0  0  0  0  0  0  0  0  0  0  0  0
   -4.7023   18.8699  -35.2131 H   0  0  0  0  0  0  0  0  0  0  0  0
   -3.6395   20.8071  -34.0699 H   0  0  0  0  0  0  0  0  0  0  0  0
   -3.9885   22.5628  -32.3074 H   0  0  0  0  0  0  0  0  0  0  0  0
   -2.8326   20.3124  -30.6690 H   0  0  0  0  0  0  0  0  0  0  0  0
   -2.0295   21.6061  -31.6986 H   0  0  0  0  0  0  0  0  0  0  0  0
   -0.6596   24.4664  -29.0611 H   0  0  0  0  0  0  0  0  0  0  0  0
    0.1662   25.8970  -27.1883 H   0  0  0  0  0  0  0  0  0  0  0  0
   -1.3254   26.4081  -25.2501 H   0  0  0  0  0  0  0  0  0  0  0  0
   -3.6611   25.5291  -25.2084 H   0  0  0  0  0  0  0  0  0  0  0  0
   -4.4909   24.0882  -27.0699 H   0  0  0  0  0  0  0  0  0  0  0  0
   -4.1860   25.7061  -29.7124 H   0  0  0  0  0  0  0  0  0  0  0  0
   -6.1413   26.2052  -31.0477 H   0  0  0  0  0  0  0  0  0  0  0  0
   -5.3454   25.0765  -32.2224 H   0  0  0  0  0  0  0  0  0  0  0  0
   -7.5197   24.4489  -30.1874 H   0  0  0  0  0  0  0  0  0  0  0  0
   -7.5819   24.3249  -31.9931 H   0  0  0  0  0  0  0  0  0  0  0  0
   -5.3286   21.6876  -29.7089 H   0  0  0  0  0  0  0  0  0  0  0  0
   -6.1099   20.1144  -30.5789 H   0  0  0  0  0  0  0  0  0  0  0  0
   -9.2892   17.3329  -32.0622 H   0  0  0  0  0  0  0  0  0  0  0  0
   -9.0968   18.3043  -30.5503 H   0  0  0  0  0  0  0  0  0  0  0  0
   -9.3109   20.2682  -31.6497 H   0  0  0  0  0  0  0  0  0  0  0  0
   -8.2446   19.7355  -32.9936 H   0  0  0  0  0  0  0  0  0  0  0  0
   -9.9833   19.2841  -32.9936 H   0  0  0  0  0  0  0  0  0  0  0  0
  1  2  1  0
  2  3  1  0
  3  4  1  0
  4  5  2  0
  5  6  1  0
  6  7  2  0
  7  8  1  0
  8  9  1  0
  9 10  1  0
 10 11  2  0
 10 12  1  0
 12 13  1  0
 13 14  2  0
 14 15  1  0
 15 16  2  0
 16 17  1  0
 17 18  2  0
 12 19  1  0
 19 20  2  0
 20 21  1  0
 21 22  1  0
 22 23  1  0
 23 24  2  0
 23 25  1  0
  7 26  1  0
 26 27  2  0
 27 28  1  0
 28 29  1  0
 29 30  1  0
 27  4  1  0
 25  8  1  0
 18 13  1  0
 25 19  1  0
  1 31  1  0
  1 32  1  0
  1 33  1  0
  2 34  1  0
  2 35  1  0
  5 36  1  0
  6 37  1  0
  8 38  1  6
  9 39  1  0
  9 40  1  0
 14 41  1  0
 15 42  1  0
 16 43  1  0
 17 44  1  0
 18 45  1  0
 20 46  1  0
 21 47  1  0
 21 48  1  0
 22 49  1  0
 22 50  1  0
 25 51  1  1
 26 52  1  0
 29 53  1  0
 29 54  1  0
 30 55  1  0
 30 56  1  0
 30 57  1  0
M  END
>  <UniqueID>  (13) 
13

>  <SMILES>  (13) 
CCOc1ccc([C@@H]2CC(=O)N(c3ccccc3)C3=CCCC(=O)[C@H]32)cc1OCC

>  <Energy>  (13) 
71.30924911863562

>  <Genealogy>  (13) 
CCOc1ccc([C@@H]2CC(=O)N(c3ccccc3)C3=CCCC(=O)[C@H]32)cc1OCC (chirality)
CCOc1ccc([C@@H]2CC(=O)N(c3ccccc3)C3=CCCC(=O)[C@H]32)cc1OCC (3D coordinates assigned)
CCOc1ccc([C@@H]2CC(=O)N(c3ccccc3)C3=CCCC(=O)[C@H]32)cc1OCC (nonaromatic ring conformer: 71.30924911863562 kcal/mol)

>  <smiles>  (13) 
CCOc1ccc(C2CC(=O)N(c3ccccc3)C3=CCCC(=O)C32)cc1OCC

>  <score_type>  (13) 
oracle

>  <origin>  (13) 
adg

>  <m_score__min__energy>  (13) 
-9.0099999999999998

>  <m_primary>  (13) 
energy

$$$$
13:0
     RDKit          3D

 45 47  0  0  0  0  0  0  0  0999 V2000
   -0.4930   27.3740  -27.3140 C   0  0  0  0  0  0  0  0  0  0  0  0
   -0.2120   26.0080  -27.8410 C   0  0  0  0  0  0  0  0  0  0  0  0
    0.8690   25.2810  -27.4840 N   0  0  0  0  0  0  0  0  0  0  0  0
    0.7070   24.1290  -28.1640 C   0  0  0  0  0  0  0  0  0  0  0  0
   -0.4580   24.2040  -28.8920 C   0  0  0  0  0  0  0  0  0  0  0  0
   -1.0360   23.1420  -29.7750 C   0  0  0  0  0  0  0  0  0  0  0  0
   -2.5110   23.2430  -29.8130 N   0  0  0  0  0  0  0  0  0  0  0  0
   -3.0890   23.0480  -28.4610 C   0  0  0  0  0  0  0  0  0  0  0  0
   -4.6040   22.7870  -28.4880 C   0  0  0  0  0  0  0  0  0  0  0  0
   -5.4140   23.7050  -29.4350 C   0  0  0  0  0  0  0  0  0  0  0  0
   -5.4710   23.2110  -30.8250 N   0  0  0  0  0  0  0  0  0  0  0  0
   -6.7420   23.0250  -31.4750 C   0  0  0  0  0  0  0  0  0  0  0  0
   -7.7710   23.5780  -30.9970 O   0  0  0  0  0  0  0  0  0  0  0  0
   -6.8710   22.1870  -32.7180 C   0  0  0  0  0  0  0  0  0  0  0  0
   -7.0280   20.7350  -32.3700 C   0  0  0  0  0  0  0  0  0  0  0  0
   -8.2880   20.2120  -32.0450 C   0  0  0  0  0  0  0  0  0  0  0  0
   -8.4100   18.8510  -31.7550 C   0  0  0  0  0  0  0  0  0  0  0  0
   -7.2830   18.0280  -31.7960 C   0  0  0  0  0  0  0  0  0  0  0  0
   -6.0450   18.5820  -32.1340 C   0  0  0  0  0  0  0  0  0  0  0  0
   -5.9460   19.9090  -32.4140 N   0  0  0  0  0  0  0  0  0  0  0  0
   -4.2570   23.0010  -31.6350 C   0  0  0  0  0  0  0  0  0  0  0  0
   -3.0910   22.3590  -30.8540 C   0  0  0  0  0  0  0  0  0  0  0  0
   -1.0060   25.3720  -28.6720 O   0  0  0  0  0  0  0  0  0  0  0  0
   -0.4882   27.3509  -26.2143 H   0  0  0  0  0  0  0  0  0  0  0  0
    0.2807   28.0705  -27.6695 H   0  0  0  0  0  0  0  0  0  0  0  0
   -1.4788   27.7085  -27.6695 H   0  0  0  0  0  0  0  0  0  0  0  0
    1.3934   23.2698  -28.1408 H   0  0  0  0  0  0  0  0  0  0  0  0
   -0.6389   23.2631  -30.7937 H   0  0  0  0  0  0  0  0  0  0  0  0
   -0.7581   22.1565  -29.3731 H   0  0  0  0  0  0  0  0  0  0  0  0
   -2.5932   22.1872  -27.9885 H   0  0  0  0  0  0  0  0  0  0  0  0
   -2.9249   23.9772  -27.8955 H   0  0  0  0  0  0  0  0  0  0  0  0
   -4.7644   21.7457  -28.8041 H   0  0  0  0  0  0  0  0  0  0  0  0
   -4.9684   22.9988  -27.4720 H   0  0  0  0  0  0  0  0  0  0  0  0
   -6.4416   23.7826  -29.0503 H   0  0  0  0  0  0  0  0  0  0  0  0
   -4.9033   24.6790  -29.4577 H   0  0  0  0  0  0  0  0  0  0  0  0
   -7.7525   22.5187  -33.2863 H   0  0  0  0  0  0  0  0  0  0  0  0
   -5.9585   22.3079  -33.3202 H   0  0  0  0  0  0  0  0  0  0  0  0
   -9.1714   20.8669  -32.0187 H   0  0  0  0  0  0  0  0  0  0  0  0
   -9.3918   18.4287  -31.4949 H   0  0  0  0  0  0  0  0  0  0  0  0
   -7.3683   16.9559  -31.5650 H   0  0  0  0  0  0  0  0  0  0  0  0
   -5.1499   17.9439  -32.1735 H   0  0  0  0  0  0  0  0  0  0  0  0
   -4.5126   22.3437  -32.4792 H   0  0  0  0  0  0  0  0  0  0  0  0
   -3.9149   23.9936  -31.9632 H   0  0  0  0  0  0  0  0  0  0  0  0
   -3.4613   21.4452  -30.3664 H   0  0  0  0  0  0  0  0  0  0  0  0
   -2.2922   22.1528  -31.5816 H   0  0  0  0  0  0  0  0  0  0  0  0
  1  2  1  0
  2  3  2  0
  3  4  1  0
  4  5  2  0
  5  6  1  0
  6  7  1  0
  7  8  1  0
  8  9  1  0
  9 10  1  0
 10 11  1  0
 11 12  1  0
 12 13  2  0
 12 14  1  0
 14 15  1  0
 15 16  2  0
 16 17  1  0
 17 18  2  0
 18 19  1  0
 19 20  2  0
 11 21  1  0
 21 22  1  0
  5 23  1  0
 23  2  1  0
 22  7  1  0
 20 15  1  0
  1 24  1  0
  1 25  1  0
  1 26  1  0
  4 27  1  0
  6 28  1  0
  6 29  1  0
  8 30  1  0
  8 31  1  0
  9 32  1  0
  9 33  1  0
 10 34  1  0
 10 35  1  0
 14 36  1  0
 14 37  1  0
 16 38  1  0
 17 39  1  0
 18 40  1  0
 19 41  1  0
 21 42  1  0
 21 43  1  0
 22 44  1  0
 22 45  1  0
M  END
>  <UniqueID>  (14) 
14

>  <SMILES>  (14) 
Cc1ncc(CN2CCCN(C(=O)Cc3ccccn3)CC2)o1

>  <Energy>  (14) 
88.29781598671616

>  <Genealogy>  (14) 
Cc1ncc(CN2CCCN(C(=O)Cc3ccccn3)CC2)o1 (3D coordinates assigned)
Cc1ncc(CN2CCCN(C(=O)Cc3ccccn3)CC2)o1 (nonaromatic ring conformer: 88.29781598671616 kcal/mol)

>  <smiles>  (14) 
Cc1ncc(CN2CCCN(C(=O)Cc3ccccn3)CC2)o1

>  <score_type>  (14) 
oracle

>  <origin>  (14) 
adg

>  <m_score__min__energy>  (14) 
-6.04

>  <m_primary>  (14) 
energy

$$$$
14:0
     RDKit          3D

 72 75  0  0  0  0  0  0  0  0999 V2000
   -1.1820   18.1310  -33.2620 C   0  0  0  0  0  0  0  0  0  0  0  0
   -1.2990   18.9470  -34.5470 C   0  0  0  0  0  0  0  0  0  0  0  0
   -2.2230   20.0730  -34.3480 N   0  0  0  0  0  0  0  0  0  0  0  0
   -1.9840   20.7040  -33.0420 C   0  0  0  0  0  0  0  0  0  0  0  0
   -3.3090   21.1210  -32.3910 C   0  0  0  0  0  0  0  0  0  0  0  0
   -4.4220   21.1090  -33.3600 N   0  0  0  0  0  0  0  0  0  0  0  0
   -5.7110   21.1970  -32.6840 C   0  0  0  0  0  0  0  0  0  0  0  0
   -5.9980   22.3410  -31.8810 C   0  0  0  0  0  0  0  0  0  0  0  0
   -5.0890   23.4280  -31.7820 C   0  0  0  0  0  0  0  0  0  0  0  0
   -5.3550   24.5160  -30.9590 C   0  0  0  0  0  0  0  0  0  0  0  0
   -6.5230   24.5580  -30.2130 C   0  0  0  0  0  0  0  0  0  0  0  0
   -7.4460   23.5230  -30.3020 C   0  0  0  0  0  0  0  0  0  0  0  0
   -7.2160   22.4040  -31.1470 C   0  0  0  0  0  0  0  0  0  0  0  0
   -8.1260   21.3760  -31.2280 N   0  0  0  0  0  0  0  0  0  0  0  0
   -9.4940   21.5530  -30.6930 C   0  0  0  0  0  0  0  0  0  0  0  0
   -7.7660   20.1770  -31.8050 C   0  0  0  0  0  0  0  0  0  0  0  0
   -8.4950   18.9970  -31.5230 C   0  0  0  0  0  0  0  0  0  0  0  0
   -8.1840   17.7930  -32.1420 C   0  0  0  0  0  0  0  0  0  0  0  0
   -7.1990   17.7510  -33.1160 C   0  0  0  0  0  0  0  0  0  0  0  0
   -6.4570   18.8970  -33.4350 C   0  0  0  0  0  0  0  0  0  0  0  0
   -5.7350   18.8910  -34.6810 N   0  0  0  0  0  0  0  0  0  0  0  0
   -5.1640   17.6710  -35.2640 C   0  0  0  0  0  0  0  0  0  0  0  0
   -4.1890   16.9980  -34.2670 C   0  0  0  0  0  0  0  0  0  0  0  0
   -4.1840   15.4370  -34.3120 C   0  0  0  0  0  0  0  0  0  0  0  0
   -4.2190   14.7320  -32.9830 N   0  0  0  0  0  0  0  0  0  0  0  0
   -4.9530   15.5730  -32.0000 C   0  0  0  0  0  0  0  0  0  0  0  0
   -2.8320   14.4310  -32.5000 C   0  0  0  0  0  0  0  0  0  0  0  0
   -2.7430   13.1440  -31.6470 C   0  0  0  0  0  0  0  0  0  0  0  0
   -3.9550   12.8970  -30.9720 O   0  0  0  0  0  0  0  0  0  0  0  0
   -4.9740   12.5650  -31.9000 C   0  0  0  0  0  0  0  0  0  0  0  0
   -4.9670   13.4510  -33.1750 C   0  0  0  0  0  0  0  0  0  0  0  0
   -6.6340   20.1000  -32.6710 C   0  0  0  0  0  0  0  0  0  0  0  0
   -1.2778   18.7991  -32.3934 H   0  0  0  0  0  0  0  0  0  0  0  0
   -1.9810   17.3755  -33.2334 H   0  0  0  0  0  0  0  0  0  0  0  0
   -0.2029   17.6305  -33.2334 H   0  0  0  0  0  0  0  0  0  0  0  0
   -0.3074   19.3346  -34.8234 H   0  0  0  0  0  0  0  0  0  0  0  0
   -1.6856   18.3015  -35.3495 H   0  0  0  0  0  0  0  0  0  0  0  0
   -2.0070   20.7900  -35.0830 H   0  0  0  0  0  0  0  0  0  0  0  0
   -1.4679   19.9890  -32.3845 H   0  0  0  0  0  0  0  0  0  0  0  0
   -1.3650   21.6011  -33.1905 H   0  0  0  0  0  0  0  0  0  0  0  0
   -3.5403   20.4216  -31.5741 H   0  0  0  0  0  0  0  0  0  0  0  0
   -3.1961   22.1474  -32.0118 H   0  0  0  0  0  0  0  0  0  0  0  0
   -4.2900   21.8550  -34.0730 H   0  0  0  0  0  0  0  0  0  0  0  0
   -4.3890   20.2470  -33.9480 H   0  0  0  0  0  0  0  0  0  0  0  0
   -4.1578   23.4084  -32.3672 H   0  0  0  0  0  0  0  0  0  0  0  0
   -4.6364   25.3467  -30.8993 H   0  0  0  0  0  0  0  0  0  0  0  0
   -6.7195   25.4127  -29.5491 H   0  0  0  0  0  0  0  0  0  0  0  0
   -8.3706   23.5708  -29.7081 H   0  0  0  0  0  0  0  0  0  0  0  0
   -9.4611   21.5487  -29.5935 H   0  0  0  0  0  0  0  0  0  0  0  0
   -9.9037   22.5116  -31.0439 H   0  0  0  0  0  0  0  0  0  0  0  0
  -10.1342   20.7302  -31.0439 H   0  0  0  0  0  0  0  0  0  0  0  0
   -9.3233   19.0341  -30.8001 H   0  0  0  0  0  0  0  0  0  0  0  0
   -8.7188   16.8742  -31.8595 H   0  0  0  0  0  0  0  0  0  0  0  0
   -6.9971   16.8078  -33.6448 H   0  0  0  0  0  0  0  0  0  0  0  0
   -5.9530   19.6790  -35.3210 H   0  0  0  0  0  0  0  0  0  0  0  0
   -5.9769   16.9700  -35.5043 H   0  0  0  0  0  0  0  0  0  0  0  0
   -4.6111   17.9381  -36.1767 H   0  0  0  0  0  0  0  0  0  0  0  0
   -3.1716   17.3505  -34.4919 H   0  0  0  0  0  0  0  0  0  0  0  0
   -4.5316   17.2786  -33.2601 H   0  0  0  0  0  0  0  0  0  0  0  0
   -5.0659   15.1153  -34.8854 H   0  0  0  0  0  0  0  0  0  0  0  0
   -3.2213   15.1596  -34.7661 H   0  0  0  0  0  0  0  0  0  0  0  0
   -4.6833   15.2639  -30.9794 H   0  0  0  0  0  0  0  0  0  0  0  0
   -4.6826   16.6291  -32.1468 H   0  0  0  0  0  0  0  0  0  0  0  0
   -6.0360   15.4479  -32.1468 H   0  0  0  0  0  0  0  0  0  0  0  0
   -2.1758   14.3150  -33.3752 H   0  0  0  0  0  0  0  0  0  0  0  0
   -2.5240   15.2683  -31.8565 H   0  0  0  0  0  0  0  0  0  0  0  0
   -2.5184   12.2918  -32.3052 H   0  0  0  0  0  0  0  0  0  0  0  0
   -1.9474   13.2755  -30.8989 H   0  0  0  0  0  0  0  0  0  0  0  0
   -4.8389   11.5166  -32.2044 H   0  0  0  0  0  0  0  0  0  0  0  0
   -5.9368   12.7337  -31.3955 H   0  0  0  0  0  0  0  0  0  0  0  0
   -4.4950   12.8870  -33.9930 H   0  0  0  0  0  0  0  0  0  0  0  0
   -6.0111   13.7073  -33.4075 H   0  0  0  0  0  0  0  0  0  0  0  0
  1  2  1  0
  2  3  1  0
  3  4  1  0
  4  5  1  0
  5  6  1  0
  6  7  1  0
  7  8  2  0
  8  9  1  0
  9 10  2  0
 10 11  1  0
 11 12  2  0
 12 13  1  0
 13 14  2  0
 14 15  1  0
 14 16  1  0
 16 17  2  0
 17 18  1  0
 18 19  2  0
 19 20  1  0
 20 21  1  0
 21 22  1  0
 22 23  1  0
 23 24  1  0
 24 25  1  0
 25 26  1  0
 25 27  1  0
 27 28  1  0
 28 29  1  0
 29 30  1  0
 30 31  1  0
 20 32  2  0
 32  7  1  0
 13  8  1  0
 32 16  1  0
 31 25  1  0
  1 33  1  0
  1 34  1  0
  1 35  1  0
  2 36  1  0
  2 37  1  0
  3 38  1  0
  4 39  1  0
  4 40  1  0
  5 41  1  0
  5 42  1  0
  6 43  1  0
  6 44  1  0
  9 45  1  0
 10 46  1  0
 11 47  1  0
 12 48  1  0
 15 49  1  0
 15 50  1  0
 15 51  1  0
 17 52  1  0
 18 53  1  0
 19 54  1  0
 21 55  1  0
 22 56  1  0
 22 57  1  0
 23 58  1  0
 23 59  1  0
 24 60  1  0
 24 61  1  0
 26 62  1  0
 26 63  1  0
 26 64  1  0
 27 65  1  0
 27 66  1  0
 28 67  1  0
 28 68  1  0
 30 69  1  0
 30 70  1  0
 31 71  1  0
 31 72  1  0
M  CHG  3   6   1  14   1  25   1
M  END
>  <UniqueID>  (15) 
15

>  <SMILES>  (15) 
CCNCC[NH2+]c1c2ccccc2[n+](C)c2cccc(NCCC[N+]3(C)CCOCC3)c12

>  <Energy>  (15) 
132.89700618468066

>  <Genealogy>  (15) 
CCNCC[NH2+]c1c2ccccc2[n+](C)c2cccc(NCCC[N+]3(C)CCOCC3)c12 (protonated)
CCNCC[NH2+]c1c2ccccc2[n+](C)c2cccc(NCCC[N+]3(C)CCOCC3)c12 (3D coordinates assigned)
CCNCC[NH2+]c1c2ccccc2[n+](C)c2cccc(NCCC[N+]3(C)CCOCC3)c12 (nonaromatic ring conformer: 132.89700618468066 kcal/mol)

>  <smiles>  (15) 
CCNCCNc1c2ccccc2[n+](C)c2cccc(NCCC[N+]3(C)CCOCC3)c12

>  <score_type>  (15) 
oracle

>  <origin>  (15) 
adg

>  <m_score__min__energy>  (15) 
-8.0099999999999998

>  <m_primary>  (15) 
energy

$$$$
15:0
     RDKit          3D

 63 65  0  0  0  0  0  0  0  0999 V2000
   -0.3610   22.8290  -25.6810 C   0  0  0  0  0  0  0  0  0  0  0  0
   -1.3470   23.3850  -26.7040 C   0  0  0  0  0  0  0  0  0  0  0  0
   -0.8070   23.2610  -28.1310 C   0  0  0  0  0  0  0  0  0  0  0  0
   -1.7280   22.4260  -28.9340 N   0  0  0  0  0  0  0  0  0  0  0  0
   -2.7730   21.8130  -28.0760 C   0  0  0  0  0  0  0  0  0  0  0  0
   -2.6990   20.2860  -28.1630 C   0  0  0  0  0  0  0  0  0  0  0  0
   -2.5800   19.6500  -26.7820 C   0  0  0  0  0  0  0  0  0  0  0  0
   -2.3290   23.1830  -30.0560 C   0  0  0  0  0  0  0  0  0  0  0  0
   -2.8760   24.5390  -29.5850 C   0  0  0  0  0  0  0  0  0  0  0  0
   -3.8130   25.0880  -30.5770 N   0  0  0  0  0  0  0  0  0  0  0  0
   -5.1900   25.1960  -30.0660 C   0  0  0  0  0  0  0  0  0  0  0  0
   -6.0110   23.9860  -30.5060 C   0  0  0  0  0  0  0  0  0  0  0  0
   -5.4570   23.3540  -31.7080 N   0  0  0  0  0  0  0  0  0  0  0  0
   -5.7820   21.9970  -32.0820 C   0  0  0  0  0  0  0  0  0  0  0  0
   -7.1240   21.5660  -32.0740 C   0  0  0  0  0  0  0  0  0  0  0  0
   -8.1560   22.4120  -31.6140 C   0  0  0  0  0  0  0  0  0  0  0  0
   -9.4900   22.0210  -31.6980 C   0  0  0  0  0  0  0  0  0  0  0  0
   -9.8210   20.7860  -32.2400 C   0  0  0  0  0  0  0  0  0  0  0  0
   -8.8180   19.9180  -32.6680 C   0  0  0  0  0  0  0  0  0  0  0  0
   -7.4470   20.2680  -32.5590 C   0  0  0  0  0  0  0  0  0  0  0  0
   -6.4460   19.3970  -32.9410 N   0  0  0  0  0  0  0  0  0  0  0  0
   -6.7600   17.9710  -33.1870 C   0  0  0  0  0  0  0  0  0  0  0  0
   -5.1430   19.8420  -33.0470 C   0  0  0  0  0  0  0  0  0  0  0  0
   -4.1360   19.0570  -33.6680 C   0  0  0  0  0  0  0  0  0  0  0  0
   -2.8070   19.4750  -33.6830 C   0  0  0  0  0  0  0  0  0  0  0  0
   -2.4440   20.6740  -33.0800 C   0  0  0  0  0  0  0  0  0  0  0  0
   -0.7630   21.1810  -33.0890 Cl  0  0  0  0  0  0  0  0  0  0  0  0
   -3.4170   21.4890  -32.5070 C   0  0  0  0  0  0  0  0  0  0  0  0
   -4.7800   21.1190  -32.5400 C   0  0  0  0  0  0  0  0  0  0  0  0
   -0.7297   23.0369  -24.6657 H   0  0  0  0  0  0  0  0  0  0  0  0
   -0.2623   21.7423  -25.8199 H   0  0  0  0  0  0  0  0  0  0  0  0
    0.6200   23.3069  -25.8199 H   0  0  0  0  0  0  0  0  0  0  0  0
   -2.2916   22.8263  -26.6298 H   0  0  0  0  0  0  0  0  0  0  0  0
   -1.5039   24.4518  -26.4866 H   0  0  0  0  0  0  0  0  0  0  0  0
   -0.7302   24.2611  -28.5826 H   0  0  0  0  0  0  0  0  0  0  0  0
    0.1881   22.7927  -28.1080 H   0  0  0  0  0  0  0  0  0  0  0  0
   -2.6164   22.1257  -27.0331 H   0  0  0  0  0  0  0  0  0  0  0  0
   -3.7627   22.1450  -28.4227 H   0  0  0  0  0  0  0  0  0  0  0  0
   -3.6110   19.9117  -28.6510 H   0  0  0  0  0  0  0  0  0  0  0  0
   -1.8042   20.0175  -28.7437 H   0  0  0  0  0  0  0  0  0  0  0  0
   -2.7241   20.4202  -26.0100 H   0  0  0  0  0  0  0  0  0  0  0  0
   -3.3479   18.8704  -26.6700 H   0  0  0  0  0  0  0  0  0  0  0  0
   -1.5822   19.2007  -26.6700 H   0  0  0  0  0  0  0  0  0  0  0  0
   -1.5612   23.3539  -30.8249 H   0  0  0  0  0  0  0  0  0  0  0  0
   -3.1641   22.5946  -30.4639 H   0  0  0  0  0  0  0  0  0  0  0  0
   -3.4000   24.4052  -28.6271 H   0  0  0  0  0  0  0  0  0  0  0  0
   -2.0362   25.2388  -29.4628 H   0  0  0  0  0  0  0  0  0  0  0  0
   -3.4860   26.0500  -30.8220 H   0  0  0  0  0  0  0  0  0  0  0  0
   -5.1676   25.2400  -28.9671 H   0  0  0  0  0  0  0  0  0  0  0  0
   -5.6521   26.1095  -30.4685 H   0  0  0  0  0  0  0  0  0  0  0  0
   -6.0220   23.2485  -29.6899 H   0  0  0  0  0  0  0  0  0  0  0  0
   -7.0277   24.3330  -30.7424 H   0  0  0  0  0  0  0  0  0  0  0  0
   -4.6940   23.8520  -32.2160 H   0  0  0  0  0  0  0  0  0  0  0  0
   -7.9034   23.3924  -31.1838 H   0  0  0  0  0  0  0  0  0  0  0  0
  -10.2827   22.6914  -31.3345 H   0  0  0  0  0  0  0  0  0  0  0  0
  -10.8771   20.4922  -32.3317 H   0  0  0  0  0  0  0  0  0  0  0  0
   -9.0941   18.9439  -33.0981 H   0  0  0  0  0  0  0  0  0  0  0  0
   -6.8748   17.4496  -32.2252 H   0  0  0  0  0  0  0  0  0  0  0  0
   -7.6964   17.8952  -33.7593 H   0  0  0  0  0  0  0  0  0  0  0  0
   -5.9421   17.5089  -33.7593 H   0  0  0  0  0  0  0  0  0  0  0  0
   -4.4093   18.1041  -34.1446 H   0  0  0  0  0  0  0  0  0  0  0  0
   -2.0426   18.8544  -34.1735 H   0  0  0  0  0  0  0  0  0  0  0  0
   -3.1209   22.4315  -32.0232 H   0  0  0  0  0  0  0  0  0  0  0  0
  1  2  1  0
  2  3  1  0
  3  4  1  0
  4  5  1  0
  5  6  1  0
  6  7  1  0
  4  8  1  0
  8  9  1  0
  9 10  1  0
 10 11  1  0
 11 12  1  0
 12 13  1  0
 13 14  1  0
 14 15  2  0
 15 16  1  0
 16 17  2  0
 17 18  1  0
 18 19  2  0
 19 20  1  0
 20 21  2  0
 21 22  1  0
 21 23  1  0
 23 24  2  0
 24 25  1  0
 25 26  2  0
 26 27  1  0
 26 28  1  0
 28 29  2  0
 29 14  1  0
 20 15  1  0
 29 23  1  0
  1 30  1  0
  1 31  1  0
  1 32  1  0
  2 33  1  0
  2 34  1  0
  3 35  1  0
  3 36  1  0
  5 37  1  0
  5 38  1  0
  6 39  1  0
  6 40  1  0
  7 41  1  0
  7 42  1  0
  7 43  1  0
  8 44  1  0
  8 45  1  0
  9 46  1  0
  9 47  1  0
 10 48  1  0
 11 49  1  0
 11 50  1  0
 12 51  1  0
 12 52  1  0
 13 53  1  0
 16 54  1  0
 17 55  1  0
 18 56  1  0
 19 57  1  0
 22 58  1  0
 22 59  1  0
 22 60  1  0
 24 61  1  0
 25 62  1  0
 28 63  1  0
M  CHG  1  21   1
M  END
>  <UniqueID>  (16) 
16

>  <SMILES>  (16) 
CCCN(CCC)CCNCCNc1c2ccccc2[n+](C)c2ccc(Cl)cc12

>  <Energy>  (16) 
75.918858797302

>  <Genealogy>  (16) 
CCCN(CCC)CCNCCNc1c2ccccc2[n+](C)c2ccc(Cl)cc12 (3D coordinates assigned)
CCCN(CCC)CCNCCNc1c2ccccc2[n+](C)c2ccc(Cl)cc12 (optimized conformer: 75.918858797302 kcal/mol)

>  <smiles>  (16) 
CCCN(CCC)CCNCCNc1c2ccccc2[n+](C)c2ccc(Cl)cc12

>  <score_type>  (16) 
oracle

>  <origin>  (16) 
adg

>  <m_score__min__energy>  (16) 
-9.2300000000000004

>  <m_primary>  (16) 
energy

$$$$
16:0
     RDKit          3D

 82 85  0  0  0  0  0  0  0  0999 V2000
   -1.5640   16.0180  -33.3190 C   0  0  0  0  0  0  0  0  0  0  0  0
   -1.2410   17.4240  -32.8040 C   0  0  0  0  0  0  0  0  0  0  0  0
   -1.0700   18.4130  -33.8990 N   0  0  2  0  0  0  0  0  0  0  0  0
    0.0720   18.0090  -34.7450 C   0  0  0  0  0  0  0  0  0  0  0  0
   -0.8590   19.7990  -33.3820 C   0  0  0  0  0  0  0  0  0  0  0  0
   -1.9410   20.7790  -33.8730 C   0  0  0  0  0  0  0  0  0  0  0  0
   -2.9580   21.1120  -32.7790 C   0  0  0  0  0  0  0  0  0  0  0  0
   -4.2530   21.4360  -33.3800 N   0  0  0  0  0  0  0  0  0  0  0  0
   -5.4330   20.7030  -33.0160 C   0  0  0  0  0  0  0  0  0  0  0  0
   -5.5320   19.3420  -33.3570 C   0  0  0  0  0  0  0  0  0  0  0  0
   -4.4300   18.6560  -33.9140 C   0  0  0  0  0  0  0  0  0  0  0  0
   -4.5420   17.3240  -34.3030 C   0  0  0  0  0  0  0  0  0  0  0  0
   -5.7520   16.6580  -34.1590 C   0  0  0  0  0  0  0  0  0  0  0  0
   -6.8470   17.3070  -33.5900 C   0  0  0  0  0  0  0  0  0  0  0  0
   -6.7490   18.6490  -33.1380 C   0  0  0  0  0  0  0  0  0  0  0  0
   -7.8080   19.2840  -32.5190 N   0  0  0  0  0  0  0  0  0  0  0  0
   -8.9700   18.4910  -32.0510 C   0  0  0  0  0  0  0  0  0  0  0  0
   -7.7640   20.6480  -32.2940 C   0  0  0  0  0  0  0  0  0  0  0  0
   -8.9280   21.3660  -31.9280 C   0  0  0  0  0  0  0  0  0  0  0  0
   -8.8660   22.7140  -31.6050 C   0  0  0  0  0  0  0  0  0  0  0  0
   -7.6530   23.3850  -31.6190 C   0  0  0  0  0  0  0  0  0  0  0  0
   -6.4760   22.7310  -32.0200 C   0  0  0  0  0  0  0  0  0  0  0  0
   -5.2400   23.4050  -31.9700 O   0  0  0  0  0  0  0  0  0  0  0  0
   -4.7520   24.1210  -30.8320 C   0  0  0  0  0  0  0  0  0  0  0  0
   -3.3740   23.5920  -30.3750 C   0  0  0  0  0  0  0  0  0  0  0  0
   -3.3600   22.7220  -29.1530 N   0  0  0  0  0  0  0  0  0  0  0  0
   -4.5770   23.0920  -28.3750 C   0  0  0  0  0  0  0  0  0  0  0  0
   -2.1560   23.0130  -28.3180 C   0  0  0  0  0  0  0  0  0  0  0  0
   -1.9470   21.9750  -27.1990 C   0  0  0  0  0  0  0  0  0  0  0  0
   -1.8280   20.5670  -27.7090 N   0  0  0  0  0  0  0  0  0  0  0  0
   -0.4260   20.1000  -27.5530 C   0  0  0  0  0  0  0  0  0  0  0  0
   -2.6920   19.6700  -26.8980 C   0  0  0  0  0  0  0  0  0  0  0  0
   -2.2000   20.4480  -29.1520 C   0  0  0  0  0  0  0  0  0  0  0  0
   -3.4570   21.2650  -29.5210 C   0  0  0  0  0  0  0  0  0  0  0  0
   -6.5430   21.3690  -32.4470 C   0  0  0  0  0  0  0  0  0  0  0  0
   -1.7194   15.3416  -32.4656 H   0  0  0  0  0  0  0  0  0  0  0  0
   -2.4776   16.0524  -33.9306 H   0  0  0  0  0  0  0  0  0  0  0  0
   -0.7269   15.6503  -33.9306 H   0  0  0  0  0  0  0  0  0  0  0  0
   -2.0634   17.7578  -32.1542 H   0  0  0  0  0  0  0  0  0  0  0  0
   -0.2876   17.3659  -32.2584 H   0  0  0  0  0  0  0  0  0  0  0  0
   -1.9170   18.3710  -34.5130 H   0  0  0  0  0  0  0  0  0  0  0  0
    0.9152   17.7107  -34.1047 H   0  0  0  0  0  0  0  0  0  0  0  0
   -0.2240   17.1610  -35.3801 H   0  0  0  0  0  0  0  0  0  0  0  0
    0.3750   18.8545  -35.3801 H   0  0  0  0  0  0  0  0  0  0  0  0
   -0.8786   19.7729  -32.2825 H   0  0  0  0  0  0  0  0  0  0  0  0
    0.1115   20.1539  -33.7591 H   0  0  0  0  0  0  0  0  0  0  0  0
   -1.4542   21.7098  -34.1994 H   0  0  0  0  0  0  0  0  0  0  0  0
   -2.4814   20.2982  -34.7017 H   0  0  0  0  0  0  0  0  0  0  0  0
   -3.0728   20.2446  -32.1123 H   0  0  0  0  0  0  0  0  0  0  0  0
   -2.5995   21.9793  -32.2051 H   0  0  0  0  0  0  0  0  0  0  0  0
   -4.3780   22.3760  -33.8180 H   0  0  0  0  0  0  0  0  0  0  0  0
   -3.4717   19.1806  -34.0420 H   0  0  0  0  0  0  0  0  0  0  0  0
   -3.6720   16.7991  -34.7244 H   0  0  0  0  0  0  0  0  0  0  0  0
   -5.8469   15.6149  -34.4950 H   0  0  0  0  0  0  0  0  0  0  0  0
   -7.8021   16.7705  -33.4898 H   0  0  0  0  0  0  0  0  0  0  0  0
   -8.9870   18.4794  -30.9512 H   0  0  0  0  0  0  0  0  0  0  0  0
   -9.8989   18.9445  -32.4273 H   0  0  0  0  0  0  0  0  0  0  0  0
   -8.8863   17.4608  -32.4273 H   0  0  0  0  0  0  0  0  0  0  0  0
   -9.8973   20.8468  -31.8992 H   0  0  0  0  0  0  0  0  0  0  0  0
   -9.7858   23.2540  -31.3359 H   0  0  0  0  0  0  0  0  0  0  0  0
   -7.6116   24.4407  -31.3129 H   0  0  0  0  0  0  0  0  0  0  0  0
   -4.6569   25.1852  -31.0937 H   0  0  0  0  0  0  0  0  0  0  0  0
   -5.4651   23.9816  -30.0061 H   0  0  0  0  0  0  0  0  0  0  0  0
   -2.9485   23.0086  -31.2049 H   0  0  0  0  0  0  0  0  0  0  0  0
   -2.7963   24.4869  -30.1005 H   0  0  0  0  0  0  0  0  0  0  0  0
   -4.3585   23.0256  -27.2990 H   0  0  0  0  0  0  0  0  0  0  0  0
   -4.8739   24.1210  -28.6260 H   0  0  0  0  0  0  0  0  0  0  0  0
   -5.3964   22.4024  -28.6260 H   0  0  0  0  0  0  0  0  0  0  0  0
   -1.2684   23.0143  -28.9678 H   0  0  0  0  0  0  0  0  0  0  0  0
   -2.3101   23.9918  -27.8403 H   0  0  0  0  0  0  0  0  0  0  0  0
   -1.0249   22.2285  -26.6554 H   0  0  0  0  0  0  0  0  0  0  0  0
   -2.8344   22.0125  -26.5501 H   0  0  0  0  0  0  0  0  0  0  0  0
   -0.1833   20.0192  -26.4831 H   0  0  0  0  0  0  0  0  0  0  0  0
   -0.3122   19.1154  -28.0302 H   0  0  0  0  0  0  0  0  0  0  0  0
    0.2554   20.8197  -28.0302 H   0  0  0  0  0  0  0  0  0  0  0  0
   -2.5126   19.8563  -25.8288 H   0  0  0  0  0  0  0  0  0  0  0  0
   -3.7483   19.8680  -27.1325 H   0  0  0  0  0  0  0  0  0  0  0  0
   -2.4546   18.6218  -27.1325 H   0  0  0  0  0  0  0  0  0  0  0  0
   -1.3576   20.8065  -29.7617 H   0  0  0  0  0  0  0  0  0  0  0  0
   -2.4271   19.3895  -29.3467 H   0  0  0  0  0  0  0  0  0  0  0  0
   -3.6133   21.1906  -30.6073 H   0  0  0  0  0  0  0  0  0  0  0  0
   -4.2952   20.8430  -28.9472 H   0  0  0  0  0  0  0  0  0  0  0  0
  1  2  1  0
  2  3  1  0
  3  4  1  0
  3  5  1  0
  5  6  1  0
  6  7  1  0
  7  8  1  0
  8  9  1  0
  9 10  2  0
 10 11  1  0
 11 12  2  0
 12 13  1  0
 13 14  2  0
 14 15  1  0
 15 16  2  0
 16 17  1  0
 16 18  1  0
 18 19  2  0
 19 20  1  0
 20 21  2  0
 21 22  1  0
 22 23  1  0
 23 24  1  0
 24 25  1  0
 25 26  1  0
 26 27  1  0
 26 28  1  0
 28 29  1  0
 29 30  1  0
 30 31  1  0
 30 32  1  0
 30 33  1  0
 33 34  1  0
 22 35  2  0
 35  9  1  0
 15 10  1  0
 35 18  1  0
 34 26  1  0
  1 36  1  0
  1 37  1  0
  1 38  1  0
  2 39  1  0
  2 40  1  0
  3 41  1  6
  4 42  1  0
  4 43  1  0
  4 44  1  0
  5 45  1  0
  5 46  1  0
  6 47  1  0
  6 48  1  0
  7 49  1  0
  7 50  1  0
  8 51  1  0
 11 52  1  0
 12 53  1  0
 13 54  1  0
 14 55  1  0
 17 56  1  0
 17 57  1  0
 17 58  1  0
 19 59  1  0
 20 60  1  0
 21 61  1  0
 24 62  1  0
 24 63  1  0
 25 64  1  0
 25 65  1  0
 27 66  1  0
 27 67  1  0
 27 68  1  0
 28 69  1  0
 28 70  1  0
 29 71  1  0
 29 72  1  0
 31 73  1  0
 31 74  1  0
 31 75  1  0
 32 76  1  0
 32 77  1  0
 32 78  1  0
 33 79  1  0
 33 80  1  0
 34 81  1  0
 34 82  1  0
M  CHG  4   3   1  16   1  26   1  30   1
M  END
>  <UniqueID>  (17) 
17

>  <SMILES>  (17) 
CC[N@H+](C)CCCNc1c2ccccc2[n+](C)c2cccc(OCC[N+]3(C)CC[N+](C)(C)CC3)c12

>  <Energy>  (17) 
140.1518096988666

>  <Genealogy>  (17) 
CC[NH+](C)CCCNc1c2ccccc2[n+](C)c2cccc(OCC[N+]3(C)CC[N+](C)(C)CC3)c12 (protonated)
CC[N@H+](C)CCCNc1c2ccccc2[n+](C)c2cccc(OCC[N+]3(C)CC[N+](C)(C)CC3)c12 (chirality)
CC[N@H+](C)CCCNc1c2ccccc2[n+](C)c2cccc(OCC[N+]3(C)CC[N+](C)(C)CC3)c12 (3D coordinates assigned)
CC[N@H+](C)CCCNc1c2ccccc2[n+](C)c2cccc(OCC[N+]3(C)CC[N+](C)(C)CC3)c12 (nonaromatic ring conformer: 140.1518096988666 kcal/mol)

>  <smiles>  (17) 
CCN(C)CCCNc1c2ccccc2[n+](C)c2cccc(OCC[N+]3(C)CC[N+](C)(C)CC3)c12

>  <score_type>  (17) 
oracle

>  <origin>  (17) 
adg

>  <m_score__min__energy>  (17) 
-6.7999999999999998

>  <m_primary>  (17) 
energy

$$$$
17:0
     RDKit          3D

 36 38  0  0  0  0  0  0  0  0999 V2000
   -6.1160   15.7800  -33.7560 C   0  0  0  0  0  0  0  0  0  0  0  0
   -7.2330   16.5920  -33.4110 O   0  0  0  0  0  0  0  0  0  0  0  0
   -7.1440   17.9370  -33.0200 C   0  0  0  0  0  0  0  0  0  0  0  0
   -7.9090   18.4700  -31.9670 C   0  0  0  0  0  0  0  0  0  0  0  0
   -7.7840   19.8180  -31.6160 C   0  0  0  0  0  0  0  0  0  0  0  0
   -6.8950   20.6570  -32.3070 C   0  0  0  0  0  0  0  0  0  0  0  0
   -6.7820   22.0810  -31.9150 C   0  0  0  0  0  0  0  0  0  0  0  0
   -6.8270   23.1370  -32.7510 N   0  0  0  0  0  0  0  0  0  0  0  0
   -6.6960   24.2320  -32.0220 N   0  0  0  0  0  0  0  0  0  0  0  0
   -6.5740   23.8010  -30.7530 C   0  0  0  0  0  0  0  0  0  0  0  0
   -6.3710   24.8820  -29.3430 S   0  0  0  0  0  0  0  0  0  0  0  0
   -4.7200   24.2290  -28.9420 C   0  0  0  0  0  0  0  0  0  0  0  0
   -3.6900   24.9120  -29.7910 C   0  0  0  0  0  0  0  0  0  0  0  0
   -4.0040   25.3000  -30.9470 O   0  0  0  0  0  0  0  0  0  0  0  0
   -2.3460   25.1020  -29.3350 N   0  0  0  0  0  0  0  0  0  0  0  0
   -1.9250   24.8960  -27.9550 C   0  0  0  0  0  0  0  0  0  0  0  0
   -1.4700   23.4760  -27.6820 C   0  0  0  0  0  0  0  0  0  0  0  0
   -0.4460   24.5940  -27.8080 C   0  0  0  0  0  0  0  0  0  0  0  0
   -6.6240   22.4920  -30.6770 O   0  0  0  0  0  0  0  0  0  0  0  0
   -6.1320   20.1200  -33.3590 C   0  0  0  0  0  0  0  0  0  0  0  0
   -6.2580   18.7730  -33.7080 C   0  0  0  0  0  0  0  0  0  0  0  0
   -5.6249   15.4230  -32.8387 H   0  0  0  0  0  0  0  0  0  0  0  0
   -6.4580   14.9183  -34.3480 H   0  0  0  0  0  0  0  0  0  0  0  0
   -5.4018   16.3712  -34.3480 H   0  0  0  0  0  0  0  0  0  0  0  0
   -8.6088   17.8237  -31.4170 H   0  0  0  0  0  0  0  0  0  0  0  0
   -8.3876   20.2247  -30.7912 H   0  0  0  0  0  0  0  0  0  0  0  0
   -6.9450   23.1380  -33.7870 H   0  0  0  0  0  0  0  0  0  0  0  0
   -4.5008   24.4144  -27.8801 H   0  0  0  0  0  0  0  0  0  0  0  0
   -4.6970   23.1470  -29.1388 H   0  0  0  0  0  0  0  0  0  0  0  0
   -2.6238   25.6006  -27.4804 H   0  0  0  0  0  0  0  0  0  0  0  0
   -1.6635   23.0150  -26.7022 H   0  0  0  0  0  0  0  0  0  0  0  0
   -1.6232   22.5022  -28.1701 H   0  0  0  0  0  0  0  0  0  0  0  0
    0.1011   24.9419  -26.9194 H   0  0  0  0  0  0  0  0  0  0  0  0
    0.4486   24.7646  -28.4249 H   0  0  0  0  0  0  0  0  0  0  0  0
   -5.4316   20.7644  -33.9106 H   0  0  0  0  0  0  0  0  0  0  0  0
   -5.6543   18.3656  -34.5323 H   0  0  0  0  0  0  0  0  0  0  0  0
  1  2  1  0
  2  3  1  0
  3  4  2  0
  4  5  1  0
  5  6  2  0
  6  7  1  0
  7  8  2  0
  8  9  1  0
  9 10  2  0
 10 11  1  0
 11 12  1  0
 12 13  1  0
 13 14  2  0
 13 15  1  0
 15 16  1  0
 16 17  1  0
 17 18  1  0
 10 19  1  0
  6 20  1  0
 20 21  2  0
 21  3  1  0
 19  7  1  0
 18 16  1  0
  1 22  1  0
  1 23  1  0
  1 24  1  0
  4 25  1  0
  5 26  1  0
  8 27  1  0
 12 28  1  0
 12 29  1  0
 16 30  1  0
 17 31  1  0
 17 32  1  0
 18 33  1  0
 18 34  1  0
 20 35  1  0
 21 36  1  0
M  CHG  2   8   1  15  -1
M  END
>  <UniqueID>  (18) 
18

>  <SMILES>  (18) 
COc1ccc(-c2[nH+]nc(SCC(=O)[N-]C3CC3)o2)cc1

>  <Energy>  (18) 
330.4695415861037

>  <Genealogy>  (18) 
COc1ccc(-c2[nH+]nc(SCC(=O)[N-]C3CC3)o2)cc1 (protonated)
COc1ccc(-c2[nH+]nc(SCC(=O)[N-]C3CC3)o2)cc1 (3D coordinates assigned)
COc1ccc(-c2[nH+]nc(SCC(=O)[N-]C3CC3)o2)cc1 (nonaromatic ring conformer: 330.4695415861037 kcal/mol)

>  <smiles>  (18) 
COc1ccc(-c2nnc(SCC(=O)NC3CC3)o2)cc1

>  <score_type>  (18) 
oracle

>  <origin>  (18) 
adg

>  <m_score__min__energy>  (18) 
-9.0700000000000003

>  <m_primary>  (18) 
energy

$$$$
18:0
     RDKit          3D

 77 80  0  0  0  0  0  0  0  0999 V2000
    0.9570   19.6650  -31.6470 C   0  0  0  0  0  0  0  0  0  0  0  0
   -0.0690   20.7290  -32.1040 C   0  0  0  0  0  0  0  0  0  0  0  0
   -1.0370   20.3220  -33.1850 N   0  0  0  0  0  0  0  0  0  0  0  0
   -0.4780   20.3110  -34.5840 C   0  0  0  0  0  0  0  0  0  0  0  0
    0.2550   21.5890  -35.0590 C   0  0  0  0  0  0  0  0  0  0  0  0
   -1.5920   18.9620  -32.8360 C   0  0  0  0  0  0  0  0  0  0  0  0
   -1.6090   17.9020  -33.9530 C   0  0  0  0  0  0  0  0  0  0  0  0
   -2.2470   21.2260  -33.1580 C   0  0  0  0  0  0  0  0  0  0  0  0
   -3.6390   20.5550  -33.2680 C   0  0  0  0  0  0  0  0  0  0  0  0
   -4.2300   20.3870  -31.9410 N   0  0  0  0  0  0  0  0  0  0  0  0
   -5.4780   21.0240  -31.6350 C   0  0  0  0  0  0  0  0  0  0  0  0
   -6.6730   20.3350  -31.8960 C   0  0  0  0  0  0  0  0  0  0  0  0
   -6.6620   18.9570  -32.2080 C   0  0  0  0  0  0  0  0  0  0  0  0
   -7.8530   18.2640  -32.4090 C   0  0  0  0  0  0  0  0  0  0  0  0
   -9.0700   18.9260  -32.2970 C   0  0  0  0  0  0  0  0  0  0  0  0
   -9.1020   20.2910  -32.0160 C   0  0  0  0  0  0  0  0  0  0  0  0
   -7.9040   21.0320  -31.8500 C   0  0  0  0  0  0  0  0  0  0  0  0
   -7.9120   22.3980  -31.6610 N   0  0  0  0  0  0  0  0  0  0  0  0
   -9.1340   23.1770  -31.9690 C   0  0  0  0  0  0  0  0  0  0  0  0
   -6.7750   23.0410  -31.2040 C   0  0  0  0  0  0  0  0  0  0  0  0
   -6.8260   24.3860  -30.7630 C   0  0  0  0  0  0  0  0  0  0  0  0
   -5.6860   25.0460  -30.3320 C   0  0  0  0  0  0  0  0  0  0  0  0
   -4.4750   24.3770  -30.2610 C   0  0  0  0  0  0  0  0  0  0  0  0
   -4.3720   23.0280  -30.6290 C   0  0  0  0  0  0  0  0  0  0  0  0
   -3.1480   22.3220  -30.3340 N   0  0  0  0  0  0  0  0  0  0  0  0
   -1.9370   22.9520  -29.7980 C   0  0  0  0  0  0  0  0  0  0  0  0
   -1.1290   21.9650  -28.9400 C   0  0  0  0  0  0  0  0  0  0  0  0
   -1.8400   20.6790  -28.7700 N   0  0  0  0  0  0  0  0  0  0  0  0
   -2.6300   20.6530  -27.5140 C   0  0  0  0  0  0  0  0  0  0  0  0
   -2.8370   19.2130  -27.0140 C   0  0  0  0  0  0  0  0  0  0  0  0
   -1.6240   18.5340  -26.7150 O   0  0  0  0  0  0  0  0  0  0  0  0
   -0.5160   18.9850  -27.4820 C   0  0  0  0  0  0  0  0  0  0  0  0
   -0.9040   19.5310  -28.8680 C   0  0  0  0  0  0  0  0  0  0  0  0
   -5.5240   22.3540  -31.1520 C   0  0  0  0  0  0  0  0  0  0  0  0
    0.9875   19.6334  -30.5479 H   0  0  0  0  0  0  0  0  0  0  0  0
    0.6600   18.6791  -32.0341 H   0  0  0  0  0  0  0  0  0  0  0  0
    1.9530   19.9260  -32.0341 H   0  0  0  0  0  0  0  0  0  0  0  0
   -0.6587   21.0221  -31.2229 H   0  0  0  0  0  0  0  0  0  0  0  0
    0.5328   21.5364  -32.5468 H   0  0  0  0  0  0  0  0  0  0  0  0
    0.2350   19.4759  -34.6497 H   0  0  0  0  0  0  0  0  0  0  0  0
   -1.3558   20.2247  -35.2412 H   0  0  0  0  0  0  0  0  0  0  0  0
    0.5870   22.1678  -34.1845 H   0  0  0  0  0  0  0  0  0  0  0  0
    1.1286   21.3068  -35.6650 H   0  0  0  0  0  0  0  0  0  0  0  0
   -0.4296   22.2005  -35.6650 H   0  0  0  0  0  0  0  0  0  0  0  0
   -0.9890   18.5609  -32.0080 H   0  0  0  0  0  0  0  0  0  0  0  0
   -2.6509   19.1401  -32.5975 H   0  0  0  0  0  0  0  0  0  0  0  0
   -1.6251   16.8975  -33.5050 H   0  0  0  0  0  0  0  0  0  0  0  0
   -2.5050   18.0401  -34.5759 H   0  0  0  0  0  0  0  0  0  0  0  0
   -0.7090   18.0113  -34.5759 H   0  0  0  0  0  0  0  0  0  0  0  0
   -2.2226   21.7822  -32.2093 H   0  0  0  0  0  0  0  0  0  0  0  0
   -2.1587   21.8424  -34.0648 H   0  0  0  0  0  0  0  0  0  0  0  0
   -4.2985   21.1867  -33.8812 H   0  0  0  0  0  0  0  0  0  0  0  0
   -3.5225   19.5657  -33.7346 H   0  0  0  0  0  0  0  0  0  0  0  0
   -3.8990   19.6200  -31.3100 H   0  0  0  0  0  0  0  0  0  0  0  0
   -5.7024   18.4260  -32.2930 H   0  0  0  0  0  0  0  0  0  0  0  0
   -7.8307   17.1924  -32.6565 H   0  0  0  0  0  0  0  0  0  0  0  0
  -10.0105   18.3713  -32.4305 H   0  0  0  0  0  0  0  0  0  0  0  0
  -10.0717   20.8016  -31.9215 H   0  0  0  0  0  0  0  0  0  0  0  0
   -9.6182   23.4857  -31.0308 H   0  0  0  0  0  0  0  0  0  0  0  0
   -8.8627   24.0692  -32.5524 H   0  0  0  0  0  0  0  0  0  0  0  0
   -9.8283   22.5545  -32.5524 H   0  0  0  0  0  0  0  0  0  0  0  0
   -7.7893   24.9172  -30.7626 H   0  0  0  0  0  0  0  0  0  0  0  0
   -5.7431   26.1063  -30.0449 H   0  0  0  0  0  0  0  0  0  0  0  0
   -3.5803   24.9125  -29.9105 H   0  0  0  0  0  0  0  0  0  0  0  0
   -3.1590   21.2780  -30.3450 H   0  0  0  0  0  0  0  0  0  0  0  0
   -1.3111   23.2956  -30.6348 H   0  0  0  0  0  0  0  0  0  0  0  0
   -2.2371   23.7994  -29.1640 H   0  0  0  0  0  0  0  0  0  0  0  0
   -0.1621   21.7759  -29.4293 H   0  0  0  0  0  0  0  0  0  0  0  0
   -0.9864   22.4122  -27.9452 H   0  0  0  0  0  0  0  0  0  0  0  0
   -2.0956   21.2269  -26.7426 H   0  0  0  0  0  0  0  0  0  0  0  0
   -3.6166   21.0961  -27.7150 H   0  0  0  0  0  0  0  0  0  0  0  0
   -3.4507   19.2466  -26.1017 H   0  0  0  0  0  0  0  0  0  0  0  0
   -3.3260   18.6565  -27.8271 H   0  0  0  0  0  0  0  0  0  0  0  0
   -0.0093   19.7854  -26.9228 H   0  0  0  0  0  0  0  0  0  0  0  0
    0.1344   18.1140  -27.6502 H   0  0  0  0  0  0  0  0  0  0  0  0
    0.0077   19.8593  -29.3886 H   0  0  0  0  0  0  0  0  0  0  0  0
   -1.4095   18.7260  -29.4216 H   0  0  0  0  0  0  0  0  0  0  0  0
  1  2  1  0
  2  3  1  0
  3  4  1  0
  4  5  1  0
  3  6  1  0
  6  7  1  0
  3  8  1  0
  8  9  1  0
  9 10  1  0
 10 11  1  0
 11 12  2  0
 12 13  1  0
 13 14  2  0
 14 15  1  0
 15 16  2  0
 16 17  1  0
 17 18  2  0
 18 19  1  0
 18 20  1  0
 20 21  2  0
 21 22  1  0
 22 23  2  0
 23 24  1  0
 24 25  1  0
 25 26  1  0
 26 27  1  0
 27 28  1  0
 28 29  1  0
 29 30  1  0
 30 31  1  0
 31 32  1  0
 32 33  1  0
 24 34  2  0
 34 11  1  0
 17 12  1  0
 34 20  1  0
 33 28  1  0
  1 35  1  0
  1 36  1  0
  1 37  1  0
  2 38  1  0
  2 39  1  0
  4 40  1  0
  4 41  1  0
  5 42  1  0
  5 43  1  0
  5 44  1  0
  6 45  1  0
  6 46  1  0
  7 47  1  0
  7 48  1  0
  7 49  1  0
  8 50  1  0
  8 51  1  0
  9 52  1  0
  9 53  1  0
 10 54  1  0
 13 55  1  0
 14 56  1  0
 15 57  1  0
 16 58  1  0
 19 59  1  0
 19 60  1  0
 19 61  1  0
 21 62  1  0
 22 63  1  0
 23 64  1  0
 25 65  1  0
 26 66  1  0
 26 67  1  0
 27 68  1  0
 27 69  1  0
 29 70  1  0
 29 71  1  0
 30 72  1  0
 30 73  1  0
 32 74  1  0
 32 75  1  0
 33 76  1  0
 33 77  1  0
M  CHG  2   3   1  18   1
M  END
>  <UniqueID>  (19) 
19

>  <SMILES>  (19) 
CC[N+](CC)(CC)CCNc1c2ccccc2[n+](C)c2cccc(NCCN3CCOCC3)c12

>  <Energy>  (19) 
153.89581326499794

>  <Genealogy>  (19) 
CC[N+](CC)(CC)CCNc1c2ccccc2[n+](C)c2cccc(NCCN3CCOCC3)c12 (3D coordinates assigned)
CC[N+](CC)(CC)CCNc1c2ccccc2[n+](C)c2cccc(NCCN3CCOCC3)c12 (nonaromatic ring conformer: 153.89581326499794 kcal/mol)

>  <smiles>  (19) 
CC[N+](CC)(CC)CCNc1c2ccccc2[n+](C)c2cccc(NCCN3CCOCC3)c12

>  <score_type>  (19) 
oracle

>  <origin>  (19) 
adg

>  <m_score__min__energy>  (19) 
-8.3399999999999999

>  <m_primary>  (19) 
energy

$$$$
19:0
     RDKit          3D

 60 62  0  0  0  0  0  0  0  0999 V2000
   -1.3580   25.6320  -27.7890 C   0  0  0  0  0  0  0  0  0  0  0  0
   -1.9010   24.3730  -28.4620 C   0  0  0  0  0  0  0  0  0  0  0  0
   -3.3560   24.5360  -28.9390 C   0  0  0  0  0  0  0  0  0  0  0  0
   -3.4930   24.4240  -30.4130 N   0  0  0  0  0  0  0  0  0  0  0  0
   -4.9140   24.5170  -30.8300 C   0  0  0  0  0  0  0  0  0  0  0  0
   -5.6220   25.6670  -30.0990 C   0  0  0  0  0  0  0  0  0  0  0  0
   -7.0480   25.2820  -29.7120 C   0  0  0  0  0  0  0  0  0  0  0  0
   -2.8590   23.1740  -30.9130 C   0  0  0  0  0  0  0  0  0  0  0  0
   -3.8940   22.0480  -31.0070 C   0  0  0  0  0  0  0  0  0  0  0  0
   -4.5080   21.9890  -32.3320 N   0  0  0  0  0  0  0  0  0  0  0  0
   -5.5050   20.9980  -32.6130 C   0  0  0  0  0  0  0  0  0  0  0  0
   -6.8500   21.2820  -32.3290 C   0  0  0  0  0  0  0  0  0  0  0  0
   -7.2530   22.5850  -31.9660 C   0  0  0  0  0  0  0  0  0  0  0  0
   -8.5970   22.8800  -31.7460 C   0  0  0  0  0  0  0  0  0  0  0  0
   -9.5580   21.8850  -31.8880 C   0  0  0  0  0  0  0  0  0  0  0  0
   -9.1770   20.5830  -32.2130 C   0  0  0  0  0  0  0  0  0  0  0  0
   -7.8120   20.2460  -32.3970 C   0  0  0  0  0  0  0  0  0  0  0  0
   -7.4070   18.9450  -32.6230 N   0  0  0  0  0  0  0  0  0  0  0  0
   -8.3370   17.8270  -32.3400 C   0  0  0  0  0  0  0  0  0  0  0  0
   -6.1290   18.6870  -33.0860 C   0  0  0  0  0  0  0  0  0  0  0  0
   -5.7650   17.3990  -33.5520 C   0  0  0  0  0  0  0  0  0  0  0  0
   -4.4720   17.1250  -33.9760 C   0  0  0  0  0  0  0  0  0  0  0  0
   -3.5180   18.1300  -34.0110 C   0  0  0  0  0  0  0  0  0  0  0  0
   -3.8400   19.4380  -33.6230 C   0  0  0  0  0  0  0  0  0  0  0  0
   -2.8840   20.4780  -33.8890 N   0  0  0  0  0  0  0  0  0  0  0  0
   -1.5890   20.5440  -33.2170 C   0  0  0  0  0  0  0  0  0  0  0  0
   -5.1460   19.7230  -33.1130 C   0  0  0  0  0  0  0  0  0  0  0  0
   -1.4086   25.5146  -26.6965 H   0  0  0  0  0  0  0  0  0  0  0  0
   -0.3124   25.7884  -28.0929 H   0  0  0  0  0  0  0  0  0  0  0  0
   -1.9619   26.4997  -28.0929 H   0  0  0  0  0  0  0  0  0  0  0  0
   -1.2695   24.1383  -29.3316 H   0  0  0  0  0  0  0  0  0  0  0  0
   -1.8837   23.5637  -27.7172 H   0  0  0  0  0  0  0  0  0  0  0  0
   -3.9701   23.7541  -28.4683 H   0  0  0  0  0  0  0  0  0  0  0  0
   -3.6886   25.5441  -28.6506 H   0  0  0  0  0  0  0  0  0  0  0  0
   -4.9608   24.6958  -31.9144 H   0  0  0  0  0  0  0  0  0  0  0  0
   -5.4188   23.5734  -30.5757 H   0  0  0  0  0  0  0  0  0  0  0  0
   -5.0575   25.9142  -29.1878 H   0  0  0  0  0  0  0  0  0  0  0  0
   -5.6670   26.5335  -30.7751 H   0  0  0  0  0  0  0  0  0  0  0  0
   -7.1367   25.2581  -28.6158 H   0  0  0  0  0  0  0  0  0  0  0  0
   -7.7514   26.0224  -30.1207 H   0  0  0  0  0  0  0  0  0  0  0  0
   -7.2832   24.2882  -30.1207 H   0  0  0  0  0  0  0  0  0  0  0  0
   -2.4327   23.3581  -31.9102 H   0  0  0  0  0  0  0  0  0  0  0  0
   -2.0670   22.8717  -30.2121 H   0  0  0  0  0  0  0  0  0  0  0  0
   -3.3970   21.0885  -30.8011 H   0  0  0  0  0  0  0  0  0  0  0  0
   -4.6860   22.2471  -30.2700 H   0  0  0  0  0  0  0  0  0  0  0  0
   -4.3570   22.7570  -33.0240 H   0  0  0  0  0  0  0  0  0  0  0  0
   -6.4974   23.3768  -31.8555 H   0  0  0  0  0  0  0  0  0  0  0  0
   -8.8974   23.8989  -31.4603 H   0  0  0  0  0  0  0  0  0  0  0  0
  -10.6217   22.1253  -31.7436 H   0  0  0  0  0  0  0  0  0  0  0  0
   -9.9471   19.8060  -32.3283 H   0  0  0  0  0  0  0  0  0  0  0  0
   -8.4405   17.7026  -31.2520 H   0  0  0  0  0  0  0  0  0  0  0  0
   -9.3210   18.0485  -32.7790 H   0  0  0  0  0  0  0  0  0  0  0  0
   -7.9400   16.8998  -32.7790 H   0  0  0  0  0  0  0  0  0  0  0  0
   -6.5217   16.6011  -33.5782 H   0  0  0  0  0  0  0  0  0  0  0  0
   -4.2029   16.1045  -34.2860 H   0  0  0  0  0  0  0  0  0  0  0  0
   -2.4965   17.8985  -34.3471 H   0  0  0  0  0  0  0  0  0  0  0  0
   -3.1100   21.2130  -34.5960 H   0  0  0  0  0  0  0  0  0  0  0  0
   -1.7405   20.5363  -32.1275 H   0  0  0  0  0  0  0  0  0  0  0  0
   -0.9799   19.6757  -33.5087 H   0  0  0  0  0  0  0  0  0  0  0  0
   -1.0713   21.4697  -33.5087 H   0  0  0  0  0  0  0  0  0  0  0  0
  1  2  1  0
  2  3  1  0
  3  4  1  0
  4  5  1  0
  5  6  1  0
  6  7  1  0
  4  8  1  0
  8  9  1  0
  9 10  1  0
 10 11  1  0
 11 12  2  0
 12 13  1  0
 13 14  2  0
 14 15  1  0
 15 16  2  0
 16 17  1  0
 17 18  2  0
 18 19  1  0
 18 20  1  0
 20 21  2  0
 21 22  1  0
 22 23  2  0
 23 24  1  0
 24 25  1  0
 25 26  1  0
 24 27  2  0
 27 11  1  0
 17 12  1  0
 27 20  1  0
  1 28  1  0
  1 29  1  0
  1 30  1  0
  2 31  1  0
  2 32  1  0
  3 33  1  0
  3 34  1  0
  5 35  1  0
  5 36  1  0
  6 37  1  0
  6 38  1  0
  7 39  1  0
  7 40  1  0
  7 41  1  0
  8 42  1  0
  8 43  1  0
  9 44  1  0
  9 45  1  0
 10 46  1  0
 13 47  1  0
 14 48  1  0
 15 49  1  0
 16 50  1  0
 19 51  1  0
 19 52  1  0
 19 53  1  0
 21 54  1  0
 22 55  1  0
 23 56  1  0
 25 57  1  0
 26 58  1  0
 26 59  1  0
 26 60  1  0
M  CHG  1  18   1
M  END
>  <UniqueID>  (20) 
20

>  <SMILES>  (20) 
CCCN(CCC)CCNc1c2ccccc2[n+](C)c2cccc(NC)c12

>  <Energy>  (20) 
87.76618200392458

>  <Genealogy>  (20) 
CCCN(CCC)CCNc1c2ccccc2[n+](C)c2cccc(NC)c12 (3D coordinates assigned)
CCCN(CCC)CCNc1c2ccccc2[n+](C)c2cccc(NC)c12 (optimized conformer: 87.76618200392458 kcal/mol)

>  <smiles>  (20) 
CCCN(CCC)CCNc1c2ccccc2[n+](C)c2cccc(NC)c12

>  <score_type>  (20) 
oracle

>  <origin>  (20) 
adg

>  <m_score__min__energy>  (20) 
-8.3699999999999992

>  <m_primary>  (20) 
energy

$$$$
20:0
     RDKit          3D

 62 65  0  0  0  0  0  0  0  0999 V2000
   -6.4810   25.0130  -29.7250 C   0  0  0  0  0  0  0  0  0  0  0  0
   -5.4160   25.7490  -30.5300 C   0  0  0  0  0  0  0  0  0  0  0  0
   -4.2130   24.9870  -30.5870 O   0  0  0  0  0  0  0  0  0  0  0  0
   -4.0760   23.7150  -30.0180 C   0  0  0  0  0  0  0  0  0  0  0  0
   -3.6850   23.5840  -28.8250 O   0  0  0  0  0  0  0  0  0  0  0  0
   -4.4190   22.5020  -30.8360 C   0  0  0  0  0  0  0  0  0  0  0  0
   -3.3710   21.3940  -30.6260 C   0  0  0  0  0  0  0  0  0  0  0  0
   -3.7800   20.1240  -31.3920 C   0  0  0  0  0  0  0  0  0  0  0  0
   -4.3070   20.4430  -32.7290 N   0  0  0  0  0  0  0  0  0  0  0  0
   -5.2200   19.5390  -33.3840 C   0  0  0  0  0  0  0  0  0  0  0  0
   -6.1180   20.0000  -34.1400 O   0  0  0  0  0  0  0  0  0  0  0  0
   -5.1230   18.0740  -33.1950 C   0  0  0  0  0  0  0  0  0  0  0  0
   -3.9540   17.3360  -33.2460 C   0  0  0  0  0  0  0  0  0  0  0  0
   -4.3550   16.0210  -33.0710 C   0  0  0  0  0  0  0  0  0  0  0  0
   -3.4740   14.8290  -33.0490 C   0  0  0  0  0  0  0  0  0  0  0  0
   -3.7230   13.7720  -32.1530 C   0  0  0  0  0  0  0  0  0  0  0  0
   -2.8950   12.6450  -32.1380 C   0  0  0  0  0  0  0  0  0  0  0  0
   -1.8090   12.5620  -33.0110 C   0  0  0  0  0  0  0  0  0  0  0  0
   -1.5490   13.6040  -33.9020 C   0  0  0  0  0  0  0  0  0  0  0  0
   -2.3750   14.7320  -33.9240 C   0  0  0  0  0  0  0  0  0  0  0  0
   -5.6960   15.9910  -32.9290 N   0  0  0  0  0  0  0  0  0  0  0  0
   -6.1610   17.2280  -32.9990 N   0  0  0  0  0  0  0  0  0  0  0  0
   -7.5820   17.5590  -32.8880 C   0  0  0  0  0  0  0  0  0  0  0  0
   -7.8710   18.1910  -31.5240 C   0  0  0  0  0  0  0  0  0  0  0  0
   -8.2310   19.6440  -31.6800 C   0  0  0  0  0  0  0  0  0  0  0  0
   -9.4710   20.0140  -32.2260 C   0  0  0  0  0  0  0  0  0  0  0  0
   -9.8160   21.3640  -32.3380 C   0  0  0  0  0  0  0  0  0  0  0  0
   -8.9330   22.3530  -31.8950 C   0  0  0  0  0  0  0  0  0  0  0  0
   -7.7040   21.9910  -31.3360 C   0  0  0  0  0  0  0  0  0  0  0  0
   -7.3530   20.6420  -31.2250 C   0  0  0  0  0  0  0  0  0  0  0  0
   -4.0640   21.7810  -33.2860 C   0  0  0  0  0  0  0  0  0  0  0  0
   -4.5990   22.8650  -32.3360 C   0  0  0  0  0  0  0  0  0  0  0  0
   -6.2866   25.1473  -28.6507 H   0  0  0  0  0  0  0  0  0  0  0  0
   -7.4730   25.4192  -29.9717 H   0  0  0  0  0  0  0  0  0  0  0  0
   -6.4518   23.9414  -29.9717 H   0  0  0  0  0  0  0  0  0  0  0  0
   -5.7867   25.9159  -31.5521 H   0  0  0  0  0  0  0  0  0  0  0  0
   -5.2033   26.7106  -30.0400 H   0  0  0  0  0  0  0  0  0  0  0  0
   -5.3865   22.1103  -30.4888 H   0  0  0  0  0  0  0  0  0  0  0  0
   -2.3950   21.7424  -30.9948 H   0  0  0  0  0  0  0  0  0  0  0  0
   -3.3054   21.1606  -29.5530 H   0  0  0  0  0  0  0  0  0  0  0  0
   -2.8993   19.4740  -31.5013 H   0  0  0  0  0  0  0  0  0  0  0  0
   -4.5732   19.6188  -30.8214 H   0  0  0  0  0  0  0  0  0  0  0  0
   -2.9304   17.7108  -33.3932 H   0  0  0  0  0  0  0  0  0  0  0  0
   -4.5749   13.8330  -31.4598 H   0  0  0  0  0  0  0  0  0  0  0  0
   -3.0999   11.8225  -31.4370 H   0  0  0  0  0  0  0  0  0  0  0  0
   -1.1582   11.6753  -32.9966 H   0  0  0  0  0  0  0  0  0  0  0  0
   -0.6922   13.5378  -34.5887 H   0  0  0  0  0  0  0  0  0  0  0  0
   -2.1648   15.5492  -34.6297 H   0  0  0  0  0  0  0  0  0  0  0  0
   -6.2910   15.1470  -32.7680 H   0  0  0  0  0  0  0  0  0  0  0  0
   -7.8530   18.2696  -33.6828 H   0  0  0  0  0  0  0  0  0  0  0  0
   -8.1748   16.6381  -32.9905 H   0  0  0  0  0  0  0  0  0  0  0  0
   -8.7092   17.6597  -31.0495 H   0  0  0  0  0  0  0  0  0  0  0  0
   -6.9693   18.1138  -30.8988 H   0  0  0  0  0  0  0  0  0  0  0  0
  -10.1731   19.2388  -32.5667 H   0  0  0  0  0  0  0  0  0  0  0  0
  -10.7842   21.6486  -32.7756 H   0  0  0  0  0  0  0  0  0  0  0  0
   -9.2050   23.4149  -31.9862 H   0  0  0  0  0  0  0  0  0  0  0  0
   -7.0114   22.7691  -30.9826 H   0  0  0  0  0  0  0  0  0  0  0  0
   -6.3868   20.3614  -30.7802 H   0  0  0  0  0  0  0  0  0  0  0  0
   -2.9823   21.9239  -33.4258 H   0  0  0  0  0  0  0  0  0  0  0  0
   -4.5854   21.8647  -34.2510 H   0  0  0  0  0  0  0  0  0  0  0  0
   -4.0608   23.8031  -32.5364 H   0  0  0  0  0  0  0  0  0  0  0  0
   -5.6786   22.9622  -32.5232 H   0  0  0  0  0  0  0  0  0  0  0  0
  1  2  1  0
  2  3  1  0
  3  4  1  0
  4  5  2  0
  4  6  1  0
  6  7  1  0
  7  8  1  0
  8  9  1  0
  9 10  1  0
 10 11  2  0
 10 12  1  0
 12 13  2  0
 13 14  1  0
 14 15  1  0
 15 16  2  0
 16 17  1  0
 17 18  2  0
 18 19  1  0
 19 20  2  0
 14 21  2  0
 21 22  1  0
 22 23  1  0
 23 24  1  0
 24 25  1  0
 25 26  2  0
 26 27  1  0
 27 28  2  0
 28 29  1  0
 29 30  2  0
  9 31  1  0
 31 32  1  0
 32  6  1  0
 22 12  1  0
 30 25  1  0
 20 15  1  0
  1 33  1  0
  1 34  1  0
  1 35  1  0
  2 36  1  0
  2 37  1  0
  6 38  1  0
  7 39  1  0
  7 40  1  0
  8 41  1  0
  8 42  1  0
 13 43  1  0
 16 44  1  0
 17 45  1  0
 18 46  1  0
 19 47  1  0
 20 48  1  0
 21 49  1  0
 23 50  1  0
 23 51  1  0
 24 52  1  0
 24 53  1  0
 26 54  1  0
 27 55  1  0
 28 56  1  0
 29 57  1  0
 30 58  1  0
 31 59  1  0
 31 60  1  0
 32 61  1  0
 32 62  1  0
M  CHG  1  21   1
M  END
>  <UniqueID>  (21) 
21

>  <SMILES>  (21) 
CCOC(=O)C1CCN(C(=O)c2cc(-c3ccccc3)[nH+]n2CCc2ccccc2)CC1

>  <Energy>  (21) 
96.63877385246863

>  <Genealogy>  (21) 
CCOC(=O)C1CCN(C(=O)c2cc(-c3ccccc3)[nH+]n2CCc2ccccc2)CC1 (protonated)
CCOC(=O)C1CCN(C(=O)c2cc(-c3ccccc3)[nH+]n2CCc2ccccc2)CC1 (3D coordinates assigned)
CCOC(=O)C1CCN(C(=O)c2cc(-c3ccccc3)[nH+]n2CCc2ccccc2)CC1 (nonaromatic ring conformer: 96.63877385246863 kcal/mol)

>  <smiles>  (21) 
CCOC(=O)C1CCN(C(=O)c2cc(-c3ccccc3)nn2CCc2ccccc2)CC1

>  <score_type>  (21) 
oracle

>  <origin>  (21) 
adg

>  <m_score__min__energy>  (21) 
-9.1899999999999995

>  <m_primary>  (21) 
energy

$$$$
21:0
     RDKit          3D

 47 49  0  0  0  0  0  0  0  0999 V2000
   -5.9990   14.5740  -34.3800 C   0  0  0  0  0  0  0  0  0  0  0  0
   -6.1660   16.0130  -34.0230 C   0  0  0  0  0  0  0  0  0  0  0  0
   -7.1970   16.4900  -33.2970 N   0  0  0  0  0  0  0  0  0  0  0  0
   -7.0320   17.8000  -33.1680 N   0  0  0  0  0  0  0  0  0  0  0  0
   -7.9140   18.6680  -32.3750 C   0  0  1  0  0  0  0  0  0  0  0  0
   -7.1880   19.3530  -31.2200 C   0  0  0  0  0  0  0  0  0  0  0  0
   -7.4230   20.6930  -31.7770 N   0  0  2  0  0  0  0  0  0  0  0  0
   -8.2700   21.6230  -30.9870 C   0  0  0  0  0  0  0  0  0  0  0  0
   -7.5510   22.8600  -30.3850 C   0  0  0  0  0  0  0  0  0  0  0  0
   -6.2640   23.1690  -31.0440 N   0  0  0  0  0  0  0  0  0  0  0  0
   -6.1440   24.5180  -31.6310 C   0  0  0  0  0  0  0  0  0  0  0  0
   -5.3090   25.4540  -30.7530 C   0  0  0  0  0  0  0  0  0  0  0  0
   -4.0550   24.8740  -30.4730 O   0  0  0  0  0  0  0  0  0  0  0  0
   -4.2410   23.7380  -29.6550 C   0  0  0  0  0  0  0  0  0  0  0  0
   -5.0470   22.6480  -30.3830 C   0  0  0  0  0  0  0  0  0  0  0  0
   -8.0900   20.0810  -32.9350 C   0  0  0  0  0  0  0  0  0  0  0  0
   -5.8770   18.1690  -33.7690 C   0  0  0  0  0  0  0  0  0  0  0  0
   -5.3300   19.5660  -33.8140 C   0  0  0  0  0  0  0  0  0  0  0  0
   -5.3180   17.0520  -34.3660 C   0  0  0  0  0  0  0  0  0  0  0  0
   -4.0190   16.9670  -35.1050 C   0  0  0  0  0  0  0  0  0  0  0  0
   -5.9294   13.9739  -33.4608 H   0  0  0  0  0  0  0  0  0  0  0  0
   -6.8644   14.2401  -34.9712 H   0  0  0  0  0  0  0  0  0  0  0  0
   -5.0801   14.4471  -34.9712 H   0  0  0  0  0  0  0  0  0  0  0  0
   -8.7611   17.9787  -32.2437 H   0  0  0  0  0  0  0  0  0  0  0  0
   -6.1228   19.0869  -31.1521 H   0  0  0  0  0  0  0  0  0  0  0  0
   -7.5076   19.1409  -30.1890 H   0  0  0  0  0  0  0  0  0  0  0  0
   -6.5230   21.1480  -32.0620 H   0  0  0  0  0  0  0  0  0  0  0  0
   -9.0719   21.9882  -31.6455 H   0  0  0  0  0  0  0  0  0  0  0  0
   -8.6236   21.0390  -30.1245 H   0  0  0  0  0  0  0  0  0  0  0  0
   -8.2133   23.7323  -30.4870 H   0  0  0  0  0  0  0  0  0  0  0  0
   -7.3297   22.6271  -29.3330 H   0  0  0  0  0  0  0  0  0  0  0  0
   -5.6643   24.4346  -32.6174 H   0  0  0  0  0  0  0  0  0  0  0  0
   -7.1551   24.9431  -31.7146 H   0  0  0  0  0  0  0  0  0  0  0  0
   -5.1580   26.4074  -31.2804 H   0  0  0  0  0  0  0  0  0  0  0  0
   -5.8423   25.6268  -29.8066 H   0  0  0  0  0  0  0  0  0  0  0  0
   -3.2571   23.3311  -29.3785 H   0  0  0  0  0  0  0  0  0  0  0  0
   -4.8023   24.0440  -28.7599 H   0  0  0  0  0  0  0  0  0  0  0  0
   -4.4031   22.1884  -31.1473 H   0  0  0  0  0  0  0  0  0  0  0  0
   -5.3719   21.9197  -29.6254 H   0  0  0  0  0  0  0  0  0  0  0  0
   -7.5602   20.2461  -33.8848 H   0  0  0  0  0  0  0  0  0  0  0  0
   -9.0975   20.4234  -33.2136 H   0  0  0  0  0  0  0  0  0  0  0  0
   -5.1850   19.9362  -32.7884 H   0  0  0  0  0  0  0  0  0  0  0  0
   -4.3657   19.5653  -34.3433 H   0  0  0  0  0  0  0  0  0  0  0  0
   -6.0384   20.2203  -34.3433 H   0  0  0  0  0  0  0  0  0  0  0  0
   -3.1899   16.9127  -34.3841 H   0  0  0  0  0  0  0  0  0  0  0  0
   -4.0149   16.0667  -35.7370 H   0  0  0  0  0  0  0  0  0  0  0  0
   -3.8976   17.8591  -35.7370 H   0  0  0  0  0  0  0  0  0  0  0  0
  1  2  1  0
  2  3  2  0
  3  4  1  0
  4  5  1  0
  5  6  1  0
  6  7  1  0
  7  8  1  0
  8  9  1  0
  9 10  1  0
 10 11  1  0
 11 12  1  0
 12 13  1  0
 13 14  1  0
 14 15  1  0
  7 16  1  0
  4 17  1  0
 17 18  1  0
 17 19  2  0
 19 20  1  0
 19  2  1  0
 16  5  1  0
 15 10  1  0
  1 21  1  0
  1 22  1  0
  1 23  1  0
  5 24  1  1
  6 25  1  0
  6 26  1  0
  7 27  1  6
  8 28  1  0
  8 29  1  0
  9 30  1  0
  9 31  1  0
 11 32  1  0
 11 33  1  0
 12 34  1  0
 12 35  1  0
 14 36  1  0
 14 37  1  0
 15 38  1  0
 15 39  1  0
 16 40  1  0
 16 41  1  0
 18 42  1  0
 18 43  1  0
 18 44  1  0
 20 45  1  0
 20 46  1  0
 20 47  1  0
M  CHG  1   7   1
M  END
>  <UniqueID>  (22) 
22

>  <SMILES>  (22) 
Cc1nn(C2C[NH+](CCN3CCOCC3)C2)c(C)c1C

>  <Energy>  (22) 
164.35222473550684

>  <Genealogy>  (22) 
Cc1nn(C2C[NH+](CCN3CCOCC3)C2)c(C)c1C (protonated)
Cc1nn(C2C[NH+](CCN3CCOCC3)C2)c(C)c1C (3D coordinates assigned)
Cc1nn(C2C[NH+](CCN3CCOCC3)C2)c(C)c1C (nonaromatic ring conformer: 164.35222473550684 kcal/mol)

>  <smiles>  (22) 
Cc1nn(C2CN(CCN3CCOCC3)C2)c(C)c1C

>  <score_type>  (22) 
oracle

>  <origin>  (22) 
adg

>  <m_score__min__energy>  (22) 
-7.0199999999999996

>  <m_primary>  (22) 
energy

$$$$
22:0
     RDKit          3D

 51 53  0  0  0  0  0  0  0  0999 V2000
   -6.8060   23.4240  -32.4530 C   0  0  0  0  0  0  0  0  0  0  0  0
   -7.5460   22.1990  -32.0320 C   0  0  0  0  0  0  0  0  0  0  0  0
   -8.4120   22.1100  -30.9590 C   0  0  0  0  0  0  0  0  0  0  0  0
   -8.8490   20.8020  -30.9390 C   0  0  0  0  0  0  0  0  0  0  0  0
   -8.2180   20.1810  -32.0010 C   0  0  0  0  0  0  0  0  0  0  0  0
   -8.3850   18.7490  -32.4090 C   0  0  0  0  0  0  0  0  0  0  0  0
   -7.0630   18.1190  -32.6110 N   0  0  0  0  0  0  0  0  0  0  0  0
   -6.4750   18.5420  -33.9020 C   0  0  0  0  0  0  0  0  0  0  0  0
   -4.9510   18.3540  -33.9120 C   0  0  0  0  0  0  0  0  0  0  0  0
   -4.2820   19.1800  -32.8760 N   0  0  0  0  0  0  0  0  0  0  0  0
   -3.7320   20.4240  -33.4560 C   0  0  0  0  0  0  0  0  0  0  0  0
   -3.0400   21.2460  -32.4120 C   0  0  0  0  0  0  0  0  0  0  0  0
   -3.6120   22.2900  -31.7760 N   0  0  0  0  0  0  0  0  0  0  0  0
   -2.6350   22.6480  -30.9150 C   0  0  0  0  0  0  0  0  0  0  0  0
   -2.7630   23.7590  -29.9290 C   0  0  0  0  0  0  0  0  0  0  0  0
   -3.6200   24.7450  -30.4650 O   0  0  0  0  0  0  0  0  0  0  0  0
   -4.8000   24.8660  -29.6870 C   0  0  0  0  0  0  0  0  0  0  0  0
   -5.4070   23.4800  -29.4480 C   0  0  0  0  0  0  0  0  0  0  0  0
   -5.7880   25.7490  -30.4480 C   0  0  0  0  0  0  0  0  0  0  0  0
   -1.5820   21.8720  -31.0210 O   0  0  0  0  0  0  0  0  0  0  0  0
   -1.8060   20.9910  -31.9440 N   0  0  0  0  0  0  0  0  0  0  0  0
   -5.1480   19.4640  -31.7040 C   0  0  0  0  0  0  0  0  0  0  0  0
   -6.1570   18.3340  -31.4520 C   0  0  0  0  0  0  0  0  0  0  0  0
   -7.4490   21.0360  -32.6340 O   0  0  0  0  0  0  0  0  0  0  0  0
   -6.4728   23.9756  -31.5615 H   0  0  0  0  0  0  0  0  0  0  0  0
   -5.9310   23.1354  -33.0539 H   0  0  0  0  0  0  0  0  0  0  0  0
   -7.4685   24.0642  -33.0539 H   0  0  0  0  0  0  0  0  0  0  0  0
   -8.6943   22.9152  -30.2648 H   0  0  0  0  0  0  0  0  0  0  0  0
   -9.5530   20.3475  -30.2264 H   0  0  0  0  0  0  0  0  0  0  0  0
   -8.9291   18.2076  -31.6210 H   0  0  0  0  0  0  0  0  0  0  0  0
   -8.9505   18.7076  -33.3516 H   0  0  0  0  0  0  0  0  0  0  0  0
   -6.9152   17.9396  -34.7103 H   0  0  0  0  0  0  0  0  0  0  0  0
   -6.6930   19.6102  -34.0482 H   0  0  0  0  0  0  0  0  0  0  0  0
   -4.7226   17.2946  -33.7236 H   0  0  0  0  0  0  0  0  0  0  0  0
   -4.5758   18.6732  -34.8955 H   0  0  0  0  0  0  0  0  0  0  0  0
   -3.0109   20.1643  -34.2450 H   0  0  0  0  0  0  0  0  0  0  0  0
   -4.5631   21.0134  -33.8705 H   0  0  0  0  0  0  0  0  0  0  0  0
   -3.1852   23.3730  -28.9895 H   0  0  0  0  0  0  0  0  0  0  0  0
   -1.7735   24.1940  -29.7248 H   0  0  0  0  0  0  0  0  0  0  0  0
   -4.5687   25.3178  -28.7111 H   0  0  0  0  0  0  0  0  0  0  0  0
   -5.4874   23.2965  -28.3664 H   0  0  0  0  0  0  0  0  0  0  0  0
   -6.4075   23.4344  -29.9030 H   0  0  0  0  0  0  0  0  0  0  0  0
   -4.7620   22.7138  -29.9030 H   0  0  0  0  0  0  0  0  0  0  0  0
   -6.4102   26.3051  -29.7313 H   0  0  0  0  0  0  0  0  0  0  0  0
   -5.2340   26.4585  -31.0803 H   0  0  0  0  0  0  0  0  0  0  0  0
   -6.4310   25.1191  -31.0803 H   0  0  0  0  0  0  0  0  0  0  0  0
   -1.1490   20.2340  -32.2380 H   0  0  0  0  0  0  0  0  0  0  0  0
   -4.5138   19.5801  -30.8127 H   0  0  0  0  0  0  0  0  0  0  0  0
   -5.7119   20.3854  -31.9114 H   0  0  0  0  0  0  0  0  0  0  0  0
   -5.6044   17.4030  -31.2573 H   0  0  0  0  0  0  0  0  0  0  0  0
   -6.7760   18.6212  -30.5892 H   0  0  0  0  0  0  0  0  0  0  0  0
  1  2  1  0
  2  3  2  0
  3  4  1  0
  4  5  2  0
  5  6  1  0
  6  7  1  0
  7  8  1  0
  8  9  1  0
  9 10  1  0
 10 11  1  0
 11 12  1  0
 12 13  1  0
 13 14  2  0
 14 15  1  0
 15 16  1  0
 16 17  1  0
 17 18  1  0
 17 19  1  0
 14 20  1  0
 20 21  1  0
 10 22  1  0
 22 23  1  0
  5 24  1  0
 24  2  1  0
 23  7  1  0
 21 12  2  0
  1 25  1  0
  1 26  1  0
  1 27  1  0
  3 28  1  0
  4 29  1  0
  6 30  1  0
  6 31  1  0
  8 32  1  0
  8 33  1  0
  9 34  1  0
  9 35  1  0
 11 36  1  0
 11 37  1  0
 15 38  1  0
 15 39  1  0
 17 40  1  0
 18 41  1  0
 18 42  1  0
 18 43  1  0
 19 44  1  0
 19 45  1  0
 19 46  1  0
 21 47  1  0
 22 48  1  0
 22 49  1  0
 23 50  1  0
 23 51  1  0
M  CHG  1  21   1
M  END
>  <UniqueID>  (23) 
23

>  <SMILES>  (23) 
Cc1ccc(CN2CCN(Cc3nc(COC(C)C)o[nH+]3)CC2)o1

>  <Energy>  (23) 
117.83246741956061

>  <Genealogy>  (23) 
Cc1ccc(CN2CCN(Cc3nc(COC(C)C)o[nH+]3)CC2)o1 (protonated)
Cc1ccc(CN2CCN(Cc3nc(COC(C)C)o[nH+]3)CC2)o1 (3D coordinates assigned)
Cc1ccc(CN2CCN(Cc3nc(COC(C)C)o[nH+]3)CC2)o1 (nonaromatic ring conformer: 117.83246741956061 kcal/mol)

>  <smiles>  (23) 
Cc1ccc(CN2CCN(Cc3noc(COC(C)C)n3)CC2)o1

>  <score_type>  (23) 
oracle

>  <origin>  (23) 
adg

>  <m_score__min__energy>  (23) 
-8.3800000000000008

>  <m_primary>  (23) 
energy

$$$$
23:0
     RDKit          3D

 49 52  0  0  0  0  0  0  0  0999 V2000
   -5.9730   16.0560  -34.2200 C   0  0  0  0  0  0  0  0  0  0  0  0
   -5.5110   17.4200  -33.8170 C   0  0  0  0  0  0  0  0  0  0  0  0
   -4.1660   17.7800  -33.9470 C   0  0  0  0  0  0  0  0  0  0  0  0
   -3.7680   19.0610  -33.5330 C   0  0  0  0  0  0  0  0  0  0  0  0
   -2.3940   19.4900  -33.6240 N   0  0  0  0  0  0  0  0  0  0  0  0
   -1.3590   18.6210  -34.2110 C   0  0  0  0  0  0  0  0  0  0  0  0
   -0.3470   19.4440  -35.0240 C   0  0  0  0  0  0  0  0  0  0  0  0
    0.0370   20.6860  -34.3380 N   0  0  0  0  0  0  0  0  0  0  0  0
    0.9960   21.5590  -34.9650 C   0  0  0  0  0  0  0  0  0  0  0  0
    2.3300   21.1590  -35.1510 C   0  0  0  0  0  0  0  0  0  0  0  0
    3.2360   22.0400  -35.7460 C   0  0  0  0  0  0  0  0  0  0  0  0
    2.8140   23.3100  -36.1400 C   0  0  0  0  0  0  0  0  0  0  0  0
    1.4870   23.6840  -35.9250 C   0  0  0  0  0  0  0  0  0  0  0  0
    0.6190   22.8120  -35.3460 N   0  0  0  0  0  0  0  0  0  0  0  0
   -0.5080   20.9770  -33.0070 C   0  0  0  0  0  0  0  0  0  0  0  0
   -2.0240   20.7820  -33.0250 C   0  0  0  0  0  0  0  0  0  0  0  0
   -4.6980   19.8990  -33.0010 N   0  0  0  0  0  0  0  0  0  0  0  0
   -6.0050   19.5410  -32.8800 C   0  0  0  0  0  0  0  0  0  0  0  0
   -6.9760   20.4820  -32.2660 C   0  0  0  0  0  0  0  0  0  0  0  0
   -6.4950   21.7120  -31.7750 C   0  0  0  0  0  0  0  0  0  0  0  0
   -7.3550   22.6240  -31.1610 C   0  0  0  0  0  0  0  0  0  0  0  0
   -6.6740   24.2780  -30.4910 Br  0  0  0  0  0  0  0  0  0  0  0  0
   -8.7100   22.3250  -31.0290 C   0  0  0  0  0  0  0  0  0  0  0  0
   -9.2120   21.1210  -31.5220 C   0  0  0  0  0  0  0  0  0  0  0  0
   -8.3660   20.1950  -32.1580 C   0  0  0  0  0  0  0  0  0  0  0  0
   -8.9710   18.9300  -32.7100 C   0  0  0  0  0  0  0  0  0  0  0  0
   -6.3930   18.3010  -33.2780 N   0  0  0  0  0  0  0  0  0  0  0  0
   -6.1759   15.4569  -33.3201 H   0  0  0  0  0  0  0  0  0  0  0  0
   -6.8921   16.1420  -34.8182 H   0  0  0  0  0  0  0  0  0  0  0  0
   -5.1908   15.5658  -34.8182 H   0  0  0  0  0  0  0  0  0  0  0  0
   -3.4342   17.0733  -34.3654 H   0  0  0  0  0  0  0  0  0  0  0  0
   -0.8292   18.0957  -33.4027 H   0  0  0  0  0  0  0  0  0  0  0  0
   -1.8462   17.8999  -34.8838 H   0  0  0  0  0  0  0  0  0  0  0  0
    0.5550   18.8358  -35.1868 H   0  0  0  0  0  0  0  0  0  0  0  0
   -0.8225   19.7178  -35.9774 H   0  0  0  0  0  0  0  0  0  0  0  0
    2.6585   20.1593  -34.8304 H   0  0  0  0  0  0  0  0  0  0  0  0
    4.2804   21.7329  -35.9036 H   0  0  0  0  0  0  0  0  0  0  0  0
    3.5191   24.0083  -36.6146 H   0  0  0  0  0  0  0  0  0  0  0  0
    1.1428   24.6850  -36.2241 H   0  0  0  0  0  0  0  0  0  0  0  0
   -0.0591   20.2953  -32.2696 H   0  0  0  0  0  0  0  0  0  0  0  0
   -0.2746   22.0167  -32.7338 H   0  0  0  0  0  0  0  0  0  0  0  0
   -2.4014   20.8185  -31.9924 H   0  0  0  0  0  0  0  0  0  0  0  0
   -2.4681   21.5842  -33.6327 H   0  0  0  0  0  0  0  0  0  0  0  0
   -5.4274   21.9568  -31.8769 H   0  0  0  0  0  0  0  0  0  0  0  0
   -9.3845   23.0400  -30.5351 H   0  0  0  0  0  0  0  0  0  0  0  0
  -10.2825   20.8929  -31.4121 H   0  0  0  0  0  0  0  0  0  0  0  0
   -9.2821   18.2795  -31.8793 H   0  0  0  0  0  0  0  0  0  0  0  0
   -9.8465   19.1811  -33.3268 H   0  0  0  0  0  0  0  0  0  0  0  0
   -8.2260   18.4060  -33.3268 H   0  0  0  0  0  0  0  0  0  0  0  0
  1  2  1  0
  2  3  2  0
  3  4  1  0
  4  5  1  0
  5  6  1  0
  6  7  1  0
  7  8  1  0
  8  9  1  0
  9 10  2  0
 10 11  1  0
 11 12  2  0
 12 13  1  0
 13 14  2  0
  8 15  1  0
 15 16  1  0
  4 17  2  0
 17 18  1  0
 18 19  1  0
 19 20  2  0
 20 21  1  0
 21 22  1  0
 21 23  2  0
 23 24  1  0
 24 25  2  0
 25 26  1  0
 18 27  2  0
 27  2  1  0
 16  5  1  0
 25 19  1  0
 14  9  1  0
  1 28  1  0
  1 29  1  0
  1 30  1  0
  3 31  1  0
  6 32  1  0
  6 33  1  0
  7 34  1  0
  7 35  1  0
 10 36  1  0
 11 37  1  0
 12 38  1  0
 13 39  1  0
 15 40  1  0
 15 41  1  0
 16 42  1  0
 16 43  1  0
 20 44  1  0
 23 45  1  0
 24 46  1  0
 26 47  1  0
 26 48  1  0
 26 49  1  0
M  END
>  <UniqueID>  (24) 
24

>  <SMILES>  (24) 
Cc1cc(N2CCN(c3ccccn3)CC2)nc(-c2cc(Br)ccc2C)n1

>  <Energy>  (24) 
63.217248649980654

>  <Genealogy>  (24) 
Cc1cc(N2CCN(c3ccccn3)CC2)nc(-c2cc(Br)ccc2C)n1 (3D coordinates assigned)
Cc1cc(N2CCN(c3ccccn3)CC2)nc(-c2cc(Br)ccc2C)n1 (nonaromatic ring conformer: 63.217248649980654 kcal/mol)

>  <smiles>  (24) 
Cc1cc(N2CCN(c3ccccn3)CC2)nc(-c2cc(Br)ccc2C)n1

>  <score_type>  (24) 
oracle

>  <origin>  (24) 
adg

>  <m_score__min__energy>  (24) 
-9.3699999999999992

>  <m_primary>  (24) 
energy

$$$$
24:0
     RDKit          3D

 60 64  0  0  0  0  0  0  0  0999 V2000
   -0.4250   20.7100  -30.8360 C   0  0  0  0  0  0  0  0  0  0  0  0
   -0.4820   22.0600  -30.1240 C   0  0  0  0  0  0  0  0  0  0  0  0
   -1.8580   22.5840  -30.0980 N   0  0  0  0  0  0  0  0  0  0  0  0
   -2.1540   23.4170  -28.9170 C   0  0  0  0  0  0  0  0  0  0  0  0
   -3.1520   24.5550  -29.1990 C   0  0  0  0  0  0  0  0  0  0  0  0
   -3.6860   24.4700  -30.5090 O   0  0  0  0  0  0  0  0  0  0  0  0
   -4.5350   23.3470  -30.6520 C   0  0  0  0  0  0  0  0  0  0  0  0
   -5.8660   23.7680  -31.2830 C   0  0  0  0  0  0  0  0  0  0  0  0
   -6.0910   23.0640  -32.5470 N   0  0  0  0  0  0  0  0  0  0  0  0
   -5.9520   21.6390  -32.6590 C   0  0  0  0  0  0  0  0  0  0  0  0
   -4.7150   21.0960  -32.9820 C   0  0  0  0  0  0  0  0  0  0  0  0
   -4.5360   19.7330  -33.0470 C   0  0  0  0  0  0  0  0  0  0  0  0
   -5.5350   18.8390  -32.7610 N   0  0  0  0  0  0  0  0  0  0  0  0
   -5.2390   17.3970  -32.7030 C   0  0  0  0  0  0  0  0  0  0  0  0
   -6.8140   19.3330  -32.5570 C   0  0  0  0  0  0  0  0  0  0  0  0
   -7.9340   18.4730  -32.4410 C   0  0  0  0  0  0  0  0  0  0  0  0
   -9.2170   18.9850  -32.2560 C   0  0  0  0  0  0  0  0  0  0  0  0
   -9.4280   20.3580  -32.2090 C   0  0  0  0  0  0  0  0  0  0  0  0
   -8.3550   21.2360  -32.3460 C   0  0  0  0  0  0  0  0  0  0  0  0
   -7.0420   20.7510  -32.5000 C   0  0  0  0  0  0  0  0  0  0  0  0
   -3.1590   19.5290  -33.4760 C   0  0  0  0  0  0  0  0  0  0  0  0
   -2.5510   18.3600  -33.8000 N   0  0  0  0  0  0  0  0  0  0  0  0
   -1.2680   18.3710  -34.2550 C   0  0  0  0  0  0  0  0  0  0  0  0
   -0.6330   17.1670  -34.5760 C   0  0  0  0  0  0  0  0  0  0  0  0
    0.6830   17.1740  -35.0510 C   0  0  0  0  0  0  0  0  0  0  0  0
    1.3690   18.3830  -35.2070 C   0  0  0  0  0  0  0  0  0  0  0  0
    0.7480   19.5950  -34.8900 C   0  0  0  0  0  0  0  0  0  0  0  0
   -0.5750   19.6030  -34.4120 C   0  0  0  0  0  0  0  0  0  0  0  0
   -1.2530   20.7940  -34.0900 C   0  0  0  0  0  0  0  0  0  0  0  0
   -0.6980   21.9190  -34.2270 O   0  0  0  0  0  0  0  0  0  0  0  0
   -2.5320   20.7120  -33.6350 N   0  0  0  0  0  0  0  0  0  0  0  0
   -3.4370   21.8160  -33.3160 C   0  0  0  0  0  0  0  0  0  0  0  0
   -0.3909   19.9029  -30.0894 H   0  0  0  0  0  0  0  0  0  0  0  0
   -1.3189   20.5895  -31.4657 H   0  0  0  0  0  0  0  0  0  0  0  0
    0.4758   20.6653  -31.4657 H   0  0  0  0  0  0  0  0  0  0  0  0
   -0.1239   21.9376  -29.0912 H   0  0  0  0  0  0  0  0  0  0  0  0
    0.1544   22.7719  -30.6701 H   0  0  0  0  0  0  0  0  0  0  0  0
   -2.0360   23.1300  -30.9740 H   0  0  0  0  0  0  0  0  0  0  0  0
   -2.5758   22.7711  -28.1329 H   0  0  0  0  0  0  0  0  0  0  0  0
   -1.2083   23.8867  -28.6087 H   0  0  0  0  0  0  0  0  0  0  0  0
   -3.9763   24.4945  -28.4732 H   0  0  0  0  0  0  0  0  0  0  0  0
   -2.6166   25.5116  -29.1079 H   0  0  0  0  0  0  0  0  0  0  0  0
   -4.0465   22.6018  -31.2970 H   0  0  0  0  0  0  0  0  0  0  0  0
   -4.7289   22.9145  -29.6594 H   0  0  0  0  0  0  0  0  0  0  0  0
   -6.6850   23.5309  -30.5880 H   0  0  0  0  0  0  0  0  0  0  0  0
   -5.8333   24.8490  -31.4839 H   0  0  0  0  0  0  0  0  0  0  0  0
   -6.0800   23.6320  -33.4240 H   0  0  0  0  0  0  0  0  0  0  0  0
   -5.1735   17.0781  -31.6523 H   0  0  0  0  0  0  0  0  0  0  0  0
   -6.0410   16.8375  -33.2067 H   0  0  0  0  0  0  0  0  0  0  0  0
   -4.2814   17.1987  -33.2067 H   0  0  0  0  0  0  0  0  0  0  0  0
   -7.7886   17.3841  -32.4979 H   0  0  0  0  0  0  0  0  0  0  0  0
  -10.0687   18.2976  -32.1464 H   0  0  0  0  0  0  0  0  0  0  0  0
  -10.4445   20.7523  -32.0633 H   0  0  0  0  0  0  0  0  0  0  0  0
   -8.5356   22.3210  -32.3337 H   0  0  0  0  0  0  0  0  0  0  0  0
   -1.1686   16.2138  -34.4549 H   0  0  0  0  0  0  0  0  0  0  0  0
    1.1799   16.2254  -35.3026 H   0  0  0  0  0  0  0  0  0  0  0  0
    2.4033   18.3802  -35.5814 H   0  0  0  0  0  0  0  0  0  0  0  0
    1.2938   20.5419  -35.0143 H   0  0  0  0  0  0  0  0  0  0  0  0
   -3.0702   22.3962  -32.4565 H   0  0  0  0  0  0  0  0  0  0  0  0
   -3.5434   22.5479  -34.1303 H   0  0  0  0  0  0  0  0  0  0  0  0
  1  2  1  0
  2  3  1  0
  3  4  1  0
  4  5  1  0
  5  6  1  0
  6  7  1  0
  7  8  1  0
  8  9  1  0
  9 10  1  0
 10 11  2  0
 11 12  1  0
 12 13  2  0
 13 14  1  0
 13 15  1  0
 15 16  2  0
 16 17  1  0
 17 18  2  0
 18 19  1  0
 19 20  2  0
 12 21  1  0
 21 22  2  0
 22 23  1  0
 23 24  2  0
 24 25  1  0
 25 26  2  0
 26 27  1  0
 27 28  2  0
 28 29  1  0
 29 30  2  0
 29 31  1  0
 31 32  1  0
 20 10  1  0
 31 21  1  0
 32 11  1  0
 20 15  1  0
 28 23  1  0
  1 33  1  0
  1 34  1  0
  1 35  1  0
  2 36  1  0
  2 37  1  0
  3 38  1  0
  4 39  1  0
  4 40  1  0
  5 41  1  0
  5 42  1  0
  7 43  1  0
  7 44  1  0
  8 45  1  0
  8 46  1  0
  9 47  1  0
 14 48  1  0
 14 49  1  0
 14 50  1  0
 16 51  1  0
 17 52  1  0
 18 53  1  0
 19 54  1  0
 24 55  1  0
 25 56  1  0
 26 57  1  0
 27 58  1  0
 32 59  1  0
 32 60  1  0
M  CHG  1  13   1
M  END
>  <UniqueID>  (25) 
25

>  <SMILES>  (25) 
CCNCCOCCNc1c2c([n+](C)c3ccccc13)-c1nc3ccccc3c(=O)n1C2

>  <Energy>  (25) 
111.75209282310134

>  <Genealogy>  (25) 
CCNCCOCCNc1c2c([n+](C)c3ccccc13)-c1nc3ccccc3c(=O)n1C2 (3D coordinates assigned)
CCNCCOCCNc1c2c([n+](C)c3ccccc13)-c1nc3ccccc3c(=O)n1C2 (nonaromatic ring conformer: 111.75209282310134 kcal/mol)

>  <smiles>  (25) 
CCNCCOCCNc1c2c([n+](C)c3ccccc13)-c1nc3ccccc3c(=O)n1C2

>  <score_type>  (25) 
oracle

>  <origin>  (25) 
adg

>  <m_score__min__energy>  (25) 
-10.06

>  <m_primary>  (25) 
energy

$$$$
25:0
     RDKit          3D

 78 81  0  0  0  0  0  0  0  0999 V2000
    0.7770   22.4780  -35.8240 C   0  0  0  0  0  0  0  0  0  0  0  0
   -0.0990   21.2310  -35.6670 C   0  0  0  0  0  0  0  0  0  0  0  0
   -0.5020   20.9940  -34.2720 N   0  0  0  0  0  0  0  0  0  0  0  0
    0.6350   21.0590  -33.3440 C   0  0  0  0  0  0  0  0  0  0  0  0
    0.8750   19.6890  -32.6940 C   0  0  0  0  0  0  0  0  0  0  0  0
   -0.3870   19.0710  -32.0690 C   0  0  0  0  0  0  0  0  0  0  0  0
   -0.9120   19.8790  -30.8760 C   0  0  0  0  0  0  0  0  0  0  0  0
   -1.4300   21.1770  -31.3110 N   0  0  0  0  0  0  0  0  0  0  0  0
   -2.1360   22.0510  -30.4130 C   0  0  0  0  0  0  0  0  0  0  0  0
   -1.5640   22.3520  -29.1640 C   0  0  0  0  0  0  0  0  0  0  0  0
   -0.2600   21.9140  -28.8450 C   0  0  0  0  0  0  0  0  0  0  0  0
    0.2820   22.1480  -27.5850 C   0  0  0  0  0  0  0  0  0  0  0  0
   -0.4660   22.8090  -26.6180 C   0  0  0  0  0  0  0  0  0  0  0  0
   -1.7490   23.2660  -26.9160 C   0  0  0  0  0  0  0  0  0  0  0  0
   -2.3120   23.0830  -28.2070 C   0  0  0  0  0  0  0  0  0  0  0  0
   -3.5650   23.5690  -28.5290 N   0  0  0  0  0  0  0  0  0  0  0  0
   -4.2280   24.5460  -27.6360 C   0  0  0  0  0  0  0  0  0  0  0  0
   -4.1790   23.1820  -29.7060 C   0  0  0  0  0  0  0  0  0  0  0  0
   -5.5540   23.4360  -29.9360 C   0  0  0  0  0  0  0  0  0  0  0  0
   -6.1550   23.1330  -31.1570 C   0  0  0  0  0  0  0  0  0  0  0  0
   -7.6060   23.4500  -31.3830 C   0  0  0  0  0  0  0  0  0  0  0  0
   -5.3830   22.6210  -32.1960 C   0  0  0  0  0  0  0  0  0  0  0  0
   -4.0280   22.3060  -31.9990 C   0  0  0  0  0  0  0  0  0  0  0  0
   -3.2350   21.8410  -33.0670 O   0  0  0  0  0  0  0  0  0  0  0  0
   -3.3690   20.5860  -33.7370 C   0  0  0  0  0  0  0  0  0  0  0  0
   -3.9770   19.5340  -32.7790 C   0  0  0  0  0  0  0  0  0  0  0  0
   -5.2040   18.8220  -33.2710 N   0  0  0  0  0  0  0  0  0  0  0  0
   -4.7590   17.9690  -34.4080 C   0  0  0  0  0  0  0  0  0  0  0  0
   -5.7430   17.9200  -32.1990 C   0  0  0  0  0  0  0  0  0  0  0  0
   -7.2230   17.5590  -32.4140 C   0  0  0  0  0  0  0  0  0  0  0  0
   -8.1160   18.8120  -32.4060 C   0  0  0  0  0  0  0  0  0  0  0  0
   -7.3580   20.0900  -32.7950 C   0  0  0  0  0  0  0  0  0  0  0  0
   -6.2300   19.7890  -33.7970 C   0  0  0  0  0  0  0  0  0  0  0  0
   -3.4420   22.5020  -30.7170 C   0  0  0  0  0  0  0  0  0  0  0  0
    1.0478   22.8634  -34.8299 H   0  0  0  0  0  0  0  0  0  0  0  0
    1.6910   22.2167  -36.3774 H   0  0  0  0  0  0  0  0  0  0  0  0
    0.2212   23.2493  -36.3774 H   0  0  0  0  0  0  0  0  0  0  0  0
   -1.0045   21.3574  -36.2786 H   0  0  0  0  0  0  0  0  0  0  0  0
    0.4940   20.3642  -35.9941 H   0  0  0  0  0  0  0  0  0  0  0  0
   -1.2160   21.7070  -33.9910 H   0  0  0  0  0  0  0  0  0  0  0  0
    1.5369   21.3609  -33.8966 H   0  0  0  0  0  0  0  0  0  0  0  0
    0.4107   21.7931  -32.5561 H   0  0  0  0  0  0  0  0  0  0  0  0
    1.2536   19.0009  -33.4642 H   0  0  0  0  0  0  0  0  0  0  0  0
    1.5956   19.8428  -31.8773 H   0  0  0  0  0  0  0  0  0  0  0  0
   -1.1736   19.0249  -32.8365 H   0  0  0  0  0  0  0  0  0  0  0  0
   -0.1196   18.0696  -31.7007 H   0  0  0  0  0  0  0  0  0  0  0  0
   -1.7195   19.3148  -30.3864 H   0  0  0  0  0  0  0  0  0  0  0  0
   -0.0819   20.0493  -30.1746 H   0  0  0  0  0  0  0  0  0  0  0  0
   -1.2520   21.4970  -32.2900 H   0  0  0  0  0  0  0  0  0  0  0  0
    0.3346   21.3813  -29.6018 H   0  0  0  0  0  0  0  0  0  0  0  0
    1.3029   21.8097  -27.3542 H   0  0  0  0  0  0  0  0  0  0  0  0
   -0.0447   22.9720  -25.6150 H   0  0  0  0  0  0  0  0  0  0  0  0
   -2.3352   23.7770  -26.1380 H   0  0  0  0  0  0  0  0  0  0  0  0
   -4.0409   24.2703  -26.5877 H   0  0  0  0  0  0  0  0  0  0  0  0
   -3.8247   25.5511  -27.8284 H   0  0  0  0  0  0  0  0  0  0  0  0
   -5.3110   24.5425  -27.8284 H   0  0  0  0  0  0  0  0  0  0  0  0
   -6.1603   23.8819  -29.1338 H   0  0  0  0  0  0  0  0  0  0  0  0
   -8.1126   23.5607  -30.4129 H   0  0  0  0  0  0  0  0  0  0  0  0
   -7.6922   24.3882  -31.9508 H   0  0  0  0  0  0  0  0  0  0  0  0
   -8.0756   22.6333  -31.9508 H   0  0  0  0  0  0  0  0  0  0  0  0
   -5.8396   22.4610  -33.1839 H   0  0  0  0  0  0  0  0  0  0  0  0
   -4.0281   20.7078  -34.6092 H   0  0  0  0  0  0  0  0  0  0  0  0
   -2.3757   20.2442  -34.0633 H   0  0  0  0  0  0  0  0  0  0  0  0
   -3.2056   18.7755  -32.5799 H   0  0  0  0  0  0  0  0  0  0  0  0
   -4.2986   20.0959  -31.8897 H   0  0  0  0  0  0  0  0  0  0  0  0
   -4.2833   17.0571  -34.0180 H   0  0  0  0  0  0  0  0  0  0  0  0
   -5.6288   17.6945  -35.0229 H   0  0  0  0  0  0  0  0  0  0  0  0
   -4.0362   18.5254  -35.0229 H   0  0  0  0  0  0  0  0  0  0  0  0
   -5.1523   16.9921  -32.1903 H   0  0  0  0  0  0  0  0  0  0  0  0
   -5.6685   18.4593  -31.2432 H   0  0  0  0  0  0  0  0  0  0  0  0
   -7.3296   17.0503  -33.3834 H   0  0  0  0  0  0  0  0  0  0  0  0
   -7.5414   16.9030  -31.5904 H   0  0  0  0  0  0  0  0  0  0  0  0
   -8.9387   18.6610  -33.1203 H   0  0  0  0  0  0  0  0  0  0  0  0
   -8.4849   18.9473  -31.3786 H   0  0  0  0  0  0  0  0  0  0  0  0
   -8.0633   20.7996  -33.2522 H   0  0  0  0  0  0  0  0  0  0  0  0
   -6.9095   20.5174  -31.8861 H   0  0  0  0  0  0  0  0  0  0  0  0
   -6.6770   19.3621  -34.7069 H   0  0  0  0  0  0  0  0  0  0  0  0
   -5.7099   20.7380  -33.9943 H   0  0  0  0  0  0  0  0  0  0  0  0
  1  2  1  0
  2  3  1  0
  3  4  1  0
  4  5  1  0
  5  6  1  0
  6  7  1  0
  7  8  1  0
  8  9  1  0
  9 10  2  0
 10 11  1  0
 11 12  2  0
 12 13  1  0
 13 14  2  0
 14 15  1  0
 15 16  2  0
 16 17  1  0
 16 18  1  0
 18 19  2  0
 19 20  1  0
 20 21  1  0
 20 22  2  0
 22 23  1  0
 23 24  1  0
 24 25  1  0
 25 26  1  0
 26 27  1  0
 27 28  1  0
 27 29  1  0
 29 30  1  0
 30 31  1  0
 31 32  1  0
 32 33  1  0
 23 34  2  0
 34  9  1  0
 15 10  1  0
 34 18  1  0
 33 27  1  0
  1 35  1  0
  1 36  1  0
  1 37  1  0
  2 38  1  0
  2 39  1  0
  3 40  1  0
  4 41  1  0
  4 42  1  0
  5 43  1  0
  5 44  1  0
  6 45  1  0
  6 46  1  0
  7 47  1  0
  7 48  1  0
  8 49  1  0
 11 50  1  0
 12 51  1  0
 13 52  1  0
 14 53  1  0
 17 54  1  0
 17 55  1  0
 17 56  1  0
 19 57  1  0
 21 58  1  0
 21 59  1  0
 21 60  1  0
 22 61  1  0
 25 62  1  0
 25 63  1  0
 26 64  1  0
 26 65  1  0
 28 66  1  0
 28 67  1  0
 28 68  1  0
 29 69  1  0
 29 70  1  0
 30 71  1  0
 30 72  1  0
 31 73  1  0
 31 74  1  0
 32 75  1  0
 32 76  1  0
 33 77  1  0
 33 78  1  0
M  CHG  2  16   1  27   1
M  END
>  <UniqueID>  (26) 
26

>  <SMILES>  (26) 
CCNCCCCNc1c2ccccc2[n+](C)c2cc(C)cc(OCC[N+]3(C)CCCCC3)c12

>  <Energy>  (26) 
117.25742130559615

>  <Genealogy>  (26) 
CCNCCCCNc1c2ccccc2[n+](C)c2cc(C)cc(OCC[N+]3(C)CCCCC3)c12 (3D coordinates assigned)
CCNCCCCNc1c2ccccc2[n+](C)c2cc(C)cc(OCC[N+]3(C)CCCCC3)c12 (nonaromatic ring conformer: 117.25742130559615 kcal/mol)

>  <smiles>  (26) 
CCNCCCCNc1c2ccccc2[n+](C)c2cc(C)cc(OCC[N+]3(C)CCCCC3)c12

>  <score_type>  (26) 
oracle

>  <origin>  (26) 
adg

>  <m_score__min__energy>  (26) 
-9.5399999999999991

>  <m_primary>  (26) 
energy

$$$$
26:0
     RDKit          3D

 80 83  0  0  0  0  0  0  0  0999 V2000
   -2.7900   19.3380  -26.6910 C   0  0  0  0  0  0  0  0  0  0  0  0
   -2.9780   20.4610  -27.7060 C   0  0  0  0  0  0  0  0  0  0  0  0
   -1.9810   20.4250  -28.7090 O   0  0  0  0  0  0  0  0  0  0  0  0
   -0.8530   19.6910  -28.2740 C   0  0  0  0  0  0  0  0  0  0  0  0
    0.3200   19.9870  -29.2130 C   0  0  0  0  0  0  0  0  0  0  0  0
    0.1640   19.3010  -30.5830 C   0  0  0  0  0  0  0  0  0  0  0  0
   -1.1260   19.6320  -31.2080 N   0  0  0  0  0  0  0  0  0  0  0  0
   -0.9380   20.5070  -32.3740 C   0  0  0  0  0  0  0  0  0  0  0  0
   -2.0240   21.5880  -32.4670 C   0  0  0  0  0  0  0  0  0  0  0  0
   -2.9590   21.5320  -31.3380 N   0  0  0  0  0  0  0  0  0  0  0  0
   -4.3820   21.6520  -31.5190 C   0  0  0  0  0  0  0  0  0  0  0  0
   -5.0750   20.6820  -32.2670 C   0  0  0  0  0  0  0  0  0  0  0  0
   -4.3790   19.7290  -33.0430 C   0  0  0  0  0  0  0  0  0  0  0  0
   -5.0680   18.7870  -33.8020 C   0  0  0  0  0  0  0  0  0  0  0  0
   -6.4580   18.7880  -33.8180 C   0  0  0  0  0  0  0  0  0  0  0  0
   -7.1670   19.7300  -33.0720 C   0  0  0  0  0  0  0  0  0  0  0  0
   -6.4930   20.6850  -32.2710 C   0  0  0  0  0  0  0  0  0  0  0  0
   -7.1810   21.6200  -31.5250 N   0  0  0  0  0  0  0  0  0  0  0  0
   -8.6230   21.4320  -31.2510 C   0  0  0  0  0  0  0  0  0  0  0  0
   -6.5200   22.7290  -31.0320 C   0  0  0  0  0  0  0  0  0  0  0  0
   -7.2350   23.8560  -30.5650 C   0  0  0  0  0  0  0  0  0  0  0  0
   -6.5770   24.9590  -30.0430 C   0  0  0  0  0  0  0  0  0  0  0  0
   -5.1920   24.9800  -29.9730 C   0  0  0  0  0  0  0  0  0  0  0  0
   -4.4340   23.8990  -30.4470 C   0  0  0  0  0  0  0  0  0  0  0  0
   -3.0310   23.9360  -30.3860 O   0  0  0  0  0  0  0  0  0  0  0  0
   -2.2380   23.5170  -29.2770 C   0  0  0  0  0  0  0  0  0  0  0  0
   -2.8560   24.0590  -27.9620 C   0  0  0  0  0  0  0  0  0  0  0  0
   -1.8870   24.6660  -26.9910 N   0  0  0  0  0  0  0  0  0  0  0  0
   -1.2020   23.5280  -26.3150 C   0  0  0  0  0  0  0  0  0  0  0  0
   -0.8530   25.4990  -27.7090 C   0  0  0  0  0  0  0  0  0  0  0  0
   -0.6340   26.8960  -27.1020 C   0  0  0  0  0  0  0  0  0  0  0  0
   -0.4960   26.8020  -25.5860 C   0  0  0  0  0  0  0  0  0  0  0  0
   -1.7370   26.1650  -24.9380 C   0  0  0  0  0  0  0  0  0  0  0  0
   -2.6460   25.4330  -25.9500 C   0  0  0  0  0  0  0  0  0  0  0  0
   -5.0950   22.7620  -30.9980 C   0  0  0  0  0  0  0  0  0  0  0  0
   -2.8588   19.7487  -25.6729 H   0  0  0  0  0  0  0  0  0  0  0  0
   -3.5737   18.5794  -26.8341 H   0  0  0  0  0  0  0  0  0  0  0  0
   -1.8020   18.8760  -26.8341 H   0  0  0  0  0  0  0  0  0  0  0  0
   -3.9652   20.3537  -28.1792 H   0  0  0  0  0  0  0  0  0  0  0  0
   -2.9003   21.4219  -27.1762 H   0  0  0  0  0  0  0  0  0  0  0  0
   -0.5903   19.9900  -27.2485 H   0  0  0  0  0  0  0  0  0  0  0  0
   -1.0797   18.6147  -28.2866 H   0  0  0  0  0  0  0  0  0  0  0  0
    0.3828   21.0743  -29.3676 H   0  0  0  0  0  0  0  0  0  0  0  0
    1.2331   19.5928  -28.7430 H   0  0  0  0  0  0  0  0  0  0  0  0
    0.9775   19.6342  -31.2443 H   0  0  0  0  0  0  0  0  0  0  0  0
    0.2043   18.2124  -30.4304 H   0  0  0  0  0  0  0  0  0  0  0  0
   -1.6000   18.7450  -31.4990 H   0  0  0  0  0  0  0  0  0  0  0  0
   -1.7230   20.1280  -30.5130 H   0  0  0  0  0  0  0  0  0  0  0  0
    0.0438   20.9967  -32.2951 H   0  0  0  0  0  0  0  0  0  0  0  0
   -1.0023   19.8841  -33.2783 H   0  0  0  0  0  0  0  0  0  0  0  0
   -1.5405   22.5760  -32.4780 H   0  0  0  0  0  0  0  0  0  0  0  0
   -2.5971   21.4128  -33.3894 H   0  0  0  0  0  0  0  0  0  0  0  0
   -2.5760   21.6440  -30.3730 H   0  0  0  0  0  0  0  0  0  0  0  0
   -3.2790   19.7311  -33.0477 H   0  0  0  0  0  0  0  0  0  0  0  0
   -4.5121   18.0414  -34.3894 H   0  0  0  0  0  0  0  0  0  0  0  0
   -7.0003   18.0443  -34.4203 H   0  0  0  0  0  0  0  0  0  0  0  0
   -8.2665   19.7314  -33.1062 H   0  0  0  0  0  0  0  0  0  0  0  0
   -8.7899   21.4102  -30.1639 H   0  0  0  0  0  0  0  0  0  0  0  0
   -9.1916   22.2636  -31.6927 H   0  0  0  0  0  0  0  0  0  0  0  0
   -8.9594   20.4824  -31.6927 H   0  0  0  0  0  0  0  0  0  0  0  0
   -8.3338   23.8576  -30.6168 H   0  0  0  0  0  0  0  0  0  0  0  0
   -7.1563   25.8218  -29.6825 H   0  0  0  0  0  0  0  0  0  0  0  0
   -4.6823   25.8539  -29.5411 H   0  0  0  0  0  0  0  0  0  0  0  0
   -2.2088   22.4179  -29.2421 H   0  0  0  0  0  0  0  0  0  0  0  0
   -1.2163   23.9088  -29.3894 H   0  0  0  0  0  0  0  0  0  0  0  0
   -3.5953   24.8289  -28.2279 H   0  0  0  0  0  0  0  0  0  0  0  0
   -3.2867   23.1857  -27.4503 H   0  0  0  0  0  0  0  0  0  0  0  0
   -1.2761   23.6510  -25.2244 H   0  0  0  0  0  0  0  0  0  0  0  0
   -1.6817   22.5833  -26.6108 H   0  0  0  0  0  0  0  0  0  0  0  0
   -0.1427   23.5097  -26.6108 H   0  0  0  0  0  0  0  0  0  0  0  0
    0.1043   24.9579  -27.6828 H   0  0  0  0  0  0  0  0  0  0  0  0
   -1.2277   25.6545  -28.7314 H   0  0  0  0  0  0  0  0  0  0  0  0
    0.2830   27.3342  -27.5228 H   0  0  0  0  0  0  0  0  0  0  0  0
   -1.5008   27.5291  -27.3425 H   0  0  0  0  0  0  0  0  0  0  0  0
    0.3853   26.1890  -25.3460 H   0  0  0  0  0  0  0  0  0  0  0  0
   -0.3882   27.8220  -25.1885 H   0  0  0  0  0  0  0  0  0  0  0  0
   -1.4027   25.4403  -24.1810 H   0  0  0  0  0  0  0  0  0  0  0  0
   -2.3297   26.9803  -24.4975 H   0  0  0  0  0  0  0  0  0  0  0  0
   -3.2863   24.7297  -25.3974 H   0  0  0  0  0  0  0  0  0  0  0  0
   -3.2289   26.2029  -26.4767 H   0  0  0  0  0  0  0  0  0  0  0  0
  1  2  1  0
  2  3  1  0
  3  4  1  0
  4  5  1  0
  5  6  1  0
  6  7  1  0
  7  8  1  0
  8  9  1  0
  9 10  1  0
 10 11  1  0
 11 12  2  0
 12 13  1  0
 13 14  2  0
 14 15  1  0
 15 16  2  0
 16 17  1  0
 17 18  2  0
 18 19  1  0
 18 20  1  0
 20 21  2  0
 21 22  1  0
 22 23  2  0
 23 24  1  0
 24 25  1  0
 25 26  1  0
 26 27  1  0
 27 28  1  0
 28 29  1  0
 28 30  1  0
 30 31  1  0
 31 32  1  0
 32 33  1  0
 33 34  1  0
 24 35  2  0
 35 11  1  0
 17 12  1  0
 35 20  1  0
 34 28  1  0
  1 36  1  0
  1 37  1  0
  1 38  1  0
  2 39  1  0
  2 40  1  0
  4 41  1  0
  4 42  1  0
  5 43  1  0
  5 44  1  0
  6 45  1  0
  6 46  1  0
  7 47  1  0
  7 48  1  0
  8 49  1  0
  8 50  1  0
  9 51  1  0
  9 52  1  0
 10 53  1  0
 13 54  1  0
 14 55  1  0
 15 56  1  0
 16 57  1  0
 19 58  1  0
 19 59  1  0
 19 60  1  0
 21 61  1  0
 22 62  1  0
 23 63  1  0
 26 64  1  0
 26 65  1  0
 27 66  1  0
 27 67  1  0
 29 68  1  0
 29 69  1  0
 29 70  1  0
 30 71  1  0
 30 72  1  0
 31 73  1  0
 31 74  1  0
 32 75  1  0
 32 76  1  0
 33 77  1  0
 33 78  1  0
 34 79  1  0
 34 80  1  0
M  CHG  3   7   1  18   1  28   1
M  END
>  <UniqueID>  (27) 
27

>  <SMILES>  (27) 
CCOCCC[NH2+]CCNc1c2ccccc2[n+](C)c2cccc(OCC[N+]3(C)CCCCC3)c12

>  <Energy>  (27) 
121.40112711453934

>  <Genealogy>  (27) 
CCOCCC[NH2+]CCNc1c2ccccc2[n+](C)c2cccc(OCC[N+]3(C)CCCCC3)c12 (protonated)
CCOCCC[NH2+]CCNc1c2ccccc2[n+](C)c2cccc(OCC[N+]3(C)CCCCC3)c12 (3D coordinates assigned)
CCOCCC[NH2+]CCNc1c2ccccc2[n+](C)c2cccc(OCC[N+]3(C)CCCCC3)c12 (nonaromatic ring conformer: 121.40112711453934 kcal/mol)

>  <smiles>  (27) 
CCOCCCNCCNc1c2ccccc2[n+](C)c2cccc(OCC[N+]3(C)CCCCC3)c12

>  <score_type>  (27) 
oracle

>  <origin>  (27) 
adg

>  <m_score__min__energy>  (27) 
-7.75

>  <m_primary>  (27) 
energy

$$$$
27:0
     RDKit          3D

 61 65  0  0  0  0  0  0  0  0999 V2000
   -7.8890   18.1320  -31.2660 C   0  0  0  0  0  0  0  0  0  0  0  0
   -8.1200   18.7310  -32.6570 C   0  0  0  0  0  0  0  0  0  0  0  0
   -9.4820   19.2680  -32.8140 N   0  0  0  0  0  0  0  0  0  0  0  0
   -9.6600   20.5720  -32.1540 C   0  0  0  0  0  0  0  0  0  0  0  0
   -8.3210   21.1100  -31.6350 C   0  0  0  0  0  0  0  0  0  0  0  0
   -8.1150   22.5840  -32.0000 C   0  0  0  0  0  0  0  0  0  0  0  0
   -6.8950   22.7450  -32.7900 N   0  0  0  0  0  0  0  0  0  0  0  0
   -5.6270   22.2740  -32.3070 C   0  0  0  0  0  0  0  0  0  0  0  0
   -5.1260   21.0590  -32.7580 C   0  0  0  0  0  0  0  0  0  0  0  0
   -3.8870   20.6080  -32.3640 C   0  0  0  0  0  0  0  0  0  0  0  0
   -3.1460   21.2560  -31.4090 N   0  0  0  0  0  0  0  0  0  0  0  0
   -2.0000   20.5800  -30.7780 C   0  0  0  0  0  0  0  0  0  0  0  0
   -3.5620   22.5140  -30.9940 C   0  0  0  0  0  0  0  0  0  0  0  0
   -2.7520   23.3280  -30.1670 C   0  0  0  0  0  0  0  0  0  0  0  0
   -3.2060   24.5600  -29.6860 C   0  0  0  0  0  0  0  0  0  0  0  0
   -2.3490   25.3090  -28.8660 O   0  0  0  0  0  0  0  0  0  0  0  0
   -2.0170   24.9680  -27.5240 C   0  0  0  0  0  0  0  0  0  0  0  0
   -4.4900   25.0020  -30.0320 C   0  0  0  0  0  0  0  0  0  0  0  0
   -5.2940   24.2440  -30.8790 C   0  0  0  0  0  0  0  0  0  0  0  0
   -4.8350   23.0230  -31.4060 C   0  0  0  0  0  0  0  0  0  0  0  0
   -3.6420   19.3650  -33.1070 C   0  0  0  0  0  0  0  0  0  0  0  0
   -2.4640   18.6210  -33.2470 C   0  0  0  0  0  0  0  0  0  0  0  0
   -2.4790   17.4910  -34.0810 C   0  0  0  0  0  0  0  0  0  0  0  0
   -1.3290   16.6970  -34.2210 C   0  0  0  0  0  0  0  0  0  0  0  0
   -1.3470   15.5730  -35.0510 C   0  0  0  0  0  0  0  0  0  0  0  0
   -2.5050   15.2350  -35.7520 C   0  0  0  0  0  0  0  0  0  0  0  0
   -3.6560   16.0180  -35.6320 C   0  0  0  0  0  0  0  0  0  0  0  0
   -3.6570   17.1530  -34.7990 C   0  0  0  0  0  0  0  0  0  0  0  0
   -4.7900   17.9830  -34.6780 C   0  0  0  0  0  0  0  0  0  0  0  0
   -5.8420   17.7440  -35.3330 O   0  0  0  0  0  0  0  0  0  0  0  0
   -4.7340   19.0620  -33.8500 N   0  0  0  0  0  0  0  0  0  0  0  0
   -5.7670   20.0850  -33.6990 C   0  0  0  0  0  0  0  0  0  0  0  0
   -8.1725   18.8672  -30.4985 H   0  0  0  0  0  0  0  0  0  0  0  0
   -8.5023   17.2262  -31.1504 H   0  0  0  0  0  0  0  0  0  0  0  0
   -6.8263   17.8725  -31.1504 H   0  0  0  0  0  0  0  0  0  0  0  0
   -7.3979   19.5455  -32.8160 H   0  0  0  0  0  0  0  0  0  0  0  0
   -7.9874   17.9273  -33.3962 H   0  0  0  0  0  0  0  0  0  0  0  0
   -9.7100   19.3640  -33.8320 H   0  0  0  0  0  0  0  0  0  0  0  0
  -10.0797   21.2872  -32.8768 H   0  0  0  0  0  0  0  0  0  0  0  0
  -10.3418   20.4437  -31.3004 H   0  0  0  0  0  0  0  0  0  0  0  0
   -8.2979   21.0086  -30.5399 H   0  0  0  0  0  0  0  0  0  0  0  0
   -7.5152   20.5274  -32.1054 H   0  0  0  0  0  0  0  0  0  0  0  0
   -8.9763   22.9365  -32.5864 H   0  0  0  0  0  0  0  0  0  0  0  0
   -8.0229   23.1724  -31.0752 H   0  0  0  0  0  0  0  0  0  0  0  0
   -6.8870   23.5170  -33.4940 H   0  0  0  0  0  0  0  0  0  0  0  0
   -2.0974   20.6375  -29.6838 H   0  0  0  0  0  0  0  0  0  0  0  0
   -1.9796   19.5252  -31.0894 H   0  0  0  0  0  0  0  0  0  0  0  0
   -1.0669   21.0724  -31.0894 H   0  0  0  0  0  0  0  0  0  0  0  0
   -1.7428   22.9839  -29.8965 H   0  0  0  0  0  0  0  0  0  0  0  0
   -2.6134   25.5805  -26.8318 H   0  0  0  0  0  0  0  0  0  0  0  0
   -2.2341   23.9035  -27.3517 H   0  0  0  0  0  0  0  0  0  0  0  0
   -0.9471   25.1566  -27.3517 H   0  0  0  0  0  0  0  0  0  0  0  0
   -4.8655   25.9551  -29.6313 H   0  0  0  0  0  0  0  0  0  0  0  0
   -6.3003   24.6041  -31.1393 H   0  0  0  0  0  0  0  0  0  0  0  0
   -1.5470   18.9151  -32.7155 H   0  0  0  0  0  0  0  0  0  0  0  0
   -0.4110   16.9608  -33.6754 H   0  0  0  0  0  0  0  0  0  0  0  0
   -0.4446   14.9522  -35.1521 H   0  0  0  0  0  0  0  0  0  0  0  0
   -2.5119   14.3478  -36.4023 H   0  0  0  0  0  0  0  0  0  0  0  0
   -4.5642   15.7468  -36.1901 H   0  0  0  0  0  0  0  0  0  0  0  0
   -6.0003   20.5594  -34.6636 H   0  0  0  0  0  0  0  0  0  0  0  0
   -6.7256   19.6886  -33.3330 H   0  0  0  0  0  0  0  0  0  0  0  0
  1  2  1  0
  2  3  1  0
  3  4  1  0
  4  5  1  0
  5  6  1  0
  6  7  1  0
  7  8  1  0
  8  9  2  0
  9 10  1  0
 10 11  2  0
 11 12  1  0
 11 13  1  0
 13 14  2  0
 14 15  1  0
 15 16  1  0
 16 17  1  0
 15 18  2  0
 18 19  1  0
 19 20  2  0
 10 21  1  0
 21 22  2  0
 22 23  1  0
 23 24  2  0
 24 25  1  0
 25 26  2  0
 26 27  1  0
 27 28  2  0
 28 29  1  0
 29 30  2  0
 29 31  1  0
 31 32  1  0
 20  8  1  0
 31 21  1  0
 32  9  1  0
 20 13  1  0
 28 23  1  0
  1 33  1  0
  1 34  1  0
  1 35  1  0
  2 36  1  0
  2 37  1  0
  3 38  1  0
  4 39  1  0
  4 40  1  0
  5 41  1  0
  5 42  1  0
  6 43  1  0
  6 44  1  0
  7 45  1  0
 12 46  1  0
 12 47  1  0
 12 48  1  0
 14 49  1  0
 17 50  1  0
 17 51  1  0
 17 52  1  0
 18 53  1  0
 19 54  1  0
 22 55  1  0
 24 56  1  0
 25 57  1  0
 26 58  1  0
 27 59  1  0
 32 60  1  0
 32 61  1  0
M  CHG  1  11   1
M  END
>  <UniqueID>  (28) 
28

>  <SMILES>  (28) 
CCNCCCNc1c2c([n+](C)c3cc(OC)ccc13)-c1cc3ccccc3c(=O)n1C2

>  <Energy>  (28) 
110.30662900409736

>  <Genealogy>  (28) 
CCNCCCNc1c2c([n+](C)c3cc(OC)ccc13)-c1cc3ccccc3c(=O)n1C2 (3D coordinates assigned)
CCNCCCNc1c2c([n+](C)c3cc(OC)ccc13)-c1cc3ccccc3c(=O)n1C2 (nonaromatic ring conformer: 110.30662900409736 kcal/mol)

>  <smiles>  (28) 
CCNCCCNc1c2c([n+](C)c3cc(OC)ccc13)-c1cc3ccccc3c(=O)n1C2

>  <score_type>  (28) 
oracle

>  <origin>  (28) 
adg

>  <m_score__min__energy>  (28) 
-9.3599999999999994

>  <m_primary>  (28) 
energy

$$$$
28:0
     RDKit          3D

 57 59  0  0  0  0  0  0  0  0999 V2000
   -0.6430   21.7130  -30.5440 C   0  0  0  0  0  0  0  0  0  0  0  0
   -1.1340   23.0200  -30.2660 O   0  0  0  0  0  0  0  0  0  0  0  0
   -1.1370   23.6170  -28.9950 C   0  0  0  0  0  0  0  0  0  0  0  0
   -0.2390   23.2180  -27.9840 C   0  0  0  0  0  0  0  0  0  0  0  0
   -0.2370   23.8660  -26.7450 C   0  0  0  0  0  0  0  0  0  0  0  0
   -1.1230   24.9170  -26.5030 C   0  0  0  0  0  0  0  0  0  0  0  0
   -2.0220   25.3150  -27.4950 C   0  0  0  0  0  0  0  0  0  0  0  0
   -2.0520   24.6580  -28.7300 C   0  0  0  0  0  0  0  0  0  0  0  0
   -2.9770   25.0890  -29.6920 O   0  0  0  0  0  0  0  0  0  0  0  0
   -4.1530   24.4080  -30.0410 C   0  0  0  0  0  0  0  0  0  0  0  0
   -5.2640   25.0730  -30.5940 C   0  0  0  0  0  0  0  0  0  0  0  0
   -6.4070   24.3530  -30.9560 C   0  0  0  0  0  0  0  0  0  0  0  0
   -6.4460   22.9630  -30.7850 C   0  0  0  0  0  0  0  0  0  0  0  0
   -7.8300   22.0240  -31.3360 S   0  0  0  0  0  0  0  0  0  0  0  0
   -8.6280   22.8190  -32.3330 O   0  0  0  0  0  0  0  0  0  0  0  0
   -8.6990   21.7130  -30.1500 O   0  0  0  0  0  0  0  0  0  0  0  0
   -7.2520   20.5430  -32.0690 N   0  0  0  0  0  0  0  0  0  0  0  0
   -6.6780   20.7490  -33.4110 C   0  0  0  0  0  0  0  0  0  0  0  0
   -5.1810   20.5930  -33.3560 C   0  0  0  0  0  0  0  0  0  0  0  0
   -4.6000   19.3250  -33.5170 C   0  0  0  0  0  0  0  0  0  0  0  0
   -3.2150   19.1650  -33.4100 C   0  0  0  0  0  0  0  0  0  0  0  0
   -2.4000   20.2710  -33.1510 C   0  0  0  0  0  0  0  0  0  0  0  0
   -1.0580   20.1130  -33.0350 F   0  0  0  0  0  0  0  0  0  0  0  0
   -2.9690   21.5390  -33.0050 C   0  0  0  0  0  0  0  0  0  0  0  0
   -4.3520   21.7030  -33.1120 C   0  0  0  0  0  0  0  0  0  0  0  0
   -8.1790   19.3990  -31.9410 C   0  0  0  0  0  0  0  0  0  0  0  0
   -7.5310   17.9830  -31.9380 C   0  0  0  0  0  0  0  0  0  0  0  0
   -6.2240   18.0270  -31.1330 C   0  0  0  0  0  0  0  0  0  0  0  0
   -7.2390   17.4580  -33.3510 C   0  0  0  0  0  0  0  0  0  0  0  0
   -5.3420   22.3020  -30.2370 C   0  0  0  0  0  0  0  0  0  0  0  0
   -4.2000   23.0210  -29.8730 C   0  0  0  0  0  0  0  0  0  0  0  0
   -0.4453   21.1868  -29.5985 H   0  0  0  0  0  0  0  0  0  0  0  0
   -1.3929   21.1553  -31.1242 H   0  0  0  0  0  0  0  0  0  0  0  0
    0.2886   21.7870  -31.1242 H   0  0  0  0  0  0  0  0  0  0  0  0
    0.4637   22.3926  -28.1709 H   0  0  0  0  0  0  0  0  0  0  0  0
    0.4640   23.5470  -25.9596 H   0  0  0  0  0  0  0  0  0  0  0  0
   -1.1132   25.4318  -25.5310 H   0  0  0  0  0  0  0  0  0  0  0  0
   -2.7112   26.1508  -27.3041 H   0  0  0  0  0  0  0  0  0  0  0  0
   -5.2329   26.1626  -30.7418 H   0  0  0  0  0  0  0  0  0  0  0  0
   -7.2771   24.8791  -31.3758 H   0  0  0  0  0  0  0  0  0  0  0  0
   -7.0972   20.0059  -34.1053 H   0  0  0  0  0  0  0  0  0  0  0  0
   -6.9246   21.7628  -33.7594 H   0  0  0  0  0  0  0  0  0  0  0  0
   -5.2372   18.4536  -33.7282 H   0  0  0  0  0  0  0  0  0  0  0  0
   -2.7662   18.1679  -33.5297 H   0  0  0  0  0  0  0  0  0  0  0  0
   -2.3267   22.4094  -32.8055 H   0  0  0  0  0  0  0  0  0  0  0  0
   -4.7947   22.7043  -33.0050 H   0  0  0  0  0  0  0  0  0  0  0  0
   -8.7294   19.5177  -30.9960 H   0  0  0  0  0  0  0  0  0  0  0  0
   -8.8102   19.4308  -32.8413 H   0  0  0  0  0  0  0  0  0  0  0  0
   -8.2541   17.2936  -31.4777 H   0  0  0  0  0  0  0  0  0  0  0  0
   -6.4553   18.0192  -30.0576 H   0  0  0  0  0  0  0  0  0  0  0  0
   -5.6100   17.1490  -31.3824 H   0  0  0  0  0  0  0  0  0  0  0  0
   -5.6705   18.9443  -31.3824 H   0  0  0  0  0  0  0  0  0  0  0  0
   -6.7054   16.4985  -33.2827 H   0  0  0  0  0  0  0  0  0  0  0  0
   -8.1861   17.3131  -33.8913 H   0  0  0  0  0  0  0  0  0  0  0  0
   -6.6163   18.1862  -33.8913 H   0  0  0  0  0  0  0  0  0  0  0  0
   -5.3726   21.2120  -30.0919 H   0  0  0  0  0  0  0  0  0  0  0  0
   -3.3325   22.4920  -29.4516 H   0  0  0  0  0  0  0  0  0  0  0  0
  1  2  1  0
  2  3  1  0
  3  4  2  0
  4  5  1  0
  5  6  2  0
  6  7  1  0
  7  8  2  0
  8  9  1  0
  9 10  1  0
 10 11  2  0
 11 12  1  0
 12 13  2  0
 13 14  1  0
 14 15  2  0
 14 16  2  0
 14 17  1  0
 17 18  1  0
 18 19  1  0
 19 20  2  0
 20 21  1  0
 21 22  2  0
 22 23  1  0
 22 24  1  0
 24 25  2  0
 17 26  1  0
 26 27  1  0
 27 28  1  0
 27 29  1  0
 13 30  1  0
 30 31  2  0
  8  3  1  0
 31 10  1  0
 25 19  1  0
  1 32  1  0
  1 33  1  0
  1 34  1  0
  4 35  1  0
  5 36  1  0
  6 37  1  0
  7 38  1  0
 11 39  1  0
 12 40  1  0
 18 41  1  0
 18 42  1  0
 20 43  1  0
 21 44  1  0
 24 45  1  0
 25 46  1  0
 26 47  1  0
 26 48  1  0
 27 49  1  0
 28 50  1  0
 28 51  1  0
 28 52  1  0
 29 53  1  0
 29 54  1  0
 29 55  1  0
 30 56  1  0
 31 57  1  0
M  END
>  <UniqueID>  (29) 
29

>  <SMILES>  (29) 
COc1ccccc1Oc1ccc(S(=O)(=O)N(Cc2ccc(F)cc2)CC(C)C)cc1

>  <Energy>  (29) 
64.08957559388742

>  <Genealogy>  (29) 
COc1ccccc1Oc1ccc(S(=O)(=O)N(Cc2ccc(F)cc2)CC(C)C)cc1 (3D coordinates assigned)
COc1ccccc1Oc1ccc(S(=O)(=O)N(Cc2ccc(F)cc2)CC(C)C)cc1 (optimized conformer: 64.08957559388742 kcal/mol)

>  <smiles>  (29) 
COc1ccccc1Oc1ccc(S(=O)(=O)N(Cc2ccc(F)cc2)CC(C)C)cc1

>  <score_type>  (29) 
oracle

>  <origin>  (29) 
adg

>  <m_score__min__energy>  (29) 
-9.8000000000000007

>  <m_primary>  (29) 
energy

$$$$
