0:0
     RDKit          3D

 39 41  0  0  0  0  0  0  0  0999 V2000
   -9.2050   22.8070  -31.9710 O   0  0  0  0  0  0  0  0  0  0  0  0
   -8.4710   21.7980  -31.7810 C   0  0  0  0  0  0  0  0  0  0  0  0
   -8.9890   20.4370  -32.1440 C   0  0  0  0  0  0  0  0  0  0  0  0
   -7.8530   19.4920  -32.4390 C   0  0  0  0  0  0  0  0  0  0  0  0
   -7.0110   19.7260  -33.5380 C   0  0  0  0  0  0  0  0  0  0  0  0
   -5.9710   18.8400  -33.8260 C   0  0  0  0  0  0  0  0  0  0  0  0
   -5.7680   17.7090  -33.0280 C   0  0  0  0  0  0  0  0  0  0  0  0
   -6.6060   17.4620  -31.9390 C   0  0  0  0  0  0  0  0  0  0  0  0
   -7.6480   18.3500  -31.6440 C   0  0  0  0  0  0  0  0  0  0  0  0
   -7.1140   21.9580  -31.3310 N   0  0  0  0  0  0  0  0  0  0  0  0
   -6.5510   23.2380  -31.0090 C   0  0  0  0  0  0  0  0  0  0  0  0
   -7.2000   24.0560  -30.0780 C   0  0  0  0  0  0  0  0  0  0  0  0
   -6.6340   25.2720  -29.6970 C   0  0  0  0  0  0  0  0  0  0  0  0
   -5.4300   25.6750  -30.2730 C   0  0  0  0  0  0  0  0  0  0  0  0
   -4.8300   24.8930  -31.2050 N   0  0  0  0  0  0  0  0  0  0  0  0
   -5.3570   23.7020  -31.6020 C   0  0  0  0  0  0  0  0  0  0  0  0
   -4.6820   22.9670  -32.5860 O   0  0  0  0  0  0  0  0  0  0  0  0
   -3.7260   21.9700  -32.3280 C   0  0  0  0  0  0  0  0  0  0  0  0
   -3.6430   20.7920  -33.0940 C   0  0  0  0  0  0  0  0  0  0  0  0
   -2.6550   19.8440  -32.8180 C   0  0  0  0  0  0  0  0  0  0  0  0
   -2.5920   18.7100  -33.5510 F   0  0  0  0  0  0  0  0  0  0  0  0
   -1.7440   20.0570  -31.7840 C   0  0  0  0  0  0  0  0  0  0  0  0
   -1.8070   21.2320  -31.0330 C   0  0  0  0  0  0  0  0  0  0  0  0
   -2.8060   22.1760  -31.2930 C   0  0  0  0  0  0  0  0  0  0  0  0
   -2.8440   23.3230  -30.5690 F   0  0  0  0  0  0  0  0  0  0  0  0
   -9.5791   20.0403  -31.3047 H   0  0  0  0  0  0  0  0  0  0  0  0
   -9.6149   20.5270  -33.0441 H   0  0  0  0  0  0  0  0  0  0  0  0
   -7.1711   20.6094  -34.1736 H   0  0  0  0  0  0  0  0  0  0  0  0
   -5.3090   19.0319  -34.6833 H   0  0  0  0  0  0  0  0  0  0  0  0
   -4.9474   17.0137  -33.2588 H   0  0  0  0  0  0  0  0  0  0  0  0
   -6.4480   16.5711  -31.3135 H   0  0  0  0  0  0  0  0  0  0  0  0
   -8.3089   18.1535  -30.7869 H   0  0  0  0  0  0  0  0  0  0  0  0
   -6.4580   21.1490  -31.4340 H   0  0  0  0  0  0  0  0  0  0  0  0
   -8.1602   23.7388  -29.6450 H   0  0  0  0  0  0  0  0  0  0  0  0
   -7.1323   25.9069  -28.9496 H   0  0  0  0  0  0  0  0  0  0  0  0
   -4.9670   26.6263  -29.9719 H   0  0  0  0  0  0  0  0  0  0  0  0
   -4.3578   20.6176  -33.9117 H   0  0  0  0  0  0  0  0  0  0  0  0
   -0.9772   19.3006  -31.5606 H   0  0  0  0  0  0  0  0  0  0  0  0
   -1.0709   21.4156  -30.2365 H   0  0  0  0  0  0  0  0  0  0  0  0
  1  2  2  0
  2  3  1  0
  3  4  1  0
  4  5  2  0
  5  6  1  0
  6  7  2  0
  7  8  1  0
  8  9  2  0
  2 10  1  0
 10 11  1  0
 11 12  2  0
 12 13  1  0
 13 14  2  0
 14 15  1  0
 15 16  2  0
 16 17  1  0
 17 18  1  0
 18 19  2  0
 19 20  1  0
 20 21  1  0
 20 22  2  0
 22 23  1  0
 23 24  2  0
 24 25  1  0
  9  4  1  0
 16 11  1  0
 24 18  1  0
  3 26  1  0
  3 27  1  0
  5 28  1  0
  6 29  1  0
  7 30  1  0
  8 31  1  0
  9 32  1  0
 10 33  1  0
 12 34  1  0
 13 35  1  0
 14 36  1  0
 19 37  1  0
 22 38  1  0
 23 39  1  0
M  END
>  <UniqueID>  (1) 
1

>  <SMILES>  (1) 
O=C(Cc1ccccc1)Nc1cccnc1Oc1cc(F)ccc1F

>  <Energy>  (1) 
51.04200353231979

>  <Genealogy>  (1) 
O=C(Cc1ccccc1)Nc1cccnc1Oc1cc(F)ccc1F (3D coordinates assigned)
O=C(Cc1ccccc1)Nc1cccnc1Oc1cc(F)ccc1F (optimized conformer: 51.04200353231979 kcal/mol)

>  <smiles>  (1) 
O=C(Cc1ccccc1)Nc1cccnc1Oc1cc(F)ccc1F

>  <score_type>  (1) 
oracle

>  <origin>  (1) 
adg

>  <m_score__min__energy>  (1) 
-8.2899999999999991

>  <m_primary>  (1) 
energy

$$$$
1:0
     RDKit          3D

 33 34  0  0  0  0  0  0  0  0999 V2000
   -7.5670   20.4550  -32.4080 C   0  0  0  0  0  0  0  0  0  0  0  0
   -6.9120   21.7100  -31.9110 C   0  0  0  0  0  0  0  0  0  0  0  0
   -5.5290   21.8900  -32.0580 C   0  0  0  0  0  0  0  0  0  0  0  0
   -4.9120   23.0450  -31.5660 C   0  0  0  0  0  0  0  0  0  0  0  0
   -5.6700   24.0320  -30.9170 C   0  0  0  0  0  0  0  0  0  0  0  0
   -5.0190   25.2960  -30.4210 C   0  0  0  0  0  0  0  0  0  0  0  0
   -3.5620   25.1840  -30.4680 N   0  0  0  0  0  0  0  0  0  0  0  0
   -2.7160   24.8030  -29.3720 C   0  0  0  0  0  0  0  0  0  0  0  0
   -1.9140   25.6520  -28.9020 O   0  0  0  0  0  0  0  0  0  0  0  0
   -2.7260   23.4410  -28.8130 C   0  0  0  0  0  0  0  0  0  0  0  0
   -1.6740   22.5490  -29.0630 C   0  0  0  0  0  0  0  0  0  0  0  0
   -1.6920   21.2720  -28.5010 C   0  0  0  0  0  0  0  0  0  0  0  0
   -2.7730   20.8910  -27.6960 C   0  0  0  0  0  0  0  0  0  0  0  0
   -2.8160   19.5280  -27.0840 C   0  0  0  0  0  0  0  0  0  0  0  0
   -3.7980   21.7620  -27.4870 N   0  0  0  0  0  0  0  0  0  0  0  0
   -3.8020   23.0100  -28.0250 C   0  0  0  0  0  0  0  0  0  0  0  0
   -7.0500   23.8370  -30.7470 C   0  0  0  0  0  0  0  0  0  0  0  0
   -7.6660   22.6820  -31.2360 C   0  0  0  0  0  0  0  0  0  0  0  0
   -7.8860   19.8437  -31.5509 H   0  0  0  0  0  0  0  0  0  0  0  0
   -8.4438   20.7161  -33.0187 H   0  0  0  0  0  0  0  0  0  0  0  0
   -6.8514   19.8850  -33.0187 H   0  0  0  0  0  0  0  0  0  0  0  0
   -4.9269   21.1198  -32.5623 H   0  0  0  0  0  0  0  0  0  0  0  0
   -3.8272   23.1804  -31.6884 H   0  0  0  0  0  0  0  0  0  0  0  0
   -5.3364   26.1374  -31.0545 H   0  0  0  0  0  0  0  0  0  0  0  0
   -5.3257   25.4641  -29.3781 H   0  0  0  0  0  0  0  0  0  0  0  0
   -0.8335   22.8560  -29.7028 H   0  0  0  0  0  0  0  0  0  0  0  0
   -0.8651   20.5712  -28.6884 H   0  0  0  0  0  0  0  0  0  0  0  0
   -2.8132   19.6181  -25.9877 H   0  0  0  0  0  0  0  0  0  0  0  0
   -3.7309   19.0098  -27.4070 H   0  0  0  0  0  0  0  0  0  0  0  0
   -1.9355   18.9531  -27.4070 H   0  0  0  0  0  0  0  0  0  0  0  0
   -4.6520   23.6837  -27.8415 H   0  0  0  0  0  0  0  0  0  0  0  0
   -7.6497   24.5978  -30.2259 H   0  0  0  0  0  0  0  0  0  0  0  0
   -8.7464   22.5342  -31.0912 H   0  0  0  0  0  0  0  0  0  0  0  0
  1  2  1  0
  2  3  2  0
  3  4  1  0
  4  5  2  0
  5  6  1  0
  6  7  1  0
  7  8  1  0
  8  9  2  0
  8 10  1  0
 10 11  2  0
 11 12  1  0
 12 13  2  0
 13 14  1  0
 13 15  1  0
 15 16  2  0
  5 17  1  0
 17 18  2  0
 18  2  1  0
 16 10  1  0
  1 19  1  0
  1 20  1  0
  1 21  1  0
  3 22  1  0
  4 23  1  0
  6 24  1  0
  6 25  1  0
 11 26  1  0
 12 27  1  0
 14 28  1  0
 14 29  1  0
 14 30  1  0
 16 31  1  0
 17 32  1  0
 18 33  1  0
M  CHG  1   7  -1
M  END
>  <UniqueID>  (2) 
2

>  <SMILES>  (2) 
Cc1ccc(C[N-]C(=O)c2ccc(C)nc2)cc1

>  <Energy>  (2) 
34.08404093544163

>  <Genealogy>  (2) 
Cc1ccc(C[N-]C(=O)c2ccc(C)nc2)cc1 (protonated)
Cc1ccc(C[N-]C(=O)c2ccc(C)nc2)cc1 (3D coordinates assigned)
Cc1ccc(C[N-]C(=O)c2ccc(C)nc2)cc1 (optimized conformer: 34.08404093544163 kcal/mol)

>  <smiles>  (2) 
Cc1ccc(CNC(=O)c2ccc(C)nc2)cc1

>  <score_type>  (2) 
oracle

>  <origin>  (2) 
adg

>  <m_score__min__energy>  (2) 
-8.8599999999999994

>  <m_primary>  (2) 
energy

$$$$
2:0
     RDKit          3D

 26 27  0  0  0  0  0  0  0  0999 V2000
   -9.6220   21.9360  -30.5830 O   0  0  0  0  0  0  0  0  0  0  0  0
   -8.2800   22.1300  -31.2290 S   0  0  0  0  0  0  0  0  0  0  0  0
   -8.3920   23.2050  -32.2740 O   0  0  0  0  0  0  0  0  0  0  0  0
   -7.1360   22.6270  -30.0190 N   0  0  0  0  0  0  0  0  0  0  0  0
   -6.1260   23.4330  -30.1910 C   0  0  0  0  0  0  0  0  0  0  0  0
   -4.8450   22.8810  -30.3090 C   0  0  0  0  0  0  0  0  0  0  0  0
   -3.7430   23.7160  -30.5010 C   0  0  0  0  0  0  0  0  0  0  0  0
   -3.9100   25.0650  -30.5730 N   0  0  0  0  0  0  0  0  0  0  0  0
   -5.1410   25.6320  -30.4600 C   0  0  0  0  0  0  0  0  0  0  0  0
   -6.2700   24.8320  -30.2670 C   0  0  0  0  0  0  0  0  0  0  0  0
   -7.7750   20.6060  -31.9550 C   0  0  0  0  0  0  0  0  0  0  0  0
   -8.4220   19.4140  -31.6030 C   0  0  0  0  0  0  0  0  0  0  0  0
   -8.0190   18.2020  -32.1700 C   0  0  0  0  0  0  0  0  0  0  0  0
   -6.9700   18.1750  -33.0950 C   0  0  0  0  0  0  0  0  0  0  0  0
   -6.4650   16.6530  -33.8070 Cl  0  0  0  0  0  0  0  0  0  0  0  0
   -6.3260   19.3640  -33.4540 C   0  0  0  0  0  0  0  0  0  0  0  0
   -6.7280   20.5770  -32.8860 C   0  0  0  0  0  0  0  0  0  0  0  0
   -4.7071   21.7913  -30.2505 H   0  0  0  0  0  0  0  0  0  0  0  0
   -2.7364   23.2825  -30.5944 H   0  0  0  0  0  0  0  0  0  0  0  0
   -3.0760   25.6760  -30.7170 H   0  0  0  0  0  0  0  0  0  0  0  0
   -5.2482   26.7251  -30.5208 H   0  0  0  0  0  0  0  0  0  0  0  0
   -7.2650   25.2918  -30.1750 H   0  0  0  0  0  0  0  0  0  0  0  0
   -9.2494   19.4323  -30.8784 H   0  0  0  0  0  0  0  0  0  0  0  0
   -8.5273   17.2680  -31.8886 H   0  0  0  0  0  0  0  0  0  0  0  0
   -5.5029   19.3447  -34.1835 H   0  0  0  0  0  0  0  0  0  0  0  0
   -6.2211   21.5108  -33.1707 H   0  0  0  0  0  0  0  0  0  0  0  0
  1  2  2  0
  2  3  2  0
  2  4  1  0
  4  5  2  3
  5  6  1  0
  6  7  2  0
  7  8  1  0
  8  9  1  0
  9 10  2  0
  2 11  1  0
 11 12  2  0
 12 13  1  0
 13 14  2  0
 14 15  1  0
 14 16  1  0
 16 17  2  0
 10  5  1  0
 17 11  1  0
  6 18  1  0
  7 19  1  0
  8 20  1  0
  9 21  1  0
 10 22  1  0
 12 23  1  0
 13 24  1  0
 16 25  1  0
 17 26  1  0
M  END
>  <UniqueID>  (3) 
3

>  <SMILES>  (3) 
O=S(=O)(N=c1cc[nH]cc1)c1ccc(Cl)cc1

>  <Energy>  (3) 
31.9417858714856

>  <Genealogy>  (3) 
O=S(=O)(N=c1cc[nH]cc1)c1ccc(Cl)cc1 (3D coordinates assigned)
O=S(=O)(N=c1cc[nH]cc1)c1ccc(Cl)cc1 (optimized conformer: 31.9417858714856 kcal/mol)

>  <smiles>  (3) 
O=S(=O)(N=c1cc[nH]cc1)c1ccc(Cl)cc1

>  <score_type>  (3) 
oracle

>  <origin>  (3) 
adg

>  <m_score__min__energy>  (3) 
-8.1099999999999994

>  <m_primary>  (3) 
energy

$$$$
3:0
     RDKit          3D

 42 45  0  0  0  0  0  0  0  0999 V2000
   -8.0400   19.2220  -33.0960 O   0  0  0  0  0  0  0  0  0  0  0  0
   -6.9710   19.8920  -33.0830 C   0  0  0  0  0  0  0  0  0  0  0  0
   -5.8330   19.4190  -33.8170 N   0  0  0  0  0  0  0  0  0  0  0  0
   -5.9220   18.2490  -34.6850 C   0  0  0  0  0  0  0  0  0  0  0  0
   -4.7710   17.2760  -34.4990 C   0  0  0  0  0  0  0  0  0  0  0  0
   -6.1460   16.9450  -33.9410 C   0  0  0  0  0  0  0  0  0  0  0  0
   -6.9100   21.1500  -32.2990 C   0  0  0  0  0  0  0  0  0  0  0  0
   -8.0940   21.8130  -31.9330 C   0  0  0  0  0  0  0  0  0  0  0  0
   -8.0450   22.9680  -31.2180 N   0  0  0  0  0  0  0  0  0  0  0  0
   -6.8660   23.5280  -30.8400 C   0  0  0  0  0  0  0  0  0  0  0  0
   -6.8580   24.7180  -30.1060 C   0  0  0  0  0  0  0  0  0  0  0  0
   -5.6460   25.2980  -29.7220 C   0  0  0  0  0  0  0  0  0  0  0  0
   -4.4230   24.6920  -30.0740 C   0  0  0  0  0  0  0  0  0  0  0  0
   -3.1780   25.2370  -29.7190 O   0  0  0  0  0  0  0  0  0  0  0  0
   -2.3710   24.8060  -28.6220 C   0  0  0  0  0  0  0  0  0  0  0  0
   -2.1850   23.3120  -28.6490 C   0  0  0  0  0  0  0  0  0  0  0  0
   -2.9560   22.4910  -27.8090 C   0  0  0  0  0  0  0  0  0  0  0  0
   -2.7770   21.1030  -27.8230 C   0  0  0  0  0  0  0  0  0  0  0  0
   -1.8240   20.5290  -28.6690 C   0  0  0  0  0  0  0  0  0  0  0  0
   -1.0450   21.3400  -29.4970 C   0  0  0  0  0  0  0  0  0  0  0  0
   -1.2190   22.7270  -29.4850 C   0  0  0  0  0  0  0  0  0  0  0  0
   -4.4350   23.4970  -30.8060 C   0  0  0  0  0  0  0  0  0  0  0  0
   -5.6490   22.9110  -31.1910 C   0  0  0  0  0  0  0  0  0  0  0  0
   -5.6800   21.7190  -31.9260 C   0  0  0  0  0  0  0  0  0  0  0  0
   -4.8870   19.8180  -33.6260 H   0  0  0  0  0  0  0  0  0  0  0  0
   -6.3991   18.7452  -35.5430 H   0  0  0  0  0  0  0  0  0  0  0  0
   -4.3781   16.7173  -35.3612 H   0  0  0  0  0  0  0  0  0  0  0  0
   -3.7562   17.3420  -34.0796 H   0  0  0  0  0  0  0  0  0  0  0  0
   -6.7480   16.1466  -34.3994 H   0  0  0  0  0  0  0  0  0  0  0  0
   -6.5385   16.6721  -32.9503 H   0  0  0  0  0  0  0  0  0  0  0  0
   -9.0676   21.3941  -32.2274 H   0  0  0  0  0  0  0  0  0  0  0  0
   -7.8081   25.1988  -29.8301 H   0  0  0  0  0  0  0  0  0  0  0  0
   -5.6464   26.2326  -29.1419 H   0  0  0  0  0  0  0  0  0  0  0  0
   -1.3867   25.2931  -28.6852 H   0  0  0  0  0  0  0  0  0  0  0  0
   -2.8752   25.0814  -27.6840 H   0  0  0  0  0  0  0  0  0  0  0  0
   -3.7028   22.9406  -27.1381 H   0  0  0  0  0  0  0  0  0  0  0  0
   -3.3867   20.4635  -27.1678 H   0  0  0  0  0  0  0  0  0  0  0  0
   -1.6875   19.4376  -28.6826 H   0  0  0  0  0  0  0  0  0  0  0  0
   -0.2932   20.8867  -30.1598 H   0  0  0  0  0  0  0  0  0  0  0  0
   -0.5973   23.3628  -30.1325 H   0  0  0  0  0  0  0  0  0  0  0  0
   -3.4849   23.0153  -31.0805 H   0  0  0  0  0  0  0  0  0  0  0  0
   -4.7389   21.2267  -32.2122 H   0  0  0  0  0  0  0  0  0  0  0  0
  1  2  2  0
  2  3  1  0
  3  4  1  0
  4  5  1  0
  5  6  1  0
  2  7  1  0
  7  8  2  0
  8  9  1  0
  9 10  2  0
 10 11  1  0
 11 12  2  0
 12 13  1  0
 13 14  1  0
 14 15  1  0
 15 16  1  0
 16 17  2  0
 17 18  1  0
 18 19  2  0
 19 20  1  0
 20 21  2  0
 13 22  2  0
 22 23  1  0
 23 24  2  0
  6  4  1  0
 24  7  1  0
 23 10  1  0
 21 16  1  0
  3 25  1  0
  4 26  1  0
  5 27  1  0
  5 28  1  0
  6 29  1  0
  6 30  1  0
  8 31  1  0
 11 32  1  0
 12 33  1  0
 15 34  1  0
 15 35  1  0
 17 36  1  0
 18 37  1  0
 19 38  1  0
 20 39  1  0
 21 40  1  0
 22 41  1  0
 24 42  1  0
M  END
>  <UniqueID>  (4) 
4

>  <SMILES>  (4) 
O=C(NC1CC1)c1cnc2ccc(OCc3ccccc3)cc2c1

>  <Energy>  (4) 
313.4784628877847

>  <Genealogy>  (4) 
O=C(NC1CC1)c1cnc2ccc(OCc3ccccc3)cc2c1 (3D coordinates assigned)
O=C(NC1CC1)c1cnc2ccc(OCc3ccccc3)cc2c1 (nonaromatic ring conformer: 313.4784628877847 kcal/mol)

>  <smiles>  (4) 
O=C(NC1CC1)c1cnc2ccc(OCc3ccccc3)cc2c1

>  <score_type>  (4) 
oracle

>  <origin>  (4) 
adg

>  <m_score__min__energy>  (4) 
-8.9900000000000002

>  <m_primary>  (4) 
energy

$$$$
4:0
     RDKit          3D

 30 31  0  0  1  0  0  0  0  0999 V2000
   -2.0360   24.9010  -28.1790 C   0  0  0  0  0  0  0  0  0  0  0  0
   -2.7230   25.2980  -29.3420 O   0  0  0  0  0  0  0  0  0  0  0  0
   -3.8180   24.5340  -29.7240 C   0  0  0  0  0  0  0  0  0  0  0  0
   -5.0400   25.0950  -30.0510 C   0  0  0  0  0  0  0  0  0  0  0  0
   -6.1070   24.2750  -30.4290 C   0  0  0  0  0  0  0  0  0  0  0  0
   -6.0010   22.9070  -30.4920 C   0  0  0  0  0  0  0  0  0  0  0  0
   -7.0380   22.0240  -30.8650 N   0  0  0  0  0  0  0  0  0  0  0  0
   -8.1130   22.3020  -31.7140 C   0  0  0  0  0  0  0  0  0  0  0  0
   -8.2870   23.4140  -32.2630 O   0  0  0  0  0  0  0  0  0  0  0  0
   -9.0890   21.2960  -31.9960 N   0  0  0  0  0  0  0  0  0  0  0  0
   -8.6470   20.0530  -32.1260 C   0  0  0  0  0  0  0  0  0  0  0  0
   -9.0300   18.9240  -31.6420 N   0  0  0  0  0  0  0  0  0  0  0  0
   -8.3370   17.8800  -31.9960 N   0  0  0  0  0  0  0  0  0  0  0  0
   -7.4200   17.7870  -32.6830 C   0  0  0  0  0  0  0  0  0  0  0  0
   -6.4380   16.8260  -33.2740 C   0  0  0  0  0  0  0  0  0  0  0  0
   -7.2120   19.6440  -33.1560 S   0  0  0  0  0  0  0  0  0  0  0  0
   -4.7650   22.3750  -30.1580 C   0  0  0  0  0  0  0  0  0  0  0  0
   -3.7240   23.1690  -29.7910 C   0  0  0  0  0  0  0  0  0  0  0  0
   -2.5988   25.2262  -27.2916 H   0  0  0  0  0  0  0  0  0  0  0  0
   -1.9356   23.8056  -28.1684 H   0  0  0  0  0  0  0  0  0  0  0  0
   -1.0368   25.3609  -28.1684 H   0  0  0  0  0  0  0  0  0  0  0  0
   -5.1717   26.1864  -30.0135 H   0  0  0  0  0  0  0  0  0  0  0  0
   -7.0686   24.7433  -30.6859 H   0  0  0  0  0  0  0  0  0  0  0  0
   -7.0060   21.0390  -30.4630 H   0  0  0  0  0  0  0  0  0  0  0  0
   -9.8720   18.8180  -30.9790 H   0  0  0  0  0  0  0  0  0  0  0  0
   -5.9044   16.3038  -32.4662 H   0  0  0  0  0  0  0  0  0  0  0  0
   -6.9719   16.0918  -33.8952 H   0  0  0  0  0  0  0  0  0  0  0  0
   -5.7155   17.3756  -33.8952 H   0  0  0  0  0  0  0  0  0  0  0  0
   -4.6232   21.2847  -30.1907 H   0  0  0  0  0  0  0  0  0  0  0  0
   -2.7646   22.6946  -29.5368 H   0  0  0  0  0  0  0  0  0  0  0  0
  1  2  1  0
  2  3  1  0
  3  4  2  0
  4  5  1  0
  5  6  2  0
  6  7  1  0
  7  8  1  0
  8  9  2  0
  8 10  1  0
 10 11  2  0
 11 12  1  0
 12 13  1  0
 13 14  2  0
 14 15  1  0
 14 16  1  0
  6 17  1  0
 17 18  2  0
 18  3  1  0
 16 11  1  0
  1 19  1  0
  1 20  1  0
  1 21  1  0
  4 22  1  0
  5 23  1  0
  7 24  1  0
 12 25  1  0
 15 26  1  0
 15 27  1  0
 15 28  1  0
 17 29  1  0
 18 30  1  0
M  END
>  <smiles>  (5) 
COc1ccc(NC(=O)N=c2[nH]nc(C)s2)cc1

>  <score_type>  (5) 
oracle

>  <origin>  (5) 
adg

>  <m_score__min__energy>  (5) 
-7

>  <m_primary>  (5) 
energy

$$$$
5:0
     RDKit          3D

 69 71  0  0  0  0  0  0  0  0999 V2000
   -5.3660   25.6810  -30.4770 C   0  0  0  0  0  0  0  0  0  0  0  0
   -3.9990   25.2820  -30.5170 O   0  0  0  0  0  0  0  0  0  0  0  0
   -3.5570   23.9530  -30.4420 C   0  0  0  0  0  0  0  0  0  0  0  0
   -4.0350   23.0410  -31.3880 C   0  0  0  0  0  0  0  0  0  0  0  0
   -3.6300   21.6990  -31.3620 C   0  0  0  0  0  0  0  0  0  0  0  0
   -4.1910   20.7240  -32.3570 C   0  0  0  0  0  0  0  0  0  0  0  0
   -2.7500   21.2610  -30.3580 C   0  0  0  0  0  0  0  0  0  0  0  0
   -2.4020   19.9490  -30.2960 F   0  0  0  0  0  0  0  0  0  0  0  0
   -2.2520   22.1710  -29.4080 C   0  0  0  0  0  0  0  0  0  0  0  0
   -1.1630   21.6410  -28.1220 S   0  0  0  0  0  0  0  0  0  0  0  0
    0.2660   21.9000  -28.5100 O   0  0  0  0  0  0  0  0  0  0  0  0
   -1.4590   22.4240  -26.8740 O   0  0  0  0  0  0  0  0  0  0  0  0
   -1.3770   19.9490  -27.7890 N   0  0  0  0  0  0  0  0  0  0  0  0
   -0.1200   19.2350  -28.0060 C   0  0  0  0  0  0  0  0  0  0  0  0
   -0.0300   18.7800  -29.4630 C   0  0  0  0  0  0  0  0  0  0  0  0
    0.9570   19.6550  -30.2500 C   0  0  0  0  0  0  0  0  0  0  0  0
    0.5680   19.7530  -31.6740 N   0  0  0  0  0  0  0  0  0  0  0  0
   -0.5170   18.8030  -31.9710 C   0  0  0  0  0  0  0  0  0  0  0  0
   -0.8070   18.7630  -33.4880 C   0  0  0  0  0  0  0  0  0  0  0  0
   -0.4740   20.0280  -34.1870 N   0  0  0  0  0  0  0  0  0  0  0  0
    0.8730   19.9930  -34.8070 C   0  0  0  0  0  0  0  0  0  0  0  0
    1.4430   21.4100  -35.0010 C   0  0  0  0  0  0  0  0  0  0  0  0
    0.7720   22.1550  -36.1620 C   0  0  0  0  0  0  0  0  0  0  0  0
    0.1420   23.3940  -35.7000 N   0  0  0  0  0  0  0  0  0  0  0  0
    1.0500   24.7910  -36.2040 S   0  0  0  0  0  0  0  0  0  0  0  0
    1.6380   24.5690  -37.5720 O   0  0  0  0  0  0  0  0  0  0  0  0
    2.1780   25.0240  -35.2360 O   0  0  0  0  0  0  0  0  0  0  0  0
    0.0050   26.2090  -36.2220 C   0  0  0  0  0  0  0  0  0  0  0  0
   -0.0230   27.0870  -35.1280 C   0  0  0  0  0  0  0  0  0  0  0  0
   -0.8590   28.2090  -35.1490 C   0  0  0  0  0  0  0  0  0  0  0  0
   -1.6660   28.4610  -36.2630 C   0  0  0  0  0  0  0  0  0  0  0  0
   -1.6340   27.5930  -37.3590 C   0  0  0  0  0  0  0  0  0  0  0  0
   -0.7980   26.4720  -37.3420 C   0  0  0  0  0  0  0  0  0  0  0  0
   -0.6950   21.1930  -33.3070 C   0  0  0  0  0  0  0  0  0  0  0  0
    0.1720   21.1360  -32.0320 C   0  0  0  0  0  0  0  0  0  0  0  0
   -2.6580   23.5110  -29.4540 C   0  0  0  0  0  0  0  0  0  0  0  0
   -5.6899   25.7755  -29.4300 H   0  0  0  0  0  0  0  0  0  0  0  0
   -5.4802   26.6499  -30.9850 H   0  0  0  0  0  0  0  0  0  0  0  0
   -5.9835   24.9256  -30.9850 H   0  0  0  0  0  0  0  0  0  0  0  0
   -4.7380   23.3809  -32.1628 H   0  0  0  0  0  0  0  0  0  0  0  0
   -4.6706   19.8904  -31.8231 H   0  0  0  0  0  0  0  0  0  0  0  0
   -4.9351   21.2317  -32.9883 H   0  0  0  0  0  0  0  0  0  0  0  0
   -3.3782   20.3358  -32.9883 H   0  0  0  0  0  0  0  0  0  0  0  0
    0.7238   19.9031  -27.7789 H   0  0  0  0  0  0  0  0  0  0  0  0
   -0.0826   18.3551  -27.3469 H   0  0  0  0  0  0  0  0  0  0  0  0
    0.3116   17.7348  -29.4935 H   0  0  0  0  0  0  0  0  0  0  0  0
   -1.0252   18.8723  -29.9223 H   0  0  0  0  0  0  0  0  0  0  0  0
    0.9705   20.6638  -29.8116 H   0  0  0  0  0  0  0  0  0  0  0  0
    1.9538   19.1934  -30.1924 H   0  0  0  0  0  0  0  0  0  0  0  0
   -0.2205   17.7990  -31.6334 H   0  0  0  0  0  0  0  0  0  0  0  0
   -1.4266   19.1290  -31.4453 H   0  0  0  0  0  0  0  0  0  0  0  0
   -0.2136   17.9516  -33.9347 H   0  0  0  0  0  0  0  0  0  0  0  0
   -1.8887   18.6025  -33.6067 H   0  0  0  0  0  0  0  0  0  0  0  0
    1.5510   19.4212  -34.1563 H   0  0  0  0  0  0  0  0  0  0  0  0
    0.7852   19.5185  -35.7955 H   0  0  0  0  0  0  0  0  0  0  0  0
    1.2867   21.9836  -34.0755 H   0  0  0  0  0  0  0  0  0  0  0  0
    2.5127   21.3122  -35.2381 H   0  0  0  0  0  0  0  0  0  0  0  0
    1.5318   22.3990  -36.9191 H   0  0  0  0  0  0  0  0  0  0  0  0
   -0.0062   21.5061  -36.5901 H   0  0  0  0  0  0  0  0  0  0  0  0
    0.6135   26.8930  -34.2520 H   0  0  0  0  0  0  0  0  0  0  0  0
   -0.8814   28.8936  -34.2883 H   0  0  0  0  0  0  0  0  0  0  0  0
   -2.3254   29.3413  -36.2771 H   0  0  0  0  0  0  0  0  0  0  0  0
   -2.2674   27.7923  -38.2359 H   0  0  0  0  0  0  0  0  0  0  0  0
   -0.7700   25.7951  -38.2086 H   0  0  0  0  0  0  0  0  0  0  0  0
   -0.4464   22.1088  -33.8633 H   0  0  0  0  0  0  0  0  0  0  0  0
   -1.7504   21.1855  -32.9971 H   0  0  0  0  0  0  0  0  0  0  0  0
    1.0820   21.7314  -32.1977 H   0  0  0  0  0  0  0  0  0  0  0  0
   -0.4288   21.5362  -31.2020 H   0  0  0  0  0  0  0  0  0  0  0  0
   -2.2706   24.2239  -28.7112 H   0  0  0  0  0  0  0  0  0  0  0  0
  1  2  1  0
  2  3  1  0
  3  4  2  0
  4  5  1  0
  5  6  1  0
  5  7  2  0
  7  8  1  0
  7  9  1  0
  9 10  1  0
 10 11  2  0
 10 12  2  0
 10 13  1  0
 13 14  1  0
 14 15  1  0
 15 16  1  0
 16 17  1  0
 17 18  1  0
 18 19  1  0
 19 20  1  0
 20 21  1  0
 21 22  1  0
 22 23  1  0
 23 24  1  0
 24 25  1  0
 25 26  2  0
 25 27  2  0
 25 28  1  0
 28 29  2  0
 29 30  1  0
 30 31  2  0
 31 32  1  0
 32 33  2  0
 20 34  1  0
 34 35  1  0
  9 36  2  0
 36  3  1  0
 35 17  1  0
 33 28  1  0
  1 37  1  0
  1 38  1  0
  1 39  1  0
  4 40  1  0
  6 41  1  0
  6 42  1  0
  6 43  1  0
 14 44  1  0
 14 45  1  0
 15 46  1  0
 15 47  1  0
 16 48  1  0
 16 49  1  0
 18 50  1  0
 18 51  1  0
 19 52  1  0
 19 53  1  0
 21 54  1  0
 21 55  1  0
 22 56  1  0
 22 57  1  0
 23 58  1  0
 23 59  1  0
 29 60  1  0
 30 61  1  0
 31 62  1  0
 32 63  1  0
 33 64  1  0
 34 65  1  0
 34 66  1  0
 35 67  1  0
 35 68  1  0
 36 69  1  0
M  CHG  2  13  -1  24  -1
M  END
>  <UniqueID>  (6) 
5

>  <SMILES>  (6) 
COc1cc(C)c(F)c(S(=O)(=O)[N-]CCCN2CCN(CCC[N-]S(=O)(=O)c3ccccc3)CC2)c1

>  <Energy>  (6) 
74.32148976134883

>  <Genealogy>  (6) 
COc1cc(C)c(F)c(S(=O)(=O)[N-]CCCN2CCN(CCC[N-]S(=O)(=O)c3ccccc3)CC2)c1 (protonated)
COc1cc(C)c(F)c(S(=O)(=O)[N-]CCCN2CCN(CCC[N-]S(=O)(=O)c3ccccc3)CC2)c1 (3D coordinates assigned)
COc1cc(C)c(F)c(S(=O)(=O)[N-]CCCN2CCN(CCC[N-]S(=O)(=O)c3ccccc3)CC2)c1 (nonaromatic ring conformer: 74.32148976134883 kcal/mol)

>  <smiles>  (6) 
COc1cc(C)c(F)c(S(=O)(=O)NCCCN2CCN(CCCNS(=O)(=O)c3ccccc3)CC2)c1

>  <score_type>  (6) 
oracle

>  <origin>  (6) 
adg

>  <m_score__min__energy>  (6) 
-11.73

>  <m_primary>  (6) 
energy

$$$$
6:0
     RDKit          3D

 26 29  0  0  0  0  0  0  0  0999 V2000
   -1.1700   22.4300  -26.3480 Cl  0  0  0  0  0  0  0  0  0  0  0  0
   -2.3230   23.1690  -27.4470 C   0  0  0  0  0  0  0  0  0  0  0  0
   -3.5120   22.5350  -27.6780 N   0  0  0  0  0  0  0  0  0  0  0  0
   -4.4100   23.1210  -28.5060 C   0  0  0  0  0  0  0  0  0  0  0  0
   -5.5050   22.5320  -29.0510 N   0  0  0  0  0  0  0  0  0  0  0  0
   -5.8780   23.4770  -29.9590 C   0  0  0  0  0  0  0  0  0  0  0  0
   -6.4790   23.2640  -31.1420 N   0  0  0  0  0  0  0  0  0  0  0  0
   -7.2930   22.1450  -31.5470 C   0  0  0  0  0  0  0  0  0  0  0  0
   -8.6970   22.2440  -31.5710 C   0  0  0  0  0  0  0  0  0  0  0  0
   -9.4770   21.1520  -31.9620 C   0  0  0  0  0  0  0  0  0  0  0  0
   -8.8680   19.9500  -32.3280 C   0  0  0  0  0  0  0  0  0  0  0  0
   -7.4760   19.8370  -32.3040 C   0  0  0  0  0  0  0  0  0  0  0  0
   -6.6910   20.9270  -31.9150 C   0  0  0  0  0  0  0  0  0  0  0  0
   -5.9510   24.2580  -31.9180 C   0  0  0  0  0  0  0  0  0  0  0  0
   -5.0330   25.0080  -31.2450 N   0  0  0  0  0  0  0  0  0  0  0  0
   -5.0830   24.5310  -30.0160 N   0  0  0  0  0  0  0  0  0  0  0  0
   -4.1250   24.3070  -29.1220 C   0  0  0  0  0  0  0  0  0  0  0  0
   -2.9250   24.9210  -29.0010 N   0  0  0  0  0  0  0  0  0  0  0  0
   -2.0170   24.3810  -28.1330 C   0  0  0  0  0  0  0  0  0  0  0  0
   -0.4720   25.1850  -27.9160 Cl  0  0  0  0  0  0  0  0  0  0  0  0
   -9.1834   23.1868  -31.2802 H   0  0  0  0  0  0  0  0  0  0  0  0
  -10.5733   21.2398  -31.9814 H   0  0  0  0  0  0  0  0  0  0  0  0
   -9.4843   19.0922  -32.6352 H   0  0  0  0  0  0  0  0  0  0  0  0
   -6.9967   18.8895  -32.5914 H   0  0  0  0  0  0  0  0  0  0  0  0
   -5.5953   20.8319  -31.8965 H   0  0  0  0  0  0  0  0  0  0  0  0
   -6.2347   24.4327  -32.9663 H   0  0  0  0  0  0  0  0  0  0  0  0
  1  2  1  0
  2  3  2  0
  3  4  1  0
  4  5  1  0
  5  6  2  0
  6  7  1  0
  7  8  1  0
  8  9  2  0
  9 10  1  0
 10 11  2  0
 11 12  1  0
 12 13  2  0
  7 14  1  0
 14 15  2  0
 15 16  1  0
 16 17  1  0
 17 18  1  0
 18 19  2  0
 19 20  1  0
 19  2  1  0
 17  4  2  0
 16  6  1  0
 13  8  1  0
  9 21  1  0
 10 22  1  0
 11 23  1  0
 12 24  1  0
 13 25  1  0
 14 26  1  0
M  END
>  <UniqueID>  (7) 
6

>  <SMILES>  (7) 
Clc1nc2nc3n(-c4ccccc4)cnn3c2nc1Cl

>  <Energy>  (7) 
144.94865470814557

>  <Genealogy>  (7) 
Clc1nc2nc3n(-c4ccccc4)cnn3c2nc1Cl (3D coordinates assigned)
Clc1nc2nc3n(-c4ccccc4)cnn3c2nc1Cl (optimized conformer: 144.94865470814557 kcal/mol)

>  <smiles>  (7) 
Clc1nc2nc3n(-c4ccccc4)cnn3c2nc1Cl

>  <score_type>  (7) 
oracle

>  <origin>  (7) 
adg

>  <m_score__min__energy>  (7) 
-7.46

>  <m_primary>  (7) 
energy

$$$$
7:0
     RDKit          3D

 32 34  0  0  0  0  0  0  0  0999 V2000
  -10.2643   21.1268  -32.7332 H   0  0  0  0  0  0  0  0  0  0  0  0
   -9.3590   21.0230  -32.1170 C   0  0  0  0  0  0  0  0  0  0  0  0
   -9.1270   21.8900  -31.1770 N   0  0  0  0  0  0  0  0  0  0  0  0
   -7.9050   22.6180  -30.9640 C   0  0  0  0  0  0  0  0  0  0  0  0
   -7.3640   23.5020  -31.9190 C   0  0  0  0  0  0  0  0  0  0  0  0
   -7.8869   23.6634  -32.8732 H   0  0  0  0  0  0  0  0  0  0  0  0
   -6.1660   24.1750  -31.6600 C   0  0  0  0  0  0  0  0  0  0  0  0
   -5.7567   24.8682  -32.4097 H   0  0  0  0  0  0  0  0  0  0  0  0
   -5.4800   23.9730  -30.4490 C   0  0  0  0  0  0  0  0  0  0  0  0
   -4.2120   24.6830  -30.1720 C   0  0  0  0  0  0  0  0  0  0  0  0
   -3.8660   25.6720  -30.8700 O   0  0  0  0  0  0  0  0  0  0  0  0
   -3.3850   24.2690  -29.1350 O   0  0  0  0  0  0  0  0  0  0  0  0
   -6.0150   23.0800  -29.5060 C   0  0  0  0  0  0  0  0  0  0  0  0
   -5.4878   22.9085  -28.5559 H   0  0  0  0  0  0  0  0  0  0  0  0
   -7.2120   22.4080  -29.7660 C   0  0  0  0  0  0  0  0  0  0  0  0
   -7.6144   21.7060  -29.0209 H   0  0  0  0  0  0  0  0  0  0  0  0
   -8.4300   19.8970  -32.3770 C   0  0  0  0  0  0  0  0  0  0  0  0
   -8.8020   18.6110  -31.9570 C   0  0  0  0  0  0  0  0  0  0  0  0
   -9.7661   18.4652  -31.4479 H   0  0  0  0  0  0  0  0  0  0  0  0
   -8.0070   17.5660  -32.1650 O   0  0  0  0  0  0  0  0  0  0  0  0
   -6.8320   17.6670  -32.7730 C   0  0  0  0  0  0  0  0  0  0  0  0
   -6.0470   16.5240  -32.9580 C   0  0  0  0  0  0  0  0  0  0  0  0
   -6.4057   15.5483  -32.5984 H   0  0  0  0  0  0  0  0  0  0  0  0
   -4.8090   16.6180  -33.5980 C   0  0  0  0  0  0  0  0  0  0  0  0
   -4.1956   15.7163  -33.7418 H   0  0  0  0  0  0  0  0  0  0  0  0
   -4.3480   17.8550  -34.0560 C   0  0  0  0  0  0  0  0  0  0  0  0
   -3.3724   17.9238  -34.5594 H   0  0  0  0  0  0  0  0  0  0  0  0
   -5.1220   19.0060  -33.8770 C   0  0  0  0  0  0  0  0  0  0  0  0
   -4.7537   19.9774  -34.2387 H   0  0  0  0  0  0  0  0  0  0  0  0
   -6.3730   18.9230  -33.2340 C   0  0  0  0  0  0  0  0  0  0  0  0
   -7.1880   20.0490  -33.0310 C   0  0  0  0  0  0  0  0  0  0  0  0
   -6.8070   21.1840  -33.4320 O   0  0  0  0  0  0  0  0  0  0  0  0
  1  2  1  0
  2  3  2  0
  3  4  1  0
  4  5  2  0
  5  6  1  0
  5  7  1  0
  7  8  1  0
  7  9  2  0
  9 10  1  0
 10 11  2  0
 10 12  1  0
  9 13  1  0
 13 14  1  0
 13 15  2  0
 15 16  1  0
  2 17  1  0
 17 18  2  0
 18 19  1  0
 18 20  1  0
 20 21  1  0
 21 22  2  0
 22 23  1  0
 22 24  1  0
 24 25  1  0
 24 26  2  0
 26 27  1  0
 26 28  1  0
 28 29  1  0
 28 30  2  0
 30 31  1  0
 31 32  2  0
 15  4  1  0
 31 17  1  0
 30 21  1  0
M  CHG  1  12  -1
M  END
>  <UniqueID>  (8) 
7

>  <SMILES>  (8) 
O=C([O-])c1ccc(/N=C/c2coc3ccccc3c2=O)cc1

>  <Energy>  (8) 
45.66208325902208

>  <Genealogy>  (8) 
O=C([O-])c1ccc(N=Cc2coc3ccccc3c2=O)cc1 (protonated)
O=C([O-])c1ccc(/N=C/c2coc3ccccc3c2=O)cc1 (cis-trans isomerization)
O=C([O-])c1ccc(/N=C/c2coc3ccccc3c2=O)cc1 (3D coordinates assigned)
O=C([O-])c1ccc(/N=C/c2coc3ccccc3c2=O)cc1 (optimized conformer: 45.66208325902208 kcal/mol)

>  <smiles>  (8) 
O=C(O)c1ccc(N=Cc2coc3ccccc3c2=O)cc1

>  <score_type>  (8) 
oracle

>  <origin>  (8) 
adg

>  <m_score__min__energy>  (8) 
-10.359999999999999

>  <m_primary>  (8) 
energy

$$$$
8:0
     RDKit          3D

 25 26  0  0  0  0  0  0  0  0999 V2000
   -3.7640   21.5890  -32.2690 C   0  0  0  0  0  0  0  0  0  0  0  0
   -4.6120   22.7070  -32.6600 N   0  0  0  0  0  0  0  0  0  0  0  0
   -5.3490   23.4760  -31.7060 C   0  0  0  0  0  0  0  0  0  0  0  0
   -6.6730   23.5770  -31.2970 C   0  0  0  0  0  0  0  0  0  0  0  0
   -7.9050   22.9210  -31.6080 N   0  0  0  0  0  0  0  0  0  0  0  0
   -7.9970   21.5210  -31.9070 C   0  0  0  0  0  0  0  0  0  0  0  0
   -7.0470   20.8860  -32.7290 C   0  0  0  0  0  0  0  0  0  0  0  0
   -7.1410   19.5140  -32.9840 C   0  0  0  0  0  0  0  0  0  0  0  0
   -8.1720   18.7640  -32.4140 C   0  0  0  0  0  0  0  0  0  0  0  0
   -9.1070   19.3830  -31.5790 C   0  0  0  0  0  0  0  0  0  0  0  0
   -9.0160   20.7540  -31.3200 C   0  0  0  0  0  0  0  0  0  0  0  0
   -6.3320   24.6280  -30.4700 C   0  0  0  0  0  0  0  0  0  0  0  0
   -6.9660   25.3870  -29.6910 O   0  0  0  0  0  0  0  0  0  0  0  0
   -5.0100   24.4920  -30.8350 C   0  0  0  0  0  0  0  0  0  0  0  0
   -3.9380   25.0750  -30.5250 O   0  0  0  0  0  0  0  0  0  0  0  0
   -3.7188   21.5294  -31.1715 H   0  0  0  0  0  0  0  0  0  0  0  0
   -4.1820   20.6539  -32.6701 H   0  0  0  0  0  0  0  0  0  0  0  0
   -2.7508   21.7395  -32.6701 H   0  0  0  0  0  0  0  0  0  0  0  0
   -4.8270   22.8410  -33.6730 H   0  0  0  0  0  0  0  0  0  0  0  0
   -8.7850   23.4770  -31.5310 H   0  0  0  0  0  0  0  0  0  0  0  0
   -6.2277   21.4709  -33.1724 H   0  0  0  0  0  0  0  0  0  0  0  0
   -6.4014   19.0247  -33.6348 H   0  0  0  0  0  0  0  0  0  0  0  0
   -8.2484   17.6865  -32.6220 H   0  0  0  0  0  0  0  0  0  0  0  0
   -9.9153   18.7907  -31.1252 H   0  0  0  0  0  0  0  0  0  0  0  0
   -9.7468   21.2343  -30.6527 H   0  0  0  0  0  0  0  0  0  0  0  0
  1  2  1  0
  2  3  1  0
  3  4  2  0
  4  5  1  0
  5  6  1  0
  6  7  2  0
  7  8  1  0
  8  9  2  0
  9 10  1  0
 10 11  2  0
  4 12  1  0
 12 13  2  0
 12 14  1  0
 14 15  2  0
 14  3  1  0
 11  6  1  0
  1 16  1  0
  1 17  1  0
  1 18  1  0
  2 19  1  0
  5 20  1  0
  7 21  1  0
  8 22  1  0
  9 23  1  0
 10 24  1  0
 11 25  1  0
M  END
>  <UniqueID>  (9) 
8

>  <SMILES>  (9) 
CNc1c(Nc2ccccc2)c(=O)c1=O

>  <Energy>  (9) 
18.49223561158392

>  <Genealogy>  (9) 
CNc1c(Nc2ccccc2)c(=O)c1=O (3D coordinates assigned)
CNc1c(Nc2ccccc2)c(=O)c1=O (optimized conformer: 18.49223561158392 kcal/mol)

>  <smiles>  (9) 
CNc1c(Nc2ccccc2)c(=O)c1=O

>  <score_type>  (9) 
oracle

>  <origin>  (9) 
adg

>  <m_score__min__energy>  (9) 
-6.7999999999999998

>  <m_primary>  (9) 
energy

$$$$
9:0
     RDKit          3D

 49 53  0  0  0  0  0  0  0  0999 V2000
    1.0170   22.1464  -28.1365 H   0  0  0  0  0  0  0  0  0  0  0  0
   -0.0780   22.0510  -28.0920 C   0  0  0  0  0  0  0  0  0  0  0  0
   -0.8260   23.1040  -28.4570 C   0  0  0  0  0  0  0  0  0  0  0  0
   -0.3590   24.4870  -28.4850 C   0  0  0  0  0  0  0  0  0  0  0  0
    0.7760   24.8820  -28.1070 O   0  0  0  0  0  0  0  0  0  0  0  0
   -1.3270   25.3280  -28.9950 O   0  0  0  0  0  0  0  0  0  0  0  0
   -2.4310   24.5500  -29.3110 C   0  0  0  0  0  0  0  0  0  0  0  0
   -3.4920   25.0330  -29.7870 O   0  0  0  0  0  0  0  0  0  0  0  0
   -2.2340   23.0920  -29.0050 C   0  0  1  0  0  0  0  0  0  0  0  0
   -2.9759   22.6603  -28.3171 H   0  0  0  0  0  0  0  0  0  0  0  0
   -2.3620   22.2410  -30.2530 C   0  0  0  0  0  0  0  0  0  0  0  0
   -3.1690   22.6790  -31.3170 C   0  0  0  0  0  0  0  0  0  0  0  0
   -3.6762   23.6530  -31.2533 H   0  0  0  0  0  0  0  0  0  0  0  0
   -3.3310   21.8850  -32.4550 C   0  0  0  0  0  0  0  0  0  0  0  0
   -3.9704   22.2324  -33.2799 H   0  0  0  0  0  0  0  0  0  0  0  0
   -2.6820   20.6490  -32.5480 C   0  0  0  0  0  0  0  0  0  0  0  0
   -2.8870   19.6360  -34.0110 S   0  0  0  0  0  0  0  0  0  0  0  0
   -4.5200   19.0890  -33.5140 C   0  0  0  0  0  0  0  0  0  0  0  0
   -4.7720   17.7260  -33.3180 C   0  0  0  0  0  0  0  0  0  0  0  0
   -3.9686   16.9922  -33.4799 H   0  0  0  0  0  0  0  0  0  0  0  0
   -6.0380   17.2930  -32.9180 C   0  0  0  0  0  0  0  0  0  0  0  0
   -6.2282   16.2207  -32.7634 H   0  0  0  0  0  0  0  0  0  0  0  0
   -7.0680   18.2240  -32.7130 C   0  0  0  0  0  0  0  0  0  0  0  0
   -8.3440   17.8020  -32.3070 C   0  0  0  0  0  0  0  0  0  0  0  0
   -8.5446   16.7318  -32.1508 H   0  0  0  0  0  0  0  0  0  0  0  0
   -9.3600   18.7400  -32.1010 C   0  0  0  0  0  0  0  0  0  0  0  0
  -10.3582   18.4056  -31.7819 H   0  0  0  0  0  0  0  0  0  0  0  0
   -9.1120   20.1010  -32.2990 C   0  0  0  0  0  0  0  0  0  0  0  0
   -9.9160   20.8337  -32.1353 H   0  0  0  0  0  0  0  0  0  0  0  0
   -7.8470   20.5350  -32.7040 C   0  0  0  0  0  0  0  0  0  0  0  0
   -7.6579   21.6074  -32.8593 H   0  0  0  0  0  0  0  0  0  0  0  0
   -6.8170   19.6040  -32.9130 C   0  0  0  0  0  0  0  0  0  0  0  0
   -5.5410   20.0250  -33.3160 C   0  0  0  0  0  0  0  0  0  0  0  0
   -5.3424   21.0949  -33.4769 H   0  0  0  0  0  0  0  0  0  0  0  0
   -1.8710   20.2080  -31.4970 C   0  0  0  0  0  0  0  0  0  0  0  0
   -1.3603   19.2364  -31.5686 H   0  0  0  0  0  0  0  0  0  0  0  0
   -1.7080   20.9990  -30.3560 C   0  0  0  0  0  0  0  0  0  0  0  0
   -1.0654   20.6490  -29.5346 H   0  0  0  0  0  0  0  0  0  0  0  0
   -0.6530   20.7720  -27.6340 C   0  0  0  0  0  0  0  0  0  0  0  0
   -1.8320   20.7830  -26.8730 C   0  0  0  0  0  0  0  0  0  0  0  0
   -2.3261   21.7378  -26.6403 H   0  0  0  0  0  0  0  0  0  0  0  0
   -2.3800   19.5830  -26.4100 C   0  0  0  0  0  0  0  0  0  0  0  0
   -3.2970   19.5962  -25.8026 H   0  0  0  0  0  0  0  0  0  0  0  0
   -1.7640   18.3660  -26.7180 C   0  0  0  0  0  0  0  0  0  0  0  0
   -2.1918   17.4234  -26.3457 H   0  0  0  0  0  0  0  0  0  0  0  0
   -0.6060   18.3470  -27.4980 C   0  0  0  0  0  0  0  0  0  0  0  0
   -0.1273   17.3884  -27.7469 H   0  0  0  0  0  0  0  0  0  0  0  0
   -0.0540   19.5440  -27.9630 C   0  0  0  0  0  0  0  0  0  0  0  0
    0.8512   19.5248  -28.5878 H   0  0  0  0  0  0  0  0  0  0  0  0
  1  2  1  0
  2  3  2  0
  3  4  1  0
  4  5  2  0
  4  6  1  0
  6  7  1  0
  7  8  2  0
  7  9  1  0
  9 10  1  1
  9 11  1  0
 11 12  2  0
 12 13  1  0
 12 14  1  0
 14 15  1  0
 14 16  2  0
 16 17  1  0
 17 18  1  0
 18 19  2  0
 19 20  1  0
 19 21  1  0
 21 22  1  0
 21 23  2  0
 23 24  1  0
 24 25  1  0
 24 26  2  0
 26 27  1  0
 26 28  1  0
 28 29  1  0
 28 30  2  0
 30 31  1  0
 30 32  1  0
 32 33  2  0
 33 34  1  0
 16 35  1  0
 35 36  1  0
 35 37  2  0
 37 38  1  0
  2 39  1  0
 39 40  2  0
 40 41  1  0
 40 42  1  0
 42 43  1  0
 42 44  2  0
 44 45  1  0
 44 46  1  0
 46 47  1  0
 46 48  2  0
 48 49  1  0
  9  3  1  0
 37 11  1  0
 48 39  1  0
 33 18  1  0
 32 23  1  0
M  END
>  <UniqueID>  (10) 
9

>  <SMILES>  (10) 
O=C1OC(=O)[C@@H](c2ccc(Sc3ccc4ccccc4c3)cc2)/C1=C\c1ccccc1

>  <Energy>  (10) 
74.87696752720848

>  <Genealogy>  (10) 
O=C1OC(=O)[C@@H](c2ccc(Sc3ccc4ccccc4c3)cc2)C1=Cc1ccccc1 (chirality)
O=C1OC(=O)[C@@H](c2ccc(Sc3ccc4ccccc4c3)cc2)/C1=C\c1ccccc1 (cis-trans isomerization)
O=C1OC(=O)[C@@H](c2ccc(Sc3ccc4ccccc4c3)cc2)/C1=C\c1ccccc1 (3D coordinates assigned)
O=C1OC(=O)[C@@H](c2ccc(Sc3ccc4ccccc4c3)cc2)/C1=C\c1ccccc1 (nonaromatic ring conformer: 74.87696752720848 kcal/mol)

>  <smiles>  (10) 
O=C1OC(=O)C(c2ccc(Sc3ccc4ccccc4c3)cc2)C1=Cc1ccccc1

>  <score_type>  (10) 
oracle

>  <origin>  (10) 
adg

>  <m_score__min__energy>  (10) 
-11.710000000000001

>  <m_primary>  (10) 
energy

$$$$
10:0
     RDKit          3D

 35 37  0  0  1  0  0  0  0  0999 V2000
   -5.8720   25.0180  -30.6020 C   0  0  0  0  0  0  0  0  0  0  0  0
   -5.1120   24.3140  -31.6060 N   0  0  0  0  0  0  0  0  0  0  0  0
   -4.9050   23.0490  -31.5930 C   0  0  0  0  0  0  0  0  0  0  0  0
   -5.5520   22.1440  -32.3510 N   0  0  0  0  0  0  0  0  0  0  0  0
   -5.0600   20.9290  -32.0560 C   0  0  0  0  0  0  0  0  0  0  0  0
   -5.4570   19.6470  -32.6290 C   0  0  0  0  0  0  0  0  0  0  0  0
   -4.8630   19.1550  -33.7440 C   0  0  0  0  0  0  0  0  0  0  0  0
   -5.2950   17.9210  -34.2370 C   0  0  0  0  0  0  0  0  0  0  0  0
   -6.3020   17.2050  -33.6150 C   0  0  0  0  0  0  0  0  0  0  0  0
   -6.8620   15.6580  -34.2090 Cl  0  0  0  0  0  0  0  0  0  0  0  0
   -6.9050   17.7090  -32.4770 C   0  0  0  0  0  0  0  0  0  0  0  0
   -6.4590   18.9230  -32.0180 C   0  0  0  0  0  0  0  0  0  0  0  0
   -4.1190   21.1390  -31.1170 N   0  0  0  0  0  0  0  0  0  0  0  0
   -4.0170   22.4310  -30.8280 N   0  0  0  0  0  0  0  0  0  0  0  0
   -3.0950   22.9430  -29.8620 C   0  0  0  0  0  0  0  0  0  0  0  0
   -2.5880   22.0820  -28.9310 N   0  0  0  0  0  0  0  0  0  0  0  0
   -1.7170   22.4560  -27.9820 C   0  0  0  0  0  0  0  0  0  0  0  0
   -1.2240   21.4510  -27.0200 C   0  0  0  0  0  0  0  0  0  0  0  0
   -1.3350   23.7830  -27.9710 C   0  0  0  0  0  0  0  0  0  0  0  0
   -1.8350   24.6960  -28.9090 C   0  0  0  0  0  0  0  0  0  0  0  0
   -1.4910   25.8980  -28.9030 O   0  0  0  0  0  0  0  0  0  0  0  0
   -2.7170   24.2400  -29.8440 N   0  0  0  0  0  0  0  0  0  0  0  0
   -5.5357   24.7064  -29.6021 H   0  0  0  0  0  0  0  0  0  0  0  0
   -5.7196   26.1011  -30.7192 H   0  0  0  0  0  0  0  0  0  0  0  0
   -6.9403   24.7833  -30.7192 H   0  0  0  0  0  0  0  0  0  0  0  0
   -6.3030   22.3630  -33.0440 H   0  0  0  0  0  0  0  0  0  0  0  0
   -4.0606   19.7136  -34.2482 H   0  0  0  0  0  0  0  0  0  0  0  0
   -4.8231   17.5091  -35.1412 H   0  0  0  0  0  0  0  0  0  0  0  0
   -7.7074   17.1605  -31.9620 H   0  0  0  0  0  0  0  0  0  0  0  0
   -6.9260   19.3410  -31.1140 H   0  0  0  0  0  0  0  0  0  0  0  0
   -1.3992   21.8082  -25.9945 H   0  0  0  0  0  0  0  0  0  0  0  0
   -1.7590   20.5024  -27.1743 H   0  0  0  0  0  0  0  0  0  0  0  0
   -0.1463   21.2935  -27.1743 H   0  0  0  0  0  0  0  0  0  0  0  0
   -0.6223   24.1311  -27.2089 H   0  0  0  0  0  0  0  0  0  0  0  0
   -3.1080   24.9160  -30.5660 H   0  0  0  0  0  0  0  0  0  0  0  0
  1  2  1  0
  2  3  2  0
  3  4  1  0
  4  5  1  0
  5  6  1  0
  6  7  2  0
  7  8  1  0
  8  9  2  0
  9 10  1  0
  9 11  1  0
 11 12  2  0
  5 13  2  0
 13 14  1  0
 14 15  1  0
 15 16  2  0
 16 17  1  0
 17 18  1  0
 17 19  2  0
 19 20  1  0
 20 21  2  0
 20 22  1  0
 14  3  1  0
 22 15  1  0
 12  6  1  0
  1 23  1  0
  1 24  1  0
  1 25  1  0
  4 26  1  0
  7 27  1  0
  8 28  1  0
 11 29  1  0
 12 30  1  0
 18 31  1  0
 18 32  1  0
 18 33  1  0
 19 34  1  0
 22 35  1  0
M  END
>  <smiles>  (11) 
CN=c1[nH]c(-c2ccc(Cl)cc2)nn1-c1nc(C)cc(=O)[nH]1

>  <score_type>  (11) 
oracle

>  <origin>  (11) 
adg

>  <m_score__min__energy>  (11) 
-7.8099999999999996

>  <m_primary>  (11) 
energy

$$$$
11:0
     RDKit          3D

 31 34  0  0  0  0  0  0  0  0999 V2000
   -9.0850   20.5920  -32.3590 C   0  0  0  0  0  0  0  0  0  0  0  0
   -9.2460   21.7080  -31.5350 C   0  0  0  0  0  0  0  0  0  0  0  0
   -8.1300   22.3140  -30.9490 C   0  0  0  0  0  0  0  0  0  0  0  0
   -6.8380   21.8070  -31.1840 C   0  0  0  0  0  0  0  0  0  0  0  0
   -5.6510   22.4500  -30.5630 C   0  0  0  0  0  0  0  0  0  0  0  0
   -5.7920   23.6080  -29.7790 C   0  0  0  0  0  0  0  0  0  0  0  0
   -4.6740   24.2110  -29.1950 C   0  0  0  0  0  0  0  0  0  0  0  0
   -3.3950   23.6630  -29.3750 C   0  0  0  0  0  0  0  0  0  0  0  0
   -2.2030   24.2940  -28.7720 C   0  0  0  0  0  0  0  0  0  0  0  0
   -0.9670   24.2960  -29.3420 N   0  0  0  0  0  0  0  0  0  0  0  0
   -0.1300   24.9240  -28.5150 N   0  0  0  0  0  0  0  0  0  0  0  0
   -0.8910   25.2850  -27.4700 C   0  0  0  0  0  0  0  0  0  0  0  0
   -0.5460   26.0050  -25.9980 S   0  0  0  0  0  0  0  0  0  0  0  0
   -2.1740   25.8070  -25.4890 C   0  0  0  0  0  0  0  0  0  0  0  0
   -2.9110   25.1680  -26.4980 C   0  0  0  0  0  0  0  0  0  0  0  0
   -2.1460   24.9160  -27.5830 N   0  0  0  0  0  0  0  0  0  0  0  0
   -3.2490   22.5190  -30.1740 C   0  0  0  0  0  0  0  0  0  0  0  0
   -4.3660   21.9140  -30.7570 C   0  0  0  0  0  0  0  0  0  0  0  0
   -6.6900   20.6820  -32.0170 C   0  0  0  0  0  0  0  0  0  0  0  0
   -7.8080   20.0790  -32.5990 C   0  0  0  0  0  0  0  0  0  0  0  0
   -9.9639   20.1168  -32.8191 H   0  0  0  0  0  0  0  0  0  0  0  0
  -10.2520   22.1110  -31.3466 H   0  0  0  0  0  0  0  0  0  0  0  0
   -8.2627   23.1924  -30.3003 H   0  0  0  0  0  0  0  0  0  0  0  0
   -6.7901   24.0434  -29.6236 H   0  0  0  0  0  0  0  0  0  0  0  0
   -4.7980   25.1214  -28.5902 H   0  0  0  0  0  0  0  0  0  0  0  0
   -2.5781   26.1319  -24.5189 H   0  0  0  0  0  0  0  0  0  0  0  0
   -3.9761   24.9056  -26.4160 H   0  0  0  0  0  0  0  0  0  0  0  0
   -2.2481   22.0951  -30.3429 H   0  0  0  0  0  0  0  0  0  0  0  0
   -4.2386   21.0113  -31.3725 H   0  0  0  0  0  0  0  0  0  0  0  0
   -5.6868   20.2746  -32.2112 H   0  0  0  0  0  0  0  0  0  0  0  0
   -7.6825   19.1991  -33.2471 H   0  0  0  0  0  0  0  0  0  0  0  0
  1  2  2  0
  2  3  1  0
  3  4  2  0
  4  5  1  0
  5  6  2  0
  6  7  1  0
  7  8  2  0
  8  9  1  0
  9 10  2  0
 10 11  1  0
 11 12  2  0
 12 13  1  0
 13 14  1  0
 14 15  2  0
 15 16  1  0
  8 17  1  0
 17 18  2  0
  4 19  1  0
 19 20  2  0
 20  1  1  0
 18  5  1  0
 16  9  1  0
 16 12  1  0
  1 21  1  0
  2 22  1  0
  3 23  1  0
  6 24  1  0
  7 25  1  0
 14 26  1  0
 15 27  1  0
 17 28  1  0
 18 29  1  0
 19 30  1  0
 20 31  1  0
M  END
>  <UniqueID>  (12) 
10

>  <SMILES>  (12) 
c1ccc(-c2ccc(-c3nnc4sccn34)cc2)cc1

>  <Energy>  (12) 
130.85057268263003

>  <Genealogy>  (12) 
c1ccc(-c2ccc(-c3nnc4sccn34)cc2)cc1 (3D coordinates assigned)
c1ccc(-c2ccc(-c3nnc4sccn34)cc2)cc1 (optimized conformer: 130.85057268263003 kcal/mol)

>  <smiles>  (12) 
c1ccc(-c2ccc(-c3nnc4sccn34)cc2)cc1

>  <score_type>  (12) 
oracle

>  <origin>  (12) 
adg

>  <m_score__min__energy>  (12) 
-7.6200000000000001

>  <m_primary>  (12) 
energy

$$$$
12:0
     RDKit          3D

 43 44  0  0  0  0  0  0  0  0999 V2000
   -3.0490   24.9130  -26.6860 C   0  0  0  0  0  0  0  0  0  0  0  0
   -1.8850   25.0440  -27.6630 C   0  0  0  0  0  0  0  0  0  0  0  0
   -2.3590   25.3530  -28.9740 O   0  0  0  0  0  0  0  0  0  0  0  0
   -3.1310   24.5050  -29.7860 C   0  0  0  0  0  0  0  0  0  0  0  0
   -4.4200   24.9220  -30.1360 C   0  0  0  0  0  0  0  0  0  0  0  0
   -5.2350   24.1210  -30.9390 C   0  0  0  0  0  0  0  0  0  0  0  0
   -4.7750   22.8770  -31.4020 C   0  0  0  0  0  0  0  0  0  0  0  0
   -5.6090   22.0550  -32.2430 N   0  0  0  0  0  0  0  0  0  0  0  0
   -7.0650   22.2210  -32.2610 C   0  0  0  0  0  0  0  0  0  0  0  0
   -7.7600   20.9010  -31.8950 C   0  0  0  0  0  0  0  0  0  0  0  0
   -7.0060   19.6170  -32.3750 C   0  0  0  0  0  0  0  0  0  0  0  0
   -7.9690   18.5280  -32.7320 N   0  0  0  0  0  0  0  0  0  0  0  0
   -8.9370   18.2980  -31.6380 C   0  0  0  0  0  0  0  0  0  0  0  0
   -7.2890   17.2480  -33.0280 C   0  0  0  0  0  0  0  0  0  0  0  0
   -6.0410   19.9760  -33.5410 C   0  0  0  0  0  0  0  0  0  0  0  0
   -5.0040   21.0190  -33.0900 C   0  0  0  0  0  0  0  0  0  0  0  0
   -3.4790   22.4590  -31.0560 C   0  0  0  0  0  0  0  0  0  0  0  0
   -2.6640   23.2610  -30.2530 C   0  0  0  0  0  0  0  0  0  0  0  0
   -2.6687   24.9558  -25.6547 H   0  0  0  0  0  0  0  0  0  0  0  0
   -3.7593   25.7369  -26.8494 H   0  0  0  0  0  0  0  0  0  0  0  0
   -3.5584   23.9519  -26.8494 H   0  0  0  0  0  0  0  0  0  0  0  0
   -1.2161   25.8479  -27.3220 H   0  0  0  0  0  0  0  0  0  0  0  0
   -1.3439   24.0869  -27.6989 H   0  0  0  0  0  0  0  0  0  0  0  0
   -4.7954   25.8909  -29.7749 H   0  0  0  0  0  0  0  0  0  0  0  0
   -6.2434   24.4664  -31.2106 H   0  0  0  0  0  0  0  0  0  0  0  0
   -7.3504   22.9947  -31.5330 H   0  0  0  0  0  0  0  0  0  0  0  0
   -7.3772   22.5196  -33.2726 H   0  0  0  0  0  0  0  0  0  0  0  0
   -7.8551   20.8547  -30.8001 H   0  0  0  0  0  0  0  0  0  0  0  0
   -8.7315   20.9050  -32.4109 H   0  0  0  0  0  0  0  0  0  0  0  0
   -6.3942   19.2244  -31.5495 H   0  0  0  0  0  0  0  0  0  0  0  0
   -8.5050   18.8090  -33.5880 H   0  0  0  0  0  0  0  0  0  0  0  0
   -8.4306   18.4183  -30.6690 H   0  0  0  0  0  0  0  0  0  0  0  0
   -9.7579   19.0261  -31.7156 H   0  0  0  0  0  0  0  0  0  0  0  0
   -9.3426   17.2785  -31.7156 H   0  0  0  0  0  0  0  0  0  0  0  0
   -7.0231   16.7475  -32.0852 H   0  0  0  0  0  0  0  0  0  0  0  0
   -7.9623   16.6010  -33.6094 H   0  0  0  0  0  0  0  0  0  0  0  0
   -6.3760   17.4437  -33.6094 H   0  0  0  0  0  0  0  0  0  0  0  0
   -5.5178   19.0658  -33.8694 H   0  0  0  0  0  0  0  0  0  0  0  0
   -6.6296   20.3988  -34.3685 H   0  0  0  0  0  0  0  0  0  0  0  0
   -4.2116   20.5109  -32.5208 H   0  0  0  0  0  0  0  0  0  0  0  0
   -4.5943   21.5057  -33.9874 H   0  0  0  0  0  0  0  0  0  0  0  0
   -3.1026   21.4918  -31.4205 H   0  0  0  0  0  0  0  0  0  0  0  0
   -1.6535   22.9194  -29.9844 H   0  0  0  0  0  0  0  0  0  0  0  0
  1  2  1  0
  2  3  1  0
  3  4  1  0
  4  5  2  0
  5  6  1  0
  6  7  2  0
  7  8  1  0
  8  9  1  0
  9 10  1  0
 10 11  1  0
 11 12  1  0
 12 13  1  0
 12 14  1  0
 11 15  1  0
 15 16  1  0
  7 17  1  0
 17 18  2  0
 18  4  1  0
 16  8  1  0
  1 19  1  0
  1 20  1  0
  1 21  1  0
  2 22  1  0
  2 23  1  0
  5 24  1  0
  6 25  1  0
  9 26  1  0
  9 27  1  0
 10 28  1  0
 10 29  1  0
 11 30  1  0
 12 31  1  0
 13 32  1  0
 13 33  1  0
 13 34  1  0
 14 35  1  0
 14 36  1  0
 14 37  1  0
 15 38  1  0
 15 39  1  0
 16 40  1  0
 16 41  1  0
 17 42  1  0
 18 43  1  0
M  CHG  1  12   1
M  END
>  <UniqueID>  (13) 
11

>  <SMILES>  (13) 
CCOc1ccc(N2CCC([NH+](C)C)CC2)cc1

>  <Energy>  (13) 
51.88930252370627

>  <Genealogy>  (13) 
CCOc1ccc(N2CCC([NH+](C)C)CC2)cc1 (protonated)
CCOc1ccc(N2CCC([NH+](C)C)CC2)cc1 (3D coordinates assigned)
CCOc1ccc(N2CCC([NH+](C)C)CC2)cc1 (nonaromatic ring conformer: 51.88930252370627 kcal/mol)

>  <smiles>  (13) 
CCOc1ccc(N2CCC(N(C)C)CC2)cc1

>  <score_type>  (13) 
oracle

>  <origin>  (13) 
adg

>  <m_score__min__energy>  (13) 
-6.4699999999999998

>  <m_primary>  (13) 
energy

$$$$
13:0
     RDKit          3D

 26 28  0  0  0  0  0  0  0  0999 V2000
    1.5650   26.5810  -26.8270 C   0  0  0  0  0  0  0  0  0  0  0  0
    0.2350   25.9130  -26.9710 C   0  0  0  0  0  0  0  0  0  0  0  0
   -0.3580   25.2590  -25.8580 C   0  0  0  0  0  0  0  0  0  0  0  0
   -1.6100   24.6320  -25.9980 C   0  0  0  0  0  0  0  0  0  0  0  0
   -2.2100   24.6880  -27.2500 C   0  0  0  0  0  0  0  0  0  0  0  0
   -3.3880   24.1760  -27.6420 N   0  0  0  0  0  0  0  0  0  0  0  0
   -3.4360   24.5470  -28.9530 C   0  0  0  0  0  0  0  0  0  0  0  0
   -4.5610   24.2160  -29.8520 C   0  0  0  0  0  0  0  0  0  0  0  0
   -5.7970   24.8730  -29.7080 C   0  0  0  0  0  0  0  0  0  0  0  0
   -6.8640   24.5630  -30.5560 C   0  0  0  0  0  0  0  0  0  0  0  0
   -6.7080   23.5970  -31.5540 C   0  0  0  0  0  0  0  0  0  0  0  0
   -7.7450   23.2980  -32.3750 F   0  0  0  0  0  0  0  0  0  0  0  0
   -5.4850   22.9400  -31.7050 C   0  0  0  0  0  0  0  0  0  0  0  0
   -4.4140   23.2460  -30.8580 C   0  0  0  0  0  0  0  0  0  0  0  0
   -2.3710   25.2350  -29.3440 O   0  0  0  0  0  0  0  0  0  0  0  0
   -1.6140   25.3220  -28.2870 C   0  0  0  0  0  0  0  0  0  0  0  0
   -0.4090   25.9340  -28.1800 N   0  0  0  0  0  0  0  0  0  0  0  0
    1.8019   26.7000  -25.7594 H   0  0  0  0  0  0  0  0  0  0  0  0
    2.3389   25.9646  -27.3078 H   0  0  0  0  0  0  0  0  0  0  0  0
    1.5327   27.5698  -27.3078 H   0  0  0  0  0  0  0  0  0  0  0  0
    0.1608   25.2427  -24.8881 H   0  0  0  0  0  0  0  0  0  0  0  0
   -2.0928   24.1197  -25.1528 H   0  0  0  0  0  0  0  0  0  0  0  0
   -5.9241   25.6343  -28.9242 H   0  0  0  0  0  0  0  0  0  0  0  0
   -7.8277   25.0800  -30.4378 H   0  0  0  0  0  0  0  0  0  0  0  0
   -5.3633   22.1805  -32.4913 H   0  0  0  0  0  0  0  0  0  0  0  0
   -3.4529   22.7250  -30.9802 H   0  0  0  0  0  0  0  0  0  0  0  0
  1  2  1  0
  2  3  2  0
  3  4  1  0
  4  5  2  0
  5  6  1  0
  6  7  2  0
  7  8  1  0
  8  9  2  0
  9 10  1  0
 10 11  2  0
 11 12  1  0
 11 13  1  0
 13 14  2  0
  7 15  1  0
 15 16  1  0
 16 17  2  0
 17  2  1  0
 16  5  1  0
 14  8  1  0
  1 18  1  0
  1 19  1  0
  1 20  1  0
  3 21  1  0
  4 22  1  0
  9 23  1  0
 10 24  1  0
 13 25  1  0
 14 26  1  0
M  END
>  <UniqueID>  (14) 
12

>  <SMILES>  (14) 
Cc1ccc2nc(-c3ccc(F)cc3)oc2n1

>  <Energy>  (14) 
67.55966354244973

>  <Genealogy>  (14) 
Cc1ccc2nc(-c3ccc(F)cc3)oc2n1 (3D coordinates assigned)
Cc1ccc2nc(-c3ccc(F)cc3)oc2n1 (optimized conformer: 67.55966354244973 kcal/mol)

>  <smiles>  (14) 
Cc1ccc2nc(-c3ccc(F)cc3)oc2n1

>  <score_type>  (14) 
oracle

>  <origin>  (14) 
adg

>  <m_score__min__energy>  (14) 
-6.1600000000000001

>  <m_primary>  (14) 
energy

$$$$
14:0
     RDKit          3D

 47 49  0  0  0  0  0  0  0  0999 V2000
   -6.0320   16.5520  -33.7250 C   0  0  0  0  0  0  0  0  0  0  0  0
   -6.0920   17.7140  -34.5000 C   0  0  0  0  0  0  0  0  0  0  0  0
   -4.9780   18.5560  -34.5880 C   0  0  0  0  0  0  0  0  0  0  0  0
   -3.7930   18.2340  -33.9060 C   0  0  0  0  0  0  0  0  0  0  0  0
   -2.6050   19.1590  -33.9680 C   0  0  0  0  0  0  0  0  0  0  0  0
   -3.0450   20.5640  -33.9210 N   0  0  0  0  0  0  0  0  0  0  0  0
   -2.9760   21.1280  -32.5610 C   0  0  0  0  0  0  0  0  0  0  0  0
   -4.1740   20.7010  -31.6870 C   0  0  0  0  0  0  0  0  0  0  0  0
   -5.4420   21.5330  -32.0010 C   0  0  0  0  0  0  0  0  0  0  0  0
   -6.7050   20.6900  -31.9630 C   0  0  0  0  0  0  0  0  0  0  0  0
   -7.9500   21.2750  -32.2630 C   0  0  0  0  0  0  0  0  0  0  0  0
   -9.1190   20.5120  -32.2280 C   0  0  0  0  0  0  0  0  0  0  0  0
   -9.0620   19.1560  -31.8930 C   0  0  0  0  0  0  0  0  0  0  0  0
   -7.8350   18.5640  -31.5900 C   0  0  0  0  0  0  0  0  0  0  0  0
   -6.6620   19.3230  -31.6230 C   0  0  0  0  0  0  0  0  0  0  0  0
   -5.5990   22.7510  -31.1040 C   0  0  0  0  0  0  0  0  0  0  0  0
   -6.3880   23.8600  -31.4750 C   0  0  0  0  0  0  0  0  0  0  0  0
   -6.4730   24.9790  -30.6420 C   0  0  0  0  0  0  0  0  0  0  0  0
   -5.7660   25.0130  -29.4370 C   0  0  0  0  0  0  0  0  0  0  0  0
   -4.9680   23.9300  -29.0660 C   0  0  0  0  0  0  0  0  0  0  0  0
   -4.8780   22.8080  -29.8960 C   0  0  0  0  0  0  0  0  0  0  0  0
   -3.7460   17.0740  -33.1160 C   0  0  0  0  0  0  0  0  0  0  0  0
   -4.8620   16.2330  -33.0310 C   0  0  0  0  0  0  0  0  0  0  0  0
   -6.9068   15.8882  -33.6615 H   0  0  0  0  0  0  0  0  0  0  0  0
   -7.0158   17.9666  -35.0411 H   0  0  0  0  0  0  0  0  0  0  0  0
   -5.0304   19.4731  -35.1932 H   0  0  0  0  0  0  0  0  0  0  0  0
   -1.9437   18.9575  -33.1124 H   0  0  0  0  0  0  0  0  0  0  0  0
   -2.0664   18.9852  -34.9112 H   0  0  0  0  0  0  0  0  0  0  0  0
   -2.4130   21.1310  -34.5350 H   0  0  0  0  0  0  0  0  0  0  0  0
   -4.0190   20.6450  -34.2950 H   0  0  0  0  0  0  0  0  0  0  0  0
   -2.0480   20.7828  -32.0818 H   0  0  0  0  0  0  0  0  0  0  0  0
   -2.9991   22.2241  -32.6503 H   0  0  0  0  0  0  0  0  0  0  0  0
   -4.3901   19.6387  -31.8739 H   0  0  0  0  0  0  0  0  0  0  0  0
   -3.9061   20.8712  -30.6338 H   0  0  0  0  0  0  0  0  0  0  0  0
   -5.2963   21.8989  -33.0281 H   0  0  0  0  0  0  0  0  0  0  0  0
   -8.0023   22.3416  -32.5271 H   0  0  0  0  0  0  0  0  0  0  0  0
  -10.0865   20.9788  -32.4645 H   0  0  0  0  0  0  0  0  0  0  0  0
   -9.9836   18.5560  -31.8682 H   0  0  0  0  0  0  0  0  0  0  0  0
   -7.7911   17.4974  -31.3246 H   0  0  0  0  0  0  0  0  0  0  0  0
   -5.6985   18.8502  -31.3819 H   0  0  0  0  0  0  0  0  0  0  0  0
   -6.9400   23.8439  -32.4263 H   0  0  0  0  0  0  0  0  0  0  0  0
   -7.0980   25.8352  -30.9356 H   0  0  0  0  0  0  0  0  0  0  0  0
   -5.8385   25.8932  -28.7812 H   0  0  0  0  0  0  0  0  0  0  0  0
   -4.4088   23.9589  -28.1192 H   0  0  0  0  0  0  0  0  0  0  0  0
   -4.2383   21.9626  -29.6025 H   0  0  0  0  0  0  0  0  0  0  0  0
   -2.8289   16.8252  -32.5619 H   0  0  0  0  0  0  0  0  0  0  0  0
   -4.8178   15.3209  -32.4177 H   0  0  0  0  0  0  0  0  0  0  0  0
  1  2  2  0
  2  3  1  0
  3  4  2  0
  4  5  1  0
  5  6  1  0
  6  7  1  0
  7  8  1  0
  8  9  1  0
  9 10  1  0
 10 11  2  0
 11 12  1  0
 12 13  2  0
 13 14  1  0
 14 15  2  0
  9 16  1  0
 16 17  2  0
 17 18  1  0
 18 19  2  0
 19 20  1  0
 20 21  2  0
  4 22  1  0
 22 23  2  0
 23  1  1  0
 15 10  1  0
 21 16  1  0
  1 24  1  0
  2 25  1  0
  3 26  1  0
  5 27  1  0
  5 28  1  0
  6 29  1  0
  6 30  1  0
  7 31  1  0
  7 32  1  0
  8 33  1  0
  8 34  1  0
  9 35  1  0
 11 36  1  0
 12 37  1  0
 13 38  1  0
 14 39  1  0
 15 40  1  0
 17 41  1  0
 18 42  1  0
 19 43  1  0
 20 44  1  0
 21 45  1  0
 22 46  1  0
 23 47  1  0
M  CHG  1   6   1
M  END
>  <UniqueID>  (15) 
13

>  <SMILES>  (15) 
c1ccc(C[NH2+]CCC(c2ccccc2)c2ccccc2)cc1

>  <Energy>  (15) 
48.92269757006092

>  <Genealogy>  (15) 
c1ccc(C[NH2+]CCC(c2ccccc2)c2ccccc2)cc1 (protonated)
c1ccc(C[NH2+]CCC(c2ccccc2)c2ccccc2)cc1 (3D coordinates assigned)
c1ccc(C[NH2+]CCC(c2ccccc2)c2ccccc2)cc1 (optimized conformer: 48.92269757006092 kcal/mol)

>  <smiles>  (15) 
c1ccc(CNCCC(c2ccccc2)c2ccccc2)cc1

>  <score_type>  (15) 
oracle

>  <origin>  (15) 
adg

>  <m_score__min__energy>  (15) 
-7.9800000000000004

>  <m_primary>  (15) 
energy

$$$$
15:0
     RDKit          3D

 27 28  0  0  0  0  0  0  0  0999 V2000
   -2.7200   24.4140  -29.3590 C   0  0  0  0  0  0  0  0  0  0  0  0
   -3.5330   24.7780  -30.4700 O   0  0  0  0  0  0  0  0  0  0  0  0
   -4.7470   24.1570  -30.8080 C   0  0  0  0  0  0  0  0  0  0  0  0
   -4.7870   22.9370  -31.5120 C   0  0  0  0  0  0  0  0  0  0  0  0
   -6.0150   22.3360  -31.8430 C   0  0  0  0  0  0  0  0  0  0  0  0
   -6.0500   21.0490  -32.5840 C   0  0  0  0  0  0  0  0  0  0  0  0
   -4.8800   20.4770  -33.1040 C   0  0  0  0  0  0  0  0  0  0  0  0
   -4.9360   19.2990  -33.7770 N   0  0  0  0  0  0  0  0  0  0  0  0
   -6.1160   18.6560  -33.9640 C   0  0  0  0  0  0  0  0  0  0  0  0
   -7.2670   19.1860  -33.4740 N   0  0  0  0  0  0  0  0  0  0  0  0
   -7.2570   20.3620  -32.7920 C   0  0  0  0  0  0  0  0  0  0  0  0
   -7.2080   22.9700  -31.4610 C   0  0  0  0  0  0  0  0  0  0  0  0
   -7.1760   24.1770  -30.7630 C   0  0  0  0  0  0  0  0  0  0  0  0
   -5.9530   24.7760  -30.4320 C   0  0  0  0  0  0  0  0  0  0  0  0
   -5.9470   26.0150  -29.7140 N   0  0  0  0  0  0  0  0  0  0  0  0
   -3.2492   24.6509  -28.4242 H   0  0  0  0  0  0  0  0  0  0  0  0
   -2.5084   23.3352  -29.3973 H   0  0  0  0  0  0  0  0  0  0  0  0
   -1.7744   24.9747  -29.3973 H   0  0  0  0  0  0  0  0  0  0  0  0
   -3.8464   22.4486  -31.8064 H   0  0  0  0  0  0  0  0  0  0  0  0
   -3.9137   20.9843  -32.9662 H   0  0  0  0  0  0  0  0  0  0  0  0
   -6.1408   17.7034  -34.5136 H   0  0  0  0  0  0  0  0  0  0  0  0
   -8.1700   18.6860  -33.6250 H   0  0  0  0  0  0  0  0  0  0  0  0
   -8.1979   20.7770  -32.4016 H   0  0  0  0  0  0  0  0  0  0  0  0
   -8.1752   22.5113  -31.7141 H   0  0  0  0  0  0  0  0  0  0  0  0
   -8.1184   24.6628  -30.4699 H   0  0  0  0  0  0  0  0  0  0  0  0
   -6.8300   26.5380  -29.5190 H   0  0  0  0  0  0  0  0  0  0  0  0
   -5.0510   26.4250  -29.3670 H   0  0  0  0  0  0  0  0  0  0  0  0
  1  2  1  0
  2  3  1  0
  3  4  2  0
  4  5  1  0
  5  6  1  0
  6  7  2  0
  7  8  1  0
  8  9  2  0
  9 10  1  0
 10 11  2  0
  5 12  2  0
 12 13  1  0
 13 14  2  0
 14 15  1  0
 14  3  1  0
 11  6  1  0
  1 16  1  0
  1 17  1  0
  1 18  1  0
  4 19  1  0
  7 20  1  0
  9 21  1  0
 10 22  1  0
 11 23  1  0
 12 24  1  0
 13 25  1  0
 15 26  1  0
 15 27  1  0
M  CHG  1  10   1
M  END
>  <UniqueID>  (16) 
14

>  <SMILES>  (16) 
COc1cc(-c2cnc[nH+]c2)ccc1N

>  <Energy>  (16) 
32.30201138198846

>  <Genealogy>  (16) 
COc1cc(-c2cnc[nH+]c2)ccc1N (protonated)
COc1cc(-c2cnc[nH+]c2)ccc1N (3D coordinates assigned)
COc1cc(-c2cnc[nH+]c2)ccc1N (optimized conformer: 32.30201138198846 kcal/mol)

>  <smiles>  (16) 
COc1cc(-c2cncnc2)ccc1N

>  <score_type>  (16) 
oracle

>  <origin>  (16) 
adg

>  <m_score__min__energy>  (16) 
-6.1299999999999999

>  <m_primary>  (16) 
energy

$$$$
16:0
     RDKit          3D

 35 37  0  0  0  0  0  0  0  0999 V2000
   -3.9130   16.9560  -35.3410 C   0  0  0  0  0  0  0  0  0  0  0  0
   -4.7910   17.9490  -34.6600 C   0  0  0  0  0  0  0  0  0  0  0  0
   -6.1320   17.8600  -34.6050 N   0  0  0  0  0  0  0  0  0  0  0  0
   -6.5430   18.9020  -33.9000 N   0  0  0  0  0  0  0  0  0  0  0  0
   -5.4340   19.5840  -33.5460 C   0  0  0  0  0  0  0  0  0  0  0  0
   -5.4350   20.8220  -32.7450 C   0  0  0  0  0  0  0  0  0  0  0  0
   -4.2210   21.4270  -32.3790 C   0  0  0  0  0  0  0  0  0  0  0  0
   -4.2170   22.5990  -31.6170 C   0  0  0  0  0  0  0  0  0  0  0  0
   -5.4230   23.1790  -31.2080 C   0  0  0  0  0  0  0  0  0  0  0  0
   -5.4060   24.6470  -30.2340 S   0  0  0  0  0  0  0  0  0  0  0  0
   -6.7810   25.2470  -30.1510 O   0  0  0  0  0  0  0  0  0  0  0  0
   -4.4760   25.6390  -30.8730 O   0  0  0  0  0  0  0  0  0  0  0  0
   -4.8460   24.2880  -28.6300 N   0  0  0  0  0  0  0  0  0  0  0  0
   -3.6510   23.5370  -28.3460 C   0  0  0  0  0  0  0  0  0  0  0  0
   -3.7020   22.2720  -27.7270 C   0  0  0  0  0  0  0  0  0  0  0  0
   -2.5270   21.5620  -27.4670 C   0  0  0  0  0  0  0  0  0  0  0  0
   -1.2880   22.1040  -27.8150 C   0  0  0  0  0  0  0  0  0  0  0  0
   -0.1490   21.4130  -27.5610 F   0  0  0  0  0  0  0  0  0  0  0  0
   -1.2230   23.3610  -28.4210 C   0  0  0  0  0  0  0  0  0  0  0  0
   -2.3950   24.0770  -28.6840 C   0  0  0  0  0  0  0  0  0  0  0  0
   -2.3050   25.2930  -29.2790 F   0  0  0  0  0  0  0  0  0  0  0  0
   -6.6370   22.5840  -31.5750 C   0  0  0  0  0  0  0  0  0  0  0  0
   -6.6440   21.4130  -32.3370 C   0  0  0  0  0  0  0  0  0  0  0  0
   -4.3540   19.0000  -34.0100 O   0  0  0  0  0  0  0  0  0  0  0  0
   -3.3830   16.3566  -34.5861 H   0  0  0  0  0  0  0  0  0  0  0  0
   -4.5268   16.2943  -35.9698 H   0  0  0  0  0  0  0  0  0  0  0  0
   -3.1811   17.4841  -35.9698 H   0  0  0  0  0  0  0  0  0  0  0  0
   -3.2684   20.9760  -32.6938 H   0  0  0  0  0  0  0  0  0  0  0  0
   -3.2617   23.0673  -31.3377 H   0  0  0  0  0  0  0  0  0  0  0  0
   -5.3800   24.7180  -27.8420 H   0  0  0  0  0  0  0  0  0  0  0  0
   -4.6741   21.8403  -27.4464 H   0  0  0  0  0  0  0  0  0  0  0  0
   -2.5781   20.5736  -26.9870 H   0  0  0  0  0  0  0  0  0  0  0  0
   -0.2466   23.7890  -28.6922 H   0  0  0  0  0  0  0  0  0  0  0  0
   -7.5878   23.0402  -31.2622 H   0  0  0  0  0  0  0  0  0  0  0  0
   -7.6012   20.9505  -32.6196 H   0  0  0  0  0  0  0  0  0  0  0  0
  1  2  1  0
  2  3  2  0
  3  4  1  0
  4  5  2  0
  5  6  1  0
  6  7  2  0
  7  8  1  0
  8  9  2  0
  9 10  1  0
 10 11  2  0
 10 12  2  0
 10 13  1  0
 13 14  1  0
 14 15  2  0
 15 16  1  0
 16 17  2  0
 17 18  1  0
 17 19  1  0
 19 20  2  0
 20 21  1  0
  9 22  1  0
 22 23  2  0
  5 24  1  0
 24  2  1  0
 23  6  1  0
 20 14  1  0
  1 25  1  0
  1 26  1  0
  1 27  1  0
  7 28  1  0
  8 29  1  0
 13 30  1  0
 15 31  1  0
 16 32  1  0
 19 33  1  0
 22 34  1  0
 23 35  1  0
M  END
>  <UniqueID>  (17) 
15

>  <SMILES>  (17) 
Cc1nnc(-c2ccc(S(=O)(=O)Nc3ccc(F)cc3F)cc2)o1

>  <Energy>  (17) 
73.86539003124489

>  <Genealogy>  (17) 
Cc1nnc(-c2ccc(S(=O)(=O)Nc3ccc(F)cc3F)cc2)o1 (3D coordinates assigned)
Cc1nnc(-c2ccc(S(=O)(=O)Nc3ccc(F)cc3F)cc2)o1 (optimized conformer: 73.86539003124489 kcal/mol)

>  <smiles>  (17) 
Cc1nnc(-c2ccc(S(=O)(=O)Nc3ccc(F)cc3F)cc2)o1

>  <score_type>  (17) 
oracle

>  <origin>  (17) 
adg

>  <m_score__min__energy>  (17) 
-8.8300000000000001

>  <m_primary>  (17) 
energy

$$$$
17:0
     RDKit          3D

 44 46  0  0  0  0  0  0  0  0999 V2000
   -1.9280   25.0010  -28.2280 C   0  0  0  0  0  0  0  0  0  0  0  0
   -2.7490   25.2920  -29.3540 O   0  0  0  0  0  0  0  0  0  0  0  0
   -3.7710   24.4530  -29.8260 C   0  0  0  0  0  0  0  0  0  0  0  0
   -5.0550   24.9320  -30.1440 C   0  0  0  0  0  0  0  0  0  0  0  0
   -6.0400   24.0580  -30.6110 C   0  0  0  0  0  0  0  0  0  0  0  0
   -5.7620   22.6880  -30.7690 C   0  0  0  0  0  0  0  0  0  0  0  0
   -6.7860   21.7410  -31.2680 C   0  0  0  0  0  0  0  0  0  0  0  0
   -6.5480   20.4650  -31.6390 N   0  0  0  0  0  0  0  0  0  0  0  0
   -7.7530   19.9840  -31.9960 C   0  0  0  0  0  0  0  0  0  0  0  0
   -8.0070   18.6140  -32.5740 C   0  0  0  0  0  0  0  0  0  0  0  0
   -6.8200   17.9800  -33.1910 N   0  0  0  0  0  0  0  0  0  0  0  0
   -6.9610   16.5510  -33.5070 C   0  0  0  0  0  0  0  0  0  0  0  0
   -6.1020   18.7770  -34.2090 C   0  0  0  0  0  0  0  0  0  0  0  0
   -4.6830   19.1350  -33.8290 C   0  0  0  0  0  0  0  0  0  0  0  0
   -4.3510   20.4640  -33.5150 C   0  0  0  0  0  0  0  0  0  0  0  0
   -3.0400   20.8000  -33.1580 C   0  0  0  0  0  0  0  0  0  0  0  0
   -2.0580   19.8100  -33.0900 C   0  0  0  0  0  0  0  0  0  0  0  0
   -2.3870   18.4800  -33.3640 C   0  0  0  0  0  0  0  0  0  0  0  0
   -3.6950   18.1410  -33.7200 C   0  0  0  0  0  0  0  0  0  0  0  0
   -8.6780   21.0000  -31.8750 C   0  0  0  0  0  0  0  0  0  0  0  0
   -8.0550   22.0580  -31.4120 O   0  0  0  0  0  0  0  0  0  0  0  0
   -4.4770   22.2160  -30.4540 C   0  0  0  0  0  0  0  0  0  0  0  0
   -3.4930   23.0920  -29.9860 C   0  0  0  0  0  0  0  0  0  0  0  0
   -2.4897   25.2001  -27.3034 H   0  0  0  0  0  0  0  0  0  0  0  0
   -1.6300   23.9425  -28.2553 H   0  0  0  0  0  0  0  0  0  0  0  0
   -1.0299   25.6356  -28.2553 H   0  0  0  0  0  0  0  0  0  0  0  0
   -5.2849   26.0010  -30.0243 H   0  0  0  0  0  0  0  0  0  0  0  0
   -7.0403   24.4440  -30.8569 H   0  0  0  0  0  0  0  0  0  0  0  0
   -5.6330   19.9670  -31.6940 H   0  0  0  0  0  0  0  0  0  0  0  0
   -8.3644   17.9602  -31.7648 H   0  0  0  0  0  0  0  0  0  0  0  0
   -8.7461   18.7450  -33.3781 H   0  0  0  0  0  0  0  0  0  0  0  0
   -7.0180   15.9728  -32.5729 H   0  0  0  0  0  0  0  0  0  0  0  0
   -7.8790   16.3937  -34.0922 H   0  0  0  0  0  0  0  0  0  0  0  0
   -6.0914   16.2173  -34.0922 H   0  0  0  0  0  0  0  0  0  0  0  0
   -6.0730   18.1973  -35.1434 H   0  0  0  0  0  0  0  0  0  0  0  0
   -6.6501   19.7251  -34.3122 H   0  0  0  0  0  0  0  0  0  0  0  0
   -5.1256   21.2443  -33.5500 H   0  0  0  0  0  0  0  0  0  0  0  0
   -2.7832   21.8452  -32.9308 H   0  0  0  0  0  0  0  0  0  0  0  0
   -1.0254   20.0770  -32.8208 H   0  0  0  0  0  0  0  0  0  0  0  0
   -1.6153   17.6988  -33.2994 H   0  0  0  0  0  0  0  0  0  0  0  0
   -3.9531   17.0899  -33.9162 H   0  0  0  0  0  0  0  0  0  0  0  0
   -9.7478   20.9349  -32.1226 H   0  0  0  0  0  0  0  0  0  0  0  0
   -4.2430   21.1482  -30.5766 H   0  0  0  0  0  0  0  0  0  0  0  0
   -2.4918   22.7074  -29.7416 H   0  0  0  0  0  0  0  0  0  0  0  0
  1  2  1  0
  2  3  1  0
  3  4  2  0
  4  5  1  0
  5  6  2  0
  6  7  1  0
  7  8  2  0
  8  9  1  0
  9 10  1  0
 10 11  1  0
 11 12  1  0
 11 13  1  0
 13 14  1  0
 14 15  2  0
 15 16  1  0
 16 17  2  0
 17 18  1  0
 18 19  2  0
  9 20  2  0
 20 21  1  0
  6 22  1  0
 22 23  2  0
 23  3  1  0
 21  7  1  0
 19 14  1  0
  1 24  1  0
  1 25  1  0
  1 26  1  0
  4 27  1  0
  5 28  1  0
  8 29  1  0
 10 30  1  0
 10 31  1  0
 12 32  1  0
 12 33  1  0
 12 34  1  0
 13 35  1  0
 13 36  1  0
 15 37  1  0
 16 38  1  0
 17 39  1  0
 18 40  1  0
 19 41  1  0
 20 42  1  0
 22 43  1  0
 23 44  1  0
M  CHG  1   8   1
M  END
>  <UniqueID>  (18) 
16

>  <SMILES>  (18) 
COc1ccc(-c2[nH+]c(CN(C)Cc3ccccc3)co2)cc1

>  <Energy>  (18) 
83.93369895154896

>  <Genealogy>  (18) 
COc1ccc(-c2[nH+]c(CN(C)Cc3ccccc3)co2)cc1 (protonated)
COc1ccc(-c2[nH+]c(CN(C)Cc3ccccc3)co2)cc1 (3D coordinates assigned)
COc1ccc(-c2[nH+]c(CN(C)Cc3ccccc3)co2)cc1 (optimized conformer: 83.93369895154896 kcal/mol)

>  <smiles>  (18) 
COc1ccc(-c2nc(CN(C)Cc3ccccc3)co2)cc1

>  <score_type>  (18) 
oracle

>  <origin>  (18) 
adg

>  <m_score__min__energy>  (18) 
-6.8700000000000001

>  <m_primary>  (18) 
energy

$$$$
18:0
     RDKit          3D

 45 47  0  0  0  0  0  0  0  0999 V2000
   -8.5270   22.3380  -31.4820 C   0  0  0  0  0  0  0  0  0  0  0  0
   -7.2190   23.0370  -31.2540 C   0  0  0  0  0  0  0  0  0  0  0  0
   -7.1870   24.2760  -30.6080 C   0  0  0  0  0  0  0  0  0  0  0  0
   -5.9690   24.9090  -30.3560 C   0  0  0  0  0  0  0  0  0  0  0  0
   -4.7570   24.3190  -30.7570 C   0  0  0  0  0  0  0  0  0  0  0  0
   -3.4970   24.9380  -30.4450 N   0  0  0  0  0  0  0  0  0  0  0  0
   -2.7320   24.7960  -29.2420 C   0  0  0  0  0  0  0  0  0  0  0  0
   -1.8080   25.6030  -28.9630 O   0  0  0  0  0  0  0  0  0  0  0  0
   -3.0160   23.6510  -28.3200 C   0  0  0  0  0  0  0  0  0  0  0  0
   -1.8120   22.9730  -27.9670 O   0  0  0  0  0  0  0  0  0  0  0  0
   -1.7020   21.5990  -27.7050 C   0  0  0  0  0  0  0  0  0  0  0  0
   -0.4390   21.0060  -27.8080 C   0  0  0  0  0  0  0  0  0  0  0  0
   -0.2770   19.6390  -27.5700 C   0  0  0  0  0  0  0  0  0  0  0  0
   -1.3770   18.8520  -27.2310 C   0  0  0  0  0  0  0  0  0  0  0  0
   -2.6410   19.4330  -27.1170 C   0  0  0  0  0  0  0  0  0  0  0  0
   -2.8050   20.8010  -27.3460 C   0  0  0  0  0  0  0  0  0  0  0  0
   -4.7800   23.0490  -31.3840 C   0  0  0  0  0  0  0  0  0  0  0  0
   -3.5310   22.3610  -31.8010 C   0  0  0  0  0  0  0  0  0  0  0  0
   -2.4970   22.4230  -31.0820 O   0  0  0  0  0  0  0  0  0  0  0  0
   -3.4950   21.6260  -33.0310 N   0  0  0  0  0  0  0  0  0  0  0  0
   -3.4360   20.1710  -33.0920 C   0  0  0  0  0  0  0  0  0  0  0  0
   -4.7960   19.5870  -32.8760 C   0  0  0  0  0  0  0  0  0  0  0  0
   -5.6970   19.2590  -33.8670 C   0  0  0  0  0  0  0  0  0  0  0  0
   -6.8080   18.7780  -33.2080 C   0  0  0  0  0  0  0  0  0  0  0  0
   -6.5160   18.8450  -31.8590 C   0  0  0  0  0  0  0  0  0  0  0  0
   -5.3080   19.3300  -31.6940 O   0  0  0  0  0  0  0  0  0  0  0  0
   -6.0160   22.4180  -31.6180 C   0  0  0  0  0  0  0  0  0  0  0  0
   -8.9856   22.0929  -30.5127 H   0  0  0  0  0  0  0  0  0  0  0  0
   -9.2005   22.9965  -32.0502 H   0  0  0  0  0  0  0  0  0  0  0  0
   -8.3538   21.4122  -32.0502 H   0  0  0  0  0  0  0  0  0  0  0  0
   -8.1270   24.7549  -30.2965 H   0  0  0  0  0  0  0  0  0  0  0  0
   -5.9568   25.8795  -29.8383 H   0  0  0  0  0  0  0  0  0  0  0  0
   -3.4951   24.0339  -27.4068 H   0  0  0  0  0  0  0  0  0  0  0  0
   -3.6817   22.9419  -28.8339 H   0  0  0  0  0  0  0  0  0  0  0  0
    0.4325   21.6204  -28.0783 H   0  0  0  0  0  0  0  0  0  0  0  0
    0.7206   19.1824  -27.6502 H   0  0  0  0  0  0  0  0  0  0  0  0
   -1.2487   17.7740  -27.0535 H   0  0  0  0  0  0  0  0  0  0  0  0
   -3.5085   18.8131  -26.8466 H   0  0  0  0  0  0  0  0  0  0  0  0
   -3.8009   21.2572  -27.2454 H   0  0  0  0  0  0  0  0  0  0  0  0
   -3.0620   19.8641  -34.0799 H   0  0  0  0  0  0  0  0  0  0  0  0
   -2.7608   19.8068  -32.3037 H   0  0  0  0  0  0  0  0  0  0  0  0
   -5.5584   19.3599  -34.9536 H   0  0  0  0  0  0  0  0  0  0  0  0
   -7.7402   18.4138  -33.6644 H   0  0  0  0  0  0  0  0  0  0  0  0
   -7.1927   18.5386  -31.0477 H   0  0  0  0  0  0  0  0  0  0  0  0
   -6.0378   21.4260  -32.0928 H   0  0  0  0  0  0  0  0  0  0  0  0
  1  2  1  0
  2  3  2  0
  3  4  1  0
  4  5  2  0
  5  6  1  0
  6  7  1  0
  7  8  2  0
  7  9  1  0
  9 10  1  0
 10 11  1  0
 11 12  2  0
 12 13  1  0
 13 14  2  0
 14 15  1  0
 15 16  2  0
  5 17  1  0
 17 18  1  0
 18 19  2  0
 18 20  1  0
 20 21  1  0
 21 22  1  0
 22 23  2  0
 23 24  1  0
 24 25  2  0
 25 26  1  0
 17 27  2  0
 27  2  1  0
 16 11  1  0
 26 22  1  0
  1 28  1  0
  1 29  1  0
  1 30  1  0
  3 31  1  0
  4 32  1  0
  9 33  1  0
  9 34  1  0
 12 35  1  0
 13 36  1  0
 14 37  1  0
 15 38  1  0
 16 39  1  0
 21 40  1  0
 21 41  1  0
 23 42  1  0
 24 43  1  0
 25 44  1  0
 27 45  1  0
M  CHG  2   6  -1  20  -1
M  END
>  <UniqueID>  (19) 
17

>  <SMILES>  (19) 
Cc1ccc([N-]C(=O)COc2ccccc2)c(C(=O)[N-]Cc2ccco2)c1

>  <Energy>  (19) 
75.06129380151974

>  <Genealogy>  (19) 
Cc1ccc([N-]C(=O)COc2ccccc2)c(C(=O)[N-]Cc2ccco2)c1 (protonated)
Cc1ccc([N-]C(=O)COc2ccccc2)c(C(=O)[N-]Cc2ccco2)c1 (3D coordinates assigned)
Cc1ccc([N-]C(=O)COc2ccccc2)c(C(=O)[N-]Cc2ccco2)c1 (optimized conformer: 75.06129380151974 kcal/mol)

>  <smiles>  (19) 
Cc1ccc(NC(=O)COc2ccccc2)c(C(=O)NCc2ccco2)c1

>  <score_type>  (19) 
oracle

>  <origin>  (19) 
adg

>  <m_score__min__energy>  (19) 
-10.98

>  <m_primary>  (19) 
energy

$$$$
19:0
     RDKit          3D

 53 57  0  0  1  0  0  0  0  0999 V2000
    0.6430   27.8750  -23.2750 C   0  0  0  0  0  0  0  0  0  0  0  0
   -0.4710   28.1320  -24.1030 O   0  0  0  0  0  0  0  0  0  0  0  0
   -0.8270   27.3350  -25.1740 C   0  0  0  0  0  0  0  0  0  0  0  0
   -0.4550   27.6000  -26.4810 C   0  0  0  0  0  0  0  0  0  0  0  0
   -0.8430   26.7640  -27.5070 C   0  0  0  0  0  0  0  0  0  0  0  0
   -1.6210   25.6250  -27.2810 C   0  0  0  0  0  0  0  0  0  0  0  0
   -2.0250   24.7730  -28.3950 C   0  0  0  0  0  0  0  0  0  0  0  0
   -3.3170   24.7840  -28.8360 N   0  0  0  0  0  0  0  0  0  0  0  0
   -3.3930   23.9370  -29.8390 N   0  0  0  0  0  0  0  0  0  0  0  0
   -4.6100   23.6800  -30.5640 C   0  0  0  0  0  0  0  0  0  0  0  0
   -5.7450   24.3860  -30.2430 C   0  0  0  0  0  0  0  0  0  0  0  0
   -6.9110   24.1480  -30.9290 C   0  0  0  0  0  0  0  0  0  0  0  0
   -6.9100   23.1940  -31.9340 C   0  0  0  0  0  0  0  0  0  0  0  0
   -5.7450   22.4890  -32.2430 C   0  0  0  0  0  0  0  0  0  0  0  0
   -4.5780   22.7260  -31.5580 C   0  0  0  0  0  0  0  0  0  0  0  0
   -2.1800   23.3760  -30.0590 C   0  0  0  0  0  0  0  0  0  0  0  0
   -1.2810   23.8900  -29.1510 C   0  0  0  0  0  0  0  0  0  0  0  0
    0.1240   23.6470  -28.9480 C   0  0  0  0  0  0  0  0  0  0  0  0
    0.9060   24.1530  -28.0980 N   0  0  0  0  0  0  0  0  0  0  0  0
    0.8510   23.9090  -26.7570 N   0  0  0  0  0  0  0  0  0  0  0  0
    0.2060   22.8580  -26.1680 C   0  0  0  0  0  0  0  0  0  0  0  0
   -0.5270   21.7840  -26.8360 C   0  0  0  0  0  0  0  0  0  0  0  0
   -1.9040   21.6940  -26.8260 C   0  0  0  0  0  0  0  0  0  0  0  0
   -2.5050   20.6400  -27.4880 C   0  0  0  0  0  0  0  0  0  0  0  0
   -1.7470   19.6770  -28.1580 C   0  0  0  0  0  0  0  0  0  0  0  0
   -0.3660   19.7820  -28.1600 C   0  0  0  0  0  0  0  0  0  0  0  0
    0.2530   20.8340  -27.5010 C   0  0  0  0  0  0  0  0  0  0  0  0
    0.4030   23.0470  -24.8400 N   0  0  0  0  0  0  0  0  0  0  0  0
    1.1190   24.1350  -24.6150 N   0  0  0  0  0  0  0  0  0  0  0  0
    1.4090   24.6860  -25.8040 C   0  0  0  0  0  0  0  0  0  0  0  0
    2.2830   26.0590  -26.0370 S   0  0  0  0  0  0  0  0  0  0  0  0
   -1.9740   25.3910  -25.9730 C   0  0  0  0  0  0  0  0  0  0  0  0
   -1.5930   26.2200  -24.9250 C   0  0  0  0  0  0  0  0  0  0  0  0
    0.3396   27.9450  -22.2200 H   0  0  0  0  0  0  0  0  0  0  0  0
    1.0268   26.8647  -23.4799 H   0  0  0  0  0  0  0  0  0  0  0  0
    1.4306   28.6150  -23.4799 H   0  0  0  0  0  0  0  0  0  0  0  0
    0.1566   28.4868  -26.7035 H   0  0  0  0  0  0  0  0  0  0  0  0
   -0.5306   27.0009  -28.5348 H   0  0  0  0  0  0  0  0  0  0  0  0
   -5.7196   25.1380  -29.4406 H   0  0  0  0  0  0  0  0  0  0  0  0
   -7.8282   24.7042  -30.6852 H   0  0  0  0  0  0  0  0  0  0  0  0
   -7.8351   22.9903  -32.4933 H   0  0  0  0  0  0  0  0  0  0  0  0
   -5.7619   21.7353  -33.0440 H   0  0  0  0  0  0  0  0  0  0  0  0
   -3.6548   22.1762  -31.7935 H   0  0  0  0  0  0  0  0  0  0  0  0
   -1.9505   22.6317  -30.8357 H   0  0  0  0  0  0  0  0  0  0  0  0
    0.5798   22.9159  -29.6318 H   0  0  0  0  0  0  0  0  0  0  0  0
   -2.5114   22.4463  -26.3015 H   0  0  0  0  0  0  0  0  0  0  0  0
   -3.6019   20.5580  -27.4872 H   0  0  0  0  0  0  0  0  0  0  0  0
   -2.2417   18.8438  -28.6787 H   0  0  0  0  0  0  0  0  0  0  0  0
    0.2410   19.0298  -28.6851 H   0  0  0  0  0  0  0  0  0  0  0  0
    1.3496   20.9199  -27.5018 H   0  0  0  0  0  0  0  0  0  0  0  0
    1.4160   24.5110  -23.6850 H   0  0  0  0  0  0  0  0  0  0  0  0
   -2.5867   24.5062  -25.7455 H   0  0  0  0  0  0  0  0  0  0  0  0
   -1.9039   25.9846  -23.8964 H   0  0  0  0  0  0  0  0  0  0  0  0
  1  2  1  0
  2  3  1  0
  3  4  2  0
  4  5  1  0
  5  6  2  0
  6  7  1  0
  7  8  2  0
  8  9  1  0
  9 10  1  0
 10 11  2  0
 11 12  1  0
 12 13  2  0
 13 14  1  0
 14 15  2  0
  9 16  1  0
 16 17  2  0
 17 18  1  0
 18 19  2  0
 19 20  1  0
 20 21  1  0
 21 22  1  0
 22 23  2  0
 23 24  1  0
 24 25  2  0
 25 26  1  0
 26 27  2  0
 21 28  2  0
 28 29  1  0
 29 30  1  0
 30 31  2  0
  6 32  1  0
 32 33  2  0
 33  3  1  0
 17  7  1  0
 30 20  1  0
 15 10  1  0
 27 22  1  0
  1 34  1  0
  1 35  1  0
  1 36  1  0
  4 37  1  0
  5 38  1  0
 11 39  1  0
 12 40  1  0
 13 41  1  0
 14 42  1  0
 15 43  1  0
 16 44  1  0
 18 45  1  0
 23 46  1  0
 24 47  1  0
 25 48  1  0
 26 49  1  0
 27 50  1  0
 29 51  1  0
 32 52  1  0
 33 53  1  0
M  END
>  <smiles>  (20) 
COc1ccc(-c2nn(-c3ccccc3)cc2C=Nn2c(-c3ccccc3)n[nH]c2=S)cc1

>  <score_type>  (20) 
oracle

>  <origin>  (20) 
adg

>  <m_score__min__energy>  (20) 
-9.6699999999999999

>  <m_primary>  (20) 
energy

$$$$
20:0
     RDKit          3D

 40 42  0  0  0  0  0  0  0  0999 V2000
   -5.7140   18.8600  -34.0950 C   0  0  0  0  0  0  0  0  0  0  0  0
   -6.8520   18.0120  -33.7200 N   0  0  0  0  0  0  0  0  0  0  0  0
   -6.4350   16.6070  -33.6480 C   0  0  0  0  0  0  0  0  0  0  0  0
   -7.4860   18.5210  -32.1740 S   0  0  0  0  0  0  0  0  0  0  0  0
   -8.8070   17.8460  -31.9290 O   0  0  0  0  0  0  0  0  0  0  0  0
   -6.5410   18.0990  -31.0830 O   0  0  0  0  0  0  0  0  0  0  0  0
   -7.7070   20.2710  -32.1060 C   0  0  0  0  0  0  0  0  0  0  0  0
   -8.9960   20.8180  -32.0540 C   0  0  0  0  0  0  0  0  0  0  0  0
   -9.1690   22.2010  -31.9810 C   0  0  0  0  0  0  0  0  0  0  0  0
   -8.0570   23.0480  -31.9680 C   0  0  0  0  0  0  0  0  0  0  0  0
   -6.7600   22.5120  -32.0450 C   0  0  0  0  0  0  0  0  0  0  0  0
   -5.5950   23.3490  -32.0120 N   0  0  0  0  0  0  0  0  0  0  0  0
   -5.1850   24.1880  -30.9240 C   0  0  0  0  0  0  0  0  0  0  0  0
   -6.0490   24.9110  -30.3590 O   0  0  0  0  0  0  0  0  0  0  0  0
   -3.8140   24.1180  -30.3730 C   0  0  0  0  0  0  0  0  0  0  0  0
   -3.3360   25.2150  -29.7270 N   0  0  0  0  0  0  0  0  0  0  0  0
   -2.1030   25.2660  -29.2280 N   0  0  0  0  0  0  0  0  0  0  0  0
   -1.2450   24.2230  -29.3350 C   0  0  0  0  0  0  0  0  0  0  0  0
   -0.0860   24.3250  -28.8520 O   0  0  0  0  0  0  0  0  0  0  0  0
   -1.6640   23.0460  -29.9770 C   0  0  0  0  0  0  0  0  0  0  0  0
   -0.8090   21.9330  -30.0930 C   0  0  0  0  0  0  0  0  0  0  0  0
   -1.2580   20.7600  -30.7030 C   0  0  0  0  0  0  0  0  0  0  0  0
   -2.5610   20.6810  -31.1920 C   0  0  0  0  0  0  0  0  0  0  0  0
   -3.4210   21.7760  -31.0880 C   0  0  0  0  0  0  0  0  0  0  0  0
   -2.9800   22.9800  -30.5000 C   0  0  0  0  0  0  0  0  0  0  0  0
   -6.5930   21.1230  -32.0920 C   0  0  0  0  0  0  0  0  0  0  0  0
   -5.2173   19.2301  -33.1860 H   0  0  0  0  0  0  0  0  0  0  0  0
   -4.9993   18.2725  -34.6900 H   0  0  0  0  0  0  0  0  0  0  0  0
   -6.0726   19.7129  -34.6900 H   0  0  0  0  0  0  0  0  0  0  0  0
   -6.3453   16.3047  -32.5942 H   0  0  0  0  0  0  0  0  0  0  0  0
   -7.1846   15.9760  -34.1479 H   0  0  0  0  0  0  0  0  0  0  0  0
   -5.4625   16.4871  -34.1479 H   0  0  0  0  0  0  0  0  0  0  0  0
   -9.8740   20.1556  -32.0708 H   0  0  0  0  0  0  0  0  0  0  0  0
  -10.1827   22.6255  -31.9336 H   0  0  0  0  0  0  0  0  0  0  0  0
   -8.1974   24.1367  -31.8973 H   0  0  0  0  0  0  0  0  0  0  0  0
    0.2174   21.9880  -29.7012 H   0  0  0  0  0  0  0  0  0  0  0  0
   -0.5825   19.8970  -30.7978 H   0  0  0  0  0  0  0  0  0  0  0  0
   -2.9135   19.7512  -31.6622 H   0  0  0  0  0  0  0  0  0  0  0  0
   -4.4506   21.6992  -31.4676 H   0  0  0  0  0  0  0  0  0  0  0  0
   -5.5795   20.6961  -32.1182 H   0  0  0  0  0  0  0  0  0  0  0  0
  1  2  1  0
  2  3  1  0
  2  4  1  0
  4  5  2  0
  4  6  2  0
  4  7  1  0
  7  8  2  0
  8  9  1  0
  9 10  2  0
 10 11  1  0
 11 12  1  0
 12 13  1  0
 13 14  2  0
 13 15  1  0
 15 16  2  0
 16 17  1  0
 17 18  1  0
 18 19  2  0
 18 20  1  0
 20 21  2  0
 21 22  1  0
 22 23  2  0
 23 24  1  0
 24 25  2  0
 11 26  2  0
 26  7  1  0
 25 15  1  0
 25 20  1  0
  1 27  1  0
  1 28  1  0
  1 29  1  0
  3 30  1  0
  3 31  1  0
  3 32  1  0
  8 33  1  0
  9 34  1  0
 10 35  1  0
 21 36  1  0
 22 37  1  0
 23 38  1  0
 24 39  1  0
 26 40  1  0
M  CHG  2  12  -1  17  -1
M  END
>  <UniqueID>  (21) 
18

>  <SMILES>  (21) 
CN(C)S(=O)(=O)c1cccc([N-]C(=O)c2n[n-]c(=O)c3ccccc23)c1

>  <Energy>  (21) 
55.93695107053669

>  <Genealogy>  (21) 
CN(C)S(=O)(=O)c1cccc([N-]C(=O)c2n[n-]c(=O)c3ccccc23)c1 (protonated)
CN(C)S(=O)(=O)c1cccc([N-]C(=O)c2n[n-]c(=O)c3ccccc23)c1 (3D coordinates assigned)
CN(C)S(=O)(=O)c1cccc([N-]C(=O)c2n[n-]c(=O)c3ccccc23)c1 (optimized conformer: 55.93695107053669 kcal/mol)

>  <smiles>  (21) 
CN(C)S(=O)(=O)c1cccc(NC(=O)c2n[nH]c(=O)c3ccccc23)c1

>  <score_type>  (21) 
oracle

>  <origin>  (21) 
adg

>  <m_score__min__energy>  (21) 
-11.4

>  <m_primary>  (21) 
energy

$$$$
21:0
     RDKit          3D

 33 35  0  0  0  0  0  0  0  0999 V2000
   -6.2720   16.8490  -34.2090 C   0  0  0  0  0  0  0  0  0  0  0  0
   -7.2300   17.2510  -33.0940 C   0  0  0  0  0  0  0  0  0  0  0  0
   -7.0590   18.6960  -32.7480 C   0  0  0  0  0  0  0  0  0  0  0  0
   -8.0740   19.5000  -32.3440 N   0  0  0  0  0  0  0  0  0  0  0  0
   -7.6870   20.7610  -32.1510 N   0  0  0  0  0  0  0  0  0  0  0  0
   -8.4900   21.7770  -31.7280 C   0  0  0  0  0  0  0  0  0  0  0  0
   -9.7120   21.5780  -31.4880 O   0  0  0  0  0  0  0  0  0  0  0  0
   -7.9330   23.0510  -31.5590 C   0  0  0  0  0  0  0  0  0  0  0  0
   -6.5650   23.2380  -31.8370 C   0  0  0  0  0  0  0  0  0  0  0  0
   -5.9130   24.5680  -31.6000 C   0  0  0  0  0  0  0  0  0  0  0  0
   -6.0780   25.0760  -29.8520 S   0  0  0  0  0  0  0  0  0  0  0  0
   -4.5390   24.3220  -29.3300 C   0  0  0  0  0  0  0  0  0  0  0  0
   -3.3310   24.9030  -29.4980 N   0  0  0  0  0  0  0  0  0  0  0  0
   -2.3330   24.1430  -28.9740 C   0  0  0  0  0  0  0  0  0  0  0  0
   -0.9130   24.6070  -28.9740 C   0  0  0  0  0  0  0  0  0  0  0  0
   -2.7450   22.9560  -28.3710 C   0  0  0  0  0  0  0  0  0  0  0  0
   -4.4180   22.8560  -28.5200 S   0  0  0  0  0  0  0  0  0  0  0  0
   -5.8070   22.1860  -32.2590 N   0  0  0  0  0  0  0  0  0  0  0  0
   -6.3790   20.9690  -32.4090 C   0  0  0  0  0  0  0  0  0  0  0  0
   -5.6060   19.5610  -32.9040 S   0  0  0  0  0  0  0  0  0  0  0  0
   -5.3419   16.4587  -33.7703 H   0  0  0  0  0  0  0  0  0  0  0  0
   -6.7389   16.0709  -34.8308 H   0  0  0  0  0  0  0  0  0  0  0  0
   -6.0438   17.7273  -34.8308 H   0  0  0  0  0  0  0  0  0  0  0  0
   -8.2643   17.0789  -33.4266 H   0  0  0  0  0  0  0  0  0  0  0  0
   -7.0109   16.6448  -32.2027 H   0  0  0  0  0  0  0  0  0  0  0  0
   -9.0550   19.1680  -32.2030 H   0  0  0  0  0  0  0  0  0  0  0  0
   -8.5536   23.8915  -31.2149 H   0  0  0  0  0  0  0  0  0  0  0  0
   -4.8453   24.4956  -31.8543 H   0  0  0  0  0  0  0  0  0  0  0  0
   -6.4095   25.3193  -32.2317 H   0  0  0  0  0  0  0  0  0  0  0  0
   -0.5645   24.7209  -27.9369 H   0  0  0  0  0  0  0  0  0  0  0  0
   -0.2855   23.8672  -29.4925 H   0  0  0  0  0  0  0  0  0  0  0  0
   -0.8434   25.5746  -29.4925 H   0  0  0  0  0  0  0  0  0  0  0  0
   -2.0925   22.2161  -27.8843 H   0  0  0  0  0  0  0  0  0  0  0  0
  1  2  1  0
  2  3  1  0
  3  4  2  0
  4  5  1  0
  5  6  1  0
  6  7  2  0
  6  8  1  0
  8  9  2  0
  9 10  1  0
 10 11  1  0
 11 12  1  0
 12 13  2  0
 13 14  1  0
 14 15  1  0
 14 16  2  0
 16 17  1  0
  9 18  1  0
 18 19  2  0
 19 20  1  0
 20  3  1  0
 19  5  1  0
 17 12  1  0
  1 21  1  0
  1 22  1  0
  1 23  1  0
  2 24  1  0
  2 25  1  0
  4 26  1  0
  8 27  1  0
 10 28  1  0
 10 29  1  0
 15 30  1  0
 15 31  1  0
 15 32  1  0
 16 33  1  0
M  CHG  1   4   1
M  END
>  <UniqueID>  (22) 
19

>  <SMILES>  (22) 
CCc1[nH+]n2c(=O)cc(CSc3nc(C)cs3)nc2s1

>  <Energy>  (22) 
91.40238185998501

>  <Genealogy>  (22) 
CCc1[nH+]n2c(=O)cc(CSc3nc(C)cs3)nc2s1 (protonated)
CCc1[nH+]n2c(=O)cc(CSc3nc(C)cs3)nc2s1 (3D coordinates assigned)
CCc1[nH+]n2c(=O)cc(CSc3nc(C)cs3)nc2s1 (optimized conformer: 91.40238185998501 kcal/mol)

>  <smiles>  (22) 
CCc1nn2c(=O)cc(CSc3nc(C)cs3)nc2s1

>  <score_type>  (22) 
oracle

>  <origin>  (22) 
adg

>  <m_score__min__energy>  (22) 
-7.8600000000000003

>  <m_primary>  (22) 
energy

$$$$
22:0
     RDKit          3D

 43 46  0  0  1  0  0  0  0  0999 V2000
   -5.7780   17.6170  -34.5490 C   0  0  0  0  0  0  0  0  0  0  0  0
   -6.2420   16.9740  -33.4190 C   0  0  0  0  0  0  0  0  0  0  0  0
   -6.8510   17.6650  -32.3720 C   0  0  0  0  0  0  0  0  0  0  0  0
   -7.0050   19.0430  -32.4470 C   0  0  0  0  0  0  0  0  0  0  0  0
   -7.6470   19.8140  -31.3550 C   0  0  0  0  0  0  0  0  0  0  0  0
   -7.3360   21.2120  -31.3560 N   0  0  0  0  0  0  0  0  0  0  0  0
   -8.0720   21.9960  -32.2800 C   0  0  0  0  0  0  0  0  0  0  0  0
   -8.2280   23.3940  -31.7170 C   0  0  0  0  0  0  0  0  0  0  0  0
   -7.0240   23.8080  -30.9470 C   0  0  0  0  0  0  0  0  0  0  0  0
   -7.0130   25.0690  -30.4760 N   0  0  0  0  0  0  0  0  0  0  0  0
   -5.9310   25.4960  -29.7620 C   0  0  0  0  0  0  0  0  0  0  0  0
   -4.8920   24.6720  -29.5330 N   0  0  0  0  0  0  0  0  0  0  0  0
   -4.8660   23.4100  -29.9850 C   0  0  0  0  0  0  0  0  0  0  0  0
   -3.8460   22.6980  -29.7240 N   0  0  0  0  0  0  0  0  0  0  0  0
   -2.5000   22.9550  -30.1210 C   0  0  0  0  0  0  0  0  0  0  0  0
   -1.8010   23.9750  -29.2790 C   0  0  0  0  0  0  0  0  0  0  0  0
   -0.8250   23.7430  -28.3300 C   0  0  0  0  0  0  0  0  0  0  0  0
   -0.4340   24.9590  -27.7690 C   0  0  0  0  0  0  0  0  0  0  0  0
   -1.2260   25.8960  -28.4350 C   0  0  0  0  0  0  0  0  0  0  0  0
   -1.9850   25.2900  -29.2810 O   0  0  0  0  0  0  0  0  0  0  0  0
   -5.9560   22.9670  -30.7080 C   0  0  0  0  0  0  0  0  0  0  0  0
   -5.9540   21.5530  -31.2290 C   0  0  0  0  0  0  0  0  0  0  0  0
   -6.5400   19.6640  -33.5700 N   0  0  0  0  0  0  0  0  0  0  0  0
   -5.9530   19.0030  -34.5830 C   0  0  0  0  0  0  0  0  0  0  0  0
   -5.2986   17.0703  -35.3744 H   0  0  0  0  0  0  0  0  0  0  0  0
   -6.1278   15.8827  -33.3421 H   0  0  0  0  0  0  0  0  0  0  0  0
   -7.2093   17.1187  -31.4870 H   0  0  0  0  0  0  0  0  0  0  0  0
   -8.7373   19.7040  -31.4511 H   0  0  0  0  0  0  0  0  0  0  0  0
   -7.2565   19.4061  -30.4110 H   0  0  0  0  0  0  0  0  0  0  0  0
   -7.5336   22.0410  -33.2382 H   0  0  0  0  0  0  0  0  0  0  0  0
   -9.0623   21.5469  -32.4464 H   0  0  0  0  0  0  0  0  0  0  0  0
   -8.3813   24.0989  -32.5474 H   0  0  0  0  0  0  0  0  0  0  0  0
   -9.0920   23.3980  -31.0361 H   0  0  0  0  0  0  0  0  0  0  0  0
   -5.9080   26.5235  -29.3700 H   0  0  0  0  0  0  0  0  0  0  0  0
   -4.0980   25.0340  -28.9910 H   0  0  0  0  0  0  0  0  0  0  0  0
   -1.9360   22.0124  -30.0618 H   0  0  0  0  0  0  0  0  0  0  0  0
   -2.5417   23.3605  -31.1427 H   0  0  0  0  0  0  0  0  0  0  0  0
   -0.4203   22.7566  -28.0595 H   0  0  0  0  0  0  0  0  0  0  0  0
    0.3194   25.1371  -26.9875 H   0  0  0  0  0  0  0  0  0  0  0  0
   -1.2051   26.9824  -28.2640 H   0  0  0  0  0  0  0  0  0  0  0  0
   -5.4499   21.4999  -32.2053 H   0  0  0  0  0  0  0  0  0  0  0  0
   -5.4146   20.8642  -30.5622 H   0  0  0  0  0  0  0  0  0  0  0  0
   -5.6020   19.5669  -35.4598 H   0  0  0  0  0  0  0  0  0  0  0  0
  1  2  2  0
  2  3  1  0
  3  4  2  0
  4  5  1  0
  5  6  1  0
  6  7  1  0
  7  8  1  0
  8  9  1  0
  9 10  1  0
 10 11  2  0
 11 12  1  0
 12 13  1  0
 13 14  2  0
 14 15  1  0
 15 16  1  0
 16 17  2  0
 17 18  1  0
 18 19  2  0
 19 20  1  0
 13 21  1  0
 21 22  1  0
  4 23  1  0
 23 24  2  0
 24  1  1  0
 22  6  1  0
 21  9  2  0
 20 16  1  0
  1 25  1  0
  2 26  1  0
  3 27  1  0
  5 28  1  0
  5 29  1  0
  7 30  1  0
  7 31  1  0
  8 32  1  0
  8 33  1  0
 11 34  1  0
 12 35  1  0
 15 36  1  0
 15 37  1  0
 17 38  1  0
 18 39  1  0
 19 40  1  0
 22 41  1  0
 22 42  1  0
 24 43  1  0
M  END
>  <smiles>  (23) 
c1ccc(CN2CCc3nc[nH]c(=NCc4ccco4)c3C2)nc1

>  <score_type>  (23) 
oracle

>  <origin>  (23) 
adg

>  <m_score__min__energy>  (23) 
-8.8900000000000006

>  <m_primary>  (23) 
energy

$$$$
23:0
     RDKit          3D

 38 41  0  0  0  0  0  0  0  0999 V2000
   -6.4920   18.7680  -33.7790 C   0  0  0  0  0  0  0  0  0  0  0  0
   -7.0860   19.8670  -33.0210 N   0  0  0  0  0  0  0  0  0  0  0  0
   -8.3530   19.9740  -32.5510 C   0  0  0  0  0  0  0  0  0  0  0  0
   -9.2540   19.1230  -32.7710 O   0  0  0  0  0  0  0  0  0  0  0  0
   -8.5460   21.0640  -31.8290 O   0  0  0  0  0  0  0  0  0  0  0  0
   -7.3880   21.6820  -31.8080 C   0  0  0  0  0  0  0  0  0  0  0  0
   -7.0500   22.8720  -31.1700 C   0  0  0  0  0  0  0  0  0  0  0  0
   -5.7170   23.3220  -31.2870 C   0  0  0  0  0  0  0  0  0  0  0  0
   -5.2040   24.8040  -30.4830 S   0  0  0  0  0  0  0  0  0  0  0  0
   -5.7790   25.9810  -31.2180 O   0  0  0  0  0  0  0  0  0  0  0  0
   -5.7090   24.8310  -29.0670 O   0  0  0  0  0  0  0  0  0  0  0  0
   -3.4700   24.9150  -30.4910 N   0  0  0  0  0  0  0  0  0  0  0  0
   -2.9100   23.9760  -29.5250 C   0  0  0  0  0  0  0  0  0  0  0  0
   -2.4640   24.7300  -28.3080 C   0  0  0  0  0  0  0  0  0  0  0  0
   -3.1800   24.6010  -27.0900 C   0  0  0  0  0  0  0  0  0  0  0  0
   -2.7480   25.2790  -25.9330 C   0  0  0  0  0  0  0  0  0  0  0  0
   -1.6000   26.0590  -26.0280 C   0  0  0  0  0  0  0  0  0  0  0  0
   -0.9040   26.1750  -27.1860 C   0  0  0  0  0  0  0  0  0  0  0  0
   -1.2960   25.5240  -28.3520 C   0  0  0  0  0  0  0  0  0  0  0  0
    0.1860   27.0020  -26.9870 O   0  0  0  0  0  0  0  0  0  0  0  0
    0.1710   27.4320  -25.6190 C   0  0  0  0  0  0  0  0  0  0  0  0
   -0.9850   26.8060  -25.0430 O   0  0  0  0  0  0  0  0  0  0  0  0
   -4.7720   22.5640  -32.0230 C   0  0  0  0  0  0  0  0  0  0  0  0
   -5.1500   21.3650  -32.6550 C   0  0  0  0  0  0  0  0  0  0  0  0
   -6.4770   20.9590  -32.5270 C   0  0  0  0  0  0  0  0  0  0  0  0
   -6.0871   18.0190  -33.0826 H   0  0  0  0  0  0  0  0  0  0  0  0
   -7.2610   18.3018  -34.4125 H   0  0  0  0  0  0  0  0  0  0  0  0
   -5.6807   19.1559  -34.4125 H   0  0  0  0  0  0  0  0  0  0  0  0
   -7.7950   23.4416  -30.5951 H   0  0  0  0  0  0  0  0  0  0  0  0
   -3.6758   23.2391  -29.2414 H   0  0  0  0  0  0  0  0  0  0  0  0
   -2.0515   23.4533  -29.9718 H   0  0  0  0  0  0  0  0  0  0  0  0
   -4.0783   23.9675  -27.0487 H   0  0  0  0  0  0  0  0  0  0  0  0
   -3.3004   25.1944  -24.9855 H   0  0  0  0  0  0  0  0  0  0  0  0
   -0.7140   25.6246  -29.2800 H   0  0  0  0  0  0  0  0  0  0  0  0
    1.0851   27.1055  -25.1015 H   0  0  0  0  0  0  0  0  0  0  0  0
    0.1327   28.5279  -25.5318 H   0  0  0  0  0  0  0  0  0  0  0  0
   -3.7329   22.9166  -32.1008 H   0  0  0  0  0  0  0  0  0  0  0  0
   -4.4246   20.7699  -33.2291 H   0  0  0  0  0  0  0  0  0  0  0  0
  1  2  1  0
  2  3  1  0
  3  4  2  0
  3  5  1  0
  5  6  1  0
  6  7  2  0
  7  8  1  0
  8  9  1  0
  9 10  2  0
  9 11  2  0
  9 12  1  0
 12 13  1  0
 13 14  1  0
 14 15  2  0
 15 16  1  0
 16 17  2  0
 17 18  1  0
 18 19  2  0
 18 20  1  0
 20 21  1  0
 21 22  1  0
  8 23  2  0
 23 24  1  0
 24 25  2  0
 25  2  1  0
 25  6  1  0
 19 14  1  0
 22 17  1  0
  1 26  1  0
  1 27  1  0
  1 28  1  0
  7 29  1  0
 13 30  1  0
 13 31  1  0
 15 32  1  0
 16 33  1  0
 19 34  1  0
 21 35  1  0
 21 36  1  0
 23 37  1  0
 24 38  1  0
M  CHG  1  12  -1
M  END
>  <UniqueID>  (24) 
20

>  <SMILES>  (24) 
Cn1c(=O)oc2cc(S(=O)(=O)[N-]Cc3ccc4c(c3)OCO4)ccc21

>  <Energy>  (24) 
108.2946042902102

>  <Genealogy>  (24) 
Cn1c(=O)oc2cc(S(=O)(=O)[N-]Cc3ccc4c(c3)OCO4)ccc21 (protonated)
Cn1c(=O)oc2cc(S(=O)(=O)[N-]Cc3ccc4c(c3)OCO4)ccc21 (3D coordinates assigned)
Cn1c(=O)oc2cc(S(=O)(=O)[N-]Cc3ccc4c(c3)OCO4)ccc21 (nonaromatic ring conformer: 108.2946042902102 kcal/mol)

>  <smiles>  (24) 
Cn1c(=O)oc2cc(S(=O)(=O)NCc3ccc4c(c3)OCO4)ccc21

>  <score_type>  (24) 
oracle

>  <origin>  (24) 
adg

>  <m_score__min__energy>  (24) 
-9.4600000000000009

>  <m_primary>  (24) 
energy

$$$$
24:0
     RDKit          3D

 27 29  0  0  0  0  0  0  0  0999 V2000
   -3.8870   24.1510  -28.2350 C   0  0  0  0  0  0  0  0  0  0  0  0
   -3.1290   24.1780  -29.5560 C   0  0  0  0  0  0  0  0  0  0  0  0
   -3.7410   25.0850  -30.4700 O   0  0  0  0  0  0  0  0  0  0  0  0
   -5.1260   25.2310  -30.5990 C   0  0  0  0  0  0  0  0  0  0  0  0
   -5.6710   26.3600  -30.4630 O   0  0  0  0  0  0  0  0  0  0  0  0
   -5.9480   24.0540  -30.9050 C   0  0  0  0  0  0  0  0  0  0  0  0
   -5.4740   22.8440  -31.4170 C   0  0  0  0  0  0  0  0  0  0  0  0
   -6.5530   22.0670  -31.5400 N   0  0  0  0  0  0  0  0  0  0  0  0
   -7.5930   22.7700  -31.1290 C   0  0  0  0  0  0  0  0  0  0  0  0
   -7.2990   24.0160  -30.7180 N   0  0  0  0  0  0  0  0  0  0  0  0
   -9.0520   21.9250  -31.2210 S   0  0  0  0  0  0  0  0  0  0  0  0
   -8.2290   20.5560  -31.8420 C   0  0  0  0  0  0  0  0  0  0  0  0
   -8.7590   19.3230  -32.2130 C   0  0  0  0  0  0  0  0  0  0  0  0
   -7.8790   18.3430  -32.7020 C   0  0  0  0  0  0  0  0  0  0  0  0
   -6.4970   18.6070  -32.8110 C   0  0  0  0  0  0  0  0  0  0  0  0
   -5.9760   19.8570  -32.4320 C   0  0  0  0  0  0  0  0  0  0  0  0
   -6.8620   20.8200  -31.9490 C   0  0  0  0  0  0  0  0  0  0  0  0
   -3.1706   24.1765  -27.4006 H   0  0  0  0  0  0  0  0  0  0  0  0
   -4.5508   25.0261  -28.1752 H   0  0  0  0  0  0  0  0  0  0  0  0
   -4.4869   23.2309  -28.1752 H   0  0  0  0  0  0  0  0  0  0  0  0
   -2.0924   24.4963  -29.3710 H   0  0  0  0  0  0  0  0  0  0  0  0
   -3.1462   23.1692  -29.9941 H   0  0  0  0  0  0  0  0  0  0  0  0
   -4.4340   22.5862  -31.6658 H   0  0  0  0  0  0  0  0  0  0  0  0
   -9.8369   19.1218  -32.1256 H   0  0  0  0  0  0  0  0  0  0  0  0
   -8.2711   17.3603  -33.0028 H   0  0  0  0  0  0  0  0  0  0  0  0
   -5.8217   17.8285  -33.1956 H   0  0  0  0  0  0  0  0  0  0  0  0
   -4.8998   20.0694  -32.5141 H   0  0  0  0  0  0  0  0  0  0  0  0
  1  2  1  0
  2  3  1  0
  3  4  1  0
  4  5  2  0
  4  6  1  0
  6  7  2  0
  7  8  1  0
  8  9  1  0
  9 10  2  0
  9 11  1  0
 11 12  1  0
 12 13  2  0
 13 14  1  0
 14 15  2  0
 15 16  1  0
 16 17  2  0
 10  6  1  0
 17 12  1  0
 17  8  1  0
  1 18  1  0
  1 19  1  0
  1 20  1  0
  2 21  1  0
  2 22  1  0
  7 23  1  0
 13 24  1  0
 14 25  1  0
 15 26  1  0
 16 27  1  0
M  END
>  <UniqueID>  (25) 
21

>  <SMILES>  (25) 
CCOC(=O)c1cn2c(n1)sc1ccccc12

>  <Energy>  (25) 
107.74244346883754

>  <Genealogy>  (25) 
CCOC(=O)c1cn2c(n1)sc1ccccc12 (3D coordinates assigned)
CCOC(=O)c1cn2c(n1)sc1ccccc12 (optimized conformer: 107.74244346883754 kcal/mol)

>  <smiles>  (25) 
CCOC(=O)c1cn2c(n1)sc1ccccc12

>  <score_type>  (25) 
oracle

>  <origin>  (25) 
adg

>  <m_score__min__energy>  (25) 
-7.5599999999999996

>  <m_primary>  (25) 
energy

$$$$
25:0
     RDKit          3D

 42 44  0  0  0  0  0  0  0  0999 V2000
   -6.5570   25.6850  -29.3810 C   0  0  0  0  0  0  0  0  0  0  0  0
   -6.2000   25.3780  -30.7250 O   0  0  0  0  0  0  0  0  0  0  0  0
   -5.9810   24.0800  -31.2130 C   0  0  0  0  0  0  0  0  0  0  0  0
   -7.0300   23.2760  -31.7020 C   0  0  0  0  0  0  0  0  0  0  0  0
   -6.7720   21.9840  -32.1660 C   0  0  0  0  0  0  0  0  0  0  0  0
   -5.4720   21.4770  -32.1380 C   0  0  0  0  0  0  0  0  0  0  0  0
   -4.4250   22.2640  -31.6550 C   0  0  0  0  0  0  0  0  0  0  0  0
   -4.6680   23.5780  -31.2180 C   0  0  0  0  0  0  0  0  0  0  0  0
   -3.6070   24.3770  -30.6680 N   0  0  0  0  0  0  0  0  0  0  0  0
   -3.3250   24.5640  -29.4100 C   0  0  0  0  0  0  0  0  0  0  0  0
   -4.0930   24.0200  -28.3670 C   0  0  0  0  0  0  0  0  0  0  0  0
   -3.7100   24.2510  -27.0500 C   0  0  0  0  0  0  0  0  0  0  0  0
   -2.5700   25.0090  -26.7890 C   0  0  0  0  0  0  0  0  0  0  0  0
   -2.2200   25.2110  -25.5950 O   0  0  0  0  0  0  0  0  0  0  0  0
   -1.8420   25.5170  -27.8310 N   0  0  0  0  0  0  0  0  0  0  0  0
   -0.6150   26.2900  -27.6030 C   0  0  0  0  0  0  0  0  0  0  0  0
    0.5810   25.3810  -27.4710 C   0  0  0  0  0  0  0  0  0  0  0  0
    1.3770   25.5410  -26.5080 O   0  0  0  0  0  0  0  0  0  0  0  0
    0.7410   24.2280  -28.3080 N   0  0  0  0  0  0  0  0  0  0  0  0
   -0.0600   23.0410  -28.2750 C   0  0  0  0  0  0  0  0  0  0  0  0
   -0.3730   22.4050  -27.0610 C   0  0  0  0  0  0  0  0  0  0  0  0
   -1.1920   21.2700  -27.0520 C   0  0  0  0  0  0  0  0  0  0  0  0
   -1.7180   20.7770  -28.2500 C   0  0  0  0  0  0  0  0  0  0  0  0
   -1.4360   21.4260  -29.4560 C   0  0  0  0  0  0  0  0  0  0  0  0
   -0.6180   22.5610  -29.4660 C   0  0  0  0  0  0  0  0  0  0  0  0
   -2.2150   25.2830  -29.0940 N   0  0  0  0  0  0  0  0  0  0  0  0
   -5.9068   25.1259  -28.6921 H   0  0  0  0  0  0  0  0  0  0  0  0
   -6.4344   26.7641  -29.2064 H   0  0  0  0  0  0  0  0  0  0  0  0
   -7.6056   25.4021  -29.2064 H   0  0  0  0  0  0  0  0  0  0  0  0
   -8.0576   23.6680  -31.7184 H   0  0  0  0  0  0  0  0  0  0  0  0
   -7.5946   21.3653  -32.5540 H   0  0  0  0  0  0  0  0  0  0  0  0
   -5.2722   20.4565  -32.4968 H   0  0  0  0  0  0  0  0  0  0  0  0
   -3.4050   21.8541  -31.6161 H   0  0  0  0  0  0  0  0  0  0  0  0
   -4.9867   23.4184  -28.5893 H   0  0  0  0  0  0  0  0  0  0  0  0
   -4.3027   23.8383  -26.2203 H   0  0  0  0  0  0  0  0  0  0  0  0
   -0.4566   26.9716  -28.4517 H   0  0  0  0  0  0  0  0  0  0  0  0
   -0.7279   26.8579  -26.6677 H   0  0  0  0  0  0  0  0  0  0  0  0
    0.0268   22.8004  -26.1156 H   0  0  0  0  0  0  0  0  0  0  0  0
   -1.4220   20.7656  -26.1019 H   0  0  0  0  0  0  0  0  0  0  0  0
   -2.3533   19.8791  -28.2438 H   0  0  0  0  0  0  0  0  0  0  0  0
   -1.8575   21.0440  -30.3975 H   0  0  0  0  0  0  0  0  0  0  0  0
   -0.4122   23.0789  -30.4144 H   0  0  0  0  0  0  0  0  0  0  0  0
  1  2  1  0
  2  3  1  0
  3  4  2  0
  4  5  1  0
  5  6  2  0
  6  7  1  0
  7  8  2  0
  8  9  1  0
  9 10  2  3
 10 11  1  0
 11 12  2  0
 12 13  1  0
 13 14  2  0
 13 15  1  0
 15 16  1  0
 16 17  1  0
 17 18  2  0
 17 19  1  0
 19 20  1  0
 20 21  2  0
 21 22  1  0
 22 23  2  0
 23 24  1  0
 24 25  2  0
 15 26  1  0
  8  3  1  0
 26 10  1  0
 25 20  1  0
  1 27  1  0
  1 28  1  0
  1 29  1  0
  4 30  1  0
  5 31  1  0
  6 32  1  0
  7 33  1  0
 11 34  1  0
 12 35  1  0
 16 36  1  0
 16 37  1  0
 21 38  1  0
 22 39  1  0
 23 40  1  0
 24 41  1  0
 25 42  1  0
M  CHG  2  19  -1  26  -1
M  END
>  <UniqueID>  (26) 
22

>  <SMILES>  (26) 
COc1ccccc1N=c1ccc(=O)n(CC(=O)[N-]c2ccccc2)[n-]1

>  <Energy>  (26) 
60.99688157829571

>  <Genealogy>  (26) 
COc1ccccc1N=c1ccc(=O)n(CC(=O)[N-]c2ccccc2)[n-]1 (protonated)
COc1ccccc1N=c1ccc(=O)n(CC(=O)[N-]c2ccccc2)[n-]1 (3D coordinates assigned)
COc1ccccc1N=c1ccc(=O)n(CC(=O)[N-]c2ccccc2)[n-]1 (optimized conformer: 60.99688157829571 kcal/mol)

>  <smiles>  (26) 
COc1ccccc1N=c1ccc(=O)n(CC(=O)Nc2ccccc2)[nH]1

>  <score_type>  (26) 
oracle

>  <origin>  (26) 
adg

>  <m_score__min__energy>  (26) 
-10.06

>  <m_primary>  (26) 
energy

$$$$
26:0
     RDKit          3D

 30 32  0  0  0  0  0  0  0  0999 V2000
   -1.5880   25.6820  -28.9930 N   0  0  0  0  0  0  0  0  0  0  0  0
   -2.5810   24.8950  -29.2510 C   0  0  0  0  0  0  0  0  0  0  0  0
   -2.7140   23.7220  -28.5530 N   0  0  0  0  0  0  0  0  0  0  0  0
   -3.7490   22.8650  -28.7980 C   0  0  0  0  0  0  0  0  0  0  0  0
   -3.8610   21.7900  -28.1510 O   0  0  0  0  0  0  0  0  0  0  0  0
   -4.6650   23.2200  -29.7780 C   0  0  0  0  0  0  0  0  0  0  0  0
   -5.7530   22.5640  -30.2040 N   0  0  0  0  0  0  0  0  0  0  0  0
   -6.2310   23.4060  -31.1610 C   0  0  0  0  0  0  0  0  0  0  0  0
   -7.7040   23.0410  -32.1130 S   0  0  0  0  0  0  0  0  0  0  0  0
   -8.3040   21.7250  -30.9930 C   0  0  0  0  0  0  0  0  0  0  0  0
   -9.2210   20.7770  -31.7130 C   0  0  0  0  0  0  0  0  0  0  0  0
  -10.3610   21.1780  -32.0650 O   0  0  0  0  0  0  0  0  0  0  0  0
   -8.8850   19.3980  -31.9210 N   0  0  0  0  0  0  0  0  0  0  0  0
   -7.7900   18.8850  -32.6910 C   0  0  0  0  0  0  0  0  0  0  0  0
   -7.4630   17.5180  -32.6840 C   0  0  0  0  0  0  0  0  0  0  0  0
   -6.3680   17.0520  -33.4200 C   0  0  0  0  0  0  0  0  0  0  0  0
   -5.5840   17.9490  -34.1520 C   0  0  0  0  0  0  0  0  0  0  0  0
   -4.5220   17.4980  -34.8620 F   0  0  0  0  0  0  0  0  0  0  0  0
   -5.8860   19.3140  -34.1360 C   0  0  0  0  0  0  0  0  0  0  0  0
   -6.9790   19.7810  -33.4000 C   0  0  0  0  0  0  0  0  0  0  0  0
   -5.4980   24.5360  -31.3530 N   0  0  0  0  0  0  0  0  0  0  0  0
   -4.5170   24.3780  -30.4540 C   0  0  0  0  0  0  0  0  0  0  0  0
   -3.4930   25.2310  -30.2170 N   0  0  0  0  0  0  0  0  0  0  0  0
   -1.1640   26.2860  -29.7330 H   0  0  0  0  0  0  0  0  0  0  0  0
   -7.4416   21.1641  -30.6035 H   0  0  0  0  0  0  0  0  0  0  0  0
   -8.8636   22.1949  -30.1707 H   0  0  0  0  0  0  0  0  0  0  0  0
   -8.0699   16.8122  -32.0980 H   0  0  0  0  0  0  0  0  0  0  0  0
   -6.1238   15.9794  -33.4227 H   0  0  0  0  0  0  0  0  0  0  0  0
   -5.2630   20.0212  -34.7031 H   0  0  0  0  0  0  0  0  0  0  0  0
   -7.2035   20.8576  -33.3774 H   0  0  0  0  0  0  0  0  0  0  0  0
  1  2  2  3
  2  3  1  0
  3  4  1  0
  4  5  2  0
  4  6  1  0
  6  7  1  0
  7  8  1  0
  8  9  1  0
  9 10  1  0
 10 11  1  0
 11 12  2  0
 11 13  1  0
 13 14  1  0
 14 15  2  0
 15 16  1  0
 16 17  2  0
 17 18  1  0
 17 19  1  0
 19 20  2  0
  8 21  2  0
 21 22  1  0
 22 23  1  0
 23  2  1  0
 22  6  2  0
 20 14  1  0
  1 24  1  0
 10 25  1  0
 10 26  1  0
 15 27  1  0
 16 28  1  0
 19 29  1  0
 20 30  1  0
M  CHG  4   3  -1   7  -1  13  -1  23  -1
M  END
>  <UniqueID>  (27) 
23

>  <SMILES>  (27) 
N=c1[n-]c(=O)c2[n-]c(SCC(=O)[N-]c3ccc(F)cc3)nc2[n-]1

>  <Energy>  (27) 
72.51124218902788

>  <Genealogy>  (27) 
N=c1[n-]c(=O)c2[n-]c(SCC(=O)[N-]c3ccc(F)cc3)nc2[n-]1 (protonated)
N=c1[n-]c(=O)c2[n-]c(SCC(=O)[N-]c3ccc(F)cc3)nc2[n-]1 (3D coordinates assigned)
N=c1[n-]c(=O)c2[n-]c(SCC(=O)[N-]c3ccc(F)cc3)nc2[n-]1 (optimized conformer: 72.51124218902788 kcal/mol)

>  <smiles>  (27) 
N=c1[nH]c(=O)c2[nH]c(SCC(=O)Nc3ccc(F)cc3)nc2[nH]1

>  <score_type>  (27) 
oracle

>  <origin>  (27) 
adg

>  <m_score__min__energy>  (27) 
-11.56

>  <m_primary>  (27) 
energy

$$$$
27:0
     RDKit          3D

 40 41  0  0  0  0  0  0  0  0999 V2000
   -2.0050   25.6770  -25.7970 C   0  0  0  0  0  0  0  0  0  0  0  0
   -1.7040   24.5950  -26.8290 C   0  0  0  0  0  0  0  0  0  0  0  0
   -2.3890   24.8990  -28.1260 C   0  0  0  0  0  0  0  0  0  0  0  0
   -1.8300   25.6650  -28.9590 O   0  0  0  0  0  0  0  0  0  0  0  0
   -3.6490   24.2860  -28.4350 N   0  0  0  0  0  0  0  0  0  0  0  0
   -4.3600   24.5510  -29.6910 C   0  0  0  0  0  0  0  0  0  0  0  0
   -5.7310   25.1990  -29.3890 C   0  0  0  0  0  0  0  0  0  0  0  0
   -6.7730   24.8110  -30.4420 C   0  0  0  0  0  0  0  0  0  0  0  0
   -7.0150   23.3510  -30.4460 N   0  0  0  0  0  0  0  0  0  0  0  0
   -7.8300   22.8750  -31.9180 S   0  0  0  0  0  0  0  0  0  0  0  0
   -9.2690   23.3040  -31.8500 O   0  0  0  0  0  0  0  0  0  0  0  0
   -7.1930   23.5680  -33.0920 O   0  0  0  0  0  0  0  0  0  0  0  0
   -7.7560   21.1280  -32.1640 C   0  0  0  0  0  0  0  0  0  0  0  0
   -8.7460   20.2940  -31.6200 C   0  0  0  0  0  0  0  0  0  0  0  0
   -8.6960   18.9130  -31.8300 C   0  0  0  0  0  0  0  0  0  0  0  0
   -7.6560   18.3560  -32.5790 C   0  0  0  0  0  0  0  0  0  0  0  0
   -6.6630   19.1800  -33.1170 C   0  0  0  0  0  0  0  0  0  0  0  0
   -6.7110   20.5620  -32.9090 C   0  0  0  0  0  0  0  0  0  0  0  0
   -5.8100   22.5220  -30.1950 C   0  0  0  0  0  0  0  0  0  0  0  0
   -4.5020   23.2560  -30.5250 C   0  0  0  0  0  0  0  0  0  0  0  0
   -1.8893   25.2611  -24.7853 H   0  0  0  0  0  0  0  0  0  0  0  0
   -1.3061   26.5158  -25.9307 H   0  0  0  0  0  0  0  0  0  0  0  0
   -3.0367   26.0344  -25.9307 H   0  0  0  0  0  0  0  0  0  0  0  0
   -0.6179   24.5470  -26.9963 H   0  0  0  0  0  0  0  0  0  0  0  0
   -2.0734   23.6306  -26.4501 H   0  0  0  0  0  0  0  0  0  0  0  0
   -4.0600   23.6240  -27.7380 H   0  0  0  0  0  0  0  0  0  0  0  0
   -3.7757   25.2592  -30.2968 H   0  0  0  0  0  0  0  0  0  0  0  0
   -6.0771   24.8616  -28.4009 H   0  0  0  0  0  0  0  0  0  0  0  0
   -5.6100   26.2922  -29.4061 H   0  0  0  0  0  0  0  0  0  0  0  0
   -7.7171   25.3302  -30.2203 H   0  0  0  0  0  0  0  0  0  0  0  0
   -6.3919   25.1026  -31.4318 H   0  0  0  0  0  0  0  0  0  0  0  0
   -9.5637   20.7289  -31.0265 H   0  0  0  0  0  0  0  0  0  0  0  0
   -9.4760   18.2640  -31.4053 H   0  0  0  0  0  0  0  0  0  0  0  0
   -7.6187   17.2693  -32.7453 H   0  0  0  0  0  0  0  0  0  0  0  0
   -5.8432   18.7409  -33.7044 H   0  0  0  0  0  0  0  0  0  0  0  0
   -5.9266   21.2074  -33.3311 H   0  0  0  0  0  0  0  0  0  0  0  0
   -5.7946   22.2373  -29.1326 H   0  0  0  0  0  0  0  0  0  0  0  0
   -5.8707   21.6425  -30.8529 H   0  0  0  0  0  0  0  0  0  0  0  0
   -3.6529   22.5924  -30.3042 H   0  0  0  0  0  0  0  0  0  0  0  0
   -4.5154   23.5284  -31.5907 H   0  0  0  0  0  0  0  0  0  0  0  0
  1  2  1  0
  2  3  1  0
  3  4  2  0
  3  5  1  0
  5  6  1  0
  6  7  1  0
  7  8  1  0
  8  9  1  0
  9 10  1  0
 10 11  2  0
 10 12  2  0
 10 13  1  0
 13 14  2  0
 14 15  1  0
 15 16  2  0
 16 17  1  0
 17 18  2  0
  9 19  1  0
 19 20  1  0
 20  6  1  0
 18 13  1  0
  1 21  1  0
  1 22  1  0
  1 23  1  0
  2 24  1  0
  2 25  1  0
  5 26  1  0
  6 27  1  0
  7 28  1  0
  7 29  1  0
  8 30  1  0
  8 31  1  0
 14 32  1  0
 15 33  1  0
 16 34  1  0
 17 35  1  0
 18 36  1  0
 19 37  1  0
 19 38  1  0
 20 39  1  0
 20 40  1  0
M  END
>  <UniqueID>  (28) 
24

>  <SMILES>  (28) 
CCC(=O)NC1CCN(S(=O)(=O)c2ccccc2)CC1

>  <Energy>  (28) 
38.55068296384391

>  <Genealogy>  (28) 
CCC(=O)NC1CCN(S(=O)(=O)c2ccccc2)CC1 (3D coordinates assigned)
CCC(=O)NC1CCN(S(=O)(=O)c2ccccc2)CC1 (nonaromatic ring conformer: 38.55068296384391 kcal/mol)

>  <smiles>  (28) 
CCC(=O)NC1CCN(S(=O)(=O)c2ccccc2)CC1

>  <score_type>  (28) 
oracle

>  <origin>  (28) 
adg

>  <m_score__min__energy>  (28) 
-8.2400000000000002

>  <m_primary>  (28) 
energy

$$$$
28:0
     RDKit          3D

 23 24  0  0  0  0  0  0  0  0999 V2000
   -8.6530   21.0740  -31.7510 C   0  0  0  0  0  0  0  0  0  0  0  0
   -8.4090   22.4770  -31.7250 O   0  0  0  0  0  0  0  0  0  0  0  0
   -7.1670   23.0600  -31.4350 C   0  0  0  0  0  0  0  0  0  0  0  0
   -5.9570   22.5520  -31.9460 C   0  0  0  0  0  0  0  0  0  0  0  0
   -4.7430   23.1670  -31.6260 C   0  0  0  0  0  0  0  0  0  0  0  0
   -4.7160   24.2890  -30.7760 C   0  0  0  0  0  0  0  0  0  0  0  0
   -3.4940   24.9720  -30.4470 N   0  0  0  0  0  0  0  0  0  0  0  0
   -2.7260   24.7410  -29.4240 C   0  0  0  0  0  0  0  0  0  0  0  0
   -1.8620   25.6660  -28.9590 N   0  0  0  0  0  0  0  0  0  0  0  0
   -1.2990   25.0670  -27.8950 C   0  0  0  0  0  0  0  0  0  0  0  0
   -1.8390   23.8120  -27.7400 C   0  0  0  0  0  0  0  0  0  0  0  0
   -2.7510   23.5990  -28.7040 N   0  0  0  0  0  0  0  0  0  0  0  0
   -5.9240   24.8090  -30.2960 C   0  0  0  0  0  0  0  0  0  0  0  0
   -7.1380   24.1930  -30.6140 C   0  0  0  0  0  0  0  0  0  0  0  0
   -8.7191   20.6942  -30.7208 H   0  0  0  0  0  0  0  0  0  0  0  0
   -9.5991   20.8760  -32.2762 H   0  0  0  0  0  0  0  0  0  0  0  0
   -7.8293   20.5682  -32.2762 H   0  0  0  0  0  0  0  0  0  0  0  0
   -5.9671   21.6674  -32.5998 H   0  0  0  0  0  0  0  0  0  0  0  0
   -3.8038   22.7721  -32.0406 H   0  0  0  0  0  0  0  0  0  0  0  0
   -0.5271   25.5114  -27.2495 H   0  0  0  0  0  0  0  0  0  0  0  0
   -1.5673   23.0951  -26.9511 H   0  0  0  0  0  0  0  0  0  0  0  0
   -5.9179   25.7092  -29.6638 H   0  0  0  0  0  0  0  0  0  0  0  0
   -8.0781   24.6022  -30.2156 H   0  0  0  0  0  0  0  0  0  0  0  0
  1  2  1  0
  2  3  1  0
  3  4  2  0
  4  5  1  0
  5  6  2  0
  6  7  1  0
  7  8  2  3
  8  9  1  0
  9 10  1  0
 10 11  2  0
 11 12  1  0
  6 13  1  0
 13 14  2  0
 14  3  1  0
 12  8  1  0
  1 15  1  0
  1 16  1  0
  1 17  1  0
  4 18  1  0
  5 19  1  0
 10 20  1  0
 11 21  1  0
 13 22  1  0
 14 23  1  0
M  CHG  2   9  -1  12  -1
M  END
>  <UniqueID>  (29) 
25

>  <SMILES>  (29) 
COc1ccc(N=c2[n-]cc[n-]2)cc1

>  <Energy>  (29) 
56.16368669745512

>  <Genealogy>  (29) 
COc1ccc(N=c2[n-]cc[n-]2)cc1 (protonated)
COc1ccc(N=c2[n-]cc[n-]2)cc1 (3D coordinates assigned)
COc1ccc(N=c2[n-]cc[n-]2)cc1 (optimized conformer: 56.16368669745512 kcal/mol)

>  <smiles>  (29) 
COc1ccc(N=c2[nH]cc[nH]2)cc1

>  <score_type>  (29) 
oracle

>  <origin>  (29) 
adg

>  <m_score__min__energy>  (29) 
-7.8799999999999999

>  <m_primary>  (29) 
energy

$$$$
29:0
     RDKit          3D

  8  8  0  0  0  0  0  0  0  0999 V2000
   -6.0630   24.9350  -30.8320 S   0  0  0  0  0  0  0  0  0  0  0  0
   -4.6700   24.7900  -29.9900 C   0  0  0  0  0  0  0  0  0  0  0  0
   -4.6110   24.1390  -28.7390 C   0  0  0  0  0  0  0  0  0  0  0  0
   -3.3390   24.1230  -28.1850 C   0  0  0  0  0  0  0  0  0  0  0  0
   -2.3860   24.9200  -29.2960 S   0  0  0  0  0  0  0  0  0  0  0  0
   -3.5050   25.2970  -30.4650 N   0  0  0  0  0  0  0  0  0  0  0  0
   -5.4878   23.6884  -28.2510 H   0  0  0  0  0  0  0  0  0  0  0  0
   -3.0287   23.6824  -27.2261 H   0  0  0  0  0  0  0  0  0  0  0  0
  1  2  2  0
  2  3  1  0
  3  4  2  0
  4  5  1  0
  5  6  1  0
  6  2  1  0
  3  7  1  0
  4  8  1  0
M  CHG  1   6  -1
M  END
>  <UniqueID>  (30) 
26

>  <SMILES>  (30) 
S=c1ccs[n-]1

>  <Energy>  (30) 
37.67805703680065

>  <Genealogy>  (30) 
S=c1ccs[n-]1 (protonated)
S=c1ccs[n-]1 (3D coordinates assigned)
S=c1ccs[n-]1 (optimized conformer: 37.67805703680065 kcal/mol)

>  <smiles>  (30) 
S=c1ccs[nH]1

>  <score_type>  (30) 
oracle

>  <origin>  (30) 
adg

>  <m_score__min__energy>  (30) 
-5.3799999999999999

>  <m_primary>  (30) 
energy

$$$$
30:0
     RDKit          3D

 52 55  0  0  0  0  0  0  0  0999 V2000
   -6.2870   17.4210  -31.9300 C   0  0  0  0  0  0  0  0  0  0  0  0
   -7.6450   17.4450  -32.6330 C   0  0  0  0  0  0  0  0  0  0  0  0
   -8.6130   18.4960  -32.0450 C   0  0  0  0  0  0  0  0  0  0  0  0
   -7.9590   19.7780  -31.6790 N   0  0  0  0  0  0  0  0  0  0  0  0
   -8.9400   20.6600  -31.0080 C   0  0  0  0  0  0  0  0  0  0  0  0
   -8.2350   21.8910  -30.4150 C   0  0  0  0  0  0  0  0  0  0  0  0
   -7.1640   22.3510  -31.3070 N   0  0  0  0  0  0  0  0  0  0  0  0
   -6.0510   23.1010  -30.7840 C   0  0  0  0  0  0  0  0  0  0  0  0
   -6.2520   24.2040  -29.9250 C   0  0  0  0  0  0  0  0  0  0  0  0
   -5.1560   24.9460  -29.4340 C   0  0  0  0  0  0  0  0  0  0  0  0
   -3.8330   24.5970  -29.7940 C   0  0  0  0  0  0  0  0  0  0  0  0
   -2.7040   25.2930  -29.3380 O   0  0  0  0  0  0  0  0  0  0  0  0
   -1.7750   24.7730  -28.3930 C   0  0  0  0  0  0  0  0  0  0  0  0
   -3.6720   23.5040  -30.6450 C   0  0  0  0  0  0  0  0  0  0  0  0
   -2.5210   22.9920  -31.1050 N   0  0  0  0  0  0  0  0  0  0  0  0
   -2.9390   21.9480  -31.8690 C   0  0  0  0  0  0  0  0  0  0  0  0
   -2.0090   21.0590  -32.5990 C   0  0  0  0  0  0  0  0  0  0  0  0
   -2.5010   20.0870  -33.4900 C   0  0  0  0  0  0  0  0  0  0  0  0
   -1.6200   19.2480  -34.1780 C   0  0  0  0  0  0  0  0  0  0  0  0
   -0.2410   19.3690  -33.9860 C   0  0  0  0  0  0  0  0  0  0  0  0
    0.2580   20.3300  -33.1040 C   0  0  0  0  0  0  0  0  0  0  0  0
   -0.6190   21.1720  -32.4120 C   0  0  0  0  0  0  0  0  0  0  0  0
   -4.2890   21.7890  -31.9010 N   0  0  0  0  0  0  0  0  0  0  0  0
   -4.7280   22.7890  -31.1220 C   0  0  0  0  0  0  0  0  0  0  0  0
   -7.2210   21.9720  -32.7210 C   0  0  0  0  0  0  0  0  0  0  0  0
   -7.3500   20.4420  -32.8670 C   0  0  0  0  0  0  0  0  0  0  0  0
   -6.4381   17.4237  -30.8404 H   0  0  0  0  0  0  0  0  0  0  0  0
   -5.7390   16.5130  -32.2220 H   0  0  0  0  0  0  0  0  0  0  0  0
   -5.7072   18.3090  -32.2220 H   0  0  0  0  0  0  0  0  0  0  0  0
   -7.4845   17.6733  -33.6970 H   0  0  0  0  0  0  0  0  0  0  0  0
   -8.1065   16.4569  -32.4891 H   0  0  0  0  0  0  0  0  0  0  0  0
   -9.3922   18.7057  -32.7925 H   0  0  0  0  0  0  0  0  0  0  0  0
   -9.0219   18.0697  -31.1170 H   0  0  0  0  0  0  0  0  0  0  0  0
   -7.2020   19.5720  -30.9840 H   0  0  0  0  0  0  0  0  0  0  0  0
   -9.6912   20.9902  -31.7405 H   0  0  0  0  0  0  0  0  0  0  0  0
   -9.4258   20.1005  -30.1950 H   0  0  0  0  0  0  0  0  0  0  0  0
   -8.9688   22.6999  -30.2837 H   0  0  0  0  0  0  0  0  0  0  0  0
   -7.7955   21.6156  -29.4449 H   0  0  0  0  0  0  0  0  0  0  0  0
   -7.2744   24.4881  -29.6352 H   0  0  0  0  0  0  0  0  0  0  0  0
   -5.3320   25.8022  -28.7663 H   0  0  0  0  0  0  0  0  0  0  0  0
   -2.1365   24.9753  -27.3740 H   0  0  0  0  0  0  0  0  0  0  0  0
   -1.6740   23.6872  -28.5374 H   0  0  0  0  0  0  0  0  0  0  0  0
   -0.7967   25.2547  -28.5374 H   0  0  0  0  0  0  0  0  0  0  0  0
   -3.5853   19.9870  -33.6458 H   0  0  0  0  0  0  0  0  0  0  0  0
   -2.0130   18.4906  -34.8723 H   0  0  0  0  0  0  0  0  0  0  0  0
    0.4506   18.7080  -34.5290 H   0  0  0  0  0  0  0  0  0  0  0  0
    1.3434   20.4251  -32.9531 H   0  0  0  0  0  0  0  0  0  0  0  0
   -0.2199   21.9264  -31.7180 H   0  0  0  0  0  0  0  0  0  0  0  0
   -8.0910   22.4547  -33.1901 H   0  0  0  0  0  0  0  0  0  0  0  0
   -6.2935   22.2988  -33.2139 H   0  0  0  0  0  0  0  0  0  0  0  0
   -7.9777   20.2282  -33.7447 H   0  0  0  0  0  0  0  0  0  0  0  0
   -6.3312   20.0412  -32.9734 H   0  0  0  0  0  0  0  0  0  0  0  0
  1  2  1  0
  2  3  1  0
  3  4  1  0
  4  5  1  0
  5  6  1  0
  6  7  1  0
  7  8  1  0
  8  9  2  0
  9 10  1  0
 10 11  2  0
 11 12  1  0
 12 13  1  0
 11 14  1  0
 14 15  1  0
 15 16  1  0
 16 17  1  0
 17 18  2  0
 18 19  1  0
 19 20  2  0
 20 21  1  0
 21 22  2  0
 16 23  2  0
 23 24  1  0
  7 25  1  0
 25 26  1  0
 26  4  1  0
 24  8  1  0
 24 14  2  0
 22 17  1  0
  1 27  1  0
  1 28  1  0
  1 29  1  0
  2 30  1  0
  2 31  1  0
  3 32  1  0
  3 33  1  0
  4 34  1  0
  5 35  1  0
  5 36  1  0
  6 37  1  0
  6 38  1  0
  9 39  1  0
 10 40  1  0
 13 41  1  0
 13 42  1  0
 13 43  1  0
 18 44  1  0
 19 45  1  0
 20 46  1  0
 21 47  1  0
 22 48  1  0
 25 49  1  0
 25 50  1  0
 26 51  1  0
 26 52  1  0
M  CHG  2   4   1  15  -1
M  END
>  <UniqueID>  (31) 
27

>  <SMILES>  (31) 
CCC[NH+]1CCN(c2ccc(OC)c3[n-]c(-c4ccccc4)nc23)CC1

>  <Energy>  (31) 
97.3426329967874

>  <Genealogy>  (31) 
CCC[NH+]1CCN(c2ccc(OC)c3[n-]c(-c4ccccc4)nc23)CC1 (protonated)
CCC[NH+]1CCN(c2ccc(OC)c3[n-]c(-c4ccccc4)nc23)CC1 (3D coordinates assigned)
CCC[NH+]1CCN(c2ccc(OC)c3[n-]c(-c4ccccc4)nc23)CC1 (nonaromatic ring conformer: 97.3426329967874 kcal/mol)

>  <smiles>  (31) 
CCCN1CCN(c2ccc(OC)c3[nH]c(-c4ccccc4)nc23)CC1

>  <score_type>  (31) 
oracle

>  <origin>  (31) 
adg

>  <m_score__min__energy>  (31) 
-8.0600000000000005

>  <m_primary>  (31) 
energy

$$$$
31:0
     RDKit          3D

 38 40  0  0  0  0  0  0  0  0999 V2000
   -2.5770   21.5410  -32.0750 C   0  0  0  0  0  0  0  0  0  0  0  0
   -3.4680   22.5490  -31.3560 C   0  0  0  0  0  0  0  0  0  0  0  0
   -2.7700   23.1060  -30.1390 C   0  0  0  0  0  0  0  0  0  0  0  0
   -1.8660   22.2970  -29.4300 C   0  0  0  0  0  0  0  0  0  0  0  0
   -1.1800   22.8040  -28.3230 C   0  0  0  0  0  0  0  0  0  0  0  0
   -1.3920   24.1200  -27.9110 C   0  0  0  0  0  0  0  0  0  0  0  0
   -2.2790   24.9370  -28.6140 C   0  0  0  0  0  0  0  0  0  0  0  0
   -2.9490   24.4500  -29.7470 C   0  0  0  0  0  0  0  0  0  0  0  0
   -3.8550   25.2990  -30.4650 N   0  0  0  0  0  0  0  0  0  0  0  0
   -5.2830   25.2270  -30.3810 C   0  0  0  0  0  0  0  0  0  0  0  0
   -5.8390   25.4170  -29.2660 O   0  0  0  0  0  0  0  0  0  0  0  0
   -6.1300   24.8680  -31.5700 C   0  0  0  0  0  0  0  0  0  0  0  0
   -6.6360   23.5060  -31.4540 N   0  0  0  0  0  0  0  0  0  0  0  0
   -7.4840   23.0980  -30.5250 N   0  0  0  0  0  0  0  0  0  0  0  0
   -7.7220   21.8070  -30.7010 N   0  0  0  0  0  0  0  0  0  0  0  0
   -6.9750   21.4590  -31.7700 C   0  0  0  0  0  0  0  0  0  0  0  0
   -6.9380   20.1050  -32.3450 C   0  0  0  0  0  0  0  0  0  0  0  0
   -7.7090   19.0670  -31.8000 C   0  0  0  0  0  0  0  0  0  0  0  0
   -7.6440   17.7940  -32.3690 C   0  0  0  0  0  0  0  0  0  0  0  0
   -6.8140   17.5660  -33.4680 C   0  0  0  0  0  0  0  0  0  0  0  0
   -6.0580   18.6210  -33.9840 C   0  0  0  0  0  0  0  0  0  0  0  0
   -6.1360   19.8540  -33.4160 N   0  0  0  0  0  0  0  0  0  0  0  0
   -6.2840   22.5120  -32.2490 N   0  0  0  0  0  0  0  0  0  0  0  0
   -2.0391   20.9325  -31.3332 H   0  0  0  0  0  0  0  0  0  0  0  0
   -3.1976   20.8870  -32.7052 H   0  0  0  0  0  0  0  0  0  0  0  0
   -1.8518   22.0767  -32.7052 H   0  0  0  0  0  0  0  0  0  0  0  0
   -3.7080   23.3735  -32.0435 H   0  0  0  0  0  0  0  0  0  0  0  0
   -4.3885   22.0403  -31.0336 H   0  0  0  0  0  0  0  0  0  0  0  0
   -1.6971   21.2577  -29.7484 H   0  0  0  0  0  0  0  0  0  0  0  0
   -0.4718   22.1645  -27.7757 H   0  0  0  0  0  0  0  0  0  0  0  0
   -0.8602   24.5137  -27.0323 H   0  0  0  0  0  0  0  0  0  0  0  0
   -2.4541   25.9696  -28.2777 H   0  0  0  0  0  0  0  0  0  0  0  0
   -6.9795   25.5642  -31.6308 H   0  0  0  0  0  0  0  0  0  0  0  0
   -5.5115   24.9378  -32.4769 H   0  0  0  0  0  0  0  0  0  0  0  0
   -8.3586   19.2547  -30.9324 H   0  0  0  0  0  0  0  0  0  0  0  0
   -8.2453   16.9725  -31.9524 H   0  0  0  0  0  0  0  0  0  0  0  0
   -6.7560   16.5661  -33.9228 H   0  0  0  0  0  0  0  0  0  0  0  0
   -5.3998   18.4545  -34.8495 H   0  0  0  0  0  0  0  0  0  0  0  0
  1  2  1  0
  2  3  1  0
  3  4  2  0
  4  5  1  0
  5  6  2  0
  6  7  1  0
  7  8  2  0
  8  9  1  0
  9 10  1  0
 10 11  2  0
 10 12  1  0
 12 13  1  0
 13 14  1  0
 14 15  2  0
 15 16  1  0
 16 17  1  0
 17 18  2  0
 18 19  1  0
 19 20  2  0
 20 21  1  0
 21 22  2  0
 16 23  2  0
  8  3  1  0
 23 13  1  0
 22 17  1  0
  1 24  1  0
  1 25  1  0
  1 26  1  0
  2 27  1  0
  2 28  1  0
  4 29  1  0
  5 30  1  0
  6 31  1  0
  7 32  1  0
 12 33  1  0
 12 34  1  0
 18 35  1  0
 19 36  1  0
 20 37  1  0
 21 38  1  0
M  CHG  1   9  -1
M  END
>  <UniqueID>  (32) 
28

>  <SMILES>  (32) 
CCc1ccccc1[N-]C(=O)Cn1nnc(-c2ccccn2)n1

>  <Energy>  (32) 
79.60375939751604

>  <Genealogy>  (32) 
CCc1ccccc1[N-]C(=O)Cn1nnc(-c2ccccn2)n1 (protonated)
CCc1ccccc1[N-]C(=O)Cn1nnc(-c2ccccn2)n1 (3D coordinates assigned)
CCc1ccccc1[N-]C(=O)Cn1nnc(-c2ccccn2)n1 (optimized conformer: 79.60375939751604 kcal/mol)

>  <smiles>  (32) 
CCc1ccccc1NC(=O)Cn1nnc(-c2ccccn2)n1

>  <score_type>  (32) 
oracle

>  <origin>  (32) 
adg

>  <m_score__min__energy>  (32) 
-9.5899999999999999

>  <m_primary>  (32) 
energy

$$$$
32:0
     RDKit          3D

 29 31  0  0  0  0  0  0  0  0999 V2000
   -5.2690   26.2570  -30.4580 O   0  0  0  0  0  0  0  0  0  0  0  0
   -4.7500   25.1110  -30.5390 C   0  0  0  0  0  0  0  0  0  0  0  0
   -3.4830   24.9240  -30.0830 N   0  0  0  0  0  0  0  0  0  0  0  0
   -2.8660   23.7140  -30.1420 C   0  0  0  0  0  0  0  0  0  0  0  0
   -3.5310   22.6120  -30.6810 C   0  0  0  0  0  0  0  0  0  0  0  0
   -4.8380   22.7640  -31.1600 C   0  0  0  0  0  0  0  0  0  0  0  0
   -5.5280   21.6710  -31.7070 C   0  0  0  0  0  0  0  0  0  0  0  0
   -6.8450   21.8220  -32.1780 C   0  0  0  0  0  0  0  0  0  0  0  0
   -7.5710   20.7180  -32.7500 N   0  0  0  0  0  0  0  0  0  0  0  0
   -6.9720   19.4580  -33.0890 C   0  0  0  0  0  0  0  0  0  0  0  0
   -5.8790   19.4370  -33.9660 C   0  0  0  0  0  0  0  0  0  0  0  0
   -5.2760   18.2260  -34.3150 C   0  0  0  0  0  0  0  0  0  0  0  0
   -5.7710   17.0250  -33.8030 C   0  0  0  0  0  0  0  0  0  0  0  0
   -6.8770   17.0310  -32.9500 C   0  0  0  0  0  0  0  0  0  0  0  0
   -7.4870   18.2400  -32.5940 C   0  0  0  0  0  0  0  0  0  0  0  0
   -8.9300   18.1910  -31.5860 Cl  0  0  0  0  0  0  0  0  0  0  0  0
   -7.4530   23.0840  -32.1200 C   0  0  0  0  0  0  0  0  0  0  0  0
   -6.7740   24.1780  -31.5800 C   0  0  0  0  0  0  0  0  0  0  0  0
   -5.4650   24.0300  -31.0920 C   0  0  0  0  0  0  0  0  0  0  0  0
   -1.8391   23.6033  -29.7636 H   0  0  0  0  0  0  0  0  0  0  0  0
   -3.0329   21.6324  -30.7292 H   0  0  0  0  0  0  0  0  0  0  0  0
   -5.0355   20.6893  -31.7679 H   0  0  0  0  0  0  0  0  0  0  0  0
   -8.5620   20.8740  -33.0410 H   0  0  0  0  0  0  0  0  0  0  0  0
   -5.4936   20.3796  -34.3820 H   0  0  0  0  0  0  0  0  0  0  0  0
   -4.4104   18.2187  -34.9938 H   0  0  0  0  0  0  0  0  0  0  0  0
   -5.2895   16.0732  -34.0717 H   0  0  0  0  0  0  0  0  0  0  0  0
   -7.2704   16.0822  -32.5563 H   0  0  0  0  0  0  0  0  0  0  0  0
   -8.4756   23.2136  -32.5039 H   0  0  0  0  0  0  0  0  0  0  0  0
   -7.2665   25.1606  -31.5365 H   0  0  0  0  0  0  0  0  0  0  0  0
  1  2  2  0
  2  3  1  0
  3  4  1  0
  4  5  2  0
  5  6  1  0
  6  7  2  0
  7  8  1  0
  8  9  1  0
  9 10  1  0
 10 11  2  0
 11 12  1  0
 12 13  2  0
 13 14  1  0
 14 15  2  0
 15 16  1  0
  8 17  2  0
 17 18  1  0
 18 19  2  0
 19  2  1  0
 19  6  1  0
 15 10  1  0
  4 20  1  0
  5 21  1  0
  7 22  1  0
  9 23  1  0
 11 24  1  0
 12 25  1  0
 13 26  1  0
 14 27  1  0
 17 28  1  0
 18 29  1  0
M  CHG  1   3  -1
M  END
>  <UniqueID>  (33) 
29

>  <SMILES>  (33) 
O=c1[n-]ccc2cc(Nc3ccccc3Cl)ccc12

>  <Energy>  (33) 
44.40793816510395

>  <Genealogy>  (33) 
O=c1[n-]ccc2cc(Nc3ccccc3Cl)ccc12 (protonated)
O=c1[n-]ccc2cc(Nc3ccccc3Cl)ccc12 (3D coordinates assigned)
O=c1[n-]ccc2cc(Nc3ccccc3Cl)ccc12 (optimized conformer: 44.40793816510395 kcal/mol)

>  <smiles>  (33) 
O=c1[nH]ccc2cc(Nc3ccccc3Cl)ccc12

>  <score_type>  (33) 
oracle

>  <origin>  (33) 
adg

>  <m_score__min__energy>  (33) 
-9.6400000000000006

>  <m_primary>  (33) 
energy

$$$$
33:0
     RDKit          3D

 28 28  0  0  0  0  0  0  0  0999 V2000
   -8.3230   20.3180  -32.3230 C   0  0  0  0  0  0  0  0  0  0  0  0
   -6.8330   20.6210  -32.1340 C   0  0  0  0  0  0  0  0  0  0  0  0
   -6.4330   21.8820  -32.7790 N   0  0  0  0  0  0  0  0  0  0  0  0
   -6.2570   22.9410  -31.8130 C   0  0  0  0  0  0  0  0  0  0  0  0
   -7.3500   23.4060  -31.0620 C   0  0  0  0  0  0  0  0  0  0  0  0
   -7.1760   24.4190  -30.1170 C   0  0  0  0  0  0  0  0  0  0  0  0
   -5.9140   24.9770  -29.9070 C   0  0  0  0  0  0  0  0  0  0  0  0
   -4.8060   24.5210  -30.6450 C   0  0  0  0  0  0  0  0  0  0  0  0
   -3.4890   25.0580  -30.4620 N   0  0  0  0  0  0  0  0  0  0  0  0
   -2.3420   24.5510  -29.2640 S   0  0  0  0  0  0  0  0  0  0  0  0
   -3.1880   24.0650  -27.7740 C   0  0  0  0  0  0  0  0  0  0  0  0
   -1.5820   23.3680  -29.7940 O   0  0  0  0  0  0  0  0  0  0  0  0
   -1.3710   25.6610  -28.9780 O   0  0  0  0  0  0  0  0  0  0  0  0
   -4.9870   23.5070  -31.5950 C   0  0  0  0  0  0  0  0  0  0  0  0
   -8.8049   20.2200  -31.3391 H   0  0  0  0  0  0  0  0  0  0  0  0
   -8.7959   21.1384  -32.8828 H   0  0  0  0  0  0  0  0  0  0  0  0
   -8.4379   19.3781  -32.8828 H   0  0  0  0  0  0  0  0  0  0  0  0
   -6.6202   20.6915  -31.0571 H   0  0  0  0  0  0  0  0  0  0  0  0
   -6.2619   19.8068  -32.6040 H   0  0  0  0  0  0  0  0  0  0  0  0
   -7.1800   22.1640  -33.4560 H   0  0  0  0  0  0  0  0  0  0  0  0
   -5.5570   21.7380  -33.3350 H   0  0  0  0  0  0  0  0  0  0  0  0
   -8.3475   22.9698  -31.2194 H   0  0  0  0  0  0  0  0  0  0  0  0
   -8.0375   24.7790  -29.5353 H   0  0  0  0  0  0  0  0  0  0  0  0
   -5.7851   25.7760  -29.1620 H   0  0  0  0  0  0  0  0  0  0  0  0
   -2.6098   24.3971  -26.8991 H   0  0  0  0  0  0  0  0  0  0  0  0
   -4.1857   24.5276  -27.7513 H   0  0  0  0  0  0  0  0  0  0  0  0
   -3.2909   22.9701  -27.7513 H   0  0  0  0  0  0  0  0  0  0  0  0
   -4.1256   23.1488  -32.1778 H   0  0  0  0  0  0  0  0  0  0  0  0
  1  2  1  0
  2  3  1  0
  3  4  1  0
  4  5  2  0
  5  6  1  0
  6  7  2  0
  7  8  1  0
  8  9  1  0
  9 10  1  0
 10 11  1  0
 10 12  2  0
 10 13  2  0
  8 14  2  0
 14  4  1  0
  1 15  1  0
  1 16  1  0
  1 17  1  0
  2 18  1  0
  2 19  1  0
  3 20  1  0
  3 21  1  0
  5 22  1  0
  6 23  1  0
  7 24  1  0
 11 25  1  0
 11 26  1  0
 11 27  1  0
 14 28  1  0
M  CHG  2   3   1   9  -1
M  END
>  <UniqueID>  (34) 
30

>  <SMILES>  (34) 
CC[NH2+]c1cccc([N-]S(C)(=O)=O)c1

>  <Energy>  (34) 
23.77153699675174

>  <Genealogy>  (34) 
CC[NH2+]c1cccc([N-]S(C)(=O)=O)c1 (protonated)
CC[NH2+]c1cccc([N-]S(C)(=O)=O)c1 (3D coordinates assigned)
CC[NH2+]c1cccc([N-]S(C)(=O)=O)c1 (optimized conformer: 23.77153699675174 kcal/mol)

>  <smiles>  (34) 
CCNc1cccc(NS(C)(=O)=O)c1

>  <score_type>  (34) 
oracle

>  <origin>  (34) 
adg

>  <m_score__min__energy>  (34) 
-7.1500000000000004

>  <m_primary>  (34) 
energy

$$$$
34:0
     RDKit          3D

 46 49  0  0  0  0  0  0  0  0999 V2000
   -2.7260   25.1480  -27.4560 O   0  0  0  0  0  0  0  0  0  0  0  0
   -2.1260   24.5860  -28.7190 S   0  0  0  0  0  0  0  0  0  0  0  0
   -0.8000   25.2520  -28.9720 O   0  0  0  0  0  0  0  0  0  0  0  0
   -3.1950   24.9280  -30.0440 N   0  0  0  0  0  0  0  0  0  0  0  0
   -4.4580   24.2990  -30.2700 C   0  0  0  0  0  0  0  0  0  0  0  0
   -5.6250   25.0600  -30.1400 C   0  0  0  0  0  0  0  0  0  0  0  0
   -6.8590   24.5230  -30.5140 C   0  0  0  0  0  0  0  0  0  0  0  0
   -6.9320   23.2270  -31.0320 C   0  0  0  0  0  0  0  0  0  0  0  0
   -5.7750   22.4320  -31.1230 C   0  0  0  0  0  0  0  0  0  0  0  0
   -5.8230   21.1240  -31.8170 C   0  0  0  0  0  0  0  0  0  0  0  0
   -7.0380   20.5150  -32.1690 C   0  0  0  0  0  0  0  0  0  0  0  0
   -7.0270   19.2350  -32.7190 C   0  0  0  0  0  0  0  0  0  0  0  0
   -5.8050   18.5800  -32.9120 C   0  0  0  0  0  0  0  0  0  0  0  0
   -5.7410   17.2430  -33.4430 N   0  0  0  0  0  0  0  0  0  0  0  0
   -4.5090   16.5180  -33.7190 C   0  0  0  0  0  0  0  0  0  0  0  0
   -4.9310   15.2530  -34.4560 C   0  0  0  0  0  0  0  0  0  0  0  0
   -6.4360   15.1120  -34.2130 C   0  0  0  0  0  0  0  0  0  0  0  0
   -6.9270   16.4930  -33.8130 C   0  0  0  0  0  0  0  0  0  0  0  0
   -4.6560   19.2270  -32.5780 N   0  0  0  0  0  0  0  0  0  0  0  0
   -4.6650   20.4500  -32.0500 N   0  0  0  0  0  0  0  0  0  0  0  0
   -4.5500   22.9600  -30.6770 C   0  0  0  0  0  0  0  0  0  0  0  0
   -1.8410   22.8470  -28.5480 C   0  0  0  0  0  0  0  0  0  0  0  0
   -1.3470   22.0890  -29.6280 C   0  0  0  0  0  0  0  0  0  0  0  0
   -0.9550   20.7620  -29.4360 C   0  0  0  0  0  0  0  0  0  0  0  0
   -1.0530   20.1860  -28.1640 C   0  0  0  0  0  0  0  0  0  0  0  0
   -0.4170   18.4150  -27.8750 Br  0  0  0  0  0  0  0  0  0  0  0  0
   -1.5810   20.9220  -27.0940 C   0  0  0  0  0  0  0  0  0  0  0  0
   -1.9890   22.2460  -27.2870 C   0  0  0  0  0  0  0  0  0  0  0  0
   -5.5705   26.0841  -29.7421 H   0  0  0  0  0  0  0  0  0  0  0  0
   -7.7751   25.1213  -30.4006 H   0  0  0  0  0  0  0  0  0  0  0  0
   -7.8991   22.8266  -31.3703 H   0  0  0  0  0  0  0  0  0  0  0  0
   -7.9898   21.0436  -32.0120 H   0  0  0  0  0  0  0  0  0  0  0  0
   -7.9703   18.7434  -32.9991 H   0  0  0  0  0  0  0  0  0  0  0  0
   -3.8405   17.1236  -34.3485 H   0  0  0  0  0  0  0  0  0  0  0  0
   -3.9594   16.2852  -32.7950 H   0  0  0  0  0  0  0  0  0  0  0  0
   -4.7240   15.3493  -35.5320 H   0  0  0  0  0  0  0  0  0  0  0  0
   -4.3784   14.3719  -34.0977 H   0  0  0  0  0  0  0  0  0  0  0  0
   -6.9417   14.7776  -35.1309 H   0  0  0  0  0  0  0  0  0  0  0  0
   -6.6500   14.3668  -33.4327 H   0  0  0  0  0  0  0  0  0  0  0  0
   -7.4382   16.9773  -34.6580 H   0  0  0  0  0  0  0  0  0  0  0  0
   -7.6483   16.4416  -32.9841 H   0  0  0  0  0  0  0  0  0  0  0  0
   -3.6574   22.3179  -30.6472 H   0  0  0  0  0  0  0  0  0  0  0  0
   -1.2697   22.5440  -30.6265 H   0  0  0  0  0  0  0  0  0  0  0  0
   -0.5708   20.1720  -30.2812 H   0  0  0  0  0  0  0  0  0  0  0  0
   -1.6746   20.4577  -26.1012 H   0  0  0  0  0  0  0  0  0  0  0  0
   -2.4249   22.8154  -26.4529 H   0  0  0  0  0  0  0  0  0  0  0  0
  1  2  2  0
  2  3  2  0
  2  4  1  0
  4  5  1  0
  5  6  2  0
  6  7  1  0
  7  8  2  0
  8  9  1  0
  9 10  1  0
 10 11  2  0
 11 12  1  0
 12 13  2  0
 13 14  1  0
 14 15  1  0
 15 16  1  0
 16 17  1  0
 17 18  1  0
 13 19  1  0
 19 20  2  0
  9 21  2  0
  2 22  1  0
 22 23  2  0
 23 24  1  0
 24 25  2  0
 25 26  1  0
 25 27  1  0
 27 28  2  0
 21  5  1  0
 28 22  1  0
 20 10  1  0
 18 14  1  0
  6 29  1  0
  7 30  1  0
  8 31  1  0
 11 32  1  0
 12 33  1  0
 15 34  1  0
 15 35  1  0
 16 36  1  0
 16 37  1  0
 17 38  1  0
 17 39  1  0
 18 40  1  0
 18 41  1  0
 21 42  1  0
 23 43  1  0
 24 44  1  0
 27 45  1  0
 28 46  1  0
M  CHG  1   4  -1
M  END
>  <UniqueID>  (35) 
31

>  <SMILES>  (35) 
O=S(=O)([N-]c1cccc(-c2ccc(N3CCCC3)nn2)c1)c1ccc(Br)cc1

>  <Energy>  (35) 
60.00814263789987

>  <Genealogy>  (35) 
O=S(=O)([N-]c1cccc(-c2ccc(N3CCCC3)nn2)c1)c1ccc(Br)cc1 (protonated)
O=S(=O)([N-]c1cccc(-c2ccc(N3CCCC3)nn2)c1)c1ccc(Br)cc1 (3D coordinates assigned)
O=S(=O)([N-]c1cccc(-c2ccc(N3CCCC3)nn2)c1)c1ccc(Br)cc1 (nonaromatic ring conformer: 60.00814263789987 kcal/mol)

>  <smiles>  (35) 
O=S(=O)(Nc1cccc(-c2ccc(N3CCCC3)nn2)c1)c1ccc(Br)cc1

>  <score_type>  (35) 
oracle

>  <origin>  (35) 
adg

>  <m_score__min__energy>  (35) 
-11.01

>  <m_primary>  (35) 
energy

$$$$
35:0
     RDKit          3D

 43 44  0  0  0  0  0  0  0  0999 V2000
   -1.6560   21.5210  -27.0690 C   0  0  0  0  0  0  0  0  0  0  0  0
   -0.5330   22.4980  -27.4740 C   0  0  0  0  0  0  0  0  0  0  0  0
    0.7930   21.6990  -27.4660 C   0  0  0  0  0  0  0  0  0  0  0  0
   -0.7650   23.0220  -28.9160 C   0  0  0  0  0  0  0  0  0  0  0  0
   -1.9300   24.0280  -29.0620 C   0  0  0  0  0  0  0  0  0  0  0  0
   -3.1080   23.3710  -29.6420 N   0  0  0  0  0  0  0  0  0  0  0  0
   -4.0430   24.0760  -30.4740 C   0  0  0  0  0  0  0  0  0  0  0  0
   -3.8480   25.2920  -30.7460 O   0  0  0  0  0  0  0  0  0  0  0  0
   -5.2440   23.3890  -31.0020 C   0  0  0  0  0  0  0  0  0  0  0  0
   -5.0840   22.2620  -31.8310 C   0  0  0  0  0  0  0  0  0  0  0  0
   -6.1980   21.5830  -32.3310 C   0  0  0  0  0  0  0  0  0  0  0  0
   -7.4850   22.0190  -32.0140 C   0  0  0  0  0  0  0  0  0  0  0  0
   -7.6610   23.1370  -31.1960 C   0  0  0  0  0  0  0  0  0  0  0  0
   -6.5530   23.8260  -30.6870 C   0  0  0  0  0  0  0  0  0  0  0  0
   -6.8530   25.2630  -29.7120 Cl  0  0  0  0  0  0  0  0  0  0  0  0
   -2.2970   24.7290  -27.7380 C   0  0  0  0  0  0  0  0  0  0  0  0
   -1.0920   24.8940  -26.7810 C   0  0  0  0  0  0  0  0  0  0  0  0
   -0.0570   25.8850  -27.3690 C   0  0  0  0  0  0  0  0  0  0  0  0
   -1.6090   25.4840  -25.4560 C   0  0  0  0  0  0  0  0  0  0  0  0
   -0.4590   23.5890  -26.4650 N   0  0  0  0  0  0  0  0  0  0  0  0
   -1.7175   21.4675  -25.9720 H   0  0  0  0  0  0  0  0  0  0  0  0
   -2.6151   21.8770  -27.4731 H   0  0  0  0  0  0  0  0  0  0  0  0
   -1.4361   20.5218  -27.4731 H   0  0  0  0  0  0  0  0  0  0  0  0
    1.1025   21.5125  -26.4270 H   0  0  0  0  0  0  0  0  0  0  0  0
    0.6458   20.7391  -27.9826 H   0  0  0  0  0  0  0  0  0  0  0  0
    1.5729   22.2777  -27.9826 H   0  0  0  0  0  0  0  0  0  0  0  0
    0.1581   23.5165  -29.2528 H   0  0  0  0  0  0  0  0  0  0  0  0
   -1.0353   22.1457  -29.5236 H   0  0  0  0  0  0  0  0  0  0  0  0
   -1.5790   24.8158  -29.7447 H   0  0  0  0  0  0  0  0  0  0  0  0
   -3.2420   22.3430  -29.5040 H   0  0  0  0  0  0  0  0  0  0  0  0
   -4.0728   21.9131  -32.0872 H   0  0  0  0  0  0  0  0  0  0  0  0
   -6.0602   20.7027  -32.9760 H   0  0  0  0  0  0  0  0  0  0  0  0
   -8.3605   21.4823  -32.4083 H   0  0  0  0  0  0  0  0  0  0  0  0
   -8.6771   23.4789  -30.9497 H   0  0  0  0  0  0  0  0  0  0  0  0
   -2.6982   25.7266  -27.9701 H   0  0  0  0  0  0  0  0  0  0  0  0
   -3.0362   24.0950  -27.2265 H   0  0  0  0  0  0  0  0  0  0  0  0
    0.4724   26.3919  -26.5487 H   0  0  0  0  0  0  0  0  0  0  0  0
    0.6670   25.3347  -27.9879 H   0  0  0  0  0  0  0  0  0  0  0  0
   -0.5753   26.6322  -27.9879 H   0  0  0  0  0  0  0  0  0  0  0  0
   -1.1440   24.9533  -24.6121 H   0  0  0  0  0  0  0  0  0  0  0  0
   -1.3507   26.5520  -25.4047 H   0  0  0  0  0  0  0  0  0  0  0  0
   -2.7017   25.3682  -25.4047 H   0  0  0  0  0  0  0  0  0  0  0  0
    0.5160   23.7410  -26.1110 H   0  0  0  0  0  0  0  0  0  0  0  0
  1  2  1  0
  2  3  1  0
  2  4  1  0
  4  5  1  0
  5  6  1  0
  6  7  1  0
  7  8  2  0
  7  9  1  0
  9 10  2  0
 10 11  1  0
 11 12  2  0
 12 13  1  0
 13 14  2  0
 14 15  1  0
  5 16  1  0
 16 17  1  0
 17 18  1  0
 17 19  1  0
 17 20  1  0
 20  2  1  0
 14  9  1  0
  1 21  1  0
  1 22  1  0
  1 23  1  0
  3 24  1  0
  3 25  1  0
  3 26  1  0
  4 27  1  0
  4 28  1  0
  5 29  1  0
  6 30  1  0
 10 31  1  0
 11 32  1  0
 12 33  1  0
 13 34  1  0
 16 35  1  0
 16 36  1  0
 18 37  1  0
 18 38  1  0
 18 39  1  0
 19 40  1  0
 19 41  1  0
 19 42  1  0
 20 43  1  0
M  END
>  <UniqueID>  (36) 
32

>  <SMILES>  (36) 
CC1(C)CC(NC(=O)c2ccccc2Cl)CC(C)(C)N1

>  <Energy>  (36) 
54.12961734464342

>  <Genealogy>  (36) 
CC1(C)CC(NC(=O)c2ccccc2Cl)CC(C)(C)N1 (3D coordinates assigned)
CC1(C)CC(NC(=O)c2ccccc2Cl)CC(C)(C)N1 (nonaromatic ring conformer: 54.12961734464342 kcal/mol)

>  <smiles>  (36) 
CC1(C)CC(NC(=O)c2ccccc2Cl)CC(C)(C)N1

>  <score_type>  (36) 
oracle

>  <origin>  (36) 
adg

>  <m_score__min__energy>  (36) 
-7.7999999999999998

>  <m_primary>  (36) 
energy

$$$$
36:0
     RDKit          3D

 38 41  0  0  0  0  0  0  0  0999 V2000
   -1.5760   21.5660  -32.5820 C   0  0  0  0  0  0  0  0  0  0  0  0
   -2.8930   20.8590  -32.6860 C   0  0  0  0  0  0  0  0  0  0  0  0
   -3.2690   20.1720  -33.7930 N   0  0  0  0  0  0  0  0  0  0  0  0
   -4.4610   19.6480  -33.4690 C   0  0  0  0  0  0  0  0  0  0  0  0
   -5.2800   18.8340  -34.2480 C   0  0  0  0  0  0  0  0  0  0  0  0
   -6.4870   18.3890  -33.6820 C   0  0  0  0  0  0  0  0  0  0  0  0
   -6.8430   18.7670  -32.3670 C   0  0  0  0  0  0  0  0  0  0  0  0
   -5.9930   19.5900  -31.6060 C   0  0  0  0  0  0  0  0  0  0  0  0
   -4.7950   20.0090  -32.1930 C   0  0  0  0  0  0  0  0  0  0  0  0
   -3.8000   20.7620  -31.6740 N   0  0  0  0  0  0  0  0  0  0  0  0
   -3.6930   21.3130  -30.3160 C   0  0  0  0  0  0  0  0  0  0  0  0
   -3.8610   22.8060  -30.3280 C   0  0  0  0  0  0  0  0  0  0  0  0
   -2.8550   23.6670  -30.0730 N   0  0  0  0  0  0  0  0  0  0  0  0
   -3.3700   24.8890  -30.0940 N   0  0  0  0  0  0  0  0  0  0  0  0
   -4.6830   24.7520  -30.3550 C   0  0  0  0  0  0  0  0  0  0  0  0
   -5.7130   26.0180  -30.4840 S   0  0  0  0  0  0  0  0  0  0  0  0
   -5.0250   23.4590  -30.5190 N   0  0  0  0  0  0  0  0  0  0  0  0
   -6.3230   22.9080  -30.7810 C   0  0  0  0  0  0  0  0  0  0  0  0
   -6.7460   22.7000  -32.1010 C   0  0  0  0  0  0  0  0  0  0  0  0
   -7.9960   22.1260  -32.3550 C   0  0  0  0  0  0  0  0  0  0  0  0
   -8.8230   21.7510  -31.2920 C   0  0  0  0  0  0  0  0  0  0  0  0
   -8.4050   21.9590  -29.9730 C   0  0  0  0  0  0  0  0  0  0  0  0
   -7.1600   22.5410  -29.7180 C   0  0  0  0  0  0  0  0  0  0  0  0
   -1.3171   21.7050  -31.5220 H   0  0  0  0  0  0  0  0  0  0  0  0
   -0.7972   20.9647  -33.0738 H   0  0  0  0  0  0  0  0  0  0  0  0
   -1.6468   22.5474  -33.0738 H   0  0  0  0  0  0  0  0  0  0  0  0
   -2.7450   20.0620  -34.6890 H   0  0  0  0  0  0  0  0  0  0  0  0
   -4.9921   18.5493  -35.2708 H   0  0  0  0  0  0  0  0  0  0  0  0
   -7.1589   17.7426  -34.2657 H   0  0  0  0  0  0  0  0  0  0  0  0
   -7.7917   18.4149  -31.9357 H   0  0  0  0  0  0  0  0  0  0  0  0
   -6.2617   19.8937  -30.5835 H   0  0  0  0  0  0  0  0  0  0  0  0
   -4.4755   20.8677  -29.6840 H   0  0  0  0  0  0  0  0  0  0  0  0
   -2.6956   21.0749  -29.9179 H   0  0  0  0  0  0  0  0  0  0  0  0
   -6.0939   22.9886  -32.9385 H   0  0  0  0  0  0  0  0  0  0  0  0
   -8.3285   21.9695  -33.3918 H   0  0  0  0  0  0  0  0  0  0  0  0
   -9.8025   21.2923  -31.4926 H   0  0  0  0  0  0  0  0  0  0  0  0
   -9.0561   21.6645  -29.1368 H   0  0  0  0  0  0  0  0  0  0  0  0
   -6.8362   22.7115  -28.6807 H   0  0  0  0  0  0  0  0  0  0  0  0
  1  2  1  0
  2  3  2  0
  3  4  1  0
  4  5  2  0
  5  6  1  0
  6  7  2  0
  7  8  1  0
  8  9  2  0
  9 10  1  0
 10 11  1  0
 11 12  1  0
 12 13  2  0
 13 14  1  0
 14 15  1  0
 15 16  2  0
 15 17  1  0
 17 18  1  0
 18 19  2  0
 19 20  1  0
 20 21  2  0
 21 22  1  0
 22 23  2  0
 10  2  1  0
 17 12  1  0
 23 18  1  0
  9  4  1  0
  1 24  1  0
  1 25  1  0
  1 26  1  0
  3 27  1  0
  5 28  1  0
  6 29  1  0
  7 30  1  0
  8 31  1  0
 11 32  1  0
 11 33  1  0
 19 34  1  0
 20 35  1  0
 21 36  1  0
 22 37  1  0
 23 38  1  0
M  CHG  2   3   1  14  -1
M  END
>  <UniqueID>  (37) 
33

>  <SMILES>  (37) 
Cc1[nH+]c2ccccc2n1Cc1n[n-]c(=S)n1-c1ccccc1

>  <Energy>  (37) 
117.97646265781707

>  <Genealogy>  (37) 
Cc1[nH+]c2ccccc2n1Cc1n[n-]c(=S)n1-c1ccccc1 (protonated)
Cc1[nH+]c2ccccc2n1Cc1n[n-]c(=S)n1-c1ccccc1 (3D coordinates assigned)
Cc1[nH+]c2ccccc2n1Cc1n[n-]c(=S)n1-c1ccccc1 (optimized conformer: 117.97646265781707 kcal/mol)

>  <smiles>  (37) 
Cc1nc2ccccc2n1Cc1n[nH]c(=S)n1-c1ccccc1

>  <score_type>  (37) 
oracle

>  <origin>  (37) 
adg

>  <m_score__min__energy>  (37) 
-7.9900000000000002

>  <m_primary>  (37) 
energy

$$$$
37:0
     RDKit          3D

 32 33  0  0  0  0  0  0  0  0999 V2000
   -3.7110   25.2910  -30.4680 N   0  0  0  0  0  0  0  0  0  0  0  0
   -5.2210   24.9300  -29.7100 S   0  0  0  0  0  0  0  0  0  0  0  0
   -6.0990   26.1500  -29.7320 O   0  0  0  0  0  0  0  0  0  0  0  0
   -4.9800   24.5360  -28.2790 O   0  0  0  0  0  0  0  0  0  0  0  0
   -6.0100   23.6110  -30.5680 C   0  0  0  0  0  0  0  0  0  0  0  0
   -7.2850   23.7940  -31.1190 C   0  0  0  0  0  0  0  0  0  0  0  0
   -7.9080   22.7520  -31.8130 C   0  0  0  0  0  0  0  0  0  0  0  0
   -7.2630   21.5140  -31.9570 C   0  0  0  0  0  0  0  0  0  0  0  0
   -7.9170   20.4040  -32.7390 C   0  0  0  0  0  0  0  0  0  0  0  0
   -7.0470   19.9670  -33.8390 N   0  0  0  0  0  0  0  0  0  0  0  0
   -6.4780   18.6770  -33.5380 C   0  0  0  0  0  0  0  0  0  0  0  0
   -5.7460   17.9750  -34.5120 C   0  0  0  0  0  0  0  0  0  0  0  0
   -5.1700   16.7380  -34.2090 C   0  0  0  0  0  0  0  0  0  0  0  0
   -5.3120   16.1940  -32.9300 C   0  0  0  0  0  0  0  0  0  0  0  0
   -6.0260   16.8900  -31.9490 C   0  0  0  0  0  0  0  0  0  0  0  0
   -6.6030   18.1270  -32.2490 C   0  0  0  0  0  0  0  0  0  0  0  0
   -5.9770   21.3410  -31.4240 C   0  0  0  0  0  0  0  0  0  0  0  0
   -5.3550   22.3830  -30.7310 C   0  0  0  0  0  0  0  0  0  0  0  0
   -3.8860   26.0740  -31.1370 H   0  0  0  0  0  0  0  0  0  0  0  0
   -7.7977   24.7605  -31.0053 H   0  0  0  0  0  0  0  0  0  0  0  0
   -8.9071   22.9033  -32.2476 H   0  0  0  0  0  0  0  0  0  0  0  0
   -8.1080   19.5530  -32.0687 H   0  0  0  0  0  0  0  0  0  0  0  0
   -8.8630   20.7753  -33.1600 H   0  0  0  0  0  0  0  0  0  0  0  0
   -6.2780   20.6660  -33.9800 H   0  0  0  0  0  0  0  0  0  0  0  0
   -7.5990   19.9110  -34.7270 H   0  0  0  0  0  0  0  0  0  0  0  0
   -5.6259   18.4020  -35.5186 H   0  0  0  0  0  0  0  0  0  0  0  0
   -4.6043   16.1922  -34.9784 H   0  0  0  0  0  0  0  0  0  0  0  0
   -4.8622   15.2182  -32.6944 H   0  0  0  0  0  0  0  0  0  0  0  0
   -6.1334   16.4634  -30.9408 H   0  0  0  0  0  0  0  0  0  0  0  0
   -7.1582   18.6739  -31.4727 H   0  0  0  0  0  0  0  0  0  0  0  0
   -5.4558   20.3808  -31.5521 H   0  0  0  0  0  0  0  0  0  0  0  0
   -4.3481   22.2388  -30.3122 H   0  0  0  0  0  0  0  0  0  0  0  0
  1  2  1  0
  2  3  2  0
  2  4  2  0
  2  5  1  0
  5  6  2  0
  6  7  1  0
  7  8  2  0
  8  9  1  0
  9 10  1  0
 10 11  1  0
 11 12  2  0
 12 13  1  0
 13 14  2  0
 14 15  1  0
 15 16  2  0
  8 17  1  0
 17 18  2  0
 18  5  1  0
 16 11  1  0
  1 19  1  0
  6 20  1  0
  7 21  1  0
  9 22  1  0
  9 23  1  0
 10 24  1  0
 10 25  1  0
 12 26  1  0
 13 27  1  0
 14 28  1  0
 15 29  1  0
 16 30  1  0
 17 31  1  0
 18 32  1  0
M  CHG  2   1  -1  10   1
M  END
>  <UniqueID>  (38) 
34

>  <SMILES>  (38) 
[NH-]S(=O)(=O)c1ccc(C[NH2+]c2ccccc2)cc1

>  <Energy>  (38) 
32.15330737059299

>  <Genealogy>  (38) 
[NH-]S(=O)(=O)c1ccc(C[NH2+]c2ccccc2)cc1 (protonated)
[NH-]S(=O)(=O)c1ccc(C[NH2+]c2ccccc2)cc1 (3D coordinates assigned)
[NH-]S(=O)(=O)c1ccc(C[NH2+]c2ccccc2)cc1 (optimized conformer: 32.15330737059299 kcal/mol)

>  <smiles>  (38) 
NS(=O)(=O)c1ccc(CNc2ccccc2)cc1

>  <score_type>  (38) 
oracle

>  <origin>  (38) 
adg

>  <m_score__min__energy>  (38) 
-9.7100000000000009

>  <m_primary>  (38) 
energy

$$$$
38:0
     RDKit          3D

 35 35  0  0  0  0  0  0  0  0999 V2000
   -9.1190   20.1080  -31.9860 C   0  0  0  0  0  0  0  0  0  0  0  0
   -7.7190   19.8540  -32.4590 C   0  0  0  0  0  0  0  0  0  0  0  0
   -7.3110   18.5550  -32.7960 C   0  0  0  0  0  0  0  0  0  0  0  0
   -6.0170   18.3240  -33.2660 C   0  0  0  0  0  0  0  0  0  0  0  0
   -5.1230   19.3880  -33.4150 C   0  0  0  0  0  0  0  0  0  0  0  0
   -5.5200   20.6990  -33.0980 C   0  0  0  0  0  0  0  0  0  0  0  0
   -4.5960   21.7990  -33.2520 N   0  0  0  0  0  0  0  0  0  0  0  0
   -3.3200   21.5440  -32.5560 C   0  0  0  0  0  0  0  0  0  0  0  0
   -3.1470   22.3820  -31.2720 C   0  0  0  0  0  0  0  0  0  0  0  0
   -4.4940   22.8610  -30.6670 C   0  0  0  0  0  0  0  0  0  0  0  0
   -5.0350   24.1040  -31.2630 N   0  0  0  0  0  0  0  0  0  0  0  0
   -4.7510   25.3000  -30.4570 C   0  0  0  0  0  0  0  0  0  0  0  0
   -6.4630   24.0070  -31.6070 C   0  0  0  0  0  0  0  0  0  0  0  0
   -6.8270   20.9250  -32.6270 C   0  0  0  0  0  0  0  0  0  0  0  0
   -9.1395   20.1117  -30.8862 H   0  0  0  0  0  0  0  0  0  0  0  0
   -9.4620   21.0830  -32.3624 H   0  0  0  0  0  0  0  0  0  0  0  0
   -9.7826   19.3156  -32.3624 H   0  0  0  0  0  0  0  0  0  0  0  0
   -8.0134   17.7151  -32.6895 H   0  0  0  0  0  0  0  0  0  0  0  0
   -5.7000   17.3017  -33.5198 H   0  0  0  0  0  0  0  0  0  0  0  0
   -4.1035   19.1987  -33.7822 H   0  0  0  0  0  0  0  0  0  0  0  0
   -4.3970   21.9250  -34.2710 H   0  0  0  0  0  0  0  0  0  0  0  0
   -5.0270   22.6910  -32.9180 H   0  0  0  0  0  0  0  0  0  0  0  0
   -3.2764   20.4785  -32.2860 H   0  0  0  0  0  0  0  0  0  0  0  0
   -2.5108   21.8308  -33.2437 H   0  0  0  0  0  0  0  0  0  0  0  0
   -2.6256   21.7689  -30.5222 H   0  0  0  0  0  0  0  0  0  0  0  0
   -2.5732   23.2804  -31.5434 H   0  0  0  0  0  0  0  0  0  0  0  0
   -5.2365   22.0619  -30.8092 H   0  0  0  0  0  0  0  0  0  0  0  0
   -4.2958   23.0857  -29.6086 H   0  0  0  0  0  0  0  0  0  0  0  0
   -4.8115   25.0451  -29.3887 H   0  0  0  0  0  0  0  0  0  0  0  0
   -3.7406   25.6675  -30.6896 H   0  0  0  0  0  0  0  0  0  0  0  0
   -5.4883   26.0825  -30.6896 H   0  0  0  0  0  0  0  0  0  0  0  0
   -7.0605   23.9664  -30.6843 H   0  0  0  0  0  0  0  0  0  0  0  0
   -6.7587   24.8871  -32.1969 H   0  0  0  0  0  0  0  0  0  0  0  0
   -6.6369   23.0950  -32.1969 H   0  0  0  0  0  0  0  0  0  0  0  0
   -7.1520   21.9485  -32.3887 H   0  0  0  0  0  0  0  0  0  0  0  0
  1  2  1  0
  2  3  2  0
  3  4  1  0
  4  5  2  0
  5  6  1  0
  6  7  1  0
  7  8  1  0
  8  9  1  0
  9 10  1  0
 10 11  1  0
 11 12  1  0
 11 13  1  0
  6 14  2  0
 14  2  1  0
  1 15  1  0
  1 16  1  0
  1 17  1  0
  3 18  1  0
  4 19  1  0
  5 20  1  0
  7 21  1  0
  7 22  1  0
  8 23  1  0
  8 24  1  0
  9 25  1  0
  9 26  1  0
 10 27  1  0
 10 28  1  0
 12 29  1  0
 12 30  1  0
 12 31  1  0
 13 32  1  0
 13 33  1  0
 13 34  1  0
 14 35  1  0
M  CHG  1   7   1
M  END
>  <UniqueID>  (39) 
35

>  <SMILES>  (39) 
Cc1cccc([NH2+]CCCN(C)C)c1

>  <Energy>  (39) 
37.008495500189255

>  <Genealogy>  (39) 
Cc1cccc([NH2+]CCCN(C)C)c1 (protonated)
Cc1cccc([NH2+]CCCN(C)C)c1 (3D coordinates assigned)
Cc1cccc([NH2+]CCCN(C)C)c1 (optimized conformer: 37.008495500189255 kcal/mol)

>  <smiles>  (39) 
Cc1cccc(NCCCN(C)C)c1

>  <score_type>  (39) 
oracle

>  <origin>  (39) 
adg

>  <m_score__min__energy>  (39) 
-5.4000000000000004

>  <m_primary>  (39) 
energy

$$$$
39:0
     RDKit          3D

 37 40  0  0  0  0  0  0  0  0999 V2000
   -4.4260   24.5250  -30.8620 O   0  0  0  0  0  0  0  0  0  0  0  0
   -4.4580   23.2850  -31.0890 C   0  0  0  0  0  0  0  0  0  0  0  0
   -5.7160   22.6160  -31.4570 C   0  0  0  0  0  0  0  0  0  0  0  0
   -6.8690   23.3520  -31.7520 C   0  0  0  0  0  0  0  0  0  0  0  0
   -8.0260   22.7160  -32.0560 N   0  0  0  0  0  0  0  0  0  0  0  0
   -8.1230   21.3620  -32.0650 C   0  0  0  0  0  0  0  0  0  0  0  0
   -9.3570   20.7680  -32.3510 C   0  0  0  0  0  0  0  0  0  0  0  0
   -9.4920   19.3800  -32.3150 C   0  0  0  0  0  0  0  0  0  0  0  0
   -8.4010   18.5800  -31.9820 C   0  0  0  0  0  0  0  0  0  0  0  0
   -7.1590   19.1590  -31.6990 C   0  0  0  0  0  0  0  0  0  0  0  0
   -6.9910   20.5610  -31.7600 C   0  0  0  0  0  0  0  0  0  0  0  0
   -5.7470   21.2040  -31.5090 C   0  0  0  0  0  0  0  0  0  0  0  0
   -4.5460   20.4440  -31.1890 N   0  0  0  0  0  0  0  0  0  0  0  0
   -3.3090   21.1480  -31.5660 C   0  0  0  0  0  0  0  0  0  0  0  0
   -3.2720   22.4890  -30.9750 N   0  0  0  0  0  0  0  0  0  0  0  0
   -2.0190   23.0460  -30.4510 C   0  0  0  0  0  0  0  0  0  0  0  0
   -2.2650   23.7350  -29.1370 C   0  0  0  0  0  0  0  0  0  0  0  0
   -1.4140   24.7590  -28.6960 C   0  0  0  0  0  0  0  0  0  0  0  0
   -1.6460   25.3620  -27.4580 C   0  0  0  0  0  0  0  0  0  0  0  0
   -2.6860   24.9530  -26.6840 N   0  0  0  0  0  0  0  0  0  0  0  0
   -3.5220   23.9590  -27.0820 C   0  0  0  0  0  0  0  0  0  0  0  0
   -3.3260   23.3290  -28.3140 C   0  0  0  0  0  0  0  0  0  0  0  0
   -6.8358   24.4514  -31.7370 H   0  0  0  0  0  0  0  0  0  0  0  0
  -10.2229   21.3970  -32.6049 H   0  0  0  0  0  0  0  0  0  0  0  0
  -10.4615   18.9164  -32.5499 H   0  0  0  0  0  0  0  0  0  0  0  0
   -8.5167   17.4869  -31.9413 H   0  0  0  0  0  0  0  0  0  0  0  0
   -6.3072   18.5183  -31.4271 H   0  0  0  0  0  0  0  0  0  0  0  0
   -4.5360   20.2440  -30.1620 H   0  0  0  0  0  0  0  0  0  0  0  0
   -4.5290   19.5440  -31.7180 H   0  0  0  0  0  0  0  0  0  0  0  0
   -2.4429   20.5721  -31.2078 H   0  0  0  0  0  0  0  0  0  0  0  0
   -3.2784   21.2446  -32.6613 H   0  0  0  0  0  0  0  0  0  0  0  0
   -1.2933   22.2325  -30.3042 H   0  0  0  0  0  0  0  0  0  0  0  0
   -1.6233   23.7776  -31.1708 H   0  0  0  0  0  0  0  0  0  0  0  0
   -0.5696   25.0849  -29.3211 H   0  0  0  0  0  0  0  0  0  0  0  0
   -0.9859   26.1695  -27.1084 H   0  0  0  0  0  0  0  0  0  0  0  0
   -4.3547   23.6494  -26.4334 H   0  0  0  0  0  0  0  0  0  0  0  0
   -3.9989   22.5206  -28.6360 H   0  0  0  0  0  0  0  0  0  0  0  0
  1  2  2  0
  2  3  1  0
  3  4  2  0
  4  5  1  0
  5  6  2  0
  6  7  1  0
  7  8  2  0
  8  9  1  0
  9 10  2  0
 10 11  1  0
 11 12  2  0
 12 13  1  0
 13 14  1  0
 14 15  1  0
 15 16  1  0
 16 17  1  0
 17 18  2  0
 18 19  1  0
 19 20  2  0
 20 21  1  0
 21 22  2  0
 15  2  1  0
 22 17  1  0
 12  3  1  0
 11  6  1  0
  4 23  1  0
  7 24  1  0
  8 25  1  0
  9 26  1  0
 10 27  1  0
 13 28  1  0
 13 29  1  0
 14 30  1  0
 14 31  1  0
 16 32  1  0
 16 33  1  0
 18 34  1  0
 19 35  1  0
 21 36  1  0
 22 37  1  0
M  CHG  1  13   1
M  END
>  <UniqueID>  (40) 
36

>  <SMILES>  (40) 
O=C1c2cnc3ccccc3c2[NH2+]CN1Cc1ccncc1

>  <Energy>  (40) 
51.94117606601484

>  <Genealogy>  (40) 
O=C1c2cnc3ccccc3c2[NH2+]CN1Cc1ccncc1 (protonated)
O=C1c2cnc3ccccc3c2[NH2+]CN1Cc1ccncc1 (3D coordinates assigned)
O=C1c2cnc3ccccc3c2[NH2+]CN1Cc1ccncc1 (nonaromatic ring conformer: 51.94117606601484 kcal/mol)

>  <smiles>  (40) 
O=C1c2cnc3ccccc3c2NCN1Cc1ccncc1

>  <score_type>  (40) 
oracle

>  <origin>  (40) 
adg

>  <m_score__min__energy>  (40) 
-7.1699999999999999

>  <m_primary>  (40) 
energy

$$$$
40:0
     RDKit          3D

 47 48  0  0  0  0  0  0  0  0999 V2000
   -5.7590   18.5010  -34.5260 C   0  0  0  0  0  0  0  0  0  0  0  0
   -6.4810   19.3330  -33.4660 C   0  0  0  0  0  0  0  0  0  0  0  0
   -7.1150   18.4670  -32.3670 C   0  0  0  0  0  0  0  0  0  0  0  0
   -8.6460   18.6080  -32.3140 C   0  0  0  0  0  0  0  0  0  0  0  0
   -9.0940   20.0850  -32.2960 C   0  0  0  0  0  0  0  0  0  0  0  0
   -8.4860   20.8950  -31.1380 C   0  0  0  0  0  0  0  0  0  0  0  0
   -8.5600   22.4130  -31.3670 C   0  0  0  0  0  0  0  0  0  0  0  0
   -7.5030   22.9030  -32.3670 C   0  0  0  0  0  0  0  0  0  0  0  0
   -6.1910   23.2050  -31.6920 C   0  0  0  0  0  0  0  0  0  0  0  0
   -5.7730   24.5240  -31.4810 C   0  0  0  0  0  0  0  0  0  0  0  0
   -4.6000   24.7710  -30.8430 N   0  0  0  0  0  0  0  0  0  0  0  0
   -3.8110   23.7570  -30.3960 C   0  0  0  0  0  0  0  0  0  0  0  0
   -2.5700   24.0270  -29.7210 N   0  0  0  0  0  0  0  0  0  0  0  0
   -2.3880   25.1090  -28.9780 N   0  0  0  0  0  0  0  0  0  0  0  0
   -1.1340   25.0660  -28.4890 C   0  0  0  0  0  0  0  0  0  0  0  0
   -0.5260   26.1440  -27.6560 C   0  0  0  0  0  0  0  0  0  0  0  0
   -0.4850   23.9360  -28.9470 C   0  0  0  0  0  0  0  0  0  0  0  0
   -1.4300   23.2940  -29.7220 C   0  0  0  0  0  0  0  0  0  0  0  0
   -1.2040   22.0050  -30.4520 C   0  0  0  0  0  0  0  0  0  0  0  0
   -4.2050   22.4690  -30.5870 N   0  0  0  0  0  0  0  0  0  0  0  0
   -5.3710   22.1750  -31.2190 C   0  0  0  0  0  0  0  0  0  0  0  0
   -5.1145   17.7583  -34.0329 H   0  0  0  0  0  0  0  0  0  0  0  0
   -6.4998   17.9843  -35.1539 H   0  0  0  0  0  0  0  0  0  0  0  0
   -5.1431   19.1617  -35.1539 H   0  0  0  0  0  0  0  0  0  0  0  0
   -5.7561   20.0174  -33.0011 H   0  0  0  0  0  0  0  0  0  0  0  0
   -7.2919   19.8813  -33.9678 H   0  0  0  0  0  0  0  0  0  0  0  0
   -6.8645   17.4134  -32.5599 H   0  0  0  0  0  0  0  0  0  0  0  0
   -6.7148   18.8082  -31.4008 H   0  0  0  0  0  0  0  0  0  0  0  0
   -9.0780   18.1173  -33.1986 H   0  0  0  0  0  0  0  0  0  0  0  0
   -8.9971   18.1367  -31.3841 H   0  0  0  0  0  0  0  0  0  0  0  0
   -8.7916   20.5525  -33.2447 H   0  0  0  0  0  0  0  0  0  0  0  0
  -10.1853   20.0911  -32.1581 H   0  0  0  0  0  0  0  0  0  0  0  0
   -9.0325   20.6522  -30.2148 H   0  0  0  0  0  0  0  0  0  0  0  0
   -7.4225   20.6231  -31.0674 H   0  0  0  0  0  0  0  0  0  0  0  0
   -9.5580   22.6640  -31.7556 H   0  0  0  0  0  0  0  0  0  0  0  0
   -8.3679   22.9086  -30.4040 H   0  0  0  0  0  0  0  0  0  0  0  0
   -7.3418   22.1227  -33.1254 H   0  0  0  0  0  0  0  0  0  0  0  0
   -7.8723   23.8315  -32.8269 H   0  0  0  0  0  0  0  0  0  0  0  0
   -6.3948   25.3607  -31.8321 H   0  0  0  0  0  0  0  0  0  0  0  0
   -0.6610   25.9046  -26.5909 H   0  0  0  0  0  0  0  0  0  0  0  0
    0.5480   26.2199  -27.8814 H   0  0  0  0  0  0  0  0  0  0  0  0
   -1.0166   27.1024  -27.8814 H   0  0  0  0  0  0  0  0  0  0  0  0
    0.5483   23.6200  -28.7413 H   0  0  0  0  0  0  0  0  0  0  0  0
   -1.0615   21.1920  -29.7249 H   0  0  0  0  0  0  0  0  0  0  0  0
   -2.0770   21.7833  -31.0835 H   0  0  0  0  0  0  0  0  0  0  0  0
   -0.3077   22.0935  -31.0835 H   0  0  0  0  0  0  0  0  0  0  0  0
   -5.6707   21.1259  -31.3590 H   0  0  0  0  0  0  0  0  0  0  0  0
  1  2  1  0
  2  3  1  0
  3  4  1  0
  4  5  1  0
  5  6  1  0
  6  7  1  0
  7  8  1  0
  8  9  1  0
  9 10  2  0
 10 11  1  0
 11 12  2  0
 12 13  1  0
 13 14  1  0
 14 15  2  0
 15 16  1  0
 15 17  1  0
 17 18  2  0
 18 19  1  0
 12 20  1  0
 20 21  2  0
 21  9  1  0
 18 13  1  0
  1 22  1  0
  1 23  1  0
  1 24  1  0
  2 25  1  0
  2 26  1  0
  3 27  1  0
  3 28  1  0
  4 29  1  0
  4 30  1  0
  5 31  1  0
  5 32  1  0
  6 33  1  0
  6 34  1  0
  7 35  1  0
  7 36  1  0
  8 37  1  0
  8 38  1  0
 10 39  1  0
 16 40  1  0
 16 41  1  0
 16 42  1  0
 17 43  1  0
 19 44  1  0
 19 45  1  0
 19 46  1  0
 21 47  1  0
M  END
>  <UniqueID>  (41) 
37

>  <SMILES>  (41) 
CCCCCCCCc1cnc(-n2nc(C)cc2C)nc1

>  <Energy>  (41) 
65.0600215249011

>  <Genealogy>  (41) 
CCCCCCCCc1cnc(-n2nc(C)cc2C)nc1 (3D coordinates assigned)
CCCCCCCCc1cnc(-n2nc(C)cc2C)nc1 (optimized conformer: 65.0600215249011 kcal/mol)

>  <smiles>  (41) 
CCCCCCCCc1cnc(-n2nc(C)cc2C)nc1

>  <score_type>  (41) 
oracle

>  <origin>  (41) 
adg

>  <m_score__min__energy>  (41) 
-7.8600000000000003

>  <m_primary>  (41) 
energy

$$$$
41:0
     RDKit          3D

 51 54  0  0  0  0  0  0  0  0999 V2000
   -0.4490   23.0110  -29.6990 C   0  0  0  0  0  0  0  0  0  0  0  0
   -1.4990   23.1170  -28.5670 C   0  0  0  0  0  0  0  0  0  0  0  0
   -1.4420   21.8040  -27.7610 C   0  0  0  0  0  0  0  0  0  0  0  0
   -1.1070   24.3190  -27.6820 C   0  0  0  0  0  0  0  0  0  0  0  0
   -2.8910   23.3300  -29.1710 C   0  0  0  0  0  0  0  0  0  0  0  0
   -3.5440   24.5180  -29.0700 N   0  0  0  0  0  0  0  0  0  0  0  0
   -4.7250   24.3090  -29.6760 C   0  0  0  0  0  0  0  0  0  0  0  0
   -5.7410   25.2510  -29.8210 C   0  0  0  0  0  0  0  0  0  0  0  0
   -6.9140   24.8520  -30.4780 C   0  0  0  0  0  0  0  0  0  0  0  0
   -7.0420   23.5360  -30.9640 C   0  0  0  0  0  0  0  0  0  0  0  0
   -8.5090   23.0330  -31.7810 Cl  0  0  0  0  0  0  0  0  0  0  0  0
   -5.9860   22.6300  -30.7860 C   0  0  0  0  0  0  0  0  0  0  0  0
   -4.8630   23.0620  -30.1490 N   0  0  0  0  0  0  0  0  0  0  0  0
   -3.7190   22.4150  -29.8510 C   0  0  0  0  0  0  0  0  0  0  0  0
   -3.4560   20.9770  -30.2350 C   0  0  0  0  0  0  0  0  0  0  0  0
   -2.4260   20.8620  -31.3410 C   0  0  0  0  0  0  0  0  0  0  0  0
   -1.1850   20.2560  -31.0770 C   0  0  0  0  0  0  0  0  0  0  0  0
   -0.2320   20.1230  -32.0820 C   0  0  0  0  0  0  0  0  0  0  0  0
   -0.5230   20.5840  -33.3620 C   0  0  0  0  0  0  0  0  0  0  0  0
   -1.7310   21.1480  -33.6280 N   0  0  0  0  0  0  0  0  0  0  0  0
   -2.6900   21.2840  -32.6680 C   0  0  0  0  0  0  0  0  0  0  0  0
   -4.2720   22.0030  -33.1470 S   0  0  0  0  0  0  0  0  0  0  0  0
   -5.0720   20.4030  -33.2700 C   0  0  0  0  0  0  0  0  0  0  0  0
   -6.4200   20.2610  -32.9180 C   0  0  0  0  0  0  0  0  0  0  0  0
   -7.0400   19.0100  -33.0070 C   0  0  0  0  0  0  0  0  0  0  0  0
   -6.3160   17.9010  -33.4570 C   0  0  0  0  0  0  0  0  0  0  0  0
   -4.9740   18.0430  -33.8200 C   0  0  0  0  0  0  0  0  0  0  0  0
   -4.3520   19.2920  -33.7300 C   0  0  0  0  0  0  0  0  0  0  0  0
    0.5545   22.9097  -29.2600 H   0  0  0  0  0  0  0  0  0  0  0  0
   -0.6678   22.1304  -30.3208 H   0  0  0  0  0  0  0  0  0  0  0  0
   -0.4874   23.9176  -30.3208 H   0  0  0  0  0  0  0  0  0  0  0  0
   -1.4520   22.0334  -26.6852 H   0  0  0  0  0  0  0  0  0  0  0  0
   -2.3140   21.1819  -28.0113 H   0  0  0  0  0  0  0  0  0  0  0  0
   -0.5194   21.2598  -28.0113 H   0  0  0  0  0  0  0  0  0  0  0  0
   -1.1983   24.0392  -26.6221 H   0  0  0  0  0  0  0  0  0  0  0  0
   -0.0678   24.6088  -27.8965 H   0  0  0  0  0  0  0  0  0  0  0  0
   -1.7756   25.1658  -27.8965 H   0  0  0  0  0  0  0  0  0  0  0  0
   -5.6270   26.2740  -29.4330 H   0  0  0  0  0  0  0  0  0  0  0  0
   -7.7369   25.5691  -30.6143 H   0  0  0  0  0  0  0  0  0  0  0  0
   -6.0634   21.5956  -31.1522 H   0  0  0  0  0  0  0  0  0  0  0  0
   -3.0892   20.4351  -29.3508 H   0  0  0  0  0  0  0  0  0  0  0  0
   -4.3988   20.5468  -30.6038 H   0  0  0  0  0  0  0  0  0  0  0  0
   -0.9653   19.8833  -30.0657 H   0  0  0  0  0  0  0  0  0  0  0  0
    0.7414   19.6582  -31.8667 H   0  0  0  0  0  0  0  0  0  0  0  0
    0.2269   20.4918  -34.1615 H   0  0  0  0  0  0  0  0  0  0  0  0
   -1.9260   21.4740  -34.6010 H   0  0  0  0  0  0  0  0  0  0  0  0
   -6.9921   21.1342  -32.5711 H   0  0  0  0  0  0  0  0  0  0  0  0
   -8.0969   18.8985  -32.7231 H   0  0  0  0  0  0  0  0  0  0  0  0
   -6.8030   16.9170  -33.5252 H   0  0  0  0  0  0  0  0  0  0  0  0
   -4.4063   17.1711  -34.1770 H   0  0  0  0  0  0  0  0  0  0  0  0
   -3.2968   19.4027  -34.0204 H   0  0  0  0  0  0  0  0  0  0  0  0
  1  2  1  0
  2  3  1  0
  2  4  1  0
  2  5  1  0
  5  6  1  0
  6  7  2  0
  7  8  1  0
  8  9  2  0
  9 10  1  0
 10 11  1  0
 10 12  2  0
 12 13  1  0
 13 14  1  0
 14 15  1  0
 15 16  1  0
 16 17  2  0
 17 18  1  0
 18 19  2  0
 19 20  1  0
 20 21  2  0
 21 22  1  0
 22 23  1  0
 23 24  2  0
 24 25  1  0
 25 26  2  0
 26 27  1  0
 27 28  2  0
 14  5  2  0
 21 16  1  0
 28 23  1  0
 13  7  1  0
  1 29  1  0
  1 30  1  0
  1 31  1  0
  3 32  1  0
  3 33  1  0
  3 34  1  0
  4 35  1  0
  4 36  1  0
  4 37  1  0
  8 38  1  0
  9 39  1  0
 12 40  1  0
 15 41  1  0
 15 42  1  0
 17 43  1  0
 18 44  1  0
 19 45  1  0
 20 46  1  0
 24 47  1  0
 25 48  1  0
 26 49  1  0
 27 50  1  0
 28 51  1  0
M  CHG  1  20   1
M  END
>  <UniqueID>  (42) 
38

>  <SMILES>  (42) 
CC(C)(C)c1nc2ccc(Cl)cn2c1Cc1ccc[nH+]c1Sc1ccccc1

>  <Energy>  (42) 
85.69790422859597

>  <Genealogy>  (42) 
CC(C)(C)c1nc2ccc(Cl)cn2c1Cc1ccc[nH+]c1Sc1ccccc1 (protonated)
CC(C)(C)c1nc2ccc(Cl)cn2c1Cc1ccc[nH+]c1Sc1ccccc1 (3D coordinates assigned)
CC(C)(C)c1nc2ccc(Cl)cn2c1Cc1ccc[nH+]c1Sc1ccccc1 (optimized conformer: 85.69790422859597 kcal/mol)

>  <smiles>  (42) 
CC(C)(C)c1nc2ccc(Cl)cn2c1Cc1cccnc1Sc1ccccc1

>  <score_type>  (42) 
oracle

>  <origin>  (42) 
adg

>  <m_score__min__energy>  (42) 
-8.6400000000000006

>  <m_primary>  (42) 
energy

$$$$
42:0
     RDKit          3D

 46 49  0  0  1  0  0  0  0  0999 V2000
   -1.9360   25.1760  -27.6280 C   0  0  0  0  0  0  0  0  0  0  0  0
   -2.3420   25.3490  -28.9840 O   0  0  0  0  0  0  0  0  0  0  0  0
   -2.7330   24.2150  -29.6900 C   0  0  0  0  0  0  0  0  0  0  0  0
   -3.9750   24.1100  -30.2940 C   0  0  0  0  0  0  0  0  0  0  0  0
   -4.3040   22.9670  -30.9770 C   0  0  0  0  0  0  0  0  0  0  0  0
   -3.4260   21.8960  -31.0870 C   0  0  0  0  0  0  0  0  0  0  0  0
   -3.7560   20.6810  -31.8040 C   0  0  0  0  0  0  0  0  0  0  0  0
   -2.9410   20.0650  -32.7340 C   0  0  0  0  0  0  0  0  0  0  0  0
   -3.6460   18.9570  -33.1550 C   0  0  0  0  0  0  0  0  0  0  0  0
   -3.3170   18.0000  -34.0600 N   0  0  0  0  0  0  0  0  0  0  0  0
   -4.1570   16.9720  -34.3440 C   0  0  0  0  0  0  0  0  0  0  0  0
   -3.7590   15.9470  -35.3380 C   0  0  0  0  0  0  0  0  0  0  0  0
   -5.3730   16.9250  -33.6800 C   0  0  0  0  0  0  0  0  0  0  0  0
   -5.6570   17.9210  -32.7720 C   0  0  0  0  0  0  0  0  0  0  0  0
   -6.7710   17.8790  -32.1630 N   0  0  0  0  0  0  0  0  0  0  0  0
   -8.0330   18.3840  -32.6750 C   0  0  0  0  0  0  0  0  0  0  0  0
   -8.1150   19.8280  -32.2540 C   0  0  0  0  0  0  0  0  0  0  0  0
   -7.3020   20.7950  -32.7920 C   0  0  0  0  0  0  0  0  0  0  0  0
   -7.3730   22.1240  -32.4090 C   0  0  0  0  0  0  0  0  0  0  0  0
   -8.2870   22.5120  -31.4520 C   0  0  0  0  0  0  0  0  0  0  0  0
   -9.1030   21.5660  -30.9040 C   0  0  0  0  0  0  0  0  0  0  0  0
   -9.0370   20.2330  -31.2850 C   0  0  0  0  0  0  0  0  0  0  0  0
   -4.8210   18.9370  -32.4950 N   0  0  0  0  0  0  0  0  0  0  0  0
   -4.9000   19.9710  -31.6780 N   0  0  0  0  0  0  0  0  0  0  0  0
   -2.1910   22.0340  -30.4700 C   0  0  0  0  0  0  0  0  0  0  0  0
   -1.8310   23.1730  -29.7770 C   0  0  0  0  0  0  0  0  0  0  0  0
   -2.7389   25.5181  -26.9584 H   0  0  0  0  0  0  0  0  0  0  0  0
   -1.7301   24.1120  -27.4398 H   0  0  0  0  0  0  0  0  0  0  0  0
   -1.0259   25.7645  -27.4398 H   0  0  0  0  0  0  0  0  0  0  0  0
   -4.6942   24.9395  -30.2262 H   0  0  0  0  0  0  0  0  0  0  0  0
   -5.2935   22.8961  -31.4523 H   0  0  0  0  0  0  0  0  0  0  0  0
   -1.9439   20.3888  -33.0671 H   0  0  0  0  0  0  0  0  0  0  0  0
   -2.4200   18.0180  -34.5610 H   0  0  0  0  0  0  0  0  0  0  0  0
   -3.4088   15.0451  -34.8146 H   0  0  0  0  0  0  0  0  0  0  0  0
   -4.6237   15.6925  -35.9686 H   0  0  0  0  0  0  0  0  0  0  0  0
   -2.9492   16.3427  -35.9686 H   0  0  0  0  0  0  0  0  0  0  0  0
   -6.0913   16.1146  -33.8730 H   0  0  0  0  0  0  0  0  0  0  0  0
   -8.0573   18.3055  -33.7719 H   0  0  0  0  0  0  0  0  0  0  0  0
   -8.8826   17.8054  -32.2833 H   0  0  0  0  0  0  0  0  0  0  0  0
   -6.5665   20.5030  -33.5561 H   0  0  0  0  0  0  0  0  0  0  0  0
   -6.7031   22.8671  -32.8663 H   0  0  0  0  0  0  0  0  0  0  0  0
   -8.3567   23.5635  -31.1367 H   0  0  0  0  0  0  0  0  0  0  0  0
   -9.8335   21.8680  -30.1390 H   0  0  0  0  0  0  0  0  0  0  0  0
   -9.7104   19.4953  -30.8242 H   0  0  0  0  0  0  0  0  0  0  0  0
   -1.4713   21.2047  -30.5353 H   0  0  0  0  0  0  0  0  0  0  0  0
   -0.8418   23.2490  -29.3020 H   0  0  0  0  0  0  0  0  0  0  0  0
  1  2  1  0
  2  3  1  0
  3  4  2  0
  4  5  1  0
  5  6  2  0
  6  7  1  0
  7  8  1  0
  8  9  2  0
  9 10  1  0
 10 11  1  0
 11 12  1  0
 11 13  2  0
 13 14  1  0
 14 15  2  0
 15 16  1  0
 16 17  1  0
 17 18  2  0
 18 19  1  0
 19 20  2  0
 20 21  1  0
 21 22  2  0
 14 23  1  0
 23 24  1  0
  6 25  1  0
 25 26  2  0
 26  3  1  0
 24  7  2  0
 23  9  1  0
 22 17  1  0
  1 27  1  0
  1 28  1  0
  1 29  1  0
  4 30  1  0
  5 31  1  0
  8 32  1  0
 10 33  1  0
 12 34  1  0
 12 35  1  0
 12 36  1  0
 13 37  1  0
 16 38  1  0
 16 39  1  0
 18 40  1  0
 19 41  1  0
 20 42  1  0
 21 43  1  0
 22 44  1  0
 25 45  1  0
 26 46  1  0
M  END
>  <smiles>  (43) 
COc1ccc(-c2cc3[nH]c(C)cc(=NCc4ccccc4)n3n2)cc1

>  <score_type>  (43) 
oracle

>  <origin>  (43) 
adg

>  <m_score__min__energy>  (43) 
-8.4199999999999999

>  <m_primary>  (43) 
energy

$$$$
43:0
     RDKit          3D

 50 53  0  0  0  0  0  0  0  0999 V2000
   -0.7260   26.5520  -23.9550 C   0  0  0  0  0  0  0  0  0  0  0  0
   -1.6750   26.2650  -24.9410 C   0  0  0  0  0  0  0  0  0  0  0  0
   -1.5540   25.0960  -25.7100 C   0  0  0  0  0  0  0  0  0  0  0  0
   -2.5690   24.7920  -26.7460 C   0  0  0  0  0  0  0  0  0  0  0  0
   -3.9210   24.5310  -26.5550 C   0  0  0  0  0  0  0  0  0  0  0  0
   -4.4490   24.3300  -27.8120 C   0  0  0  0  0  0  0  0  0  0  0  0
   -3.3920   24.4830  -28.6880 C   0  0  0  0  0  0  0  0  0  0  0  0
   -3.4630   24.4120  -30.1820 C   0  0  0  0  0  0  0  0  0  0  0  0
   -4.1920   25.5580  -30.7530 N   0  0  0  0  0  0  0  0  0  0  0  0
   -5.6620   25.4680  -30.6360 C   0  0  0  0  0  0  0  0  0  0  0  0
   -6.2070   24.1140  -31.0300 C   0  0  0  0  0  0  0  0  0  0  0  0
   -7.1650   23.4730  -30.2330 C   0  0  0  0  0  0  0  0  0  0  0  0
   -7.6090   22.1880  -30.5580 C   0  0  0  0  0  0  0  0  0  0  0  0
   -7.0940   21.5130  -31.6810 C   0  0  0  0  0  0  0  0  0  0  0  0
   -7.4960   20.1570  -31.9780 N   0  0  0  0  0  0  0  0  0  0  0  0
   -6.5720   19.2860  -32.7260 C   0  0  0  0  0  0  0  0  0  0  0  0
   -7.2090   17.9460  -33.1000 C   0  0  0  0  0  0  0  0  0  0  0  0
   -7.9510   17.4370  -32.0130 O   0  0  0  0  0  0  0  0  0  0  0  0
   -9.1060   18.2310  -31.8510 C   0  0  0  0  0  0  0  0  0  0  0  0
   -8.7480   19.6470  -31.3810 C   0  0  0  0  0  0  0  0  0  0  0  0
   -6.1610   22.1780  -32.4960 C   0  0  0  0  0  0  0  0  0  0  0  0
   -5.7300   23.4680  -32.1780 C   0  0  0  0  0  0  0  0  0  0  0  0
   -2.2910   24.7470  -28.0270 O   0  0  0  0  0  0  0  0  0  0  0  0
   -0.4690   24.2360  -25.4620 C   0  0  0  0  0  0  0  0  0  0  0  0
    0.4560   24.5580  -24.4630 C   0  0  0  0  0  0  0  0  0  0  0  0
    0.3140   25.7000  -23.7370 N   0  0  0  0  0  0  0  0  0  0  0  0
   -0.8196   27.4684  -23.3538 H   0  0  0  0  0  0  0  0  0  0  0  0
   -2.5150   26.9537  -25.1141 H   0  0  0  0  0  0  0  0  0  0  0  0
   -4.4593   24.4927  -25.5965 H   0  0  0  0  0  0  0  0  0  0  0  0
   -5.4938   24.0965  -28.0649 H   0  0  0  0  0  0  0  0  0  0  0  0
   -2.4401   24.4040  -30.5866 H   0  0  0  0  0  0  0  0  0  0  0  0
   -4.0045   23.4940  -30.4541 H   0  0  0  0  0  0  0  0  0  0  0  0
   -3.8690   26.4240  -30.2630 H   0  0  0  0  0  0  0  0  0  0  0  0
   -5.9428   25.6679  -29.5914 H   0  0  0  0  0  0  0  0  0  0  0  0
   -6.0917   26.2081  -31.3271 H   0  0  0  0  0  0  0  0  0  0  0  0
   -7.5698   23.9838  -29.3469 H   0  0  0  0  0  0  0  0  0  0  0  0
   -8.3684   21.6993  -29.9300 H   0  0  0  0  0  0  0  0  0  0  0  0
   -6.2681   19.8025  -33.6484 H   0  0  0  0  0  0  0  0  0  0  0  0
   -5.7080   19.0778  -32.0778 H   0  0  0  0  0  0  0  0  0  0  0  0
   -7.8785   18.0900  -33.9608 H   0  0  0  0  0  0  0  0  0  0  0  0
   -6.4138   17.2308  -33.3571 H   0  0  0  0  0  0  0  0  0  0  0  0
   -9.6341   18.2959  -32.8138 H   0  0  0  0  0  0  0  0  0  0  0  0
   -9.7446   17.7629  -31.0874 H   0  0  0  0  0  0  0  0  0  0  0  0
   -9.5689   20.3253  -31.6566 H   0  0  0  0  0  0  0  0  0  0  0  0
   -8.5979   19.6030  -30.2922 H   0  0  0  0  0  0  0  0  0  0  0  0
   -5.7667   21.6775  -33.3927 H   0  0  0  0  0  0  0  0  0  0  0  0
   -5.0107   23.9805  -32.8338 H   0  0  0  0  0  0  0  0  0  0  0  0
   -0.3483   23.3147  -26.0507 H   0  0  0  0  0  0  0  0  0  0  0  0
    1.3025   23.8845  -24.2634 H   0  0  0  0  0  0  0  0  0  0  0  0
    1.0140   25.9290  -22.9960 H   0  0  0  0  0  0  0  0  0  0  0  0
  1  2  2  0
  2  3  1  0
  3  4  1  0
  4  5  2  0
  5  6  1  0
  6  7  2  0
  7  8  1  0
  8  9  1  0
  9 10  1  0
 10 11  1  0
 11 12  2  0
 12 13  1  0
 13 14  2  0
 14 15  1  0
 15 16  1  0
 16 17  1  0
 17 18  1  0
 18 19  1  0
 19 20  1  0
 14 21  1  0
 21 22  2  0
  7 23  1  0
  3 24  2  0
 24 25  1  0
 25 26  2  0
 26  1  1  0
 23  4  1  0
 22 11  1  0
 20 15  1  0
  1 27  1  0
  2 28  1  0
  5 29  1  0
  6 30  1  0
  8 31  1  0
  8 32  1  0
  9 33  1  0
 10 34  1  0
 10 35  1  0
 12 36  1  0
 13 37  1  0
 16 38  1  0
 16 39  1  0
 17 40  1  0
 17 41  1  0
 19 42  1  0
 19 43  1  0
 20 44  1  0
 20 45  1  0
 21 46  1  0
 22 47  1  0
 24 48  1  0
 25 49  1  0
 26 50  1  0
M  CHG  1  26   1
M  END
>  <UniqueID>  (44) 
39

>  <SMILES>  (44) 
c1cc(-c2ccc(CNCc3ccc(N4CCOCC4)cc3)o2)cc[nH+]1

>  <Energy>  (44) 
87.42927475664398

>  <Genealogy>  (44) 
c1cc(-c2ccc(CNCc3ccc(N4CCOCC4)cc3)o2)cc[nH+]1 (protonated)
c1cc(-c2ccc(CNCc3ccc(N4CCOCC4)cc3)o2)cc[nH+]1 (3D coordinates assigned)
c1cc(-c2ccc(CNCc3ccc(N4CCOCC4)cc3)o2)cc[nH+]1 (nonaromatic ring conformer: 87.42927475664398 kcal/mol)

>  <smiles>  (44) 
c1cc(-c2ccc(CNCc3ccc(N4CCOCC4)cc3)o2)ccn1

>  <score_type>  (44) 
oracle

>  <origin>  (44) 
adg

>  <m_score__min__energy>  (44) 
-9.8800000000000008

>  <m_primary>  (44) 
energy

$$$$
44:0
     RDKit          3D

 29 31  0  0  1  0  0  0  0  0999 V2000
   -0.8910   25.5280  -27.5210 C   0  0  0  0  0  0  0  0  0  0  0  0
   -2.1540   24.8900  -28.0680 C   0  0  0  0  0  0  0  0  0  0  0  0
   -2.8940   24.1180  -27.2420 N   0  0  0  0  0  0  0  0  0  0  0  0
   -4.3130   23.5700  -28.3280 S   0  0  0  0  0  0  0  0  0  0  0  0
   -3.6580   24.4800  -29.7030 C   0  0  0  0  0  0  0  0  0  0  0  0
   -4.2170   24.5210  -30.8650 N   0  0  0  0  0  0  0  0  0  0  0  0
   -4.7320   23.2910  -31.3680 C   0  0  0  0  0  0  0  0  0  0  0  0
   -3.8670   22.2360  -31.4970 C   0  0  0  0  0  0  0  0  0  0  0  0
   -4.3300   21.0290  -31.9800 C   0  0  0  0  0  0  0  0  0  0  0  0
   -5.6640   20.8520  -32.3440 C   0  0  0  0  0  0  0  0  0  0  0  0
   -6.0780   19.5610  -32.8420 C   0  0  0  0  0  0  0  0  0  0  0  0
   -6.8150   18.6790  -32.1040 C   0  0  0  0  0  0  0  0  0  0  0  0
   -7.1960   17.4770  -32.5830 N   0  0  0  0  0  0  0  0  0  0  0  0
   -6.8130   17.1820  -33.8320 C   0  0  0  0  0  0  0  0  0  0  0  0
   -6.0900   18.0450  -34.5580 N   0  0  0  0  0  0  0  0  0  0  0  0
   -5.7250   19.2130  -34.0800 N   0  0  0  0  0  0  0  0  0  0  0  0
   -6.4850   21.9380  -32.1940 C   0  0  0  0  0  0  0  0  0  0  0  0
   -6.0610   23.1630  -31.7150 C   0  0  0  0  0  0  0  0  0  0  0  0
   -2.5620   25.0500  -29.2870 N   0  0  0  0  0  0  0  0  0  0  0  0
   -0.9195   25.5136  -26.4215 H   0  0  0  0  0  0  0  0  0  0  0  0
   -0.0139   24.9648  -27.8725 H   0  0  0  0  0  0  0  0  0  0  0  0
   -0.8238   26.5682  -27.8725 H   0  0  0  0  0  0  0  0  0  0  0  0
   -2.8094   22.3506  -31.2171 H   0  0  0  0  0  0  0  0  0  0  0  0
   -3.6298   20.1866  -32.0801 H   0  0  0  0  0  0  0  0  0  0  0  0
   -7.1086   18.9592  -31.0816 H   0  0  0  0  0  0  0  0  0  0  0  0
   -7.0972   16.2136  -34.2696 H   0  0  0  0  0  0  0  0  0  0  0  0
   -7.5439   21.8287  -32.4710 H   0  0  0  0  0  0  0  0  0  0  0  0
   -6.7592   24.0070  -31.6139 H   0  0  0  0  0  0  0  0  0  0  0  0
   -1.9900   25.6690  -29.9890 H   0  0  0  0  0  0  0  0  0  0  0  0
  1  2  1  0
  2  3  2  0
  3  4  1  0
  4  5  1  0
  5  6  2  0
  6  7  1  0
  7  8  2  0
  8  9  1  0
  9 10  2  0
 10 11  1  0
 11 12  2  0
 12 13  1  0
 13 14  2  0
 14 15  1  0
 15 16  2  0
 10 17  1  0
 17 18  2  0
  5 19  1  0
 19  2  1  0
 18  7  1  0
 16 11  1  0
  1 20  1  0
  1 21  1  0
  1 22  1  0
  8 23  1  0
  9 24  1  0
 12 25  1  0
 14 26  1  0
 17 27  1  0
 18 28  1  0
 19 29  1  0
M  END
>  <smiles>  (45) 
Cc1nsc(=Nc2ccc(-c3cncnn3)cc2)[nH]1

>  <score_type>  (45) 
oracle

>  <origin>  (45) 
adg

>  <m_score__min__energy>  (45) 
-7.8200000000000003

>  <m_primary>  (45) 
energy

$$$$
45:0
     RDKit          3D

 26 27  0  0  0  0  0  0  0  0999 V2000
   -9.1190   18.5280  -31.5960 C   0  0  0  0  0  0  0  0  0  0  0  0
   -9.1580   19.5960  -32.3930 C   0  0  0  0  0  0  0  0  0  0  0  0
   -8.2050   20.7310  -32.2860 C   0  0  0  0  0  0  0  0  0  0  0  0
   -8.6520   21.9950  -31.8510 C   0  0  0  0  0  0  0  0  0  0  0  0
   -7.7540   23.0490  -31.6770 C   0  0  0  0  0  0  0  0  0  0  0  0
   -6.3950   22.8580  -31.9210 C   0  0  0  0  0  0  0  0  0  0  0  0
   -5.9290   21.6140  -32.3450 C   0  0  0  0  0  0  0  0  0  0  0  0
   -6.8190   20.5430  -32.5370 C   0  0  0  0  0  0  0  0  0  0  0  0
   -6.2760   19.2550  -33.0310 C   0  0  0  0  0  0  0  0  0  0  0  0
   -5.9500   18.2260  -32.1300 C   0  0  0  0  0  0  0  0  0  0  0  0
   -5.4520   17.0070  -32.6020 C   0  0  0  0  0  0  0  0  0  0  0  0
   -5.2840   16.8030  -33.9740 C   0  0  0  0  0  0  0  0  0  0  0  0
   -5.6160   17.8170  -34.8770 C   0  0  0  0  0  0  0  0  0  0  0  0
   -6.1130   19.0360  -34.4100 C   0  0  0  0  0  0  0  0  0  0  0  0
   -9.8529   17.7188  -31.7245 H   0  0  0  0  0  0  0  0  0  0  0  0
   -8.3529   18.4560  -30.8099 H   0  0  0  0  0  0  0  0  0  0  0  0
   -9.9357   19.6392  -33.1698 H   0  0  0  0  0  0  0  0  0  0  0  0
   -9.7212   22.1525  -31.6463 H   0  0  0  0  0  0  0  0  0  0  0  0
   -8.1194   24.0325  -31.3466 H   0  0  0  0  0  0  0  0  0  0  0  0
   -5.6892   23.6897  -31.7789 H   0  0  0  0  0  0  0  0  0  0  0  0
   -4.8545   21.4694  -32.5310 H   0  0  0  0  0  0  0  0  0  0  0  0
   -6.0871   18.3802  -31.0495 H   0  0  0  0  0  0  0  0  0  0  0  0
   -5.1923   16.2079  -31.8920 H   0  0  0  0  0  0  0  0  0  0  0  0
   -4.8905   15.8445  -34.3435 H   0  0  0  0  0  0  0  0  0  0  0  0
   -5.4857   17.6547  -35.9571 H   0  0  0  0  0  0  0  0  0  0  0  0
   -6.3782   19.8287  -35.1250 H   0  0  0  0  0  0  0  0  0  0  0  0
  1  2  2  0
  2  3  1  0
  3  4  2  0
  4  5  1  0
  5  6  2  0
  6  7  1  0
  7  8  2  0
  8  9  1  0
  9 10  2  0
 10 11  1  0
 11 12  2  0
 12 13  1  0
 13 14  2  0
  8  3  1  0
 14  9  1  0
  1 15  1  0
  1 16  1  0
  2 17  1  0
  4 18  1  0
  5 19  1  0
  6 20  1  0
  7 21  1  0
 10 22  1  0
 11 23  1  0
 12 24  1  0
 13 25  1  0
 14 26  1  0
M  END
>  <UniqueID>  (46) 
40

>  <SMILES>  (46) 
C=Cc1ccccc1-c1ccccc1

>  <Energy>  (46) 
36.47347975609276

>  <Genealogy>  (46) 
C=Cc1ccccc1-c1ccccc1 (3D coordinates assigned)
C=Cc1ccccc1-c1ccccc1 (optimized conformer: 36.47347975609276 kcal/mol)

>  <smiles>  (46) 
C=Cc1ccccc1-c1ccccc1

>  <score_type>  (46) 
oracle

>  <origin>  (46) 
adg

>  <m_score__min__energy>  (46) 
-6.6699999999999999

>  <m_primary>  (46) 
energy

$$$$
46:0
     RDKit          3D

 46 49  0  0  0  0  0  0  0  0999 V2000
   -0.2500   19.6740  -32.7860 C   0  0  0  0  0  0  0  0  0  0  0  0
   -1.2440   19.1100  -33.5920 C   0  0  0  0  0  0  0  0  0  0  0  0
   -2.4490   19.7880  -33.7920 C   0  0  0  0  0  0  0  0  0  0  0  0
   -2.6750   21.0250  -33.1700 C   0  0  0  0  0  0  0  0  0  0  0  0
   -4.2360   21.8830  -33.4390 S   0  0  0  0  0  0  0  0  0  0  0  0
   -5.2950   21.0580  -32.1360 C   0  0  0  0  0  0  0  0  0  0  0  0
   -6.7480   21.5710  -32.1620 C   0  0  0  0  0  0  0  0  0  0  0  0
   -7.0150   22.9600  -32.1230 C   0  0  0  0  0  0  0  0  0  0  0  0
   -8.3260   23.4400  -32.0540 C   0  0  0  0  0  0  0  0  0  0  0  0
   -9.3940   22.5480  -31.9670 C   0  0  0  0  0  0  0  0  0  0  0  0
   -9.1510   21.1770  -31.9250 C   0  0  0  0  0  0  0  0  0  0  0  0
   -7.8420   20.6920  -31.9940 C   0  0  0  0  0  0  0  0  0  0  0  0
   -4.5700   21.3000  -30.7920 C   0  0  0  0  0  0  0  0  0  0  0  0
   -3.5640   20.4020  -30.3680 C   0  0  0  0  0  0  0  0  0  0  0  0
   -2.8360   20.6380  -29.1990 C   0  0  0  0  0  0  0  0  0  0  0  0
   -3.0680   21.7910  -28.4500 C   0  0  0  0  0  0  0  0  0  0  0  0
   -4.0150   22.7200  -28.8780 C   0  0  0  0  0  0  0  0  0  0  0  0
   -4.7470   22.4900  -30.0460 C   0  0  0  0  0  0  0  0  0  0  0  0
   -5.4120   19.5520  -32.4430 C   0  0  0  0  0  0  0  0  0  0  0  0
   -5.7250   18.6280  -31.4180 C   0  0  0  0  0  0  0  0  0  0  0  0
   -5.9060   17.2720  -31.7020 C   0  0  0  0  0  0  0  0  0  0  0  0
   -5.8180   16.8140  -33.0160 C   0  0  0  0  0  0  0  0  0  0  0  0
   -5.5680   17.7130  -34.0510 C   0  0  0  0  0  0  0  0  0  0  0  0
   -5.3860   19.0710  -33.7730 C   0  0  0  0  0  0  0  0  0  0  0  0
   -1.6630   21.6010  -32.3900 C   0  0  0  0  0  0  0  0  0  0  0  0
   -0.4580   20.9220  -32.1910 C   0  0  0  0  0  0  0  0  0  0  0  0
    0.6950   19.1360  -32.6202 H   0  0  0  0  0  0  0  0  0  0  0  0
   -1.0771   18.1327  -34.0684 H   0  0  0  0  0  0  0  0  0  0  0  0
   -3.2232   19.3504  -34.4394 H   0  0  0  0  0  0  0  0  0  0  0  0
   -6.1779   23.6732  -32.1474 H   0  0  0  0  0  0  0  0  0  0  0  0
   -8.5154   24.5235  -32.0684 H   0  0  0  0  0  0  0  0  0  0  0  0
  -10.4264   22.9261  -31.9316 H   0  0  0  0  0  0  0  0  0  0  0  0
   -9.9922   20.4737  -31.8372 H   0  0  0  0  0  0  0  0  0  0  0  0
   -7.6605   19.6099  -31.9164 H   0  0  0  0  0  0  0  0  0  0  0  0
   -3.3512   19.5043  -30.9671 H   0  0  0  0  0  0  0  0  0  0  0  0
   -2.0780   19.9125  -28.8688 H   0  0  0  0  0  0  0  0  0  0  0  0
   -2.5042   21.9673  -27.5221 H   0  0  0  0  0  0  0  0  0  0  0  0
   -4.1866   23.6367  -28.2947 H   0  0  0  0  0  0  0  0  0  0  0  0
   -5.4704   23.2437  -30.3903 H   0  0  0  0  0  0  0  0  0  0  0  0
   -5.8274   18.9827  -30.3818 H   0  0  0  0  0  0  0  0  0  0  0  0
   -6.1184   16.5642  -30.8872 H   0  0  0  0  0  0  0  0  0  0  0  0
   -5.9458   15.7437  -33.2355 H   0  0  0  0  0  0  0  0  0  0  0  0
   -5.5137   17.3533  -35.0891 H   0  0  0  0  0  0  0  0  0  0  0  0
   -5.2201   19.7760  -34.6009 H   0  0  0  0  0  0  0  0  0  0  0  0
   -1.8176   22.5898  -31.9335 H   0  0  0  0  0  0  0  0  0  0  0  0
    0.3280   21.3700  -31.5653 H   0  0  0  0  0  0  0  0  0  0  0  0
  1  2  2  0
  2  3  1  0
  3  4  2  0
  4  5  1  0
  5  6  1  0
  6  7  1  0
  7  8  2  0
  8  9  1  0
  9 10  2  0
 10 11  1  0
 11 12  2  0
  6 13  1  0
 13 14  2  0
 14 15  1  0
 15 16  2  0
 16 17  1  0
 17 18  2  0
  6 19  1  0
 19 20  2  0
 20 21  1  0
 21 22  2  0
 22 23  1  0
 23 24  2  0
  4 25  1  0
 25 26  2  0
 26  1  1  0
 12  7  1  0
 18 13  1  0
 24 19  1  0
  1 27  1  0
  2 28  1  0
  3 29  1  0
  8 30  1  0
  9 31  1  0
 10 32  1  0
 11 33  1  0
 12 34  1  0
 14 35  1  0
 15 36  1  0
 16 37  1  0
 17 38  1  0
 18 39  1  0
 20 40  1  0
 21 41  1  0
 22 42  1  0
 23 43  1  0
 24 44  1  0
 25 45  1  0
 26 46  1  0
M  END
>  <UniqueID>  (47) 
41

>  <SMILES>  (47) 
c1ccc(SC(c2ccccc2)(c2ccccc2)c2ccccc2)cc1

>  <Energy>  (47) 
63.80318082798045

>  <Genealogy>  (47) 
c1ccc(SC(c2ccccc2)(c2ccccc2)c2ccccc2)cc1 (3D coordinates assigned)
c1ccc(SC(c2ccccc2)(c2ccccc2)c2ccccc2)cc1 (optimized conformer: 63.80318082798045 kcal/mol)

>  <smiles>  (47) 
c1ccc(SC(c2ccccc2)(c2ccccc2)c2ccccc2)cc1

>  <score_type>  (47) 
oracle

>  <origin>  (47) 
adg

>  <m_score__min__energy>  (47) 
-7.8099999999999996

>  <m_primary>  (47) 
energy

$$$$
47:0
     RDKit          3D

 41 44  0  0  0  0  0  0  0  0999 V2000
   -3.8580   24.1660  -27.7830 C   0  0  0  0  0  0  0  0  0  0  0  0
   -3.3310   23.8410  -29.1110 N   0  0  0  0  0  0  0  0  0  0  0  0
   -2.1180   23.0270  -29.2560 C   0  0  0  0  0  0  0  0  0  0  0  0
   -2.0920   21.9200  -28.2320 C   0  0  0  0  0  0  0  0  0  0  0  0
   -2.8650   20.7650  -28.4360 C   0  0  0  0  0  0  0  0  0  0  0  0
   -2.8350   19.7210  -27.5060 C   0  0  0  0  0  0  0  0  0  0  0  0
   -2.0320   19.8210  -26.3680 C   0  0  0  0  0  0  0  0  0  0  0  0
   -1.2580   20.9640  -26.1570 C   0  0  0  0  0  0  0  0  0  0  0  0
   -1.2830   22.0120  -27.0840 C   0  0  0  0  0  0  0  0  0  0  0  0
   -0.5190   23.1110  -26.8570 F   0  0  0  0  0  0  0  0  0  0  0  0
   -4.0970   24.1940  -30.2730 C   0  0  0  0  0  0  0  0  0  0  0  0
   -3.8960   25.3020  -30.8390 O   0  0  0  0  0  0  0  0  0  0  0  0
   -5.1210   23.2850  -30.8130 C   0  0  0  0  0  0  0  0  0  0  0  0
   -4.9030   21.9960  -31.2940 C   0  0  0  0  0  0  0  0  0  0  0  0
   -6.0830   21.3590  -31.7130 C   0  0  0  0  0  0  0  0  0  0  0  0
   -7.2160   22.1450  -31.5370 C   0  0  0  0  0  0  0  0  0  0  0  0
   -6.7710   23.6290  -30.8880 S   0  0  0  0  0  0  0  0  0  0  0  0
   -8.5930   21.7310  -31.9410 C   0  0  0  0  0  0  0  0  0  0  0  0
   -8.8490   19.9930  -31.4510 S   0  0  0  0  0  0  0  0  0  0  0  0
   -7.4230   19.3530  -32.3620 C   0  0  0  0  0  0  0  0  0  0  0  0
   -7.5610   18.1580  -33.0780 C   0  0  0  0  0  0  0  0  0  0  0  0
   -6.4550   17.5870  -33.7130 C   0  0  0  0  0  0  0  0  0  0  0  0
   -5.2080   18.2130  -33.6440 C   0  0  0  0  0  0  0  0  0  0  0  0
   -5.0640   19.4210  -32.9550 C   0  0  0  0  0  0  0  0  0  0  0  0
   -6.1710   20.0070  -32.3140 C   0  0  0  0  0  0  0  0  0  0  0  0
   -3.1898   23.7539  -27.0124 H   0  0  0  0  0  0  0  0  0  0  0  0
   -3.9185   25.2585  -27.6698 H   0  0  0  0  0  0  0  0  0  0  0  0
   -4.8613   23.7296  -27.6698 H   0  0  0  0  0  0  0  0  0  0  0  0
   -2.0971   22.5869  -30.2639 H   0  0  0  0  0  0  0  0  0  0  0  0
   -1.2398   23.6713  -29.1020 H   0  0  0  0  0  0  0  0  0  0  0  0
   -3.4974   20.6813  -29.3322 H   0  0  0  0  0  0  0  0  0  0  0  0
   -3.4445   18.8203  -27.6711 H   0  0  0  0  0  0  0  0  0  0  0  0
   -2.0091   18.9990  -25.6374 H   0  0  0  0  0  0  0  0  0  0  0  0
   -0.6268   21.0408  -25.2594 H   0  0  0  0  0  0  0  0  0  0  0  0
   -3.9098   21.5256  -31.3409 H   0  0  0  0  0  0  0  0  0  0  0  0
   -9.3340   22.3701  -31.4386 H   0  0  0  0  0  0  0  0  0  0  0  0
   -8.7110   21.8345  -33.0297 H   0  0  0  0  0  0  0  0  0  0  0  0
   -8.5433   17.6669  -33.1409 H   0  0  0  0  0  0  0  0  0  0  0  0
   -6.5663   16.6437  -34.2678 H   0  0  0  0  0  0  0  0  0  0  0  0
   -4.3364   17.7539  -34.1334 H   0  0  0  0  0  0  0  0  0  0  0  0
   -4.0820   19.9149  -32.9139 H   0  0  0  0  0  0  0  0  0  0  0  0
  1  2  1  0
  2  3  1  0
  3  4  1  0
  4  5  2  0
  5  6  1  0
  6  7  2  0
  7  8  1  0
  8  9  2  0
  9 10  1  0
  2 11  1  0
 11 12  2  0
 11 13  1  0
 13 14  2  0
 14 15  1  0
 15 16  2  0
 16 17  1  0
 16 18  1  0
 18 19  1  0
 19 20  1  0
 20 21  2  0
 21 22  1  0
 22 23  2  0
 23 24  1  0
 24 25  2  0
  9  4  1  0
 17 13  1  0
 25 20  1  0
 25 15  1  0
  1 26  1  0
  1 27  1  0
  1 28  1  0
  3 29  1  0
  3 30  1  0
  5 31  1  0
  6 32  1  0
  7 33  1  0
  8 34  1  0
 14 35  1  0
 18 36  1  0
 18 37  1  0
 21 38  1  0
 22 39  1  0
 23 40  1  0
 24 41  1  0
M  END
>  <UniqueID>  (48) 
42

>  <SMILES>  (48) 
CN(Cc1ccccc1F)C(=O)c1cc2c(s1)CSc1ccccc1-2

>  <Energy>  (48) 
81.31605697001812

>  <Genealogy>  (48) 
CN(Cc1ccccc1F)C(=O)c1cc2c(s1)CSc1ccccc1-2 (3D coordinates assigned)
CN(Cc1ccccc1F)C(=O)c1cc2c(s1)CSc1ccccc1-2 (nonaromatic ring conformer: 81.31605697001812 kcal/mol)

>  <smiles>  (48) 
CN(Cc1ccccc1F)C(=O)c1cc2c(s1)CSc1ccccc1-2

>  <score_type>  (48) 
oracle

>  <origin>  (48) 
adg

>  <m_score__min__energy>  (48) 
-10.32

>  <m_primary>  (48) 
energy

$$$$
48:0
     RDKit          3D

 61 66  0  0  1  0  0  0  0  0999 V2000
    0.1520   18.7410  -30.4030 O   0  0  0  0  0  0  0  0  0  0  0  0
   -0.4760   19.1460  -31.4370 C   0  0  0  0  0  0  0  0  0  0  0  0
   -0.4660   20.4060  -31.9280 N   0  0  0  0  0  0  0  0  0  0  0  0
   -1.2570   20.4330  -33.0360 C   0  0  0  0  0  0  0  0  0  0  0  0
   -1.5430   21.5120  -33.8630 O   0  0  0  0  0  0  0  0  0  0  0  0
   -1.7450   19.1530  -33.2000 C   0  0  0  0  0  0  0  0  0  0  0  0
   -2.6360   18.6210  -34.2250 C   0  0  0  0  0  0  0  0  0  0  0  0
   -5.0540   21.8690  -32.4930 C   0  0  0  0  0  0  0  0  0  0  0  0
   -6.3960   21.5540  -32.5660 C   0  0  0  0  0  0  0  0  0  0  0  0
   -6.1020   18.3100  -34.1660 N   0  0  0  0  0  0  0  0  0  0  0  0
   -5.9850   19.4960  -33.5940 N   0  0  0  0  0  0  0  0  0  0  0  0
   -6.8740   20.3810  -33.1090 C   0  0  0  0  0  0  0  0  0  0  0  0
   -8.2610   20.1330  -33.1430 N   0  0  0  0  0  0  0  0  0  0  0  0
   -9.1520   20.2610  -32.0230 C   0  0  0  0  0  0  0  0  0  0  0  0
   -8.7750   21.1460  -30.8430 C   0  0  0  0  0  0  0  0  0  0  0  0
   -9.8600   21.5540  -31.8050 C   0  0  0  0  0  0  0  0  0  0  0  0
   -4.8840   17.8300  -34.4740 C   0  0  0  0  0  0  0  0  0  0  0  0
   -3.9450   18.7570  -34.0790 C   0  0  0  0  0  0  0  0  0  0  0  0
   -4.6470   22.9590  -31.9870 N   0  0  0  0  0  0  0  0  0  0  0  0
   -3.6900   22.9830  -30.9590 C   0  0  0  0  0  0  0  0  0  0  0  0
   -4.0040   23.4560  -29.6830 C   0  0  0  0  0  0  0  0  0  0  0  0
   -3.0680   23.4820  -28.6700 C   0  0  0  0  0  0  0  0  0  0  0  0
   -1.7870   23.0320  -28.9160 C   0  0  0  0  0  0  0  0  0  0  0  0
   -0.8230   23.0830  -27.7880 C   0  0  0  0  0  0  0  0  0  0  0  0
   -0.4800   21.7430  -27.3530 N   0  0  0  0  0  0  0  0  0  0  0  0
    0.2730   21.0300  -28.3380 C   0  0  0  0  0  0  0  0  0  0  0  0
    0.6190   19.6780  -27.7510 C   0  0  0  0  0  0  0  0  0  0  0  0
   -0.6020   18.8970  -27.6830 N   0  0  0  0  0  0  0  0  0  0  0  0
   -1.7840   19.7130  -27.8190 C   0  0  0  0  0  0  0  0  0  0  0  0
   -1.6610   20.9980  -27.0350 C   0  0  0  0  0  0  0  0  0  0  0  0
   -1.4770   22.5770  -30.1360 N   0  0  0  0  0  0  0  0  0  0  0  0
   -2.3770   22.5480  -31.1210 C   0  0  0  0  0  0  0  0  0  0  0  0
   -4.2020   20.9400  -32.9980 N   0  0  0  0  0  0  0  0  0  0  0  0
   -4.6680   19.7950  -33.5270 C   0  0  0  0  0  0  0  0  0  0  0  0
   -1.2530   18.3650  -32.2020 N   0  0  0  0  0  0  0  0  0  0  0  0
    0.0620   21.2370  -31.5260 H   0  0  0  0  0  0  0  0  0  0  0  0
   -2.5050   21.5740  -34.2160 H   0  0  0  0  0  0  0  0  0  0  0  0
   -2.2250   18.1124  -35.1096 H   0  0  0  0  0  0  0  0  0  0  0  0
   -7.1229   22.2781  -32.1695 H   0  0  0  0  0  0  0  0  0  0  0  0
   -8.7100   19.8260  -34.0580 H   0  0  0  0  0  0  0  0  0  0  0  0
   -9.4556   19.2094  -32.1327 H   0  0  0  0  0  0  0  0  0  0  0  0
   -9.0313   20.8397  -29.8181 H   0  0  0  0  0  0  0  0  0  0  0  0
   -7.8458   21.6016  -30.4701 H   0  0  0  0  0  0  0  0  0  0  0  0
  -10.9100   21.5542  -31.4772 H   0  0  0  0  0  0  0  0  0  0  0  0
  -10.0483   22.4442  -32.4231 H   0  0  0  0  0  0  0  0  0  0  0  0
   -4.6741   16.8645  -34.9575 H   0  0  0  0  0  0  0  0  0  0  0  0
   -5.0232   23.8169  -29.4807 H   0  0  0  0  0  0  0  0  0  0  0  0
   -3.3409   23.8588  -27.6732 H   0  0  0  0  0  0  0  0  0  0  0  0
    0.0899   23.6024  -28.1150 H   0  0  0  0  0  0  0  0  0  0  0  0
   -1.2857   23.6224  -26.9484 H   0  0  0  0  0  0  0  0  0  0  0  0
   -0.3279   20.9013  -29.2503 H   0  0  0  0  0  0  0  0  0  0  0  0
    1.1857   21.5830  -28.6050 H   0  0  0  0  0  0  0  0  0  0  0  0
    1.3534   19.1687  -28.3923 H   0  0  0  0  0  0  0  0  0  0  0  0
    1.0557   19.7954  -26.7483 H   0  0  0  0  0  0  0  0  0  0  0  0
   -0.6040   18.2060  -28.4720 H   0  0  0  0  0  0  0  0  0  0  0  0
   -1.9311   19.9552  -28.8819 H   0  0  0  0  0  0  0  0  0  0  0  0
   -2.6414   19.1480  -27.4245 H   0  0  0  0  0  0  0  0  0  0  0  0
   -2.5385   21.6249  -27.2517 H   0  0  0  0  0  0  0  0  0  0  0  0
   -1.5991   20.7265  -25.9708 H   0  0  0  0  0  0  0  0  0  0  0  0
   -2.0681   22.1635  -32.1042 H   0  0  0  0  0  0  0  0  0  0  0  0
   -1.4400   17.3460  -32.0550 H   0  0  0  0  0  0  0  0  0  0  0  0
  1  2  2  0
  2  3  1  0
  3  4  1  0
  4  5  1  0
  4  6  2  0
  6  7  1  0
  7  8  2  0
  8  9  1  0
  9 10  2  0
 10 11  1  0
 11 12  1  0
 12 13  1  0
 13 14  1  0
 14 15  1  0
 15 16  1  0
 12 17  2  0
 17 18  1  0
 18 19  2  0
 19 20  1  0
 20 21  2  0
 21 22  1  0
 22 23  2  0
 23 24  1  0
 24 25  1  0
 25 26  1  0
 26 27  1  0
 27 28  1  0
 28 29  1  0
 29 30  1  0
 23 31  1  0
 31 32  2  0
 18 33  1  0
 33 34  2  0
  6 35  1  0
 35  2  1  0
 34  8  1  0
 34 11  1  0
 16 14  1  0
 32 20  1  0
 30 25  1  0
  3 36  1  0
  5 37  1  0
  7 38  1  0
  9 39  1  0
 13 40  1  0
 14 41  1  0
 15 42  1  0
 15 43  1  0
 16 44  1  0
 16 45  1  0
 17 46  1  0
 21 47  1  0
 22 48  1  0
 24 49  1  0
 24 50  1  0
 26 51  1  0
 26 52  1  0
 27 53  1  0
 27 54  1  0
 28 55  1  0
 29 56  1  0
 29 57  1  0
 30 58  1  0
 30 59  1  0
 32 60  1  0
 35 61  1  0
M  END
>  <smiles>  (49) 
O=c1[nH]c(O)c(C=c2cnn3c(NC4CC4)cc(=Nc4ccc(CN5CCNCC5)nc4)nc23)[nH]1

>  <score_type>  (49) 
oracle

>  <origin>  (49) 
adg

>  <m_score__min__energy>  (49) 
-10.210000000000001

>  <m_primary>  (49) 
energy

$$$$
