0:0
     RDKit          3D

 42 44  0  0  0  0  0  0  0  0999 V2000
   -9.0500   18.5290  -31.6670 C   0  0  0  0  0  0  0  0  0  0  0  0
   -8.9650   19.6320  -32.7140 C   0  0  0  0  0  0  0  0  0  0  0  0
   -7.6360   20.2430  -32.7040 N   0  0  0  0  0  0  0  0  0  0  0  0
   -6.5610   19.8110  -33.4050 C   0  0  0  0  0  0  0  0  0  0  0  0
   -5.4670   20.6390  -33.1830 C   0  0  0  0  0  0  0  0  0  0  0  0
   -5.9190   21.6140  -32.3190 C   0  0  0  0  0  0  0  0  0  0  0  0
   -5.2510   22.6990  -31.7600 C   0  0  0  0  0  0  0  0  0  0  0  0
   -5.9760   23.5540  -30.9040 C   0  0  0  0  0  0  0  0  0  0  0  0
   -5.1910   24.9530  -30.1760 S   0  0  0  0  0  0  0  0  0  0  0  0
   -5.4590   24.9880  -28.6970 O   0  0  0  0  0  0  0  0  0  0  0  0
   -5.7440   26.2070  -30.7920 O   0  0  0  0  0  0  0  0  0  0  0  0
   -3.4800   24.8820  -30.4660 N   0  0  0  0  0  0  0  0  0  0  0  0
   -2.9070   23.6530  -29.9090 C   0  0  0  0  0  0  0  0  0  0  0  0
   -1.5310   23.9440  -29.3110 C   0  0  0  0  0  0  0  0  0  0  0  0
   -1.6500   24.7580  -28.0470 C   0  0  0  0  0  0  0  0  0  0  0  0
   -2.7160   24.5360  -27.1590 C   0  0  0  0  0  0  0  0  0  0  0  0
   -2.8410   25.3120  -26.0030 C   0  0  0  0  0  0  0  0  0  0  0  0
   -1.9120   26.3180  -25.7300 C   0  0  0  0  0  0  0  0  0  0  0  0
   -0.8610   26.5600  -26.6190 C   0  0  0  0  0  0  0  0  0  0  0  0
   -0.7300   25.7860  -27.7770 C   0  0  0  0  0  0  0  0  0  0  0  0
   -7.3460   23.3010  -30.6480 C   0  0  0  0  0  0  0  0  0  0  0  0
   -7.9890   22.1890  -31.2210 C   0  0  0  0  0  0  0  0  0  0  0  0
   -7.2390   21.3560  -32.0540 C   0  0  0  0  0  0  0  0  0  0  0  0
   -9.0157   18.9743  -30.6617 H   0  0  0  0  0  0  0  0  0  0  0  0
   -9.9933   17.9771  -31.7916 H   0  0  0  0  0  0  0  0  0  0  0  0
   -8.2024   17.8391  -31.7916 H   0  0  0  0  0  0  0  0  0  0  0  0
   -9.1596   19.2037  -33.7083 H   0  0  0  0  0  0  0  0  0  0  0  0
   -9.7141   20.4032  -32.4816 H   0  0  0  0  0  0  0  0  0  0  0  0
   -6.5545   18.9270  -34.0596 H   0  0  0  0  0  0  0  0  0  0  0  0
   -4.4566   20.5381  -33.6061 H   0  0  0  0  0  0  0  0  0  0  0  0
   -4.1891   22.8844  -31.9791 H   0  0  0  0  0  0  0  0  0  0  0  0
   -3.5714   23.2646  -29.1230 H   0  0  0  0  0  0  0  0  0  0  0  0
   -2.8027   22.9069  -30.7105 H   0  0  0  0  0  0  0  0  0  0  0  0
   -1.0311   22.9919  -29.0795 H   0  0  0  0  0  0  0  0  0  0  0  0
   -0.9460   24.5194  -30.0436 H   0  0  0  0  0  0  0  0  0  0  0  0
   -3.4542   23.7494  -27.3740 H   0  0  0  0  0  0  0  0  0  0  0  0
   -3.6730   25.1297  -25.3069 H   0  0  0  0  0  0  0  0  0  0  0  0
   -2.0074   26.9205  -24.8146 H   0  0  0  0  0  0  0  0  0  0  0  0
   -0.1360   27.3599  -26.4079 H   0  0  0  0  0  0  0  0  0  0  0  0
    0.0948   25.9823  -28.4778 H   0  0  0  0  0  0  0  0  0  0  0  0
   -7.9126   23.9808  -29.9947 H   0  0  0  0  0  0  0  0  0  0  0  0
   -9.0503   21.9818  -31.0191 H   0  0  0  0  0  0  0  0  0  0  0  0
  1  2  1  0
  2  3  1  0
  3  4  1  0
  4  5  2  0
  5  6  1  0
  6  7  2  0
  7  8  1  0
  8  9  1  0
  9 10  2  0
  9 11  2  0
  9 12  1  0
 12 13  1  0
 13 14  1  0
 14 15  1  0
 15 16  2  0
 16 17  1  0
 17 18  2  0
 18 19  1  0
 19 20  2  0
  8 21  2  0
 21 22  1  0
 22 23  2  0
 23  3  1  0
 23  6  1  0
 20 15  1  0
  1 24  1  0
  1 25  1  0
  1 26  1  0
  2 27  1  0
  2 28  1  0
  4 29  1  0
  5 30  1  0
  7 31  1  0
 13 32  1  0
 13 33  1  0
 14 34  1  0
 14 35  1  0
 16 36  1  0
 17 37  1  0
 18 38  1  0
 19 39  1  0
 20 40  1  0
 21 41  1  0
 22 42  1  0
M  CHG  1  12  -1
M  END
>  <UniqueID>  (1) 
1

>  <SMILES>  (1) 
CCn1ccc2cc(S(=O)(=O)[N-]CCc3ccccc3)ccc21

>  <Energy>  (1) 
65.54642249840441

>  <Genealogy>  (1) 
CCn1ccc2cc(S(=O)(=O)[N-]CCc3ccccc3)ccc21 (protonated)
CCn1ccc2cc(S(=O)(=O)[N-]CCc3ccccc3)ccc21 (3D coordinates assigned)
CCn1ccc2cc(S(=O)(=O)[N-]CCc3ccccc3)ccc21 (optimized conformer: 65.54642249840441 kcal/mol)

>  <smiles>  (1) 
CCn1ccc2cc(S(=O)(=O)NCCc3ccccc3)ccc21

>  <score_type>  (1) 
oracle

>  <origin>  (1) 
adg

>  <m_score__min__energy>  (1) 
-10.17

>  <m_primary>  (1) 
energy

$$$$
1:0
     RDKit          3D

 58 62  0  0  0  0  0  0  0  0999 V2000
    2.4970   25.8580  -24.6700 C   0  0  0  0  0  0  0  0  0  0  0  0
    2.6260   26.9050  -23.6060 C   0  0  0  0  0  0  0  0  0  0  0  0
    3.8260   27.0710  -22.9860 N   0  0  0  0  0  0  0  0  0  0  0  0
    4.0000   28.0050  -22.0150 C   0  0  0  0  0  0  0  0  0  0  0  0
    2.9280   28.8130  -21.6410 C   0  0  0  0  0  0  0  0  0  0  0  0
    1.7270   28.6640  -22.2580 N   0  0  0  0  0  0  0  0  0  0  0  0
    1.5490   27.7390  -23.2430 C   0  0  0  0  0  0  0  0  0  0  0  0
    0.2680   27.6210  -23.8770 N   0  0  0  0  0  0  0  0  0  0  0  0
   -0.1010   28.5570  -24.9440 C   0  0  0  0  0  0  0  0  0  0  0  0
   -0.5290   27.7840  -26.1970 C   0  0  0  0  0  0  0  0  0  0  0  0
   -1.3910   26.6390  -25.8620 N   0  0  0  0  0  0  0  0  0  0  0  0
   -1.7440   25.6910  -26.8880 C   0  0  0  0  0  0  0  0  0  0  0  0
   -0.8870   25.4700  -27.9780 C   0  0  0  0  0  0  0  0  0  0  0  0
   -1.2330   24.5570  -28.9790 C   0  0  0  0  0  0  0  0  0  0  0  0
   -2.4490   23.8530  -28.9120 C   0  0  0  0  0  0  0  0  0  0  0  0
   -2.8070   22.9020  -29.9330 N   0  0  0  0  0  0  0  0  0  0  0  0
   -2.3500   21.6370  -30.0790 C   0  0  0  0  0  0  0  0  0  0  0  0
   -2.8920   21.0320  -31.1580 N   0  0  0  0  0  0  0  0  0  0  0  0
   -3.7200   21.9120  -31.6990 N   0  0  0  0  0  0  0  0  0  0  0  0
   -4.4740   21.6880  -32.9280 C   0  0  0  0  0  0  0  0  0  0  0  0
   -5.7140   20.8940  -32.6300 C   0  0  0  0  0  0  0  0  0  0  0  0
   -6.9040   21.5500  -32.2730 C   0  0  0  0  0  0  0  0  0  0  0  0
   -8.0470   20.8100  -31.9550 C   0  0  0  0  0  0  0  0  0  0  0  0
   -8.0080   19.4130  -31.9810 C   0  0  0  0  0  0  0  0  0  0  0  0
   -9.1170   18.6980  -31.6700 F   0  0  0  0  0  0  0  0  0  0  0  0
   -6.8240   18.7530  -32.3230 C   0  0  0  0  0  0  0  0  0  0  0  0
   -5.6780   19.4900  -32.6410 C   0  0  0  0  0  0  0  0  0  0  0  0
   -3.6610   23.0370  -30.9660 C   0  0  0  0  0  0  0  0  0  0  0  0
   -4.3410   24.0720  -31.2040 O   0  0  0  0  0  0  0  0  0  0  0  0
   -3.3050   24.0770  -27.8210 C   0  0  0  0  0  0  0  0  0  0  0  0
   -2.9590   24.9900  -26.8220 C   0  0  0  0  0  0  0  0  0  0  0  0
   -1.8150   26.4280  -24.4700 C   0  0  0  0  0  0  0  0  0  0  0  0
   -0.5950   26.4780  -23.5490 C   0  0  0  0  0  0  0  0  0  0  0  0
    2.3754   24.8708  -24.2002 H   0  0  0  0  0  0  0  0  0  0  0  0
    1.6191   26.0771  -25.2955 H   0  0  0  0  0  0  0  0  0  0  0  0
    3.4019   25.8574  -25.2955 H   0  0  0  0  0  0  0  0  0  0  0  0
    4.9792   28.1225  -21.5279 H   0  0  0  0  0  0  0  0  0  0  0  0
    3.0537   29.5674  -20.8504 H   0  0  0  0  0  0  0  0  0  0  0  0
    0.9310   29.2800  -21.9770 H   0  0  0  0  0  0  0  0  0  0  0  0
   -0.9352   29.1875  -24.6027 H   0  0  0  0  0  0  0  0  0  0  0  0
    0.7677   29.1862  -25.1879 H   0  0  0  0  0  0  0  0  0  0  0  0
   -1.0811   28.4629  -26.8635 H   0  0  0  0  0  0  0  0  0  0  0  0
    0.3766   27.3993  -26.6887 H   0  0  0  0  0  0  0  0  0  0  0  0
    0.0637   26.0192  -28.0450 H   0  0  0  0  0  0  0  0  0  0  0  0
   -0.5498   24.3882  -29.8244 H   0  0  0  0  0  0  0  0  0  0  0  0
   -1.6260   21.1599  -29.4021 H   0  0  0  0  0  0  0  0  0  0  0  0
   -4.7576   22.6574  -33.3636 H   0  0  0  0  0  0  0  0  0  0  0  0
   -3.8486   21.1291  -33.6396 H   0  0  0  0  0  0  0  0  0  0  0  0
   -6.9366   22.6491  -32.2436 H   0  0  0  0  0  0  0  0  0  0  0  0
   -8.9786   21.3282  -31.6839 H   0  0  0  0  0  0  0  0  0  0  0  0
   -6.7933   17.6536  -32.3421 H   0  0  0  0  0  0  0  0  0  0  0  0
   -4.7453   18.9678  -32.9006 H   0  0  0  0  0  0  0  0  0  0  0  0
   -4.2561   23.5286  -27.7527 H   0  0  0  0  0  0  0  0  0  0  0  0
   -3.6431   25.1610  -25.9777 H   0  0  0  0  0  0  0  0  0  0  0  0
   -2.5251   27.2164  -24.1801 H   0  0  0  0  0  0  0  0  0  0  0  0
   -2.3000   25.4447  -24.3809 H   0  0  0  0  0  0  0  0  0  0  0  0
   -0.9349   26.5717  -22.5070 H   0  0  0  0  0  0  0  0  0  0  0  0
   -0.0162   25.5525  -23.6848 H   0  0  0  0  0  0  0  0  0  0  0  0
  1  2  1  0
  2  3  2  0
  3  4  1  0
  4  5  2  0
  5  6  1  0
  6  7  2  0
  7  8  1  0
  8  9  1  0
  9 10  1  0
 10 11  1  0
 11 12  1  0
 12 13  2  0
 13 14  1  0
 14 15  2  0
 15 16  1  0
 16 17  1  0
 17 18  2  0
 18 19  1  0
 19 20  1  0
 20 21  1  0
 21 22  2  0
 22 23  1  0
 23 24  2  0
 24 25  1  0
 24 26  1  0
 26 27  2  0
 19 28  1  0
 28 29  2  0
 15 30  1  0
 30 31  2  0
 11 32  1  0
 32 33  1  0
  7  2  1  0
 33  8  1  0
 31 12  1  0
 28 16  1  0
 27 21  1  0
  1 34  1  0
  1 35  1  0
  1 36  1  0
  4 37  1  0
  5 38  1  0
  6 39  1  0
  9 40  1  0
  9 41  1  0
 10 42  1  0
 10 43  1  0
 13 44  1  0
 14 45  1  0
 17 46  1  0
 20 47  1  0
 20 48  1  0
 22 49  1  0
 23 50  1  0
 26 51  1  0
 27 52  1  0
 30 53  1  0
 31 54  1  0
 32 55  1  0
 32 56  1  0
 33 57  1  0
 33 58  1  0
M  CHG  1   6   1
M  END
>  <UniqueID>  (2) 
2

>  <SMILES>  (2) 
Cc1ncc[nH+]c1N1CCN(c2ccc(-n3cnn(Cc4ccc(F)cc4)c3=O)cc2)CC1

>  <Energy>  (2) 
114.4057413044711

>  <Genealogy>  (2) 
Cc1ncc[nH+]c1N1CCN(c2ccc(-n3cnn(Cc4ccc(F)cc4)c3=O)cc2)CC1 (protonated)
Cc1ncc[nH+]c1N1CCN(c2ccc(-n3cnn(Cc4ccc(F)cc4)c3=O)cc2)CC1 (3D coordinates assigned)
Cc1ncc[nH+]c1N1CCN(c2ccc(-n3cnn(Cc4ccc(F)cc4)c3=O)cc2)CC1 (nonaromatic ring conformer: 114.4057413044711 kcal/mol)

>  <smiles>  (2) 
Cc1nccnc1N1CCN(c2ccc(-n3cnn(Cc4ccc(F)cc4)c3=O)cc2)CC1

>  <score_type>  (2) 
oracle

>  <origin>  (2) 
adg

>  <m_score__min__energy>  (2) 
-9.5199999999999996

>  <m_primary>  (2) 
energy

$$$$
2:0
     RDKit          3D

 26 26  0  0  0  0  0  0  0  0999 V2000
   -6.5070   24.8660  -30.3620 C   0  0  0  0  0  0  0  0  0  0  0  0
   -5.4660   24.2290  -31.1870 N   0  0  0  0  0  0  0  0  0  0  0  0
   -4.8210   23.1280  -30.4370 C   0  0  0  0  0  0  0  0  0  0  0  0
   -3.4910   23.5900  -29.8400 C   0  0  0  0  0  0  0  0  0  0  0  0
   -3.1960   24.8860  -30.2820 O   0  0  0  0  0  0  0  0  0  0  0  0
   -6.0440   23.7450  -32.4600 C   0  0  0  0  0  0  0  0  0  0  0  0
   -7.0940   22.7010  -32.1920 C   0  0  0  0  0  0  0  0  0  0  0  0
   -8.4090   23.0840  -31.8880 C   0  0  0  0  0  0  0  0  0  0  0  0
   -9.3550   22.1410  -31.6290 N   0  0  0  0  0  0  0  0  0  0  0  0
   -9.0640   20.8140  -31.6520 C   0  0  0  0  0  0  0  0  0  0  0  0
   -7.7670   20.3850  -31.9460 C   0  0  0  0  0  0  0  0  0  0  0  0
   -7.3480   18.5220  -31.9740 Br  0  0  0  0  0  0  0  0  0  0  0  0
   -6.7780   21.3350  -32.2150 C   0  0  0  0  0  0  0  0  0  0  0  0
   -6.2707   24.7214  -29.2975 H   0  0  0  0  0  0  0  0  0  0  0  0
   -6.5450   25.9422  -30.5862 H   0  0  0  0  0  0  0  0  0  0  0  0
   -7.4826   24.4100  -30.5862 H   0  0  0  0  0  0  0  0  0  0  0  0
   -5.4886   22.8041  -29.6250 H   0  0  0  0  0  0  0  0  0  0  0  0
   -4.6289   22.2935  -31.1275 H   0  0  0  0  0  0  0  0  0  0  0  0
   -3.5627   23.5862  -28.7423 H   0  0  0  0  0  0  0  0  0  0  0  0
   -2.6918   22.9062  -30.1621 H   0  0  0  0  0  0  0  0  0  0  0  0
   -3.4910   24.9290  -31.2280 H   0  0  0  0  0  0  0  0  0  0  0  0
   -6.5007   24.5901  -32.9959 H   0  0  0  0  0  0  0  0  0  0  0  0
   -5.2442   23.3003  -33.0705 H   0  0  0  0  0  0  0  0  0  0  0  0
   -8.6762   24.1507  -31.8589 H   0  0  0  0  0  0  0  0  0  0  0  0
   -9.8511   20.0758  -31.4387 H   0  0  0  0  0  0  0  0  0  0  0  0
   -5.7521   21.0114  -32.4447 H   0  0  0  0  0  0  0  0  0  0  0  0
  1  2  1  0
  2  3  1  0
  3  4  1  0
  4  5  1  0
  2  6  1  0
  6  7  1  0
  7  8  2  0
  8  9  1  0
  9 10  2  0
 10 11  1  0
 11 12  1  0
 11 13  2  0
 13  7  1  0
  1 14  1  0
  1 15  1  0
  1 16  1  0
  3 17  1  0
  3 18  1  0
  4 19  1  0
  4 20  1  0
  5 21  1  0
  6 22  1  0
  6 23  1  0
  8 24  1  0
 10 25  1  0
 13 26  1  0
M  END
>  <UniqueID>  (3) 
3

>  <SMILES>  (3) 
CN(CCO)Cc1cncc(Br)c1

>  <Energy>  (3) 
23.507733158689096

>  <Genealogy>  (3) 
CN(CCO)Cc1cncc(Br)c1 (3D coordinates assigned)
CN(CCO)Cc1cncc(Br)c1 (optimized conformer: 23.507733158689096 kcal/mol)

>  <smiles>  (3) 
CN(CCO)Cc1cncc(Br)c1

>  <score_type>  (3) 
oracle

>  <origin>  (3) 
adg

>  <m_score__min__energy>  (3) 
-6.75

>  <m_primary>  (3) 
energy

$$$$
3:0
     RDKit          3D

 34 36  0  0  0  0  0  0  0  0999 V2000
   -6.1130   26.0350  -29.6870 C   0  0  0  0  0  0  0  0  0  0  0  0
   -6.0370   24.8070  -30.5290 C   0  0  0  0  0  0  0  0  0  0  0  0
   -7.0540   23.9270  -30.6590 N   0  0  0  0  0  0  0  0  0  0  0  0
   -6.5090   22.9730  -31.4410 C   0  0  0  0  0  0  0  0  0  0  0  0
   -7.2580   21.7760  -31.8830 C   0  0  0  0  0  0  0  0  0  0  0  0
   -8.6500   21.7310  -31.7150 C   0  0  0  0  0  0  0  0  0  0  0  0
   -9.3710   20.6040  -32.1140 C   0  0  0  0  0  0  0  0  0  0  0  0
   -8.7120   19.5070  -32.6700 C   0  0  0  0  0  0  0  0  0  0  0  0
   -7.3140   19.5210  -32.8250 C   0  0  0  0  0  0  0  0  0  0  0  0
   -6.6060   18.3500  -33.4050 C   0  0  0  0  0  0  0  0  0  0  0  0
   -6.8780   17.0480  -32.9440 C   0  0  0  0  0  0  0  0  0  0  0  0
   -6.2090   15.9490  -33.4920 C   0  0  0  0  0  0  0  0  0  0  0  0
   -5.2650   16.1370  -34.5040 C   0  0  0  0  0  0  0  0  0  0  0  0
   -4.9870   17.4230  -34.9700 C   0  0  0  0  0  0  0  0  0  0  0  0
   -5.6520   18.5260  -34.4250 C   0  0  0  0  0  0  0  0  0  0  0  0
   -6.5940   20.6590  -32.4180 C   0  0  0  0  0  0  0  0  0  0  0  0
   -5.2330   23.2780  -31.7680 N   0  0  0  0  0  0  0  0  0  0  0  0
   -4.3090   22.5410  -32.6250 C   0  0  0  0  0  0  0  0  0  0  0  0
   -4.9240   24.4210  -31.1840 N   0  0  0  0  0  0  0  0  0  0  0  0
   -6.0955   25.7524  -28.6241 H   0  0  0  0  0  0  0  0  0  0  0  0
   -5.2534   26.6848  -29.9078 H   0  0  0  0  0  0  0  0  0  0  0  0
   -7.0462   26.5738  -29.9078 H   0  0  0  0  0  0  0  0  0  0  0  0
   -9.1756   22.5872  -31.2671 H   0  0  0  0  0  0  0  0  0  0  0  0
  -10.4637   20.5808  -31.9895 H   0  0  0  0  0  0  0  0  0  0  0  0
   -9.2889   18.6264  -32.9889 H   0  0  0  0  0  0  0  0  0  0  0  0
   -7.6213   16.8941  -32.1479 H   0  0  0  0  0  0  0  0  0  0  0  0
   -6.4266   14.9350  -33.1254 H   0  0  0  0  0  0  0  0  0  0  0  0
   -4.7403   15.2711  -34.9340 H   0  0  0  0  0  0  0  0  0  0  0  0
   -4.2435   17.5692  -35.7674 H   0  0  0  0  0  0  0  0  0  0  0  0
   -5.4282   19.5372  -34.7956 H   0  0  0  0  0  0  0  0  0  0  0  0
   -5.4988   20.6747  -32.5197 H   0  0  0  0  0  0  0  0  0  0  0  0
   -3.6010   21.9763  -32.0006 H   0  0  0  0  0  0  0  0  0  0  0  0
   -4.8749   21.8436  -33.2600 H   0  0  0  0  0  0  0  0  0  0  0  0
   -3.7549   23.2479  -33.2600 H   0  0  0  0  0  0  0  0  0  0  0  0
  1  2  1  0
  2  3  1  0
  3  4  2  0
  4  5  1  0
  5  6  2  0
  6  7  1  0
  7  8  2  0
  8  9  1  0
  9 10  1  0
 10 11  2  0
 11 12  1  0
 12 13  2  0
 13 14  1  0
 14 15  2  0
  9 16  2  0
  4 17  1  0
 17 18  1  0
 17 19  1  0
 19  2  2  0
 16  5  1  0
 15 10  1  0
  1 20  1  0
  1 21  1  0
  1 22  1  0
  6 23  1  0
  7 24  1  0
  8 25  1  0
 11 26  1  0
 12 27  1  0
 13 28  1  0
 14 29  1  0
 15 30  1  0
 16 31  1  0
 18 32  1  0
 18 33  1  0
 18 34  1  0
M  END
>  <UniqueID>  (4) 
4

>  <SMILES>  (4) 
Cc1nc(-c2cccc(-c3ccccc3)c2)n(C)n1

>  <Energy>  (4) 
76.83554443583624

>  <Genealogy>  (4) 
Cc1nc(-c2cccc(-c3ccccc3)c2)n(C)n1 (3D coordinates assigned)
Cc1nc(-c2cccc(-c3ccccc3)c2)n(C)n1 (optimized conformer: 76.83554443583624 kcal/mol)

>  <smiles>  (4) 
Cc1nc(-c2cccc(-c3ccccc3)c2)n(C)n1

>  <score_type>  (4) 
oracle

>  <origin>  (4) 
adg

>  <m_score__min__energy>  (4) 
-8.4499999999999993

>  <m_primary>  (4) 
energy

$$$$
4:0
     RDKit          3D

 32 34  0  0  0  0  0  0  0  0999 V2000
   -7.6210   17.8930  -31.5940 C   0  0  0  0  0  0  0  0  0  0  0  0
   -9.1050   18.2390  -31.5660 C   0  0  0  0  0  0  0  0  0  0  0  0
   -9.4990   19.5780  -32.7470 S   0  0  0  0  0  0  0  0  0  0  0  0
   -7.8730   20.3410  -32.6710 C   0  0  0  0  0  0  0  0  0  0  0  0
   -6.8880   20.0440  -33.5370 N   0  0  0  0  0  0  0  0  0  0  0  0
   -5.8400   20.8010  -33.1700 C   0  0  0  0  0  0  0  0  0  0  0  0
   -6.2060   21.5650  -32.0720 C   0  0  0  0  0  0  0  0  0  0  0  0
   -5.3320   22.5190  -31.3470 C   0  0  0  0  0  0  0  0  0  0  0  0
   -5.7330   23.8600  -31.1210 C   0  0  0  0  0  0  0  0  0  0  0  0
   -4.8830   24.7450  -30.4410 C   0  0  0  0  0  0  0  0  0  0  0  0
   -3.6580   24.2510  -30.0170 C   0  0  0  0  0  0  0  0  0  0  0  0
   -2.7000   24.9280  -29.3510 N   0  0  0  0  0  0  0  0  0  0  0  0
   -1.7260   23.9970  -29.1800 C   0  0  0  0  0  0  0  0  0  0  0  0
   -2.1090   22.7860  -29.7390 C   0  0  0  0  0  0  0  0  0  0  0  0
   -3.3260   22.9800  -30.2550 N   0  0  0  0  0  0  0  0  0  0  0  0
   -4.1070   22.1140  -30.8950 N   0  0  0  0  0  0  0  0  0  0  0  0
   -7.4960   21.2750  -31.7680 N   0  0  0  0  0  0  0  0  0  0  0  0
   -8.3190   21.8620  -30.7080 C   0  0  0  0  0  0  0  0  0  0  0  0
   -7.2454   17.8054  -30.5638 H   0  0  0  0  0  0  0  0  0  0  0  0
   -7.4772   16.9372  -32.1192 H   0  0  0  0  0  0  0  0  0  0  0  0
   -7.0693   18.6866  -32.1192 H   0  0  0  0  0  0  0  0  0  0  0  0
   -9.6864   17.3440  -31.8324 H   0  0  0  0  0  0  0  0  0  0  0  0
   -9.3616   18.5834  -30.5533 H   0  0  0  0  0  0  0  0  0  0  0  0
   -6.9230   19.3580  -34.3240 H   0  0  0  0  0  0  0  0  0  0  0  0
   -4.8550   20.8127  -33.6595 H   0  0  0  0  0  0  0  0  0  0  0  0
   -6.7131   24.2074  -31.4798 H   0  0  0  0  0  0  0  0  0  0  0  0
   -5.1760   25.7882  -30.2517 H   0  0  0  0  0  0  0  0  0  0  0  0
   -0.7682   24.1775  -28.6701 H   0  0  0  0  0  0  0  0  0  0  0  0
   -1.5269   21.8528  -29.7542 H   0  0  0  0  0  0  0  0  0  0  0  0
   -7.9140   21.5731  -29.7269 H   0  0  0  0  0  0  0  0  0  0  0  0
   -8.3090   22.9581  -30.8005 H   0  0  0  0  0  0  0  0  0  0  0  0
   -9.3521   21.4956  -30.8005 H   0  0  0  0  0  0  0  0  0  0  0  0
  1  2  1  0
  2  3  1  0
  3  4  1  0
  4  5  2  0
  5  6  1  0
  6  7  2  0
  7  8  1  0
  8  9  1  0
  9 10  2  0
 10 11  1  0
 11 12  2  0
 12 13  1  0
 13 14  2  0
 14 15  1  0
 15 16  1  0
  7 17  1  0
 17 18  1  0
 17  4  1  0
 16  8  2  0
 15 11  1  0
  1 19  1  0
  1 20  1  0
  1 21  1  0
  2 22  1  0
  2 23  1  0
  5 24  1  0
  6 25  1  0
  9 26  1  0
 10 27  1  0
 13 28  1  0
 14 29  1  0
 18 30  1  0
 18 31  1  0
 18 32  1  0
M  CHG  1   5   1
M  END
>  <UniqueID>  (5) 
5

>  <SMILES>  (5) 
CCSc1[nH+]cc(-c2ccc3nccn3n2)n1C

>  <Energy>  (5) 
96.97173428704772

>  <Genealogy>  (5) 
CCSc1[nH+]cc(-c2ccc3nccn3n2)n1C (protonated)
CCSc1[nH+]cc(-c2ccc3nccn3n2)n1C (3D coordinates assigned)
CCSc1[nH+]cc(-c2ccc3nccn3n2)n1C (optimized conformer: 96.97173428704772 kcal/mol)

>  <smiles>  (5) 
CCSc1ncc(-c2ccc3nccn3n2)n1C

>  <score_type>  (5) 
oracle

>  <origin>  (5) 
adg

>  <m_score__min__energy>  (5) 
-6.0099999999999998

>  <m_primary>  (5) 
energy

$$$$
5:0
     RDKit          3D

 32 33  0  0  0  0  0  0  0  0999 V2000
   -3.7838   23.0856  -31.2251 H   0  0  0  0  0  0  0  0  0  0  0  0
   -4.7920   23.5250  -31.2060 C   0  0  0  0  0  0  0  0  0  0  0  0
   -5.5890   23.2960  -32.2100 N   0  0  0  0  0  0  0  0  0  0  0  0
   -6.7640   22.4730  -32.1730 C   0  0  0  0  0  0  0  0  0  0  0  0
   -7.9540   23.0580  -31.7250 C   0  0  0  0  0  0  0  0  0  0  0  0
   -7.9731   24.1286  -31.4729 H   0  0  0  0  0  0  0  0  0  0  0  0
   -9.1150   22.2980  -31.5950 C   0  0  0  0  0  0  0  0  0  0  0  0
  -10.0417   22.7692  -31.2356 H   0  0  0  0  0  0  0  0  0  0  0  0
   -9.1050   20.9430  -31.9190 C   0  0  0  0  0  0  0  0  0  0  0  0
  -10.0185   20.3432  -31.7932 H   0  0  0  0  0  0  0  0  0  0  0  0
   -7.9350   20.3400  -32.4050 C   0  0  0  0  0  0  0  0  0  0  0  0
   -6.7530   21.1020  -32.5620 C   0  0  0  0  0  0  0  0  0  0  0  0
   -5.6270   20.4490  -33.1180 C   0  0  0  0  0  0  0  0  0  0  0  0
   -4.5730   21.0970  -33.3700 O   0  0  0  0  0  0  0  0  0  0  0  0
   -5.6800   19.1130  -33.4130 N   0  0  0  0  0  0  0  0  0  0  0  0
   -4.5090   18.4340  -33.9830 C   0  0  0  0  0  0  0  0  0  0  0  0
   -3.8685   18.0626  -33.1695 H   0  0  0  0  0  0  0  0  0  0  0  0
   -4.8413   17.5885  -34.6032 H   0  0  0  0  0  0  0  0  0  0  0  0
   -3.9402   19.1424  -34.6032 H   0  0  0  0  0  0  0  0  0  0  0  0
   -6.8350   18.4110  -33.2250 C   0  0  0  0  0  0  0  0  0  0  0  0
   -6.8678   17.3401  -33.4742 H   0  0  0  0  0  0  0  0  0  0  0  0
   -7.9430   19.0200  -32.7340 N   0  0  0  0  0  0  0  0  0  0  0  0
   -8.8120   18.4500  -32.6170 H   0  0  0  0  0  0  0  0  0  0  0  0
   -5.1710   24.3280  -30.0710 N   0  0  0  0  0  0  0  0  0  0  0  0
   -5.7320   25.6690  -30.2580 C   0  0  0  0  0  0  0  0  0  0  0  0
   -5.9234   26.1266  -29.2762 H   0  0  0  0  0  0  0  0  0  0  0  0
   -5.0183   26.2901  -30.8191 H   0  0  0  0  0  0  0  0  0  0  0  0
   -6.6754   25.5968  -30.8191 H   0  0  0  0  0  0  0  0  0  0  0  0
   -4.6150   23.9750  -28.7670 C   0  0  0  0  0  0  0  0  0  0  0  0
   -5.2570   24.3826  -27.9722 H   0  0  0  0  0  0  0  0  0  0  0  0
   -4.5661   22.8801  -28.6735 H   0  0  0  0  0  0  0  0  0  0  0  0
   -3.6033   24.3965  -28.6735 H   0  0  0  0  0  0  0  0  0  0  0  0
  1  2  1  0
  2  3  2  0
  3  4  1  0
  4  5  2  0
  5  6  1  0
  5  7  1  0
  7  8  1  0
  7  9  2  0
  9 10  1  0
  9 11  1  0
 11 12  2  0
 12 13  1  0
 13 14  2  0
 13 15  1  0
 15 16  1  0
 16 17  1  0
 16 18  1  0
 16 19  1  0
 15 20  1  0
 20 21  1  0
 20 22  2  0
 22 23  1  0
  2 24  1  0
 24 25  1  0
 25 26  1  0
 25 27  1  0
 25 28  1  0
 24 29  1  0
 29 30  1  0
 29 31  1  0
 29 32  1  0
 12  4  1  0
 22 11  1  0
M  CHG  1  22   1
M  END
>  <UniqueID>  (6) 
6

>  <SMILES>  (6) 
CN(C)/C=N\c1cccc2[nH+]cn(C)c(=O)c12

>  <Energy>  (6) 
50.09357020872607

>  <Genealogy>  (6) 
CN(C)C=Nc1cccc2[nH+]cn(C)c(=O)c12 (protonated)
CN(C)/C=N\c1cccc2[nH+]cn(C)c(=O)c12 (cis-trans isomerization)
CN(C)/C=N\c1cccc2[nH+]cn(C)c(=O)c12 (3D coordinates assigned)
CN(C)/C=N\c1cccc2[nH+]cn(C)c(=O)c12 (optimized conformer: 50.09357020872607 kcal/mol)

>  <smiles>  (6) 
CN(C)C=Nc1cccc2ncn(C)c(=O)c12

>  <score_type>  (6) 
oracle

>  <origin>  (6) 
adg

>  <m_score__min__energy>  (6) 
-5.6600000000000001

>  <m_primary>  (6) 
energy

$$$$
6:0
     RDKit          3D

 68 70  0  0  0  0  0  0  0  0999 V2000
    0.3230   20.8520  -35.5830 C   0  0  0  0  0  0  0  0  0  0  0  0
   -0.7140   20.3570  -34.5720 C   0  0  0  0  0  0  0  0  0  0  0  0
   -0.4560   18.9860  -34.0790 N   0  0  0  0  0  0  0  0  0  0  0  0
    0.5530   18.9000  -32.9880 C   0  0  0  0  0  0  0  0  0  0  0  0
    0.1050   19.4750  -31.6360 C   0  0  0  0  0  0  0  0  0  0  0  0
   -0.3770   17.9670  -35.1500 C   0  0  0  0  0  0  0  0  0  0  0  0
   -1.4610   16.8880  -34.9680 C   0  0  0  0  0  0  0  0  0  0  0  0
   -1.9260   16.7870  -33.5740 N   0  0  0  0  0  0  0  0  0  0  0  0
   -3.2270   17.3880  -33.3920 C   0  0  0  0  0  0  0  0  0  0  0  0
   -4.3670   16.5930  -33.2770 C   0  0  0  0  0  0  0  0  0  0  0  0
   -5.6170   17.1700  -33.0590 C   0  0  0  0  0  0  0  0  0  0  0  0
   -5.7700   18.5780  -32.9550 C   0  0  0  0  0  0  0  0  0  0  0  0
   -4.6140   19.3870  -33.0920 C   0  0  0  0  0  0  0  0  0  0  0  0
   -3.3580   18.7770  -33.2900 C   0  0  0  0  0  0  0  0  0  0  0  0
   -4.7250   20.7860  -33.0240 C   0  0  0  0  0  0  0  0  0  0  0  0
   -3.5840   21.6220  -33.3060 N   0  0  0  0  0  0  0  0  0  0  0  0
   -2.5420   21.9210  -32.3150 C   0  0  0  0  0  0  0  0  0  0  0  0
   -3.0400   21.7690  -30.8680 C   0  0  0  0  0  0  0  0  0  0  0  0
   -2.5760   22.8910  -29.9250 C   0  0  0  0  0  0  0  0  0  0  0  0
   -3.7070   23.5310  -29.2360 N   0  0  0  0  0  0  0  0  0  0  0  0
   -4.0620   23.1070  -27.8770 C   0  0  0  0  0  0  0  0  0  0  0  0
   -4.4130   24.6260  -29.8660 C   0  0  0  0  0  0  0  0  0  0  0  0
   -5.8060   24.9990  -29.4540 C   0  0  0  0  0  0  0  0  0  0  0  0
   -3.8590   25.2920  -30.7800 O   0  0  0  0  0  0  0  0  0  0  0  0
   -5.9560   21.3630  -32.6660 C   0  0  0  0  0  0  0  0  0  0  0  0
   -5.9730   23.0910  -32.2520 Cl  0  0  0  0  0  0  0  0  0  0  0  0
   -7.0880   20.5880  -32.5470 N   0  0  0  0  0  0  0  0  0  0  0  0
   -8.2950   21.1940  -32.2710 C   0  0  0  0  0  0  0  0  0  0  0  0
   -9.4710   20.4610  -32.1650 C   0  0  0  0  0  0  0  0  0  0  0  0
   -9.4350   19.0900  -32.3410 C   0  0  0  0  0  0  0  0  0  0  0  0
   -8.2290   18.4600  -32.6140 C   0  0  0  0  0  0  0  0  0  0  0  0
   -7.0280   19.2110  -32.7120 C   0  0  0  0  0  0  0  0  0  0  0  0
    1.1897   21.2657  -35.0466 H   0  0  0  0  0  0  0  0  0  0  0  0
    0.6492   20.0125  -36.2145 H   0  0  0  0  0  0  0  0  0  0  0  0
   -0.1246   21.6336  -36.2145 H   0  0  0  0  0  0  0  0  0  0  0  0
   -0.7140   21.0415  -33.7109 H   0  0  0  0  0  0  0  0  0  0  0  0
   -1.6839   20.3352  -35.0905 H   0  0  0  0  0  0  0  0  0  0  0  0
    0.8047   17.8395  -32.8401 H   0  0  0  0  0  0  0  0  0  0  0  0
    1.4066   19.5131  -33.3127 H   0  0  0  0  0  0  0  0  0  0  0  0
    0.5591   18.8922  -30.8211 H   0  0  0  0  0  0  0  0  0  0  0  0
    0.4260   20.5243  -31.5593 H   0  0  0  0  0  0  0  0  0  0  0  0
   -0.9910   19.4203  -31.5593 H   0  0  0  0  0  0  0  0  0  0  0  0
   -0.5183   18.4578  -36.1243 H   0  0  0  0  0  0  0  0  0  0  0  0
    0.6098   17.4835  -35.1009 H   0  0  0  0  0  0  0  0  0  0  0  0
   -2.3191   17.1380  -35.6092 H   0  0  0  0  0  0  0  0  0  0  0  0
   -1.0191   15.9194  -35.2446 H   0  0  0  0  0  0  0  0  0  0  0  0
   -1.9390   15.7820  -33.2800 H   0  0  0  0  0  0  0  0  0  0  0  0
   -1.2360   17.2750  -32.9560 H   0  0  0  0  0  0  0  0  0  0  0  0
   -4.2789   15.4996  -33.3592 H   0  0  0  0  0  0  0  0  0  0  0  0
   -6.5014   16.5226  -32.9658 H   0  0  0  0  0  0  0  0  0  0  0  0
   -2.4603   19.4082  -33.3660 H   0  0  0  0  0  0  0  0  0  0  0  0
   -3.5230   22.0930  -34.2380 H   0  0  0  0  0  0  0  0  0  0  0  0
   -1.6990   21.2319  -32.4715 H   0  0  0  0  0  0  0  0  0  0  0  0
   -2.2407   22.9696  -32.4549 H   0  0  0  0  0  0  0  0  0  0  0  0
   -4.1399   21.7603  -30.8800 H   0  0  0  0  0  0  0  0  0  0  0  0
   -2.6127   20.8319  -30.4815 H   0  0  0  0  0  0  0  0  0  0  0  0
   -1.8963   22.4647  -29.1725 H   0  0  0  0  0  0  0  0  0  0  0  0
   -2.0679   23.6565  -30.5299 H   0  0  0  0  0  0  0  0  0  0  0  0
   -3.5340   23.7376  -27.1465 H   0  0  0  0  0  0  0  0  0  0  0  0
   -5.1477   23.2093  -27.7328 H   0  0  0  0  0  0  0  0  0  0  0  0
   -3.7704   22.0562  -27.7328 H   0  0  0  0  0  0  0  0  0  0  0  0
   -5.8714   25.0165  -28.3561 H   0  0  0  0  0  0  0  0  0  0  0  0
   -6.0519   25.9946  -29.8519 H   0  0  0  0  0  0  0  0  0  0  0  0
   -6.5165   24.2595  -29.8519 H   0  0  0  0  0  0  0  0  0  0  0  0
   -8.3282   22.2846  -32.1312 H   0  0  0  0  0  0  0  0  0  0  0  0
  -10.4221   20.9671  -31.9430 H   0  0  0  0  0  0  0  0  0  0  0  0
  -10.3602   18.5000  -32.2648 H   0  0  0  0  0  0  0  0  0  0  0  0
   -8.2033   17.3695  -32.7557 H   0  0  0  0  0  0  0  0  0  0  0  0
  1  2  1  0
  2  3  1  0
  3  4  1  0
  4  5  1  0
  3  6  1  0
  6  7  1  0
  7  8  1  0
  8  9  1  0
  9 10  2  0
 10 11  1  0
 11 12  2  0
 12 13  1  0
 13 14  2  0
 13 15  1  0
 15 16  1  0
 16 17  1  0
 17 18  1  0
 18 19  1  0
 19 20  1  0
 20 21  1  0
 20 22  1  0
 22 23  1  0
 22 24  2  0
 15 25  2  0
 25 26  1  0
 25 27  1  0
 27 28  2  0
 28 29  1  0
 29 30  2  0
 30 31  1  0
 31 32  2  0
 14  9  1  0
 32 27  1  0
 32 12  1  0
  1 33  1  0
  1 34  1  0
  1 35  1  0
  2 36  1  0
  2 37  1  0
  4 38  1  0
  4 39  1  0
  5 40  1  0
  5 41  1  0
  5 42  1  0
  6 43  1  0
  6 44  1  0
  7 45  1  0
  7 46  1  0
  8 47  1  0
  8 48  1  0
 10 49  1  0
 11 50  1  0
 14 51  1  0
 16 52  1  0
 17 53  1  0
 17 54  1  0
 18 55  1  0
 18 56  1  0
 19 57  1  0
 19 58  1  0
 21 59  1  0
 21 60  1  0
 21 61  1  0
 23 62  1  0
 23 63  1  0
 23 64  1  0
 28 65  1  0
 29 66  1  0
 30 67  1  0
 31 68  1  0
M  CHG  2   8   1  27   1
M  END
>  <UniqueID>  (7) 
7

>  <SMILES>  (7) 
CCN(CC)CC[NH2+]c1ccc2c(c1)c(NCCCN(C)C(C)=O)c(Cl)[n+]1ccccc21

>  <Energy>  (7) 
92.30768473444222

>  <Genealogy>  (7) 
CCN(CC)CC[NH2+]c1ccc2c(c1)c(NCCCN(C)C(C)=O)c(Cl)[n+]1ccccc21 (protonated)
CCN(CC)CC[NH2+]c1ccc2c(c1)c(NCCCN(C)C(C)=O)c(Cl)[n+]1ccccc21 (3D coordinates assigned)
CCN(CC)CC[NH2+]c1ccc2c(c1)c(NCCCN(C)C(C)=O)c(Cl)[n+]1ccccc21 (optimized conformer: 92.30768473444222 kcal/mol)

>  <smiles>  (7) 
CCN(CC)CCNc1ccc2c(c1)c(NCCCN(C)C(C)=O)c(Cl)[n+]1ccccc21

>  <score_type>  (7) 
oracle

>  <origin>  (7) 
adg

>  <m_score__min__energy>  (7) 
-7.8799999999999999

>  <m_primary>  (7) 
energy

$$$$
7:0
     RDKit          3D

 44 46  0  0  0  0  0  0  0  0999 V2000
   -4.2630   24.5040  -27.2260 C   0  0  0  0  0  0  0  0  0  0  0  0
   -3.5960   23.9740  -28.4700 C   0  0  0  0  0  0  0  0  0  0  0  0
   -2.5260   23.0740  -28.3390 C   0  0  0  0  0  0  0  0  0  0  0  0
   -1.9240   22.5260  -29.4700 C   0  0  0  0  0  0  0  0  0  0  0  0
   -2.4010   22.8690  -30.7320 C   0  0  0  0  0  0  0  0  0  0  0  0
   -3.4360   23.7390  -30.8520 N   0  0  0  0  0  0  0  0  0  0  0  0
   -4.0420   24.3120  -29.7730 C   0  0  0  0  0  0  0  0  0  0  0  0
   -5.1770   25.2850  -30.0290 C   0  0  0  0  0  0  0  0  0  0  0  0
   -6.3600   24.6490  -30.6530 N   0  0  0  0  0  0  0  0  0  0  0  0
   -6.0840   24.0720  -31.9880 C   0  0  0  0  0  0  0  0  0  0  0  0
   -7.1940   23.1200  -32.4280 C   0  0  0  0  0  0  0  0  0  0  0  0
   -7.2950   22.0380  -31.4500 N   0  0  0  0  0  0  0  0  0  0  0  0
   -7.5800   20.7020  -31.8810 C   0  0  0  0  0  0  0  0  0  0  0  0
   -8.7860   20.1450  -31.5730 N   0  0  0  0  0  0  0  0  0  0  0  0
   -9.1130   18.8850  -31.9680 C   0  0  0  0  0  0  0  0  0  0  0  0
   -8.2080   18.1240  -32.7070 C   0  0  0  0  0  0  0  0  0  0  0  0
   -6.9630   18.6650  -33.0290 C   0  0  0  0  0  0  0  0  0  0  0  0
   -6.6260   19.9580  -32.6070 C   0  0  0  0  0  0  0  0  0  0  0  0
   -5.2870   20.5420  -32.9670 C   0  0  0  0  0  0  0  0  0  0  0  0
   -7.1010   22.3110  -30.0240 C   0  0  0  0  0  0  0  0  0  0  0  0
   -7.1760   23.8190  -29.7290 C   0  0  0  0  0  0  0  0  0  0  0  0
   -3.7553   24.1006  -26.3375 H   0  0  0  0  0  0  0  0  0  0  0  0
   -4.2014   25.6022  -27.2165 H   0  0  0  0  0  0  0  0  0  0  0  0
   -5.3189   24.1959  -27.2165 H   0  0  0  0  0  0  0  0  0  0  0  0
   -2.1611   22.8001  -27.3381 H   0  0  0  0  0  0  0  0  0  0  0  0
   -1.0796   21.8287  -29.3665 H   0  0  0  0  0  0  0  0  0  0  0  0
   -1.9395   22.4353  -31.6314 H   0  0  0  0  0  0  0  0  0  0  0  0
   -5.4828   25.7262  -29.0689 H   0  0  0  0  0  0  0  0  0  0  0  0
   -4.8046   26.0445  -30.7323 H   0  0  0  0  0  0  0  0  0  0  0  0
   -6.0028   24.8888  -32.7203 H   0  0  0  0  0  0  0  0  0  0  0  0
   -5.1447   23.5026  -31.9298 H   0  0  0  0  0  0  0  0  0  0  0  0
   -8.1492   23.6631  -32.4798 H   0  0  0  0  0  0  0  0  0  0  0  0
   -6.9641   22.7082  -33.4218 H   0  0  0  0  0  0  0  0  0  0  0  0
   -9.4850   20.6990  -31.0280 H   0  0  0  0  0  0  0  0  0  0  0  0
  -10.0947   18.4651  -31.7035 H   0  0  0  0  0  0  0  0  0  0  0  0
   -8.4730   17.1073  -33.0328 H   0  0  0  0  0  0  0  0  0  0  0  0
   -6.2438   18.0748  -33.6159 H   0  0  0  0  0  0  0  0  0  0  0  0
   -4.7332   20.7835  -32.0478 H   0  0  0  0  0  0  0  0  0  0  0  0
   -4.7153   19.8115  -33.5582 H   0  0  0  0  0  0  0  0  0  0  0  0
   -5.4335   21.4580  -33.5582 H   0  0  0  0  0  0  0  0  0  0  0  0
   -7.8844   21.7941  -29.4503 H   0  0  0  0  0  0  0  0  0  0  0  0
   -6.1036   21.9493  -29.7335 H   0  0  0  0  0  0  0  0  0  0  0  0
   -8.2257   24.1373  -29.8113 H   0  0  0  0  0  0  0  0  0  0  0  0
   -6.7702   23.9697  -28.7177 H   0  0  0  0  0  0  0  0  0  0  0  0
  1  2  1  0
  2  3  2  0
  3  4  1  0
  4  5  2  0
  5  6  1  0
  6  7  2  0
  7  8  1  0
  8  9  1  0
  9 10  1  0
 10 11  1  0
 11 12  1  0
 12 13  1  0
 13 14  2  0
 14 15  1  0
 15 16  2  0
 16 17  1  0
 17 18  2  0
 18 19  1  0
 12 20  1  0
 20 21  1  0
  7  2  1  0
 21  9  1  0
 18 13  1  0
  1 22  1  0
  1 23  1  0
  1 24  1  0
  3 25  1  0
  4 26  1  0
  5 27  1  0
  8 28  1  0
  8 29  1  0
 10 30  1  0
 10 31  1  0
 11 32  1  0
 11 33  1  0
 14 34  1  0
 15 35  1  0
 16 36  1  0
 17 37  1  0
 19 38  1  0
 19 39  1  0
 19 40  1  0
 20 41  1  0
 20 42  1  0
 21 43  1  0
 21 44  1  0
M  CHG  1  14   1
M  END
>  <UniqueID>  (8) 
8

>  <SMILES>  (8) 
Cc1cccnc1CN1CCN(c2[nH+]cccc2C)CC1

>  <Energy>  (8) 
60.881525928750925

>  <Genealogy>  (8) 
Cc1cccnc1CN1CCN(c2[nH+]cccc2C)CC1 (protonated)
Cc1cccnc1CN1CCN(c2[nH+]cccc2C)CC1 (3D coordinates assigned)
Cc1cccnc1CN1CCN(c2[nH+]cccc2C)CC1 (nonaromatic ring conformer: 60.881525928750925 kcal/mol)

>  <smiles>  (8) 
Cc1cccnc1CN1CCN(c2ncccc2C)CC1

>  <score_type>  (8) 
oracle

>  <origin>  (8) 
adg

>  <m_score__min__energy>  (8) 
-6.9699999999999998

>  <m_primary>  (8) 
energy

$$$$
8:0
     RDKit          3D

 27 27  0  0  0  0  0  0  0  0999 V2000
   -0.5583   20.4208  -28.2850 H   0  0  0  0  0  0  0  0  0  0  0  0
   -1.4720   20.8550  -27.8530 C   0  0  0  0  0  0  0  0  0  0  0  0
   -1.9400   20.3200  -26.7180 C   0  0  0  0  0  0  0  0  0  0  0  0
   -1.7965   20.8840  -25.7846 H   0  0  0  0  0  0  0  0  0  0  0  0
   -2.6470   19.0010  -26.6400 C   0  0  0  0  0  0  0  0  0  0  0  0
   -2.7945   18.7258  -25.5852 H   0  0  0  0  0  0  0  0  0  0  0  0
   -3.6243   19.0788  -27.1388 H   0  0  0  0  0  0  0  0  0  0  0  0
   -2.0411   18.2302  -27.1388 H   0  0  0  0  0  0  0  0  0  0  0  0
   -2.0980   21.9880  -28.5650 C   0  0  0  0  0  0  0  0  0  0  0  0
   -3.2710   21.8200  -29.3150 C   0  0  0  0  0  0  0  0  0  0  0  0
   -3.7286   20.8232  -29.3985 H   0  0  0  0  0  0  0  0  0  0  0  0
   -3.8610   22.9100  -29.9560 C   0  0  0  0  0  0  0  0  0  0  0  0
   -4.7728   22.7647  -30.5539 H   0  0  0  0  0  0  0  0  0  0  0  0
   -3.2960   24.1950  -29.8420 C   0  0  0  0  0  0  0  0  0  0  0  0
   -3.8580   25.3140  -30.4770 O   0  0  0  0  0  0  0  0  0  0  0  0
   -5.2470   25.6260  -30.4820 C   0  0  0  0  0  0  0  0  0  0  0  0
   -5.6083   25.7072  -29.4462 H   0  0  0  0  0  0  0  0  0  0  0  0
   -5.4061   26.5823  -31.0018 H   0  0  0  0  0  0  0  0  0  0  0  0
   -5.7998   24.8296  -31.0018 H   0  0  0  0  0  0  0  0  0  0  0  0
   -2.1380   24.3770  -29.0690 C   0  0  0  0  0  0  0  0  0  0  0  0
   -1.6040   25.6710  -28.9650 O   0  0  0  0  0  0  0  0  0  0  0  0
   -0.8510   26.1460  -27.8540 C   0  0  0  0  0  0  0  0  0  0  0  0
   -1.3416   25.8365  -26.9193 H   0  0  0  0  0  0  0  0  0  0  0  0
    0.1644   25.7246  -27.8921 H   0  0  0  0  0  0  0  0  0  0  0  0
   -0.7940   27.2439  -27.8921 H   0  0  0  0  0  0  0  0  0  0  0  0
   -1.5510   23.2700  -28.4250 C   0  0  0  0  0  0  0  0  0  0  0  0
   -0.6535   23.4139  -27.8055 H   0  0  0  0  0  0  0  0  0  0  0  0
  1  2  1  0
  2  3  2  0
  3  4  1  0
  3  5  1  0
  5  6  1  0
  5  7  1  0
  5  8  1  0
  2  9  1  0
  9 10  2  0
 10 11  1  0
 10 12  1  0
 12 13  1  0
 12 14  2  0
 14 15  1  0
 15 16  1  0
 16 17  1  0
 16 18  1  0
 16 19  1  0
 14 20  1  0
 20 21  1  0
 21 22  1  0
 22 23  1  0
 22 24  1  0
 22 25  1  0
 20 26  2  0
 26 27  1  0
 26  9  1  0
M  END
>  <UniqueID>  (9) 
9

>  <SMILES>  (9) 
C/C=C\c1ccc(OC)c(OC)c1

>  <Energy>  (9) 
27.745927701434752

>  <Genealogy>  (9) 
C/C=C\c1ccc(OC)c(OC)c1 (cis-trans isomerization)
C/C=C\c1ccc(OC)c(OC)c1 (3D coordinates assigned)
C/C=C\c1ccc(OC)c(OC)c1 (optimized conformer: 27.745927701434752 kcal/mol)

>  <smiles>  (9) 
CC=Cc1ccc(OC)c(OC)c1

>  <score_type>  (9) 
oracle

>  <origin>  (9) 
adg

>  <m_score__min__energy>  (9) 
-5.9500000000000002

>  <m_primary>  (9) 
energy

$$$$
9:0
     RDKit          3D

 29 31  0  0  0  0  0  0  0  0999 V2000
  -10.4259   22.5034  -31.8171 H   0  0  0  0  0  0  0  0  0  0  0  0
   -9.3900   22.1590  -31.9520 C   0  0  0  0  0  0  0  0  0  0  0  0
   -9.1270   20.8020  -32.1530 C   0  0  0  0  0  0  0  0  0  0  0  0
   -9.9560   20.0795  -32.1823 H   0  0  0  0  0  0  0  0  0  0  0  0
   -7.8100   20.3620  -32.3170 C   0  0  0  0  0  0  0  0  0  0  0  0
   -7.5550   19.0440  -32.5020 F   0  0  0  0  0  0  0  0  0  0  0  0
   -6.7560   21.2810  -32.2860 C   0  0  0  0  0  0  0  0  0  0  0  0
   -5.7203   20.9291  -32.4018 H   0  0  0  0  0  0  0  0  0  0  0  0
   -7.0120   22.6500  -32.1080 C   0  0  0  0  0  0  0  0  0  0  0  0
   -5.9100   23.5730  -32.0550 N   0  0  0  0  0  0  0  0  0  0  0  0
   -5.3420   23.7100  -32.9210 H   0  0  0  0  0  0  0  0  0  0  0  0
   -5.5240   24.3110  -30.8870 C   0  0  0  0  0  0  0  0  0  0  0  0
   -6.6900   24.9240  -29.8990 S   0  0  0  0  0  0  0  0  0  0  0  0
   -4.1950   24.8530  -30.8420 N   0  0  0  0  0  0  0  0  0  0  0  0
   -3.2100   24.4360  -30.1010 C   0  0  0  0  0  0  0  0  0  0  0  0
   -2.4860   25.2890  -29.3380 N   0  0  0  0  0  0  0  0  0  0  0  0
   -1.4900   24.6310  -28.6900 C   0  0  0  0  0  0  0  0  0  0  0  0
   -0.5770   25.2370  -27.8240 C   0  0  0  0  0  0  0  0  0  0  0  0
   -0.6304   26.3165  -27.6194 H   0  0  0  0  0  0  0  0  0  0  0  0
    0.4110   24.4420  -27.2190 C   0  0  0  0  0  0  0  0  0  0  0  0
    1.1388   24.9022  -26.5345 H   0  0  0  0  0  0  0  0  0  0  0  0
    0.4760   23.0590  -27.4830 C   0  0  0  0  0  0  0  0  0  0  0  0
    1.2531   22.4463  -27.0026 H   0  0  0  0  0  0  0  0  0  0  0  0
   -0.4460   22.4590  -28.3560 C   0  0  0  0  0  0  0  0  0  0  0  0
   -0.4038   21.3810  -28.5708 H   0  0  0  0  0  0  0  0  0  0  0  0
   -1.4160   23.2700  -28.9420 C   0  0  0  0  0  0  0  0  0  0  0  0
   -2.6310   22.8400  -30.0170 S   0  0  0  0  0  0  0  0  0  0  0  0
   -8.3380   23.0810  -31.9220 C   0  0  0  0  0  0  0  0  0  0  0  0
   -8.5487   24.1472  -31.7523 H   0  0  0  0  0  0  0  0  0  0  0  0
  1  2  1  0
  2  3  2  0
  3  4  1  0
  3  5  1  0
  5  6  1  0
  5  7  2  0
  7  8  1  0
  7  9  1  0
  9 10  1  0
 10 11  1  0
 10 12  1  0
 12 13  2  0
 12 14  1  0
 14 15  2  0
 15 16  1  0
 16 17  1  0
 17 18  2  0
 18 19  1  0
 18 20  1  0
 20 21  1  0
 20 22  2  0
 22 23  1  0
 22 24  1  0
 24 25  1  0
 24 26  2  0
 26 27  1  0
  9 28  2  0
 28 29  1  0
 28  2  1  0
 27 15  1  0
 26 17  1  0
M  CHG  1  16  -1
M  END
>  <UniqueID>  (10) 
10

>  <SMILES>  (10) 
Fc1cccc(NC(=S)/N=c2/[n-]c3ccccc3s2)c1

>  <Energy>  (10) 
78.19952115574449

>  <Genealogy>  (10) 
Fc1cccc(NC(=S)N=c2[n-]c3ccccc3s2)c1 (protonated)
Fc1cccc(NC(=S)/N=c2/[n-]c3ccccc3s2)c1 (cis-trans isomerization)
Fc1cccc(NC(=S)/N=c2/[n-]c3ccccc3s2)c1 (3D coordinates assigned)
Fc1cccc(NC(=S)/N=c2/[n-]c3ccccc3s2)c1 (optimized conformer: 78.19952115574449 kcal/mol)

>  <smiles>  (10) 
Fc1cccc(NC(=S)N=c2[nH]c3ccccc3s2)c1

>  <score_type>  (10) 
oracle

>  <origin>  (10) 
adg

>  <m_score__min__energy>  (10) 
-9.3900000000000006

>  <m_primary>  (10) 
energy

$$$$
10:0
     RDKit          3D

 39 42  0  0  0  0  0  0  0  0999 V2000
   -5.9270   23.5230  -33.2010 H   0  0  0  0  0  0  0  0  0  0  0  0
   -0.3740   25.1110  -27.9350 N   0  0  0  0  0  0  0  0  0  0  0  0
   -1.1980   24.2500  -28.4540 C   0  0  0  0  0  0  0  0  0  0  0  0
   -4.7700   22.0400  -31.1340 C   0  0  0  0  0  0  0  0  0  0  0  0
   -5.7060   21.0780  -31.7600 C   0  0  0  0  0  0  0  0  0  0  0  0
   -7.0770   21.1010  -31.4280 C   0  0  0  0  0  0  0  0  0  0  0  0
   -7.7280   22.2740  -30.2870 Cl  0  0  0  0  0  0  0  0  0  0  0  0
   -7.9550   20.1890  -32.0240 C   0  0  0  0  0  0  0  0  0  0  0  0
   -9.0240   20.2096  -31.7656 H   0  0  0  0  0  0  0  0  0  0  0  0
   -7.4810   19.2530  -32.9450 C   0  0  0  0  0  0  0  0  0  0  0  0
   -8.1766   18.5391  -33.4102 H   0  0  0  0  0  0  0  0  0  0  0  0
   -6.1260   19.2220  -33.2760 C   0  0  0  0  0  0  0  0  0  0  0  0
   -5.7566   18.4822  -34.0014 H   0  0  0  0  0  0  0  0  0  0  0  0
   -5.2350   20.1270  -32.6900 C   0  0  0  0  0  0  0  0  0  0  0  0
   -3.5300   20.0330  -33.1250 Cl  0  0  0  0  0  0  0  0  0  0  0  0
   -3.8150   21.5620  -30.2320 C   0  0  0  0  0  0  0  0  0  0  0  0
   -3.7611   20.4877  -30.0017 H   0  0  0  0  0  0  0  0  0  0  0  0
   -2.9330   22.4520  -29.6270 C   0  0  0  0  0  0  0  0  0  0  0  0
   -1.9630   22.0210  -28.7160 C   0  0  0  0  0  0  0  0  0  0  0  0
   -1.8850   20.9552  -28.4551 H   0  0  0  0  0  0  0  0  0  0  0  0
   -1.1180   22.9240  -28.1550 N   0  0  0  0  0  0  0  0  0  0  0  0
   -4.8310   23.4220  -31.4210 C   0  0  0  0  0  0  0  0  0  0  0  0
   -5.7610   23.8430  -32.2270 N   0  0  0  0  0  0  0  0  0  0  0  0
   -0.4930   25.7600  -26.6570 C   0  0  0  0  0  0  0  0  0  0  0  0
   -0.5630   25.0330  -25.4520 C   0  0  0  0  0  0  0  0  0  0  0  0
   -0.4971   23.9351  -25.4694 H   0  0  0  0  0  0  0  0  0  0  0  0
   -0.7160   25.7030  -24.2340 C   0  0  0  0  0  0  0  0  0  0  0  0
   -0.7546   25.1317  -23.2948 H   0  0  0  0  0  0  0  0  0  0  0  0
   -0.8200   27.0960  -24.2070 C   0  0  0  0  0  0  0  0  0  0  0  0
   -0.9309   27.6214  -23.2470 H   0  0  0  0  0  0  0  0  0  0  0  0
   -0.7830   27.8210  -25.4010 C   0  0  0  0  0  0  0  0  0  0  0  0
   -0.8735   28.9171  -25.3809 H   0  0  0  0  0  0  0  0  0  0  0  0
   -0.6310   27.1550  -26.6220 C   0  0  0  0  0  0  0  0  0  0  0  0
   -0.6197   27.7292  -27.5602 H   0  0  0  0  0  0  0  0  0  0  0  0
   -2.1300   24.6810  -29.3450 N   0  0  0  0  0  0  0  0  0  0  0  0
   -3.0030   23.8210  -29.9360 C   0  0  0  0  0  0  0  0  0  0  0  0
   -3.9310   24.2860  -30.8280 N   0  0  0  0  0  0  0  0  0  0  0  0
   -3.9050   25.6440  -31.1000 O   0  0  0  0  0  0  0  0  0  0  0  0
   -4.1430   26.0500  -31.9930 H   0  0  0  0  0  0  0  0  0  0  0  0
  1  2  1  0
  2  3  2  0
  3  4  1  0
  4  5  1  0
  5  6  2  0
  6  7  1  0
  6  8  1  0
  8  9  1  0
  8 10  2  0
 10 11  1  0
 10 12  1  0
 12 13  1  0
 12 14  2  0
 14 15  1  0
  4 16  2  0
 16 17  1  0
 16 18  1  0
 18 19  1  0
 19 20  1  0
 19 21  2  0
 21 22  1  0
 22 23  2  0
 23 24  1  0
 24 25  2  0
 25 26  1  0
 25 27  1  0
 27 28  1  0
 27 29  2  0
 29 30  1  0
 29 31  1  0
 31 32  1  0
 31 33  2  0
 33 34  1  0
 22 35  1  0
 35 36  1  0
 36 37  1  0
 37 38  1  0
 38 39  1  0
 37  3  1  0
 14  5  1  0
 36 18  2  0
 33 24  1  0
M  CHG  1  35  -1
M  END
>  <UniqueID>  (11) 
11

>  <SMILES>  (11) 
[H]/N=c1/c(-c2c(Cl)cccc2Cl)cc2cn/c(=N\c3ccccc3)[n-]c2n1O

>  <Energy>  (11) 
69.99719931722336

>  <Genealogy>  (11) 
N=c1c(-c2c(Cl)cccc2Cl)cc2cnc(=Nc3ccccc3)[n-]c2n1O (protonated)
[H]/N=c1/c(-c2c(Cl)cccc2Cl)cc2cn/c(=N\c3ccccc3)[n-]c2n1O (cis-trans isomerization)
[H]/N=c1/c(-c2c(Cl)cccc2Cl)cc2cn/c(=N\c3ccccc3)[n-]c2n1O (3D coordinates assigned)
[H]/N=c1/c(-c2c(Cl)cccc2Cl)cc2cn/c(=N\c3ccccc3)[n-]c2n1O (optimized conformer: 69.99719931722336 kcal/mol)

>  <smiles>  (11) 
N=c1c(-c2c(Cl)cccc2Cl)cc2cnc(=Nc3ccccc3)[nH]c2n1O

>  <score_type>  (11) 
oracle

>  <origin>  (11) 
adg

>  <m_score__min__energy>  (11) 
-11.699999999999999

>  <m_primary>  (11) 
energy

$$$$
11:0
     RDKit          3D

 41 42  0  0  0  0  0  0  0  0999 V2000
   -5.0460   24.1330  -31.9510 O   0  0  0  0  0  0  0  0  0  0  0  0
   -4.7670   24.3940  -30.7500 C   0  0  0  0  0  0  0  0  0  0  0  0
   -5.7850   24.1270  -29.6690 C   0  0  0  0  0  0  0  0  0  0  0  0
   -7.1920   23.8610  -30.2270 C   0  0  0  0  0  0  0  0  0  0  0  0
   -7.6170   22.3910  -30.0930 C   0  0  0  0  0  0  0  0  0  0  0  0
   -8.1130   21.8630  -31.3870 N   0  0  0  0  0  0  0  0  0  0  0  0
   -7.0530   21.7910  -32.4280 C   0  0  0  0  0  0  0  0  0  0  0  0
   -6.5870   20.3520  -32.6970 C   0  0  0  0  0  0  0  0  0  0  0  0
   -7.6980   19.4790  -33.1190 N   0  0  0  0  0  0  0  0  0  0  0  0
   -9.0040   19.8540  -32.5450 C   0  0  0  0  0  0  0  0  0  0  0  0
   -8.8490   20.5920  -31.2090 C   0  0  0  0  0  0  0  0  0  0  0  0
   -3.5090   25.0140  -30.4630 N   0  0  0  0  0  0  0  0  0  0  0  0
   -2.4450   24.5650  -29.1680 S   0  0  0  0  0  0  0  0  0  0  0  0
   -3.2250   24.5130  -27.8850 O   0  0  0  0  0  0  0  0  0  0  0  0
   -1.3750   25.6120  -29.0360 O   0  0  0  0  0  0  0  0  0  0  0  0
   -1.7300   22.9730  -29.4600 C   0  0  0  0  0  0  0  0  0  0  0  0
   -1.9970   22.3120  -30.6710 C   0  0  0  0  0  0  0  0  0  0  0  0
   -1.4720   21.0410  -30.9150 C   0  0  0  0  0  0  0  0  0  0  0  0
   -0.6700   20.4200  -29.9570 C   0  0  0  0  0  0  0  0  0  0  0  0
   -0.3880   21.0710  -28.7540 C   0  0  0  0  0  0  0  0  0  0  0  0
   -0.9100   22.3460  -28.4970 C   0  0  0  0  0  0  0  0  0  0  0  0
   -0.4640   23.1760  -26.8270 Br  0  0  0  0  0  0  0  0  0  0  0  0
   -5.4633   23.2467  -29.0932 H   0  0  0  0  0  0  0  0  0  0  0  0
   -5.8435   25.0276  -29.0401 H   0  0  0  0  0  0  0  0  0  0  0  0
   -7.9117   24.4864  -29.6785 H   0  0  0  0  0  0  0  0  0  0  0  0
   -7.1746   24.1044  -31.2996 H   0  0  0  0  0  0  0  0  0  0  0  0
   -6.7518   21.7942  -29.7685 H   0  0  0  0  0  0  0  0  0  0  0  0
   -8.4282   22.3260  -29.3530 H   0  0  0  0  0  0  0  0  0  0  0  0
   -7.4482   22.2141  -33.3633 H   0  0  0  0  0  0  0  0  0  0  0  0
   -6.1857   22.3593  -32.0607 H   0  0  0  0  0  0  0  0  0  0  0  0
   -5.8269   20.3681  -33.4919 H   0  0  0  0  0  0  0  0  0  0  0  0
   -6.1760   19.9482  -31.7600 H   0  0  0  0  0  0  0  0  0  0  0  0
   -7.7780   19.5230  -34.1630 H   0  0  0  0  0  0  0  0  0  0  0  0
   -9.5298   20.5095  -33.2548 H   0  0  0  0  0  0  0  0  0  0  0  0
   -9.5742   18.9314  -32.3615 H   0  0  0  0  0  0  0  0  0  0  0  0
   -9.8469   20.8085  -30.7999 H   0  0  0  0  0  0  0  0  0  0  0  0
   -8.2800   19.9515  -30.5191 H   0  0  0  0  0  0  0  0  0  0  0  0
   -2.6240   22.7991  -31.4323 H   0  0  0  0  0  0  0  0  0  0  0  0
   -1.6911   20.5290  -31.8636 H   0  0  0  0  0  0  0  0  0  0  0  0
   -0.2598   19.4176  -30.1492 H   0  0  0  0  0  0  0  0  0  0  0  0
    0.2482   20.5797  -28.0031 H   0  0  0  0  0  0  0  0  0  0  0  0
  1  2  2  0
  2  3  1  0
  3  4  1  0
  4  5  1  0
  5  6  1  0
  6  7  1  0
  7  8  1  0
  8  9  1  0
  9 10  1  0
 10 11  1  0
  2 12  1  0
 12 13  1  0
 13 14  2  0
 13 15  2  0
 13 16  1  0
 16 17  2  0
 17 18  1  0
 18 19  2  0
 19 20  1  0
 20 21  2  0
 21 22  1  0
 11  6  1  0
 21 16  1  0
  3 23  1  0
  3 24  1  0
  4 25  1  0
  4 26  1  0
  5 27  1  0
  5 28  1  0
  7 29  1  0
  7 30  1  0
  8 31  1  0
  8 32  1  0
  9 33  1  0
 10 34  1  0
 10 35  1  0
 11 36  1  0
 11 37  1  0
 17 38  1  0
 18 39  1  0
 19 40  1  0
 20 41  1  0
M  CHG  1  12  -1
M  END
>  <UniqueID>  (12) 
12

>  <SMILES>  (12) 
O=C(CCCN1CCNCC1)[N-]S(=O)(=O)c1ccccc1Br

>  <Energy>  (12) 
50.800039665323496

>  <Genealogy>  (12) 
O=C(CCCN1CCNCC1)[N-]S(=O)(=O)c1ccccc1Br (protonated)
O=C(CCCN1CCNCC1)[N-]S(=O)(=O)c1ccccc1Br (3D coordinates assigned)
O=C(CCCN1CCNCC1)[N-]S(=O)(=O)c1ccccc1Br (nonaromatic ring conformer: 50.800039665323496 kcal/mol)

>  <smiles>  (12) 
O=C(CCCN1CCNCC1)NS(=O)(=O)c1ccccc1Br

>  <score_type>  (12) 
oracle

>  <origin>  (12) 
adg

>  <m_score__min__energy>  (12) 
-10.19

>  <m_primary>  (12) 
energy

$$$$
12:0
     RDKit          3D

 48 50  0  0  0  0  0  0  0  0999 V2000
   -4.4948   20.4556  -31.6920 H   0  0  0  0  0  0  0  0  0  0  0  0
   -4.8340   21.4100  -31.2630 C   0  0  0  0  0  0  0  0  0  0  0  0
   -4.0998   22.1260  -30.8652 H   0  0  0  0  0  0  0  0  0  0  0  0
   -6.1440   21.7010  -31.2250 C   0  0  0  0  0  0  0  0  0  0  0  0
   -6.7410   22.8670  -30.7150 C   0  0  0  0  0  0  0  0  0  0  0  0
   -6.2270   23.8750  -29.9840 C   0  0  0  0  0  0  0  0  0  0  0  0
   -6.8285   24.7921  -29.8993 H   0  0  0  0  0  0  0  0  0  0  0  0
   -4.9320   23.8550  -29.2900 C   0  0  0  0  0  0  0  0  0  0  0  0
   -4.4670   22.6800  -28.1780 S   0  0  0  0  0  0  0  0  0  0  0  0
   -2.8910   23.2770  -28.0500 C   0  0  0  0  0  0  0  0  0  0  0  0
   -1.9540   22.7730  -27.3000 N   0  0  0  0  0  0  0  0  0  0  0  0
   -1.7450   21.3440  -27.1020 C   0  0  0  0  0  0  0  0  0  0  0  0
   -1.7128   21.1239  -26.0247 H   0  0  0  0  0  0  0  0  0  0  0  0
   -2.5709   20.7849  -27.5659 H   0  0  0  0  0  0  0  0  0  0  0  0
   -0.7935   21.0448  -27.5659 H   0  0  0  0  0  0  0  0  0  0  0  0
   -2.7000   24.3530  -28.8550 N   0  0  0  0  0  0  0  0  0  0  0  0
   -1.4180   25.0380  -29.0280 C   0  0  0  0  0  0  0  0  0  0  0  0
   -0.9888   25.2673  -28.0415 H   0  0  0  0  0  0  0  0  0  0  0  0
   -0.7277   24.3886  -29.5862 H   0  0  0  0  0  0  0  0  0  0  0  0
   -1.5742   25.9729  -29.5862 H   0  0  0  0  0  0  0  0  0  0  0  0
   -3.8210   24.6520  -29.5720 C   0  0  0  0  0  0  0  0  0  0  0  0
   -3.8430   25.6570  -30.5340 O   0  0  0  0  0  0  0  0  0  0  0  0
   -8.0690   22.8250  -31.1030 C   0  0  0  0  0  0  0  0  0  0  0  0
   -8.8297   23.5985  -30.9209 H   0  0  0  0  0  0  0  0  0  0  0  0
   -8.2560   21.6270  -31.7620 C   0  0  0  0  0  0  0  0  0  0  0  0
   -9.5620   21.1670  -32.3350 C   0  0  0  0  0  0  0  0  0  0  0  0
  -10.2556   20.9227  -31.5169 H   0  0  0  0  0  0  0  0  0  0  0  0
   -9.9929   21.9674  -32.9543 H   0  0  0  0  0  0  0  0  0  0  0  0
   -9.3962   20.2732  -32.9543 H   0  0  0  0  0  0  0  0  0  0  0  0
   -7.0920   20.9440  -31.8370 N   0  0  0  0  0  0  0  0  0  0  0  0
   -6.9050   19.6680  -32.4760 C   0  0  0  0  0  0  0  0  0  0  0  0
   -6.2090   19.5830  -33.6890 C   0  0  0  0  0  0  0  0  0  0  0  0
   -5.8097   20.4956  -34.1556 H   0  0  0  0  0  0  0  0  0  0  0  0
   -6.0190   18.3440  -34.3100 C   0  0  0  0  0  0  0  0  0  0  0  0
   -5.4736   18.2867  -35.2636 H   0  0  0  0  0  0  0  0  0  0  0  0
   -6.5240   17.1690  -33.7180 C   0  0  0  0  0  0  0  0  0  0  0  0
   -6.3660   15.8980  -34.2940 O   0  0  0  0  0  0  0  0  0  0  0  0
   -5.3180   14.9750  -33.9960 C   0  0  0  0  0  0  0  0  0  0  0  0
   -5.7563   13.9903  -33.7765 H   0  0  0  0  0  0  0  0  0  0  0  0
   -4.6473   14.9104  -34.8655 H   0  0  0  0  0  0  0  0  0  0  0  0
   -4.5110   15.4430  -32.7900 C   0  0  0  0  0  0  0  0  0  0  0  0
   -5.0266   15.1440  -31.8654 H   0  0  0  0  0  0  0  0  0  0  0  0
   -3.5115   14.9844  -32.8172 H   0  0  0  0  0  0  0  0  0  0  0  0
   -4.4127   16.5383  -32.8172 H   0  0  0  0  0  0  0  0  0  0  0  0
   -7.2220   17.2620  -32.5070 C   0  0  0  0  0  0  0  0  0  0  0  0
   -7.6241   16.3516  -32.0385 H   0  0  0  0  0  0  0  0  0  0  0  0
   -7.4120   18.5000  -31.8890 C   0  0  0  0  0  0  0  0  0  0  0  0
   -7.9616   18.5589  -30.9380 H   0  0  0  0  0  0  0  0  0  0  0  0
  1  2  1  0
  2  3  1  0
  2  4  2  0
  4  5  1  0
  5  6  2  0
  6  7  1  0
  6  8  1  0
  8  9  1  0
  9 10  1  0
 10 11  2  0
 11 12  1  0
 12 13  1  0
 12 14  1  0
 12 15  1  0
 10 16  1  0
 16 17  1  0
 17 18  1  0
 17 19  1  0
 17 20  1  0
 16 21  1  0
 21 22  1  0
  5 23  1  0
 23 24  1  0
 23 25  2  0
 25 26  1  0
 26 27  1  0
 26 28  1  0
 26 29  1  0
 25 30  1  0
 30 31  1  0
 31 32  2  0
 32 33  1  0
 32 34  1  0
 34 35  1  0
 34 36  2  0
 36 37  1  0
 37 38  1  0
 38 39  1  0
 38 40  1  0
 38 41  1  0
 41 42  1  0
 41 43  1  0
 41 44  1  0
 36 45  1  0
 45 46  1  0
 45 47  2  0
 47 48  1  0
 30  4  1  0
 47 31  1  0
 21  8  2  0
M  CHG  1  22  -1
M  END
>  <UniqueID>  (13) 
13

>  <SMILES>  (13) 
C=c1/c(=C\c2s/c(=N\C)n(C)c2[O-])cc(C)n1-c1ccc(OCC)cc1

>  <Energy>  (13) 
123.52742724227696

>  <Genealogy>  (13) 
C=c1c(=Cc2sc(=NC)n(C)c2[O-])cc(C)n1-c1ccc(OCC)cc1 (protonated)
C=c1/c(=C\c2s/c(=N\C)n(C)c2[O-])cc(C)n1-c1ccc(OCC)cc1 (cis-trans isomerization)
C=c1/c(=C\c2s/c(=N\C)n(C)c2[O-])cc(C)n1-c1ccc(OCC)cc1 (3D coordinates assigned)
C=c1/c(=C\c2s/c(=N\C)n(C)c2[O-])cc(C)n1-c1ccc(OCC)cc1 (optimized conformer: 123.52742724227696 kcal/mol)

>  <smiles>  (13) 
C=c1c(=Cc2sc(=NC)n(C)c2O)cc(C)n1-c1ccc(OCC)cc1

>  <score_type>  (13) 
oracle

>  <origin>  (13) 
adg

>  <m_score__min__energy>  (13) 
-11.52

>  <m_primary>  (13) 
energy

$$$$
13:0
     RDKit          3D

 59 62  0  0  0  0  0  0  0  0999 V2000
   -5.0250   21.9480  -32.4770 C   0  0  0  0  0  0  0  0  0  0  0  0
   -4.5860   20.8590  -33.4510 C   0  0  0  0  0  0  0  0  0  0  0  0
   -3.3930   20.1070  -32.9040 C   0  0  0  0  0  0  0  0  0  0  0  0
   -2.7180   20.6410  -31.7940 C   0  0  0  0  0  0  0  0  0  0  0  0
   -1.5240   20.0680  -31.3320 C   0  0  0  0  0  0  0  0  0  0  0  0
   -0.8410   20.6170  -30.1390 C   0  0  0  0  0  0  0  0  0  0  0  0
    0.2880   20.1010  -29.6140 N   0  0  0  0  0  0  0  0  0  0  0  0
    0.5670   20.8640  -28.6020 O   0  0  0  0  0  0  0  0  0  0  0  0
   -0.3350   21.8070  -28.5000 C   0  0  0  0  0  0  0  0  0  0  0  0
   -0.3260   22.8500  -27.4720 C   0  0  0  0  0  0  0  0  0  0  0  0
   -0.2940   22.6370  -26.1000 C   0  0  0  0  0  0  0  0  0  0  0  0
   -0.2790   23.8240  -25.3570 C   0  0  0  0  0  0  0  0  0  0  0  0
   -0.2990   24.9700  -26.1480 C   0  0  0  0  0  0  0  0  0  0  0  0
   -0.2820   26.3560  -25.6620 C   0  0  0  0  0  0  0  0  0  0  0  0
   -0.4960   27.3880  -26.5240 N   0  0  0  0  0  0  0  0  0  0  0  0
   -0.4850   28.6760  -26.0910 C   0  0  0  0  0  0  0  0  0  0  0  0
   -0.2530   28.9550  -24.7450 C   0  0  0  0  0  0  0  0  0  0  0  0
   -0.0350   27.8890  -23.8740 C   0  0  0  0  0  0  0  0  0  0  0  0
   -0.0530   26.6150  -24.3450 N   0  0  0  0  0  0  0  0  0  0  0  0
   -0.3350   24.5070  -27.7680 S   0  0  0  0  0  0  0  0  0  0  0  0
   -1.2720   21.7040  -29.4620 N   0  0  0  0  0  0  0  0  0  0  0  0
   -0.9750   18.9810  -32.0240 C   0  0  0  0  0  0  0  0  0  0  0  0
   -1.6170   18.4490  -33.1500 C   0  0  0  0  0  0  0  0  0  0  0  0
   -0.9940   17.2760  -33.8570 C   0  0  0  0  0  0  0  0  0  0  0  0
   -2.8670   18.9650  -33.5520 C   0  0  0  0  0  0  0  0  0  0  0  0
   -3.5640   18.3460  -34.5960 O   0  0  0  0  0  0  0  0  0  0  0  0
   -4.1400   17.0390  -34.4880 C   0  0  0  0  0  0  0  0  0  0  0  0
   -5.6780   17.0920  -34.5330 C   0  0  2  0  0  0  0  0  0  0  0  0
   -6.0720   18.3260  -35.0790 O   0  0  0  0  0  0  0  0  0  0  0  0
   -6.2840   16.9400  -33.1290 C   0  0  0  0  0  0  0  0  0  0  0  0
   -6.4250   18.2500  -32.5020 N   0  0  0  0  0  0  0  0  0  0  0  0
   -7.5180   19.1400  -32.7500 C   0  0  0  0  0  0  0  0  0  0  0  0
   -7.3360   20.1270  -33.5120 O   0  0  0  0  0  0  0  0  0  0  0  0
   -8.8780   18.8890  -32.1610 C   0  0  0  0  0  0  0  0  0  0  0  0
   -9.8800   19.2920  -33.0520 O   0  0  0  0  0  0  0  0  0  0  0  0
   -4.8829   21.5956  -31.4447 H   0  0  0  0  0  0  0  0  0  0  0  0
   -4.4213   22.8526  -32.6420 H   0  0  0  0  0  0  0  0  0  0  0  0
   -6.0873   22.1810  -32.6420 H   0  0  0  0  0  0  0  0  0  0  0  0
   -5.4173   20.1554  -33.6057 H   0  0  0  0  0  0  0  0  0  0  0  0
   -4.3033   21.3284  -34.4048 H   0  0  0  0  0  0  0  0  0  0  0  0
   -3.1316   21.5210  -31.2797 H   0  0  0  0  0  0  0  0  0  0  0  0
   -0.2817   21.6366  -25.6429 H   0  0  0  0  0  0  0  0  0  0  0  0
   -0.2539   23.8487  -24.2576 H   0  0  0  0  0  0  0  0  0  0  0  0
   -0.6589   29.4974  -26.8017 H   0  0  0  0  0  0  0  0  0  0  0  0
   -0.2422   29.9922  -24.3789 H   0  0  0  0  0  0  0  0  0  0  0  0
    0.1514   28.0791  -22.8067 H   0  0  0  0  0  0  0  0  0  0  0  0
   -0.0283   18.5396  -31.6792 H   0  0  0  0  0  0  0  0  0  0  0  0
   -0.6136   16.5598  -33.1138 H   0  0  0  0  0  0  0  0  0  0  0  0
   -1.7497   16.7840  -34.4870 H   0  0  0  0  0  0  0  0  0  0  0  0
   -0.1633   17.6266  -34.4870 H   0  0  0  0  0  0  0  0  0  0  0  0
   -3.7796   16.4200  -35.3228 H   0  0  0  0  0  0  0  0  0  0  0  0
   -3.8387   16.6090  -33.5214 H   0  0  0  0  0  0  0  0  0  0  0  0
   -6.0409   16.2592  -35.1532 H   0  0  0  0  0  0  0  0  0  0  0  0
   -5.7330   19.0330  -34.4690 H   0  0  0  0  0  0  0  0  0  0  0  0
   -7.2734   16.4658  -33.2086 H   0  0  0  0  0  0  0  0  0  0  0  0
   -5.6193   16.3151  -32.5144 H   0  0  0  0  0  0  0  0  0  0  0  0
   -8.9896   17.8147  -31.9525 H   0  0  0  0  0  0  0  0  0  0  0  0
   -8.9752   19.4678  -31.2307 H   0  0  0  0  0  0  0  0  0  0  0  0
   -9.4120   19.6210  -33.8640 H   0  0  0  0  0  0  0  0  0  0  0  0
  1  2  1  0
  2  3  1  0
  3  4  2  0
  4  5  1  0
  5  6  1  0
  6  7  2  0
  7  8  1  0
  8  9  1  0
  9 10  1  0
 10 11  2  0
 11 12  1  0
 12 13  2  0
 13 14  1  0
 14 15  2  0
 15 16  1  0
 16 17  2  0
 17 18  1  0
 18 19  2  0
 13 20  1  0
  9 21  2  0
  5 22  2  0
 22 23  1  0
 23 24  1  0
 23 25  2  0
 25 26  1  0
 26 27  1  0
 27 28  1  0
 28 29  1  0
 28 30  1  0
 30 31  1  0
 31 32  1  0
 32 33  2  0
 32 34  1  0
 34 35  1  0
 25  3  1  0
 21  6  1  0
 20 10  1  0
 19 14  1  0
  1 36  1  0
  1 37  1  0
  1 38  1  0
  2 39  1  0
  2 40  1  0
  4 41  1  0
 11 42  1  0
 12 43  1  0
 16 44  1  0
 17 45  1  0
 18 46  1  0
 22 47  1  0
 24 48  1  0
 24 49  1  0
 24 50  1  0
 27 51  1  0
 27 52  1  0
 28 53  1  6
 29 54  1  0
 30 55  1  0
 30 56  1  0
 34 57  1  0
 34 58  1  0
 35 59  1  0
M  CHG  1  31  -1
M  END
>  <UniqueID>  (14) 
14

>  <SMILES>  (14) 
CCc1cc(-c2noc(-c3ccc(-c4ncccn4)s3)n2)cc(C)c1OC[C@H](O)C[N-]C(=O)CO

>  <Energy>  (14) 
121.18524586002141

>  <Genealogy>  (14) 
CCc1cc(-c2noc(-c3ccc(-c4ncccn4)s3)n2)cc(C)c1OCC(O)C[N-]C(=O)CO (protonated)
CCc1cc(-c2noc(-c3ccc(-c4ncccn4)s3)n2)cc(C)c1OC[C@H](O)C[N-]C(=O)CO (chirality)
CCc1cc(-c2noc(-c3ccc(-c4ncccn4)s3)n2)cc(C)c1OC[C@H](O)C[N-]C(=O)CO (3D coordinates assigned)
CCc1cc(-c2noc(-c3ccc(-c4ncccn4)s3)n2)cc(C)c1OC[C@H](O)C[N-]C(=O)CO (optimized conformer: 121.18524586002141 kcal/mol)

>  <smiles>  (14) 
CCc1cc(-c2noc(-c3ccc(-c4ncccn4)s3)n2)cc(C)c1OCC(O)CNC(=O)CO

>  <score_type>  (14) 
oracle

>  <origin>  (14) 
adg

>  <m_score__min__energy>  (14) 
-8.9100000000000001

>  <m_primary>  (14) 
energy

$$$$
14:0
     RDKit          3D

 46 48  0  0  1  0  0  0  0  0999 V2000
   -5.7520   16.6820  -32.0440 C   0  0  0  0  0  0  0  0  0  0  0  0
   -6.1270   16.2530  -33.4250 C   0  0  0  0  0  0  0  0  0  0  0  0
   -6.0650   17.3990  -34.3740 C   0  0  0  0  0  0  0  0  0  0  0  0
   -6.3330   18.7240  -33.7580 C   0  0  0  0  0  0  0  0  0  0  0  0
   -5.3640   19.6270  -33.6440 N   0  0  0  0  0  0  0  0  0  0  0  0
   -5.6120   20.8280  -33.0850 C   0  0  0  0  0  0  0  0  0  0  0  0
   -4.6830   21.6440  -33.0310 N   0  0  0  0  0  0  0  0  0  0  0  0
   -3.5210   21.6530  -32.2900 C   0  0  0  0  0  0  0  0  0  0  0  0
   -3.5730   21.2830  -30.8240 C   0  0  0  0  0  0  0  0  0  0  0  0
   -3.7010   22.4210  -29.9400 N   0  0  0  0  0  0  0  0  0  0  0  0
   -4.8990   23.1560  -30.0580 C   0  0  0  0  0  0  0  0  0  0  0  0
   -4.7810   24.6200  -30.2400 C   0  0  0  0  0  0  0  0  0  0  0  0
   -3.4980   25.1160  -30.3840 O   0  0  0  0  0  0  0  0  0  0  0  0
   -2.7350   24.5530  -29.3470 C   0  0  0  0  0  0  0  0  0  0  0  0
   -2.4790   23.1240  -29.8290 C   0  0  0  0  0  0  0  0  0  0  0  0
   -6.8620   21.1420  -32.6240 C   0  0  0  0  0  0  0  0  0  0  0  0
   -7.1130   22.3480  -32.0520 C   0  0  0  0  0  0  0  0  0  0  0  0
   -8.4300   22.5960  -31.5980 C   0  0  0  0  0  0  0  0  0  0  0  0
   -9.3540   21.6110  -31.7630 C   0  0  0  0  0  0  0  0  0  0  0  0
   -9.1120   20.3850  -32.3370 C   0  0  0  0  0  0  0  0  0  0  0  0
   -7.8260   20.1590  -32.7740 C   0  0  0  0  0  0  0  0  0  0  0  0
   -7.5830   18.9610  -33.3320 N   0  0  0  0  0  0  0  0  0  0  0  0
   -6.2909   16.0655  -31.3095 H   0  0  0  0  0  0  0  0  0  0  0  0
   -4.6683   16.5571  -31.9028 H   0  0  0  0  0  0  0  0  0  0  0  0
   -6.0207   17.7393  -31.9028 H   0  0  0  0  0  0  0  0  0  0  0  0
   -5.4308   15.4701  -33.7602 H   0  0  0  0  0  0  0  0  0  0  0  0
   -7.1576   15.8689  -33.4055 H   0  0  0  0  0  0  0  0  0  0  0  0
   -5.0588   17.4236  -34.8177 H   0  0  0  0  0  0  0  0  0  0  0  0
   -6.8588   17.2331  -35.1172 H   0  0  0  0  0  0  0  0  0  0  0  0
   -2.8269   20.9499  -32.7736 H   0  0  0  0  0  0  0  0  0  0  0  0
   -3.2275   22.7131  -32.2801 H   0  0  0  0  0  0  0  0  0  0  0  0
   -4.4362   20.6202  -30.6637 H   0  0  0  0  0  0  0  0  0  0  0  0
   -2.6175   20.7947  -30.5822 H   0  0  0  0  0  0  0  0  0  0  0  0
   -5.4469   22.7582  -30.9249 H   0  0  0  0  0  0  0  0  0  0  0  0
   -5.4039   23.0313  -29.0887 H   0  0  0  0  0  0  0  0  0  0  0  0
   -5.3495   24.8930  -31.1413 H   0  0  0  0  0  0  0  0  0  0  0  0
   -5.1657   25.0642  -29.3101 H   0  0  0  0  0  0  0  0  0  0  0  0
   -1.7892   25.0986  -29.2137 H   0  0  0  0  0  0  0  0  0  0  0  0
   -3.2419   24.5923  -28.3715 H   0  0  0  0  0  0  0  0  0  0  0  0
   -1.9866   23.1546  -30.8121 H   0  0  0  0  0  0  0  0  0  0  0  0
   -1.8332   22.6097  -29.1021 H   0  0  0  0  0  0  0  0  0  0  0  0
   -6.3214   23.1043  -31.9456 H   0  0  0  0  0  0  0  0  0  0  0  0
   -8.6979   23.5534  -31.1273 H   0  0  0  0  0  0  0  0  0  0  0  0
  -10.3761   21.8113  -31.4090 H   0  0  0  0  0  0  0  0  0  0  0  0
   -9.9021   19.6268  -32.4413 H   0  0  0  0  0  0  0  0  0  0  0  0
   -8.3550   18.2400  -33.4240 H   0  0  0  0  0  0  0  0  0  0  0  0
  1  2  1  0
  2  3  1  0
  3  4  1  0
  4  5  2  0
  5  6  1  0
  6  7  2  0
  7  8  1  0
  8  9  1  0
  9 10  1  0
 10 11  1  0
 11 12  1  0
 12 13  1  0
 13 14  1  0
 14 15  1  0
  6 16  1  0
 16 17  2  0
 17 18  1  0
 18 19  2  0
 19 20  1  0
 20 21  2  0
 21 22  1  0
 22  4  1  0
 15 10  1  0
 21 16  1  0
  1 23  1  0
  1 24  1  0
  1 25  1  0
  2 26  1  0
  2 27  1  0
  3 28  1  0
  3 29  1  0
  8 30  1  0
  8 31  1  0
  9 32  1  0
  9 33  1  0
 11 34  1  0
 11 35  1  0
 12 36  1  0
 12 37  1  0
 14 38  1  0
 14 39  1  0
 15 40  1  0
 15 41  1  0
 17 42  1  0
 18 43  1  0
 19 44  1  0
 20 45  1  0
 22 46  1  0
M  END
>  <smiles>  (15) 
CCCc1nc(=NCCN2CCOCC2)c2ccccc2[nH]1

>  <score_type>  (15) 
oracle

>  <origin>  (15) 
adg

>  <m_score__min__energy>  (15) 
-8.3800000000000008

>  <m_primary>  (15) 
energy

$$$$
15:0
     RDKit          3D

 38 40  0  0  0  0  0  0  0  0999 V2000
   -5.3200   25.3080  -30.1500 C   0  0  0  0  0  0  0  0  0  0  0  0
   -5.1420   24.4030  -31.2340 O   0  0  0  0  0  0  0  0  0  0  0  0
   -5.9850   23.3130  -31.5110 C   0  0  0  0  0  0  0  0  0  0  0  0
   -7.3880   23.4390  -31.4880 C   0  0  0  0  0  0  0  0  0  0  0  0
   -8.2030   22.3330  -31.7360 C   0  0  0  0  0  0  0  0  0  0  0  0
   -7.6340   21.0890  -32.0070 C   0  0  0  0  0  0  0  0  0  0  0  0
   -8.7530   19.5780  -32.3430 Br  0  0  0  0  0  0  0  0  0  0  0  0
   -6.2440   20.9490  -32.0390 C   0  0  0  0  0  0  0  0  0  0  0  0
   -5.4090   22.0550  -31.8000 C   0  0  0  0  0  0  0  0  0  0  0  0
   -3.9370   21.8800  -31.8530 C   0  0  0  0  0  0  0  0  0  0  0  0
   -3.3410   21.2310  -32.9460 C   0  0  0  0  0  0  0  0  0  0  0  0
   -1.9520   21.0470  -32.9950 C   0  0  0  0  0  0  0  0  0  0  0  0
   -1.3230   20.3550  -34.1690 C   0  0  0  0  0  0  0  0  0  0  0  0
   -1.1490   21.5620  -31.9670 C   0  0  0  0  0  0  0  0  0  0  0  0
   -1.7300   22.2530  -30.8880 C   0  0  0  0  0  0  0  0  0  0  0  0
   -0.9410   22.7640  -29.8000 N   0  0  0  0  0  0  0  0  0  0  0  0
   -1.2970   23.6680  -28.9350 C   0  0  0  0  0  0  0  0  0  0  0  0
   -2.3860   23.4940  -28.1340 N   0  0  0  0  0  0  0  0  0  0  0  0
   -2.7390   24.4290  -27.2140 C   0  0  0  0  0  0  0  0  0  0  0  0
   -1.9770   25.5870  -27.0740 C   0  0  0  0  0  0  0  0  0  0  0  0
   -0.8590   25.7480  -27.8920 C   0  0  0  0  0  0  0  0  0  0  0  0
   -0.5400   24.7890  -28.7990 N   0  0  0  0  0  0  0  0  0  0  0  0
   -3.1220   22.3830  -30.8250 C   0  0  0  0  0  0  0  0  0  0  0  0
   -5.2134   24.7661  -29.1987 H   0  0  0  0  0  0  0  0  0  0  0  0
   -4.5608   26.1020  -30.2068 H   0  0  0  0  0  0  0  0  0  0  0  0
   -6.3233   25.7553  -30.2068 H   0  0  0  0  0  0  0  0  0  0  0  0
   -7.8448   24.4163  -31.2730 H   0  0  0  0  0  0  0  0  0  0  0  0
   -9.2973   22.4431  -31.7176 H   0  0  0  0  0  0  0  0  0  0  0  0
   -5.7994   19.9658  -32.2528 H   0  0  0  0  0  0  0  0  0  0  0  0
   -3.9692   20.8638  -33.7709 H   0  0  0  0  0  0  0  0  0  0  0  0
   -0.6237   19.5857  -33.8096 H   0  0  0  0  0  0  0  0  0  0  0  0
   -2.1068   19.8820  -34.7789 H   0  0  0  0  0  0  0  0  0  0  0  0
   -0.7775   21.0902  -34.7789 H   0  0  0  0  0  0  0  0  0  0  0  0
   -0.0582   21.4248  -32.0046 H   0  0  0  0  0  0  0  0  0  0  0  0
   -3.6247   24.2722  -26.5808 H   0  0  0  0  0  0  0  0  0  0  0  0
   -2.2506   26.3556  -26.3362 H   0  0  0  0  0  0  0  0  0  0  0  0
   -0.2365   26.6505  -27.8026 H   0  0  0  0  0  0  0  0  0  0  0  0
   -3.5830   22.8844  -29.9613 H   0  0  0  0  0  0  0  0  0  0  0  0
  1  2  1  0
  2  3  1  0
  3  4  2  0
  4  5  1  0
  5  6  2  0
  6  7  1  0
  6  8  1  0
  8  9  2  0
  9 10  1  0
 10 11  2  0
 11 12  1  0
 12 13  1  0
 12 14  2  0
 14 15  1  0
 15 16  1  0
 16 17  2  3
 17 18  1  0
 18 19  2  0
 19 20  1  0
 20 21  2  0
 21 22  1  0
 15 23  2  0
  9  3  1  0
 23 10  1  0
 22 17  1  0
  1 24  1  0
  1 25  1  0
  1 26  1  0
  4 27  1  0
  5 28  1  0
  8 29  1  0
 11 30  1  0
 13 31  1  0
 13 32  1  0
 13 33  1  0
 14 34  1  0
 19 35  1  0
 20 36  1  0
 21 37  1  0
 23 38  1  0
M  CHG  1  22  -1
M  END
>  <UniqueID>  (16) 
15

>  <SMILES>  (16) 
COc1ccc(Br)cc1-c1cc(C)cc(N=c2nccc[n-]2)c1

>  <Energy>  (16) 
52.91391819517447

>  <Genealogy>  (16) 
COc1ccc(Br)cc1-c1cc(C)cc(N=c2nccc[n-]2)c1 (protonated)
COc1ccc(Br)cc1-c1cc(C)cc(N=c2nccc[n-]2)c1 (3D coordinates assigned)
COc1ccc(Br)cc1-c1cc(C)cc(N=c2nccc[n-]2)c1 (optimized conformer: 52.91391819517447 kcal/mol)

>  <smiles>  (16) 
COc1ccc(Br)cc1-c1cc(C)cc(N=c2nccc[nH]2)c1

>  <score_type>  (16) 
oracle

>  <origin>  (16) 
adg

>  <m_score__min__energy>  (16) 
-9.8100000000000005

>  <m_primary>  (16) 
energy

$$$$
16:0
     RDKit          3D

 40 42  0  0  0  0  0  0  0  0999 V2000
   -1.1360   25.7730  -27.8290 C   0  0  0  0  0  0  0  0  0  0  0  0
   -1.6120   25.0860  -29.0220 N   0  0  0  0  0  0  0  0  0  0  0  0
   -1.5300   23.6590  -29.1950 C   0  0  0  0  0  0  0  0  0  0  0  0
   -0.4690   22.9420  -28.6080 C   0  0  0  0  0  0  0  0  0  0  0  0
   -0.3180   21.5770  -28.8360 C   0  0  0  0  0  0  0  0  0  0  0  0
   -1.2170   20.9030  -29.6590 C   0  0  0  0  0  0  0  0  0  0  0  0
   -2.2850   21.5900  -30.2360 C   0  0  0  0  0  0  0  0  0  0  0  0
   -2.4690   22.9660  -30.0030 C   0  0  0  0  0  0  0  0  0  0  0  0
   -3.6810   23.6140  -30.5620 C   0  0  0  0  0  0  0  0  0  0  0  0
   -3.8680   24.9490  -30.6080 N   0  0  0  0  0  0  0  0  0  0  0  0
   -5.0260   25.1510  -31.2130 N   0  0  0  0  0  0  0  0  0  0  0  0
   -5.5050   23.9320  -31.5140 C   0  0  0  0  0  0  0  0  0  0  0  0
   -7.0590   23.6530  -32.3610 S   0  0  0  0  0  0  0  0  0  0  0  0
   -7.7550   22.5680  -31.0700 C   0  0  0  0  0  0  0  0  0  0  0  0
   -7.6080   21.1320  -31.4660 C   0  0  0  0  0  0  0  0  0  0  0  0
   -8.5410   20.3220  -31.2070 O   0  0  0  0  0  0  0  0  0  0  0  0
   -6.4070   20.6830  -32.1140 N   0  0  0  0  0  0  0  0  0  0  0  0
   -6.2510   19.3890  -32.7230 C   0  0  0  0  0  0  0  0  0  0  0  0
   -5.8190   19.3020  -34.0540 C   0  0  0  0  0  0  0  0  0  0  0  0
   -5.7010   18.0580  -34.6810 C   0  0  0  0  0  0  0  0  0  0  0  0
   -6.0240   16.8900  -33.9850 C   0  0  0  0  0  0  0  0  0  0  0  0
   -5.9110   15.6840  -34.5920 F   0  0  0  0  0  0  0  0  0  0  0  0
   -6.4760   16.9660  -32.6660 C   0  0  0  0  0  0  0  0  0  0  0  0
   -6.6000   18.2100  -32.0390 C   0  0  0  0  0  0  0  0  0  0  0  0
   -4.6880   22.9840  -31.1230 O   0  0  0  0  0  0  0  0  0  0  0  0
   -1.4999   25.2478  -26.9336 H   0  0  0  0  0  0  0  0  0  0  0  0
   -0.0361   25.7835  -27.8262 H   0  0  0  0  0  0  0  0  0  0  0  0
   -1.5126   26.8065  -27.8262 H   0  0  0  0  0  0  0  0  0  0  0  0
   -2.0060   25.6760  -29.7850 H   0  0  0  0  0  0  0  0  0  0  0  0
    0.2492   23.4673  -27.9613 H   0  0  0  0  0  0  0  0  0  0  0  0
    0.5124   21.0301  -28.3656 H   0  0  0  0  0  0  0  0  0  0  0  0
   -1.0847   19.8285  -29.8540 H   0  0  0  0  0  0  0  0  0  0  0  0
   -2.9928   21.0494  -30.8816 H   0  0  0  0  0  0  0  0  0  0  0  0
   -7.2209   22.7404  -30.1239 H   0  0  0  0  0  0  0  0  0  0  0  0
   -8.8235   22.7982  -30.9459 H   0  0  0  0  0  0  0  0  0  0  0  0
   -5.5700   21.3080  -32.0710 H   0  0  0  0  0  0  0  0  0  0  0  0
   -5.5712   20.2189  -34.6088 H   0  0  0  0  0  0  0  0  0  0  0  0
   -5.3536   17.9985  -35.7230 H   0  0  0  0  0  0  0  0  0  0  0  0
   -6.7347   16.0469  -32.1198 H   0  0  0  0  0  0  0  0  0  0  0  0
   -6.9724   18.2670  -31.0055 H   0  0  0  0  0  0  0  0  0  0  0  0
  1  2  1  0
  2  3  1  0
  3  4  2  0
  4  5  1  0
  5  6  2  0
  6  7  1  0
  7  8  2  0
  8  9  1  0
  9 10  2  0
 10 11  1  0
 11 12  2  0
 12 13  1  0
 13 14  1  0
 14 15  1  0
 15 16  2  0
 15 17  1  0
 17 18  1  0
 18 19  2  0
 19 20  1  0
 20 21  2  0
 21 22  1  0
 21 23  1  0
 23 24  2  0
 12 25  1  0
  8  3  1  0
 25  9  1  0
 24 18  1  0
  1 26  1  0
  1 27  1  0
  1 28  1  0
  2 29  1  0
  4 30  1  0
  5 31  1  0
  6 32  1  0
  7 33  1  0
 14 34  1  0
 14 35  1  0
 17 36  1  0
 19 37  1  0
 20 38  1  0
 23 39  1  0
 24 40  1  0
M  END
>  <UniqueID>  (17) 
16

>  <SMILES>  (17) 
CNc1ccccc1-c1nnc(SCC(=O)Nc2ccc(F)cc2)o1

>  <Energy>  (17) 
77.2384535895863

>  <Genealogy>  (17) 
CNc1ccccc1-c1nnc(SCC(=O)Nc2ccc(F)cc2)o1 (3D coordinates assigned)
CNc1ccccc1-c1nnc(SCC(=O)Nc2ccc(F)cc2)o1 (optimized conformer: 77.2384535895863 kcal/mol)

>  <smiles>  (17) 
CNc1ccccc1-c1nnc(SCC(=O)Nc2ccc(F)cc2)o1

>  <score_type>  (17) 
oracle

>  <origin>  (17) 
adg

>  <m_score__min__energy>  (17) 
-8.9000000000000004

>  <m_primary>  (17) 
energy

$$$$
17:0
     RDKit          3D

 35 36  0  0  0  0  0  0  0  0999 V2000
   -1.3552   27.6848  -28.2238 H   0  0  0  0  0  0  0  0  0  0  0  0
   -0.7770   26.9750  -27.6140 C   0  0  0  0  0  0  0  0  0  0  0  0
   -0.2368   27.3280  -26.7232 H   0  0  0  0  0  0  0  0  0  0  0  0
   -0.7310   25.6890  -27.9540 C   0  0  0  0  0  0  0  0  0  0  0  0
   -0.0420   24.7050  -27.2710 C   0  0  0  0  0  0  0  0  0  0  0  0
    0.5568   24.8315  -26.3570 H   0  0  0  0  0  0  0  0  0  0  0  0
   -0.2560   23.5310  -27.9660 C   0  0  0  0  0  0  0  0  0  0  0  0
    0.1431   22.5367  -27.7171 H   0  0  0  0  0  0  0  0  0  0  0  0
   -1.0750   23.8530  -29.0420 C   0  0  0  0  0  0  0  0  0  0  0  0
   -1.5120   23.0230  -30.0010 C   0  0  0  0  0  0  0  0  0  0  0  0
   -0.7720   22.3818  -30.5023 H   0  0  0  0  0  0  0  0  0  0  0  0
   -2.9190   22.9140  -30.4270 C   0  0  0  0  0  0  0  0  0  0  0  0
   -3.8180   23.9400  -30.6580 C   0  0  0  0  0  0  0  0  0  0  0  0
   -3.5720   25.3020  -30.5170 O   0  0  0  0  0  0  0  0  0  0  0  0
   -4.9780   23.4210  -31.1040 N   0  0  0  0  0  0  0  0  0  0  0  0
   -6.2040   24.1460  -31.4410 C   0  0  0  0  0  0  0  0  0  0  0  0
   -6.1437   25.1640  -31.0287 H   0  0  0  0  0  0  0  0  0  0  0  0
   -6.3009   24.1764  -32.5363 H   0  0  0  0  0  0  0  0  0  0  0  0
   -7.4420   23.4430  -30.8620 C   0  0  0  0  0  0  0  0  0  0  0  0
   -7.1045   22.6467  -30.1823 H   0  0  0  0  0  0  0  0  0  0  0  0
   -8.0368   24.2091  -30.3430 H   0  0  0  0  0  0  0  0  0  0  0  0
   -8.3450   22.8180  -31.9320 C   0  0  0  0  0  0  0  0  0  0  0  0
   -9.0269   23.5885  -32.3209 H   0  0  0  0  0  0  0  0  0  0  0  0
   -7.7088   22.4216  -32.7370 H   0  0  0  0  0  0  0  0  0  0  0  0
   -9.3310   21.4420  -31.2420 S   0  0  0  0  0  0  0  0  0  0  0  0
   -8.5720   20.1720  -32.3000 C   0  0  0  0  0  0  0  0  0  0  0  0
   -8.1095   19.3982  -31.6697 H   0  0  0  0  0  0  0  0  0  0  0  0
   -9.3447   19.7141  -32.9351 H   0  0  0  0  0  0  0  0  0  0  0  0
   -7.8028   20.6356  -32.9351 H   0  0  0  0  0  0  0  0  0  0  0  0
   -4.7550   22.0900  -31.1550 C   0  0  0  0  0  0  0  0  0  0  0  0
   -5.6150   21.2500  -31.5300 O   0  0  0  0  0  0  0  0  0  0  0  0
   -3.5100   21.7510  -30.7640 N   0  0  0  0  0  0  0  0  0  0  0  0
   -3.0960   20.7920  -30.7280 H   0  0  0  0  0  0  0  0  0  0  0  0
   -1.3530   25.1730  -29.0320 N   0  0  0  0  0  0  0  0  0  0  0  0
   -1.9360   25.6950  -29.7240 H   0  0  0  0  0  0  0  0  0  0  0  0
  1  2  1  0
  2  3  1  0
  2  4  2  0
  4  5  1  0
  5  6  1  0
  5  7  2  0
  7  8  1  0
  7  9  1  0
  9 10  2  0
 10 11  1  0
 10 12  1  0
 12 13  2  0
 13 14  1  0
 13 15  1  0
 15 16  1  0
 16 17  1  0
 16 18  1  0
 16 19  1  0
 19 20  1  0
 19 21  1  0
 19 22  1  0
 22 23  1  0
 22 24  1  0
 22 25  1  0
 25 26  1  0
 26 27  1  0
 26 28  1  0
 26 29  1  0
 15 30  1  0
 30 31  2  0
 30 32  1  0
 32 33  1  0
  9 34  1  0
 34 35  1  0
 34  4  1  0
 32 12  1  0
M  CHG  1  14  -1
M  END
>  <UniqueID>  (18) 
17

>  <SMILES>  (18) 
C=c1cc/c(=C\c2[nH]c(=O)n(CCCSC)c2[O-])[nH]1

>  <Energy>  (18) 
90.9448680068604

>  <Genealogy>  (18) 
C=c1ccc(=Cc2[nH]c(=O)n(CCCSC)c2[O-])[nH]1 (protonated)
C=c1cc/c(=C\c2[nH]c(=O)n(CCCSC)c2[O-])[nH]1 (cis-trans isomerization)
C=c1cc/c(=C\c2[nH]c(=O)n(CCCSC)c2[O-])[nH]1 (3D coordinates assigned)
C=c1cc/c(=C\c2[nH]c(=O)n(CCCSC)c2[O-])[nH]1 (optimized conformer: 90.9448680068604 kcal/mol)

>  <smiles>  (18) 
C=c1ccc(=Cc2[nH]c(=O)n(CCCSC)c2O)[nH]1

>  <score_type>  (18) 
oracle

>  <origin>  (18) 
adg

>  <m_score__min__energy>  (18) 
-9.2699999999999996

>  <m_primary>  (18) 
energy

$$$$
18:0
     RDKit          3D

 35 37  0  0  0  0  0  0  0  0999 V2000
   -5.8070   24.9340  -30.4910 C   0  0  0  0  0  0  0  0  0  0  0  0
   -6.8600   23.8540  -30.2750 C   0  0  0  0  0  0  0  0  0  0  0  0
   -6.5620   22.6840  -31.0970 N   0  0  0  0  0  0  0  0  0  0  0  0
   -5.3510   22.1140  -31.3170 C   0  0  0  0  0  0  0  0  0  0  0  0
   -5.4200   20.9650  -32.0440 N   0  0  0  0  0  0  0  0  0  0  0  0
   -6.7420   20.8350  -32.2740 C   0  0  0  0  0  0  0  0  0  0  0  0
   -7.4330   19.8140  -32.9240 C   0  0  0  0  0  0  0  0  0  0  0  0
   -6.7480   18.6980  -33.5210 N   0  0  0  0  0  0  0  0  0  0  0  0
   -5.7590   18.9030  -34.5880 C   0  0  0  0  0  0  0  0  0  0  0  0
   -4.4290   18.2190  -34.2300 C   0  0  0  0  0  0  0  0  0  0  0  0
   -4.6070   16.8960  -33.4510 C   0  0  0  0  0  0  0  0  0  0  0  0
   -6.0230   16.3220  -33.5830 C   0  0  0  0  0  0  0  0  0  0  0  0
   -7.0590   17.3330  -33.0710 C   0  0  0  0  0  0  0  0  0  0  0  0
   -8.8020   19.8910  -32.9380 N   0  0  0  0  0  0  0  0  0  0  0  0
   -9.4660   20.9360  -32.3430 C   0  0  0  0  0  0  0  0  0  0  0  0
   -8.7740   21.9290  -31.7080 N   0  0  0  0  0  0  0  0  0  0  0  0
   -7.4220   21.8530  -31.6980 C   0  0  0  0  0  0  0  0  0  0  0  0
   -5.4510   25.2991  -29.5164 H   0  0  0  0  0  0  0  0  0  0  0  0
   -4.9619   24.5143  -31.0563 H   0  0  0  0  0  0  0  0  0  0  0  0
   -6.2480   25.7682  -31.0563 H   0  0  0  0  0  0  0  0  0  0  0  0
   -6.8667   23.5605  -29.2149 H   0  0  0  0  0  0  0  0  0  0  0  0
   -7.8446   24.2517  -30.5621 H   0  0  0  0  0  0  0  0  0  0  0  0
   -4.4067   22.5381  -30.9449 H   0  0  0  0  0  0  0  0  0  0  0  0
   -6.1445   18.4760  -35.5255 H   0  0  0  0  0  0  0  0  0  0  0  0
   -5.5828   19.9823  -34.7064 H   0  0  0  0  0  0  0  0  0  0  0  0
   -3.8859   18.0040  -35.1621 H   0  0  0  0  0  0  0  0  0  0  0  0
   -3.8762   18.9086  -33.5751 H   0  0  0  0  0  0  0  0  0  0  0  0
   -3.8898   16.1584  -33.8402 H   0  0  0  0  0  0  0  0  0  0  0  0
   -4.4309   17.1091  -32.3863 H   0  0  0  0  0  0  0  0  0  0  0  0
   -6.2265   16.0983  -34.6406 H   0  0  0  0  0  0  0  0  0  0  0  0
   -6.0935   15.4031  -32.9825 H   0  0  0  0  0  0  0  0  0  0  0  0
   -8.0523   17.0495  -33.4492 H   0  0  0  0  0  0  0  0  0  0  0  0
   -7.0402   17.3195  -31.9712 H   0  0  0  0  0  0  0  0  0  0  0  0
   -9.3630   19.1520  -33.4170 H   0  0  0  0  0  0  0  0  0  0  0  0
  -10.5648   20.9740  -32.3779 H   0  0  0  0  0  0  0  0  0  0  0  0
  1  2  1  0
  2  3  1  0
  3  4  1  0
  4  5  2  0
  5  6  1  0
  6  7  2  0
  7  8  1  0
  8  9  1  0
  9 10  1  0
 10 11  1  0
 11 12  1  0
 12 13  1  0
  7 14  1  0
 14 15  2  0
 15 16  1  0
 16 17  2  0
 17  3  1  0
 17  6  1  0
 13  8  1  0
  1 18  1  0
  1 19  1  0
  1 20  1  0
  2 21  1  0
  2 22  1  0
  4 23  1  0
  9 24  1  0
  9 25  1  0
 10 26  1  0
 10 27  1  0
 11 28  1  0
 11 29  1  0
 12 30  1  0
 12 31  1  0
 13 32  1  0
 13 33  1  0
 14 34  1  0
 15 35  1  0
M  CHG  1  14   1
M  END
>  <UniqueID>  (19) 
18

>  <SMILES>  (19) 
CCn1cnc2c(N3CCCCC3)[nH+]cnc21

>  <Energy>  (19) 
77.21102933329561

>  <Genealogy>  (19) 
CCn1cnc2c(N3CCCCC3)[nH+]cnc21 (protonated)
CCn1cnc2c(N3CCCCC3)[nH+]cnc21 (3D coordinates assigned)
CCn1cnc2c(N3CCCCC3)[nH+]cnc21 (nonaromatic ring conformer: 77.21102933329561 kcal/mol)

>  <smiles>  (19) 
CCn1cnc2c(N3CCCCC3)ncnc21

>  <score_type>  (19) 
oracle

>  <origin>  (19) 
adg

>  <m_score__min__energy>  (19) 
-5.79

>  <m_primary>  (19) 
energy

$$$$
19:0
     RDKit          3D

 46 48  0  0  0  0  0  0  0  0999 V2000
   -7.5696   19.8127  -33.4927 H   0  0  0  0  0  0  0  0  0  0  0  0
   -6.4840   19.6350  -33.4970 C   0  0  0  0  0  0  0  0  0  0  0  0
   -5.9780   18.4030  -33.9530 C   0  0  0  0  0  0  0  0  0  0  0  0
   -6.8200   17.3760  -34.4080 O   0  0  0  0  0  0  0  0  0  0  0  0
   -6.8590   16.0620  -33.8600 C   0  0  0  0  0  0  0  0  0  0  0  0
   -6.8572   16.1226  -32.7617 H   0  0  0  0  0  0  0  0  0  0  0  0
   -7.7727   15.5509  -34.1975 H   0  0  0  0  0  0  0  0  0  0  0  0
   -5.9772   15.4976  -34.1975 H   0  0  0  0  0  0  0  0  0  0  0  0
   -4.5920   18.1800  -33.9630 C   0  0  0  0  0  0  0  0  0  0  0  0
   -4.1210   16.9420  -34.4290 O   0  0  0  0  0  0  0  0  0  0  0  0
   -2.7470   16.5700  -34.4840 C   0  0  0  0  0  0  0  0  0  0  0  0
   -2.3547   16.4638  -33.4618 H   0  0  0  0  0  0  0  0  0  0  0  0
   -2.6474   15.6125  -35.0163 H   0  0  0  0  0  0  0  0  0  0  0  0
   -2.1779   17.3464  -35.0163 H   0  0  0  0  0  0  0  0  0  0  0  0
   -3.7180   19.1900  -33.5110 C   0  0  0  0  0  0  0  0  0  0  0  0
   -2.6316   19.0180  -33.5220 H   0  0  0  0  0  0  0  0  0  0  0  0
   -4.2260   20.4140  -33.0470 C   0  0  0  0  0  0  0  0  0  0  0  0
   -3.3960   21.4530  -32.5840 C   0  0  0  0  0  0  0  0  0  0  0  0
   -1.9720   21.2960  -32.5330 N   0  0  0  0  0  0  0  0  0  0  0  0
   -1.3450   20.8700  -31.2770 C   0  0  0  0  0  0  0  0  0  0  0  0
   -1.6376   21.5648  -30.4760 H   0  0  0  0  0  0  0  0  0  0  0  0
   -1.6835   19.8490  -31.0469 H   0  0  0  0  0  0  0  0  0  0  0  0
    0.1820   20.8600  -31.3970 C   0  0  0  0  0  0  0  0  0  0  0  0
    0.5417   21.8962  -31.4796 H   0  0  0  0  0  0  0  0  0  0  0  0
    0.5974   20.3739  -30.5019 H   0  0  0  0  0  0  0  0  0  0  0  0
    0.6400   20.0710  -32.6340 C   0  0  0  0  0  0  0  0  0  0  0  0
    1.7012   20.2969  -32.8153 H   0  0  0  0  0  0  0  0  0  0  0  0
    0.4654   19.0070  -32.4162 H   0  0  0  0  0  0  0  0  0  0  0  0
   -0.1550   20.4020  -33.9200 C   0  0  0  0  0  0  0  0  0  0  0  0
    0.5575   20.6937  -34.7057 H   0  0  0  0  0  0  0  0  0  0  0  0
   -0.7254   19.5015  -34.1915 H   0  0  0  0  0  0  0  0  0  0  0  0
   -1.1650   21.5400  -33.7320 C   0  0  0  0  0  0  0  0  0  0  0  0
   -0.6255   22.4922  -33.6213 H   0  0  0  0  0  0  0  0  0  0  0  0
   -1.8255   21.5875  -34.6103 H   0  0  0  0  0  0  0  0  0  0  0  0
   -3.9510   22.6260  -32.1710 N   0  0  0  0  0  0  0  0  0  0  0  0
   -3.3240   23.3900  -31.8300 H   0  0  0  0  0  0  0  0  0  0  0  0
   -5.3000   22.8180  -32.1840 C   0  0  0  0  0  0  0  0  0  0  0  0
   -5.7820   23.9580  -31.7740 N   0  0  0  0  0  0  0  0  0  0  0  0
   -5.2630   24.8610  -30.7800 C   0  0  0  0  0  0  0  0  0  0  0  0
   -4.0480   25.1860  -30.8460 O   0  0  0  0  0  0  0  0  0  0  0  0
   -6.0950   25.4320  -29.6710 C   0  0  0  0  0  0  0  0  0  0  0  0
   -5.6660   25.1376  -28.7018 H   0  0  0  0  0  0  0  0  0  0  0  0
   -6.1065   26.5292  -29.7488 H   0  0  0  0  0  0  0  0  0  0  0  0
   -7.1229   25.0481  -29.7488 H   0  0  0  0  0  0  0  0  0  0  0  0
   -6.1130   21.8210  -32.6210 N   0  0  0  0  0  0  0  0  0  0  0  0
   -5.6150   20.6330  -33.0500 C   0  0  0  0  0  0  0  0  0  0  0  0
  1  2  1  0
  2  3  2  0
  3  4  1  0
  4  5  1  0
  5  6  1  0
  5  7  1  0
  5  8  1  0
  3  9  1  0
  9 10  1  0
 10 11  1  0
 11 12  1  0
 11 13  1  0
 11 14  1  0
  9 15  2  0
 15 16  1  0
 15 17  1  0
 17 18  2  0
 18 19  1  0
 19 20  1  0
 20 21  1  0
 20 22  1  0
 20 23  1  0
 23 24  1  0
 23 25  1  0
 23 26  1  0
 26 27  1  0
 26 28  1  0
 26 29  1  0
 29 30  1  0
 29 31  1  0
 29 32  1  0
 32 33  1  0
 32 34  1  0
 18 35  1  0
 35 36  1  0
 35 37  1  0
 37 38  2  0
 38 39  1  0
 39 40  2  0
 39 41  1  0
 41 42  1  0
 41 43  1  0
 41 44  1  0
 37 45  1  0
 45 46  2  0
 46  2  1  0
 46 17  1  0
 32 19  1  0
M  END
>  <UniqueID>  (20) 
19

>  <SMILES>  (20) 
COc1cc2n/c(=N\C(C)=O)[nH]c(N3CCCCC3)c2cc1OC

>  <Energy>  (20) 
58.08165869754265

>  <Genealogy>  (20) 
COc1cc2n/c(=N\C(C)=O)[nH]c(N3CCCCC3)c2cc1OC (cis-trans isomerization)
COc1cc2n/c(=N\C(C)=O)[nH]c(N3CCCCC3)c2cc1OC (3D coordinates assigned)
COc1cc2n/c(=N\C(C)=O)[nH]c(N3CCCCC3)c2cc1OC (nonaromatic ring conformer: 58.08165869754265 kcal/mol)

>  <smiles>  (20) 
COc1cc2nc(=NC(C)=O)[nH]c(N3CCCCC3)c2cc1OC

>  <score_type>  (20) 
oracle

>  <origin>  (20) 
adg

>  <m_score__min__energy>  (20) 
-7.6500000000000004

>  <m_primary>  (20) 
energy

$$$$
20:0
     RDKit          3D

 57 61  0  0  1  0  0  0  0  0999 V2000
   -0.4840   21.3080  -32.5920 C   0  0  0  0  0  0  0  0  0  0  0  0
   -0.2120   21.4910  -31.2130 O   0  0  0  0  0  0  0  0  0  0  0  0
   -0.1720   20.3990  -30.3760 C   0  0  0  0  0  0  0  0  0  0  0  0
   -0.1060   19.0900  -30.8200 C   0  0  0  0  0  0  0  0  0  0  0  0
   -0.0680   18.0330  -29.9300 C   0  0  0  0  0  0  0  0  0  0  0  0
   -0.0040   16.7400  -30.3580 F   0  0  0  0  0  0  0  0  0  0  0  0
   -0.0940   18.2380  -28.5580 C   0  0  0  0  0  0  0  0  0  0  0  0
   -0.1590   19.5400  -28.1060 C   0  0  0  0  0  0  0  0  0  0  0  0
   -0.1970   20.5920  -28.9970 C   0  0  0  0  0  0  0  0  0  0  0  0
   -0.2640   21.9310  -28.4820 N   0  0  0  0  0  0  0  0  0  0  0  0
    0.5790   22.3630  -27.5050 C   0  0  0  0  0  0  0  0  0  0  0  0
    0.2490   23.6970  -27.2390 C   0  0  0  0  0  0  0  0  0  0  0  0
   -0.7980   24.0310  -28.0770 C   0  0  0  0  0  0  0  0  0  0  0  0
   -1.5130   25.2060  -28.2390 C   0  0  0  0  0  0  0  0  0  0  0  0
   -2.4990   25.1790  -29.1760 N   0  0  0  0  0  0  0  0  0  0  0  0
   -2.7640   24.0700  -29.9020 C   0  0  0  0  0  0  0  0  0  0  0  0
   -3.7060   24.1380  -30.7570 N   0  0  0  0  0  0  0  0  0  0  0  0
   -4.3600   23.0140  -31.3330 C   0  0  0  0  0  0  0  0  0  0  0  0
   -3.6900   22.0320  -32.0350 C   0  0  0  0  0  0  0  0  0  0  0  0
   -4.3840   20.9580  -32.5740 C   0  0  0  0  0  0  0  0  0  0  0  0
   -5.7490   20.8130  -32.4450 C   0  0  0  0  0  0  0  0  0  0  0  0
   -6.4820   19.7240  -32.9880 N   0  0  0  0  0  0  0  0  0  0  0  0
   -7.7270   19.2790  -32.3400 C   0  0  0  0  0  0  0  0  0  0  0  0
   -7.9590   17.8070  -32.7070 C   0  0  0  0  0  0  0  0  0  0  0  0
   -6.6620   17.1690  -32.6600 N   0  0  0  0  0  0  0  0  0  0  0  0
   -6.0850   17.1710  -31.3500 C   0  0  0  0  0  0  0  0  0  0  0  0
   -5.7650   17.5810  -33.6930 C   0  0  0  0  0  0  0  0  0  0  0  0
   -6.0910   18.9900  -34.1650 C   0  0  0  0  0  0  0  0  0  0  0  0
   -6.4150   21.7960  -31.7450 C   0  0  0  0  0  0  0  0  0  0  0  0
   -5.7260   22.8860  -31.1950 C   0  0  0  0  0  0  0  0  0  0  0  0
   -2.0880   22.9200  -29.7640 N   0  0  0  0  0  0  0  0  0  0  0  0
   -1.1010   22.9220  -28.8380 C   0  0  0  0  0  0  0  0  0  0  0  0
   -1.3915   20.6974  -32.7089 H   0  0  0  0  0  0  0  0  0  0  0  0
   -0.6371   22.2875  -33.0687 H   0  0  0  0  0  0  0  0  0  0  0  0
    0.3656   20.7971  -33.0687 H   0  0  0  0  0  0  0  0  0  0  0  0
   -0.0834   18.8869  -31.9009 H   0  0  0  0  0  0  0  0  0  0  0  0
   -0.0639   17.3922  -27.8553 H   0  0  0  0  0  0  0  0  0  0  0  0
   -0.1807   19.7408  -27.0247 H   0  0  0  0  0  0  0  0  0  0  0  0
    1.3701   21.7751  -27.0167 H   0  0  0  0  0  0  0  0  0  0  0  0
    0.7320   24.3554  -26.5019 H   0  0  0  0  0  0  0  0  0  0  0  0
   -1.2967   26.1068  -27.6458 H   0  0  0  0  0  0  0  0  0  0  0  0
   -3.0730   26.0580  -29.3350 H   0  0  0  0  0  0  0  0  0  0  0  0
   -2.6002   22.1013  -32.1678 H   0  0  0  0  0  0  0  0  0  0  0  0
   -3.8220   20.1909  -33.1269 H   0  0  0  0  0  0  0  0  0  0  0  0
   -7.6356   19.3807  -31.2485 H   0  0  0  0  0  0  0  0  0  0  0  0
   -8.5733   19.8935  -32.6808 H   0  0  0  0  0  0  0  0  0  0  0  0
   -8.6414   17.3369  -31.9836 H   0  0  0  0  0  0  0  0  0  0  0  0
   -8.4171   17.7100  -33.7024 H   0  0  0  0  0  0  0  0  0  0  0  0
   -6.8863   17.1682  -30.5964 H   0  0  0  0  0  0  0  0  0  0  0  0
   -5.4595   16.2750  -31.2235 H   0  0  0  0  0  0  0  0  0  0  0  0
   -5.4658   18.0713  -31.2235 H   0  0  0  0  0  0  0  0  0  0  0  0
   -4.7357   17.5601  -33.3057 H   0  0  0  0  0  0  0  0  0  0  0  0
   -5.8693   16.8922  -34.5443 H   0  0  0  0  0  0  0  0  0  0  0  0
   -5.2063   19.4523  -34.6271 H   0  0  0  0  0  0  0  0  0  0  0  0
   -6.8901   18.9864  -34.9209 H   0  0  0  0  0  0  0  0  0  0  0  0
   -7.5050   21.7240  -31.6158 H   0  0  0  0  0  0  0  0  0  0  0  0
   -6.2863   23.6545  -30.6423 H   0  0  0  0  0  0  0  0  0  0  0  0
  1  2  1  0
  2  3  1  0
  3  4  2  0
  4  5  1  0
  5  6  1  0
  5  7  2  0
  7  8  1  0
  8  9  2  0
  9 10  1  0
 10 11  1  0
 11 12  2  0
 12 13  1  0
 13 14  2  0
 14 15  1  0
 15 16  1  0
 16 17  2  0
 17 18  1  0
 18 19  2  0
 19 20  1  0
 20 21  2  0
 21 22  1  0
 22 23  1  0
 23 24  1  0
 24 25  1  0
 25 26  1  0
 25 27  1  0
 27 28  1  0
 21 29  1  0
 29 30  2  0
 16 31  1  0
 31 32  2  0
  9  3  1  0
 32 10  1  0
 32 13  1  0
 30 18  1  0
 28 22  1  0
  1 33  1  0
  1 34  1  0
  1 35  1  0
  4 36  1  0
  7 37  1  0
  8 38  1  0
 11 39  1  0
 12 40  1  0
 14 41  1  0
 15 42  1  0
 19 43  1  0
 20 44  1  0
 23 45  1  0
 23 46  1  0
 24 47  1  0
 24 48  1  0
 26 49  1  0
 26 50  1  0
 26 51  1  0
 27 52  1  0
 27 53  1  0
 28 54  1  0
 28 55  1  0
 29 56  1  0
 30 57  1  0
M  END
>  <smiles>  (21) 
COc1cc(F)ccc1-n1ccc2c[nH]c(=Nc3ccc(N4CCN(C)CC4)cc3)nc21

>  <score_type>  (21) 
oracle

>  <origin>  (21) 
adg

>  <m_score__min__energy>  (21) 
-9.3499999999999996

>  <m_primary>  (21) 
energy

$$$$
21:0
     RDKit          3D

 30 32  0  0  0  0  0  0  0  0999 V2000
   -4.9490   25.3050  -30.7760 C   0  0  0  0  0  0  0  0  0  0  0  0
   -3.5800   25.2920  -30.3850 O   0  0  0  0  0  0  0  0  0  0  0  0
   -3.0600   24.5220  -29.3330 C   0  0  0  0  0  0  0  0  0  0  0  0
   -3.3360   23.1530  -29.3190 C   0  0  0  0  0  0  0  0  0  0  0  0
   -2.8280   22.3410  -28.3060 C   0  0  0  0  0  0  0  0  0  0  0  0
   -2.0470   22.8930  -27.2890 C   0  0  0  0  0  0  0  0  0  0  0  0
   -1.7760   24.2740  -27.2550 C   0  0  0  0  0  0  0  0  0  0  0  0
   -0.9000   24.8270  -26.1340 C   0  0  2  0  0  0  0  0  0  0  0  0
   -0.4920   23.9470  -24.9540 C   0  0  0  0  0  0  0  0  0  0  0  0
   -0.2190   24.8180  -23.8070 N   0  0  0  0  0  0  0  0  0  0  0  0
   -0.8590   26.1110  -24.0740 C   0  0  0  0  0  0  0  0  0  0  0  0
   -1.1610   26.2000  -25.5610 C   0  0  1  0  0  0  0  0  0  0  0  0
    0.0290   25.9840  -26.4940 C   0  0  0  0  0  0  0  0  0  0  0  0
   -2.2720   25.0790  -28.3060 C   0  0  0  0  0  0  0  0  0  0  0  0
   -5.5863   25.3111  -29.8795 H   0  0  0  0  0  0  0  0  0  0  0  0
   -5.1506   26.2051  -31.3753 H   0  0  0  0  0  0  0  0  0  0  0  0
   -5.1677   24.4089  -31.3753 H   0  0  0  0  0  0  0  0  0  0  0  0
   -3.9581   22.7127  -30.1122 H   0  0  0  0  0  0  0  0  0  0  0  0
   -3.0432   21.2623  -28.3081 H   0  0  0  0  0  0  0  0  0  0  0  0
   -1.6380   22.2402  -26.5038 H   0  0  0  0  0  0  0  0  0  0  0  0
   -1.3082   23.2519  -24.7079 H   0  0  0  0  0  0  0  0  0  0  0  0
    0.4036   23.3611  -25.2083 H   0  0  0  0  0  0  0  0  0  0  0  0
   -0.5980   24.3970  -22.9270 H   0  0  0  0  0  0  0  0  0  0  0  0
    0.8150   24.9530  -23.7040 H   0  0  0  0  0  0  0  0  0  0  0  0
   -1.7941   26.1880  -23.4999 H   0  0  0  0  0  0  0  0  0  0  0  0
   -0.1908   26.9319  -23.7747 H   0  0  0  0  0  0  0  0  0  0  0  0
   -1.9530   26.9633  -25.5529 H   0  0  0  0  0  0  0  0  0  0  0  0
    0.0175   26.4056  -27.5100 H   0  0  0  0  0  0  0  0  0  0  0  0
    1.1124   26.1647  -26.4343 H   0  0  0  0  0  0  0  0  0  0  0  0
   -2.0398   26.1541  -28.3223 H   0  0  0  0  0  0  0  0  0  0  0  0
  1  2  1  0
  2  3  1  0
  3  4  2  0
  4  5  1  0
  5  6  2  0
  6  7  1  0
  8  7  1  6
  8  9  1  0
  9 10  1  0
 10 11  1  0
 11 12  1  0
 12 13  1  0
  7 14  2  0
 14  3  1  0
 12  8  1  0
 13  8  1  0
  1 15  1  0
  1 16  1  0
  1 17  1  0
  4 18  1  0
  5 19  1  0
  6 20  1  0
  9 21  1  0
  9 22  1  0
 10 23  1  0
 10 24  1  0
 11 25  1  0
 11 26  1  0
 12 27  1  1
 13 28  1  0
 13 29  1  0
 14 30  1  0
M  CHG  1  10   1
M  END
>  <UniqueID>  (22) 
20

>  <SMILES>  (22) 
COc1cccc([C@]23C[NH2+]C[C@H]2C3)c1

>  <Energy>  (22) 
304.2369400508634

>  <Genealogy>  (22) 
COc1cccc(C23C[NH2+]CC2C3)c1 (protonated)
COc1cccc([C@]23C[NH2+]C[C@H]2C3)c1 (chirality)
COc1cccc([C@]23C[NH2+]C[C@H]2C3)c1 (3D coordinates assigned)
COc1cccc([C@]23C[NH2+]C[C@H]2C3)c1 (nonaromatic ring conformer: 304.2369400508634 kcal/mol)

>  <smiles>  (22) 
COc1cccc(C23CNCC2C3)c1

>  <score_type>  (22) 
oracle

>  <origin>  (22) 
adg

>  <m_score__min__energy>  (22) 
-6.1900000000000004

>  <m_primary>  (22) 
energy

$$$$
22:0
     RDKit          3D

 37 37  0  0  0  0  0  0  0  0999 V2000
   -0.4230   27.6080  -26.9750 C   0  0  0  0  0  0  0  0  0  0  0  0
   -1.0020   27.9750  -25.6010 C   0  0  0  0  0  0  0  0  0  0  0  0
   -1.5010   26.8150  -24.8110 N   0  0  0  0  0  0  0  0  0  0  0  0
   -0.4520   26.1850  -23.9650 C   0  0  0  0  0  0  0  0  0  0  0  0
    0.2570   27.1860  -23.0430 C   0  0  0  0  0  0  0  0  0  0  0  0
   -2.1480   25.8060  -25.6950 C   0  0  0  0  0  0  0  0  0  0  0  0
   -1.3130   24.5210  -25.8270 C   0  0  0  0  0  0  0  0  0  0  0  0
   -1.9260   23.4880  -27.2040 S   0  0  0  0  0  0  0  0  0  0  0  0
   -1.4490   24.6440  -28.4970 C   0  0  0  0  0  0  0  0  0  0  0  0
   -0.2340   24.9430  -28.6290 O   0  0  0  0  0  0  0  0  0  0  0  0
   -2.4200   25.2830  -29.3340 N   0  0  0  0  0  0  0  0  0  0  0  0
   -3.5010   24.6370  -30.0200 C   0  0  0  0  0  0  0  0  0  0  0  0
   -4.7440   25.2700  -30.1990 C   0  0  0  0  0  0  0  0  0  0  0  0
   -5.7860   24.6020  -30.8480 C   0  0  0  0  0  0  0  0  0  0  0  0
   -5.6020   23.2920  -31.3050 C   0  0  0  0  0  0  0  0  0  0  0  0
   -4.3790   22.6480  -31.1040 C   0  0  0  0  0  0  0  0  0  0  0  0
   -3.3340   23.3160  -30.4550 C   0  0  0  0  0  0  0  0  0  0  0  0
    0.4991   27.0235  -26.8401 H   0  0  0  0  0  0  0  0  0  0  0  0
   -1.1575   27.0102  -27.5346 H   0  0  0  0  0  0  0  0  0  0  0  0
   -0.1958   28.5274  -27.5346 H   0  0  0  0  0  0  0  0  0  0  0  0
   -0.2137   28.4740  -25.0182 H   0  0  0  0  0  0  0  0  0  0  0  0
   -1.8715   28.6216  -25.7905 H   0  0  0  0  0  0  0  0  0  0  0  0
   -2.2340   27.2000  -24.1700 H   0  0  0  0  0  0  0  0  0  0  0  0
   -0.9224   25.4087  -23.3436 H   0  0  0  0  0  0  0  0  0  0  0  0
    0.3077   25.7658  -24.6411 H   0  0  0  0  0  0  0  0  0  0  0  0
    0.0662   26.9167  -21.9937 H   0  0  0  0  0  0  0  0  0  0  0  0
    1.3394   27.1603  -23.2372 H   0  0  0  0  0  0  0  0  0  0  0  0
   -0.1264   28.1986  -23.2372 H   0  0  0  0  0  0  0  0  0  0  0  0
   -3.1311   25.5469  -25.2750 H   0  0  0  0  0  0  0  0  0  0  0  0
   -2.2422   26.2493  -26.6973 H   0  0  0  0  0  0  0  0  0  0  0  0
   -0.2637   24.7906  -26.0177 H   0  0  0  0  0  0  0  0  0  0  0  0
   -1.3970   23.9481  -24.8917 H   0  0  0  0  0  0  0  0  0  0  0  0
   -4.8966   26.2939  -29.8271 H   0  0  0  0  0  0  0  0  0  0  0  0
   -6.7517   25.1063  -30.9998 H   0  0  0  0  0  0  0  0  0  0  0  0
   -6.4203   22.7697  -31.8223 H   0  0  0  0  0  0  0  0  0  0  0  0
   -4.2370   21.6155  -31.4558 H   0  0  0  0  0  0  0  0  0  0  0  0
   -2.3769   22.8010  -30.2857 H   0  0  0  0  0  0  0  0  0  0  0  0
  1  2  1  0
  2  3  1  0
  3  4  1  0
  4  5  1  0
  3  6  1  0
  6  7  1  0
  7  8  1  0
  8  9  1  0
  9 10  2  0
  9 11  1  0
 11 12  1  0
 12 13  2  0
 13 14  1  0
 14 15  2  0
 15 16  1  0
 16 17  2  0
 17 12  1  0
  1 18  1  0
  1 19  1  0
  1 20  1  0
  2 21  1  0
  2 22  1  0
  3 23  1  0
  4 24  1  0
  4 25  1  0
  5 26  1  0
  5 27  1  0
  5 28  1  0
  6 29  1  0
  6 30  1  0
  7 31  1  0
  7 32  1  0
 13 33  1  0
 14 34  1  0
 15 35  1  0
 16 36  1  0
 17 37  1  0
M  CHG  2   3   1  11  -1
M  END
>  <UniqueID>  (23) 
21

>  <SMILES>  (23) 
CC[NH+](CC)CCSC(=O)[N-]c1ccccc1

>  <Energy>  (23) 
37.57534771876588

>  <Genealogy>  (23) 
CC[NH+](CC)CCSC(=O)[N-]c1ccccc1 (protonated)
CC[NH+](CC)CCSC(=O)[N-]c1ccccc1 (3D coordinates assigned)
CC[NH+](CC)CCSC(=O)[N-]c1ccccc1 (optimized conformer: 37.57534771876588 kcal/mol)

>  <smiles>  (23) 
CCN(CC)CCSC(=O)Nc1ccccc1

>  <score_type>  (23) 
oracle

>  <origin>  (23) 
adg

>  <m_score__min__energy>  (23) 
-7.1900000000000004

>  <m_primary>  (23) 
energy

$$$$
23:0
     RDKit          3D

 60 64  0  0  0  0  0  0  0  0999 V2000
   -6.6050   15.8700  -33.9240 C   0  0  0  0  0  0  0  0  0  0  0  0
   -6.3610   17.1960  -34.3880 O   0  0  0  0  0  0  0  0  0  0  0  0
   -5.5690   18.1420  -33.7140 C   0  0  0  0  0  0  0  0  0  0  0  0
   -6.1170   19.3110  -33.1460 C   0  0  0  0  0  0  0  0  0  0  0  0
   -5.2940   20.2180  -32.4540 C   0  0  0  0  0  0  0  0  0  0  0  0
   -5.7930   21.3950  -31.8670 C   0  0  0  0  0  0  0  0  0  0  0  0
   -7.1890   21.7140  -31.9330 N   0  0  0  0  0  0  0  0  0  0  0  0
   -8.1450   20.6920  -31.4990 C   0  0  0  0  0  0  0  0  0  0  0  0
   -9.5700   21.0690  -31.9170 C   0  0  0  0  0  0  0  0  0  0  0  0
   -9.8590   22.4050  -31.5430 O   0  0  0  0  0  0  0  0  0  0  0  0
   -9.0680   23.2800  -32.3330 C   0  0  0  0  0  0  0  0  0  0  0  0
   -7.5740   23.1290  -32.0000 C   0  0  0  0  0  0  0  0  0  0  0  0
   -4.9470   22.2310  -31.2020 N   0  0  0  0  0  0  0  0  0  0  0  0
   -3.6150   21.9510  -31.0890 C   0  0  0  0  0  0  0  0  0  0  0  0
   -2.7060   22.8380  -30.3260 C   0  0  0  0  0  0  0  0  0  0  0  0
   -3.1220   24.1200  -29.9380 C   0  0  0  0  0  0  0  0  0  0  0  0
   -2.2690   24.9420  -29.2720 N   0  0  0  0  0  0  0  0  0  0  0  0
   -1.0120   24.5370  -28.9500 C   0  0  0  0  0  0  0  0  0  0  0  0
   -0.2180   25.3470  -28.3240 N   0  0  0  0  0  0  0  0  0  0  0  0
   -0.5920   23.2920  -29.2910 N   0  0  0  0  0  0  0  0  0  0  0  0
   -1.4060   22.4400  -29.9670 C   0  0  0  0  0  0  0  0  0  0  0  0
   -3.1200   20.8170  -31.6520 N   0  0  0  0  0  0  0  0  0  0  0  0
   -3.9180   19.9540  -32.3310 C   0  0  0  0  0  0  0  0  0  0  0  0
   -3.3730   18.8040  -32.9040 C   0  0  0  0  0  0  0  0  0  0  0  0
   -4.1890   17.9040  -33.5990 C   0  0  0  0  0  0  0  0  0  0  0  0
   -3.6030   16.7450  -34.2030 N   0  0  0  0  0  0  0  0  0  0  0  0
   -3.5210   16.6620  -35.6630 C   0  0  0  0  0  0  0  0  0  0  0  0
   -2.5800   15.5250  -36.0920 C   0  0  0  0  0  0  0  0  0  0  0  0
   -1.3130   15.5290  -35.3210 N   0  0  0  0  0  0  0  0  0  0  0  0
   -0.3830   16.5690  -35.8050 C   0  0  0  0  0  0  0  0  0  0  0  0
   -1.4790   15.5800  -33.8390 C   0  0  0  0  0  0  0  0  0  0  0  0
   -2.9340   15.7390  -33.3780 C   0  0  0  0  0  0  0  0  0  0  0  0
   -6.6067   15.8609  -32.8240 H   0  0  0  0  0  0  0  0  0  0  0  0
   -7.5816   15.5256  -34.2950 H   0  0  0  0  0  0  0  0  0  0  0  0
   -5.8150   15.2005  -34.2950 H   0  0  0  0  0  0  0  0  0  0  0  0
   -7.1935   19.5145  -33.2447 H   0  0  0  0  0  0  0  0  0  0  0  0
   -7.8771   19.7290  -31.9583 H   0  0  0  0  0  0  0  0  0  0  0  0
   -8.1072   20.6162  -30.4023 H   0  0  0  0  0  0  0  0  0  0  0  0
   -9.6655   20.9697  -33.0083 H   0  0  0  0  0  0  0  0  0  0  0  0
  -10.2790   20.3965  -31.4120 H   0  0  0  0  0  0  0  0  0  0  0  0
   -9.2246   23.0446  -33.3960 H   0  0  0  0  0  0  0  0  0  0  0  0
   -9.3710   24.3152  -32.1173 H   0  0  0  0  0  0  0  0  0  0  0  0
   -6.9797   23.6267  -32.7804 H   0  0  0  0  0  0  0  0  0  0  0  0
   -7.3859   23.5896  -31.0189 H   0  0  0  0  0  0  0  0  0  0  0  0
   -5.3500   23.0760  -30.7380 H   0  0  0  0  0  0  0  0  0  0  0  0
   -4.1410   24.4609  -30.1733 H   0  0  0  0  0  0  0  0  0  0  0  0
    0.8040   25.1410  -28.2190 H   0  0  0  0  0  0  0  0  0  0  0  0
   -1.0469   21.4353  -30.2345 H   0  0  0  0  0  0  0  0  0  0  0  0
   -2.2956   18.6037  -32.8088 H   0  0  0  0  0  0  0  0  0  0  0  0
   -4.5250   16.4726  -36.0706 H   0  0  0  0  0  0  0  0  0  0  0  0
   -3.1247   17.6128  -36.0489 H   0  0  0  0  0  0  0  0  0  0  0  0
   -3.0896   14.5634  -35.9321 H   0  0  0  0  0  0  0  0  0  0  0  0
   -2.3314   15.6731  -37.1533 H   0  0  0  0  0  0  0  0  0  0  0  0
    0.0745   17.0806  -34.9454 H   0  0  0  0  0  0  0  0  0  0  0  0
    0.4041   16.1018  -36.4151 H   0  0  0  0  0  0  0  0  0  0  0  0
   -0.9349   17.2992  -36.4151 H   0  0  0  0  0  0  0  0  0  0  0  0
   -1.0819   14.6462  -33.4143 H   0  0  0  0  0  0  0  0  0  0  0  0
   -0.9356   16.4700  -33.4888 H   0  0  0  0  0  0  0  0  0  0  0  0
   -3.4571   14.7765  -33.4783 H   0  0  0  0  0  0  0  0  0  0  0  0
   -2.9509   16.0594  -32.3258 H   0  0  0  0  0  0  0  0  0  0  0  0
  1  2  1  0
  2  3  1  0
  3  4  2  0
  4  5  1  0
  5  6  2  0
  6  7  1  0
  7  8  1  0
  8  9  1  0
  9 10  1  0
 10 11  1  0
 11 12  1  0
  6 13  1  0
 13 14  2  0
 14 15  1  0
 15 16  1  0
 16 17  2  0
 17 18  1  0
 18 19  2  3
 18 20  1  0
 20 21  1  0
 14 22  1  0
 22 23  2  0
 23 24  1  0
 24 25  2  0
 25 26  1  0
 26 27  1  0
 27 28  1  0
 28 29  1  0
 29 30  1  0
 29 31  1  0
 31 32  1  0
 25  3  1  0
 32 26  1  0
 23  5  1  0
 12  7  1  0
 21 15  2  0
  1 33  1  0
  1 34  1  0
  1 35  1  0
  4 36  1  0
  8 37  1  0
  8 38  1  0
  9 39  1  0
  9 40  1  0
 11 41  1  0
 11 42  1  0
 12 43  1  0
 12 44  1  0
 13 45  1  0
 16 46  1  0
 19 47  1  0
 21 48  1  0
 24 49  1  0
 27 50  1  0
 27 51  1  0
 28 52  1  0
 28 53  1  0
 30 54  1  0
 30 55  1  0
 30 56  1  0
 31 57  1  0
 31 58  1  0
 32 59  1  0
 32 60  1  0
M  CHG  2  13   1  20  -1
M  END
>  <UniqueID>  (24) 
22

>  <SMILES>  (24) 
COc1cc2c(N3CCOCC3)[nH+]c(-c3cnc(=N)[n-]c3)nc2cc1N1CCN(C)CC1

>  <Energy>  (24) 
90.84461164033354

>  <Genealogy>  (24) 
COc1cc2c(N3CCOCC3)[nH+]c(-c3cnc(=N)[n-]c3)nc2cc1N1CCN(C)CC1 (protonated)
COc1cc2c(N3CCOCC3)[nH+]c(-c3cnc(=N)[n-]c3)nc2cc1N1CCN(C)CC1 (3D coordinates assigned)
COc1cc2c(N3CCOCC3)[nH+]c(-c3cnc(=N)[n-]c3)nc2cc1N1CCN(C)CC1 (nonaromatic ring conformer: 90.84461164033354 kcal/mol)

>  <smiles>  (24) 
COc1cc2c(N3CCOCC3)nc(-c3cnc(=N)[nH]c3)nc2cc1N1CCN(C)CC1

>  <score_type>  (24) 
oracle

>  <origin>  (24) 
adg

>  <m_score__min__energy>  (24) 
-8.0700000000000003

>  <m_primary>  (24) 
energy

$$$$
24:0
     RDKit          3D

 44 47  0  0  0  0  0  0  0  0999 V2000
   -6.7320   16.5650  -34.2010 C   0  0  0  0  0  0  0  0  0  0  0  0
   -5.5810   17.5060  -34.0030 C   0  0  0  0  0  0  0  0  0  0  0  0
   -4.3340   17.2260  -34.5790 C   0  0  0  0  0  0  0  0  0  0  0  0
   -3.2680   18.1170  -34.4290 C   0  0  0  0  0  0  0  0  0  0  0  0
   -3.4380   19.3210  -33.7160 C   0  0  0  0  0  0  0  0  0  0  0  0
   -2.3920   20.2580  -33.5380 C   0  0  0  0  0  0  0  0  0  0  0  0
   -1.0560   20.0830  -34.1510 C   0  0  0  0  0  0  0  0  0  0  0  0
   -0.4910   21.1070  -34.9300 C   0  0  0  0  0  0  0  0  0  0  0  0
    0.7810   20.9460  -35.4890 C   0  0  0  0  0  0  0  0  0  0  0  0
    1.5000   19.7690  -35.2650 C   0  0  0  0  0  0  0  0  0  0  0  0
    0.9500   18.7510  -34.4800 C   0  0  0  0  0  0  0  0  0  0  0  0
   -0.3210   18.9090  -33.9200 C   0  0  0  0  0  0  0  0  0  0  0  0
   -2.6260   21.4080  -32.7690 C   0  0  0  0  0  0  0  0  0  0  0  0
   -3.8910   21.6420  -32.2010 C   0  0  0  0  0  0  0  0  0  0  0  0
   -4.1610   22.8230  -31.4090 N   0  0  0  0  0  0  0  0  0  0  0  0
   -5.5280   23.3720  -31.3700 C   0  0  0  0  0  0  0  0  0  0  0  0
   -5.5420   24.9020  -31.1530 C   0  0  0  0  0  0  0  0  0  0  0  0
   -4.3450   25.4310  -30.4740 N   0  0  0  0  0  0  0  0  0  0  0  0
   -3.7270   24.4430  -29.5910 C   0  0  0  0  0  0  0  0  0  0  0  0
   -3.1630   23.3100  -30.4430 C   0  0  0  0  0  0  0  0  0  0  0  0
   -4.8810   20.7290  -32.4080 N   0  0  0  0  0  0  0  0  0  0  0  0
   -4.6970   19.5960  -33.1330 C   0  0  0  0  0  0  0  0  0  0  0  0
   -5.7590   18.6990  -33.2900 C   0  0  0  0  0  0  0  0  0  0  0  0
   -7.1194   16.2483  -33.2214 H   0  0  0  0  0  0  0  0  0  0  0  0
   -7.5289   17.0736  -34.7634 H   0  0  0  0  0  0  0  0  0  0  0  0
   -6.3919   15.6829  -34.7634 H   0  0  0  0  0  0  0  0  0  0  0  0
   -4.1936   16.2983  -35.1531 H   0  0  0  0  0  0  0  0  0  0  0  0
   -2.2894   17.8771  -34.8704 H   0  0  0  0  0  0  0  0  0  0  0  0
   -1.0509   22.0383  -35.1007 H   0  0  0  0  0  0  0  0  0  0  0  0
    1.2157   21.7466  -36.1055 H   0  0  0  0  0  0  0  0  0  0  0  0
    2.4996   19.6432  -35.7066 H   0  0  0  0  0  0  0  0  0  0  0  0
    1.5176   17.8255  -34.3031 H   0  0  0  0  0  0  0  0  0  0  0  0
   -0.7473   18.1101  -33.2955 H   0  0  0  0  0  0  0  0  0  0  0  0
   -1.8136   22.1322  -32.6092 H   0  0  0  0  0  0  0  0  0  0  0  0
   -6.0269   23.1458  -32.3239 H   0  0  0  0  0  0  0  0  0  0  0  0
   -6.0519   22.9079  -30.5214 H   0  0  0  0  0  0  0  0  0  0  0  0
   -5.6231   25.3884  -32.1363 H   0  0  0  0  0  0  0  0  0  0  0  0
   -6.3974   25.1185  -30.4961 H   0  0  0  0  0  0  0  0  0  0  0  0
   -4.6300   26.2550  -29.8940 H   0  0  0  0  0  0  0  0  0  0  0  0
   -2.9150   24.9150  -29.0184 H   0  0  0  0  0  0  0  0  0  0  0  0
   -4.4760   24.0471  -28.8894 H   0  0  0  0  0  0  0  0  0  0  0  0
   -2.2826   23.6771  -30.9909 H   0  0  0  0  0  0  0  0  0  0  0  0
   -2.8870   22.4783  -29.7781 H   0  0  0  0  0  0  0  0  0  0  0  0
   -6.7403   18.9318  -32.8508 H   0  0  0  0  0  0  0  0  0  0  0  0
  1  2  1  0
  2  3  2  0
  3  4  1  0
  4  5  2  0
  5  6  1  0
  6  7  1  0
  7  8  2  0
  8  9  1  0
  9 10  2  0
 10 11  1  0
 11 12  2  0
  6 13  2  0
 13 14  1  0
 14 15  1  0
 15 16  1  0
 16 17  1  0
 17 18  1  0
 18 19  1  0
 19 20  1  0
 14 21  2  0
 21 22  1  0
 22 23  2  0
 23  2  1  0
 22  5  1  0
 12  7  1  0
 20 15  1  0
  1 24  1  0
  1 25  1  0
  1 26  1  0
  3 27  1  0
  4 28  1  0
  8 29  1  0
  9 30  1  0
 10 31  1  0
 11 32  1  0
 12 33  1  0
 13 34  1  0
 16 35  1  0
 16 36  1  0
 17 37  1  0
 17 38  1  0
 18 39  1  0
 19 40  1  0
 19 41  1  0
 20 42  1  0
 20 43  1  0
 23 44  1  0
M  END
>  <UniqueID>  (25) 
23

>  <SMILES>  (25) 
Cc1ccc2c(-c3ccccc3)cc(N3CCNCC3)nc2c1

>  <Energy>  (25) 
64.04939570658877

>  <Genealogy>  (25) 
Cc1ccc2c(-c3ccccc3)cc(N3CCNCC3)nc2c1 (3D coordinates assigned)
Cc1ccc2c(-c3ccccc3)cc(N3CCNCC3)nc2c1 (nonaromatic ring conformer: 64.04939570658877 kcal/mol)

>  <smiles>  (25) 
Cc1ccc2c(-c3ccccc3)cc(N3CCNCC3)nc2c1

>  <score_type>  (25) 
oracle

>  <origin>  (25) 
adg

>  <m_score__min__energy>  (25) 
-7.8600000000000003

>  <m_primary>  (25) 
energy

$$$$
25:0
     RDKit          3D

 20 20  0  0  0  0  0  0  0  0999 V2000
   -8.8600   23.0630  -32.0010 C   0  0  0  0  0  0  0  0  0  0  0  0
   -7.8220   22.1370  -31.5130 N   0  0  0  0  0  0  0  0  0  0  0  0
   -6.5980   22.1990  -32.3350 C   0  0  0  0  0  0  0  0  0  0  0  0
   -5.7410   23.4010  -32.0310 C   0  0  0  0  0  0  0  0  0  0  0  0
   -5.7900   24.0470  -30.8530 C   0  0  0  0  0  0  0  0  0  0  0  0
   -4.9080   25.1550  -30.5900 N   0  0  0  0  0  0  0  0  0  0  0  0
   -5.3490   26.3180  -30.4720 O   0  0  0  0  0  0  0  0  0  0  0  0
   -3.5530   24.9460  -30.4710 O   0  0  0  0  0  0  0  0  0  0  0  0
   -6.8400   23.6980  -29.8240 C   0  0  0  0  0  0  0  0  0  0  0  0
   -7.5090   22.3400  -30.0870 C   0  0  0  0  0  0  0  0  0  0  0  0
   -9.3744   23.5219  -31.1438 H   0  0  0  0  0  0  0  0  0  0  0  0
   -8.3922   23.8493  -32.6117 H   0  0  0  0  0  0  0  0  0  0  0  0
   -9.5880   22.5088  -32.6117 H   0  0  0  0  0  0  0  0  0  0  0  0
   -6.0056   21.2909  -32.1496 H   0  0  0  0  0  0  0  0  0  0  0  0
   -6.9128   22.2784  -33.3860 H   0  0  0  0  0  0  0  0  0  0  0  0
   -5.0477   23.7642  -32.8039 H   0  0  0  0  0  0  0  0  0  0  0  0
   -6.3636   23.6682  -28.8330 H   0  0  0  0  0  0  0  0  0  0  0  0
   -7.6240   24.4676  -29.8792 H   0  0  0  0  0  0  0  0  0  0  0  0
   -6.8289   21.5409  -29.7569 H   0  0  0  0  0  0  0  0  0  0  0  0
   -8.4563   22.3179  -29.5283 H   0  0  0  0  0  0  0  0  0  0  0  0
  1  2  1  0
  2  3  1  0
  3  4  1  0
  4  5  2  0
  5  6  1  0
  6  7  2  0
  6  8  1  0
  5  9  1  0
  9 10  1  0
 10  2  1  0
  1 11  1  0
  1 12  1  0
  1 13  1  0
  3 14  1  0
  3 15  1  0
  4 16  1  0
  9 17  1  0
  9 18  1  0
 10 19  1  0
 10 20  1  0
M  CHG  2   6   1   8  -1
M  END
>  <UniqueID>  (26) 
24

>  <SMILES>  (26) 
CN1CC=C([N+](=O)[O-])CC1

>  <Energy>  (26) 
22.2378556804361

>  <Genealogy>  (26) 
CN1CC=C([N+](=O)[O-])CC1 (3D coordinates assigned)
CN1CC=C([N+](=O)[O-])CC1 (nonaromatic ring conformer: 22.2378556804361 kcal/mol)

>  <smiles>  (26) 
CN1CC=C([N+](=O)[O-])CC1

>  <score_type>  (26) 
oracle

>  <origin>  (26) 
adg

>  <m_score__min__energy>  (26) 
-5.4699999999999998

>  <m_primary>  (26) 
energy

$$$$
26:0
     RDKit          3D

 31 33  0  0  0  0  0  0  0  0999 V2000
   -0.6040   24.1460  -29.6870 O   0  0  0  0  0  0  0  0  0  0  0  0
   -1.9040   24.1950  -28.9370 S   0  0  0  0  0  0  0  0  0  0  0  0
   -2.3300   22.7930  -28.6010 O   0  0  0  0  0  0  0  0  0  0  0  0
   -3.1110   24.9300  -29.9430 N   0  0  0  0  0  0  0  0  0  0  0  0
   -4.2360   24.2540  -30.5290 C   0  0  0  0  0  0  0  0  0  0  0  0
   -5.5250   24.8200  -30.4970 C   0  0  0  0  0  0  0  0  0  0  0  0
   -6.6080   24.1570  -31.0770 C   0  0  0  0  0  0  0  0  0  0  0  0
   -6.4280   22.9200  -31.6940 C   0  0  0  0  0  0  0  0  0  0  0  0
   -5.1560   22.3340  -31.7330 C   0  0  0  0  0  0  0  0  0  0  0  0
   -4.9610   21.0910  -32.3480 C   0  0  0  0  0  0  0  0  0  0  0  0
   -3.6880   20.5240  -32.3780 C   0  0  0  0  0  0  0  0  0  0  0  0
   -2.6190   21.2040  -31.7960 C   0  0  0  0  0  0  0  0  0  0  0  0
   -2.8120   22.4130  -31.2000 N   0  0  0  0  0  0  0  0  0  0  0  0
   -4.0480   22.9990  -31.1510 C   0  0  0  0  0  0  0  0  0  0  0  0
   -1.6800   25.1450  -27.4720 C   0  0  0  0  0  0  0  0  0  0  0  0
   -0.5690   25.9840  -27.3360 C   0  0  0  0  0  0  0  0  0  0  0  0
   -0.4020   26.7370  -26.1720 C   0  0  0  0  0  0  0  0  0  0  0  0
   -1.3500   26.6360  -25.1510 C   0  0  0  0  0  0  0  0  0  0  0  0
   -2.4230   25.8130  -25.2990 N   0  0  0  0  0  0  0  0  0  0  0  0
   -2.6070   25.0710  -26.4240 C   0  0  0  0  0  0  0  0  0  0  0  0
   -5.6801   25.7941  -30.0102 H   0  0  0  0  0  0  0  0  0  0  0  0
   -7.6086   24.6130  -31.0470 H   0  0  0  0  0  0  0  0  0  0  0  0
   -7.2853   22.4036  -32.1506 H   0  0  0  0  0  0  0  0  0  0  0  0
   -5.8104   20.5634  -32.8063 H   0  0  0  0  0  0  0  0  0  0  0  0
   -3.5279   19.5470  -32.8574 H   0  0  0  0  0  0  0  0  0  0  0  0
   -1.6125   20.7607  -31.8184 H   0  0  0  0  0  0  0  0  0  0  0  0
   -1.9780   22.8810  -30.7790 H   0  0  0  0  0  0  0  0  0  0  0  0
    0.1727   26.0505  -28.1456 H   0  0  0  0  0  0  0  0  0  0  0  0
    0.4667   27.4025  -26.0602 H   0  0  0  0  0  0  0  0  0  0  0  0
   -1.2289   27.2217  -24.2278 H   0  0  0  0  0  0  0  0  0  0  0  0
   -3.4839   24.4126  -26.5111 H   0  0  0  0  0  0  0  0  0  0  0  0
  1  2  2  0
  2  3  2  0
  2  4  1  0
  4  5  1  0
  5  6  2  0
  6  7  1  0
  7  8  2  0
  8  9  1  0
  9 10  2  0
 10 11  1  0
 11 12  2  0
 12 13  1  0
 13 14  2  0
  2 15  1  0
 15 16  2  0
 16 17  1  0
 17 18  2  0
 18 19  1  0
 19 20  2  0
 14  5  1  0
 20 15  1  0
 14  9  1  0
  6 21  1  0
  7 22  1  0
  8 23  1  0
 10 24  1  0
 11 25  1  0
 12 26  1  0
 13 27  1  0
 16 28  1  0
 17 29  1  0
 18 30  1  0
 20 31  1  0
M  CHG  2   4  -1  13   1
M  END
>  <UniqueID>  (27) 
25

>  <SMILES>  (27) 
O=S(=O)([N-]c1cccc2ccc[nH+]c12)c1cccnc1

>  <Energy>  (27) 
42.01051691527258

>  <Genealogy>  (27) 
O=S(=O)([N-]c1cccc2ccc[nH+]c12)c1cccnc1 (protonated)
O=S(=O)([N-]c1cccc2ccc[nH+]c12)c1cccnc1 (3D coordinates assigned)
O=S(=O)([N-]c1cccc2ccc[nH+]c12)c1cccnc1 (optimized conformer: 42.01051691527258 kcal/mol)

>  <smiles>  (27) 
O=S(=O)(Nc1cccc2cccnc12)c1cccnc1

>  <score_type>  (27) 
oracle

>  <origin>  (27) 
adg

>  <m_score__min__energy>  (27) 
-7.0800000000000001

>  <m_primary>  (27) 
energy

$$$$
27:0
     RDKit          3D

 31 32  0  0  0  0  0  0  0  0999 V2000
   -3.0350   24.4850  -28.4540 C   0  0  0  0  0  0  0  0  0  0  0  0
   -3.1040   25.2200  -29.6720 O   0  0  0  0  0  0  0  0  0  0  0  0
   -4.2460   25.3090  -30.4530 N   0  0  0  0  0  0  0  0  0  0  0  0
   -4.9310   24.3200  -30.9560 C   0  0  0  0  0  0  0  0  0  0  0  0
   -4.2840   23.0460  -31.4430 C   0  0  0  0  0  0  0  0  0  0  0  0
   -5.2270   22.2440  -32.3480 C   0  0  0  0  0  0  0  0  0  0  0  0
   -6.5530   22.0890  -31.7270 N   0  0  0  0  0  0  0  0  0  0  0  0
   -7.3270   20.8910  -31.9600 C   0  0  0  0  0  0  0  0  0  0  0  0
   -8.7260   20.8980  -31.8030 C   0  0  0  0  0  0  0  0  0  0  0  0
   -9.4700   19.7370  -32.0240 C   0  0  0  0  0  0  0  0  0  0  0  0
   -8.8300   18.5540  -32.4030 C   0  0  0  0  0  0  0  0  0  0  0  0
   -7.4410   18.5320  -32.5600 C   0  0  0  0  0  0  0  0  0  0  0  0
   -6.6370   17.0470  -33.0370 Cl  0  0  0  0  0  0  0  0  0  0  0  0
   -6.6920   19.6930  -32.3390 C   0  0  0  0  0  0  0  0  0  0  0  0
   -7.1600   23.2070  -30.9820 C   0  0  0  0  0  0  0  0  0  0  0  0
   -6.3990   24.5200  -31.1950 C   0  0  0  0  0  0  0  0  0  0  0  0
   -3.1001   25.1788  -27.6029 H   0  0  0  0  0  0  0  0  0  0  0  0
   -3.8700   23.7703  -28.4092 H   0  0  0  0  0  0  0  0  0  0  0  0
   -2.0816   23.9382  -28.4092 H   0  0  0  0  0  0  0  0  0  0  0  0
   -3.3763   23.3007  -32.0097 H   0  0  0  0  0  0  0  0  0  0  0  0
   -4.0396   22.4276  -30.5668 H   0  0  0  0  0  0  0  0  0  0  0  0
   -5.3388   22.7709  -33.3071 H   0  0  0  0  0  0  0  0  0  0  0  0
   -4.7953   21.2444  -32.5041 H   0  0  0  0  0  0  0  0  0  0  0  0
   -9.2370   21.8251  -31.5040 H   0  0  0  0  0  0  0  0  0  0  0  0
  -10.5628   19.7538  -31.8994 H   0  0  0  0  0  0  0  0  0  0  0  0
   -9.4184   17.6412  -32.5776 H   0  0  0  0  0  0  0  0  0  0  0  0
   -5.5992   19.6695  -32.4623 H   0  0  0  0  0  0  0  0  0  0  0  0
   -8.1976   23.3388  -31.3226 H   0  0  0  0  0  0  0  0  0  0  0  0
   -7.1207   22.9619  -29.9104 H   0  0  0  0  0  0  0  0  0  0  0  0
   -6.5541   24.8651  -32.2279 H   0  0  0  0  0  0  0  0  0  0  0  0
   -6.7767   25.2700  -30.4845 H   0  0  0  0  0  0  0  0  0  0  0  0
  1  2  1  0
  2  3  1  0
  3  4  2  3
  4  5  1  0
  5  6  1  0
  6  7  1  0
  7  8  1  0
  8  9  2  0
  9 10  1  0
 10 11  2  0
 11 12  1  0
 12 13  1  0
 12 14  2  0
  7 15  1  0
 15 16  1  0
 16  4  1  0
 14  8  1  0
  1 17  1  0
  1 18  1  0
  1 19  1  0
  5 20  1  0
  5 21  1  0
  6 22  1  0
  6 23  1  0
  9 24  1  0
 10 25  1  0
 11 26  1  0
 14 27  1  0
 15 28  1  0
 15 29  1  0
 16 30  1  0
 16 31  1  0
M  END
>  <UniqueID>  (28) 
26

>  <SMILES>  (28) 
CON=C1CCN(c2cccc(Cl)c2)CC1

>  <Energy>  (28) 
39.58254912354471

>  <Genealogy>  (28) 
CON=C1CCN(c2cccc(Cl)c2)CC1 (3D coordinates assigned)
CON=C1CCN(c2cccc(Cl)c2)CC1 (nonaromatic ring conformer: 39.58254912354471 kcal/mol)

>  <smiles>  (28) 
CON=C1CCN(c2cccc(Cl)c2)CC1

>  <score_type>  (28) 
oracle

>  <origin>  (28) 
adg

>  <m_score__min__energy>  (28) 
-7.7699999999999996

>  <m_primary>  (28) 
energy

$$$$
28:0
     RDKit          3D

 48 51  0  0  0  0  0  0  0  0999 V2000
   -5.4010   25.1450  -30.6260 O   0  0  0  0  0  0  0  0  0  0  0  0
   -4.3600   24.4350  -30.6620 C   0  0  0  0  0  0  0  0  0  0  0  0
   -3.1360   24.9370  -30.1090 N   0  0  0  0  0  0  0  0  0  0  0  0
   -2.5850   24.4950  -28.8340 C   0  0  0  0  0  0  0  0  0  0  0  0
   -2.1010   23.0750  -28.9460 C   0  0  0  0  0  0  0  0  0  0  0  0
   -0.9230   22.7890  -29.6560 C   0  0  0  0  0  0  0  0  0  0  0  0
   -0.4820   21.4690  -29.7870 C   0  0  0  0  0  0  0  0  0  0  0  0
   -1.2160   20.4240  -29.2160 C   0  0  0  0  0  0  0  0  0  0  0  0
   -0.7870   19.1450  -29.3410 F   0  0  0  0  0  0  0  0  0  0  0  0
   -2.3960   20.7010  -28.5160 C   0  0  0  0  0  0  0  0  0  0  0  0
   -2.8390   22.0200  -28.3810 C   0  0  0  0  0  0  0  0  0  0  0  0
   -4.4100   23.0840  -31.2650 C   0  0  0  0  0  0  0  0  0  0  0  0
   -5.6270   22.3910  -31.3530 C   0  0  0  0  0  0  0  0  0  0  0  0
   -5.6760   21.1250  -31.9560 C   0  0  0  0  0  0  0  0  0  0  0  0
   -6.9670   20.3980  -32.0890 C   0  0  0  0  0  0  0  0  0  0  0  0
   -8.1810   21.1060  -32.1950 C   0  0  0  0  0  0  0  0  0  0  0  0
   -9.3930   20.4220  -32.3300 C   0  0  0  0  0  0  0  0  0  0  0  0
   -9.4100   19.0260  -32.3680 C   0  0  0  0  0  0  0  0  0  0  0  0
   -8.2140   18.3100  -32.2650 C   0  0  0  0  0  0  0  0  0  0  0  0
   -7.0000   18.9900  -32.1250 C   0  0  0  0  0  0  0  0  0  0  0  0
   -4.4880   20.5660  -32.4460 C   0  0  0  0  0  0  0  0  0  0  0  0
   -3.2790   21.2690  -32.3340 C   0  0  0  0  0  0  0  0  0  0  0  0
   -2.0190   20.6800  -32.8510 C   0  0  0  0  0  0  0  0  0  0  0  0
   -1.0840   21.4830  -33.5280 C   0  0  0  0  0  0  0  0  0  0  0  0
    0.1090   20.9300  -34.0070 C   0  0  0  0  0  0  0  0  0  0  0  0
    0.3800   19.5720  -33.8150 C   0  0  0  0  0  0  0  0  0  0  0  0
   -0.5430   18.7660  -33.1460 C   0  0  0  0  0  0  0  0  0  0  0  0
   -1.7370   19.3130  -32.6660 C   0  0  0  0  0  0  0  0  0  0  0  0
   -3.2710   22.5060  -31.7540 N   0  0  0  0  0  0  0  0  0  0  0  0
   -1.7429   25.1458  -28.5561 H   0  0  0  0  0  0  0  0  0  0  0  0
   -3.3689   24.5492  -28.0642 H   0  0  0  0  0  0  0  0  0  0  0  0
   -0.3452   23.6072  -30.1107 H   0  0  0  0  0  0  0  0  0  0  0  0
    0.4437   21.2517  -30.3400 H   0  0  0  0  0  0  0  0  0  0  0  0
   -2.9760   19.8790  -28.0711 H   0  0  0  0  0  0  0  0  0  0  0  0
   -3.7676   22.2331  -27.8312 H   0  0  0  0  0  0  0  0  0  0  0  0
   -6.5452   22.8415  -30.9481 H   0  0  0  0  0  0  0  0  0  0  0  0
   -8.1750   22.2057  -32.1713 H   0  0  0  0  0  0  0  0  0  0  0  0
  -10.3351   20.9846  -32.4064 H   0  0  0  0  0  0  0  0  0  0  0  0
  -10.3642   18.4902  -32.4789 H   0  0  0  0  0  0  0  0  0  0  0  0
   -8.2277   17.2105  -32.2941 H   0  0  0  0  0  0  0  0  0  0  0  0
   -6.0626   18.4205  -32.0423 H   0  0  0  0  0  0  0  0  0  0  0  0
   -4.5034   19.5733  -32.9197 H   0  0  0  0  0  0  0  0  0  0  0  0
   -1.2915   22.5522  -33.6820 H   0  0  0  0  0  0  0  0  0  0  0  0
    0.8350   21.5652  -34.5357 H   0  0  0  0  0  0  0  0  0  0  0  0
    1.3190   19.1392  -34.1905 H   0  0  0  0  0  0  0  0  0  0  0  0
   -0.3303   17.6972  -32.9960 H   0  0  0  0  0  0  0  0  0  0  0  0
   -2.4601   18.6717  -32.1409 H   0  0  0  0  0  0  0  0  0  0  0  0
   -2.3630   23.0120  -31.6600 H   0  0  0  0  0  0  0  0  0  0  0  0
  1  2  2  0
  2  3  1  0
  3  4  1  0
  4  5  1  0
  5  6  2  0
  6  7  1  0
  7  8  2  0
  8  9  1  0
  8 10  1  0
 10 11  2  0
  2 12  1  0
 12 13  2  0
 13 14  1  0
 14 15  1  0
 15 16  2  0
 16 17  1  0
 17 18  2  0
 18 19  1  0
 19 20  2  0
 14 21  2  0
 21 22  1  0
 22 23  1  0
 23 24  2  0
 24 25  1  0
 25 26  2  0
 26 27  1  0
 27 28  2  0
 22 29  2  0
 11  5  1  0
 29 12  1  0
 20 15  1  0
 28 23  1  0
  4 30  1  0
  4 31  1  0
  6 32  1  0
  7 33  1  0
 10 34  1  0
 11 35  1  0
 13 36  1  0
 16 37  1  0
 17 38  1  0
 18 39  1  0
 19 40  1  0
 20 41  1  0
 21 42  1  0
 24 43  1  0
 25 44  1  0
 26 45  1  0
 27 46  1  0
 28 47  1  0
 29 48  1  0
M  CHG  2   3  -1  29   1
M  END
>  <UniqueID>  (29) 
27

>  <SMILES>  (29) 
O=C([N-]Cc1ccc(F)cc1)c1cc(-c2ccccc2)cc(-c2ccccc2)[nH+]1

>  <Energy>  (29) 
61.7951875896249

>  <Genealogy>  (29) 
O=C([N-]Cc1ccc(F)cc1)c1cc(-c2ccccc2)cc(-c2ccccc2)[nH+]1 (protonated)
O=C([N-]Cc1ccc(F)cc1)c1cc(-c2ccccc2)cc(-c2ccccc2)[nH+]1 (3D coordinates assigned)
O=C([N-]Cc1ccc(F)cc1)c1cc(-c2ccccc2)cc(-c2ccccc2)[nH+]1 (optimized conformer: 61.7951875896249 kcal/mol)

>  <smiles>  (29) 
O=C(NCc1ccc(F)cc1)c1cc(-c2ccccc2)cc(-c2ccccc2)n1

>  <score_type>  (29) 
oracle

>  <origin>  (29) 
adg

>  <m_score__min__energy>  (29) 
-9.5999999999999996

>  <m_primary>  (29) 
energy

$$$$
29:0
     RDKit          3D

 41 44  0  0  0  0  0  0  0  0999 V2000
   -1.2240   20.3120  -29.1920 C   0  0  0  0  0  0  0  0  0  0  0  0
   -1.1830   19.9370  -30.5640 O   0  0  0  0  0  0  0  0  0  0  0  0
   -2.0910   20.3870  -31.5350 C   0  0  0  0  0  0  0  0  0  0  0  0
   -1.8050   20.3460  -32.9140 C   0  0  0  0  0  0  0  0  0  0  0  0
   -2.7400   20.8160  -33.8390 C   0  0  0  0  0  0  0  0  0  0  0  0
   -3.9670   21.3200  -33.4040 C   0  0  0  0  0  0  0  0  0  0  0  0
   -4.2770   21.3360  -32.0380 C   0  0  0  0  0  0  0  0  0  0  0  0
   -5.5660   21.8780  -31.5760 C   0  0  0  0  0  0  0  0  0  0  0  0
   -5.6250   23.0360  -30.7960 C   0  0  0  0  0  0  0  0  0  0  0  0
   -7.2370   23.4770  -30.5610 S   0  0  0  0  0  0  0  0  0  0  0  0
   -7.8600   22.1920  -31.4320 C   0  0  0  0  0  0  0  0  0  0  0  0
   -9.1690   21.9320  -31.6460 N   0  0  0  0  0  0  0  0  0  0  0  0
   -9.5120   20.8260  -32.3600 C   0  0  0  0  0  0  0  0  0  0  0  0
   -8.5490   19.9820  -32.8320 N   0  0  0  0  0  0  0  0  0  0  0  0
   -7.2170   20.2220  -32.6300 C   0  0  0  0  0  0  0  0  0  0  0  0
   -6.2550   19.2370  -33.0430 N   0  0  0  0  0  0  0  0  0  0  0  0
   -5.7240   18.2850  -32.0620 C   0  0  0  0  0  0  0  0  0  0  0  0
   -6.0750   16.8340  -32.4690 C   0  0  0  0  0  0  0  0  0  0  0  0
   -6.4420   16.6800  -33.8340 O   0  0  0  0  0  0  0  0  0  0  0  0
   -5.6490   17.4980  -34.6680 C   0  0  0  0  0  0  0  0  0  0  0  0
   -6.0550   18.9610  -34.4720 C   0  0  0  0  0  0  0  0  0  0  0  0
   -6.8470   21.3840  -31.9190 C   0  0  0  0  0  0  0  0  0  0  0  0
   -3.3240   20.8950  -31.1070 C   0  0  0  0  0  0  0  0  0  0  0  0
   -1.1259   19.4146  -28.5635 H   0  0  0  0  0  0  0  0  0  0  0  0
   -0.3961   21.0033  -28.9759 H   0  0  0  0  0  0  0  0  0  0  0  0
   -2.1817   20.8080  -28.9759 H   0  0  0  0  0  0  0  0  0  0  0  0
   -0.8429   19.9428  -33.2630 H   0  0  0  0  0  0  0  0  0  0  0  0
   -2.5087   20.7889  -34.9141 H   0  0  0  0  0  0  0  0  0  0  0  0
   -4.6922   21.7055  -34.1357 H   0  0  0  0  0  0  0  0  0  0  0  0
   -4.7545   23.5770  -30.3966 H   0  0  0  0  0  0  0  0  0  0  0  0
  -10.5723   20.6106  -32.5582 H   0  0  0  0  0  0  0  0  0  0  0  0
   -8.8510   19.1140  -33.3290 H   0  0  0  0  0  0  0  0  0  0  0  0
   -4.6304   18.3916  -32.0095 H   0  0  0  0  0  0  0  0  0  0  0  0
   -6.1736   18.4976  -31.0809 H   0  0  0  0  0  0  0  0  0  0  0  0
   -5.1971   16.2002  -32.2750 H   0  0  0  0  0  0  0  0  0  0  0  0
   -6.9529   16.5441  -31.8729 H   0  0  0  0  0  0  0  0  0  0  0  0
   -4.5882   17.3723  -34.4054 H   0  0  0  0  0  0  0  0  0  0  0  0
   -5.7999   17.2104  -35.7190 H   0  0  0  0  0  0  0  0  0  0  0  0
   -5.2615   19.6152  -34.8623 H   0  0  0  0  0  0  0  0  0  0  0  0
   -6.9937   19.1520  -35.0127 H   0  0  0  0  0  0  0  0  0  0  0  0
   -3.5475   20.9488  -30.0313 H   0  0  0  0  0  0  0  0  0  0  0  0
  1  2  1  0
  2  3  1  0
  3  4  2  0
  4  5  1  0
  5  6  2  0
  6  7  1  0
  7  8  1  0
  8  9  2  0
  9 10  1  0
 10 11  1  0
 11 12  2  0
 12 13  1  0
 13 14  2  0
 14 15  1  0
 15 16  1  0
 16 17  1  0
 17 18  1  0
 18 19  1  0
 19 20  1  0
 20 21  1  0
 15 22  2  0
  7 23  2  0
 23  3  1  0
 22  8  1  0
 22 11  1  0
 21 16  1  0
  1 24  1  0
  1 25  1  0
  1 26  1  0
  4 27  1  0
  5 28  1  0
  6 29  1  0
  9 30  1  0
 13 31  1  0
 14 32  1  0
 17 33  1  0
 17 34  1  0
 18 35  1  0
 18 36  1  0
 20 37  1  0
 20 38  1  0
 21 39  1  0
 21 40  1  0
 23 41  1  0
M  CHG  1  14   1
M  END
>  <UniqueID>  (30) 
28

>  <SMILES>  (30) 
COc1cccc(-c2csc3nc[nH+]c(N4CCOCC4)c23)c1

>  <Energy>  (30) 
95.78424569359659

>  <Genealogy>  (30) 
COc1cccc(-c2csc3nc[nH+]c(N4CCOCC4)c23)c1 (protonated)
COc1cccc(-c2csc3nc[nH+]c(N4CCOCC4)c23)c1 (3D coordinates assigned)
COc1cccc(-c2csc3nc[nH+]c(N4CCOCC4)c23)c1 (nonaromatic ring conformer: 95.78424569359659 kcal/mol)

>  <smiles>  (30) 
COc1cccc(-c2csc3ncnc(N4CCOCC4)c23)c1

>  <score_type>  (30) 
oracle

>  <origin>  (30) 
adg

>  <m_score__min__energy>  (30) 
-7.0700000000000003

>  <m_primary>  (30) 
energy

$$$$
30:0
     RDKit          3D

 48 52  0  0  0  0  0  0  0  0999 V2000
    1.9740   22.0960  -35.3460 C   0  0  0  0  0  0  0  0  0  0  0  0
    0.6320   21.9640  -34.8890 O   0  0  0  0  0  0  0  0  0  0  0  0
   -0.0530   20.7450  -34.7840 C   0  0  0  0  0  0  0  0  0  0  0  0
    0.5300   19.5100  -35.1830 C   0  0  0  0  0  0  0  0  0  0  0  0
   -0.1890   18.3080  -35.0670 C   0  0  0  0  0  0  0  0  0  0  0  0
   -1.4790   18.3650  -34.5470 C   0  0  0  0  0  0  0  0  0  0  0  0
   -2.3330   17.3410  -34.3740 N   0  0  0  0  0  0  0  0  0  0  0  0
   -3.4640   17.8800  -33.8660 C   0  0  0  0  0  0  0  0  0  0  0  0
   -3.3170   19.2570  -33.6990 C   0  0  0  0  0  0  0  0  0  0  0  0
   -4.3650   20.2390  -33.2320 C   0  0  1  0  0  0  0  0  0  0  0  0
   -5.5740   19.4950  -32.7060 C   0  0  0  0  0  0  0  0  0  0  0  0
   -6.8630   19.8170  -33.1590 C   0  0  0  0  0  0  0  0  0  0  0  0
   -7.9660   19.1380  -32.6340 C   0  0  0  0  0  0  0  0  0  0  0  0
   -7.7780   18.1580  -31.6590 C   0  0  0  0  0  0  0  0  0  0  0  0
   -6.4850   17.8720  -31.2180 C   0  0  0  0  0  0  0  0  0  0  0  0
   -5.4240   18.5410  -31.7410 N   0  0  0  0  0  0  0  0  0  0  0  0
   -3.7900   21.2020  -32.2030 C   0  0  0  0  0  0  0  0  0  0  0  0
   -2.5710   20.9250  -31.6580 N   0  0  0  0  0  0  0  0  0  0  0  0
   -1.9720   21.7310  -30.7480 C   0  0  0  0  0  0  0  0  0  0  0  0
   -2.5940   22.9040  -30.3340 C   0  0  0  0  0  0  0  0  0  0  0  0
   -3.8420   23.2540  -30.8700 C   0  0  0  0  0  0  0  0  0  0  0  0
   -4.4820   24.4460  -30.4740 C   0  0  0  0  0  0  0  0  0  0  0  0
   -3.8890   25.2900  -29.5340 O   0  0  0  0  0  0  0  0  0  0  0  0
   -5.7210   24.7880  -31.0280 C   0  0  0  0  0  0  0  0  0  0  0  0
   -6.3240   23.9610  -31.9710 C   0  0  0  0  0  0  0  0  0  0  0  0
   -5.7030   22.7770  -32.3710 C   0  0  0  0  0  0  0  0  0  0  0  0
   -4.4570   22.4000  -31.8250 C   0  0  0  0  0  0  0  0  0  0  0  0
   -2.0450   19.5500  -34.1550 C   0  0  0  0  0  0  0  0  0  0  0  0
   -1.3620   20.7600  -34.2640 C   0  0  0  0  0  0  0  0  0  0  0  0
    2.6509   22.1626  -34.4815 H   0  0  0  0  0  0  0  0  0  0  0  0
    2.2419   21.2199  -35.9548 H   0  0  0  0  0  0  0  0  0  0  0  0
    2.0660   23.0075  -35.9548 H   0  0  0  0  0  0  0  0  0  0  0  0
    1.5534   19.4958  -35.5862 H   0  0  0  0  0  0  0  0  0  0  0  0
    0.2545   17.3506  -35.3779 H   0  0  0  0  0  0  0  0  0  0  0  0
   -2.1670   16.3350  -34.6020 H   0  0  0  0  0  0  0  0  0  0  0  0
   -4.3731   17.3120  -33.6189 H   0  0  0  0  0  0  0  0  0  0  0  0
   -4.6920   20.8485  -34.0873 H   0  0  0  0  0  0  0  0  0  0  0  0
   -7.0039   20.5976  -33.9212 H   0  0  0  0  0  0  0  0  0  0  0  0
   -8.9798   19.3757  -32.9886 H   0  0  0  0  0  0  0  0  0  0  0  0
   -8.6399   17.6163  -31.2421 H   0  0  0  0  0  0  0  0  0  0  0  0
   -6.3247   17.1045  -30.4465 H   0  0  0  0  0  0  0  0  0  0  0  0
   -0.9901   21.4564  -30.3352 H   0  0  0  0  0  0  0  0  0  0  0  0
   -2.1098   23.5538  -29.5902 H   0  0  0  0  0  0  0  0  0  0  0  0
   -4.4060   25.6490  -28.7390 H   0  0  0  0  0  0  0  0  0  0  0  0
   -6.2214   25.7166  -30.7160 H   0  0  0  0  0  0  0  0  0  0  0  0
   -7.2955   24.2422  -32.4035 H   0  0  0  0  0  0  0  0  0  0  0  0
   -6.1886   22.1320  -33.1181 H   0  0  0  0  0  0  0  0  0  0  0  0
   -1.8335   21.7034  -33.9516 H   0  0  0  0  0  0  0  0  0  0  0  0
  1  2  1  0
  2  3  1  0
  3  4  2  0
  4  5  1  0
  5  6  2  0
  6  7  1  0
  7  8  1  0
  8  9  2  0
  9 10  1  0
 10 11  1  0
 11 12  2  0
 12 13  1  0
 13 14  2  0
 14 15  1  0
 15 16  2  0
 10 17  1  0
 17 18  2  0
 18 19  1  0
 19 20  2  0
 20 21  1  0
 21 22  2  0
 22 23  1  0
 22 24  1  0
 24 25  2  0
 25 26  1  0
 26 27  2  0
  9 28  1  0
 28 29  2  0
 29  3  1  0
 28  6  1  0
 16 11  1  0
 27 17  1  0
 27 21  1  0
  1 30  1  0
  1 31  1  0
  1 32  1  0
  4 33  1  0
  5 34  1  0
  7 35  1  0
  8 36  1  0
 10 37  1  6
 12 38  1  0
 13 39  1  0
 14 40  1  0
 15 41  1  0
 19 42  1  0
 20 43  1  0
 23 44  1  0
 24 45  1  0
 25 46  1  0
 26 47  1  0
 29 48  1  0
M  END
>  <UniqueID>  (31) 
29

>  <SMILES>  (31) 
COc1ccc2[nH]cc([C@@H](c3ccccn3)c3nccc4c(O)cccc34)c2c1

>  <Energy>  (31) 
94.31921704818448

>  <Genealogy>  (31) 
COc1ccc2[nH]cc([C@@H](c3ccccn3)c3nccc4c(O)cccc34)c2c1 (chirality)
COc1ccc2[nH]cc([C@@H](c3ccccn3)c3nccc4c(O)cccc34)c2c1 (3D coordinates assigned)
COc1ccc2[nH]cc([C@@H](c3ccccn3)c3nccc4c(O)cccc34)c2c1 (optimized conformer: 94.31921704818448 kcal/mol)

>  <smiles>  (31) 
COc1ccc2[nH]cc(C(c3ccccn3)c3nccc4c(O)cccc34)c2c1

>  <score_type>  (31) 
oracle

>  <origin>  (31) 
adg

>  <m_score__min__energy>  (31) 
-9.3499999999999996

>  <m_primary>  (31) 
energy

$$$$
31:0
     RDKit          3D

 32 34  0  0  0  0  0  0  0  0999 V2000
   -3.3450   19.3770  -33.8380 C   0  0  0  0  0  0  0  0  0  0  0  0
   -4.7310   19.6880  -33.3840 C   0  0  0  0  0  0  0  0  0  0  0  0
   -5.0910   20.7790  -32.5900 C   0  0  0  0  0  0  0  0  0  0  0  0
   -6.4750   20.8540  -32.3930 C   0  0  0  0  0  0  0  0  0  0  0  0
   -7.1980   21.8130  -31.6720 C   0  0  0  0  0  0  0  0  0  0  0  0
   -6.5430   22.8720  -30.9560 N   0  0  0  0  0  0  0  0  0  0  0  0
   -5.3740   22.5770  -30.1180 C   0  0  0  0  0  0  0  0  0  0  0  0
   -4.3170   23.6920  -30.2210 C   0  0  0  0  0  0  0  0  0  0  0  0
   -4.9150   25.0920  -30.4690 C   0  0  0  0  0  0  0  0  0  0  0  0
   -6.3850   25.1800  -30.0490 C   0  0  0  0  0  0  0  0  0  0  0  0
   -7.2220   24.1700  -30.8460 C   0  0  0  0  0  0  0  0  0  0  0  0
   -8.5610   21.7320  -31.6720 N   0  0  0  0  0  0  0  0  0  0  0  0
   -9.2220   20.7360  -32.3360 C   0  0  0  0  0  0  0  0  0  0  0  0
   -8.5260   19.7910  -33.0290 N   0  0  0  0  0  0  0  0  0  0  0  0
   -7.1720   19.8610  -33.0500 C   0  0  0  0  0  0  0  0  0  0  0  0
   -6.1180   18.8510  -33.8780 S   0  0  0  0  0  0  0  0  0  0  0  0
   -2.6961   19.2314  -32.9618 H   0  0  0  0  0  0  0  0  0  0  0  0
   -3.3549   18.4587  -34.4436 H   0  0  0  0  0  0  0  0  0  0  0  0
   -2.9616   20.2115  -34.4436 H   0  0  0  0  0  0  0  0  0  0  0  0
   -4.3710   21.4959  -32.1685 H   0  0  0  0  0  0  0  0  0  0  0  0
   -5.6976   22.4855  -29.0707 H   0  0  0  0  0  0  0  0  0  0  0  0
   -4.9230   21.6371  -30.4691 H   0  0  0  0  0  0  0  0  0  0  0  0
   -3.7479   23.7191  -29.2800 H   0  0  0  0  0  0  0  0  0  0  0  0
   -3.6830   23.4549  -31.0881 H   0  0  0  0  0  0  0  0  0  0  0  0
   -4.3379   25.8301  -29.8927 H   0  0  0  0  0  0  0  0  0  0  0  0
   -4.8614   25.2938  -31.5490 H   0  0  0  0  0  0  0  0  0  0  0  0
   -6.4707   24.9568  -28.9753 H   0  0  0  0  0  0  0  0  0  0  0  0
   -6.7572   26.1952  -30.2508 H   0  0  0  0  0  0  0  0  0  0  0  0
   -8.1869   24.0261  -30.3378 H   0  0  0  0  0  0  0  0  0  0  0  0
   -7.3679   24.5689  -31.8607 H   0  0  0  0  0  0  0  0  0  0  0  0
  -10.3210   20.6973  -32.3107 H   0  0  0  0  0  0  0  0  0  0  0  0
   -9.0290   19.0340  -33.5440 H   0  0  0  0  0  0  0  0  0  0  0  0
  1  2  1  0
  2  3  2  0
  3  4  1  0
  4  5  2  0
  5  6  1  0
  6  7  1  0
  7  8  1  0
  8  9  1  0
  9 10  1  0
 10 11  1  0
  5 12  1  0
 12 13  2  0
 13 14  1  0
 14 15  2  0
 15 16  1  0
 16  2  1  0
 15  4  1  0
 11  6  1  0
  1 17  1  0
  1 18  1  0
  1 19  1  0
  3 20  1  0
  7 21  1  0
  7 22  1  0
  8 23  1  0
  8 24  1  0
  9 25  1  0
  9 26  1  0
 10 27  1  0
 10 28  1  0
 11 29  1  0
 11 30  1  0
 13 31  1  0
 14 32  1  0
M  CHG  1  14   1
M  END
>  <UniqueID>  (32) 
30

>  <SMILES>  (32) 
Cc1cc2c(N3CCCCC3)nc[nH+]c2s1

>  <Energy>  (32) 
69.34823924483796

>  <Genealogy>  (32) 
Cc1cc2c(N3CCCCC3)nc[nH+]c2s1 (protonated)
Cc1cc2c(N3CCCCC3)nc[nH+]c2s1 (3D coordinates assigned)
Cc1cc2c(N3CCCCC3)nc[nH+]c2s1 (nonaromatic ring conformer: 69.34823924483796 kcal/mol)

>  <smiles>  (32) 
Cc1cc2c(N3CCCCC3)ncnc2s1

>  <score_type>  (32) 
oracle

>  <origin>  (32) 
adg

>  <m_score__min__energy>  (32) 
-6.5700000000000003

>  <m_primary>  (32) 
energy

$$$$
32:0
     RDKit          3D

 52 55  0  0  0  0  0  0  0  0999 V2000
   -8.5570   20.0550  -32.7090 C   0  0  0  0  0  0  0  0  0  0  0  0
   -7.7420   21.1740  -32.1420 C   0  0  0  0  0  0  0  0  0  0  0  0
   -8.3630   22.3450  -31.6940 C   0  0  0  0  0  0  0  0  0  0  0  0
   -7.5880   23.3710  -31.1500 C   0  0  0  0  0  0  0  0  0  0  0  0
   -6.1890   23.2300  -31.0480 C   0  0  0  0  0  0  0  0  0  0  0  0
   -5.3560   24.2460  -30.5100 C   0  0  0  0  0  0  0  0  0  0  0  0
   -5.9320   25.5770  -30.0850 C   0  0  0  0  0  0  0  0  0  0  0  0
   -3.9670   24.0020  -30.3880 C   0  0  0  0  0  0  0  0  0  0  0  0
   -3.1080   24.9400  -29.8080 O   0  0  0  0  0  0  0  0  0  0  0  0
   -2.2280   24.6050  -28.7350 C   0  0  0  0  0  0  0  0  0  0  0  0
   -3.0380   24.4860  -27.4340 C   0  0  0  0  0  0  0  0  0  0  0  0
   -2.2350   24.8450  -26.1650 C   0  0  0  0  0  0  0  0  0  0  0  0
   -0.7760   24.6550  -26.3080 N   0  0  0  0  0  0  0  0  0  0  0  0
   -0.2420   23.3440  -25.8770 C   0  0  0  0  0  0  0  0  0  0  0  0
   -0.6530   22.1980  -26.7750 C   0  0  0  0  0  0  0  0  0  0  0  0
   -0.1100   22.0690  -28.0650 C   0  0  0  0  0  0  0  0  0  0  0  0
   -0.4970   21.0110  -28.8910 C   0  0  0  0  0  0  0  0  0  0  0  0
   -1.4160   20.0640  -28.4320 C   0  0  0  0  0  0  0  0  0  0  0  0
   -1.9440   20.1700  -27.1430 C   0  0  0  0  0  0  0  0  0  0  0  0
   -1.5580   21.2270  -26.3140 C   0  0  0  0  0  0  0  0  0  0  0  0
   -0.1360   25.2570  -27.5020 C   0  0  0  0  0  0  0  0  0  0  0  0
   -1.1370   25.6660  -28.5940 C   0  0  0  0  0  0  0  0  0  0  0  0
   -3.4180   22.8040  -30.8590 C   0  0  0  0  0  0  0  0  0  0  0  0
   -4.2330   21.8200  -31.4120 C   0  0  0  0  0  0  0  0  0  0  0  0
   -5.6110   22.0190  -31.5020 C   0  0  0  0  0  0  0  0  0  0  0  0
   -6.3960   21.0390  -32.0270 N   0  0  0  0  0  0  0  0  0  0  0  0
   -8.9882   19.4630  -31.8883 H   0  0  0  0  0  0  0  0  0  0  0  0
   -9.3671   20.4684  -33.3278 H   0  0  0  0  0  0  0  0  0  0  0  0
   -7.9151   19.4108  -33.3278 H   0  0  0  0  0  0  0  0  0  0  0  0
   -9.4547   22.4565  -31.7699 H   0  0  0  0  0  0  0  0  0  0  0  0
   -8.0717   24.2945  -30.7990 H   0  0  0  0  0  0  0  0  0  0  0  0
   -5.9559   25.6323  -28.9866 H   0  0  0  0  0  0  0  0  0  0  0  0
   -5.3054   26.3905  -30.4795 H   0  0  0  0  0  0  0  0  0  0  0  0
   -6.9539   25.6771  -30.4795 H   0  0  0  0  0  0  0  0  0  0  0  0
   -1.7418   23.6412  -28.9467 H   0  0  0  0  0  0  0  0  0  0  0  0
   -3.9024   25.1630  -27.5005 H   0  0  0  0  0  0  0  0  0  0  0  0
   -3.3356   23.4315  -27.3372 H   0  0  0  0  0  0  0  0  0  0  0  0
   -2.4249   25.9008  -25.9216 H   0  0  0  0  0  0  0  0  0  0  0  0
   -2.5704   24.1625  -25.3702 H   0  0  0  0  0  0  0  0  0  0  0  0
    0.8564   23.4019  -25.8677 H   0  0  0  0  0  0  0  0  0  0  0  0
   -0.6584   23.1380  -24.8799 H   0  0  0  0  0  0  0  0  0  0  0  0
    0.6235   22.8050  -28.4260 H   0  0  0  0  0  0  0  0  0  0  0  0
   -0.0776   20.9234  -29.9041 H   0  0  0  0  0  0  0  0  0  0  0  0
   -1.7239   19.2347  -29.0858 H   0  0  0  0  0  0  0  0  0  0  0  0
   -2.6638   19.4214  -26.7804 H   0  0  0  0  0  0  0  0  0  0  0  0
   -1.9651   21.2992  -25.2946 H   0  0  0  0  0  0  0  0  0  0  0  0
    0.4188   26.1525  -27.1853 H   0  0  0  0  0  0  0  0  0  0  0  0
    0.5220   24.4905  -27.9372 H   0  0  0  0  0  0  0  0  0  0  0  0
   -1.5980   26.6272  -28.3226 H   0  0  0  0  0  0  0  0  0  0  0  0
   -0.6040   25.7618  -29.5515 H   0  0  0  0  0  0  0  0  0  0  0  0
   -2.3326   22.6383  -30.7917 H   0  0  0  0  0  0  0  0  0  0  0  0
   -3.7892   20.8828  -31.7791 H   0  0  0  0  0  0  0  0  0  0  0  0
  1  2  1  0
  2  3  2  0
  3  4  1  0
  4  5  2  0
  5  6  1  0
  6  7  1  0
  6  8  2  0
  8  9  1  0
  9 10  1  0
 10 11  1  0
 11 12  1  0
 12 13  1  0
 13 14  1  0
 14 15  1  0
 15 16  2  0
 16 17  1  0
 17 18  2  0
 18 19  1  0
 19 20  2  0
 13 21  1  0
 21 22  1  0
  8 23  1  0
 23 24  2  0
 24 25  1  0
 25 26  2  0
 26  2  1  0
 25  5  1  0
 22 10  1  0
 20 15  1  0
  1 27  1  0
  1 28  1  0
  1 29  1  0
  3 30  1  0
  4 31  1  0
  7 32  1  0
  7 33  1  0
  7 34  1  0
 10 35  1  0
 11 36  1  0
 11 37  1  0
 12 38  1  0
 12 39  1  0
 14 40  1  0
 14 41  1  0
 16 42  1  0
 17 43  1  0
 18 44  1  0
 19 45  1  0
 20 46  1  0
 21 47  1  0
 21 48  1  0
 22 49  1  0
 22 50  1  0
 23 51  1  0
 24 52  1  0
M  END
>  <UniqueID>  (33) 
31

>  <SMILES>  (33) 
Cc1ccc2c(C)c(OC3CCN(Cc4ccccc4)CC3)ccc2n1

>  <Energy>  (33) 
76.26456100810734

>  <Genealogy>  (33) 
Cc1ccc2c(C)c(OC3CCN(Cc4ccccc4)CC3)ccc2n1 (3D coordinates assigned)
Cc1ccc2c(C)c(OC3CCN(Cc4ccccc4)CC3)ccc2n1 (nonaromatic ring conformer: 76.26456100810734 kcal/mol)

>  <smiles>  (33) 
Cc1ccc2c(C)c(OC3CCN(Cc4ccccc4)CC3)ccc2n1

>  <score_type>  (33) 
oracle

>  <origin>  (33) 
adg

>  <m_score__min__energy>  (33) 
-9.6400000000000006

>  <m_primary>  (33) 
energy

$$$$
33:0
     RDKit          3D

 40 42  0  0  0  0  0  0  0  0999 V2000
   -3.6200   21.8570  -33.6170 O   0  0  0  0  0  0  0  0  0  0  0  0
   -3.8250   21.4890  -32.4280 C   0  0  0  0  0  0  0  0  0  0  0  0
   -3.6030   22.4460  -31.2910 C   0  0  0  0  0  0  0  0  0  0  0  0
   -4.8310   23.1730  -30.9580 N   0  0  0  0  0  0  0  0  0  0  0  0
   -6.0810   22.5590  -30.6730 C   0  0  0  0  0  0  0  0  0  0  0  0
   -6.2710   21.3240  -30.8330 O   0  0  0  0  0  0  0  0  0  0  0  0
   -7.1520   23.4630  -30.1610 C   0  0  0  0  0  0  0  0  0  0  0  0
   -6.4690   25.1670  -30.1060 S   0  0  0  0  0  0  0  0  0  0  0  0
   -4.8830   24.5570  -30.6530 C   0  0  0  0  0  0  0  0  0  0  0  0
   -3.8710   25.3020  -30.7360 O   0  0  0  0  0  0  0  0  0  0  0  0
   -4.2710   20.1540  -32.1520 N   0  0  0  0  0  0  0  0  0  0  0  0
   -4.4150   19.1540  -33.1720 C   0  0  0  0  0  0  0  0  0  0  0  0
   -3.2870   18.7760  -33.9150 C   0  0  0  0  0  0  0  0  0  0  0  0
   -3.3830   17.7830  -34.8910 C   0  0  0  0  0  0  0  0  0  0  0  0
   -4.6090   17.1640  -35.1420 C   0  0  0  0  0  0  0  0  0  0  0  0
   -5.7460   17.5500  -34.4280 C   0  0  0  0  0  0  0  0  0  0  0  0
   -5.6650   18.5540  -33.4480 C   0  0  0  0  0  0  0  0  0  0  0  0
   -6.8620   19.0010  -32.7860 N   0  0  0  0  0  0  0  0  0  0  0  0
   -7.2540   18.3770  -31.5200 C   0  0  0  0  0  0  0  0  0  0  0  0
   -8.7630   18.5370  -31.3110 C   0  0  0  0  0  0  0  0  0  0  0  0
   -9.1500   19.8910  -31.4490 O   0  0  0  0  0  0  0  0  0  0  0  0
   -8.9220   20.3240  -32.7770 C   0  0  0  0  0  0  0  0  0  0  0  0
   -7.4250   20.3160  -33.1000 C   0  0  0  0  0  0  0  0  0  0  0  0
   -3.2703   21.8814  -30.4075 H   0  0  0  0  0  0  0  0  0  0  0  0
   -2.8397   23.1766  -31.5968 H   0  0  0  0  0  0  0  0  0  0  0  0
   -8.0223   23.4302  -30.8329 H   0  0  0  0  0  0  0  0  0  0  0  0
   -7.4758   23.1461  -29.1586 H   0  0  0  0  0  0  0  0  0  0  0  0
   -4.6640   19.9510  -31.2040 H   0  0  0  0  0  0  0  0  0  0  0  0
   -2.3200   19.2656  -33.7272 H   0  0  0  0  0  0  0  0  0  0  0  0
   -2.4913   17.4876  -35.4634 H   0  0  0  0  0  0  0  0  0  0  0  0
   -4.6797   16.3721  -35.9022 H   0  0  0  0  0  0  0  0  0  0  0  0
   -6.7114   17.0647  -34.6343 H   0  0  0  0  0  0  0  0  0  0  0  0
   -6.9998   17.3071  -31.5456 H   0  0  0  0  0  0  0  0  0  0  0  0
   -6.7179   18.8644  -30.6923 H   0  0  0  0  0  0  0  0  0  0  0  0
   -9.2965   17.9317  -32.0587 H   0  0  0  0  0  0  0  0  0  0  0  0
   -9.0151   18.2008  -30.2944 H   0  0  0  0  0  0  0  0  0  0  0  0
   -9.4447   19.6497  -33.4713 H   0  0  0  0  0  0  0  0  0  0  0  0
   -9.3012   21.3510  -32.8839 H   0  0  0  0  0  0  0  0  0  0  0  0
   -7.2799   20.5306  -34.1691 H   0  0  0  0  0  0  0  0  0  0  0  0
   -6.9172   21.0841  -32.4982 H   0  0  0  0  0  0  0  0  0  0  0  0
  1  2  2  0
  2  3  1  0
  3  4  1  0
  4  5  1  0
  5  6  2  0
  5  7  1  0
  7  8  1  0
  8  9  1  0
  9 10  2  0
  2 11  1  0
 11 12  1  0
 12 13  2  0
 13 14  1  0
 14 15  2  0
 15 16  1  0
 16 17  2  0
 17 18  1  0
 18 19  1  0
 19 20  1  0
 20 21  1  0
 21 22  1  0
 22 23  1  0
  9  4  1  0
 17 12  1  0
 23 18  1  0
  3 24  1  0
  3 25  1  0
  7 26  1  0
  7 27  1  0
 11 28  1  0
 13 29  1  0
 14 30  1  0
 15 31  1  0
 16 32  1  0
 19 33  1  0
 19 34  1  0
 20 35  1  0
 20 36  1  0
 22 37  1  0
 22 38  1  0
 23 39  1  0
 23 40  1  0
M  END
>  <UniqueID>  (34) 
32

>  <SMILES>  (34) 
O=C(CN1C(=O)CSC1=O)Nc1ccccc1N1CCOCC1

>  <Energy>  (34) 
56.551461798848365

>  <Genealogy>  (34) 
O=C(CN1C(=O)CSC1=O)Nc1ccccc1N1CCOCC1 (3D coordinates assigned)
O=C(CN1C(=O)CSC1=O)Nc1ccccc1N1CCOCC1 (nonaromatic ring conformer: 56.551461798848365 kcal/mol)

>  <smiles>  (34) 
O=C(CN1C(=O)CSC1=O)Nc1ccccc1N1CCOCC1

>  <score_type>  (34) 
oracle

>  <origin>  (34) 
adg

>  <m_score__min__energy>  (34) 
-7.7999999999999998

>  <m_primary>  (34) 
energy

$$$$
34:0
     RDKit          3D

 32 33  0  0  0  0  0  0  0  0999 V2000
   -3.8290   24.5660  -26.9860 C   0  0  0  0  0  0  0  0  0  0  0  0
   -2.4880   25.2840  -26.9040 C   0  0  0  0  0  0  0  0  0  0  0  0
   -1.9230   25.4470  -28.2030 O   0  0  0  0  0  0  0  0  0  0  0  0
   -1.1190   24.4810  -28.8240 C   0  0  0  0  0  0  0  0  0  0  0  0
    0.1340   24.5270  -28.6820 O   0  0  0  0  0  0  0  0  0  0  0  0
   -1.7550   23.4110  -29.6400 C   0  0  0  0  0  0  0  0  0  0  0  0
   -1.1870   22.1230  -29.6260 C   0  0  0  0  0  0  0  0  0  0  0  0
   -1.7440   21.0860  -30.3740 C   0  0  0  0  0  0  0  0  0  0  0  0
   -2.8720   21.3170  -31.1580 C   0  0  0  0  0  0  0  0  0  0  0  0
   -3.4530   22.5850  -31.1890 C   0  0  0  0  0  0  0  0  0  0  0  0
   -2.9200   23.6380  -30.4210 C   0  0  0  0  0  0  0  0  0  0  0  0
   -3.5060   24.9500  -30.4790 N   0  0  0  0  0  0  0  0  0  0  0  0
   -4.9030   25.2640  -30.5370 C   0  0  0  0  0  0  0  0  0  0  0  0
   -5.2940   26.4590  -30.4280 O   0  0  0  0  0  0  0  0  0  0  0  0
   -5.8920   24.2000  -30.7820 C   0  0  0  0  0  0  0  0  0  0  0  0
   -6.4630   23.4690  -29.7260 C   0  0  0  0  0  0  0  0  0  0  0  0
   -7.3720   22.4970  -29.9990 N   0  0  0  0  0  0  0  0  0  0  0  0
   -7.7430   22.2150  -31.2760 C   0  0  0  0  0  0  0  0  0  0  0  0
   -7.1800   22.9380  -32.3280 C   0  0  0  0  0  0  0  0  0  0  0  0
   -6.2700   23.9110  -32.0580 N   0  0  0  0  0  0  0  0  0  0  0  0
   -4.2010   24.3668  -25.9701 H   0  0  0  0  0  0  0  0  0  0  0  0
   -4.5511   25.1981  -27.5235 H   0  0  0  0  0  0  0  0  0  0  0  0
   -3.7032   23.6146  -27.5235 H   0  0  0  0  0  0  0  0  0  0  0  0
   -2.6358   26.2740  -26.4478 H   0  0  0  0  0  0  0  0  0  0  0  0
   -1.8007   24.6807  -26.2927 H   0  0  0  0  0  0  0  0  0  0  0  0
   -0.2914   21.9318  -29.0166 H   0  0  0  0  0  0  0  0  0  0  0  0
   -1.2917   20.0837  -30.3448 H   0  0  0  0  0  0  0  0  0  0  0  0
   -3.3049   20.4993  -31.7529 H   0  0  0  0  0  0  0  0  0  0  0  0
   -4.3363   22.7640  -31.8197 H   0  0  0  0  0  0  0  0  0  0  0  0
   -6.1759   23.6824  -28.6858 H   0  0  0  0  0  0  0  0  0  0  0  0
   -8.4803   21.4241  -31.4780 H   0  0  0  0  0  0  0  0  0  0  0  0
   -7.4700   22.7225  -33.3670 H   0  0  0  0  0  0  0  0  0  0  0  0
  1  2  1  0
  2  3  1  0
  3  4  1  0
  4  5  2  0
  4  6  1  0
  6  7  2  0
  7  8  1  0
  8  9  2  0
  9 10  1  0
 10 11  2  0
 11 12  1  0
 12 13  1  0
 13 14  2  0
 13 15  1  0
 15 16  2  0
 16 17  1  0
 17 18  2  0
 18 19  1  0
 19 20  2  0
 11  6  1  0
 20 15  1  0
  1 21  1  0
  1 22  1  0
  1 23  1  0
  2 24  1  0
  2 25  1  0
  7 26  1  0
  8 27  1  0
  9 28  1  0
 10 29  1  0
 16 30  1  0
 18 31  1  0
 19 32  1  0
M  CHG  1  12  -1
M  END
>  <UniqueID>  (35) 
33

>  <SMILES>  (35) 
CCOC(=O)c1ccccc1[N-]C(=O)c1cnccn1

>  <Energy>  (35) 
36.75915458832156

>  <Genealogy>  (35) 
CCOC(=O)c1ccccc1[N-]C(=O)c1cnccn1 (protonated)
CCOC(=O)c1ccccc1[N-]C(=O)c1cnccn1 (3D coordinates assigned)
CCOC(=O)c1ccccc1[N-]C(=O)c1cnccn1 (optimized conformer: 36.75915458832156 kcal/mol)

>  <smiles>  (35) 
CCOC(=O)c1ccccc1NC(=O)c1cnccn1

>  <score_type>  (35) 
oracle

>  <origin>  (35) 
adg

>  <m_score__min__energy>  (35) 
-7.9299999999999997

>  <m_primary>  (35) 
energy

$$$$
35:0
     RDKit          3D

 57 59  0  0  0  0  0  0  0  0999 V2000
   -6.5930   23.9460  -30.1050 C   0  0  0  0  0  0  0  0  0  0  0  0
   -5.6580   24.8980  -30.8460 C   0  0  0  0  0  0  0  0  0  0  0  0
   -4.2970   24.4960  -30.6880 O   0  0  0  0  0  0  0  0  0  0  0  0
   -3.7220   23.3260  -31.2190 C   0  0  0  0  0  0  0  0  0  0  0  0
   -2.5640   22.8310  -30.6180 C   0  0  0  0  0  0  0  0  0  0  0  0
   -1.9420   21.6760  -31.1020 C   0  0  0  0  0  0  0  0  0  0  0  0
   -2.4610   20.9810  -32.2210 C   0  0  0  0  0  0  0  0  0  0  0  0
   -1.8020   19.7840  -32.7440 N   0  0  0  0  0  0  0  0  0  0  0  0
   -1.9150   19.4770  -34.1890 C   0  0  0  0  0  0  0  0  0  0  0  0
   -1.1830   18.2020  -34.6620 C   0  0  0  0  0  0  0  0  0  0  0  0
   -1.0370   17.1670  -33.6230 N   0  0  0  0  0  0  0  0  0  0  0  0
   -2.2820   16.4940  -33.2810 C   0  0  0  0  0  0  0  0  0  0  0  0
   -2.3150   15.2830  -33.1280 O   0  0  0  0  0  0  0  0  0  0  0  0
   -3.5480   17.3100  -33.0730 C   0  0  0  0  0  0  0  0  0  0  0  0
   -4.8100   16.5320  -33.1030 N   0  0  0  0  0  0  0  0  0  0  0  0
   -5.3350   16.2050  -31.7710 C   0  0  0  0  0  0  0  0  0  0  0  0
   -6.0500   17.2390  -34.1180 S   0  0  0  0  0  0  0  0  0  0  0  0
   -7.0350   16.1960  -34.5690 O   0  0  0  0  0  0  0  0  0  0  0  0
   -5.4030   17.8290  -35.3410 O   0  0  0  0  0  0  0  0  0  0  0  0
   -6.9000   18.5220  -33.2590 C   0  0  0  0  0  0  0  0  0  0  0  0
   -6.4880   19.8550  -33.4070 C   0  0  0  0  0  0  0  0  0  0  0  0
   -7.1110   20.8670  -32.6710 C   0  0  0  0  0  0  0  0  0  0  0  0
   -8.1510   20.5560  -31.7890 C   0  0  0  0  0  0  0  0  0  0  0  0
   -8.7460   21.5370  -31.0670 F   0  0  0  0  0  0  0  0  0  0  0  0
   -8.5760   19.2310  -31.6470 C   0  0  0  0  0  0  0  0  0  0  0  0
   -7.9480   18.2140  -32.3750 C   0  0  0  0  0  0  0  0  0  0  0  0
   -0.3600   17.7310  -32.4490 C   0  0  0  0  0  0  0  0  0  0  0  0
   -1.1610   18.8550  -31.7910 C   0  0  0  0  0  0  0  0  0  0  0  0
   -3.6450   21.4860  -32.8110 C   0  0  0  0  0  0  0  0  0  0  0  0
   -4.2680   22.6350  -32.3120 C   0  0  0  0  0  0  0  0  0  0  0  0
   -6.4648   24.0765  -29.0203 H   0  0  0  0  0  0  0  0  0  0  0  0
   -7.6348   24.1670  -30.3803 H   0  0  0  0  0  0  0  0  0  0  0  0
   -6.3532   22.9084  -30.3803 H   0  0  0  0  0  0  0  0  0  0  0  0
   -5.9134   24.8944  -31.9159 H   0  0  0  0  0  0  0  0  0  0  0  0
   -5.7785   25.9081  -30.4274 H   0  0  0  0  0  0  0  0  0  0  0  0
   -2.1348   23.3563  -29.7521 H   0  0  0  0  0  0  0  0  0  0  0  0
   -1.0348   21.3013  -30.6054 H   0  0  0  0  0  0  0  0  0  0  0  0
   -2.9826   19.3619  -34.4276 H   0  0  0  0  0  0  0  0  0  0  0  0
   -1.4286   20.3135  -34.7122 H   0  0  0  0  0  0  0  0  0  0  0  0
   -1.7489   17.7708  -35.5010 H   0  0  0  0  0  0  0  0  0  0  0  0
   -0.1658   18.5093  -34.9463 H   0  0  0  0  0  0  0  0  0  0  0  0
   -0.3980   16.4400  -34.0250 H   0  0  0  0  0  0  0  0  0  0  0  0
   -3.4767   17.8060  -32.0938 H   0  0  0  0  0  0  0  0  0  0  0  0
   -3.6014   18.0130  -33.9174 H   0  0  0  0  0  0  0  0  0  0  0  0
   -4.6677   16.6207  -31.0017 H   0  0  0  0  0  0  0  0  0  0  0  0
   -6.3401   16.6371  -31.6568 H   0  0  0  0  0  0  0  0  0  0  0  0
   -5.3904   15.1123  -31.6568 H   0  0  0  0  0  0  0  0  0  0  0  0
   -5.6736   20.1041  -34.1032 H   0  0  0  0  0  0  0  0  0  0  0  0
   -6.7825   21.9105  -32.7858 H   0  0  0  0  0  0  0  0  0  0  0  0
   -9.4032   18.9885  -30.9637 H   0  0  0  0  0  0  0  0  0  0  0  0
   -8.2756   17.1708  -32.2549 H   0  0  0  0  0  0  0  0  0  0  0  0
   -0.2071   16.9292  -31.7116 H   0  0  0  0  0  0  0  0  0  0  0  0
    0.5952   18.1578  -32.7887 H   0  0  0  0  0  0  0  0  0  0  0  0
   -1.9479   18.4000  -31.1715 H   0  0  0  0  0  0  0  0  0  0  0  0
   -0.4452   19.4499  -31.2047 H   0  0  0  0  0  0  0  0  0  0  0  0
   -4.0823   20.9662  -33.6762 H   0  0  0  0  0  0  0  0  0  0  0  0
   -5.1939   23.0001  -32.7804 H   0  0  0  0  0  0  0  0  0  0  0  0
  1  2  1  0
  2  3  1  0
  3  4  1  0
  4  5  2  0
  5  6  1  0
  6  7  2  0
  7  8  1  0
  8  9  1  0
  9 10  1  0
 10 11  1  0
 11 12  1  0
 12 13  2  0
 12 14  1  0
 14 15  1  0
 15 16  1  0
 15 17  1  0
 17 18  2  0
 17 19  2  0
 17 20  1  0
 20 21  2  0
 21 22  1  0
 22 23  2  0
 23 24  1  0
 23 25  1  0
 25 26  2  0
 11 27  1  0
 27 28  1  0
  7 29  1  0
 29 30  2  0
 30  4  1  0
 28  8  1  0
 26 20  1  0
  1 31  1  0
  1 32  1  0
  1 33  1  0
  2 34  1  0
  2 35  1  0
  5 36  1  0
  6 37  1  0
  9 38  1  0
  9 39  1  0
 10 40  1  0
 10 41  1  0
 11 42  1  0
 14 43  1  0
 14 44  1  0
 16 45  1  0
 16 46  1  0
 16 47  1  0
 21 48  1  0
 22 49  1  0
 25 50  1  0
 26 51  1  0
 27 52  1  0
 27 53  1  0
 28 54  1  0
 28 55  1  0
 29 56  1  0
 30 57  1  0
M  CHG  1  11   1
M  END
>  <UniqueID>  (36) 
34

>  <SMILES>  (36) 
CCOc1ccc(N2CC[NH+](C(=O)CN(C)S(=O)(=O)c3ccc(F)cc3)CC2)cc1

>  <Energy>  (36) 
73.31779909154801

>  <Genealogy>  (36) 
CCOc1ccc(N2CC[NH+](C(=O)CN(C)S(=O)(=O)c3ccc(F)cc3)CC2)cc1 (protonated)
CCOc1ccc(N2CC[NH+](C(=O)CN(C)S(=O)(=O)c3ccc(F)cc3)CC2)cc1 (3D coordinates assigned)
CCOc1ccc(N2CC[NH+](C(=O)CN(C)S(=O)(=O)c3ccc(F)cc3)CC2)cc1 (nonaromatic ring conformer: 73.31779909154801 kcal/mol)

>  <smiles>  (36) 
CCOc1ccc(N2CCN(C(=O)CN(C)S(=O)(=O)c3ccc(F)cc3)CC2)cc1

>  <score_type>  (36) 
oracle

>  <origin>  (36) 
adg

>  <m_score__min__energy>  (36) 
-8.5899999999999999

>  <m_primary>  (36) 
energy

$$$$
36:0
     RDKit          3D

 46 48  0  0  0  0  0  0  0  0999 V2000
   -6.4400   16.6410  -34.5790 C   0  0  0  0  0  0  0  0  0  0  0  0
   -6.1300   18.0120  -34.8110 O   0  0  0  0  0  0  0  0  0  0  0  0
   -5.6200   18.8990  -33.8490 C   0  0  0  0  0  0  0  0  0  0  0  0
   -6.4800   19.6870  -33.0650 C   0  0  0  0  0  0  0  0  0  0  0  0
   -5.9840   20.5650  -32.0940 C   0  0  0  0  0  0  0  0  0  0  0  0
   -4.5910   20.6400  -31.8670 C   0  0  0  0  0  0  0  0  0  0  0  0
   -3.7190   19.8940  -32.6930 C   0  0  0  0  0  0  0  0  0  0  0  0
   -2.3300   20.0110  -32.5660 O   0  0  0  0  0  0  0  0  0  0  0  0
   -1.5630   20.8560  -33.4180 C   0  0  0  0  0  0  0  0  0  0  0  0
   -4.2210   19.0130  -33.6630 C   0  0  0  0  0  0  0  0  0  0  0  0
   -3.2710   18.2900  -34.4100 O   0  0  0  0  0  0  0  0  0  0  0  0
   -2.5050   17.1780  -33.9620 C   0  0  0  0  0  0  0  0  0  0  0  0
   -4.0470   21.4350  -30.7280 C   0  0  0  0  0  0  0  0  0  0  0  0
   -3.1600   20.8170  -29.8270 C   0  0  0  0  0  0  0  0  0  0  0  0
   -2.6310   21.5230  -28.7500 C   0  0  0  0  0  0  0  0  0  0  0  0
   -2.9890   22.8550  -28.5440 C   0  0  0  0  0  0  0  0  0  0  0  0
   -2.3120   23.7600  -27.1510 S   0  0  0  0  0  0  0  0  0  0  0  0
   -3.8970   24.5530  -26.7410 C   0  0  0  0  0  0  0  0  0  0  0  0
   -3.8780   23.4840  -29.4220 C   0  0  0  0  0  0  0  0  0  0  0  0
   -4.4150   22.7880  -30.5250 C   0  0  0  0  0  0  0  0  0  0  0  0
   -5.4370   23.4260  -31.4550 C   0  0  2  0  0  0  0  0  0  0  0  0
   -5.4250   24.8920  -31.4020 N   0  0  0  0  0  0  0  0  0  0  0  0
   -5.8210   25.5220  -30.4190 N   0  0  0  0  0  0  0  0  0  0  0  0
   -6.2160   26.1510  -29.4380 N   0  0  0  0  0  0  0  0  0  0  0  0
   -6.8440   22.8660  -31.1630 C   0  0  0  0  0  0  0  0  0  0  0  0
   -6.9550   21.3680  -31.3130 C   0  0  0  0  0  0  0  0  0  0  0  0
   -7.9720   20.7960  -30.8340 O   0  0  0  0  0  0  0  0  0  0  0  0
   -6.4825   16.4529  -33.4960 H   0  0  0  0  0  0  0  0  0  0  0  0
   -7.4144   16.4038  -35.0309 H   0  0  0  0  0  0  0  0  0  0  0  0
   -5.6624   16.0077  -35.0309 H   0  0  0  0  0  0  0  0  0  0  0  0
   -7.5668   19.6122  -33.2177 H   0  0  0  0  0  0  0  0  0  0  0  0
   -0.9485   21.5330  -32.8063 H   0  0  0  0  0  0  0  0  0  0  0  0
   -0.9090   20.2402  -34.0529 H   0  0  0  0  0  0  0  0  0  0  0  0
   -2.2391   21.4475  -34.0529 H   0  0  0  0  0  0  0  0  0  0  0  0
   -2.4928   17.1604  -32.8622 H   0  0  0  0  0  0  0  0  0  0  0  0
   -2.9546   16.2474  -34.3387 H   0  0  0  0  0  0  0  0  0  0  0  0
   -1.4753   17.2664  -34.3387 H   0  0  0  0  0  0  0  0  0  0  0  0
   -2.8813   19.7633  -29.9755 H   0  0  0  0  0  0  0  0  0  0  0  0
   -1.9299   21.0296  -28.0608 H   0  0  0  0  0  0  0  0  0  0  0  0
   -4.0074   24.6083  -25.6480 H   0  0  0  0  0  0  0  0  0  0  0  0
   -3.9191   25.5684  -27.1636 H   0  0  0  0  0  0  0  0  0  0  0  0
   -4.7229   23.9619  -27.1636 H   0  0  0  0  0  0  0  0  0  0  0  0
   -4.1614   24.5329  -29.2503 H   0  0  0  0  0  0  0  0  0  0  0  0
   -5.1511   23.1593  -32.4832 H   0  0  0  0  0  0  0  0  0  0  0  0
   -7.1134   23.1305  -30.1298 H   0  0  0  0  0  0  0  0  0  0  0  0
   -7.5225   23.3101  -31.9062 H   0  0  0  0  0  0  0  0  0  0  0  0
  1  2  1  0
  2  3  1  0
  3  4  2  0
  4  5  1  0
  5  6  2  0
  6  7  1  0
  7  8  1  0
  8  9  1  0
  7 10  2  0
 10 11  1  0
 11 12  1  0
  6 13  1  0
 13 14  2  0
 14 15  1  0
 15 16  2  0
 16 17  1  0
 17 18  1  0
 16 19  1  0
 19 20  2  0
 20 21  1  0
 21 22  1  0
 22 23  2  0
 23 24  2  0
 21 25  1  0
 25 26  1  0
 26 27  2  0
 10  3  1  0
 20 13  1  0
 26  5  1  0
  1 28  1  0
  1 29  1  0
  1 30  1  0
  4 31  1  0
  9 32  1  0
  9 33  1  0
  9 34  1  0
 12 35  1  0
 12 36  1  0
 12 37  1  0
 14 38  1  0
 15 39  1  0
 18 40  1  0
 18 41  1  0
 18 42  1  0
 19 43  1  0
 21 44  1  6
 25 45  1  0
 25 46  1  0
M  CHG  2  23   1  24  -1
M  END
>  <UniqueID>  (37) 
35

>  <SMILES>  (37) 
COc1cc2c(c(OC)c1OC)-c1ccc(SC)cc1[C@H](N=[N+]=[N-])CC2=O

>  <Energy>  (37) 
70.437447559241

>  <Genealogy>  (37) 
COc1cc2c(c(OC)c1OC)-c1ccc(SC)cc1[C@H](N=[N+]=[N-])CC2=O (chirality)
COc1cc2c(c(OC)c1OC)-c1ccc(SC)cc1[C@H](N=[N+]=[N-])CC2=O (3D coordinates assigned)
COc1cc2c(c(OC)c1OC)-c1ccc(SC)cc1[C@H](N=[N+]=[N-])CC2=O (nonaromatic ring conformer: 70.437447559241 kcal/mol)

>  <smiles>  (37) 
COc1cc2c(c(OC)c1OC)-c1ccc(SC)cc1C(N=[N+]=[N-])CC2=O

>  <score_type>  (37) 
oracle

>  <origin>  (37) 
adg

>  <m_score__min__energy>  (37) 
-6.8499999999999996

>  <m_primary>  (37) 
energy

$$$$
37:0
     RDKit          3D

 21 21  0  0  0  0  0  0  0  0999 V2000
   -3.1470   23.5310  -28.8110 C   0  0  0  0  0  0  0  0  0  0  0  0
   -3.3460   23.9830  -30.2190 C   0  0  0  0  0  0  0  0  0  0  0  0
   -3.0970   23.1940  -31.1700 O   0  0  0  0  0  0  0  0  0  0  0  0
   -3.8660   25.2910  -30.4750 N   0  0  0  0  0  0  0  0  0  0  0  0
   -5.2890   25.6100  -30.4750 C   0  0  0  0  0  0  0  0  0  0  0  0
   -6.1000   24.3810  -30.7860 C   0  0  0  0  0  0  0  0  0  0  0  0
   -6.1100   23.8390  -32.0820 C   0  0  0  0  0  0  0  0  0  0  0  0
   -6.8500   22.6850  -32.3570 C   0  0  0  0  0  0  0  0  0  0  0  0
   -7.5830   22.0620  -31.3400 C   0  0  0  0  0  0  0  0  0  0  0  0
   -8.5920   20.4860  -31.7180 Br  0  0  0  0  0  0  0  0  0  0  0  0
   -7.5730   22.5950  -30.0470 C   0  0  0  0  0  0  0  0  0  0  0  0
   -6.8330   23.7480  -29.7700 C   0  0  0  0  0  0  0  0  0  0  0  0
   -3.4924   24.3156  -28.1217 H   0  0  0  0  0  0  0  0  0  0  0  0
   -3.7229   22.6102  -28.6366 H   0  0  0  0  0  0  0  0  0  0  0  0
   -2.0789   23.3340  -28.6366 H   0  0  0  0  0  0  0  0  0  0  0  0
   -5.5751   25.9924  -29.4841 H   0  0  0  0  0  0  0  0  0  0  0  0
   -5.4848   26.3718  -31.2439 H   0  0  0  0  0  0  0  0  0  0  0  0
   -5.5335   24.3243  -32.8834 H   0  0  0  0  0  0  0  0  0  0  0  0
   -6.8562   22.2660  -33.3741 H   0  0  0  0  0  0  0  0  0  0  0  0
   -8.1483   22.1062  -29.2469 H   0  0  0  0  0  0  0  0  0  0  0  0
   -6.8250   24.1614  -28.7507 H   0  0  0  0  0  0  0  0  0  0  0  0
  1  2  1  0
  2  3  2  0
  2  4  1  0
  4  5  1  0
  5  6  1  0
  6  7  2  0
  7  8  1  0
  8  9  2  0
  9 10  1  0
  9 11  1  0
 11 12  2  0
 12  6  1  0
  1 13  1  0
  1 14  1  0
  1 15  1  0
  5 16  1  0
  5 17  1  0
  7 18  1  0
  8 19  1  0
 11 20  1  0
 12 21  1  0
M  CHG  1   4  -1
M  END
>  <UniqueID>  (38) 
36

>  <SMILES>  (38) 
CC(=O)[N-]Cc1ccc(Br)cc1

>  <Energy>  (38) 
14.938720339150231

>  <Genealogy>  (38) 
CC(=O)[N-]Cc1ccc(Br)cc1 (protonated)
CC(=O)[N-]Cc1ccc(Br)cc1 (3D coordinates assigned)
CC(=O)[N-]Cc1ccc(Br)cc1 (optimized conformer: 14.938720339150231 kcal/mol)

>  <smiles>  (38) 
CC(=O)NCc1ccc(Br)cc1

>  <score_type>  (38) 
oracle

>  <origin>  (38) 
adg

>  <m_score__min__energy>  (38) 
-8.1999999999999993

>  <m_primary>  (38) 
energy

$$$$
38:0
     RDKit          3D

 30 32  0  0  0  0  0  0  0  0999 V2000
   -2.5100   20.8300  -29.4490 C   0  0  0  0  0  0  0  0  0  0  0  0
   -3.2730   22.0090  -29.9980 C   0  0  0  0  0  0  0  0  0  0  0  0
   -3.0490   23.2690  -29.4270 C   0  0  0  0  0  0  0  0  0  0  0  0
   -3.7380   24.3760  -29.9010 C   0  0  0  0  0  0  0  0  0  0  0  0
   -4.6170   24.2410  -30.9200 N   0  0  0  0  0  0  0  0  0  0  0  0
   -4.8820   23.0460  -31.5170 C   0  0  0  0  0  0  0  0  0  0  0  0
   -4.2080   21.8690  -31.0610 C   0  0  0  0  0  0  0  0  0  0  0  0
   -4.4700   20.5490  -31.6110 N   0  0  0  0  0  0  0  0  0  0  0  0
   -5.4260   20.2200  -32.6670 C   0  0  0  0  0  0  0  0  0  0  0  0
   -6.7860   20.7830  -32.3400 C   0  0  0  0  0  0  0  0  0  0  0  0
   -7.8840   19.9590  -31.9980 C   0  0  0  0  0  0  0  0  0  0  0  0
   -7.7720   18.2020  -31.9550 Cl  0  0  0  0  0  0  0  0  0  0  0  0
   -9.1120   20.5400  -31.6610 C   0  0  0  0  0  0  0  0  0  0  0  0
   -9.2570   21.9270  -31.6460 C   0  0  0  0  0  0  0  0  0  0  0  0
   -8.1760   22.7460  -31.9670 C   0  0  0  0  0  0  0  0  0  0  0  0
   -6.9370   22.1850  -32.3230 C   0  0  0  0  0  0  0  0  0  0  0  0
   -5.8120   23.0390  -32.6180 N   0  0  0  0  0  0  0  0  0  0  0  0
   -2.5296   20.8603  -28.3496 H   0  0  0  0  0  0  0  0  0  0  0  0
   -2.9759   19.8968  -29.7985 H   0  0  0  0  0  0  0  0  0  0  0  0
   -1.4679   20.8728  -29.7985 H   0  0  0  0  0  0  0  0  0  0  0  0
   -2.3277   23.3802  -28.6039 H   0  0  0  0  0  0  0  0  0  0  0  0
   -3.5693   25.3640  -29.4478 H   0  0  0  0  0  0  0  0  0  0  0  0
   -3.9600   19.7250  -31.2230 H   0  0  0  0  0  0  0  0  0  0  0  0
   -5.0762   20.6473  -33.6184 H   0  0  0  0  0  0  0  0  0  0  0  0
   -5.5036   19.1258  -32.7494 H   0  0  0  0  0  0  0  0  0  0  0  0
   -9.9684   19.8984  -31.4063 H   0  0  0  0  0  0  0  0  0  0  0  0
  -10.2258   22.3751  -31.3805 H   0  0  0  0  0  0  0  0  0  0  0  0
   -8.2931   23.8395  -31.9416 H   0  0  0  0  0  0  0  0  0  0  0  0
   -6.1460   24.0150  -32.7970 H   0  0  0  0  0  0  0  0  0  0  0  0
   -5.3260   22.7470  -33.4930 H   0  0  0  0  0  0  0  0  0  0  0  0
  1  2  1  0
  2  3  2  0
  3  4  1  0
  4  5  2  0
  5  6  1  0
  6  7  2  0
  7  8  1  0
  8  9  1  0
  9 10  1  0
 10 11  2  0
 11 12  1  0
 11 13  1  0
 13 14  2  0
 14 15  1  0
 15 16  2  0
 16 17  1  0
  7  2  1  0
 16 10  1  0
 17  6  1  0
  1 18  1  0
  1 19  1  0
  1 20  1  0
  3 21  1  0
  4 22  1  0
  8 23  1  0
  9 24  1  0
  9 25  1  0
 13 26  1  0
 14 27  1  0
 15 28  1  0
 17 29  1  0
 17 30  1  0
M  CHG  1  17   1
M  END
>  <UniqueID>  (39) 
37

>  <SMILES>  (39) 
Cc1ccnc2c1NCc1c(Cl)cccc1[NH2+]2

>  <Energy>  (39) 
46.581534258579474

>  <Genealogy>  (39) 
Cc1ccnc2c1NCc1c(Cl)cccc1[NH2+]2 (protonated)
Cc1ccnc2c1NCc1c(Cl)cccc1[NH2+]2 (3D coordinates assigned)
Cc1ccnc2c1NCc1c(Cl)cccc1[NH2+]2 (nonaromatic ring conformer: 46.581534258579474 kcal/mol)

>  <smiles>  (39) 
Cc1ccnc2c1NCc1c(Cl)cccc1N2

>  <score_type>  (39) 
oracle

>  <origin>  (39) 
adg

>  <m_score__min__energy>  (39) 
-6.8899999999999997

>  <m_primary>  (39) 
energy

$$$$
39:0
     RDKit          3D

 52 55  0  0  0  0  0  0  0  0999 V2000
    0.6720   18.6200  -31.1020 C   0  0  0  0  0  0  0  0  0  0  0  0
    0.0090   19.0620  -29.8220 C   0  0  0  0  0  0  0  0  0  0  0  0
    0.1750   18.2800  -28.6670 C   0  0  0  0  0  0  0  0  0  0  0  0
   -0.4300   18.6490  -27.4670 C   0  0  0  0  0  0  0  0  0  0  0  0
   -1.2030   19.8050  -27.4010 C   0  0  0  0  0  0  0  0  0  0  0  0
   -1.3930   20.5990  -28.5390 C   0  0  0  0  0  0  0  0  0  0  0  0
   -2.1710   21.7970  -28.4210 N   0  0  0  0  0  0  0  0  0  0  0  0
   -1.5200   23.1080  -28.5040 C   0  0  0  0  0  0  0  0  0  0  0  0
   -2.4150   24.0620  -29.2960 C   0  0  0  0  0  0  0  0  0  0  0  0
   -3.7530   24.2190  -28.6790 N   0  0  0  0  0  0  0  0  0  0  0  0
   -4.9170   24.7100  -29.8870 S   0  0  0  0  0  0  0  0  0  0  0  0
   -4.2740   25.6710  -30.8460 O   0  0  0  0  0  0  0  0  0  0  0  0
   -6.0820   25.4000  -29.2300 O   0  0  0  0  0  0  0  0  0  0  0  0
   -5.4930   23.3080  -30.7880 C   0  0  0  0  0  0  0  0  0  0  0  0
   -4.5890   22.5590  -31.5820 C   0  0  0  0  0  0  0  0  0  0  0  0
   -5.0290   21.4300  -32.2940 C   0  0  0  0  0  0  0  0  0  0  0  0
   -6.3750   21.0730  -32.1870 C   0  0  0  0  0  0  0  0  0  0  0  0
   -7.2490   21.7950  -31.4180 C   0  0  0  0  0  0  0  0  0  0  0  0
   -8.4880   21.1980  -31.5180 C   0  0  0  0  0  0  0  0  0  0  0  0
   -8.3040   20.1130  -32.3690 C   0  0  0  0  0  0  0  0  0  0  0  0
   -7.0130   20.0420  -32.7750 N   0  0  0  0  0  0  0  0  0  0  0  0
   -6.4420   19.0490  -33.6790 C   0  0  0  0  0  0  0  0  0  0  0  0
   -6.8460   22.9200  -30.7030 C   0  0  0  0  0  0  0  0  0  0  0  0
   -4.2400   23.0380  -27.9220 C   0  0  0  0  0  0  0  0  0  0  0  0
   -3.6350   21.7120  -28.4070 C   0  0  0  0  0  0  0  0  0  0  0  0
   -0.8080   20.2200  -29.7730 C   0  0  0  0  0  0  0  0  0  0  0  0
   -1.0270   21.0570  -31.0130 C   0  0  0  0  0  0  0  0  0  0  0  0
    1.5658   18.0241  -30.8652 H   0  0  0  0  0  0  0  0  0  0  0  0
   -0.0312   18.0094  -31.6873 H   0  0  0  0  0  0  0  0  0  0  0  0
    0.9652   19.5040  -31.6873 H   0  0  0  0  0  0  0  0  0  0  0  0
    0.7883   17.3678  -28.7101 H   0  0  0  0  0  0  0  0  0  0  0  0
   -0.2965   18.0258  -26.5704 H   0  0  0  0  0  0  0  0  0  0  0  0
   -1.6681   20.0970  -26.4479 H   0  0  0  0  0  0  0  0  0  0  0  0
   -1.3631   23.5061  -27.4907 H   0  0  0  0  0  0  0  0  0  0  0  0
   -0.5476   23.0076  -29.0084 H   0  0  0  0  0  0  0  0  0  0  0  0
   -1.9286   25.0475  -29.3419 H   0  0  0  0  0  0  0  0  0  0  0  0
   -2.5551   23.6365  -30.3007 H   0  0  0  0  0  0  0  0  0  0  0  0
   -3.5338   22.8640  -31.6415 H   0  0  0  0  0  0  0  0  0  0  0  0
   -4.3350   20.8458  -32.9161 H   0  0  0  0  0  0  0  0  0  0  0  0
   -9.4220   21.5124  -31.0294 H   0  0  0  0  0  0  0  0  0  0  0  0
   -9.0955   19.4110  -32.6702 H   0  0  0  0  0  0  0  0  0  0  0  0
   -5.9782   18.2425  -33.0920 H   0  0  0  0  0  0  0  0  0  0  0  0
   -7.2373   18.6303  -34.3132 H   0  0  0  0  0  0  0  0  0  0  0  0
   -5.6801   19.5257  -34.3132 H   0  0  0  0  0  0  0  0  0  0  0  0
   -7.5613   23.4886  -30.0906 H   0  0  0  0  0  0  0  0  0  0  0  0
   -3.9810   23.1724  -26.8614 H   0  0  0  0  0  0  0  0  0  0  0  0
   -5.3269   22.9764  -28.0794 H   0  0  0  0  0  0  0  0  0  0  0  0
   -3.9453   20.9022  -27.7302 H   0  0  0  0  0  0  0  0  0  0  0  0
   -3.9919   21.5071  -29.4271 H   0  0  0  0  0  0  0  0  0  0  0  0
   -1.2954   22.0828  -30.7203 H   0  0  0  0  0  0  0  0  0  0  0  0
   -0.1036   21.0759  -31.6104 H   0  0  0  0  0  0  0  0  0  0  0  0
   -1.8414   20.6212  -31.6104 H   0  0  0  0  0  0  0  0  0  0  0  0
  1  2  1  0
  2  3  2  0
  3  4  1  0
  4  5  2  0
  5  6  1  0
  6  7  1  0
  7  8  1  0
  8  9  1  0
  9 10  1  0
 10 11  1  0
 11 12  2  0
 11 13  2  0
 11 14  1  0
 14 15  2  0
 15 16  1  0
 16 17  2  0
 17 18  1  0
 18 19  1  0
 19 20  2  0
 20 21  1  0
 21 22  1  0
 18 23  2  0
 10 24  1  0
 24 25  1  0
  6 26  2  0
 26 27  1  0
 26  2  1  0
 25  7  1  0
 23 14  1  0
 21 17  1  0
  1 28  1  0
  1 29  1  0
  1 30  1  0
  3 31  1  0
  4 32  1  0
  5 33  1  0
  8 34  1  0
  8 35  1  0
  9 36  1  0
  9 37  1  0
 15 38  1  0
 16 39  1  0
 19 40  1  0
 20 41  1  0
 22 42  1  0
 22 43  1  0
 22 44  1  0
 23 45  1  0
 24 46  1  0
 24 47  1  0
 25 48  1  0
 25 49  1  0
 27 50  1  0
 27 51  1  0
 27 52  1  0
M  END
>  <UniqueID>  (40) 
38

>  <SMILES>  (40) 
Cc1cccc(N2CCN(S(=O)(=O)c3ccc4c(ccn4C)c3)CC2)c1C

>  <Energy>  (40) 
99.91416275850705

>  <Genealogy>  (40) 
Cc1cccc(N2CCN(S(=O)(=O)c3ccc4c(ccn4C)c3)CC2)c1C (3D coordinates assigned)
Cc1cccc(N2CCN(S(=O)(=O)c3ccc4c(ccn4C)c3)CC2)c1C (nonaromatic ring conformer: 99.91416275850705 kcal/mol)

>  <smiles>  (40) 
Cc1cccc(N2CCN(S(=O)(=O)c3ccc4c(ccn4C)c3)CC2)c1C

>  <score_type>  (40) 
oracle

>  <origin>  (40) 
adg

>  <m_score__min__energy>  (40) 
-10.25

>  <m_primary>  (40) 
energy

$$$$
40:0
     RDKit          3D

 55 57  0  0  0  0  0  0  0  0999 V2000
   -5.9560   17.6010  -34.2350 C   0  0  0  0  0  0  0  0  0  0  0  0
   -5.0050   18.5880  -33.6510 C   0  0  0  0  0  0  0  0  0  0  0  0
   -3.9660   18.9080  -34.2920 O   0  0  0  0  0  0  0  0  0  0  0  0
   -5.2260   19.0690  -32.3540 O   0  0  0  0  0  0  0  0  0  0  0  0
   -4.6660   20.2450  -31.8290 C   0  0  0  0  0  0  0  0  0  0  0  0
   -3.5400   20.2000  -30.9930 C   0  0  0  0  0  0  0  0  0  0  0  0
   -2.9930   21.3720  -30.4690 C   0  0  0  0  0  0  0  0  0  0  0  0
   -1.9310   21.2870  -29.6800 O   0  0  0  0  0  0  0  0  0  0  0  0
   -1.3470   22.3470  -29.1340 C   0  0  0  0  0  0  0  0  0  0  0  0
   -0.2340   22.1590  -28.3110 C   0  0  0  0  0  0  0  0  0  0  0  0
    0.4010   23.2480  -27.7170 C   0  0  0  0  0  0  0  0  0  0  0  0
    1.4940   23.0220  -26.8860 O   0  0  0  0  0  0  0  0  0  0  0  0
   -0.0620   24.5560  -27.9540 C   0  0  0  0  0  0  0  0  0  0  0  0
    0.6020   25.7370  -27.2840 C   0  0  0  0  0  0  0  0  0  0  0  0
    0.0780   25.9120  -25.8780 C   0  0  0  0  0  0  0  0  0  0  0  0
   -0.9230   25.1690  -25.3620 C   0  0  0  0  0  0  0  0  0  0  0  0
   -2.3660   25.4750  -25.6630 C   0  0  0  0  0  0  0  0  0  0  0  0
   -0.5790   24.0030  -24.4730 C   0  0  0  0  0  0  0  0  0  0  0  0
   -1.1970   24.7530  -28.7690 C   0  0  0  0  0  0  0  0  0  0  0  0
   -1.6740   26.0480  -28.9660 O   0  0  0  0  0  0  0  0  0  0  0  0
   -1.8440   23.6470  -29.3730 C   0  0  0  0  0  0  0  0  0  0  0  0
   -2.9750   23.7790  -30.2100 C   0  0  0  0  0  0  0  0  0  0  0  0
   -3.4520   24.9210  -30.4550 O   0  0  0  0  0  0  0  0  0  0  0  0
   -3.5660   22.6250  -30.7740 C   0  0  0  0  0  0  0  0  0  0  0  0
   -4.6960   22.6760  -31.6260 C   0  0  0  0  0  0  0  0  0  0  0  0
   -5.2990   23.8950  -31.9280 O   0  0  0  0  0  0  0  0  0  0  0  0
   -5.2260   21.4900  -32.1770 C   0  0  0  0  0  0  0  0  0  0  0  0
   -6.4480   21.5480  -33.0680 C   0  0  0  0  0  0  0  0  0  0  0  0
   -7.6660   21.9450  -32.2680 C   0  0  0  0  0  0  0  0  0  0  0  0
   -8.5510   21.0560  -31.7650 C   0  0  0  0  0  0  0  0  0  0  0  0
   -9.6110   21.5520  -30.8160 C   0  0  0  0  0  0  0  0  0  0  0  0
   -8.5070   19.5920  -32.1360 C   0  0  0  0  0  0  0  0  0  0  0  0
   -6.4721   17.0653  -33.4246 H   0  0  0  0  0  0  0  0  0  0  0  0
   -6.6958   18.1276  -34.8558 H   0  0  0  0  0  0  0  0  0  0  0  0
   -5.4022   16.8813  -34.8558 H   0  0  0  0  0  0  0  0  0  0  0  0
   -3.0832   19.2298  -30.7479 H   0  0  0  0  0  0  0  0  0  0  0  0
    0.1446   21.1422  -28.1302 H   0  0  0  0  0  0  0  0  0  0  0  0
    1.6884   25.5683  -27.2469 H   0  0  0  0  0  0  0  0  0  0  0  0
    0.3785   26.6456  -27.8623 H   0  0  0  0  0  0  0  0  0  0  0  0
    0.5358   26.6845  -25.2426 H   0  0  0  0  0  0  0  0  0  0  0  0
   -2.9203   25.5925  -24.7202 H   0  0  0  0  0  0  0  0  0  0  0  0
   -2.4297   26.4066  -26.2444 H   0  0  0  0  0  0  0  0  0  0  0  0
   -2.8023   24.6494  -26.2444 H   0  0  0  0  0  0  0  0  0  0  0  0
   -0.6685   24.3063  -23.4194 H   0  0  0  0  0  0  0  0  0  0  0  0
   -1.2701   23.1714  -24.6751 H   0  0  0  0  0  0  0  0  0  0  0  0
    0.4528   23.6797  -24.6751 H   0  0  0  0  0  0  0  0  0  0  0  0
   -6.2808   22.2880  -33.8645 H   0  0  0  0  0  0  0  0  0  0  0  0
   -6.6177   20.5530  -33.5053 H   0  0  0  0  0  0  0  0  0  0  0  0
   -7.8422   23.0152  -32.0849 H   0  0  0  0  0  0  0  0  0  0  0  0
   -9.2773   21.3959  -29.7795 H   0  0  0  0  0  0  0  0  0  0  0  0
   -9.7841   22.6246  -30.9878 H   0  0  0  0  0  0  0  0  0  0  0  0
  -10.5454   20.9976  -30.9878 H   0  0  0  0  0  0  0  0  0  0  0  0
   -8.4887   18.9822  -31.2207 H   0  0  0  0  0  0  0  0  0  0  0  0
   -9.3979   19.3370  -32.7287 H   0  0  0  0  0  0  0  0  0  0  0  0
   -7.6024   19.3910  -32.7287 H   0  0  0  0  0  0  0  0  0  0  0  0
  1  2  1  0
  2  3  2  0
  2  4  1  0
  4  5  1  0
  5  6  2  0
  6  7  1  0
  7  8  1  0
  8  9  1  0
  9 10  2  0
 10 11  1  0
 11 12  1  0
 11 13  2  0
 13 14  1  0
 14 15  1  0
 15 16  2  3
 16 17  1  0
 16 18  1  0
 13 19  1  0
 19 20  1  0
 19 21  2  0
 21 22  1  0
 22 23  2  0
 22 24  1  0
 24 25  1  0
 25 26  1  0
 25 27  2  0
 27 28  1  0
 28 29  1  0
 29 30  2  3
 30 31  1  0
 30 32  1  0
 27  5  1  0
 24  7  2  0
 21  9  1  0
  1 33  1  0
  1 34  1  0
  1 35  1  0
  6 36  1  0
 10 37  1  0
 14 38  1  0
 14 39  1  0
 15 40  1  0
 17 41  1  0
 17 42  1  0
 17 43  1  0
 18 44  1  0
 18 45  1  0
 18 46  1  0
 28 47  1  0
 28 48  1  0
 29 49  1  0
 31 50  1  0
 31 51  1  0
 31 52  1  0
 32 53  1  0
 32 54  1  0
 32 55  1  0
M  CHG  3  12  -1  20  -1  26  -1
M  END
>  <UniqueID>  (41) 
39

>  <SMILES>  (41) 
CC(=O)Oc1cc2oc3cc([O-])c(CC=C(C)C)c([O-])c3c(=O)c2c([O-])c1CC=C(C)C

>  <Energy>  (41) 
65.12508375120838

>  <Genealogy>  (41) 
CC(=O)Oc1cc2oc3cc([O-])c(CC=C(C)C)c([O-])c3c(=O)c2c([O-])c1CC=C(C)C (protonated)
CC(=O)Oc1cc2oc3cc([O-])c(CC=C(C)C)c([O-])c3c(=O)c2c([O-])c1CC=C(C)C (3D coordinates assigned)
CC(=O)Oc1cc2oc3cc([O-])c(CC=C(C)C)c([O-])c3c(=O)c2c([O-])c1CC=C(C)C (optimized conformer: 65.12508375120838 kcal/mol)

>  <smiles>  (41) 
CC(=O)Oc1cc2oc3cc(O)c(CC=C(C)C)c(O)c3c(=O)c2c(O)c1CC=C(C)C

>  <score_type>  (41) 
oracle

>  <origin>  (41) 
adg

>  <m_score__min__energy>  (41) 
-12.34

>  <m_primary>  (41) 
energy

$$$$
41:0
     RDKit          3D

 43 46  0  0  0  0  0  0  0  0999 V2000
   -5.8130   25.2240  -30.2620 C   0  0  0  0  0  0  0  0  0  0  0  0
   -5.0550   24.4920  -31.2000 O   0  0  0  0  0  0  0  0  0  0  0  0
   -5.9080   23.8260  -32.1110 C   0  0  0  0  0  0  0  0  0  0  0  0
   -6.8230   22.8490  -31.3650 C   0  0  0  0  0  0  0  0  0  0  0  0
   -6.5350   21.4670  -31.7600 N   0  0  0  0  0  0  0  0  0  0  0  0
   -5.3580   20.7720  -31.6790 C   0  0  0  0  0  0  0  0  0  0  0  0
   -4.0660   21.3190  -31.2220 C   0  0  0  0  0  0  0  0  0  0  0  0
   -3.0040   20.8620  -31.7230 O   0  0  0  0  0  0  0  0  0  0  0  0
   -4.0170   22.3660  -30.2380 N   0  0  0  0  0  0  0  0  0  0  0  0
   -2.8010   22.8940  -29.6840 C   0  0  0  0  0  0  0  0  0  0  0  0
   -1.5960   22.1650  -29.7270 C   0  0  0  0  0  0  0  0  0  0  0  0
   -0.4210   22.7110  -29.1980 C   0  0  0  0  0  0  0  0  0  0  0  0
   -0.4380   23.9890  -28.6340 C   0  0  0  0  0  0  0  0  0  0  0  0
   -1.6210   24.7390  -28.6340 C   0  0  0  0  0  0  0  0  0  0  0  0
   -2.7990   24.1920  -29.1500 C   0  0  0  0  0  0  0  0  0  0  0  0
   -1.6020   26.0370  -28.1130 O   0  0  0  0  0  0  0  0  0  0  0  0
   -0.3660   26.7050  -27.8400 C   0  0  0  0  0  0  0  0  0  0  0  0
    0.6550   25.7170  -27.2620 C   0  0  0  0  0  0  0  0  0  0  0  0
    0.7180   24.5390  -28.0720 O   0  0  0  0  0  0  0  0  0  0  0  0
   -5.5450   19.4210  -32.0100 C   0  0  0  0  0  0  0  0  0  0  0  0
   -6.8810   19.3460  -32.3090 C   0  0  0  0  0  0  0  0  0  0  0  0
   -8.0230   18.1940  -32.7130 S   0  0  0  0  0  0  0  0  0  0  0  0
   -9.3040   19.3320  -32.6820 C   0  0  0  0  0  0  0  0  0  0  0  0
   -8.8160   20.6030  -32.3400 C   0  0  0  0  0  0  0  0  0  0  0  0
   -7.4390   20.5500  -32.1510 C   0  0  0  0  0  0  0  0  0  0  0  0
   -5.5140   24.9352  -29.2436 H   0  0  0  0  0  0  0  0  0  0  0  0
   -5.6341   26.2998  -30.4055 H   0  0  0  0  0  0  0  0  0  0  0  0
   -6.8819   25.0077  -30.4055 H   0  0  0  0  0  0  0  0  0  0  0  0
   -6.5239   24.5679  -32.6403 H   0  0  0  0  0  0  0  0  0  0  0  0
   -5.2945   23.2637  -32.8304 H   0  0  0  0  0  0  0  0  0  0  0  0
   -6.6605   22.9567  -30.2824 H   0  0  0  0  0  0  0  0  0  0  0  0
   -7.8684   23.0792  -31.6181 H   0  0  0  0  0  0  0  0  0  0  0  0
   -4.9140   22.7170  -29.8400 H   0  0  0  0  0  0  0  0  0  0  0  0
   -1.5787   21.1621  -30.1785 H   0  0  0  0  0  0  0  0  0  0  0  0
    0.5153   22.1343  -29.2263 H   0  0  0  0  0  0  0  0  0  0  0  0
   -3.7280   24.7809  -29.1376 H   0  0  0  0  0  0  0  0  0  0  0  0
    0.0299   27.1319  -28.7733 H   0  0  0  0  0  0  0  0  0  0  0  0
   -0.5453   27.5051  -27.1068 H   0  0  0  0  0  0  0  0  0  0  0  0
    1.6463   26.1931  -27.2358 H   0  0  0  0  0  0  0  0  0  0  0  0
    0.3455   25.4361  -26.2445 H   0  0  0  0  0  0  0  0  0  0  0  0
   -4.7975   18.6142  -32.0258 H   0  0  0  0  0  0  0  0  0  0  0  0
  -10.3571   19.0999  -32.8989 H   0  0  0  0  0  0  0  0  0  0  0  0
   -9.4323   21.5083  -32.2366 H   0  0  0  0  0  0  0  0  0  0  0  0
  1  2  1  0
  2  3  1  0
  3  4  1  0
  4  5  1  0
  5  6  1  0
  6  7  1  0
  7  8  2  0
  7  9  1  0
  9 10  1  0
 10 11  2  0
 11 12  1  0
 12 13  2  0
 13 14  1  0
 14 15  2  0
 14 16  1  0
 16 17  1  0
 17 18  1  0
 18 19  1  0
  6 20  2  0
 20 21  1  0
 21 22  1  0
 22 23  1  0
 23 24  2  0
 24 25  1  0
 25  5  1  0
 15 10  1  0
 25 21  2  0
 19 13  1  0
  1 26  1  0
  1 27  1  0
  1 28  1  0
  3 29  1  0
  3 30  1  0
  4 31  1  0
  4 32  1  0
  9 33  1  0
 11 34  1  0
 12 35  1  0
 15 36  1  0
 17 37  1  0
 17 38  1  0
 18 39  1  0
 18 40  1  0
 20 41  1  0
 23 42  1  0
 24 43  1  0
M  END
>  <UniqueID>  (42) 
40

>  <SMILES>  (42) 
COCCn1c(C(=O)Nc2ccc3c(c2)OCCO3)cc2sccc21

>  <Energy>  (42) 
129.11568204035092

>  <Genealogy>  (42) 
COCCn1c(C(=O)Nc2ccc3c(c2)OCCO3)cc2sccc21 (3D coordinates assigned)
COCCn1c(C(=O)Nc2ccc3c(c2)OCCO3)cc2sccc21 (nonaromatic ring conformer: 129.11568204035092 kcal/mol)

>  <smiles>  (42) 
COCCn1c(C(=O)Nc2ccc3c(c2)OCCO3)cc2sccc21

>  <score_type>  (42) 
oracle

>  <origin>  (42) 
adg

>  <m_score__min__energy>  (42) 
-8.0099999999999998

>  <m_primary>  (42) 
energy

$$$$
42:0
     RDKit          3D

 49 52  0  0  0  0  0  0  0  0999 V2000
   -4.0480   14.3500  -34.8020 C   0  0  0  0  0  0  0  0  0  0  0  0
   -4.3770   15.7550  -34.5970 N   0  0  0  0  0  0  0  0  0  0  0  0
   -3.6670   16.8080  -35.0440 C   0  0  0  0  0  0  0  0  0  0  0  0
   -4.2350   17.9800  -34.5890 C   0  0  0  0  0  0  0  0  0  0  0  0
   -5.3290   17.6170  -33.8160 C   0  0  0  0  0  0  0  0  0  0  0  0
   -6.2490   18.5370  -33.0980 C   0  0  0  0  0  0  0  0  0  0  0  0
   -7.5790   18.1760  -32.8630 C   0  0  0  0  0  0  0  0  0  0  0  0
   -8.4120   19.0590  -32.1790 C   0  0  0  0  0  0  0  0  0  0  0  0
   -9.6140   18.7290  -31.9820 O   0  0  0  0  0  0  0  0  0  0  0  0
   -7.9310   20.2610  -31.7280 N   0  0  0  0  0  0  0  0  0  0  0  0
   -8.8130   21.1790  -30.9890 C   0  0  0  0  0  0  0  0  0  0  0  0
   -6.6320   20.6150  -32.0050 C   0  0  0  0  0  0  0  0  0  0  0  0
   -6.1190   21.9010  -31.6210 N   0  0  0  0  0  0  0  0  0  0  0  0
   -6.7780   23.1190  -32.0890 C   0  0  0  0  0  0  0  0  0  0  0  0
   -6.0380   24.3470  -31.5540 C   0  0  0  0  0  0  0  0  0  0  0  0
   -5.8930   24.2910  -30.1460 O   0  0  0  0  0  0  0  0  0  0  0  0
   -5.2430   23.1070  -29.6710 C   0  0  2  0  0  0  0  0  0  0  0  0
   -3.9650   23.4660  -28.9430 C   0  0  0  0  0  0  0  0  0  0  0  0
   -3.5850   22.7660  -27.7830 C   0  0  0  0  0  0  0  0  0  0  0  0
   -2.4250   23.1210  -27.0900 C   0  0  0  0  0  0  0  0  0  0  0  0
   -1.6400   24.1860  -27.5360 C   0  0  0  0  0  0  0  0  0  0  0  0
   -2.0170   24.9020  -28.6740 C   0  0  0  0  0  0  0  0  0  0  0  0
   -3.1760   24.5520  -29.3740 C   0  0  0  0  0  0  0  0  0  0  0  0
   -3.5300   25.2780  -30.4650 F   0  0  0  0  0  0  0  0  0  0  0  0
   -4.9650   22.0130  -30.7290 C   0  0  0  0  0  0  0  0  0  0  0  0
   -5.8110   19.7520  -32.6650 N   0  0  0  0  0  0  0  0  0  0  0  0
   -5.3800   16.2310  -33.8360 C   0  0  0  0  0  0  0  0  0  0  0  0
   -3.9320   13.8545  -33.8268 H   0  0  0  0  0  0  0  0  0  0  0  0
   -4.8564   13.8628  -35.3670 H   0  0  0  0  0  0  0  0  0  0  0  0
   -3.1074   14.2723  -35.3670 H   0  0  0  0  0  0  0  0  0  0  0  0
   -2.7694   16.7435  -35.6766 H   0  0  0  0  0  0  0  0  0  0  0  0
   -3.8884   19.0028  -34.7981 H   0  0  0  0  0  0  0  0  0  0  0  0
   -7.9631   17.2068  -33.2138 H   0  0  0  0  0  0  0  0  0  0  0  0
   -8.6720   21.0322  -29.9080 H   0  0  0  0  0  0  0  0  0  0  0  0
   -8.5654   22.2177  -31.2534 H   0  0  0  0  0  0  0  0  0  0  0  0
   -9.8607   20.9731  -31.2534 H   0  0  0  0  0  0  0  0  0  0  0  0
   -6.7707   23.1387  -33.1888 H   0  0  0  0  0  0  0  0  0  0  0  0
   -7.8159   23.1332  -31.7250 H   0  0  0  0  0  0  0  0  0  0  0  0
   -5.0402   24.3924  -32.0149 H   0  0  0  0  0  0  0  0  0  0  0  0
   -6.6258   25.2420  -31.8059 H   0  0  0  0  0  0  0  0  0  0  0  0
   -5.9726   22.6500  -28.9863 H   0  0  0  0  0  0  0  0  0  0  0  0
   -4.2055   21.9337  -27.4194 H   0  0  0  0  0  0  0  0  0  0  0  0
   -2.1295   22.5602  -26.1910 H   0  0  0  0  0  0  0  0  0  0  0  0
   -0.7249   24.4609  -26.9911 H   0  0  0  0  0  0  0  0  0  0  0  0
   -1.4003   25.7442  -29.0210 H   0  0  0  0  0  0  0  0  0  0  0  0
   -4.0735   22.2846  -31.3134 H   0  0  0  0  0  0  0  0  0  0  0  0
   -4.7914   21.0497  -30.2271 H   0  0  0  0  0  0  0  0  0  0  0  0
   -4.8340   20.0580  -32.8690 H   0  0  0  0  0  0  0  0  0  0  0  0
   -6.1253   15.6156  -33.3108 H   0  0  0  0  0  0  0  0  0  0  0  0
  1  2  1  0
  2  3  1  0
  3  4  2  0
  4  5  1  0
  5  6  1  0
  6  7  2  0
  7  8  1  0
  8  9  2  0
  8 10  1  0
 10 11  1  0
 10 12  1  0
 12 13  1  0
 13 14  1  0
 14 15  1  0
 15 16  1  0
 16 17  1  0
 17 18  1  0
 18 19  2  0
 19 20  1  0
 20 21  2  0
 21 22  1  0
 22 23  2  0
 23 24  1  0
 17 25  1  0
 12 26  2  0
  5 27  2  0
 27  2  1  0
 26  6  1  0
 25 13  1  0
 23 18  1  0
  1 28  1  0
  1 29  1  0
  1 30  1  0
  3 31  1  0
  4 32  1  0
  7 33  1  0
 11 34  1  0
 11 35  1  0
 11 36  1  0
 14 37  1  0
 14 38  1  0
 15 39  1  0
 15 40  1  0
 17 41  1  1
 19 42  1  0
 20 43  1  0
 21 44  1  0
 22 45  1  0
 25 46  1  0
 25 47  1  0
 26 48  1  0
 27 49  1  0
M  CHG  1  26   1
M  END
>  <UniqueID>  (43) 
41

>  <SMILES>  (43) 
Cn1ccc(-c2cc(=O)n(C)c(N3CCO[C@H](c4ccccc4F)C3)[nH+]2)c1

>  <Energy>  (43) 
96.68583655052026

>  <Genealogy>  (43) 
Cn1ccc(-c2cc(=O)n(C)c(N3CCOC(c4ccccc4F)C3)[nH+]2)c1 (protonated)
Cn1ccc(-c2cc(=O)n(C)c(N3CCO[C@H](c4ccccc4F)C3)[nH+]2)c1 (chirality)
Cn1ccc(-c2cc(=O)n(C)c(N3CCO[C@H](c4ccccc4F)C3)[nH+]2)c1 (3D coordinates assigned)
Cn1ccc(-c2cc(=O)n(C)c(N3CCO[C@H](c4ccccc4F)C3)[nH+]2)c1 (nonaromatic ring conformer: 96.68583655052026 kcal/mol)

>  <smiles>  (43) 
Cn1ccc(-c2cc(=O)n(C)c(N3CCOC(c4ccccc4F)C3)n2)c1

>  <score_type>  (43) 
oracle

>  <origin>  (43) 
adg

>  <m_score__min__energy>  (43) 
-7.6699999999999999

>  <m_primary>  (43) 
energy

$$$$
43:0
     RDKit          3D

 57 59  0  0  0  0  0  0  0  0999 V2000
   -0.9040   23.6720  -29.3260 C   0  0  0  0  0  0  0  0  0  0  0  0
   -0.6920   22.2590  -28.9960 N   0  0  0  0  0  0  0  0  0  0  0  0
    0.2560   21.8900  -27.9370 C   0  0  0  0  0  0  0  0  0  0  0  0
   -1.3700   21.2090  -29.7220 C   0  0  0  0  0  0  0  0  0  0  0  0
   -0.9410   20.0240  -29.6380 O   0  0  0  0  0  0  0  0  0  0  0  0
   -2.6400   21.4610  -30.5090 C   0  0  2  0  0  0  0  0  0  0  0  0
   -3.8110   21.7910  -29.5650 C   0  0  0  0  0  0  0  0  0  0  0  0
   -4.4540   23.1100  -29.9110 C   0  0  0  0  0  0  0  0  0  0  0  0
   -5.7760   23.3830  -29.5270 C   0  0  0  0  0  0  0  0  0  0  0  0
   -6.3400   24.6280  -29.8060 C   0  0  0  0  0  0  0  0  0  0  0  0
   -5.5750   25.5930  -30.4640 C   0  0  0  0  0  0  0  0  0  0  0  0
   -4.2940   25.3180  -30.8260 N   0  0  0  0  0  0  0  0  0  0  0  0
   -3.7220   24.1120  -30.5670 C   0  0  0  0  0  0  0  0  0  0  0  0
   -2.9660   20.2690  -31.2990 N   0  0  0  0  0  0  0  0  0  0  0  0
   -3.2710   20.3320  -32.7020 C   0  0  0  0  0  0  0  0  0  0  0  0
   -3.3850   21.4480  -33.2780 O   0  0  0  0  0  0  0  0  0  0  0  0
   -3.3990   19.0900  -33.4870 C   0  0  0  0  0  0  0  0  0  0  0  0
   -2.2870   18.2320  -33.5520 C   0  0  0  0  0  0  0  0  0  0  0  0
   -2.3380   17.0590  -34.3060 C   0  0  0  0  0  0  0  0  0  0  0  0
   -3.5000   16.7240  -35.0010 C   0  0  0  0  0  0  0  0  0  0  0  0
   -4.6180   17.5560  -34.9370 C   0  0  0  0  0  0  0  0  0  0  0  0
   -4.5880   18.7450  -34.1850 C   0  0  0  0  0  0  0  0  0  0  0  0
   -5.8720   19.5350  -34.0480 C   0  0  0  0  0  0  0  0  0  0  0  0
   -6.4440   19.3840  -32.6320 C   0  0  0  0  0  0  0  0  0  0  0  0
   -7.3810   20.5170  -32.3040 C   0  0  0  0  0  0  0  0  0  0  0  0
   -6.9350   21.8470  -32.3740 C   0  0  0  0  0  0  0  0  0  0  0  0
   -7.8000   22.8980  -32.0530 C   0  0  0  0  0  0  0  0  0  0  0  0
   -9.1150   22.6290  -31.6650 C   0  0  0  0  0  0  0  0  0  0  0  0
   -9.5660   21.3060  -31.5870 C   0  0  0  0  0  0  0  0  0  0  0  0
   -8.7020   20.2520  -31.8980 C   0  0  0  0  0  0  0  0  0  0  0  0
   -0.9916   24.2561  -28.3980 H   0  0  0  0  0  0  0  0  0  0  0  0
   -0.0515   24.0432  -29.9138 H   0  0  0  0  0  0  0  0  0  0  0  0
   -1.8279   23.7766  -29.9138 H   0  0  0  0  0  0  0  0  0  0  0  0
   -0.2043   22.0692  -26.9541 H   0  0  0  0  0  0  0  0  0  0  0  0
    0.5154   20.8252  -28.0318 H   0  0  0  0  0  0  0  0  0  0  0  0
    1.1670   22.4992  -28.0318 H   0  0  0  0  0  0  0  0  0  0  0  0
   -2.4776   22.3203  -31.1763 H   0  0  0  0  0  0  0  0  0  0  0  0
   -4.5664   20.9952  -29.6430 H   0  0  0  0  0  0  0  0  0  0  0  0
   -3.4155   21.8614  -28.5410 H   0  0  0  0  0  0  0  0  0  0  0  0
   -6.3673   22.6154  -29.0062 H   0  0  0  0  0  0  0  0  0  0  0  0
   -7.3767   24.8472  -29.5107 H   0  0  0  0  0  0  0  0  0  0  0  0
   -6.0098   26.5778  -30.6899 H   0  0  0  0  0  0  0  0  0  0  0  0
   -2.6826   23.9210  -30.8724 H   0  0  0  0  0  0  0  0  0  0  0  0
   -2.8510   19.3270  -30.8560 H   0  0  0  0  0  0  0  0  0  0  0  0
   -1.3685   18.4878  -33.0035 H   0  0  0  0  0  0  0  0  0  0  0  0
   -1.4604   16.3974  -34.3524 H   0  0  0  0  0  0  0  0  0  0  0  0
   -3.5349   15.8024  -35.6005 H   0  0  0  0  0  0  0  0  0  0  0  0
   -5.5334   17.2794  -35.4806 H   0  0  0  0  0  0  0  0  0  0  0  0
   -5.6666   20.5976  -34.2446 H   0  0  0  0  0  0  0  0  0  0  0  0
   -6.6059   19.1518  -34.7722 H   0  0  0  0  0  0  0  0  0  0  0  0
   -6.9926   18.4329  -32.5653 H   0  0  0  0  0  0  0  0  0  0  0  0
   -5.6107   19.3997  -31.9142 H   0  0  0  0  0  0  0  0  0  0  0  0
   -5.9014   22.0628  -32.6825 H   0  0  0  0  0  0  0  0  0  0  0  0
   -7.4446   23.9377  -32.1061 H   0  0  0  0  0  0  0  0  0  0  0  0
   -9.7964   23.4573  -31.4207 H   0  0  0  0  0  0  0  0  0  0  0  0
  -10.6013   21.0956  -31.2807 H   0  0  0  0  0  0  0  0  0  0  0  0
   -9.0556   19.2129  -31.8252 H   0  0  0  0  0  0  0  0  0  0  0  0
  1  2  1  0
  2  3  1  0
  2  4  1  0
  4  5  2  0
  4  6  1  0
  6  7  1  0
  7  8  1  0
  8  9  2  0
  9 10  1  0
 10 11  2  0
 11 12  1  0
 12 13  2  0
  6 14  1  0
 14 15  1  0
 15 16  2  0
 15 17  1  0
 17 18  2  0
 18 19  1  0
 19 20  2  0
 20 21  1  0
 21 22  2  0
 22 23  1  0
 23 24  1  0
 24 25  1  0
 25 26  2  0
 26 27  1  0
 27 28  2  0
 28 29  1  0
 29 30  2  0
 13  8  1  0
 22 17  1  0
 30 25  1  0
  1 31  1  0
  1 32  1  0
  1 33  1  0
  3 34  1  0
  3 35  1  0
  3 36  1  0
  6 37  1  6
  7 38  1  0
  7 39  1  0
  9 40  1  0
 10 41  1  0
 11 42  1  0
 13 43  1  0
 14 44  1  0
 18 45  1  0
 19 46  1  0
 20 47  1  0
 21 48  1  0
 23 49  1  0
 23 50  1  0
 24 51  1  0
 24 52  1  0
 26 53  1  0
 27 54  1  0
 28 55  1  0
 29 56  1  0
 30 57  1  0
M  END
>  <UniqueID>  (44) 
42

>  <SMILES>  (44) 
CN(C)C(=O)[C@H](Cc1cccnc1)NC(=O)c1ccccc1CCc1ccccc1

>  <Energy>  (44) 
57.90141019219287

>  <Genealogy>  (44) 
CN(C)C(=O)[C@H](Cc1cccnc1)NC(=O)c1ccccc1CCc1ccccc1 (chirality)
CN(C)C(=O)[C@H](Cc1cccnc1)NC(=O)c1ccccc1CCc1ccccc1 (3D coordinates assigned)
CN(C)C(=O)[C@H](Cc1cccnc1)NC(=O)c1ccccc1CCc1ccccc1 (optimized conformer: 57.90141019219287 kcal/mol)

>  <smiles>  (44) 
CN(C)C(=O)C(Cc1cccnc1)NC(=O)c1ccccc1CCc1ccccc1

>  <score_type>  (44) 
oracle

>  <origin>  (44) 
adg

>  <m_score__min__energy>  (44) 
-9.2599999999999998

>  <m_primary>  (44) 
energy

$$$$
44:0
     RDKit          3D

 17 18  0  0  0  0  0  0  0  0999 V2000
   -3.4780   26.0050  -31.2440 H   0  0  0  0  0  0  0  0  0  0  0  0
   -3.8800   25.3060  -30.5790 N   0  0  0  0  0  0  0  0  0  0  0  0
   -3.1480   24.7290  -29.6840 C   0  0  0  0  0  0  0  0  0  0  0  0
   -3.5810   23.5730  -29.0800 N   0  0  0  0  0  0  0  0  0  0  0  0
   -2.8290   22.9430  -28.1300 C   0  0  0  0  0  0  0  0  0  0  0  0
   -3.2410   21.8840  -27.5870 O   0  0  0  0  0  0  0  0  0  0  0  0
   -1.6040   23.5110  -27.7940 C   0  0  0  0  0  0  0  0  0  0  0  0
   -1.1940   24.6500  -28.4010 C   0  0  0  0  0  0  0  0  0  0  0  0
    0.0090   25.0410  -27.9430 N   0  0  0  0  0  0  0  0  0  0  0  0
    0.3030   24.0770  -27.0290 C   0  0  0  0  0  0  0  0  0  0  0  0
    1.2319   24.0657  -26.4399 H   0  0  0  0  0  0  0  0  0  0  0  0
   -0.6640   23.1300  -26.9160 N   0  0  0  0  0  0  0  0  0  0  0  0
   -0.6620   21.9670  -26.0340 C   0  0  0  0  0  0  0  0  0  0  0  0
   -0.6626   22.3015  -24.9861 H   0  0  0  0  0  0  0  0  0  0  0  0
   -1.5591   21.3600  -26.2256 H   0  0  0  0  0  0  0  0  0  0  0  0
    0.2372   21.3630  -26.2256 H   0  0  0  0  0  0  0  0  0  0  0  0
   -1.9410   25.2760  -29.3420 N   0  0  0  0  0  0  0  0  0  0  0  0
  1  2  1  0
  2  3  2  0
  3  4  1  0
  4  5  1  0
  5  6  2  0
  5  7  1  0
  7  8  2  0
  8  9  1  0
  9 10  2  0
 10 11  1  0
 10 12  1  0
 12 13  1  0
 13 14  1  0
 13 15  1  0
 13 16  1  0
  8 17  1  0
 17  3  1  0
 12  7  1  0
M  CHG  2   4  -1  17  -1
M  END
>  <UniqueID>  (45) 
43

>  <SMILES>  (45) 
[H]/N=c1\[n-]c(=O)c2c(ncn2C)[n-]1

>  <Energy>  (45) 
58.1471724098204

>  <Genealogy>  (45) 
Cn1cnc2[n-]c(=N)[n-]c(=O)c21 (protonated)
[H]/N=c1\[n-]c(=O)c2c(ncn2C)[n-]1 (cis-trans isomerization)
[H]/N=c1\[n-]c(=O)c2c(ncn2C)[n-]1 (3D coordinates assigned)
[H]/N=c1\[n-]c(=O)c2c(ncn2C)[n-]1 (optimized conformer: 58.1471724098204 kcal/mol)

>  <smiles>  (45) 
Cn1cnc2[nH]c(=N)[nH]c(=O)c21

>  <score_type>  (45) 
oracle

>  <origin>  (45) 
adg

>  <m_score__min__energy>  (45) 
-7.7400000000000002

>  <m_primary>  (45) 
energy

$$$$
45:0
     RDKit          3D

 31 32  0  0  0  0  0  0  0  0999 V2000
   -9.2334   17.6817  -31.7039 H   0  0  0  0  0  0  0  0  0  0  0  0
   -8.6210   18.5540  -31.9760 C   0  0  0  0  0  0  0  0  0  0  0  0
   -9.0480   19.8420  -31.6340 C   0  0  0  0  0  0  0  0  0  0  0  0
  -10.0006   19.9801  -31.1015 H   0  0  0  0  0  0  0  0  0  0  0  0
   -8.2650   20.9590  -31.9680 C   0  0  0  0  0  0  0  0  0  0  0  0
   -8.7410   22.3500  -31.6280 C   0  0  0  0  0  0  0  0  0  0  0  0
   -9.0626   22.3664  -30.5762 H   0  0  0  0  0  0  0  0  0  0  0  0
   -9.5711   22.5963  -32.3064 H   0  0  0  0  0  0  0  0  0  0  0  0
   -7.6630   23.3890  -31.8220 C   0  0  0  0  0  0  0  0  0  0  0  0
   -7.3560   23.7580  -32.9870 O   0  0  0  0  0  0  0  0  0  0  0  0
   -6.9570   23.9840  -30.7180 N   0  0  0  0  0  0  0  0  0  0  0  0
   -5.6750   24.0020  -30.5040 C   0  0  0  0  0  0  0  0  0  0  0  0
   -4.8510   25.0190  -30.8370 N   0  0  0  0  0  0  0  0  0  0  0  0
   -3.5850   24.8010  -30.4840 N   0  0  0  0  0  0  0  0  0  0  0  0
   -3.3990   23.6090  -29.8740 C   0  0  0  0  0  0  0  0  0  0  0  0
   -2.0800   23.1540  -29.3300 C   0  0  0  0  0  0  0  0  0  0  0  0
   -1.3882   22.9789  -30.1671 H   0  0  0  0  0  0  0  0  0  0  0  0
   -2.2408   22.2282  -28.7581 H   0  0  0  0  0  0  0  0  0  0  0  0
   -1.4740   24.2020  -28.3930 C   0  0  0  0  0  0  0  0  0  0  0  0
   -0.3819   24.2147  -28.5243 H   0  0  0  0  0  0  0  0  0  0  0  0
   -1.7320   23.9394  -27.3564 H   0  0  0  0  0  0  0  0  0  0  0  0
   -2.0070   25.5300  -28.6860 N   0  0  0  0  0  0  0  0  0  0  0  0
   -1.9530   25.6730  -29.7200 H   0  0  0  0  0  0  0  0  0  0  0  0
   -3.0230   25.5370  -28.4360 H   0  0  0  0  0  0  0  0  0  0  0  0
   -4.8490   22.7610  -29.7240 S   0  0  0  0  0  0  0  0  0  0  0  0
   -7.0620   20.7720  -32.6700 C   0  0  0  0  0  0  0  0  0  0  0  0
   -6.4510   21.6421  -32.9522 H   0  0  0  0  0  0  0  0  0  0  0  0
   -6.6390   19.4830  -33.0110 C   0  0  0  0  0  0  0  0  0  0  0  0
   -5.6928   19.3411  -33.5538 H   0  0  0  0  0  0  0  0  0  0  0  0
   -7.4170   18.3750  -32.6630 C   0  0  0  0  0  0  0  0  0  0  0  0
   -7.0050   17.1270  -32.9950 F   0  0  0  0  0  0  0  0  0  0  0  0
  1  2  1  0
  2  3  2  0
  3  4  1  0
  3  5  1  0
  5  6  1  0
  6  7  1  0
  6  8  1  0
  6  9  1  0
  9 10  2  0
  9 11  1  0
 11 12  2  0
 12 13  1  0
 13 14  1  0
 14 15  2  0
 15 16  1  0
 16 17  1  0
 16 18  1  0
 16 19  1  0
 19 20  1  0
 19 21  1  0
 19 22  1  0
 22 23  1  0
 22 24  1  0
 15 25  1  0
  5 26  2  0
 26 27  1  0
 26 28  1  0
 28 29  1  0
 28 30  2  0
 30 31  1  0
 30  2  1  0
 25 12  1  0
M  CHG  1  13  -1
M  END
>  <UniqueID>  (46) 
44

>  <SMILES>  (46) 
NCCc1n[n-]/c(=N\C(=O)Cc2ccc(F)cc2)s1

>  <Energy>  (46) 
64.55435519817458

>  <Genealogy>  (46) 
NCCc1n[n-]c(=NC(=O)Cc2ccc(F)cc2)s1 (protonated)
NCCc1n[n-]/c(=N\C(=O)Cc2ccc(F)cc2)s1 (cis-trans isomerization)
NCCc1n[n-]/c(=N\C(=O)Cc2ccc(F)cc2)s1 (3D coordinates assigned)
NCCc1n[n-]/c(=N\C(=O)Cc2ccc(F)cc2)s1 (optimized conformer: 64.55435519817458 kcal/mol)

>  <smiles>  (46) 
NCCc1n[nH]c(=NC(=O)Cc2ccc(F)cc2)s1

>  <score_type>  (46) 
oracle

>  <origin>  (46) 
adg

>  <m_score__min__energy>  (46) 
-8.9800000000000004

>  <m_primary>  (46) 
energy

$$$$
46:0
     RDKit          3D

 37 38  0  0  0  0  0  0  0  0999 V2000
   -2.3280   20.8500  -28.9000 C   0  0  0  0  0  0  0  0  0  0  0  0
   -1.8040   22.2880  -29.0950 C   0  0  2  0  0  0  0  0  0  0  0  0
   -0.4380   22.4810  -28.3890 C   0  0  0  0  0  0  0  0  0  0  0  0
   -0.5800   22.6320  -26.8730 C   0  0  0  0  0  0  0  0  0  0  0  0
   -1.5800   23.7330  -26.5280 C   0  0  0  0  0  0  0  0  0  0  0  0
   -2.9370   23.4670  -27.2090 C   0  0  1  0  0  0  0  0  0  0  0  0
   -3.9630   24.5480  -26.8180 C   0  0  0  0  0  0  0  0  0  0  0  0
   -2.8190   23.3050  -28.6880 N   0  0  0  0  0  0  0  0  0  0  0  0
   -2.6100   24.5610  -29.3850 C   0  0  0  0  0  0  0  0  0  0  0  0
   -1.6990   25.3540  -29.0220 O   0  0  0  0  0  0  0  0  0  0  0  0
   -3.4930   24.9290  -30.4540 N   0  0  0  0  0  0  0  0  0  0  0  0
   -4.7510   24.3150  -30.7720 C   0  0  0  0  0  0  0  0  0  0  0  0
   -4.8350   23.1500  -31.5580 C   0  0  0  0  0  0  0  0  0  0  0  0
   -6.0790   22.5710  -31.8240 C   0  0  0  0  0  0  0  0  0  0  0  0
   -7.2430   23.1370  -31.2990 C   0  0  0  0  0  0  0  0  0  0  0  0
   -7.1650   24.2780  -30.4980 C   0  0  0  0  0  0  0  0  0  0  0  0
   -5.9220   24.8600  -30.2280 C   0  0  0  0  0  0  0  0  0  0  0  0
   -2.4077   20.6314  -27.8249 H   0  0  0  0  0  0  0  0  0  0  0  0
   -3.3188   20.7542  -29.3680 H   0  0  0  0  0  0  0  0  0  0  0  0
   -1.6311   20.1392  -29.3680 H   0  0  0  0  0  0  0  0  0  0  0  0
   -1.6307   22.4471  -30.1695 H   0  0  0  0  0  0  0  0  0  0  0  0
    0.1947   21.6060  -28.5989 H   0  0  0  0  0  0  0  0  0  0  0  0
    0.0118   23.4067  -28.7771 H   0  0  0  0  0  0  0  0  0  0  0  0
   -0.9307   21.6803  -26.4473 H   0  0  0  0  0  0  0  0  0  0  0  0
    0.4000   22.9021  -26.4527 H   0  0  0  0  0  0  0  0  0  0  0  0
   -1.7225   23.7631  -25.4377 H   0  0  0  0  0  0  0  0  0  0  0  0
   -1.1858   24.6951  -26.8872 H   0  0  0  0  0  0  0  0  0  0  0  0
   -3.3075   22.5007  -26.8362 H   0  0  0  0  0  0  0  0  0  0  0  0
   -4.0260   24.6144  -25.7218 H   0  0  0  0  0  0  0  0  0  0  0  0
   -3.6463   25.5190  -27.2265 H   0  0  0  0  0  0  0  0  0  0  0  0
   -4.9492   24.2824  -27.2265 H   0  0  0  0  0  0  0  0  0  0  0  0
   -3.7510   22.9520  -29.0170 H   0  0  0  0  0  0  0  0  0  0  0  0
   -3.9196   22.6945  -31.9637 H   0  0  0  0  0  0  0  0  0  0  0  0
   -6.1415   21.6675  -32.4483 H   0  0  0  0  0  0  0  0  0  0  0  0
   -8.2214   22.6838  -31.5166 H   0  0  0  0  0  0  0  0  0  0  0  0
   -8.0814   24.7194  -30.0791 H   0  0  0  0  0  0  0  0  0  0  0  0
   -5.8633   25.7506  -29.5850 H   0  0  0  0  0  0  0  0  0  0  0  0
  1  2  1  0
  2  3  1  0
  3  4  1  0
  4  5  1  0
  5  6  1  0
  6  7  1  0
  6  8  1  0
  8  9  1  0
  9 10  2  0
  9 11  1  0
 11 12  1  0
 12 13  2  0
 13 14  1  0
 14 15  2  0
 15 16  1  0
 16 17  2  0
  8  2  1  0
 17 12  1  0
  1 18  1  0
  1 19  1  0
  1 20  1  0
  2 21  1  6
  3 22  1  0
  3 23  1  0
  4 24  1  0
  4 25  1  0
  5 26  1  0
  5 27  1  0
  6 28  1  1
  7 29  1  0
  7 30  1  0
  7 31  1  0
  8 32  1  0
 13 33  1  0
 14 34  1  0
 15 35  1  0
 16 36  1  0
 17 37  1  0
M  CHG  2   8   1  11  -1
M  END
>  <UniqueID>  (47) 
45

>  <SMILES>  (47) 
C[C@@H]1CCC[C@@H](C)[NH+]1C(=O)[N-]c1ccccc1

>  <Energy>  (47) 
42.88335683296543

>  <Genealogy>  (47) 
CC1CCCC(C)[NH+]1C(=O)[N-]c1ccccc1 (protonated)
C[C@@H]1CCC[C@@H](C)[NH+]1C(=O)[N-]c1ccccc1 (chirality)
C[C@@H]1CCC[C@@H](C)[NH+]1C(=O)[N-]c1ccccc1 (3D coordinates assigned)
C[C@@H]1CCC[C@@H](C)[NH+]1C(=O)[N-]c1ccccc1 (nonaromatic ring conformer: 42.88335683296543 kcal/mol)

>  <smiles>  (47) 
CC1CCCC(C)N1C(=O)Nc1ccccc1

>  <score_type>  (47) 
oracle

>  <origin>  (47) 
adg

>  <m_score__min__energy>  (47) 
-6.8700000000000001

>  <m_primary>  (47) 
energy

$$$$
47:0
     RDKit          3D

 53 57  0  0  0  0  0  0  0  0999 V2000
   -6.8540   18.2950  -31.8100 C   0  0  0  0  0  0  0  0  0  0  0  0
   -7.5130   19.5520  -32.3700 C   0  0  0  0  0  0  0  0  0  0  0  0
   -6.5920   20.0540  -33.4810 C   0  0  0  0  0  0  0  0  0  0  0  0
   -7.6870   20.5280  -31.3750 O   0  0  0  0  0  0  0  0  0  0  0  0
   -7.0890   21.7470  -31.2940 C   0  0  0  0  0  0  0  0  0  0  0  0
   -7.6610   22.9580  -31.5970 C   0  0  0  0  0  0  0  0  0  0  0  0
   -7.0010   24.1660  -31.4940 C   0  0  0  0  0  0  0  0  0  0  0  0
   -5.6900   24.1680  -31.0640 C   0  0  0  0  0  0  0  0  0  0  0  0
   -4.8420   25.1700  -30.8790 N   0  0  0  0  0  0  0  0  0  0  0  0
   -3.6920   24.6730  -30.4540 N   0  0  0  0  0  0  0  0  0  0  0  0
   -3.7820   23.3270  -30.3570 C   0  0  0  0  0  0  0  0  0  0  0  0
   -2.7460   22.3960  -29.9280 C   0  0  0  0  0  0  0  0  0  0  0  0
   -2.8870   21.7500  -28.7030 C   0  0  0  0  0  0  0  0  0  0  0  0
   -1.9320   20.8560  -28.2480 C   0  0  0  0  0  0  0  0  0  0  0  0
   -0.8130   20.5870  -29.0090 C   0  0  0  0  0  0  0  0  0  0  0  0
    0.1810   19.6690  -28.5570 N   0  0  0  0  0  0  0  0  0  0  0  0
    1.4320   20.2290  -28.1040 C   0  0  0  0  0  0  0  0  0  0  0  0
    2.5370   19.2780  -27.8860 C   0  0  0  0  0  0  0  0  0  0  0  0
    2.1350   17.9220  -27.4870 C   0  0  0  0  0  0  0  0  0  0  0  0
    0.8860   17.4820  -27.8320 C   0  0  0  0  0  0  0  0  0  0  0  0
    0.7990   16.1890  -27.3250 C   0  0  0  0  0  0  0  0  0  0  0  0
    1.9800   15.9170  -26.7120 N   0  0  0  0  0  0  0  0  0  0  0  0
    2.7810   16.9570  -26.8100 N   0  0  0  0  0  0  0  0  0  0  0  0
    4.1280   16.9750  -26.2490 C   0  0  0  0  0  0  0  0  0  0  0  0
   -0.1130   18.2500  -28.5750 C   0  0  0  0  0  0  0  0  0  0  0  0
   -0.7060   21.2410  -30.2140 C   0  0  0  0  0  0  0  0  0  0  0  0
   -1.6530   22.1130  -30.6410 N   0  0  0  0  0  0  0  0  0  0  0  0
   -5.0630   22.9680  -30.7440 C   0  0  0  0  0  0  0  0  0  0  0  0
   -5.7630   21.7860  -30.8620 C   0  0  0  0  0  0  0  0  0  0  0  0
   -6.8724   18.3300  -30.7107 H   0  0  0  0  0  0  0  0  0  0  0  0
   -7.4027   17.4073  -32.1578 H   0  0  0  0  0  0  0  0  0  0  0  0
   -5.8118   18.2414  -32.1578 H   0  0  0  0  0  0  0  0  0  0  0  0
   -8.5196   19.3315  -32.7549 H   0  0  0  0  0  0  0  0  0  0  0  0
   -5.7089   20.5354  -33.0356 H   0  0  0  0  0  0  0  0  0  0  0  0
   -6.2722   19.2054  -34.1036 H   0  0  0  0  0  0  0  0  0  0  0  0
   -7.1319   20.7826  -34.1036 H   0  0  0  0  0  0  0  0  0  0  0  0
   -8.7056   22.9659  -31.9417 H   0  0  0  0  0  0  0  0  0  0  0  0
   -7.5096   25.1073  -31.7494 H   0  0  0  0  0  0  0  0  0  0  0  0
   -4.9960   26.1910  -31.0270 H   0  0  0  0  0  0  0  0  0  0  0  0
   -3.7737   21.9534  -28.0846 H   0  0  0  0  0  0  0  0  0  0  0  0
   -2.0662   20.3585  -27.2761 H   0  0  0  0  0  0  0  0  0  0  0  0
    1.7633   20.9596  -28.8567 H   0  0  0  0  0  0  0  0  0  0  0  0
    1.2176   20.6585  -27.1143 H   0  0  0  0  0  0  0  0  0  0  0  0
    3.1073   19.2004  -28.8234 H   0  0  0  0  0  0  0  0  0  0  0  0
    3.1200   19.6802  -27.0444 H   0  0  0  0  0  0  0  0  0  0  0  0
   -0.0652   15.5132  -27.4057 H   0  0  0  0  0  0  0  0  0  0  0  0
    4.0678   16.9742  -25.1506 H   0  0  0  0  0  0  0  0  0  0  0  0
    4.6778   16.0841  -26.5867 H   0  0  0  0  0  0  0  0  0  0  0  0
    4.6538   17.8803  -26.5867 H   0  0  0  0  0  0  0  0  0  0  0  0
   -0.1269   17.9019  -29.6184 H   0  0  0  0  0  0  0  0  0  0  0  0
   -1.0909   18.0959  -28.0955 H   0  0  0  0  0  0  0  0  0  0  0  0
    0.1719   21.0517  -30.8491 H   0  0  0  0  0  0  0  0  0  0  0  0
   -5.2591   20.8421  -30.6070 H   0  0  0  0  0  0  0  0  0  0  0  0
  1  2  1  0
  2  3  1  0
  2  4  1  0
  4  5  1  0
  5  6  2  0
  6  7  1  0
  7  8  2  0
  8  9  1  0
  9 10  1  0
 10 11  2  0
 11 12  1  0
 12 13  2  0
 13 14  1  0
 14 15  2  0
 15 16  1  0
 16 17  1  0
 17 18  1  0
 18 19  1  0
 19 20  2  0
 20 21  1  0
 21 22  2  0
 22 23  1  0
 23 24  1  0
 20 25  1  0
 15 26  1  0
 26 27  2  0
 11 28  1  0
 28 29  2  0
 29  5  1  0
 28  8  1  0
 27 12  1  0
 25 16  1  0
 23 19  1  0
  1 30  1  0
  1 31  1  0
  1 32  1  0
  2 33  1  0
  3 34  1  0
  3 35  1  0
  3 36  1  0
  6 37  1  0
  7 38  1  0
  9 39  1  0
 13 40  1  0
 14 41  1  0
 17 42  1  0
 17 43  1  0
 18 44  1  0
 18 45  1  0
 21 46  1  0
 24 47  1  0
 24 48  1  0
 24 49  1  0
 25 50  1  0
 25 51  1  0
 26 52  1  0
 29 53  1  0
M  END
>  <smiles>  (48) 
CC(C)Oc1ccc2[nH]nc(-c3ccc(N4CCc5c(cnn5C)C4)cn3)c2c1

>  <score_type>  (48) 
oracle

>  <origin>  (48) 
adg

>  <m_score__min__energy>  (48) 
-8.4000000000000004

>  <m_primary>  (48) 
energy

$$$$
