0:0
     RDKit          3D

 55 57  0  0  0  0  0  0  0  0999 V2000
   -6.6310   24.9520  -29.9910 C   0  0  0  0  0  0  0  0  0  0  0  0
   -5.2650   25.4300  -30.4880 C   0  0  0  0  0  0  0  0  0  0  0  0
   -4.1990   24.4030  -30.4260 N   0  0  0  0  0  0  0  0  0  0  0  0
   -3.2350   24.5560  -29.3100 C   0  0  0  0  0  0  0  0  0  0  0  0
   -3.7790   24.1410  -27.9320 C   0  0  0  0  0  0  0  0  0  0  0  0
   -4.6340   23.0220  -30.7270 C   0  0  0  0  0  0  0  0  0  0  0  0
   -3.7960   22.4200  -31.8590 C   0  0  0  0  0  0  0  0  0  0  0  0
   -4.6390   22.0680  -33.0020 N   0  0  0  0  0  0  0  0  0  0  0  0
   -5.0920   20.7160  -33.1730 C   0  0  0  0  0  0  0  0  0  0  0  0
   -4.2100   19.7560  -33.6840 C   0  0  0  0  0  0  0  0  0  0  0  0
   -4.6380   18.4130  -33.8580 C   0  0  0  0  0  0  0  0  0  0  0  0
   -5.9470   18.0750  -33.5450 N   0  0  0  0  0  0  0  0  0  0  0  0
   -6.4770   16.7310  -33.8790 C   0  0  0  0  0  0  0  0  0  0  0  0
   -6.7770   18.9830  -32.9080 C   0  0  0  0  0  0  0  0  0  0  0  0
   -8.0430   18.6060  -32.3840 C   0  0  0  0  0  0  0  0  0  0  0  0
   -8.8970   19.5500  -31.8140 C   0  0  0  0  0  0  0  0  0  0  0  0
   -8.5190   20.8850  -31.7470 C   0  0  0  0  0  0  0  0  0  0  0  0
   -7.2690   21.2780  -32.2170 C   0  0  0  0  0  0  0  0  0  0  0  0
   -6.3750   20.3340  -32.7640 C   0  0  0  0  0  0  0  0  0  0  0  0
   -3.7030   17.3420  -34.4530 C   0  0  0  0  0  0  0  0  0  0  0  0
   -2.3140   17.1060  -33.8350 C   0  0  0  0  0  0  0  0  0  0  0  0
   -1.3310   18.2440  -34.1250 C   0  0  0  0  0  0  0  0  0  0  0  0
   -1.7220   19.5200  -33.3760 C   0  0  0  0  0  0  0  0  0  0  0  0
   -2.8750   20.1660  -33.9940 N   0  0  0  0  0  0  0  0  0  0  0  0
   -6.6404   24.9487  -28.8910 H   0  0  0  0  0  0  0  0  0  0  0  0
   -7.4139   25.6296  -30.3623 H   0  0  0  0  0  0  0  0  0  0  0  0
   -6.8207   23.9341  -30.3623 H   0  0  0  0  0  0  0  0  0  0  0  0
   -5.3726   25.7518  -31.5344 H   0  0  0  0  0  0  0  0  0  0  0  0
   -4.9548   26.2461  -29.8189 H   0  0  0  0  0  0  0  0  0  0  0  0
   -2.3530   23.9370  -29.5312 H   0  0  0  0  0  0  0  0  0  0  0  0
   -3.0033   25.6292  -29.2433 H   0  0  0  0  0  0  0  0  0  0  0  0
   -3.1701   24.6055  -27.1424 H   0  0  0  0  0  0  0  0  0  0  0  0
   -4.8227   24.4745  -27.8342 H   0  0  0  0  0  0  0  0  0  0  0  0
   -3.7332   23.0463  -27.8342 H   0  0  0  0  0  0  0  0  0  0  0  0
   -4.5184   22.4032  -29.8249 H   0  0  0  0  0  0  0  0  0  0  0  0
   -5.6872   23.0462  -31.0437 H   0  0  0  0  0  0  0  0  0  0  0  0
   -3.0429   23.1548  -32.1796 H   0  0  0  0  0  0  0  0  0  0  0  0
   -3.3079   21.5068  -31.4877 H   0  0  0  0  0  0  0  0  0  0  0  0
   -4.5610   22.6560  -33.8620 H   0  0  0  0  0  0  0  0  0  0  0  0
   -6.6938   16.1814  -32.9512 H   0  0  0  0  0  0  0  0  0  0  0  0
   -7.4007   16.8368  -34.4668 H   0  0  0  0  0  0  0  0  0  0  0  0
   -5.7297   16.1778  -34.4668 H   0  0  0  0  0  0  0  0  0  0  0  0
   -8.3547   17.5520  -32.4287 H   0  0  0  0  0  0  0  0  0  0  0  0
   -9.8733   19.2362  -31.4161 H   0  0  0  0  0  0  0  0  0  0  0  0
   -9.2070   21.6312  -31.3228 H   0  0  0  0  0  0  0  0  0  0  0  0
   -6.9752   22.3366  -32.1612 H   0  0  0  0  0  0  0  0  0  0  0  0
   -4.2417   16.3844  -34.3990 H   0  0  0  0  0  0  0  0  0  0  0  0
   -3.4715   17.7355  -35.4538 H   0  0  0  0  0  0  0  0  0  0  0  0
   -2.4268   17.0089  -32.7451 H   0  0  0  0  0  0  0  0  0  0  0  0
   -1.9027   16.1915  -34.2873 H   0  0  0  0  0  0  0  0  0  0  0  0
   -0.3234   17.9368  -33.8081 H   0  0  0  0  0  0  0  0  0  0  0  0
   -1.3518   18.4545  -35.2045 H   0  0  0  0  0  0  0  0  0  0  0  0
   -1.9704   19.2629  -32.3357 H   0  0  0  0  0  0  0  0  0  0  0  0
   -0.8725   20.2178  -33.4125 H   0  0  0  0  0  0  0  0  0  0  0  0
   -2.7260   21.0410  -34.5440 H   0  0  0  0  0  0  0  0  0  0  0  0
  1  2  1  0
  2  3  1  0
  3  4  1  0
  4  5  1  0
  3  6  1  0
  6  7  1  0
  7  8  1  0
  8  9  1  0
  9 10  2  0
 10 11  1  0
 11 12  2  0
 12 13  1  0
 12 14  1  0
 14 15  2  0
 15 16  1  0
 16 17  2  0
 17 18  1  0
 18 19  2  0
 11 20  1  0
 20 21  1  0
 21 22  1  0
 22 23  1  0
 23 24  1  0
 19  9  1  0
 24 10  1  0
 19 14  1  0
  1 25  1  0
  1 26  1  0
  1 27  1  0
  2 28  1  0
  2 29  1  0
  4 30  1  0
  4 31  1  0
  5 32  1  0
  5 33  1  0
  5 34  1  0
  6 35  1  0
  6 36  1  0
  7 37  1  0
  7 38  1  0
  8 39  1  0
 13 40  1  0
 13 41  1  0
 13 42  1  0
 15 43  1  0
 16 44  1  0
 17 45  1  0
 18 46  1  0
 20 47  1  0
 20 48  1  0
 21 49  1  0
 21 50  1  0
 22 51  1  0
 22 52  1  0
 23 53  1  0
 23 54  1  0
 24 55  1  0
M  CHG  1  12   1
M  END
>  <UniqueID>  (1) 
1

>  <SMILES>  (1) 
CCN(CC)CCNc1c2c([n+](C)c3ccccc13)CCCCN2

>  <Energy>  (1) 
93.02709327196035

>  <Genealogy>  (1) 
CCN(CC)CCNc1c2c([n+](C)c3ccccc13)CCCCN2 (3D coordinates assigned)
CCN(CC)CCNc1c2c([n+](C)c3ccccc13)CCCCN2 (nonaromatic ring conformer: 93.02709327196035 kcal/mol)

>  <smiles>  (1) 
CCN(CC)CCNc1c2c([n+](C)c3ccccc13)CCCCN2

>  <score_type>  (1) 
oracle

>  <origin>  (1) 
adg

>  <m_score__min__energy>  (1) 
-6.8600000000000003

>  <m_primary>  (1) 
energy

$$$$
1:0
     RDKit          3D

 42 44  0  0  0  0  0  0  0  0999 V2000
   -9.4790   19.3270  -32.6970 C   0  0  0  0  0  0  0  0  0  0  0  0
   -8.2530   20.1070  -32.3240 C   0  0  0  0  0  0  0  0  0  0  0  0
   -6.9460   19.6590  -32.3600 C   0  0  0  0  0  0  0  0  0  0  0  0
   -6.4790   18.2630  -32.6530 C   0  0  0  0  0  0  0  0  0  0  0  0
   -6.3530   18.0420  -34.1010 N   0  0  0  0  0  0  0  0  0  0  0  0
   -5.0010   18.3460  -34.6030 C   0  0  0  0  0  0  0  0  0  0  0  0
   -3.9690   18.0950  -33.5020 C   0  0  0  0  0  0  0  0  0  0  0  0
   -3.2230   19.3180  -33.2170 N   0  0  0  0  0  0  0  0  0  0  0  0
   -3.6310   20.5770  -33.4610 C   0  0  0  0  0  0  0  0  0  0  0  0
   -2.6880   21.4690  -32.9930 C   0  0  0  0  0  0  0  0  0  0  0  0
   -1.6750   20.7160  -32.4320 C   0  0  0  0  0  0  0  0  0  0  0  0
   -2.0380   19.3930  -32.5810 C   0  0  0  0  0  0  0  0  0  0  0  0
   -6.1200   20.6410  -31.9520 N   0  0  0  0  0  0  0  0  0  0  0  0
   -6.9390   21.6850  -31.6900 C   0  0  0  0  0  0  0  0  0  0  0  0
   -6.4260   22.9650  -31.1630 C   0  0  0  0  0  0  0  0  0  0  0  0
   -5.1400   23.4040  -31.5000 C   0  0  0  0  0  0  0  0  0  0  0  0
   -4.6580   24.5640  -30.9840 N   0  0  0  0  0  0  0  0  0  0  0  0
   -5.4010   25.3070  -30.1240 C   0  0  0  0  0  0  0  0  0  0  0  0
   -6.6400   24.8890  -29.7600 N   0  0  0  0  0  0  0  0  0  0  0  0
   -7.1630   23.7380  -30.2550 C   0  0  0  0  0  0  0  0  0  0  0  0
   -8.2420   21.3980  -31.9360 N   0  0  0  0  0  0  0  0  0  0  0  0
   -9.4010   22.2840  -31.8160 C   0  0  0  0  0  0  0  0  0  0  0  0
   -9.9962   18.9979  -31.7836 H   0  0  0  0  0  0  0  0  0  0  0  0
  -10.1520   19.9633  -33.2904 H   0  0  0  0  0  0  0  0  0  0  0  0
   -9.1878   18.4478  -33.2904 H   0  0  0  0  0  0  0  0  0  0  0  0
   -5.4994   18.1045  -32.1784 H   0  0  0  0  0  0  0  0  0  0  0  0
   -7.2200   17.5548  -32.2538 H   0  0  0  0  0  0  0  0  0  0  0  0
   -7.0300   18.6880  -34.5720 H   0  0  0  0  0  0  0  0  0  0  0  0
   -4.7785   17.7008  -35.4657 H   0  0  0  0  0  0  0  0  0  0  0  0
   -4.9564   19.4020  -34.9077 H   0  0  0  0  0  0  0  0  0  0  0  0
   -4.4858   17.7643  -32.5890 H   0  0  0  0  0  0  0  0  0  0  0  0
   -3.2670   17.3187  -33.8403 H   0  0  0  0  0  0  0  0  0  0  0  0
   -4.5728   20.8529  -33.9579 H   0  0  0  0  0  0  0  0  0  0  0  0
   -2.7340   22.5663  -33.0547 H   0  0  0  0  0  0  0  0  0  0  0  0
   -0.7579   21.0967  -31.9588 H   0  0  0  0  0  0  0  0  0  0  0  0
   -1.4494   18.5312  -32.2334 H   0  0  0  0  0  0  0  0  0  0  0  0
   -4.5185   22.8079  -32.1844 H   0  0  0  0  0  0  0  0  0  0  0  0
   -4.9985   26.2485  -29.7220 H   0  0  0  0  0  0  0  0  0  0  0  0
   -8.1661   23.4117  -29.9432 H   0  0  0  0  0  0  0  0  0  0  0  0
   -9.6238   22.4543  -30.7523 H   0  0  0  0  0  0  0  0  0  0  0  0
   -9.1796   23.2453  -32.3027 H   0  0  0  0  0  0  0  0  0  0  0  0
  -10.2706   21.8182  -32.3027 H   0  0  0  0  0  0  0  0  0  0  0  0
  1  2  1  0
  2  3  2  0
  3  4  1  0
  4  5  1  0
  5  6  1  0
  6  7  1  0
  7  8  1  0
  8  9  1  0
  9 10  2  0
 10 11  1  0
 11 12  2  0
  3 13  1  0
 13 14  2  0
 14 15  1  0
 15 16  2  0
 16 17  1  0
 17 18  2  0
 18 19  1  0
 19 20  2  0
 14 21  1  0
 21 22  1  0
 21  2  1  0
 12  8  1  0
 20 15  1  0
  1 23  1  0
  1 24  1  0
  1 25  1  0
  4 26  1  0
  4 27  1  0
  5 28  1  0
  6 29  1  0
  6 30  1  0
  7 31  1  0
  7 32  1  0
  9 33  1  0
 10 34  1  0
 11 35  1  0
 12 36  1  0
 16 37  1  0
 18 38  1  0
 20 39  1  0
 22 40  1  0
 22 41  1  0
 22 42  1  0
M  END
>  <UniqueID>  (2) 
2

>  <SMILES>  (2) 
Cc1c(CNCCn2cccc2)nc(-c2cncnc2)n1C

>  <Energy>  (2) 
99.47175680211612

>  <Genealogy>  (2) 
Cc1c(CNCCn2cccc2)nc(-c2cncnc2)n1C (3D coordinates assigned)
Cc1c(CNCCn2cccc2)nc(-c2cncnc2)n1C (optimized conformer: 99.47175680211612 kcal/mol)

>  <smiles>  (2) 
Cc1c(CNCCn2cccc2)nc(-c2cncnc2)n1C

>  <score_type>  (2) 
oracle

>  <origin>  (2) 
adg

>  <m_score__min__energy>  (2) 
-7.0599999999999996

>  <m_primary>  (2) 
energy

$$$$
2:0
     RDKit          3D

 57 59  0  0  0  0  0  0  0  0999 V2000
   -5.8570   25.3030  -30.8490 C   0  0  0  0  0  0  0  0  0  0  0  0
   -6.1610   24.9500  -29.3910 C   0  0  0  0  0  0  0  0  0  0  0  0
   -4.9520   24.8920  -28.5490 N   0  0  0  0  0  0  0  0  0  0  0  0
   -4.5860   23.5410  -28.0760 C   0  0  0  0  0  0  0  0  0  0  0  0
   -3.6530   22.7770  -29.0300 C   0  0  0  0  0  0  0  0  0  0  0  0
   -3.4930   23.4890  -30.2410 O   0  0  0  0  0  0  0  0  0  0  0  0
   -2.9150   22.6780  -31.2400 C   0  0  0  0  0  0  0  0  0  0  0  0
   -3.7570   21.4080  -31.4070 C   0  0  0  0  0  0  0  0  0  0  0  0
   -4.5760   21.4470  -32.6240 N   0  0  0  0  0  0  0  0  0  0  0  0
   -5.7850   20.6800  -32.7470 C   0  0  0  0  0  0  0  0  0  0  0  0
   -7.0110   21.2840  -32.4250 C   0  0  0  0  0  0  0  0  0  0  0  0
   -7.1180   22.6870  -32.3180 C   0  0  0  0  0  0  0  0  0  0  0  0
   -8.3430   23.2880  -32.0340 C   0  0  0  0  0  0  0  0  0  0  0  0
   -9.4790   22.5050  -31.8670 C   0  0  0  0  0  0  0  0  0  0  0  0
   -9.3930   21.1160  -31.9590 C   0  0  0  0  0  0  0  0  0  0  0  0
   -8.1520   20.4740  -32.2060 C   0  0  0  0  0  0  0  0  0  0  0  0
   -8.0330   19.1010  -32.2280 N   0  0  0  0  0  0  0  0  0  0  0  0
   -9.1070   18.2580  -31.6540 C   0  0  0  0  0  0  0  0  0  0  0  0
   -6.9010   18.5120  -32.7640 C   0  0  0  0  0  0  0  0  0  0  0  0
   -6.8660   17.1230  -33.0380 C   0  0  0  0  0  0  0  0  0  0  0  0
   -5.7140   16.5030  -33.5200 C   0  0  0  0  0  0  0  0  0  0  0  0
   -5.7090   15.0300  -33.8130 C   0  0  0  0  0  0  0  0  0  0  0  0
   -4.6010   17.2740  -33.8330 C   0  0  0  0  0  0  0  0  0  0  0  0
   -4.6060   18.6640  -33.6530 C   0  0  0  0  0  0  0  0  0  0  0  0
   -3.4200   19.4220  -34.2030 C   0  0  0  0  0  0  0  0  0  0  0  0
   -5.7460   19.2980  -33.0610 C   0  0  0  0  0  0  0  0  0  0  0  0
   -5.1395   26.1361  -30.8826 H   0  0  0  0  0  0  0  0  0  0  0  0
   -5.4259   24.4272  -31.3561 H   0  0  0  0  0  0  0  0  0  0  0  0
   -6.7871   25.5994  -31.3561 H   0  0  0  0  0  0  0  0  0  0  0  0
   -6.8387   25.7125  -28.9795 H   0  0  0  0  0  0  0  0  0  0  0  0
   -6.6166   23.9488  -29.3826 H   0  0  0  0  0  0  0  0  0  0  0  0
   -5.0910   25.5090  -27.7140 H   0  0  0  0  0  0  0  0  0  0  0  0
   -4.1510   25.2920  -29.0930 H   0  0  0  0  0  0  0  0  0  0  0  0
   -4.0813   23.6397  -27.1036 H   0  0  0  0  0  0  0  0  0  0  0  0
   -5.5192   22.9622  -28.0114 H   0  0  0  0  0  0  0  0  0  0  0  0
   -2.6705   22.6508  -28.5517 H   0  0  0  0  0  0  0  0  0  0  0  0
   -4.0962   21.7947  -29.2505 H   0  0  0  0  0  0  0  0  0  0  0  0
   -2.8878   23.2293  -32.1915 H   0  0  0  0  0  0  0  0  0  0  0  0
   -1.8897   22.4063  -30.9484 H   0  0  0  0  0  0  0  0  0  0  0  0
   -3.0835   20.5399  -31.4599 H   0  0  0  0  0  0  0  0  0  0  0  0
   -4.4348   21.3340  -30.5438 H   0  0  0  0  0  0  0  0  0  0  0  0
   -4.4300   22.2450  -33.2820 H   0  0  0  0  0  0  0  0  0  0  0  0
   -6.2249   23.3131  -32.4603 H   0  0  0  0  0  0  0  0  0  0  0  0
   -8.4107   24.3821  -31.9420 H   0  0  0  0  0  0  0  0  0  0  0  0
  -10.4487   22.9821  -31.6617 H   0  0  0  0  0  0  0  0  0  0  0  0
  -10.3020   20.5084  -31.8381 H   0  0  0  0  0  0  0  0  0  0  0  0
   -9.0567   18.2975  -30.5559 H   0  0  0  0  0  0  0  0  0  0  0  0
  -10.0855   18.6317  -31.9899 H   0  0  0  0  0  0  0  0  0  0  0  0
   -8.9764   17.2187  -31.9899 H   0  0  0  0  0  0  0  0  0  0  0  0
   -7.7692   16.5189  -32.8665 H   0  0  0  0  0  0  0  0  0  0  0  0
   -5.7071   14.4681  -32.8674 H   0  0  0  0  0  0  0  0  0  0  0  0
   -6.6063   14.7685  -34.3931 H   0  0  0  0  0  0  0  0  0  0  0  0
   -4.8100   14.7746  -34.3931 H   0  0  0  0  0  0  0  0  0  0  0  0
   -3.6993   16.7843  -34.2294 H   0  0  0  0  0  0  0  0  0  0  0  0
   -2.8142   19.8092  -33.3705 H   0  0  0  0  0  0  0  0  0  0  0  0
   -2.8076   18.7475  -34.8194 H   0  0  0  0  0  0  0  0  0  0  0  0
   -3.7749   20.2611  -34.8194 H   0  0  0  0  0  0  0  0  0  0  0  0
  1  2  1  0
  2  3  1  0
  3  4  1  0
  4  5  1  0
  5  6  1  0
  6  7  1  0
  7  8  1  0
  8  9  1  0
  9 10  1  0
 10 11  2  0
 11 12  1  0
 12 13  2  0
 13 14  1  0
 14 15  2  0
 15 16  1  0
 16 17  2  0
 17 18  1  0
 17 19  1  0
 19 20  2  0
 20 21  1  0
 21 22  1  0
 21 23  2  0
 23 24  1  0
 24 25  1  0
 24 26  2  0
 26 10  1  0
 16 11  1  0
 26 19  1  0
  1 27  1  0
  1 28  1  0
  1 29  1  0
  2 30  1  0
  2 31  1  0
  3 32  1  0
  3 33  1  0
  4 34  1  0
  4 35  1  0
  5 36  1  0
  5 37  1  0
  7 38  1  0
  7 39  1  0
  8 40  1  0
  8 41  1  0
  9 42  1  0
 12 43  1  0
 13 44  1  0
 14 45  1  0
 15 46  1  0
 18 47  1  0
 18 48  1  0
 18 49  1  0
 20 50  1  0
 22 51  1  0
 22 52  1  0
 22 53  1  0
 23 54  1  0
 25 55  1  0
 25 56  1  0
 25 57  1  0
M  CHG  2   3   1  17   1
M  END
>  <UniqueID>  (3) 
3

>  <SMILES>  (3) 
CC[NH2+]CCOCCNc1c2ccccc2[n+](C)c2cc(C)cc(C)c12

>  <Energy>  (3) 
87.77854803124225

>  <Genealogy>  (3) 
CC[NH2+]CCOCCNc1c2ccccc2[n+](C)c2cc(C)cc(C)c12 (protonated)
CC[NH2+]CCOCCNc1c2ccccc2[n+](C)c2cc(C)cc(C)c12 (3D coordinates assigned)
CC[NH2+]CCOCCNc1c2ccccc2[n+](C)c2cc(C)cc(C)c12 (optimized conformer: 87.77854803124225 kcal/mol)

>  <smiles>  (3) 
CCNCCOCCNc1c2ccccc2[n+](C)c2cc(C)cc(C)c12

>  <score_type>  (3) 
oracle

>  <origin>  (3) 
adg

>  <m_score__min__energy>  (3) 
-7.9100000000000001

>  <m_primary>  (3) 
energy

$$$$
3:0
     RDKit          3D

 78 80  0  0  0  0  0  0  0  0999 V2000
   -9.0390   22.5730  -31.6390 C   0  0  0  0  0  0  0  0  0  0  0  0
   -7.8610   23.3540  -32.2210 C   0  0  0  0  0  0  0  0  0  0  0  0
   -6.7640   23.5660  -31.1890 C   0  0  0  0  0  0  0  0  0  0  0  0
   -6.8570   24.7240  -30.4030 C   0  0  0  0  0  0  0  0  0  0  0  0
   -5.7660   25.1820  -29.6730 C   0  0  0  0  0  0  0  0  0  0  0  0
   -4.5450   24.5260  -29.7500 C   0  0  0  0  0  0  0  0  0  0  0  0
   -4.4130   23.3440  -30.5020 C   0  0  0  0  0  0  0  0  0  0  0  0
   -3.1530   22.7350  -30.6810 C   0  0  0  0  0  0  0  0  0  0  0  0
   -1.9810   23.2880  -30.0530 N   0  0  0  0  0  0  0  0  0  0  0  0
   -1.2250   22.5590  -29.0320 C   0  0  0  0  0  0  0  0  0  0  0  0
   -2.1090   22.2370  -27.8170 C   0  0  0  0  0  0  0  0  0  0  0  0
   -1.3890   21.3670  -26.7620 C   0  0  0  0  0  0  0  0  0  0  0  0
   -1.6060   19.9050  -26.9550 N   0  0  0  0  0  0  0  0  0  0  0  0
   -3.0550   19.5800  -27.0530 C   0  0  0  0  0  0  0  0  0  0  0  0
   -3.5010   18.5550  -26.0020 C   0  0  0  0  0  0  0  0  0  0  0  0
   -0.8520   19.3450  -28.1140 C   0  0  0  0  0  0  0  0  0  0  0  0
   -0.0510   18.0660  -27.8100 C   0  0  0  0  0  0  0  0  0  0  0  0
   -3.0300   21.6670  -31.5890 C   0  0  0  0  0  0  0  0  0  0  0  0
   -1.7720   21.1340  -31.9340 C   0  0  0  0  0  0  0  0  0  0  0  0
   -1.6690   20.0920  -32.8550 C   0  0  0  0  0  0  0  0  0  0  0  0
   -2.8150   19.5700  -33.4660 C   0  0  0  0  0  0  0  0  0  0  0  0
   -2.7560   18.5770  -34.4540 O   0  0  0  0  0  0  0  0  0  0  0  0
   -2.8000   17.1770  -34.2010 C   0  0  0  0  0  0  0  0  0  0  0  0
   -4.0730   16.5840  -34.8390 C   0  0  0  0  0  0  0  0  0  0  0  0
   -5.3250   16.7670  -34.0420 N   0  0  0  0  0  0  0  0  0  0  0  0
   -6.1590   15.5540  -34.2110 C   0  0  0  0  0  0  0  0  0  0  0  0
   -5.0310   16.9360  -32.5990 C   0  0  0  0  0  0  0  0  0  0  0  0
   -6.1060   17.9310  -34.5290 C   0  0  0  0  0  0  0  0  0  0  0  0
   -4.0690   20.0630  -33.0960 C   0  0  0  0  0  0  0  0  0  0  0  0
   -4.2000   21.0970  -32.1430 C   0  0  0  0  0  0  0  0  0  0  0  0
   -5.4380   21.5540  -31.7560 N   0  0  0  0  0  0  0  0  0  0  0  0
   -6.5770   20.6180  -31.7740 C   0  0  0  0  0  0  0  0  0  0  0  0
   -5.5570   22.7880  -31.1480 C   0  0  0  0  0  0  0  0  0  0  0  0
   -8.9925   22.6039  -30.5404 H   0  0  0  0  0  0  0  0  0  0  0  0
   -9.9824   23.0251  -31.9789 H   0  0  0  0  0  0  0  0  0  0  0  0
   -8.9899   21.5280  -31.9789 H   0  0  0  0  0  0  0  0  0  0  0  0
   -7.4468   22.7934  -33.0720 H   0  0  0  0  0  0  0  0  0  0  0  0
   -8.2273   24.3407  -32.5408 H   0  0  0  0  0  0  0  0  0  0  0  0
   -7.8067   25.2777  -30.3636 H   0  0  0  0  0  0  0  0  0  0  0  0
   -5.8709   26.0690  -29.0309 H   0  0  0  0  0  0  0  0  0  0  0  0
   -3.6727   24.9339  -29.2183 H   0  0  0  0  0  0  0  0  0  0  0  0
   -1.5810   24.1780  -30.4240 H   0  0  0  0  0  0  0  0  0  0  0  0
   -0.8511   21.6190  -29.4640 H   0  0  0  0  0  0  0  0  0  0  0  0
   -0.3878   23.1899  -28.6988 H   0  0  0  0  0  0  0  0  0  0  0  0
   -2.4129   23.1824  -27.3439 H   0  0  0  0  0  0  0  0  0  0  0  0
   -2.9746   21.6643  -28.1815 H   0  0  0  0  0  0  0  0  0  0  0  0
   -0.3095   21.5703  -26.8198 H   0  0  0  0  0  0  0  0  0  0  0  0
   -1.8089   21.6316  -25.7803 H   0  0  0  0  0  0  0  0  0  0  0  0
   -1.2350   19.4040  -26.1180 H   0  0  0  0  0  0  0  0  0  0  0  0
   -3.6340   20.5045  -26.9116 H   0  0  0  0  0  0  0  0  0  0  0  0
   -3.2317   19.1390  -28.0451 H   0  0  0  0  0  0  0  0  0  0  0  0
   -3.3241   18.9615  -24.9953 H   0  0  0  0  0  0  0  0  0  0  0  0
   -4.5729   18.3427  -26.1286 H   0  0  0  0  0  0  0  0  0  0  0  0
   -2.9257   17.6260  -26.1286 H   0  0  0  0  0  0  0  0  0  0  0  0
   -1.5735   19.1147  -28.9117 H   0  0  0  0  0  0  0  0  0  0  0  0
   -0.1148   20.1095  -28.4006 H   0  0  0  0  0  0  0  0  0  0  0  0
    0.0311   17.9349  -26.7209 H   0  0  0  0  0  0  0  0  0  0  0  0
   -0.5671   17.1979  -28.2459 H   0  0  0  0  0  0  0  0  0  0  0  0
    0.9553   18.1513  -28.2459 H   0  0  0  0  0  0  0  0  0  0  0  0
   -0.8618   21.5441  -31.4720 H   0  0  0  0  0  0  0  0  0  0  0  0
   -0.6807   19.6776  -33.1029 H   0  0  0  0  0  0  0  0  0  0  0  0
   -1.9120   16.6965  -34.6376 H   0  0  0  0  0  0  0  0  0  0  0  0
   -2.8141   16.9987  -33.1156 H   0  0  0  0  0  0  0  0  0  0  0  0
   -4.2189   17.0637  -35.8181 H   0  0  0  0  0  0  0  0  0  0  0  0
   -3.9066   15.4986  -34.9040 H   0  0  0  0  0  0  0  0  0  0  0  0
   -6.4324   15.1564  -33.2225 H   0  0  0  0  0  0  0  0  0  0  0  0
   -7.0720   15.8114  -34.7680 H   0  0  0  0  0  0  0  0  0  0  0  0
   -5.5918   14.7937  -34.7680 H   0  0  0  0  0  0  0  0  0  0  0  0
   -5.8336   16.4747  -32.0048 H   0  0  0  0  0  0  0  0  0  0  0  0
   -4.0730   16.4507  -32.3607 H   0  0  0  0  0  0  0  0  0  0  0  0
   -4.9682   18.0080  -32.3607 H   0  0  0  0  0  0  0  0  0  0  0  0
   -6.4886   18.5012  -33.6697 H   0  0  0  0  0  0  0  0  0  0  0  0
   -5.4583   18.5777  -35.1392 H   0  0  0  0  0  0  0  0  0  0  0  0
   -6.9500   17.5769  -35.1392 H   0  0  0  0  0  0  0  0  0  0  0  0
   -4.9726   19.6370  -33.5564 H   0  0  0  0  0  0  0  0  0  0  0  0
   -6.8700   20.3772  -30.7415 H   0  0  0  0  0  0  0  0  0  0  0  0
   -7.4256   21.0831  -32.2970 H   0  0  0  0  0  0  0  0  0  0  0  0
   -6.2851   19.6953  -32.2970 H   0  0  0  0  0  0  0  0  0  0  0  0
  1  2  1  0
  2  3  1  0
  3  4  2  0
  4  5  1  0
  5  6  2  0
  6  7  1  0
  7  8  2  0
  8  9  1  0
  9 10  1  0
 10 11  1  0
 11 12  1  0
 12 13  1  0
 13 14  1  0
 14 15  1  0
 13 16  1  0
 16 17  1  0
  8 18  1  0
 18 19  2  0
 19 20  1  0
 20 21  2  0
 21 22  1  0
 22 23  1  0
 23 24  1  0
 24 25  1  0
 25 26  1  0
 25 27  1  0
 25 28  1  0
 21 29  1  0
 29 30  2  0
 30 31  1  0
 31 32  1  0
 31 33  2  0
 33  3  1  0
 33  7  1  0
 30 18  1  0
  1 34  1  0
  1 35  1  0
  1 36  1  0
  2 37  1  0
  2 38  1  0
  4 39  1  0
  5 40  1  0
  6 41  1  0
  9 42  1  0
 10 43  1  0
 10 44  1  0
 11 45  1  0
 11 46  1  0
 12 47  1  0
 12 48  1  0
 13 49  1  0
 14 50  1  0
 14 51  1  0
 15 52  1  0
 15 53  1  0
 15 54  1  0
 16 55  1  0
 16 56  1  0
 17 57  1  0
 17 58  1  0
 17 59  1  0
 19 60  1  0
 20 61  1  0
 23 62  1  0
 23 63  1  0
 24 64  1  0
 24 65  1  0
 26 66  1  0
 26 67  1  0
 26 68  1  0
 27 69  1  0
 27 70  1  0
 27 71  1  0
 28 72  1  0
 28 73  1  0
 28 74  1  0
 29 75  1  0
 32 76  1  0
 32 77  1  0
 32 78  1  0
M  CHG  3  13   1  25   1  31   1
M  END
>  <UniqueID>  (4) 
4

>  <SMILES>  (4) 
CCc1cccc2c(NCCC[NH+](CC)CC)c3ccc(OCC[N+](C)(C)C)cc3[n+](C)c12

>  <Energy>  (4) 
121.23610043196574

>  <Genealogy>  (4) 
CCc1cccc2c(NCCC[NH+](CC)CC)c3ccc(OCC[N+](C)(C)C)cc3[n+](C)c12 (protonated)
CCc1cccc2c(NCCC[NH+](CC)CC)c3ccc(OCC[N+](C)(C)C)cc3[n+](C)c12 (3D coordinates assigned)
CCc1cccc2c(NCCC[NH+](CC)CC)c3ccc(OCC[N+](C)(C)C)cc3[n+](C)c12 (optimized conformer: 121.23610043196574 kcal/mol)

>  <smiles>  (4) 
CCc1cccc2c(NCCCN(CC)CC)c3ccc(OCC[N+](C)(C)C)cc3[n+](C)c12

>  <score_type>  (4) 
oracle

>  <origin>  (4) 
adg

>  <m_score__min__energy>  (4) 
-6.4400000000000004

>  <m_primary>  (4) 
energy

$$$$
4:0
     RDKit          3D

 62 64  0  0  0  0  0  0  0  0999 V2000
   -2.7430   20.6460  -27.5410 C   0  0  0  0  0  0  0  0  0  0  0  0
   -2.7370   20.5200  -29.0640 C   0  0  0  0  0  0  0  0  0  0  0  0
   -2.5050   21.8250  -29.7260 N   0  0  0  0  0  0  0  0  0  0  0  0
   -1.8370   22.8300  -28.8590 C   0  0  0  0  0  0  0  0  0  0  0  0
   -2.1620   24.2930  -29.1890 C   0  0  0  0  0  0  0  0  0  0  0  0
   -1.8580   21.6400  -31.0470 C   0  0  0  0  0  0  0  0  0  0  0  0
   -2.8700   21.5410  -32.2020 C   0  0  0  0  0  0  0  0  0  0  0  0
   -4.2370   21.3420  -31.7040 N   0  0  0  0  0  0  0  0  0  0  0  0
   -5.3680   20.7920  -32.4280 C   0  0  0  0  0  0  0  0  0  0  0  0
   -5.3240   19.5320  -33.0630 C   0  0  0  0  0  0  0  0  0  0  0  0
   -4.2220   19.1190  -33.8410 C   0  0  0  0  0  0  0  0  0  0  0  0
   -4.2100   17.8680  -34.4570 C   0  0  0  0  0  0  0  0  0  0  0  0
   -5.3010   17.0170  -34.3320 C   0  0  0  0  0  0  0  0  0  0  0  0
   -6.4270   17.4260  -33.6210 C   0  0  0  0  0  0  0  0  0  0  0  0
   -6.4650   18.6900  -32.9810 C   0  0  0  0  0  0  0  0  0  0  0  0
   -7.5880   19.1250  -32.3100 N   0  0  0  0  0  0  0  0  0  0  0  0
   -8.6330   18.1600  -31.9060 C   0  0  0  0  0  0  0  0  0  0  0  0
   -7.7490   20.4740  -32.0630 C   0  0  0  0  0  0  0  0  0  0  0  0
   -9.0070   21.0170  -31.7130 C   0  0  0  0  0  0  0  0  0  0  0  0
   -9.1610   22.3720  -31.4670 C   0  0  0  0  0  0  0  0  0  0  0  0
   -8.0840   23.2370  -31.6160 C   0  0  0  0  0  0  0  0  0  0  0  0
   -6.8300   22.7610  -32.0360 C   0  0  0  0  0  0  0  0  0  0  0  0
   -5.7310   23.7650  -32.3570 C   0  0  0  0  0  0  0  0  0  0  0  0
   -5.1060   24.3650  -31.1180 C   0  0  0  0  0  0  0  0  0  0  0  0
   -5.6200   24.2610  -29.8720 C   0  0  0  0  0  0  0  0  0  0  0  0
   -5.3590   23.0550  -28.9990 C   0  0  0  0  0  0  0  0  0  0  0  0
   -6.4870   25.3790  -29.3550 C   0  0  0  0  0  0  0  0  0  0  0  0
   -6.6390   21.3530  -32.1810 C   0  0  0  0  0  0  0  0  0  0  0  0
   -2.6953   19.6438  -27.0900 H   0  0  0  0  0  0  0  0  0  0  0  0
   -1.8719   21.2351  -27.2184 H   0  0  0  0  0  0  0  0  0  0  0  0
   -3.6661   21.1497  -27.2184 H   0  0  0  0  0  0  0  0  0  0  0  0
   -1.9381   19.8242  -29.3600 H   0  0  0  0  0  0  0  0  0  0  0  0
   -3.7234   20.1488  -29.3790 H   0  0  0  0  0  0  0  0  0  0  0  0
   -2.1416   22.6394  -27.8193 H   0  0  0  0  0  0  0  0  0  0  0  0
   -0.7566   22.7105  -29.0278 H   0  0  0  0  0  0  0  0  0  0  0  0
   -2.2880   24.8603  -28.2550 H   0  0  0  0  0  0  0  0  0  0  0  0
   -1.3387   24.7285  -29.7743 H   0  0  0  0  0  0  0  0  0  0  0  0
   -3.0922   24.3389  -29.7743 H   0  0  0  0  0  0  0  0  0  0  0  0
   -1.1936   22.4962  -31.2352 H   0  0  0  0  0  0  0  0  0  0  0  0
   -1.3034   20.6907  -31.0124 H   0  0  0  0  0  0  0  0  0  0  0  0
   -2.8351   22.4709  -32.7886 H   0  0  0  0  0  0  0  0  0  0  0  0
   -2.5999   20.6751  -32.8244 H   0  0  0  0  0  0  0  0  0  0  0  0
   -4.4030   21.5470  -30.6910 H   0  0  0  0  0  0  0  0  0  0  0  0
   -3.3610   19.7926  -33.9633 H   0  0  0  0  0  0  0  0  0  0  0  0
   -3.3341   17.5540  -35.0437 H   0  0  0  0  0  0  0  0  0  0  0  0
   -5.2757   16.0194  -34.7948 H   0  0  0  0  0  0  0  0  0  0  0  0
   -7.2989   16.7585  -33.5554 H   0  0  0  0  0  0  0  0  0  0  0  0
   -8.6840   18.1129  -30.8082 H   0  0  0  0  0  0  0  0  0  0  0  0
   -9.6055   18.4844  -32.3046 H   0  0  0  0  0  0  0  0  0  0  0  0
   -8.3869   17.1648  -32.3046 H   0  0  0  0  0  0  0  0  0  0  0  0
   -9.8793   20.3515  -31.6346 H   0  0  0  0  0  0  0  0  0  0  0  0
  -10.1395   22.7642  -31.1526 H   0  0  0  0  0  0  0  0  0  0  0  0
   -8.2144   24.3082  -31.4025 H   0  0  0  0  0  0  0  0  0  0  0  0
   -4.9463   23.2545  -32.9346 H   0  0  0  0  0  0  0  0  0  0  0  0
   -6.1888   24.5862  -32.9280 H   0  0  0  0  0  0  0  0  0  0  0  0
   -4.1672   24.9255  -31.2389 H   0  0  0  0  0  0  0  0  0  0  0  0
   -5.4224   23.3479  -27.9406 H   0  0  0  0  0  0  0  0  0  0  0  0
   -6.1102   22.2798  -29.2105 H   0  0  0  0  0  0  0  0  0  0  0  0
   -4.3545   22.6597  -29.2105 H   0  0  0  0  0  0  0  0  0  0  0  0
   -6.4799   25.3699  -28.2551 H   0  0  0  0  0  0  0  0  0  0  0  0
   -6.0974   26.3422  -29.7162 H   0  0  0  0  0  0  0  0  0  0  0  0
   -7.5169   25.2414  -29.7162 H   0  0  0  0  0  0  0  0  0  0  0  0
  1  2  1  0
  2  3  1  0
  3  4  1  0
  4  5  1  0
  3  6  1  0
  6  7  1  0
  7  8  1  0
  8  9  1  0
  9 10  2  0
 10 11  1  0
 11 12  2  0
 12 13  1  0
 13 14  2  0
 14 15  1  0
 15 16  2  0
 16 17  1  0
 16 18  1  0
 18 19  2  0
 19 20  1  0
 20 21  2  0
 21 22  1  0
 22 23  1  0
 23 24  1  0
 24 25  2  3
 25 26  1  0
 25 27  1  0
 22 28  2  0
 28  9  1  0
 15 10  1  0
 28 18  1  0
  1 29  1  0
  1 30  1  0
  1 31  1  0
  2 32  1  0
  2 33  1  0
  4 34  1  0
  4 35  1  0
  5 36  1  0
  5 37  1  0
  5 38  1  0
  6 39  1  0
  6 40  1  0
  7 41  1  0
  7 42  1  0
  8 43  1  0
 11 44  1  0
 12 45  1  0
 13 46  1  0
 14 47  1  0
 17 48  1  0
 17 49  1  0
 17 50  1  0
 19 51  1  0
 20 52  1  0
 21 53  1  0
 23 54  1  0
 23 55  1  0
 24 56  1  0
 26 57  1  0
 26 58  1  0
 26 59  1  0
 27 60  1  0
 27 61  1  0
 27 62  1  0
M  CHG  1  16   1
M  END
>  <UniqueID>  (5) 
5

>  <SMILES>  (5) 
CCN(CC)CCNc1c2ccccc2[n+](C)c2cccc(CC=C(C)C)c12

>  <Energy>  (5) 
106.60650938062076

>  <Genealogy>  (5) 
CCN(CC)CCNc1c2ccccc2[n+](C)c2cccc(CC=C(C)C)c12 (3D coordinates assigned)
CCN(CC)CCNc1c2ccccc2[n+](C)c2cccc(CC=C(C)C)c12 (optimized conformer: 106.60650938062076 kcal/mol)

>  <smiles>  (5) 
CCN(CC)CCNc1c2ccccc2[n+](C)c2cccc(CC=C(C)C)c12

>  <score_type>  (5) 
oracle

>  <origin>  (5) 
adg

>  <m_score__min__energy>  (5) 
-8.5800000000000001

>  <m_primary>  (5) 
energy

$$$$
5:0
     RDKit          3D

 32 33  0  0  0  0  0  0  0  0999 V2000
   -5.7050   17.9800  -34.6920 C   0  0  0  0  0  0  0  0  0  0  0  0
   -6.1130   19.3260  -34.0830 C   0  0  0  0  0  0  0  0  0  0  0  0
   -6.8970   19.1710  -32.8310 N   0  0  0  0  0  0  0  0  0  0  0  0
   -7.1020   17.7840  -32.3440 C   0  0  0  0  0  0  0  0  0  0  0  0
   -6.1410   17.4210  -31.2090 C   0  0  0  0  0  0  0  0  0  0  0  0
   -7.6170   20.1770  -32.3500 C   0  0  0  0  0  0  0  0  0  0  0  0
   -9.0290   20.0770  -32.2880 C   0  0  0  0  0  0  0  0  0  0  0  0
   -9.8120   21.1870  -31.9880 C   0  0  0  0  0  0  0  0  0  0  0  0
   -9.2380   22.3830  -31.7170 N   0  0  0  0  0  0  0  0  0  0  0  0
   -7.8860   22.5230  -31.6500 C   0  0  0  0  0  0  0  0  0  0  0  0
   -7.3350   23.7570  -31.2640 C   0  0  0  0  0  0  0  0  0  0  0  0
   -5.9630   23.8860  -31.0660 C   0  0  0  0  0  0  0  0  0  0  0  0
   -5.1300   22.7790  -31.2160 C   0  0  0  0  0  0  0  0  0  0  0  0
   -3.4130   22.9240  -30.8830 Cl  0  0  0  0  0  0  0  0  0  0  0  0
   -5.6620   21.5500  -31.6140 C   0  0  0  0  0  0  0  0  0  0  0  0
   -7.0350   21.4140  -31.9190 C   0  0  0  0  0  0  0  0  0  0  0  0
   -5.4879   17.2636  -33.8860 H   0  0  0  0  0  0  0  0  0  0  0  0
   -6.5267   17.5946  -35.3135 H   0  0  0  0  0  0  0  0  0  0  0  0
   -4.8076   18.1157  -35.3135 H   0  0  0  0  0  0  0  0  0  0  0  0
   -5.2030   19.9024  -33.8600 H   0  0  0  0  0  0  0  0  0  0  0  0
   -6.7512   19.8434  -34.8144 H   0  0  0  0  0  0  0  0  0  0  0  0
   -8.1349   17.6861  -31.9785 H   0  0  0  0  0  0  0  0  0  0  0  0
   -6.9073   17.0996  -33.1829 H   0  0  0  0  0  0  0  0  0  0  0  0
   -6.6301   17.6058  -30.2412 H   0  0  0  0  0  0  0  0  0  0  0  0
   -5.8685   16.3580  -31.2851 H   0  0  0  0  0  0  0  0  0  0  0  0
   -5.2338   18.0384  -31.2851 H   0  0  0  0  0  0  0  0  0  0  0  0
   -9.5129   19.1079  -32.4798 H   0  0  0  0  0  0  0  0  0  0  0  0
  -10.9078   21.0922  -31.9708 H   0  0  0  0  0  0  0  0  0  0  0  0
   -9.8630   23.1960  -31.5150 H   0  0  0  0  0  0  0  0  0  0  0  0
   -7.9923   24.6268  -31.1173 H   0  0  0  0  0  0  0  0  0  0  0  0
   -5.5364   24.8619  -30.7911 H   0  0  0  0  0  0  0  0  0  0  0  0
   -5.0013   20.6739  -31.6912 H   0  0  0  0  0  0  0  0  0  0  0  0
  1  2  1  0
  2  3  1  0
  3  4  1  0
  4  5  1  0
  3  6  2  3
  6  7  1  0
  7  8  2  0
  8  9  1  0
  9 10  1  0
 10 11  2  0
 11 12  1  0
 12 13  2  0
 13 14  1  0
 13 15  1  0
 15 16  2  0
 16  6  1  0
 16 10  1  0
  1 17  1  0
  1 18  1  0
  1 19  1  0
  2 20  1  0
  2 21  1  0
  4 22  1  0
  4 23  1  0
  5 24  1  0
  5 25  1  0
  5 26  1  0
  7 27  1  0
  8 28  1  0
  9 29  1  0
 11 30  1  0
 12 31  1  0
 15 32  1  0
M  CHG  1   3   1
M  END
>  <UniqueID>  (6) 
6

>  <SMILES>  (6) 
CC[N+](CC)=c1cc[nH]c2ccc(Cl)cc12

>  <Energy>  (6) 
60.383724085649675

>  <Genealogy>  (6) 
CC[N+](CC)=c1cc[nH]c2ccc(Cl)cc12 (3D coordinates assigned)
CC[N+](CC)=c1cc[nH]c2ccc(Cl)cc12 (optimized conformer: 60.383724085649675 kcal/mol)

>  <smiles>  (6) 
CC[N+](CC)=c1cc[nH]c2ccc(Cl)cc12

>  <score_type>  (6) 
oracle

>  <origin>  (6) 
adg

>  <m_score__min__energy>  (6) 
-5.6699999999999999

>  <m_primary>  (6) 
energy

$$$$
6:0
     RDKit          3D

 47 49  0  0  0  0  0  0  0  0999 V2000
   -6.6420   24.8480  -29.7770 C   0  0  0  0  0  0  0  0  0  0  0  0
   -5.6350   25.7830  -30.4350 C   0  0  0  0  0  0  0  0  0  0  0  0
   -4.6400   25.0050  -31.1820 N   0  0  0  0  0  0  0  0  0  0  0  0
   -3.9200   24.0960  -30.2800 C   0  0  0  0  0  0  0  0  0  0  0  0
   -4.2400   22.6400  -30.6310 C   0  0  0  0  0  0  0  0  0  0  0  0
   -4.8500   22.5370  -31.9580 N   0  0  0  0  0  0  0  0  0  0  0  0
   -5.6350   21.3930  -32.3290 C   0  0  0  0  0  0  0  0  0  0  0  0
   -7.0350   21.4640  -32.2160 C   0  0  0  0  0  0  0  0  0  0  0  0
   -7.6870   22.7040  -32.0430 C   0  0  0  0  0  0  0  0  0  0  0  0
   -9.0750   22.7720  -31.9490 C   0  0  0  0  0  0  0  0  0  0  0  0
   -9.8360   21.6130  -32.0470 C   0  0  0  0  0  0  0  0  0  0  0  0
   -9.2110   20.3750  -32.2080 C   0  0  0  0  0  0  0  0  0  0  0  0
   -7.7970   20.2710  -32.2600 C   0  0  0  0  0  0  0  0  0  0  0  0
   -7.1590   19.0500  -32.3400 N   0  0  0  0  0  0  0  0  0  0  0  0
   -7.9040   17.8070  -32.0350 C   0  0  0  0  0  0  0  0  0  0  0  0
   -5.8250   18.9910  -32.6980 C   0  0  0  0  0  0  0  0  0  0  0  0
   -5.2230   17.7640  -33.0720 C   0  0  0  0  0  0  0  0  0  0  0  0
   -3.8810   17.6970  -33.4230 C   0  0  0  0  0  0  0  0  0  0  0  0
   -3.1110   18.8480  -33.4620 C   0  0  0  0  0  0  0  0  0  0  0  0
   -3.6670   20.0890  -33.1490 C   0  0  0  0  0  0  0  0  0  0  0  0
   -2.6100   21.5170  -33.4700 S   0  0  0  0  0  0  0  0  0  0  0  0
   -1.3870   21.0500  -32.2060 C   0  0  0  0  0  0  0  0  0  0  0  0
   -5.0270   20.1750  -32.7140 C   0  0  0  0  0  0  0  0  0  0  0  0
   -6.5561   24.9277  -28.6833 H   0  0  0  0  0  0  0  0  0  0  0  0
   -7.6596   25.1288  -30.0863 H   0  0  0  0  0  0  0  0  0  0  0  0
   -6.4373   23.8124  -30.0863 H   0  0  0  0  0  0  0  0  0  0  0  0
   -6.1620   26.4583  -31.1251 H   0  0  0  0  0  0  0  0  0  0  0  0
   -5.1244   26.3687  -29.6564 H   0  0  0  0  0  0  0  0  0  0  0  0
   -3.9440   25.6720  -31.5900 H   0  0  0  0  0  0  0  0  0  0  0  0
   -2.8378   24.2649  -30.3817 H   0  0  0  0  0  0  0  0  0  0  0  0
   -4.2351   24.2934  -29.2447 H   0  0  0  0  0  0  0  0  0  0  0  0
   -3.3087   22.0547  -30.6178 H   0  0  0  0  0  0  0  0  0  0  0  0
   -4.9529   22.2514  -29.8888 H   0  0  0  0  0  0  0  0  0  0  0  0
   -4.7590   23.3340  -32.6290 H   0  0  0  0  0  0  0  0  0  0  0  0
   -7.0921   23.6272  -31.9817 H   0  0  0  0  0  0  0  0  0  0  0  0
   -9.5690   23.7430  -31.7972 H   0  0  0  0  0  0  0  0  0  0  0  0
  -10.9333   21.6713  -31.9976 H   0  0  0  0  0  0  0  0  0  0  0  0
   -9.8244   19.4661  -32.2959 H   0  0  0  0  0  0  0  0  0  0  0  0
   -7.9786   17.6824  -30.9446 H   0  0  0  0  0  0  0  0  0  0  0  0
   -8.9137   17.8694  -32.4669 H   0  0  0  0  0  0  0  0  0  0  0  0
   -7.3730   16.9459  -32.4669 H   0  0  0  0  0  0  0  0  0  0  0  0
   -5.8303   16.8469  -33.0846 H   0  0  0  0  0  0  0  0  0  0  0  0
   -3.4276   16.7260  -33.6711 H   0  0  0  0  0  0  0  0  0  0  0  0
   -2.0494   18.7829  -33.7428 H   0  0  0  0  0  0  0  0  0  0  0  0
   -1.8135   21.2129  -31.2052 H   0  0  0  0  0  0  0  0  0  0  0  0
   -1.1245   19.9884  -32.3244 H   0  0  0  0  0  0  0  0  0  0  0  0
   -0.4837   21.6665  -32.3244 H   0  0  0  0  0  0  0  0  0  0  0  0
  1  2  1  0
  2  3  1  0
  3  4  1  0
  4  5  1  0
  5  6  1  0
  6  7  1  0
  7  8  2  0
  8  9  1  0
  9 10  2  0
 10 11  1  0
 11 12  2  0
 12 13  1  0
 13 14  2  0
 14 15  1  0
 14 16  1  0
 16 17  2  0
 17 18  1  0
 18 19  2  0
 19 20  1  0
 20 21  1  0
 21 22  1  0
 20 23  2  0
 23  7  1  0
 13  8  1  0
 23 16  1  0
  1 24  1  0
  1 25  1  0
  1 26  1  0
  2 27  1  0
  2 28  1  0
  3 29  1  0
  4 30  1  0
  4 31  1  0
  5 32  1  0
  5 33  1  0
  6 34  1  0
  9 35  1  0
 10 36  1  0
 11 37  1  0
 12 38  1  0
 15 39  1  0
 15 40  1  0
 15 41  1  0
 17 42  1  0
 18 43  1  0
 19 44  1  0
 22 45  1  0
 22 46  1  0
 22 47  1  0
M  CHG  1  14   1
M  END
>  <UniqueID>  (7) 
7

>  <SMILES>  (7) 
CCNCCNc1c2ccccc2[n+](C)c2cccc(SC)c12

>  <Energy>  (7) 
69.66338387253639

>  <Genealogy>  (7) 
CCNCCNc1c2ccccc2[n+](C)c2cccc(SC)c12 (3D coordinates assigned)
CCNCCNc1c2ccccc2[n+](C)c2cccc(SC)c12 (optimized conformer: 69.66338387253639 kcal/mol)

>  <smiles>  (7) 
CCNCCNc1c2ccccc2[n+](C)c2cccc(SC)c12

>  <score_type>  (7) 
oracle

>  <origin>  (7) 
adg

>  <m_score__min__energy>  (7) 
-8.25

>  <m_primary>  (7) 
energy

$$$$
7:0
     RDKit          3D

 36 38  0  0  0  0  0  0  0  0999 V2000
   -8.3200   22.7010  -31.7140 C   0  0  0  0  0  0  0  0  0  0  0  0
   -7.0240   22.1230  -32.1310 N   0  0  0  0  0  0  0  0  0  0  0  0
   -5.8760   22.8980  -32.1510 C   0  0  0  0  0  0  0  0  0  0  0  0
   -5.8070   24.3270  -31.6140 C   0  0  0  0  0  0  0  0  0  0  0  0
   -4.4440   24.7220  -31.2160 N   0  0  0  0  0  0  0  0  0  0  0  0
   -4.2450   24.7420  -29.7610 C   0  0  0  0  0  0  0  0  0  0  0  0
   -2.8560   24.3100  -29.4010 C   0  0  0  0  0  0  0  0  0  0  0  0
   -2.3540   23.0210  -29.5210 C   0  0  0  0  0  0  0  0  0  0  0  0
   -1.0530   22.8860  -29.0230 C   0  0  0  0  0  0  0  0  0  0  0  0
   -0.5350   24.0590  -28.4890 C   0  0  0  0  0  0  0  0  0  0  0  0
   -1.6990   25.2650  -28.6360 S   0  0  0  0  0  0  0  0  0  0  0  0
   -4.6780   22.3630  -32.6420 C   0  0  0  0  0  0  0  0  0  0  0  0
   -4.6170   21.0520  -33.0860 C   0  0  0  0  0  0  0  0  0  0  0  0
   -3.5280   20.6090  -33.5450 O   0  0  0  0  0  0  0  0  0  0  0  0
   -5.7500   20.2360  -32.9980 C   0  0  0  0  0  0  0  0  0  0  0  0
   -5.6940   18.8860  -33.3950 C   0  0  0  0  0  0  0  0  0  0  0  0
   -6.8080   18.0600  -33.2570 C   0  0  0  0  0  0  0  0  0  0  0  0
   -6.7220   16.3780  -33.7480 Cl  0  0  0  0  0  0  0  0  0  0  0  0
   -7.9840   18.5660  -32.7090 C   0  0  0  0  0  0  0  0  0  0  0  0
   -8.0610   19.9030  -32.3170 C   0  0  0  0  0  0  0  0  0  0  0  0
   -6.9570   20.7810  -32.4790 C   0  0  0  0  0  0  0  0  0  0  0  0
   -8.3742   22.7252  -30.6156 H   0  0  0  0  0  0  0  0  0  0  0  0
   -8.4090   23.7241  -32.1081 H   0  0  0  0  0  0  0  0  0  0  0  0
   -9.1406   22.0836  -32.1081 H   0  0  0  0  0  0  0  0  0  0  0  0
   -6.1574   25.0144  -32.3980 H   0  0  0  0  0  0  0  0  0  0  0  0
   -6.4412   24.3747  -30.7165 H   0  0  0  0  0  0  0  0  0  0  0  0
   -4.2310   25.6740  -31.5940 H   0  0  0  0  0  0  0  0  0  0  0  0
   -4.4111   25.7640  -29.3896 H   0  0  0  0  0  0  0  0  0  0  0  0
   -4.9588   24.0429  -29.3009 H   0  0  0  0  0  0  0  0  0  0  0  0
   -2.9220   22.1892  -29.9632 H   0  0  0  0  0  0  0  0  0  0  0  0
   -0.4931   21.9396  -29.0518 H   0  0  0  0  0  0  0  0  0  0  0  0
    0.4647   24.1789  -28.0460 H   0  0  0  0  0  0  0  0  0  0  0  0
   -3.7755   22.9909  -32.6754 H   0  0  0  0  0  0  0  0  0  0  0  0
   -4.7631   18.4800  -33.8176 H   0  0  0  0  0  0  0  0  0  0  0  0
   -8.8568   17.9082  -32.5845 H   0  0  0  0  0  0  0  0  0  0  0  0
   -8.9935   20.2835  -31.8747 H   0  0  0  0  0  0  0  0  0  0  0  0
  1  2  1  0
  2  3  1  0
  3  4  1  0
  4  5  1  0
  5  6  1  0
  6  7  1  0
  7  8  2  0
  8  9  1  0
  9 10  2  0
 10 11  1  0
  3 12  2  0
 12 13  1  0
 13 14  2  0
 13 15  1  0
 15 16  2  0
 16 17  1  0
 17 18  1  0
 17 19  2  0
 19 20  1  0
 20 21  2  0
 21  2  1  0
 11  7  1  0
 21 15  1  0
  1 22  1  0
  1 23  1  0
  1 24  1  0
  4 25  1  0
  4 26  1  0
  5 27  1  0
  6 28  1  0
  6 29  1  0
  8 30  1  0
  9 31  1  0
 10 32  1  0
 12 33  1  0
 16 34  1  0
 19 35  1  0
 20 36  1  0
M  END
>  <UniqueID>  (8) 
8

>  <SMILES>  (8) 
Cn1c(CNCc2cccs2)cc(=O)c2cc(Cl)ccc21

>  <Energy>  (8) 
80.02088612750478

>  <Genealogy>  (8) 
Cn1c(CNCc2cccs2)cc(=O)c2cc(Cl)ccc21 (3D coordinates assigned)
Cn1c(CNCc2cccs2)cc(=O)c2cc(Cl)ccc21 (optimized conformer: 80.02088612750478 kcal/mol)

>  <smiles>  (8) 
Cn1c(CNCc2cccs2)cc(=O)c2cc(Cl)ccc21

>  <score_type>  (8) 
oracle

>  <origin>  (8) 
adg

>  <m_score__min__energy>  (8) 
-8.6600000000000001

>  <m_primary>  (8) 
energy

$$$$
8:0
     RDKit          3D

 63 66  0  0  0  0  0  0  0  0999 V2000
   -0.7370   23.0300  -29.1640 C   0  0  0  0  0  0  0  0  0  0  0  0
   -1.0450   24.4630  -28.7430 C   0  0  0  0  0  0  0  0  0  0  0  0
   -2.3080   24.9090  -29.3470 N   0  0  0  0  0  0  0  0  0  0  0  0
   -3.4910   24.4870  -28.5740 C   0  0  0  0  0  0  0  0  0  0  0  0
   -4.6970   24.1760  -29.4760 C   0  0  0  0  0  0  0  0  0  0  0  0
   -4.2710   24.0540  -30.8820 N   0  0  0  0  0  0  0  0  0  0  0  0
   -5.4020   24.0200  -31.8280 C   0  0  0  0  0  0  0  0  0  0  0  0
   -5.7590   22.5800  -32.2080 C   0  0  0  0  0  0  0  0  0  0  0  0
   -7.1030   22.1050  -32.1590 C   0  0  0  0  0  0  0  0  0  0  0  0
   -8.1760   22.9450  -31.7500 C   0  0  0  0  0  0  0  0  0  0  0  0
   -9.4770   22.4690  -31.6480 C   0  0  0  0  0  0  0  0  0  0  0  0
   -9.7580   21.1500  -31.9450 C   0  0  0  0  0  0  0  0  0  0  0  0
   -8.7420   20.2990  -32.3580 C   0  0  0  0  0  0  0  0  0  0  0  0
   -7.3980   20.7440  -32.4880 C   0  0  0  0  0  0  0  0  0  0  0  0
   -6.3550   19.8640  -32.9120 C   0  0  0  0  0  0  0  0  0  0  0  0
   -6.6510   18.3900  -33.2490 C   0  0  0  0  0  0  0  0  0  0  0  0
   -6.1050   17.9790  -34.5600 N   0  0  0  0  0  0  0  0  0  0  0  0
   -5.3660   16.7400  -34.4840 C   0  0  0  0  0  0  0  0  0  0  0  0
   -5.9230   15.6100  -33.8590 C   0  0  0  0  0  0  0  0  0  0  0  0
   -5.1730   14.4380  -33.7230 C   0  0  0  0  0  0  0  0  0  0  0  0
   -3.8650   14.3780  -34.2190 C   0  0  0  0  0  0  0  0  0  0  0  0
   -2.8870   12.8910  -34.0080 S   0  0  0  0  0  0  0  0  0  0  0  0
   -3.0060   12.9230  -32.1930 C   0  0  0  0  0  0  0  0  0  0  0  0
   -3.3140   15.4900  -34.8630 C   0  0  0  0  0  0  0  0  0  0  0  0
   -4.0560   16.6650  -34.9930 C   0  0  0  0  0  0  0  0  0  0  0  0
   -5.0120   20.3380  -32.9410 C   0  0  0  0  0  0  0  0  0  0  0  0
   -3.9360   19.4910  -33.3240 C   0  0  0  0  0  0  0  0  0  0  0  0
   -2.6190   19.9360  -33.3100 C   0  0  0  0  0  0  0  0  0  0  0  0
   -2.3280   21.2280  -32.9100 C   0  0  0  0  0  0  0  0  0  0  0  0
   -3.3530   22.0900  -32.5410 C   0  0  0  0  0  0  0  0  0  0  0  0
   -4.7140   21.6800  -32.5630 C   0  0  0  0  0  0  0  0  0  0  0  0
   -0.6028   22.4055  -28.2684 H   0  0  0  0  0  0  0  0  0  0  0  0
   -1.5711   22.6367  -29.7636 H   0  0  0  0  0  0  0  0  0  0  0  0
    0.1851   23.0141  -29.7636 H   0  0  0  0  0  0  0  0  0  0  0  0
   -1.1299   24.5095  -27.6473 H   0  0  0  0  0  0  0  0  0  0  0  0
   -0.2319   25.1202  -29.0849 H   0  0  0  0  0  0  0  0  0  0  0  0
   -2.3730   24.5460  -30.3260 H   0  0  0  0  0  0  0  0  0  0  0  0
   -3.2354   23.5834  -28.0012 H   0  0  0  0  0  0  0  0  0  0  0  0
   -3.7728   25.3174  -27.9098 H   0  0  0  0  0  0  0  0  0  0  0  0
   -5.1562   23.2300  -29.1533 H   0  0  0  0  0  0  0  0  0  0  0  0
   -5.4242   24.9973  -29.3941 H   0  0  0  0  0  0  0  0  0  0  0  0
   -3.7000   24.9010  -31.1170 H   0  0  0  0  0  0  0  0  0  0  0  0
   -6.2765   24.4955  -31.3598 H   0  0  0  0  0  0  0  0  0  0  0  0
   -5.1108   24.5605  -32.7407 H   0  0  0  0  0  0  0  0  0  0  0  0
   -7.9701   23.9982  -31.5084 H   0  0  0  0  0  0  0  0  0  0  0  0
  -10.2851   23.1442  -31.3300 H   0  0  0  0  0  0  0  0  0  0  0  0
  -10.7875   20.7734  -31.8543 H   0  0  0  0  0  0  0  0  0  0  0  0
   -8.9835   19.2515  -32.5911 H   0  0  0  0  0  0  0  0  0  0  0  0
   -6.2058   17.7553  -32.4687 H   0  0  0  0  0  0  0  0  0  0  0  0
   -7.7440   18.2750  -33.2958 H   0  0  0  0  0  0  0  0  0  0  0  0
   -6.9000   17.8650  -35.2310 H   0  0  0  0  0  0  0  0  0  0  0  0
   -5.4920   18.7300  -34.9470 H   0  0  0  0  0  0  0  0  0  0  0  0
   -6.9533   15.6484  -33.4755 H   0  0  0  0  0  0  0  0  0  0  0  0
   -5.6116   13.5607  -33.2250 H   0  0  0  0  0  0  0  0  0  0  0  0
   -2.0308   12.6608  -31.7569 H   0  0  0  0  0  0  0  0  0  0  0  0
   -3.2964   13.9311  -31.8623 H   0  0  0  0  0  0  0  0  0  0  0  0
   -3.7628   12.1965  -31.8623 H   0  0  0  0  0  0  0  0  0  0  0  0
   -2.2927   15.4387  -35.2684 H   0  0  0  0  0  0  0  0  0  0  0  0
   -3.6143   17.5377  -35.4963 H   0  0  0  0  0  0  0  0  0  0  0  0
   -4.1508   18.4591  -33.6388 H   0  0  0  0  0  0  0  0  0  0  0  0
   -1.8074   19.2601  -33.6173 H   0  0  0  0  0  0  0  0  0  0  0  0
   -1.2839   21.5731  -32.8841 H   0  0  0  0  0  0  0  0  0  0  0  0
   -3.1057   23.1140  -32.2243 H   0  0  0  0  0  0  0  0  0  0  0  0
  1  2  1  0
  2  3  1  0
  3  4  1  0
  4  5  1  0
  5  6  1  0
  6  7  1  0
  7  8  1  0
  8  9  2  0
  9 10  1  0
 10 11  2  0
 11 12  1  0
 12 13  2  0
 13 14  1  0
 14 15  2  0
 15 16  1  0
 16 17  1  0
 17 18  1  0
 18 19  2  0
 19 20  1  0
 20 21  2  0
 21 22  1  0
 22 23  1  0
 21 24  1  0
 24 25  2  0
 15 26  1  0
 26 27  2  0
 27 28  1  0
 28 29  2  0
 29 30  1  0
 30 31  2  0
 31  8  1  0
 14  9  1  0
 25 18  1  0
 31 26  1  0
  1 32  1  0
  1 33  1  0
  1 34  1  0
  2 35  1  0
  2 36  1  0
  3 37  1  0
  4 38  1  0
  4 39  1  0
  5 40  1  0
  5 41  1  0
  6 42  1  0
  7 43  1  0
  7 44  1  0
 10 45  1  0
 11 46  1  0
 12 47  1  0
 13 48  1  0
 16 49  1  0
 16 50  1  0
 17 51  1  0
 17 52  1  0
 19 53  1  0
 20 54  1  0
 23 55  1  0
 23 56  1  0
 23 57  1  0
 24 58  1  0
 25 59  1  0
 27 60  1  0
 28 61  1  0
 29 62  1  0
 30 63  1  0
M  CHG  1  17   1
M  END
>  <UniqueID>  (9) 
9

>  <SMILES>  (9) 
CCNCCNCc1c2ccccc2c(C[NH2+]c2ccc(SC)cc2)c2ccccc12

>  <Energy>  (9) 
83.52636218168661

>  <Genealogy>  (9) 
CCNCCNCc1c2ccccc2c(C[NH2+]c2ccc(SC)cc2)c2ccccc12 (protonated)
CCNCCNCc1c2ccccc2c(C[NH2+]c2ccc(SC)cc2)c2ccccc12 (3D coordinates assigned)
CCNCCNCc1c2ccccc2c(C[NH2+]c2ccc(SC)cc2)c2ccccc12 (optimized conformer: 83.52636218168661 kcal/mol)

>  <smiles>  (9) 
CCNCCNCc1c2ccccc2c(CNc2ccc(SC)cc2)c2ccccc12

>  <score_type>  (9) 
oracle

>  <origin>  (9) 
adg

>  <m_score__min__energy>  (9) 
-9.1999999999999993

>  <m_primary>  (9) 
energy

$$$$
9:0
     RDKit          3D

 38 40  0  0  0  0  0  0  0  0999 V2000
   -8.0000   23.0390  -31.3640 C   0  0  0  0  0  0  0  0  0  0  0  0
   -6.4940   22.9780  -31.3540 C   0  0  0  0  0  0  0  0  0  0  0  0
   -5.8590   21.8680  -31.9350 C   0  0  0  0  0  0  0  0  0  0  0  0
   -4.4710   21.7630  -31.9340 C   0  0  0  0  0  0  0  0  0  0  0  0
   -3.6940   22.7740  -31.3730 C   0  0  0  0  0  0  0  0  0  0  0  0
   -4.2950   23.9010  -30.8050 C   0  0  0  0  0  0  0  0  0  0  0  0
   -3.4420   24.9230  -30.2760 N   0  0  0  0  0  0  0  0  0  0  0  0
   -2.3900   24.6830  -29.3360 C   0  0  0  0  0  0  0  0  0  0  0  0
   -1.6550   25.6370  -28.9620 O   0  0  0  0  0  0  0  0  0  0  0  0
   -2.1180   23.3190  -28.8320 C   0  0  0  0  0  0  0  0  0  0  0  0
   -0.9480   22.6160  -29.1120 C   0  0  0  0  0  0  0  0  0  0  0  0
   -1.0980   21.3960  -28.4960 C   0  0  0  0  0  0  0  0  0  0  0  0
   -0.2400   20.3000  -28.4620 C   0  0  0  0  0  0  0  0  0  0  0  0
   -0.6580   19.1590  -27.7560 C   0  0  0  0  0  0  0  0  0  0  0  0
   -1.9130   19.1400  -27.1110 C   0  0  0  0  0  0  0  0  0  0  0  0
   -2.7600   20.2620  -27.1630 C   0  0  0  0  0  0  0  0  0  0  0  0
   -2.3190   21.3910  -27.8680 C   0  0  0  0  0  0  0  0  0  0  0  0
   -2.9530   22.5700  -28.0540 N   0  0  0  0  0  0  0  0  0  0  0  0
   -4.2660   22.9620  -27.5340 C   0  0  0  0  0  0  0  0  0  0  0  0
   -5.7100   23.9870  -30.7330 C   0  0  0  0  0  0  0  0  0  0  0  0
   -6.3750   25.1340  -30.0080 C   0  0  0  0  0  0  0  0  0  0  0  0
   -8.3732   23.0541  -30.3294 H   0  0  0  0  0  0  0  0  0  0  0  0
   -8.3266   23.9511  -31.8850 H   0  0  0  0  0  0  0  0  0  0  0  0
   -8.3993   22.1563  -31.8850 H   0  0  0  0  0  0  0  0  0  0  0  0
   -6.4647   21.0736  -32.3955 H   0  0  0  0  0  0  0  0  0  0  0  0
   -3.9868   20.8802  -32.3770 H   0  0  0  0  0  0  0  0  0  0  0  0
   -2.5976   22.6847  -31.3770 H   0  0  0  0  0  0  0  0  0  0  0  0
   -0.0866   22.9636  -29.7012 H   0  0  0  0  0  0  0  0  0  0  0  0
    0.7344   20.3264  -28.9717 H   0  0  0  0  0  0  0  0  0  0  0  0
   -0.0036   18.2763  -27.7059 H   0  0  0  0  0  0  0  0  0  0  0  0
   -2.2315   18.2408  -26.5633 H   0  0  0  0  0  0  0  0  0  0  0  0
   -3.7406   20.2539  -26.6647 H   0  0  0  0  0  0  0  0  0  0  0  0
   -4.2419   22.9548  -26.4343 H   0  0  0  0  0  0  0  0  0  0  0  0
   -4.5138   23.9733  -27.8887 H   0  0  0  0  0  0  0  0  0  0  0  0
   -5.0277   22.2521  -27.8887 H   0  0  0  0  0  0  0  0  0  0  0  0
   -6.2868   24.9819  -28.9221 H   0  0  0  0  0  0  0  0  0  0  0  0
   -5.8841   26.0780  -30.2870 H   0  0  0  0  0  0  0  0  0  0  0  0
   -7.4381   25.1771  -30.2870 H   0  0  0  0  0  0  0  0  0  0  0  0
  1  2  1  0
  2  3  2  0
  3  4  1  0
  4  5  2  0
  5  6  1  0
  6  7  1  0
  7  8  1  0
  8  9  2  0
  8 10  1  0
 10 11  2  0
 11 12  1  0
 12 13  2  0
 13 14  1  0
 14 15  2  0
 15 16  1  0
 16 17  2  0
 17 18  1  0
 18 19  1  0
  6 20  2  0
 20 21  1  0
 20  2  1  0
 18 10  1  0
 17 12  1  0
  1 22  1  0
  1 23  1  0
  1 24  1  0
  3 25  1  0
  4 26  1  0
  5 27  1  0
 11 28  1  0
 13 29  1  0
 14 30  1  0
 15 31  1  0
 16 32  1  0
 19 33  1  0
 19 34  1  0
 19 35  1  0
 21 36  1  0
 21 37  1  0
 21 38  1  0
M  CHG  1   7  -1
M  END
>  <UniqueID>  (10) 
10

>  <SMILES>  (10) 
Cc1cccc([N-]C(=O)c2cc3ccccc3n2C)c1C

>  <Energy>  (10) 
83.73091983848339

>  <Genealogy>  (10) 
Cc1cccc([N-]C(=O)c2cc3ccccc3n2C)c1C (protonated)
Cc1cccc([N-]C(=O)c2cc3ccccc3n2C)c1C (3D coordinates assigned)
Cc1cccc([N-]C(=O)c2cc3ccccc3n2C)c1C (optimized conformer: 83.73091983848339 kcal/mol)

>  <smiles>  (10) 
Cc1cccc(NC(=O)c2cc3ccccc3n2C)c1C

>  <score_type>  (10) 
oracle

>  <origin>  (10) 
adg

>  <m_score__min__energy>  (10) 
-9.4800000000000004

>  <m_primary>  (10) 
energy

$$$$
10:0
     RDKit          3D

 44 46  0  0  0  0  0  0  0  0999 V2000
   -2.0270   19.4910  -33.3180 C   0  0  0  0  0  0  0  0  0  0  0  0
   -3.4340   18.9200  -33.1110 C   0  0  0  0  0  0  0  0  0  0  0  0
   -3.7650   17.8620  -34.1830 C   0  0  0  0  0  0  0  0  0  0  0  0
   -4.4300   20.0230  -33.0270 N   0  0  0  0  0  0  0  0  0  0  0  0
   -5.5970   19.7980  -33.9110 C   0  0  0  0  0  0  0  0  0  0  0  0
   -6.7960   19.4260  -33.0840 C   0  0  0  0  0  0  0  0  0  0  0  0
   -7.9280   20.2580  -33.0440 C   0  0  0  0  0  0  0  0  0  0  0  0
   -9.0480   19.8870  -32.2950 C   0  0  0  0  0  0  0  0  0  0  0  0
   -9.0480   18.6840  -31.5820 C   0  0  0  0  0  0  0  0  0  0  0  0
   -7.9280   17.8500  -31.6190 C   0  0  0  0  0  0  0  0  0  0  0  0
   -6.8060   18.2160  -32.3680 C   0  0  0  0  0  0  0  0  0  0  0  0
   -3.8600   21.3790  -33.1890 C   0  0  0  0  0  0  0  0  0  0  0  0
   -4.6310   22.3580  -32.3580 C   0  0  0  0  0  0  0  0  0  0  0  0
   -5.9630   22.5760  -32.6100 N   0  0  0  0  0  0  0  0  0  0  0  0
   -6.6980   23.4440  -31.8540 C   0  0  0  0  0  0  0  0  0  0  0  0
   -7.9210   23.6260  -32.0900 O   0  0  0  0  0  0  0  0  0  0  0  0
   -6.0540   24.1050  -30.8190 C   0  0  0  0  0  0  0  0  0  0  0  0
   -6.4590   24.9920  -29.8400 C   0  0  0  0  0  0  0  0  0  0  0  0
   -5.3800   25.2600  -29.0640 N   0  0  0  0  0  0  0  0  0  0  0  0
   -4.3280   24.5930  -29.5270 N   0  0  0  0  0  0  0  0  0  0  0  0
   -3.0190   24.5470  -28.8860 C   0  0  0  0  0  0  0  0  0  0  0  0
   -4.7350   23.8800  -30.5890 C   0  0  0  0  0  0  0  0  0  0  0  0
   -4.0030   23.0170  -31.3340 N   0  0  0  0  0  0  0  0  0  0  0  0
   -1.5606   19.6803  -32.3399 H   0  0  0  0  0  0  0  0  0  0  0  0
   -1.4175   18.7691  -33.8813 H   0  0  0  0  0  0  0  0  0  0  0  0
   -2.0930   20.4335  -33.8813 H   0  0  0  0  0  0  0  0  0  0  0  0
   -3.4767   18.3884  -32.1489 H   0  0  0  0  0  0  0  0  0  0  0  0
   -4.0590   16.9224  -33.6924 H   0  0  0  0  0  0  0  0  0  0  0  0
   -4.5932   18.2226  -34.8107 H   0  0  0  0  0  0  0  0  0  0  0  0
   -2.8789   17.6863  -34.8107 H   0  0  0  0  0  0  0  0  0  0  0  0
   -5.8123   20.7185  -34.4734 H   0  0  0  0  0  0  0  0  0  0  0  0
   -5.3705   18.9808  -34.6117 H   0  0  0  0  0  0  0  0  0  0  0  0
   -7.9324   21.2046  -33.6043 H   0  0  0  0  0  0  0  0  0  0  0  0
   -9.9310   20.5423  -32.2662 H   0  0  0  0  0  0  0  0  0  0  0  0
   -9.9300   18.3944  -30.9920 H   0  0  0  0  0  0  0  0  0  0  0  0
   -7.9290   16.9039  -31.0579 H   0  0  0  0  0  0  0  0  0  0  0  0
   -5.9274   17.5548  -32.3974 H   0  0  0  0  0  0  0  0  0  0  0  0
   -2.8087   21.3739  -32.8653 H   0  0  0  0  0  0  0  0  0  0  0  0
   -3.9216   21.6740  -34.2469 H   0  0  0  0  0  0  0  0  0  0  0  0
   -7.4707   25.4048  -29.7135 H   0  0  0  0  0  0  0  0  0  0  0  0
   -5.3710   25.8760  -28.2200 H   0  0  0  0  0  0  0  0  0  0  0  0
   -3.1455   24.5514  -27.7933 H   0  0  0  0  0  0  0  0  0  0  0  0
   -2.4936   23.6298  -29.1906 H   0  0  0  0  0  0  0  0  0  0  0  0
   -2.4305   25.4250  -29.1906 H   0  0  0  0  0  0  0  0  0  0  0  0
  1  2  1  0
  2  3  1  0
  2  4  1  0
  4  5  1  0
  5  6  1  0
  6  7  2  0
  7  8  1  0
  8  9  2  0
  9 10  1  0
 10 11  2  0
  4 12  1  0
 12 13  1  0
 13 14  2  0
 14 15  1  0
 15 16  2  0
 15 17  1  0
 17 18  1  0
 18 19  2  0
 19 20  1  0
 20 21  1  0
 20 22  1  0
 22 23  1  0
 11  6  1  0
 23 13  1  0
 22 17  2  0
  1 24  1  0
  1 25  1  0
  1 26  1  0
  2 27  1  0
  3 28  1  0
  3 29  1  0
  3 30  1  0
  5 31  1  0
  5 32  1  0
  7 33  1  0
  8 34  1  0
  9 35  1  0
 10 36  1  0
 11 37  1  0
 12 38  1  0
 12 39  1  0
 18 40  1  0
 19 41  1  0
 21 42  1  0
 21 43  1  0
 21 44  1  0
M  CHG  2  19   1  23  -1
M  END
>  <UniqueID>  (11) 
11

>  <SMILES>  (11) 
CC(C)N(Cc1ccccc1)Cc1nc(=O)c2c[nH+]n(C)c2[n-]1

>  <Energy>  (11) 
88.33257935231083

>  <Genealogy>  (11) 
CC(C)N(Cc1ccccc1)Cc1nc(=O)c2c[nH+]n(C)c2[n-]1 (protonated)
CC(C)N(Cc1ccccc1)Cc1nc(=O)c2c[nH+]n(C)c2[n-]1 (3D coordinates assigned)
CC(C)N(Cc1ccccc1)Cc1nc(=O)c2c[nH+]n(C)c2[n-]1 (optimized conformer: 88.33257935231083 kcal/mol)

>  <smiles>  (11) 
CC(C)N(Cc1ccccc1)Cc1nc(=O)c2cnn(C)c2[nH]1

>  <score_type>  (11) 
oracle

>  <origin>  (11) 
adg

>  <m_score__min__energy>  (11) 
-8.0500000000000007

>  <m_primary>  (11) 
energy

$$$$
11:0
     RDKit          3D

 78 80  0  0  0  0  0  0  0  0999 V2000
   -1.6950   26.4270  -24.9930 C   0  0  0  0  0  0  0  0  0  0  0  0
   -0.8620   26.4410  -23.7040 C   0  0  0  0  0  0  0  0  0  0  0  0
    0.5340   25.9460  -23.8640 N   0  0  0  0  0  0  0  0  0  0  0  0
    1.5230   27.0410  -24.0580 C   0  0  0  0  0  0  0  0  0  0  0  0
    1.3930   28.1670  -23.0270 C   0  0  0  0  0  0  0  0  0  0  0  0
    0.6270   24.9450  -24.9630 C   0  0  0  0  0  0  0  0  0  0  0  0
    0.4210   23.5000  -24.4760 C   0  0  0  0  0  0  0  0  0  0  0  0
    0.4610   22.6150  -25.5800 O   0  0  0  0  0  0  0  0  0  0  0  0
   -0.8560   22.2210  -25.9090 C   0  0  0  0  0  0  0  0  0  0  0  0
   -0.8190   21.1270  -26.9710 C   0  0  0  0  0  0  0  0  0  0  0  0
   -1.7480   20.1140  -26.6320 O   0  0  0  0  0  0  0  0  0  0  0  0
   -2.8090   20.1000  -27.5650 C   0  0  0  0  0  0  0  0  0  0  0  0
   -2.3350   20.7310  -28.8840 C   0  0  0  0  0  0  0  0  0  0  0  0
   -1.6290   19.7840  -29.6700 O   0  0  0  0  0  0  0  0  0  0  0  0
   -0.6850   20.4440  -30.4950 C   0  0  0  0  0  0  0  0  0  0  0  0
   -0.9420   21.9460  -30.4970 C   0  0  0  0  0  0  0  0  0  0  0  0
   -1.6600   22.2920  -31.6630 O   0  0  0  0  0  0  0  0  0  0  0  0
   -1.5990   21.2390  -32.6050 C   0  0  0  0  0  0  0  0  0  0  0  0
   -3.0140   20.7290  -32.8920 C   0  0  0  0  0  0  0  0  0  0  0  0
   -3.7940   20.5740  -31.6600 N   0  0  0  0  0  0  0  0  0  0  0  0
   -5.1450   21.0580  -31.5430 C   0  0  0  0  0  0  0  0  0  0  0  0
   -6.2250   20.2020  -31.8220 C   0  0  0  0  0  0  0  0  0  0  0  0
   -6.0080   18.8390  -32.1200 C   0  0  0  0  0  0  0  0  0  0  0  0
   -7.0800   17.9900  -32.3820 C   0  0  0  0  0  0  0  0  0  0  0  0
   -8.3810   18.4750  -32.3350 C   0  0  0  0  0  0  0  0  0  0  0  0
   -8.6200   19.8200  -32.0520 C   0  0  0  0  0  0  0  0  0  0  0  0
   -7.5480   20.7210  -31.8230 C   0  0  0  0  0  0  0  0  0  0  0  0
   -7.7660   22.0690  -31.6080 N   0  0  0  0  0  0  0  0  0  0  0  0
   -9.0990   22.6500  -31.8770 C   0  0  0  0  0  0  0  0  0  0  0  0
   -6.7340   22.8720  -31.1550 C   0  0  0  0  0  0  0  0  0  0  0  0
   -6.9630   24.1880  -30.6710 C   0  0  0  0  0  0  0  0  0  0  0  0
   -5.9070   24.9970  -30.2530 C   0  0  0  0  0  0  0  0  0  0  0  0
   -4.6050   24.5150  -30.2790 C   0  0  0  0  0  0  0  0  0  0  0  0
   -4.3510   23.2140  -30.7030 C   0  0  0  0  0  0  0  0  0  0  0  0
   -5.4000   22.3810  -31.1440 C   0  0  0  0  0  0  0  0  0  0  0  0
   -2.7649   26.4090  -24.7380 H   0  0  0  0  0  0  0  0  0  0  0  0
   -1.4737   27.3290  -25.5824 H   0  0  0  0  0  0  0  0  0  0  0  0
   -1.4435   25.5330  -25.5824 H   0  0  0  0  0  0  0  0  0  0  0  0
   -0.8190   27.4761  -23.3342 H   0  0  0  0  0  0  0  0  0  0  0  0
   -1.3588   25.7536  -23.0035 H   0  0  0  0  0  0  0  0  0  0  0  0
    0.7740   25.4630  -22.9670 H   0  0  0  0  0  0  0  0  0  0  0  0
    2.5344   26.6148  -23.9835 H   0  0  0  0  0  0  0  0  0  0  0  0
    1.3299   27.4820  -25.0471 H   0  0  0  0  0  0  0  0  0  0  0  0
    1.4419   27.7432  -22.0131 H   0  0  0  0  0  0  0  0  0  0  0  0
    2.2141   28.8861  -23.1639 H   0  0  0  0  0  0  0  0  0  0  0  0
    0.4297   28.6801  -23.1639 H   0  0  0  0  0  0  0  0  0  0  0  0
   -0.1432   25.1755  -25.7138 H   0  0  0  0  0  0  0  0  0  0  0  0
    1.6413   25.0100  -25.3837 H   0  0  0  0  0  0  0  0  0  0  0  0
    1.2189   23.2359  -23.7664 H   0  0  0  0  0  0  0  0  0  0  0  0
   -0.5568   23.4187  -23.9788 H   0  0  0  0  0  0  0  0  0  0  0  0
   -1.3583   21.8384  -25.0083 H   0  0  0  0  0  0  0  0  0  0  0  0
   -1.4070   23.0886  -26.3010 H   0  0  0  0  0  0  0  0  0  0  0  0
   -1.0831   21.5554  -27.9491 H   0  0  0  0  0  0  0  0  0  0  0  0
    0.1923   20.6973  -27.0222 H   0  0  0  0  0  0  0  0  0  0  0  0
   -3.1245   19.0620  -27.7469 H   0  0  0  0  0  0  0  0  0  0  0  0
   -3.6577   20.6748  -27.1660 H   0  0  0  0  0  0  0  0  0  0  0  0
   -3.2095   21.0876  -29.4480 H   0  0  0  0  0  0  0  0  0  0  0  0
   -1.6614   21.5692  -28.6521 H   0  0  0  0  0  0  0  0  0  0  0  0
    0.3284   20.2499  -30.1137 H   0  0  0  0  0  0  0  0  0  0  0  0
   -0.7806   20.0636  -31.5227 H   0  0  0  0  0  0  0  0  0  0  0  0
   -1.5293   22.2201  -29.6082 H   0  0  0  0  0  0  0  0  0  0  0  0
    0.0166   22.4853  -30.4792 H   0  0  0  0  0  0  0  0  0  0  0  0
   -1.1456   21.6067  -33.5373 H   0  0  0  0  0  0  0  0  0  0  0  0
   -0.9886   20.4187  -32.1993 H   0  0  0  0  0  0  0  0  0  0  0  0
   -3.5253   21.4471  -33.5499 H   0  0  0  0  0  0  0  0  0  0  0  0
   -2.9326   19.7431  -33.3731 H   0  0  0  0  0  0  0  0  0  0  0  0
   -3.4140   19.9620  -30.9010 H   0  0  0  0  0  0  0  0  0  0  0  0
   -4.9817   18.4439  -32.1454 H   0  0  0  0  0  0  0  0  0  0  0  0
   -6.8965   16.9334  -32.6266 H   0  0  0  0  0  0  0  0  0  0  0  0
   -9.2259   17.7959  -32.5217 H   0  0  0  0  0  0  0  0  0  0  0  0
   -9.6557   20.1878  -32.0057 H   0  0  0  0  0  0  0  0  0  0  0  0
   -9.6025   22.8694  -30.9239 H   0  0  0  0  0  0  0  0  0  0  0  0
   -8.9842   23.5797  -32.4536 H   0  0  0  0  0  0  0  0  0  0  0  0
   -9.7019   21.9330  -32.4536 H   0  0  0  0  0  0  0  0  0  0  0  0
   -7.9915   24.5755  -30.6252 H   0  0  0  0  0  0  0  0  0  0  0  0
   -6.1060   26.0202  -29.9016 H   0  0  0  0  0  0  0  0  0  0  0  0
   -3.7733   25.1623  -29.9641 H   0  0  0  0  0  0  0  0  0  0  0  0
   -3.3199   22.8310  -30.6940 H   0  0  0  0  0  0  0  0  0  0  0  0
  1  2  1  0
  2  3  1  0
  3  4  1  0
  4  5  1  0
  3  6  1  0
  6  7  1  0
  7  8  1  0
  8  9  1  0
  9 10  1  0
 10 11  1  0
 11 12  1  0
 12 13  1  0
 13 14  1  0
 14 15  1  0
 15 16  1  0
 16 17  1  0
 17 18  1  0
 18 19  1  0
 19 20  1  0
 20 21  1  0
 21 22  2  0
 22 23  1  0
 23 24  2  0
 24 25  1  0
 25 26  2  0
 26 27  1  0
 27 28  2  0
 28 29  1  0
 28 30  1  0
 30 31  2  0
 31 32  1  0
 32 33  2  0
 33 34  1  0
 34 35  2  0
 35 21  1  0
 27 22  1  0
 35 30  1  0
  1 36  1  0
  1 37  1  0
  1 38  1  0
  2 39  1  0
  2 40  1  0
  3 41  1  0
  4 42  1  0
  4 43  1  0
  5 44  1  0
  5 45  1  0
  5 46  1  0
  6 47  1  0
  6 48  1  0
  7 49  1  0
  7 50  1  0
  9 51  1  0
  9 52  1  0
 10 53  1  0
 10 54  1  0
 12 55  1  0
 12 56  1  0
 13 57  1  0
 13 58  1  0
 15 59  1  0
 15 60  1  0
 16 61  1  0
 16 62  1  0
 18 63  1  0
 18 64  1  0
 19 65  1  0
 19 66  1  0
 20 67  1  0
 23 68  1  0
 24 69  1  0
 25 70  1  0
 26 71  1  0
 29 72  1  0
 29 73  1  0
 29 74  1  0
 31 75  1  0
 32 76  1  0
 33 77  1  0
 34 78  1  0
M  CHG  2   3   1  28   1
M  END
>  <UniqueID>  (12) 
12

>  <SMILES>  (12) 
CC[NH+](CC)CCOCCOCCOCCOCCNc1c2ccccc2[n+](C)c2ccccc12

>  <Energy>  (12) 
97.84991616287972

>  <Genealogy>  (12) 
CC[NH+](CC)CCOCCOCCOCCOCCNc1c2ccccc2[n+](C)c2ccccc12 (protonated)
CC[NH+](CC)CCOCCOCCOCCOCCNc1c2ccccc2[n+](C)c2ccccc12 (3D coordinates assigned)
CC[NH+](CC)CCOCCOCCOCCOCCNc1c2ccccc2[n+](C)c2ccccc12 (optimized conformer: 97.84991616287972 kcal/mol)

>  <smiles>  (12) 
CCN(CC)CCOCCOCCOCCOCCNc1c2ccccc2[n+](C)c2ccccc12

>  <score_type>  (12) 
oracle

>  <origin>  (12) 
adg

>  <m_score__min__energy>  (12) 
-10.18

>  <m_primary>  (12) 
energy

$$$$
12:0
     RDKit          3D

 90 92  0  0  0  0  0  0  0  0999 V2000
    0.9530   27.6500  -23.3390 C   0  0  0  0  0  0  0  0  0  0  0  0
   -0.3120   26.7830  -23.3400 C   0  0  0  0  0  0  0  0  0  0  0  0
   -1.1910   27.0700  -24.5020 N   0  0  0  0  0  0  0  0  0  0  0  0
   -0.7530   28.2910  -25.2280 C   0  0  0  0  0  0  0  0  0  0  0  0
   -0.4350   28.0650  -26.7130 C   0  0  0  0  0  0  0  0  0  0  0  0
   -1.3350   25.8960  -25.4190 C   0  0  0  0  0  0  0  0  0  0  0  0
   -2.8050   25.5980  -25.7440 C   0  0  0  0  0  0  0  0  0  0  0  0
   -2.8650   24.9350  -26.9880 O   0  0  0  0  0  0  0  0  0  0  0  0
   -1.7110   24.1480  -27.1920 C   0  0  0  0  0  0  0  0  0  0  0  0
   -1.0750   24.5440  -28.5240 C   0  0  0  0  0  0  0  0  0  0  0  0
   -2.0360   25.1750  -29.3510 O   0  0  0  0  0  0  0  0  0  0  0  0
   -3.0010   24.2470  -29.8060 C   0  0  0  0  0  0  0  0  0  0  0  0
   -4.3760   24.9030  -29.7980 C   0  0  0  0  0  0  0  0  0  0  0  0
   -5.1420   24.3660  -30.8600 O   0  0  0  0  0  0  0  0  0  0  0  0
   -6.5260   24.4010  -30.5790 C   0  0  0  0  0  0  0  0  0  0  0  0
   -7.3190   23.5920  -31.6110 C   0  0  0  0  0  0  0  0  0  0  0  0
   -6.4300   22.9820  -32.6000 N   0  0  0  0  0  0  0  0  0  0  0  0
   -6.0530   21.5960  -32.5280 C   0  0  0  0  0  0  0  0  0  0  0  0
   -7.0370   20.5950  -32.4800 C   0  0  0  0  0  0  0  0  0  0  0  0
   -8.4030   20.9270  -32.3460 C   0  0  0  0  0  0  0  0  0  0  0  0
   -9.3720   19.9320  -32.2600 C   0  0  0  0  0  0  0  0  0  0  0  0
   -8.9990   18.5930  -32.2810 C   0  0  0  0  0  0  0  0  0  0  0  0
   -7.6550   18.2400  -32.3980 C   0  0  0  0  0  0  0  0  0  0  0  0
   -6.6460   19.2300  -32.5240 C   0  0  0  0  0  0  0  0  0  0  0  0
   -5.3120   18.8960  -32.6590 N   0  0  0  0  0  0  0  0  0  0  0  0
   -4.9270   17.5090  -32.9960 C   0  0  0  0  0  0  0  0  0  0  0  0
   -4.3380   19.8630  -32.4850 C   0  0  0  0  0  0  0  0  0  0  0  0
   -2.9730   19.5250  -32.3190 C   0  0  0  0  0  0  0  0  0  0  0  0
   -1.9890   20.5040  -32.1710 C   0  0  0  0  0  0  0  0  0  0  0  0
   -0.6630   20.0760  -31.9920 O   0  0  0  0  0  0  0  0  0  0  0  0
    0.1040   20.2090  -30.7950 C   0  0  0  0  0  0  0  0  0  0  0  0
   -0.4470   19.3510  -29.6300 C   0  0  0  0  0  0  0  0  0  0  0  0
   -0.9150   20.0950  -28.4160 N   0  0  0  0  0  0  0  0  0  0  0  0
    0.0850   21.0990  -27.9760 C   0  0  0  0  0  0  0  0  0  0  0  0
   -2.1620   20.8130  -28.7800 C   0  0  0  0  0  0  0  0  0  0  0  0
   -1.2260   19.1750  -27.2960 C   0  0  0  0  0  0  0  0  0  0  0  0
   -2.3530   21.8560  -32.2000 C   0  0  0  0  0  0  0  0  0  0  0  0
   -3.6930   22.2170  -32.3200 C   0  0  0  0  0  0  0  0  0  0  0  0
   -4.6970   21.2350  -32.4450 C   0  0  0  0  0  0  0  0  0  0  0  0
    1.2549   27.8569  -22.3017 H   0  0  0  0  0  0  0  0  0  0  0  0
    1.7635   27.1166  -23.8573 H   0  0  0  0  0  0  0  0  0  0  0  0
    0.7480   28.5983  -23.8573 H   0  0  0  0  0  0  0  0  0  0  0  0
   -0.0152   25.7243  -23.3739 H   0  0  0  0  0  0  0  0  0  0  0  0
   -0.8780   27.0125  -22.4251 H   0  0  0  0  0  0  0  0  0  0  0  0
   -2.1290   27.3210  -24.1070 H   0  0  0  0  0  0  0  0  0  0  0  0
   -1.5558   29.0397  -25.1580 H   0  0  0  0  0  0  0  0  0  0  0  0
    0.1827   28.6206  -24.7528 H   0  0  0  0  0  0  0  0  0  0  0  0
    0.4585   27.4300  -26.8041 H   0  0  0  0  0  0  0  0  0  0  0  0
   -1.2882   27.5695  -27.1994 H   0  0  0  0  0  0  0  0  0  0  0  0
   -0.2476   29.0337  -27.1994 H   0  0  0  0  0  0  0  0  0  0  0  0
   -0.8002   26.1096  -26.3562 H   0  0  0  0  0  0  0  0  0  0  0  0
   -0.9134   25.0152  -24.9125 H   0  0  0  0  0  0  0  0  0  0  0  0
   -3.2351   24.9563  -24.9609 H   0  0  0  0  0  0  0  0  0  0  0  0
   -3.3776   26.5361  -25.7899 H   0  0  0  0  0  0  0  0  0  0  0  0
   -0.9957   24.3215  -26.3745 H   0  0  0  0  0  0  0  0  0  0  0  0
   -1.9832   23.0824  -27.2096 H   0  0  0  0  0  0  0  0  0  0  0  0
   -0.2424   25.2384  -28.3380 H   0  0  0  0  0  0  0  0  0  0  0  0
   -0.7018   23.6406  -29.0286 H   0  0  0  0  0  0  0  0  0  0  0  0
   -2.7515   23.9299  -30.8293 H   0  0  0  0  0  0  0  0  0  0  0  0
   -3.0084   23.3693  -29.1430 H   0  0  0  0  0  0  0  0  0  0  0  0
   -4.8775   24.6995  -28.8403 H   0  0  0  0  0  0  0  0  0  0  0  0
   -4.2726   25.9909  -29.9237 H   0  0  0  0  0  0  0  0  0  0  0  0
   -6.7004   23.9770  -29.5791 H   0  0  0  0  0  0  0  0  0  0  0  0
   -6.8645   25.4468  -30.6199 H   0  0  0  0  0  0  0  0  0  0  0  0
   -7.8777   22.7987  -31.0929 H   0  0  0  0  0  0  0  0  0  0  0  0
   -8.0073   24.2726  -32.1335 H   0  0  0  0  0  0  0  0  0  0  0  0
   -6.0810   23.5600  -33.3980 H   0  0  0  0  0  0  0  0  0  0  0  0
   -8.7045   21.9842  -32.3092 H   0  0  0  0  0  0  0  0  0  0  0  0
  -10.4341   20.2053  -32.1753 H   0  0  0  0  0  0  0  0  0  0  0  0
   -9.7669   17.8090  -32.2050 H   0  0  0  0  0  0  0  0  0  0  0  0
   -7.3723   17.1770  -32.3925 H   0  0  0  0  0  0  0  0  0  0  0  0
   -4.7683   16.9372  -32.0698 H   0  0  0  0  0  0  0  0  0  0  0  0
   -5.7286   17.0387  -33.5845 H   0  0  0  0  0  0  0  0  0  0  0  0
   -3.9977   17.5191  -33.5845 H   0  0  0  0  0  0  0  0  0  0  0  0
   -2.6807   18.4646  -32.3064 H   0  0  0  0  0  0  0  0  0  0  0  0
    1.1377   19.8960  -31.0035 H   0  0  0  0  0  0  0  0  0  0  0  0
    0.0512   21.2627  -30.4836 H   0  0  0  0  0  0  0  0  0  0  0  0
   -1.2984   18.7709  -30.0155 H   0  0  0  0  0  0  0  0  0  0  0  0
    0.4032   18.7420  -29.2890 H   0  0  0  0  0  0  0  0  0  0  0  0
    0.1151   21.1292  -26.8768 H   0  0  0  0  0  0  0  0  0  0  0  0
    1.0770   20.8222  -28.3625 H   0  0  0  0  0  0  0  0  0  0  0  0
   -0.1957   22.0899  -28.3625 H   0  0  0  0  0  0  0  0  0  0  0  0
   -2.6905   21.1173  -27.8645 H   0  0  0  0  0  0  0  0  0  0  0  0
   -1.9117   21.7053  -29.3726 H   0  0  0  0  0  0  0  0  0  0  0  0
   -2.8080   20.1486  -29.3726 H   0  0  0  0  0  0  0  0  0  0  0  0
   -1.0520   19.6897  -26.3396 H   0  0  0  0  0  0  0  0  0  0  0  0
   -2.2792   18.8639  -27.3587 H   0  0  0  0  0  0  0  0  0  0  0  0
   -0.5775   18.2887  -27.3587 H   0  0  0  0  0  0  0  0  0  0  0  0
   -1.5792   22.6344  -32.1279 H   0  0  0  0  0  0  0  0  0  0  0  0
   -3.9713   23.2812  -32.3172 H   0  0  0  0  0  0  0  0  0  0  0  0
  1  2  1  0
  2  3  1  0
  3  4  1  0
  4  5  1  0
  3  6  1  0
  6  7  1  0
  7  8  1  0
  8  9  1  0
  9 10  1  0
 10 11  1  0
 11 12  1  0
 12 13  1  0
 13 14  1  0
 14 15  1  0
 15 16  1  0
 16 17  1  0
 17 18  1  0
 18 19  2  0
 19 20  1  0
 20 21  2  0
 21 22  1  0
 22 23  2  0
 23 24  1  0
 24 25  2  0
 25 26  1  0
 25 27  1  0
 27 28  2  0
 28 29  1  0
 29 30  1  0
 30 31  1  0
 31 32  1  0
 32 33  1  0
 33 34  1  0
 33 35  1  0
 33 36  1  0
 29 37  2  0
 37 38  1  0
 38 39  2  0
 39 18  1  0
 24 19  1  0
 39 27  1  0
  1 40  1  0
  1 41  1  0
  1 42  1  0
  2 43  1  0
  2 44  1  0
  3 45  1  0
  4 46  1  0
  4 47  1  0
  5 48  1  0
  5 49  1  0
  5 50  1  0
  6 51  1  0
  6 52  1  0
  7 53  1  0
  7 54  1  0
  9 55  1  0
  9 56  1  0
 10 57  1  0
 10 58  1  0
 12 59  1  0
 12 60  1  0
 13 61  1  0
 13 62  1  0
 15 63  1  0
 15 64  1  0
 16 65  1  0
 16 66  1  0
 17 67  1  0
 20 68  1  0
 21 69  1  0
 22 70  1  0
 23 71  1  0
 26 72  1  0
 26 73  1  0
 26 74  1  0
 28 75  1  0
 31 76  1  0
 31 77  1  0
 32 78  1  0
 32 79  1  0
 34 80  1  0
 34 81  1  0
 34 82  1  0
 35 83  1  0
 35 84  1  0
 35 85  1  0
 36 86  1  0
 36 87  1  0
 36 88  1  0
 37 89  1  0
 38 90  1  0
M  CHG  3   3   1  25   1  33   1
M  END
>  <UniqueID>  (13) 
13

>  <SMILES>  (13) 
CC[NH+](CC)CCOCCOCCOCCNc1c2ccccc2[n+](C)c2cc(OCC[N+](C)(C)C)ccc12

>  <Energy>  (13) 
121.99101138594105

>  <Genealogy>  (13) 
CC[NH+](CC)CCOCCOCCOCCNc1c2ccccc2[n+](C)c2cc(OCC[N+](C)(C)C)ccc12 (protonated)
CC[NH+](CC)CCOCCOCCOCCNc1c2ccccc2[n+](C)c2cc(OCC[N+](C)(C)C)ccc12 (3D coordinates assigned)
CC[NH+](CC)CCOCCOCCOCCNc1c2ccccc2[n+](C)c2cc(OCC[N+](C)(C)C)ccc12 (optimized conformer: 121.99101138594105 kcal/mol)

>  <smiles>  (13) 
CCN(CC)CCOCCOCCOCCNc1c2ccccc2[n+](C)c2cc(OCC[N+](C)(C)C)ccc12

>  <score_type>  (13) 
oracle

>  <origin>  (13) 
adg

>  <m_score__min__energy>  (13) 
-9.3800000000000008

>  <m_primary>  (13) 
energy

$$$$
13:0
     RDKit          3D

 42 43  0  0  0  0  0  0  0  0999 V2000
    0.9290   28.9310  -24.3030 C   0  0  0  0  0  0  0  0  0  0  0  0
    1.6650   27.6380  -23.9440 C   0  0  0  0  0  0  0  0  0  0  0  0
    0.9000   26.8080  -22.9870 N   0  0  0  0  0  0  0  0  0  0  0  0
   -0.5360   26.7210  -23.3100 C   0  0  0  0  0  0  0  0  0  0  0  0
   -0.7930   25.8990  -24.5490 C   0  0  0  0  0  0  0  0  0  0  0  0
   -0.4980   24.5270  -24.5590 C   0  0  0  0  0  0  0  0  0  0  0  0
   -0.7060   23.7690  -25.7150 C   0  0  0  0  0  0  0  0  0  0  0  0
   -1.2000   24.3730  -26.8810 C   0  0  0  0  0  0  0  0  0  0  0  0
   -1.4350   23.5700  -28.1040 C   0  0  0  0  0  0  0  0  0  0  0  0
   -0.3450   22.9220  -28.7110 C   0  0  0  0  0  0  0  0  0  0  0  0
   -0.5180   22.1960  -29.8910 C   0  0  0  0  0  0  0  0  0  0  0  0
   -1.7790   22.1110  -30.4810 C   0  0  0  0  0  0  0  0  0  0  0  0
   -2.8740   22.7390  -29.8850 C   0  0  0  0  0  0  0  0  0  0  0  0
   -2.7190   23.4510  -28.6890 C   0  0  0  0  0  0  0  0  0  0  0  0
   -4.1830   24.1870  -27.9330 S   0  0  0  0  0  0  0  0  0  0  0  0
   -5.2930   23.9460  -29.3700 C   0  0  0  0  0  0  0  0  0  0  0  0
   -5.3810   25.1890  -30.2540 C   0  0  0  0  0  0  0  0  0  0  0  0
   -4.0980   25.6110  -30.6240 O   0  0  0  0  0  0  0  0  0  0  0  0
   -1.5140   25.7420  -26.8650 C   0  0  0  0  0  0  0  0  0  0  0  0
   -1.3030   26.5010  -25.7100 C   0  0  0  0  0  0  0  0  0  0  0  0
    0.6323   29.4522  -23.3808 H   0  0  0  0  0  0  0  0  0  0  0  0
    1.5934   29.5794  -24.8931 H   0  0  0  0  0  0  0  0  0  0  0  0
    0.0323   28.6908  -24.8931 H   0  0  0  0  0  0  0  0  0  0  0  0
    1.8305   27.0573  -24.8635 H   0  0  0  0  0  0  0  0  0  0  0  0
    2.6178   27.9123  -23.4675 H   0  0  0  0  0  0  0  0  0  0  0  0
    1.3070   25.8470  -22.9010 H   0  0  0  0  0  0  0  0  0  0  0  0
    0.9760   27.2510  -22.0410 H   0  0  0  0  0  0  0  0  0  0  0  0
   -1.0623   26.2580  -22.4623 H   0  0  0  0  0  0  0  0  0  0  0  0
   -0.9018   27.7409  -23.4997 H   0  0  0  0  0  0  0  0  0  0  0  0
   -0.1012   24.0458  -23.6529 H   0  0  0  0  0  0  0  0  0  0  0  0
   -0.4810   22.6923  -25.7104 H   0  0  0  0  0  0  0  0  0  0  0  0
    0.6527   22.9875  -28.2524 H   0  0  0  0  0  0  0  0  0  0  0  0
    0.3412   21.6904  -30.3559 H   0  0  0  0  0  0  0  0  0  0  0  0
   -1.9108   21.5484  -31.4170 H   0  0  0  0  0  0  0  0  0  0  0  0
   -3.8651   22.6742  -30.3578 H   0  0  0  0  0  0  0  0  0  0  0  0
   -4.9120   23.1094  -29.9741 H   0  0  0  0  0  0  0  0  0  0  0  0
   -6.3015   23.7380  -28.9831 H   0  0  0  0  0  0  0  0  0  0  0  0
   -5.9603   24.9514  -31.1584 H   0  0  0  0  0  0  0  0  0  0  0  0
   -5.8758   25.9948  -29.6921 H   0  0  0  0  0  0  0  0  0  0  0  0
   -4.1010   25.6650  -31.6150 H   0  0  0  0  0  0  0  0  0  0  0  0
   -1.9279   26.2192  -27.7655 H   0  0  0  0  0  0  0  0  0  0  0  0
   -1.5379   27.5756  -25.7111 H   0  0  0  0  0  0  0  0  0  0  0  0
  1  2  1  0
  2  3  1  0
  3  4  1  0
  4  5  1  0
  5  6  2  0
  6  7  1  0
  7  8  2  0
  8  9  1  0
  9 10  2  0
 10 11  1  0
 11 12  2  0
 12 13  1  0
 13 14  2  0
 14 15  1  0
 15 16  1  0
 16 17  1  0
 17 18  1  0
  8 19  1  0
 19 20  2  0
 20  5  1  0
 14  9  1  0
  1 21  1  0
  1 22  1  0
  1 23  1  0
  2 24  1  0
  2 25  1  0
  3 26  1  0
  3 27  1  0
  4 28  1  0
  4 29  1  0
  6 30  1  0
  7 31  1  0
 10 32  1  0
 11 33  1  0
 12 34  1  0
 13 35  1  0
 16 36  1  0
 16 37  1  0
 17 38  1  0
 17 39  1  0
 18 40  1  0
 19 41  1  0
 20 42  1  0
M  CHG  1   3   1
M  END
>  <UniqueID>  (14) 
14

>  <SMILES>  (14) 
CC[NH2+]Cc1ccc(-c2ccccc2SCCO)cc1

>  <Energy>  (14) 
41.75190027092398

>  <Genealogy>  (14) 
CC[NH2+]Cc1ccc(-c2ccccc2SCCO)cc1 (protonated)
CC[NH2+]Cc1ccc(-c2ccccc2SCCO)cc1 (3D coordinates assigned)
CC[NH2+]Cc1ccc(-c2ccccc2SCCO)cc1 (optimized conformer: 41.75190027092398 kcal/mol)

>  <smiles>  (14) 
CCNCc1ccc(-c2ccccc2SCCO)cc1

>  <score_type>  (14) 
oracle

>  <origin>  (14) 
adg

>  <m_score__min__energy>  (14) 
-8.25

>  <m_primary>  (14) 
energy

$$$$
14:0
     RDKit          3D

 74 77  0  0  0  0  0  0  0  0999 V2000
   -0.5040   23.1190  -29.3700 C   0  0  0  0  0  0  0  0  0  0  0  0
   -1.6650   24.0860  -29.1850 C   0  0  0  0  0  0  0  0  0  0  0  0
   -2.0890   24.0710  -27.7660 N   0  0  0  0  0  0  0  0  0  0  0  0
   -1.5020   25.2060  -27.0150 C   0  0  0  0  0  0  0  0  0  0  0  0
   -2.3440   25.6570  -25.8080 C   0  0  0  0  0  0  0  0  0  0  0  0
   -3.5560   23.9900  -27.5950 C   0  0  0  0  0  0  0  0  0  0  0  0
   -4.0840   22.5710  -27.8540 C   0  0  0  0  0  0  0  0  0  0  0  0
   -3.0890   21.7080  -28.3750 O   0  0  0  0  0  0  0  0  0  0  0  0
   -2.3810   21.0510  -27.3410 C   0  0  0  0  0  0  0  0  0  0  0  0
   -1.5760   19.8650  -27.8940 C   0  0  0  0  0  0  0  0  0  0  0  0
   -1.4400   19.9190  -29.3060 O   0  0  0  0  0  0  0  0  0  0  0  0
   -0.1140   19.6110  -29.6990 C   0  0  0  0  0  0  0  0  0  0  0  0
   -0.1220   19.0330  -31.1190 C   0  0  0  0  0  0  0  0  0  0  0  0
   -1.2780   19.4340  -31.8310 O   0  0  0  0  0  0  0  0  0  0  0  0
   -0.9630   20.4910  -32.7180 C   0  0  0  0  0  0  0  0  0  0  0  0
   -2.0510   21.5650  -32.6650 C   0  0  0  0  0  0  0  0  0  0  0  0
   -3.0630   21.2500  -31.6500 N   0  0  0  0  0  0  0  0  0  0  0  0
   -4.4570   21.4630  -31.9210 C   0  0  0  0  0  0  0  0  0  0  0  0
   -5.1490   22.5980  -31.4320 C   0  0  0  0  0  0  0  0  0  0  0  0
   -4.4640   23.6770  -30.8450 C   0  0  0  0  0  0  0  0  0  0  0  0
   -5.1540   24.7990  -30.3920 C   0  0  0  0  0  0  0  0  0  0  0  0
   -6.5380   24.8590  -30.4950 C   0  0  0  0  0  0  0  0  0  0  0  0
   -7.2500   23.8050  -31.0560 C   0  0  0  0  0  0  0  0  0  0  0  0
   -6.5840   22.6490  -31.5270 C   0  0  0  0  0  0  0  0  0  0  0  0
   -7.2880   21.5860  -32.0580 N   0  0  0  0  0  0  0  0  0  0  0  0
   -8.7610   21.5260  -31.9840 C   0  0  0  0  0  0  0  0  0  0  0  0
   -6.5850   20.5690  -32.6450 C   0  0  0  0  0  0  0  0  0  0  0  0
   -7.1060   19.5310  -33.3470 N   0  0  0  0  0  0  0  0  0  0  0  0
   -6.0370   18.8110  -33.7490 C   0  0  0  0  0  0  0  0  0  0  0  0
   -6.0550   17.6470  -34.5240 C   0  0  0  0  0  0  0  0  0  0  0  0
   -4.8210   17.0650  -34.8670 C   0  0  0  0  0  0  0  0  0  0  0  0
   -3.6130   17.6570  -34.4490 C   0  0  0  0  0  0  0  0  0  0  0  0
   -3.6190   18.8340  -33.6800 C   0  0  0  0  0  0  0  0  0  0  0  0
   -4.8570   19.3750  -33.3200 C   0  0  0  0  0  0  0  0  0  0  0  0
   -5.2080   20.5080  -32.5990 C   0  0  0  0  0  0  0  0  0  0  0  0
   -0.1275   22.8054  -28.3852 H   0  0  0  0  0  0  0  0  0  0  0  0
   -0.8476   22.2363  -29.9293 H   0  0  0  0  0  0  0  0  0  0  0  0
    0.3020   23.6165  -29.9293 H   0  0  0  0  0  0  0  0  0  0  0  0
   -1.3462   25.1014  -29.4631 H   0  0  0  0  0  0  0  0  0  0  0  0
   -2.5058   23.7813  -29.8255 H   0  0  0  0  0  0  0  0  0  0  0  0
   -0.5089   24.9039  -26.6510 H   0  0  0  0  0  0  0  0  0  0  0  0
   -1.4561   26.0584  -27.7088 H   0  0  0  0  0  0  0  0  0  0  0  0
   -1.8277   25.3804  -24.8769 H   0  0  0  0  0  0  0  0  0  0  0  0
   -2.4789   26.7482  -25.8423 H   0  0  0  0  0  0  0  0  0  0  0  0
   -3.3271   25.1647  -25.8423 H   0  0  0  0  0  0  0  0  0  0  0  0
   -3.8110   24.2822  -26.5656 H   0  0  0  0  0  0  0  0  0  0  0  0
   -4.0229   24.6668  -28.3258 H   0  0  0  0  0  0  0  0  0  0  0  0
   -4.4518   22.1530  -26.9053 H   0  0  0  0  0  0  0  0  0  0  0  0
   -4.8870   22.6449  -28.6021 H   0  0  0  0  0  0  0  0  0  0  0  0
   -1.6910   21.7648  -26.8674 H   0  0  0  0  0  0  0  0  0  0  0  0
   -3.1058   20.6710  -26.6059 H   0  0  0  0  0  0  0  0  0  0  0  0
   -0.5736   19.8758  -27.4412 H   0  0  0  0  0  0  0  0  0  0  0  0
   -2.1198   18.9424  -27.6429 H   0  0  0  0  0  0  0  0  0  0  0  0
    0.4960   20.5261  -29.6792 H   0  0  0  0  0  0  0  0  0  0  0  0
    0.3113   18.8712  -29.0048 H   0  0  0  0  0  0  0  0  0  0  0  0
    0.7703   19.3880  -31.6554 H   0  0  0  0  0  0  0  0  0  0  0  0
   -0.1218   17.9354  -31.0471 H   0  0  0  0  0  0  0  0  0  0  0  0
    0.0006   20.9348  -32.4272 H   0  0  0  0  0  0  0  0  0  0  0  0
   -0.8990   20.0942  -33.7419 H   0  0  0  0  0  0  0  0  0  0  0  0
   -1.5878   22.5324  -32.4209 H   0  0  0  0  0  0  0  0  0  0  0  0
   -2.5455   21.6067  -33.6467 H   0  0  0  0  0  0  0  0  0  0  0  0
   -2.7780   20.6360  -30.8530 H   0  0  0  0  0  0  0  0  0  0  0  0
   -3.3696   23.6343  -30.7423 H   0  0  0  0  0  0  0  0  0  0  0  0
   -4.6006   25.6411  -29.9508 H   0  0  0  0  0  0  0  0  0  0  0  0
   -7.0746   25.7472  -30.1299 H   0  0  0  0  0  0  0  0  0  0  0  0
   -8.3452   23.8706  -31.1347 H   0  0  0  0  0  0  0  0  0  0  0  0
   -9.0749   21.5132  -30.9298 H   0  0  0  0  0  0  0  0  0  0  0  0
   -9.1894   22.4074  -32.4835 H   0  0  0  0  0  0  0  0  0  0  0  0
   -9.1163   20.6126  -32.4835 H   0  0  0  0  0  0  0  0  0  0  0  0
   -8.1000   19.3360  -33.5880 H   0  0  0  0  0  0  0  0  0  0  0  0
   -7.0043   17.2005  -34.8550 H   0  0  0  0  0  0  0  0  0  0  0  0
   -4.7993   16.1421  -35.4652 H   0  0  0  0  0  0  0  0  0  0  0  0
   -2.6550   17.1935  -34.7272 H   0  0  0  0  0  0  0  0  0  0  0  0
   -2.6789   19.3144  -33.3711 H   0  0  0  0  0  0  0  0  0  0  0  0
  1  2  1  0
  2  3  1  0
  3  4  1  0
  4  5  1  0
  3  6  1  0
  6  7  1  0
  7  8  1  0
  8  9  1  0
  9 10  1  0
 10 11  1  0
 11 12  1  0
 12 13  1  0
 13 14  1  0
 14 15  1  0
 15 16  1  0
 16 17  1  0
 17 18  1  0
 18 19  2  0
 19 20  1  0
 20 21  2  0
 21 22  1  0
 22 23  2  0
 23 24  1  0
 24 25  2  0
 25 26  1  0
 25 27  1  0
 27 28  1  0
 28 29  1  0
 29 30  2  0
 30 31  1  0
 31 32  2  0
 32 33  1  0
 33 34  2  0
 34 35  1  0
 35 18  1  0
 24 19  1  0
 35 27  2  0
 34 29  1  0
  1 36  1  0
  1 37  1  0
  1 38  1  0
  2 39  1  0
  2 40  1  0
  4 41  1  0
  4 42  1  0
  5 43  1  0
  5 44  1  0
  5 45  1  0
  6 46  1  0
  6 47  1  0
  7 48  1  0
  7 49  1  0
  9 50  1  0
  9 51  1  0
 10 52  1  0
 10 53  1  0
 12 54  1  0
 12 55  1  0
 13 56  1  0
 13 57  1  0
 15 58  1  0
 15 59  1  0
 16 60  1  0
 16 61  1  0
 17 62  1  0
 20 63  1  0
 21 64  1  0
 22 65  1  0
 23 66  1  0
 26 67  1  0
 26 68  1  0
 26 69  1  0
 28 70  1  0
 30 71  1  0
 31 72  1  0
 32 73  1  0
 33 74  1  0
M  CHG  1  25   1
M  END
>  <UniqueID>  (15) 
15

>  <SMILES>  (15) 
CCN(CC)CCOCCOCCOCCNc1c2ccccc2[n+](C)c2[nH]c3ccccc3c12

>  <Energy>  (15) 
141.19593175218805

>  <Genealogy>  (15) 
CCN(CC)CCOCCOCCOCCNc1c2ccccc2[n+](C)c2[nH]c3ccccc3c12 (3D coordinates assigned)
CCN(CC)CCOCCOCCOCCNc1c2ccccc2[n+](C)c2[nH]c3ccccc3c12 (optimized conformer: 141.19593175218805 kcal/mol)

>  <smiles>  (15) 
CCN(CC)CCOCCOCCOCCNc1c2ccccc2[n+](C)c2[nH]c3ccccc3c12

>  <score_type>  (15) 
oracle

>  <origin>  (15) 
adg

>  <m_score__min__energy>  (15) 
-9.9499999999999993

>  <m_primary>  (15) 
energy

$$$$
15:0
     RDKit          3D

 43 44  0  0  0  0  0  0  0  0999 V2000
   -3.4960   21.9600  -29.9830 C   0  0  0  0  0  0  0  0  0  0  0  0
   -2.9490   23.3220  -30.4430 C   0  0  0  0  0  0  0  0  0  0  0  0
   -3.2660   24.4670  -29.5490 N   0  0  0  0  0  0  0  0  0  0  0  0
   -2.2050   24.7950  -28.5710 C   0  0  0  0  0  0  0  0  0  0  0  0
   -2.6140   24.5580  -27.1150 C   0  0  0  0  0  0  0  0  0  0  0  0
   -4.6330   24.5130  -28.9870 C   0  0  0  0  0  0  0  0  0  0  0  0
   -5.4960   25.5330  -29.7350 C   0  0  0  0  0  0  0  0  0  0  0  0
   -7.1550   24.8580  -30.1080 S   0  0  0  0  0  0  0  0  0  0  0  0
   -6.5490   23.5920  -31.2290 C   0  0  0  0  0  0  0  0  0  0  0  0
   -5.5510   23.8040  -32.1100 N   0  0  0  0  0  0  0  0  0  0  0  0
   -5.3500   22.6490  -32.7210 N   0  0  0  0  0  0  0  0  0  0  0  0
   -6.2240   21.7510  -32.2290 C   0  0  0  0  0  0  0  0  0  0  0  0
   -6.2800   20.3400  -32.6680 C   0  0  0  0  0  0  0  0  0  0  0  0
   -5.1560   19.7090  -33.2260 C   0  0  0  0  0  0  0  0  0  0  0  0
   -5.2230   18.3700  -33.6250 C   0  0  0  0  0  0  0  0  0  0  0  0
   -6.4090   17.6480  -33.4620 C   0  0  0  0  0  0  0  0  0  0  0  0
   -6.4990   15.8200  -34.0060 Br  0  0  0  0  0  0  0  0  0  0  0  0
   -7.5270   18.2640  -32.8910 C   0  0  0  0  0  0  0  0  0  0  0  0
   -7.4620   19.6030  -32.4900 C   0  0  0  0  0  0  0  0  0  0  0  0
   -6.9920   22.3160  -31.2710 N   0  0  0  0  0  0  0  0  0  0  0  0
   -8.0720   21.7170  -30.4870 C   0  0  0  0  0  0  0  0  0  0  0  0
   -3.5108   21.9231  -28.8837 H   0  0  0  0  0  0  0  0  0  0  0  0
   -4.5176   21.8261  -30.3682 H   0  0  0  0  0  0  0  0  0  0  0  0
   -2.8508   21.1567  -30.3682 H   0  0  0  0  0  0  0  0  0  0  0  0
   -1.8545   23.2414  -30.5174 H   0  0  0  0  0  0  0  0  0  0  0  0
   -3.4403   23.5395  -31.4029 H   0  0  0  0  0  0  0  0  0  0  0  0
   -1.3259   24.1713  -28.7905 H   0  0  0  0  0  0  0  0  0  0  0  0
   -1.9943   25.8697  -28.6743 H   0  0  0  0  0  0  0  0  0  0  0  0
   -1.8585   24.9958  -26.4460 H   0  0  0  0  0  0  0  0  0  0  0  0
   -3.5890   25.0311  -26.9264 H   0  0  0  0  0  0  0  0  0  0  0  0
   -2.6884   23.4769  -26.9264 H   0  0  0  0  0  0  0  0  0  0  0  0
   -5.0929   23.5177  -29.0759 H   0  0  0  0  0  0  0  0  0  0  0  0
   -4.5693   24.8132  -27.9307 H   0  0  0  0  0  0  0  0  0  0  0  0
   -5.6075   26.4327  -29.1121 H   0  0  0  0  0  0  0  0  0  0  0  0
   -4.9992   25.7757  -30.6859 H   0  0  0  0  0  0  0  0  0  0  0  0
   -4.6360   22.4910  -33.4670 H   0  0  0  0  0  0  0  0  0  0  0  0
   -4.2183   20.2706  -33.3498 H   0  0  0  0  0  0  0  0  0  0  0  0
   -4.3410   17.8843  -34.0678 H   0  0  0  0  0  0  0  0  0  0  0  0
   -8.4589   17.6951  -32.7569 H   0  0  0  0  0  0  0  0  0  0  0  0
   -8.3412   20.0807  -32.0330 H   0  0  0  0  0  0  0  0  0  0  0  0
   -7.8566   21.8364  -29.4149 H   0  0  0  0  0  0  0  0  0  0  0  0
   -9.0214   22.2175  -30.7283 H   0  0  0  0  0  0  0  0  0  0  0  0
   -8.1501   20.6466  -30.7283 H   0  0  0  0  0  0  0  0  0  0  0  0
  1  2  1  0
  2  3  1  0
  3  4  1  0
  4  5  1  0
  3  6  1  0
  6  7  1  0
  7  8  1  0
  8  9  1  0
  9 10  2  0
 10 11  1  0
 11 12  2  0
 12 13  1  0
 13 14  2  0
 14 15  1  0
 15 16  2  0
 16 17  1  0
 16 18  1  0
 18 19  2  0
 12 20  1  0
 20 21  1  0
 20  9  1  0
 19 13  1  0
  1 22  1  0
  1 23  1  0
  1 24  1  0
  2 25  1  0
  2 26  1  0
  4 27  1  0
  4 28  1  0
  5 29  1  0
  5 30  1  0
  5 31  1  0
  6 32  1  0
  6 33  1  0
  7 34  1  0
  7 35  1  0
 11 36  1  0
 14 37  1  0
 15 38  1  0
 18 39  1  0
 19 40  1  0
 21 41  1  0
 21 42  1  0
 21 43  1  0
M  CHG  1  11   1
M  END
>  <UniqueID>  (16) 
16

>  <SMILES>  (16) 
CCN(CC)CCSc1n[nH+]c(-c2ccc(Br)cc2)n1C

>  <Energy>  (16) 
81.70644675498458

>  <Genealogy>  (16) 
CCN(CC)CCSc1n[nH+]c(-c2ccc(Br)cc2)n1C (protonated)
CCN(CC)CCSc1n[nH+]c(-c2ccc(Br)cc2)n1C (3D coordinates assigned)
CCN(CC)CCSc1n[nH+]c(-c2ccc(Br)cc2)n1C (optimized conformer: 81.70644675498458 kcal/mol)

>  <smiles>  (16) 
CCN(CC)CCSc1nnc(-c2ccc(Br)cc2)n1C

>  <score_type>  (16) 
oracle

>  <origin>  (16) 
adg

>  <m_score__min__energy>  (16) 
-7.54

>  <m_primary>  (16) 
energy

$$$$
16:0
     RDKit          3D

 75 78  0  0  0  0  0  0  0  0999 V2000
    0.2750   21.4270  -35.7740 C   0  0  0  0  0  0  0  0  0  0  0  0
    0.7410   21.4140  -34.3190 C   0  0  0  0  0  0  0  0  0  0  0  0
    0.2020   20.2440  -33.5930 N   0  0  0  0  0  0  0  0  0  0  0  0
    0.0590   20.5170  -32.1390 C   0  0  0  0  0  0  0  0  0  0  0  0
   -1.0960   19.7250  -31.5100 C   0  0  0  0  0  0  0  0  0  0  0  0
   -2.4020   20.0630  -32.1260 N   0  0  0  0  0  0  0  0  0  0  0  0
   -3.1030   21.1280  -31.3720 C   0  0  0  0  0  0  0  0  0  0  0  0
   -3.8530   22.1060  -32.3040 C   0  0  0  0  0  0  0  0  0  0  0  0
   -4.6300   23.1440  -31.5920 N   0  0  0  0  0  0  0  0  0  0  0  0
   -5.7670   23.7280  -32.3350 C   0  0  0  0  0  0  0  0  0  0  0  0
   -7.1330   23.0780  -31.9990 C   0  0  0  0  0  0  0  0  0  0  0  0
   -7.0970   22.2540  -30.7740 N   0  0  0  0  0  0  0  0  0  0  0  0
   -8.4740   21.9540  -30.3250 C   0  0  0  0  0  0  0  0  0  0  0  0
   -9.5040   22.0870  -31.4600 C   0  0  0  0  0  0  0  0  0  0  0  0
   -9.5580   20.8770  -32.2830 N   0  0  0  0  0  0  0  0  0  0  0  0
   -8.5350   19.8640  -32.3340 C   0  0  0  0  0  0  0  0  0  0  0  0
   -8.5660   18.7260  -31.5030 C   0  0  0  0  0  0  0  0  0  0  0  0
   -7.5370   17.7820  -31.5600 C   0  0  0  0  0  0  0  0  0  0  0  0
   -6.4730   17.9530  -32.4540 C   0  0  0  0  0  0  0  0  0  0  0  0
   -6.4420   19.0670  -33.2980 C   0  0  0  0  0  0  0  0  0  0  0  0
   -7.4630   20.0250  -33.2250 C   0  0  0  0  0  0  0  0  0  0  0  0
   -5.2350   19.2940  -34.1690 C   0  0  0  0  0  0  0  0  0  0  0  0
   -4.5810   17.9830  -34.6780 C   0  0  0  0  0  0  0  0  0  0  0  0
   -4.9850   16.7610  -33.9340 N   0  0  0  0  0  0  0  0  0  0  0  0
   -4.0530   15.6280  -34.1390 C   0  0  0  0  0  0  0  0  0  0  0  0
   -2.6130   15.9070  -33.6770 C   0  0  0  0  0  0  0  0  0  0  0  0
   -5.3270   16.9910  -32.5200 C   0  0  0  0  0  0  0  0  0  0  0  0
   -6.3110   22.9450  -29.7410 C   0  0  0  0  0  0  0  0  0  0  0  0
   -4.8360   22.9030  -30.1440 C   0  0  0  0  0  0  0  0  0  0  0  0
   -2.2960   20.3840  -33.5730 C   0  0  0  0  0  0  0  0  0  0  0  0
   -1.0510   19.7550  -34.2180 C   0  0  0  0  0  0  0  0  0  0  0  0
   -0.8241   21.4577  -35.8067 H   0  0  0  0  0  0  0  0  0  0  0  0
    0.6818   22.3141  -36.2814 H   0  0  0  0  0  0  0  0  0  0  0  0
    0.6317   20.5186  -36.2814 H   0  0  0  0  0  0  0  0  0  0  0  0
    1.8401   21.3755  -34.2950 H   0  0  0  0  0  0  0  0  0  0  0  0
    0.3729   22.3271  -33.8282 H   0  0  0  0  0  0  0  0  0  0  0  0
    0.9954   20.2396  -31.6329 H   0  0  0  0  0  0  0  0  0  0  0  0
   -0.1606   21.5879  -32.0170 H   0  0  0  0  0  0  0  0  0  0  0  0
   -0.9060   18.6503  -31.6476 H   0  0  0  0  0  0  0  0  0  0  0  0
   -1.1459   19.9869  -30.4428 H   0  0  0  0  0  0  0  0  0  0  0  0
   -3.8293   20.6604  -30.6909 H   0  0  0  0  0  0  0  0  0  0  0  0
   -2.3467   21.7029  -30.8175 H   0  0  0  0  0  0  0  0  0  0  0  0
   -3.1134   22.6075  -32.9454 H   0  0  0  0  0  0  0  0  0  0  0  0
   -4.5757   21.5064  -32.8769 H   0  0  0  0  0  0  0  0  0  0  0  0
   -5.8245   24.7999  -32.0948 H   0  0  0  0  0  0  0  0  0  0  0  0
   -5.5793   23.5457  -33.4034 H   0  0  0  0  0  0  0  0  0  0  0  0
   -7.8765   23.8770  -31.8617 H   0  0  0  0  0  0  0  0  0  0  0  0
   -7.3936   22.4119  -32.8347 H   0  0  0  0  0  0  0  0  0  0  0  0
   -8.5034   20.9238  -29.9404 H   0  0  0  0  0  0  0  0  0  0  0  0
   -8.7386   22.6835  -29.5454 H   0  0  0  0  0  0  0  0  0  0  0  0
  -10.4971   22.2654  -31.0218 H   0  0  0  0  0  0  0  0  0  0  0  0
   -9.2016   22.9271  -32.1025 H   0  0  0  0  0  0  0  0  0  0  0  0
  -10.3890   20.7640  -32.9050 H   0  0  0  0  0  0  0  0  0  0  0  0
   -9.4044   18.5801  -30.8060 H   0  0  0  0  0  0  0  0  0  0  0  0
   -7.5631   16.9020  -30.9005 H   0  0  0  0  0  0  0  0  0  0  0  0
   -7.4233   20.9127  -33.8734 H   0  0  0  0  0  0  0  0  0  0  0  0
   -5.5424   19.8904  -35.0406 H   0  0  0  0  0  0  0  0  0  0  0  0
   -4.4847   19.8104  -33.5522 H   0  0  0  0  0  0  0  0  0  0  0  0
   -4.8578   17.8490  -35.7341 H   0  0  0  0  0  0  0  0  0  0  0  0
   -3.4973   18.0960  -34.5272 H   0  0  0  0  0  0  0  0  0  0  0  0
   -4.4339   14.7618  -33.5781 H   0  0  0  0  0  0  0  0  0  0  0  0
   -4.0084   15.4466  -35.2230 H   0  0  0  0  0  0  0  0  0  0  0  0
   -2.5755   15.9143  -32.5777 H   0  0  0  0  0  0  0  0  0  0  0  0
   -1.9459   15.1214  -34.0614 H   0  0  0  0  0  0  0  0  0  0  0  0
   -2.2876   16.8849  -34.0614 H   0  0  0  0  0  0  0  0  0  0  0  0
   -5.6148   16.0394  -32.0492 H   0  0  0  0  0  0  0  0  0  0  0  0
   -4.4586   17.4051  -31.9867 H   0  0  0  0  0  0  0  0  0  0  0  0
   -6.6436   23.9903  -29.6590 H   0  0  0  0  0  0  0  0  0  0  0  0
   -6.4500   22.4507  -28.7682 H   0  0  0  0  0  0  0  0  0  0  0  0
   -4.2948   23.6758  -29.5784 H   0  0  0  0  0  0  0  0  0  0  0  0
   -4.4593   21.8943  -29.9188 H   0  0  0  0  0  0  0  0  0  0  0  0
   -3.1913   20.0038  -34.0866 H   0  0  0  0  0  0  0  0  0  0  0  0
   -2.2115   21.4764  -33.6710 H   0  0  0  0  0  0  0  0  0  0  0  0
   -1.1037   18.6624  -34.1017 H   0  0  0  0  0  0  0  0  0  0  0  0
   -1.0362   20.0402  -35.2803 H   0  0  0  0  0  0  0  0  0  0  0  0
  1  2  1  0
  2  3  1  0
  3  4  1  0
  4  5  1  0
  5  6  1  0
  6  7  1  0
  7  8  1  0
  8  9  1  0
  9 10  1  0
 10 11  1  0
 11 12  1  0
 12 13  1  0
 13 14  1  0
 14 15  1  0
 15 16  1  0
 16 17  2  0
 17 18  1  0
 18 19  2  0
 19 20  1  0
 20 21  2  0
 20 22  1  0
 22 23  1  0
 23 24  1  0
 24 25  1  0
 25 26  1  0
 24 27  1  0
 12 28  1  0
 28 29  1  0
  6 30  1  0
 30 31  1  0
 31  3  1  0
 29  9  1  0
 21 16  1  0
 27 19  1  0
  1 32  1  0
  1 33  1  0
  1 34  1  0
  2 35  1  0
  2 36  1  0
  4 37  1  0
  4 38  1  0
  5 39  1  0
  5 40  1  0
  7 41  1  0
  7 42  1  0
  8 43  1  0
  8 44  1  0
 10 45  1  0
 10 46  1  0
 11 47  1  0
 11 48  1  0
 13 49  1  0
 13 50  1  0
 14 51  1  0
 14 52  1  0
 15 53  1  0
 17 54  1  0
 18 55  1  0
 21 56  1  0
 22 57  1  0
 22 58  1  0
 23 59  1  0
 23 60  1  0
 25 61  1  0
 25 62  1  0
 26 63  1  0
 26 64  1  0
 26 65  1  0
 27 66  1  0
 27 67  1  0
 28 68  1  0
 28 69  1  0
 29 70  1  0
 29 71  1  0
 30 72  1  0
 30 73  1  0
 31 74  1  0
 31 75  1  0
M  END
>  <UniqueID>  (17) 
17

>  <SMILES>  (17) 
CCN1CCN(CCN2CCN(CCNc3ccc4c(c3)CCN(CC)C4)CC2)CC1

>  <Energy>  (17) 
105.56839440348809

>  <Genealogy>  (17) 
CCN1CCN(CCN2CCN(CCNc3ccc4c(c3)CCN(CC)C4)CC2)CC1 (3D coordinates assigned)
CCN1CCN(CCN2CCN(CCNc3ccc4c(c3)CCN(CC)C4)CC2)CC1 (nonaromatic ring conformer: 105.56839440348809 kcal/mol)

>  <smiles>  (17) 
CCN1CCN(CCN2CCN(CCNc3ccc4c(c3)CCN(CC)C4)CC2)CC1

>  <score_type>  (17) 
oracle

>  <origin>  (17) 
adg

>  <m_score__min__energy>  (17) 
-9.2100000000000009

>  <m_primary>  (17) 
energy

$$$$
17:0
     RDKit          3D

 58 61  0  0  0  0  0  0  0  0999 V2000
   -1.7160   25.1310  -28.5800 C   0  0  0  0  0  0  0  0  0  0  0  0
   -2.9100   24.3930  -29.1750 C   0  0  0  0  0  0  0  0  0  0  0  0
   -3.5050   25.1570  -30.2210 O   0  0  0  0  0  0  0  0  0  0  0  0
   -4.8660   25.0920  -30.5480 C   0  0  0  0  0  0  0  0  0  0  0  0
   -5.6070   26.0990  -30.3770 O   0  0  0  0  0  0  0  0  0  0  0  0
   -5.4350   23.8360  -31.0820 C   0  0  0  0  0  0  0  0  0  0  0  0
   -6.6330   23.8550  -31.8170 C   0  0  0  0  0  0  0  0  0  0  0  0
   -7.1690   22.6710  -32.3290 C   0  0  0  0  0  0  0  0  0  0  0  0
   -6.5250   21.4440  -32.1080 C   0  0  0  0  0  0  0  0  0  0  0  0
   -7.0700   20.2260  -32.6510 N   0  0  0  0  0  0  0  0  0  0  0  0
   -8.3370   19.6760  -32.1610 C   0  0  0  0  0  0  0  0  0  0  0  0
   -8.1500   18.2140  -31.7060 C   0  0  0  0  0  0  0  0  0  0  0  0
   -7.0910   17.4830  -32.4520 N   0  0  0  0  0  0  0  0  0  0  0  0
   -5.8470   17.3340  -31.6680 C   0  0  0  0  0  0  0  0  0  0  0  0
   -4.6680   17.1880  -32.5880 C   0  0  0  0  0  0  0  0  0  0  0  0
   -3.7890   18.1950  -32.8210 N   0  0  0  0  0  0  0  0  0  0  0  0
   -2.8860   17.6630  -33.6580 C   0  0  0  0  0  0  0  0  0  0  0  0
   -1.7580   18.2680  -34.2080 C   0  0  0  0  0  0  0  0  0  0  0  0
   -0.9520   17.4920  -35.0640 C   0  0  0  0  0  0  0  0  0  0  0  0
    0.1540   18.0370  -35.6270 F   0  0  0  0  0  0  0  0  0  0  0  0
   -1.2870   16.1450  -35.3380 C   0  0  0  0  0  0  0  0  0  0  0  0
   -2.4330   15.5650  -34.7620 C   0  0  0  0  0  0  0  0  0  0  0  0
   -3.2150   16.3640  -33.9230 C   0  0  0  0  0  0  0  0  0  0  0  0
   -4.3440   16.0480  -33.2580 N   0  0  0  0  0  0  0  0  0  0  0  0
   -5.0180   14.7460  -33.2160 C   0  0  0  0  0  0  0  0  0  0  0  0
   -4.5570   13.9440  -32.0030 C   0  0  0  0  0  0  0  0  0  0  0  0
   -6.8350   18.0480  -33.7940 C   0  0  0  0  0  0  0  0  0  0  0  0
   -6.3500   19.5040  -33.7070 C   0  0  0  0  0  0  0  0  0  0  0  0
   -5.3260   21.4230  -31.3790 C   0  0  0  0  0  0  0  0  0  0  0  0
   -4.7870   22.6060  -30.8680 C   0  0  0  0  0  0  0  0  0  0  0  0
   -1.7731   25.0957  -27.4821 H   0  0  0  0  0  0  0  0  0  0  0  0
   -0.7845   24.6509  -28.9143 H   0  0  0  0  0  0  0  0  0  0  0  0
   -1.7289   26.1789  -28.9143 H   0  0  0  0  0  0  0  0  0  0  0  0
   -2.5724   23.4277  -29.5802 H   0  0  0  0  0  0  0  0  0  0  0  0
   -3.6576   24.2346  -28.3838 H   0  0  0  0  0  0  0  0  0  0  0  0
   -7.1522   24.8092  -31.9903 H   0  0  0  0  0  0  0  0  0  0  0  0
   -8.1028   22.7007  -32.9097 H   0  0  0  0  0  0  0  0  0  0  0  0
   -8.6882   20.2781  -31.3100 H   0  0  0  0  0  0  0  0  0  0  0  0
   -9.0761   19.7039  -32.9752 H   0  0  0  0  0  0  0  0  0  0  0  0
   -7.8846   18.2144  -30.6385 H   0  0  0  0  0  0  0  0  0  0  0  0
   -9.0985   17.6934  -31.9043 H   0  0  0  0  0  0  0  0  0  0  0  0
   -5.7069   18.2235  -31.0363 H   0  0  0  0  0  0  0  0  0  0  0  0
   -5.9248   16.4350  -31.0389 H   0  0  0  0  0  0  0  0  0  0  0  0
   -3.8030   19.1640  -32.4290 H   0  0  0  0  0  0  0  0  0  0  0  0
   -1.5057   19.3145  -33.9819 H   0  0  0  0  0  0  0  0  0  0  0  0
   -0.6482   15.5475  -36.0050 H   0  0  0  0  0  0  0  0  0  0  0  0
   -2.7040   14.5184  -34.9653 H   0  0  0  0  0  0  0  0  0  0  0  0
   -6.1050   14.9030  -33.1542 H   0  0  0  0  0  0  0  0  0  0  0  0
   -4.7668   14.1860  -34.1288 H   0  0  0  0  0  0  0  0  0  0  0  0
   -4.8572   14.4662  -31.0826 H   0  0  0  0  0  0  0  0  0  0  0  0
   -5.0194   12.9462  -32.0259 H   0  0  0  0  0  0  0  0  0  0  0  0
   -3.4620   13.8413  -32.0259 H   0  0  0  0  0  0  0  0  0  0  0  0
   -6.0648   17.4437  -34.2956 H   0  0  0  0  0  0  0  0  0  0  0  0
   -7.7768   18.0304  -34.3621 H   0  0  0  0  0  0  0  0  0  0  0  0
   -5.2733   19.5136  -33.4820 H   0  0  0  0  0  0  0  0  0  0  0  0
   -6.5419   19.9999  -34.6699 H   0  0  0  0  0  0  0  0  0  0  0  0
   -4.8070   20.4682  -31.2088 H   0  0  0  0  0  0  0  0  0  0  0  0
   -3.8491   22.5755  -30.2941 H   0  0  0  0  0  0  0  0  0  0  0  0
  1  2  1  0
  2  3  1  0
  3  4  1  0
  4  5  2  0
  4  6  1  0
  6  7  2  0
  7  8  1  0
  8  9  2  0
  9 10  1  0
 10 11  1  0
 11 12  1  0
 12 13  1  0
 13 14  1  0
 14 15  1  0
 15 16  2  0
 16 17  1  0
 17 18  2  0
 18 19  1  0
 19 20  1  0
 19 21  2  0
 21 22  1  0
 22 23  2  0
 23 24  1  0
 24 25  1  0
 25 26  1  0
 13 27  1  0
 27 28  1  0
  9 29  1  0
 29 30  2  0
 30  6  1  0
 28 10  1  0
 24 15  1  0
 23 17  1  0
  1 31  1  0
  1 32  1  0
  1 33  1  0
  2 34  1  0
  2 35  1  0
  7 36  1  0
  8 37  1  0
 11 38  1  0
 11 39  1  0
 12 40  1  0
 12 41  1  0
 14 42  1  0
 14 43  1  0
 16 44  1  0
 18 45  1  0
 21 46  1  0
 22 47  1  0
 25 48  1  0
 25 49  1  0
 26 50  1  0
 26 51  1  0
 26 52  1  0
 27 53  1  0
 27 54  1  0
 28 55  1  0
 28 56  1  0
 29 57  1  0
 30 58  1  0
M  CHG  1  16   1
M  END
>  <UniqueID>  (18) 
18

>  <SMILES>  (18) 
CCOC(=O)c1ccc(N2CCN(Cc3[nH+]c4cc(F)ccc4n3CC)CC2)cc1

>  <Energy>  (18) 
103.06174287466607

>  <Genealogy>  (18) 
CCOC(=O)c1ccc(N2CCN(Cc3[nH+]c4cc(F)ccc4n3CC)CC2)cc1 (protonated)
CCOC(=O)c1ccc(N2CCN(Cc3[nH+]c4cc(F)ccc4n3CC)CC2)cc1 (3D coordinates assigned)
CCOC(=O)c1ccc(N2CCN(Cc3[nH+]c4cc(F)ccc4n3CC)CC2)cc1 (nonaromatic ring conformer: 103.06174287466607 kcal/mol)

>  <smiles>  (18) 
CCOC(=O)c1ccc(N2CCN(Cc3nc4cc(F)ccc4n3CC)CC2)cc1

>  <score_type>  (18) 
oracle

>  <origin>  (18) 
adg

>  <m_score__min__energy>  (18) 
-8.4399999999999995

>  <m_primary>  (18) 
energy

$$$$
18:0
     RDKit          3D

 63 66  0  0  0  0  0  0  0  0999 V2000
   -9.2360   20.3110  -32.3520 C   0  0  0  0  0  0  0  0  0  0  0  0
   -9.2840   21.4960  -31.5600 O   0  0  0  0  0  0  0  0  0  0  0  0
   -8.1740   22.3070  -31.2780 C   0  0  0  0  0  0  0  0  0  0  0  0
   -7.6420   22.4370  -29.9800 C   0  0  0  0  0  0  0  0  0  0  0  0
   -6.5350   23.2610  -29.7490 C   0  0  0  0  0  0  0  0  0  0  0  0
   -5.9450   23.9740  -30.8070 C   0  0  0  0  0  0  0  0  0  0  0  0
   -4.8010   24.8760  -30.5510 C   0  0  0  0  0  0  0  0  0  0  0  0
   -4.9920   26.1200  -30.4450 O   0  0  0  0  0  0  0  0  0  0  0  0
   -3.4720   24.3480  -30.4560 N   0  0  0  0  0  0  0  0  0  0  0  0
   -2.5630   24.6590  -29.3560 C   0  0  0  0  0  0  0  0  0  0  0  0
   -2.5150   23.5030  -28.3520 C   0  0  0  0  0  0  0  0  0  0  0  0
   -1.8590   22.3270  -28.9270 N   0  0  0  0  0  0  0  0  0  0  0  0
   -1.3170   22.2500  -30.1670 C   0  0  0  0  0  0  0  0  0  0  0  0
   -0.7280   21.0090  -30.3560 C   0  0  0  0  0  0  0  0  0  0  0  0
    0.0850   20.4450  -31.8550 S   0  0  0  0  0  0  0  0  0  0  0  0
   -0.8410   21.5400  -32.9910 C   0  0  0  0  0  0  0  0  0  0  0  0
   -2.2570   21.0850  -33.1740 C   0  0  0  0  0  0  0  0  0  0  0  0
   -3.1270   21.9090  -33.5620 O   0  0  0  0  0  0  0  0  0  0  0  0
   -2.6040   19.7170  -32.9160 N   0  0  0  0  0  0  0  0  0  0  0  0
   -3.9480   19.2370  -32.7220 C   0  0  0  0  0  0  0  0  0  0  0  0
   -4.4660   18.2150  -33.5400 C   0  0  0  0  0  0  0  0  0  0  0  0
   -5.7980   17.7940  -33.4110 C   0  0  0  0  0  0  0  0  0  0  0  0
   -6.3610   16.7480  -34.3300 C   0  0  0  0  0  0  0  0  0  0  0  0
   -6.6300   18.4210  -32.4760 C   0  0  0  0  0  0  0  0  0  0  0  0
   -6.1320   19.4350  -31.6580 C   0  0  0  0  0  0  0  0  0  0  0  0
   -4.7930   19.8500  -31.7680 C   0  0  0  0  0  0  0  0  0  0  0  0
   -4.2850   20.9550  -30.8790 C   0  0  0  0  0  0  0  0  0  0  0  0
   -0.9170   20.3110  -29.1810 C   0  0  0  0  0  0  0  0  0  0  0  0
   -0.5450   19.0200  -28.8100 C   0  0  0  0  0  0  0  0  0  0  0  0
   -0.8900   18.5830  -27.5190 C   0  0  0  0  0  0  0  0  0  0  0  0
   -1.5920   19.4340  -26.6400 C   0  0  0  0  0  0  0  0  0  0  0  0
   -1.9600   20.7320  -27.0430 C   0  0  0  0  0  0  0  0  0  0  0  0
   -1.6080   21.1410  -28.3310 C   0  0  0  0  0  0  0  0  0  0  0  0
   -6.4860   23.8460  -32.1000 C   0  0  0  0  0  0  0  0  0  0  0  0
   -7.5830   23.0120  -32.3320 C   0  0  0  0  0  0  0  0  0  0  0  0
   -9.2003   19.4308  -31.6932 H   0  0  0  0  0  0  0  0  0  0  0  0
  -10.1327   20.2577  -32.9869 H   0  0  0  0  0  0  0  0  0  0  0  0
   -8.3379   20.3304  -32.9869 H   0  0  0  0  0  0  0  0  0  0  0  0
   -8.0993   21.8878  -29.1437 H   0  0  0  0  0  0  0  0  0  0  0  0
   -6.1237   23.3514  -28.7328 H   0  0  0  0  0  0  0  0  0  0  0  0
   -1.5537   24.8301  -29.7586 H   0  0  0  0  0  0  0  0  0  0  0  0
   -2.9256   25.5608  -28.8409 H   0  0  0  0  0  0  0  0  0  0  0  0
   -1.9565   23.8252  -27.4608 H   0  0  0  0  0  0  0  0  0  0  0  0
   -3.5470   23.2302  -28.0864 H   0  0  0  0  0  0  0  0  0  0  0  0
   -1.3409   23.0558  -30.9154 H   0  0  0  0  0  0  0  0  0  0  0  0
   -0.8455   22.5594  -32.5777 H   0  0  0  0  0  0  0  0  0  0  0  0
   -0.3442   21.5125  -33.9721 H   0  0  0  0  0  0  0  0  0  0  0  0
   -1.8170   19.0350  -32.8220 H   0  0  0  0  0  0  0  0  0  0  0  0
   -3.8173   17.7400  -34.2907 H   0  0  0  0  0  0  0  0  0  0  0  0
   -6.7992   15.9338  -33.7341 H   0  0  0  0  0  0  0  0  0  0  0  0
   -7.1389   17.1977  -34.9645 H   0  0  0  0  0  0  0  0  0  0  0  0
   -5.5572   16.3464  -34.9645 H   0  0  0  0  0  0  0  0  0  0  0  0
   -7.6820   18.1124  -32.3860 H   0  0  0  0  0  0  0  0  0  0  0  0
   -6.7925   19.9142  -30.9204 H   0  0  0  0  0  0  0  0  0  0  0  0
   -4.4170   20.6679  -29.8254 H   0  0  0  0  0  0  0  0  0  0  0  0
   -3.2175   21.1268  -31.0812 H   0  0  0  0  0  0  0  0  0  0  0  0
   -4.8496   21.8771  -31.0812 H   0  0  0  0  0  0  0  0  0  0  0  0
    0.0007   18.3644  -29.5046 H   0  0  0  0  0  0  0  0  0  0  0  0
   -0.6106   17.5705  -27.1922 H   0  0  0  0  0  0  0  0  0  0  0  0
   -1.8540   19.0808  -25.6317 H   0  0  0  0  0  0  0  0  0  0  0  0
   -2.5076   21.4028  -26.3646 H   0  0  0  0  0  0  0  0  0  0  0  0
   -6.0415   24.4073  -32.9351 H   0  0  0  0  0  0  0  0  0  0  0  0
   -7.9848   22.9091  -33.3508 H   0  0  0  0  0  0  0  0  0  0  0  0
  1  2  1  0
  2  3  1  0
  3  4  2  0
  4  5  1  0
  5  6  2  0
  6  7  1  0
  7  8  2  0
  7  9  1  0
  9 10  1  0
 10 11  1  0
 11 12  1  0
 12 13  1  0
 13 14  2  0
 14 15  1  0
 15 16  1  0
 16 17  1  0
 17 18  2  0
 17 19  1  0
 19 20  1  0
 20 21  2  0
 21 22  1  0
 22 23  1  0
 22 24  2  0
 24 25  1  0
 25 26  2  0
 26 27  1  0
 14 28  1  0
 28 29  2  0
 29 30  1  0
 30 31  2  0
 31 32  1  0
 32 33  2  0
  6 34  1  0
 34 35  2  0
 35  3  1  0
 33 12  1  0
 26 20  1  0
 33 28  1  0
  1 36  1  0
  1 37  1  0
  1 38  1  0
  4 39  1  0
  5 40  1  0
 10 41  1  0
 10 42  1  0
 11 43  1  0
 11 44  1  0
 13 45  1  0
 16 46  1  0
 16 47  1  0
 19 48  1  0
 21 49  1  0
 23 50  1  0
 23 51  1  0
 23 52  1  0
 24 53  1  0
 25 54  1  0
 27 55  1  0
 27 56  1  0
 27 57  1  0
 29 58  1  0
 30 59  1  0
 31 60  1  0
 32 61  1  0
 34 62  1  0
 35 63  1  0
M  CHG  1   9  -1
M  END
>  <UniqueID>  (19) 
19

>  <SMILES>  (19) 
COc1ccc(C(=O)[N-]CCn2cc(SCC(=O)Nc3cc(C)ccc3C)c3ccccc32)cc1

>  <Energy>  (19) 
90.95167879464118

>  <Genealogy>  (19) 
COc1ccc(C(=O)[N-]CCn2cc(SCC(=O)Nc3cc(C)ccc3C)c3ccccc32)cc1 (protonated)
COc1ccc(C(=O)[N-]CCn2cc(SCC(=O)Nc3cc(C)ccc3C)c3ccccc32)cc1 (3D coordinates assigned)
COc1ccc(C(=O)[N-]CCn2cc(SCC(=O)Nc3cc(C)ccc3C)c3ccccc32)cc1 (optimized conformer: 90.95167879464118 kcal/mol)

>  <smiles>  (19) 
COc1ccc(C(=O)NCCn2cc(SCC(=O)Nc3cc(C)ccc3C)c3ccccc32)cc1

>  <score_type>  (19) 
oracle

>  <origin>  (19) 
adg

>  <m_score__min__energy>  (19) 
-11.6

>  <m_primary>  (19) 
energy

$$$$
19:0
     RDKit          3D

 40 41  0  0  0  0  0  0  0  0999 V2000
   -3.3640   21.8580  -28.3670 C   0  0  0  0  0  0  0  0  0  0  0  0
   -3.4270   23.3800  -28.2390 C   0  0  0  0  0  0  0  0  0  0  0  0
   -2.6770   24.1470  -29.3480 C   0  0  0  0  0  0  0  0  0  0  0  0
   -1.2610   24.6230  -28.9260 C   0  0  0  0  0  0  0  0  0  0  0  0
   -1.2290   25.9330  -28.1300 C   0  0  0  0  0  0  0  0  0  0  0  0
   -3.5040   25.2460  -29.8480 N   0  0  0  0  0  0  0  0  0  0  0  0
   -4.6880   25.0610  -30.6330 C   0  0  0  0  0  0  0  0  0  0  0  0
   -5.4090   26.0550  -30.9230 O   0  0  0  0  0  0  0  0  0  0  0  0
   -5.0660   23.7070  -31.0990 C   0  0  0  0  0  0  0  0  0  0  0  0
   -6.3890   23.2500  -30.9730 C   0  0  0  0  0  0  0  0  0  0  0  0
   -6.7450   21.9730  -31.4170 C   0  0  0  0  0  0  0  0  0  0  0  0
   -5.7870   21.1240  -31.9970 C   0  0  0  0  0  0  0  0  0  0  0  0
   -6.1660   19.7670  -32.4680 C   0  0  0  0  0  0  0  0  0  0  0  0
   -5.4660   19.1530  -33.5240 C   0  0  0  0  0  0  0  0  0  0  0  0
   -5.8260   17.8760  -33.9640 C   0  0  0  0  0  0  0  0  0  0  0  0
   -6.8850   17.1970  -33.3580 C   0  0  0  0  0  0  0  0  0  0  0  0
   -7.2320   15.9590  -33.7870 F   0  0  0  0  0  0  0  0  0  0  0  0
   -7.5870   17.7950  -32.3090 C   0  0  0  0  0  0  0  0  0  0  0  0
   -7.2320   19.0730  -31.8650 C   0  0  0  0  0  0  0  0  0  0  0  0
   -4.4640   21.5820  -32.1240 C   0  0  0  0  0  0  0  0  0  0  0  0
   -4.1080   22.8580  -31.6800 C   0  0  0  0  0  0  0  0  0  0  0  0
   -3.3453   21.4062  -27.3643 H   0  0  0  0  0  0  0  0  0  0  0  0
   -4.2481   21.4992  -28.9144 H   0  0  0  0  0  0  0  0  0  0  0  0
   -2.4533   21.5735  -28.9144 H   0  0  0  0  0  0  0  0  0  0  0  0
   -4.4839   23.6836  -28.2658 H   0  0  0  0  0  0  0  0  0  0  0  0
   -2.9301   23.6351  -27.2913 H   0  0  0  0  0  0  0  0  0  0  0  0
   -2.5010   23.4373  -30.1698 H   0  0  0  0  0  0  0  0  0  0  0  0
   -0.8068   23.8358  -28.3063 H   0  0  0  0  0  0  0  0  0  0  0  0
   -0.7106   24.8161  -29.8586 H   0  0  0  0  0  0  0  0  0  0  0  0
   -1.2345   25.7080  -27.0533 H   0  0  0  0  0  0  0  0  0  0  0  0
   -0.3169   26.4935  -28.3828 H   0  0  0  0  0  0  0  0  0  0  0  0
   -2.1127   26.5374  -28.3828 H   0  0  0  0  0  0  0  0  0  0  0  0
   -7.1507   23.9025  -30.5213 H   0  0  0  0  0  0  0  0  0  0  0  0
   -7.7847   21.6296  -31.3114 H   0  0  0  0  0  0  0  0  0  0  0  0
   -4.6304   19.6816  -34.0059 H   0  0  0  0  0  0  0  0  0  0  0  0
   -5.2734   17.4046  -34.7901 H   0  0  0  0  0  0  0  0  0  0  0  0
   -8.4207   17.2598  -31.8310 H   0  0  0  0  0  0  0  0  0  0  0  0
   -7.7895   19.5389  -31.0391 H   0  0  0  0  0  0  0  0  0  0  0  0
   -3.7025   20.9301  -32.5769 H   0  0  0  0  0  0  0  0  0  0  0  0
   -3.0684   23.2015  -31.7861 H   0  0  0  0  0  0  0  0  0  0  0  0
  1  2  1  0
  2  3  1  0
  3  4  1  0
  4  5  1  0
  3  6  1  0
  6  7  1  0
  7  8  2  0
  7  9  1  0
  9 10  2  0
 10 11  1  0
 11 12  2  0
 12 13  1  0
 13 14  2  0
 14 15  1  0
 15 16  2  0
 16 17  1  0
 16 18  1  0
 18 19  2  0
 12 20  1  0
 20 21  2  0
 21  9  1  0
 19 13  1  0
  1 22  1  0
  1 23  1  0
  1 24  1  0
  2 25  1  0
  2 26  1  0
  3 27  1  0
  4 28  1  0
  4 29  1  0
  5 30  1  0
  5 31  1  0
  5 32  1  0
 10 33  1  0
 11 34  1  0
 14 35  1  0
 15 36  1  0
 18 37  1  0
 19 38  1  0
 20 39  1  0
 21 40  1  0
M  CHG  1   6  -1
M  END
>  <UniqueID>  (20) 
20

>  <SMILES>  (20) 
CCC(CC)[N-]C(=O)c1ccc(-c2ccc(F)cc2)cc1

>  <Energy>  (20) 
41.26087382299555

>  <Genealogy>  (20) 
CCC(CC)[N-]C(=O)c1ccc(-c2ccc(F)cc2)cc1 (protonated)
CCC(CC)[N-]C(=O)c1ccc(-c2ccc(F)cc2)cc1 (3D coordinates assigned)
CCC(CC)[N-]C(=O)c1ccc(-c2ccc(F)cc2)cc1 (optimized conformer: 41.26087382299555 kcal/mol)

>  <smiles>  (20) 
CCC(CC)NC(=O)c1ccc(-c2ccc(F)cc2)cc1

>  <score_type>  (20) 
oracle

>  <origin>  (20) 
adg

>  <m_score__min__energy>  (20) 
-9.7100000000000009

>  <m_primary>  (20) 
energy

$$$$
20:0
     RDKit          3D

 77 80  0  0  0  0  0  0  0  0999 V2000
    0.2590   21.3780  -27.4780 C   0  0  0  0  0  0  0  0  0  0  0  0
   -0.0860   20.5360  -28.7120 C   0  0  0  0  0  0  0  0  0  0  0  0
   -1.4940   20.0510  -28.7740 N   0  0  0  0  0  0  0  0  0  0  0  0
   -2.2560   20.3100  -27.5150 C   0  0  0  0  0  0  0  0  0  0  0  0
   -2.6750   19.0620  -26.7210 C   0  0  0  0  0  0  0  0  0  0  0  0
   -2.2400   20.4350  -30.0030 C   0  0  0  0  0  0  0  0  0  0  0  0
   -1.3460   21.0750  -31.0820 C   0  0  0  0  0  0  0  0  0  0  0  0
   -1.8570   20.7480  -32.4880 C   0  0  0  0  0  0  0  0  0  0  0  0
   -2.8680   21.7230  -32.8980 N   0  0  0  0  0  0  0  0  0  0  0  0
   -4.1460   21.8000  -32.2430 C   0  0  0  0  0  0  0  0  0  0  0  0
   -5.1710   20.8950  -32.5770 C   0  0  0  0  0  0  0  0  0  0  0  0
   -4.9460   19.8590  -33.5090 C   0  0  0  0  0  0  0  0  0  0  0  0
   -5.9520   18.9460  -33.8160 C   0  0  0  0  0  0  0  0  0  0  0  0
   -7.1840   19.0270  -33.1790 C   0  0  0  0  0  0  0  0  0  0  0  0
   -7.4260   20.0290  -32.2420 C   0  0  0  0  0  0  0  0  0  0  0  0
   -6.4360   21.0010  -31.9370 C   0  0  0  0  0  0  0  0  0  0  0  0
   -6.6700   22.0110  -31.0220 N   0  0  0  0  0  0  0  0  0  0  0  0
   -8.0520   22.2980  -30.5790 C   0  0  0  0  0  0  0  0  0  0  0  0
   -5.6150   22.7680  -30.5480 C   0  0  0  0  0  0  0  0  0  0  0  0
   -5.7500   23.6090  -29.4150 C   0  0  0  0  0  0  0  0  0  0  0  0
   -4.7040   24.4290  -28.9920 C   0  0  0  0  0  0  0  0  0  0  0  0
   -3.4850   24.4330  -29.6810 C   0  0  0  0  0  0  0  0  0  0  0  0
   -2.4260   25.2890  -29.3450 O   0  0  0  0  0  0  0  0  0  0  0  0
   -1.1600   24.8740  -28.8280 C   0  0  0  0  0  0  0  0  0  0  0  0
   -1.3050   24.3290  -27.3900 C   0  0  0  0  0  0  0  0  0  0  0  0
   -1.5720   25.3530  -26.3230 N   0  0  0  0  0  0  0  0  0  0  0  0
   -3.0270   25.3710  -26.0000 C   0  0  0  0  0  0  0  0  0  0  0  0
   -0.8100   24.9310  -25.1080 C   0  0  0  0  0  0  0  0  0  0  0  0
   -0.8300   25.9880  -23.9750 C   0  0  0  0  0  0  0  0  0  0  0  0
   -1.2420   27.2700  -24.4100 O   0  0  0  0  0  0  0  0  0  0  0  0
   -0.5930   27.5960  -25.6160 C   0  0  0  0  0  0  0  0  0  0  0  0
   -1.1020   26.7070  -26.7680 C   0  0  0  0  0  0  0  0  0  0  0  0
   -3.3190   23.5810  -30.7740 C   0  0  0  0  0  0  0  0  0  0  0  0
   -4.3520   22.7140  -31.1910 C   0  0  0  0  0  0  0  0  0  0  0  0
    0.0250   20.8070  -26.5674 H   0  0  0  0  0  0  0  0  0  0  0  0
    1.3308   21.6250  -27.4906 H   0  0  0  0  0  0  0  0  0  0  0  0
   -0.3313   22.3061  -27.4906 H   0  0  0  0  0  0  0  0  0  0  0  0
    0.1029   21.1485  -29.6059 H   0  0  0  0  0  0  0  0  0  0  0  0
    0.5451   19.6368  -28.6551 H   0  0  0  0  0  0  0  0  0  0  0  0
   -1.4050   19.0050  -28.8170 H   0  0  0  0  0  0  0  0  0  0  0  0
   -1.6268   20.9314  -26.8608 H   0  0  0  0  0  0  0  0  0  0  0  0
   -3.1925   20.7962  -27.8258 H   0  0  0  0  0  0  0  0  0  0  0  0
   -2.6045   19.2721  -25.6436 H   0  0  0  0  0  0  0  0  0  0  0  0
   -3.7116   18.7963  -26.9757 H   0  0  0  0  0  0  0  0  0  0  0  0
   -2.0087   18.2246  -26.9757 H   0  0  0  0  0  0  0  0  0  0  0  0
   -2.7056   19.5324  -30.4254 H   0  0  0  0  0  0  0  0  0  0  0  0
   -2.9869   21.1874  -29.7097 H   0  0  0  0  0  0  0  0  0  0  0  0
   -1.3440   22.1665  -30.9455 H   0  0  0  0  0  0  0  0  0  0  0  0
   -0.3287   20.6699  -30.9775 H   0  0  0  0  0  0  0  0  0  0  0  0
   -1.0158   20.7773  -33.1962 H   0  0  0  0  0  0  0  0  0  0  0  0
   -2.3080   19.7447  -32.4815 H   0  0  0  0  0  0  0  0  0  0  0  0
   -2.7580   22.1740  -33.8340 H   0  0  0  0  0  0  0  0  0  0  0  0
   -3.9648   19.7717  -33.9985 H   0  0  0  0  0  0  0  0  0  0  0  0
   -5.7708   18.1598  -34.5637 H   0  0  0  0  0  0  0  0  0  0  0  0
   -7.9718   18.2967  -33.4156 H   0  0  0  0  0  0  0  0  0  0  0  0
   -8.3989   20.0682  -31.7303 H   0  0  0  0  0  0  0  0  0  0  0  0
   -8.0905   22.3060  -29.4797 H   0  0  0  0  0  0  0  0  0  0  0  0
   -8.3639   23.2801  -30.9640 H   0  0  0  0  0  0  0  0  0  0  0  0
   -8.7292   21.5213  -30.9640 H   0  0  0  0  0  0  0  0  0  0  0  0
   -6.6987   23.6151  -28.8582 H   0  0  0  0  0  0  0  0  0  0  0  0
   -4.8374   25.0760  -28.1125 H   0  0  0  0  0  0  0  0  0  0  0  0
   -0.7488   24.0836  -29.4732 H   0  0  0  0  0  0  0  0  0  0  0  0
   -0.4858   25.7429  -28.8087 H   0  0  0  0  0  0  0  0  0  0  0  0
   -2.1385   23.6112  -27.3842 H   0  0  0  0  0  0  0  0  0  0  0  0
   -0.3295   23.8865  -27.1400 H   0  0  0  0  0  0  0  0  0  0  0  0
   -3.1602   25.3726  -24.9081 H   0  0  0  0  0  0  0  0  0  0  0  0
   -3.4862   26.2749  -26.4268 H   0  0  0  0  0  0  0  0  0  0  0  0
   -3.5084   24.4787  -26.4268 H   0  0  0  0  0  0  0  0  0  0  0  0
   -1.2520   23.9996  -24.7245 H   0  0  0  0  0  0  0  0  0  0  0  0
    0.2390   24.7975  -25.4110 H   0  0  0  0  0  0  0  0  0  0  0  0
   -1.5224   25.6464  -23.1915 H   0  0  0  0  0  0  0  0  0  0  0  0
    0.2010   26.0865  -23.6044 H   0  0  0  0  0  0  0  0  0  0  0  0
   -0.7915   28.6503  -25.8590 H   0  0  0  0  0  0  0  0  0  0  0  0
    0.4872   27.4290  -25.4920 H   0  0  0  0  0  0  0  0  0  0  0  0
   -1.9410   27.2217  -27.2592 H   0  0  0  0  0  0  0  0  0  0  0  0
   -0.2528   26.5449  -27.4482 H   0  0  0  0  0  0  0  0  0  0  0  0
   -2.3647   23.5852  -31.3211 H   0  0  0  0  0  0  0  0  0  0  0  0
  1  2  1  0
  2  3  1  0
  3  4  1  0
  4  5  1  0
  3  6  1  0
  6  7  1  0
  7  8  1  0
  8  9  1  0
  9 10  1  0
 10 11  2  0
 11 12  1  0
 12 13  2  0
 13 14  1  0
 14 15  2  0
 15 16  1  0
 16 17  2  0
 17 18  1  0
 17 19  1  0
 19 20  2  0
 20 21  1  0
 21 22  2  0
 22 23  1  0
 23 24  1  0
 24 25  1  0
 25 26  1  0
 26 27  1  0
 26 28  1  0
 28 29  1  0
 29 30  1  0
 30 31  1  0
 31 32  1  0
 22 33  1  0
 33 34  2  0
 34 10  1  0
 16 11  1  0
 34 19  1  0
 32 26  1  0
  1 35  1  0
  1 36  1  0
  1 37  1  0
  2 38  1  0
  2 39  1  0
  3 40  1  0
  4 41  1  0
  4 42  1  0
  5 43  1  0
  5 44  1  0
  5 45  1  0
  6 46  1  0
  6 47  1  0
  7 48  1  0
  7 49  1  0
  8 50  1  0
  8 51  1  0
  9 52  1  0
 12 53  1  0
 13 54  1  0
 14 55  1  0
 15 56  1  0
 18 57  1  0
 18 58  1  0
 18 59  1  0
 20 60  1  0
 21 61  1  0
 24 62  1  0
 24 63  1  0
 25 64  1  0
 25 65  1  0
 27 66  1  0
 27 67  1  0
 27 68  1  0
 28 69  1  0
 28 70  1  0
 29 71  1  0
 29 72  1  0
 31 73  1  0
 31 74  1  0
 32 75  1  0
 32 76  1  0
 33 77  1  0
M  CHG  3   3   1  17   1  26   1
M  END
>  <UniqueID>  (21) 
21

>  <SMILES>  (21) 
CC[NH+](CC)CCCNc1c2ccccc2[n+](C)c2ccc(OCC[N+]3(C)CCOCC3)cc12

>  <Energy>  (21) 
132.7727777377347

>  <Genealogy>  (21) 
CC[NH+](CC)CCCNc1c2ccccc2[n+](C)c2ccc(OCC[N+]3(C)CCOCC3)cc12 (protonated)
CC[NH+](CC)CCCNc1c2ccccc2[n+](C)c2ccc(OCC[N+]3(C)CCOCC3)cc12 (3D coordinates assigned)
CC[NH+](CC)CCCNc1c2ccccc2[n+](C)c2ccc(OCC[N+]3(C)CCOCC3)cc12 (nonaromatic ring conformer: 132.7727777377347 kcal/mol)

>  <smiles>  (21) 
CCN(CC)CCCNc1c2ccccc2[n+](C)c2ccc(OCC[N+]3(C)CCOCC3)cc12

>  <score_type>  (21) 
oracle

>  <origin>  (21) 
adg

>  <m_score__min__energy>  (21) 
-7.7699999999999996

>  <m_primary>  (21) 
energy

$$$$
21:0
     RDKit          3D

 33 35  0  0  0  0  0  0  0  0999 V2000
   -6.1150   17.2270  -31.1690 C   0  0  0  0  0  0  0  0  0  0  0  0
   -6.1670   17.4280  -32.6140 N   0  0  0  0  0  0  0  0  0  0  0  0
   -5.8450   16.5250  -33.5620 C   0  0  0  0  0  0  0  0  0  0  0  0
   -5.9390   17.0580  -34.7980 N   0  0  0  0  0  0  0  0  0  0  0  0
   -6.3300   18.3120  -34.6340 N   0  0  0  0  0  0  0  0  0  0  0  0
   -6.4870   18.5350  -33.3170 C   0  0  0  0  0  0  0  0  0  0  0  0
   -6.8860   19.8350  -32.7480 C   0  0  0  0  0  0  0  0  0  0  0  0
   -8.1980   20.2540  -32.6360 C   0  0  0  0  0  0  0  0  0  0  0  0
   -8.1640   21.4890  -32.0230 C   0  0  0  0  0  0  0  0  0  0  0  0
   -6.8310   21.7740  -31.7770 C   0  0  0  0  0  0  0  0  0  0  0  0
   -6.3500   23.0030  -31.1070 C   0  0  0  0  0  0  0  0  0  0  0  0
   -7.2470   23.8560  -30.4400 C   0  0  0  0  0  0  0  0  0  0  0  0
   -6.7810   25.0070  -29.7980 C   0  0  0  0  0  0  0  0  0  0  0  0
   -5.4180   25.3130  -29.8090 C   0  0  0  0  0  0  0  0  0  0  0  0
   -4.5170   24.4630  -30.4540 C   0  0  0  0  0  0  0  0  0  0  0  0
   -3.1920   24.7570  -30.4590 F   0  0  0  0  0  0  0  0  0  0  0  0
   -4.9780   23.3100  -31.0970 C   0  0  0  0  0  0  0  0  0  0  0  0
   -6.0510   20.7500  -32.2020 N   0  0  0  0  0  0  0  0  0  0  0  0
   -4.6130   20.5920  -31.9700 C   0  0  0  0  0  0  0  0  0  0  0  0
   -6.3590   18.1703  -30.6586 H   0  0  0  0  0  0  0  0  0  0  0  0
   -6.8429   16.4546  -30.8798 H   0  0  0  0  0  0  0  0  0  0  0  0
   -5.1039   16.9045  -30.8798 H   0  0  0  0  0  0  0  0  0  0  0  0
   -5.5444   15.4874  -33.3545 H   0  0  0  0  0  0  0  0  0  0  0  0
   -6.4920   18.9910  -35.4110 H   0  0  0  0  0  0  0  0  0  0  0  0
   -9.0935   19.7096  -32.9701 H   0  0  0  0  0  0  0  0  0  0  0  0
   -9.0277   22.1243  -31.7772 H   0  0  0  0  0  0  0  0  0  0  0  0
   -8.3205   23.6165  -30.4233 H   0  0  0  0  0  0  0  0  0  0  0  0
   -7.4890   25.6731  -29.2831 H   0  0  0  0  0  0  0  0  0  0  0  0
   -5.0545   26.2233  -29.3097 H   0  0  0  0  0  0  0  0  0  0  0  0
   -4.2636   22.6398  -31.5975 H   0  0  0  0  0  0  0  0  0  0  0  0
   -4.4164   20.5704  -30.8879 H   0  0  0  0  0  0  0  0  0  0  0  0
   -4.2696   19.6507  -32.4239 H   0  0  0  0  0  0  0  0  0  0  0  0
   -4.0734   21.4363  -32.4239 H   0  0  0  0  0  0  0  0  0  0  0  0
  1  2  1  0
  2  3  1  0
  3  4  2  0
  4  5  1  0
  5  6  2  0
  6  7  1  0
  7  8  2  0
  8  9  1  0
  9 10  2  0
 10 11  1  0
 11 12  2  0
 12 13  1  0
 13 14  2  0
 14 15  1  0
 15 16  1  0
 15 17  2  0
 10 18  1  0
 18 19  1  0
  6  2  1  0
 18  7  1  0
 17 11  1  0
  1 20  1  0
  1 21  1  0
  1 22  1  0
  3 23  1  0
  5 24  1  0
  8 25  1  0
  9 26  1  0
 12 27  1  0
 13 28  1  0
 14 29  1  0
 17 30  1  0
 19 31  1  0
 19 32  1  0
 19 33  1  0
M  CHG  1   5   1
M  END
>  <UniqueID>  (22) 
22

>  <SMILES>  (22) 
Cn1cn[nH+]c1-c1ccc(-c2cccc(F)c2)n1C

>  <Energy>  (22) 
106.1102987955972

>  <Genealogy>  (22) 
Cn1cn[nH+]c1-c1ccc(-c2cccc(F)c2)n1C (protonated)
Cn1cn[nH+]c1-c1ccc(-c2cccc(F)c2)n1C (3D coordinates assigned)
Cn1cn[nH+]c1-c1ccc(-c2cccc(F)c2)n1C (optimized conformer: 106.1102987955972 kcal/mol)

>  <smiles>  (22) 
Cn1cnnc1-c1ccc(-c2cccc(F)c2)n1C

>  <score_type>  (22) 
oracle

>  <origin>  (22) 
adg

>  <m_score__min__energy>  (22) 
-7.0599999999999996

>  <m_primary>  (22) 
energy

$$$$
22:0
     RDKit          3D

 71 73  0  0  0  0  0  0  0  0999 V2000
   -1.7400   28.2920  -35.5310 C   0  0  0  0  0  0  0  0  0  0  0  0
   -0.5900   28.1370  -34.5290 C   0  0  0  0  0  0  0  0  0  0  0  0
    0.7410   27.8720  -35.1380 N   0  0  0  0  0  0  0  0  0  0  0  0
    1.7070   28.9990  -34.9690 C   0  0  0  0  0  0  0  0  0  0  0  0
    3.0280   28.6550  -34.2600 C   0  0  0  0  0  0  0  0  0  0  0  0
    0.6330   27.3240  -36.5170 C   0  0  0  0  0  0  0  0  0  0  0  0
    0.2590   25.8270  -36.5460 C   0  0  0  0  0  0  0  0  0  0  0  0
    0.7630   25.1390  -35.4160 O   0  0  0  0  0  0  0  0  0  0  0  0
    2.0380   24.5970  -35.6890 C   0  0  0  0  0  0  0  0  0  0  0  0
    2.0020   23.0880  -35.4490 C   0  0  0  0  0  0  0  0  0  0  0  0
    0.6650   22.6230  -35.3930 O   0  0  0  0  0  0  0  0  0  0  0  0
    0.5510   21.5370  -34.4960 C   0  0  0  0  0  0  0  0  0  0  0  0
   -0.5450   20.5850  -34.9830 C   0  0  0  0  0  0  0  0  0  0  0  0
   -1.5950   20.4690  -34.0410 O   0  0  0  0  0  0  0  0  0  0  0  0
   -1.1840   20.8800  -32.7500 C   0  0  0  0  0  0  0  0  0  0  0  0
   -2.3950   21.3960  -31.9700 C   0  0  0  0  0  0  0  0  0  0  0  0
   -3.5350   21.6420  -32.8570 N   0  0  0  0  0  0  0  0  0  0  0  0
   -4.8920   21.6140  -32.3790 C   0  0  0  0  0  0  0  0  0  0  0  0
   -5.3960   22.6900  -31.6280 C   0  0  0  0  0  0  0  0  0  0  0  0
   -4.5520   23.7460  -31.2220 C   0  0  0  0  0  0  0  0  0  0  0  0
   -5.0500   24.8040  -30.4660 C   0  0  0  0  0  0  0  0  0  0  0  0
   -6.3890   24.8220  -30.0920 C   0  0  0  0  0  0  0  0  0  0  0  0
   -7.2430   23.7940  -30.4870 C   0  0  0  0  0  0  0  0  0  0  0  0
   -6.7760   22.7210  -31.2900 C   0  0  0  0  0  0  0  0  0  0  0  0
   -7.6220   21.7240  -31.7390 N   0  0  0  0  0  0  0  0  0  0  0  0
   -9.0880   21.8980  -31.6340 C   0  0  0  0  0  0  0  0  0  0  0  0
   -7.0960   20.5710  -32.2930 C   0  0  0  0  0  0  0  0  0  0  0  0
   -7.8920   19.4150  -32.5070 C   0  0  0  0  0  0  0  0  0  0  0  0
   -7.3570   18.2730  -33.1040 C   0  0  0  0  0  0  0  0  0  0  0  0
   -6.0180   18.2400  -33.4820 C   0  0  0  0  0  0  0  0  0  0  0  0
   -5.3520   16.7960  -34.2240 Cl  0  0  0  0  0  0  0  0  0  0  0  0
   -5.2020   19.3450  -33.2460 C   0  0  0  0  0  0  0  0  0  0  0  0
   -5.7230   20.5140  -32.6520 C   0  0  0  0  0  0  0  0  0  0  0  0
   -2.6868   28.4196  -34.9857 H   0  0  0  0  0  0  0  0  0  0  0  0
   -1.5592   29.1739  -36.1631 H   0  0  0  0  0  0  0  0  0  0  0  0
   -1.7991   27.3937  -36.1631 H   0  0  0  0  0  0  0  0  0  0  0  0
   -0.5191   29.0659  -33.9441 H   0  0  0  0  0  0  0  0  0  0  0  0
   -0.8305   27.2544  -33.9181 H   0  0  0  0  0  0  0  0  0  0  0  0
    1.1230   27.0950  -34.5450 H   0  0  0  0  0  0  0  0  0  0  0  0
    1.9526   29.3845  -35.9695 H   0  0  0  0  0  0  0  0  0  0  0  0
    1.2018   29.7271  -34.3173 H   0  0  0  0  0  0  0  0  0  0  0  0
    2.8803   28.6935  -33.1706 H   0  0  0  0  0  0  0  0  0  0  0  0
    3.3479   27.6436  -34.5512 H   0  0  0  0  0  0  0  0  0  0  0  0
    3.8005   29.3819  -34.5512 H   0  0  0  0  0  0  0  0  0  0  0  0
   -0.1403   27.8886  -37.0585 H   0  0  0  0  0  0  0  0  0  0  0  0
    1.6219   27.4242  -36.9881 H   0  0  0  0  0  0  0  0  0  0  0  0
   -0.8369   25.7337  -36.5606 H   0  0  0  0  0  0  0  0  0  0  0  0
    0.7049   25.3797  -37.4466 H   0  0  0  0  0  0  0  0  0  0  0  0
    2.3066   24.7970  -36.7368 H   0  0  0  0  0  0  0  0  0  0  0  0
    2.7863   25.0594  -35.0286 H   0  0  0  0  0  0  0  0  0  0  0  0
    2.5276   22.5788  -36.2703 H   0  0  0  0  0  0  0  0  0  0  0  0
    2.4934   22.8701  -34.4893 H   0  0  0  0  0  0  0  0  0  0  0  0
    1.5092   20.9990  -34.4481 H   0  0  0  0  0  0  0  0  0  0  0  0
    0.2913   21.9137  -33.4956 H   0  0  0  0  0  0  0  0  0  0  0  0
   -0.9555   20.9683  -35.9288 H   0  0  0  0  0  0  0  0  0  0  0  0
   -0.0976   19.5897  -35.1217 H   0  0  0  0  0  0  0  0  0  0  0  0
   -0.7411   20.0258  -32.2168 H   0  0  0  0  0  0  0  0  0  0  0  0
   -0.4371   21.6824  -32.8409 H   0  0  0  0  0  0  0  0  0  0  0  0
   -2.6819   20.6469  -31.2173 H   0  0  0  0  0  0  0  0  0  0  0  0
   -2.1186   22.3458  -31.4888 H   0  0  0  0  0  0  0  0  0  0  0  0
   -3.3650   21.7200  -33.8840 H   0  0  0  0  0  0  0  0  0  0  0  0
   -3.4893   23.7330  -31.5059 H   0  0  0  0  0  0  0  0  0  0  0  0
   -4.3838   25.6258  -30.1646 H   0  0  0  0  0  0  0  0  0  0  0  0
   -6.7760   25.6513  -29.4817 H   0  0  0  0  0  0  0  0  0  0  0  0
   -8.2965   23.8146  -30.1712 H   0  0  0  0  0  0  0  0  0  0  0  0
   -9.3781   21.9324  -30.5735 H   0  0  0  0  0  0  0  0  0  0  0  0
   -9.3819   22.8373  -32.1252 H   0  0  0  0  0  0  0  0  0  0  0  0
   -9.5936   21.0536  -32.1252 H   0  0  0  0  0  0  0  0  0  0  0  0
   -8.9475   19.4198  -32.1972 H   0  0  0  0  0  0  0  0  0  0  0  0
   -7.9965   17.3948  -33.2767 H   0  0  0  0  0  0  0  0  0  0  0  0
   -4.1390   19.3053  -33.5262 H   0  0  0  0  0  0  0  0  0  0  0  0
  1  2  1  0
  2  3  1  0
  3  4  1  0
  4  5  1  0
  3  6  1  0
  6  7  1  0
  7  8  1  0
  8  9  1  0
  9 10  1  0
 10 11  1  0
 11 12  1  0
 12 13  1  0
 13 14  1  0
 14 15  1  0
 15 16  1  0
 16 17  1  0
 17 18  1  0
 18 19  2  0
 19 20  1  0
 20 21  2  0
 21 22  1  0
 22 23  2  0
 23 24  1  0
 24 25  2  0
 25 26  1  0
 25 27  1  0
 27 28  2  0
 28 29  1  0
 29 30  2  0
 30 31  1  0
 30 32  1  0
 32 33  2  0
 33 18  1  0
 24 19  1  0
 33 27  1  0
  1 34  1  0
  1 35  1  0
  1 36  1  0
  2 37  1  0
  2 38  1  0
  3 39  1  0
  4 40  1  0
  4 41  1  0
  5 42  1  0
  5 43  1  0
  5 44  1  0
  6 45  1  0
  6 46  1  0
  7 47  1  0
  7 48  1  0
  9 49  1  0
  9 50  1  0
 10 51  1  0
 10 52  1  0
 12 53  1  0
 12 54  1  0
 13 55  1  0
 13 56  1  0
 15 57  1  0
 15 58  1  0
 16 59  1  0
 16 60  1  0
 17 61  1  0
 20 62  1  0
 21 63  1  0
 22 64  1  0
 23 65  1  0
 26 66  1  0
 26 67  1  0
 26 68  1  0
 28 69  1  0
 29 70  1  0
 32 71  1  0
M  CHG  2   3   1  25   1
M  END
>  <UniqueID>  (23) 
23

>  <SMILES>  (23) 
CC[NH+](CC)CCOCCOCCOCCNc1c2ccccc2[n+](C)c2ccc(Cl)cc12

>  <Energy>  (23) 
105.2963468169414

>  <Genealogy>  (23) 
CC[NH+](CC)CCOCCOCCOCCNc1c2ccccc2[n+](C)c2ccc(Cl)cc12 (protonated)
CC[NH+](CC)CCOCCOCCOCCNc1c2ccccc2[n+](C)c2ccc(Cl)cc12 (3D coordinates assigned)
CC[NH+](CC)CCOCCOCCOCCNc1c2ccccc2[n+](C)c2ccc(Cl)cc12 (optimized conformer: 105.2963468169414 kcal/mol)

>  <smiles>  (23) 
CCN(CC)CCOCCOCCOCCNc1c2ccccc2[n+](C)c2ccc(Cl)cc12

>  <score_type>  (23) 
oracle

>  <origin>  (23) 
adg

>  <m_score__min__energy>  (23) 
-8.9800000000000004

>  <m_primary>  (23) 
energy

$$$$
23:0
     RDKit          3D

 51 53  0  0  0  0  0  0  0  0999 V2000
   -6.2280   25.3790  -29.5950 C   0  0  0  0  0  0  0  0  0  0  0  0
   -5.3480   25.6330  -30.8140 C   0  0  0  0  0  0  0  0  0  0  0  0
   -3.9470   25.3090  -30.5070 N   0  0  0  0  0  0  0  0  0  0  0  0
   -3.8130   24.3860  -29.3670 C   0  0  0  0  0  0  0  0  0  0  0  0
   -3.7780   22.9150  -29.8100 C   0  0  0  0  0  0  0  0  0  0  0  0
   -3.0310   22.7870  -31.0060 O   0  0  0  0  0  0  0  0  0  0  0  0
   -2.2340   21.6220  -30.9720 C   0  0  0  0  0  0  0  0  0  0  0  0
   -2.4740   20.8150  -32.2480 C   0  0  0  0  0  0  0  0  0  0  0  0
   -3.5000   21.4530  -33.0900 N   0  0  0  0  0  0  0  0  0  0  0  0
   -4.7280   20.6720  -33.0910 C   0  0  0  0  0  0  0  0  0  0  0  0
   -4.7360   19.3310  -33.5550 C   0  0  0  0  0  0  0  0  0  0  0  0
   -3.6080   18.7570  -34.1930 C   0  0  0  0  0  0  0  0  0  0  0  0
   -3.6390   17.4490  -34.6690 C   0  0  0  0  0  0  0  0  0  0  0  0
   -4.7920   16.6880  -34.5420 C   0  0  0  0  0  0  0  0  0  0  0  0
   -5.9170   17.2240  -33.9220 C   0  0  0  0  0  0  0  0  0  0  0  0
   -5.9080   18.5410  -33.3920 C   0  0  0  0  0  0  0  0  0  0  0  0
   -7.0110   19.0600  -32.7460 N   0  0  0  0  0  0  0  0  0  0  0  0
   -8.0910   18.1590  -32.2850 C   0  0  0  0  0  0  0  0  0  0  0  0
   -7.1030   20.4180  -32.5220 C   0  0  0  0  0  0  0  0  0  0  0  0
   -8.3350   21.0230  -32.1620 C   0  0  0  0  0  0  0  0  0  0  0  0
   -8.4200   22.3890  -31.9010 C   0  0  0  0  0  0  0  0  0  0  0  0
   -9.6100   22.9410  -31.5570 F   0  0  0  0  0  0  0  0  0  0  0  0
   -7.2910   23.1880  -32.0080 C   0  0  0  0  0  0  0  0  0  0  0  0
   -6.0740   22.6330  -32.3950 C   0  0  0  0  0  0  0  0  0  0  0  0
   -5.9550   21.2480  -32.6660 C   0  0  0  0  0  0  0  0  0  0  0  0
   -5.6430   25.5478  -28.6789 H   0  0  0  0  0  0  0  0  0  0  0  0
   -7.0870   26.0659  -29.6133 H   0  0  0  0  0  0  0  0  0  0  0  0
   -6.5889   24.3400  -29.6133 H   0  0  0  0  0  0  0  0  0  0  0  0
   -5.6920   25.0033  -31.6477 H   0  0  0  0  0  0  0  0  0  0  0  0
   -5.4177   26.6952  -31.0912 H   0  0  0  0  0  0  0  0  0  0  0  0
   -3.4960   24.8920  -31.3550 H   0  0  0  0  0  0  0  0  0  0  0  0
   -2.8798   24.6169  -28.8324 H   0  0  0  0  0  0  0  0  0  0  0  0
   -4.6910   24.5218  -28.7184 H   0  0  0  0  0  0  0  0  0  0  0  0
   -3.3095   22.3081  -29.0212 H   0  0  0  0  0  0  0  0  0  0  0  0
   -4.8062   22.5668  -29.9875 H   0  0  0  0  0  0  0  0  0  0  0  0
   -1.1725   21.9035  -30.9082 H   0  0  0  0  0  0  0  0  0  0  0  0
   -2.5010   21.0156  -30.0940 H   0  0  0  0  0  0  0  0  0  0  0  0
   -1.5334   20.7494  -32.8145 H   0  0  0  0  0  0  0  0  0  0  0  0
   -2.8252   19.8111  -31.9672 H   0  0  0  0  0  0  0  0  0  0  0  0
   -3.1450   21.5820  -34.0630 H   0  0  0  0  0  0  0  0  0  0  0  0
   -3.6830   22.4280  -32.7660 H   0  0  0  0  0  0  0  0  0  0  0  0
   -2.6927   19.3550  -34.3141 H   0  0  0  0  0  0  0  0  0  0  0  0
   -2.7470   17.0179  -35.1470 H   0  0  0  0  0  0  0  0  0  0  0  0
   -4.8172   15.6597  -34.9318 H   0  0  0  0  0  0  0  0  0  0  0  0
   -6.8300   16.6159  -33.8412 H   0  0  0  0  0  0  0  0  0  0  0  0
   -8.1105   18.1427  -31.1853 H   0  0  0  0  0  0  0  0  0  0  0  0
   -9.0579   18.5220  -32.6635 H   0  0  0  0  0  0  0  0  0  0  0  0
   -7.9072   17.1427  -32.6635 H   0  0  0  0  0  0  0  0  0  0  0  0
   -9.2399   20.4020  -32.0876 H   0  0  0  0  0  0  0  0  0  0  0  0
   -7.3574   24.2634  -31.7864 H   0  0  0  0  0  0  0  0  0  0  0  0
   -5.1904   23.2810  -32.4918 H   0  0  0  0  0  0  0  0  0  0  0  0
  1  2  1  0
  2  3  1  0
  3  4  1  0
  4  5  1  0
  5  6  1  0
  6  7  1  0
  7  8  1  0
  8  9  1  0
  9 10  1  0
 10 11  2  0
 11 12  1  0
 12 13  2  0
 13 14  1  0
 14 15  2  0
 15 16  1  0
 16 17  2  0
 17 18  1  0
 17 19  1  0
 19 20  2  0
 20 21  1  0
 21 22  1  0
 21 23  2  0
 23 24  1  0
 24 25  2  0
 25 10  1  0
 16 11  1  0
 25 19  1  0
  1 26  1  0
  1 27  1  0
  1 28  1  0
  2 29  1  0
  2 30  1  0
  3 31  1  0
  4 32  1  0
  4 33  1  0
  5 34  1  0
  5 35  1  0
  7 36  1  0
  7 37  1  0
  8 38  1  0
  8 39  1  0
  9 40  1  0
  9 41  1  0
 12 42  1  0
 13 43  1  0
 14 44  1  0
 15 45  1  0
 18 46  1  0
 18 47  1  0
 18 48  1  0
 20 49  1  0
 23 50  1  0
 24 51  1  0
M  CHG  2   9   1  17   1
M  END
>  <UniqueID>  (24) 
24

>  <SMILES>  (24) 
CCNCCOCC[NH2+]c1c2ccccc2[n+](C)c2cc(F)ccc12

>  <Energy>  (24) 
77.20360407604599

>  <Genealogy>  (24) 
CCNCCOCC[NH2+]c1c2ccccc2[n+](C)c2cc(F)ccc12 (protonated)
CCNCCOCC[NH2+]c1c2ccccc2[n+](C)c2cc(F)ccc12 (3D coordinates assigned)
CCNCCOCC[NH2+]c1c2ccccc2[n+](C)c2cc(F)ccc12 (optimized conformer: 77.20360407604599 kcal/mol)

>  <smiles>  (24) 
CCNCCOCCNc1c2ccccc2[n+](C)c2cc(F)ccc12

>  <score_type>  (24) 
oracle

>  <origin>  (24) 
adg

>  <m_score__min__energy>  (24) 
-7.8799999999999999

>  <m_primary>  (24) 
energy

$$$$
24:0
     RDKit          3D

 53 55  0  0  0  0  0  0  0  0999 V2000
   -2.3340   21.1120  -33.4540 C   0  0  0  0  0  0  0  0  0  0  0  0
   -2.0070   20.5780  -32.0600 C   0  0  0  0  0  0  0  0  0  0  0  0
   -3.0890   20.8300  -31.0890 N   0  0  0  0  0  0  0  0  0  0  0  0
   -3.0420   22.1820  -30.5510 C   0  0  0  0  0  0  0  0  0  0  0  0
   -3.9220   23.1980  -31.0370 C   0  0  0  0  0  0  0  0  0  0  0  0
   -4.8520   22.9750  -32.2240 C   0  0  0  0  0  0  0  0  0  0  0  0
   -6.1450   22.3180  -31.8050 C   0  0  0  0  0  0  0  0  0  0  0  0
   -6.8680   22.8100  -30.7020 C   0  0  0  0  0  0  0  0  0  0  0  0
   -8.0750   22.2150  -30.3250 C   0  0  0  0  0  0  0  0  0  0  0  0
   -8.5790   21.1330  -31.0500 C   0  0  0  0  0  0  0  0  0  0  0  0
   -7.8810   20.6490  -32.1590 C   0  0  0  0  0  0  0  0  0  0  0  0
   -6.6730   21.2410  -32.5400 C   0  0  0  0  0  0  0  0  0  0  0  0
   -3.8810   24.4740  -30.4410 C   0  0  0  0  0  0  0  0  0  0  0  0
   -4.6460   25.3970  -30.8300 O   0  0  0  0  0  0  0  0  0  0  0  0
   -3.0110   24.7370  -29.4410 N   0  0  0  0  0  0  0  0  0  0  0  0
   -2.1340   23.8220  -28.9640 C   0  0  0  0  0  0  0  0  0  0  0  0
   -1.2360   24.1850  -27.9300 C   0  0  0  0  0  0  0  0  0  0  0  0
   -1.2400   25.5800  -27.3080 C   0  0  2  0  0  0  0  0  0  0  0  0
    0.2020   26.1270  -27.3430 C   0  0  0  0  0  0  0  0  0  0  0  0
   -1.8070   25.5540  -25.9300 N   0  0  0  0  0  0  0  0  0  0  0  0
   -1.5720   26.8250  -25.2140 C   0  0  0  0  0  0  0  0  0  0  0  0
   -3.2620   25.3000  -25.9680 C   0  0  0  0  0  0  0  0  0  0  0  0
   -0.3290   23.2300  -27.4480 C   0  0  0  0  0  0  0  0  0  0  0  0
   -0.2970   21.9490  -27.9870 C   0  0  0  0  0  0  0  0  0  0  0  0
   -1.1750   21.5900  -29.0090 C   0  0  0  0  0  0  0  0  0  0  0  0
   -2.1170   22.5160  -29.5120 C   0  0  0  0  0  0  0  0  0  0  0  0
   -2.9065   22.0469  -33.3635 H   0  0  0  0  0  0  0  0  0  0  0  0
   -1.3995   21.3058  -34.0009 H   0  0  0  0  0  0  0  0  0  0  0  0
   -2.9314   20.3677  -34.0009 H   0  0  0  0  0  0  0  0  0  0  0  0
   -1.8403   19.4929  -32.1283 H   0  0  0  0  0  0  0  0  0  0  0  0
   -1.1092   21.1040  -31.7032 H   0  0  0  0  0  0  0  0  0  0  0  0
   -4.0140   20.6730  -31.5510 H   0  0  0  0  0  0  0  0  0  0  0  0
   -3.0590   20.1010  -30.3470 H   0  0  0  0  0  0  0  0  0  0  0  0
   -5.0795   23.9470  -32.6861 H   0  0  0  0  0  0  0  0  0  0  0  0
   -4.3442   22.3086  -32.9368 H   0  0  0  0  0  0  0  0  0  0  0  0
   -6.4805   23.6681  -30.1333 H   0  0  0  0  0  0  0  0  0  0  0  0
   -8.6289   22.5995  -29.4559 H   0  0  0  0  0  0  0  0  0  0  0  0
   -9.5259   20.6618  -30.7477 H   0  0  0  0  0  0  0  0  0  0  0  0
   -8.2823   19.8010  -32.7333 H   0  0  0  0  0  0  0  0  0  0  0  0
   -6.1322   20.8623  -33.4198 H   0  0  0  0  0  0  0  0  0  0  0  0
   -1.8905   26.2530  -27.8859 H   0  0  0  0  0  0  0  0  0  0  0  0
    0.5667   26.2654  -26.3145 H   0  0  0  0  0  0  0  0  0  0  0  0
    0.8523   25.4131  -27.8697 H   0  0  0  0  0  0  0  0  0  0  0  0
    0.2152   27.0926  -27.8697 H   0  0  0  0  0  0  0  0  0  0  0  0
   -1.6051   26.6462  -24.1291 H   0  0  0  0  0  0  0  0  0  0  0  0
   -0.5848   27.2242  -25.4899 H   0  0  0  0  0  0  0  0  0  0  0  0
   -2.3512   27.5508  -25.4899 H   0  0  0  0  0  0  0  0  0  0  0  0
   -3.6494   25.2324  -24.9407 H   0  0  0  0  0  0  0  0  0  0  0  0
   -3.7644   26.1240  -26.4958 H   0  0  0  0  0  0  0  0  0  0  0  0
   -3.4555   24.3545  -26.4958 H   0  0  0  0  0  0  0  0  0  0  0  0
    0.3634   23.4971  -26.6360 H   0  0  0  0  0  0  0  0  0  0  0  0
    0.4260   21.2135  -27.6046 H   0  0  0  0  0  0  0  0  0  0  0  0
   -1.1341   20.5741  -29.4288 H   0  0  0  0  0  0  0  0  0  0  0  0
  1  2  1  0
  2  3  1  0
  3  4  1  0
  4  5  2  0
  5  6  1  0
  6  7  1  0
  7  8  2  0
  8  9  1  0
  9 10  2  0
 10 11  1  0
 11 12  2  0
  5 13  1  0
 13 14  2  0
 13 15  1  0
 15 16  1  0
 16 17  2  0
 17 18  1  0
 18 19  1  0
 18 20  1  0
 20 21  1  0
 20 22  1  0
 17 23  1  0
 23 24  2  0
 24 25  1  0
 25 26  2  0
 26  4  1  0
 12  7  1  0
 26 16  1  0
  1 27  1  0
  1 28  1  0
  1 29  1  0
  2 30  1  0
  2 31  1  0
  3 32  1  0
  3 33  1  0
  6 34  1  0
  6 35  1  0
  8 36  1  0
  9 37  1  0
 10 38  1  0
 11 39  1  0
 12 40  1  0
 18 41  1  6
 19 42  1  0
 19 43  1  0
 19 44  1  0
 21 45  1  0
 21 46  1  0
 21 47  1  0
 22 48  1  0
 22 49  1  0
 22 50  1  0
 23 51  1  0
 24 52  1  0
 25 53  1  0
M  CHG  2   3   1  15  -1
M  END
>  <UniqueID>  (25) 
25

>  <SMILES>  (25) 
CC[NH2+]c1c(Cc2ccccc2)c(=O)[n-]c2c([C@H](C)N(C)C)cccc12

>  <Energy>  (25) 
68.32586775282627

>  <Genealogy>  (25) 
CC[NH2+]c1c(Cc2ccccc2)c(=O)[n-]c2c(C(C)N(C)C)cccc12 (protonated)
CC[NH2+]c1c(Cc2ccccc2)c(=O)[n-]c2c([C@H](C)N(C)C)cccc12 (chirality)
CC[NH2+]c1c(Cc2ccccc2)c(=O)[n-]c2c([C@H](C)N(C)C)cccc12 (3D coordinates assigned)
CC[NH2+]c1c(Cc2ccccc2)c(=O)[n-]c2c([C@H](C)N(C)C)cccc12 (optimized conformer: 68.32586775282627 kcal/mol)

>  <smiles>  (25) 
CCNc1c(Cc2ccccc2)c(=O)[nH]c2c(C(C)N(C)C)cccc12

>  <score_type>  (25) 
oracle

>  <origin>  (25) 
adg

>  <m_score__min__energy>  (25) 
-8.9499999999999993

>  <m_primary>  (25) 
energy

$$$$
25:0
     RDKit          3D

 40 40  0  0  0  0  0  0  0  0999 V2000
   -5.0460   20.1080  -33.1910 C   0  0  0  0  0  0  0  0  0  0  0  0
   -6.0780   19.3270  -33.9210 C   0  0  0  0  0  0  0  0  0  0  0  0
   -6.4300   18.0570  -33.4420 N   0  0  0  0  0  0  0  0  0  0  0  0
   -5.6450   16.9410  -33.8070 C   0  0  0  0  0  0  0  0  0  0  0  0
   -4.7010   17.1820  -34.9650 C   0  0  0  0  0  0  0  0  0  0  0  0
   -7.2530   17.9540  -32.2980 C   0  0  0  0  0  0  0  0  0  0  0  0
   -8.1820   19.0850  -32.1850 C   0  0  0  0  0  0  0  0  0  0  0  0
   -8.9320   20.0320  -32.0910 C   0  0  0  0  0  0  0  0  0  0  0  0
   -9.8360   21.2010  -31.9600 C   0  0  0  0  0  0  0  0  0  0  0  0
   -8.9190   22.3970  -31.6770 C   0  0  0  0  0  0  0  0  0  0  0  0
   -7.5310   22.1420  -32.1520 C   0  0  0  0  0  0  0  0  0  0  0  0
   -6.8380   23.4290  -32.4690 C   0  0  0  0  0  0  0  0  0  0  0  0
   -6.0710   23.9260  -31.3250 C   0  0  0  0  0  0  0  0  0  0  0  0
   -6.6360   24.1850  -30.0860 C   0  0  0  0  0  0  0  0  0  0  0  0
   -5.6710   24.6320  -29.2380 N   0  0  0  0  0  0  0  0  0  0  0  0
   -4.5210   24.6490  -29.9470 C   0  0  0  0  0  0  0  0  0  0  0  0
   -4.7760   24.2250  -31.1880 N   0  0  0  0  0  0  0  0  0  0  0  0
   -5.1976   19.9933  -32.1076 H   0  0  0  0  0  0  0  0  0  0  0  0
   -4.0462   19.7383  -33.4625 H   0  0  0  0  0  0  0  0  0  0  0  0
   -5.1302   21.1706  -33.4625 H   0  0  0  0  0  0  0  0  0  0  0  0
   -6.9953   19.9340  -33.9312 H   0  0  0  0  0  0  0  0  0  0  0  0
   -5.6150   19.1233  -34.8978 H   0  0  0  0  0  0  0  0  0  0  0  0
   -5.0464   16.6430  -32.9336 H   0  0  0  0  0  0  0  0  0  0  0  0
   -6.3480   16.1619  -34.1369 H   0  0  0  0  0  0  0  0  0  0  0  0
   -3.7034   17.4367  -34.5779 H   0  0  0  0  0  0  0  0  0  0  0  0
   -4.6346   16.2720  -35.5794 H   0  0  0  0  0  0  0  0  0  0  0  0
   -5.0789   18.0125  -35.5794 H   0  0  0  0  0  0  0  0  0  0  0  0
   -7.8341   17.0221  -32.3613 H   0  0  0  0  0  0  0  0  0  0  0  0
   -6.6031   17.9583  -31.4105 H   0  0  0  0  0  0  0  0  0  0  0  0
  -10.3977   21.3592  -32.8924 H   0  0  0  0  0  0  0  0  0  0  0  0
  -10.5774   21.0565  -31.1604 H   0  0  0  0  0  0  0  0  0  0  0  0
   -9.3168   23.2830  -32.1934 H   0  0  0  0  0  0  0  0  0  0  0  0
   -8.8882   22.5599  -30.5896 H   0  0  0  0  0  0  0  0  0  0  0  0
   -6.9712   21.6141  -31.3659 H   0  0  0  0  0  0  0  0  0  0  0  0
   -7.5755   21.5292  -33.0644 H   0  0  0  0  0  0  0  0  0  0  0  0
   -6.1530   23.2665  -33.3142 H   0  0  0  0  0  0  0  0  0  0  0  0
   -7.6032   24.1780  -32.7209 H   0  0  0  0  0  0  0  0  0  0  0  0
   -7.6971   24.0503  -29.8291 H   0  0  0  0  0  0  0  0  0  0  0  0
   -5.7550   24.9140  -28.2360 H   0  0  0  0  0  0  0  0  0  0  0  0
   -3.5374   24.9604  -29.5655 H   0  0  0  0  0  0  0  0  0  0  0  0
  1  2  1  0
  2  3  1  0
  3  4  1  0
  4  5  1  0
  3  6  1  0
  6  7  1  0
  7  8  3  0
  8  9  1  0
  9 10  1  0
 10 11  1  0
 11 12  1  0
 12 13  1  0
 13 14  2  0
 14 15  1  0
 15 16  1  0
 16 17  2  0
 17 13  1  0
  1 18  1  0
  1 19  1  0
  1 20  1  0
  2 21  1  0
  2 22  1  0
  4 23  1  0
  4 24  1  0
  5 25  1  0
  5 26  1  0
  5 27  1  0
  6 28  1  0
  6 29  1  0
  9 30  1  0
  9 31  1  0
 10 32  1  0
 10 33  1  0
 11 34  1  0
 11 35  1  0
 12 36  1  0
 12 37  1  0
 14 38  1  0
 15 39  1  0
 16 40  1  0
M  END
>  <smiles>  (26) 
CCN(CC)CC#CCCCCc1c[nH]cn1

>  <score_type>  (26) 
oracle

>  <origin>  (26) 
adg

>  <m_score__min__energy>  (26) 
-6.0300000000000002

>  <m_primary>  (26) 
energy

$$$$
26:0
     RDKit          3D

 47 47  0  0  0  0  0  0  0  0999 V2000
   -3.2260   19.6480  -32.7800 C   0  0  0  0  0  0  0  0  0  0  0  0
   -4.0470   20.0720  -31.5540 C   0  0  0  0  0  0  0  0  0  0  0  0
   -4.3780   21.5160  -31.5200 N   0  0  0  0  0  0  0  0  0  0  0  0
   -3.8770   22.2280  -32.7090 C   0  0  0  0  0  0  0  0  0  0  0  0
   -3.9530   22.1660  -30.2600 C   0  0  0  0  0  0  0  0  0  0  0  0
   -3.1020   23.4010  -30.5500 C   0  0  0  0  0  0  0  0  0  0  0  0
   -3.9280   24.5450  -30.5310 O   0  0  0  0  0  0  0  0  0  0  0  0
   -4.7180   24.5740  -29.3550 C   0  0  0  0  0  0  0  0  0  0  0  0
   -6.0620   25.2420  -29.6490 C   0  0  0  0  0  0  0  0  0  0  0  0
   -6.9860   24.3210  -30.4510 C   0  0  0  0  0  0  0  0  0  0  0  0
   -6.3490   23.9670  -31.7260 N   0  0  0  0  0  0  0  0  0  0  0  0
   -7.2540   23.1920  -32.5920 C   0  0  0  0  0  0  0  0  0  0  0  0
   -7.9650   22.0980  -31.7860 C   0  0  0  0  0  0  0  0  0  0  0  0
   -7.5550   20.7190  -32.2330 C   0  0  0  0  0  0  0  0  0  0  0  0
   -6.7420   20.5530  -33.3670 C   0  0  0  0  0  0  0  0  0  0  0  0
   -6.4270   19.2700  -33.8260 C   0  0  0  0  0  0  0  0  0  0  0  0
   -6.9220   18.1460  -33.1590 C   0  0  0  0  0  0  0  0  0  0  0  0
   -6.5010   16.3960  -33.7950 Br  0  0  0  0  0  0  0  0  0  0  0  0
   -7.7320   18.3030  -32.0300 C   0  0  0  0  0  0  0  0  0  0  0  0
   -8.0510   19.5850  -31.5700 C   0  0  0  0  0  0  0  0  0  0  0  0
   -2.2941   19.1667  -32.4486 H   0  0  0  0  0  0  0  0  0  0  0  0
   -3.8100   18.9387  -33.3849 H   0  0  0  0  0  0  0  0  0  0  0  0
   -2.9857   20.5348  -33.3849 H   0  0  0  0  0  0  0  0  0  0  0  0
   -4.9875   19.5015  -31.5534 H   0  0  0  0  0  0  0  0  0  0  0  0
   -3.4265   19.8669  -30.6692 H   0  0  0  0  0  0  0  0  0  0  0  0
   -3.2708   23.0895  -32.3921 H   0  0  0  0  0  0  0  0  0  0  0  0
   -3.2586   21.5461  -33.3112 H   0  0  0  0  0  0  0  0  0  0  0  0
   -4.7276   22.5798  -33.3112 H   0  0  0  0  0  0  0  0  0  0  0  0
   -4.8446   22.4674  -29.6906 H   0  0  0  0  0  0  0  0  0  0  0  0
   -3.3524   21.4512  -29.6784 H   0  0  0  0  0  0  0  0  0  0  0  0
   -2.3201   23.4983  -29.7824 H   0  0  0  0  0  0  0  0  0  0  0  0
   -2.6288   23.3016  -31.5380 H   0  0  0  0  0  0  0  0  0  0  0  0
   -4.8904   23.5453  -29.0056 H   0  0  0  0  0  0  0  0  0  0  0  0
   -4.1907   25.1465  -28.5777 H   0  0  0  0  0  0  0  0  0  0  0  0
   -6.5503   25.4960  -28.6966 H   0  0  0  0  0  0  0  0  0  0  0  0
   -5.8734   26.1457  -30.2472 H   0  0  0  0  0  0  0  0  0  0  0  0
   -7.1806   23.4055  -29.8731 H   0  0  0  0  0  0  0  0  0  0  0  0
   -7.9344   24.8413  -30.6504 H   0  0  0  0  0  0  0  0  0  0  0  0
   -5.5110   23.3770  -31.5090 H   0  0  0  0  0  0  0  0  0  0  0  0
   -8.0056   23.8676  -33.0263 H   0  0  0  0  0  0  0  0  0  0  0  0
   -6.6630   22.7181  -33.3896 H   0  0  0  0  0  0  0  0  0  0  0  0
   -7.7116   22.2177  -30.7223 H   0  0  0  0  0  0  0  0  0  0  0  0
   -9.0479   22.2025  -31.9482 H   0  0  0  0  0  0  0  0  0  0  0  0
   -6.3519   21.4353  -33.8956 H   0  0  0  0  0  0  0  0  0  0  0  0
   -5.7888   19.1454  -34.7132 H   0  0  0  0  0  0  0  0  0  0  0  0
   -8.1185   17.4180  -31.5033 H   0  0  0  0  0  0  0  0  0  0  0  0
   -8.6932   19.7052  -30.6851 H   0  0  0  0  0  0  0  0  0  0  0  0
  1  2  1  0
  2  3  1  0
  3  4  1  0
  3  5  1  0
  5  6  1  0
  6  7  1  0
  7  8  1  0
  8  9  1  0
  9 10  1  0
 10 11  1  0
 11 12  1  0
 12 13  1  0
 13 14  1  0
 14 15  2  0
 15 16  1  0
 16 17  2  0
 17 18  1  0
 17 19  1  0
 19 20  2  0
 20 14  1  0
  1 21  1  0
  1 22  1  0
  1 23  1  0
  2 24  1  0
  2 25  1  0
  4 26  1  0
  4 27  1  0
  4 28  1  0
  5 29  1  0
  5 30  1  0
  6 31  1  0
  6 32  1  0
  8 33  1  0
  8 34  1  0
  9 35  1  0
  9 36  1  0
 10 37  1  0
 10 38  1  0
 11 39  1  0
 12 40  1  0
 12 41  1  0
 13 42  1  0
 13 43  1  0
 15 44  1  0
 16 45  1  0
 19 46  1  0
 20 47  1  0
M  END
>  <UniqueID>  (27) 
26

>  <SMILES>  (27) 
CCN(C)CCOCCCNCCc1ccc(Br)cc1

>  <Energy>  (27) 
38.452562769742066

>  <Genealogy>  (27) 
CCN(C)CCOCCCNCCc1ccc(Br)cc1 (3D coordinates assigned)
CCN(C)CCOCCCNCCc1ccc(Br)cc1 (optimized conformer: 38.452562769742066 kcal/mol)

>  <smiles>  (27) 
CCN(C)CCOCCCNCCc1ccc(Br)cc1

>  <score_type>  (27) 
oracle

>  <origin>  (27) 
adg

>  <m_score__min__energy>  (27) 
-7.4000000000000004

>  <m_primary>  (27) 
energy

$$$$
27:0
     RDKit          3D

 67 70  0  0  0  0  0  0  0  0999 V2000
   -9.0880   21.0780  -31.6810 C   0  0  0  0  0  0  0  0  0  0  0  0
   -8.6270   19.6160  -31.7830 C   0  0  0  0  0  0  0  0  0  0  0  0
   -7.8100   19.2970  -32.9890 N   0  0  0  0  0  0  0  0  0  0  0  0
   -6.9700   18.0820  -32.8240 C   0  0  0  0  0  0  0  0  0  0  0  0
   -6.6260   17.7700  -31.3620 C   0  0  0  0  0  0  0  0  0  0  0  0
   -6.9540   20.4250  -33.4410 C   0  0  0  0  0  0  0  0  0  0  0  0
   -5.4530   20.1870  -33.2030 C   0  0  0  0  0  0  0  0  0  0  0  0
   -4.7210   21.4500  -33.2280 N   0  0  0  0  0  0  0  0  0  0  0  0
   -4.0290   21.9100  -32.0620 C   0  0  0  0  0  0  0  0  0  0  0  0
   -4.7090   22.6560  -31.0910 C   0  0  0  0  0  0  0  0  0  0  0  0
   -4.0000   23.1770  -29.9960 C   0  0  0  0  0  0  0  0  0  0  0  0
   -2.6460   22.9550  -29.8700 N   0  0  0  0  0  0  0  0  0  0  0  0
   -1.8540   23.9120  -29.0750 C   0  0  0  0  0  0  0  0  0  0  0  0
   -2.0280   22.0030  -30.6640 C   0  0  0  0  0  0  0  0  0  0  0  0
   -0.7550   21.4270  -30.3500 C   0  0  0  0  0  0  0  0  0  0  0  0
   -0.1820   21.3890  -28.9410 C   0  0  0  0  0  0  0  0  0  0  0  0
   -0.8920   20.4090  -28.1040 N   0  0  0  0  0  0  0  0  0  0  0  0
   -2.0940   20.7290  -27.5340 C   0  0  0  0  0  0  0  0  0  0  0  0
   -2.7610   19.8100  -26.7200 C   0  0  0  0  0  0  0  0  0  0  0  0
   -2.1930   18.5580  -26.4940 C   0  0  0  0  0  0  0  0  0  0  0  0
   -0.9700   18.2380  -27.0810 C   0  0  0  0  0  0  0  0  0  0  0  0
   -0.3300   19.1800  -27.8890 C   0  0  0  0  0  0  0  0  0  0  0  0
   -0.0580   20.7230  -31.3510 C   0  0  0  0  0  0  0  0  0  0  0  0
   -0.6620   20.4260  -32.5650 C   0  0  0  0  0  0  0  0  0  0  0  0
   -1.9820   20.7960  -32.7950 C   0  0  0  0  0  0  0  0  0  0  0  0
   -2.6830   21.5670  -31.8500 C   0  0  0  0  0  0  0  0  0  0  0  0
   -4.8040   23.9760  -28.9850 C   0  0  0  0  0  0  0  0  0  0  0  0
   -5.6930   25.0110  -29.6940 C   0  0  0  0  0  0  0  0  0  0  0  0
   -6.4450   24.4540  -30.9300 C   0  0  0  0  0  0  0  0  0  0  0  0
   -6.1890   22.9620  -31.1960 C   0  0  0  0  0  0  0  0  0  0  0  0
   -9.1773   21.3613  -30.6219 H   0  0  0  0  0  0  0  0  0  0  0  0
   -8.3518   21.7299  -32.1741 H   0  0  0  0  0  0  0  0  0  0  0  0
  -10.0649   21.1897  -32.1741 H   0  0  0  0  0  0  0  0  0  0  0  0
   -8.0251   19.3847  -30.8918 H   0  0  0  0  0  0  0  0  0  0  0  0
   -9.5413   19.0094  -31.8610 H   0  0  0  0  0  0  0  0  0  0  0  0
   -8.4820   19.0960  -33.7680 H   0  0  0  0  0  0  0  0  0  0  0  0
   -7.5135   17.2232  -33.2447 H   0  0  0  0  0  0  0  0  0  0  0  0
   -6.0207   18.2715  -33.3465 H   0  0  0  0  0  0  0  0  0  0  0  0
   -7.2759   18.3595  -30.6986 H   0  0  0  0  0  0  0  0  0  0  0  0
   -6.7811   16.6981  -31.1695 H   0  0  0  0  0  0  0  0  0  0  0  0
   -5.5743   18.0287  -31.1695 H   0  0  0  0  0  0  0  0  0  0  0  0
   -7.1165   20.5759  -34.5184 H   0  0  0  0  0  0  0  0  0  0  0  0
   -7.2405   21.3071  -32.8495 H   0  0  0  0  0  0  0  0  0  0  0  0
   -5.3141   19.7083  -32.2224 H   0  0  0  0  0  0  0  0  0  0  0  0
   -5.0663   19.5377  -34.0023 H   0  0  0  0  0  0  0  0  0  0  0  0
   -4.6220   22.0000  -34.1120 H   0  0  0  0  0  0  0  0  0  0  0  0
   -2.0135   23.7192  -28.0038 H   0  0  0  0  0  0  0  0  0  0  0  0
   -0.7870   23.7926  -29.3141 H   0  0  0  0  0  0  0  0  0  0  0  0
   -2.1708   24.9379  -29.3141 H   0  0  0  0  0  0  0  0  0  0  0  0
    0.8814   21.1125  -28.9935 H   0  0  0  0  0  0  0  0  0  0  0  0
   -0.3020   22.3847  -28.4892 H   0  0  0  0  0  0  0  0  0  0  0  0
   -2.5389   21.7180  -27.7182 H   0  0  0  0  0  0  0  0  0  0  0  0
   -3.7259   20.0726  -26.2617 H   0  0  0  0  0  0  0  0  0  0  0  0
   -2.7076   17.8252  -25.8550 H   0  0  0  0  0  0  0  0  0  0  0  0
   -0.5131   17.2522  -26.9093 H   0  0  0  0  0  0  0  0  0  0  0  0
    0.6342   18.9320  -28.3567 H   0  0  0  0  0  0  0  0  0  0  0  0
    0.9788   20.4042  -31.1684 H   0  0  0  0  0  0  0  0  0  0  0  0
   -0.0955   19.8973  -33.3458 H   0  0  0  0  0  0  0  0  0  0  0  0
   -2.4824   20.4834  -33.7234 H   0  0  0  0  0  0  0  0  0  0  0  0
   -5.4397   23.2901  -28.4059 H   0  0  0  0  0  0  0  0  0  0  0  0
   -4.1076   24.5054  -28.3181 H   0  0  0  0  0  0  0  0  0  0  0  0
   -6.4376   25.3794  -28.9730 H   0  0  0  0  0  0  0  0  0  0  0  0
   -5.0268   25.8069  -30.0584 H   0  0  0  0  0  0  0  0  0  0  0  0
   -7.5241   24.5973  -30.7721 H   0  0  0  0  0  0  0  0  0  0  0  0
   -6.0691   25.0030  -31.8059 H   0  0  0  0  0  0  0  0  0  0  0  0
   -6.7372   22.3619  -30.4548 H   0  0  0  0  0  0  0  0  0  0  0  0
   -6.5346   22.7148  -32.2106 H   0  0  0  0  0  0  0  0  0  0  0  0
  1  2  1  0
  2  3  1  0
  3  4  1  0
  4  5  1  0
  3  6  1  0
  6  7  1  0
  7  8  1  0
  8  9  1  0
  9 10  2  0
 10 11  1  0
 11 12  2  0
 12 13  1  0
 12 14  1  0
 14 15  2  0
 15 16  1  0
 16 17  1  0
 17 18  2  0
 18 19  1  0
 19 20  2  0
 20 21  1  0
 21 22  2  0
 15 23  1  0
 23 24  2  0
 24 25  1  0
 25 26  2  0
 11 27  1  0
 27 28  1  0
 28 29  1  0
 29 30  1  0
 26  9  1  0
 30 10  1  0
 26 14  1  0
 22 17  1  0
  1 31  1  0
  1 32  1  0
  1 33  1  0
  2 34  1  0
  2 35  1  0
  3 36  1  0
  4 37  1  0
  4 38  1  0
  5 39  1  0
  5 40  1  0
  5 41  1  0
  6 42  1  0
  6 43  1  0
  7 44  1  0
  7 45  1  0
  8 46  1  0
 13 47  1  0
 13 48  1  0
 13 49  1  0
 16 50  1  0
 16 51  1  0
 18 52  1  0
 19 53  1  0
 20 54  1  0
 21 55  1  0
 22 56  1  0
 23 57  1  0
 24 58  1  0
 25 59  1  0
 27 60  1  0
 27 61  1  0
 28 62  1  0
 28 63  1  0
 29 64  1  0
 29 65  1  0
 30 66  1  0
 30 67  1  0
M  CHG  3   3   1  12   1  17   1
M  END
>  <UniqueID>  (28) 
27

>  <SMILES>  (28) 
CC[NH+](CC)CCNc1c2c([n+](C)c3c(C[n+]4ccccc4)cccc13)CCCC2

>  <Energy>  (28) 
110.56078420462664

>  <Genealogy>  (28) 
CC[NH+](CC)CCNc1c2c([n+](C)c3c(C[n+]4ccccc4)cccc13)CCCC2 (protonated)
CC[NH+](CC)CCNc1c2c([n+](C)c3c(C[n+]4ccccc4)cccc13)CCCC2 (3D coordinates assigned)
CC[NH+](CC)CCNc1c2c([n+](C)c3c(C[n+]4ccccc4)cccc13)CCCC2 (nonaromatic ring conformer: 110.56078420462664 kcal/mol)

>  <smiles>  (28) 
CCN(CC)CCNc1c2c([n+](C)c3c(C[n+]4ccccc4)cccc13)CCCC2

>  <score_type>  (28) 
oracle

>  <origin>  (28) 
adg

>  <m_score__min__energy>  (28) 
-7.7800000000000002

>  <m_primary>  (28) 
energy

$$$$
