0:0
     RDKit          3D

 47 49  0  0  0  0  0  0  0  0999 V2000
   -6.0010   25.6930  -29.9750 C   0  0  0  0  0  0  0  0  0  0  0  0
   -4.8520   25.1280  -30.8170 C   0  0  0  0  0  0  0  0  0  0  0  0
   -5.1210   23.6700  -31.1850 C   0  0  0  0  0  0  0  0  0  0  0  0
   -3.5940   25.2090  -30.0800 N   0  0  0  0  0  0  0  0  0  0  0  0
   -3.3520   24.5440  -28.8330 C   0  0  0  0  0  0  0  0  0  0  0  0
   -4.2680   24.4990  -27.9650 O   0  0  0  0  0  0  0  0  0  0  0  0
   -2.0160   23.8590  -28.5460 C   0  0  2  0  0  0  0  0  0  0  0  0
   -2.0290   22.4850  -29.1980 C   0  0  0  0  0  0  0  0  0  0  0  0
   -2.7200   21.6180  -28.1530 C   0  0  0  0  0  0  0  0  0  0  0  0
   -2.7090   22.2910  -26.9100 O   0  0  0  0  0  0  0  0  0  0  0  0
   -1.8970   23.4340  -27.0690 C   0  0  1  0  0  0  0  0  0  0  0  0
   -0.4650   23.0860  -26.5910 C   0  0  0  0  0  0  0  0  0  0  0  0
    0.6700   23.6450  -27.4580 C   0  0  0  0  0  0  0  0  0  0  0  0
    0.3030   24.8720  -28.1730 N   0  0  0  0  0  0  0  0  0  0  0  0
    0.5130   26.1550  -27.4680 C   0  0  0  0  0  0  0  0  0  0  0  0
    0.0770   26.1310  -26.0240 C   0  0  0  0  0  0  0  0  0  0  0  0
   -1.2270   26.5020  -25.6680 C   0  0  0  0  0  0  0  0  0  0  0  0
   -1.6230   26.4740  -24.3320 C   0  0  0  0  0  0  0  0  0  0  0  0
   -0.7150   26.0550  -23.3580 C   0  0  0  0  0  0  0  0  0  0  0  0
    0.5410   25.6720  -23.7160 N   0  0  0  0  0  0  0  0  0  0  0  0
    0.9510   25.6990  -25.0140 C   0  0  0  0  0  0  0  0  0  0  0  0
   -0.8650   24.7750  -29.0670 C   0  0  0  0  0  0  0  0  0  0  0  0
   -5.7646   25.5767  -28.9070 H   0  0  0  0  0  0  0  0  0  0  0  0
   -6.1353   26.7599  -30.2068 H   0  0  0  0  0  0  0  0  0  0  0  0
   -6.9279   25.1479  -30.2068 H   0  0  0  0  0  0  0  0  0  0  0  0
   -4.7792   25.7275  -31.7364 H   0  0  0  0  0  0  0  0  0  0  0  0
   -5.2309   23.0744  -30.2668 H   0  0  0  0  0  0  0  0  0  0  0  0
   -6.0461   23.6058  -31.7766 H   0  0  0  0  0  0  0  0  0  0  0  0
   -4.2797   23.2799  -31.7766 H   0  0  0  0  0  0  0  0  0  0  0  0
   -2.5980   22.4991  -30.1393 H   0  0  0  0  0  0  0  0  0  0  0  0
   -1.0259   22.1231  -29.4679 H   0  0  0  0  0  0  0  0  0  0  0  0
   -3.7593   21.4295  -28.4602 H   0  0  0  0  0  0  0  0  0  0  0  0
   -2.1894   20.6590  -28.0588 H   0  0  0  0  0  0  0  0  0  0  0  0
   -2.2055   24.2960  -26.4592 H   0  0  0  0  0  0  0  0  0  0  0  0
   -0.3412   23.4823  -25.5724 H   0  0  0  0  0  0  0  0  0  0  0  0
   -0.3823   21.9908  -26.6512 H   0  0  0  0  0  0  0  0  0  0  0  0
    1.5305   23.8634  -26.8085 H   0  0  0  0  0  0  0  0  0  0  0  0
    0.9060   22.8840  -28.2164 H   0  0  0  0  0  0  0  0  0  0  0  0
    1.5849   26.3994  -27.5033 H   0  0  0  0  0  0  0  0  0  0  0  0
   -0.1057   26.9077  -27.9785 H   0  0  0  0  0  0  0  0  0  0  0  0
   -1.9395   26.8160  -26.4450 H   0  0  0  0  0  0  0  0  0  0  0  0
   -2.6410   26.7790  -24.0479 H   0  0  0  0  0  0  0  0  0  0  0  0
   -1.0150   26.0344  -22.2999 H   0  0  0  0  0  0  0  0  0  0  0  0
    1.2020   25.3460  -22.9770 H   0  0  0  0  0  0  0  0  0  0  0  0
    1.9718   25.3808  -25.2725 H   0  0  0  0  0  0  0  0  0  0  0  0
   -1.2715   25.7872  -29.2094 H   0  0  0  0  0  0  0  0  0  0  0  0
   -0.5032   24.3164  -29.9991 H   0  0  0  0  0  0  0  0  0  0  0  0
  1  2  1  0
  2  3  1  0
  2  4  1  0
  4  5  1  0
  5  6  2  0
  7  5  1  1
  7  8  1  0
  8  9  1  0
  9 10  1  0
 10 11  1  0
 11 12  1  0
 12 13  1  0
 13 14  1  0
 14 15  1  0
 15 16  1  0
 16 17  2  0
 17 18  1  0
 18 19  2  0
 19 20  1  0
 20 21  2  0
 14 22  1  0
 11  7  1  0
 21 16  1  0
 22  7  1  0
  1 23  1  0
  1 24  1  0
  1 25  1  0
  2 26  1  0
  3 27  1  0
  3 28  1  0
  3 29  1  0
  8 30  1  0
  8 31  1  0
  9 32  1  0
  9 33  1  0
 11 34  1  1
 12 35  1  0
 12 36  1  0
 13 37  1  0
 13 38  1  0
 15 39  1  0
 15 40  1  0
 17 41  1  0
 18 42  1  0
 19 43  1  0
 20 44  1  0
 21 45  1  0
 22 46  1  0
 22 47  1  0
M  CHG  2   4  -1  20   1
M  END
>  <UniqueID>  (1) 
1

>  <SMILES>  (1) 
CC(C)[N-]C(=O)[C@]12CCO[C@H]1CCN(Cc1ccc[nH+]c1)C2

>  <Energy>  (1) 
62.909284713887885

>  <Genealogy>  (1) 
CC(C)[N-]C(=O)C12CCOC1CCN(Cc1ccc[nH+]c1)C2 (protonated)
CC(C)[N-]C(=O)[C@]12CCO[C@H]1CCN(Cc1ccc[nH+]c1)C2 (chirality)
CC(C)[N-]C(=O)[C@]12CCO[C@H]1CCN(Cc1ccc[nH+]c1)C2 (3D coordinates assigned)
CC(C)[N-]C(=O)[C@]12CCO[C@H]1CCN(Cc1ccc[nH+]c1)C2 (nonaromatic ring conformer: 62.909284713887885 kcal/mol)

>  <smiles>  (1) 
CC(C)NC(=O)C12CCOC1CCN(Cc1cccnc1)C2

>  <score_type>  (1) 
oracle

>  <origin>  (1) 
adg

>  <m_score__min__energy>  (1) 
-9.2100000000000009

>  <m_primary>  (1) 
energy

$$$$
1:0
     RDKit          3D

 51 54  0  0  0  0  0  0  0  0999 V2000
    1.1334   20.5546  -31.7169 H   0  0  0  0  0  0  0  0  0  0  0  0
    0.0560   20.7740  -31.7490 C   0  0  0  0  0  0  0  0  0  0  0  0
   -0.4360   21.8540  -31.0910 N   0  0  0  0  0  0  0  0  0  0  0  0
   -1.7670   22.1320  -31.0920 C   0  0  0  0  0  0  0  0  0  0  0  0
   -2.2840   23.3070  -30.4470 N   0  0  0  0  0  0  0  0  0  0  0  0
   -3.5260   23.6580  -30.2530 C   0  0  0  0  0  0  0  0  0  0  0  0
   -3.8690   24.9550  -30.4860 N   0  0  0  0  0  0  0  0  0  0  0  0
   -5.1370   25.4160  -30.3190 C   0  0  0  0  0  0  0  0  0  0  0  0
   -5.4190   26.7190  -30.5600 F   0  0  0  0  0  0  0  0  0  0  0  0
   -6.1450   24.5480  -29.9000 C   0  0  0  0  0  0  0  0  0  0  0  0
   -7.1706   24.9166  -29.7511 H   0  0  0  0  0  0  0  0  0  0  0  0
   -5.8370   23.2070  -29.6720 C   0  0  0  0  0  0  0  0  0  0  0  0
   -6.6243   22.5094  -29.3501 H   0  0  0  0  0  0  0  0  0  0  0  0
   -4.5300   22.7490  -29.8520 C   0  0  0  0  0  0  0  0  0  0  0  0
   -4.2847   21.6901  -29.6830 H   0  0  0  0  0  0  0  0  0  0  0  0
   -2.6370   21.3240  -31.8280 C   0  0  0  0  0  0  0  0  0  0  0  0
   -3.7118   21.5542  -31.8704 H   0  0  0  0  0  0  0  0  0  0  0  0
   -2.1180   20.2130  -32.5130 C   0  0  0  0  0  0  0  0  0  0  0  0
   -2.9860   19.3060  -33.3060 C   0  0  0  0  0  0  0  0  0  0  0  0
   -2.4380   18.3420  -34.1710 C   0  0  0  0  0  0  0  0  0  0  0  0
   -1.3464   18.2664  -34.2836 H   0  0  0  0  0  0  0  0  0  0  0  0
   -3.2710   17.4800  -34.8880 C   0  0  0  0  0  0  0  0  0  0  0  0
   -2.7320   16.5550  -35.7200 F   0  0  0  0  0  0  0  0  0  0  0  0
   -4.6560   17.5550  -34.7350 C   0  0  0  0  0  0  0  0  0  0  0  0
   -5.3059   16.8766  -35.3072 H   0  0  0  0  0  0  0  0  0  0  0  0
   -5.2250   18.4880  -33.8580 C   0  0  0  0  0  0  0  0  0  0  0  0
   -6.6560   18.5190  -33.6980 N   0  0  0  0  0  0  0  0  0  0  0  0
   -7.2230   19.0040  -34.4310 H   0  0  0  0  0  0  0  0  0  0  0  0
   -7.3930   17.7970  -32.6560 C   0  0  0  0  0  0  0  0  0  0  0  0
   -7.9603   16.9768  -33.1202 H   0  0  0  0  0  0  0  0  0  0  0  0
   -6.6701   17.4031  -31.9264 H   0  0  0  0  0  0  0  0  0  0  0  0
   -8.3690   18.7290  -31.9210 C   0  0  0  0  0  0  0  0  0  0  0  0
   -9.3881   18.3237  -32.0058 H   0  0  0  0  0  0  0  0  0  0  0  0
   -8.0692   18.7919  -30.8645 H   0  0  0  0  0  0  0  0  0  0  0  0
   -8.3370   20.0870  -32.5050 N   0  0  0  0  0  0  0  0  0  0  0  0
   -9.6140   20.8200  -32.3120 C   0  0  0  0  0  0  0  0  0  0  0  0
   -9.9538   21.2021  -33.2859 H   0  0  0  0  0  0  0  0  0  0  0  0
  -10.3436   20.1192  -31.8801 H   0  0  0  0  0  0  0  0  0  0  0  0
   -9.4640   22.0030  -31.3410 C   0  0  0  0  0  0  0  0  0  0  0  0
  -10.4323   22.5192  -31.2645 H   0  0  0  0  0  0  0  0  0  0  0  0
   -9.1396   21.5956  -30.3721 H   0  0  0  0  0  0  0  0  0  0  0  0
   -8.4830   22.9400  -31.7590 O   0  0  0  0  0  0  0  0  0  0  0  0
   -7.3320   22.3410  -32.3430 C   0  0  0  0  0  0  0  0  0  0  0  0
   -7.3996   22.4604  -33.4344 H   0  0  0  0  0  0  0  0  0  0  0  0
   -6.4603   22.8502  -31.9061 H   0  0  0  0  0  0  0  0  0  0  0  0
   -7.1620   20.8440  -32.0340 C   0  0  0  0  0  0  0  0  0  0  0  0
   -6.2613   20.4687  -32.5418 H   0  0  0  0  0  0  0  0  0  0  0  0
   -7.0642   20.7122  -30.9463 H   0  0  0  0  0  0  0  0  0  0  0  0
   -4.3840   19.3780  -33.1650 C   0  0  0  0  0  0  0  0  0  0  0  0
   -4.8249   20.1394  -32.5049 H   0  0  0  0  0  0  0  0  0  0  0  0
   -0.7810   19.9640  -32.4470 N   0  0  0  0  0  0  0  0  0  0  0  0
  1  2  1  0
  2  3  2  0
  3  4  1  0
  4  5  1  0
  5  6  2  0
  6  7  1  0
  7  8  1  0
  8  9  1  0
  8 10  2  0
 10 11  1  0
 10 12  1  0
 12 13  1  0
 12 14  2  0
 14 15  1  0
  4 16  2  0
 16 17  1  0
 16 18  1  0
 18 19  1  0
 19 20  2  0
 20 21  1  0
 20 22  1  0
 22 23  1  0
 22 24  2  0
 24 25  1  0
 24 26  1  0
 26 27  1  0
 27 28  1  0
 27 29  1  0
 29 30  1  0
 29 31  1  0
 29 32  1  0
 32 33  1  0
 32 34  1  0
 32 35  1  0
 35 36  1  0
 36 37  1  0
 36 38  1  0
 36 39  1  0
 39 40  1  0
 39 41  1  0
 39 42  1  0
 42 43  1  0
 43 44  1  0
 43 45  1  0
 43 46  1  0
 46 47  1  0
 46 48  1  0
 26 49  2  0
 49 50  1  0
 18 51  2  0
 51  2  1  0
 14  6  1  0
 49 19  1  0
 46 35  1  0
M  CHG  1   7  -1
M  END
>  <UniqueID>  (2) 
2

>  <SMILES>  (2) 
Fc1cc(NCCN2CCOCC2)cc(-c2cc(/N=c3\cccc(F)[n-]3)ncn2)c1

>  <Energy>  (2) 
80.13904333070964

>  <Genealogy>  (2) 
Fc1cc(NCCN2CCOCC2)cc(-c2cc(N=c3cccc(F)[n-]3)ncn2)c1 (protonated)
Fc1cc(NCCN2CCOCC2)cc(-c2cc(/N=c3\cccc(F)[n-]3)ncn2)c1 (cis-trans isomerization)
Fc1cc(NCCN2CCOCC2)cc(-c2cc(/N=c3\cccc(F)[n-]3)ncn2)c1 (3D coordinates assigned)
Fc1cc(NCCN2CCOCC2)cc(-c2cc(/N=c3\cccc(F)[n-]3)ncn2)c1 (nonaromatic ring conformer: 80.13904333070964 kcal/mol)

>  <smiles>  (2) 
Fc1cc(NCCN2CCOCC2)cc(-c2cc(N=c3cccc(F)[nH]3)ncn2)c1

>  <score_type>  (2) 
oracle

>  <origin>  (2) 
adg

>  <m_score__min__energy>  (2) 
-10.35

>  <m_primary>  (2) 
energy

$$$$
2:0
     RDKit          3D

 49 50  0  0  0  0  0  0  0  0999 V2000
   -2.8610   19.1960  -26.7020 C   0  0  0  0  0  0  0  0  0  0  0  0
   -2.7650   20.4500  -27.5690 C   0  0  0  0  0  0  0  0  0  0  0  0
   -1.9110   21.5480  -26.9130 C   0  0  0  0  0  0  0  0  0  0  0  0
   -0.9400   22.1240  -27.8590 N   0  0  0  0  0  0  0  0  0  0  0  0
    0.3640   21.4610  -28.0430 C   0  0  0  0  0  0  0  0  0  0  0  0
    0.2730   20.2460  -28.9850 C   0  0  0  0  0  0  0  0  0  0  0  0
    0.3210   18.9170  -28.2390 C   0  0  0  0  0  0  0  0  0  0  0  0
   -1.3710   23.1180  -28.8180 C   0  0  0  0  0  0  0  0  0  0  0  0
   -0.8440   23.1510  -29.9640 O   0  0  0  0  0  0  0  0  0  0  0  0
   -2.4540   24.1160  -28.5060 C   0  0  0  0  0  0  0  0  0  0  0  0
   -2.7420   24.9240  -29.6850 N   0  0  0  0  0  0  0  0  0  0  0  0
   -3.8730   24.6950  -30.5330 C   0  0  0  0  0  0  0  0  0  0  0  0
   -4.6400   25.6490  -30.8330 O   0  0  0  0  0  0  0  0  0  0  0  0
   -4.1650   23.3240  -31.0060 C   0  0  0  0  0  0  0  0  0  0  0  0
   -3.1270   22.4470  -31.1280 N   0  0  0  0  0  0  0  0  0  0  0  0
   -3.3020   21.1720  -31.4960 N   0  0  0  0  0  0  0  0  0  0  0  0
   -2.1390   20.2790  -31.5840 C   0  0  0  0  0  0  0  0  0  0  0  0
   -4.5520   20.6850  -31.7640 C   0  0  0  0  0  0  0  0  0  0  0  0
   -4.7030   19.4730  -32.0880 O   0  0  0  0  0  0  0  0  0  0  0  0
   -5.6660   21.5370  -31.6880 C   0  0  0  0  0  0  0  0  0  0  0  0
   -6.9620   21.0720  -31.9870 C   0  0  0  0  0  0  0  0  0  0  0  0
   -8.0510   21.9420  -31.9450 C   0  0  0  0  0  0  0  0  0  0  0  0
   -7.8630   23.2820  -31.6180 C   0  0  0  0  0  0  0  0  0  0  0  0
   -6.5870   23.7590  -31.3130 C   0  0  0  0  0  0  0  0  0  0  0  0
   -5.4740   22.8880  -31.3180 C   0  0  0  0  0  0  0  0  0  0  0  0
   -2.8391   19.4819  -25.6400 H   0  0  0  0  0  0  0  0  0  0  0  0
   -3.8020   18.6701  -26.9208 H   0  0  0  0  0  0  0  0  0  0  0  0
   -2.0110   18.5330  -26.9208 H   0  0  0  0  0  0  0  0  0  0  0  0
   -2.3125   20.1791  -28.5343 H   0  0  0  0  0  0  0  0  0  0  0  0
   -3.7822   20.8476  -27.7002 H   0  0  0  0  0  0  0  0  0  0  0  0
   -2.5748   22.3478  -26.5529 H   0  0  0  0  0  0  0  0  0  0  0  0
   -1.3510   21.0948  -26.0817 H   0  0  0  0  0  0  0  0  0  0  0  0
    1.0730   22.1864  -28.4685 H   0  0  0  0  0  0  0  0  0  0  0  0
    0.7005   21.1006  -27.0597 H   0  0  0  0  0  0  0  0  0  0  0  0
   -0.6739   20.3028  -29.5418 H   0  0  0  0  0  0  0  0  0  0  0  0
    1.1433   20.2811  -29.6569 H   0  0  0  0  0  0  0  0  0  0  0  0
    0.3142   19.1045  -27.1551 H   0  0  0  0  0  0  0  0  0  0  0  0
   -0.5559   18.3115  -28.5119 H   0  0  0  0  0  0  0  0  0  0  0  0
    1.2393   18.3763  -28.5119 H   0  0  0  0  0  0  0  0  0  0  0  0
   -3.3650   23.5811  -28.1995 H   0  0  0  0  0  0  0  0  0  0  0  0
   -2.1156   24.7734  -27.6915 H   0  0  0  0  0  0  0  0  0  0  0  0
   -2.1640   22.7850  -30.8970 H   0  0  0  0  0  0  0  0  0  0  0  0
   -1.7994   20.0183  -30.5707 H   0  0  0  0  0  0  0  0  0  0  0  0
   -2.4203   19.3626  -32.1236 H   0  0  0  0  0  0  0  0  0  0  0  0
   -1.3263   20.7874  -32.1236 H   0  0  0  0  0  0  0  0  0  0  0  0
   -7.1157   20.0163  -32.2552 H   0  0  0  0  0  0  0  0  0  0  0  0
   -9.0608   21.5686  -32.1707 H   0  0  0  0  0  0  0  0  0  0  0  0
   -8.7231   23.9675  -31.5999 H   0  0  0  0  0  0  0  0  0  0  0  0
   -6.4466   24.8218  -31.0667 H   0  0  0  0  0  0  0  0  0  0  0  0
  1  2  1  0
  2  3  1  0
  3  4  1  0
  4  5  1  0
  5  6  1  0
  6  7  1  0
  4  8  1  0
  8  9  2  0
  8 10  1  0
 10 11  1  0
 11 12  1  0
 12 13  2  0
 12 14  1  0
 14 15  2  0
 15 16  1  0
 16 17  1  0
 16 18  1  0
 18 19  2  0
 18 20  1  0
 20 21  2  0
 21 22  1  0
 22 23  2  0
 23 24  1  0
 24 25  2  0
 25 14  1  0
 25 20  1  0
  1 26  1  0
  1 27  1  0
  1 28  1  0
  2 29  1  0
  2 30  1  0
  3 31  1  0
  3 32  1  0
  5 33  1  0
  5 34  1  0
  6 35  1  0
  6 36  1  0
  7 37  1  0
  7 38  1  0
  7 39  1  0
 10 40  1  0
 10 41  1  0
 15 42  1  0
 17 43  1  0
 17 44  1  0
 17 45  1  0
 21 46  1  0
 22 47  1  0
 23 48  1  0
 24 49  1  0
M  CHG  2  11  -1  15   1
M  END
>  <UniqueID>  (3) 
3

>  <SMILES>  (3) 
CCCN(CCC)C(=O)C[N-]C(=O)c1[nH+]n(C)c(=O)c2ccccc12

>  <Energy>  (3) 
51.18703509984688

>  <Genealogy>  (3) 
CCCN(CCC)C(=O)C[N-]C(=O)c1[nH+]n(C)c(=O)c2ccccc12 (protonated)
CCCN(CCC)C(=O)C[N-]C(=O)c1[nH+]n(C)c(=O)c2ccccc12 (3D coordinates assigned)
CCCN(CCC)C(=O)C[N-]C(=O)c1[nH+]n(C)c(=O)c2ccccc12 (optimized conformer: 51.18703509984688 kcal/mol)

>  <smiles>  (3) 
CCCN(CCC)C(=O)CNC(=O)c1nn(C)c(=O)c2ccccc12

>  <score_type>  (3) 
oracle

>  <origin>  (3) 
adg

>  <m_score__min__energy>  (3) 
-8.8699999999999992

>  <m_primary>  (3) 
energy

$$$$
3:0
     RDKit          3D

 50 51  0  0  0  0  0  0  0  0999 V2000
   -0.8630   26.6580  -23.8150 C   0  0  0  0  0  0  0  0  0  0  0  0
   -0.8830   25.2930  -24.5140 C   0  0  0  0  0  0  0  0  0  0  0  0
    0.4420   24.6190  -24.4730 N   0  0  0  0  0  0  0  0  0  0  0  0
    1.5200   25.5660  -24.8730 C   0  0  0  0  0  0  0  0  0  0  0  0
    2.8080   25.3510  -24.0680 C   0  0  0  0  0  0  0  0  0  0  0  0
    0.4460   23.4340  -25.3740 C   0  0  0  0  0  0  0  0  0  0  0  0
   -0.4740   23.6200  -26.5610 C   0  0  0  0  0  0  0  0  0  0  0  0
   -0.1530   24.5520  -27.5590 C   0  0  0  0  0  0  0  0  0  0  0  0
   -0.9940   24.7240  -28.6620 C   0  0  0  0  0  0  0  0  0  0  0  0
   -2.1780   23.9740  -28.7820 C   0  0  0  0  0  0  0  0  0  0  0  0
   -3.0720   24.1370  -29.9560 C   0  0  0  0  0  0  0  0  0  0  0  0
   -3.4940   25.2880  -30.2480 O   0  0  0  0  0  0  0  0  0  0  0  0
   -3.4720   22.9890  -30.8070 C   0  0  0  0  0  0  0  0  0  0  0  0
   -2.6780   21.8300  -30.8310 C   0  0  0  0  0  0  0  0  0  0  0  0
   -3.0260   20.7480  -31.6410 C   0  0  0  0  0  0  0  0  0  0  0  0
   -4.1620   20.8020  -32.4490 C   0  0  0  0  0  0  0  0  0  0  0  0
   -4.4650   19.6870  -33.2460 O   0  0  0  0  0  0  0  0  0  0  0  0
   -5.7650   19.3760  -33.7380 C   0  0  0  0  0  0  0  0  0  0  0  0
   -4.9590   21.9620  -32.4400 C   0  0  0  0  0  0  0  0  0  0  0  0
   -4.6210   23.0610  -31.6230 C   0  0  0  0  0  0  0  0  0  0  0  0
   -5.4100   24.2230  -31.5880 O   0  0  0  0  0  0  0  0  0  0  0  0
   -6.4690   24.4590  -30.6660 C   0  0  0  0  0  0  0  0  0  0  0  0
   -2.4900   23.0340  -27.7840 C   0  0  0  0  0  0  0  0  0  0  0  0
   -1.6500   22.8630  -26.6810 C   0  0  0  0  0  0  0  0  0  0  0  0
   -0.8651   26.5117  -22.7248 H   0  0  0  0  0  0  0  0  0  0  0  0
    0.0433   27.2075  -24.1094 H   0  0  0  0  0  0  0  0  0  0  0  0
   -1.7528   27.2338  -24.1094 H   0  0  0  0  0  0  0  0  0  0  0  0
   -1.6226   24.6503  -24.0141 H   0  0  0  0  0  0  0  0  0  0  0  0
   -1.1438   25.4591  -25.5697 H   0  0  0  0  0  0  0  0  0  0  0  0
    0.6230   24.2950  -23.4930 H   0  0  0  0  0  0  0  0  0  0  0  0
    1.7411   25.4206  -25.9407 H   0  0  0  0  0  0  0  0  0  0  0  0
    1.1635   26.5873  -24.6735 H   0  0  0  0  0  0  0  0  0  0  0  0
    2.5791   25.3892  -22.9928 H   0  0  0  0  0  0  0  0  0  0  0  0
    3.2364   24.3689  -24.3170 H   0  0  0  0  0  0  0  0  0  0  0  0
    3.5321   26.1407  -24.3170 H   0  0  0  0  0  0  0  0  0  0  0  0
    1.4701   23.2705  -25.7408 H   0  0  0  0  0  0  0  0  0  0  0  0
    0.0861   22.5686  -24.7981 H   0  0  0  0  0  0  0  0  0  0  0  0
    0.7657   25.1508  -27.4730 H   0  0  0  0  0  0  0  0  0  0  0  0
   -0.7278   25.4518  -29.4427 H   0  0  0  0  0  0  0  0  0  0  0  0
   -1.7744   21.7750  -30.2061 H   0  0  0  0  0  0  0  0  0  0  0  0
   -2.3988   19.8443  -31.6423 H   0  0  0  0  0  0  0  0  0  0  0  0
   -6.4481   19.2126  -32.8914 H   0  0  0  0  0  0  0  0  0  0  0  0
   -6.1344   20.2111  -34.3513 H   0  0  0  0  0  0  0  0  0  0  0  0
   -5.7165   18.4641  -34.3513 H   0  0  0  0  0  0  0  0  0  0  0  0
   -5.8547   22.0121  -33.0766 H   0  0  0  0  0  0  0  0  0  0  0  0
   -6.0862   24.3737  -29.6383 H   0  0  0  0  0  0  0  0  0  0  0  0
   -6.8741   25.4695  -30.8237 H   0  0  0  0  0  0  0  0  0  0  0  0
   -7.2648   23.7162  -30.8237 H   0  0  0  0  0  0  0  0  0  0  0  0
   -3.4037   22.4279  -27.8726 H   0  0  0  0  0  0  0  0  0  0  0  0
   -1.9115   22.1313  -25.9024 H   0  0  0  0  0  0  0  0  0  0  0  0
  1  2  1  0
  2  3  1  0
  3  4  1  0
  4  5  1  0
  3  6  1  0
  6  7  1  0
  7  8  2  0
  8  9  1  0
  9 10  2  0
 10 11  1  0
 11 12  2  0
 11 13  1  0
 13 14  2  0
 14 15  1  0
 15 16  2  0
 16 17  1  0
 17 18  1  0
 16 19  1  0
 19 20  2  0
 20 21  1  0
 21 22  1  0
 10 23  1  0
 23 24  2  0
 24  7  1  0
 20 13  1  0
  1 25  1  0
  1 26  1  0
  1 27  1  0
  2 28  1  0
  2 29  1  0
  3 30  1  0
  4 31  1  0
  4 32  1  0
  5 33  1  0
  5 34  1  0
  5 35  1  0
  6 36  1  0
  6 37  1  0
  8 38  1  0
  9 39  1  0
 14 40  1  0
 15 41  1  0
 18 42  1  0
 18 43  1  0
 18 44  1  0
 19 45  1  0
 22 46  1  0
 22 47  1  0
 22 48  1  0
 23 49  1  0
 24 50  1  0
M  CHG  1   3   1
M  END
>  <UniqueID>  (4) 
4

>  <SMILES>  (4) 
CC[NH+](CC)Cc1ccc(C(=O)c2ccc(OC)cc2OC)cc1

>  <Energy>  (4) 
57.13098768020055

>  <Genealogy>  (4) 
CC[NH+](CC)Cc1ccc(C(=O)c2ccc(OC)cc2OC)cc1 (protonated)
CC[NH+](CC)Cc1ccc(C(=O)c2ccc(OC)cc2OC)cc1 (3D coordinates assigned)
CC[NH+](CC)Cc1ccc(C(=O)c2ccc(OC)cc2OC)cc1 (optimized conformer: 57.13098768020055 kcal/mol)

>  <smiles>  (4) 
CCN(CC)Cc1ccc(C(=O)c2ccc(OC)cc2OC)cc1

>  <score_type>  (4) 
oracle

>  <origin>  (4) 
adg

>  <m_score__min__energy>  (4) 
-7.7000000000000002

>  <m_primary>  (4) 
energy

$$$$
4:0
     RDKit          3D

 48 50  0  0  0  0  0  0  0  0999 V2000
   -5.3560   25.6710  -30.5740 C   0  0  0  0  0  0  0  0  0  0  0  0
   -3.9620   25.3860  -30.6300 O   0  0  0  0  0  0  0  0  0  0  0  0
   -3.3120   24.4230  -29.8410 C   0  0  0  0  0  0  0  0  0  0  0  0
   -2.7340   24.7430  -28.6020 C   0  0  0  0  0  0  0  0  0  0  0  0
   -2.0940   23.7560  -27.8410 C   0  0  0  0  0  0  0  0  0  0  0  0
   -1.5120   24.0440  -26.6110 C   0  0  0  0  0  0  0  0  0  0  0  0
   -1.4060   25.2040  -25.8600 C   0  0  0  0  0  0  0  0  0  0  0  0
   -0.7460   24.9330  -24.7050 N   0  0  0  0  0  0  0  0  0  0  0  0
   -0.4690   25.8960  -23.6380 C   0  0  0  0  0  0  0  0  0  0  0  0
    0.9440   26.4940  -23.7660 C   0  0  0  0  0  0  0  0  0  0  0  0
    2.0070   25.4520  -23.8130 N   0  0  0  0  0  0  0  0  0  0  0  0
    2.3760   25.1260  -25.2040 C   0  0  0  0  0  0  0  0  0  0  0  0
    3.2080   25.8980  -23.0840 C   0  0  0  0  0  0  0  0  0  0  0  0
   -0.4260   23.6170  -24.7030 C   0  0  0  0  0  0  0  0  0  0  0  0
    0.1880   23.0370  -23.7670 O   0  0  0  0  0  0  0  0  0  0  0  0
   -0.8730   23.0170  -25.8550 C   0  0  0  0  0  0  0  0  0  0  0  0
   -0.8140   21.7200  -26.3270 C   0  0  0  0  0  0  0  0  0  0  0  0
   -1.3820   21.4270  -27.5450 N   0  0  0  0  0  0  0  0  0  0  0  0
   -1.2960   20.0340  -28.0130 C   0  0  0  0  0  0  0  0  0  0  0  0
   -2.0170   22.4080  -28.3070 C   0  0  0  0  0  0  0  0  0  0  0  0
   -2.6050   22.1120  -29.5570 C   0  0  0  0  0  0  0  0  0  0  0  0
   -3.2480   23.1080  -30.3190 C   0  0  0  0  0  0  0  0  0  0  0  0
   -3.8380   22.8300  -31.5630 O   0  0  0  0  0  0  0  0  0  0  0  0
   -5.1780   22.3820  -31.7440 C   0  0  0  0  0  0  0  0  0  0  0  0
   -5.6750   25.7362  -29.5233 H   0  0  0  0  0  0  0  0  0  0  0  0
   -5.5550   26.6284  -31.0777 H   0  0  0  0  0  0  0  0  0  0  0  0
   -5.9148   24.8685  -31.0777 H   0  0  0  0  0  0  0  0  0  0  0  0
   -2.7840   25.7756  -28.2263 H   0  0  0  0  0  0  0  0  0  0  0  0
   -1.7956   26.1898  -26.1538 H   0  0  0  0  0  0  0  0  0  0  0  0
   -1.2071   26.7099  -23.6914 H   0  0  0  0  0  0  0  0  0  0  0  0
   -0.5334   25.3694  -22.6744 H   0  0  0  0  0  0  0  0  0  0  0  0
    0.9923   27.0880  -24.6906 H   0  0  0  0  0  0  0  0  0  0  0  0
    1.1248   27.1131  -22.8749 H   0  0  0  0  0  0  0  0  0  0  0  0
    1.6770   24.5710  -23.3510 H   0  0  0  0  0  0  0  0  0  0  0  0
    3.2004   24.3977  -25.2036 H   0  0  0  0  0  0  0  0  0  0  0  0
    1.5067   24.6955  -25.7227 H   0  0  0  0  0  0  0  0  0  0  0  0
    2.6960   26.0417  -25.7227 H   0  0  0  0  0  0  0  0  0  0  0  0
    3.0259   25.8304  -22.0013 H   0  0  0  0  0  0  0  0  0  0  0  0
    4.0598   25.2563  -23.3533 H   0  0  0  0  0  0  0  0  0  0  0  0
    3.4345   26.9402  -23.3533 H   0  0  0  0  0  0  0  0  0  0  0  0
   -0.3202   20.9334  -25.7376 H   0  0  0  0  0  0  0  0  0  0  0  0
   -1.2543   19.3579  -27.1463 H   0  0  0  0  0  0  0  0  0  0  0  0
   -2.1812   19.7962  -28.6212 H   0  0  0  0  0  0  0  0  0  0  0  0
   -0.3883   19.9069  -28.6212 H   0  0  0  0  0  0  0  0  0  0  0  0
   -2.5600   21.0831  -29.9434 H   0  0  0  0  0  0  0  0  0  0  0  0
   -5.6479   22.2249  -30.7619 H   0  0  0  0  0  0  0  0  0  0  0  0
   -5.7452   23.1394  -32.3049 H   0  0  0  0  0  0  0  0  0  0  0  0
   -5.1757   21.4358  -32.3049 H   0  0  0  0  0  0  0  0  0  0  0  0
  1  2  1  0
  2  3  1  0
  3  4  2  0
  4  5  1  0
  5  6  1  0
  6  7  2  0
  7  8  1  0
  8  9  1  0
  9 10  1  0
 10 11  1  0
 11 12  1  0
 11 13  1  0
  8 14  1  0
 14 15  2  0
 14 16  1  0
 16 17  2  0
 17 18  1  0
 18 19  1  0
 18 20  1  0
 20 21  1  0
 21 22  2  0
 22 23  1  0
 23 24  1  0
 22  3  1  0
 20  5  2  0
 16  6  1  0
  1 25  1  0
  1 26  1  0
  1 27  1  0
  4 28  1  0
  7 29  1  0
  9 30  1  0
  9 31  1  0
 10 32  1  0
 10 33  1  0
 11 34  1  0
 12 35  1  0
 12 36  1  0
 12 37  1  0
 13 38  1  0
 13 39  1  0
 13 40  1  0
 17 41  1  0
 19 42  1  0
 19 43  1  0
 19 44  1  0
 21 45  1  0
 24 46  1  0
 24 47  1  0
 24 48  1  0
M  CHG  1  11   1
M  END
>  <UniqueID>  (5) 
5

>  <SMILES>  (5) 
COc1cc2c3cn(CC[NH+](C)C)c(=O)c-3cn(C)c2cc1OC

>  <Energy>  (5) 
93.01537113950423

>  <Genealogy>  (5) 
COc1cc2c3cn(CC[NH+](C)C)c(=O)c-3cn(C)c2cc1OC (protonated)
COc1cc2c3cn(CC[NH+](C)C)c(=O)c-3cn(C)c2cc1OC (3D coordinates assigned)
COc1cc2c3cn(CC[NH+](C)C)c(=O)c-3cn(C)c2cc1OC (optimized conformer: 93.01537113950423 kcal/mol)

>  <smiles>  (5) 
COc1cc2c3cn(CCN(C)C)c(=O)c-3cn(C)c2cc1OC

>  <score_type>  (5) 
oracle

>  <origin>  (5) 
adg

>  <m_score__min__energy>  (5) 
-7.0199999999999996

>  <m_primary>  (5) 
energy

$$$$
5:0
     RDKit          3D

 74 76  0  0  0  0  0  0  0  0999 V2000
   -1.2780   24.9400  -28.9640 C   0  0  0  0  0  0  0  0  0  0  0  0
   -1.4730   23.4330  -28.8440 C   0  0  0  0  0  0  0  0  0  0  0  0
   -2.6520   23.0180  -29.6150 N   0  0  0  0  0  0  0  0  0  0  0  0
   -3.8270   22.8200  -28.7490 C   0  0  0  0  0  0  0  0  0  0  0  0
   -4.3450   24.1690  -28.2350 C   0  0  0  0  0  0  0  0  0  0  0  0
   -5.3270   24.8140  -29.2140 C   0  0  0  0  0  0  0  0  0  0  0  0
   -4.7870   24.7860  -30.5770 N   0  0  0  0  0  0  0  0  0  0  0  0
   -5.8340   24.5480  -31.5870 C   0  0  0  0  0  0  0  0  0  0  0  0
   -5.5850   23.2860  -32.4430 C   0  0  0  0  0  0  0  0  0  0  0  0
   -4.8510   22.2510  -31.7120 N   0  0  0  0  0  0  0  0  0  0  0  0
   -5.0900   20.8610  -32.0010 C   0  0  0  0  0  0  0  0  0  0  0  0
   -6.4130   20.3700  -31.9510 C   0  0  0  0  0  0  0  0  0  0  0  0
   -7.4680   21.1700  -31.4540 C   0  0  0  0  0  0  0  0  0  0  0  0
   -8.7710   20.6800  -31.4000 C   0  0  0  0  0  0  0  0  0  0  0  0
   -9.0510   19.4010  -31.8670 C   0  0  0  0  0  0  0  0  0  0  0  0
   -8.0320   18.6020  -32.3870 C   0  0  0  0  0  0  0  0  0  0  0  0
   -6.6900   19.0600  -32.4270 C   0  0  0  0  0  0  0  0  0  0  0  0
   -5.6770   18.2820  -32.9570 N   0  0  0  0  0  0  0  0  0  0  0  0
   -5.9150   16.8540  -33.2620 C   0  0  0  0  0  0  0  0  0  0  0  0
   -4.4250   18.8260  -33.1610 C   0  0  0  0  0  0  0  0  0  0  0  0
   -3.4900   18.2140  -34.0270 C   0  0  0  0  0  0  0  0  0  0  0  0
   -2.2050   18.7280  -34.1690 C   0  0  0  0  0  0  0  0  0  0  0  0
   -1.7850   19.7910  -33.3770 C   0  0  0  0  0  0  0  0  0  0  0  0
   -2.6700   20.3970  -32.4670 C   0  0  0  0  0  0  0  0  0  0  0  0
   -2.1500   21.3120  -31.4590 N   0  0  0  0  0  0  0  0  0  0  0  0
   -0.6770   21.4360  -31.4550 C   0  0  0  0  0  0  0  0  0  0  0  0
    0.0360   20.2290  -30.7950 C   0  0  0  0  0  0  0  0  0  0  0  0
   -0.8630   19.5070  -29.7770 C   0  0  0  0  0  0  0  0  0  0  0  0
   -1.2930   20.4130  -28.6830 N   0  0  0  0  0  0  0  0  0  0  0  0
   -2.3710   19.7790  -27.9020 C   0  0  0  0  0  0  0  0  0  0  0  0
   -0.1650   20.7410  -27.7910 C   0  0  0  0  0  0  0  0  0  0  0  0
   -4.0580   20.0440  -32.5250 C   0  0  0  0  0  0  0  0  0  0  0  0
   -1.2206   25.3835  -27.9590 H   0  0  0  0  0  0  0  0  0  0  0  0
   -0.3456   25.1468  -29.5098 H   0  0  0  0  0  0  0  0  0  0  0  0
   -2.1271   25.3773  -29.5098 H   0  0  0  0  0  0  0  0  0  0  0  0
   -0.5826   22.9179  -29.2338 H   0  0  0  0  0  0  0  0  0  0  0  0
   -1.6215   23.1704  -27.7862 H   0  0  0  0  0  0  0  0  0  0  0  0
   -2.8760   23.7860  -30.2980 H   0  0  0  0  0  0  0  0  0  0  0  0
   -4.6214   22.3219  -29.3241 H   0  0  0  0  0  0  0  0  0  0  0  0
   -3.5363   22.1981  -27.8895 H   0  0  0  0  0  0  0  0  0  0  0  0
   -4.8543   24.0110  -27.2729 H   0  0  0  0  0  0  0  0  0  0  0  0
   -3.4838   24.8439  -28.1221 H   0  0  0  0  0  0  0  0  0  0  0  0
   -6.2777   24.2612  -29.1899 H   0  0  0  0  0  0  0  0  0  0  0  0
   -5.4891   25.8607  -28.9172 H   0  0  0  0  0  0  0  0  0  0  0  0
   -4.0380   24.0600  -30.6490 H   0  0  0  0  0  0  0  0  0  0  0  0
   -6.7980   24.4339  -31.0697 H   0  0  0  0  0  0  0  0  0  0  0  0
   -5.8283   25.4102  -32.2701 H   0  0  0  0  0  0  0  0  0  0  0  0
   -6.5558   22.8752  -32.7573 H   0  0  0  0  0  0  0  0  0  0  0  0
   -4.9737   23.5829  -33.3079 H   0  0  0  0  0  0  0  0  0  0  0  0
   -4.3840   22.4830  -30.8050 H   0  0  0  0  0  0  0  0  0  0  0  0
   -7.2571   22.1919  -31.1057 H   0  0  0  0  0  0  0  0  0  0  0  0
   -9.5774   21.3046  -30.9882 H   0  0  0  0  0  0  0  0  0  0  0  0
  -10.0809   19.0169  -31.8264 H   0  0  0  0  0  0  0  0  0  0  0  0
   -8.2734   17.6004  -32.7723 H   0  0  0  0  0  0  0  0  0  0  0  0
   -6.0091   16.2892  -32.3228 H   0  0  0  0  0  0  0  0  0  0  0  0
   -6.8423   16.7532  -33.8450 H   0  0  0  0  0  0  0  0  0  0  0  0
   -5.0705   16.4579  -33.8450 H   0  0  0  0  0  0  0  0  0  0  0  0
   -3.7825   17.3193  -34.5962 H   0  0  0  0  0  0  0  0  0  0  0  0
   -1.5190   18.2921  -34.9102 H   0  0  0  0  0  0  0  0  0  0  0  0
   -0.7526   20.1609  -33.4628 H   0  0  0  0  0  0  0  0  0  0  0  0
   -2.5600   22.2610  -31.6250 H   0  0  0  0  0  0  0  0  0  0  0  0
   -2.3910   20.9880  -30.4960 H   0  0  0  0  0  0  0  0  0  0  0  0
   -0.3305   21.5203  -32.4956 H   0  0  0  0  0  0  0  0  0  0  0  0
   -0.4259   22.3278  -30.8620 H   0  0  0  0  0  0  0  0  0  0  0  0
    0.3248   19.5155  -31.5808 H   0  0  0  0  0  0  0  0  0  0  0  0
    0.9161   20.6105  -30.2566 H   0  0  0  0  0  0  0  0  0  0  0  0
   -1.7552   19.1269  -30.2962 H   0  0  0  0  0  0  0  0  0  0  0  0
   -0.2843   18.6839  -29.3324 H   0  0  0  0  0  0  0  0  0  0  0  0
   -2.1656   19.8998  -26.8281 H   0  0  0  0  0  0  0  0  0  0  0  0
   -3.3312   20.2563  -28.1476 H   0  0  0  0  0  0  0  0  0  0  0  0
   -2.4205   18.7079  -28.1476 H   0  0  0  0  0  0  0  0  0  0  0  0
   -0.4868   20.6474  -26.7433 H   0  0  0  0  0  0  0  0  0  0  0  0
    0.6673   20.0477  -27.9822 H   0  0  0  0  0  0  0  0  0  0  0  0
    0.1657   21.7725  -27.9822 H   0  0  0  0  0  0  0  0  0  0  0  0
  1  2  1  0
  2  3  1  0
  3  4  1  0
  4  5  1  0
  5  6  1  0
  6  7  1  0
  7  8  1  0
  8  9  1  0
  9 10  1  0
 10 11  1  0
 11 12  2  0
 12 13  1  0
 13 14  2  0
 14 15  1  0
 15 16  2  0
 16 17  1  0
 17 18  2  0
 18 19  1  0
 18 20  1  0
 20 21  2  0
 21 22  1  0
 22 23  2  0
 23 24  1  0
 24 25  1  0
 25 26  1  0
 26 27  1  0
 27 28  1  0
 28 29  1  0
 29 30  1  0
 29 31  1  0
 24 32  2  0
 32 11  1  0
 17 12  1  0
 32 20  1  0
  1 33  1  0
  1 34  1  0
  1 35  1  0
  2 36  1  0
  2 37  1  0
  3 38  1  0
  4 39  1  0
  4 40  1  0
  5 41  1  0
  5 42  1  0
  6 43  1  0
  6 44  1  0
  7 45  1  0
  8 46  1  0
  8 47  1  0
  9 48  1  0
  9 49  1  0
 10 50  1  0
 13 51  1  0
 14 52  1  0
 15 53  1  0
 16 54  1  0
 19 55  1  0
 19 56  1  0
 19 57  1  0
 21 58  1  0
 22 59  1  0
 23 60  1  0
 25 61  1  0
 25 62  1  0
 26 63  1  0
 26 64  1  0
 27 65  1  0
 27 66  1  0
 28 67  1  0
 28 68  1  0
 30 69  1  0
 30 70  1  0
 30 71  1  0
 31 72  1  0
 31 73  1  0
 31 74  1  0
M  CHG  2  18   1  25   1
M  END
>  <UniqueID>  (6) 
6

>  <SMILES>  (6) 
CCNCCCNCCNc1c2ccccc2[n+](C)c2cccc([NH2+]CCCN(C)C)c12

>  <Energy>  (6) 
106.54132525972372

>  <Genealogy>  (6) 
CCNCCCNCCNc1c2ccccc2[n+](C)c2cccc([NH2+]CCCN(C)C)c12 (protonated)
CCNCCCNCCNc1c2ccccc2[n+](C)c2cccc([NH2+]CCCN(C)C)c12 (3D coordinates assigned)
CCNCCCNCCNc1c2ccccc2[n+](C)c2cccc([NH2+]CCCN(C)C)c12 (optimized conformer: 106.54132525972372 kcal/mol)

>  <smiles>  (6) 
CCNCCCNCCNc1c2ccccc2[n+](C)c2cccc(NCCCN(C)C)c12

>  <score_type>  (6) 
oracle

>  <origin>  (6) 
adg

>  <m_score__min__energy>  (6) 
-8.0800000000000001

>  <m_primary>  (6) 
energy

$$$$
6:0
     RDKit          3D

 61 63  0  0  0  0  0  0  0  0999 V2000
   -1.8000   24.4640  -28.6150 C   0  0  0  0  0  0  0  0  0  0  0  0
   -1.1630   23.2910  -29.3490 C   0  0  0  0  0  0  0  0  0  0  0  0
   -2.1710   22.2650  -29.6340 N   0  0  0  0  0  0  0  0  0  0  0  0
   -2.7570   21.7570  -28.3890 C   0  0  0  0  0  0  0  0  0  0  0  0
   -1.7390   20.8930  -27.6290 C   0  0  0  0  0  0  0  0  0  0  0  0
   -1.2350   19.6900  -28.4420 C   0  0  0  0  0  0  0  0  0  0  0  0
   -0.1790   20.0910  -29.3800 N   0  0  0  0  0  0  0  0  0  0  0  0
   -0.0790   19.1320  -30.4860 C   0  0  0  0  0  0  0  0  0  0  0  0
    0.0010   19.8690  -31.8250 C   0  0  0  0  0  0  0  0  0  0  0  0
   -0.9580   20.9110  -31.8850 O   0  0  0  0  0  0  0  0  0  0  0  0
   -1.3860   21.1460  -33.2130 C   0  0  0  0  0  0  0  0  0  0  0  0
   -2.9220   21.1780  -33.3110 C   0  0  0  0  0  0  0  0  0  0  0  0
   -3.5370   21.2210  -31.9830 N   0  0  0  0  0  0  0  0  0  0  0  0
   -4.9440   21.4610  -31.8010 C   0  0  0  0  0  0  0  0  0  0  0  0
   -5.8760   20.4440  -32.0730 C   0  0  0  0  0  0  0  0  0  0  0  0
   -5.4520   19.1450  -32.4320 C   0  0  0  0  0  0  0  0  0  0  0  0
   -6.3800   18.1330  -32.6630 C   0  0  0  0  0  0  0  0  0  0  0  0
   -7.7380   18.3900  -32.5300 C   0  0  0  0  0  0  0  0  0  0  0  0
   -8.1800   19.6670  -32.1900 C   0  0  0  0  0  0  0  0  0  0  0  0
   -7.2640   20.7290  -31.9860 C   0  0  0  0  0  0  0  0  0  0  0  0
   -7.6920   22.0120  -31.6960 N   0  0  0  0  0  0  0  0  0  0  0  0
   -9.1110   22.3830  -31.8990 C   0  0  0  0  0  0  0  0  0  0  0  0
   -6.7920   22.9490  -31.2240 C   0  0  0  0  0  0  0  0  0  0  0  0
   -7.2220   24.1660  -30.6360 C   0  0  0  0  0  0  0  0  0  0  0  0
   -6.3040   25.1030  -30.1690 C   0  0  0  0  0  0  0  0  0  0  0  0
   -4.9400   24.8490  -30.2530 C   0  0  0  0  0  0  0  0  0  0  0  0
   -4.4860   23.6500  -30.7990 C   0  0  0  0  0  0  0  0  0  0  0  0
   -5.3970   22.6920  -31.2920 C   0  0  0  0  0  0  0  0  0  0  0  0
   -1.7148   24.3072  -27.5296 H   0  0  0  0  0  0  0  0  0  0  0  0
   -1.2833   25.3945  -28.8927 H   0  0  0  0  0  0  0  0  0  0  0  0
   -2.8618   24.5373  -28.8927 H   0  0  0  0  0  0  0  0  0  0  0  0
   -0.7289   23.6467  -30.2951 H   0  0  0  0  0  0  0  0  0  0  0  0
   -0.3763   22.8554  -28.7155 H   0  0  0  0  0  0  0  0  0  0  0  0
   -1.6900   21.4640  -30.1060 H   0  0  0  0  0  0  0  0  0  0  0  0
   -3.0552   22.6060  -27.7563 H   0  0  0  0  0  0  0  0  0  0  0  0
   -3.6344   21.1405  -28.6342 H   0  0  0  0  0  0  0  0  0  0  0  0
   -0.8760   21.5217  -27.3645 H   0  0  0  0  0  0  0  0  0  0  0  0
   -2.2496   20.4943  -26.7400 H   0  0  0  0  0  0  0  0  0  0  0  0
   -0.8342   18.9327  -27.7521 H   0  0  0  0  0  0  0  0  0  0  0  0
   -2.0774   19.2804  -29.0186 H   0  0  0  0  0  0  0  0  0  0  0  0
   -0.4690   21.0030  -29.8010 H   0  0  0  0  0  0  0  0  0  0  0  0
    0.8255   18.5199  -30.3545 H   0  0  0  0  0  0  0  0  0  0  0  0
   -0.9727   18.4906  -30.4843 H   0  0  0  0  0  0  0  0  0  0  0  0
    1.0072   20.2981  -31.9408 H   0  0  0  0  0  0  0  0  0  0  0  0
   -0.2058   19.1530  -32.6341 H   0  0  0  0  0  0  0  0  0  0  0  0
   -0.9856   22.1127  -33.5523 H   0  0  0  0  0  0  0  0  0  0  0  0
   -1.0158   20.3262  -33.8461 H   0  0  0  0  0  0  0  0  0  0  0  0
   -3.2268   22.0709  -33.8766 H   0  0  0  0  0  0  0  0  0  0  0  0
   -3.2574   20.2626  -33.8205 H   0  0  0  0  0  0  0  0  0  0  0  0
   -2.9610   20.9540  -31.1540 H   0  0  0  0  0  0  0  0  0  0  0  0
   -4.3775   18.9309  -32.5300 H   0  0  0  0  0  0  0  0  0  0  0  0
   -6.0368   17.1285  -32.9513 H   0  0  0  0  0  0  0  0  0  0  0  0
   -8.4673   17.5829  -32.6936 H   0  0  0  0  0  0  0  0  0  0  0  0
   -9.2582   19.8540  -32.0780 H   0  0  0  0  0  0  0  0  0  0  0  0
   -9.6000   22.5108  -30.9220 H   0  0  0  0  0  0  0  0  0  0  0  0
   -9.1664   23.3258  -32.4629 H   0  0  0  0  0  0  0  0  0  0  0  0
   -9.6208   21.5880  -32.4629 H   0  0  0  0  0  0  0  0  0  0  0  0
   -8.2987   24.3731  -30.5474 H   0  0  0  0  0  0  0  0  0  0  0  0
   -6.6595   26.0478  -29.7320 H   0  0  0  0  0  0  0  0  0  0  0  0
   -4.2185   25.5949  -29.8882 H   0  0  0  0  0  0  0  0  0  0  0  0
   -3.4057   23.4482  -30.8462 H   0  0  0  0  0  0  0  0  0  0  0  0
  1  2  1  0
  2  3  1  0
  3  4  1  0
  4  5  1  0
  5  6  1  0
  6  7  1  0
  7  8  1  0
  8  9  1  0
  9 10  1  0
 10 11  1  0
 11 12  1  0
 12 13  1  0
 13 14  1  0
 14 15  2  0
 15 16  1  0
 16 17  2  0
 17 18  1  0
 18 19  2  0
 19 20  1  0
 20 21  2  0
 21 22  1  0
 21 23  1  0
 23 24  2  0
 24 25  1  0
 25 26  2  0
 26 27  1  0
 27 28  2  0
 28 14  1  0
 20 15  1  0
 28 23  1  0
  1 29  1  0
  1 30  1  0
  1 31  1  0
  2 32  1  0
  2 33  1  0
  3 34  1  0
  4 35  1  0
  4 36  1  0
  5 37  1  0
  5 38  1  0
  6 39  1  0
  6 40  1  0
  7 41  1  0
  8 42  1  0
  8 43  1  0
  9 44  1  0
  9 45  1  0
 11 46  1  0
 11 47  1  0
 12 48  1  0
 12 49  1  0
 13 50  1  0
 16 51  1  0
 17 52  1  0
 18 53  1  0
 19 54  1  0
 22 55  1  0
 22 56  1  0
 22 57  1  0
 24 58  1  0
 25 59  1  0
 26 60  1  0
 27 61  1  0
M  CHG  1  21   1
M  END
>  <UniqueID>  (7) 
7

>  <SMILES>  (7) 
CCNCCCNCCOCCNc1c2ccccc2[n+](C)c2ccccc12

>  <Energy>  (7) 
76.58139521958384

>  <Genealogy>  (7) 
CCNCCCNCCOCCNc1c2ccccc2[n+](C)c2ccccc12 (3D coordinates assigned)
CCNCCCNCCOCCNc1c2ccccc2[n+](C)c2ccccc12 (optimized conformer: 76.58139521958384 kcal/mol)

>  <smiles>  (7) 
CCNCCCNCCOCCNc1c2ccccc2[n+](C)c2ccccc12

>  <score_type>  (7) 
oracle

>  <origin>  (7) 
adg

>  <m_score__min__energy>  (7) 
-9.6099999999999994

>  <m_primary>  (7) 
energy

$$$$
7:0
     RDKit          3D

 64 67  0  0  0  0  0  0  0  0999 V2000
   -8.7090   20.6550  -31.3630 C   0  0  0  0  0  0  0  0  0  0  0  0
   -8.7700   19.9070  -32.6920 C   0  0  0  0  0  0  0  0  0  0  0  0
   -7.8340   18.6950  -32.6880 C   0  0  0  0  0  0  0  0  0  0  0  0
   -6.6990   18.9340  -33.5220 O   0  0  0  0  0  0  0  0  0  0  0  0
   -5.4930   19.5250  -33.1090 C   0  0  0  0  0  0  0  0  0  0  0  0
   -4.3480   18.7740  -32.7810 C   0  0  0  0  0  0  0  0  0  0  0  0
   -3.1750   19.4180  -32.3750 C   0  0  0  0  0  0  0  0  0  0  0  0
   -3.1250   20.8190  -32.2830 C   0  0  0  0  0  0  0  0  0  0  0  0
   -1.8510   21.5400  -31.8680 C   0  0  2  0  0  0  0  0  0  0  0  0
   -0.7640   21.1600  -32.8610 C   0  0  0  0  0  0  0  0  0  0  0  0
   -0.8450   21.5380  -34.2120 C   0  0  0  0  0  0  0  0  0  0  0  0
    0.1780   21.1970  -35.0970 C   0  0  0  0  0  0  0  0  0  0  0  0
    1.2820   20.4850  -34.6260 C   0  0  0  0  0  0  0  0  0  0  0  0
    1.3540   20.1310  -33.3160 N   0  0  0  0  0  0  0  0  0  0  0  0
    0.3700   20.4510  -32.4330 C   0  0  0  0  0  0  0  0  0  0  0  0
   -1.4690   21.2370  -30.4560 N   0  0  0  0  0  0  0  0  0  0  0  0
   -0.7700   22.3500  -29.7710 C   0  0  0  0  0  0  0  0  0  0  0  0
   -1.6940   23.5580  -29.5330 C   0  0  0  0  0  0  0  0  0  0  0  0
   -3.1270   23.1720  -29.0450 C   0  0  0  0  0  0  0  0  0  0  0  0
   -4.1420   23.4580  -30.1060 N   0  0  0  0  0  0  0  0  0  0  0  0
   -4.3700   24.9270  -30.2760 C   0  0  0  0  0  0  0  0  0  0  0  0
   -5.7370   25.4030  -29.7640 C   0  0  0  0  0  0  0  0  0  0  0  0
   -6.8830   24.6770  -30.4800 C   0  0  0  0  0  0  0  0  0  0  0  0
   -6.5130   23.2350  -30.8610 C   0  0  0  0  0  0  0  0  0  0  0  0
   -5.4060   22.6900  -29.9540 C   0  0  0  0  0  0  0  0  0  0  0  0
   -3.1150   21.7000  -28.5580 C   0  0  0  0  0  0  0  0  0  0  0  0
   -2.6090   20.7220  -29.6430 C   0  0  0  0  0  0  0  0  0  0  0  0
   -4.2640   21.5640  -32.6290 C   0  0  0  0  0  0  0  0  0  0  0  0
   -5.4350   20.9210  -33.0350 C   0  0  0  0  0  0  0  0  0  0  0  0
   -8.7677   19.9346  -30.5338 H   0  0  0  0  0  0  0  0  0  0  0  0
   -7.7625   21.2117  -31.2987 H   0  0  0  0  0  0  0  0  0  0  0  0
   -9.5528   21.3577  -31.2987 H   0  0  0  0  0  0  0  0  0  0  0  0
   -9.8009   19.5638  -32.8637 H   0  0  0  0  0  0  0  0  0  0  0  0
   -8.4510   20.5912  -33.4921 H   0  0  0  0  0  0  0  0  0  0  0  0
   -7.4933   18.5046  -31.6596 H   0  0  0  0  0  0  0  0  0  0  0  0
   -8.3813   17.8228  -33.0749 H   0  0  0  0  0  0  0  0  0  0  0  0
   -4.3763   17.6762  -32.8444 H   0  0  0  0  0  0  0  0  0  0  0  0
   -2.2842   18.8228  -32.1256 H   0  0  0  0  0  0  0  0  0  0  0  0
   -2.0076   22.6286  -31.8908 H   0  0  0  0  0  0  0  0  0  0  0  0
   -1.7167   22.1039  -34.5724 H   0  0  0  0  0  0  0  0  0  0  0  0
    0.1151   21.4866  -36.1563 H   0  0  0  0  0  0  0  0  0  0  0  0
    2.0940   20.2103  -35.3153 H   0  0  0  0  0  0  0  0  0  0  0  0
    0.4631   20.1528  -31.3783 H   0  0  0  0  0  0  0  0  0  0  0  0
   -0.3990   21.9910  -28.7997 H   0  0  0  0  0  0  0  0  0  0  0  0
    0.0563   22.6792  -30.4182 H   0  0  0  0  0  0  0  0  0  0  0  0
   -1.2311   24.2036  -28.7721 H   0  0  0  0  0  0  0  0  0  0  0  0
   -1.8123   24.0654  -30.5018 H   0  0  0  0  0  0  0  0  0  0  0  0
   -3.4259   23.7919  -28.1869 H   0  0  0  0  0  0  0  0  0  0  0  0
   -3.5857   25.4662  -29.7245 H   0  0  0  0  0  0  0  0  0  0  0  0
   -4.3416   25.1337  -31.3560 H   0  0  0  0  0  0  0  0  0  0  0  0
   -5.8049   25.2030  -28.6845 H   0  0  0  0  0  0  0  0  0  0  0  0
   -5.8280   26.4804  -29.9662 H   0  0  0  0  0  0  0  0  0  0  0  0
   -7.7577   24.6533  -29.8135 H   0  0  0  0  0  0  0  0  0  0  0  0
   -7.0999   25.2250  -31.4088 H   0  0  0  0  0  0  0  0  0  0  0  0
   -7.4042   22.5978  -30.7623 H   0  0  0  0  0  0  0  0  0  0  0  0
   -6.1471   23.2315  -31.8983 H   0  0  0  0  0  0  0  0  0  0  0  0
   -5.7386   22.7546  -28.9075 H   0  0  0  0  0  0  0  0  0  0  0  0
   -5.2098   21.6466  -30.2418 H   0  0  0  0  0  0  0  0  0  0  0  0
   -2.4567   21.6242  -27.6800 H   0  0  0  0  0  0  0  0  0  0  0  0
   -4.1502   21.4206  -28.3125 H   0  0  0  0  0  0  0  0  0  0  0  0
   -2.2860   19.7951  -29.1466 H   0  0  0  0  0  0  0  0  0  0  0  0
   -3.4459   20.5671  -30.3399 H   0  0  0  0  0  0  0  0  0  0  0  0
   -4.2334   22.6625  -32.5798 H   0  0  0  0  0  0  0  0  0  0  0  0
   -6.3205   21.5177  -33.2992 H   0  0  0  0  0  0  0  0  0  0  0  0
  1  2  1  0
  2  3  1  0
  3  4  1  0
  4  5  1  0
  5  6  2  0
  6  7  1  0
  7  8  2  0
  8  9  1  0
  9 10  1  0
 10 11  2  0
 11 12  1  0
 12 13  2  0
 13 14  1  0
 14 15  2  0
  9 16  1  0
 16 17  1  0
 17 18  1  0
 18 19  1  0
 19 20  1  0
 20 21  1  0
 21 22  1  0
 22 23  1  0
 23 24  1  0
 24 25  1  0
 19 26  1  0
 26 27  1  0
  8 28  1  0
 28 29  2  0
 29  5  1  0
 15 10  1  0
 27 16  1  0
 25 20  1  0
  1 30  1  0
  1 31  1  0
  1 32  1  0
  2 33  1  0
  2 34  1  0
  3 35  1  0
  3 36  1  0
  6 37  1  0
  7 38  1  0
  9 39  1  1
 11 40  1  0
 12 41  1  0
 13 42  1  0
 15 43  1  0
 17 44  1  0
 17 45  1  0
 18 46  1  0
 18 47  1  0
 19 48  1  0
 21 49  1  0
 21 50  1  0
 22 51  1  0
 22 52  1  0
 23 53  1  0
 23 54  1  0
 24 55  1  0
 24 56  1  0
 25 57  1  0
 25 58  1  0
 26 59  1  0
 26 60  1  0
 27 61  1  0
 27 62  1  0
 28 63  1  0
 29 64  1  0
M  END
>  <UniqueID>  (8) 
8

>  <SMILES>  (8) 
CCCOc1ccc([C@H](c2cccnc2)N2CCC(N3CCCCC3)CC2)cc1

>  <Energy>  (8) 
89.15004547647128

>  <Genealogy>  (8) 
CCCOc1ccc([C@H](c2cccnc2)N2CCC(N3CCCCC3)CC2)cc1 (chirality)
CCCOc1ccc([C@H](c2cccnc2)N2CCC(N3CCCCC3)CC2)cc1 (3D coordinates assigned)
CCCOc1ccc([C@H](c2cccnc2)N2CCC(N3CCCCC3)CC2)cc1 (nonaromatic ring conformer: 89.15004547647128 kcal/mol)

>  <smiles>  (8) 
CCCOc1ccc(C(c2cccnc2)N2CCC(N3CCCCC3)CC2)cc1

>  <score_type>  (8) 
oracle

>  <origin>  (8) 
adg

>  <m_score__min__energy>  (8) 
-8.2300000000000004

>  <m_primary>  (8) 
energy

$$$$
8:0
     RDKit          3D

 79 81  0  0  0  0  0  0  0  0999 V2000
   -4.0840   23.7800  -28.5870 C   0  0  0  0  0  0  0  0  0  0  0  0
   -3.5540   24.4030  -29.8840 C   0  0  0  0  0  0  0  0  0  0  0  0
   -4.6190   24.8570  -30.8120 N   0  0  0  0  0  0  0  0  0  0  0  0
   -5.4940   25.9230  -30.2700 C   0  0  0  0  0  0  0  0  0  0  0  0
   -6.7830   25.3640  -29.6670 C   0  0  0  0  0  0  0  0  0  0  0  0
   -5.4130   23.7310  -31.3550 C   0  0  0  0  0  0  0  0  0  0  0  0
   -4.4850   22.5980  -31.8280 C   0  0  0  0  0  0  0  0  0  0  0  0
   -4.9460   21.9870  -33.0970 N   0  0  0  0  0  0  0  0  0  0  0  0
   -5.1860   20.5540  -32.9740 C   0  0  0  0  0  0  0  0  0  0  0  0
   -6.4550   20.0820  -32.5560 C   0  0  0  0  0  0  0  0  0  0  0  0
   -7.3590   20.9150  -31.8530 C   0  0  0  0  0  0  0  0  0  0  0  0
   -8.5940   20.4320  -31.4280 C   0  0  0  0  0  0  0  0  0  0  0  0
   -8.9510   19.1140  -31.6830 C   0  0  0  0  0  0  0  0  0  0  0  0
   -8.0860   18.2780  -32.3840 C   0  0  0  0  0  0  0  0  0  0  0  0
   -6.8350   18.7510  -32.8570 C   0  0  0  0  0  0  0  0  0  0  0  0
   -6.0000   17.9540  -33.6090 N   0  0  0  0  0  0  0  0  0  0  0  0
   -6.5300   16.7310  -34.2510 C   0  0  0  0  0  0  0  0  0  0  0  0
   -4.6660   18.2910  -33.7370 C   0  0  0  0  0  0  0  0  0  0  0  0
   -3.7250   17.3560  -34.2340 C   0  0  0  0  0  0  0  0  0  0  0  0
   -2.3790   17.6730  -34.3300 C   0  0  0  0  0  0  0  0  0  0  0  0
   -1.9150   18.8910  -33.8630 C   0  0  0  0  0  0  0  0  0  0  0  0
   -2.7980   19.8440  -33.3320 C   0  0  0  0  0  0  0  0  0  0  0  0
   -2.2380   20.9500  -32.5970 N   0  0  0  0  0  0  0  0  0  0  0  0
   -1.4120   20.7800  -31.3960 C   0  0  0  0  0  0  0  0  0  0  0  0
   -2.2680   20.6090  -30.1330 C   0  0  0  0  0  0  0  0  0  0  0  0
   -1.6140   21.2370  -28.8780 C   0  0  0  0  0  0  0  0  0  0  0  0
   -1.6200   20.3620  -27.6580 N   0  0  0  0  0  0  0  0  0  0  0  0
   -0.6310   19.2680  -27.8680 C   0  0  0  0  0  0  0  0  0  0  0  0
   -1.2440   21.1100  -26.4100 C   0  0  0  0  0  0  0  0  0  0  0  0
   -1.0120   22.6250  -26.5670 C   0  0  0  0  0  0  0  0  0  0  0  0
   -2.9710   19.7540  -27.4050 C   0  0  0  0  0  0  0  0  0  0  0  0
   -3.0800   18.8250  -26.1820 C   0  0  0  0  0  0  0  0  0  0  0  0
   -4.2070   19.5860  -33.3470 C   0  0  0  0  0  0  0  0  0  0  0  0
   -3.6423   24.2992  -27.7236 H   0  0  0  0  0  0  0  0  0  0  0  0
   -5.1790   23.8789  -28.5535 H   0  0  0  0  0  0  0  0  0  0  0  0
   -3.8109   22.7150  -28.5535 H   0  0  0  0  0  0  0  0  0  0  0  0
   -2.9301   25.2703  -29.6219 H   0  0  0  0  0  0  0  0  0  0  0  0
   -2.9880   23.6182  -30.4071 H   0  0  0  0  0  0  0  0  0  0  0  0
   -4.9449   26.4681  -29.4881 H   0  0  0  0  0  0  0  0  0  0  0  0
   -5.7716   26.5865  -31.1023 H   0  0  0  0  0  0  0  0  0  0  0  0
   -6.7169   25.3927  -28.5694 H   0  0  0  0  0  0  0  0  0  0  0  0
   -7.6371   25.9726  -29.9989 H   0  0  0  0  0  0  0  0  0  0  0  0
   -6.9224   24.3246  -29.9989 H   0  0  0  0  0  0  0  0  0  0  0  0
   -6.0818   23.3477  -30.5703 H   0  0  0  0  0  0  0  0  0  0  0  0
   -6.0019   24.0906  -32.2117 H   0  0  0  0  0  0  0  0  0  0  0  0
   -3.4752   23.0074  -31.9787 H   0  0  0  0  0  0  0  0  0  0  0  0
   -4.4895   21.8145  -31.0559 H   0  0  0  0  0  0  0  0  0  0  0  0
   -4.2470   22.1550  -33.8550 H   0  0  0  0  0  0  0  0  0  0  0  0
   -5.7920   22.5120  -33.3800 H   0  0  0  0  0  0  0  0  0  0  0  0
   -7.0818   21.9579  -31.6397 H   0  0  0  0  0  0  0  0  0  0  0  0
   -9.2876   21.0948  -30.8898 H   0  0  0  0  0  0  0  0  0  0  0  0
   -9.9195   18.7298  -31.3302 H   0  0  0  0  0  0  0  0  0  0  0  0
   -8.3772   17.2344  -32.5740 H   0  0  0  0  0  0  0  0  0  0  0  0
   -6.8403   16.0150  -33.4758 H   0  0  0  0  0  0  0  0  0  0  0  0
   -7.3960   16.9915  -34.8773 H   0  0  0  0  0  0  0  0  0  0  0  0
   -5.7478   16.2772  -34.8773 H   0  0  0  0  0  0  0  0  0  0  0  0
   -4.0688   16.3599  -34.5496 H   0  0  0  0  0  0  0  0  0  0  0  0
   -1.6772   16.9545  -34.7787 H   0  0  0  0  0  0  0  0  0  0  0  0
   -0.8390   19.1150  -33.9088 H   0  0  0  0  0  0  0  0  0  0  0  0
   -2.5310   21.9150  -32.8730 H   0  0  0  0  0  0  0  0  0  0  0  0
   -0.7809   19.8878  -31.5216 H   0  0  0  0  0  0  0  0  0  0  0  0
   -0.7987   21.6848  -31.2727 H   0  0  0  0  0  0  0  0  0  0  0  0
   -3.2425   21.0910  -30.3005 H   0  0  0  0  0  0  0  0  0  0  0  0
   -2.3743   19.5300  -29.9474 H   0  0  0  0  0  0  0  0  0  0  0  0
   -0.5685   21.4771  -29.1213 H   0  0  0  0  0  0  0  0  0  0  0  0
   -2.2164   22.1222  -28.6261 H   0  0  0  0  0  0  0  0  0  0  0  0
   -0.2895   18.8903  -26.8930 H   0  0  0  0  0  0  0  0  0  0  0  0
   -1.1028   18.4506  -28.4331 H   0  0  0  0  0  0  0  0  0  0  0  0
    0.2297   19.6553  -28.4331 H   0  0  0  0  0  0  0  0  0  0  0  0
   -2.0527   20.9687  -25.6779 H   0  0  0  0  0  0  0  0  0  0  0  0
   -0.2737   20.6949  -26.0999 H   0  0  0  0  0  0  0  0  0  0  0  0
   -0.9408   23.0900  -25.5727 H   0  0  0  0  0  0  0  0  0  0  0  0
   -0.0770   22.7974  -27.1202 H   0  0  0  0  0  0  0  0  0  0  0  0
   -1.8526   23.0693  -27.1202 H   0  0  0  0  0  0  0  0  0  0  0  0
   -3.6886   20.5762  -27.2669 H   0  0  0  0  0  0  0  0  0  0  0  0
   -3.1752   19.1167  -28.2780 H   0  0  0  0  0  0  0  0  0  0  0  0
   -3.0100   19.4219  -25.2607 H   0  0  0  0  0  0  0  0  0  0  0  0
   -4.0460   18.2993  -26.2058 H   0  0  0  0  0  0  0  0  0  0  0  0
   -2.2619   18.0900  -26.2058 H   0  0  0  0  0  0  0  0  0  0  0  0
  1  2  1  0
  2  3  1  0
  3  4  1  0
  4  5  1  0
  3  6  1  0
  6  7  1  0
  7  8  1  0
  8  9  1  0
  9 10  2  0
 10 11  1  0
 11 12  2  0
 12 13  1  0
 13 14  2  0
 14 15  1  0
 15 16  2  0
 16 17  1  0
 16 18  1  0
 18 19  2  0
 19 20  1  0
 20 21  2  0
 21 22  1  0
 22 23  1  0
 23 24  1  0
 24 25  1  0
 25 26  1  0
 26 27  1  0
 27 28  1  0
 27 29  1  0
 29 30  1  0
 27 31  1  0
 31 32  1  0
 22 33  2  0
 33  9  1  0
 15 10  1  0
 33 18  1  0
  1 34  1  0
  1 35  1  0
  1 36  1  0
  2 37  1  0
  2 38  1  0
  4 39  1  0
  4 40  1  0
  5 41  1  0
  5 42  1  0
  5 43  1  0
  6 44  1  0
  6 45  1  0
  7 46  1  0
  7 47  1  0
  8 48  1  0
  8 49  1  0
 11 50  1  0
 12 51  1  0
 13 52  1  0
 14 53  1  0
 17 54  1  0
 17 55  1  0
 17 56  1  0
 19 57  1  0
 20 58  1  0
 21 59  1  0
 23 60  1  0
 24 61  1  0
 24 62  1  0
 25 63  1  0
 25 64  1  0
 26 65  1  0
 26 66  1  0
 28 67  1  0
 28 68  1  0
 28 69  1  0
 29 70  1  0
 29 71  1  0
 30 72  1  0
 30 73  1  0
 30 74  1  0
 31 75  1  0
 31 76  1  0
 32 77  1  0
 32 78  1  0
 32 79  1  0
M  CHG  3   8   1  16   1  27   1
M  END
>  <UniqueID>  (9) 
9

>  <SMILES>  (9) 
CCN(CC)CC[NH2+]c1c2ccccc2[n+](C)c2cccc(NCCC[N+](C)(CC)CC)c12

>  <Energy>  (9) 
126.98647951479519

>  <Genealogy>  (9) 
CCN(CC)CC[NH2+]c1c2ccccc2[n+](C)c2cccc(NCCC[N+](C)(CC)CC)c12 (protonated)
CCN(CC)CC[NH2+]c1c2ccccc2[n+](C)c2cccc(NCCC[N+](C)(CC)CC)c12 (3D coordinates assigned)
CCN(CC)CC[NH2+]c1c2ccccc2[n+](C)c2cccc(NCCC[N+](C)(CC)CC)c12 (optimized conformer: 126.98647951479519 kcal/mol)

>  <smiles>  (9) 
CCN(CC)CCNc1c2ccccc2[n+](C)c2cccc(NCCC[N+](C)(CC)CC)c12

>  <score_type>  (9) 
oracle

>  <origin>  (9) 
adg

>  <m_score__min__energy>  (9) 
-8.0999999999999996

>  <m_primary>  (9) 
energy

$$$$
9:0
     RDKit          3D

 47 48  0  0  0  0  0  0  0  0999 V2000
   -2.1750   20.8480  -33.4520 C   0  0  0  0  0  0  0  0  0  0  0  0
   -3.0350   21.8950  -32.7520 C   0  0  0  0  0  0  0  0  0  0  0  0
   -3.6400   21.3190  -31.5460 N   0  0  0  0  0  0  0  0  0  0  0  0
   -2.6120   20.6900  -30.7070 C   0  0  0  0  0  0  0  0  0  0  0  0
   -2.2460   21.6080  -29.5430 C   0  0  0  0  0  0  0  0  0  0  0  0
   -2.6540   22.9280  -29.8330 O   0  0  0  0  0  0  0  0  0  0  0  0
   -3.4840   23.4300  -28.8030 C   0  0  0  0  0  0  0  0  0  0  0  0
   -4.7470   24.0740  -29.3840 C   0  0  0  0  0  0  0  0  0  0  0  0
   -4.5990   24.2560  -30.8360 N   0  0  0  0  0  0  0  0  0  0  0  0
   -5.8610   24.6370  -31.4820 C   0  0  0  0  0  0  0  0  0  0  0  0
   -6.2740   23.5750  -32.5050 C   0  0  0  0  0  0  0  0  0  0  0  0
   -6.0260   22.2610  -32.0000 O   0  0  0  0  0  0  0  0  0  0  0  0
   -6.9450   21.1960  -31.9920 C   0  0  0  0  0  0  0  0  0  0  0  0
   -8.1590   21.2640  -31.2790 C   0  0  0  0  0  0  0  0  0  0  0  0
   -9.0330   20.1740  -31.2580 C   0  0  0  0  0  0  0  0  0  0  0  0
   -8.7220   19.0060  -31.9540 C   0  0  0  0  0  0  0  0  0  0  0  0
   -7.5340   18.9260  -32.6870 C   0  0  0  0  0  0  0  0  0  0  0  0
   -7.2340   17.7860  -33.3670 N   0  0  0  0  0  0  0  0  0  0  0  0
   -6.0910   17.6650  -34.0920 C   0  0  0  0  0  0  0  0  0  0  0  0
   -5.1880   18.7270  -34.1580 C   0  0  0  0  0  0  0  0  0  0  0  0
   -5.4650   19.9090  -33.4720 C   0  0  0  0  0  0  0  0  0  0  0  0
   -6.6450   20.0250  -32.7200 C   0  0  0  0  0  0  0  0  0  0  0  0
   -1.6661   20.2284  -32.6989 H   0  0  0  0  0  0  0  0  0  0  0  0
   -2.8133   20.2101  -34.0810 H   0  0  0  0  0  0  0  0  0  0  0  0
   -1.4253   21.3503  -34.0810 H   0  0  0  0  0  0  0  0  0  0  0  0
   -2.4076   22.7537  -32.4708 H   0  0  0  0  0  0  0  0  0  0  0  0
   -3.8319   22.2246  -33.4349 H   0  0  0  0  0  0  0  0  0  0  0  0
   -4.0670   22.1030  -30.9990 H   0  0  0  0  0  0  0  0  0  0  0  0
   -2.9977   19.7386  -30.3119 H   0  0  0  0  0  0  0  0  0  0  0  0
   -1.7143   20.5077  -31.3160 H   0  0  0  0  0  0  0  0  0  0  0  0
   -2.7521   21.2608  -28.6301 H   0  0  0  0  0  0  0  0  0  0  0  0
   -1.1567   21.5879  -29.3911 H   0  0  0  0  0  0  0  0  0  0  0  0
   -3.7744   22.6025  -28.1390 H   0  0  0  0  0  0  0  0  0  0  0  0
   -2.9256   24.1943  -28.2426 H   0  0  0  0  0  0  0  0  0  0  0  0
   -5.6116   23.4237  -29.1850 H   0  0  0  0  0  0  0  0  0  0  0  0
   -4.9007   25.0555  -28.9118 H   0  0  0  0  0  0  0  0  0  0  0  0
   -4.2810   23.3510  -31.2570 H   0  0  0  0  0  0  0  0  0  0  0  0
   -6.6466   24.7300  -30.7177 H   0  0  0  0  0  0  0  0  0  0  0  0
   -5.7234   25.5983  -31.9987 H   0  0  0  0  0  0  0  0  0  0  0  0
   -7.3471   23.6814  -32.7222 H   0  0  0  0  0  0  0  0  0  0  0  0
   -5.6821   23.7185  -33.4210 H   0  0  0  0  0  0  0  0  0  0  0  0
   -8.4206   22.1832  -30.7344 H   0  0  0  0  0  0  0  0  0  0  0  0
   -9.9722   20.2375  -30.6890 H   0  0  0  0  0  0  0  0  0  0  0  0
   -9.4106   18.1487  -31.9263 H   0  0  0  0  0  0  0  0  0  0  0  0
   -5.8772   16.7284  -34.6277 H   0  0  0  0  0  0  0  0  0  0  0  0
   -4.2640   18.6323  -34.7472 H   0  0  0  0  0  0  0  0  0  0  0  0
   -4.7587   20.7509  -33.5200 H   0  0  0  0  0  0  0  0  0  0  0  0
  1  2  1  0
  2  3  1  0
  3  4  1  0
  4  5  1  0
  5  6  1  0
  6  7  1  0
  7  8  1  0
  8  9  1  0
  9 10  1  0
 10 11  1  0
 11 12  1  0
 12 13  1  0
 13 14  2  0
 14 15  1  0
 15 16  2  0
 16 17  1  0
 17 18  2  0
 18 19  1  0
 19 20  2  0
 20 21  1  0
 21 22  2  0
 22 13  1  0
 22 17  1  0
  1 23  1  0
  1 24  1  0
  1 25  1  0
  2 26  1  0
  2 27  1  0
  3 28  1  0
  4 29  1  0
  4 30  1  0
  5 31  1  0
  5 32  1  0
  7 33  1  0
  7 34  1  0
  8 35  1  0
  8 36  1  0
  9 37  1  0
 10 38  1  0
 10 39  1  0
 11 40  1  0
 11 41  1  0
 14 42  1  0
 15 43  1  0
 16 44  1  0
 19 45  1  0
 20 46  1  0
 21 47  1  0
M  END
>  <UniqueID>  (10) 
10

>  <SMILES>  (10) 
CCNCCOCCNCCOc1cccc2ncccc12

>  <Energy>  (10) 
38.50384339616689

>  <Genealogy>  (10) 
CCNCCOCCNCCOc1cccc2ncccc12 (3D coordinates assigned)
CCNCCOCCNCCOc1cccc2ncccc12 (optimized conformer: 38.50384339616689 kcal/mol)

>  <smiles>  (10) 
CCNCCOCCNCCOc1cccc2ncccc12

>  <score_type>  (10) 
oracle

>  <origin>  (10) 
adg

>  <m_score__min__energy>  (10) 
-6.1900000000000004

>  <m_primary>  (10) 
energy

$$$$
10:0
     RDKit          3D

 58 60  0  0  0  0  0  0  0  0999 V2000
    0.7856   26.7757  -26.9863 H   0  0  0  0  0  0  0  0  0  0  0  0
    0.2660   25.9210  -27.4440 C   0  0  0  0  0  0  0  0  0  0  0  0
    0.8030   24.6450  -27.3460 C   0  0  0  0  0  0  0  0  0  0  0  0
    1.7482   24.4902  -26.8051 H   0  0  0  0  0  0  0  0  0  0  0  0
    0.1520   23.5570  -27.9290 C   0  0  0  0  0  0  0  0  0  0  0  0
    0.5975   22.5552  -27.8398 H   0  0  0  0  0  0  0  0  0  0  0  0
   -1.0700   23.7100  -28.6340 C   0  0  0  0  0  0  0  0  0  0  0  0
   -1.8100   22.6490  -29.2760 C   0  0  0  0  0  0  0  0  0  0  0  0
   -1.4840   21.3760  -29.2980 N   0  0  0  0  0  0  0  0  0  0  0  0
   -1.6040   20.1910  -28.4440 C   0  0  0  0  0  0  0  0  0  0  0  0
   -1.9006   19.3366  -29.0701 H   0  0  0  0  0  0  0  0  0  0  0  0
   -2.7710   20.3110  -27.4470 C   0  0  0  0  0  0  0  0  0  0  0  0
   -2.3809   20.2709  -26.4193 H   0  0  0  0  0  0  0  0  0  0  0  0
   -3.2911   21.2674  -27.6047 H   0  0  0  0  0  0  0  0  0  0  0  0
   -3.4748   19.4805  -27.6047 H   0  0  0  0  0  0  0  0  0  0  0  0
   -0.2460   19.7370  -27.8760 C   0  0  0  0  0  0  0  0  0  0  0  0
   -0.2854   19.7502  -26.7768 H   0  0  0  0  0  0  0  0  0  0  0  0
   -0.0262   18.7165  -28.2228 H   0  0  0  0  0  0  0  0  0  0  0  0
    0.5434   20.4201  -28.2228 H   0  0  0  0  0  0  0  0  0  0  0  0
   -3.0150   22.9830  -29.9590 C   0  0  0  0  0  0  0  0  0  0  0  0
   -3.7880   22.0060  -30.6370 C   0  0  0  0  0  0  0  0  0  0  0  0
   -3.4562   20.9572  -30.6331 H   0  0  0  0  0  0  0  0  0  0  0  0
   -4.9670   22.3520  -31.3120 C   0  0  0  0  0  0  0  0  0  0  0  0
   -5.7180   21.3290  -31.9890 N   0  0  0  0  0  0  0  0  0  0  0  0
   -6.6200   21.0150  -31.5610 H   0  0  0  0  0  0  0  0  0  0  0  0
   -5.2060   20.5620  -33.0940 C   0  0  0  0  0  0  0  0  0  0  0  0
   -4.0000   20.6680  -33.4500 O   0  0  0  0  0  0  0  0  0  0  0  0
   -6.0840   19.5570  -33.7820 C   0  0  0  0  0  0  0  0  0  0  0  0
   -5.5687   19.1853  -34.6800 H   0  0  0  0  0  0  0  0  0  0  0  0
   -7.0299   20.0485  -34.0535 H   0  0  0  0  0  0  0  0  0  0  0  0
   -6.3980   18.3760  -32.8620 C   0  0  0  0  0  0  0  0  0  0  0  0
   -5.4583   17.9636  -32.4659 H   0  0  0  0  0  0  0  0  0  0  0  0
   -6.9329   17.6051  -33.4361 H   0  0  0  0  0  0  0  0  0  0  0  0
   -7.2470   18.8180  -31.7410 N   0  0  0  0  0  0  0  0  0  0  0  0
   -7.0620   19.8260  -31.5190 H   0  0  0  0  0  0  0  0  0  0  0  0
   -8.6860   18.6040  -31.9750 C   0  0  0  0  0  0  0  0  0  0  0  0
   -9.1486   18.2801  -31.0310 H   0  0  0  0  0  0  0  0  0  0  0  0
   -8.7776   17.8435  -32.7645 H   0  0  0  0  0  0  0  0  0  0  0  0
   -9.4190   19.8670  -32.4710 C   0  0  0  0  0  0  0  0  0  0  0  0
  -10.2911   20.0499  -31.8261 H   0  0  0  0  0  0  0  0  0  0  0  0
   -9.7290   19.6978  -33.5128 H   0  0  0  0  0  0  0  0  0  0  0  0
   -8.5760   21.0070  -32.4390 O   0  0  0  0  0  0  0  0  0  0  0  0
   -9.0660   21.9720  -31.5310 C   0  0  0  0  0  0  0  0  0  0  0  0
   -8.6687   21.7675  -30.5259 H   0  0  0  0  0  0  0  0  0  0  0  0
  -10.1648   21.9292  -31.5013 H   0  0  0  0  0  0  0  0  0  0  0  0
   -8.6190   23.3520  -31.9840 C   0  0  0  0  0  0  0  0  0  0  0  0
   -8.4159   23.9791  -31.1034 H   0  0  0  0  0  0  0  0  0  0  0  0
   -7.7043   23.2612  -32.5883 H   0  0  0  0  0  0  0  0  0  0  0  0
   -9.4132   23.8147  -32.5883 H   0  0  0  0  0  0  0  0  0  0  0  0
   -5.4140   23.6830  -31.2720 C   0  0  0  0  0  0  0  0  0  0  0  0
   -6.3607   23.9582  -31.7599 H   0  0  0  0  0  0  0  0  0  0  0  0
   -4.6630   24.6550  -30.6170 C   0  0  0  0  0  0  0  0  0  0  0  0
   -5.0120   25.6981  -30.6060 H   0  0  0  0  0  0  0  0  0  0  0  0
   -3.4690   24.3170  -29.9730 C   0  0  0  0  0  0  0  0  0  0  0  0
   -2.7560   25.2820  -29.3610 N   0  0  0  0  0  0  0  0  0  0  0  0
   -1.5950   25.0340  -28.7120 C   0  0  0  0  0  0  0  0  0  0  0  0
   -0.9310   26.1140  -28.1230 C   0  0  0  0  0  0  0  0  0  0  0  0
   -1.3593   27.1244  -28.1976 H   0  0  0  0  0  0  0  0  0  0  0  0
  1  2  1  0
  2  3  2  0
  3  4  1  0
  3  5  1  0
  5  6  1  0
  5  7  2  0
  7  8  1  0
  8  9  2  0
  9 10  1  0
 10 11  1  0
 10 12  1  0
 12 13  1  0
 12 14  1  0
 12 15  1  0
 10 16  1  0
 16 17  1  0
 16 18  1  0
 16 19  1  0
  8 20  1  0
 20 21  2  0
 21 22  1  0
 21 23  1  0
 23 24  1  0
 24 25  1  0
 24 26  1  0
 26 27  2  0
 26 28  1  0
 28 29  1  0
 28 30  1  0
 28 31  1  0
 31 32  1  0
 31 33  1  0
 31 34  1  0
 34 35  1  0
 34 36  1  0
 36 37  1  0
 36 38  1  0
 36 39  1  0
 39 40  1  0
 39 41  1  0
 39 42  1  0
 42 43  1  0
 43 44  1  0
 43 45  1  0
 43 46  1  0
 46 47  1  0
 46 48  1  0
 46 49  1  0
 23 50  2  0
 50 51  1  0
 50 52  1  0
 52 53  1  0
 52 54  2  0
 54 55  1  0
 55 56  1  0
 56 57  2  0
 57 58  1  0
 57  2  1  0
 56  7  1  0
 54 20  1  0
M  CHG  1  55  -1
M  END
>  <UniqueID>  (11) 
11

>  <SMILES>  (11) 
CCOCCNCCC(=O)Nc1ccc2[n-]c3ccccc3/c(=N\C(C)C)c2c1

>  <Energy>  (11) 
92.22030622822813

>  <Genealogy>  (11) 
CCOCCNCCC(=O)Nc1ccc2[n-]c3ccccc3c(=NC(C)C)c2c1 (protonated)
CCOCCNCCC(=O)Nc1ccc2[n-]c3ccccc3/c(=N\C(C)C)c2c1 (cis-trans isomerization)
CCOCCNCCC(=O)Nc1ccc2[n-]c3ccccc3/c(=N\C(C)C)c2c1 (3D coordinates assigned)
CCOCCNCCC(=O)Nc1ccc2[n-]c3ccccc3/c(=N\C(C)C)c2c1 (optimized conformer: 92.22030622822813 kcal/mol)

>  <smiles>  (11) 
CCOCCNCCC(=O)Nc1ccc2[nH]c3ccccc3c(=NC(C)C)c2c1

>  <score_type>  (11) 
oracle

>  <origin>  (11) 
adg

>  <m_score__min__energy>  (11) 
-9.9299999999999997

>  <m_primary>  (11) 
energy

$$$$
11:0
     RDKit          3D

 57 57  0  0  0  0  0  0  0  0999 V2000
  -10.5934   20.3808  -31.8619 H   0  0  0  0  0  0  0  0  0  0  0  0
   -9.5280   20.5920  -32.0360 C   0  0  0  0  0  0  0  0  0  0  0  0
   -5.5270   18.4410  -33.8820 C   0  0  0  0  0  0  0  0  0  0  0  0
   -4.7708   18.0154  -34.5581 H   0  0  0  0  0  0  0  0  0  0  0  0
   -6.6960   17.5650  -33.5050 C   0  0  0  0  0  0  0  0  0  0  0  0
   -7.5508   17.8133  -34.1513 H   0  0  0  0  0  0  0  0  0  0  0  0
   -6.3949   16.5152  -33.6365 H   0  0  0  0  0  0  0  0  0  0  0  0
   -7.2060   23.4660  -31.3810 C   0  0  0  0  0  0  0  0  0  0  0  0
   -7.6732   24.4195  -31.6682 H   0  0  0  0  0  0  0  0  0  0  0  0
   -6.2610   23.4790  -30.4220 C   0  0  0  0  0  0  0  0  0  0  0  0
   -6.2942   24.2864  -29.6757 H   0  0  0  0  0  0  0  0  0  0  0  0
   -7.6560   22.2050  -32.0820 C   0  0  0  0  0  0  0  0  0  0  0  0
   -6.9339   21.4031  -31.8687 H   0  0  0  0  0  0  0  0  0  0  0  0
   -7.7091   22.4160  -33.1603 H   0  0  0  0  0  0  0  0  0  0  0  0
   -9.0200   21.7640  -31.6270 C   0  0  0  0  0  0  0  0  0  0  0  0
   -9.6054   22.4075  -30.9537 H   0  0  0  0  0  0  0  0  0  0  0  0
   -5.3380   19.7050  -33.4540 C   0  0  0  0  0  0  0  0  0  0  0  0
   -6.2002   20.3872  -33.4870 H   0  0  0  0  0  0  0  0  0  0  0  0
   -4.0330   20.2550  -32.9330 C   0  0  0  0  0  0  0  0  0  0  0  0
   -3.1990   19.7141  -33.4041 H   0  0  0  0  0  0  0  0  0  0  0  0
   -4.0036   20.1236  -31.8413 H   0  0  0  0  0  0  0  0  0  0  0  0
   -3.9110   21.7380  -33.2520 C   0  0  0  0  0  0  0  0  0  0  0  0
   -3.8638   22.3120  -32.3148 H   0  0  0  0  0  0  0  0  0  0  0  0
   -2.9954   21.9133  -33.8359 H   0  0  0  0  0  0  0  0  0  0  0  0
   -4.7856   22.0606  -33.8359 H   0  0  0  0  0  0  0  0  0  0  0  0
   -8.6810   19.5590  -32.7260 C   0  0  0  0  0  0  0  0  0  0  0  0
   -7.8828   20.0639  -33.2898 H   0  0  0  0  0  0  0  0  0  0  0  0
   -9.3178   18.9758  -33.4075 H   0  0  0  0  0  0  0  0  0  0  0  0
   -8.0630   18.6260  -31.7230 C   0  0  0  0  0  0  0  0  0  0  0  0
   -8.4112   18.6522  -30.6799 H   0  0  0  0  0  0  0  0  0  0  0  0
   -7.0970   17.7620  -32.0690 C   0  0  0  0  0  0  0  0  0  0  0  0
   -6.5864   17.1843  -31.2844 H   0  0  0  0  0  0  0  0  0  0  0  0
   -5.1600   22.4550  -30.3080 C   0  0  0  0  0  0  0  0  0  0  0  0
   -5.6033   21.4487  -30.2787 H   0  0  0  0  0  0  0  0  0  0  0  0
   -4.4938   22.5510  -31.1780 H   0  0  0  0  0  0  0  0  0  0  0  0
   -4.3420   22.6840  -29.0290 C   0  0  0  0  0  0  0  0  0  0  0  0
   -4.8278   22.1502  -28.1989 H   0  0  0  0  0  0  0  0  0  0  0  0
   -3.3244   22.3077  -29.2105 H   0  0  0  0  0  0  0  0  0  0  0  0
   -4.2320   24.1680  -28.6620 C   0  0  0  0  0  0  0  0  0  0  0  0
   -5.2411   24.6049  -28.6325 H   0  0  0  0  0  0  0  0  0  0  0  0
   -3.7434   24.2458  -27.6795 H   0  0  0  0  0  0  0  0  0  0  0  0
   -3.4040   24.9200  -29.6610 C   0  0  0  0  0  0  0  0  0  0  0  0
   -3.9270   25.3010  -30.7430 O   0  0  0  0  0  0  0  0  0  0  0  0
   -2.0640   25.2940  -29.3250 N   0  0  0  0  0  0  0  0  0  0  0  0
   -1.0890   24.4540  -28.6940 C   0  0  0  0  0  0  0  0  0  0  0  0
   -0.4630   24.7100  -27.4950 C   0  0  0  0  0  0  0  0  0  0  0  0
   -0.5740   25.9550  -26.6750 C   0  0  0  0  0  0  0  0  0  0  0  0
   -0.5507   25.6937  -25.6067 H   0  0  0  0  0  0  0  0  0  0  0  0
    0.2681   26.6234  -26.9074 H   0  0  0  0  0  0  0  0  0  0  0  0
   -1.5211   26.4639  -26.9074 H   0  0  0  0  0  0  0  0  0  0  0  0
    0.3600   23.6840  -27.2030 N   0  0  0  0  0  0  0  0  0  0  0  0
    0.2240   22.8000  -28.1530 O   0  0  0  0  0  0  0  0  0  0  0  0
   -0.6440   23.1940  -29.0580 C   0  0  0  0  0  0  0  0  0  0  0  0
   -1.0380   22.3680  -30.2420 C   0  0  0  0  0  0  0  0  0  0  0  0
   -1.4878   21.4250  -29.8979 H   0  0  0  0  0  0  0  0  0  0  0  0
   -1.7686   22.9226  -30.8492 H   0  0  0  0  0  0  0  0  0  0  0  0
   -0.1473   22.1492  -30.8492 H   0  0  0  0  0  0  0  0  0  0  0  0
  1  2  1  0
  2  3  2  3
  3  4  1  0
  3  5  1  0
  5  6  1  0
  5  7  1  0
  5  8  1  0
  8  9  1  0
  8 10  2  0
 10 11  1  0
 10 12  1  0
 12 13  1  0
 12 14  1  0
 12 15  1  0
 15 16  1  0
 15 17  2  3
 17 18  1  0
 17 19  1  0
 19 20  1  0
 19 21  1  0
 19 22  1  0
 22 23  1  0
 22 24  1  0
 22 25  1  0
  2 26  1  0
 26 27  1  0
 26 28  1  0
 26 29  1  0
 29 30  1  0
 29 31  2  0
 31 32  1  0
 31 33  1  0
 33 34  1  0
 33 35  1  0
 33 36  1  0
 36 37  1  0
 36 38  1  0
 36 39  1  0
 39 40  1  0
 39 41  1  0
 39 42  1  0
 42 43  2  0
 42 44  1  0
 44 45  1  0
 45 46  1  0
 46 47  1  0
 47 48  1  0
 47 49  1  0
 47 50  1  0
 46 51  2  0
 51 52  1  0
 52 53  1  0
 53 54  1  0
 54 55  1  0
 54 56  1  0
 54 57  1  0
 53 45  2  0
M  CHG  1  44  -1
M  END
>  <UniqueID>  (12) 
12

>  <SMILES>  (12) 
CCC=CC/C=C/CC=CC/C=C\CCCC(=O)[N-]c1c(C)noc1C

>  <Energy>  (12) 
65.57139190557704

>  <Genealogy>  (12) 
CCC=CCC=CCC=CCC=CCCCC(=O)[N-]c1c(C)noc1C (protonated)
CCC=CC/C=C/CC=CC/C=C\CCCC(=O)[N-]c1c(C)noc1C (cis-trans isomerization)
CCC=CC/C=C/CC=CC/C=C\CCCC(=O)[N-]c1c(C)noc1C (3D coordinates assigned)
CCC=CC/C=C/CC=CC/C=C\CCCC(=O)[N-]c1c(C)noc1C (optimized conformer: 65.57139190557704 kcal/mol)

>  <smiles>  (12) 
CCC=CCC=CCC=CCC=CCCCC(=O)Nc1c(C)noc1C

>  <score_type>  (12) 
oracle

>  <origin>  (12) 
adg

>  <m_score__min__energy>  (12) 
-10.199999999999999

>  <m_primary>  (12) 
energy

$$$$
12:0
     RDKit          3D

 79 82  0  0  0  0  0  0  0  0999 V2000
    0.4420   21.1730  -33.1760 C   0  0  0  0  0  0  0  0  0  0  0  0
   -0.7320   21.2750  -34.1520 C   0  0  0  0  0  0  0  0  0  0  0  0
   -2.0130   20.8860  -33.5360 N   0  0  0  0  0  0  0  0  0  0  0  0
   -2.6030   19.6910  -34.1710 C   0  0  0  0  0  0  0  0  0  0  0  0
   -4.0020   19.3720  -33.6170 C   0  0  0  0  0  0  0  0  0  0  0  0
   -4.2490   20.0250  -32.3290 N   0  0  0  0  0  0  0  0  0  0  0  0
   -5.4950   20.6690  -32.0110 C   0  0  0  0  0  0  0  0  0  0  0  0
   -6.6960   19.9390  -32.0870 C   0  0  0  0  0  0  0  0  0  0  0  0
   -6.6850   18.5390  -32.2700 C   0  0  0  0  0  0  0  0  0  0  0  0
   -7.8750   17.8180  -32.3270 C   0  0  0  0  0  0  0  0  0  0  0  0
   -9.0920   18.4720  -32.1810 C   0  0  0  0  0  0  0  0  0  0  0  0
   -9.1270   19.8520  -31.9820 C   0  0  0  0  0  0  0  0  0  0  0  0
   -7.9330   20.6170  -31.9460 C   0  0  0  0  0  0  0  0  0  0  0  0
   -7.9540   21.9830  -31.7560 N   0  0  0  0  0  0  0  0  0  0  0  0
   -9.2180   22.7320  -31.9290 C   0  0  0  0  0  0  0  0  0  0  0  0
   -6.7910   22.6500  -31.4140 C   0  0  0  0  0  0  0  0  0  0  0  0
   -6.8290   23.9670  -30.8940 C   0  0  0  0  0  0  0  0  0  0  0  0
   -5.6590   24.6670  -30.5970 C   0  0  0  0  0  0  0  0  0  0  0  0
   -5.7290   26.0850  -30.1070 C   0  0  0  0  0  0  0  0  0  0  0  0
   -4.4230   24.0670  -30.8260 C   0  0  0  0  0  0  0  0  0  0  0  0
   -4.3390   22.7450  -31.2810 C   0  0  0  0  0  0  0  0  0  0  0  0
   -3.0740   22.1760  -31.4720 O   0  0  0  0  0  0  0  0  0  0  0  0
   -2.0420   22.1790  -30.4880 C   0  0  0  0  0  0  0  0  0  0  0  0
   -2.1880   20.9760  -29.5220 C   0  0  0  0  0  0  0  0  0  0  0  0
   -0.9310   20.4800  -28.8600 N   0  0  0  0  0  0  0  0  0  0  0  0
   -0.3580   21.5590  -28.0050 C   0  0  0  0  0  0  0  0  0  0  0  0
    0.0810   20.0330  -29.8810 C   0  0  0  0  0  0  0  0  0  0  0  0
    0.4350   18.5320  -29.8150 C   0  0  0  0  0  0  0  0  0  0  0  0
    0.8250   18.0840  -28.4500 N   0  0  0  0  0  0  0  0  0  0  0  0
    0.8970   16.6000  -28.4630 C   0  0  0  0  0  0  0  0  0  0  0  0
    2.1810   18.5950  -28.1220 C   0  0  0  0  0  0  0  0  0  0  0  0
   -0.1590   18.5290  -27.4090 C   0  0  0  0  0  0  0  0  0  0  0  0
   -1.3430   19.3490  -27.9700 C   0  0  0  0  0  0  0  0  0  0  0  0
   -5.5260   22.0140  -31.5710 C   0  0  0  0  0  0  0  0  0  0  0  0
    0.0643   21.2058  -32.1434 H   0  0  0  0  0  0  0  0  0  0  0  0
    0.9751   20.2252  -33.3415 H   0  0  0  0  0  0  0  0  0  0  0  0
    1.1306   22.0147  -33.3415 H   0  0  0  0  0  0  0  0  0  0  0  0
   -0.8103   22.3148  -34.5023 H   0  0  0  0  0  0  0  0  0  0  0  0
   -0.5367   20.5819  -34.9836 H   0  0  0  0  0  0  0  0  0  0  0  0
   -2.6690   21.6950  -33.6370 H   0  0  0  0  0  0  0  0  0  0  0  0
   -1.8570   20.7150  -32.5180 H   0  0  0  0  0  0  0  0  0  0  0  0
   -2.6822   19.8674  -35.2539 H   0  0  0  0  0  0  0  0  0  0  0  0
   -1.9489   18.8339  -33.9528 H   0  0  0  0  0  0  0  0  0  0  0  0
   -4.7563   19.7169  -34.3395 H   0  0  0  0  0  0  0  0  0  0  0  0
   -4.0641   18.2848  -33.4619 H   0  0  0  0  0  0  0  0  0  0  0  0
   -3.5490   19.9010  -31.5620 H   0  0  0  0  0  0  0  0  0  0  0  0
   -5.7248   18.0115  -32.3687 H   0  0  0  0  0  0  0  0  0  0  0  0
   -7.8514   16.7301  -32.4877 H   0  0  0  0  0  0  0  0  0  0  0  0
  -10.0306   17.8998  -32.2225 H   0  0  0  0  0  0  0  0  0  0  0  0
  -10.0962   20.3553  -31.8508 H   0  0  0  0  0  0  0  0  0  0  0  0
   -9.6356   22.9795  -30.9419 H   0  0  0  0  0  0  0  0  0  0  0  0
   -9.0213   23.6594  -32.4869 H   0  0  0  0  0  0  0  0  0  0  0  0
   -9.9370   22.1141  -32.4869 H   0  0  0  0  0  0  0  0  0  0  0  0
   -7.8026   24.4487  -30.7204 H   0  0  0  0  0  0  0  0  0  0  0  0
   -5.7294   26.0932  -29.0070 H   0  0  0  0  0  0  0  0  0  0  0  0
   -4.8574   26.6444  -30.4775 H   0  0  0  0  0  0  0  0  0  0  0  0
   -6.6515   26.5559  -30.4775 H   0  0  0  0  0  0  0  0  0  0  0  0
   -3.5006   24.6390  -30.6471 H   0  0  0  0  0  0  0  0  0  0  0  0
   -1.0657   22.1191  -30.9913 H   0  0  0  0  0  0  0  0  0  0  0  0
   -2.1196   23.1076  -29.9035 H   0  0  0  0  0  0  0  0  0  0  0  0
   -2.8885   21.2710  -28.7269 H   0  0  0  0  0  0  0  0  0  0  0  0
   -2.5298   20.1414  -30.1518 H   0  0  0  0  0  0  0  0  0  0  0  0
   -0.4960   21.2991  -26.9451 H   0  0  0  0  0  0  0  0  0  0  0  0
    0.7156   21.6657  -28.2196 H   0  0  0  0  0  0  0  0  0  0  0  0
   -0.8709   22.5082  -28.2196 H   0  0  0  0  0  0  0  0  0  0  0  0
   -0.3224   20.2474  -30.8816 H   0  0  0  0  0  0  0  0  0  0  0  0
    1.0085   20.5835  -29.6648 H   0  0  0  0  0  0  0  0  0  0  0  0
   -0.4417   17.9510  -30.1371 H   0  0  0  0  0  0  0  0  0  0  0  0
    1.3010   18.3697  -30.4736 H   0  0  0  0  0  0  0  0  0  0  0  0
    0.9152   16.2247  -27.4292 H   0  0  0  0  0  0  0  0  0  0  0  0
    0.0175   16.1948  -28.9847 H   0  0  0  0  0  0  0  0  0  0  0  0
    1.8116   16.2818  -28.9847 H   0  0  0  0  0  0  0  0  0  0  0  0
    2.3014   18.6404  -27.0296 H   0  0  0  0  0  0  0  0  0  0  0  0
    2.9395   17.9210  -28.5468 H   0  0  0  0  0  0  0  0  0  0  0  0
    2.3061   19.6019  -28.5468 H   0  0  0  0  0  0  0  0  0  0  0  0
   -0.5629   17.6353  -26.9109 H   0  0  0  0  0  0  0  0  0  0  0  0
    0.3861   19.1899  -26.7190 H   0  0  0  0  0  0  0  0  0  0  0  0
   -1.9901   18.6722  -28.5473 H   0  0  0  0  0  0  0  0  0  0  0  0
   -1.8598   19.7942  -27.1071 H   0  0  0  0  0  0  0  0  0  0  0  0
  1  2  1  0
  2  3  1  0
  3  4  1  0
  4  5  1  0
  5  6  1  0
  6  7  1  0
  7  8  2  0
  8  9  1  0
  9 10  2  0
 10 11  1  0
 11 12  2  0
 12 13  1  0
 13 14  2  0
 14 15  1  0
 14 16  1  0
 16 17  2  0
 17 18  1  0
 18 19  1  0
 18 20  2  0
 20 21  1  0
 21 22  1  0
 22 23  1  0
 23 24  1  0
 24 25  1  0
 25 26  1  0
 25 27  1  0
 27 28  1  0
 28 29  1  0
 29 30  1  0
 29 31  1  0
 29 32  1  0
 32 33  1  0
 21 34  2  0
 34  7  1  0
 13  8  1  0
 34 16  1  0
 33 25  1  0
  1 35  1  0
  1 36  1  0
  1 37  1  0
  2 38  1  0
  2 39  1  0
  3 40  1  0
  3 41  1  0
  4 42  1  0
  4 43  1  0
  5 44  1  0
  5 45  1  0
  6 46  1  0
  9 47  1  0
 10 48  1  0
 11 49  1  0
 12 50  1  0
 15 51  1  0
 15 52  1  0
 15 53  1  0
 17 54  1  0
 19 55  1  0
 19 56  1  0
 19 57  1  0
 20 58  1  0
 23 59  1  0
 23 60  1  0
 24 61  1  0
 24 62  1  0
 26 63  1  0
 26 64  1  0
 26 65  1  0
 27 66  1  0
 27 67  1  0
 28 68  1  0
 28 69  1  0
 30 70  1  0
 30 71  1  0
 30 72  1  0
 31 73  1  0
 31 74  1  0
 31 75  1  0
 32 76  1  0
 32 77  1  0
 33 78  1  0
 33 79  1  0
M  CHG  4   3   1  14   1  25   1  29   1
M  END
>  <UniqueID>  (13) 
13

>  <SMILES>  (13) 
CC[NH2+]CCNc1c2ccccc2[n+](C)c2cc(C)cc(OCC[N+]3(C)CC[N+](C)(C)CC3)c12

>  <Energy>  (13) 
138.39486889210872

>  <Genealogy>  (13) 
CC[NH2+]CCNc1c2ccccc2[n+](C)c2cc(C)cc(OCC[N+]3(C)CC[N+](C)(C)CC3)c12 (protonated)
CC[NH2+]CCNc1c2ccccc2[n+](C)c2cc(C)cc(OCC[N+]3(C)CC[N+](C)(C)CC3)c12 (3D coordinates assigned)
CC[NH2+]CCNc1c2ccccc2[n+](C)c2cc(C)cc(OCC[N+]3(C)CC[N+](C)(C)CC3)c12 (nonaromatic ring conformer: 138.39486889210872 kcal/mol)

>  <smiles>  (13) 
CCNCCNc1c2ccccc2[n+](C)c2cc(C)cc(OCC[N+]3(C)CC[N+](C)(C)CC3)c12

>  <score_type>  (13) 
oracle

>  <origin>  (13) 
adg

>  <m_score__min__energy>  (13) 
-7.6799999999999997

>  <m_primary>  (13) 
energy

$$$$
13:0
     RDKit          3D

 72 75  0  0  0  0  0  0  0  0999 V2000
   -1.5850   20.9900  -28.6970 C   0  0  0  0  0  0  0  0  0  0  0  0
   -3.0900   20.9020  -28.9320 C   0  0  0  0  0  0  0  0  0  0  0  0
   -3.4770   21.5270  -30.2070 N   0  0  0  0  0  0  0  0  0  0  0  0
   -2.3470   21.8790  -31.0870 C   0  0  0  0  0  0  0  0  0  0  0  0
   -2.4710   21.3600  -32.5370 C   0  0  0  0  0  0  0  0  0  0  0  0
   -3.6550   21.9020  -33.2320 N   0  0  0  0  0  0  0  0  0  0  0  0
   -4.8440   21.1170  -32.9280 C   0  0  0  0  0  0  0  0  0  0  0  0
   -4.9140   19.7550  -33.3420 C   0  0  0  0  0  0  0  0  0  0  0  0
   -3.7910   19.0820  -33.8920 C   0  0  0  0  0  0  0  0  0  0  0  0
   -3.8880   17.7760  -34.3620 C   0  0  0  0  0  0  0  0  0  0  0  0
   -5.0990   17.1060  -34.3090 C   0  0  0  0  0  0  0  0  0  0  0  0
   -6.2110   17.7250  -33.7460 C   0  0  0  0  0  0  0  0  0  0  0  0
   -6.1340   19.0380  -33.2100 C   0  0  0  0  0  0  0  0  0  0  0  0
   -7.2210   19.6220  -32.5990 N   0  0  0  0  0  0  0  0  0  0  0  0
   -8.3810   18.7860  -32.2070 C   0  0  0  0  0  0  0  0  0  0  0  0
   -7.2140   20.9680  -32.3000 C   0  0  0  0  0  0  0  0  0  0  0  0
   -8.4180   21.6370  -31.9680 C   0  0  0  0  0  0  0  0  0  0  0  0
   -8.4170   22.9570  -31.5500 C   0  0  0  0  0  0  0  0  0  0  0  0
   -7.2230   23.6400  -31.4160 C   0  0  0  0  0  0  0  0  0  0  0  0
   -6.0010   23.0380  -31.7680 C   0  0  0  0  0  0  0  0  0  0  0  0
   -4.7940   23.7180  -31.5260 O   0  0  0  0  0  0  0  0  0  0  0  0
   -4.6080   24.8460  -30.6710 C   0  0  0  0  0  0  0  0  0  0  0  0
   -4.9240   24.4760  -29.2150 C   0  0  0  0  0  0  0  0  0  0  0  0
   -3.7470   23.8900  -28.5380 N   0  0  0  0  0  0  0  0  0  0  0  0
   -3.9090   23.9030  -27.0610 C   0  0  0  0  0  0  0  0  0  0  0  0
   -3.2080   25.1100  -26.4140 C   0  0  0  0  0  0  0  0  0  0  0  0
   -1.7290   25.1010  -26.6550 N   0  0  0  0  0  0  0  0  0  0  0  0
   -1.2400   26.5010  -26.6930 C   0  0  0  0  0  0  0  0  0  0  0  0
   -1.0480   24.4110  -25.5310 C   0  0  0  0  0  0  0  0  0  0  0  0
   -1.3730   24.4090  -27.9350 C   0  0  0  0  0  0  0  0  0  0  0  0
   -2.4840   24.5320  -28.9890 C   0  0  0  0  0  0  0  0  0  0  0  0
   -5.9990   21.7190  -32.3330 C   0  0  0  0  0  0  0  0  0  0  0  0
   -1.3828   21.0018  -27.6158 H   0  0  0  0  0  0  0  0  0  0  0  0
   -1.0912   20.1192  -29.1529 H   0  0  0  0  0  0  0  0  0  0  0  0
   -1.1960   21.9124  -29.1529 H   0  0  0  0  0  0  0  0  0  0  0  0
   -3.3873   19.8431  -28.9488 H   0  0  0  0  0  0  0  0  0  0  0  0
   -3.5973   21.4397  -28.1174 H   0  0  0  0  0  0  0  0  0  0  0  0
   -4.0560   22.3760  -30.0150 H   0  0  0  0  0  0  0  0  0  0  0  0
   -2.2683   22.9756  -31.1213 H   0  0  0  0  0  0  0  0  0  0  0  0
   -1.4574   21.3941  -30.6588 H   0  0  0  0  0  0  0  0  0  0  0  0
   -1.5695   21.6532  -33.0949 H   0  0  0  0  0  0  0  0  0  0  0  0
   -2.5811   20.2664  -32.4923 H   0  0  0  0  0  0  0  0  0  0  0  0
   -3.4880   21.9180  -34.2620 H   0  0  0  0  0  0  0  0  0  0  0  0
   -3.8050   22.9110  -33.0200 H   0  0  0  0  0  0  0  0  0  0  0  0
   -2.8244   19.6040  -33.9476 H   0  0  0  0  0  0  0  0  0  0  0  0
   -3.0010   17.2746  -34.7765 H   0  0  0  0  0  0  0  0  0  0  0  0
   -5.1818   16.0856  -34.7115 H   0  0  0  0  0  0  0  0  0  0  0  0
   -7.1695   17.1862  -33.7155 H   0  0  0  0  0  0  0  0  0  0  0  0
   -8.4454   18.7396  -31.1099 H   0  0  0  0  0  0  0  0  0  0  0  0
   -9.3042   19.2277  -32.6101 H   0  0  0  0  0  0  0  0  0  0  0  0
   -8.2540   17.7705  -32.6101 H   0  0  0  0  0  0  0  0  0  0  0  0
   -9.3731   21.0967  -32.0439 H   0  0  0  0  0  0  0  0  0  0  0  0
   -9.3675   23.4626  -31.3243 H   0  0  0  0  0  0  0  0  0  0  0  0
   -7.2281   24.6694  -31.0284 H   0  0  0  0  0  0  0  0  0  0  0  0
   -3.5635   25.1840  -30.7399 H   0  0  0  0  0  0  0  0  0  0  0  0
   -5.2887   25.6493  -30.9893 H   0  0  0  0  0  0  0  0  0  0  0  0
   -5.2327   25.3829  -28.6745 H   0  0  0  0  0  0  0  0  0  0  0  0
   -5.7303   23.7277  -29.2158 H   0  0  0  0  0  0  0  0  0  0  0  0
   -4.9819   23.9455  -26.8219 H   0  0  0  0  0  0  0  0  0  0  0  0
   -3.4477   22.9881  -26.6609 H   0  0  0  0  0  0  0  0  0  0  0  0
   -3.6303   26.0335  -26.8368 H   0  0  0  0  0  0  0  0  0  0  0  0
   -3.3738   25.0549  -25.3280 H   0  0  0  0  0  0  0  0  0  0  0  0
   -1.1104   26.8721  -25.6656 H   0  0  0  0  0  0  0  0  0  0  0  0
   -0.2756   26.5383  -27.2208 H   0  0  0  0  0  0  0  0  0  0  0  0
   -1.9714   27.1307  -27.2208 H   0  0  0  0  0  0  0  0  0  0  0  0
   -1.4314   24.7995  -24.5760 H   0  0  0  0  0  0  0  0  0  0  0  0
   -1.2432   23.3302  -25.5920 H   0  0  0  0  0  0  0  0  0  0  0  0
    0.0353   24.5920  -25.5920 H   0  0  0  0  0  0  0  0  0  0  0  0
   -0.4525   24.8579  -28.3364 H   0  0  0  0  0  0  0  0  0  0  0  0
   -1.2336   23.3405  -27.7140 H   0  0  0  0  0  0  0  0  0  0  0  0
   -2.6755   25.5979  -29.1816 H   0  0  0  0  0  0  0  0  0  0  0  0
   -2.1471   24.0193  -29.9021 H   0  0  0  0  0  0  0  0  0  0  0  0
  1  2  1  0
  2  3  1  0
  3  4  1  0
  4  5  1  0
  5  6  1  0
  6  7  1  0
  7  8  2  0
  8  9  1  0
  9 10  2  0
 10 11  1  0
 11 12  2  0
 12 13  1  0
 13 14  2  0
 14 15  1  0
 14 16  1  0
 16 17  2  0
 17 18  1  0
 18 19  2  0
 19 20  1  0
 20 21  1  0
 21 22  1  0
 22 23  1  0
 23 24  1  0
 24 25  1  0
 25 26  1  0
 26 27  1  0
 27 28  1  0
 27 29  1  0
 27 30  1  0
 30 31  1  0
 20 32  2  0
 32  7  1  0
 13  8  1  0
 32 16  1  0
 31 24  1  0
  1 33  1  0
  1 34  1  0
  1 35  1  0
  2 36  1  0
  2 37  1  0
  3 38  1  0
  4 39  1  0
  4 40  1  0
  5 41  1  0
  5 42  1  0
  6 43  1  0
  6 44  1  0
  9 45  1  0
 10 46  1  0
 11 47  1  0
 12 48  1  0
 15 49  1  0
 15 50  1  0
 15 51  1  0
 17 52  1  0
 18 53  1  0
 19 54  1  0
 22 55  1  0
 22 56  1  0
 23 57  1  0
 23 58  1  0
 25 59  1  0
 25 60  1  0
 26 61  1  0
 26 62  1  0
 28 63  1  0
 28 64  1  0
 28 65  1  0
 29 66  1  0
 29 67  1  0
 29 68  1  0
 30 69  1  0
 30 70  1  0
 31 71  1  0
 31 72  1  0
M  CHG  3   6   1  14   1  27   1
M  END
>  <UniqueID>  (14) 
14

>  <SMILES>  (14) 
CCNCC[NH2+]c1c2ccccc2[n+](C)c2cccc(OCCN3CC[N+](C)(C)CC3)c12

>  <Energy>  (14) 
124.20813159482411

>  <Genealogy>  (14) 
CCNCC[NH2+]c1c2ccccc2[n+](C)c2cccc(OCCN3CC[N+](C)(C)CC3)c12 (protonated)
CCNCC[NH2+]c1c2ccccc2[n+](C)c2cccc(OCCN3CC[N+](C)(C)CC3)c12 (3D coordinates assigned)
CCNCC[NH2+]c1c2ccccc2[n+](C)c2cccc(OCCN3CC[N+](C)(C)CC3)c12 (nonaromatic ring conformer: 124.20813159482411 kcal/mol)

>  <smiles>  (14) 
CCNCCNc1c2ccccc2[n+](C)c2cccc(OCCN3CC[N+](C)(C)CC3)c12

>  <score_type>  (14) 
oracle

>  <origin>  (14) 
adg

>  <m_score__min__energy>  (14) 
-8.3300000000000001

>  <m_primary>  (14) 
energy

$$$$
14:0
     RDKit          3D

 53 56  0  0  0  0  0  0  0  0999 V2000
   -2.9580   21.6280  -33.1450 C   0  0  0  0  0  0  0  0  0  0  0  0
   -2.6210   21.4480  -31.6990 C   0  0  0  0  0  0  0  0  0  0  0  0
   -1.6730   20.5820  -31.2600 N   0  0  0  0  0  0  0  0  0  0  0  0
   -1.7650   20.6400  -29.9200 C   0  0  0  0  0  0  0  0  0  0  0  0
   -1.0380   19.9220  -28.9740 C   0  0  0  0  0  0  0  0  0  0  0  0
   -1.3500   20.1300  -27.6160 C   0  0  0  0  0  0  0  0  0  0  0  0
   -2.3750   21.0330  -27.2460 C   0  0  0  0  0  0  0  0  0  0  0  0
   -3.0940   21.7370  -28.2290 C   0  0  0  0  0  0  0  0  0  0  0  0
   -2.7520   21.5150  -29.5630 C   0  0  0  0  0  0  0  0  0  0  0  0
   -3.2910   22.0460  -30.6770 N   0  0  0  0  0  0  0  0  0  0  0  0
   -4.4580   22.8800  -30.7570 C   0  0  0  0  0  0  0  0  0  0  0  0
   -4.4230   24.2390  -30.3310 C   0  0  0  0  0  0  0  0  0  0  0  0
   -3.2740   24.9110  -29.8760 O   0  0  0  0  0  0  0  0  0  0  0  0
   -2.7410   24.9050  -28.5530 C   0  0  0  0  0  0  0  0  0  0  0  0
   -1.2670   25.3140  -28.5920 C   0  0  0  0  0  0  0  0  0  0  0  0
   -0.3360   24.1420  -28.9730 C   0  0  0  0  0  0  0  0  0  0  0  0
    0.9270   24.1740  -28.2030 N   0  0  0  0  0  0  0  0  0  0  0  0
    1.0740   22.9260  -27.4360 C   0  0  0  0  0  0  0  0  0  0  0  0
    0.9610   25.3230  -27.2810 C   0  0  0  0  0  0  0  0  0  0  0  0
   -5.6020   24.9900  -30.3500 C   0  0  0  0  0  0  0  0  0  0  0  0
   -6.8020   24.4430  -30.7960 C   0  0  0  0  0  0  0  0  0  0  0  0
   -6.8540   23.1160  -31.2270 C   0  0  0  0  0  0  0  0  0  0  0  0
   -8.0680   22.5680  -31.6710 C   0  0  0  0  0  0  0  0  0  0  0  0
   -8.1310   21.2380  -32.0870 C   0  0  0  0  0  0  0  0  0  0  0  0
   -6.9850   20.4430  -32.0600 C   0  0  0  0  0  0  0  0  0  0  0  0
   -5.7700   20.9730  -31.6200 C   0  0  0  0  0  0  0  0  0  0  0  0
   -5.6830   22.3200  -31.2050 C   0  0  0  0  0  0  0  0  0  0  0  0
   -3.9250   22.1445  -33.2346 H   0  0  0  0  0  0  0  0  0  0  0  0
   -2.1753   22.2282  -33.6320 H   0  0  0  0  0  0  0  0  0  0  0  0
   -3.0215   20.6437  -33.6320 H   0  0  0  0  0  0  0  0  0  0  0  0
   -1.0390   19.9810  -31.8330 H   0  0  0  0  0  0  0  0  0  0  0  0
   -0.2487   19.2179  -29.2761 H   0  0  0  0  0  0  0  0  0  0  0  0
   -0.7932   19.5870  -26.8381 H   0  0  0  0  0  0  0  0  0  0  0  0
   -2.6111   21.1854  -26.1825 H   0  0  0  0  0  0  0  0  0  0  0  0
   -3.8970   22.4373  -27.9556 H   0  0  0  0  0  0  0  0  0  0  0  0
   -3.3020   25.6163  -27.9290 H   0  0  0  0  0  0  0  0  0  0  0  0
   -2.8287   23.8941  -28.1282 H   0  0  0  0  0  0  0  0  0  0  0  0
   -1.1437   26.1174  -29.3332 H   0  0  0  0  0  0  0  0  0  0  0  0
   -0.9867   25.6478  -27.5820 H   0  0  0  0  0  0  0  0  0  0  0  0
   -0.8545   23.1937  -28.7682 H   0  0  0  0  0  0  0  0  0  0  0  0
   -0.0890   24.2334  -30.0410 H   0  0  0  0  0  0  0  0  0  0  0  0
    1.0474   23.1518  -26.3597 H   0  0  0  0  0  0  0  0  0  0  0  0
    0.2502   22.2418  -27.6876 H   0  0  0  0  0  0  0  0  0  0  0  0
    2.0342   22.4519  -27.6876 H   0  0  0  0  0  0  0  0  0  0  0  0
    0.9503   24.9603  -26.2426 H   0  0  0  0  0  0  0  0  0  0  0  0
    1.8768   25.9066  -27.4561 H   0  0  0  0  0  0  0  0  0  0  0  0
    0.0813   25.9598  -27.4561 H   0  0  0  0  0  0  0  0  0  0  0  0
   -5.5811   26.0345  -30.0055 H   0  0  0  0  0  0  0  0  0  0  0  0
   -7.7132   25.0590  -30.8089 H   0  0  0  0  0  0  0  0  0  0  0  0
   -8.9744   23.1909  -31.6909 H   0  0  0  0  0  0  0  0  0  0  0  0
   -9.0848   20.8159  -32.4365 H   0  0  0  0  0  0  0  0  0  0  0  0
   -7.0385   19.3940  -32.3867 H   0  0  0  0  0  0  0  0  0  0  0  0
   -4.8735   20.3360  -31.5965 H   0  0  0  0  0  0  0  0  0  0  0  0
  1  2  1  0
  2  3  2  0
  3  4  1  0
  4  5  2  0
  5  6  1  0
  6  7  2  0
  7  8  1  0
  8  9  2  0
  9 10  1  0
 10 11  1  0
 11 12  2  0
 12 13  1  0
 13 14  1  0
 14 15  1  0
 15 16  1  0
 16 17  1  0
 17 18  1  0
 17 19  1  0
 12 20  1  0
 20 21  2  0
 21 22  1  0
 22 23  2  0
 23 24  1  0
 24 25  2  0
 25 26  1  0
 26 27  2  0
 10  2  1  0
 27 11  1  0
  9  4  1  0
 27 22  1  0
  1 28  1  0
  1 29  1  0
  1 30  1  0
  3 31  1  0
  5 32  1  0
  6 33  1  0
  7 34  1  0
  8 35  1  0
 14 36  1  0
 14 37  1  0
 15 38  1  0
 15 39  1  0
 16 40  1  0
 16 41  1  0
 18 42  1  0
 18 43  1  0
 18 44  1  0
 19 45  1  0
 19 46  1  0
 19 47  1  0
 20 48  1  0
 21 49  1  0
 23 50  1  0
 24 51  1  0
 25 52  1  0
 26 53  1  0
M  CHG  1   3   1
M  END
>  <UniqueID>  (15) 
15

>  <SMILES>  (15) 
Cc1[nH+]c2ccccc2n1-c1c(OCCCN(C)C)ccc2ccccc12

>  <Energy>  (15) 
107.53572272532094

>  <Genealogy>  (15) 
Cc1[nH+]c2ccccc2n1-c1c(OCCCN(C)C)ccc2ccccc12 (protonated)
Cc1[nH+]c2ccccc2n1-c1c(OCCCN(C)C)ccc2ccccc12 (3D coordinates assigned)
Cc1[nH+]c2ccccc2n1-c1c(OCCCN(C)C)ccc2ccccc12 (optimized conformer: 107.53572272532094 kcal/mol)

>  <smiles>  (15) 
Cc1nc2ccccc2n1-c1c(OCCCN(C)C)ccc2ccccc12

>  <score_type>  (15) 
oracle

>  <origin>  (15) 
adg

>  <m_score__min__energy>  (15) 
-7.9000000000000004

>  <m_primary>  (15) 
energy

$$$$
15:0
     RDKit          3D

 42 44  0  0  0  0  0  0  0  0999 V2000
    0.3980   21.1230  -35.0380 C   0  0  0  0  0  0  0  0  0  0  0  0
    0.1030   20.5800  -33.6350 C   0  0  0  0  0  0  0  0  0  0  0  0
   -1.1160   21.1790  -33.0340 N   0  0  0  0  0  0  0  0  0  0  0  0
   -1.2910   20.7530  -31.6270 C   0  0  0  0  0  0  0  0  0  0  0  0
   -2.3960   21.5850  -30.9700 C   0  0  0  0  0  0  0  0  0  0  0  0
   -3.5350   21.7520  -31.8780 N   0  0  0  0  0  0  0  0  0  0  0  0
   -4.5620   22.7050  -31.5480 C   0  0  0  0  0  0  0  0  0  0  0  0
   -4.2420   23.8220  -31.0590 O   0  0  0  0  0  0  0  0  0  0  0  0
   -5.9870   22.4180  -31.7930 C   0  0  0  0  0  0  0  0  0  0  0  0
   -6.9920   23.3630  -31.9660 C   0  0  0  0  0  0  0  0  0  0  0  0
   -8.1820   22.7470  -32.1610 N   0  0  0  0  0  0  0  0  0  0  0  0
   -9.4740   23.4030  -32.3400 C   0  0  0  0  0  0  0  0  0  0  0  0
   -7.9450   21.4220  -32.0820 C   0  0  0  0  0  0  0  0  0  0  0  0
   -8.8700   20.3790  -32.1630 C   0  0  0  0  0  0  0  0  0  0  0  0
   -8.3980   19.0640  -31.9950 C   0  0  0  0  0  0  0  0  0  0  0  0
   -7.0320   18.8230  -31.7380 C   0  0  0  0  0  0  0  0  0  0  0  0
   -6.1220   19.8910  -31.6520 C   0  0  0  0  0  0  0  0  0  0  0  0
   -6.6100   21.1840  -31.8540 C   0  0  0  0  0  0  0  0  0  0  0  0
   -3.6480   20.9110  -33.0780 C   0  0  0  0  0  0  0  0  0  0  0  0
   -2.3090   20.8190  -33.8470 C   0  0  0  0  0  0  0  0  0  0  0  0
    0.9216   22.0868  -34.9555 H   0  0  0  0  0  0  0  0  0  0  0  0
    1.0312   20.4071  -35.5826 H   0  0  0  0  0  0  0  0  0  0  0  0
   -0.5472   21.2646  -35.5826 H   0  0  0  0  0  0  0  0  0  0  0  0
   -0.0358   19.4908  -33.7010 H   0  0  0  0  0  0  0  0  0  0  0  0
    0.9550   20.8428  -32.9907 H   0  0  0  0  0  0  0  0  0  0  0  0
   -1.0180   22.2220  -33.0610 H   0  0  0  0  0  0  0  0  0  0  0  0
   -1.5686   19.6890  -31.5989 H   0  0  0  0  0  0  0  0  0  0  0  0
   -0.3481   20.9031  -31.0808 H   0  0  0  0  0  0  0  0  0  0  0  0
   -2.7355   21.0754  -30.0562 H   0  0  0  0  0  0  0  0  0  0  0  0
   -1.9910   22.5786  -30.7278 H   0  0  0  0  0  0  0  0  0  0  0  0
   -6.8422   24.4526  -31.9472 H   0  0  0  0  0  0  0  0  0  0  0  0
   -9.9118   23.6253  -31.3557 H   0  0  0  0  0  0  0  0  0  0  0  0
   -9.3352   24.3398  -32.8996 H   0  0  0  0  0  0  0  0  0  0  0  0
  -10.1484   22.7381  -32.8996 H   0  0  0  0  0  0  0  0  0  0  0  0
   -9.9349   20.5792  -32.3523 H   0  0  0  0  0  0  0  0  0  0  0  0
   -9.0985   18.2188  -32.0645 H   0  0  0  0  0  0  0  0  0  0  0  0
   -6.6760   17.7909  -31.6038 H   0  0  0  0  0  0  0  0  0  0  0  0
   -5.0588   19.7139  -31.4325 H   0  0  0  0  0  0  0  0  0  0  0  0
   -3.9543   19.8988  -32.7752 H   0  0  0  0  0  0  0  0  0  0  0  0
   -4.3933   21.3683  -33.7454 H   0  0  0  0  0  0  0  0  0  0  0  0
   -2.1854   19.7856  -34.2031 H   0  0  0  0  0  0  0  0  0  0  0  0
   -2.3645   21.5477  -34.6691 H   0  0  0  0  0  0  0  0  0  0  0  0
  1  2  1  0
  2  3  1  0
  3  4  1  0
  4  5  1  0
  5  6  1  0
  6  7  1  0
  7  8  2  0
  7  9  1  0
  9 10  2  0
 10 11  1  0
 11 12  1  0
 11 13  1  0
 13 14  2  0
 14 15  1  0
 15 16  2  0
 16 17  1  0
 17 18  2  0
  6 19  1  0
 19 20  1  0
 20  3  1  0
 18  9  1  0
 18 13  1  0
  1 21  1  0
  1 22  1  0
  1 23  1  0
  2 24  1  0
  2 25  1  0
  3 26  1  0
  4 27  1  0
  4 28  1  0
  5 29  1  0
  5 30  1  0
 10 31  1  0
 12 32  1  0
 12 33  1  0
 12 34  1  0
 14 35  1  0
 15 36  1  0
 16 37  1  0
 17 38  1  0
 19 39  1  0
 19 40  1  0
 20 41  1  0
 20 42  1  0
M  CHG  1   3   1
M  END
>  <UniqueID>  (16) 
16

>  <SMILES>  (16) 
CC[NH+]1CCN(C(=O)c2cn(C)c3ccccc23)CC1

>  <Energy>  (16) 
86.64653554068225

>  <Genealogy>  (16) 
CC[NH+]1CCN(C(=O)c2cn(C)c3ccccc23)CC1 (protonated)
CC[NH+]1CCN(C(=O)c2cn(C)c3ccccc23)CC1 (3D coordinates assigned)
CC[NH+]1CCN(C(=O)c2cn(C)c3ccccc23)CC1 (nonaromatic ring conformer: 86.64653554068225 kcal/mol)

>  <smiles>  (16) 
CCN1CCN(C(=O)c2cn(C)c3ccccc23)CC1

>  <score_type>  (16) 
oracle

>  <origin>  (16) 
adg

>  <m_score__min__energy>  (16) 
-6.4800000000000004

>  <m_primary>  (16) 
energy

$$$$
16:0
     RDKit          3D

 47 49  0  0  0  0  0  0  0  0999 V2000
   -2.7370   25.3060  -26.4610 C   0  0  0  0  0  0  0  0  0  0  0  0
   -1.6910   24.4370  -27.1060 C   0  0  0  0  0  0  0  0  0  0  0  0
   -0.8780   23.6090  -26.3130 C   0  0  0  0  0  0  0  0  0  0  0  0
    0.0900   22.7940  -26.9050 C   0  0  0  0  0  0  0  0  0  0  0  0
    0.2460   22.7870  -28.2910 C   0  0  0  0  0  0  0  0  0  0  0  0
   -0.5570   23.6050  -29.0910 C   0  0  0  0  0  0  0  0  0  0  0  0
   -1.5120   24.4550  -28.5050 C   0  0  0  0  0  0  0  0  0  0  0  0
   -2.3540   25.2820  -29.3220 N   0  0  0  0  0  0  0  0  0  0  0  0
   -3.6130   24.9110  -29.8990 C   0  0  0  0  0  0  0  0  0  0  0  0
   -4.1250   25.6630  -30.7700 O   0  0  0  0  0  0  0  0  0  0  0  0
   -4.2680   23.5890  -29.6060 C   0  0  0  0  0  0  0  0  0  0  0  0
   -4.6650   22.9320  -30.8460 N   0  0  0  0  0  0  0  0  0  0  0  0
   -4.1400   21.8050  -31.3650 C   0  0  0  0  0  0  0  0  0  0  0  0
   -4.8200   21.5690  -32.5410 C   0  0  0  0  0  0  0  0  0  0  0  0
   -4.6620   20.3910  -33.4580 C   0  0  0  0  0  0  0  0  0  0  0  0
   -5.9440   19.7170  -33.7240 N   0  0  0  0  0  0  0  0  0  0  0  0
   -6.7940   19.6030  -32.5210 C   0  0  2  0  0  0  0  0  0  0  0  0
   -7.2040   18.1570  -32.2510 C   0  0  0  0  0  0  0  0  0  0  0  0
   -8.5840   18.2130  -31.6030 C   0  0  0  0  0  0  0  0  0  0  0  0
   -9.1040   19.6370  -31.7880 C   0  0  0  0  0  0  0  0  0  0  0  0
   -8.1190   20.3410  -32.7120 C   0  0  1  0  0  0  0  0  0  0  0  0
   -8.0050   21.6960  -32.3620 O   0  0  0  0  0  0  0  0  0  0  0  0
   -5.7280   22.5520  -32.6920 N   0  0  0  0  0  0  0  0  0  0  0  0
   -5.6160   23.3700  -31.6580 N   0  0  0  0  0  0  0  0  0  0  0  0
   -2.6500   25.2337  -25.3668 H   0  0  0  0  0  0  0  0  0  0  0  0
   -2.5888   26.3505  -26.7724 H   0  0  0  0  0  0  0  0  0  0  0  0
   -3.7367   24.9689  -26.7724 H   0  0  0  0  0  0  0  0  0  0  0  0
   -1.0046   23.6026  -25.2203 H   0  0  0  0  0  0  0  0  0  0  0  0
    0.7301   22.1568  -26.2771 H   0  0  0  0  0  0  0  0  0  0  0  0
    1.0021   22.1368  -28.7552 H   0  0  0  0  0  0  0  0  0  0  0  0
   -0.4413   23.5838  -30.1847 H   0  0  0  0  0  0  0  0  0  0  0  0
   -3.5586   22.9450  -29.0657 H   0  0  0  0  0  0  0  0  0  0  0  0
   -5.1639   23.7632  -28.9920 H   0  0  0  0  0  0  0  0  0  0  0  0
   -3.3310   21.1953  -30.9364 H   0  0  0  0  0  0  0  0  0  0  0  0
   -4.2401   20.7391  -34.4124 H   0  0  0  0  0  0  0  0  0  0  0  0
   -3.9957   19.6671  -32.9660 H   0  0  0  0  0  0  0  0  0  0  0  0
   -6.4550   20.2670  -34.4550 H   0  0  0  0  0  0  0  0  0  0  0  0
   -6.1913   20.0195  -31.7004 H   0  0  0  0  0  0  0  0  0  0  0  0
   -7.2493   17.5923  -33.1939 H   0  0  0  0  0  0  0  0  0  0  0  0
   -6.4773   17.6524  -31.5973 H   0  0  0  0  0  0  0  0  0  0  0  0
   -9.2607   17.4968  -32.0919 H   0  0  0  0  0  0  0  0  0  0  0  0
   -8.5289   17.9496  -30.5364 H   0  0  0  0  0  0  0  0  0  0  0  0
  -10.1055   19.6197  -32.2426 H   0  0  0  0  0  0  0  0  0  0  0  0
   -9.1864   20.1587  -30.8231 H   0  0  0  0  0  0  0  0  0  0  0  0
   -8.4419   20.3196  -33.7633 H   0  0  0  0  0  0  0  0  0  0  0  0
   -7.2370   21.7660  -31.7370 H   0  0  0  0  0  0  0  0  0  0  0  0
   -6.4140   22.6650  -33.4710 H   0  0  0  0  0  0  0  0  0  0  0  0
  1  2  1  0
  2  3  2  0
  3  4  1  0
  4  5  2  0
  5  6  1  0
  6  7  2  0
  7  8  1  0
  8  9  1  0
  9 10  2  0
  9 11  1  0
 11 12  1  0
 12 13  1  0
 13 14  2  0
 14 15  1  0
 15 16  1  0
 16 17  1  0
 17 18  1  0
 18 19  1  0
 19 20  1  0
 20 21  1  0
 21 22  1  0
 14 23  1  0
 23 24  2  0
  7  2  1  0
 24 12  1  0
 21 17  1  0
  1 25  1  0
  1 26  1  0
  1 27  1  0
  3 28  1  0
  4 29  1  0
  5 30  1  0
  6 31  1  0
 11 32  1  0
 11 33  1  0
 13 34  1  0
 15 35  1  0
 15 36  1  0
 16 37  1  0
 17 38  1  1
 18 39  1  0
 18 40  1  0
 19 41  1  0
 19 42  1  0
 20 43  1  0
 20 44  1  0
 21 45  1  6
 22 46  1  0
 23 47  1  0
M  CHG  2   8  -1  23   1
M  END
>  <UniqueID>  (17) 
17

>  <SMILES>  (17) 
Cc1ccccc1[N-]C(=O)Cn1cc(CN[C@@H]2CCC[C@H]2O)[nH+]n1

>  <Energy>  (17) 
87.6935798797535

>  <Genealogy>  (17) 
Cc1ccccc1[N-]C(=O)Cn1cc(CNC2CCCC2O)[nH+]n1 (protonated)
Cc1ccccc1[N-]C(=O)Cn1cc(CN[C@@H]2CCC[C@H]2O)[nH+]n1 (chirality)
Cc1ccccc1[N-]C(=O)Cn1cc(CN[C@@H]2CCC[C@H]2O)[nH+]n1 (3D coordinates assigned)
Cc1ccccc1[N-]C(=O)Cn1cc(CN[C@@H]2CCC[C@H]2O)[nH+]n1 (nonaromatic ring conformer: 87.6935798797535 kcal/mol)

>  <smiles>  (17) 
Cc1ccccc1NC(=O)Cn1cc(CNC2CCCC2O)nn1

>  <score_type>  (17) 
oracle

>  <origin>  (17) 
adg

>  <m_score__min__energy>  (17) 
-10.119999999999999

>  <m_primary>  (17) 
energy

$$$$
17:0
     RDKit          3D

 51 51  0  0  0  0  0  0  0  0999 V2000
   -6.1090   25.5350  -29.6100 C   0  0  0  0  0  0  0  0  0  0  0  0
   -5.1630   25.5290  -30.8070 C   0  0  0  0  0  0  0  0  0  0  0  0
   -3.8550   24.9810  -30.4200 N   0  0  0  0  0  0  0  0  0  0  0  0
   -3.8210   24.5230  -29.0190 C   0  0  0  0  0  0  0  0  0  0  0  0
   -3.0290   23.2150  -28.8520 C   0  0  0  0  0  0  0  0  0  0  0  0
   -2.3940   22.8690  -30.0690 O   0  0  0  0  0  0  0  0  0  0  0  0
   -2.5400   21.4890  -30.3550 C   0  0  0  0  0  0  0  0  0  0  0  0
   -3.0180   21.2930  -31.7920 C   0  0  0  0  0  0  0  0  0  0  0  0
   -3.2040   22.5530  -32.3930 O   0  0  0  0  0  0  0  0  0  0  0  0
   -4.4650   22.5570  -32.9030 N   0  0  0  0  0  0  0  0  0  0  0  0
   -5.6230   22.6040  -32.0540 C   0  0  0  0  0  0  0  0  0  0  0  0
   -5.4830   22.6210  -30.7590 N   0  0  0  0  0  0  0  0  0  0  0  0
   -6.9270   22.6190  -32.6680 N   0  0  0  0  0  0  0  0  0  0  0  0
   -8.1900   22.8130  -31.9540 C   0  0  0  0  0  0  0  0  0  0  0  0
   -8.6260   21.5130  -31.2640 C   0  0  0  0  0  0  0  0  0  0  0  0
   -8.9570   20.4000  -32.2700 C   0  0  0  0  0  0  0  0  0  0  0  0
   -7.8030   19.4500  -32.4620 C   0  0  0  0  0  0  0  0  0  0  0  0
   -6.8520   19.6850  -33.4660 C   0  0  0  0  0  0  0  0  0  0  0  0
   -5.7760   18.8070  -33.6150 C   0  0  0  0  0  0  0  0  0  0  0  0
   -5.6480   17.7340  -32.7870 N   0  0  0  0  0  0  0  0  0  0  0  0
   -6.5530   17.4870  -31.8010 C   0  0  0  0  0  0  0  0  0  0  0  0
   -7.6440   18.3400  -31.6180 C   0  0  0  0  0  0  0  0  0  0  0  0
   -5.5227   25.5313  -28.6793 H   0  0  0  0  0  0  0  0  0  0  0  0
   -6.7375   26.4371  -29.6439 H   0  0  0  0  0  0  0  0  0  0  0  0
   -6.7489   24.6409  -29.6439 H   0  0  0  0  0  0  0  0  0  0  0  0
   -5.5939   24.9092  -31.6071 H   0  0  0  0  0  0  0  0  0  0  0  0
   -5.0279   26.5614  -31.1618 H   0  0  0  0  0  0  0  0  0  0  0  0
   -3.6140   24.1850  -31.0570 H   0  0  0  0  0  0  0  0  0  0  0  0
   -3.3497   25.3031  -28.4031 H   0  0  0  0  0  0  0  0  0  0  0  0
   -4.8569   24.3322  -28.7019 H   0  0  0  0  0  0  0  0  0  0  0  0
   -2.2671   23.3489  -28.0699 H   0  0  0  0  0  0  0  0  0  0  0  0
   -3.7221   22.4097  -28.5673 H   0  0  0  0  0  0  0  0  0  0  0  0
   -1.5703   20.9866  -30.2235 H   0  0  0  0  0  0  0  0  0  0  0  0
   -3.2839   21.0582  -29.6687 H   0  0  0  0  0  0  0  0  0  0  0  0
   -2.2646   20.7237  -32.3561 H   0  0  0  0  0  0  0  0  0  0  0  0
   -3.9680   20.7384  -31.7936 H   0  0  0  0  0  0  0  0  0  0  0  0
   -4.5880   22.6080  -33.9390 H   0  0  0  0  0  0  0  0  0  0  0  0
   -6.2530   22.3520  -30.1090 H   0  0  0  0  0  0  0  0  0  0  0  0
   -4.5790   22.9000  -30.3160 H   0  0  0  0  0  0  0  0  0  0  0  0
   -6.9810   22.4720  -33.7010 H   0  0  0  0  0  0  0  0  0  0  0  0
   -8.0593   23.5987  -31.1953 H   0  0  0  0  0  0  0  0  0  0  0  0
   -8.9646   23.1075  -32.6774 H   0  0  0  0  0  0  0  0  0  0  0  0
   -7.8103   21.1685  -30.6113 H   0  0  0  0  0  0  0  0  0  0  0  0
   -9.5385   21.7279  -30.6885 H   0  0  0  0  0  0  0  0  0  0  0  0
   -9.8249   19.8341  -31.9005 H   0  0  0  0  0  0  0  0  0  0  0  0
   -9.1729   20.8722  -33.2398 H   0  0  0  0  0  0  0  0  0  0  0  0
   -6.9530   20.5550  -34.1316 H   0  0  0  0  0  0  0  0  0  0  0  0
   -5.0298   18.9831  -34.4038 H   0  0  0  0  0  0  0  0  0  0  0  0
   -4.8380   17.0870  -32.9100 H   0  0  0  0  0  0  0  0  0  0  0  0
   -6.4249   16.6127  -31.1459 H   0  0  0  0  0  0  0  0  0  0  0  0
   -8.3731   18.1431  -30.8183 H   0  0  0  0  0  0  0  0  0  0  0  0
  1  2  1  0
  2  3  1  0
  3  4  1  0
  4  5  1  0
  5  6  1  0
  6  7  1  0
  7  8  1  0
  8  9  1  0
  9 10  1  0
 10 11  1  0
 11 12  2  0
 11 13  1  0
 13 14  1  0
 14 15  1  0
 15 16  1  0
 16 17  1  0
 17 18  2  0
 18 19  1  0
 19 20  2  0
 20 21  1  0
 21 22  2  0
 22 17  1  0
  1 23  1  0
  1 24  1  0
  1 25  1  0
  2 26  1  0
  2 27  1  0
  3 28  1  0
  4 29  1  0
  4 30  1  0
  5 31  1  0
  5 32  1  0
  7 33  1  0
  7 34  1  0
  8 35  1  0
  8 36  1  0
 10 37  1  0
 12 38  1  0
 12 39  1  0
 13 40  1  0
 14 41  1  0
 14 42  1  0
 15 43  1  0
 15 44  1  0
 16 45  1  0
 16 46  1  0
 18 47  1  0
 19 48  1  0
 20 49  1  0
 21 50  1  0
 22 51  1  0
M  CHG  2  12   1  20   1
M  END
>  <UniqueID>  (18) 
18

>  <SMILES>  (18) 
CCNCCOCCONC(=[NH2+])NCCCc1cc[nH+]cc1

>  <Energy>  (18) 
38.76656940155327

>  <Genealogy>  (18) 
CCNCCOCCONC(=[NH2+])NCCCc1cc[nH+]cc1 (protonated)
CCNCCOCCONC(=[NH2+])NCCCc1cc[nH+]cc1 (3D coordinates assigned)
CCNCCOCCONC(=[NH2+])NCCCc1cc[nH+]cc1 (optimized conformer: 38.76656940155327 kcal/mol)

>  <smiles>  (18) 
CCNCCOCCONC(=N)NCCCc1ccncc1

>  <score_type>  (18) 
oracle

>  <origin>  (18) 
adg

>  <m_score__min__energy>  (18) 
-5.1500000000000004

>  <m_primary>  (18) 
energy

$$$$
18:0
     RDKit          3D

 58 60  0  0  0  0  0  0  0  0999 V2000
   -5.7010   24.9850  -29.7200 C   0  0  0  0  0  0  0  0  0  0  0  0
   -5.3570   25.0170  -31.2070 C   0  0  0  0  0  0  0  0  0  0  0  0
   -5.4650   23.7130  -31.7840 O   0  0  0  0  0  0  0  0  0  0  0  0
   -6.6410   22.9510  -31.9170 C   0  0  0  0  0  0  0  0  0  0  0  0
   -7.8890   23.4860  -31.5570 C   0  0  0  0  0  0  0  0  0  0  0  0
   -9.0340   22.7080  -31.6130 C   0  0  0  0  0  0  0  0  0  0  0  0
   -8.9570   21.3680  -31.9700 C   0  0  0  0  0  0  0  0  0  0  0  0
   -7.7180   20.7710  -32.3040 C   0  0  0  0  0  0  0  0  0  0  0  0
   -6.5630   21.6040  -32.3780 C   0  0  0  0  0  0  0  0  0  0  0  0
   -5.3650   21.0610  -32.9010 C   0  0  0  0  0  0  0  0  0  0  0  0
   -4.2330   21.9060  -33.1750 N   0  0  0  0  0  0  0  0  0  0  0  0
   -2.9340   21.6650  -32.5420 C   0  0  0  0  0  0  0  0  0  0  0  0
   -3.1040   21.2310  -31.0790 C   0  0  0  0  0  0  0  0  0  0  0  0
   -3.8930   22.2290  -30.3400 N   0  0  0  0  0  0  0  0  0  0  0  0
   -3.7420   22.0870  -28.8790 C   0  0  0  0  0  0  0  0  0  0  0  0
   -3.1120   23.3340  -28.2330 C   0  0  0  0  0  0  0  0  0  0  0  0
   -2.1740   23.9840  -29.1750 N   0  0  0  0  0  0  0  0  0  0  0  0
   -1.0740   23.0740  -29.5350 C   0  0  0  0  0  0  0  0  0  0  0  0
   -1.6390   25.2550  -28.6440 C   0  0  0  0  0  0  0  0  0  0  0  0
   -5.3150   19.7030  -33.2710 C   0  0  0  0  0  0  0  0  0  0  0  0
   -4.1280   19.1320  -33.7890 C   0  0  0  0  0  0  0  0  0  0  0  0
   -4.1000   17.8140  -34.2310 C   0  0  0  0  0  0  0  0  0  0  0  0
   -5.2510   17.0400  -34.1780 C   0  0  0  0  0  0  0  0  0  0  0  0
   -6.4290   17.5700  -33.6510 C   0  0  0  0  0  0  0  0  0  0  0  0
   -6.4760   18.8990  -33.1450 C   0  0  0  0  0  0  0  0  0  0  0  0
   -7.6210   19.4160  -32.5660 N   0  0  0  0  0  0  0  0  0  0  0  0
   -8.7260   18.5080  -32.1790 C   0  0  0  0  0  0  0  0  0  0  0  0
   -4.7778   25.0709  -29.1281 H   0  0  0  0  0  0  0  0  0  0  0  0
   -6.3697   25.8248  -29.4802 H   0  0  0  0  0  0  0  0  0  0  0  0
   -6.2034   24.0362  -29.4802 H   0  0  0  0  0  0  0  0  0  0  0  0
   -6.0506   25.6975  -31.7225 H   0  0  0  0  0  0  0  0  0  0  0  0
   -4.3203   25.3667  -31.3204 H   0  0  0  0  0  0  0  0  0  0  0  0
   -7.9578   24.5332  -31.2273 H   0  0  0  0  0  0  0  0  0  0  0  0
  -10.0103   23.1544  -31.3732 H   0  0  0  0  0  0  0  0  0  0  0  0
   -9.8739   20.7608  -31.9935 H   0  0  0  0  0  0  0  0  0  0  0  0
   -4.4000   22.8340  -33.6240 H   0  0  0  0  0  0  0  0  0  0  0  0
   -2.4074   20.8719  -33.0931 H   0  0  0  0  0  0  0  0  0  0  0  0
   -2.3557   22.6005  -32.5640 H   0  0  0  0  0  0  0  0  0  0  0  0
   -3.6223   20.2613  -31.0458 H   0  0  0  0  0  0  0  0  0  0  0  0
   -2.1112   21.1430  -30.6136 H   0  0  0  0  0  0  0  0  0  0  0  0
   -3.6210   23.1920  -30.6510 H   0  0  0  0  0  0  0  0  0  0  0  0
   -4.7348   21.9220  -28.4351 H   0  0  0  0  0  0  0  0  0  0  0  0
   -3.0715   21.2355  -28.6911 H   0  0  0  0  0  0  0  0  0  0  0  0
   -3.9077   24.0448  -27.9652 H   0  0  0  0  0  0  0  0  0  0  0  0
   -2.5593   23.0289  -27.3322 H   0  0  0  0  0  0  0  0  0  0  0  0
   -0.6047   22.6857  -28.6190 H   0  0  0  0  0  0  0  0  0  0  0  0
   -1.4702   22.2362  -30.1275 H   0  0  0  0  0  0  0  0  0  0  0  0
   -0.3252   23.6202  -30.1275 H   0  0  0  0  0  0  0  0  0  0  0  0
   -1.6508   25.2269  -27.5444 H   0  0  0  0  0  0  0  0  0  0  0  0
   -0.6062   25.3937  -28.9962 H   0  0  0  0  0  0  0  0  0  0  0  0
   -2.2618   26.0906  -28.9962 H   0  0  0  0  0  0  0  0  0  0  0  0
   -3.2132   19.7405  -33.8427 H   0  0  0  0  0  0  0  0  0  0  0  0
   -3.1660   17.3848  -34.6226 H   0  0  0  0  0  0  0  0  0  0  0  0
   -5.2343   16.0059  -34.5526 H   0  0  0  0  0  0  0  0  0  0  0  0
   -7.3371   16.9498  -33.6262 H   0  0  0  0  0  0  0  0  0  0  0  0
   -8.7902   18.4553  -31.0821 H   0  0  0  0  0  0  0  0  0  0  0  0
   -9.6743   18.8912  -32.5838 H   0  0  0  0  0  0  0  0  0  0  0  0
   -8.5339   17.5034  -32.5838 H   0  0  0  0  0  0  0  0  0  0  0  0
  1  2  1  0
  2  3  1  0
  3  4  1  0
  4  5  2  0
  5  6  1  0
  6  7  2  0
  7  8  1  0
  8  9  2  0
  9 10  1  0
 10 11  1  0
 11 12  1  0
 12 13  1  0
 13 14  1  0
 14 15  1  0
 15 16  1  0
 16 17  1  0
 17 18  1  0
 17 19  1  0
 10 20  2  0
 20 21  1  0
 21 22  2  0
 22 23  1  0
 23 24  2  0
 24 25  1  0
 25 26  2  0
 26 27  1  0
  9  4  1  0
 25 20  1  0
 26  8  1  0
  1 28  1  0
  1 29  1  0
  1 30  1  0
  2 31  1  0
  2 32  1  0
  5 33  1  0
  6 34  1  0
  7 35  1  0
 11 36  1  0
 12 37  1  0
 12 38  1  0
 13 39  1  0
 13 40  1  0
 14 41  1  0
 15 42  1  0
 15 43  1  0
 16 44  1  0
 16 45  1  0
 18 46  1  0
 18 47  1  0
 18 48  1  0
 19 49  1  0
 19 50  1  0
 19 51  1  0
 21 52  1  0
 22 53  1  0
 23 54  1  0
 24 55  1  0
 27 56  1  0
 27 57  1  0
 27 58  1  0
M  CHG  1  26   1
M  END
>  <UniqueID>  (19) 
19

>  <SMILES>  (19) 
CCOc1cccc2c1c(NCCNCCN(C)C)c1ccccc1[n+]2C

>  <Energy>  (19) 
87.11868713160848

>  <Genealogy>  (19) 
CCOc1cccc2c1c(NCCNCCN(C)C)c1ccccc1[n+]2C (3D coordinates assigned)
CCOc1cccc2c1c(NCCNCCN(C)C)c1ccccc1[n+]2C (optimized conformer: 87.11868713160848 kcal/mol)

>  <smiles>  (19) 
CCOc1cccc2c1c(NCCNCCN(C)C)c1ccccc1[n+]2C

>  <score_type>  (19) 
oracle

>  <origin>  (19) 
adg

>  <m_score__min__energy>  (19) 
-8.9399999999999995

>  <m_primary>  (19) 
energy

$$$$
19:0
     RDKit          3D

 41 43  0  0  0  0  0  0  0  0999 V2000
   -1.8960   19.2460  -34.2940 C   0  0  0  0  0  0  0  0  0  0  0  0
   -1.3300   20.6070  -34.2530 N   0  0  0  0  0  0  0  0  0  0  0  0
   -0.2230   20.7450  -35.2160 C   0  0  0  0  0  0  0  0  0  0  0  0
   -0.9560   21.0370  -32.8810 C   0  0  0  0  0  0  0  0  0  0  0  0
   -2.0380   21.8260  -32.1230 C   0  0  0  0  0  0  0  0  0  0  0  0
   -3.2230   21.9290  -32.9120 O   0  0  0  0  0  0  0  0  0  0  0  0
   -4.5170   21.7730  -32.3950 C   0  0  0  0  0  0  0  0  0  0  0  0
   -5.1560   20.6440  -32.7250 C   0  0  0  0  0  0  0  0  0  0  0  0
   -6.5480   20.2850  -32.3870 C   0  0  0  0  0  0  0  0  0  0  0  0
   -6.8700   18.9190  -32.2930 C   0  0  0  0  0  0  0  0  0  0  0  0
   -8.1960   18.5080  -32.1410 C   0  0  0  0  0  0  0  0  0  0  0  0
   -9.2210   19.4530  -32.1120 C   0  0  0  0  0  0  0  0  0  0  0  0
   -8.9170   20.8120  -32.2210 C   0  0  0  0  0  0  0  0  0  0  0  0
   -7.5890   21.2390  -32.3400 C   0  0  0  0  0  0  0  0  0  0  0  0
   -7.3490   22.6100  -32.4120 O   0  0  0  0  0  0  0  0  0  0  0  0
   -6.4190   23.2470  -31.5950 C   0  0  0  0  0  0  0  0  0  0  0  0
   -6.8500   24.3470  -30.8410 C   0  0  0  0  0  0  0  0  0  0  0  0
   -5.9920   24.9610  -29.9290 C   0  0  0  0  0  0  0  0  0  0  0  0
   -4.6940   24.4800  -29.7650 C   0  0  0  0  0  0  0  0  0  0  0  0
   -4.2420   23.4100  -30.5380 C   0  0  0  0  0  0  0  0  0  0  0  0
   -5.0850   22.8040  -31.4910 C   0  0  0  0  0  0  0  0  0  0  0  0
   -2.0478   18.8810  -33.2675 H   0  0  0  0  0  0  0  0  0  0  0  0
   -2.8605   19.2658  -34.8225 H   0  0  0  0  0  0  0  0  0  0  0  0
   -1.2019   18.5760  -34.8225 H   0  0  0  0  0  0  0  0  0  0  0  0
   -2.0880   21.2590  -34.5690 H   0  0  0  0  0  0  0  0  0  0  0  0
    0.7249   20.8632  -34.6705 H   0  0  0  0  0  0  0  0  0  0  0  0
   -0.1727   19.8462  -35.8481 H   0  0  0  0  0  0  0  0  0  0  0  0
   -0.3949   21.6287  -35.8481 H   0  0  0  0  0  0  0  0  0  0  0  0
   -0.7184   20.1367  -32.2953 H   0  0  0  0  0  0  0  0  0  0  0  0
   -0.1042   21.7231  -32.9981 H   0  0  0  0  0  0  0  0  0  0  0  0
   -2.2730   21.3068  -31.1821 H   0  0  0  0  0  0  0  0  0  0  0  0
   -1.6604   22.8375  -31.9124 H   0  0  0  0  0  0  0  0  0  0  0  0
   -4.5848   19.9070  -33.3086 H   0  0  0  0  0  0  0  0  0  0  0  0
   -6.0690   18.1666  -32.3397 H   0  0  0  0  0  0  0  0  0  0  0  0
   -8.4321   17.4380  -32.0441 H   0  0  0  0  0  0  0  0  0  0  0  0
  -10.2666   19.1290  -32.0035 H   0  0  0  0  0  0  0  0  0  0  0  0
   -9.7290   21.5540  -32.2133 H   0  0  0  0  0  0  0  0  0  0  0  0
   -7.8734   24.7292  -30.9696 H   0  0  0  0  0  0  0  0  0  0  0  0
   -6.3388   25.8231  -29.3403 H   0  0  0  0  0  0  0  0  0  0  0  0
   -4.0253   24.9445  -29.0253 H   0  0  0  0  0  0  0  0  0  0  0  0
   -3.2167   23.0354  -30.4021 H   0  0  0  0  0  0  0  0  0  0  0  0
  1  2  1  0
  2  3  1  0
  2  4  1  0
  4  5  1  0
  5  6  1  0
  6  7  1  0
  7  8  2  0
  8  9  1  0
  9 10  2  0
 10 11  1  0
 11 12  2  0
 12 13  1  0
 13 14  2  0
 14 15  1  0
 15 16  1  0
 16 17  2  0
 17 18  1  0
 18 19  2  0
 19 20  1  0
 20 21  2  0
 21  7  1  0
 14  9  1  0
 21 16  1  0
  1 22  1  0
  1 23  1  0
  1 24  1  0
  2 25  1  0
  3 26  1  0
  3 27  1  0
  3 28  1  0
  4 29  1  0
  4 30  1  0
  5 31  1  0
  5 32  1  0
  8 33  1  0
 10 34  1  0
 11 35  1  0
 12 36  1  0
 13 37  1  0
 17 38  1  0
 18 39  1  0
 19 40  1  0
 20 41  1  0
M  CHG  1   2   1
M  END
>  <UniqueID>  (20) 
20

>  <SMILES>  (20) 
C[NH+](C)CCOC1=Cc2ccccc2Oc2ccccc21

>  <Energy>  (20) 
70.76250483984265

>  <Genealogy>  (20) 
C[NH+](C)CCOC1=Cc2ccccc2Oc2ccccc21 (protonated)
C[NH+](C)CCOC1=Cc2ccccc2Oc2ccccc21 (3D coordinates assigned)
C[NH+](C)CCOC1=Cc2ccccc2Oc2ccccc21 (nonaromatic ring conformer: 70.76250483984265 kcal/mol)

>  <smiles>  (20) 
CN(C)CCOC1=Cc2ccccc2Oc2ccccc21

>  <score_type>  (20) 
oracle

>  <origin>  (20) 
adg

>  <m_score__min__energy>  (20) 
-5.5499999999999998

>  <m_primary>  (20) 
energy

$$$$
20:0
     RDKit          3D

 51 54  0  0  0  0  0  0  0  0999 V2000
    2.7310   18.9950  -31.9400 C   0  0  0  0  0  0  0  0  0  0  0  0
    1.3450   19.5630  -32.0110 C   0  0  0  0  0  0  0  0  0  0  0  0
    0.4280   19.3210  -30.9780 C   0  0  0  0  0  0  0  0  0  0  0  0
   -0.8510   19.8820  -31.0250 C   0  0  0  0  0  0  0  0  0  0  0  0
   -1.2220   20.7080  -32.0980 C   0  0  0  0  0  0  0  0  0  0  0  0
   -2.5380   21.2890  -32.1460 N   0  0  0  0  0  0  0  0  0  0  0  0
   -3.4580   20.8500  -33.0670 C   0  0  0  0  0  0  0  0  0  0  0  0
   -3.0780   19.5060  -34.2140 S   0  0  0  0  0  0  0  0  0  0  0  0
   -4.2240   18.3070  -33.4440 C   0  0  0  0  0  0  0  0  0  0  0  0
   -5.6760   18.5790  -33.8590 C   0  0  0  0  0  0  0  0  0  0  0  0
   -6.3740   19.4160  -32.8600 N   0  0  0  0  0  0  0  0  0  0  0  0
   -7.5640   20.0840  -33.4420 C   0  0  0  0  0  0  0  0  0  0  0  0
   -8.6180   20.3910  -32.3650 C   0  0  0  0  0  0  0  0  0  0  0  0
   -9.1130   19.2300  -31.7110 O   0  0  0  0  0  0  0  0  0  0  0  0
   -8.1710   18.1670  -31.6430 C   0  0  0  0  0  0  0  0  0  0  0  0
   -6.7050   18.6370  -31.6420 C   0  0  0  0  0  0  0  0  0  0  0  0
   -4.6930   21.4180  -33.1270 N   0  0  0  0  0  0  0  0  0  0  0  0
   -5.0610   22.4050  -32.2660 C   0  0  0  0  0  0  0  0  0  0  0  0
   -6.3460   22.9640  -32.3330 C   0  0  0  0  0  0  0  0  0  0  0  0
   -6.7210   23.9740  -31.4450 C   0  0  0  0  0  0  0  0  0  0  0  0
   -5.8170   24.4340  -30.4830 C   0  0  0  0  0  0  0  0  0  0  0  0
   -6.2940   25.7020  -29.3680 Cl  0  0  0  0  0  0  0  0  0  0  0  0
   -4.5330   23.8830  -30.4070 C   0  0  0  0  0  0  0  0  0  0  0  0
   -4.1470   22.8640  -31.2980 C   0  0  0  0  0  0  0  0  0  0  0  0
   -2.8690   22.2830  -31.2610 C   0  0  0  0  0  0  0  0  0  0  0  0
   -2.0210   22.6840  -30.4150 O   0  0  0  0  0  0  0  0  0  0  0  0
   -0.3020   20.9570  -33.1270 C   0  0  0  0  0  0  0  0  0  0  0  0
    0.9780   20.3970  -33.0800 C   0  0  0  0  0  0  0  0  0  0  0  0
    3.0245   18.8747  -30.8867 H   0  0  0  0  0  0  0  0  0  0  0  0
    2.7520   18.0157  -32.4406 H   0  0  0  0  0  0  0  0  0  0  0  0
    3.4332   19.6779  -32.4406 H   0  0  0  0  0  0  0  0  0  0  0  0
    0.7168   18.6867  -30.1269 H   0  0  0  0  0  0  0  0  0  0  0  0
   -1.5698   19.6757  -30.2183 H   0  0  0  0  0  0  0  0  0  0  0  0
   -3.9452   17.2909  -33.7600 H   0  0  0  0  0  0  0  0  0  0  0  0
   -4.1502   18.4083  -32.3512 H   0  0  0  0  0  0  0  0  0  0  0  0
   -5.6799   19.0998  -34.8279 H   0  0  0  0  0  0  0  0  0  0  0  0
   -6.2018   17.6156  -33.9320 H   0  0  0  0  0  0  0  0  0  0  0  0
   -7.2501   21.0265  -33.9145 H   0  0  0  0  0  0  0  0  0  0  0  0
   -8.0134   19.4066  -34.1830 H   0  0  0  0  0  0  0  0  0  0  0  0
   -8.1633   21.0491  -31.6100 H   0  0  0  0  0  0  0  0  0  0  0  0
   -9.4708   20.8661  -32.8720 H   0  0  0  0  0  0  0  0  0  0  0  0
   -8.3542   17.5995  -30.7187 H   0  0  0  0  0  0  0  0  0  0  0  0
   -8.3114   17.5554  -32.5464 H   0  0  0  0  0  0  0  0  0  0  0  0
   -6.5347   19.2692  -30.7581 H   0  0  0  0  0  0  0  0  0  0  0  0
   -6.0608   17.7456  -31.6215 H   0  0  0  0  0  0  0  0  0  0  0  0
   -5.3710   21.0770  -33.8450 H   0  0  0  0  0  0  0  0  0  0  0  0
   -7.0609   22.6051  -33.0881 H   0  0  0  0  0  0  0  0  0  0  0  0
   -7.7298   24.4087  -31.5025 H   0  0  0  0  0  0  0  0  0  0  0  0
   -3.8236   24.2470  -29.6492 H   0  0  0  0  0  0  0  0  0  0  0  0
   -0.5891   21.5960  -33.9751 H   0  0  0  0  0  0  0  0  0  0  0  0
    1.6997   20.6100  -33.8823 H   0  0  0  0  0  0  0  0  0  0  0  0
  1  2  1  0
  2  3  2  0
  3  4  1  0
  4  5  2  0
  5  6  1  0
  6  7  1  0
  7  8  1  0
  8  9  1  0
  9 10  1  0
 10 11  1  0
 11 12  1  0
 12 13  1  0
 13 14  1  0
 14 15  1  0
 15 16  1  0
  7 17  2  0
 17 18  1  0
 18 19  2  0
 19 20  1  0
 20 21  2  0
 21 22  1  0
 21 23  1  0
 23 24  2  0
 24 25  1  0
 25 26  2  0
  5 27  1  0
 27 28  2  0
 28  2  1  0
 25  6  1  0
 16 11  1  0
 24 18  1  0
  1 29  1  0
  1 30  1  0
  1 31  1  0
  3 32  1  0
  4 33  1  0
  9 34  1  0
  9 35  1  0
 10 36  1  0
 10 37  1  0
 12 38  1  0
 12 39  1  0
 13 40  1  0
 13 41  1  0
 15 42  1  0
 15 43  1  0
 16 44  1  0
 16 45  1  0
 17 46  1  0
 19 47  1  0
 20 48  1  0
 23 49  1  0
 27 50  1  0
 28 51  1  0
M  CHG  1  17   1
M  END
>  <UniqueID>  (21) 
21

>  <SMILES>  (21) 
Cc1ccc(-n2c(SCCN3CCOCC3)[nH+]c3ccc(Cl)cc3c2=O)cc1

>  <Energy>  (21) 
76.10486013664932

>  <Genealogy>  (21) 
Cc1ccc(-n2c(SCCN3CCOCC3)[nH+]c3ccc(Cl)cc3c2=O)cc1 (protonated)
Cc1ccc(-n2c(SCCN3CCOCC3)[nH+]c3ccc(Cl)cc3c2=O)cc1 (3D coordinates assigned)
Cc1ccc(-n2c(SCCN3CCOCC3)[nH+]c3ccc(Cl)cc3c2=O)cc1 (nonaromatic ring conformer: 76.10486013664932 kcal/mol)

>  <smiles>  (21) 
Cc1ccc(-n2c(SCCN3CCOCC3)nc3ccc(Cl)cc3c2=O)cc1

>  <score_type>  (21) 
oracle

>  <origin>  (21) 
adg

>  <m_score__min__energy>  (21) 
-7.75

>  <m_primary>  (21) 
energy

$$$$
