0:0
     RDKit          3D

 70 72  0  0  0  0  0  0  0  0999 V2000
    0.2800   21.9500  -35.3550 C   0  0  0  0  0  0  0  0  0  0  0  0
   -0.4910   20.6270  -35.3290 C   0  0  0  0  0  0  0  0  0  0  0  0
   -1.4750   20.5760  -34.2360 N   0  0  0  0  0  0  0  0  0  0  0  0
   -0.8570   20.3220  -32.9230 C   0  0  0  0  0  0  0  0  0  0  0  0
   -1.0320   21.5420  -32.0150 C   0  0  0  0  0  0  0  0  0  0  0  0
   -1.6750   21.1630  -30.6690 C   0  0  0  0  0  0  0  0  0  0  0  0
   -3.2010   21.0040  -30.7740 C   0  0  0  0  0  0  0  0  0  0  0  0
   -3.6390   20.8740  -32.1670 N   0  0  0  0  0  0  0  0  0  0  0  0
   -4.9980   20.5600  -32.5040 C   0  0  0  0  0  0  0  0  0  0  0  0
   -5.9920   21.5150  -32.2160 C   0  0  0  0  0  0  0  0  0  0  0  0
   -5.6390   22.8390  -31.8750 C   0  0  0  0  0  0  0  0  0  0  0  0
   -6.6140   23.7790  -31.5510 C   0  0  0  0  0  0  0  0  0  0  0  0
   -7.9530   23.4130  -31.5420 C   0  0  0  0  0  0  0  0  0  0  0  0
   -8.3270   22.1130  -31.8780 C   0  0  0  0  0  0  0  0  0  0  0  0
   -7.3580   21.1430  -32.2520 C   0  0  0  0  0  0  0  0  0  0  0  0
   -7.7150   19.8540  -32.5920 N   0  0  0  0  0  0  0  0  0  0  0  0
   -9.1400   19.5200  -32.8220 C   0  0  0  0  0  0  0  0  0  0  0  0
   -6.7450   18.8850  -32.7600 C   0  0  0  0  0  0  0  0  0  0  0  0
   -7.0830   17.5130  -32.7670 C   0  0  0  0  0  0  0  0  0  0  0  0
   -6.1330   16.5400  -33.0400 C   0  0  0  0  0  0  0  0  0  0  0  0
   -4.8440   16.9080  -33.3850 C   0  0  0  0  0  0  0  0  0  0  0  0
   -4.4420   18.2550  -33.3650 C   0  0  0  0  0  0  0  0  0  0  0  0
   -3.1820   18.5700  -34.0190 N   0  0  0  0  0  0  0  0  0  0  0  0
   -2.5930   17.3810  -34.6640 C   0  0  0  0  0  0  0  0  0  0  0  0
   -1.5570   16.6800  -33.7470 C   0  0  0  0  0  0  0  0  0  0  0  0
   -0.1800   16.5560  -34.3190 N   0  0  0  0  0  0  0  0  0  0  0  0
    0.2550   15.1400  -34.3850 C   0  0  0  0  0  0  0  0  0  0  0  0
   -0.1050   17.1660  -35.6690 C   0  0  0  0  0  0  0  0  0  0  0  0
    0.7510   17.2880  -33.4250 C   0  0  0  0  0  0  0  0  0  0  0  0
   -5.3710   19.2480  -32.8950 C   0  0  0  0  0  0  0  0  0  0  0  0
    0.4735   22.2820  -34.3243 H   0  0  0  0  0  0  0  0  0  0  0  0
    1.2362   21.8069  -35.8797 H   0  0  0  0  0  0  0  0  0  0  0  0
   -0.3158   22.7114  -35.8797 H   0  0  0  0  0  0  0  0  0  0  0  0
   -1.0190   20.5063  -36.2864 H   0  0  0  0  0  0  0  0  0  0  0  0
    0.2353   19.8171  -35.1662 H   0  0  0  0  0  0  0  0  0  0  0  0
   -2.0090   21.4780  -34.2050 H   0  0  0  0  0  0  0  0  0  0  0  0
   -1.3382   19.4495  -32.4570 H   0  0  0  0  0  0  0  0  0  0  0  0
    0.2167   20.1273  -33.0618 H   0  0  0  0  0  0  0  0  0  0  0  0
   -0.0452   21.9894  -31.8251 H   0  0  0  0  0  0  0  0  0  0  0  0
   -1.6972   22.2552  -32.5238 H   0  0  0  0  0  0  0  0  0  0  0  0
   -1.2431   20.2111  -30.3265 H   0  0  0  0  0  0  0  0  0  0  0  0
   -1.4701   21.9768  -29.9578 H   0  0  0  0  0  0  0  0  0  0  0  0
   -3.5044   20.1037  -30.2196 H   0  0  0  0  0  0  0  0  0  0  0  0
   -3.6691   21.9048  -30.3504 H   0  0  0  0  0  0  0  0  0  0  0  0
   -3.0530   21.3310  -32.9030 H   0  0  0  0  0  0  0  0  0  0  0  0
   -4.5788   23.1321  -31.8652 H   0  0  0  0  0  0  0  0  0  0  0  0
   -6.3234   24.8104  -31.3025 H   0  0  0  0  0  0  0  0  0  0  0  0
   -8.7213   24.1513  -31.2688 H   0  0  0  0  0  0  0  0  0  0  0  0
   -9.3905   21.8330  -31.8533 H   0  0  0  0  0  0  0  0  0  0  0  0
   -9.6494   19.4006  -31.8544 H   0  0  0  0  0  0  0  0  0  0  0  0
   -9.6192   20.3302  -33.3912 H   0  0  0  0  0  0  0  0  0  0  0  0
   -9.2093   18.5813  -33.3912 H   0  0  0  0  0  0  0  0  0  0  0  0
   -8.1187   17.2110  -32.5520 H   0  0  0  0  0  0  0  0  0  0  0  0
   -6.4040   15.4755  -32.9823 H   0  0  0  0  0  0  0  0  0  0  0  0
   -4.1214   16.1328  -33.6800 H   0  0  0  0  0  0  0  0  0  0  0  0
   -2.5080   18.9090  -33.2920 H   0  0  0  0  0  0  0  0  0  0  0  0
   -3.2300   19.3370  -34.7110 H   0  0  0  0  0  0  0  0  0  0  0  0
   -3.3977   16.6693  -34.9006 H   0  0  0  0  0  0  0  0  0  0  0  0
   -2.0738   17.7097  -35.5764 H   0  0  0  0  0  0  0  0  0  0  0  0
   -1.4864   17.2549  -32.8119 H   0  0  0  0  0  0  0  0  0  0  0  0
   -1.9219   15.6521  -33.6048 H   0  0  0  0  0  0  0  0  0  0  0  0
    0.3761   14.7457  -33.3653 H   0  0  0  0  0  0  0  0  0  0  0  0
   -0.5028   14.5482  -34.9194 H   0  0  0  0  0  0  0  0  0  0  0  0
    1.2143   15.0757  -34.9194 H   0  0  0  0  0  0  0  0  0  0  0  0
    0.0287   18.2536  -35.5730 H   0  0  0  0  0  0  0  0  0  0  0  0
    0.7474   16.7388  -36.2176 H   0  0  0  0  0  0  0  0  0  0  0  0
   -1.0355   16.9580  -36.2176 H   0  0  0  0  0  0  0  0  0  0  0  0
    0.4899   17.0827  -32.3764 H   0  0  0  0  0  0  0  0  0  0  0  0
    1.7818   16.9559  -33.6180 H   0  0  0  0  0  0  0  0  0  0  0  0
    0.6715   18.3680  -33.6180 H   0  0  0  0  0  0  0  0  0  0  0  0
  1  2  1  0
  2  3  1  0
  3  4  1  0
  4  5  1  0
  5  6  1  0
  6  7  1  0
  7  8  1  0
  8  9  1  0
  9 10  2  0
 10 11  1  0
 11 12  2  0
 12 13  1  0
 13 14  2  0
 14 15  1  0
 15 16  2  0
 16 17  1  0
 16 18  1  0
 18 19  2  0
 19 20  1  0
 20 21  2  0
 21 22  1  0
 22 23  1  0
 23 24  1  0
 24 25  1  0
 25 26  1  0
 26 27  1  0
 26 28  1  0
 26 29  1  0
 22 30  2  0
 30  9  1  0
 15 10  1  0
 30 18  1  0
  1 31  1  0
  1 32  1  0
  1 33  1  0
  2 34  1  0
  2 35  1  0
  3 36  1  0
  4 37  1  0
  4 38  1  0
  5 39  1  0
  5 40  1  0
  6 41  1  0
  6 42  1  0
  7 43  1  0
  7 44  1  0
  8 45  1  0
 11 46  1  0
 12 47  1  0
 13 48  1  0
 14 49  1  0
 17 50  1  0
 17 51  1  0
 17 52  1  0
 19 53  1  0
 20 54  1  0
 21 55  1  0
 23 56  1  0
 23 57  1  0
 24 58  1  0
 24 59  1  0
 25 60  1  0
 25 61  1  0
 27 62  1  0
 27 63  1  0
 27 64  1  0
 28 65  1  0
 28 66  1  0
 28 67  1  0
 29 68  1  0
 29 69  1  0
 29 70  1  0
M  CHG  3  16   1  23   1  26   1
M  END
>  <UniqueID>  (1) 
1

>  <SMILES>  (1) 
CCNCCCCNc1c2ccccc2[n+](C)c2cccc([NH2+]CC[N+](C)(C)C)c12

>  <Energy>  (1) 
110.7736436948625

>  <Genealogy>  (1) 
CCNCCCCNc1c2ccccc2[n+](C)c2cccc([NH2+]CC[N+](C)(C)C)c12 (protonated)
CCNCCCCNc1c2ccccc2[n+](C)c2cccc([NH2+]CC[N+](C)(C)C)c12 (3D coordinates assigned)
CCNCCCCNc1c2ccccc2[n+](C)c2cccc([NH2+]CC[N+](C)(C)C)c12 (optimized conformer: 110.7736436948625 kcal/mol)

>  <smiles>  (1) 
CCNCCCCNc1c2ccccc2[n+](C)c2cccc(NCC[N+](C)(C)C)c12

>  <score_type>  (1) 
oracle

>  <origin>  (1) 
adg

>  <m_score__min__energy>  (1) 
-7.5700000000000003

>  <m_primary>  (1) 
energy

$$$$
1:0
     RDKit          3D

 50 52  0  0  0  0  0  0  0  0999 V2000
   -0.7110   19.4980  -34.5420 C   0  0  0  0  0  0  0  0  0  0  0  0
   -0.6430   20.9700  -34.1460 C   0  0  0  0  0  0  0  0  0  0  0  0
   -1.8870   21.3980  -33.5040 N   0  0  0  0  0  0  0  0  0  0  0  0
   -1.9630   21.6090  -32.0880 C   0  0  0  0  0  0  0  0  0  0  0  0
   -1.2740   20.7580  -31.2110 C   0  0  0  0  0  0  0  0  0  0  0  0
   -1.3610   20.9690  -29.8350 C   0  0  0  0  0  0  0  0  0  0  0  0
   -2.1310   22.0260  -29.3360 C   0  0  0  0  0  0  0  0  0  0  0  0
   -2.2410   22.2580  -27.9590 C   0  0  0  0  0  0  0  0  0  0  0  0
   -3.0200   23.3190  -27.4920 C   0  0  0  0  0  0  0  0  0  0  0  0
   -3.6930   24.1520  -28.3900 C   0  0  0  0  0  0  0  0  0  0  0  0
   -3.5960   23.9310  -29.7790 C   0  0  0  0  0  0  0  0  0  0  0  0
   -4.2510   24.7430  -30.7200 O   0  0  0  0  0  0  0  0  0  0  0  0
   -5.3780   25.5820  -30.4570 C   0  0  0  0  0  0  0  0  0  0  0  0
   -6.6160   24.7540  -30.0930 C   0  0  0  0  0  0  0  0  0  0  0  0
   -7.0080   23.7910  -31.2270 C   0  0  0  0  0  0  0  0  0  0  0  0
   -6.0270   22.6040  -31.3610 C   0  0  1  0  0  0  0  0  0  0  0  0
   -6.7380   21.2320  -31.2090 C   0  0  0  0  0  0  0  0  0  0  0  0
   -7.0620   20.6080  -32.5680 C   0  0  0  0  0  0  0  0  0  0  0  0
   -5.7880   20.4250  -33.4210 C   0  0  0  0  0  0  0  0  0  0  0  0
   -4.7180   21.3900  -33.1010 N   0  0  0  0  0  0  0  0  0  0  0  0
   -5.2580   22.6950  -32.7040 C   0  0  0  0  0  0  0  0  0  0  0  0
   -2.8100   22.8670  -30.2480 C   0  0  0  0  0  0  0  0  0  0  0  0
   -2.7070   22.6330  -31.5850 N   0  0  0  0  0  0  0  0  0  0  0  0
   -0.7398   18.8754  -33.6356 H   0  0  0  0  0  0  0  0  0  0  0  0
   -1.6183   19.3202  -35.1379 H   0  0  0  0  0  0  0  0  0  0  0  0
    0.1761   19.2373  -35.1379 H   0  0  0  0  0  0  0  0  0  0  0  0
    0.1922   21.1159  -33.4452 H   0  0  0  0  0  0  0  0  0  0  0  0
   -0.4926   21.5711  -35.0549 H   0  0  0  0  0  0  0  0  0  0  0  0
   -2.7410   21.5590  -34.0850 H   0  0  0  0  0  0  0  0  0  0  0  0
   -0.6686   19.9290  -31.6063 H   0  0  0  0  0  0  0  0  0  0  0  0
   -0.8243   20.3046  -29.1418 H   0  0  0  0  0  0  0  0  0  0  0  0
   -1.7147   21.6056  -27.2466 H   0  0  0  0  0  0  0  0  0  0  0  0
   -3.1044   23.5002  -26.4103 H   0  0  0  0  0  0  0  0  0  0  0  0
   -4.3024   24.9855  -28.0106 H   0  0  0  0  0  0  0  0  0  0  0  0
   -5.1372   26.2535  -29.6197 H   0  0  0  0  0  0  0  0  0  0  0  0
   -5.6012   26.1588  -31.3667 H   0  0  0  0  0  0  0  0  0  0  0  0
   -6.4002   24.1690  -29.1868 H   0  0  0  0  0  0  0  0  0  0  0  0
   -7.4545   25.4457  -29.9243 H   0  0  0  0  0  0  0  0  0  0  0  0
   -8.0140   23.3959  -31.0224 H   0  0  0  0  0  0  0  0  0  0  0  0
   -6.9797   24.3562  -32.1703 H   0  0  0  0  0  0  0  0  0  0  0  0
   -5.3041   22.6731  -30.5348 H   0  0  0  0  0  0  0  0  0  0  0  0
   -6.0799   20.5495  -30.6513 H   0  0  0  0  0  0  0  0  0  0  0  0
   -7.6843   21.3942  -30.6721 H   0  0  0  0  0  0  0  0  0  0  0  0
   -7.5302   19.6255  -32.4084 H   0  0  0  0  0  0  0  0  0  0  0  0
   -7.7448   21.2827  -33.1052 H   0  0  0  0  0  0  0  0  0  0  0  0
   -5.4010   19.4089  -33.2542 H   0  0  0  0  0  0  0  0  0  0  0  0
   -6.0744   20.5973  -34.4690 H   0  0  0  0  0  0  0  0  0  0  0  0
   -4.1390   21.0120  -32.3140 H   0  0  0  0  0  0  0  0  0  0  0  0
   -4.4272   23.4074  -32.5932 H   0  0  0  0  0  0  0  0  0  0  0  0
   -5.9590   23.0309  -33.4823 H   0  0  0  0  0  0  0  0  0  0  0  0
  1  2  1  0
  2  3  1  0
  3  4  1  0
  4  5  2  0
  5  6  1  0
  6  7  2  0
  7  8  1  0
  8  9  2  0
  9 10  1  0
 10 11  2  0
 11 12  1  0
 12 13  1  0
 13 14  1  0
 14 15  1  0
 15 16  1  0
 16 17  1  0
 17 18  1  0
 18 19  1  0
 19 20  1  0
 20 21  1  0
 11 22  1  0
 22 23  2  0
 23  4  1  0
 22  7  1  0
 21 16  1  0
  1 24  1  0
  1 25  1  0
  1 26  1  0
  2 27  1  0
  2 28  1  0
  3 29  1  0
  5 30  1  0
  6 31  1  0
  8 32  1  0
  9 33  1  0
 10 34  1  0
 13 35  1  0
 13 36  1  0
 14 37  1  0
 14 38  1  0
 15 39  1  0
 15 40  1  0
 16 41  1  1
 17 42  1  0
 17 43  1  0
 18 44  1  0
 18 45  1  0
 19 46  1  0
 19 47  1  0
 20 48  1  0
 21 49  1  0
 21 50  1  0
M  END
>  <UniqueID>  (2) 
2

>  <SMILES>  (2) 
CCNc1ccc2cccc(OCCC[C@H]3CCCNC3)c2n1

>  <Energy>  (2) 
49.751792937761024

>  <Genealogy>  (2) 
CCNc1ccc2cccc(OCCC[C@H]3CCCNC3)c2n1 (chirality)
CCNc1ccc2cccc(OCCC[C@H]3CCCNC3)c2n1 (3D coordinates assigned)
CCNc1ccc2cccc(OCCC[C@H]3CCCNC3)c2n1 (nonaromatic ring conformer: 49.751792937761024 kcal/mol)

>  <smiles>  (2) 
CCNc1ccc2cccc(OCCCC3CCCNC3)c2n1

>  <score_type>  (2) 
oracle

>  <origin>  (2) 
adg

>  <m_score__min__energy>  (2) 
-8.5199999999999996

>  <m_primary>  (2) 
energy

$$$$
2:0
     RDKit          3D

 48 50  0  0  0  0  0  0  0  0999 V2000
   -7.2720   23.8860  -30.8690 C   0  0  0  0  0  0  0  0  0  0  0  0
   -6.6240   22.7520  -31.5570 N   0  0  0  0  0  0  0  0  0  0  0  0
   -5.2810   22.8190  -31.8620 C   0  0  0  0  0  0  0  0  0  0  0  0
   -4.6100   23.8480  -31.5720 O   0  0  0  0  0  0  0  0  0  0  0  0
   -4.6320   21.7470  -32.5040 C   0  0  0  0  0  0  0  0  0  0  0  0
   -3.1680   21.8210  -32.8700 C   0  0  0  0  0  0  0  0  0  0  0  0
   -2.3680   22.1000  -31.6710 N   0  0  0  0  0  0  0  0  0  0  0  0
   -2.0530   20.8710  -30.9200 C   0  0  0  0  0  0  0  0  0  0  0  0
   -1.8330   21.1220  -29.4140 C   0  0  0  0  0  0  0  0  0  0  0  0
   -3.1140   21.5800  -28.7010 C   0  0  0  0  0  0  0  0  0  0  0  0
   -2.7950   22.6510  -27.7270 N   0  0  0  0  0  0  0  0  0  0  0  0
   -1.5020   23.3150  -28.0180 C   0  0  0  0  0  0  0  0  0  0  0  0
   -1.6680   24.5670  -28.9040 C   0  0  0  0  0  0  0  0  0  0  0  0
   -2.8270   24.4630  -29.7010 O   0  0  0  0  0  0  0  0  0  0  0  0
   -3.9850   24.5230  -28.8850 C   0  0  0  0  0  0  0  0  0  0  0  0
   -3.8820   23.6440  -27.6150 C   0  0  0  0  0  0  0  0  0  0  0  0
   -5.3720   20.6230  -32.8660 C   0  0  0  0  0  0  0  0  0  0  0  0
   -6.7310   20.5480  -32.5650 C   0  0  0  0  0  0  0  0  0  0  0  0
   -7.4660   19.4060  -32.9220 C   0  0  0  0  0  0  0  0  0  0  0  0
   -8.8260   19.3250  -32.6230 C   0  0  0  0  0  0  0  0  0  0  0  0
   -9.4610   20.3770  -31.9680 C   0  0  0  0  0  0  0  0  0  0  0  0
   -8.7420   21.5200  -31.6060 C   0  0  0  0  0  0  0  0  0  0  0  0
   -7.3590   21.6300  -31.8980 C   0  0  0  0  0  0  0  0  0  0  0  0
   -7.1931   23.7480  -29.7805 H   0  0  0  0  0  0  0  0  0  0  0  0
   -6.7730   24.8231  -31.1569 H   0  0  0  0  0  0  0  0  0  0  0  0
   -8.3327   23.9319  -31.1569 H   0  0  0  0  0  0  0  0  0  0  0  0
   -2.8515   20.8614  -33.3048 H   0  0  0  0  0  0  0  0  0  0  0  0
   -3.0175   22.6279  -33.6023 H   0  0  0  0  0  0  0  0  0  0  0  0
   -2.8870   22.7720  -31.0590 H   0  0  0  0  0  0  0  0  0  0  0  0
   -2.8876   20.1644  -31.0389 H   0  0  0  0  0  0  0  0  0  0  0  0
   -1.1128   20.4700  -31.3265 H   0  0  0  0  0  0  0  0  0  0  0  0
   -1.4843   20.1886  -28.9480 H   0  0  0  0  0  0  0  0  0  0  0  0
   -1.0891   21.9261  -29.3142 H   0  0  0  0  0  0  0  0  0  0  0  0
   -3.8276   21.9643  -29.4447 H   0  0  0  0  0  0  0  0  0  0  0  0
   -3.5562   20.7257  -28.1674 H   0  0  0  0  0  0  0  0  0  0  0  0
   -1.0373   23.6147  -27.0671 H   0  0  0  0  0  0  0  0  0  0  0  0
   -0.8736   22.5979  -28.5665 H   0  0  0  0  0  0  0  0  0  0  0  0
   -1.7502   25.4560  -28.2613 H   0  0  0  0  0  0  0  0  0  0  0  0
   -0.7917   24.6527  -29.5633 H   0  0  0  0  0  0  0  0  0  0  0  0
   -4.1412   25.5671  -28.5759 H   0  0  0  0  0  0  0  0  0  0  0  0
   -4.8256   24.1386  -29.4814 H   0  0  0  0  0  0  0  0  0  0  0  0
   -3.6857   24.2916  -26.7478 H   0  0  0  0  0  0  0  0  0  0  0  0
   -4.8316   23.1020  -27.4942 H   0  0  0  0  0  0  0  0  0  0  0  0
   -4.8812   19.7908  -33.3919 H   0  0  0  0  0  0  0  0  0  0  0  0
   -6.9677   18.5727  -33.4391 H   0  0  0  0  0  0  0  0  0  0  0  0
   -9.3978   18.4286  -32.9051 H   0  0  0  0  0  0  0  0  0  0  0  0
  -10.5337   20.3084  -31.7342 H   0  0  0  0  0  0  0  0  0  0  0  0
   -9.2554   22.3438  -31.0885 H   0  0  0  0  0  0  0  0  0  0  0  0
  1  2  1  0
  2  3  1  0
  3  4  2  0
  3  5  1  0
  5  6  1  0
  6  7  1  0
  7  8  1  0
  8  9  1  0
  9 10  1  0
 10 11  1  0
 11 12  1  0
 12 13  1  0
 13 14  1  0
 14 15  1  0
 15 16  1  0
  5 17  2  0
 17 18  1  0
 18 19  2  0
 19 20  1  0
 20 21  2  0
 21 22  1  0
 22 23  2  0
 23  2  1  0
 16 11  1  0
 23 18  1  0
  1 24  1  0
  1 25  1  0
  1 26  1  0
  6 27  1  0
  6 28  1  0
  7 29  1  0
  8 30  1  0
  8 31  1  0
  9 32  1  0
  9 33  1  0
 10 34  1  0
 10 35  1  0
 12 36  1  0
 12 37  1  0
 13 38  1  0
 13 39  1  0
 15 40  1  0
 15 41  1  0
 16 42  1  0
 16 43  1  0
 17 44  1  0
 19 45  1  0
 20 46  1  0
 21 47  1  0
 22 48  1  0
M  END
>  <UniqueID>  (3) 
3

>  <SMILES>  (3) 
Cn1c(=O)c(CNCCCN2CCOCC2)cc2ccccc21

>  <Energy>  (3) 
70.12077028931971

>  <Genealogy>  (3) 
Cn1c(=O)c(CNCCCN2CCOCC2)cc2ccccc21 (3D coordinates assigned)
Cn1c(=O)c(CNCCCN2CCOCC2)cc2ccccc21 (nonaromatic ring conformer: 70.12077028931971 kcal/mol)

>  <smiles>  (3) 
Cn1c(=O)c(CNCCCN2CCOCC2)cc2ccccc21

>  <score_type>  (3) 
oracle

>  <origin>  (3) 
adg

>  <m_score__min__energy>  (3) 
-8.3699999999999992

>  <m_primary>  (3) 
energy

$$$$
3:0
     RDKit          3D

 43 44  0  0  0  0  0  0  0  0999 V2000
  -10.1480   20.4882  -32.2757 H   0  0  0  0  0  0  0  0  0  0  0  0
   -9.0810   20.7200  -32.1420 C   0  0  0  0  0  0  0  0  0  0  0  0
   -8.7540   21.9140  -31.6320 C   0  0  0  0  0  0  0  0  0  0  0  0
   -8.9531   22.8214  -32.2211 H   0  0  0  0  0  0  0  0  0  0  0  0
   -8.1200   22.0460  -30.2710 C   0  0  0  0  0  0  0  0  0  0  0  0
   -7.9228   21.0412  -29.8691 H   0  0  0  0  0  0  0  0  0  0  0  0
   -8.8124   22.5985  -29.6188 H   0  0  0  0  0  0  0  0  0  0  0  0
   -6.8440   22.7970  -30.3390 N   0  0  0  0  0  0  0  0  0  0  0  0
   -6.4180   22.8090  -29.3820 H   0  0  0  0  0  0  0  0  0  0  0  0
   -5.9090   22.1130  -31.2570 C   0  0  0  0  0  0  0  0  0  0  0  0
   -6.4442   21.8809  -32.1896 H   0  0  0  0  0  0  0  0  0  0  0  0
   -5.5550   21.2075  -30.7424 H   0  0  0  0  0  0  0  0  0  0  0  0
   -4.6570   22.9570  -31.6070 C   0  0  0  0  0  0  0  0  0  0  0  0
   -4.6808   23.1798  -32.6839 H   0  0  0  0  0  0  0  0  0  0  0  0
   -3.7806   22.3596  -31.3156 H   0  0  0  0  0  0  0  0  0  0  0  0
   -4.5650   24.2330  -30.8720 N   0  0  0  0  0  0  0  0  0  0  0  0
   -3.4490   24.4110  -29.9220 C   0  0  0  0  0  0  0  0  0  0  0  0
   -3.4440   25.4583  -29.5858 H   0  0  0  0  0  0  0  0  0  0  0  0
   -2.5278   24.1347  -30.4559 H   0  0  0  0  0  0  0  0  0  0  0  0
   -3.5360   23.5030  -28.6800 C   0  0  0  0  0  0  0  0  0  0  0  0
   -2.5184   23.1888  -28.4046 H   0  0  0  0  0  0  0  0  0  0  0  0
   -4.1750   22.6476  -28.9444 H   0  0  0  0  0  0  0  0  0  0  0  0
   -4.1740   24.1910  -27.4760 C   0  0  0  0  0  0  0  0  0  0  0  0
   -3.7710   23.7564  -26.5493 H   0  0  0  0  0  0  0  0  0  0  0  0
   -3.9468   25.2669  -27.5055 H   0  0  0  0  0  0  0  0  0  0  0  0
   -5.2639   24.0455  -27.5055 H   0  0  0  0  0  0  0  0  0  0  0  0
   -5.7930   25.0150  -30.6260 C   0  0  0  0  0  0  0  0  0  0  0  0
   -5.8230   25.8561  -31.3343 H   0  0  0  0  0  0  0  0  0  0  0  0
   -5.7628   25.3639  -29.5832 H   0  0  0  0  0  0  0  0  0  0  0  0
   -7.0670   24.1810  -30.8000 C   0  0  0  0  0  0  0  0  0  0  0  0
   -7.3489   24.1677  -31.8632 H   0  0  0  0  0  0  0  0  0  0  0  0
   -7.8721   24.6309  -30.2006 H   0  0  0  0  0  0  0  0  0  0  0  0
   -8.0880   19.6920  -32.5370 C   0  0  0  0  0  0  0  0  0  0  0  0
   -7.0810   20.0450  -33.4530 C   0  0  0  0  0  0  0  0  0  0  0  0
   -7.0411   21.0696  -33.8512 H   0  0  0  0  0  0  0  0  0  0  0  0
   -6.1300   19.1050  -33.8620 C   0  0  0  0  0  0  0  0  0  0  0  0
   -5.3418   19.3943  -34.5726 H   0  0  0  0  0  0  0  0  0  0  0  0
   -6.1800   17.7990  -33.3690 C   0  0  0  0  0  0  0  0  0  0  0  0
   -5.4284   17.0618  -33.6880 H   0  0  0  0  0  0  0  0  0  0  0  0
   -7.1830   17.4290  -32.4720 C   0  0  0  0  0  0  0  0  0  0  0  0
   -7.2235   16.3987  -32.0888 H   0  0  0  0  0  0  0  0  0  0  0  0
   -8.1370   18.3650  -32.0590 C   0  0  0  0  0  0  0  0  0  0  0  0
   -8.9297   18.0651  -31.3578 H   0  0  0  0  0  0  0  0  0  0  0  0
  1  2  1  0
  2  3  2  0
  3  4  1  0
  3  5  1  0
  5  6  1  0
  5  7  1  0
  5  8  1  0
  8  9  1  0
  8 10  1  0
 10 11  1  0
 10 12  1  0
 10 13  1  0
 13 14  1  0
 13 15  1  0
 13 16  1  0
 16 17  1  0
 17 18  1  0
 17 19  1  0
 17 20  1  0
 20 21  1  0
 20 22  1  0
 20 23  1  0
 23 24  1  0
 23 25  1  0
 23 26  1  0
 16 27  1  0
 27 28  1  0
 27 29  1  0
 27 30  1  0
 30 31  1  0
 30 32  1  0
  2 33  1  0
 33 34  2  0
 34 35  1  0
 34 36  1  0
 36 37  1  0
 36 38  2  0
 38 39  1  0
 38 40  1  0
 40 41  1  0
 40 42  2  0
 42 43  1  0
 30  8  1  0
 42 33  1  0
M  CHG  1   8   1
M  END
>  <UniqueID>  (4) 
4

>  <SMILES>  (4) 
CCCN1CC[NH+](C/C=C/c2ccccc2)CC1

>  <Energy>  (4) 
61.18293120490722

>  <Genealogy>  (4) 
CCCN1CC[NH+](CC=Cc2ccccc2)CC1 (protonated)
CCCN1CC[NH+](C/C=C/c2ccccc2)CC1 (cis-trans isomerization)
CCCN1CC[NH+](C/C=C/c2ccccc2)CC1 (3D coordinates assigned)
CCCN1CC[NH+](C/C=C/c2ccccc2)CC1 (nonaromatic ring conformer: 61.18293120490722 kcal/mol)

>  <smiles>  (4) 
CCCN1CCN(CC=Cc2ccccc2)CC1

>  <score_type>  (4) 
oracle

>  <origin>  (4) 
adg

>  <m_score__min__energy>  (4) 
-6.6500000000000004

>  <m_primary>  (4) 
energy

$$$$
4:0
     RDKit          3D

 55 56  0  0  0  0  0  0  0  0999 V2000
   -2.3970   16.5360  -35.2590 C   0  0  0  0  0  0  0  0  0  0  0  0
   -1.9980   17.2920  -33.9940 C   0  0  0  0  0  0  0  0  0  0  0  0
   -3.1980   17.7460  -33.2580 N   0  0  0  0  0  0  0  0  0  0  0  0
   -3.0320   19.1180  -32.7200 C   0  0  0  0  0  0  0  0  0  0  0  0
   -2.7370   20.1200  -33.8380 C   0  0  0  0  0  0  0  0  0  0  0  0
   -1.1750   21.1760  -33.3910 Br  0  0  0  0  0  0  0  0  0  0  0  0
   -4.4460   17.5600  -34.0440 C   0  0  0  0  0  0  0  0  0  0  0  0
   -5.6710   18.2000  -33.4220 C   0  0  0  0  0  0  0  0  0  0  0  0
   -6.3430   17.5780  -32.3550 C   0  0  0  0  0  0  0  0  0  0  0  0
   -7.4730   18.1730  -31.7870 C   0  0  0  0  0  0  0  0  0  0  0  0
   -7.9510   19.3970  -32.2760 C   0  0  0  0  0  0  0  0  0  0  0  0
   -9.1480   20.0550  -31.6370 C   0  0  0  0  0  0  0  0  0  0  0  0
   -8.7540   21.3130  -30.9820 N   0  0  0  0  0  0  0  0  0  0  0  0
   -9.1110   22.5000  -31.7820 C   0  0  0  0  0  0  0  0  0  0  0  0
   -7.8620   23.3000  -32.2310 C   0  0  0  0  0  0  0  0  0  0  0  0
   -6.7010   23.1720  -31.3220 N   0  0  0  0  0  0  0  0  0  0  0  0
   -6.5910   24.2380  -30.3000 C   0  0  0  0  0  0  0  0  0  0  0  0
   -5.4070   25.1740  -30.5790 C   0  0  0  0  0  0  0  0  0  0  0  0
   -4.1240   24.4460  -30.6190 N   0  0  0  0  0  0  0  0  0  0  0  0
   -4.2330   23.0530  -31.0930 C   0  0  0  0  0  0  0  0  0  0  0  0
   -5.4380   22.8450  -32.0190 C   0  0  0  0  0  0  0  0  0  0  0  0
   -7.2640   20.0370  -33.3190 C   0  0  0  0  0  0  0  0  0  0  0  0
   -6.1340   19.4430  -33.8870 C   0  0  0  0  0  0  0  0  0  0  0  0
   -2.8939   15.5945  -34.9821 H   0  0  0  0  0  0  0  0  0  0  0  0
   -3.0866   17.1536  -35.8531 H   0  0  0  0  0  0  0  0  0  0  0  0
   -1.4980   16.3152  -35.8531 H   0  0  0  0  0  0  0  0  0  0  0  0
   -1.4071   16.6272  -33.3468 H   0  0  0  0  0  0  0  0  0  0  0  0
   -1.4034   18.1722  -34.2798 H   0  0  0  0  0  0  0  0  0  0  0  0
   -3.9578   19.4162  -32.2063 H   0  0  0  0  0  0  0  0  0  0  0  0
   -2.1828   19.1171  -32.0208 H   0  0  0  0  0  0  0  0  0  0  0  0
   -2.5516   19.5750  -34.7754 H   0  0  0  0  0  0  0  0  0  0  0  0
   -3.6015   20.7894  -33.9588 H   0  0  0  0  0  0  0  0  0  0  0  0
   -4.2951   17.9999  -35.0408 H   0  0  0  0  0  0  0  0  0  0  0  0
   -4.6385   16.4776  -34.0816 H   0  0  0  0  0  0  0  0  0  0  0  0
   -5.9770   16.6169  -31.9647 H   0  0  0  0  0  0  0  0  0  0  0  0
   -7.9902   17.6782  -30.9517 H   0  0  0  0  0  0  0  0  0  0  0  0
   -9.8997   20.2694  -32.4109 H   0  0  0  0  0  0  0  0  0  0  0  0
   -9.5671   19.3752  -30.8806 H   0  0  0  0  0  0  0  0  0  0  0  0
   -7.7130   21.3140  -30.8570 H   0  0  0  0  0  0  0  0  0  0  0  0
   -9.1940   21.3760  -30.0340 H   0  0  0  0  0  0  0  0  0  0  0  0
   -9.6620   22.1722  -32.6758 H   0  0  0  0  0  0  0  0  0  0  0  0
   -9.7262   23.1594  -31.1522 H   0  0  0  0  0  0  0  0  0  0  0  0
   -7.5619   22.9412  -33.2266 H   0  0  0  0  0  0  0  0  0  0  0  0
   -8.1492   24.3618  -32.2296 H   0  0  0  0  0  0  0  0  0  0  0  0
   -7.5192   24.8282  -30.2996 H   0  0  0  0  0  0  0  0  0  0  0  0
   -6.4265   23.7599  -29.3231 H   0  0  0  0  0  0  0  0  0  0  0  0
   -5.5656   25.6677  -31.5491 H   0  0  0  0  0  0  0  0  0  0  0  0
   -5.3552   25.9089  -29.7622 H   0  0  0  0  0  0  0  0  0  0  0  0
   -3.4770   24.9660  -31.2580 H   0  0  0  0  0  0  0  0  0  0  0  0
   -3.3160   22.7936  -31.6423 H   0  0  0  0  0  0  0  0  0  0  0  0
   -4.3703   22.4081  -30.2126 H   0  0  0  0  0  0  0  0  0  0  0  0
   -5.3329   23.4967  -32.8989 H   0  0  0  0  0  0  0  0  0  0  0  0
   -5.4683   21.7889  -32.3250 H   0  0  0  0  0  0  0  0  0  0  0  0
   -7.6166   21.0103  -33.6909 H   0  0  0  0  0  0  0  0  0  0  0  0
   -5.6026   19.9522  -34.7045 H   0  0  0  0  0  0  0  0  0  0  0  0
  1  2  1  0
  2  3  1  0
  3  4  1  0
  4  5  1  0
  5  6  1  0
  3  7  1  0
  7  8  1  0
  8  9  2  0
  9 10  1  0
 10 11  2  0
 11 12  1  0
 12 13  1  0
 13 14  1  0
 14 15  1  0
 15 16  1  0
 16 17  1  0
 17 18  1  0
 18 19  1  0
 19 20  1  0
 20 21  1  0
 11 22  1  0
 22 23  2  0
 23  8  1  0
 21 16  1  0
  1 24  1  0
  1 25  1  0
  1 26  1  0
  2 27  1  0
  2 28  1  0
  4 29  1  0
  4 30  1  0
  5 31  1  0
  5 32  1  0
  7 33  1  0
  7 34  1  0
  9 35  1  0
 10 36  1  0
 12 37  1  0
 12 38  1  0
 13 39  1  0
 13 40  1  0
 14 41  1  0
 14 42  1  0
 15 43  1  0
 15 44  1  0
 17 45  1  0
 17 46  1  0
 18 47  1  0
 18 48  1  0
 19 49  1  0
 20 50  1  0
 20 51  1  0
 21 52  1  0
 21 53  1  0
 22 54  1  0
 23 55  1  0
M  CHG  1  13   1
M  END
>  <UniqueID>  (5) 
5

>  <SMILES>  (5) 
CCN(CCBr)Cc1ccc(C[NH2+]CCN2CCNCC2)cc1

>  <Energy>  (5) 
65.98368383618002

>  <Genealogy>  (5) 
CCN(CCBr)Cc1ccc(C[NH2+]CCN2CCNCC2)cc1 (protonated)
CCN(CCBr)Cc1ccc(C[NH2+]CCN2CCNCC2)cc1 (3D coordinates assigned)
CCN(CCBr)Cc1ccc(C[NH2+]CCN2CCNCC2)cc1 (nonaromatic ring conformer: 65.98368383618002 kcal/mol)

>  <smiles>  (5) 
CCN(CCBr)Cc1ccc(CNCCN2CCNCC2)cc1

>  <score_type>  (5) 
oracle

>  <origin>  (5) 
adg

>  <m_score__min__energy>  (5) 
-7.2999999999999998

>  <m_primary>  (5) 
energy

$$$$
5:0
     RDKit          3D

 74 78  0  0  0  0  0  0  0  0999 V2000
    0.6950   22.5360  -35.7190 C   0  0  0  0  0  0  0  0  0  0  0  0
   -0.0970   21.2440  -35.9000 C   0  0  0  0  0  0  0  0  0  0  0  0
   -0.0700   20.3950  -34.6840 N   0  0  0  0  0  0  0  0  0  0  0  0
    1.0020   19.3940  -34.8330 C   0  0  0  0  0  0  0  0  0  0  0  0
    0.1300   21.1810  -33.4390 C   0  0  0  0  0  0  0  0  0  0  0  0
   -1.2050   21.5160  -32.7590 C   0  0  0  0  0  0  0  0  0  0  0  0
   -2.3500   21.2830  -33.6420 N   0  0  0  0  0  0  0  0  0  0  0  0
   -3.5780   20.7350  -33.1440 C   0  0  0  0  0  0  0  0  0  0  0  0
   -4.3650   21.5190  -32.2840 C   0  0  0  0  0  0  0  0  0  0  0  0
   -3.8080   22.6170  -31.5930 C   0  0  0  0  0  0  0  0  0  0  0  0
   -4.5830   23.3780  -30.7220 C   0  0  0  0  0  0  0  0  0  0  0  0
   -5.9200   23.0510  -30.5160 C   0  0  0  0  0  0  0  0  0  0  0  0
   -6.4910   21.9760  -31.1980 C   0  0  0  0  0  0  0  0  0  0  0  0
   -5.7330   21.2080  -32.1150 C   0  0  0  0  0  0  0  0  0  0  0  0
   -6.2940   20.1870  -32.8520 N   0  0  0  0  0  0  0  0  0  0  0  0
   -7.7660   20.0990  -32.9830 C   0  0  0  0  0  0  0  0  0  0  0  0
   -5.4800   19.2540  -33.4680 C   0  0  0  0  0  0  0  0  0  0  0  0
   -6.0200   18.0480  -33.9690 C   0  0  0  0  0  0  0  0  0  0  0  0
   -5.2220   17.1020  -34.5890 C   0  0  0  0  0  0  0  0  0  0  0  0
   -3.8550   17.2960  -34.6790 C   0  0  0  0  0  0  0  0  0  0  0  0
   -3.2430   18.4560  -34.1730 C   0  0  0  0  0  0  0  0  0  0  0  0
   -1.7910   18.4550  -34.1080 N   0  0  0  0  0  0  0  0  0  0  0  0
   -1.2850   17.1090  -33.7620 C   0  0  0  0  0  0  0  0  0  0  0  0
   -0.9660   16.9700  -32.2620 C   0  0  0  0  0  0  0  0  0  0  0  0
    0.0070   18.0400  -31.7310 C   0  0  0  0  0  0  0  0  0  0  0  0
    0.1030   18.0010  -30.2560 N   0  0  0  0  0  0  0  0  0  0  0  0
    0.8120   16.9730  -29.6940 C   0  0  0  0  0  0  0  0  0  0  0  0
    0.9800   16.8770  -28.3150 C   0  0  0  0  0  0  0  0  0  0  0  0
    0.4090   17.8300  -27.4840 C   0  0  0  0  0  0  0  0  0  0  0  0
   -0.3350   18.8750  -28.0350 C   0  0  0  0  0  0  0  0  0  0  0  0
   -0.9250   19.8340  -27.1970 C   0  0  0  0  0  0  0  0  0  0  0  0
   -1.6730   20.8770  -27.7400 C   0  0  0  0  0  0  0  0  0  0  0  0
   -1.8350   20.9740  -29.1210 C   0  0  0  0  0  0  0  0  0  0  0  0
   -1.2530   20.0290  -29.9700 C   0  0  0  0  0  0  0  0  0  0  0  0
   -0.4880   18.9570  -29.4460 C   0  0  0  0  0  0  0  0  0  0  0  0
   -4.0720   19.4850  -33.5960 C   0  0  0  0  0  0  0  0  0  0  0  0
    0.8210   22.7415  -34.6457 H   0  0  0  0  0  0  0  0  0  0  0  0
    1.6831   22.4294  -36.1904 H   0  0  0  0  0  0  0  0  0  0  0  0
    0.1517   23.3682  -36.1904 H   0  0  0  0  0  0  0  0  0  0  0  0
   -1.1419   21.4985  -36.1312 H   0  0  0  0  0  0  0  0  0  0  0  0
    0.3673   20.6753  -36.7192 H   0  0  0  0  0  0  0  0  0  0  0  0
    1.3452   19.0735  -33.8383 H   0  0  0  0  0  0  0  0  0  0  0  0
    0.6173   18.5244  -35.3859 H   0  0  0  0  0  0  0  0  0  0  0  0
    1.8433   19.8373  -35.3859 H   0  0  0  0  0  0  0  0  0  0  0  0
    0.7477   20.5949  -32.7426 H   0  0  0  0  0  0  0  0  0  0  0  0
    0.6259   22.1260  -33.7057 H   0  0  0  0  0  0  0  0  0  0  0  0
   -1.3143   20.8863  -31.8637 H   0  0  0  0  0  0  0  0  0  0  0  0
   -1.1920   22.5845  -32.4980 H   0  0  0  0  0  0  0  0  0  0  0  0
   -2.1490   21.1630  -34.6560 H   0  0  0  0  0  0  0  0  0  0  0  0
   -2.7493   22.8742  -31.7446 H   0  0  0  0  0  0  0  0  0  0  0  0
   -4.1391   24.2368  -30.1972 H   0  0  0  0  0  0  0  0  0  0  0  0
   -6.5277   23.6411  -29.8142 H   0  0  0  0  0  0  0  0  0  0  0  0
   -7.5463   21.7211  -31.0206 H   0  0  0  0  0  0  0  0  0  0  0  0
   -8.2222   20.0717  -31.9824 H   0  0  0  0  0  0  0  0  0  0  0  0
   -8.1384   20.9765  -33.5320 H   0  0  0  0  0  0  0  0  0  0  0  0
   -8.0312   19.1834  -33.5320 H   0  0  0  0  0  0  0  0  0  0  0  0
   -7.0982   17.8568  -33.8640 H   0  0  0  0  0  0  0  0  0  0  0  0
   -5.6759   16.1934  -35.0114 H   0  0  0  0  0  0  0  0  0  0  0  0
   -3.2330   16.5251  -35.1573 H   0  0  0  0  0  0  0  0  0  0  0  0
   -1.4070   18.7330  -35.0410 H   0  0  0  0  0  0  0  0  0  0  0  0
   -1.4270   19.1850  -33.4670 H   0  0  0  0  0  0  0  0  0  0  0  0
   -2.0486   16.3644  -34.0313 H   0  0  0  0  0  0  0  0  0  0  0  0
   -0.3509   16.9480  -34.3201 H   0  0  0  0  0  0  0  0  0  0  0  0
   -1.9076   17.0474  -31.6986 H   0  0  0  0  0  0  0  0  0  0  0  0
   -0.4740   15.9953  -32.1283 H   0  0  0  0  0  0  0  0  0  0  0  0
    1.0043   17.8602  -32.1590 H   0  0  0  0  0  0  0  0  0  0  0  0
   -0.3732   19.0291  -32.0261 H   0  0  0  0  0  0  0  0  0  0  0  0
    1.2581   16.2071  -30.3455 H   0  0  0  0  0  0  0  0  0  0  0  0
    1.5632   16.0487  -27.8862 H   0  0  0  0  0  0  0  0  0  0  0  0
    0.5421   17.7624  -26.3942 H   0  0  0  0  0  0  0  0  0  0  0  0
   -0.7964   19.7620  -26.1069 H   0  0  0  0  0  0  0  0  0  0  0  0
   -2.1358   21.6241  -27.0784 H   0  0  0  0  0  0  0  0  0  0  0  0
   -2.4249   21.7999  -29.5453 H   0  0  0  0  0  0  0  0  0  0  0  0
   -1.3902   20.1181  -31.0578 H   0  0  0  0  0  0  0  0  0  0  0  0
  1  2  1  0
  2  3  1  0
  3  4  1  0
  3  5  1  0
  5  6  1  0
  6  7  1  0
  7  8  1  0
  8  9  2  0
  9 10  1  0
 10 11  2  0
 11 12  1  0
 12 13  2  0
 13 14  1  0
 14 15  2  0
 15 16  1  0
 15 17  1  0
 17 18  2  0
 18 19  1  0
 19 20  2  0
 20 21  1  0
 21 22  1  0
 22 23  1  0
 23 24  1  0
 24 25  1  0
 25 26  1  0
 26 27  2  0
 27 28  1  0
 28 29  2  0
 29 30  1  0
 30 31  2  0
 31 32  1  0
 32 33  2  0
 33 34  1  0
 34 35  2  0
 21 36  2  0
 36  8  1  0
 14  9  1  0
 36 17  1  0
 35 26  1  0
 35 30  1  0
  1 37  1  0
  1 38  1  0
  1 39  1  0
  2 40  1  0
  2 41  1  0
  4 42  1  0
  4 43  1  0
  4 44  1  0
  5 45  1  0
  5 46  1  0
  6 47  1  0
  6 48  1  0
  7 49  1  0
 10 50  1  0
 11 51  1  0
 12 52  1  0
 13 53  1  0
 16 54  1  0
 16 55  1  0
 16 56  1  0
 18 57  1  0
 19 58  1  0
 20 59  1  0
 22 60  1  0
 22 61  1  0
 23 62  1  0
 23 63  1  0
 24 64  1  0
 24 65  1  0
 25 66  1  0
 25 67  1  0
 27 68  1  0
 28 69  1  0
 29 70  1  0
 31 71  1  0
 32 72  1  0
 33 73  1  0
 34 74  1  0
M  CHG  3  15   1  22   1  26   1
M  END
>  <UniqueID>  (6) 
6

>  <SMILES>  (6) 
CCN(C)CCNc1c2ccccc2[n+](C)c2cccc([NH2+]CCC[n+]3cccc4ccccc43)c12

>  <Energy>  (6) 
122.40464252126455

>  <Genealogy>  (6) 
CCN(C)CCNc1c2ccccc2[n+](C)c2cccc([NH2+]CCC[n+]3cccc4ccccc43)c12 (protonated)
CCN(C)CCNc1c2ccccc2[n+](C)c2cccc([NH2+]CCC[n+]3cccc4ccccc43)c12 (3D coordinates assigned)
CCN(C)CCNc1c2ccccc2[n+](C)c2cccc([NH2+]CCC[n+]3cccc4ccccc43)c12 (optimized conformer: 122.40464252126455 kcal/mol)

>  <smiles>  (6) 
CCN(C)CCNc1c2ccccc2[n+](C)c2cccc(NCCC[n+]3cccc4ccccc43)c12

>  <score_type>  (6) 
oracle

>  <origin>  (6) 
adg

>  <m_score__min__energy>  (6) 
-9.3300000000000001

>  <m_primary>  (6) 
energy

$$$$
6:0
     RDKit          3D

 42 44  0  0  0  0  0  0  0  0999 V2000
   -3.1310   23.6850  -28.1380 C   0  0  0  0  0  0  0  0  0  0  0  0
   -2.4850   24.5670  -29.2020 C   0  0  0  0  0  0  0  0  0  0  0  0
   -3.4790   25.2610  -29.9560 O   0  0  0  0  0  0  0  0  0  0  0  0
   -4.7700   24.7850  -30.2450 C   0  0  0  0  0  0  0  0  0  0  0  0
   -5.9360   25.4230  -29.7760 C   0  0  0  0  0  0  0  0  0  0  0  0
   -7.1970   24.9140  -30.0930 C   0  0  0  0  0  0  0  0  0  0  0  0
   -7.3190   23.7690  -30.8820 C   0  0  0  0  0  0  0  0  0  0  0  0
   -6.1680   23.1210  -31.3630 C   0  0  0  0  0  0  0  0  0  0  0  0
   -6.2380   21.9720  -32.1650 C   0  0  0  0  0  0  0  0  0  0  0  0
   -7.3500   21.4730  -32.4920 O   0  0  0  0  0  0  0  0  0  0  0  0
   -5.0590   21.3740  -32.6100 C   0  0  0  0  0  0  0  0  0  0  0  0
   -3.8210   21.9320  -32.2440 C   0  0  0  0  0  0  0  0  0  0  0  0
   -2.5330   21.3430  -32.6880 C   0  0  0  0  0  0  0  0  0  0  0  0
   -2.4430   20.5380  -33.8370 C   0  0  0  0  0  0  0  0  0  0  0  0
   -1.2190   19.9870  -34.2270 C   0  0  0  0  0  0  0  0  0  0  0  0
   -0.0490   20.2180  -33.4750 C   0  0  0  0  0  0  0  0  0  0  0  0
    1.2220   19.6460  -33.8810 N   0  0  0  0  0  0  0  0  0  0  0  0
    2.0300   18.8730  -32.9300 C   0  0  0  0  0  0  0  0  0  0  0  0
    1.7220   19.8320  -35.2480 C   0  0  0  0  0  0  0  0  0  0  0  0
   -0.1490   21.0130  -32.3170 C   0  0  0  0  0  0  0  0  0  0  0  0
   -1.3740   21.5630  -31.9280 C   0  0  0  0  0  0  0  0  0  0  0  0
   -3.7950   23.0290  -31.4890 O   0  0  0  0  0  0  0  0  0  0  0  0
   -4.8920   23.6360  -31.0400 C   0  0  0  0  0  0  0  0  0  0  0  0
   -2.8589   24.0566  -27.1391 H   0  0  0  0  0  0  0  0  0  0  0  0
   -4.2245   23.7119  -28.2539 H   0  0  0  0  0  0  0  0  0  0  0  0
   -2.7754   22.6505  -28.2539 H   0  0  0  0  0  0  0  0  0  0  0  0
   -1.8267   25.2997  -28.7123 H   0  0  0  0  0  0  0  0  0  0  0  0
   -1.9054   23.9288  -29.8852 H   0  0  0  0  0  0  0  0  0  0  0  0
   -5.8520   26.3279  -29.1562 H   0  0  0  0  0  0  0  0  0  0  0  0
   -8.0999   25.4185  -29.7186 H   0  0  0  0  0  0  0  0  0  0  0  0
   -8.3158   23.3738  -31.1274 H   0  0  0  0  0  0  0  0  0  0  0  0
   -5.0972   20.4741  -33.2415 H   0  0  0  0  0  0  0  0  0  0  0  0
   -3.3447   20.3398  -34.4350 H   0  0  0  0  0  0  0  0  0  0  0  0
   -1.1679   19.3649  -35.1327 H   0  0  0  0  0  0  0  0  0  0  0  0
    1.7463   19.1444  -31.9024 H   0  0  0  0  0  0  0  0  0  0  0  0
    1.8537   17.7987  -33.0875 H   0  0  0  0  0  0  0  0  0  0  0  0
    3.0954   19.0967  -33.0875 H   0  0  0  0  0  0  0  0  0  0  0  0
    2.7524   20.2153  -35.2125 H   0  0  0  0  0  0  0  0  0  0  0  0
    1.7073   18.8683  -35.7781 H   0  0  0  0  0  0  0  0  0  0  0  0
    1.0810   20.5518  -35.7781 H   0  0  0  0  0  0  0  0  0  0  0  0
    0.7486   21.2038  -31.7105 H   0  0  0  0  0  0  0  0  0  0  0  0
   -1.4300   22.1752  -31.0158 H   0  0  0  0  0  0  0  0  0  0  0  0
  1  2  1  0
  2  3  1  0
  3  4  1  0
  4  5  2  0
  5  6  1  0
  6  7  2  0
  7  8  1  0
  8  9  1  0
  9 10  2  0
  9 11  1  0
 11 12  2  0
 12 13  1  0
 13 14  2  0
 14 15  1  0
 15 16  2  0
 16 17  1  0
 17 18  1  0
 17 19  1  0
 16 20  1  0
 20 21  2  0
 12 22  1  0
 22 23  1  0
 23  4  1  0
 23  8  2  0
 21 13  1  0
  1 24  1  0
  1 25  1  0
  1 26  1  0
  2 27  1  0
  2 28  1  0
  5 29  1  0
  6 30  1  0
  7 31  1  0
 11 32  1  0
 14 33  1  0
 15 34  1  0
 18 35  1  0
 18 36  1  0
 18 37  1  0
 19 38  1  0
 19 39  1  0
 19 40  1  0
 20 41  1  0
 21 42  1  0
M  END
>  <UniqueID>  (7) 
7

>  <SMILES>  (7) 
CCOc1cccc2c(=O)cc(-c3ccc(N(C)C)cc3)oc12

>  <Energy>  (7) 
52.320067508940134

>  <Genealogy>  (7) 
CCOc1cccc2c(=O)cc(-c3ccc(N(C)C)cc3)oc12 (3D coordinates assigned)
CCOc1cccc2c(=O)cc(-c3ccc(N(C)C)cc3)oc12 (optimized conformer: 52.320067508940134 kcal/mol)

>  <smiles>  (7) 
CCOc1cccc2c(=O)cc(-c3ccc(N(C)C)cc3)oc12

>  <score_type>  (7) 
oracle

>  <origin>  (7) 
adg

>  <m_score__min__energy>  (7) 
-7.2599999999999998

>  <m_primary>  (7) 
energy

$$$$
7:0
     RDKit          3D

 68 70  0  0  0  0  0  0  0  0999 V2000
   -3.7900   18.5700  -26.0670 C   0  0  0  0  0  0  0  0  0  0  0  0
   -2.2900   18.5700  -26.3480 C   0  0  0  0  0  0  0  0  0  0  0  0
   -1.9070   19.7770  -27.1160 N   0  0  0  0  0  0  0  0  0  0  0  0
   -1.2770   20.7770  -26.2340 C   0  0  0  0  0  0  0  0  0  0  0  0
   -3.0660   20.3650  -27.8280 C   0  0  0  0  0  0  0  0  0  0  0  0
   -2.7160   20.6200  -29.2980 C   0  0  0  0  0  0  0  0  0  0  0  0
   -3.2220   21.8660  -29.7430 O   0  0  0  0  0  0  0  0  0  0  0  0
   -3.5870   22.6970  -28.6560 C   0  0  0  0  0  0  0  0  0  0  0  0
   -3.5010   24.1680  -29.0550 C   0  0  0  0  0  0  0  0  0  0  0  0
   -3.5140   24.2680  -30.4580 O   0  0  0  0  0  0  0  0  0  0  0  0
   -4.3430   25.3030  -30.7650 N   0  0  0  0  0  0  0  0  0  0  0  0
   -5.6810   24.7620  -31.0130 C   0  0  0  0  0  0  0  0  0  0  0  0
   -5.6730   23.7060  -32.1310 C   0  0  0  0  0  0  0  0  0  0  0  0
   -5.2500   22.3980  -31.6270 N   0  0  0  0  0  0  0  0  0  0  0  0
   -5.7150   21.1840  -32.2360 C   0  0  0  0  0  0  0  0  0  0  0  0
   -7.0930   20.9080  -32.2350 C   0  0  0  0  0  0  0  0  0  0  0  0
   -8.0360   21.9250  -31.9650 C   0  0  0  0  0  0  0  0  0  0  0  0
   -9.4020   21.6550  -31.9970 C   0  0  0  0  0  0  0  0  0  0  0  0
   -9.8510   20.3770  -32.3110 C   0  0  0  0  0  0  0  0  0  0  0  0
   -8.9360   19.3570  -32.5750 C   0  0  0  0  0  0  0  0  0  0  0  0
   -7.5400   19.5940  -32.5130 C   0  0  0  0  0  0  0  0  0  0  0  0
   -6.6200   18.5850  -32.7040 N   0  0  0  0  0  0  0  0  0  0  0  0
   -7.0520   17.1710  -32.6150 C   0  0  0  0  0  0  0  0  0  0  0  0
   -5.2950   18.8940  -32.9560 C   0  0  0  0  0  0  0  0  0  0  0  0
   -4.4020   17.9100  -33.4420 C   0  0  0  0  0  0  0  0  0  0  0  0
   -3.0570   18.1930  -33.6720 C   0  0  0  0  0  0  0  0  0  0  0  0
   -2.1400   17.1090  -34.1600 C   0  0  0  0  0  0  0  0  0  0  0  0
   -2.5830   19.4850  -33.4660 C   0  0  0  0  0  0  0  0  0  0  0  0
   -3.4390   20.5150  -33.0490 C   0  0  0  0  0  0  0  0  0  0  0  0
   -2.8670   21.9140  -33.0600 C   0  0  0  0  0  0  0  0  0  0  0  0
   -4.8080   20.2200  -32.7430 C   0  0  0  0  0  0  0  0  0  0  0  0
   -4.1504   17.5329  -25.9995 H   0  0  0  0  0  0  0  0  0  0  0  0
   -3.9850   19.0885  -25.1167 H   0  0  0  0  0  0  0  0  0  0  0  0
   -4.3158   19.0885  -26.8823 H   0  0  0  0  0  0  0  0  0  0  0  0
   -1.7428   18.5591  -25.3938 H   0  0  0  0  0  0  0  0  0  0  0  0
   -2.0384   17.6771  -26.9391 H   0  0  0  0  0  0  0  0  0  0  0  0
   -1.4510   20.5008  -25.1835 H   0  0  0  0  0  0  0  0  0  0  0  0
   -0.1951   20.8093  -26.4303 H   0  0  0  0  0  0  0  0  0  0  0  0
   -1.7150   21.7668  -26.4303 H   0  0  0  0  0  0  0  0  0  0  0  0
   -3.9162   19.6692  -27.7732 H   0  0  0  0  0  0  0  0  0  0  0  0
   -3.3293   21.3214  -27.3526 H   0  0  0  0  0  0  0  0  0  0  0  0
   -1.6218   20.6177  -29.4106 H   0  0  0  0  0  0  0  0  0  0  0  0
   -3.1735   19.8248  -29.9049 H   0  0  0  0  0  0  0  0  0  0  0  0
   -4.6183   22.4640  -28.3526 H   0  0  0  0  0  0  0  0  0  0  0  0
   -2.8953   22.5141  -27.8205 H   0  0  0  0  0  0  0  0  0  0  0  0
   -4.3614   24.7129  -28.6393 H   0  0  0  0  0  0  0  0  0  0  0  0
   -2.5706   24.6038  -28.6620 H   0  0  0  0  0  0  0  0  0  0  0  0
   -3.9930   25.7490  -31.6480 H   0  0  0  0  0  0  0  0  0  0  0  0
   -6.0544   24.2982  -30.0881 H   0  0  0  0  0  0  0  0  0  0  0  0
   -6.3309   25.5907  -31.3307 H   0  0  0  0  0  0  0  0  0  0  0  0
   -6.6872   23.6181  -32.5477 H   0  0  0  0  0  0  0  0  0  0  0  0
   -4.9597   24.0262  -32.9047 H   0  0  0  0  0  0  0  0  0  0  0  0
   -4.4090   22.3580  -31.0080 H   0  0  0  0  0  0  0  0  0  0  0  0
   -7.6876   22.9408  -31.7270 H   0  0  0  0  0  0  0  0  0  0  0  0
  -10.1257   22.4528  -31.7739 H   0  0  0  0  0  0  0  0  0  0  0  0
  -10.9305   20.1694  -32.3514 H   0  0  0  0  0  0  0  0  0  0  0  0
   -9.3039   18.3535  -32.8352 H   0  0  0  0  0  0  0  0  0  0  0  0
   -7.1407   16.8806  -31.5578 H   0  0  0  0  0  0  0  0  0  0  0  0
   -8.0270   17.0536  -33.1106 H   0  0  0  0  0  0  0  0  0  0  0  0
   -6.3091   16.5287  -33.1106 H   0  0  0  0  0  0  0  0  0  0  0  0
   -4.7788   16.8963  -33.6433 H   0  0  0  0  0  0  0  0  0  0  0  0
   -1.6983   16.5869  -33.2984 H   0  0  0  0  0  0  0  0  0  0  0  0
   -2.7106   16.3929  -34.7696 H   0  0  0  0  0  0  0  0  0  0  0  0
   -1.3392   17.5530  -34.7696 H   0  0  0  0  0  0  0  0  0  0  0  0
   -1.5178   19.7025  -33.6332 H   0  0  0  0  0  0  0  0  0  0  0  0
   -2.7254   22.2604  -32.0256 H   0  0  0  0  0  0  0  0  0  0  0  0
   -1.8983   21.9100  -33.5812 H   0  0  0  0  0  0  0  0  0  0  0  0
   -3.5610   22.5898  -33.5812 H   0  0  0  0  0  0  0  0  0  0  0  0
  1  2  1  0
  2  3  1  0
  3  4  1  0
  3  5  1  0
  5  6  1  0
  6  7  1  0
  7  8  1  0
  8  9  1  0
  9 10  1  0
 10 11  1  0
 11 12  1  0
 12 13  1  0
 13 14  1  0
 14 15  1  0
 15 16  2  0
 16 17  1  0
 17 18  2  0
 18 19  1  0
 19 20  2  0
 20 21  1  0
 21 22  2  0
 22 23  1  0
 22 24  1  0
 24 25  2  0
 25 26  1  0
 26 27  1  0
 26 28  2  0
 28 29  1  0
 29 30  1  0
 29 31  2  0
 31 15  1  0
 21 16  1  0
 31 24  1  0
  1 32  1  0
  1 33  1  0
  1 34  1  0
  2 35  1  0
  2 36  1  0
  4 37  1  0
  4 38  1  0
  4 39  1  0
  5 40  1  0
  5 41  1  0
  6 42  1  0
  6 43  1  0
  8 44  1  0
  8 45  1  0
  9 46  1  0
  9 47  1  0
 11 48  1  0
 12 49  1  0
 12 50  1  0
 13 51  1  0
 13 52  1  0
 14 53  1  0
 17 54  1  0
 18 55  1  0
 19 56  1  0
 20 57  1  0
 23 58  1  0
 23 59  1  0
 23 60  1  0
 25 61  1  0
 27 62  1  0
 27 63  1  0
 27 64  1  0
 28 65  1  0
 30 66  1  0
 30 67  1  0
 30 68  1  0
M  CHG  1  22   1
M  END
>  <UniqueID>  (8) 
8

>  <SMILES>  (8) 
CCN(C)CCOCCONCCNc1c2ccccc2[n+](C)c2cc(C)cc(C)c12

>  <Energy>  (8) 
100.02766148901009

>  <Genealogy>  (8) 
CCN(C)CCOCCONCCNc1c2ccccc2[n+](C)c2cc(C)cc(C)c12 (3D coordinates assigned)
CCN(C)CCOCCONCCNc1c2ccccc2[n+](C)c2cc(C)cc(C)c12 (optimized conformer: 100.02766148901009 kcal/mol)

>  <smiles>  (8) 
CCN(C)CCOCCONCCNc1c2ccccc2[n+](C)c2cc(C)cc(C)c12

>  <score_type>  (8) 
oracle

>  <origin>  (8) 
adg

>  <m_score__min__energy>  (8) 
-9.6999999999999993

>  <m_primary>  (8) 
energy

$$$$
8:0
     RDKit          3D

 51 53  0  0  0  0  0  0  0  0999 V2000
   -4.0730   18.4480  -34.1940 C   0  0  0  0  0  0  0  0  0  0  0  0
   -5.3430   18.1440  -34.9730 C   0  0  0  0  0  0  0  0  0  0  0  0
   -6.4490   18.2240  -34.1000 O   0  0  0  0  0  0  0  0  0  0  0  0
   -6.6740   16.9800  -33.4620 C   0  0  0  0  0  0  0  0  0  0  0  0
   -6.2150   17.0330  -32.0040 C   0  0  0  0  0  0  0  0  0  0  0  0
   -6.6780   18.2280  -31.4140 O   0  0  0  0  0  0  0  0  0  0  0  0
   -8.0800   18.1770  -31.2600 C   0  0  0  0  0  0  0  0  0  0  0  0
   -8.7350   19.2190  -32.1810 C   0  0  0  0  0  0  0  0  0  0  0  0
   -7.7640   19.9700  -33.0020 N   0  0  0  0  0  0  0  0  0  0  0  0
   -7.6880   21.4140  -32.7100 C   0  0  0  0  0  0  0  0  0  0  0  0
   -6.3180   21.8510  -32.2600 C   0  0  0  0  0  0  0  0  0  0  0  0
   -5.1190   21.2190  -32.5650 C   0  0  0  0  0  0  0  0  0  0  0  0
   -4.0760   21.8950  -32.0270 N   0  0  0  0  0  0  0  0  0  0  0  0
   -2.6900   21.5410  -32.1760 C   0  0  0  0  0  0  0  0  0  0  0  0
   -2.1750   21.2040  -33.4360 C   0  0  0  0  0  0  0  0  0  0  0  0
   -0.8240   20.8790  -33.5750 C   0  0  0  0  0  0  0  0  0  0  0  0
    0.0050   20.9090  -32.4530 C   0  0  0  0  0  0  0  0  0  0  0  0
   -0.5010   21.2610  -31.2420 N   0  0  0  0  0  0  0  0  0  0  0  0
   -1.8140   21.5780  -31.0810 C   0  0  0  0  0  0  0  0  0  0  0  0
   -4.6100   22.9420  -31.3570 C   0  0  0  0  0  0  0  0  0  0  0  0
   -3.9530   23.8950  -30.5710 C   0  0  0  0  0  0  0  0  0  0  0  0
   -4.7310   24.8770  -29.9340 C   0  0  0  0  0  0  0  0  0  0  0  0
   -6.1350   24.8800  -30.0720 C   0  0  0  0  0  0  0  0  0  0  0  0
   -6.7760   23.8950  -30.8430 C   0  0  0  0  0  0  0  0  0  0  0  0
   -5.9810   22.9400  -31.4770 C   0  0  0  0  0  0  0  0  0  0  0  0
   -4.2835   18.3976  -33.1155 H   0  0  0  0  0  0  0  0  0  0  0  0
   -3.2993   17.7097  -34.4515 H   0  0  0  0  0  0  0  0  0  0  0  0
   -3.7175   19.4566  -34.4515 H   0  0  0  0  0  0  0  0  0  0  0  0
   -5.4611   18.8760  -35.7856 H   0  0  0  0  0  0  0  0  0  0  0  0
   -5.2818   17.1333  -35.4029 H   0  0  0  0  0  0  0  0  0  0  0  0
   -7.7483   16.7458  -33.4947 H   0  0  0  0  0  0  0  0  0  0  0  0
   -6.0994   16.2027  -33.9870 H   0  0  0  0  0  0  0  0  0  0  0  0
   -6.6247   16.1705  -31.4579 H   0  0  0  0  0  0  0  0  0  0  0  0
   -5.1163   17.0020  -31.9616 H   0  0  0  0  0  0  0  0  0  0  0  0
   -8.4419   17.1730  -31.5266 H   0  0  0  0  0  0  0  0  0  0  0  0
   -8.3422   18.3956  -30.2143 H   0  0  0  0  0  0  0  0  0  0  0  0
   -9.4326   18.6995  -32.8544 H   0  0  0  0  0  0  0  0  0  0  0  0
   -9.2456   19.9480  -31.5346 H   0  0  0  0  0  0  0  0  0  0  0  0
   -8.0040   19.8480  -34.0140 H   0  0  0  0  0  0  0  0  0  0  0  0
   -6.8200   19.5440  -32.8600 H   0  0  0  0  0  0  0  0  0  0  0  0
   -7.9520   21.9705  -33.6214 H   0  0  0  0  0  0  0  0  0  0  0  0
   -8.3871   21.6210  -31.8863 H   0  0  0  0  0  0  0  0  0  0  0  0
   -5.0293   20.2983  -33.1602 H   0  0  0  0  0  0  0  0  0  0  0  0
   -2.8356   21.1956  -34.3155 H   0  0  0  0  0  0  0  0  0  0  0  0
   -0.4175   20.6022  -34.5589 H   0  0  0  0  0  0  0  0  0  0  0  0
    1.0691   20.6475  -32.5489 H   0  0  0  0  0  0  0  0  0  0  0  0
   -2.1904   21.8646  -30.0879 H   0  0  0  0  0  0  0  0  0  0  0  0
   -2.8593   23.8762  -30.4550 H   0  0  0  0  0  0  0  0  0  0  0  0
   -4.2412   25.6495  -29.3229 H   0  0  0  0  0  0  0  0  0  0  0  0
   -6.7317   25.6579  -29.5732 H   0  0  0  0  0  0  0  0  0  0  0  0
   -7.8713   23.8777  -30.9434 H   0  0  0  0  0  0  0  0  0  0  0  0
  1  2  1  0
  2  3  1  0
  3  4  1  0
  4  5  1  0
  5  6  1  0
  6  7  1  0
  7  8  1  0
  8  9  1  0
  9 10  1  0
 10 11  1  0
 11 12  2  0
 12 13  1  0
 13 14  1  0
 14 15  2  0
 15 16  1  0
 16 17  2  0
 17 18  1  0
 18 19  2  0
 13 20  1  0
 20 21  2  0
 21 22  1  0
 22 23  2  0
 23 24  1  0
 24 25  2  0
 25 11  1  0
 19 14  1  0
 25 20  1  0
  1 26  1  0
  1 27  1  0
  1 28  1  0
  2 29  1  0
  2 30  1  0
  4 31  1  0
  4 32  1  0
  5 33  1  0
  5 34  1  0
  7 35  1  0
  7 36  1  0
  8 37  1  0
  8 38  1  0
  9 39  1  0
  9 40  1  0
 10 41  1  0
 10 42  1  0
 12 43  1  0
 15 44  1  0
 16 45  1  0
 17 46  1  0
 19 47  1  0
 21 48  1  0
 22 49  1  0
 23 50  1  0
 24 51  1  0
M  CHG  1   9   1
M  END
>  <UniqueID>  (9) 
9

>  <SMILES>  (9) 
CCOCCOCC[NH2+]Cc1cn(-c2cccnc2)c2ccccc12

>  <Energy>  (9) 
87.66338143159336

>  <Genealogy>  (9) 
CCOCCOCC[NH2+]Cc1cn(-c2cccnc2)c2ccccc12 (protonated)
CCOCCOCC[NH2+]Cc1cn(-c2cccnc2)c2ccccc12 (3D coordinates assigned)
CCOCCOCC[NH2+]Cc1cn(-c2cccnc2)c2ccccc12 (optimized conformer: 87.66338143159336 kcal/mol)

>  <smiles>  (9) 
CCOCCOCCNCc1cn(-c2cccnc2)c2ccccc12

>  <score_type>  (9) 
oracle

>  <origin>  (9) 
adg

>  <m_score__min__energy>  (9) 
-7.3600000000000003

>  <m_primary>  (9) 
energy

$$$$
9:0
     RDKit          3D

 78 81  0  0  0  0  0  0  0  0999 V2000
   -6.7590   17.7680  -31.2690 C   0  0  0  0  0  0  0  0  0  0  0  0
   -5.6090   16.9600  -31.8800 C   0  0  0  0  0  0  0  0  0  0  0  0
   -5.9670   16.1670  -33.0850 N   0  0  0  0  0  0  0  0  0  0  0  0
   -5.0190   15.0440  -33.3580 C   0  0  0  0  0  0  0  0  0  0  0  0
   -4.5120   14.2740  -32.1240 C   0  0  0  0  0  0  0  0  0  0  0  0
   -6.2880   17.0330  -34.2520 C   0  0  0  0  0  0  0  0  0  0  0  0
   -5.3570   18.2540  -34.3720 C   0  0  0  0  0  0  0  0  0  0  0  0
   -6.1180   19.5040  -34.3500 N   0  0  0  0  0  0  0  0  0  0  0  0
   -5.9790   20.4490  -33.2740 C   0  0  0  0  0  0  0  0  0  0  0  0
   -7.1030   20.8360  -32.5250 C   0  0  0  0  0  0  0  0  0  0  0  0
   -8.3550   20.2150  -32.7210 C   0  0  0  0  0  0  0  0  0  0  0  0
   -9.4600   20.5850  -31.9620 C   0  0  0  0  0  0  0  0  0  0  0  0
   -9.3380   21.5700  -30.9880 C   0  0  0  0  0  0  0  0  0  0  0  0
   -8.1100   22.1950  -30.7730 C   0  0  0  0  0  0  0  0  0  0  0  0
   -6.9700   21.8530  -31.5450 C   0  0  0  0  0  0  0  0  0  0  0  0
   -5.7550   22.4820  -31.3610 N   0  0  0  0  0  0  0  0  0  0  0  0
   -5.7190   23.7960  -30.6820 C   0  0  0  0  0  0  0  0  0  0  0  0
   -4.6020   21.9350  -31.9020 C   0  0  0  0  0  0  0  0  0  0  0  0
   -3.2950   22.3100  -31.4570 C   0  0  0  0  0  0  0  0  0  0  0  0
   -3.1480   23.0840  -30.2910 O   0  0  0  0  0  0  0  0  0  0  0  0
   -1.9250   23.4840  -29.6770 C   0  0  0  0  0  0  0  0  0  0  0  0
   -1.6100   22.6980  -28.3790 C   0  0  0  0  0  0  0  0  0  0  0  0
   -1.1500   21.2760  -28.5470 N   0  0  0  0  0  0  0  0  0  0  0  0
   -0.1190   21.1990  -29.6150 C   0  0  0  0  0  0  0  0  0  0  0  0
   -0.5780   20.7550  -27.2590 C   0  0  0  0  0  0  0  0  0  0  0  0
   -0.8360   19.2500  -27.0520 C   0  0  0  0  0  0  0  0  0  0  0  0
   -2.2870   18.9370  -27.0050 N   0  0  0  0  0  0  0  0  0  0  0  0
   -2.7780   18.8640  -25.6180 C   0  0  0  0  0  0  0  0  0  0  0  0
   -3.1160   19.8760  -27.7970 C   0  0  0  0  0  0  0  0  0  0  0  0
   -2.3280   20.4500  -28.9850 C   0  0  0  0  0  0  0  0  0  0  0  0
   -2.1640   21.8450  -32.1550 C   0  0  0  0  0  0  0  0  0  0  0  0
   -2.2990   20.9530  -33.2100 C   0  0  0  0  0  0  0  0  0  0  0  0
   -3.5530   20.4870  -33.5770 C   0  0  0  0  0  0  0  0  0  0  0  0
   -4.7110   20.9500  -32.9230 C   0  0  0  0  0  0  0  0  0  0  0  0
   -6.6958   17.7236  -30.1717 H   0  0  0  0  0  0  0  0  0  0  0  0
   -6.6870   18.8151  -31.5984 H   0  0  0  0  0  0  0  0  0  0  0  0
   -7.7196   17.3453  -31.5984 H   0  0  0  0  0  0  0  0  0  0  0  0
   -4.8096   17.6622  -32.1591 H   0  0  0  0  0  0  0  0  0  0  0  0
   -5.3044   16.2323  -31.1134 H   0  0  0  0  0  0  0  0  0  0  0  0
   -6.8660   15.7000  -32.8130 H   0  0  0  0  0  0  0  0  0  0  0  0
   -5.5288   14.3257  -34.0170 H   0  0  0  0  0  0  0  0  0  0  0  0
   -4.1278   15.5097  -33.8041 H   0  0  0  0  0  0  0  0  0  0  0  0
   -4.8482   14.7846  -31.2095 H   0  0  0  0  0  0  0  0  0  0  0  0
   -4.9130   13.2498  -32.1406 H   0  0  0  0  0  0  0  0  0  0  0  0
   -3.4127   14.2377  -32.1406 H   0  0  0  0  0  0  0  0  0  0  0  0
   -6.1977   16.4324  -35.1691 H   0  0  0  0  0  0  0  0  0  0  0  0
   -7.3102   17.4127  -34.1075 H   0  0  0  0  0  0  0  0  0  0  0  0
   -4.6494   18.2498  -33.5298 H   0  0  0  0  0  0  0  0  0  0  0  0
   -4.8201   18.1899  -35.3299 H   0  0  0  0  0  0  0  0  0  0  0  0
   -6.8350   19.6800  -35.0930 H   0  0  0  0  0  0  0  0  0  0  0  0
   -8.4581   19.4288  -33.4834 H   0  0  0  0  0  0  0  0  0  0  0  0
  -10.4315   20.0980  -32.1323 H   0  0  0  0  0  0  0  0  0  0  0  0
  -10.2125   21.8569  -30.3855 H   0  0  0  0  0  0  0  0  0  0  0  0
   -8.0240   22.9653  -29.9925 H   0  0  0  0  0  0  0  0  0  0  0  0
   -5.7231   23.6459  -29.5923 H   0  0  0  0  0  0  0  0  0  0  0  0
   -4.8058   24.3349  -30.9744 H   0  0  0  0  0  0  0  0  0  0  0  0
   -6.6014   24.3841  -30.9744 H   0  0  0  0  0  0  0  0  0  0  0  0
   -1.1050   23.3218  -30.3920 H   0  0  0  0  0  0  0  0  0  0  0  0
   -2.0280   24.5439  -29.4014 H   0  0  0  0  0  0  0  0  0  0  0  0
   -0.8195   23.2432  -27.8424 H   0  0  0  0  0  0  0  0  0  0  0  0
   -2.5672   22.6313  -27.8412 H   0  0  0  0  0  0  0  0  0  0  0  0
    0.8784   21.1245  -29.1571 H   0  0  0  0  0  0  0  0  0  0  0  0
   -0.3031   20.3121  -30.2391 H   0  0  0  0  0  0  0  0  0  0  0  0
   -0.1693   22.1034  -30.2391 H   0  0  0  0  0  0  0  0  0  0  0  0
    0.5084   20.9273  -27.2626 H   0  0  0  0  0  0  0  0  0  0  0  0
   -1.0755   21.2907  -26.4371 H   0  0  0  0  0  0  0  0  0  0  0  0
   -0.3791   18.6934  -27.8836 H   0  0  0  0  0  0  0  0  0  0  0  0
   -0.3934   18.9582  -26.0882 H   0  0  0  0  0  0  0  0  0  0  0  0
   -1.9344   18.9894  -24.9233 H   0  0  0  0  0  0  0  0  0  0  0  0
   -3.5152   19.6624  -25.4475 H   0  0  0  0  0  0  0  0  0  0  0  0
   -3.2510   17.8857  -25.4475 H   0  0  0  0  0  0  0  0  0  0  0  0
   -3.9989   19.3414  -28.1773 H   0  0  0  0  0  0  0  0  0  0  0  0
   -3.4168   20.7090  -27.1446 H   0  0  0  0  0  0  0  0  0  0  0  0
   -1.9642   19.6162  -29.6034 H   0  0  0  0  0  0  0  0  0  0  0  0
   -3.0056   21.1063  -29.5509 H   0  0  0  0  0  0  0  0  0  0  0  0
   -1.1625   22.1924  -31.8611 H   0  0  0  0  0  0  0  0  0  0  0  0
   -1.4073   20.6140  -33.7577 H   0  0  0  0  0  0  0  0  0  0  0  0
   -3.6437   19.7484  -34.3871 H   0  0  0  0  0  0  0  0  0  0  0  0
  1  2  1  0
  2  3  1  0
  3  4  1  0
  4  5  1  0
  3  6  1  0
  6  7  1  0
  7  8  1  0
  8  9  1  0
  9 10  2  0
 10 11  1  0
 11 12  2  0
 12 13  1  0
 13 14  2  0
 14 15  1  0
 15 16  2  0
 16 17  1  0
 16 18  1  0
 18 19  2  0
 19 20  1  0
 20 21  1  0
 21 22  1  0
 22 23  1  0
 23 24  1  0
 23 25  1  0
 25 26  1  0
 26 27  1  0
 27 28  1  0
 27 29  1  0
 29 30  1  0
 19 31  1  0
 31 32  2  0
 32 33  1  0
 33 34  2  0
 34  9  1  0
 15 10  1  0
 34 18  1  0
 30 23  1  0
  1 35  1  0
  1 36  1  0
  1 37  1  0
  2 38  1  0
  2 39  1  0
  3 40  1  0
  4 41  1  0
  4 42  1  0
  5 43  1  0
  5 44  1  0
  5 45  1  0
  6 46  1  0
  6 47  1  0
  7 48  1  0
  7 49  1  0
  8 50  1  0
 11 51  1  0
 12 52  1  0
 13 53  1  0
 14 54  1  0
 17 55  1  0
 17 56  1  0
 17 57  1  0
 21 58  1  0
 21 59  1  0
 22 60  1  0
 22 61  1  0
 24 62  1  0
 24 63  1  0
 24 64  1  0
 25 65  1  0
 25 66  1  0
 26 67  1  0
 26 68  1  0
 28 69  1  0
 28 70  1  0
 28 71  1  0
 29 72  1  0
 29 73  1  0
 30 74  1  0
 30 75  1  0
 31 76  1  0
 32 77  1  0
 33 78  1  0
M  CHG  3   3   1  16   1  23   1
M  END
>  <UniqueID>  (10) 
10

>  <SMILES>  (10) 
CC[NH+](CC)CCNc1c2ccccc2[n+](C)c2c(OCC[N+]3(C)CCN(C)CC3)cccc12

>  <Energy>  (10) 
137.83352566380904

>  <Genealogy>  (10) 
CC[NH+](CC)CCNc1c2ccccc2[n+](C)c2c(OCC[N+]3(C)CCN(C)CC3)cccc12 (protonated)
CC[NH+](CC)CCNc1c2ccccc2[n+](C)c2c(OCC[N+]3(C)CCN(C)CC3)cccc12 (3D coordinates assigned)
CC[NH+](CC)CCNc1c2ccccc2[n+](C)c2c(OCC[N+]3(C)CCN(C)CC3)cccc12 (nonaromatic ring conformer: 137.83352566380904 kcal/mol)

>  <smiles>  (10) 
CCN(CC)CCNc1c2ccccc2[n+](C)c2c(OCC[N+]3(C)CCN(C)CC3)cccc12

>  <score_type>  (10) 
oracle

>  <origin>  (10) 
adg

>  <m_score__min__energy>  (10) 
-7.4699999999999998

>  <m_primary>  (10) 
energy

$$$$
10:0
     RDKit          3D

 56 58  0  0  0  0  0  0  0  0999 V2000
   -9.1720   18.9250  -32.3550 C   0  0  0  0  0  0  0  0  0  0  0  0
   -8.1540   17.9500  -32.3020 O   0  0  0  0  0  0  0  0  0  0  0  0
   -7.2680   18.2550  -31.2420 C   0  0  0  0  0  0  0  0  0  0  0  0
   -6.1160   17.2430  -31.2250 C   0  0  0  0  0  0  0  0  0  0  0  0
   -6.1300   16.3240  -32.4560 C   0  0  0  0  0  0  0  0  0  0  0  0
   -4.8510   15.6000  -32.5580 N   0  0  0  0  0  0  0  0  0  0  0  0
   -4.7110   14.8640  -33.8250 C   0  0  0  0  0  0  0  0  0  0  0  0
   -3.8480   15.6100  -34.8500 C   0  0  0  0  0  0  0  0  0  0  0  0
   -4.5510   16.7440  -35.3530 O   0  0  0  0  0  0  0  0  0  0  0  0
   -4.7680   17.9210  -34.6220 C   0  0  0  0  0  0  0  0  0  0  0  0
   -6.0470   18.5250  -34.6870 C   0  0  0  0  0  0  0  0  0  0  0  0
   -6.3200   19.7190  -33.9910 C   0  0  0  0  0  0  0  0  0  0  0  0
   -5.2880   20.2780  -33.2360 C   0  0  0  0  0  0  0  0  0  0  0  0
   -4.0590   19.6950  -33.1620 C   0  0  0  0  0  0  0  0  0  0  0  0
   -3.7510   18.5170  -33.8350 C   0  0  0  0  0  0  0  0  0  0  0  0
   -3.2830   20.4180  -32.3920 O   0  0  0  0  0  0  0  0  0  0  0  0
   -4.0160   21.4420  -31.9830 C   0  0  0  0  0  0  0  0  0  0  0  0
   -3.4820   22.4810  -31.0780 C   0  0  0  0  0  0  0  0  0  0  0  0
   -4.2600   23.6150  -30.7980 C   0  0  0  0  0  0  0  0  0  0  0  0
   -3.7610   24.6280  -29.9740 C   0  0  0  0  0  0  0  0  0  0  0  0
   -2.4680   24.5420  -29.4470 C   0  0  0  0  0  0  0  0  0  0  0  0
   -1.9940   25.6010  -28.6020 N   0  0  0  0  0  0  0  0  0  0  0  0
   -0.8390   25.5550  -27.7570 C   0  0  0  0  0  0  0  0  0  0  0  0
   -0.8820   26.2050  -26.4160 C   0  0  0  0  0  0  0  0  0  0  0  0
    0.2310   25.0200  -28.1540 O   0  0  0  0  0  0  0  0  0  0  0  0
   -1.6880   23.4060  -29.7220 C   0  0  0  0  0  0  0  0  0  0  0  0
   -2.1860   22.3900  -30.5430 C   0  0  0  0  0  0  0  0  0  0  0  0
   -5.2780   21.4070  -32.5040 N   0  0  0  0  0  0  0  0  0  0  0  0
   -6.3560   22.3850  -32.3680 C   0  0  0  0  0  0  0  0  0  0  0  0
   -9.4648   19.2054  -31.3324 H   0  0  0  0  0  0  0  0  0  0  0  0
   -8.8013   19.8136  -32.8870 H   0  0  0  0  0  0  0  0  0  0  0  0
  -10.0438   18.5163  -32.8870 H   0  0  0  0  0  0  0  0  0  0  0  0
   -6.8630   19.2679  -31.3837 H   0  0  0  0  0  0  0  0  0  0  0  0
   -7.8113   18.2051  -30.2868 H   0  0  0  0  0  0  0  0  0  0  0  0
   -5.1630   17.7920  -31.2040 H   0  0  0  0  0  0  0  0  0  0  0  0
   -6.2353   16.6118  -30.3321 H   0  0  0  0  0  0  0  0  0  0  0  0
   -6.9522   15.5995  -32.3606 H   0  0  0  0  0  0  0  0  0  0  0  0
   -6.2734   16.9335  -33.3604 H   0  0  0  0  0  0  0  0  0  0  0  0
   -4.7570   14.9390  -31.7530 H   0  0  0  0  0  0  0  0  0  0  0  0
   -4.2460   13.8892  -33.6163 H   0  0  0  0  0  0  0  0  0  0  0  0
   -5.7165   14.7507  -34.2565 H   0  0  0  0  0  0  0  0  0  0  0  0
   -2.9176   15.9439  -34.3674 H   0  0  0  0  0  0  0  0  0  0  0  0
   -3.6157   14.9323  -35.6847 H   0  0  0  0  0  0  0  0  0  0  0  0
   -6.8385   18.0553  -35.2894 H   0  0  0  0  0  0  0  0  0  0  0  0
   -7.3111   20.1937  -34.0409 H   0  0  0  0  0  0  0  0  0  0  0  0
   -2.7518   18.0634  -33.7589 H   0  0  0  0  0  0  0  0  0  0  0  0
   -5.2678   23.7072  -31.2292 H   0  0  0  0  0  0  0  0  0  0  0  0
   -4.3898   25.4993  -29.7382 H   0  0  0  0  0  0  0  0  0  0  0  0
   -0.8310   25.4340  -25.6330 H   0  0  0  0  0  0  0  0  0  0  0  0
   -0.0272   26.8896  -26.3128 H   0  0  0  0  0  0  0  0  0  0  0  0
   -1.8196   26.7710  -26.3128 H   0  0  0  0  0  0  0  0  0  0  0  0
   -0.6808   23.3157  -29.2892 H   0  0  0  0  0  0  0  0  0  0  0  0
   -1.5600   21.5148  -30.7713 H   0  0  0  0  0  0  0  0  0  0  0  0
   -6.5549   22.5655  -31.3013 H   0  0  0  0  0  0  0  0  0  0  0  0
   -6.0586   23.3279  -32.8502 H   0  0  0  0  0  0  0  0  0  0  0  0
   -7.2656   21.9975  -32.8502 H   0  0  0  0  0  0  0  0  0  0  0  0
  1  2  1  0
  2  3  1  0
  3  4  1  0
  4  5  1  0
  5  6  1  0
  6  7  1  0
  7  8  1  0
  8  9  1  0
  9 10  1  0
 10 11  2  0
 11 12  1  0
 12 13  2  0
 13 14  1  0
 14 15  2  0
 14 16  1  0
 16 17  1  0
 17 18  1  0
 18 19  2  0
 19 20  1  0
 20 21  2  0
 21 22  1  0
 22 23  1  0
 23 24  1  0
 23 25  2  0
 21 26  1  0
 26 27  2  0
 17 28  2  0
 28 29  1  0
 15 10  1  0
 27 18  1  0
 28 13  1  0
  1 30  1  0
  1 31  1  0
  1 32  1  0
  3 33  1  0
  3 34  1  0
  4 35  1  0
  4 36  1  0
  5 37  1  0
  5 38  1  0
  6 39  1  0
  7 40  1  0
  7 41  1  0
  8 42  1  0
  8 43  1  0
 11 44  1  0
 12 45  1  0
 15 46  1  0
 19 47  1  0
 20 48  1  0
 24 49  1  0
 24 50  1  0
 24 51  1  0
 26 52  1  0
 27 53  1  0
 29 54  1  0
 29 55  1  0
 29 56  1  0
M  CHG  2  22  -1  28   1
M  END
>  <UniqueID>  (11) 
11

>  <SMILES>  (11) 
COCCCNCCOc1ccc2c(c1)oc(-c1ccc([N-]C(C)=O)cc1)[n+]2C

>  <Energy>  (11) 
99.63285453478358

>  <Genealogy>  (11) 
COCCCNCCOc1ccc2c(c1)oc(-c1ccc([N-]C(C)=O)cc1)[n+]2C (protonated)
COCCCNCCOc1ccc2c(c1)oc(-c1ccc([N-]C(C)=O)cc1)[n+]2C (3D coordinates assigned)
COCCCNCCOc1ccc2c(c1)oc(-c1ccc([N-]C(C)=O)cc1)[n+]2C (optimized conformer: 99.63285453478358 kcal/mol)

>  <smiles>  (11) 
COCCCNCCOc1ccc2c(c1)oc(-c1ccc(NC(C)=O)cc1)[n+]2C

>  <score_type>  (11) 
oracle

>  <origin>  (11) 
adg

>  <m_score__min__energy>  (11) 
-7.5599999999999996

>  <m_primary>  (11) 
energy

$$$$
11:0
     RDKit          3D

 58 60  0  0  0  0  0  0  0  0999 V2000
   -3.0520   21.6100  -27.8950 C   0  0  0  0  0  0  0  0  0  0  0  0
   -2.7460   20.7090  -29.0890 C   0  0  0  0  0  0  0  0  0  0  0  0
   -1.7390   21.2870  -29.9030 O   0  0  0  0  0  0  0  0  0  0  0  0
   -1.5790   20.5750  -31.1150 C   0  0  0  0  0  0  0  0  0  0  0  0
   -1.4070   21.5500  -32.2930 C   0  0  0  0  0  0  0  0  0  0  0  0
   -2.5860   21.5690  -33.1640 N   0  0  0  0  0  0  0  0  0  0  0  0
   -3.9260   21.4350  -32.6640 C   0  0  0  0  0  0  0  0  0  0  0  0
   -4.4160   22.3820  -31.7450 C   0  0  0  0  0  0  0  0  0  0  0  0
   -3.5600   23.3420  -31.1620 C   0  0  0  0  0  0  0  0  0  0  0  0
   -4.0360   24.2650  -30.2340 C   0  0  0  0  0  0  0  0  0  0  0  0
   -3.1330   25.1950  -29.6960 O   0  0  0  0  0  0  0  0  0  0  0  0
   -2.2570   24.9220  -28.6100 C   0  0  0  0  0  0  0  0  0  0  0  0
   -5.3850   24.2250  -29.8630 C   0  0  0  0  0  0  0  0  0  0  0  0
   -6.2440   23.2830  -30.4240 C   0  0  0  0  0  0  0  0  0  0  0  0
   -5.7840   22.3530  -31.3870 C   0  0  0  0  0  0  0  0  0  0  0  0
   -6.6270   21.4210  -31.9550 N   0  0  0  0  0  0  0  0  0  0  0  0
   -8.0940   21.5900  -31.8450 C   0  0  0  0  0  0  0  0  0  0  0  0
   -6.1010   20.3380  -32.6380 C   0  0  0  0  0  0  0  0  0  0  0  0
   -6.8910   19.2050  -32.9160 C   0  0  0  0  0  0  0  0  0  0  0  0
   -6.4000   18.1120  -33.6430 C   0  0  0  0  0  0  0  0  0  0  0  0
   -7.2190   17.0010  -33.9060 O   0  0  0  0  0  0  0  0  0  0  0  0
   -6.7990   15.6370  -33.8780 C   0  0  0  0  0  0  0  0  0  0  0  0
   -5.0690   18.1310  -34.1150 C   0  0  0  0  0  0  0  0  0  0  0  0
   -4.5060   17.0520  -34.8260 O   0  0  0  0  0  0  0  0  0  0  0  0
   -3.6540   16.0250  -34.3240 C   0  0  0  0  0  0  0  0  0  0  0  0
   -4.2450   19.2570  -33.8440 C   0  0  0  0  0  0  0  0  0  0  0  0
   -2.9170   19.3340  -34.3180 O   0  0  0  0  0  0  0  0  0  0  0  0
   -1.7920   18.5790  -33.8850 C   0  0  0  0  0  0  0  0  0  0  0  0
   -4.7440   20.3400  -33.0550 C   0  0  0  0  0  0  0  0  0  0  0  0
   -2.8647   21.0584  -26.9619 H   0  0  0  0  0  0  0  0  0  0  0  0
   -2.4055   22.4992  -27.9314 H   0  0  0  0  0  0  0  0  0  0  0  0
   -4.1063   21.9215  -27.9314 H   0  0  0  0  0  0  0  0  0  0  0  0
   -2.3995   19.7307  -28.7246 H   0  0  0  0  0  0  0  0  0  0  0  0
   -3.6612   20.5888  -29.6873 H   0  0  0  0  0  0  0  0  0  0  0  0
   -0.6886   19.9331  -31.0431 H   0  0  0  0  0  0  0  0  0  0  0  0
   -2.4752   19.9613  -31.2885 H   0  0  0  0  0  0  0  0  0  0  0  0
   -1.2423   22.5623  -31.8955 H   0  0  0  0  0  0  0  0  0  0  0  0
   -0.5471   21.2137  -32.8909 H   0  0  0  0  0  0  0  0  0  0  0  0
   -2.4410   21.5700  -34.2020 H   0  0  0  0  0  0  0  0  0  0  0  0
   -2.4975   23.3611  -31.4461 H   0  0  0  0  0  0  0  0  0  0  0  0
   -2.7874   25.0873  -27.6606 H   0  0  0  0  0  0  0  0  0  0  0  0
   -1.9201   23.8763  -28.6646 H   0  0  0  0  0  0  0  0  0  0  0  0
   -1.3857   25.5912  -28.6646 H   0  0  0  0  0  0  0  0  0  0  0  0
   -5.7695   24.9425  -29.1232 H   0  0  0  0  0  0  0  0  0  0  0  0
   -7.2989   23.2613  -30.1131 H   0  0  0  0  0  0  0  0  0  0  0  0
   -8.3807   21.6230  -30.7835 H   0  0  0  0  0  0  0  0  0  0  0  0
   -8.3927   22.5285  -32.3349 H   0  0  0  0  0  0  0  0  0  0  0  0
   -8.5983   20.7440  -32.3349 H   0  0  0  0  0  0  0  0  0  0  0  0
   -7.9280   19.1774  -32.5502 H   0  0  0  0  0  0  0  0  0  0  0  0
   -6.6971   15.3061  -32.8339 H   0  0  0  0  0  0  0  0  0  0  0  0
   -7.5465   15.0126  -34.3893 H   0  0  0  0  0  0  0  0  0  0  0  0
   -5.8297   15.5412  -34.3893 H   0  0  0  0  0  0  0  0  0  0  0  0
   -3.6680   16.0419  -33.2242 H   0  0  0  0  0  0  0  0  0  0  0  0
   -4.0095   15.0469  -34.6802 H   0  0  0  0  0  0  0  0  0  0  0  0
   -2.6271   16.1938  -34.6802 H   0  0  0  0  0  0  0  0  0  0  0  0
   -1.7641   18.5603  -32.7855 H   0  0  0  0  0  0  0  0  0  0  0  0
   -1.8714   17.5506  -34.2673 H   0  0  0  0  0  0  0  0  0  0  0  0
   -0.8704   19.0422  -34.2673 H   0  0  0  0  0  0  0  0  0  0  0  0
  1  2  1  0
  2  3  1  0
  3  4  1  0
  4  5  1  0
  5  6  1  0
  6  7  1  0
  7  8  2  0
  8  9  1  0
  9 10  2  0
 10 11  1  0
 11 12  1  0
 10 13  1  0
 13 14  2  0
 14 15  1  0
 15 16  2  0
 16 17  1  0
 16 18  1  0
 18 19  2  0
 19 20  1  0
 20 21  1  0
 21 22  1  0
 20 23  2  0
 23 24  1  0
 24 25  1  0
 23 26  1  0
 26 27  1  0
 27 28  1  0
 26 29  2  0
 29  7  1  0
 15  8  1  0
 29 18  1  0
  1 30  1  0
  1 31  1  0
  1 32  1  0
  2 33  1  0
  2 34  1  0
  4 35  1  0
  4 36  1  0
  5 37  1  0
  5 38  1  0
  6 39  1  0
  9 40  1  0
 12 41  1  0
 12 42  1  0
 12 43  1  0
 13 44  1  0
 14 45  1  0
 17 46  1  0
 17 47  1  0
 17 48  1  0
 19 49  1  0
 22 50  1  0
 22 51  1  0
 22 52  1  0
 25 53  1  0
 25 54  1  0
 25 55  1  0
 28 56  1  0
 28 57  1  0
 28 58  1  0
M  CHG  1  16   1
M  END
>  <UniqueID>  (12) 
12

>  <SMILES>  (12) 
CCOCCNc1c2cc(OC)ccc2[n+](C)c2cc(OC)c(OC)c(OC)c12

>  <Energy>  (12) 
95.06021132247035

>  <Genealogy>  (12) 
CCOCCNc1c2cc(OC)ccc2[n+](C)c2cc(OC)c(OC)c(OC)c12 (3D coordinates assigned)
CCOCCNc1c2cc(OC)ccc2[n+](C)c2cc(OC)c(OC)c(OC)c12 (optimized conformer: 95.06021132247035 kcal/mol)

>  <smiles>  (12) 
CCOCCNc1c2cc(OC)ccc2[n+](C)c2cc(OC)c(OC)c(OC)c12

>  <score_type>  (12) 
oracle

>  <origin>  (12) 
adg

>  <m_score__min__energy>  (12) 
-7.0199999999999996

>  <m_primary>  (12) 
energy

$$$$
12:0
     RDKit          3D

 58 60  0  0  0  0  0  0  0  0999 V2000
   -2.4930   20.2970  -27.4860 C   0  0  0  0  0  0  0  0  0  0  0  0
   -2.2650   20.4500  -28.9890 C   0  0  0  0  0  0  0  0  0  0  0  0
   -1.0960   21.3030  -29.2570 N   0  0  0  0  0  0  0  0  0  0  0  0
   -1.4440   22.4650  -30.0990 C   0  0  0  0  0  0  0  0  0  0  0  0
   -1.2650   23.8090  -29.3540 C   0  0  0  0  0  0  0  0  0  0  0  0
   -2.5940   24.5260  -29.0550 C   0  0  0  0  0  0  0  0  0  0  0  0
   -3.8350   23.7690  -29.5500 C   0  0  0  0  0  0  0  0  0  0  0  0
   -4.1860   24.1780  -30.9180 N   0  0  0  0  0  0  0  0  0  0  0  0
   -5.5350   24.7610  -30.9770 C   0  0  0  0  0  0  0  0  0  0  0  0
   -6.5600   23.7080  -31.4070 C   0  0  0  0  0  0  0  0  0  0  0  0
   -6.0790   22.9560  -32.5670 N   0  0  0  0  0  0  0  0  0  0  0  0
   -5.9740   21.5210  -32.5500 C   0  0  0  0  0  0  0  0  0  0  0  0
   -7.1240   20.7220  -32.4220 C   0  0  0  0  0  0  0  0  0  0  0  0
   -8.3900   21.3070  -32.2040 C   0  0  0  0  0  0  0  0  0  0  0  0
   -9.5390   20.5210  -32.1620 C   0  0  0  0  0  0  0  0  0  0  0  0
   -9.4480   19.1450  -32.3350 C   0  0  0  0  0  0  0  0  0  0  0  0
   -8.2030   18.5410  -32.5050 C   0  0  0  0  0  0  0  0  0  0  0  0
   -7.0080   19.3090  -32.5010 C   0  0  0  0  0  0  0  0  0  0  0  0
   -5.7620   18.7160  -32.5780 N   0  0  0  0  0  0  0  0  0  0  0  0
   -5.6230   17.2560  -32.3750 C   0  0  0  0  0  0  0  0  0  0  0  0
   -4.6380   19.4900  -32.8010 C   0  0  0  0  0  0  0  0  0  0  0  0
   -3.3810   18.9120  -33.1170 C   0  0  0  0  0  0  0  0  0  0  0  0
   -2.2450   19.7020  -33.2820 C   0  0  0  0  0  0  0  0  0  0  0  0
   -2.3270   21.0830  -33.1490 C   0  0  0  0  0  0  0  0  0  0  0  0
   -1.2150   21.8450  -33.3000 F   0  0  0  0  0  0  0  0  0  0  0  0
   -3.5540   21.6850  -32.8850 C   0  0  0  0  0  0  0  0  0  0  0  0
   -4.7220   20.9080  -32.7370 C   0  0  0  0  0  0  0  0  0  0  0  0
   -1.7006   20.8288  -26.9389 H   0  0  0  0  0  0  0  0  0  0  0  0
   -3.4718   20.7218  -27.2185 H   0  0  0  0  0  0  0  0  0  0  0  0
   -2.4708   19.2303  -27.2185 H   0  0  0  0  0  0  0  0  0  0  0  0
   -2.0955   19.4570  -29.4308 H   0  0  0  0  0  0  0  0  0  0  0  0
   -3.1540   20.9209  -29.4339 H   0  0  0  0  0  0  0  0  0  0  0  0
   -0.6790   21.6240  -28.3560 H   0  0  0  0  0  0  0  0  0  0  0  0
   -0.3780   20.7330  -29.7640 H   0  0  0  0  0  0  0  0  0  0  0  0
   -0.7950   22.4645  -30.9872 H   0  0  0  0  0  0  0  0  0  0  0  0
   -2.5050   22.3734  -30.3744 H   0  0  0  0  0  0  0  0  0  0  0  0
   -0.7526   23.6132  -28.4005 H   0  0  0  0  0  0  0  0  0  0  0  0
   -0.6817   24.4693  -30.0126 H   0  0  0  0  0  0  0  0  0  0  0  0
   -2.6796   24.6567  -27.9662 H   0  0  0  0  0  0  0  0  0  0  0  0
   -2.5682   25.4841  -29.5949 H   0  0  0  0  0  0  0  0  0  0  0  0
   -3.6266   22.6890  -29.5389 H   0  0  0  0  0  0  0  0  0  0  0  0
   -4.6791   24.0034  -28.8848 H   0  0  0  0  0  0  0  0  0  0  0  0
   -3.5090   24.9220  -31.2090 H   0  0  0  0  0  0  0  0  0  0  0  0
   -5.8066   25.1446  -29.9825 H   0  0  0  0  0  0  0  0  0  0  0  0
   -5.5359   25.5778  -31.7138 H   0  0  0  0  0  0  0  0  0  0  0  0
   -6.7333   23.0121  -30.5729 H   0  0  0  0  0  0  0  0  0  0  0  0
   -7.4951   24.2183  -31.6813 H   0  0  0  0  0  0  0  0  0  0  0  0
   -5.8890   23.4650  -33.4590 H   0  0  0  0  0  0  0  0  0  0  0  0
   -8.4699   22.3954  -32.0658 H   0  0  0  0  0  0  0  0  0  0  0  0
  -10.5195   20.9897  -31.9917 H   0  0  0  0  0  0  0  0  0  0  0  0
  -10.3606   18.5309  -32.3378 H   0  0  0  0  0  0  0  0  0  0  0  0
   -8.1451   17.4514  -32.6446 H   0  0  0  0  0  0  0  0  0  0  0  0
   -5.6021   17.0360  -31.2974 H   0  0  0  0  0  0  0  0  0  0  0  0
   -6.4759   16.7385  -32.8384 H   0  0  0  0  0  0  0  0  0  0  0  0
   -4.6877   16.9088  -32.8384 H   0  0  0  0  0  0  0  0  0  0  0  0
   -3.3020   17.8211  -33.2338 H   0  0  0  0  0  0  0  0  0  0  0  0
   -1.2796   19.2307  -33.5184 H   0  0  0  0  0  0  0  0  0  0  0  0
   -3.6135   22.7793  -32.7907 H   0  0  0  0  0  0  0  0  0  0  0  0
  1  2  1  0
  2  3  1  0
  3  4  1  0
  4  5  1  0
  5  6  1  0
  6  7  1  0
  7  8  1  0
  8  9  1  0
  9 10  1  0
 10 11  1  0
 11 12  1  0
 12 13  2  0
 13 14  1  0
 14 15  2  0
 15 16  1  0
 16 17  2  0
 17 18  1  0
 18 19  2  0
 19 20  1  0
 19 21  1  0
 21 22  2  0
 22 23  1  0
 23 24  2  0
 24 25  1  0
 24 26  1  0
 26 27  2  0
 27 12  1  0
 18 13  1  0
 27 21  1  0
  1 28  1  0
  1 29  1  0
  1 30  1  0
  2 31  1  0
  2 32  1  0
  3 33  1  0
  3 34  1  0
  4 35  1  0
  4 36  1  0
  5 37  1  0
  5 38  1  0
  6 39  1  0
  6 40  1  0
  7 41  1  0
  7 42  1  0
  8 43  1  0
  9 44  1  0
  9 45  1  0
 10 46  1  0
 10 47  1  0
 11 48  1  0
 14 49  1  0
 15 50  1  0
 16 51  1  0
 17 52  1  0
 20 53  1  0
 20 54  1  0
 20 55  1  0
 22 56  1  0
 23 57  1  0
 26 58  1  0
M  CHG  2   3   1  19   1
M  END
>  <UniqueID>  (13) 
13

>  <SMILES>  (13) 
CC[NH2+]CCCCNCCNc1c2ccccc2[n+](C)c2ccc(F)cc12

>  <Energy>  (13) 
77.21971851007429

>  <Genealogy>  (13) 
CC[NH2+]CCCCNCCNc1c2ccccc2[n+](C)c2ccc(F)cc12 (protonated)
CC[NH2+]CCCCNCCNc1c2ccccc2[n+](C)c2ccc(F)cc12 (3D coordinates assigned)
CC[NH2+]CCCCNCCNc1c2ccccc2[n+](C)c2ccc(F)cc12 (optimized conformer: 77.21971851007429 kcal/mol)

>  <smiles>  (13) 
CCNCCCCNCCNc1c2ccccc2[n+](C)c2ccc(F)cc12

>  <score_type>  (13) 
oracle

>  <origin>  (13) 
adg

>  <m_score__min__energy>  (13) 
-8.5999999999999996

>  <m_primary>  (13) 
energy

$$$$
13:0
     RDKit          3D

 48 50  0  0  1  0  0  0  0  0999 V2000
   -8.7400   23.0220  -31.9530 C   0  0  0  0  0  0  0  0  0  0  0  0
   -7.3240   23.3020  -32.4040 C   0  0  0  0  0  0  0  0  0  0  0  0
   -6.4190   23.5630  -31.3150 N   0  0  0  0  0  0  0  0  0  0  0  0
   -6.9020   24.5900  -30.4110 C   0  0  0  0  0  0  0  0  0  0  0  0
   -5.7490   25.5520  -30.0870 C   0  0  0  0  0  0  0  0  0  0  0  0
   -4.5960   25.0630  -30.8200 N   0  0  0  0  0  0  0  0  0  0  0  0
   -3.6850   24.3070  -30.3090 C   0  0  0  0  0  0  0  0  0  0  0  0
   -3.0120   24.6230  -29.1840 N   0  0  0  0  0  0  0  0  0  0  0  0
   -2.0630   23.8390  -28.6470 C   0  0  0  0  0  0  0  0  0  0  0  0
   -1.7870   22.6730  -29.2920 N   0  0  0  0  0  0  0  0  0  0  0  0
   -2.4220   22.3130  -30.4070 C   0  0  0  0  0  0  0  0  0  0  0  0
   -3.3810   23.1210  -30.9340 C   0  0  0  0  0  0  0  0  0  0  0  0
   -3.8460   22.5580  -32.0100 N   0  0  0  0  0  0  0  0  0  0  0  0
   -3.2030   21.3270  -32.2430 C   0  0  0  0  0  0  0  0  0  0  0  0
   -3.6020   20.6150  -33.4420 C   0  0  0  0  0  0  0  0  0  0  0  0
   -4.3290   19.3700  -33.4530 C   0  0  0  0  0  0  0  0  0  0  0  0
   -5.7270   19.3140  -33.0140 C   0  0  0  0  0  0  0  0  0  0  0  0
   -6.7700   20.1160  -33.3360 C   0  0  0  0  0  0  0  0  0  0  0  0
   -8.0590   19.9110  -32.8640 C   0  0  0  0  0  0  0  0  0  0  0  0
   -8.3650   18.8660  -32.0240 C   0  0  0  0  0  0  0  0  0  0  0  0
   -7.3070   18.0290  -31.6790 C   0  0  0  0  0  0  0  0  0  0  0  0
   -6.0340   18.2370  -32.1490 C   0  0  0  0  0  0  0  0  0  0  0  0
   -2.3600   21.2330  -31.2530 N   0  0  0  0  0  0  0  0  0  0  0  0
   -1.3900   20.1910  -30.9960 C   0  0  0  0  0  0  0  0  0  0  0  0
   -8.7799   23.0141  -30.8538 H   0  0  0  0  0  0  0  0  0  0  0  0
   -9.4093   23.8052  -32.3386 H   0  0  0  0  0  0  0  0  0  0  0  0
   -9.0608   22.0430  -32.3386 H   0  0  0  0  0  0  0  0  0  0  0  0
   -6.9562   22.4280  -32.9614 H   0  0  0  0  0  0  0  0  0  0  0  0
   -7.3542   24.2087  -33.0261 H   0  0  0  0  0  0  0  0  0  0  0  0
   -5.5230   23.8910  -31.7400 H   0  0  0  0  0  0  0  0  0  0  0  0
   -7.7229   25.1453  -30.8882 H   0  0  0  0  0  0  0  0  0  0  0  0
   -7.2713   24.1264  -29.4844 H   0  0  0  0  0  0  0  0  0  0  0  0
   -6.0016   26.5726  -30.4102 H   0  0  0  0  0  0  0  0  0  0  0  0
   -5.5502   25.5899  -29.0058 H   0  0  0  0  0  0  0  0  0  0  0  0
   -3.2700   25.5300  -28.7380 H   0  0  0  0  0  0  0  0  0  0  0  0
   -1.5327   24.1265  -27.7272 H   0  0  0  0  0  0  0  0  0  0  0  0
   -4.2208   21.3228  -34.0131 H   0  0  0  0  0  0  0  0  0  0  0  0
   -2.6222   20.2798  -33.8131 H   0  0  0  0  0  0  0  0  0  0  0  0
   -4.3110   19.0051  -34.4906 H   0  0  0  0  0  0  0  0  0  0  0  0
   -3.8083   18.7760  -32.6874 H   0  0  0  0  0  0  0  0  0  0  0  0
   -6.5866   20.9708  -34.0036 H   0  0  0  0  0  0  0  0  0  0  0  0
   -8.8574   20.6030  -33.1701 H   0  0  0  0  0  0  0  0  0  0  0  0
   -9.3851   18.7011  -31.6470 H   0  0  0  0  0  0  0  0  0  0  0  0
   -7.4967   17.1763  -31.0104 H   0  0  0  0  0  0  0  0  0  0  0  0
   -5.2317   17.5485  -31.8452 H   0  0  0  0  0  0  0  0  0  0  0  0
   -1.2697   20.0617  -29.9103 H   0  0  0  0  0  0  0  0  0  0  0  0
   -1.7388   19.2475  -31.4412 H   0  0  0  0  0  0  0  0  0  0  0  0
   -0.4240   20.4714  -31.4412 H   0  0  0  0  0  0  0  0  0  0  0  0
  1  2  1  0
  2  3  1  0
  3  4  1  0
  4  5  1  0
  5  6  1  0
  6  7  2  0
  7  8  1  0
  8  9  1  0
  9 10  2  0
 10 11  1  0
 11 12  2  0
 12 13  1  0
 13 14  2  0
 14 15  1  0
 15 16  1  0
 16 17  1  0
 17 18  2  0
 18 19  1  0
 19 20  2  0
 20 21  1  0
 21 22  2  0
 14 23  1  0
 23 24  1  0
 12  7  1  0
 22 17  1  0
 23 11  1  0
  1 25  1  0
  1 26  1  0
  1 27  1  0
  2 28  1  0
  2 29  1  0
  3 30  1  0
  4 31  1  0
  4 32  1  0
  5 33  1  0
  5 34  1  0
  8 35  1  0
  9 36  1  0
 15 37  1  0
 15 38  1  0
 16 39  1  0
 16 40  1  0
 18 41  1  0
 19 42  1  0
 20 43  1  0
 21 44  1  0
 22 45  1  0
 24 46  1  0
 24 47  1  0
 24 48  1  0
M  END
>  <smiles>  (14) 
CCNCCN=c1[nH]cnc2c1nc(CCc1ccccc1)n2C

>  <score_type>  (14) 
oracle

>  <origin>  (14) 
adg

>  <m_score__min__energy>  (14) 
-8.0199999999999996

>  <m_primary>  (14) 
energy

$$$$
14:0
     RDKit          3D

 48 51  0  0  0  0  0  0  0  0999 V2000
   -9.5140   21.5410  -30.8590 C   0  0  0  0  0  0  0  0  0  0  0  0
   -8.9580   20.1660  -31.2180 C   0  0  0  0  0  0  0  0  0  0  0  0
   -8.5360   20.0760  -32.6920 C   0  0  0  0  0  0  0  0  0  0  0  0
   -7.1030   20.3430  -32.8550 N   0  0  0  0  0  0  0  0  0  0  0  0
   -6.4690   21.5440  -32.7590 C   0  0  0  0  0  0  0  0  0  0  0  0
   -7.2630   23.0830  -32.2850 S   0  0  0  0  0  0  0  0  0  0  0  0
   -5.9460   23.5080  -31.1460 C   0  0  0  0  0  0  0  0  0  0  0  0
   -5.5830   24.8490  -30.9720 C   0  0  0  0  0  0  0  0  0  0  0  0
   -4.5490   25.1930  -30.0980 C   0  0  0  0  0  0  0  0  0  0  0  0
   -3.8700   24.1950  -29.3820 C   0  0  0  0  0  0  0  0  0  0  0  0
   -2.8280   24.5260  -28.5030 C   0  0  0  0  0  0  0  0  0  0  0  0
   -2.1610   23.5220  -27.7950 C   0  0  0  0  0  0  0  0  0  0  0  0
   -2.5270   22.1830  -27.9600 C   0  0  0  0  0  0  0  0  0  0  0  0
   -3.5630   21.8390  -28.8330 C   0  0  0  0  0  0  0  0  0  0  0  0
   -4.2410   22.8380  -29.5500 C   0  0  0  0  0  0  0  0  0  0  0  0
   -5.2810   22.5050  -30.4310 C   0  0  0  0  0  0  0  0  0  0  0  0
   -5.1500   21.4670  -33.0510 N   0  0  0  0  0  0  0  0  0  0  0  0
   -4.9540   20.1650  -33.3310 C   0  0  0  0  0  0  0  0  0  0  0  0
   -6.1230   19.4860  -33.2180 C   0  0  0  0  0  0  0  0  0  0  0  0
   -6.1600   18.1200  -33.4750 C   0  0  0  0  0  0  0  0  0  0  0  0
   -7.2400   17.4760  -33.3800 O   0  0  0  0  0  0  0  0  0  0  0  0
   -4.9880   17.4900  -33.8340 N   0  0  0  0  0  0  0  0  0  0  0  0
   -4.9970   16.0510  -34.1480 C   0  0  0  0  0  0  0  0  0  0  0  0
   -3.8170   18.2170  -33.9720 C   0  0  0  0  0  0  0  0  0  0  0  0
   -2.7630   17.6330  -34.3560 O   0  0  0  0  0  0  0  0  0  0  0  0
   -3.7890   19.5680  -33.7000 N   0  0  0  0  0  0  0  0  0  0  0  0
   -2.5630   20.3680  -33.8270 C   0  0  0  0  0  0  0  0  0  0  0  0
   -9.5561   21.6452  -29.7648 H   0  0  0  0  0  0  0  0  0  0  0  0
   -8.8607   22.3212  -31.2767 H   0  0  0  0  0  0  0  0  0  0  0  0
  -10.5260   21.6478  -31.2767 H   0  0  0  0  0  0  0  0  0  0  0  0
   -8.0812   19.9626  -30.5857 H   0  0  0  0  0  0  0  0  0  0  0  0
   -9.7542   19.4260  -31.0496 H   0  0  0  0  0  0  0  0  0  0  0  0
   -8.7568   19.0656  -33.0666 H   0  0  0  0  0  0  0  0  0  0  0  0
   -9.0963   20.8335  -33.2597 H   0  0  0  0  0  0  0  0  0  0  0  0
   -6.1150   25.6360  -31.5266 H   0  0  0  0  0  0  0  0  0  0  0  0
   -4.2663   26.2484  -29.9707 H   0  0  0  0  0  0  0  0  0  0  0  0
   -2.5351   25.5780  -28.3706 H   0  0  0  0  0  0  0  0  0  0  0  0
   -1.3455   23.7865  -27.1058 H   0  0  0  0  0  0  0  0  0  0  0  0
   -1.9978   21.3973  -27.4008 H   0  0  0  0  0  0  0  0  0  0  0  0
   -3.8477   20.7839  -28.9586 H   0  0  0  0  0  0  0  0  0  0  0  0
   -5.5746   21.4528  -30.5602 H   0  0  0  0  0  0  0  0  0  0  0  0
   -4.4540   22.2460  -33.0530 H   0  0  0  0  0  0  0  0  0  0  0  0
   -5.0006   15.4717  -33.2129 H   0  0  0  0  0  0  0  0  0  0  0  0
   -5.8967   15.8089  -34.7328 H   0  0  0  0  0  0  0  0  0  0  0  0
   -4.1004   15.7977  -34.7328 H   0  0  0  0  0  0  0  0  0  0  0  0
   -2.1820   20.6166  -32.8255 H   0  0  0  0  0  0  0  0  0  0  0  0
   -1.8038   19.7910  -34.3753 H   0  0  0  0  0  0  0  0  0  0  0  0
   -2.7854   21.2953  -34.3753 H   0  0  0  0  0  0  0  0  0  0  0  0
  1  2  1  0
  2  3  1  0
  3  4  1  0
  4  5  1  0
  5  6  1  0
  6  7  1  0
  7  8  2  0
  8  9  1  0
  9 10  2  0
 10 11  1  0
 11 12  2  0
 12 13  1  0
 13 14  2  0
 14 15  1  0
 15 16  2  0
  5 17  2  0
 17 18  1  0
 18 19  2  0
 19 20  1  0
 20 21  2  0
 20 22  1  0
 22 23  1  0
 22 24  1  0
 24 25  2  0
 24 26  1  0
 26 27  1  0
 19  4  1  0
 16  7  1  0
 26 18  1  0
 15 10  1  0
  1 28  1  0
  1 29  1  0
  1 30  1  0
  2 31  1  0
  2 32  1  0
  3 33  1  0
  3 34  1  0
  8 35  1  0
  9 36  1  0
 11 37  1  0
 12 38  1  0
 13 39  1  0
 14 40  1  0
 16 41  1  0
 17 42  1  0
 23 43  1  0
 23 44  1  0
 23 45  1  0
 27 46  1  0
 27 47  1  0
 27 48  1  0
M  CHG  1  17   1
M  END
>  <UniqueID>  (15) 
14

>  <SMILES>  (15) 
CCCn1c(Sc2ccc3ccccc3c2)[nH+]c2c1c(=O)n(C)c(=O)n2C

>  <Energy>  (15) 
92.65873939450896

>  <Genealogy>  (15) 
CCCn1c(Sc2ccc3ccccc3c2)[nH+]c2c1c(=O)n(C)c(=O)n2C (protonated)
CCCn1c(Sc2ccc3ccccc3c2)[nH+]c2c1c(=O)n(C)c(=O)n2C (3D coordinates assigned)
CCCn1c(Sc2ccc3ccccc3c2)[nH+]c2c1c(=O)n(C)c(=O)n2C (optimized conformer: 92.65873939450896 kcal/mol)

>  <smiles>  (15) 
CCCn1c(Sc2ccc3ccccc3c2)nc2c1c(=O)n(C)c(=O)n2C

>  <score_type>  (15) 
oracle

>  <origin>  (15) 
adg

>  <m_score__min__energy>  (15) 
-8.0299999999999994

>  <m_primary>  (15) 
energy

$$$$
15:0
     RDKit          3D

 73 75  0  0  0  0  0  0  0  0999 V2000
    2.7200   27.6860  -23.1370 C   0  0  0  0  0  0  0  0  0  0  0  0
    1.3930   28.4500  -23.2310 C   0  0  0  0  0  0  0  0  0  0  0  0
    0.4060   27.7630  -24.1120 N   0  0  0  0  0  0  0  0  0  0  0  0
   -0.4650   28.7690  -24.7850 C   0  0  0  0  0  0  0  0  0  0  0  0
   -0.1690   28.8790  -26.2850 C   0  0  0  0  0  0  0  0  0  0  0  0
   -0.4220   26.8160  -23.3170 C   0  0  0  0  0  0  0  0  0  0  0  0
   -0.8340   25.5740  -24.1330 C   0  0  0  0  0  0  0  0  0  0  0  0
   -0.4770   25.7010  -25.4980 O   0  0  0  0  0  0  0  0  0  0  0  0
   -1.6250   25.7690  -26.3250 C   0  0  0  0  0  0  0  0  0  0  0  0
   -1.4920   24.7800  -27.4870 C   0  0  0  0  0  0  0  0  0  0  0  0
   -2.8280   24.4560  -28.1780 C   0  0  0  0  0  0  0  0  0  0  0  0
   -2.6710   24.1560  -29.6780 C   0  0  0  0  0  0  0  0  0  0  0  0
   -3.5600   24.9460  -30.4480 O   0  0  0  0  0  0  0  0  0  0  0  0
   -4.6830   24.1910  -30.8520 C   0  0  0  0  0  0  0  0  0  0  0  0
   -4.3750   22.6930  -30.7530 C   0  0  0  0  0  0  0  0  0  0  0  0
   -3.6610   22.1420  -31.9970 C   0  0  0  0  0  0  0  0  0  0  0  0
   -4.5970   21.8930  -33.0940 N   0  0  0  0  0  0  0  0  0  0  0  0
   -5.7010   20.9920  -32.9120 C   0  0  0  0  0  0  0  0  0  0  0  0
   -6.9510   21.4760  -32.4930 C   0  0  0  0  0  0  0  0  0  0  0  0
   -7.1600   22.8580  -32.2970 C   0  0  0  0  0  0  0  0  0  0  0  0
   -8.4110   23.3440  -31.9310 C   0  0  0  0  0  0  0  0  0  0  0  0
   -9.4790   22.4690  -31.7730 C   0  0  0  0  0  0  0  0  0  0  0  0
   -9.2980   21.0980  -31.9590 C   0  0  0  0  0  0  0  0  0  0  0  0
   -8.0240   20.5670  -32.2920 C   0  0  0  0  0  0  0  0  0  0  0  0
   -7.8180   19.2070  -32.4450 N   0  0  0  0  0  0  0  0  0  0  0  0
   -8.8360   18.2440  -31.9670 C   0  0  0  0  0  0  0  0  0  0  0  0
   -6.6490   18.7470  -33.0230 C   0  0  0  0  0  0  0  0  0  0  0  0
   -6.5030   17.3970  -33.4380 C   0  0  0  0  0  0  0  0  0  0  0  0
   -5.3000   16.9350  -33.9680 C   0  0  0  0  0  0  0  0  0  0  0  0
   -4.2180   17.7970  -34.1110 C   0  0  0  0  0  0  0  0  0  0  0  0
   -4.3430   19.1370  -33.7510 C   0  0  0  0  0  0  0  0  0  0  0  0
   -5.5580   19.6320  -33.2310 C   0  0  0  0  0  0  0  0  0  0  0  0
    2.9821   27.5351  -22.0794 H   0  0  0  0  0  0  0  0  0  0  0  0
    2.6166   26.7092  -23.6321 H   0  0  0  0  0  0  0  0  0  0  0  0
    3.5128   28.2659  -23.6321 H   0  0  0  0  0  0  0  0  0  0  0  0
    0.9642   28.5397  -22.2220 H   0  0  0  0  0  0  0  0  0  0  0  0
    1.6034   29.4376  -23.6673 H   0  0  0  0  0  0  0  0  0  0  0  0
    0.9270   27.2210  -24.8440 H   0  0  0  0  0  0  0  0  0  0  0  0
   -1.5161   28.4732  -24.6520 H   0  0  0  0  0  0  0  0  0  0  0  0
   -0.2644   29.7493  -24.3281 H   0  0  0  0  0  0  0  0  0  0  0  0
    0.8531   29.2588  -26.4302 H   0  0  0  0  0  0  0  0  0  0  0  0
   -0.2610   27.8867  -26.7506 H   0  0  0  0  0  0  0  0  0  0  0  0
   -0.8867   29.5704  -26.7506 H   0  0  0  0  0  0  0  0  0  0  0  0
    0.1575   26.4881  -22.4414 H   0  0  0  0  0  0  0  0  0  0  0  0
   -1.3403   27.3416  -23.0161 H   0  0  0  0  0  0  0  0  0  0  0  0
   -0.3316   24.6896  -23.7141 H   0  0  0  0  0  0  0  0  0  0  0  0
   -1.9276   25.4719  -24.0730 H   0  0  0  0  0  0  0  0  0  0  0  0
   -2.5166   25.5169  -25.7322 H   0  0  0  0  0  0  0  0  0  0  0  0
   -1.7208   26.7883  -26.7272 H   0  0  0  0  0  0  0  0  0  0  0  0
   -0.8100   25.2116  -28.2343 H   0  0  0  0  0  0  0  0  0  0  0  0
   -1.1106   23.8381  -27.0660 H   0  0  0  0  0  0  0  0  0  0  0  0
   -3.2713   23.5760  -27.6890 H   0  0  0  0  0  0  0  0  0  0  0  0
   -3.4704   25.3441  -28.0854 H   0  0  0  0  0  0  0  0  0  0  0  0
   -1.6373   24.3763  -29.9829 H   0  0  0  0  0  0  0  0  0  0  0  0
   -2.9049   23.0951  -29.8503 H   0  0  0  0  0  0  0  0  0  0  0  0
   -5.5360   24.4307  -30.2001 H   0  0  0  0  0  0  0  0  0  0  0  0
   -4.9271   24.4398  -31.8953 H   0  0  0  0  0  0  0  0  0  0  0  0
   -3.7318   22.5248  -29.8767 H   0  0  0  0  0  0  0  0  0  0  0  0
   -5.3361   22.1652  -30.6652 H   0  0  0  0  0  0  0  0  0  0  0  0
   -2.9091   22.8730  -32.3292 H   0  0  0  0  0  0  0  0  0  0  0  0
   -3.1894   21.1860  -31.7257 H   0  0  0  0  0  0  0  0  0  0  0  0
   -4.3640   22.1920  -34.0670 H   0  0  0  0  0  0  0  0  0  0  0  0
   -6.3237   23.5591  -32.4353 H   0  0  0  0  0  0  0  0  0  0  0  0
   -8.5550   24.4221  -31.7665 H   0  0  0  0  0  0  0  0  0  0  0  0
  -10.4708   22.8587  -31.5003 H   0  0  0  0  0  0  0  0  0  0  0  0
  -10.1554   20.4182  -31.8459 H   0  0  0  0  0  0  0  0  0  0  0  0
   -8.8449   18.2356  -30.8671 H   0  0  0  0  0  0  0  0  0  0  0  0
   -9.8269   18.5429  -32.3394 H   0  0  0  0  0  0  0  0  0  0  0  0
   -8.5925   17.2380  -32.3394 H   0  0  0  0  0  0  0  0  0  0  0  0
   -7.3526   16.7053  -33.3396 H   0  0  0  0  0  0  0  0  0  0  0  0
   -5.2056   15.8829  -34.2749 H   0  0  0  0  0  0  0  0  0  0  0  0
   -3.2637   17.4208  -34.5083 H   0  0  0  0  0  0  0  0  0  0  0  0
   -3.4862   19.8159  -33.8733 H   0  0  0  0  0  0  0  0  0  0  0  0
  1  2  1  0
  2  3  1  0
  3  4  1  0
  4  5  1  0
  3  6  1  0
  6  7  1  0
  7  8  1  0
  8  9  1  0
  9 10  1  0
 10 11  1  0
 11 12  1  0
 12 13  1  0
 13 14  1  0
 14 15  1  0
 15 16  1  0
 16 17  1  0
 17 18  1  0
 18 19  2  0
 19 20  1  0
 20 21  2  0
 21 22  1  0
 22 23  2  0
 23 24  1  0
 24 25  2  0
 25 26  1  0
 25 27  1  0
 27 28  2  0
 28 29  1  0
 29 30  2  0
 30 31  1  0
 31 32  2  0
 32 18  1  0
 24 19  1  0
 32 27  1  0
  1 33  1  0
  1 34  1  0
  1 35  1  0
  2 36  1  0
  2 37  1  0
  3 38  1  0
  4 39  1  0
  4 40  1  0
  5 41  1  0
  5 42  1  0
  5 43  1  0
  6 44  1  0
  6 45  1  0
  7 46  1  0
  7 47  1  0
  9 48  1  0
  9 49  1  0
 10 50  1  0
 10 51  1  0
 11 52  1  0
 11 53  1  0
 12 54  1  0
 12 55  1  0
 14 56  1  0
 14 57  1  0
 15 58  1  0
 15 59  1  0
 16 60  1  0
 16 61  1  0
 17 62  1  0
 20 63  1  0
 21 64  1  0
 22 65  1  0
 23 66  1  0
 26 67  1  0
 26 68  1  0
 26 69  1  0
 28 70  1  0
 29 71  1  0
 30 72  1  0
 31 73  1  0
M  CHG  2   3   1  25   1
M  END
>  <UniqueID>  (16) 
15

>  <SMILES>  (16) 
CC[NH+](CC)CCOCCCCOCCCNc1c2ccccc2[n+](C)c2ccccc12

>  <Energy>  (16) 
96.67671060492326

>  <Genealogy>  (16) 
CC[NH+](CC)CCOCCCCOCCCNc1c2ccccc2[n+](C)c2ccccc12 (protonated)
CC[NH+](CC)CCOCCCCOCCCNc1c2ccccc2[n+](C)c2ccccc12 (3D coordinates assigned)
CC[NH+](CC)CCOCCCCOCCCNc1c2ccccc2[n+](C)c2ccccc12 (optimized conformer: 96.67671060492326 kcal/mol)

>  <smiles>  (16) 
CCN(CC)CCOCCCCOCCCNc1c2ccccc2[n+](C)c2ccccc12

>  <score_type>  (16) 
oracle

>  <origin>  (16) 
adg

>  <m_score__min__energy>  (16) 
-9.3300000000000001

>  <m_primary>  (16) 
energy

$$$$
16:0
     RDKit          3D

 59 61  0  0  0  0  0  0  0  0999 V2000
   -1.4110   21.5290  -33.3720 C   0  0  0  0  0  0  0  0  0  0  0  0
   -2.8040   21.3720  -33.1200 O   0  0  0  0  0  0  0  0  0  0  0  0
   -3.5420   20.1970  -33.3460 C   0  0  0  0  0  0  0  0  0  0  0  0
   -2.9050   19.0490  -33.8480 C   0  0  0  0  0  0  0  0  0  0  0  0
   -3.6210   17.8860  -34.0760 C   0  0  0  0  0  0  0  0  0  0  0  0
   -4.9720   17.8220  -33.7640 C   0  0  0  0  0  0  0  0  0  0  0  0
   -5.6520   18.9320  -33.2060 C   0  0  0  0  0  0  0  0  0  0  0  0
   -4.9410   20.1610  -33.0660 C   0  0  0  0  0  0  0  0  0  0  0  0
   -5.6610   21.3210  -32.6850 C   0  0  0  0  0  0  0  0  0  0  0  0
   -5.0210   22.6100  -32.6740 N   0  0  0  0  0  0  0  0  0  0  0  0
   -4.8920   23.4330  -31.4650 C   0  0  0  0  0  0  0  0  0  0  0  0
   -4.2800   22.6570  -30.2820 C   0  0  0  0  0  0  0  0  0  0  0  0
   -2.8240   22.4200  -30.3810 N   0  0  0  0  0  0  0  0  0  0  0  0
   -2.2850   21.3400  -29.5280 C   0  0  0  0  0  0  0  0  0  0  0  0
   -2.1600   21.7040  -28.0350 C   0  0  0  0  0  0  0  0  0  0  0  0
   -1.3710   23.0130  -27.8060 C   0  0  0  0  0  0  0  0  0  0  0  0
   -2.0900   24.2370  -28.2240 N   0  0  0  0  0  0  0  0  0  0  0  0
   -3.3160   24.4810  -27.4490 C   0  0  0  0  0  0  0  0  0  0  0  0
   -1.2280   25.4300  -28.2490 C   0  0  0  0  0  0  0  0  0  0  0  0
   -7.0300   21.2200  -32.3680 C   0  0  0  0  0  0  0  0  0  0  0  0
   -7.7470   22.3360  -31.8840 C   0  0  0  0  0  0  0  0  0  0  0  0
   -9.1200   22.2620  -31.6660 C   0  0  0  0  0  0  0  0  0  0  0  0
   -9.8010   21.0800  -31.9210 C   0  0  0  0  0  0  0  0  0  0  0  0
   -9.1040   19.9480  -32.3420 C   0  0  0  0  0  0  0  0  0  0  0  0
   -7.6960   19.9770  -32.5160 C   0  0  0  0  0  0  0  0  0  0  0  0
   -6.9790   18.8390  -32.8270 N   0  0  0  0  0  0  0  0  0  0  0  0
   -7.6180   17.5090  -32.6950 C   0  0  0  0  0  0  0  0  0  0  0  0
   -0.8701   21.5900  -32.4161 H   0  0  0  0  0  0  0  0  0  0  0  0
   -1.0430   20.6666  -33.9472 H   0  0  0  0  0  0  0  0  0  0  0  0
   -1.2441   22.4516  -33.9472 H   0  0  0  0  0  0  0  0  0  0  0  0
   -1.8263   19.0748  -34.0620 H   0  0  0  0  0  0  0  0  0  0  0  0
   -3.1166   17.0084  -34.5066 H   0  0  0  0  0  0  0  0  0  0  0  0
   -5.5255   16.8906  -33.9539 H   0  0  0  0  0  0  0  0  0  0  0  0
   -4.4780   22.8900  -33.5210 H   0  0  0  0  0  0  0  0  0  0  0  0
   -4.2471   24.2946  -31.6925 H   0  0  0  0  0  0  0  0  0  0  0  0
   -5.9027   23.7498  -31.1683 H   0  0  0  0  0  0  0  0  0  0  0  0
   -4.4715   23.2290  -29.3622 H   0  0  0  0  0  0  0  0  0  0  0  0
   -4.7554   21.6650  -30.2841 H   0  0  0  0  0  0  0  0  0  0  0  0
   -2.3170   23.3000  -30.1510 H   0  0  0  0  0  0  0  0  0  0  0  0
   -2.5930   22.2130  -31.3800 H   0  0  0  0  0  0  0  0  0  0  0  0
   -2.9517   20.4694  -29.6143 H   0  0  0  0  0  0  0  0  0  0  0  0
   -1.2647   21.1390  -29.8866 H   0  0  0  0  0  0  0  0  0  0  0  0
   -3.1700   21.8236  -27.6159 H   0  0  0  0  0  0  0  0  0  0  0  0
   -1.6083   20.8916  -27.5393 H   0  0  0  0  0  0  0  0  0  0  0  0
   -1.1445   23.0958  -26.7328 H   0  0  0  0  0  0  0  0  0  0  0  0
   -0.4669   22.9497  -28.4294 H   0  0  0  0  0  0  0  0  0  0  0  0
   -3.0857   24.4352  -26.3744 H   0  0  0  0  0  0  0  0  0  0  0  0
   -3.7143   25.4760  -27.6965 H   0  0  0  0  0  0  0  0  0  0  0  0
   -4.0649   23.7143  -27.6965 H   0  0  0  0  0  0  0  0  0  0  0  0
   -1.0030   25.7414  -27.2183 H   0  0  0  0  0  0  0  0  0  0  0  0
   -0.2904   25.1940  -28.7737 H   0  0  0  0  0  0  0  0  0  0  0  0
   -1.7464   26.2460  -28.7737 H   0  0  0  0  0  0  0  0  0  0  0  0
   -7.2140   23.2756  -31.6766 H   0  0  0  0  0  0  0  0  0  0  0  0
   -9.6653   23.1408  -31.2915 H   0  0  0  0  0  0  0  0  0  0  0  0
  -10.8924   21.0360  -31.7908 H   0  0  0  0  0  0  0  0  0  0  0  0
   -9.6547   19.0172  -32.5425 H   0  0  0  0  0  0  0  0  0  0  0  0
   -7.7361   17.2631  -31.6294 H   0  0  0  0  0  0  0  0  0  0  0  0
   -8.6057   17.5271  -33.1788 H   0  0  0  0  0  0  0  0  0  0  0  0
   -6.9866   16.7492  -33.1788 H   0  0  0  0  0  0  0  0  0  0  0  0
  1  2  1  0
  2  3  1  0
  3  4  2  0
  4  5  1  0
  5  6  2  0
  6  7  1  0
  7  8  2  0
  8  9  1  0
  9 10  1  0
 10 11  1  0
 11 12  1  0
 12 13  1  0
 13 14  1  0
 14 15  1  0
 15 16  1  0
 16 17  1  0
 17 18  1  0
 17 19  1  0
  9 20  2  0
 20 21  1  0
 21 22  2  0
 22 23  1  0
 23 24  2  0
 24 25  1  0
 25 26  2  0
 26 27  1  0
  8  3  1  0
 25 20  1  0
 26  7  1  0
  1 28  1  0
  1 29  1  0
  1 30  1  0
  4 31  1  0
  5 32  1  0
  6 33  1  0
 10 34  1  0
 11 35  1  0
 11 36  1  0
 12 37  1  0
 12 38  1  0
 13 39  1  0
 13 40  1  0
 14 41  1  0
 14 42  1  0
 15 43  1  0
 15 44  1  0
 16 45  1  0
 16 46  1  0
 18 47  1  0
 18 48  1  0
 18 49  1  0
 19 50  1  0
 19 51  1  0
 19 52  1  0
 21 53  1  0
 22 54  1  0
 23 55  1  0
 24 56  1  0
 27 57  1  0
 27 58  1  0
 27 59  1  0
M  CHG  2  13   1  26   1
M  END
>  <UniqueID>  (17) 
16

>  <SMILES>  (17) 
COc1cccc2c1c(NCC[NH2+]CCCN(C)C)c1ccccc1[n+]2C

>  <Energy>  (17) 
92.12312078695037

>  <Genealogy>  (17) 
COc1cccc2c1c(NCC[NH2+]CCCN(C)C)c1ccccc1[n+]2C (protonated)
COc1cccc2c1c(NCC[NH2+]CCCN(C)C)c1ccccc1[n+]2C (3D coordinates assigned)
COc1cccc2c1c(NCC[NH2+]CCCN(C)C)c1ccccc1[n+]2C (optimized conformer: 92.12312078695037 kcal/mol)

>  <smiles>  (17) 
COc1cccc2c1c(NCCNCCCN(C)C)c1ccccc1[n+]2C

>  <score_type>  (17) 
oracle

>  <origin>  (17) 
adg

>  <m_score__min__energy>  (17) 
-7.0499999999999998

>  <m_primary>  (17) 
energy

$$$$
17:0
     RDKit          3D

 47 49  0  0  0  0  0  0  0  0999 V2000
   -6.2030   24.9480  -29.7460 C   0  0  0  0  0  0  0  0  0  0  0  0
   -5.2960   25.6430  -30.7490 C   0  0  0  0  0  0  0  0  0  0  0  0
   -3.9530   25.3090  -30.4690 O   0  0  0  0  0  0  0  0  0  0  0  0
   -3.9160   24.2600  -29.5250 C   0  0  0  0  0  0  0  0  0  0  0  0
   -2.6060   23.4920  -29.6810 C   0  0  0  0  0  0  0  0  0  0  0  0
   -2.5540   22.8700  -30.9510 O   0  0  0  0  0  0  0  0  0  0  0  0
   -3.8560   22.6380  -31.4450 C   0  0  0  0  0  0  0  0  0  0  0  0
   -4.3630   21.2830  -30.9490 C   0  0  0  0  0  0  0  0  0  0  0  0
   -4.5220   20.3280  -32.0700 N   0  0  0  0  0  0  0  0  0  0  0  0
   -5.7470   20.1360  -32.6720 C   0  0  0  0  0  0  0  0  0  0  0  0
   -6.9500   20.9020  -32.2870 C   0  0  0  0  0  0  0  0  0  0  0  0
   -6.9260   22.3050  -32.3460 C   0  0  0  0  0  0  0  0  0  0  0  0
   -8.0630   23.0450  -32.0140 C   0  0  0  0  0  0  0  0  0  0  0  0
   -9.2400   22.3900  -31.6420 C   0  0  0  0  0  0  0  0  0  0  0  0
   -9.2810   20.9940  -31.6020 C   0  0  0  0  0  0  0  0  0  0  0  0
   -8.1440   20.2440  -31.9280 C   0  0  0  0  0  0  0  0  0  0  0  0
   -8.2410   18.4880  -31.8650 Cl  0  0  0  0  0  0  0  0  0  0  0  0
   -5.8900   19.2090  -33.6560 N   0  0  0  0  0  0  0  0  0  0  0  0
   -4.8520   18.4520  -34.0790 C   0  0  0  0  0  0  0  0  0  0  0  0
   -5.0430   17.5100  -35.0960 C   0  0  0  0  0  0  0  0  0  0  0  0
   -3.9720   16.7270  -35.5340 C   0  0  0  0  0  0  0  0  0  0  0  0
   -2.7090   16.8830  -34.9580 C   0  0  0  0  0  0  0  0  0  0  0  0
   -2.5120   17.8220  -33.9400 C   0  0  0  0  0  0  0  0  0  0  0  0
   -3.5860   18.6160  -33.4930 C   0  0  0  0  0  0  0  0  0  0  0  0
   -3.4440   19.5700  -32.4700 C   0  0  0  0  0  0  0  0  0  0  0  0
   -2.3180   19.7190  -31.9170 O   0  0  0  0  0  0  0  0  0  0  0  0
   -5.8787   25.1965  -28.7247 H   0  0  0  0  0  0  0  0  0  0  0  0
   -7.2395   25.2852  -29.8938 H   0  0  0  0  0  0  0  0  0  0  0  0
   -6.1470   23.8594  -29.8938 H   0  0  0  0  0  0  0  0  0  0  0  0
   -5.5525   25.3140  -31.7668 H   0  0  0  0  0  0  0  0  0  0  0  0
   -5.4292   26.7324  -30.6752 H   0  0  0  0  0  0  0  0  0  0  0  0
   -3.9797   24.6767  -28.5090 H   0  0  0  0  0  0  0  0  0  0  0  0
   -4.7652   23.5812  -29.6926 H   0  0  0  0  0  0  0  0  0  0  0  0
   -1.7614   24.1900  -29.5831 H   0  0  0  0  0  0  0  0  0  0  0  0
   -2.5467   22.7199  -28.8998 H   0  0  0  0  0  0  0  0  0  0  0  0
   -4.5287   23.4323  -31.0894 H   0  0  0  0  0  0  0  0  0  0  0  0
   -3.8331   22.6374  -32.5448 H   0  0  0  0  0  0  0  0  0  0  0  0
   -3.6417   20.8723  -30.2272 H   0  0  0  0  0  0  0  0  0  0  0  0
   -5.3446   21.4305  -30.4749 H   0  0  0  0  0  0  0  0  0  0  0  0
   -6.0067   22.8238  -32.6554 H   0  0  0  0  0  0  0  0  0  0  0  0
   -8.0320   24.1441  -32.0454 H   0  0  0  0  0  0  0  0  0  0  0  0
  -10.1348   22.9739  -31.3805 H   0  0  0  0  0  0  0  0  0  0  0  0
  -10.2105   20.4816  -31.3131 H   0  0  0  0  0  0  0  0  0  0  0  0
   -6.0369   17.3859  -35.5508 H   0  0  0  0  0  0  0  0  0  0  0  0
   -4.1235   15.9868  -36.3334 H   0  0  0  0  0  0  0  0  0  0  0  0
   -1.8673   16.2660  -35.3057 H   0  0  0  0  0  0  0  0  0  0  0  0
   -1.5163   17.9405  -33.4877 H   0  0  0  0  0  0  0  0  0  0  0  0
  1  2  1  0
  2  3  1  0
  3  4  1  0
  4  5  1  0
  5  6  1  0
  6  7  1  0
  7  8  1  0
  8  9  1  0
  9 10  1  0
 10 11  1  0
 11 12  2  0
 12 13  1  0
 13 14  2  0
 14 15  1  0
 15 16  2  0
 16 17  1  0
 10 18  2  0
 18 19  1  0
 19 20  2  0
 20 21  1  0
 21 22  2  0
 22 23  1  0
 23 24  2  0
 24 25  1  0
 25 26  2  0
 25  9  1  0
 16 11  1  0
 24 19  1  0
  1 27  1  0
  1 28  1  0
  1 29  1  0
  2 30  1  0
  2 31  1  0
  4 32  1  0
  4 33  1  0
  5 34  1  0
  5 35  1  0
  7 36  1  0
  7 37  1  0
  8 38  1  0
  8 39  1  0
 12 40  1  0
 13 41  1  0
 14 42  1  0
 15 43  1  0
 20 44  1  0
 21 45  1  0
 22 46  1  0
 23 47  1  0
M  END
>  <UniqueID>  (18) 
17

>  <SMILES>  (18) 
CCOCCOCCn1c(-c2ccccc2Cl)nc2ccccc2c1=O

>  <Energy>  (18) 
60.858671534936114

>  <Genealogy>  (18) 
CCOCCOCCn1c(-c2ccccc2Cl)nc2ccccc2c1=O (3D coordinates assigned)
CCOCCOCCn1c(-c2ccccc2Cl)nc2ccccc2c1=O (optimized conformer: 60.858671534936114 kcal/mol)

>  <smiles>  (18) 
CCOCCOCCn1c(-c2ccccc2Cl)nc2ccccc2c1=O

>  <score_type>  (18) 
oracle

>  <origin>  (18) 
adg

>  <m_score__min__energy>  (18) 
-9.0199999999999996

>  <m_primary>  (18) 
energy

$$$$
18:0
     RDKit          3D

 46 50  0  0  0  0  0  0  0  0999 V2000
   -7.6040   13.5790  -34.9880 C   0  0  0  0  0  0  0  0  0  0  0  0
   -6.4880   14.2680  -34.2110 C   0  0  0  0  0  0  0  0  0  0  0  0
   -6.3870   15.6410  -34.5900 O   0  0  0  0  0  0  0  0  0  0  0  0
   -5.2730   16.4410  -34.2970 C   0  0  0  0  0  0  0  0  0  0  0  0
   -3.9710   15.9970  -34.6030 C   0  0  0  0  0  0  0  0  0  0  0  0
   -3.8100   14.7630  -35.2540 O   0  0  0  0  0  0  0  0  0  0  0  0
   -2.9260   14.5310  -36.3450 C   0  0  0  0  0  0  0  0  0  0  0  0
   -2.8690   16.8080  -34.2750 C   0  0  0  0  0  0  0  0  0  0  0  0
   -3.0590   18.0530  -33.6760 C   0  0  0  0  0  0  0  0  0  0  0  0
   -4.3510   18.5150  -33.4000 C   0  0  0  0  0  0  0  0  0  0  0  0
   -4.5450   19.7690  -32.8140 C   0  0  0  0  0  0  0  0  0  0  0  0
   -5.8480   20.2250  -32.5420 C   0  0  0  0  0  0  0  0  0  0  0  0
   -6.9220   19.4080  -32.8110 N   0  0  0  0  0  0  0  0  0  0  0  0
   -6.7470   18.1890  -33.4040 C   0  0  0  0  0  0  0  0  0  0  0  0
   -5.4640   17.7100  -33.7110 C   0  0  0  0  0  0  0  0  0  0  0  0
   -8.2950   19.8720  -32.5450 C   0  0  0  0  0  0  0  0  0  0  0  0
   -8.3630   20.6870  -31.2510 C   0  0  0  0  0  0  0  0  0  0  0  0
   -7.3410   21.7870  -31.2800 C   0  0  0  0  0  0  0  0  0  0  0  0
   -7.6080   23.0190  -30.6450 C   0  0  0  0  0  0  0  0  0  0  0  0
   -6.6250   24.0000  -30.6890 C   0  0  0  0  0  0  0  0  0  0  0  0
   -5.4380   23.8010  -31.3110 C   0  0  0  0  0  0  0  0  0  0  0  0
   -5.1230   22.5990  -31.9370 C   0  0  0  0  0  0  0  0  0  0  0  0
   -6.0840   21.5560  -31.9060 C   0  0  0  0  0  0  0  0  0  0  0  0
   -4.6670   24.9420  -31.2070 O   0  0  0  0  0  0  0  0  0  0  0  0
   -5.4160   25.9180  -30.4700 C   0  0  0  0  0  0  0  0  0  0  0  0
   -6.6600   25.2750  -30.1590 O   0  0  0  0  0  0  0  0  0  0  0  0
   -8.3222   13.1356  -34.2826 H   0  0  0  0  0  0  0  0  0  0  0  0
   -8.1194   14.3164  -35.6210 H   0  0  0  0  0  0  0  0  0  0  0  0
   -7.1757   12.7879  -35.6210 H   0  0  0  0  0  0  0  0  0  0  0  0
   -6.7045   14.2049  -33.1344 H   0  0  0  0  0  0  0  0  0  0  0  0
   -5.5356   13.7661  -34.4370 H   0  0  0  0  0  0  0  0  0  0  0  0
   -1.9293   14.2694  -35.9601 H   0  0  0  0  0  0  0  0  0  0  0  0
   -3.3107   13.7034  -36.9591 H   0  0  0  0  0  0  0  0  0  0  0  0
   -2.8547   15.4409  -36.9591 H   0  0  0  0  0  0  0  0  0  0  0  0
   -1.8494   16.4572  -34.4928 H   0  0  0  0  0  0  0  0  0  0  0  0
   -2.1889   18.6751  -33.4191 H   0  0  0  0  0  0  0  0  0  0  0  0
   -3.6787   20.3996  -32.5654 H   0  0  0  0  0  0  0  0  0  0  0  0
   -7.6262   17.5733  -33.6446 H   0  0  0  0  0  0  0  0  0  0  0  0
   -8.6299   20.5008  -33.3831 H   0  0  0  0  0  0  0  0  0  0  0  0
   -8.9454   18.9915  -32.4366 H   0  0  0  0  0  0  0  0  0  0  0  0
   -9.3667   21.1254  -31.1494 H   0  0  0  0  0  0  0  0  0  0  0  0
   -8.1557   20.0252  -30.3972 H   0  0  0  0  0  0  0  0  0  0  0  0
   -8.5643   23.1969  -30.1314 H   0  0  0  0  0  0  0  0  0  0  0  0
   -4.1555   22.4613  -32.4420 H   0  0  0  0  0  0  0  0  0  0  0  0
   -4.8846   26.1978  -29.5484 H   0  0  0  0  0  0  0  0  0  0  0  0
   -5.5625   26.8452  -31.0434 H   0  0  0  0  0  0  0  0  0  0  0  0
  1  2  1  0
  2  3  1  0
  3  4  1  0
  4  5  2  0
  5  6  1  0
  6  7  1  0
  5  8  1  0
  8  9  2  0
  9 10  1  0
 10 11  2  0
 11 12  1  0
 12 13  2  0
 13 14  1  0
 14 15  2  0
 13 16  1  0
 16 17  1  0
 17 18  1  0
 18 19  2  0
 19 20  1  0
 20 21  2  0
 21 22  1  0
 22 23  2  0
 21 24  1  0
 24 25  1  0
 25 26  1  0
 15  4  1  0
 23 18  1  0
 15 10  1  0
 26 20  1  0
 23 12  1  0
  1 27  1  0
  1 28  1  0
  1 29  1  0
  2 30  1  0
  2 31  1  0
  7 32  1  0
  7 33  1  0
  7 34  1  0
  8 35  1  0
  9 36  1  0
 11 37  1  0
 14 38  1  0
 16 39  1  0
 16 40  1  0
 17 41  1  0
 17 42  1  0
 19 43  1  0
 22 44  1  0
 25 45  1  0
 25 46  1  0
M  CHG  1  13   1
M  END
>  <UniqueID>  (19) 
18

>  <SMILES>  (19) 
CCOc1c(OC)ccc2cc3[n+](cc12)CCc1cc2c(cc1-3)OCO2

>  <Energy>  (19) 
91.44820541387513

>  <Genealogy>  (19) 
CCOc1c(OC)ccc2cc3[n+](cc12)CCc1cc2c(cc1-3)OCO2 (3D coordinates assigned)
CCOc1c(OC)ccc2cc3[n+](cc12)CCc1cc2c(cc1-3)OCO2 (nonaromatic ring conformer: 91.44820541387513 kcal/mol)

>  <smiles>  (19) 
CCOc1c(OC)ccc2cc3[n+](cc12)CCc1cc2c(cc1-3)OCO2

>  <score_type>  (19) 
oracle

>  <origin>  (19) 
adg

>  <m_score__min__energy>  (19) 
-7.4500000000000002

>  <m_primary>  (19) 
energy

$$$$
