0:0
     RDKit          3D

 25 27  0  0  0  0  0  0  0  0999 V2000
   -5.6640   16.6540  -34.2120 C   0  0  0  0  0  0  0  0  0  0  0  0
   -6.9410   17.1450  -33.8180 O   0  0  0  0  0  0  0  0  0  0  0  0
   -7.1430   18.3240  -33.0860 C   0  0  0  0  0  0  0  0  0  0  0  0
   -8.3160   18.5450  -32.3100 C   0  0  0  0  0  0  0  0  0  0  0  0
   -8.4830   19.7420  -31.5880 C   0  0  0  0  0  0  0  0  0  0  0  0
   -7.4700   20.6930  -31.6610 C   0  0  0  0  0  0  0  0  0  0  0  0
   -7.3610   21.9330  -31.0720 C   0  0  0  0  0  0  0  0  0  0  0  0
   -6.1340   22.4280  -31.5060 C   0  0  0  0  0  0  0  0  0  0  0  0
   -5.5710   23.7350  -31.1390 C   0  0  0  0  0  0  0  0  0  0  0  0
   -6.3140   24.7750  -30.7020 N   0  0  0  0  0  0  0  0  0  0  0  0
   -5.3580   25.7000  -30.5100 C   0  0  0  0  0  0  0  0  0  0  0  0
   -5.5890   26.8650  -30.0940 O   0  0  0  0  0  0  0  0  0  0  0  0
   -4.1640   25.2560  -30.8040 O   0  0  0  0  0  0  0  0  0  0  0  0
   -4.2540   24.0240  -31.2030 N   0  0  0  0  0  0  0  0  0  0  0  0
   -5.5110   21.5430  -32.3200 N   0  0  0  0  0  0  0  0  0  0  0  0
   -6.3390   20.4880  -32.4070 C   0  0  0  0  0  0  0  0  0  0  0  0
   -6.1420   19.3150  -33.1320 C   0  0  0  0  0  0  0  0  0  0  0  0
   -5.0672   16.4246  -33.3169 H   0  0  0  0  0  0  0  0  0  0  0  0
   -5.7914   15.7407  -34.8118 H   0  0  0  0  0  0  0  0  0  0  0  0
   -5.1467   17.4174  -34.8118 H   0  0  0  0  0  0  0  0  0  0  0  0
   -9.0991   17.7733  -32.2742 H   0  0  0  0  0  0  0  0  0  0  0  0
   -9.3858   19.9198  -30.9852 H   0  0  0  0  0  0  0  0  0  0  0  0
   -8.0845   22.4246  -30.4050 H   0  0  0  0  0  0  0  0  0  0  0  0
   -4.5830   21.6530  -32.7860 H   0  0  0  0  0  0  0  0  0  0  0  0
   -5.2280   19.1659  -33.7256 H   0  0  0  0  0  0  0  0  0  0  0  0
  1  2  1  0
  2  3  1  0
  3  4  2  0
  4  5  1  0
  5  6  2  0
  6  7  1  0
  7  8  2  0
  8  9  1  0
  9 10  2  0
 10 11  1  0
 11 12  2  0
 11 13  1  0
 13 14  1  0
  8 15  1  0
 15 16  1  0
 16 17  2  0
 17  3  1  0
 16  6  1  0
 14  9  1  0
  1 18  1  0
  1 19  1  0
  1 20  1  0
  4 21  1  0
  5 22  1  0
  7 23  1  0
 15 24  1  0
 17 25  1  0
M  CHG  1  14  -1
M  END
>  <UniqueID>  (1) 
1

>  <SMILES>  (1) 
COc1ccc2cc(-c3nc(=O)o[n-]3)[nH]c2c1

>  <Energy>  (1) 
92.57910721619277

>  <Genealogy>  (1) 
COc1ccc2cc(-c3nc(=O)o[n-]3)[nH]c2c1 (protonated)
COc1ccc2cc(-c3nc(=O)o[n-]3)[nH]c2c1 (3D coordinates assigned)
COc1ccc2cc(-c3nc(=O)o[n-]3)[nH]c2c1 (optimized conformer: 92.57910721619277 kcal/mol)

>  <smiles>  (1) 
COc1ccc2cc(-c3nc(=O)o[nH]3)[nH]c2c1

>  <score_type>  (1) 
oracle

>  <origin>  (1) 
adg

>  <m_score__min__energy>  (1) 
-8.1099999999999994

>  <m_primary>  (1) 
energy

$$$$
1:0
     RDKit          3D

 36 38  0  0  0  0  0  0  0  0999 V2000
   -9.4800   21.6970  -31.9390 C   0  0  0  0  0  0  0  0  0  0  0  0
   -8.5360   20.5490  -32.1430 C   0  0  0  0  0  0  0  0  0  0  0  0
   -8.9930   19.2310  -32.0330 C   0  0  0  0  0  0  0  0  0  0  0  0
   -8.1090   18.1780  -32.2600 C   0  0  0  0  0  0  0  0  0  0  0  0
   -6.8190   18.4330  -32.5990 N   0  0  0  0  0  0  0  0  0  0  0  0
   -6.3330   19.7010  -32.7350 C   0  0  0  0  0  0  0  0  0  0  0  0
   -4.9470   19.9000  -33.1090 N   0  0  0  0  0  0  0  0  0  0  0  0
   -4.2210   21.0540  -32.5290 C   0  0  0  0  0  0  0  0  0  0  0  0
   -3.0610   21.5150  -33.4190 C   0  0  0  0  0  0  0  0  0  0  0  0
   -2.2670   20.3590  -33.8100 N   0  0  0  0  0  0  0  0  0  0  0  0
   -0.9710   20.2810  -34.1730 C   0  0  0  0  0  0  0  0  0  0  0  0
    0.0260   21.4030  -34.1130 C   0  0  0  0  0  0  0  0  0  0  0  0
   -0.1330   22.3050  -35.2500 N   0  0  0  0  0  0  0  0  0  0  0  0
   -0.7090   18.9780  -34.5590 C   0  0  0  0  0  0  0  0  0  0  0  0
   -1.8510   18.2670  -34.4660 N   0  0  0  0  0  0  0  0  0  0  0  0
   -2.7750   19.1360  -34.0110 C   0  0  0  0  0  0  0  0  0  0  0  0
   -4.2310   18.8310  -33.8440 C   0  0  0  0  0  0  0  0  0  0  0  0
   -7.2040   20.7870  -32.5100 C   0  0  0  0  0  0  0  0  0  0  0  0
   -9.6211   21.8687  -30.8617 H   0  0  0  0  0  0  0  0  0  0  0  0
   -9.0618   22.6025  -32.4029 H   0  0  0  0  0  0  0  0  0  0  0  0
  -10.4492   21.4616  -32.4029 H   0  0  0  0  0  0  0  0  0  0  0  0
  -10.0415   19.0278  -31.7695 H   0  0  0  0  0  0  0  0  0  0  0  0
   -8.4566   17.1388  -32.1644 H   0  0  0  0  0  0  0  0  0  0  0  0
   -4.9256   21.8895  -32.4044 H   0  0  0  0  0  0  0  0  0  0  0  0
   -3.8005   20.7375  -31.5631 H   0  0  0  0  0  0  0  0  0  0  0  0
   -3.4605   22.0076  -34.3177 H   0  0  0  0  0  0  0  0  0  0  0  0
   -2.4302   22.2253  -32.8644 H   0  0  0  0  0  0  0  0  0  0  0  0
   -0.1242   21.9684  -33.1814 H   0  0  0  0  0  0  0  0  0  0  0  0
    1.0386   20.9744  -34.1444 H   0  0  0  0  0  0  0  0  0  0  0  0
   -0.8600   23.0210  -35.0120 H   0  0  0  0  0  0  0  0  0  0  0  0
   -0.4830   21.7590  -36.0700 H   0  0  0  0  0  0  0  0  0  0  0  0
    0.2661   18.5882  -34.8864 H   0  0  0  0  0  0  0  0  0  0  0  0
   -1.9910   17.2630  -34.7150 H   0  0  0  0  0  0  0  0  0  0  0  0
   -4.6859   18.7199  -34.8393 H   0  0  0  0  0  0  0  0  0  0  0  0
   -4.3164   17.9037  -33.2585 H   0  0  0  0  0  0  0  0  0  0  0  0
   -6.8391   21.8186  -32.6222 H   0  0  0  0  0  0  0  0  0  0  0  0
  1  2  1  0
  2  3  2  0
  3  4  1  0
  4  5  2  0
  5  6  1  0
  6  7  1  0
  7  8  1  0
  8  9  1  0
  9 10  1  0
 10 11  1  0
 11 12  1  0
 12 13  1  0
 11 14  2  0
 14 15  1  0
 15 16  2  0
 16 17  1  0
  6 18  2  0
 18  2  1  0
 17  7  1  0
 16 10  1  0
  1 19  1  0
  1 20  1  0
  1 21  1  0
  3 22  1  0
  4 23  1  0
  8 24  1  0
  8 25  1  0
  9 26  1  0
  9 27  1  0
 12 28  1  0
 12 29  1  0
 13 30  1  0
 13 31  1  0
 14 32  1  0
 15 33  1  0
 17 34  1  0
 17 35  1  0
 18 36  1  0
M  CHG  1  15   1
M  END
>  <UniqueID>  (2) 
2

>  <SMILES>  (2) 
Cc1ccnc(N2CCn3c(CN)c[nH+]c3C2)c1

>  <Energy>  (2) 
70.5936300648284

>  <Genealogy>  (2) 
Cc1ccnc(N2CCn3c(CN)c[nH+]c3C2)c1 (protonated)
Cc1ccnc(N2CCn3c(CN)c[nH+]c3C2)c1 (3D coordinates assigned)
Cc1ccnc(N2CCn3c(CN)c[nH+]c3C2)c1 (nonaromatic ring conformer: 70.5936300648284 kcal/mol)

>  <smiles>  (2) 
Cc1ccnc(N2CCn3c(CN)cnc3C2)c1

>  <score_type>  (2) 
oracle

>  <origin>  (2) 
adg

>  <m_score__min__energy>  (2) 
-6.1799999999999997

>  <m_primary>  (2) 
energy

$$$$
2:0
     RDKit          3D

 38 40  0  0  0  0  0  0  0  0999 V2000
   -4.5290   25.7980  -30.5180 O   0  0  0  0  0  0  0  0  0  0  0  0
   -4.6330   24.5810  -30.8250 C   0  0  0  0  0  0  0  0  0  0  0  0
   -5.4700   24.2140  -31.9290 N   0  0  0  0  0  0  0  0  0  0  0  0
   -6.4180   23.1370  -31.9320 C   0  0  0  0  0  0  0  0  0  0  0  0
   -7.7650   23.3400  -31.5790 C   0  0  0  0  0  0  0  0  0  0  0  0
   -8.6680   22.2730  -31.6110 C   0  0  0  0  0  0  0  0  0  0  0  0
   -8.2380   21.0040  -32.0090 C   0  0  0  0  0  0  0  0  0  0  0  0
   -6.9070   20.8020  -32.3830 C   0  0  0  0  0  0  0  0  0  0  0  0
   -6.0020   21.8670  -32.3510 C   0  0  0  0  0  0  0  0  0  0  0  0
   -3.8780   23.5940  -30.0990 N   0  0  0  0  0  0  0  0  0  0  0  0
   -3.5940   23.8070  -28.6770 C   0  0  0  0  0  0  0  0  0  0  0  0
   -3.5160   22.4620  -27.9470 C   0  0  0  0  0  0  0  0  0  0  0  0
   -2.6430   21.5070  -28.6510 N   0  0  0  0  0  0  0  0  0  0  0  0
   -2.1770   20.3130  -27.9790 C   0  0  0  0  0  0  0  0  0  0  0  0
   -2.9330   19.7010  -26.9610 C   0  0  0  0  0  0  0  0  0  0  0  0
   -2.4460   18.5520  -26.3350 C   0  0  0  0  0  0  0  0  0  0  0  0
   -1.2180   18.0160  -26.7220 C   0  0  0  0  0  0  0  0  0  0  0  0
   -0.4920   18.6410  -27.7350 C   0  0  0  0  0  0  0  0  0  0  0  0
   -0.9810   19.7600  -28.3320 N   0  0  0  0  0  0  0  0  0  0  0  0
   -2.1160   21.8450  -29.9820 C   0  0  0  0  0  0  0  0  0  0  0  0
   -3.1980   22.5180  -30.8350 C   0  0  0  0  0  0  0  0  0  0  0  0
   -8.1083   24.3405  -31.2772 H   0  0  0  0  0  0  0  0  0  0  0  0
   -9.7175   22.4324  -31.3228 H   0  0  0  0  0  0  0  0  0  0  0  0
   -8.9478   20.1639  -32.0278 H   0  0  0  0  0  0  0  0  0  0  0  0
   -6.5711   19.8045  -32.7028 H   0  0  0  0  0  0  0  0  0  0  0  0
   -4.9575   21.7067  -32.6566 H   0  0  0  0  0  0  0  0  0  0  0  0
   -2.6338   24.3334  -28.5729 H   0  0  0  0  0  0  0  0  0  0  0  0
   -4.4016   24.4093  -28.2354 H   0  0  0  0  0  0  0  0  0  0  0  0
   -3.1183   22.6287  -26.9351 H   0  0  0  0  0  0  0  0  0  0  0  0
   -4.5289   22.0348  -27.9084 H   0  0  0  0  0  0  0  0  0  0  0  0
   -3.9021   20.1259  -26.6605 H   0  0  0  0  0  0  0  0  0  0  0  0
   -3.0303   18.0700  -25.5373 H   0  0  0  0  0  0  0  0  0  0  0  0
   -0.8270   17.1111  -26.2339 H   0  0  0  0  0  0  0  0  0  0  0  0
    0.4773   18.2282  -28.0514 H   0  0  0  0  0  0  0  0  0  0  0  0
   -1.2644   22.5322  -29.8700 H   0  0  0  0  0  0  0  0  0  0  0  0
   -1.7944   20.9195  -30.4820 H   0  0  0  0  0  0  0  0  0  0  0  0
   -2.7298   22.9424  -31.7354 H   0  0  0  0  0  0  0  0  0  0  0  0
   -3.9470   21.7579  -31.1019 H   0  0  0  0  0  0  0  0  0  0  0  0
  1  2  2  0
  2  3  1  0
  3  4  1  0
  4  5  2  0
  5  6  1  0
  6  7  2  0
  7  8  1  0
  8  9  2  0
  2 10  1  0
 10 11  1  0
 11 12  1  0
 12 13  1  0
 13 14  1  0
 14 15  2  0
 15 16  1  0
 16 17  2  0
 17 18  1  0
 18 19  2  0
 13 20  1  0
 20 21  1  0
  9  4  1  0
 21 10  1  0
 19 14  1  0
  5 22  1  0
  6 23  1  0
  7 24  1  0
  8 25  1  0
  9 26  1  0
 11 27  1  0
 11 28  1  0
 12 29  1  0
 12 30  1  0
 15 31  1  0
 16 32  1  0
 17 33  1  0
 18 34  1  0
 20 35  1  0
 20 36  1  0
 21 37  1  0
 21 38  1  0
M  CHG  1   3  -1
M  END
>  <UniqueID>  (3) 
3

>  <SMILES>  (3) 
O=C([N-]c1ccccc1)N1CCN(c2ccccn2)CC1

>  <Energy>  (3) 
47.40848049787641

>  <Genealogy>  (3) 
O=C([N-]c1ccccc1)N1CCN(c2ccccn2)CC1 (protonated)
O=C([N-]c1ccccc1)N1CCN(c2ccccn2)CC1 (3D coordinates assigned)
O=C([N-]c1ccccc1)N1CCN(c2ccccn2)CC1 (nonaromatic ring conformer: 47.40848049787641 kcal/mol)

>  <smiles>  (3) 
O=C(Nc1ccccc1)N1CCN(c2ccccn2)CC1

>  <score_type>  (3) 
oracle

>  <origin>  (3) 
adg

>  <m_score__min__energy>  (3) 
-8.1500000000000004

>  <m_primary>  (3) 
energy

$$$$
3:0
     RDKit          3D

 43 45  0  0  0  0  0  0  0  0999 V2000
   -4.6180   23.7870  -28.7760 C   0  0  0  0  0  0  0  0  0  0  0  0
   -4.1440   24.0990  -30.1610 C   0  0  0  0  0  0  0  0  0  0  0  0
   -3.8610   25.2910  -30.4500 O   0  0  0  0  0  0  0  0  0  0  0  0
   -4.0320   23.0480  -31.1980 C   0  0  0  0  0  0  0  0  0  0  0  0
   -4.8910   22.8250  -32.2690 C   0  0  0  0  0  0  0  0  0  0  0  0
   -6.1210   23.6060  -32.6110 C   0  0  0  0  0  0  0  0  0  0  0  0
   -4.4330   21.8110  -33.0280 N   0  0  0  0  0  0  0  0  0  0  0  0
   -3.2840   21.3790  -32.4720 C   0  0  0  0  0  0  0  0  0  0  0  0
   -2.4650   20.3000  -33.0600 C   0  0  0  0  0  0  0  0  0  0  0  0
   -1.3930   19.9580  -32.4930 O   0  0  0  0  0  0  0  0  0  0  0  0
   -2.8830   19.6520  -34.2280 O   0  0  0  0  0  0  0  0  0  0  0  0
   -3.4800   18.3580  -34.2360 C   0  0  0  0  0  0  0  0  0  0  0  0
   -4.8700   18.4280  -33.6900 C   0  0  0  0  0  0  0  0  0  0  0  0
   -5.7330   17.3990  -33.6680 N   0  0  0  0  0  0  0  0  0  0  0  0
   -6.8620   17.8400  -33.1420 N   0  0  0  0  0  0  0  0  0  0  0  0
   -6.6440   19.1430  -32.8590 C   0  0  0  0  0  0  0  0  0  0  0  0
   -7.6440   20.0430  -32.2530 C   0  0  0  0  0  0  0  0  0  0  0  0
   -8.9690   20.0420  -32.7220 C   0  0  0  0  0  0  0  0  0  0  0  0
   -9.9210   20.8920  -32.1500 C   0  0  0  0  0  0  0  0  0  0  0  0
   -9.5590   21.7500  -31.1090 C   0  0  0  0  0  0  0  0  0  0  0  0
   -8.2440   21.7580  -30.6360 C   0  0  0  0  0  0  0  0  0  0  0  0
   -7.2880   20.9090  -31.2040 C   0  0  0  0  0  0  0  0  0  0  0  0
   -5.4250   19.5070  -33.1940 O   0  0  0  0  0  0  0  0  0  0  0  0
   -3.0070   22.1150  -31.3250 C   0  0  0  0  0  0  0  0  0  0  0  0
   -1.8330   21.9320  -30.4050 C   0  0  0  0  0  0  0  0  0  0  0  0
   -3.9325   24.2382  -28.0435 H   0  0  0  0  0  0  0  0  0  0  0  0
   -5.6287   24.1970  -28.6333 H   0  0  0  0  0  0  0  0  0  0  0  0
   -4.6411   22.6965  -28.6333 H   0  0  0  0  0  0  0  0  0  0  0  0
   -6.6224   23.9244  -31.6851 H   0  0  0  0  0  0  0  0  0  0  0  0
   -5.8409   24.4920  -33.1996 H   0  0  0  0  0  0  0  0  0  0  0  0
   -6.8037   22.9756  -33.1996 H   0  0  0  0  0  0  0  0  0  0  0  0
   -4.8740   21.4500  -33.9030 H   0  0  0  0  0  0  0  0  0  0  0  0
   -3.5136   17.9796  -35.2683 H   0  0  0  0  0  0  0  0  0  0  0  0
   -2.8810   17.6822  -33.6080 H   0  0  0  0  0  0  0  0  0  0  0  0
   -5.5690   16.4250  -34.0050 H   0  0  0  0  0  0  0  0  0  0  0  0
   -9.2586   19.3695  -33.5429 H   0  0  0  0  0  0  0  0  0  0  0  0
  -10.9567   20.8848  -32.5206 H   0  0  0  0  0  0  0  0  0  0  0  0
  -10.3087   22.4192  -30.6616 H   0  0  0  0  0  0  0  0  0  0  0  0
   -7.9600   22.4332  -29.8154 H   0  0  0  0  0  0  0  0  0  0  0  0
   -6.2541   20.9190  -30.8286 H   0  0  0  0  0  0  0  0  0  0  0  0
   -2.1739   21.9851  -29.3605 H   0  0  0  0  0  0  0  0  0  0  0  0
   -1.3712   20.9510  -30.5905 H   0  0  0  0  0  0  0  0  0  0  0  0
   -1.0945   22.7259  -30.5905 H   0  0  0  0  0  0  0  0  0  0  0  0
  1  2  1  0
  2  3  2  0
  2  4  1  0
  4  5  2  0
  5  6  1  0
  5  7  1  0
  7  8  1  0
  8  9  1  0
  9 10  2  0
  9 11  1  0
 11 12  1  0
 12 13  1  0
 13 14  2  0
 14 15  1  0
 15 16  2  0
 16 17  1  0
 17 18  2  0
 18 19  1  0
 19 20  2  0
 20 21  1  0
 21 22  2  0
 16 23  1  0
  8 24  2  0
 24 25  1  0
 24  4  1  0
 23 13  1  0
 22 17  1  0
  1 26  1  0
  1 27  1  0
  1 28  1  0
  6 29  1  0
  6 30  1  0
  6 31  1  0
  7 32  1  0
 12 33  1  0
 12 34  1  0
 14 35  1  0
 18 36  1  0
 19 37  1  0
 20 38  1  0
 21 39  1  0
 22 40  1  0
 25 41  1  0
 25 42  1  0
 25 43  1  0
M  CHG  1  14   1
M  END
>  <UniqueID>  (4) 
4

>  <SMILES>  (4) 
CC(=O)c1c(C)[nH]c(C(=O)OCc2[nH+]nc(-c3ccccc3)o2)c1C

>  <Energy>  (4) 
104.7496637478612

>  <Genealogy>  (4) 
CC(=O)c1c(C)[nH]c(C(=O)OCc2[nH+]nc(-c3ccccc3)o2)c1C (protonated)
CC(=O)c1c(C)[nH]c(C(=O)OCc2[nH+]nc(-c3ccccc3)o2)c1C (3D coordinates assigned)
CC(=O)c1c(C)[nH]c(C(=O)OCc2[nH+]nc(-c3ccccc3)o2)c1C (optimized conformer: 104.7496637478612 kcal/mol)

>  <smiles>  (4) 
CC(=O)c1c(C)[nH]c(C(=O)OCc2nnc(-c3ccccc3)o2)c1C

>  <score_type>  (4) 
oracle

>  <origin>  (4) 
adg

>  <m_score__min__energy>  (4) 
-8.4499999999999993

>  <m_primary>  (4) 
energy

$$$$
4:0
     RDKit          3D

 42 44  0  0  0  0  0  0  0  0999 V2000
   -8.2250   20.6130  -32.5250 C   0  0  0  0  0  0  0  0  0  0  0  0
   -7.9600   21.8200  -31.6860 C   0  0  0  0  0  0  0  0  0  0  0  0
   -8.5560   21.9500  -30.5840 O   0  0  0  0  0  0  0  0  0  0  0  0
   -7.0750   22.8460  -32.1570 N   0  0  0  0  0  0  0  0  0  0  0  0
   -6.8700   24.1010  -31.4370 C   0  0  0  0  0  0  0  0  0  0  0  0
   -5.4530   24.2010  -30.9600 C   0  0  0  0  0  0  0  0  0  0  0  0
   -4.7550   25.3540  -30.9200 N   0  0  0  0  0  0  0  0  0  0  0  0
   -3.5440   25.0520  -30.5450 O   0  0  0  0  0  0  0  0  0  0  0  0
   -3.4170   23.7610  -30.3500 C   0  0  0  0  0  0  0  0  0  0  0  0
   -4.6260   23.1520  -30.6030 C   0  0  0  0  0  0  0  0  0  0  0  0
   -4.9660   21.6870  -30.5580 C   0  0  0  0  0  0  0  0  0  0  0  0
   -3.7430   20.7440  -30.5110 C   0  0  0  0  0  0  0  0  0  0  0  0
   -2.6600   21.0840  -31.4680 N   0  0  0  0  0  0  0  0  0  0  0  0
   -3.0740   21.2880  -32.8740 C   0  0  0  0  0  0  0  0  0  0  0  0
   -3.7810   20.0820  -33.4250 C   0  0  0  0  0  0  0  0  0  0  0  0
   -5.1810   20.0460  -33.4990 C   0  0  0  0  0  0  0  0  0  0  0  0
   -5.8100   18.9120  -34.0200 C   0  0  0  0  0  0  0  0  0  0  0  0
   -5.0420   17.8290  -34.4540 C   0  0  0  0  0  0  0  0  0  0  0  0
   -3.6500   17.8980  -34.3620 C   0  0  0  0  0  0  0  0  0  0  0  0
   -3.0570   19.0110  -33.8540 N   0  0  0  0  0  0  0  0  0  0  0  0
   -1.6560   22.0740  -30.9890 C   0  0  0  0  0  0  0  0  0  0  0  0
   -2.1550   23.0840  -29.9320 C   0  0  0  0  0  0  0  0  0  0  0  0
   -8.4150   19.7477  -31.8729 H   0  0  0  0  0  0  0  0  0  0  0  0
   -9.1048   20.7938  -33.1600 H   0  0  0  0  0  0  0  0  0  0  0  0
   -7.3503   20.4086  -33.1600 H   0  0  0  0  0  0  0  0  0  0  0  0
   -6.5550   22.6950  -33.0510 H   0  0  0  0  0  0  0  0  0  0  0  0
   -7.0872   24.9445  -32.1088 H   0  0  0  0  0  0  0  0  0  0  0  0
   -7.5432   24.1290  -30.5675 H   0  0  0  0  0  0  0  0  0  0  0  0
   -5.5753   21.5036  -29.6607 H   0  0  0  0  0  0  0  0  0  0  0  0
   -5.4977   21.4615  -31.4942 H   0  0  0  0  0  0  0  0  0  0  0  0
   -3.3244   20.7763  -29.4943 H   0  0  0  0  0  0  0  0  0  0  0  0
   -4.1086   19.7468  -30.7972 H   0  0  0  0  0  0  0  0  0  0  0  0
   -3.7520   22.1527  -32.9242 H   0  0  0  0  0  0  0  0  0  0  0  0
   -2.1700   21.4609  -33.4764 H   0  0  0  0  0  0  0  0  0  0  0  0
   -5.7780   20.9017  -33.1505 H   0  0  0  0  0  0  0  0  0  0  0  0
   -6.9072   18.8724  -34.0881 H   0  0  0  0  0  0  0  0  0  0  0  0
   -5.5282   16.9314  -34.8638 H   0  0  0  0  0  0  0  0  0  0  0  0
   -3.0337   17.0521  -34.7005 H   0  0  0  0  0  0  0  0  0  0  0  0
   -0.8150   21.5162  -30.5514 H   0  0  0  0  0  0  0  0  0  0  0  0
   -1.3864   22.6745  -31.8703 H   0  0  0  0  0  0  0  0  0  0  0  0
   -2.3362   22.5485  -28.9884 H   0  0  0  0  0  0  0  0  0  0  0  0
   -1.3814   23.8567  -29.8121 H   0  0  0  0  0  0  0  0  0  0  0  0
  1  2  1  0
  2  3  2  0
  2  4  1  0
  4  5  1  0
  5  6  1  0
  6  7  2  0
  7  8  1  0
  8  9  1  0
  9 10  2  0
 10 11  1  0
 11 12  1  0
 12 13  1  0
 13 14  1  0
 14 15  1  0
 15 16  2  0
 16 17  1  0
 17 18  2  0
 18 19  1  0
 19 20  2  0
 13 21  1  0
 21 22  1  0
 10  6  1  0
 20 15  1  0
 22  9  1  0
  1 23  1  0
  1 24  1  0
  1 25  1  0
  4 26  1  0
  5 27  1  0
  5 28  1  0
 11 29  1  0
 11 30  1  0
 12 31  1  0
 12 32  1  0
 14 33  1  0
 14 34  1  0
 16 35  1  0
 17 36  1  0
 18 37  1  0
 19 38  1  0
 21 39  1  0
 21 40  1  0
 22 41  1  0
 22 42  1  0
M  END
>  <UniqueID>  (5) 
5

>  <SMILES>  (5) 
CC(=O)NCc1noc2c1CCN(Cc1ccccn1)CC2

>  <Energy>  (5) 
81.03042891252935

>  <Genealogy>  (5) 
CC(=O)NCc1noc2c1CCN(Cc1ccccn1)CC2 (3D coordinates assigned)
CC(=O)NCc1noc2c1CCN(Cc1ccccn1)CC2 (nonaromatic ring conformer: 81.03042891252935 kcal/mol)

>  <smiles>  (5) 
CC(=O)NCc1noc2c1CCN(Cc1ccccn1)CC2

>  <score_type>  (5) 
oracle

>  <origin>  (5) 
adg

>  <m_score__min__energy>  (5) 
-6.5899999999999999

>  <m_primary>  (5) 
energy

$$$$
5:0
     RDKit          3D

 56 57  0  0  0  0  0  0  0  0999 V2000
   -4.4400   17.4560  -34.8670 C   0  0  0  0  0  0  0  0  0  0  0  0
   -3.4290   18.3870  -34.2010 C   0  0  0  0  0  0  0  0  0  0  0  0
   -3.9350   18.9210  -32.8540 C   0  0  0  0  0  0  0  0  0  0  0  0
   -4.3270   20.3340  -32.9520 N   0  0  0  0  0  0  0  0  0  0  0  0
   -3.3540   21.3200  -33.4510 C   0  0  0  0  0  0  0  0  0  0  0  0
   -1.9810   21.1570  -32.7900 C   0  0  0  0  0  0  0  0  0  0  0  0
   -2.0490   21.3220  -31.2740 C   0  0  0  0  0  0  0  0  0  0  0  0
   -5.6470   20.7400  -32.5340 C   0  0  0  0  0  0  0  0  0  0  0  0
   -6.8410   20.0370  -32.6910 C   0  0  0  0  0  0  0  0  0  0  0  0
   -7.0380   18.6770  -33.2920 C   0  0  0  0  0  0  0  0  0  0  0  0
   -7.1360   17.6150  -32.2030 C   0  0  0  0  0  0  0  0  0  0  0  0
   -7.8700   20.7810  -32.2200 N   0  0  0  0  0  0  0  0  0  0  0  0
   -7.2780   21.9160  -31.7970 C   0  0  0  0  0  0  0  0  0  0  0  0
   -7.9340   23.0100  -31.2390 C   0  0  0  0  0  0  0  0  0  0  0  0
   -7.1580   24.1130  -30.8560 C   0  0  0  0  0  0  0  0  0  0  0  0
   -5.7530   24.0910  -31.0050 C   0  0  0  0  0  0  0  0  0  0  0  0
   -4.9190   25.2510  -30.6270 C   0  0  0  0  0  0  0  0  0  0  0  0
   -5.4730   26.3730  -30.4850 O   0  0  0  0  0  0  0  0  0  0  0  0
   -3.4970   25.1640  -30.4540 N   0  0  0  0  0  0  0  0  0  0  0  0
   -2.7660   24.1580  -29.6860 C   0  0  0  0  0  0  0  0  0  0  0  0
   -1.4740   24.7060  -29.1670 C   0  0  0  0  0  0  0  0  0  0  0  0
   -0.4990   23.9300  -28.9650 O   0  0  0  0  0  0  0  0  0  0  0  0
   -1.3520   26.0830  -28.9510 O   0  0  0  0  0  0  0  0  0  0  0  0
   -0.8520   26.6440  -27.7390 C   0  0  0  0  0  0  0  0  0  0  0  0
   -1.5160   25.9910  -26.5350 C   0  0  0  0  0  0  0  0  0  0  0  0
   -5.1520   22.9600  -31.5910 C   0  0  0  0  0  0  0  0  0  0  0  0
   -5.9450   21.9240  -31.9710 N   0  0  0  0  0  0  0  0  0  0  0  0
   -5.0154   16.9261  -34.0936 H   0  0  0  0  0  0  0  0  0  0  0  0
   -5.1248   18.0463  -35.4935 H   0  0  0  0  0  0  0  0  0  0  0  0
   -3.9080   16.7250  -35.4935 H   0  0  0  0  0  0  0  0  0  0  0  0
   -2.4934   17.8332  -34.0340 H   0  0  0  0  0  0  0  0  0  0  0  0
   -3.2704   19.2472  -34.8681 H   0  0  0  0  0  0  0  0  0  0  0  0
   -4.8065   18.3286  -32.5384 H   0  0  0  0  0  0  0  0  0  0  0  0
   -3.1203   18.8372  -32.1196 H   0  0  0  0  0  0  0  0  0  0  0  0
   -3.2426   21.1905  -34.5377 H   0  0  0  0  0  0  0  0  0  0  0  0
   -3.7317   22.3238  -33.2066 H   0  0  0  0  0  0  0  0  0  0  0  0
   -1.5936   20.1536  -33.0203 H   0  0  0  0  0  0  0  0  0  0  0  0
   -1.3196   21.9415  -33.1863 H   0  0  0  0  0  0  0  0  0  0  0  0
   -1.6729   20.4094  -30.7886 H   0  0  0  0  0  0  0  0  0  0  0  0
   -1.4312   22.1800  -30.9705 H   0  0  0  0  0  0  0  0  0  0  0  0
   -3.0920   21.4956  -30.9705 H   0  0  0  0  0  0  0  0  0  0  0  0
   -7.9657   18.6745  -33.8831 H   0  0  0  0  0  0  0  0  0  0  0  0
   -6.1752   18.4461  -33.9341 H   0  0  0  0  0  0  0  0  0  0  0  0
   -7.0915   18.0973  -31.2154 H   0  0  0  0  0  0  0  0  0  0  0  0
   -8.0880   17.0732  -32.3039 H   0  0  0  0  0  0  0  0  0  0  0  0
   -6.2993   16.9081  -32.3039 H   0  0  0  0  0  0  0  0  0  0  0  0
   -9.0256   23.0089  -31.1031 H   0  0  0  0  0  0  0  0  0  0  0  0
   -7.6474   25.0039  -30.4356 H   0  0  0  0  0  0  0  0  0  0  0  0
   -3.3857   23.8351  -28.8365 H   0  0  0  0  0  0  0  0  0  0  0  0
   -2.5427   23.3088  -30.3485 H   0  0  0  0  0  0  0  0  0  0  0  0
    0.2345   26.4808  -27.6859 H   0  0  0  0  0  0  0  0  0  0  0  0
   -1.0749   27.7211  -27.7273 H   0  0  0  0  0  0  0  0  0  0  0  0
   -1.0911   26.4089  -25.6105 H   0  0  0  0  0  0  0  0  0  0  0  0
   -2.5982   26.1865  -26.5622 H   0  0  0  0  0  0  0  0  0  0  0  0
   -1.3386   24.9057  -26.5622 H   0  0  0  0  0  0  0  0  0  0  0  0
   -4.0628   22.9162  -31.7381 H   0  0  0  0  0  0  0  0  0  0  0  0
  1  2  1  0
  2  3  1  0
  3  4  1  0
  4  5  1  0
  5  6  1  0
  6  7  1  0
  4  8  1  0
  8  9  2  0
  9 10  1  0
 10 11  1  0
  9 12  1  0
 12 13  2  0
 13 14  1  0
 14 15  2  0
 15 16  1  0
 16 17  1  0
 17 18  2  0
 17 19  1  0
 19 20  1  0
 20 21  1  0
 21 22  2  0
 21 23  1  0
 23 24  1  0
 24 25  1  0
 16 26  2  0
 26 27  1  0
 27  8  1  0
 27 13  1  0
  1 28  1  0
  1 29  1  0
  1 30  1  0
  2 31  1  0
  2 32  1  0
  3 33  1  0
  3 34  1  0
  5 35  1  0
  5 36  1  0
  6 37  1  0
  6 38  1  0
  7 39  1  0
  7 40  1  0
  7 41  1  0
 10 42  1  0
 10 43  1  0
 11 44  1  0
 11 45  1  0
 11 46  1  0
 14 47  1  0
 15 48  1  0
 20 49  1  0
 20 50  1  0
 24 51  1  0
 24 52  1  0
 25 53  1  0
 25 54  1  0
 25 55  1  0
 26 56  1  0
M  CHG  1  19  -1
M  END
>  <UniqueID>  (6) 
6

>  <SMILES>  (6) 
CCCN(CCC)c1c(CC)nc2ccc(C(=O)[N-]CC(=O)OCC)cn12

>  <Energy>  (6) 
75.39036991105871

>  <Genealogy>  (6) 
CCCN(CCC)c1c(CC)nc2ccc(C(=O)[N-]CC(=O)OCC)cn12 (protonated)
CCCN(CCC)c1c(CC)nc2ccc(C(=O)[N-]CC(=O)OCC)cn12 (3D coordinates assigned)
CCCN(CCC)c1c(CC)nc2ccc(C(=O)[N-]CC(=O)OCC)cn12 (optimized conformer: 75.39036991105871 kcal/mol)

>  <smiles>  (6) 
CCCN(CCC)c1c(CC)nc2ccc(C(=O)NCC(=O)OCC)cn12

>  <score_type>  (6) 
oracle

>  <origin>  (6) 
adg

>  <m_score__min__energy>  (6) 
-9.8499999999999996

>  <m_primary>  (6) 
energy

$$$$
6:0
     RDKit          3D

 41 44  0  0  0  0  0  0  0  0999 V2000
   -3.7030   14.7790  -34.7870 C   0  0  0  0  0  0  0  0  0  0  0  0
   -4.2070   16.0290  -34.1300 C   0  0  0  0  0  0  0  0  0  0  0  0
   -4.9070   15.9570  -32.9170 C   0  0  0  0  0  0  0  0  0  0  0  0
   -5.4110   17.1170  -32.3220 C   0  0  0  0  0  0  0  0  0  0  0  0
   -5.2220   18.3660  -32.9360 C   0  0  0  0  0  0  0  0  0  0  0  0
   -5.7760   19.5940  -32.3220 C   0  0  0  0  0  0  0  0  0  0  0  0
   -4.8820   20.5170  -31.7570 C   0  0  0  0  0  0  0  0  0  0  0  0
   -5.3560   21.7160  -31.2000 C   0  0  0  0  0  0  0  0  0  0  0  0
   -4.4340   22.7180  -30.6080 C   0  0  0  0  0  0  0  0  0  0  0  0
   -4.9300   23.9720  -30.2040 C   0  0  0  0  0  0  0  0  0  0  0  0
   -4.0770   24.9240  -29.6370 C   0  0  0  0  0  0  0  0  0  0  0  0
   -2.7220   24.6370  -29.4570 C   0  0  0  0  0  0  0  0  0  0  0  0
   -1.8840   25.5960  -28.8910 O   0  0  0  0  0  0  0  0  0  0  0  0
   -2.2200   23.3890  -29.8430 C   0  0  0  0  0  0  0  0  0  0  0  0
   -3.0680   22.4340  -30.4110 C   0  0  0  0  0  0  0  0  0  0  0  0
   -6.6910   21.9750  -31.2260 N   0  0  0  0  0  0  0  0  0  0  0  0
   -7.5950   21.1070  -31.7500 C   0  0  0  0  0  0  0  0  0  0  0  0
   -8.9560   21.4310  -31.7280 C   0  0  0  0  0  0  0  0  0  0  0  0
   -9.8980   20.5370  -32.2380 C   0  0  0  0  0  0  0  0  0  0  0  0
   -9.4870   19.3130  -32.7670 C   0  0  0  0  0  0  0  0  0  0  0  0
   -8.1300   18.9790  -32.7990 C   0  0  0  0  0  0  0  0  0  0  0  0
   -7.1620   19.8790  -32.3060 C   0  0  0  0  0  0  0  0  0  0  0  0
   -4.5500   18.4340  -34.1660 C   0  0  0  0  0  0  0  0  0  0  0  0
   -4.0470   17.2730  -34.7600 C   0  0  0  0  0  0  0  0  0  0  0  0
   -3.4098   14.0519  -34.0154 H   0  0  0  0  0  0  0  0  0  0  0  0
   -4.4977   14.3482  -35.4138 H   0  0  0  0  0  0  0  0  0  0  0  0
   -2.8317   15.0199  -35.4138 H   0  0  0  0  0  0  0  0  0  0  0  0
   -5.0603   14.9821  -32.4311 H   0  0  0  0  0  0  0  0  0  0  0  0
   -5.9575   17.0515  -31.3696 H   0  0  0  0  0  0  0  0  0  0  0  0
   -3.8037   20.2999  -31.7505 H   0  0  0  0  0  0  0  0  0  0  0  0
   -5.9970   24.2048  -30.3354 H   0  0  0  0  0  0  0  0  0  0  0  0
   -4.4748   25.9030  -29.3315 H   0  0  0  0  0  0  0  0  0  0  0  0
   -1.6110   26.4280  -29.4010 H   0  0  0  0  0  0  0  0  0  0  0  0
   -1.1541   23.1587  -29.6989 H   0  0  0  0  0  0  0  0  0  0  0  0
   -2.6660   21.4536  -30.7064 H   0  0  0  0  0  0  0  0  0  0  0  0
   -9.2841   22.3930  -31.3075 H   0  0  0  0  0  0  0  0  0  0  0  0
  -10.9666   20.7976  -32.2230 H   0  0  0  0  0  0  0  0  0  0  0  0
  -10.2340   18.6079  -33.1605 H   0  0  0  0  0  0  0  0  0  0  0  0
   -7.8152   18.0089  -33.2110 H   0  0  0  0  0  0  0  0  0  0  0  0
   -4.4185   19.4054  -34.6650 H   0  0  0  0  0  0  0  0  0  0  0  0
   -3.5234   17.3345  -35.7255 H   0  0  0  0  0  0  0  0  0  0  0  0
  1  2  1  0
  2  3  2  0
  3  4  1  0
  4  5  2  0
  5  6  1  0
  6  7  2  0
  7  8  1  0
  8  9  1  0
  9 10  2  0
 10 11  1  0
 11 12  2  0
 12 13  1  0
 12 14  1  0
 14 15  2  0
  8 16  2  0
 16 17  1  0
 17 18  2  0
 18 19  1  0
 19 20  2  0
 20 21  1  0
 21 22  2  0
  5 23  1  0
 23 24  2  0
 24  2  1  0
 22  6  1  0
 15  9  1  0
 22 17  1  0
  1 25  1  0
  1 26  1  0
  1 27  1  0
  3 28  1  0
  4 29  1  0
  7 30  1  0
 10 31  1  0
 11 32  1  0
 13 33  1  0
 14 34  1  0
 15 35  1  0
 18 36  1  0
 19 37  1  0
 20 38  1  0
 21 39  1  0
 23 40  1  0
 24 41  1  0
M  END
>  <UniqueID>  (7) 
7

>  <SMILES>  (7) 
Cc1ccc(-c2cc(-c3ccc(O)cc3)nc3ccccc23)cc1

>  <Energy>  (7) 
60.23818960179864

>  <Genealogy>  (7) 
Cc1ccc(-c2cc(-c3ccc(O)cc3)nc3ccccc23)cc1 (3D coordinates assigned)
Cc1ccc(-c2cc(-c3ccc(O)cc3)nc3ccccc23)cc1 (optimized conformer: 60.23818960179864 kcal/mol)

>  <smiles>  (7) 
Cc1ccc(-c2cc(-c3ccc(O)cc3)nc3ccccc23)cc1

>  <score_type>  (7) 
oracle

>  <origin>  (7) 
adg

>  <m_score__min__energy>  (7) 
-8.8599999999999994

>  <m_primary>  (7) 
energy

$$$$
7:0
     RDKit          3D

 42 44  0  0  0  0  0  0  0  0999 V2000
   -1.8650   24.2190  -28.7400 C   0  0  0  0  0  0  0  0  0  0  0  0
   -2.7350   24.9100  -29.6300 O   0  0  0  0  0  0  0  0  0  0  0  0
   -3.9770   24.4210  -30.0620 C   0  0  0  0  0  0  0  0  0  0  0  0
   -4.3250   23.0590  -29.9710 C   0  0  0  0  0  0  0  0  0  0  0  0
   -5.5750   22.6200  -30.4160 C   0  0  0  0  0  0  0  0  0  0  0  0
   -6.4990   23.5330  -30.9510 C   0  0  0  0  0  0  0  0  0  0  0  0
   -7.8310   23.0570  -31.4680 C   0  0  0  0  0  0  0  0  0  0  0  0
   -7.7400   21.6500  -31.8890 N   0  0  0  0  0  0  0  0  0  0  0  0
   -6.8040   21.2940  -32.8180 C   0  0  0  0  0  0  0  0  0  0  0  0
   -6.6710   19.9640  -33.2080 C   0  0  0  0  0  0  0  0  0  0  0  0
   -7.4750   19.0030  -32.6650 N   0  0  0  0  0  0  0  0  0  0  0  0
   -7.2840   17.5990  -33.0660 C   0  0  0  0  0  0  0  0  0  0  0  0
   -5.8710   17.3800  -33.5400 C   0  0  0  0  0  0  0  0  0  0  0  0
   -5.5570   17.5050  -34.9040 C   0  0  0  0  0  0  0  0  0  0  0  0
   -4.2390   17.3380  -35.3420 C   0  0  0  0  0  0  0  0  0  0  0  0
   -3.2260   17.0530  -34.4230 C   0  0  0  0  0  0  0  0  0  0  0  0
   -1.5730   16.8470  -34.9740 Cl  0  0  0  0  0  0  0  0  0  0  0  0
   -3.5300   16.9350  -33.0620 C   0  0  0  0  0  0  0  0  0  0  0  0
   -4.8460   17.1010  -32.6210 C   0  0  0  0  0  0  0  0  0  0  0  0
   -8.4060   19.3490  -31.7210 C   0  0  0  0  0  0  0  0  0  0  0  0
   -9.1470   18.4700  -31.1980 O   0  0  0  0  0  0  0  0  0  0  0  0
   -8.5410   20.6890  -31.3280 C   0  0  0  0  0  0  0  0  0  0  0  0
   -9.4000   20.9990  -30.4570 O   0  0  0  0  0  0  0  0  0  0  0  0
   -6.1470   24.8870  -31.0470 C   0  0  0  0  0  0  0  0  0  0  0  0
   -4.8970   25.3260  -30.6030 C   0  0  0  0  0  0  0  0  0  0  0  0
   -2.1486   24.4443  -27.7013 H   0  0  0  0  0  0  0  0  0  0  0  0
   -1.9456   23.1361  -28.9155 H   0  0  0  0  0  0  0  0  0  0  0  0
   -0.8284   24.5427  -28.9155 H   0  0  0  0  0  0  0  0  0  0  0  0
   -3.6100   22.3380  -29.5480 H   0  0  0  0  0  0  0  0  0  0  0  0
   -5.8368   21.5538  -30.3470 H   0  0  0  0  0  0  0  0  0  0  0  0
   -8.5840   23.1499  -30.6715 H   0  0  0  0  0  0  0  0  0  0  0  0
   -8.1207   23.6721  -32.3327 H   0  0  0  0  0  0  0  0  0  0  0  0
   -6.1521   22.0618  -33.2602 H   0  0  0  0  0  0  0  0  0  0  0  0
   -5.9148   19.6861  -33.9570 H   0  0  0  0  0  0  0  0  0  0  0  0
   -7.4836   16.9449  -32.2044 H   0  0  0  0  0  0  0  0  0  0  0  0
   -7.9780   17.3628  -33.8861 H   0  0  0  0  0  0  0  0  0  0  0  0
   -6.3507   17.7350  -35.6301 H   0  0  0  0  0  0  0  0  0  0  0  0
   -3.9998   17.4312  -36.4116 H   0  0  0  0  0  0  0  0  0  0  0  0
   -2.7323   16.7113  -32.3384 H   0  0  0  0  0  0  0  0  0  0  0  0
   -5.0799   17.0128  -31.5498 H   0  0  0  0  0  0  0  0  0  0  0  0
   -6.8594   25.6080  -31.4745 H   0  0  0  0  0  0  0  0  0  0  0  0
   -4.6341   26.3914  -30.6793 H   0  0  0  0  0  0  0  0  0  0  0  0
  1  2  1  0
  2  3  1  0
  3  4  2  0
  4  5  1  0
  5  6  2  0
  6  7  1  0
  7  8  1  0
  8  9  1  0
  9 10  2  0
 10 11  1  0
 11 12  1  0
 12 13  1  0
 13 14  2  0
 14 15  1  0
 15 16  2  0
 16 17  1  0
 16 18  1  0
 18 19  2  0
 11 20  1  0
 20 21  2  0
 20 22  1  0
 22 23  2  0
  6 24  1  0
 24 25  2  0
 25  3  1  0
 22  8  1  0
 19 13  1  0
  1 26  1  0
  1 27  1  0
  1 28  1  0
  4 29  1  0
  5 30  1  0
  7 31  1  0
  7 32  1  0
  9 33  1  0
 10 34  1  0
 12 35  1  0
 12 36  1  0
 14 37  1  0
 15 38  1  0
 18 39  1  0
 19 40  1  0
 24 41  1  0
 25 42  1  0
M  END
>  <UniqueID>  (8) 
8

>  <SMILES>  (8) 
COc1ccc(Cn2ccn(Cc3ccc(Cl)cc3)c(=O)c2=O)cc1

>  <Energy>  (8) 
47.388098616837674

>  <Genealogy>  (8) 
COc1ccc(Cn2ccn(Cc3ccc(Cl)cc3)c(=O)c2=O)cc1 (3D coordinates assigned)
COc1ccc(Cn2ccn(Cc3ccc(Cl)cc3)c(=O)c2=O)cc1 (optimized conformer: 47.388098616837674 kcal/mol)

>  <smiles>  (8) 
COc1ccc(Cn2ccn(Cc3ccc(Cl)cc3)c(=O)c2=O)cc1

>  <score_type>  (8) 
oracle

>  <origin>  (8) 
adg

>  <m_score__min__energy>  (8) 
-8.4000000000000004

>  <m_primary>  (8) 
energy

$$$$
8:0
     RDKit          3D

 46 49  0  0  0  0  0  0  0  0999 V2000
   -1.4517   21.1575  -25.8934 H   0  0  0  0  0  0  0  0  0  0  0  0
   -1.2710   21.3670  -26.9580 C   0  0  0  0  0  0  0  0  0  0  0  0
   -2.1710   22.0930  -27.6710 N   0  0  0  0  0  0  0  0  0  0  0  0
   -1.9640   22.3710  -28.9880 C   0  0  0  0  0  0  0  0  0  0  0  0
   -2.9710   23.1430  -29.7550 C   0  0  0  0  0  0  0  0  0  0  0  0
   -2.9610   24.5530  -29.7090 C   0  0  0  0  0  0  0  0  0  0  0  0
   -2.0830   25.1800  -28.9780 N   0  0  0  0  0  0  0  0  0  0  0  0
   -2.1140   25.2790  -27.5190 C   0  0  0  0  0  0  0  0  0  0  0  0
   -2.5478   26.2477  -27.2302 H   0  0  0  0  0  0  0  0  0  0  0  0
   -2.7255   24.4575  -27.1176 H   0  0  0  0  0  0  0  0  0  0  0  0
   -0.6860   25.1690  -26.9440 C   0  0  0  0  0  0  0  0  0  0  0  0
   -0.5357   24.1372  -26.5935 H   0  0  0  0  0  0  0  0  0  0  0  0
   -0.0002   25.4529  -27.7558 H   0  0  0  0  0  0  0  0  0  0  0  0
   -0.4040   26.0850  -25.8170 N   0  0  0  0  0  0  0  0  0  0  0  0
   -0.5940   25.4640  -24.4910 C   0  0  0  0  0  0  0  0  0  0  0  0
   -1.5940   25.0080  -24.4454 H   0  0  0  0  0  0  0  0  0  0  0  0
    0.1811   24.6974  -24.3443 H   0  0  0  0  0  0  0  0  0  0  0  0
   -0.4670   26.5190  -23.3740 C   0  0  0  0  0  0  0  0  0  0  0  0
   -1.4727   26.8206  -23.0458 H   0  0  0  0  0  0  0  0  0  0  0  0
    0.0923   26.0803  -22.5345 H   0  0  0  0  0  0  0  0  0  0  0  0
    0.2300   27.6570  -23.8400 O   0  0  0  0  0  0  0  0  0  0  0  0
   -0.5420   28.3330  -24.8200 C   0  0  0  0  0  0  0  0  0  0  0  0
   -1.3908   28.8240  -24.3216 H   0  0  0  0  0  0  0  0  0  0  0  0
    0.1165   29.0612  -25.3161 H   0  0  0  0  0  0  0  0  0  0  0  0
   -1.0900   27.3850  -25.9080 C   0  0  0  0  0  0  0  0  0  0  0  0
   -2.1702   27.2409  -25.7586 H   0  0  0  0  0  0  0  0  0  0  0  0
   -0.9127   27.8246  -26.9006 H   0  0  0  0  0  0  0  0  0  0  0  0
   -3.8640   25.2540  -30.4480 N   0  0  0  0  0  0  0  0  0  0  0  0
   -4.7660   24.6520  -31.2210 N   0  0  0  0  0  0  0  0  0  0  0  0
   -4.8360   23.3020  -31.3070 C   0  0  0  0  0  0  0  0  0  0  0  0
   -5.7810   22.7270  -32.0980 N   0  0  0  0  0  0  0  0  0  0  0  0
   -5.9070   21.3770  -32.2030 C   0  0  0  0  0  0  0  0  0  0  0  0
   -6.9760   20.7950  -33.0700 C   0  0  0  0  0  0  0  0  0  0  0  0
   -7.7667   20.3645  -32.4380 H   0  0  0  0  0  0  0  0  0  0  0  0
   -7.4035   21.5849  -33.7051 H   0  0  0  0  0  0  0  0  0  0  0  0
   -6.5446   20.0072  -33.7051 H   0  0  0  0  0  0  0  0  0  0  0  0
   -5.0650   20.5420  -31.4600 C   0  0  0  0  0  0  0  0  0  0  0  0
   -5.1740   19.4492  -31.5226 H   0  0  0  0  0  0  0  0  0  0  0  0
   -4.0860   21.1040  -30.6390 C   0  0  0  0  0  0  0  0  0  0  0  0
   -3.4247   20.4521  -30.0494 H   0  0  0  0  0  0  0  0  0  0  0  0
   -3.9420   22.5040  -30.5630 C   0  0  0  0  0  0  0  0  0  0  0  0
   -0.8470   21.9010  -29.6070 N   0  0  0  0  0  0  0  0  0  0  0  0
    0.0760   21.1710  -28.9290 C   0  0  0  0  0  0  0  0  0  0  0  0
    0.9752   20.8037  -29.4452 H   0  0  0  0  0  0  0  0  0  0  0  0
   -0.1180   20.8880  -27.5780 C   0  0  0  0  0  0  0  0  0  0  0  0
    0.6215   20.3004  -27.0142 H   0  0  0  0  0  0  0  0  0  0  0  0
  1  2  1  0
  2  3  2  0
  3  4  1  0
  4  5  1  0
  5  6  1  0
  6  7  2  0
  7  8  1  0
  8  9  1  0
  8 10  1  0
  8 11  1  0
 11 12  1  0
 11 13  1  0
 11 14  1  0
 14 15  1  0
 15 16  1  0
 15 17  1  0
 15 18  1  0
 18 19  1  0
 18 20  1  0
 18 21  1  0
 21 22  1  0
 22 23  1  0
 22 24  1  0
 22 25  1  0
 25 26  1  0
 25 27  1  0
  6 28  1  0
 28 29  1  0
 29 30  2  0
 30 31  1  0
 31 32  2  0
 32 33  1  0
 33 34  1  0
 33 35  1  0
 33 36  1  0
 32 37  1  0
 37 38  1  0
 37 39  2  0
 39 40  1  0
 39 41  1  0
  4 42  2  0
 42 43  1  0
 43 44  1  0
 43 45  2  0
 45 46  1  0
 45  2  1  0
 41  5  2  0
 25 14  1  0
 41 30  1  0
M  CHG  1  28  -1
M  END
>  <UniqueID>  (9) 
9

>  <SMILES>  (9) 
Cc1ccc2c(-c3ncccn3)/c(=N/CCN3CCOCC3)[n-]nc2n1

>  <Energy>  (9) 
73.91571483124363

>  <Genealogy>  (9) 
Cc1ccc2c(-c3ncccn3)c(=NCCN3CCOCC3)[n-]nc2n1 (protonated)
Cc1ccc2c(-c3ncccn3)/c(=N/CCN3CCOCC3)[n-]nc2n1 (cis-trans isomerization)
Cc1ccc2c(-c3ncccn3)/c(=N/CCN3CCOCC3)[n-]nc2n1 (3D coordinates assigned)
Cc1ccc2c(-c3ncccn3)/c(=N/CCN3CCOCC3)[n-]nc2n1 (nonaromatic ring conformer: 73.91571483124363 kcal/mol)

>  <smiles>  (9) 
Cc1ccc2c(-c3ncccn3)c(=NCCN3CCOCC3)[nH]nc2n1

>  <score_type>  (9) 
oracle

>  <origin>  (9) 
adg

>  <m_score__min__energy>  (9) 
-9.0500000000000007

>  <m_primary>  (9) 
energy

$$$$
9:0
     RDKit          3D

 39 41  0  0  0  0  0  0  0  0999 V2000
    0.1320   24.8790  -28.2280 O   0  0  0  0  0  0  0  0  0  0  0  0
   -1.0060   25.2230  -28.6500 C   0  0  0  0  0  0  0  0  0  0  0  0
   -1.2300   26.5570  -28.9710 O   0  0  0  0  0  0  0  0  0  0  0  0
   -2.0870   24.2250  -28.7970 C   0  0  0  0  0  0  0  0  0  0  0  0
   -2.0170   22.9970  -28.1140 C   0  0  0  0  0  0  0  0  0  0  0  0
   -3.0410   22.0560  -28.2430 C   0  0  0  0  0  0  0  0  0  0  0  0
   -4.1510   22.3310  -29.0460 C   0  0  0  0  0  0  0  0  0  0  0  0
   -4.2410   23.5520  -29.7300 C   0  0  0  0  0  0  0  0  0  0  0  0
   -5.6660   23.9110  -30.7050 S   0  0  0  0  0  0  0  0  0  0  0  0
   -5.4590   25.2390  -31.3850 O   0  0  0  0  0  0  0  0  0  0  0  0
   -6.8680   24.0130  -29.8040 O   0  0  0  0  0  0  0  0  0  0  0  0
   -5.9760   22.7020  -31.9180 N   0  0  0  0  0  0  0  0  0  0  0  0
   -7.1470   21.8820  -31.9960 C   0  0  0  0  0  0  0  0  0  0  0  0
   -8.4250   22.3870  -31.7080 C   0  0  0  0  0  0  0  0  0  0  0  0
   -9.5460   21.5550  -31.7950 C   0  0  0  0  0  0  0  0  0  0  0  0
   -9.4010   20.2230  -32.1880 C   0  0  0  0  0  0  0  0  0  0  0  0
   -8.1330   19.7240  -32.5420 C   0  0  0  0  0  0  0  0  0  0  0  0
   -7.9420   18.3960  -32.9600 O   0  0  0  0  0  0  0  0  0  0  0  0
   -6.7080   17.8000  -33.2660 C   0  0  0  0  0  0  0  0  0  0  0  0
   -6.0860   16.8810  -32.3990 C   0  0  0  0  0  0  0  0  0  0  0  0
   -4.8590   16.3030  -32.7450 C   0  0  0  0  0  0  0  0  0  0  0  0
   -4.2530   16.6220  -33.9620 C   0  0  0  0  0  0  0  0  0  0  0  0
   -4.8790   17.5130  -34.8390 C   0  0  0  0  0  0  0  0  0  0  0  0
   -6.1050   18.0970  -34.4940 C   0  0  0  0  0  0  0  0  0  0  0  0
   -7.0130   20.5580  -32.4340 C   0  0  0  0  0  0  0  0  0  0  0  0
   -3.2050   24.4940  -29.6110 C   0  0  0  0  0  0  0  0  0  0  0  0
   -1.1499   22.7765  -27.4741 H   0  0  0  0  0  0  0  0  0  0  0  0
   -2.9735   21.0956  -27.7109 H   0  0  0  0  0  0  0  0  0  0  0  0
   -4.9563   21.5878  -29.1419 H   0  0  0  0  0  0  0  0  0  0  0  0
   -8.5450   23.4399  -31.4131 H   0  0  0  0  0  0  0  0  0  0  0  0
  -10.5435   21.9507  -31.5534 H   0  0  0  0  0  0  0  0  0  0  0  0
  -10.2796   19.5620  -32.2211 H   0  0  0  0  0  0  0  0  0  0  0  0
   -6.5665   16.6162  -31.4456 H   0  0  0  0  0  0  0  0  0  0  0  0
   -4.3714   15.5964  -32.0572 H   0  0  0  0  0  0  0  0  0  0  0  0
   -3.2852   16.1732  -34.2301 H   0  0  0  0  0  0  0  0  0  0  0  0
   -4.4076   17.7562  -35.8027 H   0  0  0  0  0  0  0  0  0  0  0  0
   -6.5959   18.7920  -35.1912 H   0  0  0  0  0  0  0  0  0  0  0  0
   -6.0178   20.1694  -32.6958 H   0  0  0  0  0  0  0  0  0  0  0  0
   -3.2673   25.4471  -30.1567 H   0  0  0  0  0  0  0  0  0  0  0  0
  1  2  2  0
  2  3  1  0
  2  4  1  0
  4  5  2  0
  5  6  1  0
  6  7  2  0
  7  8  1  0
  8  9  1  0
  9 10  2  0
  9 11  2  0
  9 12  1  0
 12 13  1  0
 13 14  2  0
 14 15  1  0
 15 16  2  0
 16 17  1  0
 17 18  1  0
 18 19  1  0
 19 20  2  0
 20 21  1  0
 21 22  2  0
 22 23  1  0
 23 24  2  0
 17 25  2  0
  8 26  2  0
 26  4  1  0
 25 13  1  0
 24 19  1  0
  5 27  1  0
  6 28  1  0
  7 29  1  0
 14 30  1  0
 15 31  1  0
 16 32  1  0
 20 33  1  0
 21 34  1  0
 22 35  1  0
 23 36  1  0
 24 37  1  0
 25 38  1  0
 26 39  1  0
M  CHG  2   3  -1  12  -1
M  END
>  <UniqueID>  (10) 
10

>  <SMILES>  (10) 
O=C([O-])c1cccc(S(=O)(=O)[N-]c2cccc(Oc3ccccc3)c2)c1

>  <Energy>  (10) 
57.61520815170252

>  <Genealogy>  (10) 
O=C([O-])c1cccc(S(=O)(=O)[N-]c2cccc(Oc3ccccc3)c2)c1 (protonated)
O=C([O-])c1cccc(S(=O)(=O)[N-]c2cccc(Oc3ccccc3)c2)c1 (3D coordinates assigned)
O=C([O-])c1cccc(S(=O)(=O)[N-]c2cccc(Oc3ccccc3)c2)c1 (optimized conformer: 57.61520815170252 kcal/mol)

>  <smiles>  (10) 
O=C(O)c1cccc(S(=O)(=O)Nc2cccc(Oc3ccccc3)c2)c1

>  <score_type>  (10) 
oracle

>  <origin>  (10) 
adg

>  <m_score__min__energy>  (10) 
-11.109999999999999

>  <m_primary>  (10) 
energy

$$$$
10:0
     RDKit          3D

 31 32  0  0  0  0  0  0  0  0999 V2000
   -9.4330   18.4990  -31.9700 C   0  0  0  0  0  0  0  0  0  0  0  0
   -8.1830   19.2960  -32.1700 C   0  0  0  0  0  0  0  0  0  0  0  0
   -6.9550   18.6530  -32.3460 C   0  0  0  0  0  0  0  0  0  0  0  0
   -5.7900   19.4120  -32.5330 C   0  0  0  0  0  0  0  0  0  0  0  0
   -4.4690   18.7140  -32.7220 C   0  0  0  0  0  0  0  0  0  0  0  0
   -5.8800   20.8210  -32.5410 C   0  0  0  0  0  0  0  0  0  0  0  0
   -4.7000   21.6350  -32.7320 C   0  0  0  0  0  0  0  0  0  0  0  0
   -3.7560   22.2870  -32.8870 N   0  0  0  0  0  0  0  0  0  0  0  0
   -7.1390   21.4260  -32.3630 C   0  0  0  0  0  0  0  0  0  0  0  0
   -7.3330   23.2130  -32.3620 S   0  0  0  0  0  0  0  0  0  0  0  0
   -7.2250   23.3420  -30.5480 C   0  0  0  0  0  0  0  0  0  0  0  0
   -5.8210   23.6930  -30.1550 C   0  0  0  0  0  0  0  0  0  0  0  0
   -5.2070   23.0600  -29.0650 C   0  0  0  0  0  0  0  0  0  0  0  0
   -3.9110   23.4190  -28.6890 C   0  0  0  0  0  0  0  0  0  0  0  0
   -3.2440   24.4190  -29.4010 C   0  0  0  0  0  0  0  0  0  0  0  0
   -1.6190   24.8910  -28.9490 Cl  0  0  0  0  0  0  0  0  0  0  0  0
   -3.8590   25.0350  -30.4450 N   0  0  0  0  0  0  0  0  0  0  0  0
   -5.1190   24.7010  -30.8320 C   0  0  0  0  0  0  0  0  0  0  0  0
   -8.2420   20.6530  -32.1820 N   0  0  0  0  0  0  0  0  0  0  0  0
   -9.6225   18.3782  -30.8932 H   0  0  0  0  0  0  0  0  0  0  0  0
  -10.2807   19.0237  -32.4349 H   0  0  0  0  0  0  0  0  0  0  0  0
   -9.3150   17.5091  -32.4349 H   0  0  0  0  0  0  0  0  0  0  0  0
   -6.9018   17.5543  -32.3380 H   0  0  0  0  0  0  0  0  0  0  0  0
   -4.0323   18.4833  -31.7391 H   0  0  0  0  0  0  0  0  0  0  0  0
   -4.6245   17.7804  -33.2825 H   0  0  0  0  0  0  0  0  0  0  0  0
   -3.7853   19.3686  -33.2825 H   0  0  0  0  0  0  0  0  0  0  0  0
   -7.9115   24.1254  -30.1945 H   0  0  0  0  0  0  0  0  0  0  0  0
   -7.5031   22.3792  -30.0945 H   0  0  0  0  0  0  0  0  0  0  0  0
   -5.7461   22.2808  -28.5062 H   0  0  0  0  0  0  0  0  0  0  0  0
   -3.4202   22.9195  -27.8407 H   0  0  0  0  0  0  0  0  0  0  0  0
   -5.5891   25.2229  -31.6785 H   0  0  0  0  0  0  0  0  0  0  0  0
  1  2  1  0
  2  3  2  0
  3  4  1  0
  4  5  1  0
  4  6  2  0
  6  7  1  0
  7  8  3  0
  6  9  1  0
  9 10  1  0
 10 11  1  0
 11 12  1  0
 12 13  2  0
 13 14  1  0
 14 15  2  0
 15 16  1  0
 15 17  1  0
 17 18  2  0
  9 19  2  0
 19  2  1  0
 18 12  1  0
  1 20  1  0
  1 21  1  0
  1 22  1  0
  3 23  1  0
  5 24  1  0
  5 25  1  0
  5 26  1  0
 11 27  1  0
 11 28  1  0
 13 29  1  0
 14 30  1  0
 18 31  1  0
M  END
>  <UniqueID>  (11) 
11

>  <SMILES>  (11) 
Cc1cc(C)c(C#N)c(SCc2ccc(Cl)nc2)n1

>  <Energy>  (11) 
27.47557904210368

>  <Genealogy>  (11) 
Cc1cc(C)c(C#N)c(SCc2ccc(Cl)nc2)n1 (3D coordinates assigned)
Cc1cc(C)c(C#N)c(SCc2ccc(Cl)nc2)n1 (optimized conformer: 27.47557904210368 kcal/mol)

>  <smiles>  (11) 
Cc1cc(C)c(C#N)c(SCc2ccc(Cl)nc2)n1

>  <score_type>  (11) 
oracle

>  <origin>  (11) 
adg

>  <m_score__min__energy>  (11) 
-7.9500000000000002

>  <m_primary>  (11) 
energy

$$$$
11:0
     RDKit          3D

 38 40  0  0  0  0  0  0  0  0999 V2000
   -5.4590   26.4280  -30.4650 O   0  0  0  0  0  0  0  0  0  0  0  0
   -4.9340   25.2990  -30.6590 C   0  0  0  0  0  0  0  0  0  0  0  0
   -3.5190   25.1600  -30.4680 N   0  0  0  0  0  0  0  0  0  0  0  0
   -2.8730   24.5310  -29.3530 C   0  0  0  0  0  0  0  0  0  0  0  0
   -3.5340   23.5070  -28.6670 C   0  0  0  0  0  0  0  0  0  0  0  0
   -2.9180   22.8770  -27.5850 C   0  0  0  0  0  0  0  0  0  0  0  0
   -1.6310   23.2680  -27.2080 C   0  0  0  0  0  0  0  0  0  0  0  0
   -0.9880   24.2480  -27.8980 N   0  0  0  0  0  0  0  0  0  0  0  0
   -1.5710   24.8780  -28.9530 C   0  0  0  0  0  0  0  0  0  0  0  0
   -5.7810   24.1750  -31.1270 C   0  0  0  0  0  0  0  0  0  0  0  0
   -7.1550   24.1620  -30.8350 C   0  0  0  0  0  0  0  0  0  0  0  0
   -7.9550   23.0980  -31.2540 C   0  0  0  0  0  0  0  0  0  0  0  0
   -7.3990   22.0450  -31.9840 C   0  0  0  0  0  0  0  0  0  0  0  0
   -6.0380   22.0590  -32.3230 C   0  0  0  0  0  0  0  0  0  0  0  0
   -5.4850   20.9520  -33.0550 N   0  0  0  0  0  0  0  0  0  0  0  0
   -5.3590   19.6200  -32.5210 C   0  0  0  0  0  0  0  0  0  0  0  0
   -5.5880   19.4100  -31.2980 O   0  0  0  0  0  0  0  0  0  0  0  0
   -4.9580   18.4800  -33.3800 C   0  0  0  0  0  0  0  0  0  0  0  0
   -3.7670   18.5080  -34.1330 C   0  0  0  0  0  0  0  0  0  0  0  0
   -3.4110   17.4170  -34.9320 C   0  0  0  0  0  0  0  0  0  0  0  0
   -4.2300   16.2870  -34.9860 C   0  0  0  0  0  0  0  0  0  0  0  0
   -5.4060   16.2430  -34.2340 C   0  0  0  0  0  0  0  0  0  0  0  0
   -5.7680   17.3290  -33.4320 C   0  0  0  0  0  0  0  0  0  0  0  0
   -5.2310   23.1230  -31.8810 C   0  0  0  0  0  0  0  0  0  0  0  0
   -4.5418   23.1976  -28.9811 H   0  0  0  0  0  0  0  0  0  0  0  0
   -3.4404   22.0807  -27.0346 H   0  0  0  0  0  0  0  0  0  0  0  0
   -1.1374   22.7832  -26.3528 H   0  0  0  0  0  0  0  0  0  0  0  0
   -1.0217   25.6618  -29.4951 H   0  0  0  0  0  0  0  0  0  0  0  0
   -7.6028   24.9949  -30.2731 H   0  0  0  0  0  0  0  0  0  0  0  0
   -9.0272   23.0886  -31.0085 H   0  0  0  0  0  0  0  0  0  0  0  0
   -8.0317   21.2005  -32.2946 H   0  0  0  0  0  0  0  0  0  0  0  0
   -5.1290   21.1540  -34.0150 H   0  0  0  0  0  0  0  0  0  0  0  0
   -3.1142   19.3924  -34.0920 H   0  0  0  0  0  0  0  0  0  0  0  0
   -2.4821   17.4489  -35.5204 H   0  0  0  0  0  0  0  0  0  0  0  0
   -3.9492   15.4330  -35.6199 H   0  0  0  0  0  0  0  0  0  0  0  0
   -6.0490   15.3514  -34.2730 H   0  0  0  0  0  0  0  0  0  0  0  0
   -6.6922   17.2844  -32.8371 H   0  0  0  0  0  0  0  0  0  0  0  0
   -4.1590   23.1323  -32.1276 H   0  0  0  0  0  0  0  0  0  0  0  0
  1  2  2  0
  2  3  1  0
  3  4  1  0
  4  5  2  0
  5  6  1  0
  6  7  2  0
  7  8  1  0
  8  9  2  0
  2 10  1  0
 10 11  2  0
 11 12  1  0
 12 13  2  0
 13 14  1  0
 14 15  1  0
 15 16  1  0
 16 17  2  0
 16 18  1  0
 18 19  2  0
 19 20  1  0
 20 21  2  0
 21 22  1  0
 22 23  2  0
 14 24  2  0
  9  4  1  0
 24 10  1  0
 23 18  1  0
  5 25  1  0
  6 26  1  0
  7 27  1  0
  9 28  1  0
 11 29  1  0
 12 30  1  0
 13 31  1  0
 15 32  1  0
 19 33  1  0
 20 34  1  0
 21 35  1  0
 22 36  1  0
 23 37  1  0
 24 38  1  0
M  CHG  1   3  -1
M  END
>  <UniqueID>  (12) 
12

>  <SMILES>  (12) 
O=C([N-]c1cccnc1)c1cccc(NC(=O)c2ccccc2)c1

>  <Energy>  (12) 
55.48309355496581

>  <Genealogy>  (12) 
O=C([N-]c1cccnc1)c1cccc(NC(=O)c2ccccc2)c1 (protonated)
O=C([N-]c1cccnc1)c1cccc(NC(=O)c2ccccc2)c1 (3D coordinates assigned)
O=C([N-]c1cccnc1)c1cccc(NC(=O)c2ccccc2)c1 (optimized conformer: 55.48309355496581 kcal/mol)

>  <smiles>  (12) 
O=C(Nc1cccc(C(=O)Nc2cccnc2)c1)c1ccccc1

>  <score_type>  (12) 
oracle

>  <origin>  (12) 
adg

>  <m_score__min__energy>  (12) 
-9.6099999999999994

>  <m_primary>  (12) 
energy

$$$$
12:0
     RDKit          3D

 38 41  0  0  0  0  0  0  0  0999 V2000
   -7.3750   22.6980  -30.2840 O   0  0  0  0  0  0  0  0  0  0  0  0
   -6.9450   22.1580  -31.3410 C   0  0  0  0  0  0  0  0  0  0  0  0
   -7.4060   20.7840  -31.6680 C   0  0  0  0  0  0  0  0  0  0  0  0
   -6.5300   19.6820  -31.6170 C   0  0  0  0  0  0  0  0  0  0  0  0
   -6.9840   18.4000  -31.9390 C   0  0  0  0  0  0  0  0  0  0  0  0
   -8.3120   18.2020  -32.3220 C   0  0  0  0  0  0  0  0  0  0  0  0
   -9.1880   19.2880  -32.3890 C   0  0  0  0  0  0  0  0  0  0  0  0
   -8.7390   20.5730  -32.0690 C   0  0  0  0  0  0  0  0  0  0  0  0
   -6.0550   22.8920  -32.2230 N   0  0  2  0  0  0  0  0  0  0  0  0
   -4.8910   22.0750  -32.6710 C   0  0  0  0  0  0  0  0  0  0  0  0
   -3.8490   21.7750  -31.5640 C   0  0  0  0  0  0  0  0  0  0  0  0
   -3.6850   22.9540  -30.6660 C   0  0  0  0  0  0  0  0  0  0  0  0
   -4.5460   24.0290  -30.6400 C   0  0  0  0  0  0  0  0  0  0  0  0
   -4.1860   24.9250  -29.6940 N   0  0  0  0  0  0  0  0  0  0  0  0
   -3.1050   24.3880  -29.0950 C   0  0  0  0  0  0  0  0  0  0  0  0
   -2.3720   24.9230  -28.0360 C   0  0  0  0  0  0  0  0  0  0  0  0
   -1.2760   24.1830  -27.5540 C   0  0  0  0  0  0  0  0  0  0  0  0
   -0.9400   22.9370  -28.1340 C   0  0  0  0  0  0  0  0  0  0  0  0
    0.5480   21.9480  -27.4620 Br  0  0  0  0  0  0  0  0  0  0  0  0
   -1.6970   22.4210  -29.2030 C   0  0  0  0  0  0  0  0  0  0  0  0
   -2.7730   23.1790  -29.6600 C   0  0  0  0  0  0  0  0  0  0  0  0
   -5.6590   24.1930  -31.6260 C   0  0  0  0  0  0  0  0  0  0  0  0
   -5.4810   19.8316  -31.3216 H   0  0  0  0  0  0  0  0  0  0  0  0
   -6.2935   17.5451  -31.8906 H   0  0  0  0  0  0  0  0  0  0  0  0
   -8.6682   17.1914  -32.5708 H   0  0  0  0  0  0  0  0  0  0  0  0
  -10.2333   19.1320  -32.6941 H   0  0  0  0  0  0  0  0  0  0  0  0
   -9.4321   21.4249  -32.1310 H   0  0  0  0  0  0  0  0  0  0  0  0
   -6.5790   23.1130  -33.1020 H   0  0  0  0  0  0  0  0  0  0  0  0
   -5.2715   21.1162  -33.0529 H   0  0  0  0  0  0  0  0  0  0  0  0
   -4.3700   22.6684  -33.4368 H   0  0  0  0  0  0  0  0  0  0  0  0
   -4.1891   20.9132  -30.9710 H   0  0  0  0  0  0  0  0  0  0  0  0
   -2.8816   21.5521  -32.0378 H   0  0  0  0  0  0  0  0  0  0  0  0
   -4.6480   25.8370  -29.4750 H   0  0  0  0  0  0  0  0  0  0  0  0
   -2.6418   25.8924  -27.5916 H   0  0  0  0  0  0  0  0  0  0  0  0
   -0.6762   24.5764  -26.7201 H   0  0  0  0  0  0  0  0  0  0  0  0
   -1.4476   21.4528  -29.6616 H   0  0  0  0  0  0  0  0  0  0  0  0
   -6.5286   24.6304  -31.1136 H   0  0  0  0  0  0  0  0  0  0  0  0
   -5.3086   24.8509  -32.4349 H   0  0  0  0  0  0  0  0  0  0  0  0
  1  2  2  0
  2  3  1  0
  3  4  2  0
  4  5  1  0
  5  6  2  0
  6  7  1  0
  7  8  2  0
  2  9  1  0
  9 10  1  0
 10 11  1  0
 11 12  1  0
 12 13  2  0
 13 14  1  0
 14 15  1  0
 15 16  2  0
 16 17  1  0
 17 18  2  0
 18 19  1  0
 18 20  1  0
 20 21  2  0
 13 22  1  0
  8  3  1  0
 22  9  1  0
 21 12  1  0
 21 15  1  0
  4 23  1  0
  5 24  1  0
  6 25  1  0
  7 26  1  0
  8 27  1  0
  9 28  1  6
 10 29  1  0
 10 30  1  0
 11 31  1  0
 11 32  1  0
 14 33  1  0
 16 34  1  0
 17 35  1  0
 20 36  1  0
 22 37  1  0
 22 38  1  0
M  CHG  1   9   1
M  END
>  <UniqueID>  (13) 
13

>  <SMILES>  (13) 
O=C(c1ccccc1)[N@@H+]1CCc2c([nH]c3ccc(Br)cc23)C1

>  <Energy>  (13) 
87.45532835909502

>  <Genealogy>  (13) 
O=C(c1ccccc1)[NH+]1CCc2c([nH]c3ccc(Br)cc23)C1 (protonated)
O=C(c1ccccc1)[N@@H+]1CCc2c([nH]c3ccc(Br)cc23)C1 (chirality)
O=C(c1ccccc1)[N@@H+]1CCc2c([nH]c3ccc(Br)cc23)C1 (3D coordinates assigned)
O=C(c1ccccc1)[N@@H+]1CCc2c([nH]c3ccc(Br)cc23)C1 (nonaromatic ring conformer: 87.45532835909502 kcal/mol)

>  <smiles>  (13) 
O=C(c1ccccc1)N1CCc2c([nH]c3ccc(Br)cc23)C1

>  <score_type>  (13) 
oracle

>  <origin>  (13) 
adg

>  <m_score__min__energy>  (13) 
-8.0600000000000005

>  <m_primary>  (13) 
energy

$$$$
13:0
     RDKit          3D

 44 47  0  0  0  0  0  0  0  0999 V2000
   -5.9780   25.0190  -29.7620 C   0  0  0  0  0  0  0  0  0  0  0  0
   -4.6480   24.3300  -29.8170 C   0  0  0  0  0  0  0  0  0  0  0  0
   -3.7000   24.5310  -28.7820 C   0  0  0  0  0  0  0  0  0  0  0  0
   -2.4670   23.8550  -28.7970 C   0  0  0  0  0  0  0  0  0  0  0  0
   -2.2150   22.9820  -29.8530 C   0  0  0  0  0  0  0  0  0  0  0  0
   -1.1260   22.2130  -30.0310 N   0  0  0  0  0  0  0  0  0  0  0  0
   -1.3500   21.5030  -31.1600 C   0  0  0  0  0  0  0  0  0  0  0  0
   -2.5880   21.8350  -31.7030 C   0  0  0  0  0  0  0  0  0  0  0  0
   -3.2370   21.2080  -32.8970 C   0  0  0  0  0  0  0  0  0  0  0  0
   -4.5280   20.5430  -32.5070 C   0  0  0  0  0  0  0  0  0  0  0  0
   -4.6150   20.0110  -31.4070 O   0  0  0  0  0  0  0  0  0  0  0  0
   -5.6660   20.5590  -33.4110 N   0  0  2  0  0  0  0  0  0  0  0  0
   -6.8200   21.0020  -32.6890 C   0  0  0  0  0  0  0  0  0  0  0  0
   -7.0430   22.3070  -32.2340 C   0  0  0  0  0  0  0  0  0  0  0  0
   -8.2140   22.5780  -31.5090 C   0  0  0  0  0  0  0  0  0  0  0  0
   -9.1380   21.5490  -31.2470 C   0  0  0  0  0  0  0  0  0  0  0  0
   -8.8970   20.2470  -31.7130 C   0  0  0  0  0  0  0  0  0  0  0  0
   -7.7290   20.0060  -32.4380 C   0  0  0  0  0  0  0  0  0  0  0  0
   -7.2630   18.7350  -33.0240 C   0  0  0  0  0  0  0  0  0  0  0  0
   -6.0930   19.2160  -33.9120 C   0  0  2  0  0  0  0  0  0  0  0  0
   -4.9750   18.1670  -34.0490 C   0  0  0  0  0  0  0  0  0  0  0  0
   -3.1300   22.7770  -30.8510 C   0  0  0  0  0  0  0  0  0  0  0  0
   -4.3650   23.4240  -30.8630 C   0  0  0  0  0  0  0  0  0  0  0  0
   -6.2696   25.1700  -28.7122 H   0  0  0  0  0  0  0  0  0  0  0  0
   -5.9071   25.9938  -30.2667 H   0  0  0  0  0  0  0  0  0  0  0  0
   -6.7334   24.3988  -30.2667 H   0  0  0  0  0  0  0  0  0  0  0  0
   -3.9314   25.2229  -27.9588 H   0  0  0  0  0  0  0  0  0  0  0  0
   -1.7249   24.0106  -28.0001 H   0  0  0  0  0  0  0  0  0  0  0  0
   -0.2850   22.1550  -29.4140 H   0  0  0  0  0  0  0  0  0  0  0  0
   -0.6530   20.7677  -31.5883 H   0  0  0  0  0  0  0  0  0  0  0  0
   -3.4428   21.9858  -33.6472 H   0  0  0  0  0  0  0  0  0  0  0  0
   -2.5579   20.4493  -33.3133 H   0  0  0  0  0  0  0  0  0  0  0  0
   -5.4920   21.2040  -34.2190 H   0  0  0  0  0  0  0  0  0  0  0  0
   -6.3145   23.1048  -32.4407 H   0  0  0  0  0  0  0  0  0  0  0  0
   -8.4101   23.5972  -31.1446 H   0  0  0  0  0  0  0  0  0  0  0  0
  -10.0522   21.7659  -30.6750 H   0  0  0  0  0  0  0  0  0  0  0  0
   -9.6119   19.4357  -31.5115 H   0  0  0  0  0  0  0  0  0  0  0  0
   -6.9173   18.0372  -32.2471 H   0  0  0  0  0  0  0  0  0  0  0  0
   -8.0411   18.1803  -33.5689 H   0  0  0  0  0  0  0  0  0  0  0  0
   -6.4173   19.3366  -34.9562 H   0  0  0  0  0  0  0  0  0  0  0  0
   -4.6414   17.8539  -33.0487 H   0  0  0  0  0  0  0  0  0  0  0  0
   -5.3569   17.2937  -34.5981 H   0  0  0  0  0  0  0  0  0  0  0  0
   -4.1278   18.6037  -34.5981 H   0  0  0  0  0  0  0  0  0  0  0  0
   -5.0964   23.2347  -31.6625 H   0  0  0  0  0  0  0  0  0  0  0  0
  1  2  1  0
  2  3  2  0
  3  4  1  0
  4  5  2  0
  5  6  1  0
  6  7  1  0
  7  8  2  0
  8  9  1  0
  9 10  1  0
 10 11  2  0
 10 12  1  0
 12 13  1  0
 13 14  2  0
 14 15  1  0
 15 16  2  0
 16 17  1  0
 17 18  2  0
 18 19  1  0
 19 20  1  0
 20 21  1  0
  8 22  1  0
 22 23  2  0
 23  2  1  0
 22  5  1  0
 20 12  1  0
 18 13  1  0
  1 24  1  0
  1 25  1  0
  1 26  1  0
  3 27  1  0
  4 28  1  0
  6 29  1  0
  7 30  1  0
  9 31  1  0
  9 32  1  0
 12 33  1  6
 14 34  1  0
 15 35  1  0
 16 36  1  0
 17 37  1  0
 19 38  1  0
 19 39  1  0
 20 40  1  6
 21 41  1  0
 21 42  1  0
 21 43  1  0
 23 44  1  0
M  CHG  1  12   1
M  END
>  <UniqueID>  (14) 
14

>  <SMILES>  (14) 
Cc1ccc2[nH]cc(CC(=O)[N@@H+]3c4ccccc4C[C@@H]3C)c2c1

>  <Energy>  (14) 
91.23089813517757

>  <Genealogy>  (14) 
Cc1ccc2[nH]cc(CC(=O)[NH+]3c4ccccc4CC3C)c2c1 (protonated)
Cc1ccc2[nH]cc(CC(=O)[N@@H+]3c4ccccc4C[C@@H]3C)c2c1 (chirality)
Cc1ccc2[nH]cc(CC(=O)[N@@H+]3c4ccccc4C[C@@H]3C)c2c1 (3D coordinates assigned)
Cc1ccc2[nH]cc(CC(=O)[N@@H+]3c4ccccc4C[C@@H]3C)c2c1 (nonaromatic ring conformer: 91.23089813517757 kcal/mol)

>  <smiles>  (14) 
Cc1ccc2[nH]cc(CC(=O)N3c4ccccc4CC3C)c2c1

>  <score_type>  (14) 
oracle

>  <origin>  (14) 
adg

>  <m_score__min__energy>  (14) 
-8.6999999999999993

>  <m_primary>  (14) 
energy

$$$$
14:0
     RDKit          3D

 32 33  0  0  0  0  0  0  0  0999 V2000
   -5.8434   25.8410  -29.4657 H   0  0  0  0  0  0  0  0  0  0  0  0
   -5.8900   24.9810  -30.1500 C   0  0  0  0  0  0  0  0  0  0  0  0
   -7.1280   24.4190  -30.4720 C   0  0  0  0  0  0  0  0  0  0  0  0
   -8.0475   24.8402  -30.0393 H   0  0  0  0  0  0  0  0  0  0  0  0
   -7.2080   23.3190  -31.3450 C   0  0  0  0  0  0  0  0  0  0  0  0
   -8.5210   22.7200  -31.6880 C   0  0  0  0  0  0  0  0  0  0  0  0
   -9.4390   23.4530  -32.1410 O   0  0  0  0  0  0  0  0  0  0  0  0
   -8.7290   21.3080  -31.5050 N   0  0  0  0  0  0  0  0  0  0  0  0
   -8.1380   20.3170  -32.1120 C   0  0  0  0  0  0  0  0  0  0  0  0
   -7.6930   20.4080  -33.3430 O   0  0  0  0  0  0  0  0  0  0  0  0
   -7.1450   19.2880  -33.7070 N   0  0  0  0  0  0  0  0  0  0  0  0
   -6.7030   19.1110  -34.6360 H   0  0  0  0  0  0  0  0  0  0  0  0
   -7.2400   18.4250  -32.6790 C   0  0  0  0  0  0  0  0  0  0  0  0
   -6.6580   17.0500  -32.6740 C   0  0  0  0  0  0  0  0  0  0  0  0
   -6.5164   16.7155  -31.6357 H   0  0  0  0  0  0  0  0  0  0  0  0
   -7.3415   16.3606  -33.1913 H   0  0  0  0  0  0  0  0  0  0  0  0
   -5.6873   17.0608  -33.1913 H   0  0  0  0  0  0  0  0  0  0  0  0
   -7.8650   19.0480  -31.6150 C   0  0  0  0  0  0  0  0  0  0  0  0
   -8.0909   18.6395  -30.6190 H   0  0  0  0  0  0  0  0  0  0  0  0
   -6.0200   22.7970  -31.8870 C   0  0  0  0  0  0  0  0  0  0  0  0
   -6.0654   21.9373  -32.5718 H   0  0  0  0  0  0  0  0  0  0  0  0
   -4.7820   23.3600  -31.5640 C   0  0  0  0  0  0  0  0  0  0  0  0
   -3.8608   22.9411  -31.9951 H   0  0  0  0  0  0  0  0  0  0  0  0
   -4.7090   24.4600  -30.6900 C   0  0  0  0  0  0  0  0  0  0  0  0
   -3.4920   25.0610  -30.3350 O   0  0  0  0  0  0  0  0  0  0  0  0
   -2.5980   24.5480  -29.3510 C   0  0  0  0  0  0  0  0  0  0  0  0
   -1.8495   25.3144  -29.1011 H   0  0  0  0  0  0  0  0  0  0  0  0
   -2.0920   23.6550  -29.7467 H   0  0  0  0  0  0  0  0  0  0  0  0
   -3.3770   24.1750  -28.1010 C   0  0  0  0  0  0  0  0  0  0  0  0
   -2.7954   24.4535  -27.2098 H   0  0  0  0  0  0  0  0  0  0  0  0
   -4.3377   24.7108  -28.0941 H   0  0  0  0  0  0  0  0  0  0  0  0
   -3.5619   23.0907  -28.0941 H   0  0  0  0  0  0  0  0  0  0  0  0
  1  2  1  0
  2  3  2  0
  3  4  1  0
  3  5  1  0
  5  6  1  0
  6  7  2  0
  6  8  1  0
  8  9  2  0
  9 10  1  0
 10 11  1  0
 11 12  1  0
 11 13  1  0
 13 14  1  0
 14 15  1  0
 14 16  1  0
 14 17  1  0
 13 18  2  0
 18 19  1  0
  5 20  2  0
 20 21  1  0
 20 22  1  0
 22 23  1  0
 22 24  2  0
 24 25  1  0
 25 26  1  0
 26 27  1  0
 26 28  1  0
 26 29  1  0
 29 30  1  0
 29 31  1  0
 29 32  1  0
 24  2  1  0
 18  9  1  0
M  END
>  <UniqueID>  (15) 
15

>  <SMILES>  (15) 
CCOc1ccc(C(=O)/N=c2\cc(C)[nH]o2)cc1

>  <Energy>  (15) 
64.13475983853071

>  <Genealogy>  (15) 
CCOc1ccc(C(=O)/N=c2\cc(C)[nH]o2)cc1 (cis-trans isomerization)
CCOc1ccc(C(=O)/N=c2\cc(C)[nH]o2)cc1 (3D coordinates assigned)
CCOc1ccc(C(=O)/N=c2\cc(C)[nH]o2)cc1 (optimized conformer: 64.13475983853071 kcal/mol)

>  <smiles>  (15) 
CCOc1ccc(C(=O)N=c2cc(C)[nH]o2)cc1

>  <score_type>  (15) 
oracle

>  <origin>  (15) 
adg

>  <m_score__min__energy>  (15) 
-7.46

>  <m_primary>  (15) 
energy

$$$$
15:0
     RDKit          3D

 35 37  0  0  0  0  0  0  0  0999 V2000
   -3.4214   24.3377  -25.7689 H   0  0  0  0  0  0  0  0  0  0  0  0
   -2.8470   24.3810  -26.7060 C   0  0  0  0  0  0  0  0  0  0  0  0
   -3.5130   24.5260  -27.9260 C   0  0  0  0  0  0  0  0  0  0  0  0
   -4.6093   24.6148  -27.9429 H   0  0  0  0  0  0  0  0  0  0  0  0
   -2.7940   24.5590  -29.1270 C   0  0  0  0  0  0  0  0  0  0  0  0
   -3.5180   24.7170  -30.3600 N   0  0  0  0  0  0  0  0  0  0  0  0
   -4.4180   23.9080  -30.8460 C   0  0  0  0  0  0  0  0  0  0  0  0
   -4.0540   22.8540  -31.6290 N   0  0  0  0  0  0  0  0  0  0  0  0
   -4.9560   21.9730  -32.1410 C   0  0  0  0  0  0  0  0  0  0  0  0
   -4.5280   20.9080  -32.9580 C   0  0  0  0  0  0  0  0  0  0  0  0
   -3.0700   20.7310  -33.2840 C   0  0  0  0  0  0  0  0  0  0  0  0
   -2.4916   20.6608  -32.3510 H   0  0  0  0  0  0  0  0  0  0  0  0
   -2.9344   19.8098  -33.8697 H   0  0  0  0  0  0  0  0  0  0  0  0
   -2.7180   21.5930  -33.8697 H   0  0  0  0  0  0  0  0  0  0  0  0
   -5.4810   20.0150  -33.4760 C   0  0  0  0  0  0  0  0  0  0  0  0
   -5.1564   19.1824  -34.1174 H   0  0  0  0  0  0  0  0  0  0  0  0
   -6.8380   20.1760  -33.1830 C   0  0  0  0  0  0  0  0  0  0  0  0
   -7.5743   19.4686  -33.5922 H   0  0  0  0  0  0  0  0  0  0  0  0
   -7.2630   21.2310  -32.3730 C   0  0  0  0  0  0  0  0  0  0  0  0
   -8.3322   21.3531  -32.1451 H   0  0  0  0  0  0  0  0  0  0  0  0
   -6.3270   22.1350  -31.8500 C   0  0  0  0  0  0  0  0  0  0  0  0
   -6.7280   23.2010  -31.0350 C   0  0  0  0  0  0  0  0  0  0  0  0
   -7.7926   23.3383  -30.7945 H   0  0  0  0  0  0  0  0  0  0  0  0
   -5.7760   24.0920  -30.5260 C   0  0  0  0  0  0  0  0  0  0  0  0
   -6.2090   25.1850  -29.6860 C   0  0  0  0  0  0  0  0  0  0  0  0
   -6.5550   26.0600  -29.0140 N   0  0  0  0  0  0  0  0  0  0  0  0
   -1.3870   24.5060  -29.0880 C   0  0  0  0  0  0  0  0  0  0  0  0
   -0.8117   24.5684  -30.0235 H   0  0  0  0  0  0  0  0  0  0  0  0
   -0.7140   24.3740  -27.8630 C   0  0  0  0  0  0  0  0  0  0  0  0
    0.7820   24.2610  -27.8350 C   0  0  0  0  0  0  0  0  0  0  0  0
    1.1283   24.2348  -26.7912 H   0  0  0  0  0  0  0  0  0  0  0  0
    1.0896   23.3371  -28.3466 H   0  0  0  0  0  0  0  0  0  0  0  0
    1.2249   25.1283  -28.3466 H   0  0  0  0  0  0  0  0  0  0  0  0
   -1.4540   24.2910  -26.6740 C   0  0  0  0  0  0  0  0  0  0  0  0
   -0.9352   24.1546  -25.7136 H   0  0  0  0  0  0  0  0  0  0  0  0
  1  2  1  0
  2  3  2  0
  3  4  1  0
  3  5  1  0
  5  6  1  0
  6  7  2  0
  7  8  1  0
  8  9  1  0
  9 10  2  0
 10 11  1  0
 11 12  1  0
 11 13  1  0
 11 14  1  0
 10 15  1  0
 15 16  1  0
 15 17  2  0
 17 18  1  0
 17 19  1  0
 19 20  1  0
 19 21  2  0
 21 22  1  0
 22 23  1  0
 22 24  2  0
 24 25  1  0
 25 26  3  0
  5 27  2  0
 27 28  1  0
 27 29  1  0
 29 30  1  0
 30 31  1  0
 30 32  1  0
 30 33  1  0
 29 34  2  0
 34 35  1  0
 34  2  1  0
 24  7  1  0
 21  9  1  0
M  CHG  1   8  -1
M  END
>  <UniqueID>  (16) 
16

>  <SMILES>  (16) 
Cc1cccc(/N=c2\[n-]c3c(C)cccc3cc2C#N)c1

>  <Energy>  (16) 
45.69662216090001

>  <Genealogy>  (16) 
Cc1cccc(N=c2[n-]c3c(C)cccc3cc2C#N)c1 (protonated)
Cc1cccc(/N=c2\[n-]c3c(C)cccc3cc2C#N)c1 (cis-trans isomerization)
Cc1cccc(/N=c2\[n-]c3c(C)cccc3cc2C#N)c1 (3D coordinates assigned)
Cc1cccc(/N=c2\[n-]c3c(C)cccc3cc2C#N)c1 (optimized conformer: 45.69662216090001 kcal/mol)

>  <smiles>  (16) 
Cc1cccc(N=c2[nH]c3c(C)cccc3cc2C#N)c1

>  <score_type>  (16) 
oracle

>  <origin>  (16) 
adg

>  <m_score__min__energy>  (16) 
-8.8699999999999992

>  <m_primary>  (16) 
energy

$$$$
16:0
     RDKit          3D

 35 37  0  0  0  0  0  0  0  0999 V2000
   -9.0860   18.6360  -31.6240 C   0  0  0  0  0  0  0  0  0  0  0  0
   -7.8030   19.0530  -32.2950 C   0  0  0  0  0  0  0  0  0  0  0  0
   -7.1540   18.1550  -33.1530 C   0  0  0  0  0  0  0  0  0  0  0  0
   -5.9640   18.5380  -33.7760 C   0  0  0  0  0  0  0  0  0  0  0  0
   -5.3740   17.7380  -34.5480 O   0  0  0  0  0  0  0  0  0  0  0  0
   -5.4470   19.7420  -33.5590 O   0  0  0  0  0  0  0  0  0  0  0  0
   -6.0190   20.6340  -32.7570 C   0  0  0  0  0  0  0  0  0  0  0  0
   -5.4150   21.8830  -32.5790 C   0  0  0  0  0  0  0  0  0  0  0  0
   -6.0000   22.8470  -31.7510 C   0  0  0  0  0  0  0  0  0  0  0  0
   -5.3470   24.0800  -31.6000 O   0  0  0  0  0  0  0  0  0  0  0  0
   -5.0520   24.6980  -30.3770 C   0  0  0  0  0  0  0  0  0  0  0  0
   -5.5790   25.8060  -30.0800 O   0  0  0  0  0  0  0  0  0  0  0  0
   -4.0700   24.0790  -29.4600 C   0  0  0  0  0  0  0  0  0  0  0  0
   -4.4280   22.9760  -28.6660 C   0  0  0  0  0  0  0  0  0  0  0  0
   -3.4960   22.3920  -27.8050 C   0  0  0  0  0  0  0  0  0  0  0  0
   -2.1980   22.9000  -27.7240 C   0  0  0  0  0  0  0  0  0  0  0  0
   -1.8150   24.0020  -28.5080 C   0  0  0  0  0  0  0  0  0  0  0  0
   -0.4760   24.5230  -28.4220 N   0  0  0  0  0  0  0  0  0  0  0  0
   -0.2520   25.6220  -27.8720 O   0  0  0  0  0  0  0  0  0  0  0  0
    0.5840   23.8180  -28.9460 O   0  0  0  0  0  0  0  0  0  0  0  0
   -2.7600   24.5850  -29.3750 C   0  0  0  0  0  0  0  0  0  0  0  0
   -7.1880   22.5380  -31.0680 C   0  0  0  0  0  0  0  0  0  0  0  0
   -7.8010   21.2930  -31.2370 C   0  0  0  0  0  0  0  0  0  0  0  0
   -7.2270   20.3260  -32.0850 C   0  0  0  0  0  0  0  0  0  0  0  0
   -8.9590   18.6773  -30.5321 H   0  0  0  0  0  0  0  0  0  0  0  0
   -9.8955   19.3173  -31.9250 H   0  0  0  0  0  0  0  0  0  0  0  0
   -9.3402   17.6090  -31.9250 H   0  0  0  0  0  0  0  0  0  0  0  0
   -7.5783   17.1565  -33.3344 H   0  0  0  0  0  0  0  0  0  0  0  0
   -4.4705   22.1095  -33.0953 H   0  0  0  0  0  0  0  0  0  0  0  0
   -5.4487   22.5700  -28.7230 H   0  0  0  0  0  0  0  0  0  0  0  0
   -3.7858   21.5284  -27.1883 H   0  0  0  0  0  0  0  0  0  0  0  0
   -1.4706   22.4349  -27.0424 H   0  0  0  0  0  0  0  0  0  0  0  0
   -2.4699   25.4471  -29.9936 H   0  0  0  0  0  0  0  0  0  0  0  0
   -7.6395   23.2816  -30.3948 H   0  0  0  0  0  0  0  0  0  0  0  0
   -8.7368   21.0674  -30.7047 H   0  0  0  0  0  0  0  0  0  0  0  0
  1  2  1  0
  2  3  2  0
  3  4  1  0
  4  5  2  0
  4  6  1  0
  6  7  1  0
  7  8  2  0
  8  9  1  0
  9 10  1  0
 10 11  1  0
 11 12  2  0
 11 13  1  0
 13 14  2  0
 14 15  1  0
 15 16  2  0
 16 17  1  0
 17 18  1  0
 18 19  2  0
 18 20  1  0
 17 21  2  0
  9 22  2  0
 22 23  1  0
 23 24  2  0
 24  2  1  0
 24  7  1  0
 21 13  1  0
  1 25  1  0
  1 26  1  0
  1 27  1  0
  3 28  1  0
  8 29  1  0
 14 30  1  0
 15 31  1  0
 16 32  1  0
 21 33  1  0
 22 34  1  0
 23 35  1  0
M  CHG  2  18   1  20  -1
M  END
>  <UniqueID>  (17) 
17

>  <SMILES>  (17) 
Cc1cc(=O)oc2cc(OC(=O)c3cccc([N+](=O)[O-])c3)ccc12

>  <Energy>  (17) 
49.60558452483963

>  <Genealogy>  (17) 
Cc1cc(=O)oc2cc(OC(=O)c3cccc([N+](=O)[O-])c3)ccc12 (3D coordinates assigned)
Cc1cc(=O)oc2cc(OC(=O)c3cccc([N+](=O)[O-])c3)ccc12 (optimized conformer: 49.60558452483963 kcal/mol)

>  <smiles>  (17) 
Cc1cc(=O)oc2cc(OC(=O)c3cccc([N+](=O)[O-])c3)ccc12

>  <score_type>  (17) 
oracle

>  <origin>  (17) 
adg

>  <m_score__min__energy>  (17) 
-8.4800000000000004

>  <m_primary>  (17) 
energy

$$$$
17:0
     RDKit          3D

 40 42  0  0  0  0  0  0  0  0999 V2000
   -2.9770   25.0460  -26.4020 C   0  0  0  0  0  0  0  0  0  0  0  0
   -4.2360   24.5570  -27.1110 C   0  0  0  0  0  0  0  0  0  0  0  0
   -3.8940   23.9010  -28.3780 N   0  0  0  0  0  0  0  0  0  0  0  0
   -2.8820   22.8790  -28.4290 C   0  0  0  0  0  0  0  0  0  0  0  0
   -1.6530   23.1290  -29.0610 C   0  0  0  0  0  0  0  0  0  0  0  0
   -0.6730   22.1340  -29.1210 C   0  0  0  0  0  0  0  0  0  0  0  0
   -0.9120   20.8810  -28.5510 C   0  0  0  0  0  0  0  0  0  0  0  0
   -2.1320   20.6210  -27.9220 C   0  0  0  0  0  0  0  0  0  0  0  0
   -3.1150   21.6140  -27.8600 C   0  0  0  0  0  0  0  0  0  0  0  0
   -4.7510   24.3440  -29.8260 S   0  0  0  0  0  0  0  0  0  0  0  0
   -6.0220   25.0620  -29.4680 O   0  0  0  0  0  0  0  0  0  0  0  0
   -3.9060   25.2780  -30.6470 O   0  0  0  0  0  0  0  0  0  0  0  0
   -5.1320   22.8980  -30.7570 C   0  0  0  0  0  0  0  0  0  0  0  0
   -6.4520   22.4380  -30.8200 C   0  0  0  0  0  0  0  0  0  0  0  0
   -6.7640   21.2810  -31.5400 C   0  0  0  0  0  0  0  0  0  0  0  0
   -5.7560   20.5650  -32.2150 C   0  0  0  0  0  0  0  0  0  0  0  0
   -6.0570   19.3670  -32.9610 N   0  0  0  0  0  0  0  0  0  0  0  0
   -6.7860   18.3070  -32.5470 C   0  0  0  0  0  0  0  0  0  0  0  0
   -6.8380   17.3840  -33.5690 C   0  0  0  0  0  0  0  0  0  0  0  0
   -6.1100   17.9520  -34.5940 C   0  0  0  0  0  0  0  0  0  0  0  0
   -5.6490   19.1550  -34.2030 N   0  0  0  0  0  0  0  0  0  0  0  0
   -4.4320   21.0340  -32.1430 C   0  0  0  0  0  0  0  0  0  0  0  0
   -4.1230   22.1900  -31.4220 C   0  0  0  0  0  0  0  0  0  0  0  0
   -3.1237   24.9890  -25.3133 H   0  0  0  0  0  0  0  0  0  0  0  0
   -2.1245   24.4136  -26.6907 H   0  0  0  0  0  0  0  0  0  0  0  0
   -2.7749   26.0880  -26.6907 H   0  0  0  0  0  0  0  0  0  0  0  0
   -4.7604   23.8396  -26.4626 H   0  0  0  0  0  0  0  0  0  0  0  0
   -4.8820   25.4218  -27.3227 H   0  0  0  0  0  0  0  0  0  0  0  0
   -1.4604   24.1138  -29.5116 H   0  0  0  0  0  0  0  0  0  0  0  0
    0.2872   22.3377  -29.6174 H   0  0  0  0  0  0  0  0  0  0  0  0
   -0.1396   20.0992  -28.5975 H   0  0  0  0  0  0  0  0  0  0  0  0
   -2.3198   19.6337  -27.4748 H   0  0  0  0  0  0  0  0  0  0  0  0
   -4.0744   21.4048  -27.3642 H   0  0  0  0  0  0  0  0  0  0  0  0
   -7.2488   22.9900  -30.3000 H   0  0  0  0  0  0  0  0  0  0  0  0
   -7.8047   20.9270  -31.5797 H   0  0  0  0  0  0  0  0  0  0  0  0
   -7.2587   18.1991  -31.5596 H   0  0  0  0  0  0  0  0  0  0  0  0
   -7.3477   16.4092  -33.5678 H   0  0  0  0  0  0  0  0  0  0  0  0
   -5.9336   17.4932  -35.5781 H   0  0  0  0  0  0  0  0  0  0  0  0
   -3.6313   20.4847  -32.6599 H   0  0  0  0  0  0  0  0  0  0  0  0
   -3.0831   22.5456  -31.3764 H   0  0  0  0  0  0  0  0  0  0  0  0
  1  2  1  0
  2  3  1  0
  3  4  1  0
  4  5  2  0
  5  6  1  0
  6  7  2  0
  7  8  1  0
  8  9  2  0
  3 10  1  0
 10 11  2  0
 10 12  2  0
 10 13  1  0
 13 14  2  0
 14 15  1  0
 15 16  2  0
 16 17  1  0
 17 18  1  0
 18 19  2  0
 19 20  1  0
 20 21  2  0
 16 22  1  0
 22 23  2  0
  9  4  1  0
 23 13  1  0
 21 17  1  0
  1 24  1  0
  1 25  1  0
  1 26  1  0
  2 27  1  0
  2 28  1  0
  5 29  1  0
  6 30  1  0
  7 31  1  0
  8 32  1  0
  9 33  1  0
 14 34  1  0
 15 35  1  0
 18 36  1  0
 19 37  1  0
 20 38  1  0
 22 39  1  0
 23 40  1  0
M  END
>  <UniqueID>  (18) 
18

>  <SMILES>  (18) 
CCN(c1ccccc1)S(=O)(=O)c1ccc(-n2cccn2)cc1

>  <Energy>  (18) 
75.75369522301298

>  <Genealogy>  (18) 
CCN(c1ccccc1)S(=O)(=O)c1ccc(-n2cccn2)cc1 (3D coordinates assigned)
CCN(c1ccccc1)S(=O)(=O)c1ccc(-n2cccn2)cc1 (optimized conformer: 75.75369522301298 kcal/mol)

>  <smiles>  (18) 
CCN(c1ccccc1)S(=O)(=O)c1ccc(-n2cccn2)cc1

>  <score_type>  (18) 
oracle

>  <origin>  (18) 
adg

>  <m_score__min__energy>  (18) 
-7.9400000000000004

>  <m_primary>  (18) 
energy

$$$$
18:0
     RDKit          3D

 55 57  0  0  0  0  0  0  0  0999 V2000
    0.6640   28.1310  -24.0790 C   0  0  0  0  0  0  0  0  0  0  0  0
    0.8050   26.6630  -23.7090 C   0  0  0  0  0  0  0  0  0  0  0  0
    0.1280   25.8620  -24.6720 O   0  0  0  0  0  0  0  0  0  0  0  0
   -1.2040   26.0850  -25.0400 C   0  0  0  0  0  0  0  0  0  0  0  0
   -1.9580   26.7690  -24.2940 O   0  0  0  0  0  0  0  0  0  0  0  0
   -1.7240   25.5180  -26.3040 C   0  0  0  0  0  0  0  0  0  0  0  0
   -3.0150   24.9650  -26.3650 C   0  0  0  0  0  0  0  0  0  0  0  0
   -3.4990   24.4260  -27.5610 C   0  0  0  0  0  0  0  0  0  0  0  0
   -2.7130   24.4450  -28.7180 C   0  0  0  0  0  0  0  0  0  0  0  0
   -3.2400   23.8550  -29.9150 N   0  0  0  0  0  0  0  0  0  0  0  0
   -4.3280   24.3520  -30.7080 C   0  0  0  0  0  0  0  0  0  0  0  0
   -4.5460   25.5920  -30.7790 O   0  0  0  0  0  0  0  0  0  0  0  0
   -5.2060   23.4300  -31.3800 N   0  0  0  0  0  0  0  0  0  0  0  0
   -6.4600   23.9000  -31.9830 C   0  0  0  0  0  0  0  0  0  0  0  0
   -7.4820   22.7600  -32.0140 C   0  0  0  0  0  0  0  0  0  0  0  0
   -6.9840   21.5830  -32.7580 N   0  0  0  0  0  0  0  0  0  0  0  0
   -7.8710   20.1480  -32.2940 S   0  0  0  0  0  0  0  0  0  0  0  0
   -9.1210   20.0470  -33.1220 O   0  0  0  0  0  0  0  0  0  0  0  0
   -8.2780   20.2530  -30.8500 O   0  0  0  0  0  0  0  0  0  0  0  0
   -6.9010   18.6900  -32.5230 C   0  0  0  0  0  0  0  0  0  0  0  0
   -6.4340   18.3440  -33.7970 C   0  0  0  0  0  0  0  0  0  0  0  0
   -5.6940   17.1720  -33.9830 C   0  0  0  0  0  0  0  0  0  0  0  0
   -5.4070   16.3330  -32.9000 C   0  0  0  0  0  0  0  0  0  0  0  0
   -4.6720   15.1630  -33.1410 O   0  0  0  0  0  0  0  0  0  0  0  0
   -4.4720   14.1290  -32.1820 C   0  0  0  0  0  0  0  0  0  0  0  0
   -5.8660   16.6880  -31.6170 C   0  0  0  0  0  0  0  0  0  0  0  0
   -6.6040   17.8610  -31.4320 C   0  0  0  0  0  0  0  0  0  0  0  0
   -5.5190   21.3630  -32.6830 C   0  0  0  0  0  0  0  0  0  0  0  0
   -4.8690   22.0030  -31.4490 C   0  0  0  0  0  0  0  0  0  0  0  0
   -1.4140   24.9770  -28.6560 C   0  0  0  0  0  0  0  0  0  0  0  0
   -0.9270   25.5150  -27.4610 C   0  0  0  0  0  0  0  0  0  0  0  0
    0.6059   28.7362  -23.1623 H   0  0  0  0  0  0  0  0  0  0  0  0
    1.5361   28.4453  -24.6712 H   0  0  0  0  0  0  0  0  0  0  0  0
   -0.2520   28.2735  -24.6712 H   0  0  0  0  0  0  0  0  0  0  0  0
    1.8706   26.3907  -23.6900 H   0  0  0  0  0  0  0  0  0  0  0  0
    0.3642   26.4920  -22.7158 H   0  0  0  0  0  0  0  0  0  0  0  0
   -3.6486   24.9562  -25.4659 H   0  0  0  0  0  0  0  0  0  0  0  0
   -4.5056   23.9836  -27.5923 H   0  0  0  0  0  0  0  0  0  0  0  0
   -6.8611   24.7335  -31.3878 H   0  0  0  0  0  0  0  0  0  0  0  0
   -6.2633   24.2385  -33.0110 H   0  0  0  0  0  0  0  0  0  0  0  0
   -7.7060   22.4570  -30.9806 H   0  0  0  0  0  0  0  0  0  0  0  0
   -8.3825   23.1278  -32.5277 H   0  0  0  0  0  0  0  0  0  0  0  0
   -6.6502   18.9970  -34.6554 H   0  0  0  0  0  0  0  0  0  0  0  0
   -5.3346   16.9074  -34.9884 H   0  0  0  0  0  0  0  0  0  0  0  0
   -4.5531   14.5484  -31.1683 H   0  0  0  0  0  0  0  0  0  0  0  0
   -5.2360   13.3495  -32.3185 H   0  0  0  0  0  0  0  0  0  0  0  0
   -3.4724   13.6906  -32.3185 H   0  0  0  0  0  0  0  0  0  0  0  0
   -5.6430   16.0398  -30.7567 H   0  0  0  0  0  0  0  0  0  0  0  0
   -6.9533   18.1348  -30.4255 H   0  0  0  0  0  0  0  0  0  0  0  0
   -5.3301   20.2797  -32.6543 H   0  0  0  0  0  0  0  0  0  0  0  0
   -5.0733   21.8394  -33.5687 H   0  0  0  0  0  0  0  0  0  0  0  0
   -5.2359   21.4990  -30.5427 H   0  0  0  0  0  0  0  0  0  0  0  0
   -3.7767   21.8958  -31.5229 H   0  0  0  0  0  0  0  0  0  0  0  0
   -0.7767   24.9702  -29.5526 H   0  0  0  0  0  0  0  0  0  0  0  0
    0.0874   25.9390  -27.4264 H   0  0  0  0  0  0  0  0  0  0  0  0
  1  2  1  0
  2  3  1  0
  3  4  1  0
  4  5  2  0
  4  6  1  0
  6  7  2  0
  7  8  1  0
  8  9  2  0
  9 10  1  0
 10 11  1  0
 11 12  2  0
 11 13  1  0
 13 14  1  0
 14 15  1  0
 15 16  1  0
 16 17  1  0
 17 18  2  0
 17 19  2  0
 17 20  1  0
 20 21  2  0
 21 22  1  0
 22 23  2  0
 23 24  1  0
 24 25  1  0
 23 26  1  0
 26 27  2  0
 16 28  1  0
 28 29  1  0
  9 30  1  0
 30 31  2  0
 31  6  1  0
 29 13  1  0
 27 20  1  0
  1 32  1  0
  1 33  1  0
  1 34  1  0
  2 35  1  0
  2 36  1  0
  7 37  1  0
  8 38  1  0
 14 39  1  0
 14 40  1  0
 15 41  1  0
 15 42  1  0
 21 43  1  0
 22 44  1  0
 25 45  1  0
 25 46  1  0
 25 47  1  0
 26 48  1  0
 27 49  1  0
 28 50  1  0
 28 51  1  0
 29 52  1  0
 29 53  1  0
 30 54  1  0
 31 55  1  0
M  CHG  1  10  -1
M  END
>  <UniqueID>  (19) 
19

>  <SMILES>  (19) 
CCOC(=O)c1ccc([N-]C(=O)N2CCN(S(=O)(=O)c3ccc(OC)cc3)CC2)cc1

>  <Energy>  (19) 
58.787443991600504

>  <Genealogy>  (19) 
CCOC(=O)c1ccc([N-]C(=O)N2CCN(S(=O)(=O)c3ccc(OC)cc3)CC2)cc1 (protonated)
CCOC(=O)c1ccc([N-]C(=O)N2CCN(S(=O)(=O)c3ccc(OC)cc3)CC2)cc1 (3D coordinates assigned)
CCOC(=O)c1ccc([N-]C(=O)N2CCN(S(=O)(=O)c3ccc(OC)cc3)CC2)cc1 (nonaromatic ring conformer: 58.787443991600504 kcal/mol)

>  <smiles>  (19) 
CCOC(=O)c1ccc(NC(=O)N2CCN(S(=O)(=O)c3ccc(OC)cc3)CC2)cc1

>  <score_type>  (19) 
oracle

>  <origin>  (19) 
adg

>  <m_score__min__energy>  (19) 
-10.109999999999999

>  <m_primary>  (19) 
energy

$$$$
19:0
     RDKit          3D

 31 33  0  0  0  0  0  0  0  0999 V2000
   -4.2350   25.6740  -30.7250 O   0  0  0  0  0  0  0  0  0  0  0  0
   -4.5800   24.4650  -30.8340 C   0  0  0  0  0  0  0  0  0  0  0  0
   -5.3800   24.0510  -31.9100 O   0  0  0  0  0  0  0  0  0  0  0  0
   -6.2780   22.9730  -31.8850 C   0  0  0  0  0  0  0  0  0  0  0  0
   -7.5810   23.2050  -31.4280 C   0  0  0  0  0  0  0  0  0  0  0  0
   -8.5180   22.1700  -31.3900 C   0  0  0  0  0  0  0  0  0  0  0  0
   -8.1660   20.8840  -31.8230 C   0  0  0  0  0  0  0  0  0  0  0  0
   -9.1010   19.8370  -31.7900 C   0  0  0  0  0  0  0  0  0  0  0  0
   -8.7400   18.5620  -32.2340 C   0  0  0  0  0  0  0  0  0  0  0  0
   -7.4490   18.3230  -32.7150 C   0  0  0  0  0  0  0  0  0  0  0  0
   -6.5100   19.3580  -32.7530 C   0  0  0  0  0  0  0  0  0  0  0  0
   -6.8580   20.6420  -32.3070 C   0  0  0  0  0  0  0  0  0  0  0  0
   -5.9230   21.6890  -32.3400 C   0  0  0  0  0  0  0  0  0  0  0  0
   -4.0900   23.4660  -29.8600 C   0  0  0  0  0  0  0  0  0  0  0  0
   -3.3730   22.3330  -30.2890 C   0  0  0  0  0  0  0  0  0  0  0  0
   -2.9120   21.3940  -29.3610 C   0  0  0  0  0  0  0  0  0  0  0  0
   -3.1590   21.5750  -27.9970 C   0  0  0  0  0  0  0  0  0  0  0  0
   -3.8680   22.6970  -27.5600 C   0  0  0  0  0  0  0  0  0  0  0  0
   -4.3310   23.6390  -28.4840 C   0  0  0  0  0  0  0  0  0  0  0  0
   -7.8697   24.2130  -31.0954 H   0  0  0  0  0  0  0  0  0  0  0  0
   -9.5352   22.3645  -31.0192 H   0  0  0  0  0  0  0  0  0  0  0  0
  -10.1185   20.0205  -31.4144 H   0  0  0  0  0  0  0  0  0  0  0  0
   -9.4742   17.7434  -32.2050 H   0  0  0  0  0  0  0  0  0  0  0  0
   -7.1714   17.3176  -33.0645 H   0  0  0  0  0  0  0  0  0  0  0  0
   -5.4960   19.1653  -33.1334 H   0  0  0  0  0  0  0  0  0  0  0  0
   -4.9084   21.5051  -32.7232 H   0  0  0  0  0  0  0  0  0  0  0  0
   -3.1742   22.1854  -31.3608 H   0  0  0  0  0  0  0  0  0  0  0  0
   -2.3537   20.5109  -29.7051 H   0  0  0  0  0  0  0  0  0  0  0  0
   -2.7957   20.8351  -27.2686 H   0  0  0  0  0  0  0  0  0  0  0  0
   -4.0624   22.8396  -26.4867 H   0  0  0  0  0  0  0  0  0  0  0  0
   -4.8871   24.5209  -28.1333 H   0  0  0  0  0  0  0  0  0  0  0  0
  1  2  2  0
  2  3  1  0
  3  4  1  0
  4  5  2  0
  5  6  1  0
  6  7  2  0
  7  8  1  0
  8  9  2  0
  9 10  1  0
 10 11  2  0
 11 12  1  0
 12 13  2  0
  2 14  1  0
 14 15  2  0
 15 16  1  0
 16 17  2  0
 17 18  1  0
 18 19  2  0
 13  4  1  0
 19 14  1  0
 12  7  1  0
  5 20  1  0
  6 21  1  0
  8 22  1  0
  9 23  1  0
 10 24  1  0
 11 25  1  0
 13 26  1  0
 15 27  1  0
 16 28  1  0
 17 29  1  0
 18 30  1  0
 19 31  1  0
M  END
>  <UniqueID>  (20) 
20

>  <SMILES>  (20) 
O=C(Oc1ccc2ccccc2c1)c1ccccc1

>  <Energy>  (20) 
42.04280769523718

>  <Genealogy>  (20) 
O=C(Oc1ccc2ccccc2c1)c1ccccc1 (3D coordinates assigned)
O=C(Oc1ccc2ccccc2c1)c1ccccc1 (optimized conformer: 42.04280769523718 kcal/mol)

>  <smiles>  (20) 
O=C(Oc1ccc2ccccc2c1)c1ccccc1

>  <score_type>  (20) 
oracle

>  <origin>  (20) 
adg

>  <m_score__min__energy>  (20) 
-8.2100000000000009

>  <m_primary>  (20) 
energy

$$$$
20:0
     RDKit          3D

 25 26  0  0  0  0  0  0  0  0999 V2000
   -1.5550   25.5310  -29.7680 H   0  0  0  0  0  0  0  0  0  0  0  0
   -2.2420   24.9230  -29.2670 N   0  0  0  0  0  0  0  0  0  0  0  0
   -3.4090   24.6810  -29.7660 C   0  0  0  0  0  0  0  0  0  0  0  0
   -3.8750   25.2960  -30.8720 N   0  0  0  0  0  0  0  0  0  0  0  0
   -5.1000   24.8930  -31.2060 N   0  0  0  0  0  0  0  0  0  0  0  0
   -5.5990   23.9590  -30.3660 C   0  0  0  0  0  0  0  0  0  0  0  0
   -7.2190   23.2190  -30.5600 S   0  0  0  0  0  0  0  0  0  0  0  0
   -6.8820   22.5440  -32.2220 C   0  0  0  0  0  0  0  0  0  0  0  0
   -7.4628   23.1105  -32.9648 H   0  0  0  0  0  0  0  0  0  0  0  0
   -5.8046   22.6340  -32.4249 H   0  0  0  0  0  0  0  0  0  0  0  0
   -7.2650   21.0910  -32.3020 C   0  0  0  0  0  0  0  0  0  0  0  0
   -8.3710   20.6080  -31.5870 C   0  0  0  0  0  0  0  0  0  0  0  0
   -8.9693   21.2965  -30.9721 H   0  0  0  0  0  0  0  0  0  0  0  0
   -8.7150   19.2570  -31.6530 C   0  0  0  0  0  0  0  0  0  0  0  0
   -9.5876   18.8854  -31.0958 H   0  0  0  0  0  0  0  0  0  0  0  0
   -7.9540   18.3750  -32.4250 C   0  0  0  0  0  0  0  0  0  0  0  0
   -8.2413   17.3150  -32.4867 H   0  0  0  0  0  0  0  0  0  0  0  0
   -6.8240   18.8340  -33.1230 C   0  0  0  0  0  0  0  0  0  0  0  0
   -6.0260   17.8940  -33.9910 C   0  0  0  0  0  0  0  0  0  0  0  0
   -6.7030   16.6990  -34.1700 F   0  0  0  0  0  0  0  0  0  0  0  0
   -5.8160   18.4810  -35.2250 F   0  0  0  0  0  0  0  0  0  0  0  0
   -4.8010   17.6130  -33.4100 F   0  0  0  0  0  0  0  0  0  0  0  0
   -6.4990   20.2020  -33.0720 C   0  0  0  0  0  0  0  0  0  0  0  0
   -5.6362   20.5784  -33.6411 H   0  0  0  0  0  0  0  0  0  0  0  0
   -4.5160   23.5820  -29.1310 S   0  0  0  0  0  0  0  0  0  0  0  0
  1  2  1  0
  2  3  2  0
  3  4  1  0
  4  5  1  0
  5  6  2  0
  6  7  1  0
  7  8  1  0
  8  9  1  0
  8 10  1  0
  8 11  1  0
 11 12  2  0
 12 13  1  0
 12 14  1  0
 14 15  1  0
 14 16  2  0
 16 17  1  0
 16 18  1  0
 18 19  1  0
 19 20  1  0
 19 21  1  0
 19 22  1  0
 18 23  2  0
 23 24  1  0
  6 25  1  0
 25  3  1  0
 23 11  1  0
M  CHG  1   4  -1
M  END
>  <UniqueID>  (21) 
21

>  <SMILES>  (21) 
[H]/N=c1/[n-]nc(SCc2cccc(C(F)(F)F)c2)s1

>  <Energy>  (21) 
55.63889854115919

>  <Genealogy>  (21) 
N=c1[n-]nc(SCc2cccc(C(F)(F)F)c2)s1 (protonated)
[H]/N=c1/[n-]nc(SCc2cccc(C(F)(F)F)c2)s1 (cis-trans isomerization)
[H]/N=c1/[n-]nc(SCc2cccc(C(F)(F)F)c2)s1 (3D coordinates assigned)
[H]/N=c1/[n-]nc(SCc2cccc(C(F)(F)F)c2)s1 (optimized conformer: 55.63889854115919 kcal/mol)

>  <smiles>  (21) 
N=c1[nH]nc(SCc2cccc(C(F)(F)F)c2)s1

>  <score_type>  (21) 
oracle

>  <origin>  (21) 
adg

>  <m_score__min__energy>  (21) 
-9.5899999999999999

>  <m_primary>  (21) 
energy

$$$$
21:0
     RDKit          3D

 21 23  0  0  0  0  0  0  0  0999 V2000
   -5.7880   19.4260  -33.7140 O   0  0  0  0  0  0  0  0  0  0  0  0
   -6.0490   20.4590  -33.0420 C   0  0  0  0  0  0  0  0  0  0  0  0
   -5.0510   21.3110  -32.6710 N   0  0  0  0  0  0  0  0  0  0  0  0
   -5.3050   22.4390  -31.9420 C   0  0  0  0  0  0  0  0  0  0  0  0
   -4.2630   23.2970  -31.5750 C   0  0  0  0  0  0  0  0  0  0  0  0
   -4.5350   24.4480  -30.8290 C   0  0  0  0  0  0  0  0  0  0  0  0
   -3.4970   25.2990  -30.4670 O   0  0  0  0  0  0  0  0  0  0  0  0
   -5.8480   24.7480  -30.4480 C   0  0  0  0  0  0  0  0  0  0  0  0
   -6.9010   23.8990  -30.8070 C   0  0  0  0  0  0  0  0  0  0  0  0
   -6.6370   22.7400  -31.5560 C   0  0  0  0  0  0  0  0  0  0  0  0
   -7.6140   21.8700  -31.9410 N   0  0  0  0  0  0  0  0  0  0  0  0
   -8.9470   21.8740  -31.7360 C   0  0  0  0  0  0  0  0  0  0  0  0
   -9.4680   20.7440  -32.3490 C   0  0  0  0  0  0  0  0  0  0  0  0
   -8.4640   20.0490  -32.9260 N   0  0  0  0  0  0  0  0  0  0  0  0
   -7.3550   20.7630  -32.6580 C   0  0  0  0  0  0  0  0  0  0  0  0
   -3.2296   23.0663  -31.8732 H   0  0  0  0  0  0  0  0  0  0  0  0
   -6.0534   25.6565  -29.8629 H   0  0  0  0  0  0  0  0  0  0  0  0
   -7.9311   24.1381  -30.5040 H   0  0  0  0  0  0  0  0  0  0  0  0
   -9.5174   22.6350  -31.1832 H   0  0  0  0  0  0  0  0  0  0  0  0
  -10.5304   20.4592  -32.3629 H   0  0  0  0  0  0  0  0  0  0  0  0
   -8.5380   19.1550  -33.4620 H   0  0  0  0  0  0  0  0  0  0  0  0
  1  2  2  0
  2  3  1  0
  3  4  1  0
  4  5  2  0
  5  6  1  0
  6  7  1  0
  6  8  2  0
  8  9  1  0
  9 10  2  0
 10 11  1  0
 11 12  1  0
 12 13  2  0
 13 14  1  0
 14 15  2  0
 15  2  1  0
 10  4  1  0
 15 11  1  0
  5 16  1  0
  8 17  1  0
  9 18  1  0
 12 19  1  0
 13 20  1  0
 14 21  1  0
M  CHG  3   3  -1   7  -1  14   1
M  END
>  <UniqueID>  (22) 
22

>  <SMILES>  (22) 
O=c1[n-]c2cc([O-])ccc2n2cc[nH+]c12

>  <Energy>  (22) 
65.31166415907941

>  <Genealogy>  (22) 
O=c1[n-]c2cc([O-])ccc2n2cc[nH+]c12 (protonated)
O=c1[n-]c2cc([O-])ccc2n2cc[nH+]c12 (3D coordinates assigned)
O=c1[n-]c2cc([O-])ccc2n2cc[nH+]c12 (optimized conformer: 65.31166415907941 kcal/mol)

>  <smiles>  (22) 
O=c1[nH]c2cc(O)ccc2n2ccnc12

>  <score_type>  (22) 
oracle

>  <origin>  (22) 
adg

>  <m_score__min__energy>  (22) 
-9.0700000000000003

>  <m_primary>  (22) 
energy

$$$$
22:0
     RDKit          3D

 39 41  0  0  0  0  0  0  0  0999 V2000
   -8.9089   22.3007  -30.0309 H   0  0  0  0  0  0  0  0  0  0  0  0
   -8.5880   22.3040  -31.0830 C   0  0  0  0  0  0  0  0  0  0  0  0
   -7.7250   23.4000  -31.5590 C   0  0  0  0  0  0  0  0  0  0  0  0
   -7.5480   23.5360  -32.7990 O   0  0  0  0  0  0  0  0  0  0  0  0
   -7.0960   24.2920  -30.6250 N   0  0  0  0  0  0  0  0  0  0  0  0
   -5.8130   24.4260  -30.4650 C   0  0  0  0  0  0  0  0  0  0  0  0
   -5.0210   23.5250  -29.9370 O   0  0  0  0  0  0  0  0  0  0  0  0
   -3.8210   24.0690  -29.9700 C   0  0  0  0  0  0  0  0  0  0  0  0
   -2.5860   23.4170  -29.4740 C   0  0  0  0  0  0  0  0  0  0  0  0
   -2.4910   22.0130  -29.4910 C   0  0  0  0  0  0  0  0  0  0  0  0
   -3.3318   21.4143  -29.8712 H   0  0  0  0  0  0  0  0  0  0  0  0
   -1.3400   21.3740  -29.0300 C   0  0  0  0  0  0  0  0  0  0  0  0
   -1.2769   20.2760  -29.0494 H   0  0  0  0  0  0  0  0  0  0  0  0
   -0.2700   22.1230  -28.5450 C   0  0  0  0  0  0  0  0  0  0  0  0
    0.6354   21.6153  -28.1812 H   0  0  0  0  0  0  0  0  0  0  0  0
   -0.3450   23.5160  -28.5200 C   0  0  0  0  0  0  0  0  0  0  0  0
    0.5041   24.1008  -28.1366 H   0  0  0  0  0  0  0  0  0  0  0  0
   -1.5000   24.1810  -28.9820 C   0  0  0  0  0  0  0  0  0  0  0  0
   -1.5950   25.5820  -28.9640 O   0  0  0  0  0  0  0  0  0  0  0  0
   -0.9340   26.4290  -28.0300 C   0  0  0  0  0  0  0  0  0  0  0  0
   -1.1824   26.1108  -27.0068 H   0  0  0  0  0  0  0  0  0  0  0  0
    0.1536   26.3628  -28.1808 H   0  0  0  0  0  0  0  0  0  0  0  0
   -1.2625   27.4679  -28.1808 H   0  0  0  0  0  0  0  0  0  0  0  0
   -3.8620   25.3050  -30.5160 N   0  0  0  0  0  0  0  0  0  0  0  0
   -5.1300   25.5200  -30.8270 N   0  0  0  0  0  0  0  0  0  0  0  0
   -5.5010   26.3900  -31.2700 H   0  0  0  0  0  0  0  0  0  0  0  0
   -8.9960   21.3110  -31.8860 C   0  0  0  0  0  0  0  0  0  0  0  0
  -10.0452   21.3086  -32.2165 H   0  0  0  0  0  0  0  0  0  0  0  0
   -8.1120   20.2150  -32.3540 C   0  0  0  0  0  0  0  0  0  0  0  0
   -6.9690   20.4480  -33.1460 C   0  0  0  0  0  0  0  0  0  0  0  0
   -6.7116   21.4744  -33.4465 H   0  0  0  0  0  0  0  0  0  0  0  0
   -6.1600   19.3800  -33.5520 C   0  0  0  0  0  0  0  0  0  0  0  0
   -5.2743   19.5693  -34.1763 H   0  0  0  0  0  0  0  0  0  0  0  0
   -6.4740   18.0760  -33.1670 C   0  0  0  0  0  0  0  0  0  0  0  0
   -5.8390   17.2384  -33.4913 H   0  0  0  0  0  0  0  0  0  0  0  0
   -7.5960   17.8350  -32.3690 C   0  0  0  0  0  0  0  0  0  0  0  0
   -7.8411   16.8074  -32.0624 H   0  0  0  0  0  0  0  0  0  0  0  0
   -8.4070   18.8970  -31.9600 C   0  0  0  0  0  0  0  0  0  0  0  0
   -9.2833   18.7008  -31.3247 H   0  0  0  0  0  0  0  0  0  0  0  0
  1  2  1  0
  2  3  1  0
  3  4  2  0
  3  5  1  0
  5  6  2  3
  6  7  1  0
  7  8  1  0
  8  9  1  0
  9 10  2  0
 10 11  1  0
 10 12  1  0
 12 13  1  0
 12 14  2  0
 14 15  1  0
 14 16  1  0
 16 17  1  0
 16 18  2  0
 18 19  1  0
 19 20  1  0
 20 21  1  0
 20 22  1  0
 20 23  1  0
  8 24  2  0
 24 25  1  0
 25 26  1  0
  2 27  2  0
 27 28  1  0
 27 29  1  0
 29 30  2  0
 30 31  1  0
 30 32  1  0
 32 33  1  0
 32 34  2  0
 34 35  1  0
 34 36  1  0
 36 37  1  0
 36 38  2  0
 38 39  1  0
 25  6  1  0
 38 29  1  0
 18  9  1  0
M  END
>  <UniqueID>  (23) 
23

>  <SMILES>  (23) 
COc1ccccc1-c1n[nH]c(=NC(=O)/C=C/c2ccccc2)o1

>  <Energy>  (23) 
80.91518541312577

>  <Genealogy>  (23) 
COc1ccccc1-c1n[nH]c(=NC(=O)/C=C/c2ccccc2)o1 (cis-trans isomerization)
COc1ccccc1-c1n[nH]c(=NC(=O)/C=C/c2ccccc2)o1 (3D coordinates assigned)
COc1ccccc1-c1n[nH]c(=NC(=O)/C=C/c2ccccc2)o1 (optimized conformer: 80.91518541312577 kcal/mol)

>  <smiles>  (23) 
COc1ccccc1-c1n[nH]c(=NC(=O)C=Cc2ccccc2)o1

>  <score_type>  (23) 
oracle

>  <origin>  (23) 
adg

>  <m_score__min__energy>  (23) 
-8.9600000000000009

>  <m_primary>  (23) 
energy

$$$$
23:0
     RDKit          3D

 35 37  0  0  0  0  0  0  0  0999 V2000
   -6.8060   18.9950  -33.4380 C   0  0  0  0  0  0  0  0  0  0  0  0
   -6.8740   20.2300  -32.6530 N   0  0  0  0  0  0  0  0  0  0  0  0
   -5.6370   20.7760  -32.0730 C   0  0  0  0  0  0  0  0  0  0  0  0
   -5.7790   22.1960  -31.5730 C   0  0  0  0  0  0  0  0  0  0  0  0
   -4.6220   22.9300  -31.2690 C   0  0  0  0  0  0  0  0  0  0  0  0
   -4.7100   24.2260  -30.7460 C   0  0  0  0  0  0  0  0  0  0  0  0
   -3.4970   24.9370  -30.4670 N   0  0  0  0  0  0  0  0  0  0  0  0
   -2.4010   24.5740  -29.1720 S   0  0  0  0  0  0  0  0  0  0  0  0
   -1.1930   25.4600  -29.2900 O   0  0  0  0  0  0  0  0  0  0  0  0
   -3.0820   24.8450  -27.8610 O   0  0  0  0  0  0  0  0  0  0  0  0
   -1.9360   22.8770  -29.2320 C   0  0  0  0  0  0  0  0  0  0  0  0
   -2.5510   21.9380  -28.3940 C   0  0  0  0  0  0  0  0  0  0  0  0
   -2.1650   20.5970  -28.4510 C   0  0  0  0  0  0  0  0  0  0  0  0
   -1.1680   20.2100  -29.3480 C   0  0  0  0  0  0  0  0  0  0  0  0
   -0.5840   21.1340  -30.1580 N   0  0  0  0  0  0  0  0  0  0  0  0
   -0.9430   22.4450  -30.1200 C   0  0  0  0  0  0  0  0  0  0  0  0
   -5.9770   24.7850  -30.5070 C   0  0  0  0  0  0  0  0  0  0  0  0
   -7.1330   24.0570  -30.7940 C   0  0  0  0  0  0  0  0  0  0  0  0
   -7.0420   22.7630  -31.3270 C   0  0  0  0  0  0  0  0  0  0  0  0
   -8.2320   22.0330  -31.6310 N   0  0  0  0  0  0  0  0  0  0  0  0
   -8.1570   20.7910  -32.3260 C   0  0  0  0  0  0  0  0  0  0  0  0
   -9.2190   20.2000  -32.6630 O   0  0  0  0  0  0  0  0  0  0  0  0
   -6.7584   18.1310  -32.7589 H   0  0  0  0  0  0  0  0  0  0  0  0
   -7.7010   18.9140  -34.0723 H   0  0  0  0  0  0  0  0  0  0  0  0
   -5.9075   19.0127  -34.0723 H   0  0  0  0  0  0  0  0  0  0  0  0
   -5.3377   20.1381  -31.2283 H   0  0  0  0  0  0  0  0  0  0  0  0
   -4.8834   20.7896  -32.8741 H   0  0  0  0  0  0  0  0  0  0  0  0
   -3.6330   22.4813  -31.4439 H   0  0  0  0  0  0  0  0  0  0  0  0
   -3.3363   22.2562  -27.6925 H   0  0  0  0  0  0  0  0  0  0  0  0
   -2.6419   19.8533  -27.7956 H   0  0  0  0  0  0  0  0  0  0  0  0
   -0.8542   19.1570  -29.4000 H   0  0  0  0  0  0  0  0  0  0  0  0
   -0.4523   23.1679  -30.7883 H   0  0  0  0  0  0  0  0  0  0  0  0
   -6.0582   25.8005  -30.0920 H   0  0  0  0  0  0  0  0  0  0  0  0
   -8.1208   24.5008  -30.6010 H   0  0  0  0  0  0  0  0  0  0  0  0
   -9.1700   22.4350  -31.4020 H   0  0  0  0  0  0  0  0  0  0  0  0
  1  2  1  0
  2  3  1  0
  3  4  1  0
  4  5  2  0
  5  6  1  0
  6  7  1  0
  7  8  1  0
  8  9  2  0
  8 10  2  0
  8 11  1  0
 11 12  2  0
 12 13  1  0
 13 14  2  0
 14 15  1  0
 15 16  2  0
  6 17  2  0
 17 18  1  0
 18 19  2  0
 19 20  1  0
 20 21  1  0
 21 22  2  0
 21  2  1  0
 19  4  1  0
 16 11  1  0
  1 23  1  0
  1 24  1  0
  1 25  1  0
  3 26  1  0
  3 27  1  0
  5 28  1  0
 12 29  1  0
 13 30  1  0
 14 31  1  0
 16 32  1  0
 17 33  1  0
 18 34  1  0
 20 35  1  0
M  CHG  1   7  -1
M  END
>  <UniqueID>  (24) 
24

>  <SMILES>  (24) 
CN1Cc2cc([N-]S(=O)(=O)c3cccnc3)ccc2NC1=O

>  <Energy>  (24) 
40.567169928193785

>  <Genealogy>  (24) 
CN1Cc2cc([N-]S(=O)(=O)c3cccnc3)ccc2NC1=O (protonated)
CN1Cc2cc([N-]S(=O)(=O)c3cccnc3)ccc2NC1=O (3D coordinates assigned)
CN1Cc2cc([N-]S(=O)(=O)c3cccnc3)ccc2NC1=O (nonaromatic ring conformer: 40.567169928193785 kcal/mol)

>  <smiles>  (24) 
CN1Cc2cc(NS(=O)(=O)c3cccnc3)ccc2NC1=O

>  <score_type>  (24) 
oracle

>  <origin>  (24) 
adg

>  <m_score__min__energy>  (24) 
-9.1199999999999992

>  <m_primary>  (24) 
energy

$$$$
24:0
     RDKit          3D

 33 35  0  0  0  0  0  0  0  0999 V2000
   -8.0060   22.5090  -29.7520 O   0  0  0  0  0  0  0  0  0  0  0  0
   -7.2060   22.3790  -30.7210 C   0  0  0  0  0  0  0  0  0  0  0  0
   -7.2350   21.2060  -31.4950 C   0  0  0  0  0  0  0  0  0  0  0  0
   -8.1330   20.1550  -31.2300 C   0  0  0  0  0  0  0  0  0  0  0  0
   -8.1240   19.0070  -32.0270 C   0  0  0  0  0  0  0  0  0  0  0  0
   -7.2260   18.8970  -33.0910 C   0  0  0  0  0  0  0  0  0  0  0  0
   -6.3300   19.9340  -33.3630 C   0  0  0  0  0  0  0  0  0  0  0  0
   -6.3290   21.0920  -32.5700 C   0  0  0  0  0  0  0  0  0  0  0  0
   -5.4580   22.1050  -32.8270 N   0  0  0  0  0  0  0  0  0  0  0  0
   -5.4450   23.2290  -32.0660 C   0  0  0  0  0  0  0  0  0  0  0  0
   -6.3130   23.3770  -31.0200 N   0  0  0  0  0  0  0  0  0  0  0  0
   -6.2340   24.6050  -30.2080 C   0  0  0  0  0  0  0  0  0  0  0  0
   -5.2580   25.6100  -30.8290 C   0  0  0  0  0  0  0  0  0  0  0  0
   -3.9110   25.3170  -30.4620 O   0  0  0  0  0  0  0  0  0  0  0  0
   -3.5340   24.1760  -29.7450 C   0  0  0  0  0  0  0  0  0  0  0  0
   -2.8660   23.1800  -30.3840 N   0  0  0  0  0  0  0  0  0  0  0  0
   -2.4880   22.0540  -29.7250 C   0  0  0  0  0  0  0  0  0  0  0  0
   -2.7870   21.9090  -28.3700 C   0  0  0  0  0  0  0  0  0  0  0  0
   -2.2700   20.3360  -27.4190 Br  0  0  0  0  0  0  0  0  0  0  0  0
   -3.4700   22.9410  -27.7260 C   0  0  0  0  0  0  0  0  0  0  0  0
   -3.8290   24.0500  -28.4210 N   0  0  0  0  0  0  0  0  0  0  0  0
   -8.8432   20.2374  -30.3940 H   0  0  0  0  0  0  0  0  0  0  0  0
   -8.8265   18.1874  -31.8156 H   0  0  0  0  0  0  0  0  0  0  0  0
   -7.2241   17.9920  -33.7162 H   0  0  0  0  0  0  0  0  0  0  0  0
   -5.6234   19.8426  -34.2010 H   0  0  0  0  0  0  0  0  0  0  0  0
   -4.7810   22.0290  -33.6200 H   0  0  0  0  0  0  0  0  0  0  0  0
   -4.7272   24.0308  -32.2937 H   0  0  0  0  0  0  0  0  0  0  0  0
   -7.2326   25.0624  -30.1488 H   0  0  0  0  0  0  0  0  0  0  0  0
   -5.8727   24.3393  -29.2036 H   0  0  0  0  0  0  0  0  0  0  0  0
   -5.3485   25.5677  -31.9245 H   0  0  0  0  0  0  0  0  0  0  0  0
   -5.5093   26.6142  -30.4569 H   0  0  0  0  0  0  0  0  0  0  0  0
   -1.9474   21.2583  -30.2584 H   0  0  0  0  0  0  0  0  0  0  0  0
   -3.7170   22.8560  -26.6575 H   0  0  0  0  0  0  0  0  0  0  0  0
  1  2  2  0
  2  3  1  0
  3  4  2  0
  4  5  1  0
  5  6  2  0
  6  7  1  0
  7  8  2  0
  8  9  1  0
  9 10  2  0
 10 11  1  0
 11 12  1  0
 12 13  1  0
 13 14  1  0
 14 15  1  0
 15 16  2  0
 16 17  1  0
 17 18  2  0
 18 19  1  0
 18 20  1  0
 20 21  2  0
 11  2  1  0
 21 15  1  0
  8  3  1  0
  4 22  1  0
  5 23  1  0
  6 24  1  0
  7 25  1  0
  9 26  1  0
 10 27  1  0
 12 28  1  0
 12 29  1  0
 13 30  1  0
 13 31  1  0
 17 32  1  0
 20 33  1  0
M  CHG  1   9   1
M  END
>  <UniqueID>  (25) 
25

>  <SMILES>  (25) 
O=c1c2ccccc2[nH+]cn1CCOc1ncc(Br)cn1

>  <Energy>  (25) 
39.325351437665844

>  <Genealogy>  (25) 
O=c1c2ccccc2[nH+]cn1CCOc1ncc(Br)cn1 (protonated)
O=c1c2ccccc2[nH+]cn1CCOc1ncc(Br)cn1 (3D coordinates assigned)
O=c1c2ccccc2[nH+]cn1CCOc1ncc(Br)cn1 (optimized conformer: 39.325351437665844 kcal/mol)

>  <smiles>  (25) 
O=c1c2ccccc2ncn1CCOc1ncc(Br)cn1

>  <score_type>  (25) 
oracle

>  <origin>  (25) 
adg

>  <m_score__min__energy>  (25) 
-7.4000000000000004

>  <m_primary>  (25) 
energy

$$$$
25:0
     RDKit          3D

 33 33  0  0  0  0  0  0  0  0999 V2000
   -8.2900   21.9330  -30.8240 C   0  0  0  0  0  0  0  0  0  0  0  0
   -7.7870   23.1400  -31.6120 C   0  0  0  0  0  0  0  0  0  0  0  0
   -6.3150   23.3880  -31.3420 C   0  0  0  0  0  0  0  0  0  0  0  0
   -5.8870   24.4020  -30.4470 C   0  0  0  0  0  0  0  0  0  0  0  0
   -6.8580   25.3130  -29.7430 C   0  0  0  0  0  0  0  0  0  0  0  0
   -4.5130   24.5820  -30.2390 C   0  0  0  0  0  0  0  0  0  0  0  0
   -3.6110   23.7810  -30.8580 N   0  0  0  0  0  0  0  0  0  0  0  0
   -3.9910   22.7880  -31.7000 C   0  0  0  0  0  0  0  0  0  0  0  0
   -5.3530   22.5630  -31.9660 C   0  0  0  0  0  0  0  0  0  0  0  0
   -5.7950   21.5360  -32.8210 O   0  0  0  0  0  0  0  0  0  0  0  0
   -5.6450   20.1270  -32.6210 C   0  0  0  0  0  0  0  0  0  0  0  0
   -6.7500   19.3220  -33.3330 C   0  0  0  0  0  0  0  0  0  0  0  0
   -7.8150   18.8040  -32.3600 C   0  0  0  0  0  0  0  0  0  0  0  0
   -6.1590   18.1660  -34.1510 C   0  0  0  0  0  0  0  0  0  0  0  0
   -8.2049   22.1372  -29.7465 H   0  0  0  0  0  0  0  0  0  0  0  0
   -9.3428   21.7416  -31.0789 H   0  0  0  0  0  0  0  0  0  0  0  0
   -7.6847   21.0506  -31.0789 H   0  0  0  0  0  0  0  0  0  0  0  0
   -7.9295   22.9533  -32.6866 H   0  0  0  0  0  0  0  0  0  0  0  0
   -8.3562   24.0271  -31.2972 H   0  0  0  0  0  0  0  0  0  0  0  0
   -6.7409   25.2031  -28.6548 H   0  0  0  0  0  0  0  0  0  0  0  0
   -6.6566   26.3556  -30.0300 H   0  0  0  0  0  0  0  0  0  0  0  0
   -7.8857   25.0456  -30.0300 H   0  0  0  0  0  0  0  0  0  0  0  0
   -4.1631   25.3801  -29.5677 H   0  0  0  0  0  0  0  0  0  0  0  0
   -3.2289   22.1548  -32.1777 H   0  0  0  0  0  0  0  0  0  0  0  0
   -4.6672   19.8143  -33.0161 H   0  0  0  0  0  0  0  0  0  0  0  0
   -5.7205   19.9270  -31.5420 H   0  0  0  0  0  0  0  0  0  0  0  0
   -7.2485   20.0187  -34.0231 H   0  0  0  0  0  0  0  0  0  0  0  0
   -7.4777   18.9680  -31.3259 H   0  0  0  0  0  0  0  0  0  0  0  0
   -8.7586   19.3438  -32.5279 H   0  0  0  0  0  0  0  0  0  0  0  0
   -7.9730   17.7284  -32.5279 H   0  0  0  0  0  0  0  0  0  0  0  0
   -5.7661   17.3975  -33.4690 H   0  0  0  0  0  0  0  0  0  0  0  0
   -6.9433   17.7271  -34.7852 H   0  0  0  0  0  0  0  0  0  0  0  0
   -5.3439   18.5447  -34.7852 H   0  0  0  0  0  0  0  0  0  0  0  0
  1  2  1  0
  2  3  1  0
  3  4  2  0
  4  5  1  0
  4  6  1  0
  6  7  2  0
  7  8  1  0
  8  9  2  0
  9 10  1  0
 10 11  1  0
 11 12  1  0
 12 13  1  0
 12 14  1  0
  9  3  1  0
  1 15  1  0
  1 16  1  0
  1 17  1  0
  2 18  1  0
  2 19  1  0
  5 20  1  0
  5 21  1  0
  5 22  1  0
  6 23  1  0
  8 24  1  0
 11 25  1  0
 11 26  1  0
 12 27  1  0
 13 28  1  0
 13 29  1  0
 13 30  1  0
 14 31  1  0
 14 32  1  0
 14 33  1  0
M  END
>  <UniqueID>  (26) 
26

>  <SMILES>  (26) 
CCc1c(C)cncc1OCC(C)C

>  <Energy>  (26) 
26.4654149693743

>  <Genealogy>  (26) 
CCc1c(C)cncc1OCC(C)C (3D coordinates assigned)
CCc1c(C)cncc1OCC(C)C (optimized conformer: 26.4654149693743 kcal/mol)

>  <smiles>  (26) 
CCc1c(C)cncc1OCC(C)C

>  <score_type>  (26) 
oracle

>  <origin>  (26) 
adg

>  <m_score__min__energy>  (26) 
-5.5499999999999998

>  <m_primary>  (26) 
energy

$$$$
26:0
     RDKit          3D

 58 61  0  0  0  0  0  0  0  0999 V2000
   -5.3410   25.3780  -30.4460 C   0  0  0  0  0  0  0  0  0  0  0  0
   -3.9180   25.3220  -30.4340 O   0  0  0  0  0  0  0  0  0  0  0  0
   -3.1710   24.1850  -30.0860 C   0  0  0  0  0  0  0  0  0  0  0  0
   -3.5680   22.8870  -30.4580 C   0  0  0  0  0  0  0  0  0  0  0  0
   -2.8000   21.7800  -30.0910 C   0  0  0  0  0  0  0  0  0  0  0  0
   -1.6310   21.9490  -29.3390 C   0  0  0  0  0  0  0  0  0  0  0  0
   -0.7850   20.7580  -28.9750 C   0  0  0  0  0  0  0  0  0  0  0  0
    0.2060   20.4380  -30.0960 C   0  0  0  0  0  0  0  0  0  0  0  0
   -0.5120   20.1480  -31.3340 N   0  0  0  0  0  0  0  0  0  0  0  0
   -0.2120   20.6280  -32.5560 C   0  0  0  0  0  0  0  0  0  0  0  0
   -1.1630   20.1920  -33.4550 C   0  0  0  0  0  0  0  0  0  0  0  0
   -1.2060   20.5120  -34.8080 O   0  0  0  0  0  0  0  0  0  0  0  0
   -2.0790   19.4180  -32.7590 C   0  0  0  0  0  0  0  0  0  0  0  0
   -3.2910   18.7480  -33.2870 C   0  0  0  0  0  0  0  0  0  0  0  0
   -3.2840   18.1700  -34.5620 C   0  0  0  0  0  0  0  0  0  0  0  0
   -4.4200   17.5290  -35.0460 C   0  0  0  0  0  0  0  0  0  0  0  0
   -5.5720   17.4740  -34.2570 C   0  0  0  0  0  0  0  0  0  0  0  0
   -6.5900   16.8790  -34.7060 O   0  0  0  0  0  0  0  0  0  0  0  0
   -5.5890   18.0580  -33.0160 N   0  0  0  0  0  0  0  0  0  0  0  0
   -6.7880   17.9840  -32.1620 C   0  0  0  0  0  0  0  0  0  0  0  0
   -7.4800   19.3200  -32.1210 C   0  0  0  0  0  0  0  0  0  0  0  0
   -8.8540   19.4190  -32.3960 C   0  0  0  0  0  0  0  0  0  0  0  0
   -9.5000   20.6570  -32.3210 C   0  0  0  0  0  0  0  0  0  0  0  0
   -8.7820   21.8010  -31.9640 C   0  0  0  0  0  0  0  0  0  0  0  0
   -7.4170   21.7090  -31.6800 C   0  0  0  0  0  0  0  0  0  0  0  0
   -6.7670   20.4740  -31.7540 C   0  0  0  0  0  0  0  0  0  0  0  0
   -4.4720   18.6840  -32.5300 C   0  0  0  0  0  0  0  0  0  0  0  0
   -1.6480   19.4260  -31.4410 C   0  0  0  0  0  0  0  0  0  0  0  0
   -1.2240   23.2420  -28.9770 C   0  0  0  0  0  0  0  0  0  0  0  0
   -1.9930   24.3640  -29.3440 C   0  0  0  0  0  0  0  0  0  0  0  0
   -1.6190   25.6710  -28.9920 O   0  0  0  0  0  0  0  0  0  0  0  0
   -1.0370   26.0360  -27.7450 C   0  0  0  0  0  0  0  0  0  0  0  0
   -5.7161   25.3928  -29.4120 H   0  0  0  0  0  0  0  0  0  0  0  0
   -5.6677   26.2897  -30.9676 H   0  0  0  0  0  0  0  0  0  0  0  0
   -5.7383   24.4948  -30.9676 H   0  0  0  0  0  0  0  0  0  0  0  0
   -4.4893   22.7436  -31.0417 H   0  0  0  0  0  0  0  0  0  0  0  0
   -3.1148   20.7705  -30.3941 H   0  0  0  0  0  0  0  0  0  0  0  0
   -0.2281   20.9786  -28.0524 H   0  0  0  0  0  0  0  0  0  0  0  0
   -1.4424   19.8890  -28.8243 H   0  0  0  0  0  0  0  0  0  0  0  0
    0.8683   21.3020  -30.2536 H   0  0  0  0  0  0  0  0  0  0  0  0
    0.8003   19.5576  -29.8102 H   0  0  0  0  0  0  0  0  0  0  0  0
    0.6517   21.2647  -32.7980 H   0  0  0  0  0  0  0  0  0  0  0  0
   -1.6110   21.3860  -35.1220 H   0  0  0  0  0  0  0  0  0  0  0  0
   -2.3776   18.2228  -35.1830 H   0  0  0  0  0  0  0  0  0  0  0  0
   -4.4114   17.0679  -36.0446 H   0  0  0  0  0  0  0  0  0  0  0  0
   -7.4778   17.2298  -32.5687 H   0  0  0  0  0  0  0  0  0  0  0  0
   -6.4855   17.7049  -31.1419 H   0  0  0  0  0  0  0  0  0  0  0  0
   -9.4239   18.5193  -32.6714 H   0  0  0  0  0  0  0  0  0  0  0  0
  -10.5748   20.7301  -32.5434 H   0  0  0  0  0  0  0  0  0  0  0  0
   -9.2913   22.7743  -31.9065 H   0  0  0  0  0  0  0  0  0  0  0  0
   -6.8530   22.6102  -31.3977 H   0  0  0  0  0  0  0  0  0  0  0  0
   -5.6935   20.4050  -31.5242 H   0  0  0  0  0  0  0  0  0  0  0  0
   -4.5004   19.1438  -31.5311 H   0  0  0  0  0  0  0  0  0  0  0  0
   -2.1559   18.9196  -30.6069 H   0  0  0  0  0  0  0  0  0  0  0  0
   -0.2967   23.3809  -28.4018 H   0  0  0  0  0  0  0  0  0  0  0  0
   -1.6567   25.6474  -26.9234 H   0  0  0  0  0  0  0  0  0  0  0  0
   -0.0251   25.6104  -27.6741 H   0  0  0  0  0  0  0  0  0  0  0  0
   -0.9795   27.1322  -27.6741 H   0  0  0  0  0  0  0  0  0  0  0  0
  1  2  1  0
  2  3  1  0
  3  4  2  0
  4  5  1  0
  5  6  2  0
  6  7  1  0
  7  8  1  0
  8  9  1  0
  9 10  1  0
 10 11  2  0
 11 12  1  0
 11 13  1  0
 13 14  1  0
 14 15  1  0
 15 16  2  0
 16 17  1  0
 17 18  2  0
 17 19  1  0
 19 20  1  0
 20 21  1  0
 21 22  2  0
 22 23  1  0
 23 24  2  0
 24 25  1  0
 25 26  2  0
 19 27  1  0
 13 28  2  0
  6 29  1  0
 29 30  2  0
 30 31  1  0
 31 32  1  0
 30  3  1  0
 28  9  1  0
 27 14  2  0
 26 21  1  0
  1 33  1  0
  1 34  1  0
  1 35  1  0
  4 36  1  0
  5 37  1  0
  7 38  1  0
  7 39  1  0
  8 40  1  0
  8 41  1  0
 10 42  1  0
 12 43  1  0
 15 44  1  0
 16 45  1  0
 20 46  1  0
 20 47  1  0
 22 48  1  0
 23 49  1  0
 24 50  1  0
 25 51  1  0
 26 52  1  0
 27 53  1  0
 28 54  1  0
 29 55  1  0
 32 56  1  0
 32 57  1  0
 32 58  1  0
M  END
>  <UniqueID>  (27) 
27

>  <SMILES>  (27) 
COc1ccc(CCn2cc(O)c(-c3ccc(=O)n(Cc4ccccc4)c3)c2)cc1OC

>  <Energy>  (27) 
88.77769651145128

>  <Genealogy>  (27) 
COc1ccc(CCn2cc(O)c(-c3ccc(=O)n(Cc4ccccc4)c3)c2)cc1OC (3D coordinates assigned)
COc1ccc(CCn2cc(O)c(-c3ccc(=O)n(Cc4ccccc4)c3)c2)cc1OC (optimized conformer: 88.77769651145128 kcal/mol)

>  <smiles>  (27) 
COc1ccc(CCn2cc(O)c(-c3ccc(=O)n(Cc4ccccc4)c3)c2)cc1OC

>  <score_type>  (27) 
oracle

>  <origin>  (27) 
adg

>  <m_score__min__energy>  (27) 
-10.199999999999999

>  <m_primary>  (27) 
energy

$$$$
27:0
     RDKit          3D

 58 61  0  0  0  0  0  0  0  0999 V2000
   -0.2952   26.1508  -28.9644 H   0  0  0  0  0  0  0  0  0  0  0  0
   -0.9500   25.2670  -28.9720 C   0  0  0  0  0  0  0  0  0  0  0  0
   -2.2980   25.3030  -28.9710 N   0  0  0  0  0  0  0  0  0  0  0  0
   -2.7460   24.0550  -28.9780 N   0  0  0  0  0  0  0  0  0  0  0  0
   -4.1840   23.7360  -28.9680 C   0  0  0  0  0  0  0  0  0  0  0  0
   -4.4880   23.5982  -27.9199 H   0  0  0  0  0  0  0  0  0  0  0  0
   -5.0270   24.9110  -29.5130 C   0  0  0  0  0  0  0  0  0  0  0  0
   -4.3990   25.8135  -29.5468 H   0  0  0  0  0  0  0  0  0  0  0  0
   -5.8883   25.0517  -28.8434 H   0  0  0  0  0  0  0  0  0  0  0  0
   -5.5610   24.6270  -30.9190 C   0  0  0  0  0  0  0  0  0  0  0  0
   -4.7101   24.4961  -31.6037 H   0  0  0  0  0  0  0  0  0  0  0  0
   -6.1872   25.4777  -31.2260 H   0  0  0  0  0  0  0  0  0  0  0  0
   -6.3960   23.4040  -30.9520 N   0  0  0  0  0  0  0  0  0  0  0  0
   -6.7730   22.9820  -32.3220 C   0  0  0  0  0  0  0  0  0  0  0  0
   -5.8838   23.0544  -32.9656 H   0  0  0  0  0  0  0  0  0  0  0  0
   -7.5837   23.6474  -32.6537 H   0  0  0  0  0  0  0  0  0  0  0  0
   -7.3030   21.5640  -32.3940 C   0  0  0  0  0  0  0  0  0  0  0  0
   -8.5840   21.2680  -31.8990 C   0  0  0  0  0  0  0  0  0  0  0  0
   -9.1848   22.0604  -31.4289 H   0  0  0  0  0  0  0  0  0  0  0  0
   -9.0990   19.9750  -32.0000 C   0  0  0  0  0  0  0  0  0  0  0  0
  -10.1045   19.7522  -31.6137 H   0  0  0  0  0  0  0  0  0  0  0  0
   -8.3390   18.9640  -32.5910 C   0  0  0  0  0  0  0  0  0  0  0  0
   -8.7480   17.9455  -32.6644 H   0  0  0  0  0  0  0  0  0  0  0  0
   -7.0600   19.2370  -33.0910 C   0  0  0  0  0  0  0  0  0  0  0  0
   -6.3470   18.1920  -33.6950 O   0  0  0  0  0  0  0  0  0  0  0  0
   -6.0550   16.9480  -33.0680 C   0  0  0  0  0  0  0  0  0  0  0  0
   -6.0842   17.0723  -31.9754 H   0  0  0  0  0  0  0  0  0  0  0  0
   -6.8020   16.1999  -33.3720 H   0  0  0  0  0  0  0  0  0  0  0  0
   -5.0532   16.6104  -33.3720 H   0  0  0  0  0  0  0  0  0  0  0  0
   -6.5400   20.5400  -32.9800 C   0  0  0  0  0  0  0  0  0  0  0  0
   -5.5291   20.7583  -33.3547 H   0  0  0  0  0  0  0  0  0  0  0  0
   -5.9650   22.2980  -30.0590 C   0  0  0  0  0  0  0  0  0  0  0  0
   -6.1323   21.3425  -30.5777 H   0  0  0  0  0  0  0  0  0  0  0  0
   -6.5563   22.3704  -29.1343 H   0  0  0  0  0  0  0  0  0  0  0  0
   -4.4860   22.3900  -29.6680 C   0  0  0  0  0  0  0  0  0  0  0  0
   -3.8679   22.3085  -30.5743 H   0  0  0  0  0  0  0  0  0  0  0  0
   -4.2547   21.5711  -28.9709 H   0  0  0  0  0  0  0  0  0  0  0  0
   -1.6810   23.2180  -29.0010 C   0  0  0  0  0  0  0  0  0  0  0  0
   -1.7660   21.9210  -28.9890 N   0  0  0  0  0  0  0  0  0  0  0  0
   -1.5290   21.1140  -27.8310 C   0  0  0  0  0  0  0  0  0  0  0  0
   -1.9290   21.5360  -26.7130 O   0  0  0  0  0  0  0  0  0  0  0  0
   -0.8240   19.8090  -27.9140 C   0  0  0  0  0  0  0  0  0  0  0  0
    0.1970   19.6510  -28.8700 C   0  0  0  0  0  0  0  0  0  0  0  0
    0.4379   20.4809  -29.5505 H   0  0  0  0  0  0  0  0  0  0  0  0
    0.9060   18.4550  -28.9640 C   0  0  0  0  0  0  0  0  0  0  0  0
    1.6948   18.3427  -29.7224 H   0  0  0  0  0  0  0  0  0  0  0  0
    0.6180   17.4020  -28.1000 C   0  0  0  0  0  0  0  0  0  0  0  0
    1.1859   16.4626  -28.1709 H   0  0  0  0  0  0  0  0  0  0  0  0
   -0.3890   17.5360  -27.1450 C   0  0  0  0  0  0  0  0  0  0  0  0
   -0.6150   16.6976  -26.4698 H   0  0  0  0  0  0  0  0  0  0  0  0
   -1.1210   18.7380  -27.0370 C   0  0  0  0  0  0  0  0  0  0  0  0
   -2.1220   18.8930  -26.0680 O   0  0  0  0  0  0  0  0  0  0  0  0
   -3.5040   18.6160  -26.2860 C   0  0  0  0  0  0  0  0  0  0  0  0
   -4.0147   18.5136  -25.3171 H   0  0  0  0  0  0  0  0  0  0  0  0
   -3.9581   19.4410  -26.8545 H   0  0  0  0  0  0  0  0  0  0  0  0
   -3.6051   17.6797  -26.8545 H   0  0  0  0  0  0  0  0  0  0  0  0
   -0.5130   23.9580  -28.9840 C   0  0  0  0  0  0  0  0  0  0  0  0
    0.5233   23.5891  -28.9808 H   0  0  0  0  0  0  0  0  0  0  0  0
  1  2  1  0
  2  3  1  0
  3  4  1  0
  4  5  1  0
  5  6  1  0
  5  7  1  0
  7  8  1  0
  7  9  1  0
  7 10  1  0
 10 11  1  0
 10 12  1  0
 10 13  1  0
 13 14  1  0
 14 15  1  0
 14 16  1  0
 14 17  1  0
 17 18  2  0
 18 19  1  0
 18 20  1  0
 20 21  1  0
 20 22  2  0
 22 23  1  0
 22 24  1  0
 24 25  1  0
 25 26  1  0
 26 27  1  0
 26 28  1  0
 26 29  1  0
 24 30  2  0
 30 31  1  0
 13 32  1  0
 32 33  1  0
 32 34  1  0
 32 35  1  0
 35 36  1  0
 35 37  1  0
  4 38  1  0
 38 39  2  0
 39 40  1  0
 40 41  2  0
 40 42  1  0
 42 43  2  0
 43 44  1  0
 43 45  1  0
 45 46  1  0
 45 47  2  0
 47 48  1  0
 47 49  1  0
 49 50  1  0
 49 51  2  0
 51 52  1  0
 52 53  1  0
 53 54  1  0
 53 55  1  0
 53 56  1  0
 38 57  1  0
 57 58  1  0
 57  2  2  0
 35  5  1  0
 51 42  1  0
 30 17  1  0
M  CHG  1   3  -1
M  END
>  <UniqueID>  (28) 
28

>  <SMILES>  (28) 
COc1cccc(CN2CCC(n3[n-]cc/c3=N\C(=O)c3ccccc3OC)CC2)c1

>  <Energy>  (28) 
110.5118110561907

>  <Genealogy>  (28) 
COc1cccc(CN2CCC(n3[n-]ccc3=NC(=O)c3ccccc3OC)CC2)c1 (protonated)
COc1cccc(CN2CCC(n3[n-]cc/c3=N\C(=O)c3ccccc3OC)CC2)c1 (cis-trans isomerization)
COc1cccc(CN2CCC(n3[n-]cc/c3=N\C(=O)c3ccccc3OC)CC2)c1 (3D coordinates assigned)
COc1cccc(CN2CCC(n3[n-]cc/c3=N\C(=O)c3ccccc3OC)CC2)c1 (nonaromatic ring conformer: 110.5118110561907 kcal/mol)

>  <smiles>  (28) 
COc1cccc(CN2CCC(n3[nH]ccc3=NC(=O)c3ccccc3OC)CC2)c1

>  <score_type>  (28) 
oracle

>  <origin>  (28) 
adg

>  <m_score__min__energy>  (28) 
-10.09

>  <m_primary>  (28) 
energy

$$$$
28:0
     RDKit          3D

 39 40  0  0  1  0  0  0  0  0999 V2000
   -5.9780   17.4740  -34.2250 C   0  0  0  0  0  0  0  0  0  0  0  0
   -5.3330   18.3950  -33.2590 C   0  0  2  0  0  0  0  0  0  0  0  0
   -6.0040   18.5340  -31.9150 C   0  0  0  0  0  0  0  0  0  0  0  0
   -7.2300   19.3740  -31.9610 C   0  0  0  0  0  0  0  0  0  0  0  0
   -8.3810   19.0160  -32.6220 C   0  0  0  0  0  0  0  0  0  0  0  0
   -9.4840   19.8660  -32.6030 C   0  0  0  0  0  0  0  0  0  0  0  0
   -9.4760   21.0690  -31.9420 C   0  0  0  0  0  0  0  0  0  0  0  0
   -8.3250   21.4320  -31.2790 C   0  0  0  0  0  0  0  0  0  0  0  0
   -7.2450   20.6030  -31.2970 C   0  0  0  0  0  0  0  0  0  0  0  0
   -5.2620   23.8720  -32.0270 N   0  0  0  0  0  0  0  0  0  0  0  0
   -4.6630   22.7270  -32.0920 C   0  0  0  0  0  0  0  0  0  0  0  0
   -3.3890   20.3590  -32.1960 N   0  0  0  0  0  0  0  0  0  0  0  0
   -2.9900   21.3310  -31.3580 C   0  0  0  0  0  0  0  0  0  0  0  0
   -1.6080   21.0780  -30.2950 Cl  0  0  0  0  0  0  0  0  0  0  0  0
   -3.6050   22.5320  -31.2790 N   0  0  0  0  0  0  0  0  0  0  0  0
   -4.4570   20.5680  -33.0130 C   0  0  0  0  0  0  0  0  0  0  0  0
   -4.7940   19.6170  -33.7870 N   0  0  0  0  0  0  0  0  0  0  0  0
   -5.9430   24.2400  -30.8000 C   0  0  0  0  0  0  0  0  0  0  0  0
   -4.9140   24.9330  -29.9050 C   0  0  0  0  0  0  0  0  0  0  0  0
   -3.8700   25.3620  -30.7280 O   0  0  0  0  0  0  0  0  0  0  0  0
   -5.0630   21.7570  -32.9300 N   0  0  0  0  0  0  0  0  0  0  0  0
   -6.5252   16.6926  -33.6773 H   0  0  0  0  0  0  0  0  0  0  0  0
   -6.6794   18.0382  -34.8573 H   0  0  0  0  0  0  0  0  0  0  0  0
   -5.2080   17.0078  -34.8573 H   0  0  0  0  0  0  0  0  0  0  0  0
   -4.4261   17.8168  -33.0282 H   0  0  0  0  0  0  0  0  0  0  0  0
   -6.2794   17.5315  -31.5555 H   0  0  0  0  0  0  0  0  0  0  0  0
   -5.2904   19.0306  -31.2411 H   0  0  0  0  0  0  0  0  0  0  0  0
   -8.4306   18.0604  -33.1646 H   0  0  0  0  0  0  0  0  0  0  0  0
  -10.3959   19.5619  -33.1378 H   0  0  0  0  0  0  0  0  0  0  0  0
  -10.3610   21.7223  -31.9419 H   0  0  0  0  0  0  0  0  0  0  0  0
   -8.2782   22.3880  -30.7369 H   0  0  0  0  0  0  0  0  0  0  0  0
   -6.3373   20.9173  -30.7610 H   0  0  0  0  0  0  0  0  0  0  0  0
   -3.2860   23.2650  -30.6300 H   0  0  0  0  0  0  0  0  0  0  0  0
   -6.7740   24.9261  -31.0208 H   0  0  0  0  0  0  0  0  0  0  0  0
   -6.3601   23.3521  -30.3022 H   0  0  0  0  0  0  0  0  0  0  0  0
   -5.3741   25.7952  -29.4002 H   0  0  0  0  0  0  0  0  0  0  0  0
   -4.5428   24.2438  -29.1322 H   0  0  0  0  0  0  0  0  0  0  0  0
   -4.1610   25.6470  -31.6170 H   0  0  0  0  0  0  0  0  0  0  0  0
   -5.8770   21.9190  -33.5500 H   0  0  0  0  0  0  0  0  0  0  0  0
  1  2  1  0
  2  3  1  0
  3  4  1  0
  4  5  2  0
  5  6  1  0
  6  7  2  0
  7  8  1  0
  8  9  2  0
  2 10  1  0
 10 11  2  0
 11 12  1  0
 12 13  2  0
 13 14  1  0
 13 15  1  0
 15 16  1  0
 16 17  2  0
 17 18  1  0
 18 19  1  0
 19 20  1  0
 16 21  1  0
  9  4  1  0
 21 11  1  0
  1 22  1  0
  1 23  1  0
  1 24  1  0
  2 25  1  1
  3 26  1  0
  3 27  1  0
  5 28  1  0
  6 29  1  0
  7 30  1  0
  8 31  1  0
  9 32  1  0
 15 33  1  0
 18 34  1  0
 18 35  1  0
 19 36  1  0
 19 37  1  0
 20 38  1  0
 21 39  1  0
M  END
>  <smiles>  (29) 
CC(Cc1ccccc1)N=c1nc(Cl)[nH]c(=NCCO)[nH]1

>  <score_type>  (29) 
oracle

>  <origin>  (29) 
adg

>  <m_score__min__energy>  (29) 
-8.0999999999999996

>  <m_primary>  (29) 
energy

$$$$
29:0
     RDKit          3D

 20 20  0  0  0  0  0  0  0  0999 V2000
   -4.1910   25.5400  -30.5690 N   0  0  0  0  0  0  0  0  0  0  0  0
   -5.6240   25.3590  -30.3440 C   0  0  0  0  0  0  0  0  0  0  0  0
   -6.2290   24.3870  -31.3620 C   0  0  0  0  0  0  0  0  0  0  0  0
   -5.0620   23.0320  -31.7420 S   0  0  0  0  0  0  0  0  0  0  0  0
   -6.3350   21.7930  -31.9870 C   0  0  0  0  0  0  0  0  0  0  0  0
   -7.3640   21.6990  -31.1020 N   0  0  0  0  0  0  0  0  0  0  0  0
   -8.3430   20.7730  -31.2660 C   0  0  0  0  0  0  0  0  0  0  0  0
   -8.3040   19.9050  -32.3560 C   0  0  0  0  0  0  0  0  0  0  0  0
   -7.2460   20.0190  -33.2570 C   0  0  0  0  0  0  0  0  0  0  0  0
   -6.2830   20.9580  -33.0610 N   0  0  0  0  0  0  0  0  0  0  0  0
   -3.8810   26.4150  -30.0850 H   0  0  0  0  0  0  0  0  0  0  0  0
   -4.0250   25.6670  -31.5940 H   0  0  0  0  0  0  0  0  0  0  0  0
   -5.7800   24.9598  -29.3309 H   0  0  0  0  0  0  0  0  0  0  0  0
   -6.1193   26.3345  -30.4586 H   0  0  0  0  0  0  0  0  0  0  0  0
   -7.1539   23.9601  -30.9470 H   0  0  0  0  0  0  0  0  0  0  0  0
   -6.4431   24.9376  -32.2899 H   0  0  0  0  0  0  0  0  0  0  0  0
   -9.1663   20.7077  -30.5394 H   0  0  0  0  0  0  0  0  0  0  0  0
   -9.0890   19.1483  -32.5018 H   0  0  0  0  0  0  0  0  0  0  0  0
   -7.1906   19.3484  -34.1272 H   0  0  0  0  0  0  0  0  0  0  0  0
   -5.4950   21.0340  -33.7430 H   0  0  0  0  0  0  0  0  0  0  0  0
  1  2  1  0
  2  3  1  0
  3  4  1  0
  4  5  1  0
  5  6  2  0
  6  7  1  0
  7  8  2  0
  8  9  1  0
  9 10  2  0
 10  5  1  0
  1 11  1  0
  1 12  1  0
  2 13  1  0
  2 14  1  0
  3 15  1  0
  3 16  1  0
  7 17  1  0
  8 18  1  0
  9 19  1  0
 10 20  1  0
M  CHG  1  10   1
M  END
>  <UniqueID>  (30) 
29

>  <SMILES>  (30) 
NCCSc1nccc[nH+]1

>  <Energy>  (30) 
12.068003604707457

>  <Genealogy>  (30) 
NCCSc1nccc[nH+]1 (protonated)
NCCSc1nccc[nH+]1 (3D coordinates assigned)
NCCSc1nccc[nH+]1 (optimized conformer: 12.068003604707457 kcal/mol)

>  <smiles>  (30) 
NCCSc1ncccn1

>  <score_type>  (30) 
oracle

>  <origin>  (30) 
adg

>  <m_score__min__energy>  (30) 
-5.1699999999999999

>  <m_primary>  (30) 
energy

$$$$
30:0
     RDKit          3D

 30 31  0  0  0  0  0  0  0  0999 V2000
   -5.7360   25.8910  -30.1080 C   0  0  0  0  0  0  0  0  0  0  0  0
   -6.0760   24.5520  -30.6760 C   0  0  0  0  0  0  0  0  0  0  0  0
   -7.1780   23.8920  -30.2450 N   0  0  0  0  0  0  0  0  0  0  0  0
   -7.4920   22.6590  -30.7190 C   0  0  0  0  0  0  0  0  0  0  0  0
   -6.6690   22.0250  -31.6760 C   0  0  0  0  0  0  0  0  0  0  0  0
   -6.9840   20.6990  -32.2060 N   0  0  0  0  0  0  0  0  0  0  0  0
   -8.1630   19.9810  -31.6740 C   0  0  0  0  0  0  0  0  0  0  0  0
   -8.4650   18.6390  -32.3540 C   0  0  0  0  0  0  0  0  0  0  0  0
   -7.2560   17.9090  -32.7490 N   0  0  0  0  0  0  0  0  0  0  0  0
   -6.4550   17.4580  -31.5970 C   0  0  0  0  0  0  0  0  0  0  0  0
   -6.4840   18.7090  -33.7050 C   0  0  0  0  0  0  0  0  0  0  0  0
   -6.0250   20.0570  -33.1320 C   0  0  0  0  0  0  0  0  0  0  0  0
   -5.5190   22.7360  -32.0830 C   0  0  0  0  0  0  0  0  0  0  0  0
   -5.2500   23.9660  -31.5780 N   0  0  0  0  0  0  0  0  0  0  0  0
   -5.7496   25.8375  -29.0094 H   0  0  0  0  0  0  0  0  0  0  0  0
   -4.7335   26.1898  -30.4482 H   0  0  0  0  0  0  0  0  0  0  0  0
   -6.4745   26.6319  -30.4482 H   0  0  0  0  0  0  0  0  0  0  0  0
   -8.3958   22.1490  -30.3543 H   0  0  0  0  0  0  0  0  0  0  0  0
   -7.9928   19.7909  -30.6040 H   0  0  0  0  0  0  0  0  0  0  0  0
   -9.0312   20.6275  -31.8695 H   0  0  0  0  0  0  0  0  0  0  0  0
   -9.0388   18.0134  -31.6544 H   0  0  0  0  0  0  0  0  0  0  0  0
   -9.0312   18.8565  -33.2717 H   0  0  0  0  0  0  0  0  0  0  0  0
   -6.9621   17.7435  -30.6635 H   0  0  0  0  0  0  0  0  0  0  0  0
   -6.3432   16.3643  -31.6338 H   0  0  0  0  0  0  0  0  0  0  0  0
   -5.4619   17.9296  -31.6338 H   0  0  0  0  0  0  0  0  0  0  0  0
   -5.5946   18.1348  -34.0038 H   0  0  0  0  0  0  0  0  0  0  0  0
   -7.1427   18.9237  -34.5594 H   0  0  0  0  0  0  0  0  0  0  0  0
   -5.0823   19.8943  -32.5890 H   0  0  0  0  0  0  0  0  0  0  0  0
   -5.9214   20.7378  -33.9898 H   0  0  0  0  0  0  0  0  0  0  0  0
   -4.8338   22.2877  -32.8175 H   0  0  0  0  0  0  0  0  0  0  0  0
  1  2  1  0
  2  3  2  0
  3  4  1  0
  4  5  2  0
  5  6  1  0
  6  7  1  0
  7  8  1  0
  8  9  1  0
  9 10  1  0
  9 11  1  0
 11 12  1  0
  5 13  1  0
 13 14  2  0
 14  2  1  0
 12  6  1  0
  1 15  1  0
  1 16  1  0
  1 17  1  0
  4 18  1  0
  7 19  1  0
  7 20  1  0
  8 21  1  0
  8 22  1  0
 10 23  1  0
 10 24  1  0
 10 25  1  0
 11 26  1  0
 11 27  1  0
 12 28  1  0
 12 29  1  0
 13 30  1  0
M  END
>  <UniqueID>  (31) 
30

>  <SMILES>  (31) 
Cc1ncc(N2CCN(C)CC2)cn1

>  <Energy>  (31) 
39.04542597750787

>  <Genealogy>  (31) 
Cc1ncc(N2CCN(C)CC2)cn1 (3D coordinates assigned)
Cc1ncc(N2CCN(C)CC2)cn1 (nonaromatic ring conformer: 39.04542597750787 kcal/mol)

>  <smiles>  (31) 
Cc1ncc(N2CCN(C)CC2)cn1

>  <score_type>  (31) 
oracle

>  <origin>  (31) 
adg

>  <m_score__min__energy>  (31) 
-5.8499999999999996

>  <m_primary>  (31) 
energy

$$$$
31:0
     RDKit          3D

 52 54  0  0  0  0  0  0  0  0999 V2000
   -9.4540   22.6560  -31.9680 C   0  0  0  0  0  0  0  0  0  0  0  0
   -7.9990   22.8330  -31.6470 C   0  0  0  0  0  0  0  0  0  0  0  0
   -7.1170   23.3060  -32.6270 C   0  0  0  0  0  0  0  0  0  0  0  0
   -5.7670   23.5080  -32.3260 C   0  0  0  0  0  0  0  0  0  0  0  0
   -5.2760   23.2450  -31.0320 C   0  0  0  0  0  0  0  0  0  0  0  0
   -3.8480   23.4590  -30.6870 C   0  0  0  0  0  0  0  0  0  0  0  0
   -3.4450   24.6340  -30.4630 O   0  0  0  0  0  0  0  0  0  0  0  0
   -2.8530   22.3160  -30.6490 C   0  0  1  0  0  0  0  0  0  0  0  0
   -3.5670   20.9680  -30.3880 C   0  0  0  0  0  0  0  0  0  0  0  0
   -3.7570   20.1760  -31.6870 C   0  0  0  0  0  0  0  0  0  0  0  0
   -2.4560   19.8330  -32.3320 N   0  0  1  0  0  0  0  0  0  0  0  0
   -2.6410   19.5460  -33.7760 C   0  0  0  0  0  0  0  0  0  0  0  0
   -3.0060   18.1090  -34.0200 C   0  0  0  0  0  0  0  0  0  0  0  0
   -2.1180   17.2180  -33.9480 O   0  0  0  0  0  0  0  0  0  0  0  0
   -4.3700   17.7650  -34.2900 N   0  0  0  0  0  0  0  0  0  0  0  0
   -5.5310   18.3120  -33.6450 C   0  0  0  0  0  0  0  0  0  0  0  0
   -6.1150   19.5140  -34.0870 C   0  0  0  0  0  0  0  0  0  0  0  0
   -7.2330   20.0390  -33.4360 C   0  0  0  0  0  0  0  0  0  0  0  0
   -7.7740   19.3800  -32.3320 C   0  0  0  0  0  0  0  0  0  0  0  0
   -7.1900   18.2000  -31.8660 C   0  0  0  0  0  0  0  0  0  0  0  0
   -6.0590   17.6650  -32.5070 C   0  0  0  0  0  0  0  0  0  0  0  0
   -5.4430   16.3920  -31.9970 C   0  0  0  0  0  0  0  0  0  0  0  0
   -1.4020   20.8720  -32.1360 C   0  0  0  0  0  0  0  0  0  0  0  0
   -1.9890   22.2760  -31.9320 C   0  0  0  0  0  0  0  0  0  0  0  0
   -6.1740   22.8000  -30.0450 C   0  0  0  0  0  0  0  0  0  0  0  0
   -7.5240   22.5980  -30.3500 C   0  0  0  0  0  0  0  0  0  0  0  0
  -10.0298   22.5860  -31.0334 H   0  0  0  0  0  0  0  0  0  0  0  0
   -9.8079   23.5177  -32.5530 H   0  0  0  0  0  0  0  0  0  0  0  0
   -9.5910   21.7346  -32.5530 H   0  0  0  0  0  0  0  0  0  0  0  0
   -7.4891   23.5198  -33.6398 H   0  0  0  0  0  0  0  0  0  0  0  0
   -5.0829   23.8750  -33.1053 H   0  0  0  0  0  0  0  0  0  0  0  0
   -2.1665   22.4913  -29.8076 H   0  0  0  0  0  0  0  0  0  0  0  0
   -4.5528   21.1655  -29.9416 H   0  0  0  0  0  0  0  0  0  0  0  0
   -2.9428   20.3714  -29.7065 H   0  0  0  0  0  0  0  0  0  0  0  0
   -4.3512   20.7812  -32.3874 H   0  0  0  0  0  0  0  0  0  0  0  0
   -4.2693   19.2351  -31.4376 H   0  0  0  0  0  0  0  0  0  0  0  0
   -2.1010   18.9560  -31.8810 H   0  0  0  0  0  0  0  0  0  0  0  0
   -3.4445   20.1881  -34.1660 H   0  0  0  0  0  0  0  0  0  0  0  0
   -1.6885   19.7472  -34.2881 H   0  0  0  0  0  0  0  0  0  0  0  0
   -5.6876   20.0434  -34.9513 H   0  0  0  0  0  0  0  0  0  0  0  0
   -7.6881   20.9741  -33.7944 H   0  0  0  0  0  0  0  0  0  0  0  0
   -8.6615   19.7901  -31.8279 H   0  0  0  0  0  0  0  0  0  0  0  0
   -7.6175   17.6863  -30.9923 H   0  0  0  0  0  0  0  0  0  0  0  0
   -5.4460   16.3982  -30.8970 H   0  0  0  0  0  0  0  0  0  0  0  0
   -6.0246   15.5320  -32.3604 H   0  0  0  0  0  0  0  0  0  0  0  0
   -4.4077   16.3144  -32.3604 H   0  0  0  0  0  0  0  0  0  0  0  0
   -0.7525   20.8871  -33.0237 H   0  0  0  0  0  0  0  0  0  0  0  0
   -0.8402   20.6100  -31.2273 H   0  0  0  0  0  0  0  0  0  0  0  0
   -2.6140   22.5374  -32.7986 H   0  0  0  0  0  0  0  0  0  0  0  0
   -1.1645   22.9971  -31.8306 H   0  0  0  0  0  0  0  0  0  0  0  0
   -5.8113   22.6092  -29.0242 H   0  0  0  0  0  0  0  0  0  0  0  0
   -8.2162   22.2530  -29.5678 H   0  0  0  0  0  0  0  0  0  0  0  0
  1  2  1  0
  2  3  2  0
  3  4  1  0
  4  5  2  0
  5  6  1  0
  6  7  2  0
  6  8  1  0
  8  9  1  0
  9 10  1  0
 10 11  1  0
 11 12  1  0
 12 13  1  0
 13 14  2  0
 13 15  1  0
 15 16  1  0
 16 17  2  0
 17 18  1  0
 18 19  2  0
 19 20  1  0
 20 21  2  0
 21 22  1  0
 11 23  1  0
 23 24  1  0
  5 25  1  0
 25 26  2  0
 26  2  1  0
 24  8  1  0
 21 16  1  0
  1 27  1  0
  1 28  1  0
  1 29  1  0
  3 30  1  0
  4 31  1  0
  8 32  1  1
  9 33  1  0
  9 34  1  0
 10 35  1  0
 10 36  1  0
 11 37  1  1
 12 38  1  0
 12 39  1  0
 17 40  1  0
 18 41  1  0
 19 42  1  0
 20 43  1  0
 22 44  1  0
 22 45  1  0
 22 46  1  0
 23 47  1  0
 23 48  1  0
 24 49  1  0
 24 50  1  0
 25 51  1  0
 26 52  1  0
M  CHG  2  11   1  15  -1
M  END
>  <UniqueID>  (32) 
31

>  <SMILES>  (32) 
Cc1ccc(C(=O)C2CC[NH+](CC(=O)[N-]c3ccccc3C)CC2)cc1

>  <Energy>  (32) 
67.3301492716393

>  <Genealogy>  (32) 
Cc1ccc(C(=O)C2CC[NH+](CC(=O)[N-]c3ccccc3C)CC2)cc1 (protonated)
Cc1ccc(C(=O)C2CC[NH+](CC(=O)[N-]c3ccccc3C)CC2)cc1 (3D coordinates assigned)
Cc1ccc(C(=O)C2CC[NH+](CC(=O)[N-]c3ccccc3C)CC2)cc1 (nonaromatic ring conformer: 67.3301492716393 kcal/mol)

>  <smiles>  (32) 
Cc1ccc(C(=O)C2CCN(CC(=O)Nc3ccccc3C)CC2)cc1

>  <score_type>  (32) 
oracle

>  <origin>  (32) 
adg

>  <m_score__min__energy>  (32) 
-10.470000000000001

>  <m_primary>  (32) 
energy

$$$$
32:0
     RDKit          3D

 47 49  0  0  0  0  0  0  0  0999 V2000
   -0.3350   23.5320  -25.7620 C   0  0  0  0  0  0  0  0  0  0  0  0
   -1.1750   23.8600  -26.9600 C   0  0  0  0  0  0  0  0  0  0  0  0
   -2.5330   24.1740  -26.8060 C   0  0  0  0  0  0  0  0  0  0  0  0
   -3.3100   24.5170  -27.9170 C   0  0  0  0  0  0  0  0  0  0  0  0
   -2.7350   24.5470  -29.2000 C   0  0  0  0  0  0  0  0  0  0  0  0
   -3.4900   24.9210  -30.3610 N   0  0  0  0  0  0  0  0  0  0  0  0
   -4.9210   25.0160  -30.4440 C   0  0  0  0  0  0  0  0  0  0  0  0
   -5.4440   26.0910  -30.8480 O   0  0  0  0  0  0  0  0  0  0  0  0
   -5.7560   23.9480  -29.9160 N   0  0  1  0  0  0  0  0  0  0  0  0
   -7.1470   24.0040  -30.4320 C   0  0  0  0  0  0  0  0  0  0  0  0
   -7.2260   23.6700  -31.9340 C   0  0  0  0  0  0  0  0  0  0  0  0
   -6.5920   22.3040  -32.2570 C   0  0  2  0  0  0  0  0  0  0  0  0
   -7.5140   21.1350  -31.8280 C   0  0  0  0  0  0  0  0  0  0  0  0
   -7.1410   19.8380  -32.5020 C   0  0  0  0  0  0  0  0  0  0  0  0
   -7.5710   18.6100  -31.9710 C   0  0  0  0  0  0  0  0  0  0  0  0
   -7.2060   17.4100  -32.5890 C   0  0  0  0  0  0  0  0  0  0  0  0
   -6.4110   17.4260  -33.7380 C   0  0  0  0  0  0  0  0  0  0  0  0
   -5.9790   18.6440  -34.2720 C   0  0  0  0  0  0  0  0  0  0  0  0
   -6.3400   19.8460  -33.6560 C   0  0  0  0  0  0  0  0  0  0  0  0
   -5.1780   22.2210  -31.6420 C   0  0  0  0  0  0  0  0  0  0  0  0
   -5.1770   22.6040  -30.1500 C   0  0  0  0  0  0  0  0  0  0  0  0
   -1.3690   24.2750  -29.3450 C   0  0  0  0  0  0  0  0  0  0  0  0
   -0.5930   23.9310  -28.2340 C   0  0  0  0  0  0  0  0  0  0  0  0
   -0.9014   23.7532  -24.8454 H   0  0  0  0  0  0  0  0  0  0  0  0
   -0.0704   22.4645  -25.7809 H   0  0  0  0  0  0  0  0  0  0  0  0
    0.5830   24.1377  -25.7809 H   0  0  0  0  0  0  0  0  0  0  0  0
   -2.9897   24.1504  -25.8056 H   0  0  0  0  0  0  0  0  0  0  0  0
   -4.3740   24.7640  -27.7869 H   0  0  0  0  0  0  0  0  0  0  0  0
   -5.8020   24.0930  -28.8810 H   0  0  0  0  0  0  0  0  0  0  0  0
   -7.5428   25.0180  -30.2736 H   0  0  0  0  0  0  0  0  0  0  0  0
   -7.7388   23.2530  -29.8881 H   0  0  0  0  0  0  0  0  0  0  0  0
   -6.6952   24.4501  -32.4994 H   0  0  0  0  0  0  0  0  0  0  0  0
   -8.2883   23.6261  -32.2162 H   0  0  0  0  0  0  0  0  0  0  0  0
   -6.4799   22.2071  -33.3470 H   0  0  0  0  0  0  0  0  0  0  0  0
   -7.4356   21.0035  -30.7387 H   0  0  0  0  0  0  0  0  0  0  0  0
   -8.5417   21.3880  -32.1279 H   0  0  0  0  0  0  0  0  0  0  0  0
   -8.1966   18.5927  -31.0664 H   0  0  0  0  0  0  0  0  0  0  0  0
   -7.5454   16.4513  -32.1698 H   0  0  0  0  0  0  0  0  0  0  0  0
   -6.1251   16.4807  -34.2223 H   0  0  0  0  0  0  0  0  0  0  0  0
   -5.3546   18.6564  -35.1775 H   0  0  0  0  0  0  0  0  0  0  0  0
   -5.9953   20.8021  -34.0768 H   0  0  0  0  0  0  0  0  0  0  0  0
   -4.5128   22.9078  -32.1859 H   0  0  0  0  0  0  0  0  0  0  0  0
   -4.8298   21.1811  -31.7272 H   0  0  0  0  0  0  0  0  0  0  0  0
   -4.1400   22.5964  -29.7831 H   0  0  0  0  0  0  0  0  0  0  0  0
   -5.7973   21.8712  -29.6131 H   0  0  0  0  0  0  0  0  0  0  0  0
   -0.9033   24.3324  -30.3399 H   0  0  0  0  0  0  0  0  0  0  0  0
    0.4783   23.7152  -28.3597 H   0  0  0  0  0  0  0  0  0  0  0  0
  1  2  1  0
  2  3  2  0
  3  4  1  0
  4  5  2  0
  5  6  1  0
  6  7  1  0
  7  8  2  0
  7  9  1  0
  9 10  1  0
 10 11  1  0
 11 12  1  0
 12 13  1  0
 13 14  1  0
 14 15  2  0
 15 16  1  0
 16 17  2  0
 17 18  1  0
 18 19  2  0
 12 20  1  0
 20 21  1  0
  5 22  1  0
 22 23  2  0
 23  2  1  0
 21  9  1  0
 19 14  1  0
  1 24  1  0
  1 25  1  0
  1 26  1  0
  3 27  1  0
  4 28  1  0
  9 29  1  1
 10 30  1  0
 10 31  1  0
 11 32  1  0
 11 33  1  0
 12 34  1  6
 13 35  1  0
 13 36  1  0
 15 37  1  0
 16 38  1  0
 17 39  1  0
 18 40  1  0
 19 41  1  0
 20 42  1  0
 20 43  1  0
 21 44  1  0
 21 45  1  0
 22 46  1  0
 23 47  1  0
M  CHG  2   6  -1   9   1
M  END
>  <UniqueID>  (33) 
32

>  <SMILES>  (33) 
Cc1ccc([N-]C(=O)[NH+]2CCC(Cc3ccccc3)CC2)cc1

>  <Energy>  (33) 
53.734258742121845

>  <Genealogy>  (33) 
Cc1ccc([N-]C(=O)[NH+]2CCC(Cc3ccccc3)CC2)cc1 (protonated)
Cc1ccc([N-]C(=O)[NH+]2CCC(Cc3ccccc3)CC2)cc1 (3D coordinates assigned)
Cc1ccc([N-]C(=O)[NH+]2CCC(Cc3ccccc3)CC2)cc1 (nonaromatic ring conformer: 53.734258742121845 kcal/mol)

>  <smiles>  (33) 
Cc1ccc(NC(=O)N2CCC(Cc3ccccc3)CC2)cc1

>  <score_type>  (33) 
oracle

>  <origin>  (33) 
adg

>  <m_score__min__energy>  (33) 
-9.8900000000000006

>  <m_primary>  (33) 
energy

$$$$
33:0
     RDKit          3D

 47 50  0  0  0  0  0  0  0  0999 V2000
   -4.6080   25.6690  -30.8430 O   0  0  0  0  0  0  0  0  0  0  0  0
   -4.0550   24.7270  -30.2120 C   0  0  0  0  0  0  0  0  0  0  0  0
   -4.7490   23.3980  -30.0650 C   0  0  0  0  0  0  0  0  0  0  0  0
   -6.0170   23.1160  -31.3520 S   0  0  0  0  0  0  0  0  0  0  0  0
   -5.0200   21.9610  -32.3030 C   0  0  0  0  0  0  0  0  0  0  0  0
   -3.7860   22.2550  -32.7500 N   0  0  0  0  0  0  0  0  0  0  0  0
   -3.3700   21.2100  -33.4510 N   0  0  0  0  0  0  0  0  0  0  0  0
   -4.3580   20.2960  -33.4260 C   0  0  0  0  0  0  0  0  0  0  0  0
   -5.4080   20.7330  -32.7050 N   0  0  0  0  0  0  0  0  0  0  0  0
   -6.6510   20.0440  -32.4810 C   0  0  0  0  0  0  0  0  0  0  0  0
   -7.8610   20.7610  -32.4560 C   0  0  0  0  0  0  0  0  0  0  0  0
   -9.0720   20.0980  -32.2390 C   0  0  0  0  0  0  0  0  0  0  0  0
   -9.0900   18.7120  -32.0590 C   0  0  0  0  0  0  0  0  0  0  0  0
   -7.8970   17.9870  -32.1050 C   0  0  0  0  0  0  0  0  0  0  0  0
   -6.6820   18.6470  -32.3200 C   0  0  0  0  0  0  0  0  0  0  0  0
   -2.7320   24.9260  -29.7060 N   0  0  0  0  0  0  0  0  0  0  0  0
   -1.8900   23.8680  -29.2390 C   0  0  0  0  0  0  0  0  0  0  0  0
   -1.7010   22.7470  -30.0560 C   0  0  0  0  0  0  0  0  0  0  0  0
   -0.9120   21.6800  -29.6190 C   0  0  0  0  0  0  0  0  0  0  0  0
   -0.3000   21.7330  -28.3660 C   0  0  0  0  0  0  0  0  0  0  0  0
   -0.4680   22.8550  -27.5500 C   0  0  0  0  0  0  0  0  0  0  0  0
   -1.2580   23.9360  -27.9780 C   0  0  0  0  0  0  0  0  0  0  0  0
   -1.3810   25.1060  -27.1460 N   0  0  0  0  0  0  0  0  0  0  0  0
   -2.3820   25.2440  -26.1010 C   0  0  0  0  0  0  0  0  0  0  0  0
   -1.9230   26.4180  -25.2450 C   0  0  0  0  0  0  0  0  0  0  0  0
   -0.8990   27.1710  -26.0890 C   0  0  0  0  0  0  0  0  0  0  0  0
   -0.3870   26.1660  -27.1120 C   0  0  0  0  0  0  0  0  0  0  0  0
   -3.9961   22.5988  -30.1320 H   0  0  0  0  0  0  0  0  0  0  0  0
   -5.2594   23.3964  -29.0906 H   0  0  0  0  0  0  0  0  0  0  0  0
   -4.3134   19.3189  -33.9293 H   0  0  0  0  0  0  0  0  0  0  0  0
   -7.8540   21.8504  -32.6082 H   0  0  0  0  0  0  0  0  0  0  0  0
  -10.0125   20.6678  -32.2098 H   0  0  0  0  0  0  0  0  0  0  0  0
  -10.0432   18.1925  -31.8812 H   0  0  0  0  0  0  0  0  0  0  0  0
   -7.9126   16.8952  -31.9720 H   0  0  0  0  0  0  0  0  0  0  0  0
   -5.7463   18.0703  -32.3633 H   0  0  0  0  0  0  0  0  0  0  0  0
   -2.1762   22.7060  -31.0472 H   0  0  0  0  0  0  0  0  0  0  0  0
   -0.7733   20.7986  -30.2623 H   0  0  0  0  0  0  0  0  0  0  0  0
    0.3159   20.8899  -28.0199 H   0  0  0  0  0  0  0  0  0  0  0  0
    0.0215   22.8925  -26.5656 H   0  0  0  0  0  0  0  0  0  0  0  0
   -3.3690   25.4518  -26.5400 H   0  0  0  0  0  0  0  0  0  0  0  0
   -2.4807   24.3226  -25.5082 H   0  0  0  0  0  0  0  0  0  0  0  0
   -2.7742   27.0711  -25.0022 H   0  0  0  0  0  0  0  0  0  0  0  0
   -1.4921   26.0800  -24.2910 H   0  0  0  0  0  0  0  0  0  0  0  0
   -1.3729   28.0251  -26.5948 H   0  0  0  0  0  0  0  0  0  0  0  0
   -0.0821   27.5732  -25.4719 H   0  0  0  0  0  0  0  0  0  0  0  0
   -0.2941   26.6378  -28.1013 H   0  0  0  0  0  0  0  0  0  0  0  0
    0.6090   25.7831  -26.8449 H   0  0  0  0  0  0  0  0  0  0  0  0
  1  2  2  0
  2  3  1  0
  3  4  1  0
  4  5  1  0
  5  6  2  0
  6  7  1  0
  7  8  2  0
  8  9  1  0
  9 10  1  0
 10 11  2  0
 11 12  1  0
 12 13  2  0
 13 14  1  0
 14 15  2  0
  2 16  1  0
 16 17  1  0
 17 18  2  0
 18 19  1  0
 19 20  2  0
 20 21  1  0
 21 22  2  0
 22 23  1  0
 23 24  1  0
 24 25  1  0
 25 26  1  0
 26 27  1  0
  9  5  1  0
 15 10  1  0
 22 17  1  0
 27 23  1  0
  3 28  1  0
  3 29  1  0
  8 30  1  0
 11 31  1  0
 12 32  1  0
 13 33  1  0
 14 34  1  0
 15 35  1  0
 18 36  1  0
 19 37  1  0
 20 38  1  0
 21 39  1  0
 24 40  1  0
 24 41  1  0
 25 42  1  0
 25 43  1  0
 26 44  1  0
 26 45  1  0
 27 46  1  0
 27 47  1  0
M  CHG  1  16  -1
M  END
>  <UniqueID>  (34) 
33

>  <SMILES>  (34) 
O=C(CSc1nncn1-c1ccccc1)[N-]c1ccccc1N1CCCC1

>  <Energy>  (34) 
95.26483132004593

>  <Genealogy>  (34) 
O=C(CSc1nncn1-c1ccccc1)[N-]c1ccccc1N1CCCC1 (protonated)
O=C(CSc1nncn1-c1ccccc1)[N-]c1ccccc1N1CCCC1 (3D coordinates assigned)
O=C(CSc1nncn1-c1ccccc1)[N-]c1ccccc1N1CCCC1 (nonaromatic ring conformer: 95.26483132004593 kcal/mol)

>  <smiles>  (34) 
O=C(CSc1nncn1-c1ccccc1)Nc1ccccc1N1CCCC1

>  <score_type>  (34) 
oracle

>  <origin>  (34) 
adg

>  <m_score__min__energy>  (34) 
-11.1

>  <m_primary>  (34) 
energy

$$$$
34:0
     RDKit          3D

 45 47  0  0  0  0  0  0  0  0999 V2000
   -2.0770   24.1520  -28.8790 C   0  0  0  0  0  0  0  0  0  0  0  0
   -3.1980   23.4560  -28.2260 N   0  0  0  0  0  0  0  0  0  0  0  0
   -3.2340   22.0320  -28.6220 C   0  0  0  0  0  0  0  0  0  0  0  0
   -2.5820   21.8280  -29.9640 C   0  0  0  0  0  0  0  0  0  0  0  0
   -1.2550   21.3790  -30.0360 C   0  0  0  0  0  0  0  0  0  0  0  0
   -0.6650   21.1750  -31.2840 C   0  0  0  0  0  0  0  0  0  0  0  0
   -1.3980   21.4170  -32.4450 C   0  0  0  0  0  0  0  0  0  0  0  0
   -2.7180   21.8620  -32.3410 C   0  0  0  0  0  0  0  0  0  0  0  0
   -3.2800   22.0570  -31.1160 N   0  0  0  0  0  0  0  0  0  0  0  0
   -4.4850   24.1620  -28.4430 C   0  0  0  0  0  0  0  0  0  0  0  0
   -5.0550   23.9600  -29.8180 C   0  0  0  0  0  0  0  0  0  0  0  0
   -6.0940   23.1480  -30.0910 N   0  0  0  0  0  0  0  0  0  0  0  0
   -6.2070   23.3050  -31.4250 C   0  0  0  0  0  0  0  0  0  0  0  0
   -7.2080   22.5620  -32.2630 C   0  0  2  0  0  0  0  0  0  0  0  0
   -8.6300   23.0460  -31.9670 C   0  0  0  0  0  0  0  0  0  0  0  0
   -9.4880   21.7880  -31.8840 C   0  0  0  0  0  0  0  0  0  0  0  0
   -8.5250   20.6480  -31.5880 C   0  0  0  0  0  0  0  0  0  0  0  0
   -7.2050   21.1330  -31.9580 N   0  0  0  0  0  0  0  0  0  0  0  0
   -6.0810   20.2380  -32.0920 C   0  0  0  0  0  0  0  0  0  0  0  0
   -5.1070   20.3550  -31.2980 O   0  0  0  0  0  0  0  0  0  0  0  0
   -6.0100   19.1800  -33.1610 C   0  0  0  0  0  0  0  0  0  0  0  0
   -6.8020   18.1040  -32.8110 F   0  0  0  0  0  0  0  0  0  0  0  0
   -4.7070   18.7570  -33.3430 F   0  0  0  0  0  0  0  0  0  0  0  0
   -6.4700   19.6910  -34.3620 F   0  0  0  0  0  0  0  0  0  0  0  0
   -5.2820   24.1470  -31.9300 N   0  0  0  0  0  0  0  0  0  0  0  0
   -4.5920   24.5340  -30.9010 O   0  0  0  0  0  0  0  0  0  0  0  0
   -1.4070   24.5680  -28.1121 H   0  0  0  0  0  0  0  0  0  0  0  0
   -1.5195   23.4410  -29.5064 H   0  0  0  0  0  0  0  0  0  0  0  0
   -2.4670   24.9671  -29.5064 H   0  0  0  0  0  0  0  0  0  0  0  0
   -2.6995   21.4354  -27.8681 H   0  0  0  0  0  0  0  0  0  0  0  0
   -4.2848   21.7141  -28.6911 H   0  0  0  0  0  0  0  0  0  0  0  0
   -0.6837   21.1891  -29.1154 H   0  0  0  0  0  0  0  0  0  0  0  0
    0.3754   20.8243  -31.3516 H   0  0  0  0  0  0  0  0  0  0  0  0
   -0.9414   21.2591  -33.4332 H   0  0  0  0  0  0  0  0  0  0  0  0
   -3.3050   22.0554  -33.2509 H   0  0  0  0  0  0  0  0  0  0  0  0
   -4.2690   22.3910  -31.0710 H   0  0  0  0  0  0  0  0  0  0  0  0
   -5.2135   23.7922  -27.7064 H   0  0  0  0  0  0  0  0  0  0  0  0
   -4.2867   25.2381  -28.3299 H   0  0  0  0  0  0  0  0  0  0  0  0
   -6.9241   22.7443  -33.3100 H   0  0  0  0  0  0  0  0  0  0  0  0
   -8.6578   23.5923  -31.0127 H   0  0  0  0  0  0  0  0  0  0  0  0
   -8.9938   23.7337  -32.7446 H   0  0  0  0  0  0  0  0  0  0  0  0
  -10.2293   21.8825  -31.0768 H   0  0  0  0  0  0  0  0  0  0  0  0
  -10.0449   21.6156  -32.8168 H   0  0  0  0  0  0  0  0  0  0  0  0
   -8.5524   20.3923  -30.5185 H   0  0  0  0  0  0  0  0  0  0  0  0
   -8.7920   19.7392  -32.1472 H   0  0  0  0  0  0  0  0  0  0  0  0
  1  2  1  0
  2  3  1  0
  3  4  1  0
  4  5  2  0
  5  6  1  0
  6  7  2  0
  7  8  1  0
  8  9  2  0
  2 10  1  0
 10 11  1  0
 11 12  2  0
 12 13  1  0
 13 14  1  0
 14 15  1  0
 15 16  1  0
 16 17  1  0
 17 18  1  0
 18 19  1  0
 19 20  2  0
 19 21  1  0
 21 22  1  0
 21 23  1  0
 21 24  1  0
 13 25  2  0
 25 26  1  0
  9  4  1  0
 26 11  1  0
 18 14  1  0
  1 27  1  0
  1 28  1  0
  1 29  1  0
  3 30  1  0
  3 31  1  0
  5 32  1  0
  6 33  1  0
  7 34  1  0
  8 35  1  0
  9 36  1  0
 10 37  1  0
 10 38  1  0
 14 39  1  6
 15 40  1  0
 15 41  1  0
 16 42  1  0
 16 43  1  0
 17 44  1  0
 17 45  1  0
M  CHG  1   9   1
M  END
>  <UniqueID>  (35) 
34

>  <SMILES>  (35) 
CN(Cc1cccc[nH+]1)Cc1nc([C@@H]2CCCN2C(=O)C(F)(F)F)no1

>  <Energy>  (35) 
80.23075731841864

>  <Genealogy>  (35) 
CN(Cc1cccc[nH+]1)Cc1nc(C2CCCN2C(=O)C(F)(F)F)no1 (protonated)
CN(Cc1cccc[nH+]1)Cc1nc([C@@H]2CCCN2C(=O)C(F)(F)F)no1 (chirality)
CN(Cc1cccc[nH+]1)Cc1nc([C@@H]2CCCN2C(=O)C(F)(F)F)no1 (3D coordinates assigned)
CN(Cc1cccc[nH+]1)Cc1nc([C@@H]2CCCN2C(=O)C(F)(F)F)no1 (nonaromatic ring conformer: 80.23075731841864 kcal/mol)

>  <smiles>  (35) 
CN(Cc1ccccn1)Cc1nc(C2CCCN2C(=O)C(F)(F)F)no1

>  <score_type>  (35) 
oracle

>  <origin>  (35) 
adg

>  <m_score__min__energy>  (35) 
-6.9500000000000002

>  <m_primary>  (35) 
energy

$$$$
35:0
     RDKit          3D

 55 59  0  0  0  0  0  0  0  0999 V2000
   -5.7950   18.5470  -35.0050 C   0  0  0  0  0  0  0  0  0  0  0  0
   -5.8400   17.8640  -33.6730 C   0  0  0  0  0  0  0  0  0  0  0  0
   -5.4470   16.6230  -33.4910 O   0  0  0  0  0  0  0  0  0  0  0  0
   -5.6250   16.3000  -32.2300 C   0  0  0  0  0  0  0  0  0  0  0  0
   -6.1680   17.3690  -31.5450 C   0  0  0  0  0  0  0  0  0  0  0  0
   -6.3150   18.3790  -32.4770 C   0  0  0  0  0  0  0  0  0  0  0  0
   -6.7760   19.7570  -32.2110 C   0  0  0  0  0  0  0  0  0  0  0  0
   -7.9840   20.0310  -31.6810 N   0  0  0  0  0  0  0  0  0  0  0  0
   -8.0940   21.3490  -31.6200 N   0  0  0  0  0  0  0  0  0  0  0  0
   -6.9510   21.8610  -32.1140 C   0  0  0  0  0  0  0  0  0  0  0  0
   -6.6490   23.6270  -32.2540 S   0  0  0  0  0  0  0  0  0  0  0  0
   -5.6490   23.7330  -30.7290 C   0  0  0  0  0  0  0  0  0  0  0  0
   -4.9910   25.0700  -30.6310 C   0  0  0  0  0  0  0  0  0  0  0  0
   -5.6950   26.1140  -30.6510 O   0  0  0  0  0  0  0  0  0  0  0  0
   -3.5680   25.1460  -30.4730 N   0  0  0  0  0  0  0  0  0  0  0  0
   -2.8060   24.7200  -29.3310 C   0  0  0  0  0  0  0  0  0  0  0  0
   -3.4840   24.1180  -28.2600 C   0  0  0  0  0  0  0  0  0  0  0  0
   -2.7820   23.6750  -27.1330 C   0  0  0  0  0  0  0  0  0  0  0  0
   -1.3940   23.8260  -27.0740 C   0  0  0  0  0  0  0  0  0  0  0  0
   -0.7010   24.3790  -28.1610 C   0  0  0  0  0  0  0  0  0  0  0  0
   -1.4000   24.8290  -29.2850 C   0  0  0  0  0  0  0  0  0  0  0  0
    0.6950   24.4710  -28.1020 O   0  0  0  0  0  0  0  0  0  0  0  0
    1.4390   23.7880  -27.0880 C   0  0  0  0  0  0  0  0  0  0  0  0
    0.6830   23.8340  -25.7520 C   0  0  0  0  0  0  0  0  0  0  0  0
   -0.6770   23.4310  -25.9390 O   0  0  0  0  0  0  0  0  0  0  0  0
   -6.0910   20.8910  -32.4890 N   0  0  0  0  0  0  0  0  0  0  0  0
   -4.7240   21.0560  -33.0090 C   0  0  0  0  0  0  0  0  0  0  0  0
   -3.6470   20.6470  -31.9870 C   0  0  1  0  0  0  0  0  0  0  0  0
   -2.4190   21.5490  -32.0020 C   0  0  0  0  0  0  0  0  0  0  0  0
   -1.9540   21.4760  -30.5850 C   0  0  0  0  0  0  0  0  0  0  0  0
   -3.2340   21.2090  -29.8200 C   0  0  0  0  0  0  0  0  0  0  0  0
   -4.1770   20.6150  -30.6800 O   0  0  0  0  0  0  0  0  0  0  0  0
   -5.7233   19.6347  -34.8571 H   0  0  0  0  0  0  0  0  0  0  0  0
   -4.9181   18.1950  -35.5681 H   0  0  0  0  0  0  0  0  0  0  0  0
   -6.7105   18.3131  -35.5681 H   0  0  0  0  0  0  0  0  0  0  0  0
   -5.3784   15.3241  -31.7863 H   0  0  0  0  0  0  0  0  0  0  0  0
   -6.4297   17.4086  -30.4773 H   0  0  0  0  0  0  0  0  0  0  0  0
   -6.3020   23.5854  -29.8562 H   0  0  0  0  0  0  0  0  0  0  0  0
   -4.8729   22.9540  -30.7559 H   0  0  0  0  0  0  0  0  0  0  0  0
   -4.5759   23.9932  -28.3065 H   0  0  0  0  0  0  0  0  0  0  0  0
   -3.3218   23.2090  -26.2955 H   0  0  0  0  0  0  0  0  0  0  0  0
   -0.8541   25.2679  -30.1332 H   0  0  0  0  0  0  0  0  0  0  0  0
    1.5833   22.7395  -27.3876 H   0  0  0  0  0  0  0  0  0  0  0  0
    2.4142   24.2818  -26.9651 H   0  0  0  0  0  0  0  0  0  0  0  0
    1.1683   23.1539  -25.0365 H   0  0  0  0  0  0  0  0  0  0  0  0
    0.7020   24.8633  -25.3644 H   0  0  0  0  0  0  0  0  0  0  0  0
   -4.6115   20.4320  -33.9078 H   0  0  0  0  0  0  0  0  0  0  0  0
   -4.5804   22.1230  -33.2346 H   0  0  0  0  0  0  0  0  0  0  0  0
   -3.3227   19.6411  -32.2918 H   0  0  0  0  0  0  0  0  0  0  0  0
   -1.6528   21.1675  -32.6930 H   0  0  0  0  0  0  0  0  0  0  0  0
   -2.6285   22.5730  -32.3449 H   0  0  0  0  0  0  0  0  0  0  0  0
   -1.2328   20.6569  -30.4472 H   0  0  0  0  0  0  0  0  0  0  0  0
   -1.4318   22.3853  -30.2526 H   0  0  0  0  0  0  0  0  0  0  0  0
   -3.0248   20.5304  -28.9799 H   0  0  0  0  0  0  0  0  0  0  0  0
   -3.6355   22.1571  -29.4329 H   0  0  0  0  0  0  0  0  0  0  0  0
  1  2  1  0
  2  3  1  0
  3  4  1  0
  4  5  2  0
  5  6  1  0
  6  7  1  0
  7  8  2  0
  8  9  1  0
  9 10  2  0
 10 11  1  0
 11 12  1  0
 12 13  1  0
 13 14  2  0
 13 15  1  0
 15 16  1  0
 16 17  2  0
 17 18  1  0
 18 19  2  0
 19 20  1  0
 20 21  2  0
 20 22  1  0
 22 23  1  0
 23 24  1  0
 24 25  1  0
 10 26  1  0
 26 27  1  0
 27 28  1  0
 28 29  1  0
 29 30  1  0
 30 31  1  0
 31 32  1  0
  6  2  2  0
 26  7  1  0
 32 28  1  0
 21 16  1  0
 25 19  1  0
  1 33  1  0
  1 34  1  0
  1 35  1  0
  4 36  1  0
  5 37  1  0
 12 38  1  0
 12 39  1  0
 17 40  1  0
 18 41  1  0
 21 42  1  0
 23 43  1  0
 23 44  1  0
 24 45  1  0
 24 46  1  0
 27 47  1  0
 27 48  1  0
 28 49  1  6
 29 50  1  0
 29 51  1  0
 30 52  1  0
 30 53  1  0
 31 54  1  0
 31 55  1  0
M  CHG  1  15  -1
M  END
>  <UniqueID>  (36) 
35

>  <SMILES>  (36) 
Cc1occc1-c1nnc(SCC(=O)[N-]c2ccc3c(c2)OCCO3)n1C[C@H]1CCCO1

>  <Energy>  (36) 
120.94071714247536

>  <Genealogy>  (36) 
Cc1occc1-c1nnc(SCC(=O)[N-]c2ccc3c(c2)OCCO3)n1CC1CCCO1 (protonated)
Cc1occc1-c1nnc(SCC(=O)[N-]c2ccc3c(c2)OCCO3)n1C[C@H]1CCCO1 (chirality)
Cc1occc1-c1nnc(SCC(=O)[N-]c2ccc3c(c2)OCCO3)n1C[C@H]1CCCO1 (3D coordinates assigned)
Cc1occc1-c1nnc(SCC(=O)[N-]c2ccc3c(c2)OCCO3)n1C[C@H]1CCCO1 (nonaromatic ring conformer: 120.94071714247536 kcal/mol)

>  <smiles>  (36) 
Cc1occc1-c1nnc(SCC(=O)Nc2ccc3c(c2)OCCO3)n1CC1CCCO1

>  <score_type>  (36) 
oracle

>  <origin>  (36) 
adg

>  <m_score__min__energy>  (36) 
-11.18

>  <m_primary>  (36) 
energy

$$$$
36:0
     RDKit          3D

 21 22  0  0  0  0  0  0  0  0999 V2000
   -6.5040   25.6060  -29.3410 C   0  0  0  0  0  0  0  0  0  0  0  0
   -5.3700   25.6760  -30.7620 S   0  0  0  0  0  0  0  0  0  0  0  0
   -5.8430   24.0540  -31.3600 C   0  0  0  0  0  0  0  0  0  0  0  0
   -7.1330   23.6340  -31.2470 N   0  0  0  0  0  0  0  0  0  0  0  0
   -7.4950   22.4050  -31.7030 C   0  0  0  0  0  0  0  0  0  0  0  0
   -8.8220   21.9610  -31.5940 C   0  0  0  0  0  0  0  0  0  0  0  0
   -9.1800   20.6950  -32.0680 C   0  0  0  0  0  0  0  0  0  0  0  0
   -8.2180   19.8660  -32.6520 C   0  0  0  0  0  0  0  0  0  0  0  0
   -6.8940   20.2960  -32.7660 C   0  0  0  0  0  0  0  0  0  0  0  0
   -6.5250   21.5680  -32.2920 C   0  0  0  0  0  0  0  0  0  0  0  0
   -5.2130   22.0590  -32.3770 C   0  0  0  0  0  0  0  0  0  0  0  0
   -4.2960   21.3640  -32.8920 O   0  0  0  0  0  0  0  0  0  0  0  0
   -4.9260   23.2700  -31.9130 O   0  0  0  0  0  0  0  0  0  0  0  0
   -5.9241   25.6418  -28.4070 H   0  0  0  0  0  0  0  0  0  0  0  0
   -7.1921   26.4634  -29.3784 H   0  0  0  0  0  0  0  0  0  0  0  0
   -7.0814   24.6705  -29.3784 H   0  0  0  0  0  0  0  0  0  0  0  0
   -7.8420   24.2660  -30.8080 H   0  0  0  0  0  0  0  0  0  0  0  0
   -9.5820   22.6102  -31.1348 H   0  0  0  0  0  0  0  0  0  0  0  0
  -10.2211   20.3508  -31.9811 H   0  0  0  0  0  0  0  0  0  0  0  0
   -8.5048   18.8711  -33.0233 H   0  0  0  0  0  0  0  0  0  0  0  0
   -6.1402   19.6403  -33.2262 H   0  0  0  0  0  0  0  0  0  0  0  0
  1  2  1  0
  2  3  1  0
  3  4  2  0
  4  5  1  0
  5  6  2  0
  6  7  1  0
  7  8  2  0
  8  9  1  0
  9 10  2  0
 10 11  1  0
 11 12  2  0
 11 13  1  0
 13  3  1  0
 10  5  1  0
  1 14  1  0
  1 15  1  0
  1 16  1  0
  4 17  1  0
  6 18  1  0
  7 19  1  0
  8 20  1  0
  9 21  1  0
M  CHG  1   4   1
M  END
>  <UniqueID>  (37) 
36

>  <SMILES>  (37) 
CSc1[nH+]c2ccccc2c(=O)o1

>  <Energy>  (37) 
22.352621214843598

>  <Genealogy>  (37) 
CSc1[nH+]c2ccccc2c(=O)o1 (protonated)
CSc1[nH+]c2ccccc2c(=O)o1 (3D coordinates assigned)
CSc1[nH+]c2ccccc2c(=O)o1 (optimized conformer: 22.352621214843598 kcal/mol)

>  <smiles>  (37) 
CSc1nc2ccccc2c(=O)o1

>  <score_type>  (37) 
oracle

>  <origin>  (37) 
adg

>  <m_score__min__energy>  (37) 
-5.2000000000000002

>  <m_primary>  (37) 
energy

$$$$
37:0
     RDKit          3D

 56 58  0  0  0  0  0  0  0  0999 V2000
   -8.5585   21.8955  -30.1946 H   0  0  0  0  0  0  0  0  0  0  0  0
   -7.6260   22.3950  -30.4960 C   0  0  0  0  0  0  0  0  0  0  0  0
   -6.7444   22.3567  -29.8392 H   0  0  0  0  0  0  0  0  0  0  0  0
   -7.5640   23.0490  -31.6610 C   0  0  0  0  0  0  0  0  0  0  0  0
   -8.4540   23.0783  -32.3068 H   0  0  0  0  0  0  0  0  0  0  0  0
   -6.3100   23.7450  -32.1110 C   0  0  0  0  0  0  0  0  0  0  0  0
   -6.4317   24.0693  -33.1551 H   0  0  0  0  0  0  0  0  0  0  0  0
   -6.1344   24.6140  -31.4598 H   0  0  0  0  0  0  0  0  0  0  0  0
   -5.1220   22.8180  -32.0150 C   0  0  0  0  0  0  0  0  0  0  0  0
   -5.1220   21.6290  -32.7620 C   0  0  0  0  0  0  0  0  0  0  0  0
   -5.9874   21.3862  -33.3962 H   0  0  0  0  0  0  0  0  0  0  0  0
   -4.0340   20.7480  -32.7100 C   0  0  0  0  0  0  0  0  0  0  0  0
   -4.0720   19.5080  -33.5190 C   0  0  0  0  0  0  0  0  0  0  0  0
   -3.2462   19.3436  -34.2268 H   0  0  0  0  0  0  0  0  0  0  0  0
   -5.0290   18.5670  -33.4620 C   0  0  0  0  0  0  0  0  0  0  0  0
   -4.7838   17.5737  -33.8660 H   0  0  0  0  0  0  0  0  0  0  0  0
   -6.3860   18.7550  -32.9010 C   0  0  0  0  0  0  0  0  0  0  0  0
   -7.2260   19.7320  -33.4590 C   0  0  0  0  0  0  0  0  0  0  0  0
   -6.8748   20.3344  -34.3098 H   0  0  0  0  0  0  0  0  0  0  0  0
   -8.5060   19.9430  -32.9390 C   0  0  0  0  0  0  0  0  0  0  0  0
   -9.1636   20.7010  -33.3895 H   0  0  0  0  0  0  0  0  0  0  0  0
   -8.9520   19.1920  -31.8470 C   0  0  0  0  0  0  0  0  0  0  0  0
   -9.9635   19.3524  -31.4455 H   0  0  0  0  0  0  0  0  0  0  0  0
   -8.1130   18.2380  -31.2660 C   0  0  0  0  0  0  0  0  0  0  0  0
   -8.4618   17.6523  -30.4027 H   0  0  0  0  0  0  0  0  0  0  0  0
   -6.8300   18.0270  -31.7810 C   0  0  0  0  0  0  0  0  0  0  0  0
   -6.1649   17.2890  -31.3088 H   0  0  0  0  0  0  0  0  0  0  0  0
   -2.9050   21.1010  -31.9560 C   0  0  0  0  0  0  0  0  0  0  0  0
   -2.0221   20.4448  -31.9547 H   0  0  0  0  0  0  0  0  0  0  0  0
   -2.8940   22.2780  -31.2080 C   0  0  0  0  0  0  0  0  0  0  0  0
   -2.0096   22.5322  -30.6052 H   0  0  0  0  0  0  0  0  0  0  0  0
   -4.0040   23.1440  -31.2170 C   0  0  0  0  0  0  0  0  0  0  0  0
   -4.0330   24.3280  -30.4560 O   0  0  0  0  0  0  0  0  0  0  0  0
   -4.9250   24.6010  -29.3760 C   0  0  0  0  0  0  0  0  0  0  0  0
   -5.2165   25.6610  -29.4135 H   0  0  0  0  0  0  0  0  0  0  0  0
   -5.8030   23.9470  -29.4825 H   0  0  0  0  0  0  0  0  0  0  0  0
   -4.2730   24.3110  -28.0130 C   0  0  0  0  0  0  0  0  0  0  0  0
   -3.3831   24.9493  -27.9093 H   0  0  0  0  0  0  0  0  0  0  0  0
   -5.0276   24.5211  -27.2407 H   0  0  0  0  0  0  0  0  0  0  0  0
   -3.8430   22.8420  -27.8410 C   0  0  0  0  0  0  0  0  0  0  0  0
   -4.2198   22.4833  -26.8718 H   0  0  0  0  0  0  0  0  0  0  0  0
   -4.2633   22.2874  -28.6929 H   0  0  0  0  0  0  0  0  0  0  0  0
   -2.3210   22.6230  -27.8780 C   0  0  0  0  0  0  0  0  0  0  0  0
   -1.9470   22.9225  -28.8682 H   0  0  0  0  0  0  0  0  0  0  0  0
   -1.8800   23.2301  -27.0737 H   0  0  0  0  0  0  0  0  0  0  0  0
   -1.9290   21.1860  -27.6290 C   0  0  0  0  0  0  0  0  0  0  0  0
   -2.8530   20.2760  -27.0870 C   0  0  0  0  0  0  0  0  0  0  0  0
   -3.8683   20.6140  -26.8322 H   0  0  0  0  0  0  0  0  0  0  0  0
   -2.4890   18.9440  -26.8700 C   0  0  0  0  0  0  0  0  0  0  0  0
   -3.2137   18.2405  -26.4341 H   0  0  0  0  0  0  0  0  0  0  0  0
   -1.2060   18.5050  -27.2060 C   0  0  0  0  0  0  0  0  0  0  0  0
   -0.9207   17.4566  -27.0341 H   0  0  0  0  0  0  0  0  0  0  0  0
   -0.2860   19.3970  -27.7600 C   0  0  0  0  0  0  0  0  0  0  0  0
    0.7229   19.0499  -28.0276 H   0  0  0  0  0  0  0  0  0  0  0  0
   -0.6450   20.7300  -27.9750 C   0  0  0  0  0  0  0  0  0  0  0  0
    0.0816   21.4271  -28.4178 H   0  0  0  0  0  0  0  0  0  0  0  0
  1  2  1  0
  2  3  1  0
  2  4  2  0
  4  5  1  0
  4  6  1  0
  6  7  1  0
  6  8  1  0
  6  9  1  0
  9 10  2  0
 10 11  1  0
 10 12  1  0
 12 13  1  0
 13 14  1  0
 13 15  2  0
 15 16  1  0
 15 17  1  0
 17 18  2  0
 18 19  1  0
 18 20  1  0
 20 21  1  0
 20 22  2  0
 22 23  1  0
 22 24  1  0
 24 25  1  0
 24 26  2  0
 26 27  1  0
 12 28  2  0
 28 29  1  0
 28 30  1  0
 30 31  1  0
 30 32  2  0
 32 33  1  0
 33 34  1  0
 34 35  1  0
 34 36  1  0
 34 37  1  0
 37 38  1  0
 37 39  1  0
 37 40  1  0
 40 41  1  0
 40 42  1  0
 40 43  1  0
 43 44  1  0
 43 45  1  0
 43 46  1  0
 46 47  2  0
 47 48  1  0
 47 49  1  0
 49 50  1  0
 49 51  2  0
 51 52  1  0
 51 53  1  0
 53 54  1  0
 53 55  2  0
 55 56  1  0
 32  9  1  0
 55 46  1  0
 26 17  1  0
M  END
>  <UniqueID>  (38) 
37

>  <SMILES>  (38) 
C=CCc1cc(/C=C\c2ccccc2)ccc1OCCCCc1ccccc1

>  <Energy>  (38) 
57.09967499220465

>  <Genealogy>  (38) 
C=CCc1cc(/C=C\c2ccccc2)ccc1OCCCCc1ccccc1 (cis-trans isomerization)
C=CCc1cc(/C=C\c2ccccc2)ccc1OCCCCc1ccccc1 (3D coordinates assigned)
C=CCc1cc(/C=C\c2ccccc2)ccc1OCCCCc1ccccc1 (optimized conformer: 57.09967499220465 kcal/mol)

>  <smiles>  (38) 
C=CCc1cc(C=Cc2ccccc2)ccc1OCCCCc1ccccc1

>  <score_type>  (38) 
oracle

>  <origin>  (38) 
adg

>  <m_score__min__energy>  (38) 
-10.130000000000001

>  <m_primary>  (38) 
energy

$$$$
38:0
     RDKit          3D

 34 37  0  0  0  0  0  0  0  0999 V2000
   -5.1190   25.4060  -30.4720 S   0  0  0  0  0  0  0  0  0  0  0  0
   -4.9020   23.8870  -31.0420 C   0  0  0  0  0  0  0  0  0  0  0  0
   -3.6430   23.3980  -31.2080 N   0  0  0  0  0  0  0  0  0  0  0  0
   -3.4150   22.1350  -31.6850 C   0  0  0  0  0  0  0  0  0  0  0  0
   -2.0170   21.6620  -31.8460 C   0  0  0  0  0  0  0  0  0  0  0  0
   -1.4350   21.5250  -33.1210 C   0  0  0  0  0  0  0  0  0  0  0  0
   -0.1190   21.0720  -33.2530 C   0  0  0  0  0  0  0  0  0  0  0  0
    0.6280   20.7450  -32.1190 C   0  0  0  0  0  0  0  0  0  0  0  0
    0.0580   20.8640  -30.8500 C   0  0  0  0  0  0  0  0  0  0  0  0
   -1.2590   21.3170  -30.7110 C   0  0  0  0  0  0  0  0  0  0  0  0
   -4.4760   21.3330  -32.0220 N   0  0  0  0  0  0  0  0  0  0  0  0
   -5.7490   21.7890  -31.8520 C   0  0  0  0  0  0  0  0  0  0  0  0
   -5.9730   23.0640  -31.3710 C   0  0  0  0  0  0  0  0  0  0  0  0
   -7.6300   23.3550  -31.3070 S   0  0  0  0  0  0  0  0  0  0  0  0
   -7.9980   21.8180  -31.9100 C   0  0  0  0  0  0  0  0  0  0  0  0
   -9.5340   21.2760  -32.0960 S   0  0  0  0  0  0  0  0  0  0  0  0
   -6.8780   21.0810  -32.1550 N   0  0  0  0  0  0  0  0  0  0  0  0
   -6.8820   19.7280  -32.6420 C   0  0  0  0  0  0  0  0  0  0  0  0
   -7.6170   18.7380  -31.9700 C   0  0  0  0  0  0  0  0  0  0  0  0
   -7.6180   17.4220  -32.4430 C   0  0  0  0  0  0  0  0  0  0  0  0
   -6.8890   17.0880  -33.5880 C   0  0  0  0  0  0  0  0  0  0  0  0
   -6.1570   18.0710  -34.2620 C   0  0  0  0  0  0  0  0  0  0  0  0
   -6.1520   19.3870  -33.7910 C   0  0  0  0  0  0  0  0  0  0  0  0
   -2.0194   21.7759  -34.0185 H   0  0  0  0  0  0  0  0  0  0  0  0
    0.3293   20.9728  -34.2526 H   0  0  0  0  0  0  0  0  0  0  0  0
    1.6650   20.3939  -32.2257 H   0  0  0  0  0  0  0  0  0  0  0  0
    0.6451   20.6012  -29.9577 H   0  0  0  0  0  0  0  0  0  0  0  0
   -1.7044   21.4040  -29.7090 H   0  0  0  0  0  0  0  0  0  0  0  0
   -4.3130   20.3920  -32.4440 H   0  0  0  0  0  0  0  0  0  0  0  0
   -8.1931   18.9982  -31.0698 H   0  0  0  0  0  0  0  0  0  0  0  0
   -8.1933   16.6485  -31.9132 H   0  0  0  0  0  0  0  0  0  0  0  0
   -6.8910   16.0524  -33.9589 H   0  0  0  0  0  0  0  0  0  0  0  0
   -5.5846   17.8081  -35.1638 H   0  0  0  0  0  0  0  0  0  0  0  0
   -5.5742   20.1575  -34.3225 H   0  0  0  0  0  0  0  0  0  0  0  0
  1  2  2  0
  2  3  1  0
  3  4  2  0
  4  5  1  0
  5  6  2  0
  6  7  1  0
  7  8  2  0
  8  9  1  0
  9 10  2  0
  4 11  1  0
 11 12  1  0
 12 13  2  0
 13 14  1  0
 14 15  1  0
 15 16  2  0
 15 17  1  0
 17 18  1  0
 18 19  2  0
 19 20  1  0
 20 21  2  0
 21 22  1  0
 22 23  2  0
 13  2  1  0
 23 18  1  0
 10  5  1  0
 17 12  1  0
  6 24  1  0
  7 25  1  0
  8 26  1  0
  9 27  1  0
 10 28  1  0
 11 29  1  0
 19 30  1  0
 20 31  1  0
 21 32  1  0
 22 33  1  0
 23 34  1  0
M  END
>  <UniqueID>  (39) 
38

>  <SMILES>  (39) 
S=c1nc(-c2ccccc2)[nH]c2c1sc(=S)n2-c1ccccc1

>  <Energy>  (39) 
88.1044012886993

>  <Genealogy>  (39) 
S=c1nc(-c2ccccc2)[nH]c2c1sc(=S)n2-c1ccccc1 (3D coordinates assigned)
S=c1nc(-c2ccccc2)[nH]c2c1sc(=S)n2-c1ccccc1 (optimized conformer: 88.1044012886993 kcal/mol)

>  <smiles>  (39) 
S=c1nc(-c2ccccc2)[nH]c2c1sc(=S)n2-c1ccccc1

>  <score_type>  (39) 
oracle

>  <origin>  (39) 
adg

>  <m_score__min__energy>  (39) 
-8.5700000000000003

>  <m_primary>  (39) 
energy

$$$$
39:0
     RDKit          3D

 31 33  0  0  0  0  0  0  0  0999 V2000
   -5.6800   20.6770  -32.9350 C   0  0  0  0  0  0  0  0  0  0  0  0
   -5.9290   21.7780  -31.9440 C   0  0  0  0  0  0  0  0  0  0  0  0
   -4.8600   22.3460  -31.2300 C   0  0  0  0  0  0  0  0  0  0  0  0
   -5.0820   23.3970  -30.3190 C   0  0  0  0  0  0  0  0  0  0  0  0
   -3.9650   24.0020  -29.5520 C   0  0  0  0  0  0  0  0  0  0  0  0
   -3.6130   23.7390  -28.2400 C   0  0  0  0  0  0  0  0  0  0  0  0
   -2.5180   24.5540  -28.0100 C   0  0  0  0  0  0  0  0  0  0  0  0
   -1.7380   24.6730  -26.7530 C   0  0  0  0  0  0  0  0  0  0  0  0
   -1.8190   25.8220  -25.9460 C   0  0  0  0  0  0  0  0  0  0  0  0
   -1.0690   25.8960  -24.7690 C   0  0  0  0  0  0  0  0  0  0  0  0
   -0.2640   24.8640  -24.4040 N   0  0  0  0  0  0  0  0  0  0  0  0
   -0.1650   23.7400  -25.1630 C   0  0  0  0  0  0  0  0  0  0  0  0
   -0.8970   23.6240  -26.3460 C   0  0  0  0  0  0  0  0  0  0  0  0
   -2.2440   25.2560  -29.1270 N   0  0  0  0  0  0  0  0  0  0  0  0
   -3.1210   24.9220  -30.0610 N   0  0  0  0  0  0  0  0  0  0  0  0
   -6.3910   23.8770  -30.1430 C   0  0  0  0  0  0  0  0  0  0  0  0
   -7.4530   23.3240  -30.8610 C   0  0  0  0  0  0  0  0  0  0  0  0
   -7.2270   22.2830  -31.7630 C   0  0  0  0  0  0  0  0  0  0  0  0
   -8.2720   21.7680  -32.4600 F   0  0  0  0  0  0  0  0  0  0  0  0
   -5.4683   19.7409  -32.3975 H   0  0  0  0  0  0  0  0  0  0  0  0
   -6.5707   20.5438  -33.5666 H   0  0  0  0  0  0  0  0  0  0  0  0
   -4.8187   20.9400  -33.5666 H   0  0  0  0  0  0  0  0  0  0  0  0
   -3.8394   21.9658  -31.3842 H   0  0  0  0  0  0  0  0  0  0  0  0
   -4.0940   23.0409  -27.5390 H   0  0  0  0  0  0  0  0  0  0  0  0
   -2.4698   26.6587  -26.2399 H   0  0  0  0  0  0  0  0  0  0  0  0
   -1.1306   26.7932  -24.1356 H   0  0  0  0  0  0  0  0  0  0  0  0
    0.2900   24.9350  -23.5210 H   0  0  0  0  0  0  0  0  0  0  0  0
    0.4942   22.9193  -24.8437 H   0  0  0  0  0  0  0  0  0  0  0  0
   -0.8155   22.7135  -26.9579 H   0  0  0  0  0  0  0  0  0  0  0  0
   -6.5806   24.6957  -29.4332 H   0  0  0  0  0  0  0  0  0  0  0  0
   -8.4725   23.7104  -30.7152 H   0  0  0  0  0  0  0  0  0  0  0  0
  1  2  1  0
  2  3  2  0
  3  4  1  0
  4  5  1  0
  5  6  1  0
  6  7  2  0
  7  8  1  0
  8  9  2  0
  9 10  1  0
 10 11  2  0
 11 12  1  0
 12 13  2  0
  7 14  1  0
 14 15  1  0
  4 16  2  0
 16 17  1  0
 17 18  2  0
 18 19  1  0
 18  2  1  0
 15  5  2  0
 13  8  1  0
  1 20  1  0
  1 21  1  0
  1 22  1  0
  3 23  1  0
  6 24  1  0
  9 25  1  0
 10 26  1  0
 11 27  1  0
 12 28  1  0
 13 29  1  0
 16 30  1  0
 17 31  1  0
M  CHG  2  11   1  14  -1
M  END
>  <UniqueID>  (40) 
39

>  <SMILES>  (40) 
Cc1cc(-c2cc(-c3cc[nH+]cc3)[n-]n2)ccc1F

>  <Energy>  (40) 
65.6074684541818

>  <Genealogy>  (40) 
Cc1cc(-c2cc(-c3cc[nH+]cc3)[n-]n2)ccc1F (protonated)
Cc1cc(-c2cc(-c3cc[nH+]cc3)[n-]n2)ccc1F (3D coordinates assigned)
Cc1cc(-c2cc(-c3cc[nH+]cc3)[n-]n2)ccc1F (optimized conformer: 65.6074684541818 kcal/mol)

>  <smiles>  (40) 
Cc1cc(-c2cc(-c3ccncc3)[nH]n2)ccc1F

>  <score_type>  (40) 
oracle

>  <origin>  (40) 
adg

>  <m_score__min__energy>  (40) 
-9.3200000000000003

>  <m_primary>  (40) 
energy

$$$$
40:0
     RDKit          3D

 39 41  0  0  0  0  0  0  0  0999 V2000
   -0.1790   28.2270  -24.3920 C   0  0  0  0  0  0  0  0  0  0  0  0
    0.2580   27.3000  -23.4440 C   0  0  0  0  0  0  0  0  0  0  0  0
    0.3520   25.9830  -23.7710 N   0  0  0  0  0  0  0  0  0  0  0  0
    0.0320   25.5330  -25.0150 C   0  0  0  0  0  0  0  0  0  0  0  0
   -0.3980   26.4310  -26.0060 C   0  0  0  0  0  0  0  0  0  0  0  0
   -0.7620   25.9410  -27.3930 C   0  0  0  0  0  0  0  0  0  0  0  0
   -1.9550   25.0650  -27.4250 N   0  0  0  0  0  0  0  0  0  0  0  0
   -1.6350   23.6470  -27.6980 C   0  0  0  0  0  0  0  0  0  0  0  0
   -2.8380   22.7100  -27.4590 C   0  0  0  0  0  0  0  0  0  0  0  0
   -4.1930   23.4370  -27.5440 C   0  0  0  0  0  0  0  0  0  0  0  0
   -4.5510   23.7570  -28.9920 C   0  0  0  0  0  0  0  0  0  0  0  0
   -5.3180   24.9040  -29.2620 C   0  0  0  0  0  0  0  0  0  0  0  0
   -5.6960   25.1980  -30.5740 C   0  0  0  0  0  0  0  0  0  0  0  0
   -5.3360   24.3710  -31.5900 N   0  0  0  0  0  0  0  0  0  0  0  0
   -4.6060   23.2480  -31.3650 C   0  0  0  0  0  0  0  0  0  0  0  0
   -4.2060   22.9160  -30.0700 C   0  0  0  0  0  0  0  0  0  0  0  0
   -4.2410   24.6560  -26.5820 C   0  0  0  0  0  0  0  0  0  0  0  0
   -2.8490   25.2350  -26.2670 C   0  0  0  0  0  0  0  0  0  0  0  0
   -0.5130   27.7890  -25.6740 C   0  0  0  0  0  0  0  0  0  0  0  0
   -0.2592   29.2925  -24.1308 H   0  0  0  0  0  0  0  0  0  0  0  0
    0.5267   27.6351  -22.4313 H   0  0  0  0  0  0  0  0  0  0  0  0
    0.6730   25.3000  -23.0490 H   0  0  0  0  0  0  0  0  0  0  0  0
    0.1105   24.4603  -25.2457 H   0  0  0  0  0  0  0  0  0  0  0  0
   -0.9578   26.8165  -28.0295 H   0  0  0  0  0  0  0  0  0  0  0  0
    0.0860   25.3394  -27.7522 H   0  0  0  0  0  0  0  0  0  0  0  0
   -1.3184   23.5531  -28.7472 H   0  0  0  0  0  0  0  0  0  0  0  0
   -0.8359   23.3465  -27.0044 H   0  0  0  0  0  0  0  0  0  0  0  0
   -2.8189   21.9143  -28.2183 H   0  0  0  0  0  0  0  0  0  0  0  0
   -2.7440   22.3072  -26.4397 H   0  0  0  0  0  0  0  0  0  0  0  0
   -4.9862   22.7625  -27.1892 H   0  0  0  0  0  0  0  0  0  0  0  0
   -5.6203   25.5697  -28.4401 H   0  0  0  0  0  0  0  0  0  0  0  0
   -6.2868   26.1015  -30.7853 H   0  0  0  0  0  0  0  0  0  0  0  0
   -4.3288   22.5972  -32.2074 H   0  0  0  0  0  0  0  0  0  0  0  0
   -3.6231   22.0006  -29.8906 H   0  0  0  0  0  0  0  0  0  0  0  0
   -4.8507   25.4447  -27.0471 H   0  0  0  0  0  0  0  0  0  0  0  0
   -4.6724   24.3064  -25.6324 H   0  0  0  0  0  0  0  0  0  0  0  0
   -2.9446   26.3061  -26.0356 H   0  0  0  0  0  0  0  0  0  0  0  0
   -2.4246   24.7014  -25.4038 H   0  0  0  0  0  0  0  0  0  0  0  0
   -0.8671   28.5099  -26.4256 H   0  0  0  0  0  0  0  0  0  0  0  0
  1  2  2  0
  2  3  1  0
  3  4  2  0
  4  5  1  0
  5  6  1  0
  6  7  1  0
  7  8  1  0
  8  9  1  0
  9 10  1  0
 10 11  1  0
 11 12  2  0
 12 13  1  0
 13 14  2  0
 14 15  1  0
 15 16  2  0
 10 17  1  0
 17 18  1  0
  5 19  2  0
 19  1  1  0
 18  7  1  0
 16 11  1  0
  1 20  1  0
  2 21  1  0
  3 22  1  0
  4 23  1  0
  6 24  1  0
  6 25  1  0
  8 26  1  0
  8 27  1  0
  9 28  1  0
  9 29  1  0
 10 30  1  0
 12 31  1  0
 13 32  1  0
 15 33  1  0
 16 34  1  0
 17 35  1  0
 17 36  1  0
 18 37  1  0
 18 38  1  0
 19 39  1  0
M  CHG  1   3   1
M  END
>  <UniqueID>  (41) 
40

>  <SMILES>  (41) 
c1c[nH+]cc(CN2CCC(c3ccncc3)CC2)c1

>  <Energy>  (41) 
53.2081567379372

>  <Genealogy>  (41) 
c1c[nH+]cc(CN2CCC(c3ccncc3)CC2)c1 (protonated)
c1c[nH+]cc(CN2CCC(c3ccncc3)CC2)c1 (3D coordinates assigned)
c1c[nH+]cc(CN2CCC(c3ccncc3)CC2)c1 (nonaromatic ring conformer: 53.2081567379372 kcal/mol)

>  <smiles>  (41) 
c1cncc(CN2CCC(c3ccncc3)CC2)c1

>  <score_type>  (41) 
oracle

>  <origin>  (41) 
adg

>  <m_score__min__energy>  (41) 
-7.2300000000000004

>  <m_primary>  (41) 
energy

$$$$
41:0
     RDKit          3D

 42 45  0  0  0  0  0  0  0  0999 V2000
   -5.4107   18.2114  -32.7554 H   0  0  0  0  0  0  0  0  0  0  0  0
   -6.3340   18.8000  -32.6500 C   0  0  0  0  0  0  0  0  0  0  0  0
   -7.5610   18.3990  -33.0360 N   0  0  0  0  0  0  0  0  0  0  0  0
   -8.4080   19.3760  -32.7580 N   0  0  0  0  0  0  0  0  0  0  0  0
   -9.8460   19.2860  -32.9650 C   0  0  0  0  0  0  0  0  0  0  0  0
  -10.3554   19.2541  -31.9906 H   0  0  0  0  0  0  0  0  0  0  0  0
  -10.1907   20.1643  -33.5304 H   0  0  0  0  0  0  0  0  0  0  0  0
  -10.0785   18.3715  -33.5304 H   0  0  0  0  0  0  0  0  0  0  0  0
   -7.7580   20.4010  -32.1790 C   0  0  0  0  0  0  0  0  0  0  0  0
   -8.2145   21.3389  -31.8298 H   0  0  0  0  0  0  0  0  0  0  0  0
   -6.4160   20.0730  -32.0980 C   0  0  0  0  0  0  0  0  0  0  0  0
   -5.3130   20.8920  -31.5330 C   0  0  0  0  0  0  0  0  0  0  0  0
   -4.0680   20.3060  -31.2360 C   0  0  0  0  0  0  0  0  0  0  0  0
   -3.9130   19.2335  -31.4249 H   0  0  0  0  0  0  0  0  0  0  0  0
   -3.0270   21.0710  -30.7040 C   0  0  0  0  0  0  0  0  0  0  0  0
   -2.0602   20.5978  -30.4773 H   0  0  0  0  0  0  0  0  0  0  0  0
   -3.2090   22.4380  -30.4580 C   0  0  0  0  0  0  0  0  0  0  0  0
   -2.1740   23.2160  -29.9250 C   0  0  0  0  0  0  0  0  0  0  0  0
   -1.2038   22.7565  -29.6852 H   0  0  0  0  0  0  0  0  0  0  0  0
   -2.3810   24.5820  -29.6990 C   0  0  0  0  0  0  0  0  0  0  0  0
   -1.4210   25.2940  -29.1820 N   0  0  0  0  0  0  0  0  0  0  0  0
   -1.2780   25.6820  -27.8050 C   0  0  0  0  0  0  0  0  0  0  0  0
   -2.2000   25.1940  -26.8690 C   0  0  0  0  0  0  0  0  0  0  0  0
   -3.0262   24.5484  -27.2016 H   0  0  0  0  0  0  0  0  0  0  0  0
   -2.0770   25.5220  -25.5160 C   0  0  0  0  0  0  0  0  0  0  0  0
   -2.8141   25.1466  -24.7909 H   0  0  0  0  0  0  0  0  0  0  0  0
   -1.0180   26.3270  -25.0820 C   0  0  0  0  0  0  0  0  0  0  0  0
   -0.8580   26.7430  -23.3450 S   0  0  0  0  0  0  0  0  0  0  0  0
    0.7430   27.5780  -23.5690 C   0  0  0  0  0  0  0  0  0  0  0  0
    1.1788   27.8053  -22.5849 H   0  0  0  0  0  0  0  0  0  0  0  0
    1.4244   26.9204  -24.1287 H   0  0  0  0  0  0  0  0  0  0  0  0
    0.5937   28.5131  -24.1287 H   0  0  0  0  0  0  0  0  0  0  0  0
   -0.0720   26.7890  -26.0030 C   0  0  0  0  0  0  0  0  0  0  0  0
    0.7687   27.4106  -25.6613 H   0  0  0  0  0  0  0  0  0  0  0  0
   -0.1930   26.4620  -27.3580 C   0  0  0  0  0  0  0  0  0  0  0  0
    0.5613   26.8150  -28.0766 H   0  0  0  0  0  0  0  0  0  0  0  0
   -3.5960   25.1330  -29.9800 N   0  0  0  0  0  0  0  0  0  0  0  0
   -4.6200   24.4040  -30.4970 C   0  0  0  0  0  0  0  0  0  0  0  0
   -5.5826   24.8887  -30.7170 H   0  0  0  0  0  0  0  0  0  0  0  0
   -4.4520   23.0380  -30.7500 C   0  0  0  0  0  0  0  0  0  0  0  0
   -5.4940   22.2660  -31.2830 C   0  0  0  0  0  0  0  0  0  0  0  0
   -6.4618   22.7379  -31.5080 H   0  0  0  0  0  0  0  0  0  0  0  0
  1  2  1  0
  2  3  2  0
  3  4  1  0
  4  5  1  0
  5  6  1  0
  5  7  1  0
  5  8  1  0
  4  9  1  0
  9 10  1  0
  9 11  2  0
 11 12  1  0
 12 13  1  0
 13 14  1  0
 13 15  2  0
 15 16  1  0
 15 17  1  0
 17 18  2  0
 18 19  1  0
 18 20  1  0
 20 21  2  0
 21 22  1  0
 22 23  2  0
 23 24  1  0
 23 25  1  0
 25 26  1  0
 25 27  2  0
 27 28  1  0
 28 29  1  0
 29 30  1  0
 29 31  1  0
 29 32  1  0
 27 33  1  0
 33 34  1  0
 33 35  2  0
 35 36  1  0
 20 37  1  0
 37 38  1  0
 38 39  1  0
 38 40  2  0
 40 41  1  0
 41 42  1  0
 11  2  1  0
 41 12  2  0
 40 17  1  0
 35 22  1  0
M  CHG  1  37  -1
M  END
>  <UniqueID>  (42) 
41

>  <SMILES>  (42) 
CSc1ccc(/N=c2/cc3ccc(-c4cnn(C)c4)cc3c[n-]2)cc1

>  <Energy>  (42) 
83.45733888670227

>  <Genealogy>  (42) 
CSc1ccc(N=c2cc3ccc(-c4cnn(C)c4)cc3c[n-]2)cc1 (protonated)
CSc1ccc(/N=c2/cc3ccc(-c4cnn(C)c4)cc3c[n-]2)cc1 (cis-trans isomerization)
CSc1ccc(/N=c2/cc3ccc(-c4cnn(C)c4)cc3c[n-]2)cc1 (3D coordinates assigned)
CSc1ccc(/N=c2/cc3ccc(-c4cnn(C)c4)cc3c[n-]2)cc1 (optimized conformer: 83.45733888670227 kcal/mol)

>  <smiles>  (42) 
CSc1ccc(N=c2cc3ccc(-c4cnn(C)c4)cc3c[nH]2)cc1

>  <score_type>  (42) 
oracle

>  <origin>  (42) 
adg

>  <m_score__min__energy>  (42) 
-9.25

>  <m_primary>  (42) 
energy

$$$$
42:0
     RDKit          3D

 30 33  0  0  0  0  0  0  0  0999 V2000
   -2.7240   24.7040  -26.5220 C   0  0  0  0  0  0  0  0  0  0  0  0
   -3.3840   24.0600  -27.6950 C   0  0  0  0  0  0  0  0  0  0  0  0
   -4.6090   24.4360  -28.2440 C   0  0  0  0  0  0  0  0  0  0  0  0
   -4.9480   23.7320  -29.3590 N   0  0  0  0  0  0  0  0  0  0  0  0
   -6.0880   23.8760  -30.0930 C   0  0  0  0  0  0  0  0  0  0  0  0
   -6.9630   24.7200  -29.7560 O   0  0  0  0  0  0  0  0  0  0  0  0
   -6.2790   23.0550  -31.2230 C   0  0  0  0  0  0  0  0  0  0  0  0
   -5.2530   22.1490  -31.5700 C   0  0  0  0  0  0  0  0  0  0  0  0
   -4.1400   22.0340  -30.7910 N   0  0  0  0  0  0  0  0  0  0  0  0
   -4.0070   22.8250  -29.7000 C   0  0  0  0  0  0  0  0  0  0  0  0
   -2.6970   22.8420  -28.6480 S   0  0  0  0  0  0  0  0  0  0  0  0
   -5.3910   21.1730  -33.0610 S   0  0  0  0  0  0  0  0  0  0  0  0
   -6.6850   20.1830  -32.3260 C   0  0  0  0  0  0  0  0  0  0  0  0
   -6.4310   18.8440  -32.0100 C   0  0  0  0  0  0  0  0  0  0  0  0
   -7.4540   18.0340  -31.5130 C   0  0  0  0  0  0  0  0  0  0  0  0
   -8.7370   18.5590  -31.3340 C   0  0  0  0  0  0  0  0  0  0  0  0
   -8.9910   19.9000  -31.6320 C   0  0  0  0  0  0  0  0  0  0  0  0
   -7.9650   20.7320  -32.0990 C   0  0  0  0  0  0  0  0  0  0  0  0
   -8.2590   22.1190  -32.3430 N   0  0  0  0  0  0  0  0  0  0  0  0
   -7.5320   23.1520  -32.0140 C   0  0  0  0  0  0  0  0  0  0  0  0
   -3.1454   24.2929  -25.5928 H   0  0  0  0  0  0  0  0  0  0  0  0
   -1.6428   24.5041  -26.5542 H   0  0  0  0  0  0  0  0  0  0  0  0
   -2.8973   25.7898  -26.5542 H   0  0  0  0  0  0  0  0  0  0  0  0
   -5.2423   25.2273  -27.8165 H   0  0  0  0  0  0  0  0  0  0  0  0
   -3.3860   21.3580  -31.0440 H   0  0  0  0  0  0  0  0  0  0  0  0
   -5.4228   18.4282  -32.1534 H   0  0  0  0  0  0  0  0  0  0  0  0
   -7.2502   16.9825  -31.2623 H   0  0  0  0  0  0  0  0  0  0  0  0
   -9.5468   17.9162  -30.9584 H   0  0  0  0  0  0  0  0  0  0  0  0
  -10.0047   20.3059  -31.4989 H   0  0  0  0  0  0  0  0  0  0  0  0
   -7.8655   24.1481  -32.3403 H   0  0  0  0  0  0  0  0  0  0  0  0
  1  2  1  0
  2  3  2  0
  3  4  1  0
  4  5  1  0
  5  6  2  0
  5  7  1  0
  7  8  2  0
  8  9  1  0
  9 10  2  0
 10 11  1  0
  8 12  1  0
 12 13  1  0
 13 14  2  0
 14 15  1  0
 15 16  2  0
 16 17  1  0
 17 18  2  0
 18 19  1  0
 19 20  2  0
 11  2  1  0
 18 13  1  0
 10  4  1  0
 20  7  1  0
  1 21  1  0
  1 22  1  0
  1 23  1  0
  3 24  1  0
  9 25  1  0
 14 26  1  0
 15 27  1  0
 16 28  1  0
 17 29  1  0
 20 30  1  0
M  CHG  1   9   1
M  END
>  <UniqueID>  (43) 
42

>  <SMILES>  (43) 
Cc1cn2c(=O)c3c([nH+]c2s1)Sc1ccccc1N=C3

>  <Energy>  (43) 
82.49892676291658

>  <Genealogy>  (43) 
Cc1cn2c(=O)c3c([nH+]c2s1)Sc1ccccc1N=C3 (protonated)
Cc1cn2c(=O)c3c([nH+]c2s1)Sc1ccccc1N=C3 (3D coordinates assigned)
Cc1cn2c(=O)c3c([nH+]c2s1)Sc1ccccc1N=C3 (nonaromatic ring conformer: 82.49892676291658 kcal/mol)

>  <smiles>  (43) 
Cc1cn2c(=O)c3c(nc2s1)Sc1ccccc1N=C3

>  <score_type>  (43) 
oracle

>  <origin>  (43) 
adg

>  <m_score__min__energy>  (43) 
-7.0499999999999998

>  <m_primary>  (43) 
energy

$$$$
43:0
     RDKit          3D

 42 44  0  0  0  0  0  0  0  0999 V2000
   -2.4170   20.2160  -31.2350 O   0  0  0  0  0  0  0  0  0  0  0  0
   -3.0990   21.2340  -31.5340 C   0  0  0  0  0  0  0  0  0  0  0  0
   -3.5560   21.4250  -32.9480 C   0  0  0  0  0  0  0  0  0  0  0  0
   -4.4280   20.2730  -33.3630 C   0  0  0  0  0  0  0  0  0  0  0  0
   -3.8600   19.1230  -33.9370 C   0  0  0  0  0  0  0  0  0  0  0  0
   -4.6690   18.0370  -34.2870 C   0  0  0  0  0  0  0  0  0  0  0  0
   -6.0470   18.0880  -34.0600 C   0  0  0  0  0  0  0  0  0  0  0  0
   -6.6170   19.2230  -33.4770 C   0  0  0  0  0  0  0  0  0  0  0  0
   -5.8120   20.3100  -33.1240 C   0  0  0  0  0  0  0  0  0  0  0  0
   -3.4230   22.2140  -30.5360 N   0  0  0  0  0  0  0  0  0  0  0  0
   -2.8410   22.2190  -29.2220 C   0  0  0  0  0  0  0  0  0  0  0  0
   -2.7150   21.0090  -28.5170 C   0  0  0  0  0  0  0  0  0  0  0  0
   -2.0740   20.9710  -27.2790 C   0  0  0  0  0  0  0  0  0  0  0  0
   -1.5390   22.1350  -26.7340 C   0  0  0  0  0  0  0  0  0  0  0  0
   -1.6460   23.3440  -27.4220 C   0  0  0  0  0  0  0  0  0  0  0  0
   -2.3000   23.4080  -28.6670 C   0  0  0  0  0  0  0  0  0  0  0  0
   -2.4350   24.7250  -29.3370 C   0  0  0  0  0  0  0  0  0  0  0  0
   -1.6560   25.6740  -29.0460 O   0  0  0  0  0  0  0  0  0  0  0  0
   -3.4360   24.9120  -30.3450 N   0  0  0  0  0  0  0  0  0  0  0  0
   -4.8050   25.3210  -30.0560 C   0  0  0  0  0  0  0  0  0  0  0  0
   -5.7710   24.4430  -30.7860 C   0  0  0  0  0  0  0  0  0  0  0  0
   -6.9940   24.0150  -30.3110 C   0  0  0  0  0  0  0  0  0  0  0  0
   -7.5320   23.2440  -31.3190 C   0  0  0  0  0  0  0  0  0  0  0  0
   -6.6060   23.2510  -32.3430 C   0  0  0  0  0  0  0  0  0  0  0  0
   -5.5670   23.9750  -31.9950 O   0  0  0  0  0  0  0  0  0  0  0  0
   -4.1283   22.3614  -33.0232 H   0  0  0  0  0  0  0  0  0  0  0  0
   -2.6783   21.4720  -33.6094 H   0  0  0  0  0  0  0  0  0  0  0  0
   -2.7750   19.0767  -34.1117 H   0  0  0  0  0  0  0  0  0  0  0  0
   -4.2200   17.1416  -34.7415 H   0  0  0  0  0  0  0  0  0  0  0  0
   -6.6827   17.2351  -34.3401 H   0  0  0  0  0  0  0  0  0  0  0  0
   -7.7013   19.2611  -33.2955 H   0  0  0  0  0  0  0  0  0  0  0  0
   -6.2639   21.1977  -32.6573 H   0  0  0  0  0  0  0  0  0  0  0  0
   -4.1140   22.9580  -30.7790 H   0  0  0  0  0  0  0  0  0  0  0  0
   -3.1260   20.0833  -28.9461 H   0  0  0  0  0  0  0  0  0  0  0  0
   -1.9910   20.0200  -26.7324 H   0  0  0  0  0  0  0  0  0  0  0  0
   -1.0309   22.1014  -25.7590 H   0  0  0  0  0  0  0  0  0  0  0  0
   -1.2145   24.2574  -26.9868 H   0  0  0  0  0  0  0  0  0  0  0  0
   -4.9874   25.2413  -28.9742 H   0  0  0  0  0  0  0  0  0  0  0  0
   -4.9460   26.3612  -30.3848 H   0  0  0  0  0  0  0  0  0  0  0  0
   -7.4447   24.2415  -29.3335 H   0  0  0  0  0  0  0  0  0  0  0  0
   -8.5031   22.7274  -31.3095 H   0  0  0  0  0  0  0  0  0  0  0  0
   -6.7210   22.7293  -33.3045 H   0  0  0  0  0  0  0  0  0  0  0  0
  1  2  2  0
  2  3  1  0
  3  4  1  0
  4  5  2  0
  5  6  1  0
  6  7  2  0
  7  8  1  0
  8  9  2  0
  2 10  1  0
 10 11  1  0
 11 12  2  0
 12 13  1  0
 13 14  2  0
 14 15  1  0
 15 16  2  0
 16 17  1  0
 17 18  2  0
 17 19  1  0
 19 20  1  0
 20 21  1  0
 21 22  2  0
 22 23  1  0
 23 24  2  0
 24 25  1  0
  9  4  1  0
 16 11  1  0
 25 21  1  0
  3 26  1  0
  3 27  1  0
  5 28  1  0
  6 29  1  0
  7 30  1  0
  8 31  1  0
  9 32  1  0
 10 33  1  0
 12 34  1  0
 13 35  1  0
 14 36  1  0
 15 37  1  0
 20 38  1  0
 20 39  1  0
 22 40  1  0
 23 41  1  0
 24 42  1  0
M  CHG  1  19  -1
M  END
>  <UniqueID>  (44) 
43

>  <SMILES>  (44) 
O=C(Cc1ccccc1)Nc1ccccc1C(=O)[N-]Cc1ccco1

>  <Energy>  (44) 
72.71034042754405

>  <Genealogy>  (44) 
O=C(Cc1ccccc1)Nc1ccccc1C(=O)[N-]Cc1ccco1 (protonated)
O=C(Cc1ccccc1)Nc1ccccc1C(=O)[N-]Cc1ccco1 (3D coordinates assigned)
O=C(Cc1ccccc1)Nc1ccccc1C(=O)[N-]Cc1ccco1 (optimized conformer: 72.71034042754405 kcal/mol)

>  <smiles>  (44) 
O=C(Cc1ccccc1)Nc1ccccc1C(=O)NCc1ccco1

>  <score_type>  (44) 
oracle

>  <origin>  (44) 
adg

>  <m_score__min__energy>  (44) 
-9.6300000000000008

>  <m_primary>  (44) 
energy

$$$$
44:0
     RDKit          3D

 47 49  0  0  0  0  0  0  0  0999 V2000
   -4.1400   17.0740  -35.3790 C   0  0  0  0  0  0  0  0  0  0  0  0
   -4.8650   17.8540  -34.3300 C   0  0  0  0  0  0  0  0  0  0  0  0
   -4.4520   19.0380  -33.8440 N   0  0  0  0  0  0  0  0  0  0  0  0
   -5.3250   19.4590  -32.9400 N   0  0  0  0  0  0  0  0  0  0  0  0
   -5.1900   20.6980  -32.2230 C   0  0  0  0  0  0  0  0  0  0  0  0
   -3.9740   21.0470  -31.6140 C   0  0  0  0  0  0  0  0  0  0  0  0
   -3.8550   22.2470  -30.9070 C   0  0  0  0  0  0  0  0  0  0  0  0
   -4.9560   23.1070  -30.7900 C   0  0  0  0  0  0  0  0  0  0  0  0
   -4.8080   24.6370  -29.9290 S   0  0  0  0  0  0  0  0  0  0  0  0
   -4.2300   25.6630  -30.8630 O   0  0  0  0  0  0  0  0  0  0  0  0
   -6.1650   25.1070  -29.4820 O   0  0  0  0  0  0  0  0  0  0  0  0
   -3.7570   24.4440  -28.5450 N   0  0  0  0  0  0  0  0  0  0  0  0
   -2.3550   24.2980  -28.9960 C   0  0  0  0  0  0  0  0  0  0  0  0
   -1.4760   23.6820  -27.9040 C   0  0  0  0  0  0  0  0  0  0  0  0
   -1.9510   22.2630  -27.5440 C   0  0  0  0  0  0  0  0  0  0  0  0
   -3.4480   22.0490  -27.8300 C   0  0  0  0  0  0  0  0  0  0  0  0
   -4.2390   23.3540  -27.6590 C   0  0  0  0  0  0  0  0  0  0  0  0
   -6.1720   22.7580  -31.3880 C   0  0  0  0  0  0  0  0  0  0  0  0
   -6.2920   21.5570  -32.0930 C   0  0  0  0  0  0  0  0  0  0  0  0
   -6.3090   18.5350  -32.8190 C   0  0  0  0  0  0  0  0  0  0  0  0
   -7.4580   18.6000  -31.8550 C   0  0  0  0  0  0  0  0  0  0  0  0
   -6.0610   17.5090  -33.7210 C   0  0  0  0  0  0  0  0  0  0  0  0
   -6.8460   16.2470  -33.9050 C   0  0  0  0  0  0  0  0  0  0  0  0
   -3.4667   16.3496  -34.8975 H   0  0  0  0  0  0  0  0  0  0  0  0
   -4.8678   16.5377  -36.0057 H   0  0  0  0  0  0  0  0  0  0  0  0
   -3.5521   17.7607  -36.0057 H   0  0  0  0  0  0  0  0  0  0  0  0
   -3.5930   19.5590  -34.1330 H   0  0  0  0  0  0  0  0  0  0  0  0
   -3.1093   20.3717  -31.6937 H   0  0  0  0  0  0  0  0  0  0  0  0
   -2.8956   22.5171  -30.4415 H   0  0  0  0  0  0  0  0  0  0  0  0
   -2.3307   23.6484  -29.8833 H   0  0  0  0  0  0  0  0  0  0  0  0
   -1.9623   25.2980  -29.2322 H   0  0  0  0  0  0  0  0  0  0  0  0
   -0.4378   23.6326  -28.2640 H   0  0  0  0  0  0  0  0  0  0  0  0
   -1.5442   24.3116  -27.0046 H   0  0  0  0  0  0  0  0  0  0  0  0
   -1.3724   21.5375  -28.1346 H   0  0  0  0  0  0  0  0  0  0  0  0
   -1.7952   22.1237  -26.4640 H   0  0  0  0  0  0  0  0  0  0  0  0
   -3.5680   21.6895  -28.8627 H   0  0  0  0  0  0  0  0  0  0  0  0
   -3.8369   21.3100  -27.1140 H   0  0  0  0  0  0  0  0  0  0  0  0
   -5.2962   23.1561  -27.8897 H   0  0  0  0  0  0  0  0  0  0  0  0
   -4.1016   23.6888  -26.6202 H   0  0  0  0  0  0  0  0  0  0  0  0
   -7.0373   23.4318  -31.3029 H   0  0  0  0  0  0  0  0  0  0  0  0
   -7.2554   21.2838  -32.5483 H   0  0  0  0  0  0  0  0  0  0  0  0
   -7.0737   18.5783  -30.8245 H   0  0  0  0  0  0  0  0  0  0  0  0
   -8.0204   19.5314  -32.0171 H   0  0  0  0  0  0  0  0  0  0  0  0
   -8.1218   17.7380  -32.0171 H   0  0  0  0  0  0  0  0  0  0  0  0
   -7.1055   15.8298  -32.9208 H   0  0  0  0  0  0  0  0  0  0  0  0
   -7.7672   16.4665  -34.4647 H   0  0  0  0  0  0  0  0  0  0  0  0
   -6.2419   15.5177  -34.4647 H   0  0  0  0  0  0  0  0  0  0  0  0
  1  2  1  0
  2  3  2  0
  3  4  1  0
  4  5  1  0
  5  6  2  0
  6  7  1  0
  7  8  2  0
  8  9  1  0
  9 10  2  0
  9 11  2  0
  9 12  1  0
 12 13  1  0
 13 14  1  0
 14 15  1  0
 15 16  1  0
 16 17  1  0
  8 18  1  0
 18 19  2  0
  4 20  1  0
 20 21  1  0
 20 22  2  0
 22 23  1  0
 22  2  1  0
 19  5  1  0
 17 12  1  0
  1 24  1  0
  1 25  1  0
  1 26  1  0
  3 27  1  0
  6 28  1  0
  7 29  1  0
 13 30  1  0
 13 31  1  0
 14 32  1  0
 14 33  1  0
 15 34  1  0
 15 35  1  0
 16 36  1  0
 16 37  1  0
 17 38  1  0
 17 39  1  0
 18 40  1  0
 19 41  1  0
 21 42  1  0
 21 43  1  0
 21 44  1  0
 23 45  1  0
 23 46  1  0
 23 47  1  0
M  CHG  1   3   1
M  END
>  <UniqueID>  (45) 
44

>  <SMILES>  (45) 
Cc1[nH+]n(-c2ccc(S(=O)(=O)N3CCCCC3)cc2)c(C)c1C

>  <Energy>  (45) 
86.16087210840793

>  <Genealogy>  (45) 
Cc1[nH+]n(-c2ccc(S(=O)(=O)N3CCCCC3)cc2)c(C)c1C (protonated)
Cc1[nH+]n(-c2ccc(S(=O)(=O)N3CCCCC3)cc2)c(C)c1C (3D coordinates assigned)
Cc1[nH+]n(-c2ccc(S(=O)(=O)N3CCCCC3)cc2)c(C)c1C (nonaromatic ring conformer: 86.16087210840793 kcal/mol)

>  <smiles>  (45) 
Cc1nn(-c2ccc(S(=O)(=O)N3CCCCC3)cc2)c(C)c1C

>  <score_type>  (45) 
oracle

>  <origin>  (45) 
adg

>  <m_score__min__energy>  (45) 
-8.3699999999999992

>  <m_primary>  (45) 
energy

$$$$
45:0
     RDKit          3D

 47 50  0  0  0  0  0  0  0  0999 V2000
   -7.1290   23.2520  -32.3030 C   0  0  0  0  0  0  0  0  0  0  0  0
   -6.7450   21.9710  -32.7890 O   0  0  0  0  0  0  0  0  0  0  0  0
   -7.4240   20.7740  -32.5050 C   0  0  0  0  0  0  0  0  0  0  0  0
   -8.8200   20.7400  -32.3160 C   0  0  0  0  0  0  0  0  0  0  0  0
   -9.4680   19.5320  -32.0460 C   0  0  0  0  0  0  0  0  0  0  0  0
   -8.7360   18.3490  -31.9620 C   0  0  0  0  0  0  0  0  0  0  0  0
   -7.3530   18.3670  -32.1450 C   0  0  0  0  0  0  0  0  0  0  0  0
   -6.6840   19.5740  -32.4110 C   0  0  0  0  0  0  0  0  0  0  0  0
   -5.1800   19.5760  -32.5950 C   0  0  0  0  0  0  0  0  0  0  0  0
   -4.5810   20.9100  -32.3310 N   0  0  2  0  0  0  0  0  0  0  0  0
   -3.1770   20.9360  -32.8260 C   0  0  0  0  0  0  0  0  0  0  0  0
   -2.3500   22.0240  -32.1310 C   0  0  0  0  0  0  0  0  0  0  0  0
   -2.1870   21.7060  -30.6120 C   0  0  1  0  0  0  0  0  0  0  0  0
   -3.4520   20.9700  -30.0760 C   0  0  0  0  0  0  0  0  0  0  0  0
   -4.7080   21.3020  -30.8960 C   0  0  0  0  0  0  0  0  0  0  0  0
   -0.9980   20.8280  -30.4200 N   0  0  0  0  0  0  0  0  0  0  0  0
   -0.5650   20.7250  -29.0090 C   0  0  0  0  0  0  0  0  0  0  0  0
   -0.1040   22.0860  -28.4520 C   0  0  0  0  0  0  0  0  0  0  0  0
   -1.0900   23.1380  -28.8330 C   0  0  0  0  0  0  0  0  0  0  0  0
   -1.2000   24.3580  -28.2850 N   0  0  0  0  0  0  0  0  0  0  0  0
   -2.2140   24.9190  -28.9860 C   0  0  0  0  0  0  0  0  0  0  0  0
   -2.7330   24.1140  -29.9420 N   0  0  0  0  0  0  0  0  0  0  0  0
   -1.9880   22.9980  -29.8470 C   0  0  0  0  0  0  0  0  0  0  0  0
   -7.1262   23.2428  -31.2030 H   0  0  0  0  0  0  0  0  0  0  0  0
   -6.4185   24.0097  -32.6651 H   0  0  0  0  0  0  0  0  0  0  0  0
   -8.1391   23.4939  -32.6651 H   0  0  0  0  0  0  0  0  0  0  0  0
   -9.4032   21.6704  -32.3815 H   0  0  0  0  0  0  0  0  0  0  0  0
  -10.5581   19.5146  -31.8994 H   0  0  0  0  0  0  0  0  0  0  0  0
   -9.2496   17.3994  -31.7510 H   0  0  0  0  0  0  0  0  0  0  0  0
   -6.7818   17.4292  -32.0806 H   0  0  0  0  0  0  0  0  0  0  0  0
   -4.7378   18.8461  -31.9009 H   0  0  0  0  0  0  0  0  0  0  0  0
   -4.9689   19.3138  -33.6422 H   0  0  0  0  0  0  0  0  0  0  0  0
   -5.1070   21.6220  -32.8910 H   0  0  0  0  0  0  0  0  0  0  0  0
   -2.7129   19.9576  -32.6328 H   0  0  0  0  0  0  0  0  0  0  0  0
   -3.1976   21.1571  -33.9034 H   0  0  0  0  0  0  0  0  0  0  0  0
   -1.3554   22.0754  -32.5981 H   0  0  0  0  0  0  0  0  0  0  0  0
   -2.8713   22.9868  -32.2371 H   0  0  0  0  0  0  0  0  0  0  0  0
   -3.2762   19.8851  -30.1210 H   0  0  0  0  0  0  0  0  0  0  0  0
   -3.6251   21.3052  -29.0427 H   0  0  0  0  0  0  0  0  0  0  0  0
   -5.5644   20.7670  -30.4597 H   0  0  0  0  0  0  0  0  0  0  0  0
   -4.8482   22.3925  -30.8612 H   0  0  0  0  0  0  0  0  0  0  0  0
   -0.1830   21.1990  -30.9650 H   0  0  0  0  0  0  0  0  0  0  0  0
   -1.4075   20.3592  -28.4036 H   0  0  0  0  0  0  0  0  0  0  0  0
    0.2862   20.0298  -28.9620 H   0  0  0  0  0  0  0  0  0  0  0  0
   -0.0338   22.0289  -27.3557 H   0  0  0  0  0  0  0  0  0  0  0  0
    0.8818   22.3385  -28.8696 H   0  0  0  0  0  0  0  0  0  0  0  0
   -2.5827   25.9377  -28.7953 H   0  0  0  0  0  0  0  0  0  0  0  0
  1  2  1  0
  2  3  1  0
  3  4  2  0
  4  5  1  0
  5  6  2  0
  6  7  1  0
  7  8  2  0
  8  9  1  0
  9 10  1  0
 10 11  1  0
 11 12  1  0
 12 13  1  0
 13 14  1  0
 14 15  1  0
 13 16  1  6
 16 17  1  0
 17 18  1  0
 18 19  1  0
 19 20  1  0
 20 21  1  0
 21 22  2  0
 22 23  1  0
  8  3  1  0
 15 10  1  0
 23 19  2  0
 23 13  1  0
  1 24  1  0
  1 25  1  0
  1 26  1  0
  4 27  1  0
  5 28  1  0
  6 29  1  0
  7 30  1  0
  9 31  1  0
  9 32  1  0
 10 33  1  6
 11 34  1  0
 11 35  1  0
 12 36  1  0
 12 37  1  0
 14 38  1  0
 14 39  1  0
 15 40  1  0
 15 41  1  0
 16 42  1  0
 17 43  1  0
 17 44  1  0
 18 45  1  0
 18 46  1  0
 21 47  1  0
M  CHG  2  10   1  20  -1
M  END
>  <UniqueID>  (46) 
45

>  <SMILES>  (46) 
COc1ccccc1C[NH+]1CCC2(CC1)NCCc1[n-]cnc12

>  <Energy>  (46) 
93.874741073437

>  <Genealogy>  (46) 
COc1ccccc1C[NH+]1CCC2(CC1)NCCc1[n-]cnc12 (protonated)
COc1ccccc1C[NH+]1CCC2(CC1)NCCc1[n-]cnc12 (3D coordinates assigned)
COc1ccccc1C[NH+]1CCC2(CC1)NCCc1[n-]cnc12 (nonaromatic ring conformer: 93.874741073437 kcal/mol)

>  <smiles>  (46) 
COc1ccccc1CN1CCC2(CC1)NCCc1[nH]cnc12

>  <score_type>  (46) 
oracle

>  <origin>  (46) 
adg

>  <m_score__min__energy>  (46) 
-6.9299999999999997

>  <m_primary>  (46) 
energy

$$$$
