0:0
     RDKit          3D

 42 44  0  0  0  0  0  0  0  0999 V2000
   -3.8300   22.1040  -30.2750 C   0  0  0  0  0  0  0  0  0  0  0  0
   -5.1560   22.8620  -30.2900 C   0  0  0  0  0  0  0  0  0  0  0  0
   -5.1000   23.9760  -31.2620 N   0  0  0  0  0  0  0  0  0  0  0  0
   -5.3030   25.2830  -30.5950 C   0  0  0  0  0  0  0  0  0  0  0  0
   -6.5520   25.2390  -29.7190 C   0  0  0  0  0  0  0  0  0  0  0  0
   -6.0830   23.7810  -32.3510 C   0  0  0  0  0  0  0  0  0  0  0  0
   -6.8260   22.4820  -32.1510 C   0  0  0  0  0  0  0  0  0  0  0  0
   -8.0660   22.4920  -31.4840 C   0  0  0  0  0  0  0  0  0  0  0  0
   -8.7970   21.3060  -31.2930 C   0  0  0  0  0  0  0  0  0  0  0  0
   -8.3130   20.0700  -31.7670 C   0  0  0  0  0  0  0  0  0  0  0  0
   -9.1140   18.8190  -31.5530 C   0  0  0  0  0  0  0  0  0  0  0  0
   -7.0760   20.0730  -32.4380 C   0  0  0  0  0  0  0  0  0  0  0  0
   -6.3530   21.2450  -32.6250 C   0  0  0  0  0  0  0  0  0  0  0  0
   -5.2050   21.0120  -33.3020 N   0  0  0  0  0  0  0  0  0  0  0  0
   -5.1970   19.6880  -33.5430 C   0  0  0  0  0  0  0  0  0  0  0  0
   -4.2110   18.9740  -34.2220 C   0  0  0  0  0  0  0  0  0  0  0  0
   -4.3870   17.5880  -34.3770 C   0  0  0  0  0  0  0  0  0  0  0  0
   -5.5330   16.9510  -33.8590 C   0  0  0  0  0  0  0  0  0  0  0  0
   -6.5160   17.6910  -33.1790 C   0  0  0  0  0  0  0  0  0  0  0  0
   -6.3220   19.0690  -33.0330 C   0  0  0  0  0  0  0  0  0  0  0  0
   -3.5205   21.9271  -29.2344 H   0  0  0  0  0  0  0  0  0  0  0  0
   -3.9530   21.1398  -30.7899 H   0  0  0  0  0  0  0  0  0  0  0  0
   -3.0615   22.6992  -30.7899 H   0  0  0  0  0  0  0  0  0  0  0  0
   -5.9647   22.1727  -30.5743 H   0  0  0  0  0  0  0  0  0  0  0  0
   -5.3451   23.2718  -29.2868 H   0  0  0  0  0  0  0  0  0  0  0  0
   -4.4279   25.5113  -29.9689 H   0  0  0  0  0  0  0  0  0  0  0  0
   -5.4294   26.0616  -31.3617 H   0  0  0  0  0  0  0  0  0  0  0  0
   -6.2572   25.2494  -28.6593 H   0  0  0  0  0  0  0  0  0  0  0  0
   -7.1811   26.1155  -29.9332 H   0  0  0  0  0  0  0  0  0  0  0  0
   -7.1179   24.3204  -29.9332 H   0  0  0  0  0  0  0  0  0  0  0  0
   -6.8003   24.6149  -32.3476 H   0  0  0  0  0  0  0  0  0  0  0  0
   -5.5525   23.7484  -33.3141 H   0  0  0  0  0  0  0  0  0  0  0  0
   -8.4695   23.4430  -31.1062 H   0  0  0  0  0  0  0  0  0  0  0  0
   -9.7615   21.3435  -30.7655 H   0  0  0  0  0  0  0  0  0  0  0  0
   -9.2300   18.6379  -30.4742 H   0  0  0  0  0  0  0  0  0  0  0  0
  -10.1060   18.9354  -32.0140 H   0  0  0  0  0  0  0  0  0  0  0  0
   -8.5932   17.9668  -32.0140 H   0  0  0  0  0  0  0  0  0  0  0  0
   -4.4720   21.6950  -33.5930 H   0  0  0  0  0  0  0  0  0  0  0  0
   -3.3213   19.4803  -34.6247 H   0  0  0  0  0  0  0  0  0  0  0  0
   -3.6253   16.9964  -34.9061 H   0  0  0  0  0  0  0  0  0  0  0  0
   -5.6591   15.8659  -33.9880 H   0  0  0  0  0  0  0  0  0  0  0  0
   -7.4128   17.2003  -32.7729 H   0  0  0  0  0  0  0  0  0  0  0  0
  1  2  1  0
  2  3  1  0
  3  4  1  0
  4  5  1  0
  3  6  1  0
  6  7  1  0
  7  8  2  0
  8  9  1  0
  9 10  2  0
 10 11  1  0
 10 12  1  0
 12 13  2  0
 13 14  1  0
 14 15  1  0
 15 16  2  0
 16 17  1  0
 17 18  2  0
 18 19  1  0
 19 20  2  0
 13  7  1  0
 20 15  1  0
 20 12  1  0
  1 21  1  0
  1 22  1  0
  1 23  1  0
  2 24  1  0
  2 25  1  0
  4 26  1  0
  4 27  1  0
  5 28  1  0
  5 29  1  0
  5 30  1  0
  6 31  1  0
  6 32  1  0
  8 33  1  0
  9 34  1  0
 11 35  1  0
 11 36  1  0
 11 37  1  0
 14 38  1  0
 16 39  1  0
 17 40  1  0
 18 41  1  0
 19 42  1  0
M  END
>  <UniqueID>  (1) 
1

>  <SMILES>  (1) 
CCN(CC)Cc1ccc(C)c2c1[nH]c1ccccc12

>  <Energy>  (1) 
83.3993496067679

>  <Genealogy>  (1) 
CCN(CC)Cc1ccc(C)c2c1[nH]c1ccccc12 (3D coordinates assigned)
CCN(CC)Cc1ccc(C)c2c1[nH]c1ccccc12 (optimized conformer: 83.3993496067679 kcal/mol)

>  <smiles>  (1) 
CCN(CC)Cc1ccc(C)c2c1[nH]c1ccccc12

>  <score_type>  (1) 
oracle

>  <origin>  (1) 
adg

>  <m_score__min__energy>  (1) 
-8.3900000000000006

>  <m_primary>  (1) 
energy

$$$$
1:0
     RDKit          3D

 57 59  0  0  0  0  0  0  0  0999 V2000
   -5.8810   25.4260  -30.1280 C   0  0  0  0  0  0  0  0  0  0  0  0
   -6.1310   24.8630  -31.4110 O   0  0  0  0  0  0  0  0  0  0  0  0
   -6.7080   23.6000  -31.6360 C   0  0  0  0  0  0  0  0  0  0  0  0
   -8.1050   23.4260  -31.6300 C   0  0  0  0  0  0  0  0  0  0  0  0
   -8.6610   22.1660  -31.8240 C   0  0  0  0  0  0  0  0  0  0  0  0
   -7.8400   21.0600  -32.0270 C   0  0  0  0  0  0  0  0  0  0  0  0
   -6.4400   21.2010  -32.0440 C   0  0  0  0  0  0  0  0  0  0  0  0
   -5.6020   20.0960  -32.2670 O   0  0  0  0  0  0  0  0  0  0  0  0
   -5.9230   18.9810  -33.0930 C   0  0  0  0  0  0  0  0  0  0  0  0
   -5.8660   22.4820  -31.8520 C   0  0  0  0  0  0  0  0  0  0  0  0
   -4.3900   22.6560  -31.8790 C   0  0  0  0  0  0  0  0  0  0  0  0
   -3.7950   23.1570  -30.8860 O   0  0  0  0  0  0  0  0  0  0  0  0
   -3.6340   22.2570  -33.0280 N   0  0  0  0  0  0  0  0  0  0  0  0
   -3.1460   20.9000  -33.2480 C   0  0  0  0  0  0  0  0  0  0  0  0
   -1.8690   20.6190  -32.4220 C   0  0  0  0  0  0  0  0  0  0  0  0
   -1.8060   21.2800  -31.0930 N   0  0  0  0  0  0  0  0  0  0  0  0
   -0.4860   21.8820  -30.8110 C   0  0  0  0  0  0  0  0  0  0  0  0
   -0.6080   22.8860  -29.6580 C   0  0  0  0  0  0  0  0  0  0  0  0
   -1.6160   22.4460  -28.6840 N   0  0  0  0  0  0  0  0  0  0  0  0
   -2.2320   23.4120  -27.8190 C   0  0  0  0  0  0  0  0  0  0  0  0
   -3.6200   23.6050  -27.9000 C   0  0  0  0  0  0  0  0  0  0  0  0
   -4.2520   24.5430  -27.0820 C   0  0  0  0  0  0  0  0  0  0  0  0
   -3.5050   25.2980  -26.1780 C   0  0  0  0  0  0  0  0  0  0  0  0
   -2.1230   25.1120  -26.0830 C   0  0  0  0  0  0  0  0  0  0  0  0
   -1.4750   24.1580  -26.8850 C   0  0  0  0  0  0  0  0  0  0  0  0
    0.0130   23.9810  -26.7570 C   0  0  0  0  0  0  0  0  0  0  0  0
   -2.0150   21.0360  -28.5900 C   0  0  0  0  0  0  0  0  0  0  0  0
   -2.2270   20.3940  -29.9830 C   0  0  0  0  0  0  0  0  0  0  0  0
   -6.1960   24.7166  -29.3486 H   0  0  0  0  0  0  0  0  0  0  0  0
   -4.8060   25.6338  -30.0219 H   0  0  0  0  0  0  0  0  0  0  0  0
   -6.4477   26.3628  -30.0219 H   0  0  0  0  0  0  0  0  0  0  0  0
   -8.7621   24.2936  -31.4706 H   0  0  0  0  0  0  0  0  0  0  0  0
   -9.7541   22.0427  -31.8170 H   0  0  0  0  0  0  0  0  0  0  0  0
   -8.2897   20.0672  -32.1754 H   0  0  0  0  0  0  0  0  0  0  0  0
   -6.1720   18.1160  -32.4608 H   0  0  0  0  0  0  0  0  0  0  0  0
   -6.7855   19.2314  -33.7281 H   0  0  0  0  0  0  0  0  0  0  0  0
   -5.0594   18.7345  -33.7281 H   0  0  0  0  0  0  0  0  0  0  0  0
   -3.9284   20.1858  -32.9516 H   0  0  0  0  0  0  0  0  0  0  0  0
   -2.9001   20.7890  -34.3144 H   0  0  0  0  0  0  0  0  0  0  0  0
   -1.8008   19.5327  -32.2633 H   0  0  0  0  0  0  0  0  0  0  0  0
   -1.0352   21.0363  -33.0056 H   0  0  0  0  0  0  0  0  0  0  0  0
   -2.5040   22.0610  -31.1450 H   0  0  0  0  0  0  0  0  0  0  0  0
    0.2244   21.0899  -30.5318 H   0  0  0  0  0  0  0  0  0  0  0  0
   -0.1254   22.4036  -31.7099 H   0  0  0  0  0  0  0  0  0  0  0  0
    0.3654   22.9751  -29.1535 H   0  0  0  0  0  0  0  0  0  0  0  0
   -0.9178   23.8579  -30.0696 H   0  0  0  0  0  0  0  0  0  0  0  0
   -4.2134   23.0133  -28.6126 H   0  0  0  0  0  0  0  0  0  0  0  0
   -5.3404   24.6869  -27.1504 H   0  0  0  0  0  0  0  0  0  0  0  0
   -4.0043   26.0410  -25.5388 H   0  0  0  0  0  0  0  0  0  0  0  0
   -1.5383   25.7173  -25.3747 H   0  0  0  0  0  0  0  0  0  0  0  0
    0.2881   23.9483  -25.6925 H   0  0  0  0  0  0  0  0  0  0  0  0
    0.3135   23.0408  -27.2425 H   0  0  0  0  0  0  0  0  0  0  0  0
    0.5257   24.8245  -27.2425 H   0  0  0  0  0  0  0  0  0  0  0  0
   -1.2280   20.4798  -28.0596 H   0  0  0  0  0  0  0  0  0  0  0  0
   -2.9714   20.9911  -28.0484 H   0  0  0  0  0  0  0  0  0  0  0  0
   -1.6418   19.4640  -30.0342 H   0  0  0  0  0  0  0  0  0  0  0  0
   -3.3043   20.2049  -30.1003 H   0  0  0  0  0  0  0  0  0  0  0  0
  1  2  1  0
  2  3  1  0
  3  4  2  0
  4  5  1  0
  5  6  2  0
  6  7  1  0
  7  8  1  0
  8  9  1  0
  7 10  2  0
 10 11  1  0
 11 12  2  0
 11 13  1  0
 13 14  1  0
 14 15  1  0
 15 16  1  0
 16 17  1  0
 17 18  1  0
 18 19  1  0
 19 20  1  0
 20 21  2  0
 21 22  1  0
 22 23  2  0
 23 24  1  0
 24 25  2  0
 25 26  1  0
 19 27  1  0
 27 28  1  0
 10  3  1  0
 28 16  1  0
 25 20  1  0
  1 29  1  0
  1 30  1  0
  1 31  1  0
  4 32  1  0
  5 33  1  0
  6 34  1  0
  9 35  1  0
  9 36  1  0
  9 37  1  0
 14 38  1  0
 14 39  1  0
 15 40  1  0
 15 41  1  0
 16 42  1  0
 17 43  1  0
 17 44  1  0
 18 45  1  0
 18 46  1  0
 21 47  1  0
 22 48  1  0
 23 49  1  0
 24 50  1  0
 26 51  1  0
 26 52  1  0
 26 53  1  0
 27 54  1  0
 27 55  1  0
 28 56  1  0
 28 57  1  0
M  CHG  2  13  -1  16   1
M  END
>  <UniqueID>  (2) 
2

>  <SMILES>  (2) 
COc1cccc(OC)c1C(=O)[N-]CC[NH+]1CCN(c2ccccc2C)CC1

>  <Energy>  (2) 
75.9425453907308

>  <Genealogy>  (2) 
COc1cccc(OC)c1C(=O)[N-]CC[NH+]1CCN(c2ccccc2C)CC1 (protonated)
COc1cccc(OC)c1C(=O)[N-]CC[NH+]1CCN(c2ccccc2C)CC1 (3D coordinates assigned)
COc1cccc(OC)c1C(=O)[N-]CC[NH+]1CCN(c2ccccc2C)CC1 (nonaromatic ring conformer: 75.9425453907308 kcal/mol)

>  <smiles>  (2) 
COc1cccc(OC)c1C(=O)NCCN1CCN(c2ccccc2C)CC1

>  <score_type>  (2) 
oracle

>  <origin>  (2) 
adg

>  <m_score__min__energy>  (2) 
-9.1300000000000008

>  <m_primary>  (2) 
energy

$$$$
2:0
     RDKit          3D

 36 37  0  0  0  0  0  0  0  0999 V2000
   -4.0810   25.6490  -30.8440 O   0  0  0  0  0  0  0  0  0  0  0  0
   -3.4890   24.8200  -30.1040 C   0  0  0  0  0  0  0  0  0  0  0  0
   -2.4010   25.2300  -29.3440 O   0  0  0  0  0  0  0  0  0  0  0  0
   -3.9200   23.3870  -30.0820 C   0  0  0  0  0  0  0  0  0  0  0  0
   -3.2500   22.6130  -31.2220 C   0  0  0  0  0  0  0  0  0  0  0  0
   -4.2090   22.2260  -32.3680 C   0  0  0  0  0  0  0  0  0  0  0  0
   -5.2490   21.1010  -32.0790 C   0  0  0  0  0  0  0  0  0  0  0  0
   -6.7240   21.5240  -31.9940 C   0  0  0  0  0  0  0  0  0  0  0  0
   -7.1240   22.8720  -32.1490 C   0  0  0  0  0  0  0  0  0  0  0  0
   -8.4630   23.2460  -31.9970 C   0  0  0  0  0  0  0  0  0  0  0  0
   -9.4200   22.2980  -31.6390 C   0  0  0  0  0  0  0  0  0  0  0  0
   -9.0380   20.9780  -31.4090 C   0  0  0  0  0  0  0  0  0  0  0  0
   -7.7010   20.5970  -31.5610 C   0  0  0  0  0  0  0  0  0  0  0  0
   -4.9980   19.9080  -32.9980 C   0  0  0  0  0  0  0  0  0  0  0  0
   -3.7180   19.3230  -33.0440 C   0  0  0  0  0  0  0  0  0  0  0  0
   -3.4580   18.2520  -33.9040 C   0  0  0  0  0  0  0  0  0  0  0  0
   -4.4650   17.7580  -34.7340 C   0  0  0  0  0  0  0  0  0  0  0  0
   -5.7350   18.3380  -34.7100 C   0  0  0  0  0  0  0  0  0  0  0  0
   -6.0020   19.4080  -33.8530 C   0  0  0  0  0  0  0  0  0  0  0  0
   -3.6337   22.9366  -29.1201 H   0  0  0  0  0  0  0  0  0  0  0  0
   -5.0115   23.3395  -30.2101 H   0  0  0  0  0  0  0  0  0  0  0  0
   -2.4471   23.2384  -31.6394 H   0  0  0  0  0  0  0  0  0  0  0  0
   -2.8747   21.6733  -30.7906 H   0  0  0  0  0  0  0  0  0  0  0  0
   -4.7692   23.1297  -32.6499 H   0  0  0  0  0  0  0  0  0  0  0  0
   -3.5589   21.8152  -33.1545 H   0  0  0  0  0  0  0  0  0  0  0  0
   -5.0666   20.7948  -31.0383 H   0  0  0  0  0  0  0  0  0  0  0  0
   -6.3715   23.6365  -32.3924 H   0  0  0  0  0  0  0  0  0  0  0  0
   -8.7619   24.2919  -32.1605 H   0  0  0  0  0  0  0  0  0  0  0  0
  -10.4753   22.5916  -31.5382 H   0  0  0  0  0  0  0  0  0  0  0  0
   -9.7897   20.2338  -31.1072 H   0  0  0  0  0  0  0  0  0  0  0  0
   -7.4046   19.5609  -31.3405 H   0  0  0  0  0  0  0  0  0  0  0  0
   -2.9167   19.7116  -32.3984 H   0  0  0  0  0  0  0  0  0  0  0  0
   -2.4566   17.7974  -33.9265 H   0  0  0  0  0  0  0  0  0  0  0  0
   -4.2586   16.9124  -35.4066 H   0  0  0  0  0  0  0  0  0  0  0  0
   -6.5272   17.9511  -35.3678 H   0  0  0  0  0  0  0  0  0  0  0  0
   -7.0029   19.8642  -33.8448 H   0  0  0  0  0  0  0  0  0  0  0  0
  1  2  2  0
  2  3  1  0
  2  4  1  0
  4  5  1  0
  5  6  1  0
  6  7  1  0
  7  8  1  0
  8  9  2  0
  9 10  1  0
 10 11  2  0
 11 12  1  0
 12 13  2  0
  7 14  1  0
 14 15  2  0
 15 16  1  0
 16 17  2  0
 17 18  1  0
 18 19  2  0
 13  8  1  0
 19 14  1  0
  4 20  1  0
  4 21  1  0
  5 22  1  0
  5 23  1  0
  6 24  1  0
  6 25  1  0
  7 26  1  0
  9 27  1  0
 10 28  1  0
 11 29  1  0
 12 30  1  0
 13 31  1  0
 15 32  1  0
 16 33  1  0
 17 34  1  0
 18 35  1  0
 19 36  1  0
M  CHG  1   3  -1
M  END
>  <UniqueID>  (3) 
3

>  <SMILES>  (3) 
O=C([O-])CCCC(c1ccccc1)c1ccccc1

>  <Energy>  (3) 
41.09777429688221

>  <Genealogy>  (3) 
O=C([O-])CCCC(c1ccccc1)c1ccccc1 (protonated)
O=C([O-])CCCC(c1ccccc1)c1ccccc1 (3D coordinates assigned)
O=C([O-])CCCC(c1ccccc1)c1ccccc1 (optimized conformer: 41.09777429688221 kcal/mol)

>  <smiles>  (3) 
O=C(O)CCCC(c1ccccc1)c1ccccc1

>  <score_type>  (3) 
oracle

>  <origin>  (3) 
adg

>  <m_score__min__energy>  (3) 
-10.449999999999999

>  <m_primary>  (3) 
energy

$$$$
3:0
     RDKit          3D

 24 26  0  0  0  0  0  0  0  0999 V2000
   -4.5860   21.4020  -32.9210 O   0  0  0  0  0  0  0  0  0  0  0  0
   -5.1900   22.2220  -32.1800 C   0  0  0  0  0  0  0  0  0  0  0  0
   -4.6220   23.4060  -31.9310 O   0  0  0  0  0  0  0  0  0  0  0  0
   -5.2420   24.3020  -31.1770 C   0  0  0  0  0  0  0  0  0  0  0  0
   -4.8030   25.4920  -30.8540 O   0  0  0  0  0  0  0  0  0  0  0  0
   -5.7260   26.0570  -30.0940 C   0  0  0  0  0  0  0  0  0  0  0  0
   -6.8070   25.1960  -29.9180 C   0  0  0  0  0  0  0  0  0  0  0  0
   -6.4660   24.0720  -30.6290 C   0  0  0  0  0  0  0  0  0  0  0  0
   -7.1230   22.8680  -30.8390 C   0  0  0  0  0  0  0  0  0  0  0  0
   -6.4700   21.8990  -31.6320 C   0  0  0  0  0  0  0  0  0  0  0  0
   -7.1200   20.5890  -31.8810 C   0  0  0  0  0  0  0  0  0  0  0  0
   -6.3730   19.3990  -31.8490 C   0  0  0  0  0  0  0  0  0  0  0  0
   -6.9940   18.1670  -32.0740 C   0  0  0  0  0  0  0  0  0  0  0  0
   -8.3670   18.1100  -32.3290 C   0  0  0  0  0  0  0  0  0  0  0  0
   -9.1200   19.2850  -32.3550 C   0  0  0  0  0  0  0  0  0  0  0  0
   -8.5040   20.5200  -32.1300 C   0  0  0  0  0  0  0  0  0  0  0  0
   -5.6508   27.0656  -29.6614 H   0  0  0  0  0  0  0  0  0  0  0  0
   -7.7256   25.3759  -29.3403 H   0  0  0  0  0  0  0  0  0  0  0  0
   -8.1149   22.6756  -30.4042 H   0  0  0  0  0  0  0  0  0  0  0  0
   -5.2927   19.4373  -31.6456 H   0  0  0  0  0  0  0  0  0  0  0  0
   -6.4010   17.2408  -32.0503 H   0  0  0  0  0  0  0  0  0  0  0  0
   -8.8537   17.1401  -32.5090 H   0  0  0  0  0  0  0  0  0  0  0  0
  -10.2011   19.2393  -32.5530 H   0  0  0  0  0  0  0  0  0  0  0  0
   -9.1036   21.4420  -32.1476 H   0  0  0  0  0  0  0  0  0  0  0  0
  1  2  2  0
  2  3  1  0
  3  4  1  0
  4  5  1  0
  5  6  1  0
  6  7  2  0
  7  8  1  0
  8  9  1  0
  9 10  2  0
 10 11  1  0
 11 12  2  0
 12 13  1  0
 13 14  2  0
 14 15  1  0
 15 16  2  0
 10  2  1  0
 16 11  1  0
  8  4  2  0
  6 17  1  0
  7 18  1  0
  9 19  1  0
 12 20  1  0
 13 21  1  0
 14 22  1  0
 15 23  1  0
 16 24  1  0
M  END
>  <UniqueID>  (4) 
4

>  <SMILES>  (4) 
O=c1oc2occc2cc1-c1ccccc1

>  <Energy>  (4) 
70.16185121984383

>  <Genealogy>  (4) 
O=c1oc2occc2cc1-c1ccccc1 (3D coordinates assigned)
O=c1oc2occc2cc1-c1ccccc1 (optimized conformer: 70.16185121984383 kcal/mol)

>  <smiles>  (4) 
O=c1oc2occc2cc1-c1ccccc1

>  <score_type>  (4) 
oracle

>  <origin>  (4) 
adg

>  <m_score__min__energy>  (4) 
-7.5300000000000002

>  <m_primary>  (4) 
energy

$$$$
4:0
     RDKit          3D

 47 47  0  0  0  0  0  0  0  0999 V2000
   -7.6028   23.2301  -29.8037 H   0  0  0  0  0  0  0  0  0  0  0  0
   -7.3910   23.3980  -30.8700 C   0  0  0  0  0  0  0  0  0  0  0  0
   -6.2010   23.9520  -31.1960 C   0  0  0  0  0  0  0  0  0  0  0  0
   -5.4020   23.3890  -32.3430 C   0  0  0  0  0  0  0  0  0  0  0  0
   -4.5623   22.7973  -31.9494 H   0  0  0  0  0  0  0  0  0  0  0  0
   -6.0476   22.7452  -32.9584 H   0  0  0  0  0  0  0  0  0  0  0  0
   -5.0129   24.2135  -32.9584 H   0  0  0  0  0  0  0  0  0  0  0  0
   -5.6520   25.1570  -30.4740 C   0  0  0  0  0  0  0  0  0  0  0  0
   -5.7244   24.9982  -29.3879 H   0  0  0  0  0  0  0  0  0  0  0  0
   -4.5983   25.3035  -30.7537 H   0  0  0  0  0  0  0  0  0  0  0  0
   -6.2329   26.0482  -30.7537 H   0  0  0  0  0  0  0  0  0  0  0  0
   -8.4490   22.9940  -31.8690 C   0  0  0  0  0  0  0  0  0  0  0  0
   -9.2355   23.7628  -31.8851 H   0  0  0  0  0  0  0  0  0  0  0  0
   -7.9697   22.8979  -32.8544 H   0  0  0  0  0  0  0  0  0  0  0  0
   -9.0830   21.6420  -31.5130 C   0  0  0  0  0  0  0  0  0  0  0  0
   -8.8950   21.4301  -30.4501 H   0  0  0  0  0  0  0  0  0  0  0  0
  -10.1613   21.7065  -31.7204 H   0  0  0  0  0  0  0  0  0  0  0  0
   -8.5120   20.5120  -32.3460 C   0  0  0  0  0  0  0  0  0  0  0  0
   -7.2410   20.6130  -32.8030 C   0  0  0  0  0  0  0  0  0  0  0  0
   -6.6468   21.4735  -32.4618 H   0  0  0  0  0  0  0  0  0  0  0  0
   -6.5690   19.6280  -33.7530 C   0  0  0  0  0  0  0  0  0  0  0  0
   -7.3165   18.8797  -34.0551 H   0  0  0  0  0  0  0  0  0  0  0  0
   -6.1854   20.2225  -34.5953 H   0  0  0  0  0  0  0  0  0  0  0  0
   -5.3880   18.9020  -33.1750 N   0  0  0  0  0  0  0  0  0  0  0  0
   -4.3490   19.8300  -32.6670 C   0  0  0  0  0  0  0  0  0  0  0  0
   -4.3570   20.2430  -31.3070 C   0  0  0  0  0  0  0  0  0  0  0  0
   -5.1463   19.8695  -30.6380 H   0  0  0  0  0  0  0  0  0  0  0  0
   -3.3870   21.1120  -30.7980 C   0  0  0  0  0  0  0  0  0  0  0  0
   -3.4231   21.4153  -29.7413 H   0  0  0  0  0  0  0  0  0  0  0  0
   -2.3770   21.5940  -31.6230 C   0  0  0  0  0  0  0  0  0  0  0  0
   -1.6171   22.2799  -31.2204 H   0  0  0  0  0  0  0  0  0  0  0  0
   -2.3290   21.2070  -32.9600 C   0  0  0  0  0  0  0  0  0  0  0  0
   -1.5280   21.5877  -33.6108 H   0  0  0  0  0  0  0  0  0  0  0  0
   -3.2920   20.3380  -33.4800 C   0  0  0  0  0  0  0  0  0  0  0  0
   -3.2341   20.0396  -34.5372 H   0  0  0  0  0  0  0  0  0  0  0  0
   -4.7770   18.0450  -34.2250 C   0  0  0  0  0  0  0  0  0  0  0  0
   -4.2011   17.2372  -33.7498 H   0  0  0  0  0  0  0  0  0  0  0  0
   -5.5702   17.6104  -34.8511 H   0  0  0  0  0  0  0  0  0  0  0  0
   -4.1076   18.6532  -34.8511 H   0  0  0  0  0  0  0  0  0  0  0  0
   -5.8560   18.0500  -32.0490 C   0  0  0  0  0  0  0  0  0  0  0  0
   -5.5934   18.5280  -31.0937 H   0  0  0  0  0  0  0  0  0  0  0  0
   -6.9475   17.9284  -32.1103 H   0  0  0  0  0  0  0  0  0  0  0  0
   -5.3731   17.0636  -32.1103 H   0  0  0  0  0  0  0  0  0  0  0  0
   -9.3760   19.3060  -32.6290 C   0  0  0  0  0  0  0  0  0  0  0  0
   -9.6989   18.8552  -31.6790 H   0  0  0  0  0  0  0  0  0  0  0  0
  -10.2593   19.6153  -33.2071 H   0  0  0  0  0  0  0  0  0  0  0  0
   -8.7991   18.5691  -33.2071 H   0  0  0  0  0  0  0  0  0  0  0  0
  1  2  1  0
  2  3  2  3
  3  4  1  0
  4  5  1  0
  4  6  1  0
  4  7  1  0
  3  8  1  0
  8  9  1  0
  8 10  1  0
  8 11  1  0
  2 12  1  0
 12 13  1  0
 12 14  1  0
 12 15  1  0
 15 16  1  0
 15 17  1  0
 15 18  1  0
 18 19  2  0
 19 20  1  0
 19 21  1  0
 21 22  1  0
 21 23  1  0
 21 24  1  0
 24 25  1  0
 25 26  2  0
 26 27  1  0
 26 28  1  0
 28 29  1  0
 28 30  2  0
 30 31  1  0
 30 32  1  0
 32 33  1  0
 32 34  2  0
 34 35  1  0
 24 36  1  0
 36 37  1  0
 36 38  1  0
 36 39  1  0
 24 40  1  0
 40 41  1  0
 40 42  1  0
 40 43  1  0
 18 44  1  0
 44 45  1  0
 44 46  1  0
 44 47  1  0
 34 25  1  0
M  CHG  1  24   1
M  END
>  <UniqueID>  (5) 
5

>  <SMILES>  (5) 
CC(C)=CCC/C(C)=C/C[N+](C)(C)c1ccccc1

>  <Energy>  (5) 
55.337154696275675

>  <Genealogy>  (5) 
CC(C)=CCC/C(C)=C/C[N+](C)(C)c1ccccc1 (cis-trans isomerization)
CC(C)=CCC/C(C)=C/C[N+](C)(C)c1ccccc1 (3D coordinates assigned)
CC(C)=CCC/C(C)=C/C[N+](C)(C)c1ccccc1 (optimized conformer: 55.337154696275675 kcal/mol)

>  <smiles>  (5) 
CC(C)=CCCC(C)=CC[N+](C)(C)c1ccccc1

>  <score_type>  (5) 
oracle

>  <origin>  (5) 
adg

>  <m_score__min__energy>  (5) 
-6.0199999999999996

>  <m_primary>  (5) 
energy

$$$$
5:0
     RDKit          3D

 49 52  0  0  0  0  0  0  0  0999 V2000
   -2.9730   11.6020  -35.6320 C   0  0  0  0  0  0  0  0  0  0  0  0
   -3.7550   12.7230  -35.1260 N   0  0  0  0  0  0  0  0  0  0  0  0
   -3.5460   14.0620  -35.6020 C   0  0  0  0  0  0  0  0  0  0  0  0
   -2.7680   14.2580  -36.5760 O   0  0  0  0  0  0  0  0  0  0  0  0
   -4.2410   15.2170  -34.9830 C   0  0  0  0  0  0  0  0  0  0  0  0
   -5.3890   15.0080  -34.1990 C   0  0  0  0  0  0  0  0  0  0  0  0
   -6.0570   16.0860  -33.6130 C   0  0  0  0  0  0  0  0  0  0  0  0
   -5.5980   17.4010  -33.8050 C   0  0  0  0  0  0  0  0  0  0  0  0
   -6.3070   18.5470  -33.1830 C   0  0  0  0  0  0  0  0  0  0  0  0
   -6.1060   19.8560  -33.6600 C   0  0  0  0  0  0  0  0  0  0  0  0
   -6.7730   20.9350  -33.0730 C   0  0  0  0  0  0  0  0  0  0  0  0
   -7.6570   20.7240  -32.0080 C   0  0  0  0  0  0  0  0  0  0  0  0
   -8.4800   22.0880  -31.2610 S   0  0  0  0  0  0  0  0  0  0  0  0
   -8.9110   23.0500  -32.3340 O   0  0  0  0  0  0  0  0  0  0  0  0
   -9.6980   21.5980  -30.5260 O   0  0  0  0  0  0  0  0  0  0  0  0
   -7.4080   22.8290  -30.1750 O   0  0  0  0  0  0  0  0  0  0  0  0
   -6.9210   24.0280  -30.7400 C   0  0  2  0  0  0  0  0  0  0  0  0
   -5.7680   23.7720  -31.7410 C   0  0  0  0  0  0  0  0  0  0  0  0
   -4.6040   24.5230  -31.2130 N   0  0  0  0  0  0  0  0  0  0  0  0
   -4.1160   23.7950  -30.0180 C   0  0  0  0  0  0  0  0  0  0  0  0
   -5.1760   24.0380  -28.9270 C   0  0  0  0  0  0  0  0  0  0  0  0
   -6.2010   24.8900  -29.6870 C   0  0  1  0  0  0  0  0  0  0  0  0
   -5.2720   25.6570  -30.5850 C   0  0  0  0  0  0  0  0  0  0  0  0
   -7.8560   19.4260  -31.5220 C   0  0  0  0  0  0  0  0  0  0  0  0
   -7.1890   18.3440  -32.1060 C   0  0  0  0  0  0  0  0  0  0  0  0
   -4.4580   17.6120  -34.6000 C   0  0  0  0  0  0  0  0  0  0  0  0
   -3.7890   16.5330  -35.1870 C   0  0  0  0  0  0  0  0  0  0  0  0
   -2.5703   11.0247  -34.7867 H   0  0  0  0  0  0  0  0  0  0  0  0
   -3.6159   10.9538  -36.2456 H   0  0  0  0  0  0  0  0  0  0  0  0
   -2.1426   11.9815  -36.2456 H   0  0  0  0  0  0  0  0  0  0  0  0
   -4.5130   12.5200  -34.4360 H   0  0  0  0  0  0  0  0  0  0  0  0
   -5.7650   13.9857  -34.0455 H   0  0  0  0  0  0  0  0  0  0  0  0
   -6.9495   15.9045  -32.9962 H   0  0  0  0  0  0  0  0  0  0  0  0
   -5.4189   20.0311  -34.5010 H   0  0  0  0  0  0  0  0  0  0  0  0
   -6.6026   21.9544  -33.4495 H   0  0  0  0  0  0  0  0  0  0  0  0
   -7.8106   24.4941  -31.1887 H   0  0  0  0  0  0  0  0  0  0  0  0
   -5.5386   22.6975  -31.7952 H   0  0  0  0  0  0  0  0  0  0  0  0
   -6.0335   24.0971  -32.7578 H   0  0  0  0  0  0  0  0  0  0  0  0
   -4.0251   22.7201  -30.2332 H   0  0  0  0  0  0  0  0  0  0  0  0
   -3.1209   24.1444  -29.7053 H   0  0  0  0  0  0  0  0  0  0  0  0
   -5.6179   23.0932  -28.5775 H   0  0  0  0  0  0  0  0  0  0  0  0
   -4.7834   24.5126  -28.0156 H   0  0  0  0  0  0  0  0  0  0  0  0
   -6.9012   25.4072  -29.0145 H   0  0  0  0  0  0  0  0  0  0  0  0
   -5.8155   26.2753  -31.3146 H   0  0  0  0  0  0  0  0  0  0  0  0
   -4.6154   26.3856  -30.0870 H   0  0  0  0  0  0  0  0  0  0  0  0
   -8.5398   19.2564  -30.6773 H   0  0  0  0  0  0  0  0  0  0  0  0
   -7.3553   17.3273  -31.7204 H   0  0  0  0  0  0  0  0  0  0  0  0
   -4.0886   18.6354  -34.7620 H   0  0  0  0  0  0  0  0  0  0  0  0
   -2.9029   16.7151  -35.8128 H   0  0  0  0  0  0  0  0  0  0  0  0
  1  2  1  0
  2  3  1  0
  3  4  2  0
  3  5  1  0
  5  6  2  0
  6  7  1  0
  7  8  2  0
  8  9  1  0
  9 10  2  0
 10 11  1  0
 11 12  2  0
 12 13  1  0
 13 14  2  0
 13 15  2  0
 13 16  1  0
 16 17  1  0
 17 18  1  0
 19 18  1  0
 19 20  1  0
 20 21  1  0
 21 22  1  0
 22 23  1  0
 12 24  1  0
 24 25  2  0
  8 26  1  0
 26 27  2  0
 27  5  1  0
 25  9  1  0
 22 17  1  0
 23 19  1  0
  1 28  1  0
  1 29  1  0
  1 30  1  0
  2 31  1  0
  6 32  1  0
  7 33  1  0
 10 34  1  0
 11 35  1  0
 17 36  1  6
 18 37  1  0
 18 38  1  0
 20 39  1  0
 20 40  1  0
 21 41  1  0
 21 42  1  0
 22 43  1  1
 23 44  1  0
 23 45  1  0
 24 46  1  0
 25 47  1  0
 26 48  1  0
 27 49  1  0
M  END
>  <UniqueID>  (6) 
6

>  <SMILES>  (6) 
CNC(=O)c1ccc(-c2ccc(S(=O)(=O)O[C@@H]3C[N@]4CCC3C4)cc2)cc1

>  <Energy>  (6) 
88.40173553193628

>  <Genealogy>  (6) 
CNC(=O)c1ccc(-c2ccc(S(=O)(=O)O[C@@H]3C[N@]4CCC3C4)cc2)cc1 (chirality)
CNC(=O)c1ccc(-c2ccc(S(=O)(=O)O[C@@H]3C[N@]4CCC3C4)cc2)cc1 (3D coordinates assigned)
CNC(=O)c1ccc(-c2ccc(S(=O)(=O)O[C@@H]3C[N@]4CCC3C4)cc2)cc1 (nonaromatic ring conformer: 88.40173553193628 kcal/mol)

>  <smiles>  (6) 
CNC(=O)c1ccc(-c2ccc(S(=O)(=O)OC3CN4CCC3C4)cc2)cc1

>  <score_type>  (6) 
oracle

>  <origin>  (6) 
adg

>  <m_score__min__energy>  (6) 
-9.4499999999999993

>  <m_primary>  (6) 
energy

$$$$
6:0
     RDKit          3D

 31 33  0  0  0  0  0  0  0  0999 V2000
   -9.2430   21.9260  -30.0670 O   0  0  0  0  0  0  0  0  0  0  0  0
   -8.4430   22.0830  -31.3300 S   0  0  0  0  0  0  0  0  0  0  0  0
   -9.3020   22.7840  -32.3440 O   0  0  0  0  0  0  0  0  0  0  0  0
   -6.9970   23.0330  -31.0110 C   0  0  0  0  0  0  0  0  0  0  0  0
   -5.7270   22.4760  -31.2160 C   0  0  0  0  0  0  0  0  0  0  0  0
   -4.5780   23.2260  -30.9430 C   0  0  0  0  0  0  0  0  0  0  0  0
   -4.6940   24.5330  -30.4590 C   0  0  0  0  0  0  0  0  0  0  0  0
   -3.5800   25.2590  -30.1930 F   0  0  0  0  0  0  0  0  0  0  0  0
   -5.9590   25.0900  -30.2440 C   0  0  0  0  0  0  0  0  0  0  0  0
   -7.1080   24.3410  -30.5170 C   0  0  0  0  0  0  0  0  0  0  0  0
   -7.9650   20.5020  -31.9350 C   0  0  0  0  0  0  0  0  0  0  0  0
   -8.5640   19.3430  -31.4260 C   0  0  0  0  0  0  0  0  0  0  0  0
   -8.2030   18.0850  -31.9180 C   0  0  0  0  0  0  0  0  0  0  0  0
   -7.2410   17.9750  -32.9330 C   0  0  0  0  0  0  0  0  0  0  0  0
   -6.8710   16.7180  -33.4360 C   0  0  0  0  0  0  0  0  0  0  0  0
   -5.9140   16.6220  -34.4500 C   0  0  0  0  0  0  0  0  0  0  0  0
   -5.3200   17.7770  -34.9680 C   0  0  0  0  0  0  0  0  0  0  0  0
   -5.6790   19.0350  -34.4760 C   0  0  0  0  0  0  0  0  0  0  0  0
   -6.6390   19.1450  -33.4570 C   0  0  0  0  0  0  0  0  0  0  0  0
   -7.0090   20.4010  -32.9550 C   0  0  0  0  0  0  0  0  0  0  0  0
   -5.6336   21.4466  -31.5925 H   0  0  0  0  0  0  0  0  0  0  0  0
   -3.5829   22.7875  -31.1091 H   0  0  0  0  0  0  0  0  0  0  0  0
   -6.0500   26.1169  -29.8603 H   0  0  0  0  0  0  0  0  0  0  0  0
   -8.1020   24.7791  -30.3437 H   0  0  0  0  0  0  0  0  0  0  0  0
   -9.3233   19.4228  -30.6341 H   0  0  0  0  0  0  0  0  0  0  0  0
   -8.6744   17.1795  -31.5082 H   0  0  0  0  0  0  0  0  0  0  0  0
   -7.3352   15.8066  -33.0313 H   0  0  0  0  0  0  0  0  0  0  0  0
   -5.6272   15.6349  -34.8417 H   0  0  0  0  0  0  0  0  0  0  0  0
   -4.5672   17.6952  -35.7659 H   0  0  0  0  0  0  0  0  0  0  0  0
   -5.2088   19.9403  -34.8876 H   0  0  0  0  0  0  0  0  0  0  0  0
   -6.5466   21.3116  -33.3638 H   0  0  0  0  0  0  0  0  0  0  0  0
  1  2  2  0
  2  3  2  0
  2  4  1  0
  4  5  2  0
  5  6  1  0
  6  7  2  0
  7  8  1  0
  7  9  1  0
  9 10  2  0
  2 11  1  0
 11 12  2  0
 12 13  1  0
 13 14  2  0
 14 15  1  0
 15 16  2  0
 16 17  1  0
 17 18  2  0
 18 19  1  0
 19 20  2  0
 10  4  1  0
 20 11  1  0
 19 14  1  0
  5 21  1  0
  6 22  1  0
  9 23  1  0
 10 24  1  0
 12 25  1  0
 13 26  1  0
 15 27  1  0
 16 28  1  0
 17 29  1  0
 18 30  1  0
 20 31  1  0
M  END
>  <UniqueID>  (7) 
7

>  <SMILES>  (7) 
O=S(=O)(c1ccc(F)cc1)c1ccc2ccccc2c1

>  <Energy>  (7) 
38.74692283548724

>  <Genealogy>  (7) 
O=S(=O)(c1ccc(F)cc1)c1ccc2ccccc2c1 (3D coordinates assigned)
O=S(=O)(c1ccc(F)cc1)c1ccc2ccccc2c1 (optimized conformer: 38.74692283548724 kcal/mol)

>  <smiles>  (7) 
O=S(=O)(c1ccc(F)cc1)c1ccc2ccccc2c1

>  <score_type>  (7) 
oracle

>  <origin>  (7) 
adg

>  <m_score__min__energy>  (7) 
-9.1600000000000001

>  <m_primary>  (7) 
energy

$$$$
7:0
     RDKit          3D

 42 45  0  0  0  0  0  0  0  0999 V2000
   -5.2760   25.2370  -30.4470 C   0  0  0  0  0  0  0  0  0  0  0  0
   -3.8540   25.2440  -30.7720 N   0  0  0  0  0  0  0  0  0  0  0  0
   -2.9420   24.5860  -29.4470 S   0  0  0  0  0  0  0  0  0  0  0  0
   -1.9800   25.6180  -28.9260 O   0  0  0  0  0  0  0  0  0  0  0  0
   -3.8870   24.2180  -28.3380 O   0  0  0  0  0  0  0  0  0  0  0  0
   -2.0600   23.1490  -29.9590 C   0  0  0  0  0  0  0  0  0  0  0  0
   -0.8300   22.8260  -29.3800 C   0  0  0  0  0  0  0  0  0  0  0  0
   -0.1690   21.7040  -29.7650 N   0  0  0  0  0  0  0  0  0  0  0  0
   -0.6710   20.8610  -30.7060 C   0  0  0  0  0  0  0  0  0  0  0  0
   -1.9090   21.1330  -31.3140 C   0  0  0  0  0  0  0  0  0  0  0  0
   -2.4860   20.2040  -32.3170 C   0  0  0  0  0  0  0  0  0  0  0  0
   -1.6500   19.5240  -33.2450 C   0  0  0  0  0  0  0  0  0  0  0  0
   -2.1810   18.6770  -34.1760 N   0  0  0  0  0  0  0  0  0  0  0  0
   -3.5200   18.4740  -34.1940 C   0  0  0  0  0  0  0  0  0  0  0  0
   -4.2620   17.7020  -35.0570 C   0  0  0  0  0  0  0  0  0  0  0  0
   -5.5810   17.8880  -34.6490 C   0  0  0  0  0  0  0  0  0  0  0  0
   -5.6420   18.7250  -33.5820 N   0  0  0  0  0  0  0  0  0  0  0  0
   -6.8410   19.1330  -32.9000 C   0  0  0  0  0  0  0  0  0  0  0  0
   -7.6800   18.1720  -32.3140 C   0  0  0  0  0  0  0  0  0  0  0  0
   -8.8460   18.5630  -31.6480 C   0  0  0  0  0  0  0  0  0  0  0  0
   -9.1790   19.9170  -31.5560 C   0  0  0  0  0  0  0  0  0  0  0  0
   -8.3410   20.8860  -32.1220 C   0  0  0  0  0  0  0  0  0  0  0  0
   -8.6790   22.2810  -32.0190 C   0  0  0  0  0  0  0  0  0  0  0  0
   -8.9530   23.4020  -31.9350 N   0  0  0  0  0  0  0  0  0  0  0  0
   -7.1700   20.4950  -32.7850 C   0  0  0  0  0  0  0  0  0  0  0  0
   -4.3680   19.0840  -33.3190 C   0  0  0  0  0  0  0  0  0  0  0  0
   -3.8820   19.9810  -32.3670 C   0  0  0  0  0  0  0  0  0  0  0  0
   -2.5980   22.2970  -30.9300 C   0  0  0  0  0  0  0  0  0  0  0  0
   -5.4024   25.2364  -29.3543 H   0  0  0  0  0  0  0  0  0  0  0  0
   -5.7534   26.1328  -30.8708 H   0  0  0  0  0  0  0  0  0  0  0  0
   -5.7446   24.3365  -30.8708 H   0  0  0  0  0  0  0  0  0  0  0  0
   -0.3963   23.4819  -28.6108 H   0  0  0  0  0  0  0  0  0  0  0  0
   -0.1059   19.9619  -30.9930 H   0  0  0  0  0  0  0  0  0  0  0  0
   -0.5619   19.6821  -33.2127 H   0  0  0  0  0  0  0  0  0  0  0  0
   -3.8957   17.0770  -35.8848 H   0  0  0  0  0  0  0  0  0  0  0  0
   -6.4545   17.4201  -35.1266 H   0  0  0  0  0  0  0  0  0  0  0  0
   -7.4188   17.1054  -32.3790 H   0  0  0  0  0  0  0  0  0  0  0  0
   -9.5016   17.8040  -31.1962 H   0  0  0  0  0  0  0  0  0  0  0  0
  -10.1004   20.2222  -31.0384 H   0  0  0  0  0  0  0  0  0  0  0  0
   -6.5052   21.2572  -33.2174 H   0  0  0  0  0  0  0  0  0  0  0  0
   -4.5637   20.4990  -31.6764 H   0  0  0  0  0  0  0  0  0  0  0  0
   -3.5649   22.5391  -31.3953 H   0  0  0  0  0  0  0  0  0  0  0  0
  1  2  1  0
  2  3  1  0
  3  4  2  0
  3  5  2  0
  3  6  1  0
  6  7  2  0
  7  8  1  0
  8  9  2  0
  9 10  1  0
 10 11  1  0
 11 12  2  0
 12 13  1  0
 13 14  2  0
 14 15  1  0
 15 16  2  0
 16 17  1  0
 17 18  1  0
 18 19  2  0
 19 20  1  0
 20 21  2  0
 21 22  1  0
 22 23  1  0
 23 24  3  0
 22 25  2  0
 17 26  1  0
 26 27  2  0
 10 28  2  0
 28  6  1  0
 27 11  1  0
 26 14  1  0
 25 18  1  0
  1 29  1  0
  1 30  1  0
  1 31  1  0
  7 32  1  0
  9 33  1  0
 12 34  1  0
 15 35  1  0
 16 36  1  0
 19 37  1  0
 20 38  1  0
 21 39  1  0
 25 40  1  0
 27 41  1  0
 28 42  1  0
M  CHG  1   2  -1
M  END
>  <UniqueID>  (8) 
8

>  <SMILES>  (8) 
C[N-]S(=O)(=O)c1cncc(-c2cnc3ccn(-c4cccc(C#N)c4)c3c2)c1

>  <Energy>  (8) 
90.58806651816057

>  <Genealogy>  (8) 
C[N-]S(=O)(=O)c1cncc(-c2cnc3ccn(-c4cccc(C#N)c4)c3c2)c1 (protonated)
C[N-]S(=O)(=O)c1cncc(-c2cnc3ccn(-c4cccc(C#N)c4)c3c2)c1 (3D coordinates assigned)
C[N-]S(=O)(=O)c1cncc(-c2cnc3ccn(-c4cccc(C#N)c4)c3c2)c1 (optimized conformer: 90.58806651816057 kcal/mol)

>  <smiles>  (8) 
CNS(=O)(=O)c1cncc(-c2cnc3ccn(-c4cccc(C#N)c4)c3c2)c1

>  <score_type>  (8) 
oracle

>  <origin>  (8) 
adg

>  <m_score__min__energy>  (8) 
-11.23

>  <m_primary>  (8) 
energy

$$$$
8:0
     RDKit          3D

 55 56  0  0  0  0  0  0  0  0999 V2000
   -8.9550   18.2407  -31.5812 H   0  0  0  0  0  0  0  0  0  0  0  0
   -8.2520   18.9560  -32.0330 C   0  0  0  0  0  0  0  0  0  0  0  0
   -7.0450   18.5060  -32.4000 C   0  0  0  0  0  0  0  0  0  0  0  0
   -6.3803   18.1281  -31.6092 H   0  0  0  0  0  0  0  0  0  0  0  0
   -8.6940   21.2630  -31.2090 C   0  0  0  0  0  0  0  0  0  0  0  0
   -9.4309   21.1351  -30.4024 H   0  0  0  0  0  0  0  0  0  0  0  0
   -6.5290   18.4790  -33.8190 C   0  0  0  0  0  0  0  0  0  0  0  0
   -6.3434   19.5128  -34.1459 H   0  0  0  0  0  0  0  0  0  0  0  0
   -7.2913   17.9869  -34.4409 H   0  0  0  0  0  0  0  0  0  0  0  0
   -5.2710   17.7050  -33.9550 N   0  0  2  0  0  0  0  0  0  0  0  0
   -5.4000   17.0120  -34.7280 H   0  0  0  0  0  0  0  0  0  0  0  0
   -5.0280   16.9110  -32.7360 C   0  0  0  0  0  0  0  0  0  0  0  0
   -5.2184   17.5332  -31.8491 H   0  0  0  0  0  0  0  0  0  0  0  0
   -5.7010   16.0410  -32.7249 H   0  0  0  0  0  0  0  0  0  0  0  0
   -3.9833   16.5666  -32.7249 H   0  0  0  0  0  0  0  0  0  0  0  0
   -4.0870   18.5270  -34.3230 C   0  0  0  0  0  0  0  0  0  0  0  0
   -4.4358   19.5428  -34.5606 H   0  0  0  0  0  0  0  0  0  0  0  0
   -3.6115   18.0215  -35.1764 H   0  0  0  0  0  0  0  0  0  0  0  0
   -3.0090   18.6340  -33.2250 C   0  0  0  0  0  0  0  0  0  0  0  0
   -2.0163   18.4854  -33.6749 H   0  0  0  0  0  0  0  0  0  0  0  0
   -3.1954   17.8630  -32.4629 H   0  0  0  0  0  0  0  0  0  0  0  0
   -3.0620   19.9910  -32.5740 C   0  0  0  0  0  0  0  0  0  0  0  0
   -4.1650   20.8280  -32.7790 C   0  0  0  0  0  0  0  0  0  0  0  0
   -5.0086   20.4800  -33.3932 H   0  0  0  0  0  0  0  0  0  0  0  0
   -4.2010   22.1010  -32.2090 C   0  0  0  0  0  0  0  0  0  0  0  0
   -5.0764   22.7472  -32.3704 H   0  0  0  0  0  0  0  0  0  0  0  0
   -3.1250   22.5640  -31.4290 C   0  0  0  0  0  0  0  0  0  0  0  0
   -3.1230   23.8400  -30.8420 O   0  0  0  0  0  0  0  0  0  0  0  0
   -2.9380   24.0860  -29.4530 C   0  0  0  0  0  0  0  0  0  0  0  0
   -3.4989   23.3402  -28.8706 H   0  0  0  0  0  0  0  0  0  0  0  0
   -1.8682   24.0142  -29.2072 H   0  0  0  0  0  0  0  0  0  0  0  0
   -3.3039   25.0938  -29.2072 H   0  0  0  0  0  0  0  0  0  0  0  0
   -2.0100   21.7360  -31.2280 C   0  0  0  0  0  0  0  0  0  0  0  0
   -0.9490   22.2260  -30.4490 O   0  0  0  0  0  0  0  0  0  0  0  0
   -0.4800   21.6170  -29.2510 C   0  0  0  0  0  0  0  0  0  0  0  0
   -0.8918   22.1517  -28.3823 H   0  0  0  0  0  0  0  0  0  0  0  0
   -0.8045   20.5663  -29.2224 H   0  0  0  0  0  0  0  0  0  0  0  0
    0.6187   21.6623  -29.2224 H   0  0  0  0  0  0  0  0  0  0  0  0
   -1.9800   20.4530  -31.8090 C   0  0  0  0  0  0  0  0  0  0  0  0
   -1.1012   19.8080  -31.6618 H   0  0  0  0  0  0  0  0  0  0  0  0
   -8.6970   20.3590  -32.1990 C   0  0  0  0  0  0  0  0  0  0  0  0
   -9.0500   20.6773  -33.1910 H   0  0  0  0  0  0  0  0  0  0  0  0
   -7.7760   22.4190  -31.1180 C   0  0  0  0  0  0  0  0  0  0  0  0
   -7.4140   23.0980  -32.2900 C   0  0  0  0  0  0  0  0  0  0  0  0
   -7.8393   22.7868  -33.2556 H   0  0  0  0  0  0  0  0  0  0  0  0
   -6.5160   24.1680  -32.2390 C   0  0  0  0  0  0  0  0  0  0  0  0
   -6.2490   24.7040  -33.1617 H   0  0  0  0  0  0  0  0  0  0  0  0
   -5.9550   24.5600  -31.0170 C   0  0  0  0  0  0  0  0  0  0  0  0
   -5.0330   25.6510  -30.9660 N   0  0  0  0  0  0  0  0  0  0  0  0
   -5.1800   26.4460  -30.3040 H   0  0  0  0  0  0  0  0  0  0  0  0
   -4.1950   25.6730  -31.5890 H   0  0  0  0  0  0  0  0  0  0  0  0
   -6.2910   23.8660  -29.8470 C   0  0  0  0  0  0  0  0  0  0  0  0
   -5.8470   24.1646  -28.8859 H   0  0  0  0  0  0  0  0  0  0  0  0
   -7.1890   22.7950  -29.8970 C   0  0  0  0  0  0  0  0  0  0  0  0
   -7.4370   22.2446  -28.9774 H   0  0  0  0  0  0  0  0  0  0  0  0
  1  2  1  0
  2  3  1  0
  3  4  1  0
  3  5  2  0
  5  6  1  0
  5  7  1  0
  7  8  1  0
  7  9  1  0
  7 10  1  0
 10 11  1  6
 10 12  1  0
 12 13  1  0
 12 14  1  0
 12 15  1  0
 10 16  1  0
 16 17  1  0
 16 18  1  0
 16 19  1  0
 19 20  1  0
 19 21  1  0
 19 22  1  0
 22 23  2  0
 23 24  1  0
 23 25  1  0
 25 26  1  0
 25 27  2  0
 27 28  1  0
 28 29  1  0
 29 30  1  0
 29 31  1  0
 29 32  1  0
 27 33  1  0
 33 34  1  0
 34 35  1  0
 35 36  1  0
 35 37  1  0
 35 38  1  0
 33 39  2  0
 39 40  1  0
  2 41  2  0
 41 42  1  0
 41 43  1  0
 43 44  2  0
 44 45  1  0
 44 46  1  0
 46 47  1  0
 46 48  2  0
 48 49  1  0
 49 50  1  0
 49 51  1  0
 48 52  1  0
 52 53  1  0
 52 54  2  0
 54 55  1  0
 39 22  1  0
 54 43  1  0
M  CHG  1  10   1
M  END
>  <UniqueID>  (9) 
9

>  <SMILES>  (9) 
COc1ccc(CC[N@@H+](C)C/C=C\C=C/c2ccc(N)cc2)cc1OC

>  <Energy>  (9) 
59.76106661822017

>  <Genealogy>  (9) 
COc1ccc(CC[NH+](C)CC=CC=Cc2ccc(N)cc2)cc1OC (protonated)
COc1ccc(CC[N@@H+](C)CC=CC=Cc2ccc(N)cc2)cc1OC (chirality)
COc1ccc(CC[N@@H+](C)C/C=C\C=C/c2ccc(N)cc2)cc1OC (cis-trans isomerization)
COc1ccc(CC[N@@H+](C)C/C=C\C=C/c2ccc(N)cc2)cc1OC (3D coordinates assigned)
COc1ccc(CC[N@@H+](C)C/C=C\C=C/c2ccc(N)cc2)cc1OC (optimized conformer: 59.76106661822017 kcal/mol)

>  <smiles>  (9) 
COc1ccc(CCN(C)CC=CC=Cc2ccc(N)cc2)cc1OC

>  <score_type>  (9) 
oracle

>  <origin>  (9) 
adg

>  <m_score__min__energy>  (9) 
-7.8600000000000003

>  <m_primary>  (9) 
energy

$$$$
9:0
     RDKit          3D

 44 46  0  0  0  0  0  0  0  0999 V2000
   -1.2760   25.5050  -29.1290 O   0  0  0  0  0  0  0  0  0  0  0  0
   -2.1360   24.5980  -29.2910 C   0  0  0  0  0  0  0  0  0  0  0  0
   -3.3780   24.9320  -29.9250 N   0  0  0  0  0  0  0  0  0  0  0  0
   -4.7030   24.4410  -29.5380 C   0  0  2  0  0  0  0  0  0  0  0  0
   -4.8130   22.9230  -29.8240 C   0  0  0  0  0  0  0  0  0  0  0  0
   -6.2590   22.5170  -30.1460 C   0  0  0  0  0  0  0  0  0  0  0  0
   -6.8070   23.2300  -31.3360 N   0  0  2  0  0  0  0  0  0  0  0  0
   -6.8660   22.3830  -32.5570 C   0  0  0  0  0  0  0  0  0  0  0  0
   -7.3340   20.9590  -32.3160 C   0  0  0  0  0  0  0  0  0  0  0  0
   -8.6870   20.6830  -32.0460 C   0  0  0  0  0  0  0  0  0  0  0  0
   -9.1110   19.3690  -31.8240 C   0  0  0  0  0  0  0  0  0  0  0  0
   -8.1960   18.3160  -31.8900 C   0  0  0  0  0  0  0  0  0  0  0  0
   -6.8560   18.5740  -32.1920 C   0  0  0  0  0  0  0  0  0  0  0  0
   -6.4280   19.8860  -32.4150 C   0  0  0  0  0  0  0  0  0  0  0  0
   -6.1780   24.5530  -31.5950 C   0  0  0  0  0  0  0  0  0  0  0  0
   -5.7830   25.2500  -30.2880 C   0  0  0  0  0  0  0  0  0  0  0  0
   -1.8190   23.2270  -28.8530 C   0  0  0  0  0  0  0  0  0  0  0  0
   -1.2910   22.2880  -29.7540 C   0  0  0  0  0  0  0  0  0  0  0  0
   -0.9960   20.9910  -29.3280 C   0  0  0  0  0  0  0  0  0  0  0  0
   -1.2360   20.6160  -28.0010 C   0  0  0  0  0  0  0  0  0  0  0  0
   -0.8640   18.9880  -27.4670 Cl  0  0  0  0  0  0  0  0  0  0  0  0
   -1.7820   21.5400  -27.1040 C   0  0  0  0  0  0  0  0  0  0  0  0
   -2.0790   22.8390  -27.5290 C   0  0  0  0  0  0  0  0  0  0  0  0
   -4.8576   24.5809  -28.4579 H   0  0  0  0  0  0  0  0  0  0  0  0
   -4.1715   22.6730  -30.6819 H   0  0  0  0  0  0  0  0  0  0  0  0
   -4.4921   22.3770  -28.9246 H   0  0  0  0  0  0  0  0  0  0  0  0
   -6.2852   21.4348  -30.3415 H   0  0  0  0  0  0  0  0  0  0  0  0
   -6.8807   22.7898  -29.2805 H   0  0  0  0  0  0  0  0  0  0  0  0
   -7.8090   23.4360  -31.1050 H   0  0  0  0  0  0  0  0  0  0  0  0
   -7.5581   22.8557  -33.2694 H   0  0  0  0  0  0  0  0  0  0  0  0
   -5.8364   22.3127  -32.9378 H   0  0  0  0  0  0  0  0  0  0  0  0
   -9.4159   21.5060  -32.0093 H   0  0  0  0  0  0  0  0  0  0  0  0
  -10.1677   19.1643  -31.5969 H   0  0  0  0  0  0  0  0  0  0  0  0
   -8.5297   17.2844  -31.7044 H   0  0  0  0  0  0  0  0  0  0  0  0
   -6.1372   17.7436  -32.2543 H   0  0  0  0  0  0  0  0  0  0  0  0
   -5.3759   20.0814  -32.6696 H   0  0  0  0  0  0  0  0  0  0  0  0
   -5.2772   24.4069  -32.2091 H   0  0  0  0  0  0  0  0  0  0  0  0
   -6.9086   25.1872  -32.1184 H   0  0  0  0  0  0  0  0  0  0  0  0
   -5.3886   26.2507  -30.5182 H   0  0  0  0  0  0  0  0  0  0  0  0
   -6.6737   25.3267  -29.6470 H   0  0  0  0  0  0  0  0  0  0  0  0
   -1.1089   22.5753  -30.8001 H   0  0  0  0  0  0  0  0  0  0  0  0
   -0.5743   20.2629  -30.0366 H   0  0  0  0  0  0  0  0  0  0  0  0
   -1.9781   21.2446  -26.0627 H   0  0  0  0  0  0  0  0  0  0  0  0
   -2.5180   23.5594  -26.8231 H   0  0  0  0  0  0  0  0  0  0  0  0
  1  2  2  0
  2  3  1  0
  3  4  1  0
  4  5  1  0
  5  6  1  0
  6  7  1  0
  7  8  1  0
  8  9  1  0
  9 10  2  0
 10 11  1  0
 11 12  2  0
 12 13  1  0
 13 14  2  0
  7 15  1  0
 15 16  1  0
  2 17  1  0
 17 18  2  0
 18 19  1  0
 19 20  2  0
 20 21  1  0
 20 22  1  0
 22 23  2  0
 16  4  1  0
 23 17  1  0
 14  9  1  0
  4 24  1  1
  5 25  1  0
  5 26  1  0
  6 27  1  0
  6 28  1  0
  7 29  1  1
  8 30  1  0
  8 31  1  0
 10 32  1  0
 11 33  1  0
 12 34  1  0
 13 35  1  0
 14 36  1  0
 15 37  1  0
 15 38  1  0
 16 39  1  0
 16 40  1  0
 18 41  1  0
 19 42  1  0
 22 43  1  0
 23 44  1  0
M  CHG  2   3  -1   7   1
M  END
>  <UniqueID>  (10) 
10

>  <SMILES>  (10) 
O=C([N-]C1CC[NH+](Cc2ccccc2)CC1)c1ccc(Cl)cc1

>  <Energy>  (10) 
60.24117827189046

>  <Genealogy>  (10) 
O=C([N-]C1CC[NH+](Cc2ccccc2)CC1)c1ccc(Cl)cc1 (protonated)
O=C([N-]C1CC[NH+](Cc2ccccc2)CC1)c1ccc(Cl)cc1 (3D coordinates assigned)
O=C([N-]C1CC[NH+](Cc2ccccc2)CC1)c1ccc(Cl)cc1 (nonaromatic ring conformer: 60.24117827189046 kcal/mol)

>  <smiles>  (10) 
O=C(NC1CCN(Cc2ccccc2)CC1)c1ccc(Cl)cc1

>  <score_type>  (10) 
oracle

>  <origin>  (10) 
adg

>  <m_score__min__energy>  (10) 
-9.6600000000000001

>  <m_primary>  (10) 
energy

$$$$
10:0
     RDKit          3D

 27 27  0  0  0  0  0  0  0  0999 V2000
   -3.3680   21.4820  -29.7440 C   0  0  0  0  0  0  0  0  0  0  0  0
   -2.6090   22.4340  -30.5710 N   0  0  0  0  0  0  0  0  0  0  0  0
   -1.6600   21.7000  -31.4220 C   0  0  0  0  0  0  0  0  0  0  0  0
   -1.8990   23.4250  -29.7320 C   0  0  0  0  0  0  0  0  0  0  0  0
   -2.8330   24.5650  -29.3100 C   0  0  0  0  0  0  0  0  0  0  0  0
   -3.5150   25.1420  -30.4680 N   0  0  0  0  0  0  0  0  0  0  0  0
   -4.9320   25.1810  -30.6760 C   0  0  0  0  0  0  0  0  0  0  0  0
   -5.5490   26.2550  -30.4490 O   0  0  0  0  0  0  0  0  0  0  0  0
   -5.6900   24.0120  -31.1530 C   0  0  0  0  0  0  0  0  0  0  0  0
   -7.0420   23.8080  -30.9480 C   0  0  0  0  0  0  0  0  0  0  0  0
   -7.3300   22.5920  -31.5310 C   0  0  0  0  0  0  0  0  0  0  0  0
   -9.0380   21.7480  -31.6000 Br  0  0  0  0  0  0  0  0  0  0  0  0
   -6.1510   22.0960  -32.0450 C   0  0  0  0  0  0  0  0  0  0  0  0
   -5.1510   22.9640  -31.8070 N   0  0  0  0  0  0  0  0  0  0  0  0
   -3.1938   21.7005  -28.6801 H   0  0  0  0  0  0  0  0  0  0  0  0
   -4.4410   21.5769  -29.9669 H   0  0  0  0  0  0  0  0  0  0  0  0
   -3.0364   20.4571  -29.9669 H   0  0  0  0  0  0  0  0  0  0  0  0
   -0.9488   21.1499  -30.7882 H   0  0  0  0  0  0  0  0  0  0  0  0
   -2.2102   20.9901  -32.0571 H   0  0  0  0  0  0  0  0  0  0  0  0
   -1.1113   22.4110  -32.0571 H   0  0  0  0  0  0  0  0  0  0  0  0
   -1.5154   22.9234  -28.8313 H   0  0  0  0  0  0  0  0  0  0  0  0
   -1.0730   23.8512  -30.3202 H   0  0  0  0  0  0  0  0  0  0  0  0
   -3.5845   24.1730  -28.6088 H   0  0  0  0  0  0  0  0  0  0  0  0
   -2.2309   25.3513  -28.8312 H   0  0  0  0  0  0  0  0  0  0  0  0
   -7.7429   24.4772  -30.4275 H   0  0  0  0  0  0  0  0  0  0  0  0
   -6.0440   21.1355  -32.5704 H   0  0  0  0  0  0  0  0  0  0  0  0
   -4.1450   22.8180  -32.0440 H   0  0  0  0  0  0  0  0  0  0  0  0
  1  2  1  0
  2  3  1  0
  2  4  1  0
  4  5  1  0
  5  6  1  0
  6  7  1  0
  7  8  2  0
  7  9  1  0
  9 10  2  0
 10 11  1  0
 11 12  1  0
 11 13  2  0
 13 14  1  0
 14  9  1  0
  1 15  1  0
  1 16  1  0
  1 17  1  0
  3 18  1  0
  3 19  1  0
  3 20  1  0
  4 21  1  0
  4 22  1  0
  5 23  1  0
  5 24  1  0
 10 25  1  0
 13 26  1  0
 14 27  1  0
M  CHG  1   6  -1
M  END
>  <UniqueID>  (11) 
11

>  <SMILES>  (11) 
CN(C)CC[N-]C(=O)c1cc(Br)c[nH]1

>  <Energy>  (11) 
50.61763507159206

>  <Genealogy>  (11) 
CN(C)CC[N-]C(=O)c1cc(Br)c[nH]1 (protonated)
CN(C)CC[N-]C(=O)c1cc(Br)c[nH]1 (3D coordinates assigned)
CN(C)CC[N-]C(=O)c1cc(Br)c[nH]1 (optimized conformer: 50.61763507159206 kcal/mol)

>  <smiles>  (11) 
CN(C)CCNC(=O)c1cc(Br)c[nH]1

>  <score_type>  (11) 
oracle

>  <origin>  (11) 
adg

>  <m_score__min__energy>  (11) 
-7.4000000000000004

>  <m_primary>  (11) 
energy

$$$$
11:0
     RDKit          3D

 24 25  0  0  0  0  0  0  0  0999 V2000
   -8.8580   18.7530  -31.8040 C   0  0  0  0  0  0  0  0  0  0  0  0
   -9.0310   20.1360  -31.9210 C   0  0  0  0  0  0  0  0  0  0  0  0
   -7.9420   20.9540  -32.2360 C   0  0  0  0  0  0  0  0  0  0  0  0
   -6.6680   20.3940  -32.4280 C   0  0  0  0  0  0  0  0  0  0  0  0
   -5.5050   21.2670  -32.8000 C   0  0  0  0  0  0  0  0  0  0  0  0
   -4.3750   21.4120  -31.3780 S   0  0  0  0  0  0  0  0  0  0  0  0
   -5.0380   22.9920  -30.8660 C   0  0  0  0  0  0  0  0  0  0  0  0
   -6.3380   23.0890  -30.4790 N   0  0  0  0  0  0  0  0  0  0  0  0
   -6.8590   24.2800  -30.0850 C   0  0  0  0  0  0  0  0  0  0  0  0
   -6.0580   25.4210  -30.0750 C   0  0  0  0  0  0  0  0  0  0  0  0
   -4.7270   25.3020  -30.4760 C   0  0  0  0  0  0  0  0  0  0  0  0
   -4.2430   24.0930  -30.8640 N   0  0  0  0  0  0  0  0  0  0  0  0
   -6.5050   19.0020  -32.3240 C   0  0  0  0  0  0  0  0  0  0  0  0
   -7.5970   18.1870  -32.0080 C   0  0  0  0  0  0  0  0  0  0  0  0
   -9.7147   18.1110  -31.5514 H   0  0  0  0  0  0  0  0  0  0  0  0
  -10.0250   20.5805  -31.7650 H   0  0  0  0  0  0  0  0  0  0  0  0
   -8.0832   22.0405  -32.3339 H   0  0  0  0  0  0  0  0  0  0  0  0
   -4.9688   20.8207  -33.6504 H   0  0  0  0  0  0  0  0  0  0  0  0
   -5.8712   22.2656  -33.0807 H   0  0  0  0  0  0  0  0  0  0  0  0
   -7.9122   24.3441  -29.7740 H   0  0  0  0  0  0  0  0  0  0  0  0
   -6.4658   26.3923  -29.7584 H   0  0  0  0  0  0  0  0  0  0  0  0
   -4.0709   26.1849  -30.4781 H   0  0  0  0  0  0  0  0  0  0  0  0
   -5.5154   18.5519  -32.4917 H   0  0  0  0  0  0  0  0  0  0  0  0
   -7.4628   17.0988  -31.9200 H   0  0  0  0  0  0  0  0  0  0  0  0
  1  2  2  0
  2  3  1  0
  3  4  2  0
  4  5  1  0
  5  6  1  0
  6  7  1  0
  7  8  2  0
  8  9  1  0
  9 10  2  0
 10 11  1  0
 11 12  2  0
  4 13  1  0
 13 14  2  0
 14  1  1  0
 12  7  1  0
  1 15  1  0
  2 16  1  0
  3 17  1  0
  5 18  1  0
  5 19  1  0
  9 20  1  0
 10 21  1  0
 11 22  1  0
 13 23  1  0
 14 24  1  0
M  END
>  <UniqueID>  (12) 
12

>  <SMILES>  (12) 
c1ccc(CSc2ncccn2)cc1

>  <Energy>  (12) 
21.34259790761821

>  <Genealogy>  (12) 
c1ccc(CSc2ncccn2)cc1 (3D coordinates assigned)
c1ccc(CSc2ncccn2)cc1 (optimized conformer: 21.34259790761821 kcal/mol)

>  <smiles>  (12) 
c1ccc(CSc2ncccn2)cc1

>  <score_type>  (12) 
oracle

>  <origin>  (12) 
adg

>  <m_score__min__energy>  (12) 
-6.0599999999999996

>  <m_primary>  (12) 
energy

$$$$
12:0
     RDKit          3D

 44 46  0  0  0  0  0  0  0  0999 V2000
   -2.0180   19.4400  -32.2340 C   0  0  0  0  0  0  0  0  0  0  0  0
   -1.7860   20.6810  -31.4840 N   0  0  0  0  0  0  0  0  0  0  0  0
   -0.7410   20.7110  -30.4480 C   0  0  0  0  0  0  0  0  0  0  0  0
   -1.2880   20.2550  -29.1190 C   0  0  0  0  0  0  0  0  0  0  0  0
   -2.5400   20.7090  -28.6710 C   0  0  0  0  0  0  0  0  0  0  0  0
   -3.0730   20.2360  -27.4680 C   0  0  0  0  0  0  0  0  0  0  0  0
   -2.3590   19.3100  -26.7020 C   0  0  0  0  0  0  0  0  0  0  0  0
   -1.1120   18.8560  -27.1390 C   0  0  0  0  0  0  0  0  0  0  0  0
   -0.5800   19.3200  -28.3450 C   0  0  0  0  0  0  0  0  0  0  0  0
   -2.6000   21.8570  -31.7070 C   0  0  0  0  0  0  0  0  0  0  0  0
   -2.4640   22.8540  -30.9480 O   0  0  0  0  0  0  0  0  0  0  0  0
   -3.6690   21.9160  -32.7750 C   0  0  0  0  0  0  0  0  0  0  0  0
   -5.0400   21.8180  -32.2180 N   0  0  0  0  0  0  0  0  0  0  0  0
   -5.6170   20.5730  -32.2320 C   0  0  0  0  0  0  0  0  0  0  0  0
   -6.9900   20.4160  -32.0860 C   0  0  0  0  0  0  0  0  0  0  0  0
   -7.7710   21.5500  -31.9220 C   0  0  0  0  0  0  0  0  0  0  0  0
   -9.5150   21.4210  -31.8090 Cl  0  0  0  0  0  0  0  0  0  0  0  0
   -7.1750   22.7590  -31.8030 N   0  0  0  0  0  0  0  0  0  0  0  0
   -5.8260   22.9090  -31.8730 C   0  0  0  0  0  0  0  0  0  0  0  0
   -5.3540   24.0890  -31.5750 N   0  0  0  0  0  0  0  0  0  0  0  0
   -5.3250   24.7820  -30.3220 C   0  0  0  0  0  0  0  0  0  0  0  0
   -6.1620   25.6920  -30.0810 O   0  0  0  0  0  0  0  0  0  0  0  0
   -4.2180   24.5560  -29.3880 C   0  0  0  0  0  0  0  0  0  0  0  0
   -4.2480   23.7280  -28.2840 C   0  0  0  0  0  0  0  0  0  0  0  0
   -3.0040   23.8370  -27.7050 C   0  0  0  0  0  0  0  0  0  0  0  0
   -2.2900   24.7190  -28.4910 C   0  0  0  0  0  0  0  0  0  0  0  0
   -3.0420   25.1300  -29.4870 O   0  0  0  0  0  0  0  0  0  0  0  0
   -2.1733   18.6095  -31.5296 H   0  0  0  0  0  0  0  0  0  0  0  0
   -2.9101   19.5555  -32.8671 H   0  0  0  0  0  0  0  0  0  0  0  0
   -1.1444   19.2254  -32.8671 H   0  0  0  0  0  0  0  0  0  0  0  0
    0.0816   20.0446  -30.7467 H   0  0  0  0  0  0  0  0  0  0  0  0
   -0.3793   21.7445  -30.3433 H   0  0  0  0  0  0  0  0  0  0  0  0
   -3.1035   21.4400  -29.2695 H   0  0  0  0  0  0  0  0  0  0  0  0
   -4.0550   20.5929  -27.1241 H   0  0  0  0  0  0  0  0  0  0  0  0
   -2.7788   18.9388  -25.7554 H   0  0  0  0  0  0  0  0  0  0  0  0
   -0.5480   18.1320  -26.5326 H   0  0  0  0  0  0  0  0  0  0  0  0
    0.3974   18.9517  -28.6900 H   0  0  0  0  0  0  0  0  0  0  0  0
   -3.5755   22.8702  -33.3142 H   0  0  0  0  0  0  0  0  0  0  0  0
   -3.5193   21.0551  -33.4431 H   0  0  0  0  0  0  0  0  0  0  0  0
   -4.9819   19.6842  -32.3610 H   0  0  0  0  0  0  0  0  0  0  0  0
   -7.4467   19.4154  -32.1002 H   0  0  0  0  0  0  0  0  0  0  0  0
   -5.0901   23.1101  -27.9390 H   0  0  0  0  0  0  0  0  0  0  0  0
   -2.6500   23.3244  -26.7984 H   0  0  0  0  0  0  0  0  0  0  0  0
   -1.2504   25.0302  -28.3110 H   0  0  0  0  0  0  0  0  0  0  0  0
  1  2  1  0
  2  3  1  0
  3  4  1  0
  4  5  2  0
  5  6  1  0
  6  7  2  0
  7  8  1  0
  8  9  2  0
  2 10  1  0
 10 11  2  0
 10 12  1  0
 12 13  1  0
 13 14  1  0
 14 15  2  0
 15 16  1  0
 16 17  1  0
 16 18  2  0
 18 19  1  0
 19 20  2  3
 20 21  1  0
 21 22  2  0
 21 23  1  0
 23 24  2  0
 24 25  1  0
 25 26  2  0
 26 27  1  0
  9  4  1  0
 19 13  1  0
 27 23  1  0
  1 28  1  0
  1 29  1  0
  1 30  1  0
  3 31  1  0
  3 32  1  0
  5 33  1  0
  6 34  1  0
  7 35  1  0
  8 36  1  0
  9 37  1  0
 12 38  1  0
 12 39  1  0
 14 40  1  0
 15 41  1  0
 24 42  1  0
 25 43  1  0
 26 44  1  0
M  END
>  <UniqueID>  (13) 
13

>  <SMILES>  (13) 
CN(Cc1ccccc1)C(=O)Cn1ccc(Cl)nc1=NC(=O)c1ccco1

>  <Energy>  (13) 
88.71056875103665

>  <Genealogy>  (13) 
CN(Cc1ccccc1)C(=O)Cn1ccc(Cl)nc1=NC(=O)c1ccco1 (3D coordinates assigned)
CN(Cc1ccccc1)C(=O)Cn1ccc(Cl)nc1=NC(=O)c1ccco1 (optimized conformer: 88.71056875103665 kcal/mol)

>  <smiles>  (13) 
CN(Cc1ccccc1)C(=O)Cn1ccc(Cl)nc1=NC(=O)c1ccco1

>  <score_type>  (13) 
oracle

>  <origin>  (13) 
adg

>  <m_score__min__energy>  (13) 
-8.6999999999999993

>  <m_primary>  (13) 
energy

$$$$
13:0
     RDKit          3D

 30 32  0  0  1  0  0  0  0  0999 V2000
   -5.1040   19.5540  -33.7870 C   0  0  0  0  0  0  0  0  0  0  0  0
   -4.6920   20.6410  -33.0880 C   0  0  0  0  0  0  0  0  0  0  0  0
   -5.6400   21.3650  -32.3120 C   0  0  0  0  0  0  0  0  0  0  0  0
   -6.9090   20.8880  -32.3430 C   0  0  0  0  0  0  0  0  0  0  0  0
   -7.8850   21.5210  -31.6210 C   0  0  0  0  0  0  0  0  0  0  0  0
   -7.7030   22.6080  -31.0260 N   0  0  0  0  0  0  0  0  0  0  0  0
   -7.2400   22.7850  -29.7140 C   0  0  0  0  0  0  0  0  0  0  0  0
   -6.0100   23.6640  -29.9780 C   0  0  0  0  0  0  0  0  0  0  0  0
   -6.2010   24.9320  -30.4850 C   0  0  0  0  0  0  0  0  0  0  0  0
   -5.0900   25.6890  -30.7260 C   0  0  0  0  0  0  0  0  0  0  0  0
   -3.8840   25.2110  -30.4750 N   0  0  0  0  0  0  0  0  0  0  0  0
   -3.6340   23.9940  -29.9840 C   0  0  0  0  0  0  0  0  0  0  0  0
   -4.7400   23.1940  -29.7270 C   0  0  0  0  0  0  0  0  0  0  0  0
   -9.1510   21.0450  -31.6300 N   0  0  0  0  0  0  0  0  0  0  0  0
   -9.4810   19.9650  -32.3360 C   0  0  0  0  0  0  0  0  0  0  0  0
   -8.5700   19.3060  -33.0660 N   0  0  0  0  0  0  0  0  0  0  0  0
   -7.3130   19.7740  -33.0600 C   0  0  0  0  0  0  0  0  0  0  0  0
   -6.3920   19.0670  -33.8160 C   0  0  0  0  0  0  0  0  0  0  0  0
   -4.3477   19.0177  -34.3790 H   0  0  0  0  0  0  0  0  0  0  0  0
   -3.6393   20.9586  -33.1205 H   0  0  0  0  0  0  0  0  0  0  0  0
   -5.3617   22.2531  -31.7256 H   0  0  0  0  0  0  0  0  0  0  0  0
   -7.9818   23.3000  -29.0859 H   0  0  0  0  0  0  0  0  0  0  0  0
   -7.0331   21.8531  -29.1674 H   0  0  0  0  0  0  0  0  0  0  0  0
   -7.2104   25.3194  -30.6878 H   0  0  0  0  0  0  0  0  0  0  0  0
   -5.2001   26.7052  -31.1325 H   0  0  0  0  0  0  0  0  0  0  0  0
   -2.6085   23.6446  -29.7937 H   0  0  0  0  0  0  0  0  0  0  0  0
   -4.6010   22.1810  -29.3214 H   0  0  0  0  0  0  0  0  0  0  0  0
  -10.5209   19.6069  -32.3198 H   0  0  0  0  0  0  0  0  0  0  0  0
   -8.8620   18.4600  -33.6120 H   0  0  0  0  0  0  0  0  0  0  0  0
   -6.6705   18.1772  -34.3997 H   0  0  0  0  0  0  0  0  0  0  0  0
  1  2  2  0
  2  3  1  0
  3  4  2  0
  4  5  1  0
  5  6  2  0
  6  7  1  0
  7  8  1  0
  8  9  2  0
  9 10  1  0
 10 11  2  0
 11 12  1  0
 12 13  2  0
  5 14  1  0
 14 15  2  0
 15 16  1  0
 16 17  1  0
 17 18  2  0
 18  1  1  0
 17  4  1  0
 13  8  1  0
  1 19  1  0
  2 20  1  0
  3 21  1  0
  7 22  1  0
  7 23  1  0
  9 24  1  0
 10 25  1  0
 12 26  1  0
 13 27  1  0
 15 28  1  0
 16 29  1  0
 18 30  1  0
M  END
>  <smiles>  (14) 
c1ccc2c(=NCc3ccncc3)nc[nH]c2c1

>  <score_type>  (14) 
oracle

>  <origin>  (14) 
adg

>  <m_score__min__energy>  (14) 
-7.3700000000000001

>  <m_primary>  (14) 
energy

$$$$
14:0
     RDKit          3D

 42 46  0  0  0  0  0  0  0  0999 V2000
   -2.2190   23.2030  -28.4250 C   0  0  0  0  0  0  0  0  0  0  0  0
   -3.3370   22.4780  -28.0030 C   0  0  0  0  0  0  0  0  0  0  0  0
   -4.6040   22.7870  -28.5110 C   0  0  0  0  0  0  0  0  0  0  0  0
   -4.7560   23.8190  -29.4520 C   0  0  0  0  0  0  0  0  0  0  0  0
   -6.1220   24.1760  -29.9720 C   0  0  0  0  0  0  0  0  0  0  0  0
   -6.1330   24.1720  -31.5020 C   0  0  0  0  0  0  0  0  0  0  0  0
   -6.2640   22.8030  -32.0010 N   0  0  0  0  0  0  0  0  0  0  0  0
   -7.3850   22.0350  -32.0670 C   0  0  0  0  0  0  0  0  0  0  0  0
   -8.6930   22.3930  -31.7280 C   0  0  0  0  0  0  0  0  0  0  0  0
   -9.7010   21.4200  -31.8630 C   0  0  0  0  0  0  0  0  0  0  0  0
   -9.3910   20.1200  -32.3220 C   0  0  0  0  0  0  0  0  0  0  0  0
   -8.0680   19.7740  -32.6520 C   0  0  0  0  0  0  0  0  0  0  0  0
   -7.0930   20.7570  -32.5140 C   0  0  0  0  0  0  0  0  0  0  0  0
   -5.7350   20.7360  -32.7170 C   0  0  0  0  0  0  0  0  0  0  0  0
   -4.9180   19.7330  -33.1140 N   0  0  0  0  0  0  0  0  0  0  0  0
   -3.5770   19.9940  -33.1950 C   0  0  0  0  0  0  0  0  0  0  0  0
   -2.6860   18.9970  -33.6030 C   0  0  0  0  0  0  0  0  0  0  0  0
   -1.3170   19.2710  -33.6790 C   0  0  0  0  0  0  0  0  0  0  0  0
   -0.8300   20.5400  -33.3460 C   0  0  0  0  0  0  0  0  0  0  0  0
   -1.7060   21.5500  -32.9340 C   0  0  0  0  0  0  0  0  0  0  0  0
   -3.0790   21.2930  -32.8550 C   0  0  0  0  0  0  0  0  0  0  0  0
   -3.9430   22.2730  -32.4500 N   0  0  0  0  0  0  0  0  0  0  0  0
   -5.2650   21.9800  -32.3920 C   0  0  0  0  0  0  0  0  0  0  0  0
   -3.6290   24.5520  -29.8590 C   0  0  0  0  0  0  0  0  0  0  0  0
   -2.3640   24.2400  -29.3500 C   0  0  0  0  0  0  0  0  0  0  0  0
   -1.2231   22.9567  -28.0281 H   0  0  0  0  0  0  0  0  0  0  0  0
   -3.2211   21.6646  -27.2716 H   0  0  0  0  0  0  0  0  0  0  0  0
   -5.4836   22.2200  -28.1724 H   0  0  0  0  0  0  0  0  0  0  0  0
   -6.8528   23.4412  -29.6032 H   0  0  0  0  0  0  0  0  0  0  0  0
   -6.3844   25.1838  -29.6178 H   0  0  0  0  0  0  0  0  0  0  0  0
   -6.9816   24.7728  -31.8612 H   0  0  0  0  0  0  0  0  0  0  0  0
   -5.1887   24.6000  -31.8696 H   0  0  0  0  0  0  0  0  0  0  0  0
   -8.9275   23.4051  -31.3665 H   0  0  0  0  0  0  0  0  0  0  0  0
  -10.7406   21.6741  -31.6086 H   0  0  0  0  0  0  0  0  0  0  0  0
  -10.1913   19.3720  -32.4221 H   0  0  0  0  0  0  0  0  0  0  0  0
   -7.8138   18.7640  -33.0059 H   0  0  0  0  0  0  0  0  0  0  0  0
   -3.0620   17.9968  -33.8643 H   0  0  0  0  0  0  0  0  0  0  0  0
   -0.6189   18.4848  -34.0023 H   0  0  0  0  0  0  0  0  0  0  0  0
    0.2490   20.7447  -33.4086 H   0  0  0  0  0  0  0  0  0  0  0  0
   -1.3159   22.5447  -32.6726 H   0  0  0  0  0  0  0  0  0  0  0  0
   -3.7416   25.3745  -30.5807 H   0  0  0  0  0  0  0  0  0  0  0  0
   -1.4831   24.8113  -29.6781 H   0  0  0  0  0  0  0  0  0  0  0  0
  1  2  2  0
  2  3  1  0
  3  4  2  0
  4  5  1  0
  5  6  1  0
  6  7  1  0
  7  8  1  0
  8  9  2  0
  9 10  1  0
 10 11  2  0
 11 12  1  0
 12 13  2  0
 13 14  1  0
 14 15  2  0
 15 16  1  0
 16 17  2  0
 17 18  1  0
 18 19  2  0
 19 20  1  0
 20 21  2  0
 21 22  1  0
 22 23  2  0
  4 24  1  0
 24 25  2  0
 25  1  1  0
 23  7  1  0
 13  8  1  0
 23 14  1  0
 21 16  1  0
  1 26  1  0
  2 27  1  0
  3 28  1  0
  5 29  1  0
  5 30  1  0
  6 31  1  0
  6 32  1  0
  9 33  1  0
 10 34  1  0
 11 35  1  0
 12 36  1  0
 17 37  1  0
 18 38  1  0
 19 39  1  0
 20 40  1  0
 24 41  1  0
 25 42  1  0
M  END
>  <UniqueID>  (15) 
14

>  <SMILES>  (15) 
c1ccc(CCn2c3ccccc3c3nc4ccccc4nc32)cc1

>  <Energy>  (15) 
93.30614525373232

>  <Genealogy>  (15) 
c1ccc(CCn2c3ccccc3c3nc4ccccc4nc32)cc1 (3D coordinates assigned)
c1ccc(CCn2c3ccccc3c3nc4ccccc4nc32)cc1 (optimized conformer: 93.30614525373232 kcal/mol)

>  <smiles>  (15) 
c1ccc(CCn2c3ccccc3c3nc4ccccc4nc32)cc1

>  <score_type>  (15) 
oracle

>  <origin>  (15) 
adg

>  <m_score__min__energy>  (15) 
-8.6699999999999999

>  <m_primary>  (15) 
energy

$$$$
15:0
     RDKit          3D

 33 35  0  0  0  0  0  0  0  0999 V2000
   -8.9210   19.9950  -31.2310 C   0  0  0  0  0  0  0  0  0  0  0  0
   -8.2380   19.0390  -32.2120 C   0  0  0  0  0  0  0  0  0  0  0  0
   -7.6440   19.7450  -33.3640 N   0  0  0  0  0  0  0  0  0  0  0  0
   -6.2910   19.3000  -33.6260 C   0  0  0  0  0  0  0  0  0  0  0  0
   -6.0990   18.1160  -34.3650 C   0  0  0  0  0  0  0  0  0  0  0  0
   -4.8180   17.6580  -34.6680 C   0  0  0  0  0  0  0  0  0  0  0  0
   -3.7040   18.3760  -34.2460 C   0  0  0  0  0  0  0  0  0  0  0  0
   -3.8650   19.5560  -33.5190 C   0  0  0  0  0  0  0  0  0  0  0  0
   -5.1480   20.0360  -33.1920 C   0  0  0  0  0  0  0  0  0  0  0  0
   -5.2430   21.3050  -32.4260 C   0  0  0  0  0  0  0  0  0  0  0  0
   -6.4120   21.8590  -32.0160 N   0  0  0  0  0  0  0  0  0  0  0  0
   -6.2020   23.0010  -31.3130 C   0  0  0  0  0  0  0  0  0  0  0  0
   -7.2180   23.7890  -30.7710 C   0  0  0  0  0  0  0  0  0  0  0  0
   -6.8640   24.9510  -30.0600 C   0  0  0  0  0  0  0  0  0  0  0  0
   -5.5100   25.3060  -29.9020 C   0  0  0  0  0  0  0  0  0  0  0  0
   -4.4970   24.5030  -30.4520 C   0  0  0  0  0  0  0  0  0  0  0  0
   -4.8750   23.3600  -31.1520 C   0  0  0  0  0  0  0  0  0  0  0  0
   -3.9070   22.2200  -31.9080 S   0  0  0  0  0  0  0  0  0  0  0  0
   -8.6982   19.6832  -30.1999 H   0  0  0  0  0  0  0  0  0  0  0  0
   -8.5470   21.0165  -31.3940 H   0  0  0  0  0  0  0  0  0  0  0  0
  -10.0086   19.9723  -31.3940 H   0  0  0  0  0  0  0  0  0  0  0  0
   -7.4416   18.4972  -31.6808 H   0  0  0  0  0  0  0  0  0  0  0  0
   -9.0044   18.3513  -32.5988 H   0  0  0  0  0  0  0  0  0  0  0  0
   -7.6580   20.7750  -33.1910 H   0  0  0  0  0  0  0  0  0  0  0  0
   -8.2390   19.6030  -34.2130 H   0  0  0  0  0  0  0  0  0  0  0  0
   -6.9737   17.5441  -34.7082 H   0  0  0  0  0  0  0  0  0  0  0  0
   -4.6879   16.7282  -35.2412 H   0  0  0  0  0  0  0  0  0  0  0  0
   -2.6938   18.0128  -34.4859 H   0  0  0  0  0  0  0  0  0  0  0  0
   -2.9770   20.1195  -33.1966 H   0  0  0  0  0  0  0  0  0  0  0  0
   -8.2740   23.5078  -30.8968 H   0  0  0  0  0  0  0  0  0  0  0  0
   -7.6498   25.5860  -29.6249 H   0  0  0  0  0  0  0  0  0  0  0  0
   -5.2445   26.2167  -29.3451 H   0  0  0  0  0  0  0  0  0  0  0  0
   -3.4363   24.7693  -30.3332 H   0  0  0  0  0  0  0  0  0  0  0  0
  1  2  1  0
  2  3  1  0
  3  4  1  0
  4  5  2  0
  5  6  1  0
  6  7  2  0
  7  8  1  0
  8  9  2  0
  9 10  1  0
 10 11  2  0
 11 12  1  0
 12 13  2  0
 13 14  1  0
 14 15  2  0
 15 16  1  0
 16 17  2  0
 17 18  1  0
  9  4  1  0
 18 10  1  0
 17 12  1  0
  1 19  1  0
  1 20  1  0
  1 21  1  0
  2 22  1  0
  2 23  1  0
  3 24  1  0
  3 25  1  0
  5 26  1  0
  6 27  1  0
  7 28  1  0
  8 29  1  0
 13 30  1  0
 14 31  1  0
 15 32  1  0
 16 33  1  0
M  CHG  1   3   1
M  END
>  <UniqueID>  (16) 
15

>  <SMILES>  (16) 
CC[NH2+]c1ccccc1-c1nc2ccccc2s1

>  <Energy>  (16) 
75.1779710495583

>  <Genealogy>  (16) 
CC[NH2+]c1ccccc1-c1nc2ccccc2s1 (protonated)
CC[NH2+]c1ccccc1-c1nc2ccccc2s1 (3D coordinates assigned)
CC[NH2+]c1ccccc1-c1nc2ccccc2s1 (optimized conformer: 75.1779710495583 kcal/mol)

>  <smiles>  (16) 
CCNc1ccccc1-c1nc2ccccc2s1

>  <score_type>  (16) 
oracle

>  <origin>  (16) 
adg

>  <m_score__min__energy>  (16) 
-6.7199999999999998

>  <m_primary>  (16) 
energy

$$$$
16:0
     RDKit          3D

 47 50  0  0  0  0  0  0  0  0999 V2000
   -6.4940   15.8160  -34.2020 C   0  0  0  0  0  0  0  0  0  0  0  0
   -5.5830   16.8560  -34.5410 O   0  0  0  0  0  0  0  0  0  0  0  0
   -5.2190   17.9030  -33.6800 C   0  0  0  0  0  0  0  0  0  0  0  0
   -4.2860   18.8420  -34.1330 C   0  0  0  0  0  0  0  0  0  0  0  0
   -3.8940   19.9050  -33.3150 C   0  0  0  0  0  0  0  0  0  0  0  0
   -4.4460   20.0510  -32.0340 C   0  0  0  0  0  0  0  0  0  0  0  0
   -4.0100   21.1530  -31.1500 C   0  0  0  0  0  0  0  0  0  0  0  0
   -3.3340   20.8220  -30.0150 N   0  0  0  0  0  0  0  0  0  0  0  0
   -2.8930   21.7710  -29.1480 C   0  0  0  0  0  0  0  0  0  0  0  0
   -2.1970   21.4040  -27.9840 C   0  0  0  0  0  0  0  0  0  0  0  0
   -1.7470   22.3820  -27.0960 C   0  0  0  0  0  0  0  0  0  0  0  0
   -1.9870   23.7330  -27.3590 C   0  0  0  0  0  0  0  0  0  0  0  0
   -1.4220   24.9580  -26.2390 Cl  0  0  0  0  0  0  0  0  0  0  0  0
   -2.6770   24.1090  -28.5170 C   0  0  0  0  0  0  0  0  0  0  0  0
   -3.1350   23.1280  -29.4190 C   0  0  0  0  0  0  0  0  0  0  0  0
   -3.8400   23.4600  -30.5860 C   0  0  0  0  0  0  0  0  0  0  0  0
   -4.0790   24.6750  -30.8390 O   0  0  0  0  0  0  0  0  0  0  0  0
   -4.2820   22.4750  -31.4390 N   0  0  0  0  0  0  0  0  0  0  0  0
   -5.1220   22.8420  -32.6040 C   0  0  0  0  0  0  0  0  0  0  0  0
   -6.5090   23.3420  -32.1680 C   0  0  0  0  0  0  0  0  0  0  0  0
   -7.4910   22.2090  -32.0190 C   0  0  0  0  0  0  0  0  0  0  0  0
   -7.3960   21.0770  -32.8410 C   0  0  0  0  0  0  0  0  0  0  0  0
   -8.3490   20.0600  -32.7230 C   0  0  0  0  0  0  0  0  0  0  0  0
   -9.3610   20.1750  -31.8230 N   0  0  0  0  0  0  0  0  0  0  0  0
   -9.4800   21.2640  -31.0180 C   0  0  0  0  0  0  0  0  0  0  0  0
   -8.5490   22.3020  -31.1020 C   0  0  0  0  0  0  0  0  0  0  0  0
   -5.3620   19.0990  -31.5670 C   0  0  0  0  0  0  0  0  0  0  0  0
   -5.7560   18.0370  -32.3850 C   0  0  0  0  0  0  0  0  0  0  0  0
   -6.5659   15.7339  -33.1074 H   0  0  0  0  0  0  0  0  0  0  0  0
   -7.4856   16.0470  -34.6183 H   0  0  0  0  0  0  0  0  0  0  0  0
   -6.1344   14.8634  -34.6183 H   0  0  0  0  0  0  0  0  0  0  0  0
   -3.8575   18.7427  -35.1412 H   0  0  0  0  0  0  0  0  0  0  0  0
   -3.1499   20.6298  -33.6771 H   0  0  0  0  0  0  0  0  0  0  0  0
   -3.1450   19.8140  -29.8100 H   0  0  0  0  0  0  0  0  0  0  0  0
   -2.0061   20.3417  -27.7718 H   0  0  0  0  0  0  0  0  0  0  0  0
   -1.2020   22.0885  -26.1867 H   0  0  0  0  0  0  0  0  0  0  0  0
   -2.8624   25.1734  -28.7237 H   0  0  0  0  0  0  0  0  0  0  0  0
   -4.6176   23.6384  -33.1708 H   0  0  0  0  0  0  0  0  0  0  0  0
   -5.2598   21.9443  -33.2246 H   0  0  0  0  0  0  0  0  0  0  0  0
   -6.4134   23.8597  -31.2021 H   0  0  0  0  0  0  0  0  0  0  0  0
   -6.8872   24.0221  -32.9454 H   0  0  0  0  0  0  0  0  0  0  0  0
   -6.5790   20.9895  -33.5724 H   0  0  0  0  0  0  0  0  0  0  0  0
   -8.2793   19.1657  -33.3596 H   0  0  0  0  0  0  0  0  0  0  0  0
  -10.3105   21.3279  -30.2995 H   0  0  0  0  0  0  0  0  0  0  0  0
   -8.6446   23.1858  -30.4541 H   0  0  0  0  0  0  0  0  0  0  0  0
   -5.7732   19.1883  -30.5507 H   0  0  0  0  0  0  0  0  0  0  0  0
   -6.4879   17.3033  -32.0163 H   0  0  0  0  0  0  0  0  0  0  0  0
  1  2  1  0
  2  3  1  0
  3  4  2  0
  4  5  1  0
  5  6  2  0
  6  7  1  0
  7  8  2  0
  8  9  1  0
  9 10  2  0
 10 11  1  0
 11 12  2  0
 12 13  1  0
 12 14  1  0
 14 15  2  0
 15 16  1  0
 16 17  2  0
 16 18  1  0
 18 19  1  0
 19 20  1  0
 20 21  1  0
 21 22  2  0
 22 23  1  0
 23 24  2  0
 24 25  1  0
 25 26  2  0
  6 27  1  0
 27 28  2  0
 28  3  1  0
 18  7  1  0
 26 21  1  0
 15  9  1  0
  1 29  1  0
  1 30  1  0
  1 31  1  0
  4 32  1  0
  5 33  1  0
  8 34  1  0
 10 35  1  0
 11 36  1  0
 14 37  1  0
 19 38  1  0
 19 39  1  0
 20 40  1  0
 20 41  1  0
 22 42  1  0
 23 43  1  0
 25 44  1  0
 26 45  1  0
 27 46  1  0
 28 47  1  0
M  CHG  1   8   1
M  END
>  <UniqueID>  (17) 
16

>  <SMILES>  (17) 
COc1ccc(-c2[nH+]c3ccc(Cl)cc3c(=O)n2CCc2ccncc2)cc1

>  <Energy>  (17) 
63.62578185870341

>  <Genealogy>  (17) 
COc1ccc(-c2[nH+]c3ccc(Cl)cc3c(=O)n2CCc2ccncc2)cc1 (protonated)
COc1ccc(-c2[nH+]c3ccc(Cl)cc3c(=O)n2CCc2ccncc2)cc1 (3D coordinates assigned)
COc1ccc(-c2[nH+]c3ccc(Cl)cc3c(=O)n2CCc2ccncc2)cc1 (optimized conformer: 63.62578185870341 kcal/mol)

>  <smiles>  (17) 
COc1ccc(-c2nc3ccc(Cl)cc3c(=O)n2CCc2ccncc2)cc1

>  <score_type>  (17) 
oracle

>  <origin>  (17) 
adg

>  <m_score__min__energy>  (17) 
-7.6699999999999999

>  <m_primary>  (17) 
energy

$$$$
17:0
     RDKit          3D

 35 36  0  0  0  0  0  0  0  0999 V2000
   -1.5510   25.4090  -27.6040 C   0  0  0  0  0  0  0  0  0  0  0  0
   -1.9660   25.3780  -28.9660 O   0  0  0  0  0  0  0  0  0  0  0  0
   -2.3630   24.2180  -29.6500 C   0  0  0  0  0  0  0  0  0  0  0  0
   -1.6610   23.0050  -29.5330 C   0  0  0  0  0  0  0  0  0  0  0  0
   -2.0840   21.8720  -30.2300 C   0  0  0  0  0  0  0  0  0  0  0  0
   -3.2130   21.9260  -31.0620 C   0  0  0  0  0  0  0  0  0  0  0  0
   -3.6560   20.7150  -31.7950 C   0  0  0  0  0  0  0  0  0  0  0  0
   -2.9650   19.6600  -31.7240 O   0  0  0  0  0  0  0  0  0  0  0  0
   -4.8330   20.7390  -32.6190 N   0  0  0  0  0  0  0  0  0  0  0  0
   -5.5270   19.5500  -33.0420 C   0  0  0  0  0  0  0  0  0  0  0  0
   -4.8730   18.5900  -33.8380 C   0  0  0  0  0  0  0  0  0  0  0  0
   -5.5350   17.4220  -34.2280 C   0  0  0  0  0  0  0  0  0  0  0  0
   -6.8510   17.1940  -33.8250 C   0  0  0  0  0  0  0  0  0  0  0  0
   -7.5090   18.1300  -33.0240 C   0  0  0  0  0  0  0  0  0  0  0  0
   -6.8550   19.3040  -32.6250 C   0  0  0  0  0  0  0  0  0  0  0  0
   -7.5700   20.2560  -31.8100 C   0  0  0  0  0  0  0  0  0  0  0  0
   -8.1430   21.0200  -31.1560 N   0  0  0  0  0  0  0  0  0  0  0  0
   -3.9230   23.1360  -31.1700 C   0  0  0  0  0  0  0  0  0  0  0  0
   -3.5010   24.2830  -30.4680 C   0  0  0  0  0  0  0  0  0  0  0  0
   -4.1860   25.5060  -30.5590 O   0  0  0  0  0  0  0  0  0  0  0  0
   -5.5880   25.6620  -30.3640 C   0  0  0  0  0  0  0  0  0  0  0  0
   -2.4332   25.3431  -26.9503 H   0  0  0  0  0  0  0  0  0  0  0  0
   -0.8827   24.5583  -27.4049 H   0  0  0  0  0  0  0  0  0  0  0  0
   -1.0165   26.3496  -27.4049 H   0  0  0  0  0  0  0  0  0  0  0  0
   -0.7721   22.9487  -28.8875 H   0  0  0  0  0  0  0  0  0  0  0  0
   -1.5277   20.9287  -30.1263 H   0  0  0  0  0  0  0  0  0  0  0  0
   -5.1440   21.6600  -33.0040 H   0  0  0  0  0  0  0  0  0  0  0  0
   -3.8336   18.7603  -34.1553 H   0  0  0  0  0  0  0  0  0  0  0  0
   -5.0169   16.6808  -34.8543 H   0  0  0  0  0  0  0  0  0  0  0  0
   -7.3707   16.2765  -34.1383 H   0  0  0  0  0  0  0  0  0  0  0  0
   -8.5453   17.9451  -32.7047 H   0  0  0  0  0  0  0  0  0  0  0  0
   -4.8168   23.1873  -31.8091 H   0  0  0  0  0  0  0  0  0  0  0  0
   -5.8078   25.6865  -29.2865 H   0  0  0  0  0  0  0  0  0  0  0  0
   -5.9202   26.6027  -30.8275 H   0  0  0  0  0  0  0  0  0  0  0  0
   -6.1189   24.8174  -30.8275 H   0  0  0  0  0  0  0  0  0  0  0  0
  1  2  1  0
  2  3  1  0
  3  4  2  0
  4  5  1  0
  5  6  2  0
  6  7  1  0
  7  8  2  0
  7  9  1  0
  9 10  1  0
 10 11  2  0
 11 12  1  0
 12 13  2  0
 13 14  1  0
 14 15  2  0
 15 16  1  0
 16 17  3  0
  6 18  1  0
 18 19  2  0
 19 20  1  0
 20 21  1  0
 19  3  1  0
 15 10  1  0
  1 22  1  0
  1 23  1  0
  1 24  1  0
  4 25  1  0
  5 26  1  0
  9 27  1  0
 11 28  1  0
 12 29  1  0
 13 30  1  0
 14 31  1  0
 18 32  1  0
 21 33  1  0
 21 34  1  0
 21 35  1  0
M  END
>  <UniqueID>  (18) 
17

>  <SMILES>  (18) 
COc1ccc(C(=O)Nc2ccccc2C#N)cc1OC

>  <Energy>  (18) 
40.64526452171998

>  <Genealogy>  (18) 
COc1ccc(C(=O)Nc2ccccc2C#N)cc1OC (3D coordinates assigned)
COc1ccc(C(=O)Nc2ccccc2C#N)cc1OC (optimized conformer: 40.64526452171998 kcal/mol)

>  <smiles>  (18) 
COc1ccc(C(=O)Nc2ccccc2C#N)cc1OC

>  <score_type>  (18) 
oracle

>  <origin>  (18) 
adg

>  <m_score__min__energy>  (18) 
-7.4400000000000004

>  <m_primary>  (18) 
energy

$$$$
18:0
     RDKit          3D

 35 37  0  0  0  0  0  0  0  0999 V2000
   -5.7360   24.0330  -29.7150 C   0  0  0  0  0  0  0  0  0  0  0  0
   -6.4690   24.4450  -30.8220 C   0  0  0  0  0  0  0  0  0  0  0  0
   -5.7530   23.8010  -32.2010 S   0  0  0  0  0  0  0  0  0  0  0  0
   -4.5240   22.9810  -31.4000 C   0  0  0  0  0  0  0  0  0  0  0  0
   -3.4190   22.2150  -32.0620 C   0  0  0  0  0  0  0  0  0  0  0  0
   -3.8310   21.7810  -33.4070 N   0  0  0  0  0  0  0  0  0  0  0  0
   -4.1280   20.3370  -33.4590 C   0  0  0  0  0  0  0  0  0  0  0  0
   -4.5650   19.7810  -32.0940 C   0  0  0  0  0  0  0  0  0  0  0  0
   -5.9420   19.1950  -32.1830 C   0  0  0  0  0  0  0  0  0  0  0  0
   -6.2630   17.8640  -32.4330 C   0  0  0  0  0  0  0  0  0  0  0  0
   -7.6040   17.7110  -32.5180 N   0  0  0  0  0  0  0  0  0  0  0  0
   -8.1310   18.9340  -32.3380 C   0  0  0  0  0  0  0  0  0  0  0  0
   -9.4800   19.2860  -32.3590 C   0  0  0  0  0  0  0  0  0  0  0  0
   -9.8090   20.6400  -32.1660 C   0  0  0  0  0  0  0  0  0  0  0  0
   -8.7950   21.6020  -31.9640 C   0  0  0  0  0  0  0  0  0  0  0  0
   -7.4410   21.2180  -31.9490 C   0  0  0  0  0  0  0  0  0  0  0  0
   -7.1470   19.8680  -32.1360 C   0  0  0  0  0  0  0  0  0  0  0  0
   -4.6420   23.2210  -30.0380 C   0  0  0  0  0  0  0  0  0  0  0  0
   -5.9911   24.3178  -28.6836 H   0  0  0  0  0  0  0  0  0  0  0  0
   -7.3646   25.0833  -30.7999 H   0  0  0  0  0  0  0  0  0  0  0  0
   -2.5307   22.8585  -32.1448 H   0  0  0  0  0  0  0  0  0  0  0  0
   -3.1867   21.3271  -31.4556 H   0  0  0  0  0  0  0  0  0  0  0  0
   -3.0870   22.0190  -34.1040 H   0  0  0  0  0  0  0  0  0  0  0  0
   -4.7030   22.2970  -33.6720 H   0  0  0  0  0  0  0  0  0  0  0  0
   -4.9370   20.1683  -34.1850 H   0  0  0  0  0  0  0  0  0  0  0  0
   -3.2064   19.8147  -33.7554 H   0  0  0  0  0  0  0  0  0  0  0  0
   -3.8585   18.9992  -31.7784 H   0  0  0  0  0  0  0  0  0  0  0  0
   -4.5739   20.6017  -31.3616 H   0  0  0  0  0  0  0  0  0  0  0  0
   -5.5299   17.0517  -32.5455 H   0  0  0  0  0  0  0  0  0  0  0  0
   -8.1210   16.8220  -32.7010 H   0  0  0  0  0  0  0  0  0  0  0  0
  -10.2617   18.5293  -32.5213 H   0  0  0  0  0  0  0  0  0  0  0  0
  -10.8639   20.9518  -32.1725 H   0  0  0  0  0  0  0  0  0  0  0  0
   -9.0651   22.6582  -31.8174 H   0  0  0  0  0  0  0  0  0  0  0  0
   -6.6418   21.9580  -31.7949 H   0  0  0  0  0  0  0  0  0  0  0  0
   -3.9468   22.8146  -29.2886 H   0  0  0  0  0  0  0  0  0  0  0  0
  1  2  2  0
  2  3  1  0
  3  4  1  0
  4  5  1  0
  5  6  1  0
  6  7  1  0
  7  8  1  0
  8  9  1  0
  9 10  2  0
 10 11  1  0
 11 12  1  0
 12 13  2  0
 13 14  1  0
 14 15  2  0
 15 16  1  0
 16 17  2  0
  4 18  2  0
 18  1  1  0
 17  9  1  0
 17 12  1  0
  1 19  1  0
  2 20  1  0
  5 21  1  0
  5 22  1  0
  6 23  1  0
  6 24  1  0
  7 25  1  0
  7 26  1  0
  8 27  1  0
  8 28  1  0
 10 29  1  0
 11 30  1  0
 13 31  1  0
 14 32  1  0
 15 33  1  0
 16 34  1  0
 18 35  1  0
M  CHG  1   6   1
M  END
>  <UniqueID>  (19) 
18

>  <SMILES>  (19) 
c1csc(C[NH2+]CCc2c[nH]c3ccccc23)c1

>  <Energy>  (19) 
92.06545815280347

>  <Genealogy>  (19) 
c1csc(C[NH2+]CCc2c[nH]c3ccccc23)c1 (protonated)
c1csc(C[NH2+]CCc2c[nH]c3ccccc23)c1 (3D coordinates assigned)
c1csc(C[NH2+]CCc2c[nH]c3ccccc23)c1 (optimized conformer: 92.06545815280347 kcal/mol)

>  <smiles>  (19) 
c1csc(CNCCc2c[nH]c3ccccc23)c1

>  <score_type>  (19) 
oracle

>  <origin>  (19) 
adg

>  <m_score__min__energy>  (19) 
-6.8899999999999997

>  <m_primary>  (19) 
energy

$$$$
19:0
     RDKit          3D

 31 32  0  0  0  0  0  0  0  0999 V2000
   -5.5570   20.1620  -32.9140 C   0  0  0  0  0  0  0  0  0  0  0  0
   -6.7290   20.9250  -32.4590 N   0  0  0  0  0  0  0  0  0  0  0  0
   -7.9140   20.2610  -32.2860 C   0  0  0  0  0  0  0  0  0  0  0  0
   -9.0570   20.9350  -31.8580 C   0  0  0  0  0  0  0  0  0  0  0  0
   -8.9920   22.3020  -31.6070 C   0  0  0  0  0  0  0  0  0  0  0  0
   -7.7930   22.9810  -31.7950 C   0  0  0  0  0  0  0  0  0  0  0  0
   -6.6570   22.2860  -32.2440 C   0  0  0  0  0  0  0  0  0  0  0  0
   -5.3700   23.0550  -32.4180 C   0  0  0  0  0  0  0  0  0  0  0  0
   -5.2150   23.9950  -31.3140 N   0  0  0  0  0  0  0  0  0  0  0  0
   -4.0150   24.1520  -30.5490 C   0  0  0  0  0  0  0  0  0  0  0  0
   -3.4950   25.2950  -30.4580 O   0  0  0  0  0  0  0  0  0  0  0  0
   -3.3850   23.0160  -29.8480 C   0  0  0  0  0  0  0  0  0  0  0  0
   -2.7920   21.9850  -30.5950 C   0  0  0  0  0  0  0  0  0  0  0  0
   -2.1790   20.9070  -29.9510 C   0  0  0  0  0  0  0  0  0  0  0  0
   -2.1480   20.8520  -28.5560 C   0  0  0  0  0  0  0  0  0  0  0  0
   -2.7270   21.8750  -27.8020 C   0  0  0  0  0  0  0  0  0  0  0  0
   -3.3430   22.9600  -28.4390 C   0  0  0  0  0  0  0  0  0  0  0  0
   -4.0860   24.2080  -27.4440 Cl  0  0  0  0  0  0  0  0  0  0  0  0
   -4.9959   19.7967  -32.0412 H   0  0  0  0  0  0  0  0  0  0  0  0
   -5.8893   19.3066  -33.5205 H   0  0  0  0  0  0  0  0  0  0  0  0
   -4.9092   20.8120  -33.5205 H   0  0  0  0  0  0  0  0  0  0  0  0
   -7.9649   19.1808  -32.4875 H   0  0  0  0  0  0  0  0  0  0  0  0
  -10.0027   20.3904  -31.7199 H   0  0  0  0  0  0  0  0  0  0  0  0
   -9.8851   22.8433  -31.2614 H   0  0  0  0  0  0  0  0  0  0  0  0
   -7.7338   24.0606  -31.5925 H   0  0  0  0  0  0  0  0  0  0  0  0
   -4.5219   22.3545  -32.4255 H   0  0  0  0  0  0  0  0  0  0  0  0
   -5.3970   23.6065  -33.3694 H   0  0  0  0  0  0  0  0  0  0  0  0
   -2.8102   22.0264  -31.6941 H   0  0  0  0  0  0  0  0  0  0  0  0
   -1.7206   20.1013  -30.5432 H   0  0  0  0  0  0  0  0  0  0  0  0
   -1.6669   20.0018  -28.0504 H   0  0  0  0  0  0  0  0  0  0  0  0
   -2.6992   21.8286  -26.7033 H   0  0  0  0  0  0  0  0  0  0  0  0
  1  2  1  0
  2  3  2  0
  3  4  1  0
  4  5  2  0
  5  6  1  0
  6  7  2  0
  7  8  1  0
  8  9  1  0
  9 10  1  0
 10 11  2  0
 10 12  1  0
 12 13  2  0
 13 14  1  0
 14 15  2  0
 15 16  1  0
 16 17  2  0
 17 18  1  0
  7  2  1  0
 17 12  1  0
  1 19  1  0
  1 20  1  0
  1 21  1  0
  3 22  1  0
  4 23  1  0
  5 24  1  0
  6 25  1  0
  8 26  1  0
  8 27  1  0
 13 28  1  0
 14 29  1  0
 15 30  1  0
 16 31  1  0
M  CHG  2   2   1   9  -1
M  END
>  <UniqueID>  (20) 
19

>  <SMILES>  (20) 
C[n+]1ccccc1C[N-]C(=O)c1ccccc1Cl

>  <Energy>  (20) 
38.9144131527412

>  <Genealogy>  (20) 
C[n+]1ccccc1C[N-]C(=O)c1ccccc1Cl (protonated)
C[n+]1ccccc1C[N-]C(=O)c1ccccc1Cl (3D coordinates assigned)
C[n+]1ccccc1C[N-]C(=O)c1ccccc1Cl (optimized conformer: 38.9144131527412 kcal/mol)

>  <smiles>  (20) 
C[n+]1ccccc1CNC(=O)c1ccccc1Cl

>  <score_type>  (20) 
oracle

>  <origin>  (20) 
adg

>  <m_score__min__energy>  (20) 
-7.4800000000000004

>  <m_primary>  (20) 
energy

$$$$
20:0
     RDKit          3D

 32 32  0  0  0  0  0  0  0  0999 V2000
   -4.3620   24.9230  -26.3510 C   0  0  0  0  0  0  0  0  0  0  0  0
   -4.6030   24.4750  -27.7250 N   0  0  0  0  0  0  0  0  0  0  0  0
   -3.7030   23.3630  -28.0750 C   0  0  0  0  0  0  0  0  0  0  0  0
   -4.2260   22.5610  -29.2860 C   0  0  0  0  0  0  0  0  0  0  0  0
   -4.3190   23.3880  -30.5790 C   0  0  0  0  0  0  0  0  0  0  0  0
   -5.6340   24.1050  -30.7170 C   0  0  0  0  0  0  0  0  0  0  0  0
   -6.0140   24.8420  -29.8190 O   0  0  0  0  0  0  0  0  0  0  0  0
   -6.4740   23.9480  -31.9540 C   0  0  0  0  0  0  0  0  0  0  0  0
   -7.1630   22.6100  -31.9520 C   0  0  0  0  0  0  0  0  0  0  0  0
   -6.5100   21.4790  -32.4690 C   0  0  0  0  0  0  0  0  0  0  0  0
   -7.1370   20.2290  -32.4390 C   0  0  0  0  0  0  0  0  0  0  0  0
   -8.4140   20.0990  -31.8850 C   0  0  0  0  0  0  0  0  0  0  0  0
   -9.0640   21.2180  -31.3570 C   0  0  0  0  0  0  0  0  0  0  0  0
   -8.4400   22.4690  -31.3850 C   0  0  0  0  0  0  0  0  0  0  0  0
   -4.7624   24.1786  -25.6471 H   0  0  0  0  0  0  0  0  0  0  0  0
   -3.2803   25.0379  -26.1872 H   0  0  0  0  0  0  0  0  0  0  0  0
   -4.8623   25.8889  -26.1872 H   0  0  0  0  0  0  0  0  0  0  0  0
   -4.4370   25.2820  -28.3710 H   0  0  0  0  0  0  0  0  0  0  0  0
   -5.6000   24.1740  -27.8020 H   0  0  0  0  0  0  0  0  0  0  0  0
   -2.7113   23.7712  -28.3198 H   0  0  0  0  0  0  0  0  0  0  0  0
   -3.6488   22.6827  -27.2123 H   0  0  0  0  0  0  0  0  0  0  0  0
   -3.5456   21.7149  -29.4627 H   0  0  0  0  0  0  0  0  0  0  0  0
   -5.2465   22.2331  -29.0390 H   0  0  0  0  0  0  0  0  0  0  0  0
   -3.5102   24.1335  -30.5787 H   0  0  0  0  0  0  0  0  0  0  0  0
   -4.2303   22.6914  -31.4257 H   0  0  0  0  0  0  0  0  0  0  0  0
   -7.2309   24.7457  -31.9822 H   0  0  0  0  0  0  0  0  0  0  0  0
   -5.8235   24.0138  -32.8386 H   0  0  0  0  0  0  0  0  0  0  0  0
   -5.5022   21.5766  -32.8989 H   0  0  0  0  0  0  0  0  0  0  0  0
   -6.6248   19.3474  -32.8517 H   0  0  0  0  0  0  0  0  0  0  0  0
   -8.9072   19.1160  -31.8647 H   0  0  0  0  0  0  0  0  0  0  0  0
  -10.0677   21.1144  -30.9189 H   0  0  0  0  0  0  0  0  0  0  0  0
   -8.9513   23.3460  -30.9613 H   0  0  0  0  0  0  0  0  0  0  0  0
  1  2  1  0
  2  3  1  0
  3  4  1  0
  4  5  1  0
  5  6  1  0
  6  7  2  0
  6  8  1  0
  8  9  1  0
  9 10  2  0
 10 11  1  0
 11 12  2  0
 12 13  1  0
 13 14  2  0
 14  9  1  0
  1 15  1  0
  1 16  1  0
  1 17  1  0
  2 18  1  0
  2 19  1  0
  3 20  1  0
  3 21  1  0
  4 22  1  0
  4 23  1  0
  5 24  1  0
  5 25  1  0
  8 26  1  0
  8 27  1  0
 10 28  1  0
 11 29  1  0
 12 30  1  0
 13 31  1  0
 14 32  1  0
M  CHG  1   2   1
M  END
>  <UniqueID>  (21) 
20

>  <SMILES>  (21) 
C[NH2+]CCCC(=O)Cc1ccccc1

>  <Energy>  (21) 
23.288246121504148

>  <Genealogy>  (21) 
C[NH2+]CCCC(=O)Cc1ccccc1 (protonated)
C[NH2+]CCCC(=O)Cc1ccccc1 (3D coordinates assigned)
C[NH2+]CCCC(=O)Cc1ccccc1 (optimized conformer: 23.288246121504148 kcal/mol)

>  <smiles>  (21) 
CNCCCC(=O)Cc1ccccc1

>  <score_type>  (21) 
oracle

>  <origin>  (21) 
adg

>  <m_score__min__energy>  (21) 
-5.4699999999999998

>  <m_primary>  (21) 
energy

$$$$
21:0
     RDKit          3D

 44 46  0  0  0  0  0  0  0  0999 V2000
   -0.9650   25.0790  -26.2880 C   0  0  0  0  0  0  0  0  0  0  0  0
   -0.4980   24.9570  -27.5980 C   0  0  0  0  0  0  0  0  0  0  0  0
   -1.3920   24.6980  -28.6410 C   0  0  0  0  0  0  0  0  0  0  0  0
   -2.7690   24.5540  -28.3830 C   0  0  0  0  0  0  0  0  0  0  0  0
   -3.6980   24.2890  -29.4590 N   0  0  0  0  0  0  0  0  0  0  0  0
   -5.0730   24.7990  -29.4090 C   0  0  0  0  0  0  0  0  0  0  0  0
   -5.5790   25.0970  -30.8280 C   0  0  0  0  0  0  0  0  0  0  0  0
   -5.4110   23.9620  -31.7780 N   0  0  0  0  0  0  0  0  0  0  0  0
   -6.6960   23.4410  -32.3040 C   0  0  0  0  0  0  0  0  0  0  0  0
   -7.5560   22.8720  -31.1660 C   0  0  0  0  0  0  0  0  0  0  0  0
   -8.6760   21.9300  -31.6360 C   0  0  0  0  0  0  0  0  0  0  0  0
   -8.1610   20.5790  -32.0580 C   0  0  0  0  0  0  0  0  0  0  0  0
   -8.7600   19.4030  -31.5820 C   0  0  0  0  0  0  0  0  0  0  0  0
   -8.2770   18.1650  -32.0110 C   0  0  0  0  0  0  0  0  0  0  0  0
   -7.2170   18.1090  -32.9170 C   0  0  0  0  0  0  0  0  0  0  0  0
   -6.6570   19.2990  -33.3870 C   0  0  0  0  0  0  0  0  0  0  0  0
   -7.1390   20.4950  -32.9560 N   0  0  0  0  0  0  0  0  0  0  0  0
   -4.5440   22.8690  -31.2850 C   0  0  0  0  0  0  0  0  0  0  0  0
   -3.3050   23.4150  -30.5720 C   0  0  0  0  0  0  0  0  0  0  0  0
   -3.2270   24.6820  -27.0580 C   0  0  0  0  0  0  0  0  0  0  0  0
   -2.3290   24.9420  -26.0190 C   0  0  0  0  0  0  0  0  0  0  0  0
   -0.2599   25.2827  -25.4687 H   0  0  0  0  0  0  0  0  0  0  0  0
    0.5760   25.0649  -27.8099 H   0  0  0  0  0  0  0  0  0  0  0  0
   -1.0171   24.6060  -29.6710 H   0  0  0  0  0  0  0  0  0  0  0  0
   -5.7236   24.0450  -28.9419 H   0  0  0  0  0  0  0  0  0  0  0  0
   -5.0908   25.7271  -28.8189 H   0  0  0  0  0  0  0  0  0  0  0  0
   -6.6492   25.3445  -30.7695 H   0  0  0  0  0  0  0  0  0  0  0  0
   -4.9741   25.9303  -31.2149 H   0  0  0  0  0  0  0  0  0  0  0  0
   -7.2430   24.2586  -32.7962 H   0  0  0  0  0  0  0  0  0  0  0  0
   -6.4841   22.6368  -33.0240 H   0  0  0  0  0  0  0  0  0  0  0  0
   -6.8992   22.3137  -30.4827 H   0  0  0  0  0  0  0  0  0  0  0  0
   -8.0455   23.7287  -30.6797 H   0  0  0  0  0  0  0  0  0  0  0  0
   -9.3895   21.7923  -30.8102 H   0  0  0  0  0  0  0  0  0  0  0  0
   -9.1526   22.3924  -32.5129 H   0  0  0  0  0  0  0  0  0  0  0  0
   -9.6027   19.4557  -30.8770 H   0  0  0  0  0  0  0  0  0  0  0  0
   -8.7310   17.2360  -31.6357 H   0  0  0  0  0  0  0  0  0  0  0  0
   -6.8269   17.1384  -33.2572 H   0  0  0  0  0  0  0  0  0  0  0  0
   -5.8254   19.2686  -34.1064 H   0  0  0  0  0  0  0  0  0  0  0  0
   -5.1171   22.2480  -30.5808 H   0  0  0  0  0  0  0  0  0  0  0  0
   -4.2116   22.2753  -32.1493 H   0  0  0  0  0  0  0  0  0  0  0  0
   -2.7121   22.5749  -30.1812 H   0  0  0  0  0  0  0  0  0  0  0  0
   -2.7083   23.9975  -31.2894 H   0  0  0  0  0  0  0  0  0  0  0  0
   -4.2998   24.5766  -26.8387 H   0  0  0  0  0  0  0  0  0  0  0  0
   -2.6972   25.0390  -24.9870 H   0  0  0  0  0  0  0  0  0  0  0  0
  1  2  2  0
  2  3  1  0
  3  4  2  0
  4  5  1  0
  5  6  1  0
  6  7  1  0
  7  8  1  0
  8  9  1  0
  9 10  1  0
 10 11  1  0
 11 12  1  0
 12 13  2  0
 13 14  1  0
 14 15  2  0
 15 16  1  0
 16 17  2  0
  8 18  1  0
 18 19  1  0
  4 20  1  0
 20 21  2  0
 21  1  1  0
 19  5  1  0
 17 12  1  0
  1 22  1  0
  2 23  1  0
  3 24  1  0
  6 25  1  0
  6 26  1  0
  7 27  1  0
  7 28  1  0
  9 29  1  0
  9 30  1  0
 10 31  1  0
 10 32  1  0
 11 33  1  0
 11 34  1  0
 13 35  1  0
 14 36  1  0
 15 37  1  0
 16 38  1  0
 18 39  1  0
 18 40  1  0
 19 41  1  0
 19 42  1  0
 20 43  1  0
 21 44  1  0
M  END
>  <UniqueID>  (22) 
21

>  <SMILES>  (22) 
c1ccc(N2CCN(CCCc3ccccn3)CC2)cc1

>  <Energy>  (22) 
55.028680110116994

>  <Genealogy>  (22) 
c1ccc(N2CCN(CCCc3ccccn3)CC2)cc1 (3D coordinates assigned)
c1ccc(N2CCN(CCCc3ccccn3)CC2)cc1 (nonaromatic ring conformer: 55.028680110116994 kcal/mol)

>  <smiles>  (22) 
c1ccc(N2CCN(CCCc3ccccn3)CC2)cc1

>  <score_type>  (22) 
oracle

>  <origin>  (22) 
adg

>  <m_score__min__energy>  (22) 
-7.8899999999999997

>  <m_primary>  (22) 
energy

$$$$
22:0
     RDKit          3D

 46 48  0  0  0  0  0  0  0  0999 V2000
   -6.7640   18.2930  -33.2550 C   0  0  0  0  0  0  0  0  0  0  0  0
   -7.1350   19.6530  -32.7220 C   0  0  0  0  0  0  0  0  0  0  0  0
   -8.3960   19.8230  -32.1240 C   0  0  0  0  0  0  0  0  0  0  0  0
   -8.7910   21.0700  -31.6370 C   0  0  0  0  0  0  0  0  0  0  0  0
   -7.9370   22.1660  -31.7480 C   0  0  0  0  0  0  0  0  0  0  0  0
   -6.6850   22.0180  -32.3430 C   0  0  0  0  0  0  0  0  0  0  0  0
   -6.2630   20.7700  -32.8360 C   0  0  0  0  0  0  0  0  0  0  0  0
   -4.8710   20.6670  -33.4340 C   0  0  0  0  0  0  0  0  0  0  0  0
   -4.1370   21.9410  -33.3440 N   0  0  0  0  0  0  0  0  0  0  0  0
   -3.4010   22.0420  -32.1040 C   0  0  0  0  0  0  0  0  0  0  0  0
   -2.3340   21.1710  -31.8480 C   0  0  0  0  0  0  0  0  0  0  0  0
   -1.5900   21.3000  -30.6810 C   0  0  0  0  0  0  0  0  0  0  0  0
   -1.9180   22.2970  -29.7640 C   0  0  0  0  0  0  0  0  0  0  0  0
   -2.9630   23.1490  -29.9980 N   0  0  0  0  0  0  0  0  0  0  0  0
   -3.2900   24.1780  -28.9950 C   0  0  0  0  0  0  0  0  0  0  0  0
   -2.0410   24.8790  -28.5270 C   0  0  0  0  0  0  0  0  0  0  0  0
   -1.4470   25.6460  -29.3330 O   0  0  0  0  0  0  0  0  0  0  0  0
   -1.5200   24.7390  -27.1420 C   0  0  0  0  0  0  0  0  0  0  0  0
   -1.6800   25.7960  -26.2260 C   0  0  0  0  0  0  0  0  0  0  0  0
   -1.2070   25.6790  -24.9160 C   0  0  0  0  0  0  0  0  0  0  0  0
   -0.5640   24.5100  -24.5050 C   0  0  0  0  0  0  0  0  0  0  0  0
   -0.3840   23.4600  -25.4080 C   0  0  0  0  0  0  0  0  0  0  0  0
   -0.8560   23.5710  -26.7190 C   0  0  0  0  0  0  0  0  0  0  0  0
   -3.7010   23.0420  -31.1530 C   0  0  0  0  0  0  0  0  0  0  0  0
   -4.6490   23.8450  -31.3760 O   0  0  0  0  0  0  0  0  0  0  0  0
   -6.5772   17.6083  -32.4146 H   0  0  0  0  0  0  0  0  0  0  0  0
   -7.5885   17.9027  -33.8697 H   0  0  0  0  0  0  0  0  0  0  0  0
   -5.8555   18.3754  -33.8697 H   0  0  0  0  0  0  0  0  0  0  0  0
   -9.0784   18.9644  -32.0390 H   0  0  0  0  0  0  0  0  0  0  0  0
   -9.7775   21.1880  -31.1650 H   0  0  0  0  0  0  0  0  0  0  0  0
   -8.2512   23.1485  -31.3658 H   0  0  0  0  0  0  0  0  0  0  0  0
   -6.0182   22.8887  -32.4281 H   0  0  0  0  0  0  0  0  0  0  0  0
   -4.3077   19.8933  -32.8917 H   0  0  0  0  0  0  0  0  0  0  0  0
   -4.9762   20.4095  -34.4982 H   0  0  0  0  0  0  0  0  0  0  0  0
   -3.4750   22.0060  -34.1520 H   0  0  0  0  0  0  0  0  0  0  0  0
   -4.7990   22.7470  -33.4390 H   0  0  0  0  0  0  0  0  0  0  0  0
   -2.0841   20.3823  -32.5730 H   0  0  0  0  0  0  0  0  0  0  0  0
   -0.7484   20.6201  -30.4826 H   0  0  0  0  0  0  0  0  0  0  0  0
   -1.3294   22.4003  -28.8405 H   0  0  0  0  0  0  0  0  0  0  0  0
   -3.9721   24.9156  -29.4430 H   0  0  0  0  0  0  0  0  0  0  0  0
   -3.7683   23.6922  -28.1318 H   0  0  0  0  0  0  0  0  0  0  0  0
   -2.1816   26.7219  -26.5440 H   0  0  0  0  0  0  0  0  0  0  0  0
   -1.3416   26.5096  -24.2075 H   0  0  0  0  0  0  0  0  0  0  0  0
   -0.1996   24.4161  -23.4714 H   0  0  0  0  0  0  0  0  0  0  0  0
    0.1309   22.5426  -25.0865 H   0  0  0  0  0  0  0  0  0  0  0  0
   -0.7079   22.7406  -27.4251 H   0  0  0  0  0  0  0  0  0  0  0  0
  1  2  1  0
  2  3  2  0
  3  4  1  0
  4  5  2  0
  5  6  1  0
  6  7  2  0
  7  8  1  0
  8  9  1  0
  9 10  1  0
 10 11  2  0
 11 12  1  0
 12 13  2  0
 13 14  1  0
 14 15  1  0
 15 16  1  0
 16 17  2  0
 16 18  1  0
 18 19  2  0
 19 20  1  0
 20 21  2  0
 21 22  1  0
 22 23  2  0
 14 24  1  0
 24 25  2  0
  7  2  1  0
 24 10  1  0
 23 18  1  0
  1 26  1  0
  1 27  1  0
  1 28  1  0
  3 29  1  0
  4 30  1  0
  5 31  1  0
  6 32  1  0
  8 33  1  0
  8 34  1  0
  9 35  1  0
  9 36  1  0
 11 37  1  0
 12 38  1  0
 13 39  1  0
 15 40  1  0
 15 41  1  0
 19 42  1  0
 20 43  1  0
 21 44  1  0
 22 45  1  0
 23 46  1  0
M  CHG  1   9   1
M  END
>  <UniqueID>  (23) 
22

>  <SMILES>  (23) 
Cc1ccccc1C[NH2+]c1cccn(CC(=O)c2ccccc2)c1=O

>  <Energy>  (23) 
54.27981684555255

>  <Genealogy>  (23) 
Cc1ccccc1C[NH2+]c1cccn(CC(=O)c2ccccc2)c1=O (protonated)
Cc1ccccc1C[NH2+]c1cccn(CC(=O)c2ccccc2)c1=O (3D coordinates assigned)
Cc1ccccc1C[NH2+]c1cccn(CC(=O)c2ccccc2)c1=O (optimized conformer: 54.27981684555255 kcal/mol)

>  <smiles>  (23) 
Cc1ccccc1CNc1cccn(CC(=O)c2ccccc2)c1=O

>  <score_type>  (23) 
oracle

>  <origin>  (23) 
adg

>  <m_score__min__energy>  (23) 
-8.8000000000000007

>  <m_primary>  (23) 
energy

$$$$
23:0
     RDKit          3D

 42 44  0  0  0  0  0  0  0  0999 V2000
   -2.8740   16.2030  -33.7290 C   0  0  0  0  0  0  0  0  0  0  0  0
   -4.1540   16.0770  -34.5440 C   0  0  0  0  0  0  0  0  0  0  0  0
   -5.0140   17.2370  -34.3210 N   0  0  0  0  0  0  0  0  0  0  0  0
   -5.3840   18.1800  -35.2250 C   0  0  0  0  0  0  0  0  0  0  0  0
   -6.2620   19.0930  -34.7220 N   0  0  0  0  0  0  0  0  0  0  0  0
   -6.4360   18.6690  -33.4550 C   0  0  0  0  0  0  0  0  0  0  0  0
   -7.2320   19.1990  -32.4480 C   0  0  0  0  0  0  0  0  0  0  0  0
   -8.2140   20.6760  -32.7000 S   0  0  0  0  0  0  0  0  0  0  0  0
   -6.8970   21.7500  -32.1270 C   0  0  0  0  0  0  0  0  0  0  0  0
   -7.1940   23.0290  -31.6640 C   0  0  0  0  0  0  0  0  0  0  0  0
   -6.1670   23.8860  -31.2320 C   0  0  0  0  0  0  0  0  0  0  0  0
   -6.4340   25.1860  -30.7710 O   0  0  0  0  0  0  0  0  0  0  0  0
   -6.4310   25.5730  -29.4010 C   0  0  0  0  0  0  0  0  0  0  0  0
   -4.8310   23.4500  -31.2560 C   0  0  0  0  0  0  0  0  0  0  0  0
   -3.8590   24.3650  -30.8050 O   0  0  0  0  0  0  0  0  0  0  0  0
   -3.0300   24.2250  -29.6580 C   0  0  0  0  0  0  0  0  0  0  0  0
   -4.5260   22.1430  -31.7220 C   0  0  0  0  0  0  0  0  0  0  0  0
   -3.1940   21.7000  -31.7530 O   0  0  0  0  0  0  0  0  0  0  0  0
   -2.6630   20.7720  -32.6930 C   0  0  0  0  0  0  0  0  0  0  0  0
   -5.5740   21.3070  -32.1540 C   0  0  0  0  0  0  0  0  0  0  0  0
   -7.2370   18.5580  -31.2420 N   0  0  0  0  0  0  0  0  0  0  0  0
   -6.4860   17.4310  -31.0270 C   0  0  0  0  0  0  0  0  0  0  0  0
   -5.7030   16.9200  -32.0250 N   0  0  0  0  0  0  0  0  0  0  0  0
   -5.6980   17.5610  -33.2180 C   0  0  0  0  0  0  0  0  0  0  0  0
   -3.1182   16.1790  -32.6567 H   0  0  0  0  0  0  0  0  0  0  0  0
   -2.2016   15.3667  -33.9708 H   0  0  0  0  0  0  0  0  0  0  0  0
   -2.3775   17.1544  -33.9708 H   0  0  0  0  0  0  0  0  0  0  0  0
   -3.8992   16.0143  -35.6122 H   0  0  0  0  0  0  0  0  0  0  0  0
   -4.6898   15.1690  -34.2302 H   0  0  0  0  0  0  0  0  0  0  0  0
   -5.0123   18.2047  -36.2600 H   0  0  0  0  0  0  0  0  0  0  0  0
   -8.2391   23.3711  -31.6361 H   0  0  0  0  0  0  0  0  0  0  0  0
   -6.4380   24.6747  -28.7662 H   0  0  0  0  0  0  0  0  0  0  0  0
   -5.5282   26.1647  -29.1891 H   0  0  0  0  0  0  0  0  0  0  0  0
   -7.3245   26.1786  -29.1891 H   0  0  0  0  0  0  0  0  0  0  0  0
   -3.6410   24.3282  -28.7492 H   0  0  0  0  0  0  0  0  0  0  0  0
   -2.5534   23.2337  -29.6688 H   0  0  0  0  0  0  0  0  0  0  0  0
   -2.2543   25.0049  -29.6688 H   0  0  0  0  0  0  0  0  0  0  0  0
   -2.1862   19.9386  -32.1562 H   0  0  0  0  0  0  0  0  0  0  0  0
   -3.4758   20.3841  -33.3245 H   0  0  0  0  0  0  0  0  0  0  0  0
   -1.9167   21.2762  -33.3245 H   0  0  0  0  0  0  0  0  0  0  0  0
   -5.3471   20.2936  -32.5167 H   0  0  0  0  0  0  0  0  0  0  0  0
   -6.5135   16.9349  -30.0456 H   0  0  0  0  0  0  0  0  0  0  0  0
  1  2  1  0
  2  3  1  0
  3  4  1  0
  4  5  2  0
  5  6  1  0
  6  7  2  0
  7  8  1  0
  8  9  1  0
  9 10  2  0
 10 11  1  0
 11 12  1  0
 12 13  1  0
 11 14  2  0
 14 15  1  0
 15 16  1  0
 14 17  1  0
 17 18  1  0
 18 19  1  0
 17 20  2  0
  7 21  1  0
 21 22  2  0
 22 23  1  0
 23 24  2  0
 24  3  1  0
 24  6  1  0
 20  9  1  0
  1 25  1  0
  1 26  1  0
  1 27  1  0
  2 28  1  0
  2 29  1  0
  4 30  1  0
 10 31  1  0
 13 32  1  0
 13 33  1  0
 13 34  1  0
 16 35  1  0
 16 36  1  0
 16 37  1  0
 19 38  1  0
 19 39  1  0
 19 40  1  0
 20 41  1  0
 22 42  1  0
M  END
>  <UniqueID>  (24) 
23

>  <SMILES>  (24) 
CCn1cnc2c(Sc3cc(OC)c(OC)c(OC)c3)ncnc21

>  <Energy>  (24) 
77.84391731623195

>  <Genealogy>  (24) 
CCn1cnc2c(Sc3cc(OC)c(OC)c(OC)c3)ncnc21 (3D coordinates assigned)
CCn1cnc2c(Sc3cc(OC)c(OC)c(OC)c3)ncnc21 (optimized conformer: 77.84391731623195 kcal/mol)

>  <smiles>  (24) 
CCn1cnc2c(Sc3cc(OC)c(OC)c(OC)c3)ncnc21

>  <score_type>  (24) 
oracle

>  <origin>  (24) 
adg

>  <m_score__min__energy>  (24) 
-6.6200000000000001

>  <m_primary>  (24) 
energy

$$$$
24:0
     RDKit          3D

 56 59  0  0  0  0  0  0  0  0999 V2000
   -1.5440   25.6240  -27.8420 C   0  0  0  0  0  0  0  0  0  0  0  0
   -2.0180   24.9590  -29.0690 N   0  0  0  0  0  0  0  0  0  0  0  0
   -1.1730   23.7840  -29.3440 C   0  0  0  0  0  0  0  0  0  0  0  0
   -3.4340   24.5480  -28.9390 C   0  0  0  0  0  0  0  0  0  0  0  0
   -3.8530   23.6580  -30.1170 C   0  0  0  0  0  0  0  0  0  0  0  0
   -5.3000   23.1400  -29.9800 C   0  0  0  0  0  0  0  0  0  0  0  0
   -6.0570   23.0340  -31.2460 N   0  0  0  0  0  0  0  0  0  0  0  0
   -6.1360   24.1480  -32.1990 C   0  0  0  0  0  0  0  0  0  0  0  0
   -7.1610   22.1130  -31.2510 C   0  0  0  0  0  0  0  0  0  0  0  0
   -8.3930   22.5590  -30.8640 N   0  0  0  0  0  0  0  0  0  0  0  0
   -9.5170   21.7990  -31.0030 C   0  0  0  0  0  0  0  0  0  0  0  0
   -9.4440   20.5700  -31.5790 N   0  0  0  0  0  0  0  0  0  0  0  0
   -8.2350   20.0990  -31.9680 C   0  0  0  0  0  0  0  0  0  0  0  0
   -7.9360   18.6320  -32.7180 S   0  0  0  0  0  0  0  0  0  0  0  0
   -6.2650   18.8630  -32.8100 C   0  0  0  0  0  0  0  0  0  0  0  0
   -5.3340   17.8620  -33.3600 C   0  0  0  0  0  0  0  0  0  0  0  0
   -4.7680   18.0560  -34.6300 C   0  0  0  0  0  0  0  0  0  0  0  0
   -3.8810   17.1130  -35.1570 C   0  0  0  0  0  0  0  0  0  0  0  0
   -3.5680   15.9620  -34.4310 C   0  0  0  0  0  0  0  0  0  0  0  0
   -4.1430   15.7520  -33.1750 C   0  0  0  0  0  0  0  0  0  0  0  0
   -5.0240   16.6970  -32.6410 C   0  0  0  0  0  0  0  0  0  0  0  0
   -5.9260   20.1060  -32.2440 C   0  0  0  0  0  0  0  0  0  0  0  0
   -4.5290   20.5550  -32.1060 C   0  0  0  0  0  0  0  0  0  0  0  0
   -3.8300   21.0210  -33.2290 C   0  0  0  0  0  0  0  0  0  0  0  0
   -2.4690   21.3220  -33.1330 C   0  0  0  0  0  0  0  0  0  0  0  0
   -1.7940   21.1310  -31.9250 C   0  0  0  0  0  0  0  0  0  0  0  0
   -2.4830   20.6550  -30.8060 C   0  0  0  0  0  0  0  0  0  0  0  0
   -3.8520   20.3810  -30.8900 C   0  0  0  0  0  0  0  0  0  0  0  0
   -7.0620   20.8160  -31.7940 C   0  0  0  0  0  0  0  0  0  0  0  0
   -1.9272   25.0864  -26.9621 H   0  0  0  0  0  0  0  0  0  0  0  0
   -0.4442   25.6196  -27.8241 H   0  0  0  0  0  0  0  0  0  0  0  0
   -1.9069   26.6623  -27.8241 H   0  0  0  0  0  0  0  0  0  0  0  0
   -0.8497   23.3344  -28.3936 H   0  0  0  0  0  0  0  0  0  0  0  0
   -1.7484   23.0458  -29.9219 H   0  0  0  0  0  0  0  0  0  0  0  0
   -0.2900   24.0945  -29.9219 H   0  0  0  0  0  0  0  0  0  0  0  0
   -3.5625   23.9885  -28.0007 H   0  0  0  0  0  0  0  0  0  0  0  0
   -4.0642   25.4496  -28.9364 H   0  0  0  0  0  0  0  0  0  0  0  0
   -3.7736   24.2417  -31.0460 H   0  0  0  0  0  0  0  0  0  0  0  0
   -3.1848   22.7843  -30.1304 H   0  0  0  0  0  0  0  0  0  0  0  0
   -5.2610   22.1402  -29.5229 H   0  0  0  0  0  0  0  0  0  0  0  0
   -5.8323   23.8840  -29.3693 H   0  0  0  0  0  0  0  0  0  0  0  0
   -6.2034   25.0977  -31.6481 H   0  0  0  0  0  0  0  0  0  0  0  0
   -5.2360   24.1540  -32.8315 H   0  0  0  0  0  0  0  0  0  0  0  0
   -7.0278   24.0269  -32.8315 H   0  0  0  0  0  0  0  0  0  0  0  0
  -10.4852   22.1817  -30.6480 H   0  0  0  0  0  0  0  0  0  0  0  0
  -10.3070   19.9980  -31.7170 H   0  0  0  0  0  0  0  0  0  0  0  0
   -5.0235   18.9534  -35.2125 H   0  0  0  0  0  0  0  0  0  0  0  0
   -3.4285   17.2780  -36.1459 H   0  0  0  0  0  0  0  0  0  0  0  0
   -2.8694   15.2214  -34.8475 H   0  0  0  0  0  0  0  0  0  0  0  0
   -3.9022   14.8421  -32.6057 H   0  0  0  0  0  0  0  0  0  0  0  0
   -5.4763   16.5268  -31.6529 H   0  0  0  0  0  0  0  0  0  0  0  0
   -4.3543   21.1498  -34.1874 H   0  0  0  0  0  0  0  0  0  0  0  0
   -1.9287   21.7096  -34.0092 H   0  0  0  0  0  0  0  0  0  0  0  0
   -0.7194   21.3554  -31.8544 H   0  0  0  0  0  0  0  0  0  0  0  0
   -1.9480   20.4957  -29.8582 H   0  0  0  0  0  0  0  0  0  0  0  0
   -4.3978   20.0290  -30.0022 H   0  0  0  0  0  0  0  0  0  0  0  0
  1  2  1  0
  2  3  1  0
  2  4  1  0
  4  5  1  0
  5  6  1  0
  6  7  1  0
  7  8  1  0
  7  9  1  0
  9 10  2  0
 10 11  1  0
 11 12  2  0
 12 13  1  0
 13 14  1  0
 14 15  1  0
 15 16  1  0
 16 17  2  0
 17 18  1  0
 18 19  2  0
 19 20  1  0
 20 21  2  0
 15 22  2  0
 22 23  1  0
 23 24  2  0
 24 25  1  0
 25 26  2  0
 26 27  1  0
 27 28  2  0
 22 29  1  0
 29  9  1  0
 29 13  2  0
 21 16  1  0
 28 23  1  0
  1 30  1  0
  1 31  1  0
  1 32  1  0
  3 33  1  0
  3 34  1  0
  3 35  1  0
  4 36  1  0
  4 37  1  0
  5 38  1  0
  5 39  1  0
  6 40  1  0
  6 41  1  0
  8 42  1  0
  8 43  1  0
  8 44  1  0
 11 45  1  0
 12 46  1  0
 17 47  1  0
 18 48  1  0
 19 49  1  0
 20 50  1  0
 21 51  1  0
 24 52  1  0
 25 53  1  0
 26 54  1  0
 27 55  1  0
 28 56  1  0
M  CHG  1  12   1
M  END
>  <UniqueID>  (25) 
24

>  <SMILES>  (25) 
CN(C)CCCN(C)c1nc[nH+]c2sc(-c3ccccc3)c(-c3ccccc3)c12

>  <Energy>  (25) 
108.2978847502076

>  <Genealogy>  (25) 
CN(C)CCCN(C)c1nc[nH+]c2sc(-c3ccccc3)c(-c3ccccc3)c12 (protonated)
CN(C)CCCN(C)c1nc[nH+]c2sc(-c3ccccc3)c(-c3ccccc3)c12 (3D coordinates assigned)
CN(C)CCCN(C)c1nc[nH+]c2sc(-c3ccccc3)c(-c3ccccc3)c12 (optimized conformer: 108.2978847502076 kcal/mol)

>  <smiles>  (25) 
CN(C)CCCN(C)c1ncnc2sc(-c3ccccc3)c(-c3ccccc3)c12

>  <score_type>  (25) 
oracle

>  <origin>  (25) 
adg

>  <m_score__min__energy>  (25) 
-7.9500000000000002

>  <m_primary>  (25) 
energy

$$$$
25:0
     RDKit          3D

 42 45  0  0  0  0  0  0  0  0999 V2000
   -4.8140   18.8750  -33.7070 C   0  0  0  0  0  0  0  0  0  0  0  0
   -4.0430   19.8480  -32.8150 C   0  0  0  0  0  0  0  0  0  0  0  0
   -4.1150   21.2990  -33.3160 C   0  0  0  0  0  0  0  0  0  0  0  0
   -4.0360   22.2950  -32.1920 C   0  0  0  0  0  0  0  0  0  0  0  0
   -2.7240   22.4480  -31.1480 S   0  0  0  0  0  0  0  0  0  0  0  0
   -3.4070   23.7320  -30.3030 C   0  0  0  0  0  0  0  0  0  0  0  0
   -2.7770   24.4280  -29.1780 C   0  0  0  0  0  0  0  0  0  0  0  0
   -1.7380   25.2910  -29.3350 N   0  0  0  0  0  0  0  0  0  0  0  0
   -1.4940   25.6800  -28.0740 C   0  0  0  0  0  0  0  0  0  0  0  0
   -0.5210   26.5730  -27.6310 C   0  0  0  0  0  0  0  0  0  0  0  0
   -0.4520   26.8310  -26.2490 C   0  0  0  0  0  0  0  0  0  0  0  0
   -1.3480   26.1960  -25.3580 C   0  0  0  0  0  0  0  0  0  0  0  0
   -2.3190   25.3000  -25.8440 C   0  0  0  0  0  0  0  0  0  0  0  0
   -2.3570   25.0700  -27.2180 C   0  0  0  0  0  0  0  0  0  0  0  0
   -3.1880   24.2640  -27.8920 N   0  0  0  0  0  0  0  0  0  0  0  0
   -4.6240   24.0540  -30.7920 N   0  0  0  0  0  0  0  0  0  0  0  0
   -4.9860   23.2620  -31.8390 C   0  0  0  0  0  0  0  0  0  0  0  0
   -6.3170   23.4480  -32.5150 C   0  0  0  0  0  0  0  0  0  0  0  0
   -7.2800   22.3520  -32.1460 C   0  0  0  0  0  0  0  0  0  0  0  0
   -8.3030   22.5920  -31.2120 C   0  0  0  0  0  0  0  0  0  0  0  0
   -9.2020   21.5760  -30.8740 C   0  0  0  0  0  0  0  0  0  0  0  0
   -9.0830   20.3130  -31.4580 C   0  0  0  0  0  0  0  0  0  0  0  0
   -8.0630   20.0610  -32.3790 C   0  0  0  0  0  0  0  0  0  0  0  0
   -7.1610   21.0730  -32.7190 C   0  0  0  0  0  0  0  0  0  0  0  0
   -5.3748   18.1673  -33.0787 H   0  0  0  0  0  0  0  0  0  0  0  0
   -5.5150   19.4366  -34.3421 H   0  0  0  0  0  0  0  0  0  0  0  0
   -4.1071   18.3210  -34.3421 H   0  0  0  0  0  0  0  0  0  0  0  0
   -4.4656   19.8050  -31.8003 H   0  0  0  0  0  0  0  0  0  0  0  0
   -2.9858   19.5444  -32.8296 H   0  0  0  0  0  0  0  0  0  0  0  0
   -3.2771   21.4770  -34.0061 H   0  0  0  0  0  0  0  0  0  0  0  0
   -5.0843   21.4341  -33.8181 H   0  0  0  0  0  0  0  0  0  0  0  0
    0.1690   27.0593  -28.3362 H   0  0  0  0  0  0  0  0  0  0  0  0
    0.3028   27.5302  -25.8600 H   0  0  0  0  0  0  0  0  0  0  0  0
   -1.2859   26.4033  -24.2795 H   0  0  0  0  0  0  0  0  0  0  0  0
   -3.0230   24.7991  -25.1632 H   0  0  0  0  0  0  0  0  0  0  0  0
   -6.7417   24.4153  -32.2085 H   0  0  0  0  0  0  0  0  0  0  0  0
   -6.1591   23.4173  -33.6032 H   0  0  0  0  0  0  0  0  0  0  0  0
   -8.3965   23.5836  -30.7451 H   0  0  0  0  0  0  0  0  0  0  0  0
  -10.0041   21.7717  -30.1471 H   0  0  0  0  0  0  0  0  0  0  0  0
   -9.7930   19.5158  -31.1926 H   0  0  0  0  0  0  0  0  0  0  0  0
   -7.9698   19.0652  -32.8369 H   0  0  0  0  0  0  0  0  0  0  0  0
   -6.3542   20.8683  -33.4381 H   0  0  0  0  0  0  0  0  0  0  0  0
  1  2  1  0
  2  3  1  0
  3  4  1  0
  4  5  1  0
  5  6  1  0
  6  7  1  0
  7  8  2  0
  8  9  1  0
  9 10  2  0
 10 11  1  0
 11 12  2  0
 12 13  1  0
 13 14  2  0
 14 15  1  0
  6 16  2  0
 16 17  1  0
 17 18  1  0
 18 19  1  0
 19 20  2  0
 20 21  1  0
 21 22  2  0
 22 23  1  0
 23 24  2  0
 17  4  2  0
 24 19  1  0
 15  7  1  0
 14  9  1  0
  1 25  1  0
  1 26  1  0
  1 27  1  0
  2 28  1  0
  2 29  1  0
  3 30  1  0
  3 31  1  0
 10 32  1  0
 11 33  1  0
 12 34  1  0
 13 35  1  0
 18 36  1  0
 18 37  1  0
 20 38  1  0
 21 39  1  0
 22 40  1  0
 23 41  1  0
 24 42  1  0
M  CHG  1  15  -1
M  END
>  <UniqueID>  (26) 
25

>  <SMILES>  (26) 
CCCc1sc(-c2nc3ccccc3[n-]2)nc1Cc1ccccc1

>  <Energy>  (26) 
102.4876559088936

>  <Genealogy>  (26) 
CCCc1sc(-c2nc3ccccc3[n-]2)nc1Cc1ccccc1 (protonated)
CCCc1sc(-c2nc3ccccc3[n-]2)nc1Cc1ccccc1 (3D coordinates assigned)
CCCc1sc(-c2nc3ccccc3[n-]2)nc1Cc1ccccc1 (optimized conformer: 102.4876559088936 kcal/mol)

>  <smiles>  (26) 
CCCc1sc(-c2nc3ccccc3[nH]2)nc1Cc1ccccc1

>  <score_type>  (26) 
oracle

>  <origin>  (26) 
adg

>  <m_score__min__energy>  (26) 
-9.8100000000000005

>  <m_primary>  (26) 
energy

$$$$
26:0
     RDKit          3D

 41 45  0  0  0  0  0  0  0  0999 V2000
   -2.2130   22.0070  -34.5890 H   0  0  0  0  0  0  0  0  0  0  0  0
   -2.0490   21.5410  -33.6700 N   0  0  0  0  0  0  0  0  0  0  0  0
   -2.9650   21.5390  -32.7590 C   0  0  0  0  0  0  0  0  0  0  0  0
   -2.7970   20.9970  -31.5070 O   0  0  0  0  0  0  0  0  0  0  0  0
   -3.9690   21.2280  -30.7350 C   0  0  0  0  0  0  0  0  0  0  0  0
   -3.7717   21.9705  -29.9477 H   0  0  0  0  0  0  0  0  0  0  0  0
   -4.3148   20.3137  -30.2306 H   0  0  0  0  0  0  0  0  0  0  0  0
   -5.0410   21.7780  -31.7590 C   0  0  1  0  0  0  0  0  0  0  0  0
   -6.0620   20.6920  -32.1340 C   0  0  0  0  0  0  0  0  0  0  0  0
   -5.6460   19.3640  -32.3710 C   0  0  0  0  0  0  0  0  0  0  0  0
   -4.5803   19.1077  -32.2785 H   0  0  0  0  0  0  0  0  0  0  0  0
   -6.5680   18.3630  -32.7230 C   0  0  0  0  0  0  0  0  0  0  0  0
   -6.1150   16.9650  -32.9410 C   0  0  0  0  0  0  0  0  0  0  0  0
   -6.8550   16.0850  -33.7490 C   0  0  0  0  0  0  0  0  0  0  0  0
   -7.7833   16.4294  -34.2282 H   0  0  0  0  0  0  0  0  0  0  0  0
   -6.4150   14.7750  -33.9450 C   0  0  0  0  0  0  0  0  0  0  0  0
   -7.3320   13.6750  -34.9570 Cl  0  0  0  0  0  0  0  0  0  0  0  0
   -5.2360   14.3490  -33.3290 C   0  0  0  0  0  0  0  0  0  0  0  0
   -4.8813   13.3182  -33.4760 H   0  0  0  0  0  0  0  0  0  0  0  0
   -4.5260   15.2060  -32.5480 N   0  0  0  0  0  0  0  0  0  0  0  0
   -3.6480   14.8720  -32.0930 H   0  0  0  0  0  0  0  0  0  0  0  0
   -4.9340   16.4890  -32.3440 C   0  0  0  0  0  0  0  0  0  0  0  0
   -4.3357   17.1578  -31.7078 H   0  0  0  0  0  0  0  0  0  0  0  0
   -7.9210   18.7040  -32.8700 C   0  0  0  0  0  0  0  0  0  0  0  0
   -8.6558   17.9264  -33.1259 H   0  0  0  0  0  0  0  0  0  0  0  0
   -8.3400   20.0210  -32.6940 C   0  0  0  0  0  0  0  0  0  0  0  0
   -9.4024   20.2763  -32.8209 H   0  0  0  0  0  0  0  0  0  0  0  0
   -7.4240   21.0200  -32.3580 C   0  0  0  0  0  0  0  0  0  0  0  0
   -7.8840   22.3380  -32.2530 O   0  0  0  0  0  0  0  0  0  0  0  0
   -7.0010   23.4500  -32.1890 C   0  0  0  0  0  0  0  0  0  0  0  0
   -6.6586   23.7089  -33.2018 H   0  0  0  0  0  0  0  0  0  0  0  0
   -7.5216   24.3159  -31.7540 H   0  0  0  0  0  0  0  0  0  0  0  0
   -5.7990   23.0760  -31.3200 C   0  0  0  0  0  0  0  0  0  0  0  0
   -5.0120   24.2410  -30.7330 C   0  0  0  0  0  0  0  0  0  0  0  0
   -3.9233   24.1577  -30.5998 H   0  0  0  0  0  0  0  0  0  0  0  0
   -4.9002   25.3071  -30.9800 H   0  0  0  0  0  0  0  0  0  0  0  0
   -5.9570   23.4290  -29.8420 C   0  0  0  0  0  0  0  0  0  0  0  0
   -5.5477   22.7614  -29.0695 H   0  0  0  0  0  0  0  0  0  0  0  0
   -6.8056   23.6681  -29.1842 H   0  0  0  0  0  0  0  0  0  0  0  0
   -4.2530   22.0760  -32.9530 N   0  0  0  0  0  0  0  0  0  0  0  0
   -4.6240   22.4360  -33.8600 H   0  0  0  0  0  0  0  0  0  0  0  0
  1  2  1  0
  2  3  2  0
  3  4  1  0
  4  5  1  0
  5  6  1  0
  5  7  1  0
  5  8  1  0
  8  9  1  0
  9 10  2  0
 10 11  1  0
 10 12  1  0
 12 13  1  0
 13 14  2  0
 14 15  1  0
 14 16  1  0
 16 17  1  0
 16 18  2  0
 18 19  1  0
 18 20  1  0
 20 21  1  0
 20 22  2  0
 22 23  1  0
 12 24  2  0
 24 25  1  0
 24 26  1  0
 26 27  1  0
 26 28  2  0
 28 29  1  0
 29 30  1  0
 30 31  1  0
 30 32  1  0
 30 33  1  0
 33 34  1  0
 34 35  1  0
 34 36  1  0
 34 37  1  0
 37 38  1  0
 37 39  1  0
  8 40  1  6
 40 41  1  0
 40  3  1  0
 33  8  1  0
 28  9  1  0
 37 33  1  0
 22 13  1  0
M  CHG  1  20   1
M  END
>  <UniqueID>  (27) 
26

>  <SMILES>  (27) 
[H]/N=C1/N[C@]2(CO1)c1cc(-c3c[nH+]cc(Cl)c3)ccc1OCC21CC1

>  <Energy>  (27) 
343.39188496858

>  <Genealogy>  (27) 
N=C1NC2(CO1)c1cc(-c3c[nH+]cc(Cl)c3)ccc1OCC21CC1 (protonated)
N=C1N[C@]2(CO1)c1cc(-c3c[nH+]cc(Cl)c3)ccc1OCC21CC1 (chirality)
[H]/N=C1/N[C@]2(CO1)c1cc(-c3c[nH+]cc(Cl)c3)ccc1OCC21CC1 (cis-trans isomerization)
[H]/N=C1/N[C@]2(CO1)c1cc(-c3c[nH+]cc(Cl)c3)ccc1OCC21CC1 (3D coordinates assigned)
[H]/N=C1/N[C@]2(CO1)c1cc(-c3c[nH+]cc(Cl)c3)ccc1OCC21CC1 (nonaromatic ring conformer: 343.39188496858 kcal/mol)

>  <smiles>  (27) 
N=C1NC2(CO1)c1cc(-c3cncc(Cl)c3)ccc1OCC21CC1

>  <score_type>  (27) 
oracle

>  <origin>  (27) 
adg

>  <m_score__min__energy>  (27) 
-8.0199999999999996

>  <m_primary>  (27) 
energy

$$$$
27:0
     RDKit          3D

 52 55  0  0  0  0  0  0  0  0999 V2000
   -4.6490   17.5340  -34.7320 C   0  0  0  0  0  0  0  0  0  0  0  0
   -4.2690   18.5980  -33.9150 C   0  0  0  0  0  0  0  0  0  0  0  0
   -5.4010   18.9160  -33.1910 C   0  0  0  0  0  0  0  0  0  0  0  0
   -5.6530   19.8450  -32.1830 C   0  0  0  0  0  0  0  0  0  0  0  0
   -4.6310   20.7310  -31.6990 N   0  0  0  0  0  0  0  0  0  0  0  0
   -4.4320   22.0250  -32.3690 C   0  0  0  0  0  0  0  0  0  0  0  0
   -3.1060   22.6780  -31.9540 C   0  0  0  0  0  0  0  0  0  0  0  0
   -2.9200   22.7510  -30.4130 C   0  0  0  0  0  0  0  0  0  0  0  0
   -3.3310   24.1230  -29.8440 C   0  0  0  0  0  0  0  0  0  0  0  0
   -4.0300   24.8780  -30.8210 O   0  0  0  0  0  0  0  0  0  0  0  0
   -5.3840   25.0310  -30.4520 C   0  0  0  0  0  0  0  0  0  0  0  0
   -5.9130   23.7680  -29.7480 C   0  0  0  0  0  0  0  0  0  0  0  0
   -6.8230   22.9020  -30.5330 N   0  0  0  0  0  0  0  0  0  0  0  0
   -7.9370   22.3330  -29.7760 C   0  0  0  0  0  0  0  0  0  0  0  0
   -8.9750   21.8930  -30.8040 C   0  0  0  0  0  0  0  0  0  0  0  0
   -8.5350   22.5130  -32.1260 C   0  0  0  0  0  0  0  0  0  0  0  0
   -7.3930   23.4470  -31.7660 C   0  0  0  0  0  0  0  0  0  0  0  0
   -3.6290   21.6040  -29.6510 C   0  0  0  0  0  0  0  0  0  0  0  0
   -3.8190   20.3690  -30.5330 C   0  0  0  0  0  0  0  0  0  0  0  0
   -6.9050   19.8540  -31.6260 N   0  0  0  0  0  0  0  0  0  0  0  0
   -7.8760   18.9800  -32.0430 C   0  0  0  0  0  0  0  0  0  0  0  0
   -7.6150   18.0670  -33.0250 N   0  0  0  0  0  0  0  0  0  0  0  0
   -6.3810   18.0560  -33.5820 C   0  0  0  0  0  0  0  0  0  0  0  0
   -5.9460   17.2060  -34.5240 N   0  0  0  0  0  0  0  0  0  0  0  0
   -3.9847   17.0292  -35.4488 H   0  0  0  0  0  0  0  0  0  0  0  0
   -3.2816   19.0796  -33.8593 H   0  0  0  0  0  0  0  0  0  0  0  0
   -4.4266   21.8663  -33.4575 H   0  0  0  0  0  0  0  0  0  0  0  0
   -5.2528   22.6952  -32.0739 H   0  0  0  0  0  0  0  0  0  0  0  0
   -2.2784   22.0914  -32.3794 H   0  0  0  0  0  0  0  0  0  0  0  0
   -3.1155   23.7106  -32.3331 H   0  0  0  0  0  0  0  0  0  0  0  0
   -1.8407   22.6197  -30.2461 H   0  0  0  0  0  0  0  0  0  0  0  0
   -3.9814   23.9720  -28.9699 H   0  0  0  0  0  0  0  0  0  0  0  0
   -2.4241   24.6727  -29.5520 H   0  0  0  0  0  0  0  0  0  0  0  0
   -5.4754   25.8881  -29.7686 H   0  0  0  0  0  0  0  0  0  0  0  0
   -5.9776   25.1977  -31.3630 H   0  0  0  0  0  0  0  0  0  0  0  0
   -5.0439   23.1603  -29.4557 H   0  0  0  0  0  0  0  0  0  0  0  0
   -6.5184   24.1372  -28.9070 H   0  0  0  0  0  0  0  0  0  0  0  0
   -7.5950   21.4694  -29.1868 H   0  0  0  0  0  0  0  0  0  0  0  0
   -8.3578   23.0668  -29.0728 H   0  0  0  0  0  0  0  0  0  0  0  0
   -8.9956   20.7960  -30.8829 H   0  0  0  0  0  0  0  0  0  0  0  0
   -9.9881   22.2154  -30.5216 H   0  0  0  0  0  0  0  0  0  0  0  0
   -8.1914   21.7338  -32.8223 H   0  0  0  0  0  0  0  0  0  0  0  0
   -9.3586   23.0437  -32.6260 H   0  0  0  0  0  0  0  0  0  0  0  0
   -6.6387   23.4598  -32.5665 H   0  0  0  0  0  0  0  0  0  0  0  0
   -7.7364   24.4839  -31.6360 H   0  0  0  0  0  0  0  0  0  0  0  0
   -3.0206   21.3275  -28.7773 H   0  0  0  0  0  0  0  0  0  0  0  0
   -4.6230   21.9609  -29.3434 H   0  0  0  0  0  0  0  0  0  0  0  0
   -2.8378   20.0011  -30.8676 H   0  0  0  0  0  0  0  0  0  0  0  0
   -4.3263   19.5792  -29.9595 H   0  0  0  0  0  0  0  0  0  0  0  0
   -7.1350   20.5410  -30.8740 H   0  0  0  0  0  0  0  0  0  0  0  0
   -8.8743   19.0145  -31.5824 H   0  0  0  0  0  0  0  0  0  0  0  0
   -6.4850   16.4390  -34.9850 H   0  0  0  0  0  0  0  0  0  0  0  0
  1  2  2  0
  2  3  1  0
  3  4  2  0
  4  5  1  0
  5  6  1  0
  6  7  1  0
  7  8  1  0
  8  9  1  0
  9 10  1  0
 10 11  1  0
 11 12  1  0
 12 13  1  0
 13 14  1  0
 14 15  1  0
 15 16  1  0
 16 17  1  0
  8 18  1  0
 18 19  1  0
  4 20  1  0
 20 21  2  0
 21 22  1  0
 22 23  2  0
 23 24  1  0
 24  1  1  0
 23  3  1  0
 19  5  1  0
 17 13  1  0
  1 25  1  0
  2 26  1  0
  6 27  1  0
  6 28  1  0
  7 29  1  0
  7 30  1  0
  8 31  1  0
  9 32  1  0
  9 33  1  0
 11 34  1  0
 11 35  1  0
 12 36  1  0
 12 37  1  0
 14 38  1  0
 14 39  1  0
 15 40  1  0
 15 41  1  0
 16 42  1  0
 16 43  1  0
 17 44  1  0
 17 45  1  0
 18 46  1  0
 18 47  1  0
 19 48  1  0
 19 49  1  0
 20 50  1  0
 21 51  1  0
 24 52  1  0
M  CHG  1  20   1
M  END
>  <UniqueID>  (28) 
27

>  <SMILES>  (28) 
c1cc2c(N3CCC(COCCN4CCCC4)CC3)[nH+]cnc2[nH]1

>  <Energy>  (28) 
100.31264235461371

>  <Genealogy>  (28) 
c1cc2c(N3CCC(COCCN4CCCC4)CC3)[nH+]cnc2[nH]1 (protonated)
c1cc2c(N3CCC(COCCN4CCCC4)CC3)[nH+]cnc2[nH]1 (3D coordinates assigned)
c1cc2c(N3CCC(COCCN4CCCC4)CC3)[nH+]cnc2[nH]1 (nonaromatic ring conformer: 100.31264235461371 kcal/mol)

>  <smiles>  (28) 
c1nc(N2CCC(COCCN3CCCC3)CC2)c2cc[nH]c2n1

>  <score_type>  (28) 
oracle

>  <origin>  (28) 
adg

>  <m_score__min__energy>  (28) 
-7.8399999999999999

>  <m_primary>  (28) 
energy

$$$$
28:0
     RDKit          3D

 42 44  0  0  0  0  0  0  0  0999 V2000
   -2.7048   19.4029  -27.7842 H   0  0  0  0  0  0  0  0  0  0  0  0
   -2.7160   20.4370  -28.1590 C   0  0  0  0  0  0  0  0  0  0  0  0
   -3.0960   20.6980  -29.4760 C   0  0  0  0  0  0  0  0  0  0  0  0
   -3.3825   19.8689  -30.1397 H   0  0  0  0  0  0  0  0  0  0  0  0
   -3.1130   22.0090  -29.9520 C   0  0  0  0  0  0  0  0  0  0  0  0
   -3.4116   22.2068  -30.9920 H   0  0  0  0  0  0  0  0  0  0  0  0
   -2.7520   23.0810  -29.1150 C   0  0  0  0  0  0  0  0  0  0  0  0
   -2.7990   24.4620  -29.6510 C   0  0  0  0  0  0  0  0  0  0  0  0
   -1.9410   25.3060  -29.2790 O   0  0  0  0  0  0  0  0  0  0  0  0
   -3.7560   24.8410  -30.6500 N   0  0  0  0  0  0  0  0  0  0  0  0
   -4.9810   24.1440  -30.9110 C   0  0  0  0  0  0  0  0  0  0  0  0
   -5.1040   23.3930  -32.0860 C   0  0  0  0  0  0  0  0  0  0  0  0
   -4.2890   23.3929  -32.8248 H   0  0  0  0  0  0  0  0  0  0  0  0
   -6.2600   22.6430  -32.3230 C   0  0  0  0  0  0  0  0  0  0  0  0
   -6.3462   22.0435  -33.2412 H   0  0  0  0  0  0  0  0  0  0  0  0
   -7.3090   22.6530  -31.3940 C   0  0  0  0  0  0  0  0  0  0  0  0
   -8.7250   21.6400  -31.6430 S   0  0  0  0  0  0  0  0  0  0  0  0
   -9.8480   22.4110  -32.2780 O   0  0  0  0  0  0  0  0  0  0  0  0
   -9.1820   21.1520  -30.2980 O   0  0  0  0  0  0  0  0  0  0  0  0
   -8.3420   20.2590  -32.6230 N   0  0  0  0  0  0  0  0  0  0  0  0
   -7.5890   19.2260  -32.3650 C   0  0  0  0  0  0  0  0  0  0  0  0
   -7.6920   18.5770  -31.2290 O   0  0  0  0  0  0  0  0  0  0  0  0
   -6.8350   17.6030  -31.1720 N   0  0  0  0  0  0  0  0  0  0  0  0
   -6.7240   16.9540  -30.3620 H   0  0  0  0  0  0  0  0  0  0  0  0
   -6.1290   17.5980  -32.3150 C   0  0  0  0  0  0  0  0  0  0  0  0
   -5.0220   16.6350  -32.6080 C   0  0  0  0  0  0  0  0  0  0  0  0
   -4.5975   16.2657  -31.6628 H   0  0  0  0  0  0  0  0  0  0  0  0
   -5.4168   15.7880  -33.1883 H   0  0  0  0  0  0  0  0  0  0  0  0
   -4.2378   17.1433  -33.1883 H   0  0  0  0  0  0  0  0  0  0  0  0
   -6.5850   18.6210  -33.1380 C   0  0  0  0  0  0  0  0  0  0  0  0
   -6.0030   18.9770  -34.4740 C   0  0  0  0  0  0  0  0  0  0  0  0
   -5.0728   19.5460  -34.3289 H   0  0  0  0  0  0  0  0  0  0  0  0
   -5.7860   18.0569  -35.0364 H   0  0  0  0  0  0  0  0  0  0  0  0
   -6.7234   19.5892  -35.0364 H   0  0  0  0  0  0  0  0  0  0  0  0
   -7.2170   23.4600  -30.2520 C   0  0  0  0  0  0  0  0  0  0  0  0
   -8.0592   23.5115  -29.5463 H   0  0  0  0  0  0  0  0  0  0  0  0
   -6.0570   24.1990  -30.0090 C   0  0  0  0  0  0  0  0  0  0  0  0
   -5.9855   24.8263  -29.1083 H   0  0  0  0  0  0  0  0  0  0  0  0
   -2.3630   22.8100  -27.7830 C   0  0  0  0  0  0  0  0  0  0  0  0
   -1.9190   24.2030  -26.5410 Br  0  0  0  0  0  0  0  0  0  0  0  0
   -2.3500   21.4890  -27.3170 C   0  0  0  0  0  0  0  0  0  0  0  0
   -2.0492   21.2789  -26.2800 H   0  0  0  0  0  0  0  0  0  0  0  0
  1  2  1  0
  2  3  2  0
  3  4  1  0
  3  5  1  0
  5  6  1  0
  5  7  2  0
  7  8  1  0
  8  9  2  0
  8 10  1  0
 10 11  1  0
 11 12  2  0
 12 13  1  0
 12 14  1  0
 14 15  1  0
 14 16  2  0
 16 17  1  0
 17 18  2  0
 17 19  2  0
 17 20  1  0
 20 21  2  0
 21 22  1  0
 22 23  1  0
 23 24  1  0
 23 25  1  0
 25 26  1  0
 26 27  1  0
 26 28  1  0
 26 29  1  0
 25 30  2  0
 30 31  1  0
 31 32  1  0
 31 33  1  0
 31 34  1  0
 16 35  1  0
 35 36  1  0
 35 37  2  0
 37 38  1  0
  7 39  1  0
 39 40  1  0
 39 41  2  0
 41 42  1  0
 41  2  1  0
 37 11  1  0
 30 21  1  0
M  CHG  1  10  -1
M  END
>  <UniqueID>  (29) 
28

>  <SMILES>  (29) 
Cc1[nH]o/c(=N/S(=O)(=O)c2ccc([N-]C(=O)c3ccccc3Br)cc2)c1C

>  <Energy>  (29) 
91.79595367149923

>  <Genealogy>  (29) 
Cc1[nH]oc(=NS(=O)(=O)c2ccc([N-]C(=O)c3ccccc3Br)cc2)c1C (protonated)
Cc1[nH]o/c(=N/S(=O)(=O)c2ccc([N-]C(=O)c3ccccc3Br)cc2)c1C (cis-trans isomerization)
Cc1[nH]o/c(=N/S(=O)(=O)c2ccc([N-]C(=O)c3ccccc3Br)cc2)c1C (3D coordinates assigned)
Cc1[nH]o/c(=N/S(=O)(=O)c2ccc([N-]C(=O)c3ccccc3Br)cc2)c1C (optimized conformer: 91.79595367149923 kcal/mol)

>  <smiles>  (29) 
Cc1[nH]oc(=NS(=O)(=O)c2ccc(NC(=O)c3ccccc3Br)cc2)c1C

>  <score_type>  (29) 
oracle

>  <origin>  (29) 
adg

>  <m_score__min__energy>  (29) 
-11.449999999999999

>  <m_primary>  (29) 
energy

$$$$
29:0
     RDKit          3D

 69 72  0  0  0  0  0  0  0  0999 V2000
   -6.7250   24.2020  -30.4540 C   0  0  0  0  0  0  0  0  0  0  0  0
   -6.9750   23.4710  -31.7740 C   0  0  0  0  0  0  0  0  0  0  0  0
   -8.4120   22.9380  -31.8990 C   0  0  0  0  0  0  0  0  0  0  0  0
   -8.6770   21.6010  -31.1760 C   0  0  0  0  0  0  0  0  0  0  0  0
   -9.5110   20.5780  -31.9750 C   0  0  0  0  0  0  0  0  0  0  0  0
   -8.6760   19.6180  -32.8410 C   0  0  0  0  0  0  0  0  0  0  0  0
   -7.1950   19.8060  -32.6380 C   0  0  0  0  0  0  0  0  0  0  0  0
   -6.4630   20.6610  -33.4740 C   0  0  0  0  0  0  0  0  0  0  0  0
   -5.0950   20.8500  -33.2720 C   0  0  0  0  0  0  0  0  0  0  0  0
   -4.4250   20.1890  -32.2270 C   0  0  0  0  0  0  0  0  0  0  0  0
   -2.9270   20.4130  -32.0290 C   0  0  1  0  0  0  0  0  0  0  0  0
   -2.1310   20.1330  -33.2880 C   0  0  0  0  0  0  0  0  0  0  0  0
   -1.5710   21.0610  -34.0890 N   0  0  0  0  0  0  0  0  0  0  0  0
   -0.9470   20.3990  -35.0510 N   0  0  0  0  0  0  0  0  0  0  0  0
   -1.1070   19.0950  -34.8620 N   0  0  0  0  0  0  0  0  0  0  0  0
   -1.8420   18.9070  -33.7780 N   0  0  0  0  0  0  0  0  0  0  0  0
   -2.2040   17.5900  -33.2510 C   0  0  0  0  0  0  0  0  0  0  0  0
   -3.6390   17.2650  -33.5660 C   0  0  0  0  0  0  0  0  0  0  0  0
   -4.2940   17.8910  -34.6420 C   0  0  0  0  0  0  0  0  0  0  0  0
   -5.6280   17.5860  -34.9300 C   0  0  0  0  0  0  0  0  0  0  0  0
   -6.3140   16.6480  -34.1540 C   0  0  0  0  0  0  0  0  0  0  0  0
   -5.6690   16.0140  -33.0880 C   0  0  0  0  0  0  0  0  0  0  0  0
   -4.3350   16.3200  -32.7950 C   0  0  0  0  0  0  0  0  0  0  0  0
   -2.5940   21.7450  -31.4520 N   0  0  0  0  0  0  0  0  0  0  0  0
   -3.7330   22.5320  -30.9130 C   0  0  0  0  0  0  0  0  0  0  0  0
   -3.7490   22.5540  -29.3750 C   0  0  0  0  0  0  0  0  0  0  0  0
   -2.4970   23.1170  -28.8100 N   0  0  0  0  0  0  0  0  0  0  0  0
   -2.6690   24.5270  -28.4260 C   0  0  0  0  0  0  0  0  0  0  0  0
   -1.3200   22.9660  -29.6970 C   0  0  0  0  0  0  0  0  0  0  0  0
   -1.4220   21.6920  -30.5460 C   0  0  0  0  0  0  0  0  0  0  0  0
   -5.1710   19.3490  -31.3740 C   0  0  0  0  0  0  0  0  0  0  0  0
   -6.5380   19.1520  -31.5870 C   0  0  0  0  0  0  0  0  0  0  0  0
   -6.9547   23.5303  -29.6137 H   0  0  0  0  0  0  0  0  0  0  0  0
   -5.6704   24.5101  -30.3995 H   0  0  0  0  0  0  0  0  0  0  0  0
   -7.3701   25.0913  -30.3995 H   0  0  0  0  0  0  0  0  0  0  0  0
   -6.7859   24.1688  -32.6031 H   0  0  0  0  0  0  0  0  0  0  0  0
   -6.2974   22.6051  -31.8057 H   0  0  0  0  0  0  0  0  0  0  0  0
   -9.0936   23.6931  -31.4805 H   0  0  0  0  0  0  0  0  0  0  0  0
   -8.5766   22.7463  -32.9696 H   0  0  0  0  0  0  0  0  0  0  0  0
   -7.7052   21.1410  -30.9437 H   0  0  0  0  0  0  0  0  0  0  0  0
   -9.2698   21.8483  -30.2830 H   0  0  0  0  0  0  0  0  0  0  0  0
  -10.0958   19.9783  -31.2620 H   0  0  0  0  0  0  0  0  0  0  0  0
  -10.1420   21.1568  -32.6655 H   0  0  0  0  0  0  0  0  0  0  0  0
   -8.9406   18.5833  -32.5777 H   0  0  0  0  0  0  0  0  0  0  0  0
   -8.9011   19.8343  -33.8958 H   0  0  0  0  0  0  0  0  0  0  0  0
   -6.9710   21.1871  -34.2957 H   0  0  0  0  0  0  0  0  0  0  0  0
   -4.5348   21.5233  -33.9374 H   0  0  0  0  0  0  0  0  0  0  0  0
   -2.6219   19.6722  -31.2752 H   0  0  0  0  0  0  0  0  0  0  0  0
   -1.5840   22.1010  -33.9990 H   0  0  0  0  0  0  0  0  0  0  0  0
   -1.5535   16.8283  -33.7056 H   0  0  0  0  0  0  0  0  0  0  0  0
   -2.0761   17.5998  -32.1585 H   0  0  0  0  0  0  0  0  0  0  0  0
   -3.7543   18.6239  -35.2598 H   0  0  0  0  0  0  0  0  0  0  0  0
   -6.1375   18.0847  -35.7677 H   0  0  0  0  0  0  0  0  0  0  0  0
   -7.3630   16.4081  -34.3822 H   0  0  0  0  0  0  0  0  0  0  0  0
   -6.2100   15.2745  -32.4794 H   0  0  0  0  0  0  0  0  0  0  0  0
   -3.8295   15.8179  -31.9569 H   0  0  0  0  0  0  0  0  0  0  0  0
   -3.6549   23.5656  -31.2811 H   0  0  0  0  0  0  0  0  0  0  0  0
   -4.6638   22.0547  -31.2532 H   0  0  0  0  0  0  0  0  0  0  0  0
   -4.5973   23.1679  -29.0382 H   0  0  0  0  0  0  0  0  0  0  0  0
   -3.8419   21.5160  -29.0230 H   0  0  0  0  0  0  0  0  0  0  0  0
   -2.6791   24.6097  -27.3292 H   0  0  0  0  0  0  0  0  0  0  0  0
   -1.8367   25.1214  -28.8309 H   0  0  0  0  0  0  0  0  0  0  0  0
   -3.6198   24.9039  -28.8309 H   0  0  0  0  0  0  0  0  0  0  0  0
   -1.2604   23.8380  -30.3649 H   0  0  0  0  0  0  0  0  0  0  0  0
   -0.4193   22.8942  -29.0697 H   0  0  0  0  0  0  0  0  0  0  0  0
   -0.5073   21.5877  -31.1480 H   0  0  0  0  0  0  0  0  0  0  0  0
   -1.5417   20.8318  -29.8709 H   0  0  0  0  0  0  0  0  0  0  0  0
   -4.6721   18.8444  -30.5335 H   0  0  0  0  0  0  0  0  0  0  0  0
   -7.1024   18.4788  -30.9250 H   0  0  0  0  0  0  0  0  0  0  0  0
  1  2  1  0
  2  3  1  0
  3  4  1  0
  4  5  1  0
  5  6  1  0
  6  7  1  0
  7  8  2  0
  8  9  1  0
  9 10  2  0
 10 11  1  0
 11 12  1  0
 12 13  2  0
 13 14  1  0
 14 15  2  0
 15 16  1  0
 16 17  1  0
 17 18  1  0
 18 19  2  0
 19 20  1  0
 20 21  2  0
 21 22  1  0
 22 23  2  0
 11 24  1  0
 24 25  1  0
 25 26  1  0
 26 27  1  0
 27 28  1  0
 27 29  1  0
 29 30  1  0
 10 31  1  0
 31 32  2  0
 32  7  1  0
 16 12  1  0
 23 18  1  0
 30 24  1  0
  1 33  1  0
  1 34  1  0
  1 35  1  0
  2 36  1  0
  2 37  1  0
  3 38  1  0
  3 39  1  0
  4 40  1  0
  4 41  1  0
  5 42  1  0
  5 43  1  0
  6 44  1  0
  6 45  1  0
  8 46  1  0
  9 47  1  0
 11 48  1  1
 13 49  1  0
 17 50  1  0
 17 51  1  0
 19 52  1  0
 20 53  1  0
 21 54  1  0
 22 55  1  0
 23 56  1  0
 25 57  1  0
 25 58  1  0
 26 59  1  0
 26 60  1  0
 28 61  1  0
 28 62  1  0
 28 63  1  0
 29 64  1  0
 29 65  1  0
 30 66  1  0
 30 67  1  0
 31 68  1  0
 32 69  1  0
M  CHG  1  13   1
M  END
>  <UniqueID>  (30) 
29

>  <SMILES>  (30) 
CCCCCCc1ccc([C@@H](c2[nH+]nnn2Cc2ccccc2)N2CCN(C)CC2)cc1

>  <Energy>  (30) 
119.51029858831687

>  <Genealogy>  (30) 
CCCCCCc1ccc(C(c2[nH+]nnn2Cc2ccccc2)N2CCN(C)CC2)cc1 (protonated)
CCCCCCc1ccc([C@@H](c2[nH+]nnn2Cc2ccccc2)N2CCN(C)CC2)cc1 (chirality)
CCCCCCc1ccc([C@@H](c2[nH+]nnn2Cc2ccccc2)N2CCN(C)CC2)cc1 (3D coordinates assigned)
CCCCCCc1ccc([C@@H](c2[nH+]nnn2Cc2ccccc2)N2CCN(C)CC2)cc1 (nonaromatic ring conformer: 119.51029858831687 kcal/mol)

>  <smiles>  (30) 
CCCCCCc1ccc(C(c2nnnn2Cc2ccccc2)N2CCN(C)CC2)cc1

>  <score_type>  (30) 
oracle

>  <origin>  (30) 
adg

>  <m_score__min__energy>  (30) 
-9.25

>  <m_primary>  (30) 
energy

$$$$
30:0
     RDKit          3D

 18 18  0  0  0  0  0  0  0  0999 V2000
   -3.1890   24.4850  -29.3560 C   0  0  0  0  0  0  0  0  0  0  0  0
   -1.9830   25.2980  -29.3220 N   0  0  0  0  0  0  0  0  0  0  0  0
   -1.0890   25.3110  -28.2060 C   0  0  0  0  0  0  0  0  0  0  0  0
    0.0980   24.9100  -28.3440 O   0  0  0  0  0  0  0  0  0  0  0  0
   -1.5630   25.7950  -26.8980 C   0  0  0  0  0  0  0  0  0  0  0  0
   -2.6610   25.3350  -26.1950 C   0  0  0  0  0  0  0  0  0  0  0  0
   -2.7500   26.0190  -25.0760 O   0  0  0  0  0  0  0  0  0  0  0  0
   -1.7930   26.8950  -24.9920 N   0  0  0  0  0  0  0  0  0  0  0  0
   -1.0320   26.7930  -26.0970 C   0  0  0  0  0  0  0  0  0  0  0  0
    0.1720   27.6360  -26.3710 C   0  0  0  0  0  0  0  0  0  0  0  0
   -3.5130   24.2666  -28.3278 H   0  0  0  0  0  0  0  0  0  0  0  0
   -3.9849   25.0316  -29.8830 H   0  0  0  0  0  0  0  0  0  0  0  0
   -2.9809   23.5421  -29.8830 H   0  0  0  0  0  0  0  0  0  0  0  0
   -3.3430   24.5342  -26.5168 H   0  0  0  0  0  0  0  0  0  0  0  0
   -1.6560   27.5540  -24.1940 H   0  0  0  0  0  0  0  0  0  0  0  0
    0.6230   27.9517  -25.4187 H   0  0  0  0  0  0  0  0  0  0  0  0
    0.9046   27.0525  -26.9480 H   0  0  0  0  0  0  0  0  0  0  0  0
   -0.1257   28.5240  -26.9480 H   0  0  0  0  0  0  0  0  0  0  0  0
  1  2  1  0
  2  3  1  0
  3  4  2  0
  3  5  1  0
  5  6  2  0
  6  7  1  0
  7  8  1  0
  8  9  2  0
  9 10  1  0
  9  5  1  0
  1 11  1  0
  1 12  1  0
  1 13  1  0
  6 14  1  0
  8 15  1  0
 10 16  1  0
 10 17  1  0
 10 18  1  0
M  CHG  2   2  -1   8   1
M  END
>  <UniqueID>  (31) 
30

>  <SMILES>  (31) 
C[N-]C(=O)c1co[nH+]c1C

>  <Energy>  (31) 
43.330256448107306

>  <Genealogy>  (31) 
C[N-]C(=O)c1co[nH+]c1C (protonated)
C[N-]C(=O)c1co[nH+]c1C (3D coordinates assigned)
C[N-]C(=O)c1co[nH+]c1C (optimized conformer: 43.330256448107306 kcal/mol)

>  <smiles>  (31) 
CNC(=O)c1conc1C

>  <score_type>  (31) 
oracle

>  <origin>  (31) 
adg

>  <m_score__min__energy>  (31) 
-5.6799999999999997

>  <m_primary>  (31) 
energy

$$$$
31:0
     RDKit          3D

 38 39  0  0  0  0  0  0  0  0999 V2000
   -2.0960   25.6720  -25.6060 C   0  0  0  0  0  0  0  0  0  0  0  0
   -0.8810   25.7950  -25.0650 C   0  0  0  0  0  0  0  0  0  0  0  0
   -0.1460   24.6200  -24.4850 C   0  0  0  0  0  0  0  0  0  0  0  0
    0.1920   23.6940  -25.5150 O   0  0  0  0  0  0  0  0  0  0  0  0
   -0.6390   22.6330  -25.9010 C   0  0  0  0  0  0  0  0  0  0  0  0
   -0.8590   21.6810  -25.1030 O   0  0  0  0  0  0  0  0  0  0  0  0
   -1.2380   22.6370  -27.2100 N   0  0  0  0  0  0  0  0  0  0  0  0
   -2.1460   21.5570  -27.6280 C   0  0  0  0  0  0  0  0  0  0  0  0
   -3.3140   22.1280  -28.4410 C   0  0  0  0  0  0  0  0  0  0  0  0
   -2.8590   23.1060  -29.4430 N   0  0  0  0  0  0  0  0  0  0  0  0
   -3.8280   23.8150  -30.2410 C   0  0  0  0  0  0  0  0  0  0  0  0
   -3.6150   25.0130  -30.5710 O   0  0  0  0  0  0  0  0  0  0  0  0
   -5.0950   23.1780  -30.6530 C   0  0  0  0  0  0  0  0  0  0  0  0
   -5.0590   21.8980  -31.2280 C   0  0  0  0  0  0  0  0  0  0  0  0
   -6.2410   21.2730  -31.6360 C   0  0  0  0  0  0  0  0  0  0  0  0
   -7.4690   21.9150  -31.4640 C   0  0  0  0  0  0  0  0  0  0  0  0
   -8.9510   21.1280  -31.9750 Cl  0  0  0  0  0  0  0  0  0  0  0  0
   -7.5180   23.1810  -30.8720 C   0  0  0  0  0  0  0  0  0  0  0  0
   -6.3400   23.8150  -30.4600 C   0  0  0  0  0  0  0  0  0  0  0  0
   -6.4670   25.3750  -29.6510 Cl  0  0  0  0  0  0  0  0  0  0  0  0
   -1.4300   23.4230  -29.5570 C   0  0  0  0  0  0  0  0  0  0  0  0
   -0.8400   23.6790  -28.1680 C   0  0  0  0  0  0  0  0  0  0  0  0
   -2.6049   26.5542  -26.0215 H   0  0  0  0  0  0  0  0  0  0  0  0
   -2.5877   24.6885  -25.6361 H   0  0  0  0  0  0  0  0  0  0  0  0
   -0.4043   26.7861  -25.0435 H   0  0  0  0  0  0  0  0  0  0  0  0
    0.7745   24.9722  -23.9965 H   0  0  0  0  0  0  0  0  0  0  0  0
   -0.7929   24.1190  -23.7498 H   0  0  0  0  0  0  0  0  0  0  0  0
   -1.5916   20.8360  -28.2466 H   0  0  0  0  0  0  0  0  0  0  0  0
   -2.5440   21.0576  -26.7323 H   0  0  0  0  0  0  0  0  0  0  0  0
   -3.8256   21.3021  -28.9569 H   0  0  0  0  0  0  0  0  0  0  0  0
   -3.9936   22.6429  -27.7460 H   0  0  0  0  0  0  0  0  0  0  0  0
   -4.0953   21.3839  -31.3583 H   0  0  0  0  0  0  0  0  0  0  0  0
   -6.2036   20.2734  -32.0935 H   0  0  0  0  0  0  0  0  0  0  0  0
   -8.4873   23.6812  -30.7294 H   0  0  0  0  0  0  0  0  0  0  0  0
   -0.9053   22.5775  -30.0259 H   0  0  0  0  0  0  0  0  0  0  0  0
   -1.3076   24.3254  -30.1740 H   0  0  0  0  0  0  0  0  0  0  0  0
    0.2573   23.6940  -28.2436 H   0  0  0  0  0  0  0  0  0  0  0  0
   -1.2222   24.6443  -27.8046 H   0  0  0  0  0  0  0  0  0  0  0  0
  1  2  2  0
  2  3  1  0
  3  4  1  0
  4  5  1  0
  5  6  2  0
  5  7  1  0
  7  8  1  0
  8  9  1  0
  9 10  1  0
 10 11  1  0
 11 12  2  0
 11 13  1  0
 13 14  2  0
 14 15  1  0
 15 16  2  0
 16 17  1  0
 16 18  1  0
 18 19  2  0
 19 20  1  0
 10 21  1  0
 21 22  1  0
 22  7  1  0
 19 13  1  0
  1 23  1  0
  1 24  1  0
  2 25  1  0
  3 26  1  0
  3 27  1  0
  8 28  1  0
  8 29  1  0
  9 30  1  0
  9 31  1  0
 14 32  1  0
 15 33  1  0
 18 34  1  0
 21 35  1  0
 21 36  1  0
 22 37  1  0
 22 38  1  0
M  END
>  <UniqueID>  (32) 
31

>  <SMILES>  (32) 
C=CCOC(=O)N1CCN(C(=O)c2ccc(Cl)cc2Cl)CC1

>  <Energy>  (32) 
40.689594146923795

>  <Genealogy>  (32) 
C=CCOC(=O)N1CCN(C(=O)c2ccc(Cl)cc2Cl)CC1 (3D coordinates assigned)
C=CCOC(=O)N1CCN(C(=O)c2ccc(Cl)cc2Cl)CC1 (nonaromatic ring conformer: 40.689594146923795 kcal/mol)

>  <smiles>  (32) 
C=CCOC(=O)N1CCN(C(=O)c2ccc(Cl)cc2Cl)CC1

>  <score_type>  (32) 
oracle

>  <origin>  (32) 
adg

>  <m_score__min__energy>  (32) 
-7.71

>  <m_primary>  (32) 
energy

$$$$
33:0
     RDKit          3D

 30 32  0  0  0  0  0  0  0  0999 V2000
   -2.9400   22.0150  -31.8380 C   0  0  0  0  0  0  0  0  0  0  0  0
   -3.0710   22.7740  -30.5450 C   0  0  0  0  0  0  0  0  0  0  0  0
   -1.9010   23.2100  -29.8790 C   0  0  0  0  0  0  0  0  0  0  0  0
   -2.0460   23.9080  -28.6870 C   0  0  0  0  0  0  0  0  0  0  0  0
   -1.0790   24.4080  -27.9070 N   0  0  0  0  0  0  0  0  0  0  0  0
   -1.7740   24.9800  -26.8880 C   0  0  0  0  0  0  0  0  0  0  0  0
   -1.1360   25.7040  -25.7580 C   0  0  0  0  0  0  0  0  0  0  0  0
   -1.2520   27.1050  -25.6990 C   0  0  0  0  0  0  0  0  0  0  0  0
   -0.6560   27.8230  -24.6660 C   0  0  0  0  0  0  0  0  0  0  0  0
    0.0550   27.1420  -23.6830 C   0  0  0  0  0  0  0  0  0  0  0  0
    0.1620   25.7880  -23.7320 N   0  0  0  0  0  0  0  0  0  0  0  0
   -0.4090   25.0530  -24.7290 C   0  0  0  0  0  0  0  0  0  0  0  0
   -0.2480   23.3000  -24.6440 Cl  0  0  0  0  0  0  0  0  0  0  0  0
   -3.1250   24.8640  -27.0100 N   0  0  0  0  0  0  0  0  0  0  0  0
   -3.2640   24.1790  -28.1540 C   0  0  0  0  0  0  0  0  0  0  0  0
   -4.4440   23.7760  -28.7660 C   0  0  0  0  0  0  0  0  0  0  0  0
   -4.3550   23.0600  -29.9830 C   0  0  0  0  0  0  0  0  0  0  0  0
   -5.6200   22.6130  -30.6650 C   0  0  0  0  0  0  0  0  0  0  0  0
   -2.7565   20.9521  -31.6223 H   0  0  0  0  0  0  0  0  0  0  0  0
   -3.8689   22.1163  -32.4184 H   0  0  0  0  0  0  0  0  0  0  0  0
   -2.0988   22.4218  -32.4184 H   0  0  0  0  0  0  0  0  0  0  0  0
   -0.9038   23.0018  -30.2941 H   0  0  0  0  0  0  0  0  0  0  0  0
   -1.8190   27.6380  -26.4765 H   0  0  0  0  0  0  0  0  0  0  0  0
   -0.7464   28.9186  -24.6273 H   0  0  0  0  0  0  0  0  0  0  0  0
    0.5317   27.7008  -22.8642 H   0  0  0  0  0  0  0  0  0  0  0  0
    0.6930   25.3010  -22.9750 H   0  0  0  0  0  0  0  0  0  0  0  0
   -5.4211   24.0072  -28.3167 H   0  0  0  0  0  0  0  0  0  0  0  0
   -6.3713   22.3475  -29.9066 H   0  0  0  0  0  0  0  0  0  0  0  0
   -6.0059   23.4292  -31.2934 H   0  0  0  0  0  0  0  0  0  0  0  0
   -5.4074   21.7356  -31.2934 H   0  0  0  0  0  0  0  0  0  0  0  0
  1  2  1  0
  2  3  2  0
  3  4  1  0
  4  5  1  0
  5  6  2  0
  6  7  1  0
  7  8  2  0
  8  9  1  0
  9 10  2  0
 10 11  1  0
 11 12  2  0
 12 13  1  0
  6 14  1  0
 14 15  1  0
 15 16  1  0
 16 17  2  0
 17 18  1  0
 17  2  1  0
 15  4  2  0
 12  7  1  0
  1 19  1  0
  1 20  1  0
  1 21  1  0
  3 22  1  0
  8 23  1  0
  9 24  1  0
 10 25  1  0
 11 26  1  0
 16 27  1  0
 18 28  1  0
 18 29  1  0
 18 30  1  0
M  CHG  2  11   1  14  -1
M  END
>  <UniqueID>  (33) 
32

>  <SMILES>  (33) 
Cc1cc2nc(-c3ccc[nH+]c3Cl)[n-]c2cc1C

>  <Energy>  (33) 
71.50885457501504

>  <Genealogy>  (33) 
Cc1cc2nc(-c3ccc[nH+]c3Cl)[n-]c2cc1C (protonated)
Cc1cc2nc(-c3ccc[nH+]c3Cl)[n-]c2cc1C (3D coordinates assigned)
Cc1cc2nc(-c3ccc[nH+]c3Cl)[n-]c2cc1C (optimized conformer: 71.50885457501504 kcal/mol)

>  <smiles>  (33) 
Cc1cc2nc(-c3cccnc3Cl)[nH]c2cc1C

>  <score_type>  (33) 
oracle

>  <origin>  (33) 
adg

>  <m_score__min__energy>  (33) 
-7.2400000000000002

>  <m_primary>  (33) 
energy

$$$$
34:0
     RDKit          3D

 43 46  0  0  0  0  0  0  0  0999 V2000
    0.2880   24.8550  -25.3480 C   0  0  0  0  0  0  0  0  0  0  0  0
   -0.7670   24.7740  -26.4110 C   0  0  0  0  0  0  0  0  0  0  0  0
   -2.1160   24.9660  -26.0840 C   0  0  0  0  0  0  0  0  0  0  0  0
   -3.1040   24.8520  -27.0680 C   0  0  0  0  0  0  0  0  0  0  0  0
   -2.7620   24.5350  -28.3950 C   0  0  0  0  0  0  0  0  0  0  0  0
   -3.7940   24.4220  -29.3970 N   0  0  0  0  0  0  0  0  0  0  0  0
   -4.8240   23.5540  -29.4340 C   0  0  0  0  0  0  0  0  0  0  0  0
   -5.5260   23.8380  -30.5830 C   0  0  0  0  0  0  0  0  0  0  0  0
   -6.7990   23.1980  -31.0320 C   0  0  0  0  0  0  0  0  0  0  0  0
   -6.5030   22.0160  -31.8370 N   0  0  0  0  0  0  0  0  0  0  0  0
   -5.3420   21.7160  -32.4690 C   0  0  0  0  0  0  0  0  0  0  0  0
   -5.3520   20.4880  -33.0530 N   0  0  0  0  0  0  0  0  0  0  0  0
   -6.5790   20.0130  -32.7540 C   0  0  0  0  0  0  0  0  0  0  0  0
   -7.1690   18.7770  -33.0570 C   0  0  0  0  0  0  0  0  0  0  0  0
   -6.5140   17.7430  -33.8330 N   0  0  0  0  0  0  0  0  0  0  0  0
   -6.6100   16.3240  -33.4700 C   0  0  0  0  0  0  0  0  0  0  0  0
   -5.7200   18.1360  -35.0030 C   0  0  0  0  0  0  0  0  0  0  0  0
   -8.4340   18.5680  -32.5730 N   0  0  0  0  0  0  0  0  0  0  0  0
   -9.0970   19.5100  -31.8300 C   0  0  0  0  0  0  0  0  0  0  0  0
   -8.5070   20.7060  -31.5430 N   0  0  0  0  0  0  0  0  0  0  0  0
   -7.2600   20.9280  -32.0190 C   0  0  0  0  0  0  0  0  0  0  0  0
   -4.9290   24.8730  -31.2050 N   0  0  0  0  0  0  0  0  0  0  0  0
   -3.8780   25.2000  -30.4670 N   0  0  0  0  0  0  0  0  0  0  0  0
   -1.4060   24.3220  -28.7110 C   0  0  0  0  0  0  0  0  0  0  0  0
   -0.4200   24.4350  -27.7260 C   0  0  0  0  0  0  0  0  0  0  0  0
   -0.1870   24.8185  -24.3565 H   0  0  0  0  0  0  0  0  0  0  0  0
    0.9811   24.0074  -25.4539 H   0  0  0  0  0  0  0  0  0  0  0  0
    0.8436   25.7984  -25.4539 H   0  0  0  0  0  0  0  0  0  0  0  0
   -2.3994   25.2074  -25.0489 H   0  0  0  0  0  0  0  0  0  0  0  0
   -4.1591   25.0119  -26.8011 H   0  0  0  0  0  0  0  0  0  0  0  0
   -5.0571   22.7744  -28.6938 H   0  0  0  0  0  0  0  0  0  0  0  0
   -7.3887   22.9018  -30.1519 H   0  0  0  0  0  0  0  0  0  0  0  0
   -7.3714   23.9155  -31.6383 H   0  0  0  0  0  0  0  0  0  0  0  0
   -4.4790   22.3971  -32.5058 H   0  0  0  0  0  0  0  0  0  0  0  0
   -6.6167   16.2254  -32.3744 H   0  0  0  0  0  0  0  0  0  0  0  0
   -7.5387   15.9022  -33.8818 H   0  0  0  0  0  0  0  0  0  0  0  0
   -5.7465   15.7810  -33.8818 H   0  0  0  0  0  0  0  0  0  0  0  0
   -4.7806   18.6010  -34.6692 H   0  0  0  0  0  0  0  0  0  0  0  0
   -5.4937   17.2459  -35.6084 H   0  0  0  0  0  0  0  0  0  0  0  0
   -6.2905   18.8557  -35.6084 H   0  0  0  0  0  0  0  0  0  0  0  0
  -10.1123   19.3000  -31.4625 H   0  0  0  0  0  0  0  0  0  0  0  0
   -1.1202   24.0645  -29.7416 H   0  0  0  0  0  0  0  0  0  0  0  0
    0.6342   24.2568  -27.9847 H   0  0  0  0  0  0  0  0  0  0  0  0
  1  2  1  0
  2  3  2  0
  3  4  1  0
  4  5  2  0
  5  6  1  0
  6  7  1  0
  7  8  2  0
  8  9  1  0
  9 10  1  0
 10 11  1  0
 11 12  2  0
 12 13  1  0
 13 14  2  0
 14 15  1  0
 15 16  1  0
 15 17  1  0
 14 18  1  0
 18 19  2  0
 19 20  1  0
 20 21  2  0
  8 22  1  0
 22 23  2  0
  5 24  1  0
 24 25  2  0
 25  2  1  0
 23  6  1  0
 21 10  1  0
 21 13  1  0
  1 26  1  0
  1 27  1  0
  1 28  1  0
  3 29  1  0
  4 30  1  0
  7 31  1  0
  9 32  1  0
  9 33  1  0
 11 34  1  0
 16 35  1  0
 16 36  1  0
 16 37  1  0
 17 38  1  0
 17 39  1  0
 17 40  1  0
 19 41  1  0
 24 42  1  0
 25 43  1  0
M  END
>  <UniqueID>  (34) 
33

>  <SMILES>  (34) 
Cc1ccc(-n2cc(Cn3cnc4c(N(C)C)ncnc43)nn2)cc1

>  <Energy>  (34) 
122.43624033305812

>  <Genealogy>  (34) 
Cc1ccc(-n2cc(Cn3cnc4c(N(C)C)ncnc43)nn2)cc1 (3D coordinates assigned)
Cc1ccc(-n2cc(Cn3cnc4c(N(C)C)ncnc43)nn2)cc1 (optimized conformer: 122.43624033305812 kcal/mol)

>  <smiles>  (34) 
Cc1ccc(-n2cc(Cn3cnc4c(N(C)C)ncnc43)nn2)cc1

>  <score_type>  (34) 
oracle

>  <origin>  (34) 
adg

>  <m_score__min__energy>  (34) 
-8.7899999999999991

>  <m_primary>  (34) 
energy

$$$$
35:0
     RDKit          3D

 35 37  0  0  0  0  0  0  0  0999 V2000
   -3.3530   20.5750  -30.1200 H   0  0  0  0  0  0  0  0  0  0  0  0
   -2.5780   21.2600  -30.0040 N   0  0  0  0  0  0  0  0  0  0  0  0
   -2.6920   22.5390  -29.7890 C   0  0  0  0  0  0  0  0  0  0  0  0
   -1.6760   23.1850  -29.0430 C   0  0  0  0  0  0  0  0  0  0  0  0
   -1.7450   24.5830  -28.8550 C   0  0  0  0  0  0  0  0  0  0  0  0
   -2.8030   25.2770  -29.3400 N   0  0  0  0  0  0  0  0  0  0  0  0
   -3.8060   24.6930  -30.0370 C   0  0  0  0  0  0  0  0  0  0  0  0
   -4.8580   25.4880  -30.5040 C   0  0  0  0  0  0  0  0  0  0  0  0
   -4.8580   26.5693  -30.3020 H   0  0  0  0  0  0  0  0  0  0  0  0
   -5.9050   24.9180  -31.2230 C   0  0  0  0  0  0  0  0  0  0  0  0
   -6.7263   25.5529  -31.5868 H   0  0  0  0  0  0  0  0  0  0  0  0
   -5.9210   23.5470  -31.4860 C   0  0  0  0  0  0  0  0  0  0  0  0
   -7.0040   23.0290  -32.2150 O   0  0  0  0  0  0  0  0  0  0  0  0
   -8.0790   22.2860  -31.6480 C   0  0  0  0  0  0  0  0  0  0  0  0
   -8.0161   22.3295  -30.5507 H   0  0  0  0  0  0  0  0  0  0  0  0
   -9.0362   22.7162  -31.9778 H   0  0  0  0  0  0  0  0  0  0  0  0
   -8.0148   21.2386  -31.9778 H   0  0  0  0  0  0  0  0  0  0  0  0
   -4.8650   22.7380  -31.0190 C   0  0  0  0  0  0  0  0  0  0  0  0
   -4.8762   21.6576  -31.2252 H   0  0  0  0  0  0  0  0  0  0  0  0
   -3.7890   23.3000  -30.2870 C   0  0  0  0  0  0  0  0  0  0  0  0
   -0.7260   25.3400  -28.0410 C   0  0  0  0  0  0  0  0  0  0  0  0
   -0.4996   26.2852  -28.5561 H   0  0  0  0  0  0  0  0  0  0  0  0
   -1.1619   25.5059  -27.0448 H   0  0  0  0  0  0  0  0  0  0  0  0
    0.5820   24.5690  -27.8420 C   0  0  0  0  0  0  0  0  0  0  0  0
    1.1555   24.5932  -28.7804 H   0  0  0  0  0  0  0  0  0  0  0  0
    1.1396   25.0488  -27.0242 H   0  0  0  0  0  0  0  0  0  0  0  0
    0.3300   23.1060  -27.4520 C   0  0  1  0  0  0  0  0  0  0  0  0
    1.3066   22.6102  -27.3501 H   0  0  0  0  0  0  0  0  0  0  0  0
   -0.3580   22.9750  -26.0830 C   0  0  0  0  0  0  0  0  0  0  0  0
    0.3849   23.1165  -25.2842 H   0  0  0  0  0  0  0  0  0  0  0  0
   -1.1435   23.7397  -25.9927 H   0  0  0  0  0  0  0  0  0  0  0  0
   -0.8075   21.9751  -25.9927 H   0  0  0  0  0  0  0  0  0  0  0  0
   -0.4690   22.3970  -28.5600 C   0  0  0  0  0  0  0  0  0  0  0  0
    0.2002   22.2273  -29.4163 H   0  0  0  0  0  0  0  0  0  0  0  0
   -0.8489   21.4578  -28.1315 H   0  0  0  0  0  0  0  0  0  0  0  0
  1  2  1  0
  2  3  2  0
  3  4  1  0
  4  5  2  0
  5  6  1  0
  6  7  1  0
  7  8  2  0
  8  9  1  0
  8 10  1  0
 10 11  1  0
 10 12  2  0
 12 13  1  0
 13 14  1  0
 14 15  1  0
 14 16  1  0
 14 17  1  0
 12 18  1  0
 18 19  1  0
 18 20  2  0
  5 21  1  0
 21 22  1  0
 21 23  1  0
 21 24  1  0
 24 25  1  0
 24 26  1  0
 24 27  1  0
 27 28  1  1
 27 29  1  0
 29 30  1  0
 29 31  1  0
 29 32  1  0
 27 33  1  0
 33 34  1  0
 33 35  1  0
 20  3  1  0
 33  4  1  0
 20  7  1  0
M  CHG  1   6  -1
M  END
>  <UniqueID>  (35) 
34

>  <SMILES>  (35) 
[H]/N=c1/c2c([n-]c3ccc(OC)cc13)CC[C@@H](C)C2

>  <Energy>  (35) 
44.66081602078311

>  <Genealogy>  (35) 
COc1ccc2[n-]c3c(c(=N)c2c1)CC(C)CC3 (protonated)
COc1ccc2[n-]c3c(c(=N)c2c1)C[C@H](C)CC3 (chirality)
[H]/N=c1/c2c([n-]c3ccc(OC)cc13)CC[C@@H](C)C2 (cis-trans isomerization)
[H]/N=c1/c2c([n-]c3ccc(OC)cc13)CC[C@@H](C)C2 (3D coordinates assigned)
[H]/N=c1/c2c([n-]c3ccc(OC)cc13)CC[C@@H](C)C2 (nonaromatic ring conformer: 44.66081602078311 kcal/mol)

>  <smiles>  (35) 
COc1ccc2[nH]c3c(c(=N)c2c1)CC(C)CC3

>  <score_type>  (35) 
oracle

>  <origin>  (35) 
adg

>  <m_score__min__energy>  (35) 
-7.3499999999999996

>  <m_primary>  (35) 
energy

$$$$
36:0
     RDKit          3D

 27 29  0  0  0  0  0  0  0  0999 V2000
   -9.1330   22.6850  -32.0140 O   0  0  0  0  0  0  0  0  0  0  0  0
   -8.0980   22.1020  -31.5910 C   0  0  0  0  0  0  0  0  0  0  0  0
   -7.3860   22.6330  -30.5060 O   0  0  0  0  0  0  0  0  0  0  0  0
   -6.3340   23.5560  -30.5940 C   0  0  0  0  0  0  0  0  0  0  0  0
   -6.5160   24.9370  -30.4500 C   0  0  0  0  0  0  0  0  0  0  0  0
   -5.4490   25.7660  -30.5660 N   0  0  0  0  0  0  0  0  0  0  0  0
   -4.2320   25.2860  -30.8200 N   0  0  0  0  0  0  0  0  0  0  0  0
   -4.0260   23.9790  -30.9780 N   0  0  0  0  0  0  0  0  0  0  0  0
   -5.0510   23.0960  -30.8790 C   0  0  0  0  0  0  0  0  0  0  0  0
   -7.6590   20.8180  -32.1950 C   0  0  0  0  0  0  0  0  0  0  0  0
   -6.3360   20.6780  -32.6420 C   0  0  0  0  0  0  0  0  0  0  0  0
   -5.9140   19.4750  -33.2140 C   0  0  0  0  0  0  0  0  0  0  0  0
   -4.6000   19.2990  -33.6700 C   0  0  0  0  0  0  0  0  0  0  0  0
   -4.2150   18.0780  -34.2350 C   0  0  0  0  0  0  0  0  0  0  0  0
   -5.1390   17.0330  -34.3470 C   0  0  0  0  0  0  0  0  0  0  0  0
   -6.4500   17.2040  -33.8930 C   0  0  0  0  0  0  0  0  0  0  0  0
   -6.8430   18.4210  -33.3260 C   0  0  0  0  0  0  0  0  0  0  0  0
   -8.0910   18.5810  -32.8960 O   0  0  0  0  0  0  0  0  0  0  0  0
   -8.5270   19.7110  -32.3480 C   0  0  0  0  0  0  0  0  0  0  0  0
   -9.7270   19.7740  -31.9700 O   0  0  0  0  0  0  0  0  0  0  0  0
   -7.5162   25.3460  -30.2445 H   0  0  0  0  0  0  0  0  0  0  0  0
   -4.8693   22.0207  -31.0233 H   0  0  0  0  0  0  0  0  0  0  0  0
   -5.6306   21.5161  -32.5420 H   0  0  0  0  0  0  0  0  0  0  0  0
   -3.8726   20.1196  -33.5838 H   0  0  0  0  0  0  0  0  0  0  0  0
   -3.1838   17.9393  -34.5919 H   0  0  0  0  0  0  0  0  0  0  0  0
   -4.8331   16.0752  -34.7931 H   0  0  0  0  0  0  0  0  0  0  0  0
   -7.1737   16.3804  -33.9817 H   0  0  0  0  0  0  0  0  0  0  0  0
  1  2  2  0
  2  3  1  0
  3  4  1  0
  4  5  2  0
  5  6  1  0
  6  7  2  0
  7  8  1  0
  8  9  2  0
  2 10  1  0
 10 11  2  0
 11 12  1  0
 12 13  2  0
 13 14  1  0
 14 15  2  0
 15 16  1  0
 16 17  2  0
 17 18  1  0
 18 19  1  0
 19 20  2  0
  9  4  1  0
 19 10  1  0
 17 12  1  0
  5 21  1  0
  9 22  1  0
 11 23  1  0
 13 24  1  0
 14 25  1  0
 15 26  1  0
 16 27  1  0
M  END
>  <UniqueID>  (36) 
35

>  <SMILES>  (36) 
O=C(Oc1cnnnc1)c1cc2ccccc2oc1=O

>  <Energy>  (36) 
42.35313111707999

>  <Genealogy>  (36) 
O=C(Oc1cnnnc1)c1cc2ccccc2oc1=O (3D coordinates assigned)
O=C(Oc1cnnnc1)c1cc2ccccc2oc1=O (optimized conformer: 42.35313111707999 kcal/mol)

>  <smiles>  (36) 
O=C(Oc1cnnnc1)c1cc2ccccc2oc1=O

>  <score_type>  (36) 
oracle

>  <origin>  (36) 
adg

>  <m_score__min__energy>  (36) 
-8.1199999999999992

>  <m_primary>  (36) 
energy

$$$$
37:0
     RDKit          3D

 40 42  0  0  0  0  0  0  0  0999 V2000
   -9.1990   21.5000  -30.9930 C   0  0  0  0  0  0  0  0  0  0  0  0
   -8.6940   20.5860  -32.0610 C   0  0  0  0  0  0  0  0  0  0  0  0
   -9.3280   19.5300  -32.3280 O   0  0  0  0  0  0  0  0  0  0  0  0
   -7.4910   20.9130  -32.7680 N   0  0  0  0  0  0  0  0  0  0  0  0
   -6.9460   20.0720  -33.8310 C   0  0  0  0  0  0  0  0  0  0  0  0
   -5.6080   19.5040  -33.4220 C   0  0  0  0  0  0  0  0  0  0  0  0
   -5.2830   18.1920  -33.8060 C   0  0  0  0  0  0  0  0  0  0  0  0
   -4.0530   17.6310  -33.4560 C   0  0  0  0  0  0  0  0  0  0  0  0
   -3.1250   18.3700  -32.7200 C   0  0  0  0  0  0  0  0  0  0  0  0
   -3.4260   19.6820  -32.3280 C   0  0  0  0  0  0  0  0  0  0  0  0
   -2.5060   20.4380  -31.5870 C   0  0  0  0  0  0  0  0  0  0  0  0
   -2.8250   21.7470  -31.2050 C   0  0  0  0  0  0  0  0  0  0  0  0
   -1.9280   22.5260  -30.4580 C   0  0  0  0  0  0  0  0  0  0  0  0
   -2.2710   23.8370  -30.0780 C   0  0  0  0  0  0  0  0  0  0  0  0
   -1.3870   24.6630  -29.3050 N   0  0  0  0  0  0  0  0  0  0  0  0
   -0.4060   24.1420  -27.9750 S   0  0  0  0  0  0  0  0  0  0  0  0
   -1.1760   24.5840  -26.4310 C   0  0  0  0  0  0  0  0  0  0  0  0
    0.9260   24.8330  -28.0620 O   0  0  0  0  0  0  0  0  0  0  0  0
   -0.1860   22.6570  -28.0460 O   0  0  0  0  0  0  0  0  0  0  0  0
   -3.5150   24.3610  -30.4630 C   0  0  0  0  0  0  0  0  0  0  0  0
   -3.8690   25.6560  -30.1020 O   0  0  0  0  0  0  0  0  0  0  0  0
   -4.4110   23.5890  -31.2090 C   0  0  0  0  0  0  0  0  0  0  0  0
   -4.0750   22.2840  -31.5780 C   0  0  0  0  0  0  0  0  0  0  0  0
   -4.9520   21.5320  -32.2950 N   0  0  0  0  0  0  0  0  0  0  0  0
   -4.6710   20.2560  -32.6800 C   0  0  0  0  0  0  0  0  0  0  0  0
   -8.9644   21.0753  -30.0058 H   0  0  0  0  0  0  0  0  0  0  0  0
   -8.7161   22.4833  -31.0933 H   0  0  0  0  0  0  0  0  0  0  0  0
  -10.2884   21.6145  -31.0933 H   0  0  0  0  0  0  0  0  0  0  0  0
   -6.9860   21.7930  -32.5230 H   0  0  0  0  0  0  0  0  0  0  0  0
   -7.6437   19.2458  -34.0326 H   0  0  0  0  0  0  0  0  0  0  0  0
   -6.8115   20.6838  -34.7352 H   0  0  0  0  0  0  0  0  0  0  0  0
   -6.0049   17.6007  -34.3883 H   0  0  0  0  0  0  0  0  0  0  0  0
   -3.8141   16.6017  -33.7617 H   0  0  0  0  0  0  0  0  0  0  0  0
   -2.1576   17.9229  -32.4476 H   0  0  0  0  0  0  0  0  0  0  0  0
   -1.5353   20.0034  -31.3063 H   0  0  0  0  0  0  0  0  0  0  0  0
   -0.9519   22.1098  -30.1680 H   0  0  0  0  0  0  0  0  0  0  0  0
   -0.5548   24.2274  -25.5962 H   0  0  0  0  0  0  0  0  0  0  0  0
   -1.2773   25.6777  -26.3716 H   0  0  0  0  0  0  0  0  0  0  0  0
   -2.1715   24.1198  -26.3716 H   0  0  0  0  0  0  0  0  0  0  0  0
   -5.3828   24.0102  -31.5061 H   0  0  0  0  0  0  0  0  0  0  0  0
  1  2  1  0
  2  3  2  0
  2  4  1  0
  4  5  1  0
  5  6  1  0
  6  7  2  0
  7  8  1  0
  8  9  2  0
  9 10  1  0
 10 11  2  0
 11 12  1  0
 12 13  2  0
 13 14  1  0
 14 15  1  0
 15 16  1  0
 16 17  1  0
 16 18  2  0
 16 19  2  0
 14 20  2  0
 20 21  1  0
 20 22  1  0
 22 23  2  0
 23 24  1  0
 24 25  2  0
 25  6  1  0
 25 10  1  0
 23 12  1  0
  1 26  1  0
  1 27  1  0
  1 28  1  0
  4 29  1  0
  5 30  1  0
  5 31  1  0
  7 32  1  0
  8 33  1  0
  9 34  1  0
 11 35  1  0
 13 36  1  0
 17 37  1  0
 17 38  1  0
 17 39  1  0
 22 40  1  0
M  CHG  2  15  -1  21  -1
M  END
>  <UniqueID>  (37) 
36

>  <SMILES>  (37) 
CC(=O)NCc1cccc2cc3cc([N-]S(C)(=O)=O)c([O-])cc3nc12

>  <Energy>  (37) 
43.79633036366242

>  <Genealogy>  (37) 
CC(=O)NCc1cccc2cc3cc([N-]S(C)(=O)=O)c([O-])cc3nc12 (protonated)
CC(=O)NCc1cccc2cc3cc([N-]S(C)(=O)=O)c([O-])cc3nc12 (3D coordinates assigned)
CC(=O)NCc1cccc2cc3cc([N-]S(C)(=O)=O)c([O-])cc3nc12 (optimized conformer: 43.79633036366242 kcal/mol)

>  <smiles>  (37) 
CC(=O)NCc1cccc2cc3cc(NS(C)(=O)=O)c(O)cc3nc12

>  <score_type>  (37) 
oracle

>  <origin>  (37) 
adg

>  <m_score__min__energy>  (37) 
-11.789999999999999

>  <m_primary>  (37) 
energy

$$$$
38:0
     RDKit          3D

 29 31  0  0  0  0  0  0  0  0999 V2000
   -5.7320   24.9090  -29.0490 O   0  0  0  0  0  0  0  0  0  0  0  0
   -5.2160   24.8650  -30.4600 S   0  0  0  0  0  0  0  0  0  0  0  0
   -5.7530   26.0480  -31.2180 O   0  0  0  0  0  0  0  0  0  0  0  0
   -3.4850   24.9530  -30.4350 N   0  0  0  0  0  0  0  0  0  0  0  0
   -2.6930   24.5360  -29.3210 C   0  0  0  0  0  0  0  0  0  0  0  0
   -2.9430   23.4540  -28.4840 C   0  0  0  0  0  0  0  0  0  0  0  0
   -1.9820   23.3200  -27.4770 C   0  0  0  0  0  0  0  0  0  0  0  0
   -0.9850   24.2880  -27.5220 C   0  0  0  0  0  0  0  0  0  0  0  0
   -1.2970   25.3170  -28.8180 S   0  0  0  0  0  0  0  0  0  0  0  0
   -5.7340   23.3610  -31.2130 C   0  0  0  0  0  0  0  0  0  0  0  0
   -4.8550   22.6440  -32.0360 C   0  0  0  0  0  0  0  0  0  0  0  0
   -5.2580   21.4430  -32.6250 C   0  0  0  0  0  0  0  0  0  0  0  0
   -6.5500   20.9460  -32.3990 C   0  0  0  0  0  0  0  0  0  0  0  0
   -6.9650   19.7390  -32.9820 C   0  0  0  0  0  0  0  0  0  0  0  0
   -8.2550   19.2550  -32.7470 C   0  0  0  0  0  0  0  0  0  0  0  0
   -9.1380   19.9670  -31.9320 C   0  0  0  0  0  0  0  0  0  0  0  0
   -8.7360   21.1710  -31.3450 C   0  0  0  0  0  0  0  0  0  0  0  0
   -7.4440   21.6690  -31.5710 C   0  0  0  0  0  0  0  0  0  0  0  0
   -7.0290   22.8750  -30.9870 C   0  0  0  0  0  0  0  0  0  0  0  0
   -3.8025   22.7776  -28.6012 H   0  0  0  0  0  0  0  0  0  0  0  0
   -2.0121   22.5228  -26.7196 H   0  0  0  0  0  0  0  0  0  0  0  0
   -0.1354   24.3682  -26.8279 H   0  0  0  0  0  0  0  0  0  0  0  0
   -3.8412   23.0294  -32.2194 H   0  0  0  0  0  0  0  0  0  0  0  0
   -4.5604   20.8858  -33.2675 H   0  0  0  0  0  0  0  0  0  0  0  0
   -6.2744   19.1732  -33.6246 H   0  0  0  0  0  0  0  0  0  0  0  0
   -8.5765   18.3086  -33.2062 H   0  0  0  0  0  0  0  0  0  0  0  0
  -10.1517   19.5799  -31.7515 H   0  0  0  0  0  0  0  0  0  0  0  0
   -9.4347   21.7291  -30.7044 H   0  0  0  0  0  0  0  0  0  0  0  0
   -7.7230   23.4417  -30.3489 H   0  0  0  0  0  0  0  0  0  0  0  0
  1  2  2  0
  2  3  2  0
  2  4  1  0
  4  5  1  0
  5  6  2  0
  6  7  1  0
  7  8  2  0
  8  9  1  0
  2 10  1  0
 10 11  2  0
 11 12  1  0
 12 13  2  0
 13 14  1  0
 14 15  2  0
 15 16  1  0
 16 17  2  0
 17 18  1  0
 18 19  2  0
  9  5  1  0
 19 10  1  0
 18 13  1  0
  6 20  1  0
  7 21  1  0
  8 22  1  0
 11 23  1  0
 12 24  1  0
 14 25  1  0
 15 26  1  0
 16 27  1  0
 17 28  1  0
 19 29  1  0
M  CHG  1   4  -1
M  END
>  <UniqueID>  (38) 
37

>  <SMILES>  (38) 
O=S(=O)([N-]c1cccs1)c1ccc2ccccc2c1

>  <Energy>  (38) 
62.94341284720628

>  <Genealogy>  (38) 
O=S(=O)([N-]c1cccs1)c1ccc2ccccc2c1 (protonated)
O=S(=O)([N-]c1cccs1)c1ccc2ccccc2c1 (3D coordinates assigned)
O=S(=O)([N-]c1cccs1)c1ccc2ccccc2c1 (optimized conformer: 62.94341284720628 kcal/mol)

>  <smiles>  (38) 
O=S(=O)(Nc1cccs1)c1ccc2ccccc2c1

>  <score_type>  (38) 
oracle

>  <origin>  (38) 
adg

>  <m_score__min__energy>  (38) 
-9.9800000000000004

>  <m_primary>  (38) 
energy

$$$$
39:0
     RDKit          3D

 22 22  0  0  0  0  0  0  0  0999 V2000
   -6.8640   24.0780  -29.8510 C   0  0  0  0  0  0  0  0  0  0  0  0
   -5.9130   25.0020  -29.6980 C   0  0  0  0  0  0  0  0  0  0  0  0
   -5.0360   25.4150  -30.8410 C   0  0  0  0  0  0  0  0  0  0  0  0
   -3.6670   25.2660  -30.4690 O   0  0  0  0  0  0  0  0  0  0  0  0
   -3.1090   24.1840  -29.7530 C   0  0  0  0  0  0  0  0  0  0  0  0
   -3.6790   22.9050  -29.8930 C   0  0  0  0  0  0  0  0  0  0  0  0
   -3.3170   21.6990  -29.3060 C   0  0  0  0  0  0  0  0  0  0  0  0
   -2.2880   21.4380  -28.4180 C   0  0  0  0  0  0  0  0  0  0  0  0
   -1.3640   22.3250  -27.8970 C   0  0  0  0  0  0  0  0  0  0  0  0
   -1.2440   23.6870  -28.1350 C   0  0  0  0  0  0  0  0  0  0  0  0
   -2.0050   24.5250  -28.9510 C   0  0  0  0  0  0  0  0  0  0  0  0
   -1.6510   25.7370  -28.9670 O   0  0  0  0  0  0  0  0  0  0  0  0
   -7.4951   23.7916  -28.9968 H   0  0  0  0  0  0  0  0  0  0  0  0
   -7.0166   23.6029  -30.8313 H   0  0  0  0  0  0  0  0  0  0  0  0
   -5.7700   25.4699  -28.7128 H   0  0  0  0  0  0  0  0  0  0  0  0
   -5.2495   24.7813  -31.7144 H   0  0  0  0  0  0  0  0  0  0  0  0
   -5.2345   26.4671  -31.0935 H   0  0  0  0  0  0  0  0  0  0  0  0
   -4.5436   22.8520  -30.5710 H   0  0  0  0  0  0  0  0  0  0  0  0
   -3.9333   20.8318  -29.5856 H   0  0  0  0  0  0  0  0  0  0  0  0
   -2.1933   20.3939  -28.0849 H   0  0  0  0  0  0  0  0  0  0  0  0
   -0.6273   21.8946  -27.2027 H   0  0  0  0  0  0  0  0  0  0  0  0
   -0.4221   24.1824  -27.5974 H   0  0  0  0  0  0  0  0  0  0  0  0
  1  2  2  0
  2  3  1  0
  3  4  1  0
  4  5  1  0
  5  6  2  0
  6  7  1  0
  7  8  2  0
  8  9  1  0
  9 10  2  0
 10 11  1  0
 11 12  2  0
 11  5  1  0
  1 13  1  0
  1 14  1  0
  2 15  1  0
  3 16  1  0
  3 17  1  0
  6 18  1  0
  7 19  1  0
  8 20  1  0
  9 21  1  0
 10 22  1  0
M  END
>  <UniqueID>  (39) 
38

>  <SMILES>  (39) 
C=CCOc1cccccc1=O

>  <Energy>  (39) 
36.67120871310251

>  <Genealogy>  (39) 
C=CCOc1cccccc1=O (3D coordinates assigned)
C=CCOc1cccccc1=O (optimized conformer: 36.67120871310251 kcal/mol)

>  <smiles>  (39) 
C=CCOc1cccccc1=O

>  <score_type>  (39) 
oracle

>  <origin>  (39) 
adg

>  <m_score__min__energy>  (39) 
-5.3200000000000003

>  <m_primary>  (39) 
energy

$$$$
40:0
     RDKit          3D

 50 52  0  0  0  0  0  0  0  0999 V2000
   -2.1810   20.4650  -33.6240 C   0  0  0  0  0  0  0  0  0  0  0  0
   -3.4840   19.9280  -33.4210 O   0  0  0  0  0  0  0  0  0  0  0  0
   -4.5600   20.6340  -32.8630 C   0  0  0  0  0  0  0  0  0  0  0  0
   -4.4650   21.9990  -32.5310 C   0  0  0  0  0  0  0  0  0  0  0  0
   -5.5380   22.6680  -31.9310 C   0  0  0  0  0  0  0  0  0  0  0  0
   -5.3960   24.0640  -31.6270 N   0  0  0  0  0  0  0  0  0  0  0  0
   -4.5910   24.6280  -30.5850 C   0  0  0  0  0  0  0  0  0  0  0  0
   -3.9160   25.6720  -30.7950 O   0  0  0  0  0  0  0  0  0  0  0  0
   -4.6390   24.0450  -29.2760 N   0  0  0  0  0  0  0  0  0  0  0  0
   -3.7570   24.4040  -28.1970 C   0  0  0  0  0  0  0  0  0  0  0  0
   -4.2490   24.9200  -26.9860 C   0  0  0  0  0  0  0  0  0  0  0  0
   -3.3690   25.2820  -25.9620 C   0  0  0  0  0  0  0  0  0  0  0  0
   -1.9810   25.1460  -26.1310 C   0  0  0  0  0  0  0  0  0  0  0  0
   -1.0770   25.5220  -25.0740 N   0  0  0  0  0  0  0  0  0  0  0  0
   -0.1410   24.7670  -24.7370 O   0  0  0  0  0  0  0  0  0  0  0  0
   -1.2240   26.7260  -24.4240 O   0  0  0  0  0  0  0  0  0  0  0  0
   -1.4900   24.6450  -27.3520 C   0  0  0  0  0  0  0  0  0  0  0  0
   -2.3710   24.2860  -28.3760 C   0  0  0  0  0  0  0  0  0  0  0  0
   -6.7360   21.9740  -31.6940 C   0  0  0  0  0  0  0  0  0  0  0  0
   -6.8410   20.6230  -32.0250 C   0  0  0  0  0  0  0  0  0  0  0  0
   -5.7620   19.9480  -32.6120 C   0  0  0  0  0  0  0  0  0  0  0  0
   -5.8910   18.5580  -32.9540 N   0  0  0  0  0  0  0  0  0  0  0  0
   -6.0770   18.1810  -34.3580 C   0  0  0  0  0  0  0  0  0  0  0  0
   -6.2320   16.6600  -34.4990 C   0  0  0  0  0  0  0  0  0  0  0  0
   -5.2660   15.9300  -33.6520 N   0  0  0  0  0  0  0  0  0  0  0  0
   -3.8850   16.0660  -34.1520 C   0  0  0  0  0  0  0  0  0  0  0  0
   -5.3650   16.2640  -32.2040 C   0  0  0  0  0  0  0  0  0  0  0  0
   -6.1310   17.5680  -31.9040 C   0  0  0  0  0  0  0  0  0  0  0  0
   -1.7088   20.6596  -32.6498 H   0  0  0  0  0  0  0  0  0  0  0  0
   -1.5716   19.7447  -34.1895 H   0  0  0  0  0  0  0  0  0  0  0  0
   -2.2560   21.4055  -34.1895 H   0  0  0  0  0  0  0  0  0  0  0  0
   -3.5355   22.5466  -32.7459 H   0  0  0  0  0  0  0  0  0  0  0  0
   -5.4130   23.3720  -29.0780 H   0  0  0  0  0  0  0  0  0  0  0  0
   -5.3331   25.0398  -26.8430 H   0  0  0  0  0  0  0  0  0  0  0  0
   -3.7668   25.6768  -25.0155 H   0  0  0  0  0  0  0  0  0  0  0  0
   -0.4057   24.5354  -27.5009 H   0  0  0  0  0  0  0  0  0  0  0  0
   -1.9742   23.9080  -29.3297 H   0  0  0  0  0  0  0  0  0  0  0  0
   -7.5937   22.4973  -31.2462 H   0  0  0  0  0  0  0  0  0  0  0  0
   -7.7780   20.0831  -31.8237 H   0  0  0  0  0  0  0  0  0  0  0  0
   -6.9808   18.6730  -34.7467 H   0  0  0  0  0  0  0  0  0  0  0  0
   -5.1919   18.4993  -34.9284 H   0  0  0  0  0  0  0  0  0  0  0  0
   -7.2523   16.3768  -34.2010 H   0  0  0  0  0  0  0  0  0  0  0  0
   -6.0383   16.3920  -35.5481 H   0  0  0  0  0  0  0  0  0  0  0  0
   -3.1918   16.1343  -33.3006 H   0  0  0  0  0  0  0  0  0  0  0  0
   -3.6286   15.1888  -34.7641 H   0  0  0  0  0  0  0  0  0  0  0  0
   -3.8047   16.9764  -34.7641 H   0  0  0  0  0  0  0  0  0  0  0  0
   -5.8805   15.4367  -31.6942 H   0  0  0  0  0  0  0  0  0  0  0  0
   -4.3362   16.4134  -31.8444 H   0  0  0  0  0  0  0  0  0  0  0  0
   -7.2080   17.3508  -31.8510 H   0  0  0  0  0  0  0  0  0  0  0  0
   -5.7778   17.9748  -30.9449 H   0  0  0  0  0  0  0  0  0  0  0  0
  1  2  1  0
  2  3  1  0
  3  4  2  0
  4  5  1  0
  5  6  1  0
  6  7  1  0
  7  8  2  0
  7  9  1  0
  9 10  1  0
 10 11  2  0
 11 12  1  0
 12 13  2  0
 13 14  1  0
 14 15  2  0
 14 16  1  0
 13 17  1  0
 17 18  2  0
  5 19  2  0
 19 20  1  0
 20 21  2  0
 21 22  1  0
 22 23  1  0
 23 24  1  0
 24 25  1  0
 25 26  1  0
 25 27  1  0
 27 28  1  0
 21  3  1  0
 28 22  1  0
 18 10  1  0
  1 29  1  0
  1 30  1  0
  1 31  1  0
  4 32  1  0
  9 33  1  0
 11 34  1  0
 12 35  1  0
 17 36  1  0
 18 37  1  0
 19 38  1  0
 20 39  1  0
 23 40  1  0
 23 41  1  0
 24 42  1  0
 24 43  1  0
 26 44  1  0
 26 45  1  0
 26 46  1  0
 27 47  1  0
 27 48  1  0
 28 49  1  0
 28 50  1  0
M  CHG  3   6  -1  14   1  16  -1
M  END
>  <UniqueID>  (40) 
39

>  <SMILES>  (40) 
COc1cc([N-]C(=O)Nc2ccc([N+](=O)[O-])cc2)ccc1N1CCN(C)CC1

>  <Energy>  (40) 
70.36973778377913

>  <Genealogy>  (40) 
COc1cc([N-]C(=O)Nc2ccc([N+](=O)[O-])cc2)ccc1N1CCN(C)CC1 (protonated)
COc1cc([N-]C(=O)Nc2ccc([N+](=O)[O-])cc2)ccc1N1CCN(C)CC1 (3D coordinates assigned)
COc1cc([N-]C(=O)Nc2ccc([N+](=O)[O-])cc2)ccc1N1CCN(C)CC1 (nonaromatic ring conformer: 70.36973778377913 kcal/mol)

>  <smiles>  (40) 
COc1cc(NC(=O)Nc2ccc([N+](=O)[O-])cc2)ccc1N1CCN(C)CC1

>  <score_type>  (40) 
oracle

>  <origin>  (40) 
adg

>  <m_score__min__energy>  (40) 
-9.6600000000000001

>  <m_primary>  (40) 
energy

$$$$
41:0
     RDKit          3D

 40 42  0  0  0  0  0  0  0  0999 V2000
    1.8253   24.7881  -26.6772 H   0  0  0  0  0  0  0  0  0  0  0  0
    0.9190   24.6910  -27.2930 C   0  0  0  0  0  0  0  0  0  0  0  0
    0.6420   23.4870  -27.9430 C   0  0  0  0  0  0  0  0  0  0  0  0
    1.3340   22.6378  -27.8434 H   0  0  0  0  0  0  0  0  0  0  0  0
   -0.5140   23.3580  -28.7210 C   0  0  0  0  0  0  0  0  0  0  0  0
   -0.7244   22.4086  -29.2352 H   0  0  0  0  0  0  0  0  0  0  0  0
   -1.4090   24.4370  -28.8490 C   0  0  0  0  0  0  0  0  0  0  0  0
   -2.6000   24.3280  -29.6500 N   0  0  0  0  0  0  0  0  0  0  0  0
   -3.5050   25.2960  -29.7460 N   0  0  0  0  0  0  0  0  0  0  0  0
   -4.5080   24.8560  -30.5360 C   0  0  0  0  0  0  0  0  0  0  0  0
   -5.7020   25.6730  -30.9060 C   0  0  0  0  0  0  0  0  0  0  0  0
   -6.2072   26.0187  -29.9921 H   0  0  0  0  0  0  0  0  0  0  0  0
   -5.3819   26.5423  -31.4992 H   0  0  0  0  0  0  0  0  0  0  0  0
   -6.3963   25.0598  -31.4992 H   0  0  0  0  0  0  0  0  0  0  0  0
   -4.2280   23.5700  -30.9520 C   0  0  0  0  0  0  0  0  0  0  0  0
   -5.0550   22.7300  -31.7670 N   0  0  0  0  0  0  0  0  0  0  0  0
   -6.0580   22.0670  -31.3320 N   0  0  0  0  0  0  0  0  0  0  0  0
   -7.1960   21.6270  -32.1490 C   0  0  1  0  0  0  0  0  0  0  0  0
   -7.2215   22.2212  -33.0743 H   0  0  0  0  0  0  0  0  0  0  0  0
   -7.0520   20.1700  -32.5380 C   0  0  0  0  0  0  0  0  0  0  0  0
   -7.8510   19.1920  -31.9170 C   0  0  0  0  0  0  0  0  0  0  0  0
   -8.5574   19.4836  -31.1258 H   0  0  0  0  0  0  0  0  0  0  0  0
   -7.7510   17.8520  -32.3010 C   0  0  0  0  0  0  0  0  0  0  0  0
   -8.3848   17.0938  -31.8178 H   0  0  0  0  0  0  0  0  0  0  0  0
   -6.8470   17.4730  -33.2980 C   0  0  0  0  0  0  0  0  0  0  0  0
   -6.7723   16.4182  -33.6009 H   0  0  0  0  0  0  0  0  0  0  0  0
   -6.0390   18.4340  -33.9090 C   0  0  0  0  0  0  0  0  0  0  0  0
   -5.3236   18.1339  -34.6888 H   0  0  0  0  0  0  0  0  0  0  0  0
   -6.1370   19.7770  -33.5320 C   0  0  0  0  0  0  0  0  0  0  0  0
   -5.4960   20.5295  -34.0146 H   0  0  0  0  0  0  0  0  0  0  0  0
   -8.4910   21.8430  -31.3680 C   0  0  0  0  0  0  0  0  0  0  0  0
   -8.2788   21.8076  -30.2892 H   0  0  0  0  0  0  0  0  0  0  0  0
   -8.9156   22.8244  -31.6262 H   0  0  0  0  0  0  0  0  0  0  0  0
   -9.2111   21.0526  -31.6262 H   0  0  0  0  0  0  0  0  0  0  0  0
   -3.0190   23.2670  -30.3740 C   0  0  0  0  0  0  0  0  0  0  0  0
   -2.4050   22.1740  -30.4800 O   0  0  0  0  0  0  0  0  0  0  0  0
   -1.1110   25.6490  -28.2020 C   0  0  0  0  0  0  0  0  0  0  0  0
   -1.7919   26.5064  -28.3077 H   0  0  0  0  0  0  0  0  0  0  0  0
    0.0450   25.7720  -27.4250 C   0  0  0  0  0  0  0  0  0  0  0  0
    0.2663   26.7221  -26.9168 H   0  0  0  0  0  0  0  0  0  0  0  0
  1  2  1  0
  2  3  2  0
  3  4  1  0
  3  5  1  0
  5  6  1  0
  5  7  2  0
  7  8  1  0
  8  9  1  0
  9 10  1  0
 10 11  1  0
 11 12  1  0
 11 13  1  0
 11 14  1  0
 10 15  2  0
 15 16  1  0
 16 17  2  0
 17 18  1  0
 18 19  1  6
 18 20  1  0
 20 21  2  0
 21 22  1  0
 21 23  1  0
 23 24  1  0
 23 25  2  0
 25 26  1  0
 25 27  1  0
 27 28  1  0
 27 29  2  0
 29 30  1  0
 18 31  1  0
 31 32  1  0
 31 33  1  0
 31 34  1  0
 15 35  1  0
 35 36  2  0
  7 37  1  0
 37 38  1  0
 37 39  2  0
 39 40  1  0
 39  2  1  0
 35  8  1  0
 29 20  1  0
M  CHG  1   9  -1
M  END
>  <UniqueID>  (41) 
40

>  <SMILES>  (41) 
Cc1[n-]n(-c2ccccc2)c(=O)c1/N=N\[C@H](C)c1ccccc1

>  <Energy>  (41) 
83.43784280327831

>  <Genealogy>  (41) 
Cc1[n-]n(-c2ccccc2)c(=O)c1N=NC(C)c1ccccc1 (protonated)
Cc1[n-]n(-c2ccccc2)c(=O)c1N=N[C@H](C)c1ccccc1 (chirality)
Cc1[n-]n(-c2ccccc2)c(=O)c1/N=N\[C@H](C)c1ccccc1 (cis-trans isomerization)
Cc1[n-]n(-c2ccccc2)c(=O)c1/N=N\[C@H](C)c1ccccc1 (3D coordinates assigned)
Cc1[n-]n(-c2ccccc2)c(=O)c1/N=N\[C@H](C)c1ccccc1 (optimized conformer: 83.43784280327831 kcal/mol)

>  <smiles>  (41) 
Cc1[nH]n(-c2ccccc2)c(=O)c1N=NC(C)c1ccccc1

>  <score_type>  (41) 
oracle

>  <origin>  (41) 
adg

>  <m_score__min__energy>  (41) 
-9.5099999999999998

>  <m_primary>  (41) 
energy

$$$$
42:0
     RDKit          3D

 52 55  0  0  0  0  0  0  0  0999 V2000
   -9.2300   21.6080  -30.9200 C   0  0  0  0  0  0  0  0  0  0  0  0
   -8.5000   22.7320  -31.5600 C   0  0  0  0  0  0  0  0  0  0  0  0
   -7.0300   22.5210  -31.6260 C   0  0  0  0  0  0  0  0  0  0  0  0
   -6.3400   21.4940  -32.2970 C   0  0  0  0  0  0  0  0  0  0  0  0
   -7.0950   20.4630  -33.0400 C   0  0  0  0  0  0  0  0  0  0  0  0
   -6.4100   19.2010  -32.9170 N   0  0  0  0  0  0  0  0  0  0  0  0
   -7.0970   18.2180  -32.1190 C   0  0  0  0  0  0  0  0  0  0  0  0
   -6.1390   17.0840  -31.8860 C   0  0  0  0  0  0  0  0  0  0  0  0
   -5.4570   16.6810  -33.0190 O   0  0  0  0  0  0  0  0  0  0  0  0
   -6.0630   17.1320  -34.1670 C   0  0  0  0  0  0  0  0  0  0  0  0
   -6.0910   18.6560  -34.1900 C   0  0  0  0  0  0  0  0  0  0  0  0
   -5.0350   21.6240  -32.1460 N   0  0  0  0  0  0  0  0  0  0  0  0
   -3.8970   20.8960  -32.6350 C   0  0  0  0  0  0  0  0  0  0  0  0
   -2.9040   21.5490  -33.4710 C   0  0  0  0  0  0  0  0  0  0  0  0
   -1.7610   20.5030  -33.6510 C   0  0  0  0  0  0  0  0  0  0  0  0
   -0.9770   20.5350  -32.5140 O   0  0  0  0  0  0  0  0  0  0  0  0
   -1.7050   20.8490  -31.3960 C   0  0  0  0  0  0  0  0  0  0  0  0
   -3.1160   20.2850  -31.4470 C   0  0  0  0  0  0  0  0  0  0  0  0
   -4.8260   22.7450  -31.3650 C   0  0  0  0  0  0  0  0  0  0  0  0
   -3.7360   23.3510  -30.8890 N   0  0  0  0  0  0  0  0  0  0  0  0
   -3.7790   24.4540  -30.1260 C   0  0  0  0  0  0  0  0  0  0  0  0
   -4.9640   25.0210  -29.7940 N   0  0  0  0  0  0  0  0  0  0  0  0
   -6.0630   24.4130  -30.2720 C   0  0  0  0  0  0  0  0  0  0  0  0
   -7.1960   24.9390  -29.9650 N   0  0  0  0  0  0  0  0  0  0  0  0
   -6.0460   23.2860  -31.0530 C   0  0  0  0  0  0  0  0  0  0  0  0
   -9.1668   21.7053  -29.8261 H   0  0  0  0  0  0  0  0  0  0  0  0
  -10.2852   21.6323  -31.2299 H   0  0  0  0  0  0  0  0  0  0  0  0
   -8.7787   20.6539  -31.2299 H   0  0  0  0  0  0  0  0  0  0  0  0
   -8.8806   22.8563  -32.5846 H   0  0  0  0  0  0  0  0  0  0  0  0
   -8.6720   23.6248  -30.9409 H   0  0  0  0  0  0  0  0  0  0  0  0
   -8.1086   20.3749  -32.6218 H   0  0  0  0  0  0  0  0  0  0  0  0
   -7.1658   20.7459  -34.1006 H   0  0  0  0  0  0  0  0  0  0  0  0
   -7.4001   18.6584  -31.1577 H   0  0  0  0  0  0  0  0  0  0  0  0
   -8.0031   17.8636  -32.6321 H   0  0  0  0  0  0  0  0  0  0  0  0
   -5.4022   17.4029  -31.1341 H   0  0  0  0  0  0  0  0  0  0  0  0
   -6.7392   16.2242  -31.5537 H   0  0  0  0  0  0  0  0  0  0  0  0
   -5.5026   16.7666  -35.0402 H   0  0  0  0  0  0  0  0  0  0  0  0
   -7.0962   16.7558  -34.1964 H   0  0  0  0  0  0  0  0  0  0  0  0
   -5.1011   19.0250  -34.4965 H   0  0  0  0  0  0  0  0  0  0  0  0
   -6.8699   18.9712  -34.8999 H   0  0  0  0  0  0  0  0  0  0  0  0
   -4.3981   20.1858  -33.3091 H   0  0  0  0  0  0  0  0  0  0  0  0
   -3.3377   21.8167  -34.4458 H   0  0  0  0  0  0  0  0  0  0  0  0
   -2.5371   22.4816  -33.0175 H   0  0  0  0  0  0  0  0  0  0  0  0
   -2.1900   19.4986  -33.7817 H   0  0  0  0  0  0  0  0  0  0  0  0
   -1.1586   20.7410  -34.5401 H   0  0  0  0  0  0  0  0  0  0  0  0
   -1.1921   20.4388  -30.5135 H   0  0  0  0  0  0  0  0  0  0  0  0
   -1.7831   21.9449  -31.3430 H   0  0  0  0  0  0  0  0  0  0  0  0
   -3.0659   19.1930  -31.5691 H   0  0  0  0  0  0  0  0  0  0  0  0
   -3.6355   20.5365  -30.5106 H   0  0  0  0  0  0  0  0  0  0  0  0
   -2.8416   24.9030  -29.7660 H   0  0  0  0  0  0  0  0  0  0  0  0
   -4.9930   25.8690  -29.2070 H   0  0  0  0  0  0  0  0  0  0  0  0
   -7.5040   24.8970  -28.9730 H   0  0  0  0  0  0  0  0  0  0  0  0
  1  2  1  0
  2  3  1  0
  3  4  2  0
  4  5  1  0
  5  6  1  0
  6  7  1  0
  7  8  1  0
  8  9  1  0
  9 10  1  0
 10 11  1  0
  4 12  1  0
 12 13  1  0
 13 14  1  0
 14 15  1  0
 15 16  1  0
 16 17  1  0
 17 18  1  0
 12 19  1  0
 19 20  1  0
 20 21  2  0
 21 22  1  0
 22 23  1  0
 23 24  2  3
 23 25  1  0
 25  3  1  0
 11  6  1  0
 18 13  1  0
 25 19  2  0
  1 26  1  0
  1 27  1  0
  1 28  1  0
  2 29  1  0
  2 30  1  0
  5 31  1  0
  5 32  1  0
  7 33  1  0
  7 34  1  0
  8 35  1  0
  8 36  1  0
 10 37  1  0
 10 38  1  0
 11 39  1  0
 11 40  1  0
 13 41  1  0
 14 42  1  0
 14 43  1  0
 15 44  1  0
 15 45  1  0
 17 46  1  0
 17 47  1  0
 18 48  1  0
 18 49  1  0
 21 50  1  0
 22 51  1  0
 24 52  1  0
M  END
>  <smiles>  (42) 
CCc1c(CN2CCOCC2)n(C2CCOCC2)c2nc[nH]c(=N)c12

>  <score_type>  (42) 
oracle

>  <origin>  (42) 
adg

>  <m_score__min__energy>  (42) 
-8.1099999999999994

>  <m_primary>  (42) 
energy

$$$$
43:0
     RDKit          3D

 30 31  0  0  0  0  0  0  0  0999 V2000
   -5.3310   18.2590  -34.8320 C   0  0  0  0  0  0  0  0  0  0  0  0
   -6.1250   18.2670  -33.5600 C   0  0  0  0  0  0  0  0  0  0  0  0
   -5.7780   17.4120  -32.5070 C   0  0  0  0  0  0  0  0  0  0  0  0
   -6.5580   17.4240  -31.3520 C   0  0  0  0  0  0  0  0  0  0  0  0
   -7.6320   18.2490  -31.2690 N   0  0  0  0  0  0  0  0  0  0  0  0
   -7.9680   19.0660  -32.3010 C   0  0  0  0  0  0  0  0  0  0  0  0
   -9.3910   20.1460  -32.1520 S   0  0  0  0  0  0  0  0  0  0  0  0
   -8.5200   21.4160  -31.1650 C   0  0  0  0  0  0  0  0  0  0  0  0
   -7.3270   21.9630  -31.9030 C   0  0  0  0  0  0  0  0  0  0  0  0
   -7.1330   21.5720  -33.0870 O   0  0  0  0  0  0  0  0  0  0  0  0
   -6.4020   22.9620  -31.3020 C   0  0  0  0  0  0  0  0  0  0  0  0
   -6.8790   24.1420  -30.6960 C   0  0  0  0  0  0  0  0  0  0  0  0
   -5.9890   25.0670  -30.1450 C   0  0  0  0  0  0  0  0  0  0  0  0
   -4.6130   24.8310  -30.1890 C   0  0  0  0  0  0  0  0  0  0  0  0
   -4.1260   23.6670  -30.7840 C   0  0  0  0  0  0  0  0  0  0  0  0
   -5.0110   22.7380  -31.3370 C   0  0  0  0  0  0  0  0  0  0  0  0
   -7.2260   19.0640  -33.4430 N   0  0  0  0  0  0  0  0  0  0  0  0
   -4.2571   18.2482  -34.5939 H   0  0  0  0  0  0  0  0  0  0  0  0
   -5.5857   17.3634  -35.4176 H   0  0  0  0  0  0  0  0  0  0  0  0
   -5.5676   19.1596  -35.4176 H   0  0  0  0  0  0  0  0  0  0  0  0
   -4.9076   16.7445  -32.5896 H   0  0  0  0  0  0  0  0  0  0  0  0
   -6.3032   16.7654  -30.5086 H   0  0  0  0  0  0  0  0  0  0  0  0
   -9.2156   22.2402  -30.9485 H   0  0  0  0  0  0  0  0  0  0  0  0
   -8.1666   20.9486  -30.2341 H   0  0  0  0  0  0  0  0  0  0  0  0
   -7.9610   24.3360  -30.6567 H   0  0  0  0  0  0  0  0  0  0  0  0
   -6.3731   25.9843  -29.6749 H   0  0  0  0  0  0  0  0  0  0  0  0
   -3.9146   25.5617  -29.7552 H   0  0  0  0  0  0  0  0  0  0  0  0
   -3.0425   23.4801  -30.8179 H   0  0  0  0  0  0  0  0  0  0  0  0
   -4.6183   21.8229  -31.8042 H   0  0  0  0  0  0  0  0  0  0  0  0
   -7.5030   19.6880  -34.2330 H   0  0  0  0  0  0  0  0  0  0  0  0
  1  2  1  0
  2  3  2  0
  3  4  1  0
  4  5  2  0
  5  6  1  0
  6  7  1  0
  7  8  1  0
  8  9  1  0
  9 10  2  0
  9 11  1  0
 11 12  2  0
 12 13  1  0
 13 14  2  0
 14 15  1  0
 15 16  2  0
  6 17  2  0
 17  2  1  0
 16 11  1  0
  1 18  1  0
  1 19  1  0
  1 20  1  0
  3 21  1  0
  4 22  1  0
  8 23  1  0
  8 24  1  0
 12 25  1  0
 13 26  1  0
 14 27  1  0
 15 28  1  0
 16 29  1  0
 17 30  1  0
M  CHG  1  17   1
M  END
>  <UniqueID>  (43) 
41

>  <SMILES>  (43) 
Cc1ccnc(SCC(=O)c2ccccc2)[nH+]1

>  <Energy>  (43) 
26.790718503435286

>  <Genealogy>  (43) 
Cc1ccnc(SCC(=O)c2ccccc2)[nH+]1 (protonated)
Cc1ccnc(SCC(=O)c2ccccc2)[nH+]1 (3D coordinates assigned)
Cc1ccnc(SCC(=O)c2ccccc2)[nH+]1 (optimized conformer: 26.790718503435286 kcal/mol)

>  <smiles>  (43) 
Cc1ccnc(SCC(=O)c2ccccc2)n1

>  <score_type>  (43) 
oracle

>  <origin>  (43) 
adg

>  <m_score__min__energy>  (43) 
-6.9100000000000001

>  <m_primary>  (43) 
energy

$$$$
44:0
     RDKit          3D

 27 29  0  0  0  0  0  0  0  0999 V2000
   -5.8120   24.4870  -29.1140 O   0  0  0  0  0  0  0  0  0  0  0  0
   -5.1770   24.6030  -30.4720 S   0  0  0  0  0  0  0  0  0  0  0  0
   -5.8080   25.7500  -31.2090 O   0  0  0  0  0  0  0  0  0  0  0  0
   -3.4820   24.9150  -30.2790 N   0  0  0  0  0  0  0  0  0  0  0  0
   -2.6000   24.1850  -29.4140 C   0  0  0  0  0  0  0  0  0  0  0  0
   -2.8440   22.8460  -29.0560 C   0  0  0  0  0  0  0  0  0  0  0  0
   -1.9530   22.1680  -28.2180 C   0  0  0  0  0  0  0  0  0  0  0  0
   -0.8170   22.8190  -27.7290 C   0  0  0  0  0  0  0  0  0  0  0  0
   -0.5720   24.1490  -28.0770 C   0  0  0  0  0  0  0  0  0  0  0  0
   -1.4600   24.8310  -28.9150 C   0  0  0  0  0  0  0  0  0  0  0  0
   -1.2070   26.1230  -29.2460 F   0  0  0  0  0  0  0  0  0  0  0  0
   -5.4200   23.1250  -31.4060 C   0  0  0  0  0  0  0  0  0  0  0  0
   -4.3360   22.5160  -32.0630 C   0  0  0  0  0  0  0  0  0  0  0  0
   -4.5190   21.3510  -32.8240 C   0  0  0  0  0  0  0  0  0  0  0  0
   -5.7870   20.7700  -32.9430 C   0  0  0  0  0  0  0  0  0  0  0  0
   -6.8710   21.3590  -32.2940 C   0  0  0  0  0  0  0  0  0  0  0  0
   -8.1280   20.8540  -32.3600 N   0  0  0  0  0  0  0  0  0  0  0  0
   -8.9330   21.9520  -31.4210 S   0  0  0  0  0  0  0  0  0  0  0  0
   -7.7990   23.0460  -30.9190 N   0  0  0  0  0  0  0  0  0  0  0  0
   -6.6900   22.5410  -31.5200 C   0  0  0  0  0  0  0  0  0  0  0  0
   -3.7384   22.3310  -29.4365 H   0  0  0  0  0  0  0  0  0  0  0  0
   -2.1466   21.1206  -27.9433 H   0  0  0  0  0  0  0  0  0  0  0  0
   -0.1166   22.2842  -27.0706 H   0  0  0  0  0  0  0  0  0  0  0  0
    0.3216   24.6615  -27.6911 H   0  0  0  0  0  0  0  0  0  0  0  0
   -3.3323   22.9582  -31.9794 H   0  0  0  0  0  0  0  0  0  0  0  0
   -3.6585   20.8905  -33.3314 H   0  0  0  0  0  0  0  0  0  0  0  0
   -5.9265   19.8582  -33.5423 H   0  0  0  0  0  0  0  0  0  0  0  0
  1  2  2  0
  2  3  2  0
  2  4  1  0
  4  5  1  0
  5  6  2  0
  6  7  1  0
  7  8  2  0
  8  9  1  0
  9 10  2  0
 10 11  1  0
  2 12  1  0
 12 13  2  0
 13 14  1  0
 14 15  2  0
 15 16  1  0
 16 17  2  0
 17 18  1  0
 18 19  1  0
 19 20  2  0
 10  5  1  0
 20 12  1  0
 20 16  1  0
  6 21  1  0
  7 22  1  0
  8 23  1  0
  9 24  1  0
 13 25  1  0
 14 26  1  0
 15 27  1  0
M  CHG  1   4  -1
M  END
>  <UniqueID>  (44) 
42

>  <SMILES>  (44) 
O=S(=O)([N-]c1ccccc1F)c1cccc2nsnc12

>  <Energy>  (44) 
71.0618229475844

>  <Genealogy>  (44) 
O=S(=O)([N-]c1ccccc1F)c1cccc2nsnc12 (protonated)
O=S(=O)([N-]c1ccccc1F)c1cccc2nsnc12 (3D coordinates assigned)
O=S(=O)([N-]c1ccccc1F)c1cccc2nsnc12 (optimized conformer: 71.0618229475844 kcal/mol)

>  <smiles>  (44) 
O=S(=O)(Nc1ccccc1F)c1cccc2nsnc12

>  <score_type>  (44) 
oracle

>  <origin>  (44) 
adg

>  <m_score__min__energy>  (44) 
-9.1999999999999993

>  <m_primary>  (44) 
energy

$$$$
45:0
     RDKit          3D

 49 52  0  0  0  0  0  0  0  0999 V2000
   -9.1130   18.6920  -31.5360 C   0  0  0  0  0  0  0  0  0  0  0  0
   -8.1360   17.9520  -32.2630 O   0  0  0  0  0  0  0  0  0  0  0  0
   -6.8780   18.4500  -32.6310 C   0  0  0  0  0  0  0  0  0  0  0  0
   -6.2090   17.8370  -33.6990 C   0  0  0  0  0  0  0  0  0  0  0  0
   -4.9520   18.2900  -34.1080 C   0  0  0  0  0  0  0  0  0  0  0  0
   -4.3480   19.3660  -33.4510 C   0  0  0  0  0  0  0  0  0  0  0  0
   -3.1220   19.8040  -33.8430 N   0  0  0  0  0  0  0  0  0  0  0  0
   -2.5010   20.8430  -33.2250 C   0  0  0  0  0  0  0  0  0  0  0  0
   -3.1200   21.5030  -32.1530 C   0  0  0  0  0  0  0  0  0  0  0  0
   -2.4100   22.6100  -31.4190 C   0  0  0  0  0  0  0  0  0  0  0  0
   -3.0370   22.8320  -30.1130 N   0  0  0  0  0  0  0  0  0  0  0  0
   -2.6710   22.0240  -28.9830 C   0  0  0  0  0  0  0  0  0  0  0  0
   -3.0850   20.6840  -28.9100 C   0  0  0  0  0  0  0  0  0  0  0  0
   -2.7590   19.9070  -27.7960 C   0  0  0  0  0  0  0  0  0  0  0  0
   -2.0190   20.4610  -26.7470 C   0  0  0  0  0  0  0  0  0  0  0  0
   -1.7050   19.7060  -25.6650 F   0  0  0  0  0  0  0  0  0  0  0  0
   -1.6050   21.7940  -26.8130 C   0  0  0  0  0  0  0  0  0  0  0  0
   -1.9300   22.5760  -27.9260 C   0  0  0  0  0  0  0  0  0  0  0  0
   -4.2510   24.0640  -29.9420 S   0  0  0  0  0  0  0  0  0  0  0  0
   -4.3780   24.4350  -28.4910 O   0  0  0  0  0  0  0  0  0  0  0  0
   -3.8600   25.2940  -30.7120 O   0  0  0  0  0  0  0  0  0  0  0  0
   -5.7890   23.4690  -30.5580 C   0  0  0  0  0  0  0  0  0  0  0  0
   -6.6330   22.7010  -29.7420 C   0  0  0  0  0  0  0  0  0  0  0  0
   -7.8360   22.1990  -30.2500 C   0  0  0  0  0  0  0  0  0  0  0  0
   -8.2000   22.4610  -31.5750 C   0  0  0  0  0  0  0  0  0  0  0  0
   -7.3610   23.2250  -32.3910 C   0  0  0  0  0  0  0  0  0  0  0  0
   -6.1590   23.7280  -31.8850 C   0  0  0  0  0  0  0  0  0  0  0  0
   -4.3860   21.0700  -31.7310 C   0  0  0  0  0  0  0  0  0  0  0  0
   -5.0110   19.9950  -32.3760 C   0  0  0  0  0  0  0  0  0  0  0  0
   -6.2720   19.5360  -31.9690 C   0  0  0  0  0  0  0  0  0  0  0  0
   -8.9426   18.5629  -30.4570 H   0  0  0  0  0  0  0  0  0  0  0  0
   -9.0330   19.7581  -31.7949 H   0  0  0  0  0  0  0  0  0  0  0  0
  -10.1176   18.3262  -31.7949 H   0  0  0  0  0  0  0  0  0  0  0  0
   -6.6785   16.9901  -34.2209 H   0  0  0  0  0  0  0  0  0  0  0  0
   -4.4374   17.7996  -34.9475 H   0  0  0  0  0  0  0  0  0  0  0  0
   -1.5075   21.1682  -33.5673 H   0  0  0  0  0  0  0  0  0  0  0  0
   -1.3556   22.3323  -31.2738 H   0  0  0  0  0  0  0  0  0  0  0  0
   -2.4756   23.5345  -32.0115 H   0  0  0  0  0  0  0  0  0  0  0  0
   -3.6680   20.2448  -29.7329 H   0  0  0  0  0  0  0  0  0  0  0  0
   -3.0849   18.8577  -27.7439 H   0  0  0  0  0  0  0  0  0  0  0  0
   -1.0222   22.2292  -25.9878 H   0  0  0  0  0  0  0  0  0  0  0  0
   -1.6044   23.6256  -27.9733 H   0  0  0  0  0  0  0  0  0  0  0  0
   -6.3482   22.4930  -28.7001 H   0  0  0  0  0  0  0  0  0  0  0  0
   -8.4960   21.5980  -29.6072 H   0  0  0  0  0  0  0  0  0  0  0  0
   -9.1458   22.0661  -31.9744 H   0  0  0  0  0  0  0  0  0  0  0  0
   -7.6470   23.4308  -33.4330 H   0  0  0  0  0  0  0  0  0  0  0  0
   -5.5013   24.3290  -32.5302 H   0  0  0  0  0  0  0  0  0  0  0  0
   -4.8883   21.5751  -30.8928 H   0  0  0  0  0  0  0  0  0  0  0  0
   -6.7894   20.0252  -31.1306 H   0  0  0  0  0  0  0  0  0  0  0  0
  1  2  1  0
  2  3  1  0
  3  4  2  0
  4  5  1  0
  5  6  2  0
  6  7  1  0
  7  8  2  0
  8  9  1  0
  9 10  1  0
 10 11  1  0
 11 12  1  0
 12 13  2  0
 13 14  1  0
 14 15  2  0
 15 16  1  0
 15 17  1  0
 17 18  2  0
 11 19  1  0
 19 20  2  0
 19 21  2  0
 19 22  1  0
 22 23  2  0
 23 24  1  0
 24 25  2  0
 25 26  1  0
 26 27  2  0
  9 28  2  0
 28 29  1  0
 29 30  2  0
 30  3  1  0
 29  6  1  0
 18 12  1  0
 27 22  1  0
  1 31  1  0
  1 32  1  0
  1 33  1  0
  4 34  1  0
  5 35  1  0
  8 36  1  0
 10 37  1  0
 10 38  1  0
 13 39  1  0
 14 40  1  0
 17 41  1  0
 18 42  1  0
 23 43  1  0
 24 44  1  0
 25 45  1  0
 26 46  1  0
 27 47  1  0
 28 48  1  0
 30 49  1  0
M  END
>  <UniqueID>  (45) 
43

>  <SMILES>  (45) 
COc1ccc2ncc(CN(c3ccc(F)cc3)S(=O)(=O)c3ccccc3)cc2c1

>  <Energy>  (45) 
58.54994474374895

>  <Genealogy>  (45) 
COc1ccc2ncc(CN(c3ccc(F)cc3)S(=O)(=O)c3ccccc3)cc2c1 (3D coordinates assigned)
COc1ccc2ncc(CN(c3ccc(F)cc3)S(=O)(=O)c3ccccc3)cc2c1 (optimized conformer: 58.54994474374895 kcal/mol)

>  <smiles>  (45) 
COc1ccc2ncc(CN(c3ccc(F)cc3)S(=O)(=O)c3ccccc3)cc2c1

>  <score_type>  (45) 
oracle

>  <origin>  (45) 
adg

>  <m_score__min__energy>  (45) 
-9.6500000000000004

>  <m_primary>  (45) 
energy

$$$$
46:0
     RDKit          3D

 39 41  0  0  0  0  0  0  0  0999 V2000
   -1.9720   21.3410  -32.1400 C   0  0  0  0  0  0  0  0  0  0  0  0
   -2.5060   22.2270  -31.1610 O   0  0  0  0  0  0  0  0  0  0  0  0
   -3.8230   22.7120  -31.1440 C   0  0  0  0  0  0  0  0  0  0  0  0
   -4.8850   21.9320  -31.6430 C   0  0  0  0  0  0  0  0  0  0  0  0
   -6.2050   22.4040  -31.6170 C   0  0  0  0  0  0  0  0  0  0  0  0
   -7.3170   21.5820  -32.1530 C   0  0  0  0  0  0  0  0  0  0  0  0
   -8.4480   22.1180  -32.3150 O   0  0  0  0  0  0  0  0  0  0  0  0
   -7.1480   20.1520  -32.5060 C   0  0  0  0  0  0  0  0  0  0  0  0
   -7.9810   19.1540  -31.9300 C   0  0  0  0  0  0  0  0  0  0  0  0
   -7.8290   17.7990  -32.2750 C   0  0  0  0  0  0  0  0  0  0  0  0
   -6.8470   17.4720  -33.2050 C   0  0  0  0  0  0  0  0  0  0  0  0
   -6.5400   16.2830  -33.6630 O   0  0  0  0  0  0  0  0  0  0  0  0
   -5.5530   16.4320  -34.5280 C   0  0  0  0  0  0  0  0  0  0  0  0
   -5.2010   17.7740  -34.6380 C   0  0  0  0  0  0  0  0  0  0  0  0
   -6.0500   18.4250  -33.7740 C   0  0  0  0  0  0  0  0  0  0  0  0
   -6.1710   19.7750  -33.4580 C   0  0  0  0  0  0  0  0  0  0  0  0
   -6.4610   23.6850  -31.1160 C   0  0  0  0  0  0  0  0  0  0  0  0
   -5.4170   24.4830  -30.6150 C   0  0  0  0  0  0  0  0  0  0  0  0
   -5.6510   25.7680  -30.0970 O   0  0  0  0  0  0  0  0  0  0  0  0
   -6.4860   26.0510  -28.9780 C   0  0  0  0  0  0  0  0  0  0  0  0
   -4.0980   24.0020  -30.6220 C   0  0  0  0  0  0  0  0  0  0  0  0
   -3.1110   24.8590  -30.0980 O   0  0  0  0  0  0  0  0  0  0  0  0
   -2.2600   24.5970  -28.9880 C   0  0  0  0  0  0  0  0  0  0  0  0
   -1.4666   20.5024  -31.6388 H   0  0  0  0  0  0  0  0  0  0  0  0
   -2.7877   20.9546  -32.7687 H   0  0  0  0  0  0  0  0  0  0  0  0
   -1.2493   21.8818  -32.7687 H   0  0  0  0  0  0  0  0  0  0  0  0
   -4.6750   20.9360  -32.0600 H   0  0  0  0  0  0  0  0  0  0  0  0
   -8.7549   19.4456  -31.2047 H   0  0  0  0  0  0  0  0  0  0  0  0
   -8.4655   17.0232  -31.8244 H   0  0  0  0  0  0  0  0  0  0  0  0
   -5.0763   15.6109  -35.0834 H   0  0  0  0  0  0  0  0  0  0  0  0
   -4.4190   18.2151  -35.2736 H   0  0  0  0  0  0  0  0  0  0  0  0
   -5.5256   20.5276  -33.9346 H   0  0  0  0  0  0  0  0  0  0  0  0
   -7.4905   24.0724  -31.1140 H   0  0  0  0  0  0  0  0  0  0  0  0
   -5.9294   25.8624  -28.0482 H   0  0  0  0  0  0  0  0  0  0  0  0
   -6.7984   27.1052  -29.0109 H   0  0  0  0  0  0  0  0  0  0  0  0
   -7.3750   25.4040  -29.0109 H   0  0  0  0  0  0  0  0  0  0  0  0
   -2.8139   24.7675  -28.0530 H   0  0  0  0  0  0  0  0  0  0  0  0
   -1.9184   23.5521  -29.0265 H   0  0  0  0  0  0  0  0  0  0  0  0
   -1.3899   25.2689  -29.0265 H   0  0  0  0  0  0  0  0  0  0  0  0
  1  2  1  0
  2  3  1  0
  3  4  2  0
  4  5  1  0
  5  6  1  0
  6  7  2  0
  6  8  1  0
  8  9  2  0
  9 10  1  0
 10 11  2  0
 11 12  1  0
 12 13  1  0
 13 14  2  0
 14 15  1  0
 15 16  2  0
  5 17  2  0
 17 18  1  0
 18 19  1  0
 19 20  1  0
 18 21  2  0
 21 22  1  0
 22 23  1  0
 21  3  1  0
 16  8  1  0
 15 11  1  0
  1 24  1  0
  1 25  1  0
  1 26  1  0
  4 27  1  0
  9 28  1  0
 10 29  1  0
 13 30  1  0
 14 31  1  0
 16 32  1  0
 17 33  1  0
 20 34  1  0
 20 35  1  0
 20 36  1  0
 23 37  1  0
 23 38  1  0
 23 39  1  0
M  END
>  <UniqueID>  (46) 
44

>  <SMILES>  (46) 
COc1cc(C(=O)c2ccc3occc3c2)cc(OC)c1OC

>  <Energy>  (46) 
82.4911351948499

>  <Genealogy>  (46) 
COc1cc(C(=O)c2ccc3occc3c2)cc(OC)c1OC (3D coordinates assigned)
COc1cc(C(=O)c2ccc3occc3c2)cc(OC)c1OC (optimized conformer: 82.4911351948499 kcal/mol)

>  <smiles>  (46) 
COc1cc(C(=O)c2ccc3occc3c2)cc(OC)c1OC

>  <score_type>  (46) 
oracle

>  <origin>  (46) 
adg

>  <m_score__min__energy>  (46) 
-7.8099999999999996

>  <m_primary>  (46) 
energy

$$$$
47:0
     RDKit          3D

 47 50  0  0  0  0  0  0  0  0999 V2000
   -4.2390   22.0730  -28.7990 C   0  0  0  0  0  0  0  0  0  0  0  0
   -4.6190   23.3410  -29.5160 C   0  0  0  0  0  0  0  0  0  0  0  0
   -5.9240   23.6500  -29.9820 C   0  0  0  0  0  0  0  0  0  0  0  0
   -7.1330   22.7380  -29.8930 C   0  0  0  0  0  0  0  0  0  0  0  0
   -7.0150   21.4970  -30.6960 N   0  0  0  0  0  0  0  0  0  0  0  0
   -8.3020   21.0530  -31.2620 C   0  0  0  0  0  0  0  0  0  0  0  0
   -8.1780   19.6020  -31.7260 C   0  0  0  0  0  0  0  0  0  0  0  0
   -6.9550   19.3970  -32.5820 C   0  0  0  0  0  0  0  0  0  0  0  0
   -6.8490   18.2380  -33.3670 C   0  0  0  0  0  0  0  0  0  0  0  0
   -5.7040   18.0070  -34.1320 C   0  0  0  0  0  0  0  0  0  0  0  0
   -4.6520   18.9250  -34.1150 C   0  0  0  0  0  0  0  0  0  0  0  0
   -4.7400   20.0750  -33.3270 C   0  0  0  0  0  0  0  0  0  0  0  0
   -5.8790   20.3120  -32.5410 C   0  0  0  0  0  0  0  0  0  0  0  0
   -5.9790   21.5910  -31.7440 C   0  0  0  0  0  0  0  0  0  0  0  0
   -6.0170   24.9210  -30.5470 C   0  0  0  0  0  0  0  0  0  0  0  0
   -4.5100   25.6490  -30.4910 S   0  0  0  0  0  0  0  0  0  0  0  0
   -3.7050   24.3790  -29.7420 C   0  0  0  0  0  0  0  0  0  0  0  0
   -2.2800   24.4190  -29.3480 C   0  0  0  0  0  0  0  0  0  0  0  0
   -1.6340   23.3450  -29.2370 O   0  0  0  0  0  0  0  0  0  0  0  0
   -1.6330   25.6520  -29.0090 N   0  0  0  0  0  0  0  0  0  0  0  0
   -1.2900   26.0850  -27.6850 C   0  0  0  0  0  0  0  0  0  0  0  0
   -0.5110   27.2390  -27.5290 C   0  0  0  0  0  0  0  0  0  0  0  0
   -0.1740   27.6960  -26.2500 C   0  0  0  0  0  0  0  0  0  0  0  0
   -0.6280   27.0100  -25.1190 C   0  0  0  0  0  0  0  0  0  0  0  0
   -0.3020   27.4550  -23.8800 F   0  0  0  0  0  0  0  0  0  0  0  0
   -1.4260   25.8730  -25.2660 C   0  0  0  0  0  0  0  0  0  0  0  0
   -1.7660   25.4130  -26.5420 C   0  0  0  0  0  0  0  0  0  0  0  0
   -4.2882   22.2373  -27.7125 H   0  0  0  0  0  0  0  0  0  0  0  0
   -4.9359   21.2698  -29.0803 H   0  0  0  0  0  0  0  0  0  0  0  0
   -3.2152   21.7854  -29.0803 H   0  0  0  0  0  0  0  0  0  0  0  0
   -7.2760   22.4556  -28.8395 H   0  0  0  0  0  0  0  0  0  0  0  0
   -7.9856   23.3004  -30.3013 H   0  0  0  0  0  0  0  0  0  0  0  0
   -9.0860   21.1271  -30.4939 H   0  0  0  0  0  0  0  0  0  0  0  0
   -8.5672   21.6914  -32.1177 H   0  0  0  0  0  0  0  0  0  0  0  0
   -8.1096   18.9493  -30.8432 H   0  0  0  0  0  0  0  0  0  0  0  0
   -9.0651   19.3559  -32.3281 H   0  0  0  0  0  0  0  0  0  0  0  0
   -7.6720   17.5083  -33.3795 H   0  0  0  0  0  0  0  0  0  0  0  0
   -5.6305   17.0997  -34.7495 H   0  0  0  0  0  0  0  0  0  0  0  0
   -3.7534   18.7425  -34.7226 H   0  0  0  0  0  0  0  0  0  0  0  0
   -3.9120   20.7992  -33.3222 H   0  0  0  0  0  0  0  0  0  0  0  0
   -5.0076   21.7928  -31.2690 H   0  0  0  0  0  0  0  0  0  0  0  0
   -6.2561   22.4044  -32.4308 H   0  0  0  0  0  0  0  0  0  0  0  0
   -6.9307   25.3719  -30.9617 H   0  0  0  0  0  0  0  0  0  0  0  0
   -0.1627   27.7884  -28.4160 H   0  0  0  0  0  0  0  0  0  0  0  0
    0.4485   28.5955  -26.1341 H   0  0  0  0  0  0  0  0  0  0  0  0
   -1.7879   25.3380  -24.3756 H   0  0  0  0  0  0  0  0  0  0  0  0
   -2.4060   24.5253  -26.6534 H   0  0  0  0  0  0  0  0  0  0  0  0
  1  2  1  0
  2  3  1  0
  3  4  1  0
  4  5  1  0
  5  6  1  0
  6  7  1  0
  7  8  1  0
  8  9  2  0
  9 10  1  0
 10 11  2  0
 11 12  1  0
 12 13  2  0
 13 14  1  0
  3 15  2  0
 15 16  1  0
 16 17  1  0
 17 18  1  0
 18 19  2  0
 18 20  1  0
 20 21  1  0
 21 22  2  0
 22 23  1  0
 23 24  2  0
 24 25  1  0
 24 26  1  0
 26 27  2  0
 17  2  2  0
 27 21  1  0
 14  5  1  0
 13  8  1  0
  1 28  1  0
  1 29  1  0
  1 30  1  0
  4 31  1  0
  4 32  1  0
  6 33  1  0
  6 34  1  0
  7 35  1  0
  7 36  1  0
  9 37  1  0
 10 38  1  0
 11 39  1  0
 12 40  1  0
 14 41  1  0
 14 42  1  0
 15 43  1  0
 22 44  1  0
 23 45  1  0
 26 46  1  0
 27 47  1  0
M  CHG  1  20  -1
M  END
>  <UniqueID>  (47) 
45

>  <SMILES>  (47) 
Cc1c(CN2CCc3ccccc3C2)csc1C(=O)[N-]c1ccc(F)cc1

>  <Energy>  (47) 
88.60120307834745

>  <Genealogy>  (47) 
Cc1c(CN2CCc3ccccc3C2)csc1C(=O)[N-]c1ccc(F)cc1 (protonated)
Cc1c(CN2CCc3ccccc3C2)csc1C(=O)[N-]c1ccc(F)cc1 (3D coordinates assigned)
Cc1c(CN2CCc3ccccc3C2)csc1C(=O)[N-]c1ccc(F)cc1 (nonaromatic ring conformer: 88.60120307834745 kcal/mol)

>  <smiles>  (47) 
Cc1c(CN2CCc3ccccc3C2)csc1C(=O)Nc1ccc(F)cc1

>  <score_type>  (47) 
oracle

>  <origin>  (47) 
adg

>  <m_score__min__energy>  (47) 
-11.09

>  <m_primary>  (47) 
energy

$$$$
